# Generated by pormake.
# Topology sml, (6)-cn, num edge types: 1
# Building blocks:
#     Node 0, Type 0, BuildingBlock: HISSIN_clean_sbu_0, # of connection points: 6
#     Node 1, Type 0, BuildingBlock: HISSIN_clean_sbu_0, # of connection points: 6
#     Node 2, Type 0, BuildingBlock: HISSIN_clean_sbu_0, # of connection points: 6
#     Node 3, Type 0, BuildingBlock: HISSIN_clean_sbu_0, # of connection points: 6
#     Node 4, Type 0, BuildingBlock: HISSIN_clean_sbu_0, # of connection points: 6
#     Node 5, Type 0, BuildingBlock: HISSIN_clean_sbu_0, # of connection points: 6
#     Edge 6, Type (0, 0), BuildingBlock: XIVTED_clean_linker_0, # of connection points: 2
#     Edge 7, Type (0, 0), BuildingBlock: XIVTED_clean_linker_0, # of connection points: 2
#     Edge 8, Type (0, 0), BuildingBlock: XIVTED_clean_linker_0, # of connection points: 2
#     Edge 9, Type (0, 0), BuildingBlock: XIVTED_clean_linker_0, # of connection points: 2
#     Edge 10, Type (0, 0), BuildingBlock: XIVTED_clean_linker_0, # of connection points: 2
#     Edge 11, Type (0, 0), BuildingBlock: XIVTED_clean_linker_0, # of connection points: 2
#     Edge 12, Type (0, 0), BuildingBlock: XIVTED_clean_linker_0, # of connection points: 2
#     Edge 13, Type (0, 0), BuildingBlock: XIVTED_clean_linker_0, # of connection points: 2
#     Edge 14, Type (0, 0), BuildingBlock: XIVTED_clean_linker_0, # of connection points: 2
#     Edge 15, Type (0, 0), BuildingBlock: XIVTED_clean_linker_0, # of connection points: 2
#     Edge 16, Type (0, 0), BuildingBlock: XIVTED_clean_linker_0, # of connection points: 2
#     Edge 17, Type (0, 0), BuildingBlock: XIVTED_clean_linker_0, # of connection points: 2
#     Edge 18, Type (0, 0), BuildingBlock: XIVTED_clean_linker_0, # of connection points: 2
#     Edge 19, Type (0, 0), BuildingBlock: XIVTED_clean_linker_0, # of connection points: 2
#     Edge 20, Type (0, 0), BuildingBlock: XIVTED_clean_linker_0, # of connection points: 2
#     Edge 21, Type (0, 0), BuildingBlock: XIVTED_clean_linker_0, # of connection points: 2
#     Edge 22, Type (0, 0), BuildingBlock: XIVTED_clean_linker_0, # of connection points: 2
#     Edge 23, Type (0, 0), BuildingBlock: XIVTED_clean_linker_0, # of connection points: 2
# Relax obj value: 0.175
# Max RMSD: 0.221
# Mean RMSD: 0.221
data_MOF--net-sml--node1-HISSIN_clean_sbu_0--edge1-XIVTED_clean_linker_0
_symmetry_space_group_name_H-M    P1
_symmetry_Int_Tables_number       1
_symmetry_cell_setting            triclinic
loop_
_symmetry_equiv_pos_as_xyz
'x, y, z'
_cell_length_a     32.403516
_cell_length_b     32.473817
_cell_length_c     25.182933
_cell_angle_alpha  89.983001
_cell_angle_beta   89.999848
_cell_angle_gamma 120.09562
loop_
_atom_site_label
_atom_site_type_symbol
_atom_site_fract_x
_atom_site_fract_y
_atom_site_fract_z
_atom_type_partial_charge
Eu0 Eu 0.19399 0.41378 0.13671 0.0
Eu1 Eu 0.12662 0.40451 0.03136 0.0
C2 C 0.14051 0.47235 0.13012 0.0
C3 C 0.2192 0.41441 0.28347 0.0
C4 C 0.17285 0.40474 0.29564 0.0
C5 C 0.23477 0.4136 0.37783 0.0
C6 C 0.1576 0.39965 0.3486 0.0
C7 C 0.24998 0.4188 0.32492 0.0
C8 C 0.18837 0.40393 0.39047 0.0
C9 C 0.23544 0.41962 0.22777 0.0
O10 O 0.20122 0.43816 1.00139 0.0
O11 O 0.2447 0.46961 0.078 0.0
C12 C 0.2412 0.4671 0.02569 0.0
O13 O 0.21034 0.37222 0.07907 0.0
O14 O 0.10976 0.43849 0.9669 0.0
O15 O 0.06881 0.36189 0.97564 0.0
O16 O 0.14301 0.34412 0.02642 0.0
C17 C 0.18038 0.34214 0.04411 0.0
O18 O 0.12382 0.34528 0.13853 0.0
O19 O 0.07697 0.37071 0.10053 0.0
O20 O 0.14185 0.47108 0.07789 0.0
O21 O 0.2149 0.38104 0.19897 0.0
O22 O 0.2396 0.45652 0.2022 0.0
O23 O 0.14671 0.44248 0.15881 0.0
C24 C 0.08517 0.39323 0.88825 0.0
C25 C 0.12642 0.39373 0.87027 0.0
C26 C 0.05903 0.3876 0.79657 0.0
C27 C 0.13415 0.39162 0.81585 0.0
C28 C 0.05144 0.38988 0.85107 0.0
C29 C 0.1007 0.38883 0.77808 0.0
C30 C 0.07831 0.39828 0.94537 0.0
C31 C 0.08297 0.34413 0.13535 0.0
H32 H 0.14839 0.40097 0.26415 0.0
H33 H 0.25967 0.41781 0.40893 0.0
H34 H 0.12149 0.39166 0.35666 0.0
H35 H 0.28588 0.42633 0.31637 0.0
H36 H 0.15306 0.39654 0.89835 0.0
H37 H 0.03217 0.38482 0.76894 0.0
H38 H 0.16698 0.39339 0.8034 0.0
H39 H 0.01948 0.38958 0.86419 0.0
Eu40 Eu 0.79887 0.20819 0.4744 0.0
Eu41 Eu 0.86229 0.27082 0.5796 0.0
C42 C 0.84369 0.3195 0.47888 0.0
C43 C 0.77235 0.18047 0.32798 0.0
C44 C 0.8132 0.22346 0.31388 0.0
C45 C 0.75813 0.15907 0.23453 0.0
C46 C 0.82617 0.23441 0.2604 0.0
C47 C 0.74515 0.14829 0.28798 0.0
C48 C 0.79861 0.20248 0.21983 0.0
C49 C 0.75801 0.16899 0.38416 0.0
O50 O 0.78851 0.22256 0.60917 0.0
O51 O 0.74534 0.20898 0.53232 0.0
C52 C 0.74809 0.20893 0.58461 0.0
O53 O 0.78925 0.15248 0.53222 0.0
O54 O 0.87223 0.32012 0.64374 0.0
O55 O 0.92111 0.2933 0.63595 0.0
O56 O 0.8549 0.19753 0.58571 0.0
C57 C 0.82075 0.15625 0.56751 0.0
O58 O 0.87243 0.21749 0.47195 0.0
O59 O 0.91387 0.29017 0.51173 0.0
O60 O 0.84172 0.31726 0.53111 0.0
O61 O 0.78259 0.15511 0.41237 0.0
O62 O 0.75011 0.19931 0.40983 0.0
O63 O 0.84106 0.28444 0.45105 0.0
C64 C 0.90017 0.30411 0.72286 0.0
C65 C 0.86782 0.25748 0.73927 0.0
C66 C 0.9157 0.32843 0.81553 0.0
C67 C 0.85927 0.24645 0.79338 0.0
C68 C 0.92418 0.33944 0.76134 0.0
C69 C 0.88284 0.28186 0.83228 0.0
C70 C 0.90669 0.31651 0.66588 0.0
C71 C 0.9116 0.25862 0.47756 0.0
H72 H 0.83488 0.24875 0.34424 0.0
H73 H 0.73653 0.1331 0.20475 0.0
H74 H 0.85726 0.26832 0.25088 0.0
H75 H 0.71375 0.11476 0.29805 0.0
H76 H 0.84867 0.22971 0.71016 0.0
H77 H 0.93378 0.35672 0.84427 0.0
H78 H 0.83411 0.21014 0.80475 0.0
H79 H 0.94885 0.37576 0.74946 0.0
Eu80 Eu 0.58731 0.78561 0.80296 0.0
Eu81 Eu 0.59037 0.72444 0.69781 0.0
C82 C 0.52124 0.67464 0.79697 0.0
C83 C 0.58814 0.81175 0.94936 0.0
C84 C 0.5911 0.77117 0.96211 0.0
C85 C 0.59071 0.82947 0.04347 0.0
C86 C 0.59346 0.75962 0.01525 0.0
C87 C 0.58822 0.84088 0.99037 0.0
C88 C 0.59298 0.78846 0.05679 0.0
C89 C 0.58491 0.82372 0.89354 0.0
O90 O 0.56254 0.7706 0.66807 0.0
O91 O 0.532 0.78271 0.74509 0.0
C92 C 0.53458 0.78262 0.69277 0.0
O93 O 0.63204 0.842 0.74502 0.0
O94 O 0.55248 0.67418 0.63385 0.0
O95 O 0.62882 0.70449 0.64155 0.0
O96 O 0.65542 0.79872 0.69271 0.0
C97 C 0.66099 0.83947 0.71047 0.0
O98 O 0.65238 0.77783 0.805 0.0
O99 O 0.6215 0.7049 0.76665 0.0
O100 O 0.52227 0.67749 0.74477 0.0
O101 O 0.62352 0.83864 0.86517 0.0
O102 O 0.54677 0.79308 0.86777 0.0
O103 O 0.5536 0.70924 0.82548 0.0
C104 C 0.59671 0.69214 0.55473 0.0
C105 C 0.60457 0.7368 0.53825 0.0
C106 C 0.59328 0.66924 0.46207 0.0
C107 C 0.60622 0.74742 0.48414 0.0
C108 C 0.59143 0.65858 0.51632 0.0
C109 C 0.60006 0.7136 0.44526 0.0
C110 C 0.59136 0.67976 0.61168 0.0
C111 C 0.65006 0.73654 0.80131 0.0
H112 H 0.59125 0.74824 0.93093 0.0
H113 H 0.59123 0.85312 0.07409 0.0
H114 H 0.59474 0.72758 0.02372 0.0
H115 H 0.58632 0.87251 0.98133 0.0
H116 H 0.60868 0.76322 0.5673 0.0
H117 H 0.58784 0.64219 0.43333 0.0
H118 H 0.61218 0.78215 0.47276 0.0
H119 H 0.58485 0.62376 0.52828 0.0
Eu120 Eu 0.78615 0.58802 0.14129 0.0
Eu121 Eu 0.72357 0.58941 0.2463 0.0
C122 C 0.67474 0.52099 0.14643 0.0
C123 C 0.81357 0.59005 0.99489 0.0
C124 C 0.77379 0.59449 0.98197 0.0
C125 C 0.83163 0.59258 0.90076 0.0
C126 C 0.7629 0.59776 0.92879 0.0
C127 C 0.84239 0.58919 0.95393 0.0
C128 C 0.79168 0.59683 0.88739 0.0
C129 C 0.82507 0.58633 0.05084 0.0
O130 O 0.77184 0.56408 0.27596 0.0
O131 O 0.78469 0.53361 0.19946 0.0
C132 C 0.78478 0.5367 0.25174 0.0
O133 O 0.84201 0.63428 0.19918 0.0
O134 O 0.67417 0.55065 0.3107 0.0
O135 O 0.70202 0.62645 0.30269 0.0
O136 O 0.79695 0.65566 0.25129 0.0
C137 C 0.83833 0.66252 0.23374 0.0
O138 O 0.77661 0.65195 0.13828 0.0
O139 O 0.7037 0.62058 0.17784 0.0
O140 O 0.67709 0.52176 0.19866 0.0
O141 O 0.83978 0.6246 0.07959 0.0
O142 O 0.79414 0.54809 0.07619 0.0
O143 O 0.70964 0.55349 0.11829 0.0
C144 C 0.69081 0.59491 0.38978 0.0
C145 C 0.7342 0.59973 0.40707 0.0
C146 C 0.66908 0.59684 0.48191 0.0
C147 C 0.74478 0.60262 0.46137 0.0
C148 C 0.65849 0.59381 0.42754 0.0
C149 C 0.71223 0.6009 0.4997 0.0
C150 C 0.6784 0.58895 0.33276 0.0
C151 C 0.73526 0.64959 0.14333 0.0
H152 H 0.75118 0.5955 0.01306 0.0
H153 H 0.85425 0.59112 0.87005 0.0
H154 H 0.73226 0.60162 0.92017 0.0
H155 H 0.87318 0.58571 0.96305 0.0
H156 H 0.75961 0.60048 0.37855 0.0
H157 H 0.64341 0.59604 0.50999 0.0
H158 H 0.77802 0.60501 0.47325 0.0
H159 H 0.62479 0.59005 0.41501 0.0
Eu160 Eu 0.20385 0.79737 0.47008 0.0
Eu161 Eu 0.26769 0.8606 0.36505 0.0
C162 C 0.31509 0.83827 0.46426 0.0
C163 C 0.17598 0.7726 0.61647 0.0
C164 C 0.21733 0.8156 0.62937 0.0
C165 C 0.15695 0.75834 0.71057 0.0
C166 C 0.22854 0.82974 0.68251 0.0
C167 C 0.14587 0.74417 0.65743 0.0
C168 C 0.1985 0.80127 0.72391 0.0
C169 C 0.16407 0.75748 0.56053 0.0
O170 O 0.2173 0.78759 0.33511 0.0
O171 O 0.20192 0.74316 0.41125 0.0
C172 C 0.20211 0.74667 0.35899 0.0
O173 O 0.14877 0.79051 0.41263 0.0
O174 O 0.31629 0.86944 0.30044 0.0
O175 O 0.29117 0.91958 0.30877 0.0
O176 O 0.19554 0.85619 0.36002 0.0
C177 C 0.15368 0.82273 0.37779 0.0
O178 O 0.21678 0.87209 0.47392 0.0
O179 O 0.28964 0.91159 0.43388 0.0
O180 O 0.31276 0.83735 0.41204 0.0
O181 O 0.15064 0.78211 0.53177 0.0
O182 O 0.19401 0.74875 0.53517 0.0
O183 O 0.28057 0.8363 0.49278 0.0
C184 C 0.30124 0.89856 0.22152 0.0
C185 C 0.25621 0.86263 0.20432 0.0
C186 C 0.32458 0.92013 0.12928 0.0
C187 C 0.24557 0.85521 0.15 0.0
C188 C 0.33522 0.92736 0.18364 0.0
C189 C 0.27971 0.88366 0.11156 0.0
C190 C 0.31362 0.90447 0.27855 0.0
C191 C 0.25897 0.91008 0.46897 0.0
H192 H 0.24093 0.83828 0.59829 0.0
H193 H 0.13328 0.73521 0.74128 0.0
H194 H 0.26045 0.86328 0.69111 0.0
H195 H 0.11382 0.71089 0.64833 0.0
H196 H 0.22954 0.83974 0.23294 0.0
H197 H 0.3516 0.94315 0.10115 0.0
H198 H 0.21094 0.82631 0.13821 0.0
H199 H 0.37025 0.9551 0.19609 0.0
Eu200 Eu 0.40764 0.19158 0.8105 0.0
Eu201 Eu 0.40406 0.12666 0.91576 0.0
C202 C 0.47266 0.14496 0.81638 0.0
C203 C 0.40521 0.21427 0.66363 0.0
C204 C 0.40068 0.16984 0.65205 0.0
C205 C 0.40175 0.22758 0.56907 0.0
C206 C 0.39699 0.15452 0.59931 0.0
C207 C 0.4056 0.24291 0.62179 0.0
C208 C 0.39753 0.18323 0.55704 0.0
C209 C 0.40935 0.23071 0.7191 0.0
O210 O 0.43454 0.20097 0.94537 0.0
O211 O 0.46275 0.24458 0.86828 0.0
C212 C 0.46122 0.24133 0.92065 0.0
O213 O 0.36455 0.20523 0.86878 0.0
O214 O 0.44118 0.11335 0.97985 0.0
O215 O 0.36476 0.06795 0.97146 0.0
O216 O 0.34164 0.13993 0.92356 0.0
C217 C 0.33686 0.17553 0.9055 0.0
O218 O 0.34127 0.11968 0.8109 0.0
O219 O 0.37178 0.07652 0.84654 0.0
O220 O 0.47162 0.14619 0.86861 0.0
O221 O 0.37108 0.20782 0.74818 0.0
O222 O 0.4477 0.23843 0.74458 0.0
O223 O 0.44077 0.1483 0.78812 0.0
C224 C 0.39636 0.08633 0.05869 0.0
C225 C 0.38789 0.1225 0.07604 0.0
C226 C 0.39853 0.06486 0.15086 0.0
C227 C 0.38496 0.12995 0.13039 0.0
C228 C 0.40155 0.05753 0.09645 0.0
C229 C 0.39042 0.10135 0.1687 0.0
C230 C 0.40199 0.08006 1.00155 0.0
C231 C 0.34317 0.08045 0.81274 0.0
H232 H 0.39994 0.14698 0.68384 0.0
H233 H 0.40287 0.25088 0.53763 0.0
H234 H 0.39316 0.11994 0.59169 0.0
H235 H 0.40906 0.27727 0.62988 0.0
H236 H 0.38424 0.14547 0.04752 0.0
H237 H 0.40246 0.04182 0.17892 0.0
H238 H 0.37953 0.15892 0.14231 0.0
H239 H 0.40847 0.02967 0.08385 0.0
H240 H 0.30458 0.16436 1.00793 0.0
H241 H 0.15711 0.29647 0.94784 0.0
H242 H 0.28483 0.2057 0.85141 0.0
H243 H 0.22378 0.30214 0.09813 0.0
H244 H 0.18201 0.24099 0.91495 0.0
H245 H 0.25251 0.19242 0.04405 0.0
C246 C 0.28835 0.17828 0.98115 0.0
C247 C 0.29941 0.18362 0.92695 0.0
C248 C 0.19047 0.25393 0.95538 0.0
C249 C 0.24026 0.21529 0.96744 0.0
C250 C 0.17626 0.28541 0.97408 0.0
C251 C 0.18933 0.30448 0.02525 0.0
C252 C 0.21722 0.24118 0.9885 0.0
C253 C 0.21395 0.28897 0.05793 0.0
C254 C 0.25893 0.19443 1.00167 0.0
C255 C 0.27771 0.20189 0.89368 0.0
N256 N 0.22742 0.25847 0.03887 0.0
N257 N 0.24944 0.21748 0.91452 0.0
H258 H 0.026 0.37545 0.17684 0.0
H259 H 0.93869 0.20315 0.4248 0.0
H260 H 0.07053 0.27175 0.20003 0.0
H261 H 0.96057 0.34552 0.43083 0.0
H262 H 0.97947 0.22163 0.33882 0.0
H263 H 0.98905 0.35606 0.26484 0.0
C264 C 0.02682 0.34767 0.19983 0.0
C265 C 0.05108 0.32493 0.18129 0.0
C266 C 0.97609 0.24903 0.35952 0.0
C267 C 0.01018 0.30363 0.28185 0.0
C268 C 0.9533 0.23868 0.40859 0.0
C269 C 0.9467 0.27302 0.43475 0.0
C270 C 0.9911 0.29353 0.33619 0.0
C271 C 0.96559 0.31834 0.41209 0.0
C272 C 0.00659 0.33733 0.25032 0.0
C273 C 0.05199 0.28993 0.21306 0.0
N274 N 0.98628 0.32708 0.36343 0.0
N275 N 0.03185 0.28031 0.26201 0.0
H276 H 0.79362 0.07569 0.5114 0.0
H277 H 0.71029 0.92072 0.76697 0.0
H278 H 0.83753 0.13576 0.66797 0.0
H279 H 0.70263 0.86079 0.61199 0.0
H280 H 0.76724 -0.00075 0.7328 0.0
H281 H 0.77128 -0.00257 0.54687 0.0
C282 C 0.79922 0.07235 0.55324 0.0
C283 C 0.81639 0.11174 0.5872 0.0
C284 C 0.75396 0.96894 0.70637 0.0
C285 C 0.79029 0.02237 0.62819 0.0
C286 C 0.72121 0.92416 0.72577 0.0
C287 C 0.70111 0.88467 0.69178 0.0
C288 C 0.76576 0.97439 0.65226 0.0
C289 C 0.71705 0.89063 0.63919 0.0
C290 C 0.78672 0.02774 0.57342 0.0
C291 C 0.82392 0.10598 0.64073 0.0
N292 N 0.74774 0.93502 0.62061 0.0
N293 N 0.80971 0.06172 0.65994 0.0
H294 H 0.61257 0.64801 0.84464 0.0
H295 H 0.79118 0.73104 0.08887 0.0
H296 H 0.72689 0.79313 0.86253 0.0
H297 H 0.64789 0.61132 0.09691 0.0
H298 H 0.77268 0.75241 1.00258 0.0
H299 H 0.63194 0.62947 0.93218 0.0
C300 C 0.64261 0.67557 0.86634 0.0
C301 C 0.66843 0.72209 0.84648 0.0
C302 C 0.74506 0.72196 0.02368 0.0
C303 C 0.68975 0.70155 0.94657 0.0
C304 C 0.75544 0.71006 0.07298 0.0
C305 C 0.72086 0.66965 0.0999 0.0
C306 C 0.70016 0.69257 1.00085 0.0
C307 C 0.67527 0.64317 0.0776 0.0
C308 C 0.65302 0.66522 0.9166 0.0
C309 C 0.70629 0.7568 0.87659 0.0
N310 N 0.66639 0.65467 0.02876 0.0
N311 N 0.71579 0.74586 0.92533 0.0
H312 H 0.13647 0.8433 0.27762 0.0
H313 H 0.85612 0.70505 0.33153 0.0
H314 H 0.07128 0.79425 0.43135 0.0
H315 H 0.9216 0.71193 0.1801 0.0
H316 H 0.93483 0.76318 0.36687 0.0
H317 H 0.05782 0.82104 0.24077 0.0
C318 C 0.1058 0.82902 0.30377 0.0
C319 C 0.10979 0.81943 0.35713 0.0
C320 C 0.93166 0.75261 0.3256 0.0
C321 C 0.02058 0.79419 0.31576 0.0
C322 C 0.88689 0.71959 0.30552 0.0
C323 C 0.88289 0.703 0.2534 0.0
C324 C 0.97216 0.76914 0.29299 0.0
C325 C 0.92359 0.72303 0.22102 0.0
C326 C 0.06105 0.81622 0.28282 0.0
C327 C 0.06923 0.80106 0.38961 0.0
N328 N 0.9667 0.75468 0.24153 0.0
N329 N 0.02611 0.78843 0.36826 0.0
H330 H 0.26589 0.06117 0.75296 0.0
H331 H 0.34787 0.95986 0.51233 0.0
H332 H 0.3819 0.03239 0.76481 0.0
H333 H 0.20479 0.93599 0.52632 0.0
H334 H 0.36741 0.00053 0.59842 0.0
H335 H 0.24716 0.02482 0.66475 0.0
C336 C 0.28667 0.04615 0.73738 0.0
C337 C 0.32506 0.04916 0.76624 0.0
C338 C 0.33195 0.98688 0.58219 0.0
C339 C 0.30511 0.0094 0.66503 0.0
C340 C 0.32106 0.9645 0.53277 0.0
C341 C 0.27471 0.94476 0.51242 0.0
C342 C 0.29632 0.98982 0.61079 0.0
C343 C 0.24094 0.9508 0.54086 0.0
C344 C 0.27629 0.02589 0.68699 0.0
C345 C 0.35145 0.02993 0.74414 0.0
N346 N 0.25234 0.97264 0.58883 0.0
N347 N 0.34131 0.01129 0.69441 0.0
H348 H 0.07945 0.43179 0.69635 0.0
H349 H 0.2063 0.35858 0.47181 0.0
H350 H 0.14314 0.34485 0.72622 0.0
H351 H 0.13392 0.43678 0.43864 0.0
H352 H 0.18274 0.35275 0.56487 0.0
H353 H 0.09739 0.43273 0.60193 0.0
C354 C 0.09681 0.4125 0.68318 0.0
C355 C 0.1099 0.38834 0.71983 0.0
C356 C 0.17187 0.3711 0.53728 0.0
C357 C 0.13129 0.38996 0.61118 0.0
C358 C 0.18558 0.37471 0.48405 0.0
C359 C 0.17245 0.39853 0.44709 0.0
C360 C 0.14488 0.39163 0.55419 0.0
C361 C 0.14467 0.41781 0.46543 0.0
C362 C 0.10733 0.41333 0.62912 0.0
C363 C 0.13305 0.3647 0.69996 0.0
N364 N 0.13208 0.41417 0.5176 0.0
N365 N 0.14308 0.36624 0.64725 0.0
H366 H 0.73827 0.18209 0.13463 0.0
H367 H 0.94503 0.31251 0.91719 0.0
H368 H 0.88811 0.25088 0.17357 0.0
H369 H 0.79563 0.22569 0.87905 0.0
H370 H 0.92548 0.294 0.01146 0.0
H371 H 0.75919 0.20085 0.04135 0.0
C372 C 0.77562 0.2008 0.1237 0.0
C373 C 0.81136 0.21451 0.1625 0.0
C374 C 0.89702 0.27893 0.98243 0.0
C375 C 0.83571 0.23705 0.05487 0.0
C376 C 0.90812 0.28967 0.92857 0.0
C377 C 0.87195 0.27055 0.88989 0.0
C378 C 0.84932 0.24914 0.99795 0.0
C379 C 0.82482 0.24075 0.90716 0.0
C380 C 0.78756 0.2118 0.07023 0.0
C381 C 0.85919 0.23989 0.14546 0.0
N382 N 0.81493 0.23114 0.95972 0.0
N383 N 0.86992 0.25029 0.09304 0.0
H384 H 0.55738 0.75895 0.3985 0.0
H385 H 0.6425 0.74845 0.10222 0.0
H386 H 0.63961 0.69173 0.36033 0.0
H387 H 0.54579 0.7989 0.14184 0.0
H388 H 0.64385 0.72882 0.1959 0.0
H389 H 0.55574 0.7763 0.30458 0.0
C390 C 0.57544 0.74812 0.37043 0.0
C391 C 0.59895 0.72408 0.38766 0.0
C392 C 0.62236 0.7442 0.18401 0.0
C393 C 0.59675 0.74351 0.2792 0.0
C394 C 0.62134 0.75523 0.13038 0.0
C395 C 0.59417 0.77573 0.11372 0.0
C396 C 0.59614 0.75379 0.22151 0.0
C397 C 0.56805 0.78412 0.15255 0.0
C398 C 0.57419 0.75775 0.31659 0.0
C399 C 0.6208 0.71008 0.34897 0.0
N400 N 0.56979 0.77325 0.20435 0.0
N401 N 0.61934 0.72015 0.29666 0.0
H402 H 0.85331 0.64607 0.80569 0.0
H403 H 0.65017 0.55206 0.5816 0.0
H404 H 0.70352 0.55476 0.839 0.0
H405 H 0.79863 0.65256 0.55108 0.0
H406 H 0.66872 0.55314 0.6758 0.0
H407 H 0.83388 0.64863 0.71241 0.0
C408 C 0.81631 0.62639 0.79344 0.0
C409 C 0.78008 0.59995 0.83053 0.0
C410 C 0.69723 0.57506 0.64852 0.0
C411 C 0.75743 0.60304 0.72323 0.0
C412 C 0.68662 0.57473 0.59458 0.0
C413 C 0.72284 0.60221 0.55781 0.0
C414 C 0.7445 0.60296 0.66626 0.0
C415 C 0.76954 0.63014 0.57743 0.0
C416 C 0.8052 0.62811 0.74009 0.0
C417 C 0.73269 0.57595 0.81215 0.0
N418 N 0.77897 0.62968 0.63007 0.0
N419 N 0.72281 0.57789 0.75992 0.0
H420 H 0.13805 0.79359 0.80498 0.0
H421 H 0.34011 0.89072 0.03033 0.0
H422 H 0.28636 0.84252 0.77281 0.0
H423 H 0.19465 0.85538 0.05938 0.0
H424 H 0.3213 0.87369 0.93617 0.0
H425 H 0.15801 0.81542 0.89826 0.0
C426 C 0.17482 0.80877 0.81748 0.0
C427 C 0.21049 0.81594 0.78072 0.0
C428 C 0.29351 0.86978 0.96311 0.0
C429 C 0.23374 0.84143 0.88799 0.0
C430 C 0.3043 0.87983 0.01705 0.0
C431 C 0.26898 0.87451 0.05342 0.0
C432 C 0.24693 0.85401 0.94496 0.0
C433 C 0.22299 0.85931 0.03337 0.0
C434 C 0.18625 0.82152 0.87081 0.0
C435 C 0.25766 0.83663 0.7994 0.0
N436 N 0.21333 0.84952 0.98074 0.0
N437 N 0.26782 0.84838 0.85161 0.0
H438 H 0.44061 0.13776 0.51019 0.0
H439 H 0.33307 0.12876 0.22047 0.0
H440 H 0.3468 0.19255 0.47493 0.0
H441 H 0.4435 0.09426 0.25029 0.0
H442 H 0.33301 0.14627 0.31476 0.0
H443 H 0.43674 0.11482 0.41689 0.0
C444 C 0.41889 0.14467 0.483 0.0
C445 C 0.39421 0.16744 0.50064 0.0
C446 C 0.35722 0.13479 0.3007 0.0
C447 C 0.38985 0.14142 0.39332 0.0
C448 C 0.35749 0.125 0.24664 0.0
C449 C 0.38857 0.11023 0.22683 0.0
C450 C 0.38812 0.1297 0.33573 0.0
C451 C 0.4185 0.10501 0.26342 0.0
C452 C 0.41695 0.13181 0.42958 0.0
C453 C 0.36706 0.17583 0.46318 0.0
N454 N 0.4176 0.11482 0.31588 0.0
N455 N 0.36564 0.16286 0.4115 0.0
H456 H 0.1087 0.46653 0.231 0.0
H457 H 0.19773 0.7438 0.25069 0.0
H458 H 0.16242 0.56215 0.09705 0.0
H459 H 0.16678 0.65251 0.38746 0.0
H460 H 0.1731 0.67557 0.19293 0.0
H461 H 0.11636 0.53146 0.28632 0.0
C462 C 0.12148 0.50115 0.21295 0.0
C463 C 0.13561 0.50915 0.15937 0.0
C464 C 0.17145 0.67032 0.23552 0.0
C465 C 0.14488 0.58392 0.22303 0.0
C466 C 0.18559 0.70936 0.26883 0.0
C467 C 0.18483 0.70414 0.32441 0.0
C468 C 0.15624 0.62537 0.25758 0.0
C469 C 0.16831 0.65837 0.34502 0.0
C470 C 0.126 0.53825 0.24475 0.0
C471 C 0.15123 0.55448 0.1381 0.0
N472 N 0.15488 0.62077 0.31156 0.0
N473 N 0.15603 0.5904 0.17022 0.0
H474 H 0.65445 0.1738 0.55395 0.0
H475 H 0.56241 0.1673 0.85091 0.0
H476 H 0.74391 0.2073 0.69289 0.0
H477 H 0.47041 0.11908 0.71348 0.0
H478 H 0.62862 0.17694 0.79466 0.0
H479 H 0.58555 0.14991 0.61235 0.0
C480 C 0.65963 0.17603 0.59656 0.0
C481 C 0.70515 0.1929 0.61831 0.0
C482 C 0.59374 0.16373 0.77703 0.0
C483 C 0.62661 0.16563 0.68546 0.0
C484 C 0.55594 0.15793 0.80926 0.0
C485 C 0.51107 0.14301 0.78678 0.0
C486 C 0.58644 0.15463 0.72209 0.0
C487 C 0.50466 0.13148 0.73242 0.0
C488 C 0.6203 0.16226 0.62996 0.0
C489 C 0.70963 0.19477 0.67403 0.0
N490 N 0.54196 0.13802 0.70192 0.0
N491 N 0.67102 0.18161 0.70553 0.0
H492 H 0.24197 0.47796 0.91831 0.0
H493 H 0.52415 0.64614 0.89739 0.0
H494 H 0.33624 0.52107 0.05391 0.0
H495 H 0.42871 0.61444 0.76455 0.0
H496 H 0.45674 0.59293 0.9529 0.0
H497 H 0.31033 0.5218 0.86052 0.0
C498 C 0.2771 0.49666 0.93615 0.0
C499 C 0.28325 0.49575 0.99138 0.0
C500 C 0.45045 0.59714 0.91154 0.0
C501 C 0.36213 0.54617 0.92459 0.0
C502 C 0.48895 0.62735 0.87964 0.0
C503 C 0.48189 0.63506 0.8263 0.0
C504 C 0.40433 0.57441 0.89015 0.0
C505 C 0.4357 0.60945 0.80538 0.0
C506 C 0.3162 0.5217 0.90284 0.0
C507 C 0.32974 0.52092 0.01173 0.0
N508 N 0.3985 0.58061 0.83759 0.0
N509 N 0.36743 0.54511 0.97828 0.0
H510 H 0.87114 0.34322 0.37628 0.0
H511 H 0.78726 0.53559 0.36007 0.0
H512 H 0.82079 0.38673 0.51189 0.0
H513 H 0.81682 0.47552 0.22212 0.0
H514 H 0.80914 0.48922 0.41694 0.0
H515 H 0.86246 0.4 0.32136 0.0
C516 C 0.85867 0.36513 0.39475 0.0
C517 C 0.84603 0.35974 0.44879 0.0
C518 C 0.81103 0.48624 0.37429 0.0
C519 C 0.83579 0.42492 0.38554 0.0
C520 C 0.7985 0.51275 0.3415 0.0
C521 C 0.79984 0.50932 0.28585 0.0
C522 C 0.82521 0.45592 0.35162 0.0
C523 C 0.81498 0.47917 0.26464 0.0
C524 C 0.85364 0.39751 0.36316 0.0
C525 C 0.83083 0.38964 0.47048 0.0
N526 N 0.82693 0.45351 0.29759 0.0
N527 N 0.82566 0.42068 0.4386 0.0
H528 H 0.38197 0.81559 0.42881 0.0
H529 H 0.4742 0.81494 0.72414 0.0
H530 H 0.33912 0.86325 0.56728 0.0
H531 H 0.52953 0.78189 0.58448 0.0
H532 H 0.42623 0.8354 0.66652 0.0
H533 H 0.43972 0.80698 0.48407 0.0
C534 C 0.38522 0.82492 0.47049 0.0
C535 C 0.3553 0.83954 0.49352 0.0
C536 C 0.44911 0.82389 0.64855 0.0
C537 C 0.42049 0.82925 0.55701 0.0
C538 C 0.47639 0.81209 0.68151 0.0
C539 C 0.50582 0.79645 0.65934 0.0
C540 C 0.45107 0.81977 0.59304 0.0
C541 C 0.5073 0.79363 0.60361 0.0
C542 C 0.41792 0.81975 0.50213 0.0
C543 C 0.3609 0.85108 0.54789 0.0
N544 N 0.48019 0.80491 0.57251 0.0
N545 N 0.39241 0.84527 0.57776 0.0
H546 H 0.6497 0.52356 0.04414 0.0
H547 H 0.46618 0.24446 0.02888 0.0
H548 H 0.60979 0.43007 0.1799 0.0
H549 H 0.51926 0.3353 0.8907 0.0
H550 H 0.51154 0.3132 0.08543 0.0
H551 H 0.59421 0.45686 0.98947 0.0
C552 C 0.62877 0.48899 0.0627 0.0
C553 C 0.63481 0.48223 0.11669 0.0
C554 C 0.51326 0.31824 0.0428 0.0
C555 C 0.57126 0.40541 0.05375 0.0
C556 C 0.48734 0.2789 1.01017 0.0
C557 C 0.489 0.28389 0.95454 0.0
C558 C 0.54123 0.36327 0.02001 0.0
C559 C 0.51705 0.32963 0.93321 0.0
C560 C 0.59717 0.45087 0.03126 0.0
C561 C 0.60629 0.43684 0.13852 0.0
N562 N 0.54216 0.36755 0.96601 0.0
N563 N 0.57605 0.39997 0.10678 0.0
loop_
_geom_bond_atom_site_label_1
_geom_bond_atom_site_label_2
_geom_bond_distance
_geom_bond_site_symmetry_2
_ccdc_geom_bond_type
Eu0 C9 2.828 . S
Eu0 O11 2.392 . S
Eu0 O13 2.418 . S
Eu0 O18 2.373 . S
Eu0 O21 2.488 . S
Eu0 O22 2.471 . S
Eu0 O23 2.349 . S
Eu1 O10 2.374 . S
Eu1 O14 2.491 . S
Eu1 O15 2.474 . S
Eu1 O16 2.348 1_556 S
Eu1 O19 2.390 1_556 S
Eu1 O20 2.417 1_556 S
Eu1 C30 2.831 . S
C2 O20 1.244 . S
C2 O23 1.265 . S
C3 C4 1.379 . S
C3 C7 1.373 . S
C3 C9 1.505 . S
C4 C3 1.379 . S
C4 C6 1.369 . S
C4 H32 0.930 . S
C5 C7 1.383 . S
C5 C8 1.382 . S
C5 H33 0.930 . S
C6 C4 1.369 . S
C6 C8 1.392 . S
C6 H34 0.930 . S
C7 C3 1.373 . S
C7 C5 1.383 . S
C7 H35 0.931 . S
C8 C5 1.382 . S
C8 C6 1.392 . S
C9 Eu0 2.828 . S
C9 C3 1.505 . S
C9 O21 1.249 . S
C9 O22 1.244 . S
O10 Eu1 2.374 . S
O10 C12 1.258 . S
O11 Eu0 2.392 . S
O11 C12 1.242 1_554 S
C12 O10 1.258 . S
C12 O11 1.242 1_556 S
O13 Eu0 2.418 . S
O13 C17 1.244 . S
O14 Eu1 2.491 . S
O14 C30 1.249 . S
O15 Eu1 2.474 . S
O15 C30 1.244 . S
O16 Eu1 2.348 1_554 S
O16 C17 1.265 . S
C17 O13 1.244 . S
C17 O16 1.265 . S
O18 Eu0 2.373 . S
O18 C31 1.258 . S
O19 Eu1 2.390 1_554 S
O19 C31 1.242 . S
O20 Eu1 2.417 1_554 S
O20 C2 1.244 . S
O21 Eu0 2.488 . S
O21 C9 1.249 . S
O22 Eu0 2.471 . S
O22 C9 1.244 . S
O23 Eu0 2.349 . S
O23 C2 1.265 . S
C24 C25 1.379 . S
C24 C28 1.373 . S
C24 C30 1.505 . S
C25 C24 1.379 . S
C25 C27 1.369 . S
C25 H36 0.930 . S
C26 C28 1.383 . S
C26 C29 1.382 . S
C26 H37 0.930 . S
C27 C25 1.369 . S
C27 C29 1.392 . S
C27 H38 0.930 . S
C28 C24 1.373 . S
C28 C26 1.383 . S
C28 H39 0.931 . S
C29 C26 1.382 . S
C29 C27 1.392 . S
C30 Eu1 2.831 . S
C30 O14 1.249 . S
C30 O15 1.244 . S
C30 C24 1.505 . S
C31 O18 1.258 . S
C31 O19 1.242 . S
H32 C4 0.930 . S
H33 C5 0.930 . S
H34 C6 0.930 . S
H35 C7 0.931 . S
H36 C25 0.930 . S
H37 C26 0.930 . S
H38 C27 0.930 . S
H39 C28 0.931 . S
Eu40 C49 2.828 . S
Eu40 O51 2.392 . S
Eu40 O53 2.418 . S
Eu40 O58 2.373 . S
Eu40 O61 2.488 . S
Eu40 O62 2.471 . S
Eu40 O63 2.349 . S
Eu41 O50 2.373 . S
Eu41 O54 2.488 . S
Eu41 O55 2.471 . S
Eu41 O56 2.349 . S
Eu41 O59 2.392 . S
Eu41 O60 2.418 . S
Eu41 C70 2.828 . S
C42 O60 1.244 . S
C42 O63 1.265 . S
C43 C44 1.379 . S
C43 C47 1.373 . S
C43 C49 1.505 . S
C44 C43 1.379 . S
C44 C46 1.369 . S
C44 H72 0.930 . S
C45 C47 1.383 . S
C45 C48 1.382 . S
C45 H73 0.930 . S
C46 C44 1.369 . S
C46 C48 1.392 . S
C46 H74 0.930 . S
C47 C43 1.373 . S
C47 C45 1.383 . S
C47 H75 0.931 . S
C48 C45 1.382 . S
C48 C46 1.392 . S
C49 Eu40 2.828 . S
C49 C43 1.505 . S
C49 O61 1.249 . S
C49 O62 1.244 . S
O50 Eu41 2.373 . S
O50 C52 1.258 . S
O51 Eu40 2.392 . S
O51 C52 1.242 . S
C52 O50 1.258 . S
C52 O51 1.242 . S
O53 Eu40 2.418 . S
O53 C57 1.244 . S
O54 Eu41 2.488 . S
O54 C70 1.249 . S
O55 Eu41 2.471 . S
O55 C70 1.244 . S
O56 Eu41 2.349 . S
O56 C57 1.265 . S
C57 O53 1.244 . S
C57 O56 1.265 . S
O58 Eu40 2.373 . S
O58 C71 1.258 . S
O59 Eu41 2.392 . S
O59 C71 1.242 . S
O60 Eu41 2.418 . S
O60 C42 1.244 . S
O61 Eu40 2.488 . S
O61 C49 1.249 . S
O62 Eu40 2.471 . S
O62 C49 1.244 . S
O63 Eu40 2.349 . S
O63 C42 1.265 . S
C64 C65 1.379 . S
C64 C68 1.373 . S
C64 C70 1.505 . S
C65 C64 1.379 . S
C65 C67 1.369 . S
C65 H76 0.930 . S
C66 C68 1.383 . S
C66 C69 1.382 . S
C66 H77 0.930 . S
C67 C65 1.369 . S
C67 C69 1.392 . S
C67 H78 0.930 . S
C68 C64 1.373 . S
C68 C66 1.383 . S
C68 H79 0.931 . S
C69 C66 1.382 . S
C69 C67 1.392 . S
C70 Eu41 2.828 . S
C70 O54 1.249 . S
C70 O55 1.244 . S
C70 C64 1.505 . S
C71 O58 1.258 . S
C71 O59 1.242 . S
H72 C44 0.930 . S
H73 C45 0.930 . S
H74 C46 0.930 . S
H75 C47 0.931 . S
H76 C65 0.930 . S
H77 C66 0.930 . S
H78 C67 0.930 . S
H79 C68 0.931 . S
Eu80 C89 2.828 . S
Eu80 O91 2.392 . S
Eu80 O93 2.418 . S
Eu80 O98 2.373 . S
Eu80 O101 2.488 . S
Eu80 O102 2.471 . S
Eu80 O103 2.349 . S
Eu81 O90 2.373 . S
Eu81 O94 2.488 . S
Eu81 O95 2.471 . S
Eu81 O96 2.349 . S
Eu81 O99 2.392 . S
Eu81 O100 2.418 . S
Eu81 C110 2.828 . S
C82 O100 1.244 . S
C82 O103 1.265 . S
C83 C84 1.379 . S
C83 C87 1.373 . S
C83 C89 1.505 . S
C84 C83 1.379 . S
C84 C86 1.369 1_556 S
C84 H112 0.930 . S
C85 C87 1.383 1_554 S
C85 C88 1.382 . S
C85 H113 0.930 . S
C86 C84 1.369 1_554 S
C86 C88 1.392 . S
C86 H114 0.930 . S
C87 C83 1.373 . S
C87 C85 1.383 1_556 S
C87 H115 0.931 . S
C88 C85 1.382 . S
C88 C86 1.392 . S
C89 Eu80 2.828 . S
C89 C83 1.505 . S
C89 O101 1.249 . S
C89 O102 1.244 . S
O90 Eu81 2.373 . S
O90 C92 1.258 . S
O91 Eu80 2.392 . S
O91 C92 1.242 . S
C92 O90 1.258 . S
C92 O91 1.242 . S
O93 Eu80 2.418 . S
O93 C97 1.244 . S
O94 Eu81 2.488 . S
O94 C110 1.249 . S
O95 Eu81 2.471 . S
O95 C110 1.244 . S
O96 Eu81 2.349 . S
O96 C97 1.265 . S
C97 O93 1.244 . S
C97 O96 1.265 . S
O98 Eu80 2.373 . S
O98 C111 1.258 . S
O99 Eu81 2.392 . S
O99 C111 1.242 . S
O100 Eu81 2.418 . S
O100 C82 1.244 . S
O101 Eu80 2.488 . S
O101 C89 1.249 . S
O102 Eu80 2.471 . S
O102 C89 1.244 . S
O103 Eu80 2.349 . S
O103 C82 1.265 . S
C104 C105 1.379 . S
C104 C108 1.373 . S
C104 C110 1.505 . S
C105 C104 1.379 . S
C105 C107 1.369 . S
C105 H116 0.930 . S
C106 C108 1.383 . S
C106 C109 1.382 . S
C106 H117 0.930 . S
C107 C105 1.369 . S
C107 C109 1.392 . S
C107 H118 0.930 . S
C108 C104 1.373 . S
C108 C106 1.383 . S
C108 H119 0.931 . S
C109 C106 1.382 . S
C109 C107 1.392 . S
C110 Eu81 2.828 . S
C110 O94 1.249 . S
C110 O95 1.244 . S
C110 C104 1.505 . S
C111 O98 1.258 . S
C111 O99 1.242 . S
H112 C84 0.930 . S
H113 C85 0.930 . S
H114 C86 0.930 . S
H115 C87 0.931 . S
H116 C105 0.930 . S
H117 C106 0.930 . S
H118 C107 0.930 . S
H119 C108 0.931 . S
Eu120 C129 2.828 . S
Eu120 O131 2.392 . S
Eu120 O133 2.418 . S
Eu120 O138 2.373 . S
Eu120 O141 2.488 . S
Eu120 O142 2.471 . S
Eu120 O143 2.349 . S
Eu121 O130 2.373 . S
Eu121 O134 2.488 . S
Eu121 O135 2.471 . S
Eu121 O136 2.349 . S
Eu121 O139 2.392 . S
Eu121 O140 2.418 . S
Eu121 C150 2.828 . S
C122 O140 1.244 . S
C122 O143 1.265 . S
C123 C124 1.379 . S
C123 C127 1.373 . S
C123 C129 1.505 1_556 S
C124 C123 1.379 . S
C124 C126 1.369 . S
C124 H152 0.930 . S
C125 C127 1.383 . S
C125 C128 1.382 . S
C125 H153 0.930 . S
C126 C124 1.369 . S
C126 C128 1.392 . S
C126 H154 0.930 . S
C127 C123 1.373 . S
C127 C125 1.383 . S
C127 H155 0.931 . S
C128 C125 1.382 . S
C128 C126 1.392 . S
C129 Eu120 2.828 . S
C129 C123 1.505 1_554 S
C129 O141 1.249 . S
C129 O142 1.244 . S
O130 Eu121 2.373 . S
O130 C132 1.258 . S
O131 Eu120 2.392 . S
O131 C132 1.242 . S
C132 O130 1.258 . S
C132 O131 1.242 . S
O133 Eu120 2.418 . S
O133 C137 1.244 . S
O134 Eu121 2.488 . S
O134 C150 1.249 . S
O135 Eu121 2.471 . S
O135 C150 1.244 . S
O136 Eu121 2.349 . S
O136 C137 1.265 . S
C137 O133 1.244 . S
C137 O136 1.265 . S
O138 Eu120 2.373 . S
O138 C151 1.258 . S
O139 Eu121 2.392 . S
O139 C151 1.242 . S
O140 Eu121 2.418 . S
O140 C122 1.244 . S
O141 Eu120 2.488 . S
O141 C129 1.249 . S
O142 Eu120 2.471 . S
O142 C129 1.244 . S
O143 Eu120 2.349 . S
O143 C122 1.265 . S
C144 C145 1.379 . S
C144 C148 1.373 . S
C144 C150 1.505 . S
C145 C144 1.379 . S
C145 C147 1.369 . S
C145 H156 0.930 . S
C146 C148 1.383 . S
C146 C149 1.382 . S
C146 H157 0.930 . S
C147 C145 1.369 . S
C147 C149 1.392 . S
C147 H158 0.930 . S
C148 C144 1.373 . S
C148 C146 1.383 . S
C148 H159 0.931 . S
C149 C146 1.382 . S
C149 C147 1.392 . S
C150 Eu121 2.828 . S
C150 O134 1.249 . S
C150 O135 1.244 . S
C150 C144 1.505 . S
C151 O138 1.258 . S
C151 O139 1.242 . S
H152 C124 0.930 . S
H153 C125 0.930 . S
H154 C126 0.930 . S
H155 C127 0.931 . S
H156 C145 0.930 . S
H157 C146 0.930 . S
H158 C147 0.930 . S
H159 C148 0.931 . S
Eu160 C169 2.828 . S
Eu160 O171 2.392 . S
Eu160 O173 2.418 . S
Eu160 O178 2.373 . S
Eu160 O181 2.488 . S
Eu160 O182 2.471 . S
Eu160 O183 2.349 . S
Eu161 O170 2.373 . S
Eu161 O174 2.488 . S
Eu161 O175 2.471 . S
Eu161 O176 2.349 . S
Eu161 O179 2.392 . S
Eu161 O180 2.418 . S
Eu161 C190 2.828 . S
C162 O180 1.244 . S
C162 O183 1.265 . S
C163 C164 1.379 . S
C163 C167 1.373 . S
C163 C169 1.505 . S
C164 C163 1.379 . S
C164 C166 1.369 . S
C164 H192 0.930 . S
C165 C167 1.383 . S
C165 C168 1.382 . S
C165 H193 0.930 . S
C166 C164 1.369 . S
C166 C168 1.392 . S
C166 H194 0.930 . S
C167 C163 1.373 . S
C167 C165 1.383 . S
C167 H195 0.931 . S
C168 C165 1.382 . S
C168 C166 1.392 . S
C169 Eu160 2.828 . S
C169 C163 1.505 . S
C169 O181 1.249 . S
C169 O182 1.244 . S
O170 Eu161 2.373 . S
O170 C172 1.258 . S
O171 Eu160 2.392 . S
O171 C172 1.242 . S
C172 O170 1.258 . S
C172 O171 1.242 . S
O173 Eu160 2.418 . S
O173 C177 1.244 . S
O174 Eu161 2.488 . S
O174 C190 1.249 . S
O175 Eu161 2.471 . S
O175 C190 1.244 . S
O176 Eu161 2.349 . S
O176 C177 1.265 . S
C177 O173 1.244 . S
C177 O176 1.265 . S
O178 Eu160 2.373 . S
O178 C191 1.258 . S
O179 Eu161 2.392 . S
O179 C191 1.242 . S
O180 Eu161 2.418 . S
O180 C162 1.244 . S
O181 Eu160 2.488 . S
O181 C169 1.249 . S
O182 Eu160 2.471 . S
O182 C169 1.244 . S
O183 Eu160 2.349 . S
O183 C162 1.265 . S
C184 C185 1.379 . S
C184 C188 1.373 . S
C184 C190 1.505 . S
C185 C184 1.379 . S
C185 C187 1.369 . S
C185 H196 0.930 . S
C186 C188 1.383 . S
C186 C189 1.382 . S
C186 H197 0.930 . S
C187 C185 1.369 . S
C187 C189 1.392 . S
C187 H198 0.930 . S
C188 C184 1.373 . S
C188 C186 1.383 . S
C188 H199 0.931 . S
C189 C186 1.382 . S
C189 C187 1.392 . S
C190 Eu161 2.828 . S
C190 O174 1.249 . S
C190 O175 1.244 . S
C190 C184 1.505 . S
C191 O178 1.258 . S
C191 O179 1.242 . S
H192 C164 0.930 . S
H193 C165 0.930 . S
H194 C166 0.930 . S
H195 C167 0.931 . S
H196 C185 0.930 . S
H197 C186 0.930 . S
H198 C187 0.930 . S
H199 C188 0.931 . S
Eu200 C209 2.828 . S
Eu200 O211 2.392 . S
Eu200 O213 2.418 . S
Eu200 O218 2.373 . S
Eu200 O221 2.488 . S
Eu200 O222 2.471 . S
Eu200 O223 2.349 . S
Eu201 O210 2.373 . S
Eu201 O214 2.488 1_556 S
Eu201 O215 2.471 1_556 S
Eu201 O216 2.349 . S
Eu201 O219 2.392 . S
Eu201 O220 2.418 . S
Eu201 C230 2.828 1_556 S
C202 O220 1.244 . S
C202 O223 1.265 . S
C203 C204 1.379 . S
C203 C207 1.373 . S
C203 C209 1.505 . S
C204 C203 1.379 . S
C204 C206 1.369 . S
C204 H232 0.930 . S
C205 C207 1.383 . S
C205 C208 1.382 . S
C205 H233 0.930 . S
C206 C204 1.369 . S
C206 C208 1.392 . S
C206 H234 0.930 . S
C207 C203 1.373 . S
C207 C205 1.383 . S
C207 H235 0.931 . S
C208 C205 1.382 . S
C208 C206 1.392 . S
C209 Eu200 2.828 . S
C209 C203 1.505 . S
C209 O221 1.249 . S
C209 O222 1.244 . S
O210 Eu201 2.373 . S
O210 C212 1.258 . S
O211 Eu200 2.392 . S
O211 C212 1.242 . S
C212 O210 1.258 . S
C212 O211 1.242 . S
O213 Eu200 2.418 . S
O213 C217 1.244 . S
O214 Eu201 2.488 1_554 S
O214 C230 1.249 . S
O215 Eu201 2.471 1_554 S
O215 C230 1.244 . S
O216 Eu201 2.349 . S
O216 C217 1.265 . S
C217 O213 1.244 . S
C217 O216 1.265 . S
O218 Eu200 2.373 . S
O218 C231 1.258 . S
O219 Eu201 2.392 . S
O219 C231 1.242 . S
O220 Eu201 2.418 . S
O220 C202 1.244 . S
O221 Eu200 2.488 . S
O221 C209 1.249 . S
O222 Eu200 2.471 . S
O222 C209 1.244 . S
O223 Eu200 2.349 . S
O223 C202 1.265 . S
C224 C225 1.379 . S
C224 C228 1.373 . S
C224 C230 1.505 . S
C225 C224 1.379 . S
C225 C227 1.369 . S
C225 H236 0.930 . S
C226 C228 1.383 . S
C226 C229 1.382 . S
C226 H237 0.930 . S
C227 C225 1.369 . S
C227 C229 1.392 . S
C227 H238 0.930 . S
C228 C224 1.373 . S
C228 C226 1.383 . S
C228 H239 0.931 . S
C229 C226 1.382 . S
C229 C227 1.392 . S
C230 Eu201 2.828 1_554 S
C230 O214 1.249 . S
C230 O215 1.244 . S
C230 C224 1.505 . S
C231 O218 1.258 . S
C231 O219 1.242 . S
H232 C204 0.930 . S
H233 C205 0.930 . S
H234 C206 0.930 . S
H235 C207 0.931 . S
H236 C225 0.930 . S
H237 C226 0.930 . S
H238 C227 0.930 . S
H239 C228 0.931 . S
H240 C246 0.930 . S
H241 C250 0.930 . S
H242 C255 0.929 . S
H243 C253 0.929 . S
H244 C248 0.929 . S
H245 C254 0.929 . S
C246 H240 0.930 . S
C246 C247 1.367 . S
C246 C254 1.378 . S
C247 C246 1.367 . S
C247 C255 1.433 . S
C248 H244 0.929 . S
C248 C250 1.378 . S
C248 C252 1.350 . S
C249 C252 1.463 . S
C249 C254 1.350 . S
C249 N257 1.427 . S
C250 H241 0.930 . S
C250 C248 1.378 . S
C250 C251 1.367 1_556 S
C251 C250 1.367 1_554 S
C251 C253 1.433 . S
C252 C248 1.350 . S
C252 C249 1.463 . S
C252 N256 1.427 . S
C253 H243 0.929 . S
C253 C251 1.433 . S
C253 N256 1.384 1_554 S
C254 H245 0.929 . S
C254 C246 1.378 . S
C254 C249 1.350 . S
C255 H242 0.929 . S
C255 C247 1.433 . S
C255 N257 1.384 . S
N256 C252 1.427 . S
N256 C253 1.384 1_556 S
N257 C249 1.427 . S
N257 C255 1.384 . S
H258 C264 0.930 . S
H259 C268 0.930 . S
H260 C273 0.929 1_655 S
H261 C271 0.929 1_455 S
H262 C266 0.929 . S
H263 C272 0.929 . S
C264 H258 0.930 . S
C264 C265 1.367 . S
C264 C272 1.378 . S
C265 C264 1.367 . S
C265 C273 1.433 . S
C266 H262 0.929 . S
C266 C268 1.378 . S
C266 C270 1.350 . S
C267 C270 1.463 1_455 S
C267 C272 1.350 . S
C267 N275 1.427 1_455 S
C268 H259 0.930 . S
C268 C266 1.378 . S
C268 C269 1.367 . S
C269 C268 1.367 . S
C269 C271 1.433 . S
C270 C266 1.350 . S
C270 C267 1.463 1_655 S
C270 N274 1.427 1_655 S
C271 H261 0.929 1_655 S
C271 C269 1.433 . S
C271 N274 1.384 1_655 S
C272 H263 0.929 . S
C272 C264 1.378 . S
C272 C267 1.350 . S
C273 H260 0.929 1_455 S
C273 C265 1.433 . S
C273 N275 1.384 1_455 S
N274 C270 1.427 1_455 S
N274 C271 1.384 1_455 S
N275 C267 1.427 1_655 S
N275 C273 1.384 1_655 S
H276 C282 0.930 . S
H277 C286 0.930 . S
H278 C291 0.929 . S
H279 C289 0.929 . S
H280 C284 0.929 . S
H281 C290 0.929 . S
C282 H276 0.930 . S
C282 C283 1.367 . S
C282 C290 1.378 . S
C283 C282 1.367 . S
C283 C291 1.433 . S
C284 H280 0.929 . S
C284 C286 1.378 . S
C284 C288 1.350 . S
C285 C288 1.463 1_545 S
C285 C290 1.350 . S
C285 N293 1.427 . S
C286 H277 0.930 . S
C286 C284 1.378 . S
C286 C287 1.367 . S
C287 C286 1.367 . S
C287 C289 1.433 . S
C288 C284 1.350 . S
C288 C285 1.463 1_565 S
C288 N292 1.427 . S
C289 H279 0.929 . S
C289 C287 1.433 . S
C289 N292 1.384 . S
C290 H281 0.929 . S
C290 C282 1.378 . S
C290 C285 1.350 . S
C291 H278 0.929 . S
C291 C283 1.433 . S
C291 N293 1.384 . S
N292 C288 1.427 . S
N292 C289 1.384 . S
N293 C285 1.427 . S
N293 C291 1.384 . S
H294 C300 0.930 . S
H295 C304 0.930 . S
H296 C309 0.929 . S
H297 C307 0.929 . S
H298 C302 0.929 1_556 S
H299 C308 0.929 . S
C300 H294 0.930 . S
C300 C301 1.367 . S
C300 C308 1.378 . S
C301 C300 1.367 . S
C301 C309 1.433 . S
C302 H298 0.929 1_554 S
C302 C304 1.378 . S
C302 C306 1.350 1_554 S
C303 C306 1.463 . S
C303 C308 1.350 . S
C303 N311 1.427 . S
C304 H295 0.930 . S
C304 C302 1.378 . S
C304 C305 1.367 . S
C305 C304 1.367 . S
C305 C307 1.433 . S
C306 C302 1.350 1_556 S
C306 C303 1.463 . S
C306 N310 1.427 1_556 S
C307 H297 0.929 . S
C307 C305 1.433 . S
C307 N310 1.384 . S
C308 H299 0.929 . S
C308 C300 1.378 . S
C308 C303 1.350 . S
C309 H296 0.929 . S
C309 C301 1.433 . S
C309 N311 1.384 . S
N310 C306 1.427 1_554 S
N310 C307 1.384 . S
N311 C303 1.427 . S
N311 C309 1.384 . S
H312 C318 0.930 . S
H313 C322 0.930 . S
H314 C327 0.929 . S
H315 C325 0.929 . S
H316 C320 0.929 . S
H317 C326 0.929 . S
C318 H312 0.930 . S
C318 C319 1.367 . S
C318 C326 1.378 . S
C319 C318 1.367 . S
C319 C327 1.433 . S
C320 H316 0.929 . S
C320 C322 1.378 . S
C320 C324 1.350 . S
C321 C324 1.463 1_455 S
C321 C326 1.350 . S
C321 N329 1.427 . S
C322 H313 0.930 . S
C322 C320 1.378 . S
C322 C323 1.367 . S
C323 C322 1.367 . S
C323 C325 1.433 . S
C324 C320 1.350 . S
C324 C321 1.463 1_655 S
C324 N328 1.427 . S
C325 H315 0.929 . S
C325 C323 1.433 . S
C325 N328 1.384 . S
C326 H317 0.929 . S
C326 C318 1.378 . S
C326 C321 1.350 . S
C327 H314 0.929 . S
C327 C319 1.433 . S
C327 N329 1.384 . S
N328 C324 1.427 . S
N328 C325 1.384 . S
N329 C321 1.427 . S
N329 C327 1.384 . S
H330 C336 0.930 . S
H331 C340 0.930 . S
H332 C345 0.929 1_565 S
H333 C343 0.929 1_545 S
H334 C338 0.929 . S
H335 C344 0.929 . S
C336 H330 0.930 . S
C336 C337 1.367 . S
C336 C344 1.378 . S
C337 C336 1.367 . S
C337 C345 1.433 . S
C338 H334 0.929 . S
C338 C340 1.378 . S
C338 C342 1.350 . S
C339 C342 1.463 1_545 S
C339 C344 1.350 . S
C339 N347 1.427 1_545 S
C340 H331 0.930 . S
C340 C338 1.378 . S
C340 C341 1.367 . S
C341 C340 1.367 . S
C341 C343 1.433 . S
C342 C338 1.350 . S
C342 C339 1.463 1_565 S
C342 N346 1.427 1_565 S
C343 H333 0.929 1_565 S
C343 C341 1.433 . S
C343 N346 1.384 1_565 S
C344 H335 0.929 . S
C344 C336 1.378 . S
C344 C339 1.350 . S
C345 H332 0.929 1_545 S
C345 C337 1.433 . S
C345 N347 1.384 1_545 S
N346 C342 1.427 1_545 S
N346 C343 1.384 1_545 S
N347 C339 1.427 1_565 S
N347 C345 1.384 1_565 S
H348 C354 0.930 . S
H349 C358 0.930 . S
H350 C363 0.929 . S
H351 C361 0.929 . S
H352 C356 0.929 . S
H353 C362 0.929 . S
C354 H348 0.930 . S
C354 C355 1.367 . S
C354 C362 1.378 . S
C355 C354 1.367 . S
C355 C363 1.433 . S
C356 H352 0.929 . S
C356 C358 1.378 . S
C356 C360 1.350 . S
C357 C360 1.463 . S
C357 C362 1.350 . S
C357 N365 1.427 . S
C358 H349 0.930 . S
C358 C356 1.378 . S
C358 C359 1.367 . S
C359 C358 1.367 . S
C359 C361 1.433 . S
C360 C356 1.350 . S
C360 C357 1.463 . S
C360 N364 1.427 . S
C361 H351 0.929 . S
C361 C359 1.433 . S
C361 N364 1.384 . S
C362 H353 0.929 . S
C362 C354 1.378 . S
C362 C357 1.350 . S
C363 H350 0.929 . S
C363 C355 1.433 . S
C363 N365 1.384 . S
N364 C360 1.427 . S
N364 C361 1.384 . S
N365 C357 1.427 . S
N365 C363 1.384 . S
H366 C372 0.930 . S
H367 C376 0.930 . S
H368 C381 0.929 . S
H369 C379 0.929 . S
H370 C374 0.929 1_554 S
H371 C380 0.929 . S
C372 H366 0.930 . S
C372 C373 1.367 . S
C372 C380 1.378 . S
C373 C372 1.367 . S
C373 C381 1.433 . S
C374 H370 0.929 1_556 S
C374 C376 1.378 . S
C374 C378 1.350 1_556 S
C375 C378 1.463 . S
C375 C380 1.350 . S
C375 N383 1.427 . S
C376 H367 0.930 . S
C376 C374 1.378 . S
C376 C377 1.367 . S
C377 C376 1.367 . S
C377 C379 1.433 . S
C378 C374 1.350 1_554 S
C378 C375 1.463 . S
C378 N382 1.427 1_554 S
C379 H369 0.929 . S
C379 C377 1.433 . S
C379 N382 1.384 . S
C380 H371 0.929 . S
C380 C372 1.378 . S
C380 C375 1.350 . S
C381 H368 0.929 . S
C381 C373 1.433 . S
C381 N383 1.384 . S
N382 C378 1.427 1_556 S
N382 C379 1.384 . S
N383 C375 1.427 . S
N383 C381 1.384 . S
H384 C390 0.930 . S
H385 C394 0.930 . S
H386 C399 0.929 . S
H387 C397 0.929 . S
H388 C392 0.929 . S
H389 C398 0.929 . S
C390 H384 0.930 . S
C390 C391 1.367 . S
C390 C398 1.378 . S
C391 C390 1.367 . S
C391 C399 1.433 . S
C392 H388 0.929 . S
C392 C394 1.378 . S
C392 C396 1.350 . S
C393 C396 1.463 . S
C393 C398 1.350 . S
C393 N401 1.427 . S
C394 H385 0.930 . S
C394 C392 1.378 . S
C394 C395 1.367 . S
C395 C394 1.367 . S
C395 C397 1.433 . S
C396 C392 1.350 . S
C396 C393 1.463 . S
C396 N400 1.427 . S
C397 H387 0.929 . S
C397 C395 1.433 . S
C397 N400 1.384 . S
C398 H389 0.929 . S
C398 C390 1.378 . S
C398 C393 1.350 . S
C399 H386 0.929 . S
C399 C391 1.433 . S
C399 N401 1.384 . S
N400 C396 1.427 . S
N400 C397 1.384 . S
N401 C393 1.427 . S
N401 C399 1.384 . S
H402 C408 0.930 . S
H403 C412 0.930 . S
H404 C417 0.929 . S
H405 C415 0.929 . S
H406 C410 0.929 . S
H407 C416 0.929 . S
C408 H402 0.930 . S
C408 C409 1.367 . S
C408 C416 1.378 . S
C409 C408 1.367 . S
C409 C417 1.433 . S
C410 H406 0.929 . S
C410 C412 1.378 . S
C410 C414 1.350 . S
C411 C414 1.463 . S
C411 C416 1.350 . S
C411 N419 1.427 . S
C412 H403 0.930 . S
C412 C410 1.378 . S
C412 C413 1.367 . S
C413 C412 1.367 . S
C413 C415 1.433 . S
C414 C410 1.350 . S
C414 C411 1.463 . S
C414 N418 1.427 . S
C415 H405 0.929 . S
C415 C413 1.433 . S
C415 N418 1.384 . S
C416 H407 0.929 . S
C416 C408 1.378 . S
C416 C411 1.350 . S
C417 H404 0.929 . S
C417 C409 1.433 . S
C417 N419 1.384 . S
N418 C414 1.427 . S
N418 C415 1.384 . S
N419 C411 1.427 . S
N419 C417 1.384 . S
H420 C426 0.930 . S
H421 C430 0.930 . S
H422 C435 0.929 . S
H423 C433 0.929 . S
H424 C428 0.929 . S
H425 C434 0.929 . S
C426 H420 0.930 . S
C426 C427 1.367 . S
C426 C434 1.378 . S
C427 C426 1.367 . S
C427 C435 1.433 . S
C428 H424 0.929 . S
C428 C430 1.378 . S
C428 C432 1.350 . S
C429 C432 1.463 . S
C429 C434 1.350 . S
C429 N437 1.427 . S
C430 H421 0.930 . S
C430 C428 1.378 . S
C430 C431 1.367 1_556 S
C431 C430 1.367 1_554 S
C431 C433 1.433 . S
C432 C428 1.350 . S
C432 C429 1.463 . S
C432 N436 1.427 . S
C433 H423 0.929 . S
C433 C431 1.433 . S
C433 N436 1.384 1_554 S
C434 H425 0.929 . S
C434 C426 1.378 . S
C434 C429 1.350 . S
C435 H422 0.929 . S
C435 C427 1.433 . S
C435 N437 1.384 . S
N436 C432 1.427 . S
N436 C433 1.384 1_556 S
N437 C429 1.427 . S
N437 C435 1.384 . S
H438 C444 0.930 . S
H439 C448 0.930 . S
H440 C453 0.929 . S
H441 C451 0.929 . S
H442 C446 0.929 . S
H443 C452 0.929 . S
C444 H438 0.930 . S
C444 C445 1.367 . S
C444 C452 1.378 . S
C445 C444 1.367 . S
C445 C453 1.433 . S
C446 H442 0.929 . S
C446 C448 1.378 . S
C446 C450 1.350 . S
C447 C450 1.463 . S
C447 C452 1.350 . S
C447 N455 1.427 . S
C448 H439 0.930 . S
C448 C446 1.378 . S
C448 C449 1.367 . S
C449 C448 1.367 . S
C449 C451 1.433 . S
C450 C446 1.350 . S
C450 C447 1.463 . S
C450 N454 1.427 . S
C451 H441 0.929 . S
C451 C449 1.433 . S
C451 N454 1.384 . S
C452 H443 0.929 . S
C452 C444 1.378 . S
C452 C447 1.350 . S
C453 H440 0.929 . S
C453 C445 1.433 . S
C453 N455 1.384 . S
N454 C450 1.427 . S
N454 C451 1.384 . S
N455 C447 1.427 . S
N455 C453 1.384 . S
H456 C462 0.930 . S
H457 C466 0.930 . S
H458 C471 0.929 . S
H459 C469 0.929 . S
H460 C464 0.929 . S
H461 C470 0.929 . S
C462 H456 0.930 . S
C462 C463 1.367 . S
C462 C470 1.378 . S
C463 C462 1.367 . S
C463 C471 1.433 . S
C464 H460 0.929 . S
C464 C466 1.378 . S
C464 C468 1.350 . S
C465 C468 1.463 . S
C465 C470 1.350 . S
C465 N473 1.427 . S
C466 H457 0.930 . S
C466 C464 1.378 . S
C466 C467 1.367 . S
C467 C466 1.367 . S
C467 C469 1.433 . S
C468 C464 1.350 . S
C468 C465 1.463 . S
C468 N472 1.427 . S
C469 H459 0.929 . S
C469 C467 1.433 . S
C469 N472 1.384 . S
C470 H461 0.929 . S
C470 C462 1.378 . S
C470 C465 1.350 . S
C471 H458 0.929 . S
C471 C463 1.433 . S
C471 N473 1.384 . S
N472 C468 1.427 . S
N472 C469 1.384 . S
N473 C465 1.427 . S
N473 C471 1.384 . S
H474 C480 0.930 . S
H475 C484 0.930 . S
H476 C489 0.929 . S
H477 C487 0.929 . S
H478 C482 0.929 . S
H479 C488 0.929 . S
C480 H474 0.930 . S
C480 C481 1.367 . S
C480 C488 1.378 . S
C481 C480 1.367 . S
C481 C489 1.433 . S
C482 H478 0.929 . S
C482 C484 1.378 . S
C482 C486 1.350 . S
C483 C486 1.463 . S
C483 C488 1.350 . S
C483 N491 1.427 . S
C484 H475 0.930 . S
C484 C482 1.378 . S
C484 C485 1.367 . S
C485 C484 1.367 . S
C485 C487 1.433 . S
C486 C482 1.350 . S
C486 C483 1.463 . S
C486 N490 1.427 . S
C487 H477 0.929 . S
C487 C485 1.433 . S
C487 N490 1.384 . S
C488 H479 0.929 . S
C488 C480 1.378 . S
C488 C483 1.350 . S
C489 H476 0.929 . S
C489 C481 1.433 . S
C489 N491 1.384 . S
N490 C486 1.427 . S
N490 C487 1.384 . S
N491 C483 1.427 . S
N491 C489 1.384 . S
H492 C498 0.930 . S
H493 C502 0.930 . S
H494 C507 0.942 . S
H495 C505 0.929 . S
H496 C500 0.929 . S
H497 C506 0.929 . S
C498 H492 0.930 . S
C498 C499 1.367 . S
C498 C506 1.378 . S
C499 C498 1.367 . S
C499 C507 1.433 . S
C500 H496 0.929 . S
C500 C502 1.378 . S
C500 C504 1.350 . S
C501 C504 1.463 . S
C501 C506 1.350 . S
C501 N509 1.427 . S
C502 H493 0.930 . S
C502 C500 1.378 . S
C502 C503 1.367 . S
C503 C502 1.367 . S
C503 C505 1.433 . S
C504 C500 1.350 . S
C504 C501 1.463 . S
C504 N508 1.427 . S
C505 H495 0.929 . S
C505 C503 1.433 . S
C505 N508 1.384 . S
C506 H497 0.929 . S
C506 C498 1.378 . S
C506 C501 1.350 . S
C507 H494 0.942 . S
C507 C499 1.433 . S
C507 N509 1.384 . S
N508 C504 1.427 . S
N508 C505 1.384 . S
N509 C501 1.427 . S
N509 C507 1.384 . S
H510 C516 0.930 . S
H511 C520 0.930 . S
H512 C525 0.929 . S
H513 C523 0.929 . S
H514 C518 0.929 . S
H515 C524 0.929 . S
C516 H510 0.930 . S
C516 C517 1.367 . S
C516 C524 1.378 . S
C517 C516 1.367 . S
C517 C525 1.433 . S
C518 H514 0.929 . S
C518 C520 1.378 . S
C518 C522 1.350 . S
C519 C522 1.463 . S
C519 C524 1.350 . S
C519 N527 1.427 . S
C520 H511 0.930 . S
C520 C518 1.378 . S
C520 C521 1.367 . S
C521 C520 1.367 . S
C521 C523 1.433 . S
C522 C518 1.350 . S
C522 C519 1.463 . S
C522 N526 1.427 . S
C523 H513 0.929 . S
C523 C521 1.433 . S
C523 N526 1.384 . S
C524 H515 0.929 . S
C524 C516 1.378 . S
C524 C519 1.350 . S
C525 H512 0.929 . S
C525 C517 1.433 . S
C525 N527 1.384 . S
N526 C522 1.427 . S
N526 C523 1.384 . S
N527 C519 1.427 . S
N527 C525 1.384 . S
H528 C534 0.930 . S
H529 C538 0.930 . S
H530 C543 0.929 . S
H531 C541 0.929 . S
H532 C536 0.929 . S
H533 C542 0.929 . S
C534 H528 0.930 . S
C534 C535 1.367 . S
C534 C542 1.378 . S
C535 C534 1.367 . S
C535 C543 1.433 . S
C536 H532 0.929 . S
C536 C538 1.378 . S
C536 C540 1.350 . S
C537 C540 1.463 . S
C537 C542 1.350 . S
C537 N545 1.427 . S
C538 H529 0.930 . S
C538 C536 1.378 . S
C538 C539 1.367 . S
C539 C538 1.367 . S
C539 C541 1.433 . S
C540 C536 1.350 . S
C540 C537 1.463 . S
C540 N544 1.427 . S
C541 H531 0.929 . S
C541 C539 1.433 . S
C541 N544 1.384 . S
C542 H533 0.929 . S
C542 C534 1.378 . S
C542 C537 1.350 . S
C543 H530 0.929 . S
C543 C535 1.433 . S
C543 N545 1.384 . S
N544 C540 1.427 . S
N544 C541 1.384 . S
N545 C537 1.427 . S
N545 C543 1.384 . S
H546 C552 0.930 . S
H547 C556 0.930 . S
H548 C561 0.929 . S
H549 C559 0.929 . S
H550 C554 0.929 . S
H551 C560 0.929 . S
C552 H546 0.930 . S
C552 C553 1.367 . S
C552 C560 1.378 . S
C553 C552 1.367 . S
C553 C561 1.433 . S
C554 H550 0.929 . S
C554 C556 1.378 . S
C554 C558 1.350 . S
C555 C558 1.463 . S
C555 C560 1.350 . S
C555 N563 1.427 . S
C556 H547 0.930 . S
C556 C554 1.378 . S
C556 C557 1.367 1_554 S
C557 C556 1.367 1_556 S
C557 C559 1.433 . S
C558 C554 1.350 . S
C558 C555 1.463 . S
C558 N562 1.427 1_554 S
C559 H549 0.929 . S
C559 C557 1.433 . S
C559 N562 1.384 . S
C560 H551 0.929 . S
C560 C552 1.378 . S
C560 C555 1.350 . S
C561 H548 0.929 . S
C561 C553 1.433 . S
C561 N563 1.384 . S
N562 C558 1.427 1_556 S
N562 C559 1.384 . S
N563 C555 1.427 . S
N563 C561 1.384 . S
C247 C217 1.363 . S
C251 C17 1.380 . S
C265 C31 1.674 . S
C269 C71 1.678 . S
C283 C57 1.367 . S
C287 C97 1.365 . S
C301 C111 1.678 . S
C305 C151 1.684 . S
C319 C177 1.373 . S
C323 C137 1.377 . S
C337 C231 1.678 . S
C341 C191 1.675 . S
C355 C29 1.174 . S
C359 C8 1.174 . S
C373 C48 1.169 . S
C377 C69 1.169 . S
C391 C109 1.169 . S
C395 C88 1.169 . S
C409 C128 1.174 . S
C413 C149 1.174 . S
C427 C168 1.173 . S
C431 C189 1.173 . S
C445 C208 1.161 . S
C449 C229 1.161 . S
C463 C2 1.861 . S
C467 C172 1.861 . S
C481 C52 1.860 . S
C485 C202 1.862 . S
C499 C12 1.862 . S
C503 C82 1.862 . S
C517 C42 1.861 . S
C521 C132 1.861 . S
C535 C162 1.863 . S
C539 C92 1.862 . S
C553 C122 1.861 . S
C557 C212 1.861 . S
