# Generated by pormake.
# Topology unc, (4)-cn, num edge types: 1
# Building blocks:
#     Node 0, Type 0, BuildingBlock: KUFVIS_clean_sbu_0, # of connection points: 4
#     Node 1, Type 0, BuildingBlock: KUFVIS_clean_sbu_0, # of connection points: 4
#     Node 2, Type 0, BuildingBlock: KUFVIS_clean_sbu_0, # of connection points: 4
#     Node 3, Type 0, BuildingBlock: KUFVIS_clean_sbu_0, # of connection points: 4
#     Edge 4, Type (0, 0), BuildingBlock: ZUJKAS_clean_linker_0, # of connection points: 2
#     Edge 5, Type (0, 0), BuildingBlock: ZUJKAS_clean_linker_0, # of connection points: 2
#     Edge 6, Type (0, 0), BuildingBlock: ZUJKAS_clean_linker_0, # of connection points: 2
#     Edge 7, Type (0, 0), BuildingBlock: ZUJKAS_clean_linker_0, # of connection points: 2
#     Edge 8, Type (0, 0), BuildingBlock: ZUJKAS_clean_linker_0, # of connection points: 2
#     Edge 9, Type (0, 0), BuildingBlock: ZUJKAS_clean_linker_0, # of connection points: 2
#     Edge 10, Type (0, 0), BuildingBlock: ZUJKAS_clean_linker_0, # of connection points: 2
#     Edge 11, Type (0, 0), BuildingBlock: ZUJKAS_clean_linker_0, # of connection points: 2
# Relax obj value: 0.020
# Max RMSD: 0.088
# Mean RMSD: 0.079
data_MOF--net-unc--node1-KUFVIS_clean_sbu_0--edge1-ZUJKAS_clean_linker_0
_symmetry_space_group_name_H-M    P1
_symmetry_Int_Tables_number       1
_symmetry_cell_setting            triclinic
loop_
_symmetry_equiv_pos_as_xyz
'x, y, z'
_cell_length_a     38.589454
_cell_length_b     38.569253
_cell_length_c     28.683865
_cell_angle_alpha  91.819373
_cell_angle_beta   92.019478
_cell_angle_gamma 90.129077
loop_
_atom_site_label
_atom_site_type_symbol
_atom_site_fract_x
_atom_site_fract_y
_atom_site_fract_z
_atom_type_partial_charge
Mn0 Mn 0.00929 0.67896 0.01497 0.0
Mn1 Mn 0.04378 0.70896 0.9174 0.0
C2 C 1.00024 0.64912 0.94438 0.0
C3 C 0.01397 0.64499 0.08091 0.0
C4 C 0.97968 0.73985 0.96072 0.0
O5 O 0.04574 0.71353 0.04063 0.0
O6 O 0.06898 0.72916 0.97342 0.0
C7 C 0.11282 0.67589 0.92524 0.0
N8 N 0.08267 0.68132 0.90047 0.0
C9 C 0.10199 0.64633 0.83553 0.0
C10 C 0.13333 0.64049 0.86024 0.0
C11 C 0.13872 0.65527 0.90534 0.0
C12 C 0.07718 0.66716 0.85712 0.0
H13 H 0.11703 0.6872 0.95992 0.0
C14 C 0.0678 0.73043 0.01803 0.0
O15 O 0.99236 0.67073 0.07883 0.0
O16 O 0.03361 0.63999 0.04561 0.0
N17 N 0.02214 0.69143 0.86042 0.0
C18 C 0.98976 0.69801 0.84239 0.0
C19 C 0.98008 0.68488 0.7976 0.0
C20 C 0.00379 0.6653 0.77179 0.0
C21 C 0.03682 0.65854 0.79127 0.0
C22 C 0.0452 0.67274 0.83576 0.0
H23 H 0.97154 0.71333 0.8619 0.0
O24 O 0.97947 0.64479 0.97832 0.0
O25 O 0.02583 0.67064 0.95285 0.0
O26 O 0.97781 0.71893 0.99418 0.0
O27 O 0.00364 0.73856 0.93112 0.0
C28 C 0.06165 0.63804 0.76847 0.0
C29 C 0.09416 0.63181 0.79067 0.0
H30 H 0.15332 0.62449 0.84509 0.0
H31 H 0.16278 0.65076 0.92471 0.0
H32 H 0.95446 0.69002 0.78289 0.0
H33 H 0.99633 0.6555 0.73708 0.0
H34 H 0.05583 0.62657 0.73411 0.0
H35 H 0.11284 0.6156 0.77307 0.0
Mn36 Mn 0.35672 0.02842 0.25528 0.0
Mn37 Mn 0.32999 0.99401 0.35464 0.0
C38 C 0.38917 0.0364 0.3239 0.0
C39 C 0.38824 0.02396 0.18747 0.0
C40 C 0.29831 0.05866 0.31327 0.0
O41 O 0.32079 0.99261 0.23165 0.0
O42 O 0.30732 0.9693 0.29986 0.0
C43 C 0.36201 0.92464 0.34428 0.0
N44 N 0.35808 0.95484 0.3694 0.0
C45 C 0.39714 0.93567 0.43051 0.0
C46 C 0.40145 0.90427 0.40542 0.0
C47 C 0.38385 0.89877 0.36208 0.0
C48 C 0.37497 0.96045 0.41107 0.0
H49 H 0.34861 0.92037 0.31089 0.0
C50 C 0.30442 0.97075 0.25529 0.0
O51 O 0.363 0.046 0.19138 0.0
O52 O 0.39396 0.0036 0.22198 0.0
N53 N 0.35014 0.01535 0.41037 0.0
C54 C 0.34425 0.04758 0.42924 0.0
C55 C 0.36028 0.05741 0.47237 0.0
C56 C 0.38198 0.03395 0.49576 0.0
C57 C 0.38751 1.00086 0.47578 0.0
C58 C 0.37054 0.99239 0.43295 0.0
H59 H 0.32751 0.06569 0.4115 0.0
O60 O 0.39267 0.05743 0.28999 0.0
O61 O 0.3669 0.01136 0.31655 0.0
O62 O 0.31813 0.06032 0.27869 0.0
O63 O 0.30028 0.03463 0.3429 0.0
C64 C 0.4095 0.9761 0.49638 0.0
C65 C 0.41441 0.94357 0.47368 0.0
H66 H 0.41838 0.8843 0.41893 0.0
H67 H 0.38717 0.87467 0.34241 0.0
H68 H 0.35592 0.083 0.48754 0.0
H69 H 0.39432 0.04167 0.52898 0.0
H70 H 0.42308 0.98195 0.52939 0.0
H71 H 0.43173 0.92493 0.48957 0.0
Mn72 Mn 0.01012 0.35989 0.50946 0.0
Mn73 Mn 0.05263 0.32481 0.60125 0.0
C74 C 0.00656 0.3858 0.58294 0.0
C75 C 0.01099 0.39657 0.44618 0.0
C76 C 0.98439 0.29655 0.55979 0.0
O77 O 0.04353 0.32616 0.4786 0.0
O78 O 0.07306 0.30801 0.54219 0.0
C79 C 0.12079 0.35892 0.59259 0.0
N80 N 0.09293 0.35169 0.6185 0.0
C81 C 0.11912 0.38049 0.68655 0.0
C82 C 0.14818 0.38817 0.66069 0.0
C83 C 0.14892 0.37751 0.61342 0.0
C84 C 0.09171 0.36229 0.66376 0.0
H85 H 0.12156 0.35046 0.55639 0.0
C86 C 0.06776 0.30867 0.49792 0.0
O87 O 0.98865 0.37136 0.44727 0.0
O88 O 0.03301 0.39986 0.48119 0.0
N89 N 0.03614 0.33859 0.66108 0.0
C90 C 0.00554 0.33046 0.68045 0.0
C91 C 1.00038 0.33968 0.72742 0.0
C92 C 0.02693 0.35655 0.75417 0.0
C93 C 0.0582 0.36466 0.73346 0.0
C94 C 0.06177 0.35501 0.68645 0.0
H95 H 0.98531 0.31686 0.66031 0.0
O96 O 0.98377 0.39242 0.55012 0.0
O97 O 0.03157 0.365 0.57139 0.0
O98 O 0.97951 0.31934 0.52884 0.0
O99 O 0.01129 0.29584 0.58698 0.0
C100 C 0.086 0.38184 0.75762 0.0
C101 C 0.11626 0.39015 0.73405 0.0
H102 H 0.17002 0.4023 0.67671 0.0
H103 H 0.17122 0.38339 0.5932 0.0
H104 H 0.97616 0.3334 0.74314 0.0
H105 H 0.02299 0.3632 0.79057 0.0
H106 H 0.08424 0.38912 0.79423 0.0
H107 H 0.13719 0.40393 0.7528 0.0
Mn108 Mn 0.67496 0.02637 0.76665 0.0
Mn109 Mn 0.70296 0.98223 0.6719 0.0
C110 C 0.64434 0.02947 0.69655 0.0
C111 C 0.64227 0.02619 0.83357 0.0
C112 C 0.73489 0.05036 0.70849 0.0
O113 O 0.71022 0.9929 0.79414 0.0
O114 O 0.72333 0.96175 0.72948 0.0
C115 C 0.66783 0.91529 0.68614 0.0
N116 N 0.67366 0.94285 0.65891 0.0
C117 C 0.63509 0.9196 0.5979 0.0
C118 C 0.62885 0.89085 0.62517 0.0
C119 C 0.64524 0.88873 0.66951 0.0
C120 C 0.65791 0.94522 0.61628 0.0
H121 H 0.68027 0.91365 0.72032 0.0
C122 C 0.72583 0.96792 0.77366 0.0
O123 O 0.66716 0.04858 0.82954 0.0
O124 O 0.63725 0.00372 0.79952 0.0
N125 N 0.68529 0.99891 0.61362 0.0
C126 C 0.69345 0.02874 0.59219 0.0
C127 C 0.67904 0.03498 0.54763 0.0
C128 C 0.65664 0.0104 0.5254 0.0
C129 C 0.64891 0.97972 0.5479 0.0
C130 C 0.66436 0.97474 0.59208 0.0
H131 H 0.71076 0.04769 0.60898 0.0
O132 O 0.64 0.05273 0.72941 0.0
O133 O 0.66574 0.0045 0.70621 0.0
O134 O 0.71417 0.05614 0.74172 0.0
O135 O 0.73362 0.02299 0.6821 0.0
C136 C 0.6262 0.95406 0.52845 0.0
C137 C 0.61921 0.92408 0.5535 0.0
H138 H 0.61135 0.87037 0.61254 0.0
H139 H 0.64042 0.8667 0.69084 0.0
H140 H 0.68517 0.0587 0.53046 0.0
H141 H 0.64555 0.01536 0.49106 0.0
H142 H 0.6137 0.95729 0.49446 0.0
H143 H 0.60142 0.90471 0.5384 0.0
H144 H 0.04587 0.58223 0.08402 0.0
H145 H 0.04394 0.53993 0.14525 0.0
H146 H 0.98278 0.61049 0.22797 0.0
H147 H 0.98341 0.65252 0.16564 0.0
H148 H 0.06723 0.54084 0.23146 0.0
H149 H 0.92458 0.52486 0.23163 0.0
H150 H 0.94585 0.54839 0.18737 0.0
H151 H 0.93798 0.56893 0.24325 0.0
C152 C 0.032 0.58882 0.11525 0.0
C153 C 0.01464 0.62069 0.11989 0.0
C154 C 0.03089 0.56454 0.15027 0.0
C155 C 0.01262 0.57161 0.19094 0.0
C156 C 0.99616 0.60392 0.19636 0.0
H157 H 0.04543 0.45811 0.44503 0.0
H158 H 0.04528 0.49987 0.383 0.0
C159 C 0.99683 0.6281 0.16092 0.0
C160 C 0.01157 0.54528 0.22774 0.0
H161 H 0.95692 0.49887 0.29349 0.0
C162 C 0.04307 0.53159 0.24484 0.0
C163 C 0.98005 0.5326 0.24466 0.0
C164 C 0.9452 0.54417 0.22544 0.0
C165 C 0.04399 0.50604 0.27864 0.0
C166 C 0.01257 0.49462 0.29724 0.0
C167 C 0.98103 0.50787 0.27967 0.0
C168 C 0.01196 0.46928 0.33527 0.0
C169 C 0.07866 0.49101 0.29318 0.0
C170 C 0.99214 0.43867 0.33002 0.0
C171 C 0.99164 0.41492 0.36598 0.0
C172 C 0.01109 0.42131 0.40773 0.0
C173 C 0.03056 0.45214 0.41304 0.0
C174 C 0.03068 0.476 0.37743 0.0
H175 H 0.09789 0.49373 0.26558 0.0
H176 H 0.08893 0.50526 0.32495 0.0
H177 H 0.07639 0.46312 0.30107 0.0
H178 H 0.97726 0.43302 0.29793 0.0
H179 H 0.97628 0.39147 0.36096 0.0
H180 H 0.40901 0.0899 0.38296 0.0
H181 H 0.45463 0.08901 0.44511 0.0
H182 H 0.4751 0.98158 0.40985 0.0
H183 H 0.42988 0.98259 0.34774 0.0
H184 H 0.45809 0.04336 0.5227 0.0
H185 H 0.57132 0.02935 0.40923 0.0
H186 H 0.52939 0.04373 0.38765 0.0
H187 H 0.53695 0.99851 0.39706 0.0
C188 C 0.42333 0.0662 0.38877 0.0
C189 C 0.41552 0.03603 0.36192 0.0
C190 C 0.44925 0.06569 0.42402 0.0
C191 C 0.46827 0.03528 0.43174 0.0
C192 C 0.46095 0.00538 0.40407 0.0
H193 H 0.60019 0.97792 0.66773 0.0
H194 H 0.55727 0.97887 0.60237 0.0
C195 C 0.43492 0.00584 0.36911 0.0
C196 C 0.49526 0.03451 0.46945 0.0
H197 H 0.58201 0.02328 0.49055 0.0
C198 C 0.48517 0.03898 0.51573 0.0
C199 C 0.53058 0.02903 0.46004 0.0
C200 C 0.54289 0.02516 0.41081 0.0
C201 C 0.50949 0.03752 0.55306 0.0
C202 C 0.54468 0.0316 0.54364 0.0
C203 C 0.55491 0.02758 0.49741 0.0
C204 C 0.57131 0.03032 0.58158 0.0
C205 C 0.49762 0.04251 0.60235 0.0
C206 C 0.5933 0.05886 0.59096 0.0
C207 C 0.61763 0.05835 0.62812 0.0
C208 C 0.62089 0.02888 0.65529 0.0
C209 C 0.59876 1.00041 0.64605 0.0
C210 C 0.57419 1.00104 0.60917 0.0
H211 H 0.47004 0.05062 0.60347 0.0
H212 H 0.50062 0.01779 0.62084 0.0
H213 H 0.51398 0.06234 0.62156 0.0
H214 H 0.59116 0.08172 0.57007 0.0
H215 H 0.63399 0.08085 0.63557 0.0
H216 H 0.05442 0.61306 0.91119 0.0
H217 H 0.0537 0.56888 0.84842 0.0
H218 H 0.94245 0.57873 0.83305 0.0
H219 H 0.94391 0.62565 0.89286 0.0
H220 H 0.02754 0.50927 0.84698 0.0
H221 H 0.9635 0.57679 0.70012 0.0
H222 H 0.97561 0.59903 0.75436 0.0
H223 H 0.93585 0.57458 0.74888 0.0
C224 C 0.0301 0.60692 0.89275 0.0
C225 C 0.99954 0.624 0.90475 0.0
C226 C 0.02954 0.58119 0.85749 0.0
C227 C 0.9981 0.57087 0.83497 0.0
C228 C 0.96722 0.5871 0.84834 0.0
H229 H 0.95177 0.39938 0.63684 0.0
H230 H 0.94918 0.44209 0.70197 0.0
C231 C 0.96799 0.61364 0.88278 0.0
C232 C 0.99777 0.54139 0.80026 0.0
H233 H 0.97055 0.5155 0.68987 0.0
C234 C 0.01524 0.51088 0.81254 0.0
C235 C 0.98141 0.5431 0.75534 0.0
C236 C 0.96332 0.57528 0.73873 0.0
C237 C 0.01722 0.48243 0.78118 0.0
C238 C 1.00103 0.48423 0.7365 0.0
C239 C 0.98287 0.51425 0.72436 0.0
C240 C 0.00355 0.45571 0.70111 0.0
C241 C 0.03668 0.45066 0.79594 0.0
C242 C 0.03505 0.44913 0.67953 0.0
C243 C 0.03646 0.42501 0.64223 0.0
C244 C 0.0066 0.40662 0.62676 0.0
C245 C 0.97528 0.41274 0.64899 0.0
C246 C 0.97377 0.43709 0.68598 0.0
H247 H 0.04206 0.45064 0.83425 0.0
H248 H 0.02173 0.42699 0.78528 0.0
H249 H 0.0618 0.44985 0.77831 0.0
H250 H 0.05815 0.46374 0.69019 0.0
H251 H 0.06049 0.42186 0.62418 0.0
H252 H 0.43983 0.97805 0.16849 0.0
H253 H 0.48303 0.98178 0.10864 0.0
H254 H 0.43431 0.07453 0.05811 0.0
H255 H 0.39045 0.07061 0.11753 0.0
H256 H 0.45313 0.0302 0.98711 0.0
H257 H 0.56337 0.05027 0.11404 0.0
H258 H 0.53913 0.01161 0.12403 0.0
H259 H 0.51876 0.05333 0.1306 0.0
C260 C 0.4381 0.99911 0.14442 0.0
C261 C 0.41183 0.02417 0.14792 0.0
C262 C 0.46303 1.00138 0.11051 0.0
C263 C 0.46246 0.02896 0.07975 0.0
C264 C 0.43545 0.05324 0.08186 0.0
H265 H 0.63671 0.07672 0.9027 0.0
H266 H 0.59309 0.07999 0.96309 0.0
C267 C 0.41034 0.0509 0.1157 0.0
C268 C 0.48997 0.03219 0.04526 0.0
H269 H 0.57786 0.03638 0.0352 0.0
C270 C 0.48037 0.03185 0.99763 0.0
C271 C 0.52551 0.03506 0.05904 0.0
C272 C 0.53734 0.03797 0.10973 0.0
C273 C 0.5054 0.03287 0.96335 0.0
C274 C 0.54102 0.03356 0.97709 0.0
C275 C 0.55059 0.03536 0.02473 0.0
C276 C 0.5686 0.03108 0.94241 0.0
C277 C 0.49343 0.03324 0.91271 0.0
C278 C 0.57001 1.002 0.91196 0.0
C279 C 0.5947 1.00011 0.87763 0.0
C280 C 0.61882 0.0271 0.87331 0.0
C281 C 0.61845 0.05555 0.90517 0.0
C282 C 0.59351 0.05749 0.93954 0.0
H283 H 0.46653 0.04319 0.90872 0.0
H284 H 0.51077 0.04947 0.89225 0.0
H285 H 0.49372 0.00637 0.8977 0.0
H286 H 0.55168 0.98087 0.91438 0.0
H287 H 0.59449 0.97765 0.85396 0.0
H288 H 0.29428 0.95906 0.16062 0.0
H289 H 0.25424 0.91737 0.12096 0.0
H290 H 0.22073 0.88384 0.25407 0.0
H291 H 0.26033 0.92512 0.29402 0.0
H292 H 0.25175 0.84179 0.13432 0.0
H293 H 0.12982 0.90952 0.17957 0.0
H294 H 0.17145 0.93114 0.18159 0.0
H295 H 0.16023 0.90295 0.22739 0.0
C296 C 0.27834 0.94291 0.18148 0.0
C297 C 0.28049 0.94562 0.23055 0.0
C298 C 0.25554 0.91909 0.15876 0.0
C299 C 0.23431 0.89792 0.18468 0.0
C300 C 0.23656 0.90034 0.2335 0.0
H301 H 0.07431 0.74362 0.11285 0.0
H302 H 0.11593 0.78264 0.15443 0.0
C303 C 0.25939 0.92391 0.25622 0.0
C304 C 0.21011 0.87277 0.16093 0.0
H305 H 0.12413 0.85361 0.14371 0.0
C306 C 0.22384 0.84438 0.13612 0.0
C307 C 0.17378 0.87617 0.16387 0.0
C308 C 0.15778 0.9067 0.18922 0.0
C309 C 0.20211 0.81897 0.11449 0.0
C310 C 0.16571 0.82254 0.11697 0.0
C311 C 0.15203 0.85088 0.14202 0.0
C312 C 0.14134 0.79795 0.09221 0.0
C313 C 0.21834 0.7882 0.08994 0.0
C314 C 0.14169 0.79389 0.04352 0.0
C315 C 0.11811 0.77166 0.01973 0.0
C316 C 0.09335 0.75318 0.04408 0.0
C317 C 0.09302 0.75734 0.09298 0.0
C318 C 0.11676 0.77964 0.1168 0.0
H319 H 0.24545 0.78402 0.10285 0.0
H320 H 0.20318 0.76414 0.09469 0.0
H321 H 0.21891 0.79295 0.05202 0.0
H322 H 0.1599 0.80836 0.02375 0.0
H323 H 0.11916 0.7693 0.98208 0.0
H324 H 0.28697 0.11725 0.26245 0.0
H325 H 0.24566 0.16402 0.27818 0.0
H326 H 0.20984 0.10985 0.39662 0.0
H327 H 0.25047 0.06306 0.38119 0.0
H328 H 0.15594 0.13767 0.33903 0.0
H329 H 0.25891 0.23467 0.38921 0.0
H330 H 0.26145 0.21327 0.3328 0.0
H331 H 0.2677 0.18877 0.38457 0.0
C332 C 0.27017 0.11517 0.29169 0.0
C333 C 0.27228 0.0864 0.3207 0.0
C334 C 0.24667 0.142 0.30069 0.0
C335 C 0.22497 0.14052 0.33883 0.0
C336 C 0.22637 0.11149 0.367 0.0
H337 H 0.12634 0.27446 0.52577 0.0
H338 H 0.16305 0.23706 0.47894 0.0
C339 C 0.24976 0.08477 0.35814 0.0
C340 C 0.20146 0.16947 0.35104 0.0
H341 H 0.20124 0.25157 0.39917 0.0
C342 C 0.16569 0.16283 0.35143 0.0
C343 C 0.21441 0.20213 0.36743 0.0
C344 C 0.25271 0.2103 0.3689 0.0
C345 C 0.14264 0.18746 0.36968 0.0
C346 C 0.15575 0.21968 0.38749 0.0
C347 C 0.19131 0.22689 0.38519 0.0
C348 C 0.13392 0.24421 0.41419 0.0
C349 C 0.10479 0.17806 0.37232 0.0
C350 C 0.10554 0.26112 0.39312 0.0
C351 C 0.08422 0.28264 0.41996 0.0
C352 C 0.09099 0.28752 0.4683 0.0
C353 C 0.12005 0.27115 0.48879 0.0
C354 C 0.14124 0.24983 0.46202 0.0
H355 H 0.09979 0.15025 0.36318 0.0
H356 H 0.09552 0.18376 0.40796 0.0
H357 H 0.08931 0.19391 0.34764 0.0
H358 H 0.09974 0.25746 0.35607 0.0
H359 H 0.06219 0.29496 0.40299 0.0
H360 H 0.79007 0.04309 0.65218 0.0
H361 H 0.82906 0.08803 0.62724 0.0
H362 H 0.77632 0.16417 0.71198 0.0
H363 H 0.73725 0.119 0.73797 0.0
H364 H 0.81182 0.1463 0.57901 0.0
H365 H 0.87791 0.18176 0.7493 0.0
H366 H 0.85194 0.14298 0.74057 0.0
H367 H 0.83142 0.18442 0.74839 0.0
C368 C 0.78688 0.06929 0.66606 0.0
C369 C 0.76051 0.07736 0.69727 0.0
C370 C 0.80917 0.095 0.65155 0.0
C371 C 0.80573 0.12943 0.66783 0.0
C372 C 0.77981 0.13765 0.69952 0.0
H373 H 0.9148 0.30026 0.53618 0.0
H374 H 0.86882 0.26134 0.56037 0.0
C375 C 0.75749 0.1118 0.71435 0.0
C376 C 0.82899 0.15649 0.6504 0.0
H377 H 0.89324 0.21376 0.68443 0.0
C378 C 0.82953 0.16122 0.60205 0.0
C379 C 0.85215 0.17576 0.68052 0.0
C380 C 0.85368 0.17089 0.73255 0.0
C381 C 0.85313 0.18412 0.58287 0.0
C382 C 0.87641 0.20325 0.61298 0.0
C383 C 0.87529 0.19911 0.66141 0.0
C384 C 0.90382 0.22588 0.59513 0.0
C385 C 0.85387 0.18658 0.53052 0.0
C386 C 0.93868 0.21884 0.60643 0.0
C387 C 0.96483 0.24103 0.59301 0.0
C388 C 0.95677 0.27085 0.56783 0.0
C389 C 0.9219 0.2773 0.55504 0.0
C390 C 0.8956 0.25509 0.56888 0.0
H391 H 0.83982 0.16465 0.51221 0.0
H392 H 0.84119 0.21104 0.51997 0.0
H393 H 0.88096 0.18696 0.51872 0.0
H394 H 0.94565 0.19637 0.62645 0.0
H395 H 0.9914 0.23517 0.60333 0.0
H396 H 0.73975 0.97151 0.8685 0.0
H397 H 0.77836 0.9341 0.91404 0.0
H398 H 0.8016 0.87512 0.78887 0.0
H399 H 0.7629 0.91176 0.74324 0.0
H400 H 0.78832 0.83386 0.86485 0.0
H401 H 0.88478 0.93785 0.91188 0.0
H402 H 0.84077 0.94635 0.92721 0.0
H403 H 0.85148 0.94276 0.86684 0.0
C404 C 0.75301 0.95054 0.85063 0.0
C405 C 0.74835 0.9449 0.80204 0.0
C406 C 0.77517 0.92928 0.87674 0.0
C407 C 0.79316 0.90213 0.85472 0.0
C408 C 0.788 0.89598 0.80654 0.0
H409 H 0.97769 0.79148 0.89779 0.0
H410 H 0.93052 0.83132 0.88085 0.0
C411 C 0.7659 0.9171 0.78046 0.0
C412 C 0.81799 0.88023 0.88115 0.0
H413 H 0.89775 0.88175 0.93667 0.0
C414 C 0.81204 0.84431 0.88118 0.0
C415 C 0.84898 0.89403 0.90215 0.0
C416 C 0.8572 0.9323 0.9019 0.0
C417 C 0.83684 0.82163 0.90007 0.0
C418 C 0.86819 0.83535 0.92006 0.0
C419 C 0.87356 0.87139 0.92163 0.0
C420 C 0.89742 0.81258 0.93395 0.0
C421 C 0.83016 0.78306 0.89612 0.0
C422 C 0.89478 0.7892 0.97023 0.0
C423 C 0.92187 0.7661 0.98008 0.0
C424 C 0.95201 0.76608 0.9538 0.0
C425 C 0.95487 0.79049 0.91865 0.0
C426 C 0.92793 0.81345 0.90894 0.0
H427 H 0.80721 0.77654 0.87299 0.0
H428 H 0.85307 0.76929 0.88235 0.0
H429 H 0.82541 0.77318 0.93125 0.0
H430 H 0.87161 0.78848 0.99041 0.0
H431 H 0.91882 0.74778 0.00749 0.0
loop_
_geom_bond_atom_site_label_1
_geom_bond_atom_site_label_2
_geom_bond_distance
_geom_bond_site_symmetry_2
_ccdc_geom_bond_type
Mn0 O5 2.095 . S
Mn0 O15 2.162 1_455 S
Mn0 O16 2.297 . S
Mn0 O24 2.385 1_454 S
Mn0 O25 2.209 1_554 S
Mn0 O26 2.094 1_455 S
Mn1 O6 2.121 . S
Mn1 N8 2.257 . S
Mn1 N17 2.282 . S
Mn1 O25 2.215 . S
Mn1 O27 2.117 1_455 S
C2 O24 1.234 1_455 S
C2 O25 1.283 . S
C3 O15 1.281 1_455 S
C3 O16 1.236 . S
C4 O26 1.240 1_556 S
C4 O27 1.264 . S
O5 Mn0 2.095 . S
O5 C14 1.250 . S
O6 Mn1 2.121 . S
O6 C14 1.258 1_556 S
C7 N8 1.326 . S
C7 C11 1.460 . S
C7 H13 0.929 . S
N8 Mn1 2.257 . S
N8 C7 1.326 . S
N8 C12 1.362 . S
C9 C10 1.258 . S
C9 C12 1.431 . S
C9 C29 1.449 . S
C10 C9 1.258 . S
C10 C11 1.477 . S
C10 H30 0.931 . S
C11 C7 1.460 . S
C11 C10 1.477 . S
C11 H31 0.930 . S
C12 N8 1.362 . S
C12 C9 1.431 . S
C12 C22 1.476 . S
H13 C7 0.929 . S
C14 O5 1.250 . S
C14 O6 1.258 1_554 S
O15 Mn0 2.162 1_655 S
O15 C3 1.281 1_655 S
O16 Mn0 2.297 . S
O16 C3 1.236 . S
N17 Mn1 2.282 . S
N17 C18 1.328 1_455 S
N17 C22 1.318 . S
C18 N17 1.328 1_655 S
C18 C19 1.457 . S
C18 H23 0.929 . S
C19 C18 1.457 . S
C19 C20 1.291 . S
C19 H32 0.931 . S
C20 C19 1.291 . S
C20 C21 1.373 1_655 S
C20 H33 0.929 . S
C21 C20 1.373 1_455 S
C21 C22 1.396 . S
C21 C28 1.403 . S
C22 C12 1.476 . S
C22 N17 1.318 . S
C22 C21 1.396 . S
H23 C18 0.929 . S
O24 Mn0 2.385 1_656 S
O24 C2 1.234 1_655 S
O25 Mn0 2.209 1_556 S
O25 Mn1 2.215 . S
O25 C2 1.283 . S
O26 Mn0 2.094 1_655 S
O26 C4 1.240 1_554 S
O27 Mn1 2.117 1_655 S
O27 C4 1.264 . S
C28 C21 1.403 . S
C28 C29 1.399 . S
C28 H34 0.929 . S
C29 C9 1.449 . S
C29 C28 1.399 . S
C29 H35 0.930 . S
H30 C10 0.931 . S
H31 C11 0.930 . S
H32 C19 0.931 . S
H33 C20 0.929 . S
H34 C28 0.929 . S
H35 C29 0.930 . S
Mn36 O41 2.095 1_545 S
Mn36 O51 2.162 . S
Mn36 O52 2.297 1_545 S
Mn36 O60 2.385 . S
Mn36 O61 2.209 1_545 S
Mn36 O62 2.094 . S
Mn37 O42 2.121 . S
Mn37 N44 2.257 . S
Mn37 N53 2.282 1_565 S
Mn37 O61 2.215 . S
Mn37 O63 2.117 1_565 S
C38 O60 1.234 . S
C38 O61 1.283 1_545 S
C39 O51 1.281 . S
C39 O52 1.236 1_545 S
C40 O62 1.240 . S
C40 O63 1.264 . S
O41 Mn36 2.095 1_565 S
O41 C50 1.250 . S
O42 Mn37 2.121 . S
O42 C50 1.258 . S
C43 N44 1.326 . S
C43 C47 1.460 . S
C43 H49 0.929 . S
N44 Mn37 2.257 . S
N44 C43 1.326 . S
N44 C48 1.362 . S
C45 C46 1.258 . S
C45 C48 1.431 . S
C45 C65 1.449 . S
C46 C45 1.258 . S
C46 C47 1.477 . S
C46 H66 0.931 . S
C47 C43 1.460 . S
C47 C46 1.477 . S
C47 H67 0.930 . S
C48 N44 1.362 . S
C48 C45 1.431 . S
C48 C58 1.476 . S
H49 C43 0.929 . S
C50 O41 1.250 . S
C50 O42 1.258 . S
O51 Mn36 2.162 . S
O51 C39 1.281 . S
O52 Mn36 2.297 1_565 S
O52 C39 1.236 1_565 S
N53 Mn37 2.282 1_545 S
N53 C54 1.328 . S
N53 C58 1.318 1_545 S
C54 N53 1.328 . S
C54 C55 1.457 . S
C54 H59 0.929 . S
C55 C54 1.457 . S
C55 C56 1.291 . S
C55 H68 0.931 . S
C56 C55 1.291 . S
C56 C57 1.388 . S
C56 H69 0.929 . S
C57 C56 1.388 . S
C57 C58 1.393 1_545 S
C57 C64 1.391 1_545 S
C58 C48 1.476 . S
C58 N53 1.318 1_565 S
C58 C57 1.393 1_565 S
H59 C54 0.929 . S
O60 Mn36 2.385 . S
O60 C38 1.234 . S
O61 Mn36 2.209 1_565 S
O61 Mn37 2.215 . S
O61 C38 1.283 1_565 S
O62 Mn36 2.094 . S
O62 C40 1.240 . S
O63 Mn37 2.117 1_545 S
O63 C40 1.264 . S
C64 C57 1.391 1_565 S
C64 C65 1.399 . S
C64 H70 0.929 . S
C65 C45 1.449 . S
C65 C64 1.399 . S
C65 H71 0.930 . S
H66 C46 0.931 . S
H67 C47 0.930 . S
H68 C55 0.931 . S
H69 C56 0.929 . S
H70 C64 0.929 . S
H71 C65 0.930 . S
Mn72 O77 2.095 . S
Mn72 O87 2.162 1_455 S
Mn72 O88 2.297 . S
Mn72 O96 2.385 1_455 S
Mn72 O97 2.209 . S
Mn72 O98 2.094 1_455 S
Mn73 O78 2.121 . S
Mn73 N80 2.257 . S
Mn73 N89 2.282 . S
Mn73 O97 2.215 . S
Mn73 O99 2.117 1_455 S
C74 O96 1.234 1_455 S
C74 O97 1.283 . S
C75 O87 1.281 1_455 S
C75 O88 1.236 . S
C76 O98 1.240 . S
C76 O99 1.264 . S
O77 Mn72 2.095 . S
O77 C86 1.250 . S
O78 Mn73 2.121 . S
O78 C86 1.258 . S
C79 N80 1.326 . S
C79 C83 1.460 . S
C79 H85 0.929 . S
N80 Mn73 2.257 . S
N80 C79 1.326 . S
N80 C84 1.362 . S
C81 C82 1.258 . S
C81 C84 1.431 . S
C81 C101 1.449 . S
C82 C81 1.258 . S
C82 C83 1.477 . S
C82 H102 0.931 . S
C83 C79 1.460 . S
C83 C82 1.477 . S
C83 H103 0.930 . S
C84 N80 1.362 . S
C84 C81 1.431 . S
C84 C94 1.476 . S
H85 C79 0.929 . S
C86 O77 1.250 . S
C86 O78 1.258 . S
O87 Mn72 2.162 1_655 S
O87 C75 1.281 1_655 S
O88 Mn72 2.297 . S
O88 C75 1.236 . S
N89 Mn73 2.282 . S
N89 C90 1.328 1_455 S
N89 C94 1.318 . S
C90 N89 1.328 1_655 S
C90 C91 1.457 . S
C90 H95 0.929 . S
C91 C90 1.457 . S
C91 C92 1.291 1_655 S
C91 H104 0.931 . S
C92 C91 1.291 1_455 S
C92 C93 1.373 . S
C92 H105 0.929 1_455 S
C93 C92 1.373 . S
C93 C94 1.396 . S
C93 C100 1.403 . S
C94 C84 1.476 . S
C94 N89 1.318 . S
C94 C93 1.396 . S
H95 C90 0.929 . S
O96 Mn72 2.385 1_655 S
O96 C74 1.234 1_655 S
O97 Mn72 2.209 . S
O97 Mn73 2.215 . S
O97 C74 1.283 . S
O98 Mn72 2.094 1_655 S
O98 C76 1.240 . S
O99 Mn73 2.117 1_655 S
O99 C76 1.264 . S
C100 C93 1.403 . S
C100 C101 1.399 . S
C100 H106 0.929 . S
C101 C81 1.449 . S
C101 C100 1.399 . S
C101 H107 0.930 . S
H102 C82 0.931 . S
H103 C83 0.930 . S
H104 C91 0.931 . S
H105 C92 0.929 1_655 S
H106 C100 0.929 . S
H107 C101 0.930 . S
Mn108 O113 2.095 1_545 S
Mn108 O123 2.162 . S
Mn108 O124 2.297 1_545 S
Mn108 O132 2.385 . S
Mn108 O133 2.209 1_545 S
Mn108 O134 2.094 . S
Mn109 O114 2.121 . S
Mn109 N116 2.257 . S
Mn109 N125 2.282 1_565 S
Mn109 O133 2.215 . S
Mn109 O135 2.117 1_565 S
C110 O132 1.234 . S
C110 O133 1.283 1_545 S
C111 O123 1.281 . S
C111 O124 1.236 1_545 S
C112 O134 1.240 . S
C112 O135 1.264 . S
O113 Mn108 2.095 1_565 S
O113 C122 1.250 . S
O114 Mn109 2.121 . S
O114 C122 1.258 . S
C115 N116 1.326 . S
C115 C119 1.460 . S
C115 H121 0.929 . S
N116 Mn109 2.257 . S
N116 C115 1.326 . S
N116 C120 1.362 . S
C117 C118 1.258 . S
C117 C120 1.431 . S
C117 C137 1.449 . S
C118 C117 1.258 . S
C118 C119 1.477 . S
C118 H138 0.931 . S
C119 C115 1.460 . S
C119 C118 1.477 . S
C119 H139 0.930 . S
C120 N116 1.362 . S
C120 C117 1.431 . S
C120 C130 1.476 . S
H121 C115 0.929 . S
C122 O113 1.250 . S
C122 O114 1.258 . S
O123 Mn108 2.162 . S
O123 C111 1.281 . S
O124 Mn108 2.297 1_565 S
O124 C111 1.236 1_565 S
N125 Mn109 2.282 1_545 S
N125 C126 1.328 . S
N125 C130 1.318 1_545 S
C126 N125 1.328 . S
C126 C127 1.457 . S
C126 H131 0.929 . S
C127 C126 1.457 . S
C127 C128 1.291 . S
C127 H140 0.931 . S
C128 C127 1.291 . S
C128 C129 1.373 1_545 S
C128 H141 0.929 . S
C129 C128 1.373 1_565 S
C129 C130 1.396 . S
C129 C136 1.403 . S
C130 C120 1.476 . S
C130 N125 1.318 1_565 S
C130 C129 1.396 . S
H131 C126 0.929 . S
O132 Mn108 2.385 . S
O132 C110 1.234 . S
O133 Mn108 2.209 1_565 S
O133 Mn109 2.215 . S
O133 C110 1.283 1_565 S
O134 Mn108 2.094 . S
O134 C112 1.240 . S
O135 Mn109 2.117 1_545 S
O135 C112 1.264 . S
C136 C129 1.403 . S
C136 C137 1.399 . S
C136 H142 0.929 . S
C137 C117 1.449 . S
C137 C136 1.399 . S
C137 H143 0.930 . S
H138 C118 0.931 . S
H139 C119 0.930 . S
H140 C127 0.931 . S
H141 C128 0.929 . S
H142 C136 0.929 . S
H143 C137 0.930 . S
H144 C152 0.930 . S
H145 C154 0.933 . S
H146 C156 0.930 . S
H147 C159 0.929 . S
H148 C162 0.930 . S
H149 C164 0.960 . S
H150 C164 0.960 . S
H151 C164 0.960 . S
C152 H144 0.930 . S
C152 C153 1.376 1_655 S
C152 C154 1.384 . S
C153 C152 1.376 1_455 S
C153 C159 1.390 . S
C154 H145 0.933 . S
C154 C152 1.384 . S
C154 C155 1.370 1_655 S
C155 C154 1.370 1_455 S
C155 C156 1.400 . S
C155 C160 1.490 . S
C156 H146 0.930 . S
C156 C155 1.400 . S
C156 C159 1.386 . S
H157 C173 0.930 . S
H158 C174 0.931 . S
C159 H147 0.929 . S
C159 C153 1.390 . S
C159 C156 1.386 . S
C160 C155 1.490 . S
C160 C162 1.395 . S
C160 C163 1.403 1_455 S
H161 C167 0.930 . S
C162 H148 0.930 . S
C162 C160 1.395 . S
C162 C165 1.403 . S
C163 C160 1.403 1_655 S
C163 C164 1.524 . S
C163 C167 1.400 . S
C164 H149 0.960 . S
C164 H150 0.960 . S
C164 H151 0.960 . S
C164 C163 1.524 . S
C165 C162 1.403 . S
C165 C166 1.392 . S
C165 C169 1.495 . S
C166 C165 1.392 . S
C166 C167 1.385 1_455 S
C166 C168 1.478 . S
C167 H161 0.930 . S
C167 C163 1.400 . S
C167 C166 1.385 1_655 S
C168 C166 1.478 . S
C168 C170 1.382 . S
C168 C174 1.383 . S
C169 C165 1.495 . S
C169 H175 0.959 . S
C169 H176 0.961 . S
C169 H177 0.960 . S
C170 C168 1.382 . S
C170 C171 1.394 1_455 S
C170 H178 0.929 1_455 S
C171 C170 1.394 1_655 S
C171 C172 1.383 1_655 S
C171 H179 0.929 . S
C172 C171 1.383 1_455 S
C172 C173 1.377 . S
C173 H157 0.930 . S
C173 C172 1.377 . S
C173 C174 1.379 . S
C174 H158 0.931 . S
C174 C168 1.383 . S
C174 C173 1.379 . S
H175 C169 0.959 . S
H176 C169 0.961 . S
H177 C169 0.960 . S
H178 C170 0.929 1_655 S
H179 C171 0.929 . S
H180 C188 0.929 . S
H181 C190 0.930 . S
H182 C192 0.930 . S
H183 C195 0.929 . S
H184 C198 0.930 . S
H185 C200 0.960 . S
H186 C200 0.960 . S
H187 C200 0.960 . S
C188 H180 0.929 . S
C188 C189 1.377 . S
C188 C190 1.384 . S
C189 C188 1.377 . S
C189 C195 1.390 1_545 S
C190 H181 0.930 . S
C190 C188 1.384 . S
C190 C191 1.372 . S
C191 C190 1.372 . S
C191 C192 1.400 1_545 S
C191 C196 1.490 . S
C192 H182 0.930 . S
C192 C191 1.400 1_565 S
C192 C195 1.386 . S
H193 C209 0.930 . S
H194 C210 0.931 . S
C195 H183 0.929 . S
C195 C189 1.390 1_565 S
C195 C192 1.386 . S
C196 C191 1.490 . S
C196 C198 1.395 . S
C196 C199 1.403 1_545 S
H197 C203 0.930 . S
C198 H184 0.930 . S
C198 C196 1.395 . S
C198 C201 1.403 . S
C199 C196 1.403 1_565 S
C199 C200 1.524 . S
C199 C203 1.400 . S
C200 H185 0.960 . S
C200 H186 0.960 . S
C200 H187 0.960 . S
C200 C199 1.524 . S
C201 C198 1.403 . S
C201 C202 1.392 . S
C201 C205 1.495 . S
C202 C201 1.392 . S
C202 C203 1.385 1_545 S
C202 C204 1.478 . S
C203 H197 0.930 . S
C203 C199 1.400 . S
C203 C202 1.385 1_565 S
C204 C202 1.478 . S
C204 C206 1.381 . S
C204 C210 1.383 1_545 S
C205 C201 1.495 . S
C205 H211 0.959 . S
C205 H212 0.961 . S
C205 H213 0.960 . S
C206 C204 1.381 . S
C206 C207 1.394 . S
C206 H214 0.930 . S
C207 C206 1.394 . S
C207 C208 1.383 . S
C207 H215 0.929 . S
C208 C207 1.383 . S
C208 C209 1.377 1_545 S
C209 H193 0.930 . S
C209 C208 1.377 1_565 S
C209 C210 1.379 . S
C210 H194 0.931 . S
C210 C204 1.383 1_565 S
C210 C209 1.379 . S
H211 C205 0.959 . S
H212 C205 0.961 . S
H213 C205 0.960 . S
H214 C206 0.930 . S
H215 C207 0.929 . S
H216 C224 0.929 . S
H217 C226 0.930 . S
H218 C228 0.930 . S
H219 C231 0.929 . S
H220 C234 0.930 . S
H221 C236 0.960 . S
H222 C236 0.960 . S
H223 C236 0.960 . S
C224 H216 0.929 . S
C224 C225 1.377 . S
C224 C226 1.384 . S
C225 C224 1.377 . S
C225 C231 1.390 1_455 S
C226 H217 0.930 . S
C226 C224 1.384 . S
C226 C227 1.372 . S
C227 C226 1.372 . S
C227 C228 1.400 1_455 S
C227 C232 1.490 . S
C228 H218 0.930 . S
C228 C227 1.400 1_655 S
C228 C231 1.386 . S
H229 C245 0.930 . S
H230 C246 0.931 . S
C231 H219 0.929 . S
C231 C225 1.390 1_655 S
C231 C228 1.386 . S
C232 C227 1.490 . S
C232 C234 1.395 . S
C232 C235 1.418 . S
H233 C239 0.930 1_655 S
C234 H220 0.930 . S
C234 C232 1.395 . S
C234 C237 1.403 . S
C235 C232 1.418 . S
C235 C236 1.507 1_455 S
C235 C239 1.403 . S
C236 H221 0.960 . S
C236 H222 0.960 . S
C236 H223 0.960 . S
C236 C235 1.507 1_655 S
C237 C234 1.403 . S
C237 C238 1.392 . S
C237 C241 1.495 . S
C238 C237 1.392 . S
C238 C239 1.385 . S
C238 C240 1.478 . S
C239 H233 0.930 1_455 S
C239 C235 1.403 . S
C239 C238 1.385 . S
C240 C238 1.478 . S
C240 C242 1.381 . S
C240 C246 1.383 1_455 S
C241 C237 1.495 . S
C241 H247 0.959 . S
C241 H248 0.961 . S
C241 H249 0.960 . S
C242 C240 1.381 . S
C242 C243 1.394 . S
C242 H250 0.930 . S
C243 C242 1.394 . S
C243 C244 1.383 . S
C243 H251 0.929 . S
C244 C243 1.383 . S
C244 C245 1.377 1_455 S
C245 H229 0.930 . S
C245 C244 1.377 1_655 S
C245 C246 1.379 . S
C246 H230 0.931 . S
C246 C240 1.383 1_655 S
C246 C245 1.379 . S
H247 C241 0.959 . S
H248 C241 0.961 . S
H249 C241 0.960 . S
H250 C242 0.930 . S
H251 C243 0.929 . S
H252 C260 0.929 . S
H253 C262 0.930 . S
H254 C264 0.930 . S
H255 C267 0.929 . S
H256 C270 0.930 . S
H257 C272 0.960 . S
H258 C272 0.960 1_565 S
H259 C272 0.960 . S
C260 H252 0.929 . S
C260 C261 1.377 1_565 S
C260 C262 1.384 . S
C261 C260 1.377 1_545 S
C261 C267 1.390 . S
C262 H253 0.930 . S
C262 C260 1.384 . S
C262 C263 1.372 1_565 S
C263 C262 1.372 1_545 S
C263 C264 1.400 . S
C263 C268 1.490 . S
C264 H254 0.930 . S
C264 C263 1.400 . S
C264 C267 1.386 . S
H265 C281 0.930 . S
H266 C282 0.931 . S
C267 H255 0.929 . S
C267 C261 1.390 . S
C267 C264 1.386 . S
C268 C263 1.490 . S
C268 C270 1.392 1_554 S
C268 C271 1.403 . S
H269 C275 0.930 . S
C270 H256 0.930 . S
C270 C268 1.392 1_556 S
C270 C273 1.406 . S
C271 C268 1.403 . S
C271 C272 1.524 . S
C271 C275 1.400 . S
C272 H257 0.960 . S
C272 H258 0.960 1_545 S
C272 H259 0.960 . S
C272 C271 1.524 . S
C273 C270 1.406 . S
C273 C274 1.392 . S
C273 C277 1.495 . S
C274 C273 1.392 . S
C274 C275 1.385 1_556 S
C274 C276 1.478 . S
C275 H269 0.930 . S
C275 C271 1.400 . S
C275 C274 1.385 1_554 S
C276 C274 1.478 . S
C276 C278 1.381 1_545 S
C276 C282 1.383 . S
C277 C273 1.495 . S
C277 H283 0.959 . S
C277 H284 0.961 . S
C277 H285 0.960 . S
C278 C276 1.381 1_565 S
C278 C279 1.394 . S
C278 H286 0.930 . S
C279 C278 1.394 . S
C279 C280 1.383 1_565 S
C279 H287 0.929 . S
C280 C279 1.383 1_545 S
C280 C281 1.377 . S
C281 H265 0.930 . S
C281 C280 1.377 . S
C281 C282 1.379 . S
C282 H266 0.931 . S
C282 C276 1.383 . S
C282 C281 1.379 . S
H283 C277 0.959 . S
H284 C277 0.961 . S
H285 C277 0.960 . S
H286 C278 0.930 . S
H287 C279 0.929 . S
H288 C296 0.929 . S
H289 C298 0.930 . S
H290 C300 0.930 . S
H291 C303 0.929 . S
H292 C306 0.930 . S
H293 C308 0.960 . S
H294 C308 0.960 . S
H295 C308 0.960 . S
C296 H288 0.929 . S
C296 C297 1.377 . S
C296 C298 1.384 . S
C297 C296 1.377 . S
C297 C303 1.390 . S
C298 H289 0.930 . S
C298 C296 1.384 . S
C298 C299 1.372 . S
C299 C298 1.372 . S
C299 C300 1.400 . S
C299 C304 1.490 . S
C300 H290 0.930 . S
C300 C299 1.400 . S
C300 C303 1.386 . S
H301 C317 0.930 . S
H302 C318 0.931 . S
C303 H291 0.929 . S
C303 C297 1.390 . S
C303 C300 1.386 . S
C304 C299 1.490 . S
C304 C306 1.395 . S
C304 C307 1.403 . S
H305 C311 0.930 . S
C306 H292 0.930 . S
C306 C304 1.395 . S
C306 C309 1.403 . S
C307 C304 1.403 . S
C307 C308 1.524 . S
C307 C311 1.400 . S
C308 H293 0.960 . S
C308 H294 0.960 . S
C308 H295 0.960 . S
C308 C307 1.524 . S
C309 C306 1.403 . S
C309 C310 1.392 . S
C309 C313 1.495 . S
C310 C309 1.392 . S
C310 C311 1.385 . S
C310 C312 1.478 . S
C311 H305 0.930 . S
C311 C307 1.400 . S
C311 C310 1.385 . S
C312 C310 1.478 . S
C312 C314 1.381 . S
C312 C318 1.383 . S
C313 C309 1.495 . S
C313 H319 0.959 . S
C313 H320 0.961 . S
C313 H321 0.960 . S
C314 C312 1.381 . S
C314 C315 1.394 . S
C314 H322 0.930 . S
C315 C314 1.394 . S
C315 C316 1.383 . S
C315 H323 0.929 1_554 S
C316 C315 1.383 . S
C316 C317 1.377 . S
C317 H301 0.930 . S
C317 C316 1.377 . S
C317 C318 1.379 . S
C318 H302 0.931 . S
C318 C312 1.383 . S
C318 C317 1.379 . S
H319 C313 0.959 . S
H320 C313 0.961 . S
H321 C313 0.960 . S
H322 C314 0.930 . S
H323 C315 0.929 1_556 S
H324 C332 0.929 . S
H325 C334 0.930 . S
H326 C336 0.930 . S
H327 C339 0.929 . S
H328 C342 0.930 . S
H329 C344 0.960 . S
H330 C344 0.960 . S
H331 C344 0.960 . S
C332 H324 0.929 . S
C332 C333 1.377 . S
C332 C334 1.384 . S
C333 C332 1.377 . S
C333 C339 1.390 . S
C334 H325 0.930 . S
C334 C332 1.384 . S
C334 C335 1.372 . S
C335 C334 1.372 . S
C335 C336 1.400 . S
C335 C340 1.490 . S
C336 H326 0.930 . S
C336 C335 1.400 . S
C336 C339 1.386 . S
H337 C353 0.930 . S
H338 C354 0.931 . S
C339 H327 0.929 . S
C339 C333 1.390 . S
C339 C336 1.386 . S
C340 C335 1.490 . S
C340 C342 1.395 . S
C340 C343 1.403 . S
H341 C347 0.930 . S
C342 H328 0.930 . S
C342 C340 1.395 . S
C342 C345 1.403 . S
C343 C340 1.403 . S
C343 C344 1.524 . S
C343 C347 1.400 . S
C344 H329 0.960 . S
C344 H330 0.960 . S
C344 H331 0.960 . S
C344 C343 1.524 . S
C345 C342 1.403 . S
C345 C346 1.392 . S
C345 C349 1.495 . S
C346 C345 1.392 . S
C346 C347 1.385 . S
C346 C348 1.478 . S
C347 H341 0.930 . S
C347 C343 1.400 . S
C347 C346 1.385 . S
C348 C346 1.478 . S
C348 C350 1.381 . S
C348 C354 1.383 . S
C349 C345 1.495 . S
C349 H355 0.959 . S
C349 H356 0.961 . S
C349 H357 0.960 . S
C350 C348 1.381 . S
C350 C351 1.394 . S
C350 H358 0.930 . S
C351 C350 1.394 . S
C351 C352 1.383 . S
C351 H359 0.929 . S
C352 C351 1.383 . S
C352 C353 1.377 . S
C353 H337 0.930 . S
C353 C352 1.377 . S
C353 C354 1.379 . S
C354 H338 0.931 . S
C354 C348 1.383 . S
C354 C353 1.379 . S
H355 C349 0.959 . S
H356 C349 0.961 . S
H357 C349 0.960 . S
H358 C350 0.930 . S
H359 C351 0.929 . S
H360 C368 0.929 . S
H361 C370 0.930 . S
H362 C372 0.930 . S
H363 C375 0.929 . S
H364 C378 0.930 . S
H365 C380 0.960 . S
H366 C380 0.960 . S
H367 C380 0.960 . S
C368 H360 0.929 . S
C368 C369 1.377 . S
C368 C370 1.384 . S
C369 C368 1.377 . S
C369 C375 1.390 . S
C370 H361 0.930 . S
C370 C368 1.384 . S
C370 C371 1.372 . S
C371 C370 1.372 . S
C371 C372 1.400 . S
C371 C376 1.490 . S
C372 H362 0.930 . S
C372 C371 1.400 . S
C372 C375 1.386 . S
H373 C389 0.930 . S
H374 C390 0.931 . S
C375 H363 0.929 . S
C375 C369 1.390 . S
C375 C372 1.386 . S
C376 C371 1.490 . S
C376 C378 1.395 . S
C376 C379 1.403 . S
H377 C383 0.930 . S
C378 H364 0.930 . S
C378 C376 1.395 . S
C378 C381 1.403 . S
C379 C376 1.403 . S
C379 C380 1.524 . S
C379 C383 1.400 . S
C380 H365 0.960 . S
C380 H366 0.960 . S
C380 H367 0.960 . S
C380 C379 1.524 . S
C381 C378 1.403 . S
C381 C382 1.392 . S
C381 C385 1.495 . S
C382 C381 1.392 . S
C382 C383 1.385 . S
C382 C384 1.478 . S
C383 H377 0.930 . S
C383 C379 1.400 . S
C383 C382 1.385 . S
C384 C382 1.478 . S
C384 C386 1.381 . S
C384 C390 1.383 . S
C385 C381 1.495 . S
C385 H391 0.959 . S
C385 H392 0.961 . S
C385 H393 0.960 . S
C386 C384 1.381 . S
C386 C387 1.394 . S
C386 H394 0.930 . S
C387 C386 1.394 . S
C387 C388 1.383 . S
C387 H395 0.929 . S
C388 C387 1.383 . S
C388 C389 1.377 . S
C389 H373 0.930 . S
C389 C388 1.377 . S
C389 C390 1.379 . S
C390 H374 0.931 . S
C390 C384 1.383 . S
C390 C389 1.379 . S
H391 C385 0.959 . S
H392 C385 0.961 . S
H393 C385 0.960 . S
H394 C386 0.930 . S
H395 C387 0.929 . S
H396 C404 0.929 . S
H397 C406 0.930 . S
H398 C408 0.930 . S
H399 C411 0.929 . S
H400 C414 0.930 . S
H401 C416 0.960 . S
H402 C416 0.960 . S
H403 C416 0.960 . S
C404 H396 0.929 . S
C404 C405 1.377 . S
C404 C406 1.384 . S
C405 C404 1.377 . S
C405 C411 1.390 . S
C406 H397 0.930 . S
C406 C404 1.384 . S
C406 C407 1.372 . S
C407 C406 1.372 . S
C407 C408 1.400 . S
C407 C412 1.490 . S
C408 H398 0.930 . S
C408 C407 1.400 . S
C408 C411 1.386 . S
H409 C425 0.930 . S
H410 C426 0.931 . S
C411 H399 0.929 . S
C411 C405 1.390 . S
C411 C408 1.386 . S
C412 C407 1.490 . S
C412 C414 1.395 . S
C412 C415 1.403 . S
H413 C419 0.930 . S
C414 H400 0.930 . S
C414 C412 1.395 . S
C414 C417 1.403 . S
C415 C412 1.403 . S
C415 C416 1.524 . S
C415 C419 1.400 . S
C416 H401 0.960 . S
C416 H402 0.960 . S
C416 H403 0.960 . S
C416 C415 1.524 . S
C417 C414 1.403 . S
C417 C418 1.392 . S
C417 C421 1.495 . S
C418 C417 1.392 . S
C418 C419 1.385 . S
C418 C420 1.478 . S
C419 H413 0.930 . S
C419 C415 1.400 . S
C419 C418 1.385 . S
C420 C418 1.478 . S
C420 C422 1.381 . S
C420 C426 1.383 . S
C421 C417 1.495 . S
C421 H427 0.959 . S
C421 H428 0.961 . S
C421 H429 0.960 . S
C422 C420 1.381 . S
C422 C423 1.394 . S
C422 H430 0.930 . S
C423 C422 1.394 . S
C423 C424 1.383 . S
C423 H431 0.929 1_556 S
C424 C423 1.383 . S
C424 C425 1.377 . S
C425 H409 0.930 . S
C425 C424 1.377 . S
C425 C426 1.379 . S
C426 H410 0.931 . S
C426 C420 1.383 . S
C426 C425 1.379 . S
H427 C421 0.959 . S
H428 C421 0.961 . S
H429 C421 0.960 . S
H430 C422 0.930 . S
H431 C423 0.929 1_554 S
C153 C3 1.321 . S
C172 C75 1.313 . S
C189 C38 1.250 . S
C208 C110 1.230 . S
C225 C2 1.255 . S
C244 C74 1.266 . S
C261 C39 1.321 . S
C280 C111 1.321 . S
C297 C50 1.403 . S
C316 C14 1.412 . S
C333 C40 1.465 . S
C352 C86 1.426 . S
C369 C112 1.491 . S
C388 C76 1.503 . S
C405 C122 1.442 . S
C424 C4 1.462 . S
