# Generated by pormake.
# Topology fnw, (5)-cn, num edge types: 1
# Building blocks:
#     Node 0, Type 0, BuildingBlock: XOMCOT_clean_sbu_0, # of connection points: 5
#     Node 1, Type 0, BuildingBlock: XOMCOT_clean_sbu_0, # of connection points: 5
#     Node 2, Type 0, BuildingBlock: XOMCOT_clean_sbu_0, # of connection points: 5
#     Node 3, Type 0, BuildingBlock: XOMCOT_clean_sbu_0, # of connection points: 5
#     Node 4, Type 0, BuildingBlock: XOMCOT_clean_sbu_0, # of connection points: 5
#     Node 5, Type 0, BuildingBlock: XOMCOT_clean_sbu_0, # of connection points: 5
#     Node 6, Type 0, BuildingBlock: XOMCOT_clean_sbu_0, # of connection points: 5
#     Node 7, Type 0, BuildingBlock: XOMCOT_clean_sbu_0, # of connection points: 5
#     Node 8, Type 0, BuildingBlock: XOMCOT_clean_sbu_0, # of connection points: 5
#     Node 9, Type 0, BuildingBlock: XOMCOT_clean_sbu_0, # of connection points: 5
#     Node 10, Type 0, BuildingBlock: XOMCOT_clean_sbu_0, # of connection points: 5
#     Node 11, Type 0, BuildingBlock: XOMCOT_clean_sbu_0, # of connection points: 5
#     Edge 12, Type (0, 0), BuildingBlock: KIFKEQ_clean_linker_1, # of connection points: 2
#     Edge 13, Type (0, 0), BuildingBlock: KIFKEQ_clean_linker_1, # of connection points: 2
#     Edge 14, Type (0, 0), BuildingBlock: KIFKEQ_clean_linker_1, # of connection points: 2
#     Edge 15, Type (0, 0), BuildingBlock: KIFKEQ_clean_linker_1, # of connection points: 2
#     Edge 16, Type (0, 0), BuildingBlock: KIFKEQ_clean_linker_1, # of connection points: 2
#     Edge 17, Type (0, 0), BuildingBlock: KIFKEQ_clean_linker_1, # of connection points: 2
#     Edge 18, Type (0, 0), BuildingBlock: KIFKEQ_clean_linker_1, # of connection points: 2
#     Edge 19, Type (0, 0), BuildingBlock: KIFKEQ_clean_linker_1, # of connection points: 2
#     Edge 20, Type (0, 0), BuildingBlock: KIFKEQ_clean_linker_1, # of connection points: 2
#     Edge 21, Type (0, 0), BuildingBlock: KIFKEQ_clean_linker_1, # of connection points: 2
#     Edge 22, Type (0, 0), BuildingBlock: KIFKEQ_clean_linker_1, # of connection points: 2
#     Edge 23, Type (0, 0), BuildingBlock: KIFKEQ_clean_linker_1, # of connection points: 2
#     Edge 24, Type (0, 0), BuildingBlock: KIFKEQ_clean_linker_1, # of connection points: 2
#     Edge 25, Type (0, 0), BuildingBlock: KIFKEQ_clean_linker_1, # of connection points: 2
#     Edge 26, Type (0, 0), BuildingBlock: KIFKEQ_clean_linker_1, # of connection points: 2
#     Edge 27, Type (0, 0), BuildingBlock: KIFKEQ_clean_linker_1, # of connection points: 2
#     Edge 28, Type (0, 0), BuildingBlock: KIFKEQ_clean_linker_1, # of connection points: 2
#     Edge 29, Type (0, 0), BuildingBlock: KIFKEQ_clean_linker_1, # of connection points: 2
#     Edge 30, Type (0, 0), BuildingBlock: KIFKEQ_clean_linker_1, # of connection points: 2
#     Edge 31, Type (0, 0), BuildingBlock: KIFKEQ_clean_linker_1, # of connection points: 2
#     Edge 32, Type (0, 0), BuildingBlock: KIFKEQ_clean_linker_1, # of connection points: 2
#     Edge 33, Type (0, 0), BuildingBlock: KIFKEQ_clean_linker_1, # of connection points: 2
#     Edge 34, Type (0, 0), BuildingBlock: KIFKEQ_clean_linker_1, # of connection points: 2
#     Edge 35, Type (0, 0), BuildingBlock: KIFKEQ_clean_linker_1, # of connection points: 2
#     Edge 36, Type (0, 0), BuildingBlock: KIFKEQ_clean_linker_1, # of connection points: 2
#     Edge 37, Type (0, 0), BuildingBlock: KIFKEQ_clean_linker_1, # of connection points: 2
#     Edge 38, Type (0, 0), BuildingBlock: KIFKEQ_clean_linker_1, # of connection points: 2
#     Edge 39, Type (0, 0), BuildingBlock: KIFKEQ_clean_linker_1, # of connection points: 2
#     Edge 40, Type (0, 0), BuildingBlock: KIFKEQ_clean_linker_1, # of connection points: 2
#     Edge 41, Type (0, 0), BuildingBlock: KIFKEQ_clean_linker_1, # of connection points: 2
# Relax obj value: 0.263
# Max RMSD: 0.156
# Mean RMSD: 0.156
data_MOF--net-fnw--node1-XOMCOT_clean_sbu_0--edge1-KIFKEQ_clean_linker_1
_symmetry_space_group_name_H-M    P1
_symmetry_Int_Tables_number       1
_symmetry_cell_setting            triclinic
loop_
_symmetry_equiv_pos_as_xyz
'x, y, z'
_cell_length_a     52.177388
_cell_length_b     52.180439
_cell_length_c     32.035995
_cell_angle_alpha  90.01667
_cell_angle_beta   89.99443
_cell_angle_gamma 119.99963
loop_
_atom_site_label
_atom_site_type_symbol
_atom_site_fract_x
_atom_site_fract_y
_atom_site_fract_z
_atom_type_partial_charge
Co0 Co 0.2741 0.46479 0.28792 0.0
C1 C 0.29972 0.42535 0.27636 0.0
C2 C 0.32991 0.4671 0.30479 0.0
C3 C 0.34452 0.45168 0.29847 0.0
N4 N 0.30202 0.45082 0.29052 0.0
N5 N 0.32559 0.42554 0.28058 0.0
H6 H 0.28021 0.40786 0.26133 0.0
H7 H 0.33926 0.48916 0.31763 0.0
C8 C 0.30907 0.51961 0.2331 0.0
O9 O 0.2864 0.51334 0.20876 0.0
N10 N 0.24632 0.47962 0.28653 0.0
C11 C 0.21662 0.46358 0.29022 0.0
C12 C 0.20501 0.48195 0.28622 0.0
C13 C 0.2523 0.50794 0.28336 0.0
N14 N 0.22745 0.50997 0.28138 0.0
C15 C 0.23173 0.42565 0.22731 0.0
C16 C 0.26992 0.4443 0.16 0.0
C17 C 0.23951 0.42616 0.15288 0.0
C18 C 0.22044 0.41592 0.18727 0.0
C19 C 0.28014 0.45396 0.20056 0.0
N20 N 0.26075 0.4464 0.23314 0.0
H21 H 0.21697 0.41672 0.25349 0.0
H22 H 0.3036 0.46819 0.20551 0.0
H23 H 0.20391 0.44014 0.29636 0.0
H24 H 0.27436 0.52683 0.2836 0.0
O25 O 0.24725 0.43253 0.32441 0.0
O26 O 0.2827 0.47685 0.34496 0.0
O27 O 0.30668 0.50269 0.2634 0.0
C28 C 0.26158 0.45061 0.35501 0.0
H29 H 0.36755 0.45937 0.30541 0.0
H30 H 0.18168 0.47486 0.28654 0.0
H31 H 0.28549 0.45202 0.1343 0.0
H32 H 0.19697 0.40079 0.18317 0.0
Co33 Co 0.81165 0.27474 0.79143 0.0
C34 C 0.87629 0.29993 0.7759 0.0
C35 C 0.86597 0.32968 0.8085 0.0
C36 C 0.8958 0.3442 0.80052 0.0
N37 N 0.85369 0.30215 0.7926 0.0
N38 N 0.90221 0.32556 0.78002 0.0
H39 H 0.87364 0.2807 0.75922 0.0
H40 H 0.85384 0.33885 0.8237 0.0
C41 C 0.79304 0.31302 0.74217 0.0
O42 O 0.77766 0.29203 0.7149 0.0
N43 N 0.76882 0.24734 0.79176 0.0
C44 C 0.75499 0.2178 0.7981 0.0
C45 C 0.72496 0.20619 0.79472 0.0
C46 C 0.74651 0.25328 0.7873 0.0
N47 N 0.71961 0.2285 0.78735 0.0
C48 C 0.80357 0.23408 0.7255 0.0
C49 C 0.82637 0.27524 0.66185 0.0
C50 C 0.81172 0.24504 0.65185 0.0
C51 C 0.80119 0.22439 0.68438 0.0
C52 C 0.82784 0.28394 0.70354 0.0
N53 N 0.81467 0.26331 0.73442 0.0
H54 H 0.79605 0.21791 0.75007 0.0
H55 H 0.83867 0.30728 0.7108 0.0
H56 H 0.76576 0.2052 0.80503 0.0
H57 H 0.74954 0.27516 0.78451 0.0
O58 O 0.81758 0.24609 0.82224 0.0
O59 O 0.81011 0.28077 0.85027 0.0
O60 O 0.80629 0.30859 0.77241 0.0
C61 C 0.81468 0.25869 0.85566 0.0
H62 H 0.91153 0.36699 0.80824 0.0
H63 H 0.70837 0.18306 0.79778 0.0
H64 H 0.83542 0.29191 0.6376 0.0
H65 H 0.79086 0.2009 0.67801 0.0
Co66 Co 0.53644 0.80752 0.29396 0.0
C67 C 0.5771 0.87299 0.29073 0.0
C68 C 0.53512 0.86021 0.31934 0.0
C69 C 0.552 0.89046 0.32028 0.0
N70 N 0.55074 0.84926 0.30078 0.0
N71 N 0.57837 0.89854 0.30234 0.0
H72 H 0.59484 0.87158 0.2754 0.0
H73 H 0.51291 0.84701 0.33141 0.0
C74 C 0.48309 0.79282 0.23803 0.0
O75 O 0.49034 0.77949 0.20946 0.0
N76 N 0.52115 0.76495 0.2887 0.0
C77 C 0.53625 0.75049 0.29505 0.0
C78 C 0.51776 0.72076 0.28821 0.0
C79 C 0.49312 0.74325 0.28065 0.0
N80 N 0.49066 0.71625 0.27875 0.0
C81 C 0.57314 0.80367 0.22992 0.0
C82 C 0.55906 0.83157 0.16838 0.0
C83 C 0.57429 0.81673 0.15705 0.0
C84 C 0.58238 0.80374 0.189 0.0
C85 C 0.54975 0.8304 0.20961 0.0
N86 N 0.55502 0.81472 0.23913 0.0
H87 H 0.57998 0.79399 0.25394 0.0
H88 H 0.53728 0.84117 0.21744 0.0
H89 H 0.5591 0.76059 0.30473 0.0
H90 H 0.47462 0.74677 0.27696 0.0
O91 O 0.56851 0.81132 0.32947 0.0
O92 O 0.52409 0.80173 0.3509 0.0
O93 O 0.49892 0.80374 0.27066 0.0
C94 C 0.55036 0.80668 0.36036 0.0
H95 H 0.54504 0.90542 0.33225 0.0
H96 H 0.52376 0.70374 0.29081 0.0
H97 H 0.5536 0.84333 0.14548 0.0
H98 H 0.59465 0.79252 0.18251 0.0
Co99 Co 0.72726 0.5375 0.79568 0.0
C100 C 0.70166 0.57645 0.77899 0.0
C101 C 0.67178 0.5362 0.81111 0.0
C102 C 0.65718 0.55137 0.8028 0.0
N103 N 0.69944 0.55164 0.7957 0.0
N104 N 0.6759 0.57654 0.78261 0.0
H105 H 0.72102 0.59319 0.76277 0.0
H106 H 0.66261 0.51493 0.82636 0.0
C107 C 0.68764 0.47934 0.74881 0.0
O108 O 0.7069 0.48505 0.71874 0.0
N109 N 0.75509 0.52258 0.79711 0.0
C110 C 0.7844 0.53837 0.80539 0.0
C111 C 0.79645 0.52032 0.80189 0.0
C112 C 0.74972 0.49467 0.79092 0.0
N113 N 0.77463 0.49283 0.79235 0.0
C114 C 0.76744 0.56779 0.7285 0.0
C115 C 0.72569 0.54967 0.66567 0.0
C116 C 0.7558 0.56435 0.65505 0.0
C117 C 0.77677 0.57434 0.68715 0.0
C118 C 0.71733 0.5432 0.7076 0.0
N119 N 0.73819 0.55056 0.73811 0.0
H120 H 0.7839 0.57627 0.75273 0.0
H121 H 0.69405 0.53121 0.71536 0.0
H122 H 0.79658 0.56163 0.81318 0.0
H123 H 0.72819 0.47582 0.78586 0.0
O124 O 0.75585 0.57307 0.82477 0.0
O125 O 0.72179 0.53147 0.85478 0.0
O126 O 0.69358 0.49747 0.77897 0.0
C127 C 0.74363 0.55838 0.8589 0.0
H128 H 0.63432 0.54421 0.81019 0.0
H129 H 0.81953 0.527 0.80622 0.0
H130 H 0.70878 0.54211 0.64175 0.0
H131 H 0.80023 0.58684 0.68031 0.0
Co132 Co 0.19363 0.73174 0.28375 0.0
C133 C 0.1284 0.70561 0.28313 0.0
C134 C 0.14217 0.67957 0.31835 0.0
C135 C 0.11176 0.66552 0.31887 0.0
N136 N 0.15253 0.70461 0.2959 0.0
N137 N 0.10312 0.68184 0.29659 0.0
H138 H 0.12929 0.72315 0.2641 0.0
H139 H 0.1558 0.67176 0.3326 0.0
C140 C 0.21113 0.69245 0.23404 0.0
O141 O 0.22716 0.71304 0.20663 0.0
N142 N 0.23524 0.75906 0.27227 0.0
C143 C 0.24786 0.78812 0.26321 0.0
C144 C 0.2776 0.79948 0.2569 0.0
C145 C 0.258 0.75364 0.27357 0.0
N146 N 0.284 0.77774 0.26307 0.0
C147 C 0.18525 0.76783 0.22407 0.0
C148 C 0.17357 0.73093 0.15629 0.0
C149 C 0.18136 0.76049 0.1494 0.0
C150 C 0.18557 0.77853 0.18404 0.0
C151 C 0.17392 0.72132 0.19697 0.0
N152 N 0.18267 0.74072 0.22966 0.0
H153 H 0.18884 0.78211 0.25043 0.0
H154 H 0.16819 0.69863 0.20168 0.0
H155 H 0.23674 0.80079 0.26206 0.0
H156 H 0.25565 0.73258 0.28245 0.0
O157 O 0.19212 0.7615 0.31911 0.0
O158 O 0.20396 0.72819 0.33979 0.0
O159 O 0.19659 0.69708 0.26217 0.0
C160 C 0.20016 0.75021 0.34924 0.0
H161 H 0.09715 0.64431 0.33313 0.0
H162 H 0.29317 0.82202 0.24794 0.0
H163 H 0.16909 0.71591 0.1304 0.0
H164 H 0.19029 0.8011 0.18012 0.0
Co165 Co 0.46199 0.18696 0.78339 0.0
C166 C 0.4244 0.12219 0.76783 0.0
C167 C 0.46449 0.13371 0.80125 0.0
C168 C 0.44992 0.10385 0.79351 0.0
N169 N 0.44871 0.14524 0.78479 0.0
N170 N 0.42484 0.09668 0.77251 0.0
H171 H 0.40756 0.12422 0.75085 0.0
H172 H 0.48558 0.14636 0.81682 0.0
C173 C 0.52101 0.21006 0.73796 0.0
O174 O 0.51585 0.22686 0.71278 0.0
N175 N 0.47599 0.22937 0.78326 0.0
C176 C 0.45939 0.24259 0.78254 0.0
C177 C 0.47769 0.27275 0.78171 0.0
C178 C 0.50419 0.252 0.78577 0.0
N179 N 0.50594 0.27868 0.78321 0.0
C180 C 0.42628 0.18992 0.71737 0.0
C181 C 0.45214 0.17583 0.65285 0.0
C182 C 0.43325 0.18689 0.64335 0.0
C183 C 0.41924 0.19271 0.67624 0.0
C184 C 0.45881 0.17372 0.69461 0.0
N185 N 0.44783 0.18319 0.72604 0.0
H186 H 0.41466 0.19365 0.74219 0.0
H187 H 0.4735 0.1653 0.70148 0.0
H188 H 0.43557 0.23144 0.78344 0.0
H189 H 0.52315 0.2492 0.79022 0.0
O190 O 0.42686 0.18013 0.81369 0.0
O191 O 0.46927 0.18898 0.84233 0.0
O192 O 0.50199 0.19388 0.76537 0.0
C193 C 0.44235 0.18365 0.84733 0.0
H194 H 0.45741 0.08858 0.80198 0.0
H195 H 0.4706 0.28896 0.77942 0.0
H196 H 0.4627 0.17013 0.62833 0.0
H197 H 0.4033 0.19981 0.67022 0.0
Co198 Co 0.53835 0.73775 0.72445 0.0
C199 C 0.57862 0.71278 0.71774 0.0
C200 C 0.53857 0.68854 0.68226 0.0
C201 C 0.55519 0.67504 0.67744 0.0
N202 N 0.55322 0.71216 0.7074 0.0
N203 N 0.58034 0.69021 0.69977 0.0
H204 H 0.5953 0.7291 0.73818 0.0
H205 H 0.51693 0.68127 0.66903 0.0
C206 C 0.48384 0.697 0.77562 0.0
O207 O 0.48972 0.71733 0.80412 0.0
N208 N 0.52242 0.76303 0.74053 0.0
C209 C 0.53657 0.79062 0.75674 0.0
C210 C 0.5163 0.79963 0.7641 0.0
C211 C 0.49399 0.75641 0.73628 0.0
N212 N 0.48953 0.77801 0.75145 0.0
C213 C 0.58364 0.77266 0.78381 0.0
C214 C 0.5606 0.73324 0.8494 0.0
C215 C 0.58165 0.76285 0.85779 0.0
C216 C 0.5946 0.78214 0.82401 0.0
C217 C 0.55021 0.72481 0.80859 0.0
N218 N 0.5595 0.7454 0.77741 0.0
H219 H 0.59316 0.78812 0.75831 0.0
H220 H 0.53376 0.70206 0.80274 0.0
H221 H 0.55998 0.80396 0.76222 0.0
H222 H 0.47673 0.7358 0.72332 0.0
O223 O 0.56832 0.76947 0.69015 0.0
O224 O 0.52337 0.73577 0.66937 0.0
O225 O 0.50184 0.70176 0.74571 0.0
C226 C 0.5487 0.7587 0.66033 0.0
H227 H 0.54864 0.65484 0.66022 0.0
H228 H 0.52099 0.82068 0.77713 0.0
H229 H 0.55076 0.71724 0.87438 0.0
H230 H 0.61195 0.80484 0.82887 0.0
Co231 Co 0.80283 0.53954 0.21045 0.0
C232 C 0.8682 0.57824 0.21855 0.0
C233 C 0.85556 0.54048 0.17904 0.0
C234 C 0.8859 0.55662 0.18072 0.0
N235 N 0.8445 0.554 0.20269 0.0
N236 N 0.89384 0.5803 0.20559 0.0
H237 H 0.86674 0.5939 0.23915 0.0
H238 H 0.84239 0.52003 0.16216 0.0
C239 C 0.78472 0.4814 0.25536 0.0
O240 O 0.77083 0.48703 0.28503 0.0
N241 N 0.76043 0.5243 0.21695 0.0
C242 C 0.74641 0.54002 0.22088 0.0
C243 C 0.71651 0.52086 0.22467 0.0
C244 C 0.73841 0.49576 0.21581 0.0
N245 N 0.71151 0.49297 0.22188 0.0
C246 C 0.80307 0.57504 0.27893 0.0
C247 C 0.82209 0.55056 0.33925 0.0
C248 C 0.81036 0.56839 0.35166 0.0
C249 C 0.80224 0.58192 0.32076 0.0
C250 C 0.82226 0.54409 0.29685 0.0
N251 N 0.81016 0.55412 0.26781 0.0
H252 H 0.79732 0.58611 0.25559 0.0
H253 H 0.83097 0.53001 0.28765 0.0
H254 H 0.75674 0.56379 0.2199 0.0
H255 H 0.74174 0.47733 0.20937 0.0
O256 O 0.80665 0.57414 0.18183 0.0
O257 O 0.79692 0.53186 0.15168 0.0
O258 O 0.79816 0.50006 0.2262 0.0
C259 C 0.80143 0.55858 0.14782 0.0
H260 H 0.90094 0.55083 0.16586 0.0
H261 H 0.69984 0.52713 0.22941 0.0
H262 H 0.82959 0.54046 0.36212 0.0
H263 H 0.79459 0.59712 0.32894 0.0
Co264 Co 0.2589 0.79754 0.71596 0.0
C265 C 0.28556 0.86288 0.70762 0.0
C266 C 0.3081 0.84547 0.6715 0.0
C267 C 0.3226 0.87563 0.66651 0.0
N268 N 0.28497 0.83749 0.69726 0.0
N269 N 0.30852 0.88664 0.68928 0.0
H270 H 0.2699 0.86399 0.72859 0.0
H271 H 0.31446 0.83041 0.65821 0.0
C272 C 0.30052 0.7845 0.76623 0.0
O273 O 0.28119 0.77228 0.7966 0.0
N274 N 0.23314 0.75674 0.73364 0.0
C275 C 0.20513 0.74361 0.74832 0.0
C276 C 0.19582 0.71445 0.75722 0.0
C277 C 0.23966 0.73476 0.73155 0.0
N278 N 0.21765 0.70902 0.74685 0.0
C279 C 0.22699 0.80834 0.77999 0.0
C280 C 0.27158 0.83038 0.83868 0.0
C281 C 0.24243 0.82064 0.85205 0.0
C282 C 0.22033 0.81124 0.82131 0.0
C283 C 0.27697 0.82636 0.7971 0.0
N284 N 0.2541 0.81246 0.76956 0.0
H285 H 0.20979 0.80118 0.75678 0.0
H286 H 0.29938 0.83339 0.78761 0.0
H287 H 0.19161 0.75372 0.75135 0.0
H288 H 0.26032 0.73762 0.7196 0.0
O289 O 0.22662 0.79683 0.68437 0.0
O290 O 0.25809 0.78328 0.66069 0.0
O291 O 0.29489 0.79593 0.73482 0.0
C292 C 0.23556 0.78681 0.65369 0.0
H293 H 0.34282 0.88855 0.64899 0.0
H294 H 0.17439 0.69831 0.76946 0.0
H295 H 0.28996 0.83999 0.86032 0.0
H296 H 0.19763 0.80443 0.82902 0.0
Co297 Co 0.46027 0.26162 0.20061 0.0
C298 C 0.41968 0.28667 0.20478 0.0
C299 C 0.45881 0.31264 0.16808 0.0
C300 C 0.44195 0.32601 0.16708 0.0
N301 N 0.44496 0.28805 0.19161 0.0
N302 N 0.41737 0.30977 0.1901 0.0
H303 H 0.40346 0.26932 0.22456 0.0
H304 H 0.47991 0.32038 0.15281 0.0
C305 C 0.51625 0.30395 0.24877 0.0
O306 O 0.51046 0.28488 0.27913 0.0
N307 N 0.47654 0.23527 0.20787 0.0
C308 C 0.46158 0.20542 0.20572 0.0
C309 C 0.48097 0.19511 0.21112 0.0
C310 C 0.50519 0.24253 0.21209 0.0
N311 N 0.50846 0.21849 0.21561 0.0
C312 C 0.42756 0.22559 0.27043 0.0
C313 C 0.44524 0.27099 0.32748 0.0
C314 C 0.43064 0.24166 0.34214 0.0
C315 C 0.42068 0.21882 0.31252 0.0
C316 C 0.45199 0.27671 0.285 0.0
N317 N 0.44512 0.25409 0.25765 0.0
H318 H 0.41935 0.20772 0.24833 0.0
H319 H 0.46386 0.29941 0.27442 0.0
H320 H 0.43821 0.19174 0.19948 0.0
H321 H 0.52347 0.26486 0.21155 0.0
O322 O 0.42638 0.23039 0.17137 0.0
O323 O 0.46872 0.26361 0.14205 0.0
O324 O 0.49886 0.29726 0.21752 0.0
C325 C 0.44224 0.24106 0.13766 0.0
H326 H 0.44777 0.34666 0.1516 0.0
H327 H 0.47517 0.1721 0.21072 0.0
H328 H 0.45212 0.28945 0.34868 0.0
H329 H 0.40879 0.19578 0.32167 0.0
Co330 Co 0.20008 0.46044 0.71837 0.0
C331 C 0.13491 0.42012 0.71058 0.0
C332 C 0.15113 0.4596 0.67371 0.0
C333 C 0.12098 0.44318 0.66901 0.0
N334 N 0.15987 0.44519 0.6997 0.0
N335 N 0.11073 0.4184 0.69226 0.0
H336 H 0.13436 0.4038 0.73193 0.0
H337 H 0.16563 0.48108 0.66012 0.0
C338 C 0.21137 0.51414 0.77001 0.0
O339 O 0.2251 0.50823 0.79958 0.0
N340 N 0.24099 0.47667 0.73617 0.0
C341 C 0.25453 0.46233 0.75143 0.0
C342 C 0.28341 0.48267 0.7609 0.0
C343 C 0.26249 0.50539 0.73439 0.0
N344 N 0.28829 0.50971 0.7504 0.0
C345 C 0.18991 0.41571 0.77874 0.0
C346 C 0.17057 0.43767 0.84221 0.0
C347 C 0.18027 0.41772 0.85207 0.0
C348 C 0.18824 0.4053 0.81936 0.0
C349 C 0.17302 0.44771 0.8011 0.0
N350 N 0.18576 0.43909 0.77109 0.0
H351 H 0.19666 0.40638 0.75393 0.0
H352 H 0.16594 0.46343 0.7941 0.0
H353 H 0.24483 0.43876 0.75467 0.0
H354 H 0.25917 0.5229 0.72242 0.0
O355 O 0.20295 0.43087 0.68444 0.0
O356 O 0.21409 0.47578 0.66371 0.0
O357 O 0.1996 0.49658 0.73919 0.0
C358 C 0.21223 0.45067 0.6548 0.0
H359 H 0.1075 0.44978 0.65144 0.0
H360 H 0.29975 0.47788 0.77375 0.0
H361 H 0.16311 0.44695 0.86637 0.0
H362 H 0.19452 0.38875 0.82542 0.0
Co363 Co 0.73714 0.19662 0.20992 0.0
C364 C 0.71026 0.13112 0.21796 0.0
C365 C 0.68579 0.14413 0.17772 0.0
C366 C 0.67017 0.11393 0.18189 0.0
N367 N 0.71073 0.15494 0.20055 0.0
N368 N 0.68549 0.10581 0.20723 0.0
H369 H 0.72657 0.13232 0.23996 0.0
H370 H 0.67876 0.15749 0.16081 0.0
C371 C 0.69711 0.21411 0.25591 0.0
O372 O 0.71809 0.23074 0.28252 0.0
N373 N 0.76331 0.239 0.21806 0.0
C374 C 0.79225 0.25339 0.22864 0.0
C375 C 0.80174 0.28296 0.23359 0.0
C376 C 0.75634 0.26057 0.21382 0.0
N377 N 0.77903 0.28736 0.22467 0.0
C378 C 0.77261 0.19361 0.27627 0.0
C379 C 0.73084 0.17755 0.33865 0.0
C380 C 0.7604 0.18779 0.34965 0.0
C381 C 0.78112 0.19442 0.31776 0.0
C382 C 0.72347 0.17755 0.29666 0.0
N383 N 0.74494 0.18838 0.26659 0.0
H384 H 0.78865 0.1982 0.25202 0.0
H385 H 0.70064 0.16965 0.28868 0.0
H386 H 0.80605 0.24361 0.23202 0.0
H387 H 0.7348 0.2567 0.20433 0.0
O388 O 0.76846 0.19469 0.17974 0.0
O389 O 0.73483 0.20366 0.15163 0.0
O390 O 0.70159 0.19953 0.22766 0.0
C391 C 0.75756 0.20013 0.14652 0.0
H392 H 0.64859 0.09911 0.16873 0.0
H393 H 0.82368 0.29997 0.24293 0.0
H394 H 0.71389 0.1711 0.36232 0.0
H395 H 0.80387 0.2009 0.3249 0.0
H396 H 0.38715 0.30122 0.26267 0.0
H397 H 0.39811 0.33723 0.13848 0.0
H398 H 0.35833 0.32491 0.28222 0.0
H399 H 0.36985 0.36104 0.15803 0.0
H400 H 0.37417 0.43855 0.2365 0.0
H401 H 0.38979 0.40433 0.21174 0.0
H402 H 0.31064 0.33099 0.26344 0.0
H403 H 0.2947 0.36577 0.28785 0.0
C404 C 0.38265 0.31341 0.23927 0.0
C405 C 0.39536 0.31791 0.19931 0.0
C406 C 0.3662 0.32695 0.25043 0.0
C407 C 0.36231 0.34513 0.22175 0.0
C408 C 0.3729 0.34748 0.18087 0.0
C409 C 0.38915 0.33396 0.16976 0.0
C410 C 0.36004 0.41511 0.24233 0.0
C411 C 0.33334 0.40471 0.26411 0.0
C412 C 0.36883 0.39551 0.22797 0.0
C413 C 0.35134 0.36502 0.23556 0.0
C414 C 0.32446 0.35442 0.25721 0.0
C415 C 0.31531 0.37416 0.27092 0.0
H416 H 0.93103 0.29452 0.78357 0.0
H417 H 0.93683 0.37452 0.7361 0.0
H418 H 0.98161 0.31115 0.75811 0.0
H419 H 0.98662 0.3909 0.7103 0.0
H420 H 0.06495 0.40325 0.63944 0.0
H421 H 0.01245 0.37505 0.65653 0.0
H422 H 0.03376 0.35668 0.77901 0.0
H423 H 0.08652 0.38547 0.76226 0.0
C424 C 0.943 0.31536 0.76709 0.0
C425 C 0.93034 0.33339 0.76185 0.0
C426 C 0.97182 0.32491 0.75278 0.0
C427 C 0.98792 0.35224 0.73212 0.0
C428 C 0.97464 0.36961 0.72568 0.0
C429 C 0.94628 0.36038 0.74065 0.0
C430 C 0.0585 0.39299 0.66989 0.0
C431 C 0.07998 0.39718 0.69979 0.0
C432 C 0.02843 0.37671 0.67955 0.0
C433 C 0.01911 0.36401 0.71924 0.0
C434 C 0.04038 0.36614 0.74809 0.0
C435 C 0.07059 0.38264 0.73848 0.0
H436 H 0.71529 0.07605 0.21718 0.0
H437 H 0.6309 0.07046 0.2369 0.0
H438 H 0.6948 0.02517 0.24429 0.0
H439 H 0.61074 0.02048 0.26438 0.0
H440 H 0.59214 0.94624 0.35012 0.0
H441 H 0.62329 0.99793 0.33031 0.0
H442 H 0.64844 0.97112 0.21734 0.0
H443 H 0.61657 0.91898 0.2368 0.0
C444 C 0.69253 0.06399 0.22769 0.0
C445 C 0.67453 0.07688 0.22485 0.0
C446 C 0.68084 0.03504 0.24293 0.0
C447 C 0.65129 0.01911 0.25654 0.0
C448 C 0.63366 0.03239 0.25442 0.0
C449 C 0.64509 0.06085 0.23848 0.0
C450 C 0.60456 0.95132 0.32129 0.0
C451 C 0.60138 0.92855 0.29454 0.0
C452 C 0.62251 0.98088 0.31013 0.0
C453 C 0.63792 0.98838 0.27213 0.0
C454 C 0.63683 0.96582 0.24691 0.0
C455 C 0.61862 0.93605 0.25803 0.0
H456 H 0.7063 0.63634 0.78796 0.0
H457 H 0.62754 0.5623 0.73736 0.0
H458 H 0.68925 0.67016 0.76343 0.0
H459 H 0.6107 0.59554 0.71253 0.0
H460 H 0.59617 0.661 0.64548 0.0
H461 H 0.62548 0.63761 0.66091 0.0
H462 H 0.64368 0.67597 0.78429 0.0
H463 H 0.61392 0.69918 0.76902 0.0
C464 C 0.68567 0.6275 0.77093 0.0
C465 C 0.66808 0.59687 0.76458 0.0
C466 C 0.67586 0.64669 0.75716 0.0
C467 C 0.64872 0.63545 0.73597 0.0
C468 C 0.63186 0.6049 0.72832 0.0
C469 C 0.64134 0.58584 0.74271 0.0
C470 C 0.60669 0.66474 0.67574 0.0
C471 C 0.60218 0.68139 0.70634 0.0
C472 C 0.62357 0.65146 0.68448 0.0
C473 C 0.63649 0.65466 0.72397 0.0
C474 C 0.63406 0.67326 0.75351 0.0
C475 C 0.61701 0.68652 0.74477 0.0
H476 H 0.08422 0.69686 0.22672 0.0
H477 H 0.05378 0.64795 0.34208 0.0
H478 H 0.03305 0.67826 0.20531 0.0
H479 H 0.00268 0.62858 0.32014 0.0
H480 H 0.91191 0.60851 0.28007 0.0
H481 H 0.96311 0.63928 0.30365 0.0
H482 H 0.99419 0.62963 0.18287 0.0
H483 H 0.94329 0.59973 0.15926 0.0
C484 C 0.06666 0.68254 0.24783 0.0
C485 C 0.07311 0.67364 0.28594 0.0
C486 C 0.03731 0.67166 0.23539 0.0
C487 C 0.01376 0.65172 0.26084 0.0
C488 C 0.02024 0.64405 0.29989 0.0
C489 C 0.04956 0.65486 0.31226 0.0
C490 C 0.92973 0.61359 0.25836 0.0
C491 C 0.92362 0.60148 0.21796 0.0
C492 C 0.95903 0.63096 0.27194 0.0
C493 C 0.98275 0.63675 0.24525 0.0
C494 C 0.97652 0.62587 0.20417 0.0
C495 C 0.94733 0.60843 0.19074 0.0
H496 H 0.29945 0.9119 0.7579 0.0
H497 H 0.34099 0.93191 0.63645 0.0
H498 H 0.32393 0.96483 0.77367 0.0
H499 H 0.36584 0.98455 0.65269 0.0
H500 H 0.43976 0.06091 0.73262 0.0
H501 H 0.40664 0.01068 0.7081 0.0
H502 H 0.33128 0.01697 0.74986 0.0
H503 H 0.36492 0.06795 0.77404 0.0
C504 C 0.31319 0.92752 0.7342 0.0
C505 C 0.31872 0.9176 0.6962 0.0
C506 C 0.32719 0.95783 0.74326 0.0
C507 C 0.34705 0.97869 0.71458 0.0
C508 C 0.35097 0.96888 0.67558 0.0
C509 C 0.33686 0.93872 0.66642 0.0
C510 C 0.41611 0.05163 0.73618 0.0
C511 C 0.4048 0.06809 0.75527 0.0
C512 C 0.39715 0.02301 0.72193 0.0
C513 C 0.3664 0.00999 0.727 0.0
C514 C 0.35492 0.02655 0.74563 0.0
C515 C 0.37402 0.05561 0.7592 0.0
H516 H 0.23046 0.42256 0.88421 0.0
H517 H 0.14269 0.40303 0.9192 0.0
H518 H 0.24258 0.42104 0.95686 0.0
H519 H 0.15402 0.39969 0.99234 0.0
H520 H 0.19665 0.43505 0.12019 0.0
H521 H 0.18015 0.42917 0.04805 0.0
H522 H 0.23811 0.39496 0.01665 0.0
H523 H 0.25584 0.40282 0.08861 0.0
C524 C 0.21344 0.41707 0.90753 0.0
C525 C 0.18561 0.41283 0.89607 0.0
C526 C 0.22033 0.41606 0.94938 0.0
C527 C 0.19937 0.41026 0.98101 0.0
C528 C 0.17104 0.40486 0.9692 0.0
C529 C 0.16436 0.40649 0.92725 0.0
C530 C 0.20559 0.42601 0.09781 0.0
C531 C 0.22758 0.4195 0.10982 0.0
C532 C 0.196 0.42242 0.05637 0.0
C533 C 0.20778 0.41166 0.02598 0.0
C534 C 0.22898 0.404 0.03867 0.0
C535 C 0.23904 0.40824 0.07998 0.0
H536 H 0.73653 0.15128 0.41736 0.0
H537 H 0.80561 0.2384 0.38143 0.0
H538 H 0.75088 0.16312 0.49047 0.0
H539 H 0.81905 0.25104 0.45422 0.0
H540 H 0.85103 0.26197 0.58692 0.0
H541 H 0.84048 0.24566 0.51431 0.0
H542 H 0.74783 0.19035 0.54527 0.0
H543 H 0.75892 0.20551 0.61783 0.0
C544 C 0.75478 0.17297 0.42523 0.0
C545 C 0.77004 0.19387 0.39382 0.0
C546 C 0.76292 0.17992 0.46713 0.0
C547 C 0.78608 0.2082 0.47865 0.0
C548 C 0.80154 0.22887 0.44686 0.0
C549 C 0.79376 0.2217 0.40501 0.0
C550 C 0.8285 0.24617 0.578 0.0
C551 C 0.80581 0.23491 0.60789 0.0
C552 C 0.82234 0.2369 0.53637 0.0
C553 C 0.79321 0.21664 0.52353 0.0
C554 C 0.77062 0.2054 0.55379 0.0
C555 C 0.7769 0.21423 0.59545 0.0
H556 H 0.53976 0.81132 0.08932 0.0
H557 H 0.62099 0.81296 0.12257 0.0
H558 H 0.54647 0.80174 0.01717 0.0
H559 H 0.62651 0.8016 0.05025 0.0
H560 H 0.59143 0.73863 0.92813 0.0
H561 H 0.5937 0.755 0.0006 0.0
H562 H 0.58512 0.82872 0.95763 0.0
H563 H 0.58298 0.81262 0.88563 0.0
C564 C 0.55934 0.81018 0.0814 0.0
C565 C 0.57985 0.81307 0.11225 0.0
C566 C 0.563 0.80442 0.03994 0.0
C567 C 0.58695 0.80087 0.02825 0.0
C568 C 0.60769 0.804 0.05863 0.0
C569 C 0.60437 0.81036 0.1001 0.0
C570 C 0.59051 0.75857 0.93423 0.0
C571 C 0.58711 0.77437 0.90121 0.0
C572 C 0.59196 0.768 0.97557 0.0
C573 C 0.58946 0.79304 0.98456 0.0
C574 C 0.587 0.8093 0.9515 0.0
C575 C 0.58603 0.80019 0.91029 0.0
H576 H 0.7594 0.56121 0.38485 0.0
H577 H 0.84746 0.58108 0.41886 0.0
H578 H 0.74746 0.56223 0.45785 0.0
H579 H 0.83615 0.58356 0.49229 0.0
H580 H 0.79482 0.55033 0.62091 0.0
H581 H 0.8093 0.55347 0.54812 0.0
H582 H 0.75393 0.59067 0.51692 0.0
H583 H 0.73841 0.58601 0.58978 0.0
C584 C 0.77643 0.56641 0.40805 0.0
C585 C 0.80438 0.57112 0.39622 0.0
C586 C 0.76964 0.56715 0.45001 0.0
C587 C 0.79079 0.57304 0.48133 0.0
C588 C 0.81906 0.5784 0.46927 0.0
C589 C 0.82568 0.57717 0.4272 0.0
C590 C 0.78593 0.55936 0.59844 0.0
C591 C 0.76546 0.56788 0.61089 0.0
C592 C 0.79437 0.56135 0.55666 0.0
C593 C 0.78287 0.57235 0.52629 0.0
C594 C 0.76284 0.58152 0.53911 0.0
C595 C 0.75401 0.57902 0.58088 0.0
H596 H 0.26999 0.80948 0.91684 0.0
H597 H 0.19677 0.8241 0.89126 0.0
H598 H 0.25453 0.79905 0.98921 0.0
H599 H 0.18035 0.81139 0.9635 0.0
H600 H 0.14816 0.73911 0.07798 0.0
H601 H 0.16305 0.75817 0.00663 0.0
H602 H 0.24593 0.82877 0.0536 0.0
H603 H 0.23095 0.81025 0.12471 0.0
C604 C 0.25097 0.81109 0.92644 0.0
C605 C 0.23472 0.81768 0.8975 0.0
C606 C 0.24197 0.80476 0.96803 0.0
C607 C 0.21617 0.80421 0.98166 0.0
C608 C 0.20018 0.81139 0.95346 0.0
C609 C 0.20958 0.81847 0.91198 0.0
C610 C 0.16931 0.75898 0.07301 0.0
C611 C 0.18835 0.77329 0.1068 0.0
C612 C 0.17774 0.76992 0.03238 0.0
C613 C 0.2056 0.7949 0.02487 0.0
C614 C 0.22433 0.80952 0.05871 0.0
C615 C 0.21567 0.79899 0.09931 0.0
H616 H 0.43709 0.2378 0.61512 0.0
H617 H 0.42151 0.15251 0.57326 0.0
H618 H 0.43389 0.25142 0.54312 0.0
H619 H 0.41806 0.16613 0.50102 0.0
H620 H 0.38547 0.19385 0.38332 0.0
H621 H 0.38428 0.17989 0.45629 0.0
H622 H 0.46706 0.26016 0.47814 0.0
H623 H 0.46931 0.2736 0.40498 0.0
C624 C 0.43258 0.22182 0.59055 0.0
C625 C 0.42949 0.19407 0.59976 0.0
C626 C 0.43094 0.2297 0.54938 0.0
C627 C 0.42572 0.20983 0.51658 0.0
C628 C 0.42189 0.18178 0.52581 0.0
C629 C 0.42405 0.17406 0.56701 0.0
C630 C 0.40359 0.20852 0.40345 0.0
C631 C 0.42763 0.23482 0.38779 0.0
C632 C 0.40277 0.2005 0.44532 0.0
C633 C 0.42563 0.21888 0.47273 0.0
C634 C 0.44902 0.24569 0.45771 0.0
C635 C 0.45013 0.25347 0.41573 0.0
H636 H 0.82209 0.54944 0.07553 0.0
H637 H 0.77634 0.59191 0.12701 0.0
H638 H 0.81238 0.56021 0.00501 0.0
H639 H 0.76567 0.6019 0.05591 0.0
H640 H 0.80112 0.5947 0.88182 0.0
H641 H 0.82048 0.60465 0.95348 0.0
H642 H 0.73125 0.55825 0.00138 0.0
H643 H 0.71202 0.54756 0.93013 0.0
C644 C 0.81049 0.56167 0.07161 0.0
C645 C 0.79987 0.56983 0.10641 0.0
C646 C 0.80513 0.568 0.03135 0.0
C647 C 0.78838 0.58195 0.02515 0.0
C648 C 0.77882 0.5913 0.06003 0.0
C649 C 0.78493 0.58565 0.10051 0.0
C650 C 0.78572 0.58745 0.90773 0.0
C651 C 0.75514 0.57022 0.9007 0.0
C652 C 0.79676 0.59308 0.94858 0.0
C653 C 0.77731 0.58225 0.98278 0.0
C654 C 0.74668 0.56713 0.97556 0.0
C655 C 0.7357 0.56086 0.93486 0.0
H656 H 0.22253 0.73905 0.60742 0.0
H657 H 0.21934 0.82005 0.60586 0.0
H658 H 0.21108 0.73221 0.53332 0.0
H659 H 0.20883 0.81384 0.53037 0.0
H660 H 0.17102 0.77318 0.39406 0.0
H661 H 0.17471 0.7822 0.47005 0.0
H662 H 0.24459 0.76078 0.47655 0.0
H663 H 0.24037 0.7512 0.40215 0.0
C664 C 0.2188 0.75511 0.59117 0.0
C665 C 0.22195 0.78011 0.61203 0.0
C666 C 0.21251 0.75138 0.54869 0.0
C667 C 0.20994 0.77296 0.52576 0.0
C668 C 0.21082 0.79693 0.54723 0.0
C669 C 0.21673 0.80044 0.59031 0.0
C670 C 0.18744 0.77097 0.41191 0.0
C671 C 0.20513 0.7611 0.39258 0.0
C672 C 0.18949 0.77601 0.45526 0.0
C673 C 0.20933 0.77132 0.47942 0.0
C674 C 0.22836 0.76358 0.45913 0.0
C675 C 0.22612 0.75832 0.41642 0.0
H676 H 0.40619 0.20482 0.87118 0.0
H677 H 0.45455 0.16384 0.91837 0.0
H678 H 0.3968 0.21438 0.94311 0.0
H679 H 0.44442 0.17251 0.98989 0.0
H680 H 0.40996 0.18266 0.11606 0.0
H681 H 0.40054 0.16239 0.04472 0.0
H682 H 0.44122 0.251 0.99481 0.0
H683 H 0.45145 0.27111 0.06558 0.0
C684 C 0.41386 0.19695 0.89693 0.0
C685 C 0.43119 0.18377 0.88948 0.0
C686 C 0.40856 0.20245 0.93792 0.0
C687 C 0.41983 0.19407 0.97188 0.0
C688 C 0.4352 0.17885 0.96427 0.0
C689 C 0.44114 0.17407 0.92342 0.0
C690 C 0.41616 0.19762 0.08974 0.0
C691 C 0.43152 0.22836 0.096 0.0
C692 C 0.41084 0.18609 0.04911 0.0
C693 C 0.42003 0.20518 0.01444 0.0
C694 C 0.43357 0.23582 0.02099 0.0
C695 C 0.4396 0.24731 0.0614 0.0
H696 H 0.29972 0.47338 0.41927 0.0
H697 H 0.20847 0.41038 0.39109 0.0
H698 H 0.28844 0.46794 0.49341 0.0
H699 H 0.1969 0.40531 0.46624 0.0
H700 H 0.19601 0.3979 0.61431 0.0
H701 H 0.208 0.39194 0.54168 0.0
H702 H 0.25843 0.48698 0.52855 0.0
H703 H 0.2467 0.49285 0.59971 0.0
C704 C 0.27725 0.45804 0.42904 0.0
C705 C 0.25483 0.44271 0.39948 0.0
C706 C 0.27082 0.4549 0.47151 0.0
C707 C 0.24171 0.43663 0.48554 0.0
C708 C 0.21956 0.41951 0.45624 0.0
C709 C 0.22612 0.42247 0.41334 0.0
C710 C 0.20991 0.41738 0.59583 0.0
C711 C 0.22046 0.44582 0.61263 0.0
C712 C 0.21657 0.41398 0.55434 0.0
C713 C 0.23433 0.439 0.52962 0.0
C714 C 0.24508 0.46727 0.54694 0.0
C715 C 0.23819 0.47062 0.58774 0.0
H716 H 0.79351 0.20143 0.87973 0.0
H717 H 0.83397 0.29079 0.92682 0.0
H718 H 0.78392 0.18254 0.95164 0.0
H719 H 0.82526 0.27202 0.99838 0.0
H720 H 0.81589 0.22646 0.12438 0.0
H721 H 0.83589 0.23784 0.05291 0.0
H722 H 0.74709 0.19061 0.00354 0.0
H723 H 0.72723 0.18023 0.07445 0.0
C724 C 0.80123 0.217 0.90545 0.0
C725 C 0.81429 0.2475 0.89796 0.0
C726 C 0.79572 0.20622 0.94644 0.0
C727 C 0.80397 0.22588 0.98036 0.0
C728 C 0.81901 0.25646 0.97276 0.0
C729 C 0.82381 0.26716 0.93189 0.0
C730 C 0.80082 0.21799 0.09812 0.0
C731 C 0.7701 0.20265 0.10461 0.0
C732 C 0.8122 0.22451 0.05743 0.0
C733 C 0.79297 0.21492 0.02291 0.0
C734 C 0.76236 0.19792 0.02962 0.0
C735 C 0.75102 0.19216 0.0701 0.0
H736 H 0.50716 0.75067 0.60392 0.0
H737 H 0.60195 0.79425 0.62051 0.0
H738 H 0.51391 0.76781 0.53241 0.0
H739 H 0.60877 0.81165 0.54751 0.0
H740 H 0.5891 0.79155 0.39602 0.0
H741 H 0.59422 0.78522 0.47129 0.0
H742 H 0.53521 0.81859 0.49854 0.0
H743 H 0.52973 0.82431 0.42439 0.0
C744 C 0.52953 0.76409 0.59229 0.0
C745 C 0.55404 0.7712 0.61782 0.0
C746 C 0.53338 0.77403 0.55131 0.0
C747 C 0.56186 0.79123 0.53454 0.0
C748 C 0.58659 0.79841 0.55983 0.0
C749 C 0.5827 0.78868 0.60148 0.0
C750 C 0.57786 0.79812 0.41833 0.0
C751 C 0.55852 0.80777 0.4046 0.0
C752 C 0.58086 0.79463 0.46124 0.0
C753 C 0.56471 0.801 0.49054 0.0
C754 C 0.5475 0.81305 0.47658 0.0
C755 C 0.54431 0.81623 0.43414 0.0
H756 H 0.17842 0.51558 0.28901 0.0
H757 H 0.27092 0.56422 0.25421 0.0
H758 H 0.17366 0.558 0.27207 0.0
H759 H 0.26647 0.60756 0.24006 0.0
H760 H 0.24287 0.67435 0.18535 0.0
H761 H 0.24656 0.62968 0.19438 0.0
H762 H 0.18667 0.6042 0.29937 0.0
H763 H 0.18197 0.64743 0.28924 0.0
C764 C 0.19789 0.53523 0.27799 0.0
C765 C 0.22512 0.53607 0.27329 0.0
C766 C 0.19519 0.55989 0.26864 0.0
C767 C 0.21972 0.58645 0.25497 0.0
C768 C 0.24698 0.58743 0.25009 0.0
C769 C 0.24963 0.56256 0.25895 0.0
C770 C 0.23016 0.6589 0.20987 0.0
C771 C 0.21204 0.6645 0.23638 0.0
C772 C 0.23251 0.63345 0.21538 0.0
C773 C 0.21689 0.61318 0.24762 0.0
C774 C 0.19859 0.61881 0.27366 0.0
C775 C 0.19604 0.6439 0.26796 0.0
H776 H 0.70432 0.27122 0.795 0.0
H777 H 0.67063 0.1804 0.7571 0.0
H778 H 0.65678 0.26687 0.77774 0.0
H779 H 0.62326 0.17611 0.74036 0.0
H780 H 0.53407 0.16988 0.77024 0.0
H781 H 0.58255 0.17491 0.77978 0.0
H782 H 0.62303 0.25976 0.71778 0.0
H783 H 0.57411 0.25484 0.70859 0.0
C784 C 0.68695 0.2504 0.78282 0.0
C785 C 0.69137 0.22606 0.77795 0.0
C786 C 0.6597 0.24796 0.77277 0.0
C787 C 0.63623 0.22113 0.75778 0.0
C788 C 0.64076 0.19696 0.75245 0.0
C789 C 0.66794 0.1994 0.76234 0.0
C790 C 0.55324 0.18951 0.75825 0.0
C791 C 0.55026 0.212 0.73873 0.0
C792 C 0.58105 0.19232 0.76355 0.0
C793 C 0.60666 0.21777 0.74965 0.0
C794 C 0.6037 0.24002 0.72918 0.0
C795 C 0.57571 0.23708 0.72353 0.0
H796 H 0.48975 0.66828 0.24462 0.0
H797 H 0.4328 0.70134 0.28588 0.0
H798 H 0.44651 0.62134 0.22605 0.0
H799 H 0.38952 0.65433 0.26704 0.0
H800 H 0.31707 0.57214 0.2019 0.0
H801 H 0.36181 0.62091 0.20783 0.0
H802 H 0.40768 0.58034 0.26531 0.0
H803 H 0.36349 0.53205 0.25894 0.0
C804 C 0.46805 0.66553 0.25003 0.0
C805 C 0.46487 0.68858 0.26728 0.0
C806 C 0.44323 0.63864 0.23912 0.0
C807 C 0.41457 0.63407 0.24513 0.0
C808 C 0.41131 0.65729 0.26145 0.0
C809 C 0.43618 0.68424 0.27243 0.0
C810 C 0.33696 0.57368 0.21488 0.0
C811 C 0.3368 0.54834 0.23005 0.0
C812 C 0.36244 0.60158 0.2187 0.0
C813 C 0.38824 0.60451 0.23726 0.0
C814 C 0.38833 0.57889 0.25052 0.0
C815 C 0.36292 0.5512 0.24706 0.0
H816 H 0.75057 0.32314 0.7084 0.0
H817 H 0.83262 0.36527 0.77757 0.0
H818 H 0.7462 0.36748 0.71727 0.0
H819 H 0.82814 0.40912 0.78672 0.0
H820 H 0.82396 0.49286 0.76536 0.0
H821 H 0.8289 0.45019 0.74787 0.0
H822 H 0.73684 0.39206 0.77802 0.0
H823 H 0.73187 0.43468 0.79618 0.0
C824 C 0.76787 0.34201 0.72485 0.0
C825 C 0.79189 0.34074 0.74239 0.0
C826 C 0.76523 0.36724 0.7303 0.0
C827 C 0.78676 0.39172 0.75289 0.0
C828 C 0.81132 0.39076 0.76889 0.0
C829 C 0.81379 0.36555 0.76383 0.0
C830 C 0.80481 0.47104 0.7688 0.0
C831 C 0.77756 0.46738 0.78257 0.0
C832 C 0.80762 0.44656 0.75847 0.0
C833 C 0.78325 0.41777 0.76146 0.0
C834 C 0.75591 0.41401 0.77475 0.0
C835 C 0.75311 0.43851 0.78529 0.0
H836 H 0.29511 0.73296 0.24681 0.0
H837 H 0.33784 0.82749 0.26618 0.0
H838 H 0.34345 0.73711 0.23697 0.0
H839 H 0.3856 0.83176 0.25403 0.0
H840 H 0.4658 0.82402 0.28657 0.0
H841 H 0.41757 0.81967 0.29079 0.0
H842 H 0.38647 0.75592 0.1902 0.0
H843 H 0.43517 0.75959 0.18687 0.0
C844 C 0.31471 0.75459 0.24903 0.0
C845 C 0.31247 0.77986 0.25761 0.0
C846 C 0.34241 0.75702 0.24269 0.0
C847 C 0.36843 0.78476 0.24475 0.0
C848 C 0.36607 0.80999 0.25276 0.0
C849 C 0.33854 0.80755 0.25934 0.0
C850 C 0.44883 0.80915 0.26508 0.0
C851 C 0.45437 0.79207 0.23644 0.0
C852 C 0.42112 0.80681 0.26733 0.0
C853 C 0.3981 0.7875 0.24079 0.0
C854 C 0.40368 0.7708 0.2114 0.0
C855 C 0.43163 0.77312 0.20917 0.0
H856 H 0.66789 0.43196 0.69508 0.0
H857 H 0.64576 0.46007 0.80984 0.0
H858 H 0.62373 0.38314 0.7028 0.0
H859 H 0.60262 0.41155 0.81806 0.0
H860 H 0.51175 0.3322 0.80072 0.0
H861 H 0.5549 0.38052 0.78915 0.0
H862 H 0.60385 0.33896 0.74601 0.0
H863 H 0.56006 0.29047 0.75554 0.0
C864 C 0.65365 0.4278 0.72184 0.0
C865 C 0.66038 0.45001 0.75172 0.0
C866 C 0.62848 0.39976 0.72646 0.0
C867 C 0.60958 0.3934 0.76106 0.0
C868 C 0.61633 0.41574 0.79067 0.0
C869 C 0.64128 0.44363 0.78601 0.0
C870 C 0.53158 0.33326 0.7885 0.0
C871 C 0.53229 0.30731 0.77914 0.0
C872 C 0.5565 0.36105 0.78222 0.0
C873 C 0.58292 0.36368 0.76669 0.0
C874 C 0.58377 0.33776 0.75755 0.0
C875 C 0.55875 0.30991 0.76368 0.0
H876 H 0.33815 0.79621 0.70095 0.0
H877 H 0.32573 0.77003 0.83075 0.0
H878 H 0.38309 0.79314 0.69887 0.0
H879 H 0.37126 0.76718 0.82851 0.0
H880 H 0.47354 0.80306 0.8124 0.0
H881 H 0.42703 0.80357 0.81781 0.0
H882 H 0.39618 0.75235 0.70436 0.0
H883 H 0.44277 0.75198 0.69888 0.0
C884 C 0.34505 0.7899 0.72917 0.0
C885 C 0.32833 0.78339 0.76611 0.0
C886 C 0.37072 0.78793 0.72779 0.0
C887 C 0.38055 0.77975 0.76341 0.0
C888 C 0.36416 0.77362 0.80061 0.0
C889 C 0.33812 0.77519 0.80186 0.0
C890 C 0.45684 0.79201 0.78858 0.0
C891 C 0.46185 0.77768 0.75501 0.0
C892 C 0.43014 0.79202 0.79194 0.0
C893 C 0.40806 0.77806 0.76148 0.0
C894 C 0.41293 0.76346 0.72814 0.0
C895 C 0.43947 0.7631 0.7251 0.0
H896 H 0.56336 0.32417 0.30298 0.0
H897 H 0.5334 0.34812 0.19162 0.0
H898 H 0.61077 0.37038 0.29807 0.0
H899 H 0.58059 0.39344 0.18619 0.0
H900 H 0.65673 0.48536 0.20896 0.0
H901 H 0.60952 0.44047 0.21935 0.0
H902 H 0.65506 0.39367 0.2543 0.0
H903 H 0.70243 0.43908 0.24585 0.0
C904 C 0.56681 0.33927 0.2776 0.0
C905 C 0.54456 0.33241 0.24774 0.0
C906 C 0.59404 0.36562 0.27458 0.0
C907 C 0.59949 0.38563 0.24172 0.0
C908 C 0.57705 0.37881 0.21225 0.0
C909 C 0.54997 0.35263 0.21525 0.0
C910 C 0.65678 0.46564 0.21922 0.0
C911 C 0.6835 0.46594 0.22639 0.0
C912 C 0.62964 0.43976 0.22481 0.0
C913 C 0.62847 0.4134 0.23753 0.0
C914 C 0.65515 0.41365 0.24488 0.0
C915 C 0.68235 0.43961 0.23938 0.0
H916 H 0.19704 0.53797 0.70489 0.0
H917 H 0.22659 0.55502 0.83324 0.0
H918 H 0.19981 0.58578 0.70124 0.0
H919 H 0.22895 0.60319 0.82944 0.0
H920 H 0.19199 0.66928 0.80914 0.0
H921 H 0.19117 0.62219 0.81735 0.0
H922 H 0.24273 0.63994 0.70468 0.0
H923 H 0.24359 0.68699 0.69655 0.0
C924 C 0.20393 0.55181 0.73252 0.0
C925 C 0.2116 0.54263 0.76945 0.0
C926 C 0.20571 0.57931 0.73022 0.0
C927 C 0.2148 0.59821 0.76492 0.0
C928 C 0.22185 0.58893 0.80225 0.0
C929 C 0.22053 0.56145 0.80439 0.0
C930 C 0.20308 0.66304 0.78615 0.0
C931 C 0.21767 0.68164 0.75203 0.0
C932 C 0.20287 0.6363 0.79109 0.0
C933 C 0.21683 0.62748 0.76162 0.0
C934 C 0.23166 0.6462 0.72773 0.0
C935 C 0.23228 0.67313 0.72317 0.0
H936 H 0.51327 0.17206 0.24464 0.0
H937 H 0.56551 0.26355 0.20621 0.0
H938 H 0.55836 0.17078 0.25848 0.0
H939 H 0.61051 0.2622 0.22112 0.0
H940 H 0.6847 0.25518 0.28891 0.0
H941 H 0.63851 0.25637 0.28187 0.0
H942 H 0.59937 0.17349 0.21484 0.0
H943 H 0.6452 0.17225 0.22184 0.0
C944 C 0.53421 0.19187 0.23877 0.0
C945 C 0.53541 0.21783 0.22381 0.0
C946 C 0.56011 0.19113 0.24703 0.0
C947 C 0.58794 0.21639 0.24094 0.0
C948 C 0.58933 0.24249 0.22664 0.0
C949 C 0.56341 0.24319 0.218 0.0
C950 C 0.66606 0.23704 0.27324 0.0
C951 C 0.66856 0.21365 0.2559 0.0
C952 C 0.63976 0.23785 0.26889 0.0
C953 C 0.6154 0.21507 0.24768 0.0
C954 C 0.61767 0.19124 0.23162 0.0
C955 C 0.64398 0.19061 0.23549 0.0
H956 H 0.44209 0.67286 0.83803 0.0
H957 H 0.45987 0.65856 0.71088 0.0
H958 H 0.39331 0.6278 0.8339 0.0
H959 H 0.41146 0.61431 0.70686 0.0
H960 H 0.31042 0.5577 0.70017 0.0
H961 H 0.35738 0.60402 0.70885 0.0
H962 H 0.37387 0.57071 0.82299 0.0
H963 H 0.32697 0.52437 0.81419 0.0
C964 C 0.43568 0.66014 0.80937 0.0
C965 C 0.4549 0.66925 0.77489 0.0
C966 C 0.40784 0.63443 0.80703 0.0
C967 C 0.39862 0.61783 0.76992 0.0
C968 C 0.41788 0.62691 0.73564 0.0
C969 C 0.44573 0.65217 0.73817 0.0
C970 C 0.32397 0.56043 0.72725 0.0
C971 C 0.31525 0.5374 0.75629 0.0
C972 C 0.35082 0.5868 0.73215 0.0
C973 C 0.36919 0.59082 0.76655 0.0
C974 C 0.36003 0.56819 0.79632 0.0
C975 C 0.3334 0.54163 0.79105 0.0
H976 H 0.74921 0.30688 0.17765 0.0
H977 H 0.80676 0.32855 0.28451 0.0
H978 H 0.7485 0.35319 0.18683 0.0
H979 H 0.80594 0.37466 0.29384 0.0
H980 H 0.77046 0.43996 0.31721 0.0
H981 H 0.76724 0.39151 0.31096 0.0
H982 H 0.79005 0.40827 0.18045 0.0
H983 H 0.79372 0.45647 0.18658 0.0
C984 C 0.76154 0.32148 0.20316 0.0
C985 C 0.77831 0.31436 0.23005 0.0
C986 C 0.76121 0.34792 0.20837 0.0
C987 C 0.77716 0.3674 0.24107 0.0
C988 C 0.79331 0.35992 0.26857 0.0
C989 C 0.79406 0.33376 0.26292 0.0
C990 C 0.77476 0.43323 0.28726 0.0
C991 C 0.78251 0.45208 0.2525 0.0
C992 C 0.77297 0.40561 0.28371 0.0
C993 C 0.77827 0.3962 0.24516 0.0
C994 C 0.78558 0.41488 0.21039 0.0
C995 C 0.7879 0.44258 0.21408 0.0
loop_
_geom_bond_atom_site_label_1
_geom_bond_atom_site_label_2
_geom_bond_distance
_geom_bond_site_symmetry_2
_ccdc_geom_bond_type
Co0 N4 2.148 . S
Co0 N10 2.128 . S
Co0 N20 2.194 . S
Co0 O25 2.351 . S
Co0 O26 2.155 . S
Co0 O27 2.096 . S
C1 N4 1.301 . S
C1 N5 1.328 . S
C1 H6 0.930 . S
C2 C3 1.333 . S
C2 N4 1.317 . S
C2 H7 0.930 . S
C3 C2 1.333 . S
C3 N5 1.350 . S
C3 H29 0.931 . S
N4 Co0 2.148 . S
N4 C1 1.301 . S
N4 C2 1.317 . S
N5 C1 1.328 . S
N5 C3 1.350 . S
H6 C1 0.930 . S
H7 C2 0.930 . S
C8 O9 1.224 . S
C8 O27 1.247 . S
O9 C8 1.224 . S
N10 Co0 2.128 . S
N10 C11 1.355 . S
N10 C13 1.311 . S
C11 N10 1.355 . S
C11 C12 1.363 . S
C11 H23 0.929 . S
C12 C11 1.363 . S
C12 N14 1.375 . S
C12 H30 0.931 . S
C13 N10 1.311 . S
C13 N14 1.347 . S
C13 H24 0.929 . S
N14 C12 1.375 . S
N14 C13 1.347 . S
C15 C18 1.365 . S
C15 N20 1.328 . S
C15 H21 0.929 . S
C16 C17 1.362 . S
C16 C19 1.378 . S
C16 H31 0.929 . S
C17 C16 1.362 . S
C17 C18 1.366 . S
C18 C15 1.365 . S
C18 C17 1.366 . S
C18 H32 0.930 . S
C19 C16 1.378 . S
C19 N20 1.315 . S
C19 H22 0.930 . S
N20 Co0 2.194 . S
N20 C15 1.328 . S
N20 C19 1.315 . S
H21 C15 0.929 . S
H22 C19 0.930 . S
H23 C11 0.929 . S
H24 C13 0.929 . S
O25 Co0 2.351 . S
O25 C28 1.244 . S
O26 Co0 2.155 . S
O26 C28 1.240 . S
O27 Co0 2.096 . S
O27 C8 1.247 . S
C28 O25 1.244 . S
C28 O26 1.240 . S
H29 C3 0.931 . S
H30 C12 0.931 . S
H31 C16 0.929 . S
H32 C18 0.930 . S
Co33 N37 2.148 . S
Co33 N43 2.128 . S
Co33 N53 2.194 . S
Co33 O58 2.351 . S
Co33 O59 2.155 . S
Co33 O60 2.096 . S
C34 N37 1.301 . S
C34 N38 1.328 . S
C34 H39 0.930 . S
C35 C36 1.333 . S
C35 N37 1.317 . S
C35 H40 0.930 . S
C36 C35 1.333 . S
C36 N38 1.350 . S
C36 H62 0.931 . S
N37 Co33 2.148 . S
N37 C34 1.301 . S
N37 C35 1.317 . S
N38 C34 1.328 . S
N38 C36 1.350 . S
H39 C34 0.930 . S
H40 C35 0.930 . S
C41 O42 1.224 . S
C41 O60 1.247 . S
O42 C41 1.224 . S
N43 Co33 2.128 . S
N43 C44 1.355 . S
N43 C46 1.311 . S
C44 N43 1.355 . S
C44 C45 1.363 . S
C44 H56 0.929 . S
C45 C44 1.363 . S
C45 N47 1.375 . S
C45 H63 0.931 . S
C46 N43 1.311 . S
C46 N47 1.347 . S
C46 H57 0.929 . S
N47 C45 1.375 . S
N47 C46 1.347 . S
C48 C51 1.365 . S
C48 N53 1.328 . S
C48 H54 0.929 . S
C49 C50 1.362 . S
C49 C52 1.378 . S
C49 H64 0.929 . S
C50 C49 1.362 . S
C50 C51 1.366 . S
C51 C48 1.365 . S
C51 C50 1.366 . S
C51 H65 0.930 . S
C52 C49 1.378 . S
C52 N53 1.315 . S
C52 H55 0.930 . S
N53 Co33 2.194 . S
N53 C48 1.328 . S
N53 C52 1.315 . S
H54 C48 0.929 . S
H55 C52 0.930 . S
H56 C44 0.929 . S
H57 C46 0.929 . S
O58 Co33 2.351 . S
O58 C61 1.244 . S
O59 Co33 2.155 . S
O59 C61 1.240 . S
O60 Co33 2.096 . S
O60 C41 1.247 . S
C61 O58 1.244 . S
C61 O59 1.240 . S
H62 C36 0.931 . S
H63 C45 0.931 . S
H64 C49 0.929 . S
H65 C51 0.930 . S
Co66 N70 2.148 . S
Co66 N76 2.128 . S
Co66 N86 2.194 . S
Co66 O91 2.351 . S
Co66 O92 2.155 . S
Co66 O93 2.096 . S
C67 N70 1.301 . S
C67 N71 1.328 . S
C67 H72 0.930 . S
C68 C69 1.333 . S
C68 N70 1.317 . S
C68 H73 0.930 . S
C69 C68 1.333 . S
C69 N71 1.350 . S
C69 H95 0.931 . S
N70 Co66 2.148 . S
N70 C67 1.301 . S
N70 C68 1.317 . S
N71 C67 1.328 . S
N71 C69 1.350 . S
H72 C67 0.930 . S
H73 C68 0.930 . S
C74 O75 1.224 . S
C74 O93 1.247 . S
O75 C74 1.224 . S
N76 Co66 2.128 . S
N76 C77 1.355 . S
N76 C79 1.311 . S
C77 N76 1.355 . S
C77 C78 1.363 . S
C77 H89 0.929 . S
C78 C77 1.363 . S
C78 N80 1.375 . S
C78 H96 0.931 . S
C79 N76 1.311 . S
C79 N80 1.347 . S
C79 H90 0.929 . S
N80 C78 1.375 . S
N80 C79 1.347 . S
C81 C84 1.365 . S
C81 N86 1.328 . S
C81 H87 0.929 . S
C82 C83 1.362 . S
C82 C85 1.378 . S
C82 H97 0.929 . S
C83 C82 1.362 . S
C83 C84 1.366 . S
C84 C81 1.365 . S
C84 C83 1.366 . S
C84 H98 0.930 . S
C85 C82 1.378 . S
C85 N86 1.315 . S
C85 H88 0.930 . S
N86 Co66 2.194 . S
N86 C81 1.328 . S
N86 C85 1.315 . S
H87 C81 0.929 . S
H88 C85 0.930 . S
H89 C77 0.929 . S
H90 C79 0.929 . S
O91 Co66 2.351 . S
O91 C94 1.244 . S
O92 Co66 2.155 . S
O92 C94 1.240 . S
O93 Co66 2.096 . S
O93 C74 1.247 . S
C94 O91 1.244 . S
C94 O92 1.240 . S
H95 C69 0.931 . S
H96 C78 0.931 . S
H97 C82 0.929 . S
H98 C84 0.930 . S
Co99 N103 2.148 . S
Co99 N109 2.128 . S
Co99 N119 2.194 . S
Co99 O124 2.351 . S
Co99 O125 2.155 . S
Co99 O126 2.096 . S
C100 N103 1.301 . S
C100 N104 1.328 . S
C100 H105 0.930 . S
C101 C102 1.333 . S
C101 N103 1.317 . S
C101 H106 0.930 . S
C102 C101 1.333 . S
C102 N104 1.350 . S
C102 H128 0.931 . S
N103 Co99 2.148 . S
N103 C100 1.301 . S
N103 C101 1.317 . S
N104 C100 1.328 . S
N104 C102 1.350 . S
H105 C100 0.930 . S
H106 C101 0.930 . S
C107 O108 1.224 . S
C107 O126 1.247 . S
O108 C107 1.224 . S
N109 Co99 2.128 . S
N109 C110 1.355 . S
N109 C112 1.311 . S
C110 N109 1.355 . S
C110 C111 1.363 . S
C110 H122 0.929 . S
C111 C110 1.363 . S
C111 N113 1.375 . S
C111 H129 0.931 . S
C112 N109 1.311 . S
C112 N113 1.347 . S
C112 H123 0.929 . S
N113 C111 1.375 . S
N113 C112 1.347 . S
C114 C117 1.365 . S
C114 N119 1.328 . S
C114 H120 0.929 . S
C115 C116 1.362 . S
C115 C118 1.378 . S
C115 H130 0.929 . S
C116 C115 1.362 . S
C116 C117 1.366 . S
C117 C114 1.365 . S
C117 C116 1.366 . S
C117 H131 0.930 . S
C118 C115 1.378 . S
C118 N119 1.315 . S
C118 H121 0.930 . S
N119 Co99 2.194 . S
N119 C114 1.328 . S
N119 C118 1.315 . S
H120 C114 0.929 . S
H121 C118 0.930 . S
H122 C110 0.929 . S
H123 C112 0.929 . S
O124 Co99 2.351 . S
O124 C127 1.244 . S
O125 Co99 2.155 . S
O125 C127 1.240 . S
O126 Co99 2.096 . S
O126 C107 1.247 . S
C127 O124 1.244 . S
C127 O125 1.240 . S
H128 C102 0.931 . S
H129 C111 0.931 . S
H130 C115 0.929 . S
H131 C117 0.930 . S
Co132 N136 2.148 . S
Co132 N142 2.128 . S
Co132 N152 2.194 . S
Co132 O157 2.351 . S
Co132 O158 2.155 . S
Co132 O159 2.096 . S
C133 N136 1.301 . S
C133 N137 1.328 . S
C133 H138 0.930 . S
C134 C135 1.333 . S
C134 N136 1.317 . S
C134 H139 0.930 . S
C135 C134 1.333 . S
C135 N137 1.350 . S
C135 H161 0.931 . S
N136 Co132 2.148 . S
N136 C133 1.301 . S
N136 C134 1.317 . S
N137 C133 1.328 . S
N137 C135 1.350 . S
H138 C133 0.930 . S
H139 C134 0.930 . S
C140 O141 1.224 . S
C140 O159 1.247 . S
O141 C140 1.224 . S
N142 Co132 2.128 . S
N142 C143 1.355 . S
N142 C145 1.311 . S
C143 N142 1.355 . S
C143 C144 1.363 . S
C143 H155 0.929 . S
C144 C143 1.363 . S
C144 N146 1.375 . S
C144 H162 0.931 . S
C145 N142 1.311 . S
C145 N146 1.347 . S
C145 H156 0.929 . S
N146 C144 1.375 . S
N146 C145 1.347 . S
C147 C150 1.365 . S
C147 N152 1.328 . S
C147 H153 0.929 . S
C148 C149 1.362 . S
C148 C151 1.378 . S
C148 H163 0.929 . S
C149 C148 1.362 . S
C149 C150 1.366 . S
C150 C147 1.365 . S
C150 C149 1.366 . S
C150 H164 0.930 . S
C151 C148 1.378 . S
C151 N152 1.315 . S
C151 H154 0.930 . S
N152 Co132 2.194 . S
N152 C147 1.328 . S
N152 C151 1.315 . S
H153 C147 0.929 . S
H154 C151 0.930 . S
H155 C143 0.929 . S
H156 C145 0.929 . S
O157 Co132 2.351 . S
O157 C160 1.244 . S
O158 Co132 2.155 . S
O158 C160 1.240 . S
O159 Co132 2.096 . S
O159 C140 1.247 . S
C160 O157 1.244 . S
C160 O158 1.240 . S
H161 C135 0.931 . S
H162 C144 0.931 . S
H163 C148 0.929 . S
H164 C150 0.930 . S
Co165 N169 2.148 . S
Co165 N175 2.128 . S
Co165 N185 2.194 . S
Co165 O190 2.351 . S
Co165 O191 2.155 . S
Co165 O192 2.096 . S
C166 N169 1.301 . S
C166 N170 1.328 . S
C166 H171 0.930 . S
C167 C168 1.333 . S
C167 N169 1.317 . S
C167 H172 0.930 . S
C168 C167 1.333 . S
C168 N170 1.350 . S
C168 H194 0.931 . S
N169 Co165 2.148 . S
N169 C166 1.301 . S
N169 C167 1.317 . S
N170 C166 1.328 . S
N170 C168 1.350 . S
H171 C166 0.930 . S
H172 C167 0.930 . S
C173 O174 1.224 . S
C173 O192 1.247 . S
O174 C173 1.224 . S
N175 Co165 2.128 . S
N175 C176 1.355 . S
N175 C178 1.311 . S
C176 N175 1.355 . S
C176 C177 1.363 . S
C176 H188 0.929 . S
C177 C176 1.363 . S
C177 N179 1.375 . S
C177 H195 0.931 . S
C178 N175 1.311 . S
C178 N179 1.347 . S
C178 H189 0.929 . S
N179 C177 1.375 . S
N179 C178 1.347 . S
C180 C183 1.365 . S
C180 N185 1.328 . S
C180 H186 0.929 . S
C181 C182 1.362 . S
C181 C184 1.378 . S
C181 H196 0.929 . S
C182 C181 1.362 . S
C182 C183 1.366 . S
C183 C180 1.365 . S
C183 C182 1.366 . S
C183 H197 0.930 . S
C184 C181 1.378 . S
C184 N185 1.315 . S
C184 H187 0.930 . S
N185 Co165 2.194 . S
N185 C180 1.328 . S
N185 C184 1.315 . S
H186 C180 0.929 . S
H187 C184 0.930 . S
H188 C176 0.929 . S
H189 C178 0.929 . S
O190 Co165 2.351 . S
O190 C193 1.244 . S
O191 Co165 2.155 . S
O191 C193 1.240 . S
O192 Co165 2.096 . S
O192 C173 1.247 . S
C193 O190 1.244 . S
C193 O191 1.240 . S
H194 C168 0.931 . S
H195 C177 0.931 . S
H196 C181 0.929 . S
H197 C183 0.930 . S
Co198 N202 2.148 . S
Co198 N208 2.128 . S
Co198 N218 2.194 . S
Co198 O223 2.351 . S
Co198 O224 2.155 . S
Co198 O225 2.096 . S
C199 N202 1.301 . S
C199 N203 1.328 . S
C199 H204 0.930 . S
C200 C201 1.333 . S
C200 N202 1.317 . S
C200 H205 0.930 . S
C201 C200 1.333 . S
C201 N203 1.350 . S
C201 H227 0.931 . S
N202 Co198 2.148 . S
N202 C199 1.301 . S
N202 C200 1.317 . S
N203 C199 1.328 . S
N203 C201 1.350 . S
H204 C199 0.930 . S
H205 C200 0.930 . S
C206 O207 1.224 . S
C206 O225 1.247 . S
O207 C206 1.224 . S
N208 Co198 2.128 . S
N208 C209 1.355 . S
N208 C211 1.311 . S
C209 N208 1.355 . S
C209 C210 1.363 . S
C209 H221 0.929 . S
C210 C209 1.363 . S
C210 N212 1.375 . S
C210 H228 0.931 . S
C211 N208 1.311 . S
C211 N212 1.347 . S
C211 H222 0.929 . S
N212 C210 1.375 . S
N212 C211 1.347 . S
C213 C216 1.365 . S
C213 N218 1.328 . S
C213 H219 0.929 . S
C214 C215 1.362 . S
C214 C217 1.378 . S
C214 H229 0.929 . S
C215 C214 1.362 . S
C215 C216 1.366 . S
C216 C213 1.365 . S
C216 C215 1.366 . S
C216 H230 0.930 . S
C217 C214 1.378 . S
C217 N218 1.315 . S
C217 H220 0.930 . S
N218 Co198 2.194 . S
N218 C213 1.328 . S
N218 C217 1.315 . S
H219 C213 0.929 . S
H220 C217 0.930 . S
H221 C209 0.929 . S
H222 C211 0.929 . S
O223 Co198 2.351 . S
O223 C226 1.244 . S
O224 Co198 2.155 . S
O224 C226 1.240 . S
O225 Co198 2.096 . S
O225 C206 1.247 . S
C226 O223 1.244 . S
C226 O224 1.240 . S
H227 C201 0.931 . S
H228 C210 0.931 . S
H229 C214 0.929 . S
H230 C216 0.930 . S
Co231 N235 2.148 . S
Co231 N241 2.128 . S
Co231 N251 2.194 . S
Co231 O256 2.351 . S
Co231 O257 2.155 . S
Co231 O258 2.096 . S
C232 N235 1.301 . S
C232 N236 1.328 . S
C232 H237 0.930 . S
C233 C234 1.333 . S
C233 N235 1.317 . S
C233 H238 0.930 . S
C234 C233 1.333 . S
C234 N236 1.350 . S
C234 H260 0.931 . S
N235 Co231 2.148 . S
N235 C232 1.301 . S
N235 C233 1.317 . S
N236 C232 1.328 . S
N236 C234 1.350 . S
H237 C232 0.930 . S
H238 C233 0.930 . S
C239 O240 1.224 . S
C239 O258 1.247 . S
O240 C239 1.224 . S
N241 Co231 2.128 . S
N241 C242 1.355 . S
N241 C244 1.311 . S
C242 N241 1.355 . S
C242 C243 1.363 . S
C242 H254 0.929 . S
C243 C242 1.363 . S
C243 N245 1.375 . S
C243 H261 0.931 . S
C244 N241 1.311 . S
C244 N245 1.347 . S
C244 H255 0.929 . S
N245 C243 1.375 . S
N245 C244 1.347 . S
C246 C249 1.365 . S
C246 N251 1.328 . S
C246 H252 0.929 . S
C247 C248 1.362 . S
C247 C250 1.378 . S
C247 H262 0.929 . S
C248 C247 1.362 . S
C248 C249 1.366 . S
C249 C246 1.365 . S
C249 C248 1.366 . S
C249 H263 0.930 . S
C250 C247 1.378 . S
C250 N251 1.315 . S
C250 H253 0.930 . S
N251 Co231 2.194 . S
N251 C246 1.328 . S
N251 C250 1.315 . S
H252 C246 0.929 . S
H253 C250 0.930 . S
H254 C242 0.929 . S
H255 C244 0.929 . S
O256 Co231 2.351 . S
O256 C259 1.244 . S
O257 Co231 2.155 . S
O257 C259 1.240 . S
O258 Co231 2.096 . S
O258 C239 1.247 . S
C259 O256 1.244 . S
C259 O257 1.240 . S
H260 C234 0.931 . S
H261 C243 0.931 . S
H262 C247 0.929 . S
H263 C249 0.930 . S
Co264 N268 2.148 . S
Co264 N274 2.128 . S
Co264 N284 2.194 . S
Co264 O289 2.351 . S
Co264 O290 2.155 . S
Co264 O291 2.096 . S
C265 N268 1.301 . S
C265 N269 1.328 . S
C265 H270 0.930 . S
C266 C267 1.333 . S
C266 N268 1.317 . S
C266 H271 0.930 . S
C267 C266 1.333 . S
C267 N269 1.350 . S
C267 H293 0.931 . S
N268 Co264 2.148 . S
N268 C265 1.301 . S
N268 C266 1.317 . S
N269 C265 1.328 . S
N269 C267 1.350 . S
H270 C265 0.930 . S
H271 C266 0.930 . S
C272 O273 1.224 . S
C272 O291 1.247 . S
O273 C272 1.224 . S
N274 Co264 2.128 . S
N274 C275 1.355 . S
N274 C277 1.311 . S
C275 N274 1.355 . S
C275 C276 1.363 . S
C275 H287 0.929 . S
C276 C275 1.363 . S
C276 N278 1.375 . S
C276 H294 0.931 . S
C277 N274 1.311 . S
C277 N278 1.347 . S
C277 H288 0.929 . S
N278 C276 1.375 . S
N278 C277 1.347 . S
C279 C282 1.365 . S
C279 N284 1.328 . S
C279 H285 0.929 . S
C280 C281 1.362 . S
C280 C283 1.378 . S
C280 H295 0.929 . S
C281 C280 1.362 . S
C281 C282 1.366 . S
C282 C279 1.365 . S
C282 C281 1.366 . S
C282 H296 0.930 . S
C283 C280 1.378 . S
C283 N284 1.315 . S
C283 H286 0.930 . S
N284 Co264 2.194 . S
N284 C279 1.328 . S
N284 C283 1.315 . S
H285 C279 0.929 . S
H286 C283 0.930 . S
H287 C275 0.929 . S
H288 C277 0.929 . S
O289 Co264 2.351 . S
O289 C292 1.244 . S
O290 Co264 2.155 . S
O290 C292 1.240 . S
O291 Co264 2.096 . S
O291 C272 1.247 . S
C292 O289 1.244 . S
C292 O290 1.240 . S
H293 C267 0.931 . S
H294 C276 0.931 . S
H295 C280 0.929 . S
H296 C282 0.930 . S
Co297 N301 2.148 . S
Co297 N307 2.128 . S
Co297 N317 2.194 . S
Co297 O322 2.351 . S
Co297 O323 2.155 . S
Co297 O324 2.096 . S
C298 N301 1.301 . S
C298 N302 1.328 . S
C298 H303 0.930 . S
C299 C300 1.333 . S
C299 N301 1.317 . S
C299 H304 0.930 . S
C300 C299 1.333 . S
C300 N302 1.350 . S
C300 H326 0.931 . S
N301 Co297 2.148 . S
N301 C298 1.301 . S
N301 C299 1.317 . S
N302 C298 1.328 . S
N302 C300 1.350 . S
H303 C298 0.930 . S
H304 C299 0.930 . S
C305 O306 1.224 . S
C305 O324 1.247 . S
O306 C305 1.224 . S
N307 Co297 2.128 . S
N307 C308 1.355 . S
N307 C310 1.311 . S
C308 N307 1.355 . S
C308 C309 1.363 . S
C308 H320 0.929 . S
C309 C308 1.363 . S
C309 N311 1.375 . S
C309 H327 0.931 . S
C310 N307 1.311 . S
C310 N311 1.347 . S
C310 H321 0.929 . S
N311 C309 1.375 . S
N311 C310 1.347 . S
C312 C315 1.365 . S
C312 N317 1.328 . S
C312 H318 0.929 . S
C313 C314 1.362 . S
C313 C316 1.378 . S
C313 H328 0.929 . S
C314 C313 1.362 . S
C314 C315 1.366 . S
C315 C312 1.365 . S
C315 C314 1.366 . S
C315 H329 0.930 . S
C316 C313 1.378 . S
C316 N317 1.315 . S
C316 H319 0.930 . S
N317 Co297 2.194 . S
N317 C312 1.328 . S
N317 C316 1.315 . S
H318 C312 0.929 . S
H319 C316 0.930 . S
H320 C308 0.929 . S
H321 C310 0.929 . S
O322 Co297 2.351 . S
O322 C325 1.244 . S
O323 Co297 2.155 . S
O323 C325 1.240 . S
O324 Co297 2.096 . S
O324 C305 1.247 . S
C325 O322 1.244 . S
C325 O323 1.240 . S
H326 C300 0.931 . S
H327 C309 0.931 . S
H328 C313 0.929 . S
H329 C315 0.930 . S
Co330 N334 2.148 . S
Co330 N340 2.128 . S
Co330 N350 2.194 . S
Co330 O355 2.351 . S
Co330 O356 2.155 . S
Co330 O357 2.096 . S
C331 N334 1.301 . S
C331 N335 1.328 . S
C331 H336 0.930 . S
C332 C333 1.333 . S
C332 N334 1.317 . S
C332 H337 0.930 . S
C333 C332 1.333 . S
C333 N335 1.350 . S
C333 H359 0.931 . S
N334 Co330 2.148 . S
N334 C331 1.301 . S
N334 C332 1.317 . S
N335 C331 1.328 . S
N335 C333 1.350 . S
H336 C331 0.930 . S
H337 C332 0.930 . S
C338 O339 1.224 . S
C338 O357 1.247 . S
O339 C338 1.224 . S
N340 Co330 2.128 . S
N340 C341 1.355 . S
N340 C343 1.311 . S
C341 N340 1.355 . S
C341 C342 1.363 . S
C341 H353 0.929 . S
C342 C341 1.363 . S
C342 N344 1.375 . S
C342 H360 0.931 . S
C343 N340 1.311 . S
C343 N344 1.347 . S
C343 H354 0.929 . S
N344 C342 1.375 . S
N344 C343 1.347 . S
C345 C348 1.365 . S
C345 N350 1.328 . S
C345 H351 0.929 . S
C346 C347 1.362 . S
C346 C349 1.378 . S
C346 H361 0.929 . S
C347 C346 1.362 . S
C347 C348 1.366 . S
C348 C345 1.365 . S
C348 C347 1.366 . S
C348 H362 0.930 . S
C349 C346 1.378 . S
C349 N350 1.315 . S
C349 H352 0.930 . S
N350 Co330 2.194 . S
N350 C345 1.328 . S
N350 C349 1.315 . S
H351 C345 0.929 . S
H352 C349 0.930 . S
H353 C341 0.929 . S
H354 C343 0.929 . S
O355 Co330 2.351 . S
O355 C358 1.244 . S
O356 Co330 2.155 . S
O356 C358 1.240 . S
O357 Co330 2.096 . S
O357 C338 1.247 . S
C358 O355 1.244 . S
C358 O356 1.240 . S
H359 C333 0.931 . S
H360 C342 0.931 . S
H361 C346 0.929 . S
H362 C348 0.930 . S
Co363 N367 2.148 . S
Co363 N373 2.128 . S
Co363 N383 2.194 . S
Co363 O388 2.351 . S
Co363 O389 2.155 . S
Co363 O390 2.096 . S
C364 N367 1.301 . S
C364 N368 1.328 . S
C364 H369 0.930 . S
C365 C366 1.333 . S
C365 N367 1.317 . S
C365 H370 0.930 . S
C366 C365 1.333 . S
C366 N368 1.350 . S
C366 H392 0.931 . S
N367 Co363 2.148 . S
N367 C364 1.301 . S
N367 C365 1.317 . S
N368 C364 1.328 . S
N368 C366 1.350 . S
H369 C364 0.930 . S
H370 C365 0.930 . S
C371 O372 1.224 . S
C371 O390 1.247 . S
O372 C371 1.224 . S
N373 Co363 2.128 . S
N373 C374 1.355 . S
N373 C376 1.311 . S
C374 N373 1.355 . S
C374 C375 1.363 . S
C374 H386 0.929 . S
C375 C374 1.363 . S
C375 N377 1.375 . S
C375 H393 0.931 . S
C376 N373 1.311 . S
C376 N377 1.347 . S
C376 H387 0.929 . S
N377 C375 1.375 . S
N377 C376 1.347 . S
C378 C381 1.365 . S
C378 N383 1.328 . S
C378 H384 0.929 . S
C379 C380 1.362 . S
C379 C382 1.378 . S
C379 H394 0.929 . S
C380 C379 1.362 . S
C380 C381 1.366 . S
C381 C378 1.365 . S
C381 C380 1.366 . S
C381 H395 0.930 . S
C382 C379 1.378 . S
C382 N383 1.315 . S
C382 H385 0.930 . S
N383 Co363 2.194 . S
N383 C378 1.328 . S
N383 C382 1.315 . S
H384 C378 0.929 . S
H385 C382 0.930 . S
H386 C374 0.929 . S
H387 C376 0.929 . S
O388 Co363 2.351 . S
O388 C391 1.244 . S
O389 Co363 2.155 . S
O389 C391 1.240 . S
O390 Co363 2.096 . S
O390 C371 1.247 . S
C391 O388 1.244 . S
C391 O389 1.240 . S
H392 C366 0.931 . S
H393 C375 0.931 . S
H394 C379 0.929 . S
H395 C381 0.930 . S
H396 C404 0.950 . S
H397 C409 0.950 . S
H398 C406 0.950 . S
H399 C408 0.950 . S
H400 C410 0.950 . S
H401 C412 0.950 . S
H402 C414 0.950 . S
H403 C415 0.950 . S
C404 H396 0.950 . S
C404 C405 1.386 . S
C404 C406 1.391 . S
C405 C404 1.386 . S
C405 C409 1.393 . S
C406 H398 0.950 . S
C406 C404 1.391 . S
C406 C407 1.400 . S
C407 C406 1.400 . S
C407 C408 1.398 . S
C407 C413 1.491 . S
C408 H399 0.950 . S
C408 C407 1.398 . S
C408 C409 1.391 . S
C409 H397 0.950 . S
C409 C405 1.393 . S
C409 C408 1.391 . S
C410 H400 0.950 . S
C410 C411 1.386 . S
C410 C412 1.391 . S
C411 C410 1.386 . S
C411 C415 1.393 . S
C412 H401 0.950 . S
C412 C410 1.391 . S
C412 C413 1.400 . S
C413 C407 1.491 . S
C413 C412 1.400 . S
C413 C414 1.398 . S
C414 H402 0.950 . S
C414 C413 1.398 . S
C414 C415 1.391 . S
C415 H403 0.950 . S
C415 C411 1.393 . S
C415 C414 1.391 . S
H416 C424 0.950 . S
H417 C429 0.950 . S
H418 C426 0.950 . S
H419 C428 0.950 . S
H420 C430 0.950 . S
H421 C432 0.950 . S
H422 C434 0.950 . S
H423 C435 0.950 . S
C424 H416 0.950 . S
C424 C425 1.386 . S
C424 C426 1.391 . S
C425 C424 1.386 . S
C425 C429 1.393 . S
C426 H418 0.950 . S
C426 C424 1.391 . S
C426 C427 1.400 . S
C427 C426 1.400 . S
C427 C428 1.398 . S
C427 C433 1.491 1_655 S
C428 H419 0.950 . S
C428 C427 1.398 . S
C428 C429 1.391 . S
C429 H417 0.950 . S
C429 C425 1.393 . S
C429 C428 1.391 . S
C430 H420 0.950 . S
C430 C431 1.386 . S
C430 C432 1.391 . S
C431 C430 1.386 . S
C431 C435 1.393 . S
C432 H421 0.950 . S
C432 C430 1.391 . S
C432 C433 1.400 . S
C433 C427 1.491 1_455 S
C433 C432 1.400 . S
C433 C434 1.398 . S
C434 H422 0.950 . S
C434 C433 1.398 . S
C434 C435 1.391 . S
C435 H423 0.950 . S
C435 C431 1.393 . S
C435 C434 1.391 . S
H436 C444 0.950 . S
H437 C449 0.950 . S
H438 C446 0.950 . S
H439 C448 0.950 . S
H440 C450 0.950 . S
H441 C452 0.950 . S
H442 C454 0.950 . S
H443 C455 0.950 . S
C444 H436 0.950 . S
C444 C445 1.386 . S
C444 C446 1.391 . S
C445 C444 1.386 . S
C445 C449 1.393 . S
C446 H438 0.950 . S
C446 C444 1.391 . S
C446 C447 1.400 . S
C447 C446 1.400 . S
C447 C448 1.398 . S
C447 C453 1.491 1_545 S
C448 H439 0.950 . S
C448 C447 1.398 . S
C448 C449 1.391 . S
C449 H437 0.950 . S
C449 C445 1.393 . S
C449 C448 1.391 . S
C450 H440 0.950 . S
C450 C451 1.386 . S
C450 C452 1.391 . S
C451 C450 1.386 . S
C451 C455 1.393 . S
C452 H441 0.950 . S
C452 C450 1.391 . S
C452 C453 1.400 . S
C453 C447 1.491 1_565 S
C453 C452 1.400 . S
C453 C454 1.398 . S
C454 H442 0.950 . S
C454 C453 1.398 . S
C454 C455 1.391 . S
C455 H443 0.950 . S
C455 C451 1.393 . S
C455 C454 1.391 . S
H456 C464 0.950 . S
H457 C469 0.950 . S
H458 C466 0.950 . S
H459 C468 0.950 . S
H460 C470 0.950 . S
H461 C472 0.950 . S
H462 C474 0.950 . S
H463 C475 0.950 . S
C464 H456 0.950 . S
C464 C465 1.386 . S
C464 C466 1.391 . S
C465 C464 1.386 . S
C465 C469 1.393 . S
C466 H458 0.950 . S
C466 C464 1.391 . S
C466 C467 1.400 . S
C467 C466 1.400 . S
C467 C468 1.398 . S
C467 C473 1.491 . S
C468 H459 0.950 . S
C468 C467 1.398 . S
C468 C469 1.391 . S
C469 H457 0.950 . S
C469 C465 1.393 . S
C469 C468 1.391 . S
C470 H460 0.950 . S
C470 C471 1.386 . S
C470 C472 1.391 . S
C471 C470 1.386 . S
C471 C475 1.393 . S
C472 H461 0.950 . S
C472 C470 1.391 . S
C472 C473 1.400 . S
C473 C467 1.491 . S
C473 C472 1.400 . S
C473 C474 1.398 . S
C474 H462 0.950 . S
C474 C473 1.398 . S
C474 C475 1.391 . S
C475 H463 0.950 . S
C475 C471 1.393 . S
C475 C474 1.391 . S
H476 C484 0.950 . S
H477 C489 0.950 . S
H478 C486 0.950 . S
H479 C488 0.950 . S
H480 C490 0.950 . S
H481 C492 0.950 . S
H482 C494 0.950 . S
H483 C495 0.950 . S
C484 H476 0.950 . S
C484 C485 1.386 . S
C484 C486 1.391 . S
C485 C484 1.386 . S
C485 C489 1.393 . S
C486 H478 0.950 . S
C486 C484 1.391 . S
C486 C487 1.400 . S
C487 C486 1.400 . S
C487 C488 1.398 . S
C487 C493 1.491 1_455 S
C488 H479 0.950 . S
C488 C487 1.398 . S
C488 C489 1.391 . S
C489 H477 0.950 . S
C489 C485 1.393 . S
C489 C488 1.391 . S
C490 H480 0.950 . S
C490 C491 1.386 . S
C490 C492 1.391 . S
C491 C490 1.386 . S
C491 C495 1.393 . S
C492 H481 0.950 . S
C492 C490 1.391 . S
C492 C493 1.400 . S
C493 C487 1.491 1_655 S
C493 C492 1.400 . S
C493 C494 1.398 . S
C494 H482 0.950 . S
C494 C493 1.398 . S
C494 C495 1.391 . S
C495 H483 0.950 . S
C495 C491 1.393 . S
C495 C494 1.391 . S
H496 C504 0.950 . S
H497 C509 0.950 . S
H498 C506 0.950 . S
H499 C508 0.950 . S
H500 C510 0.950 . S
H501 C512 0.950 . S
H502 C514 0.950 . S
H503 C515 0.950 . S
C504 H496 0.950 . S
C504 C505 1.386 . S
C504 C506 1.391 . S
C505 C504 1.386 . S
C505 C509 1.393 . S
C506 H498 0.950 . S
C506 C504 1.391 . S
C506 C507 1.400 . S
C507 C506 1.400 . S
C507 C508 1.398 . S
C507 C513 1.491 1_565 S
C508 H499 0.950 . S
C508 C507 1.398 . S
C508 C509 1.391 . S
C509 H497 0.950 . S
C509 C505 1.393 . S
C509 C508 1.391 . S
C510 H500 0.950 . S
C510 C511 1.386 . S
C510 C512 1.391 . S
C511 C510 1.386 . S
C511 C515 1.393 . S
C512 H501 0.950 . S
C512 C510 1.391 . S
C512 C513 1.400 . S
C513 C507 1.491 1_545 S
C513 C512 1.400 . S
C513 C514 1.398 . S
C514 H502 0.950 . S
C514 C513 1.398 . S
C514 C515 1.391 . S
C515 H503 0.950 . S
C515 C511 1.393 . S
C515 C514 1.391 . S
H516 C524 0.950 . S
H517 C529 0.950 . S
H518 C526 0.950 . S
H519 C528 0.950 . S
H520 C530 0.950 . S
H521 C532 0.950 . S
H522 C534 0.950 . S
H523 C535 0.950 . S
C524 H516 0.950 . S
C524 C525 1.386 . S
C524 C526 1.391 . S
C525 C524 1.386 . S
C525 C529 1.393 . S
C526 H518 0.950 . S
C526 C524 1.391 . S
C526 C527 1.400 . S
C527 C526 1.400 . S
C527 C528 1.398 . S
C527 C533 1.491 1_556 S
C528 H519 0.950 . S
C528 C527 1.398 . S
C528 C529 1.391 . S
C529 H517 0.950 . S
C529 C525 1.393 . S
C529 C528 1.391 . S
C530 H520 0.950 . S
C530 C531 1.386 . S
C530 C532 1.391 . S
C531 C530 1.386 . S
C531 C535 1.393 . S
C532 H521 0.950 . S
C532 C530 1.391 . S
C532 C533 1.400 . S
C533 C527 1.491 1_554 S
C533 C532 1.400 . S
C533 C534 1.398 . S
C534 H522 0.950 . S
C534 C533 1.398 . S
C534 C535 1.391 . S
C535 H523 0.950 . S
C535 C531 1.393 . S
C535 C534 1.391 . S
H536 C544 0.950 . S
H537 C549 0.950 . S
H538 C546 0.950 . S
H539 C548 0.950 . S
H540 C550 0.950 . S
H541 C552 0.950 . S
H542 C554 0.950 . S
H543 C555 0.950 . S
C544 H536 0.950 . S
C544 C545 1.386 . S
C544 C546 1.391 . S
C545 C544 1.386 . S
C545 C549 1.393 . S
C546 H538 0.950 . S
C546 C544 1.391 . S
C546 C547 1.400 . S
C547 C546 1.400 . S
C547 C548 1.398 . S
C547 C553 1.491 . S
C548 H539 0.950 . S
C548 C547 1.398 . S
C548 C549 1.391 . S
C549 H537 0.950 . S
C549 C545 1.393 . S
C549 C548 1.391 . S
C550 H540 0.950 . S
C550 C551 1.386 . S
C550 C552 1.391 . S
C551 C550 1.386 . S
C551 C555 1.393 . S
C552 H541 0.950 . S
C552 C550 1.391 . S
C552 C553 1.400 . S
C553 C547 1.491 . S
C553 C552 1.400 . S
C553 C554 1.398 . S
C554 H542 0.950 . S
C554 C553 1.398 . S
C554 C555 1.391 . S
C555 H543 0.950 . S
C555 C551 1.393 . S
C555 C554 1.391 . S
H556 C564 0.950 . S
H557 C569 0.950 . S
H558 C566 0.950 . S
H559 C568 0.950 . S
H560 C570 0.950 . S
H561 C572 0.950 . S
H562 C574 0.950 . S
H563 C575 0.950 . S
C564 H556 0.950 . S
C564 C565 1.386 . S
C564 C566 1.391 . S
C565 C564 1.386 . S
C565 C569 1.393 . S
C566 H558 0.950 . S
C566 C564 1.391 . S
C566 C567 1.400 . S
C567 C566 1.400 . S
C567 C568 1.398 . S
C567 C573 1.491 1_554 S
C568 H559 0.950 . S
C568 C567 1.398 . S
C568 C569 1.391 . S
C569 H557 0.950 . S
C569 C565 1.393 . S
C569 C568 1.391 . S
C570 H560 0.950 . S
C570 C571 1.386 . S
C570 C572 1.391 . S
C571 C570 1.386 . S
C571 C575 1.393 . S
C572 H561 0.950 . S
C572 C570 1.391 . S
C572 C573 1.400 . S
C573 C567 1.491 1_556 S
C573 C572 1.400 . S
C573 C574 1.398 . S
C574 H562 0.950 . S
C574 C573 1.398 . S
C574 C575 1.391 . S
C575 H563 0.950 . S
C575 C571 1.393 . S
C575 C574 1.391 . S
H576 C584 0.950 . S
H577 C589 0.950 . S
H578 C586 0.950 . S
H579 C588 0.950 . S
H580 C590 0.950 . S
H581 C592 0.950 . S
H582 C594 0.950 . S
H583 C595 0.950 . S
C584 H576 0.950 . S
C584 C585 1.386 . S
C584 C586 1.391 . S
C585 C584 1.386 . S
C585 C589 1.393 . S
C586 H578 0.950 . S
C586 C584 1.391 . S
C586 C587 1.400 . S
C587 C586 1.400 . S
C587 C588 1.398 . S
C587 C593 1.491 . S
C588 H579 0.950 . S
C588 C587 1.398 . S
C588 C589 1.391 . S
C589 H577 0.950 . S
C589 C585 1.393 . S
C589 C588 1.391 . S
C590 H580 0.950 . S
C590 C591 1.386 . S
C590 C592 1.391 . S
C591 C590 1.386 . S
C591 C595 1.393 . S
C592 H581 0.950 . S
C592 C590 1.391 . S
C592 C593 1.400 . S
C593 C587 1.491 . S
C593 C592 1.400 . S
C593 C594 1.398 . S
C594 H582 0.950 . S
C594 C593 1.398 . S
C594 C595 1.391 . S
C595 H583 0.950 . S
C595 C591 1.393 . S
C595 C594 1.391 . S
H596 C604 0.950 . S
H597 C609 0.950 . S
H598 C606 0.950 . S
H599 C608 0.950 . S
H600 C610 0.950 . S
H601 C612 0.950 . S
H602 C614 0.950 . S
H603 C615 0.950 . S
C604 H596 0.950 . S
C604 C605 1.386 . S
C604 C606 1.391 . S
C605 C604 1.386 . S
C605 C609 1.393 . S
C606 H598 0.950 . S
C606 C604 1.391 . S
C606 C607 1.400 . S
C607 C606 1.400 . S
C607 C608 1.398 . S
C607 C613 1.491 1_556 S
C608 H599 0.950 . S
C608 C607 1.398 . S
C608 C609 1.391 . S
C609 H597 0.950 . S
C609 C605 1.393 . S
C609 C608 1.391 . S
C610 H600 0.950 . S
C610 C611 1.386 . S
C610 C612 1.391 . S
C611 C610 1.386 . S
C611 C615 1.393 . S
C612 H601 0.950 . S
C612 C610 1.391 . S
C612 C613 1.400 . S
C613 C607 1.491 1_554 S
C613 C612 1.400 . S
C613 C614 1.398 . S
C614 H602 0.950 . S
C614 C613 1.398 . S
C614 C615 1.391 . S
C615 H603 0.950 . S
C615 C611 1.393 . S
C615 C614 1.391 . S
H616 C624 0.950 . S
H617 C629 0.950 . S
H618 C626 0.950 . S
H619 C628 0.950 . S
H620 C630 0.950 . S
H621 C632 0.950 . S
H622 C634 0.950 . S
H623 C635 0.950 . S
C624 H616 0.950 . S
C624 C625 1.386 . S
C624 C626 1.391 . S
C625 C624 1.386 . S
C625 C629 1.393 . S
C626 H618 0.950 . S
C626 C624 1.391 . S
C626 C627 1.400 . S
C627 C626 1.400 . S
C627 C628 1.398 . S
C627 C633 1.491 . S
C628 H619 0.950 . S
C628 C627 1.398 . S
C628 C629 1.391 . S
C629 H617 0.950 . S
C629 C625 1.393 . S
C629 C628 1.391 . S
C630 H620 0.950 . S
C630 C631 1.386 . S
C630 C632 1.391 . S
C631 C630 1.386 . S
C631 C635 1.393 . S
C632 H621 0.950 . S
C632 C630 1.391 . S
C632 C633 1.400 . S
C633 C627 1.491 . S
C633 C632 1.400 . S
C633 C634 1.398 . S
C634 H622 0.950 . S
C634 C633 1.398 . S
C634 C635 1.391 . S
C635 H623 0.950 . S
C635 C631 1.393 . S
C635 C634 1.391 . S
H636 C644 0.950 . S
H637 C649 0.950 . S
H638 C646 0.950 . S
H639 C648 0.950 . S
H640 C650 0.950 . S
H641 C652 0.950 . S
H642 C654 0.950 . S
H643 C655 0.950 . S
C644 H636 0.950 . S
C644 C645 1.386 . S
C644 C646 1.391 . S
C645 C644 1.386 . S
C645 C649 1.393 . S
C646 H638 0.950 . S
C646 C644 1.391 . S
C646 C647 1.400 . S
C647 C646 1.400 . S
C647 C648 1.398 . S
C647 C653 1.491 1_554 S
C648 H639 0.950 . S
C648 C647 1.398 . S
C648 C649 1.391 . S
C649 H637 0.950 . S
C649 C645 1.393 . S
C649 C648 1.391 . S
C650 H640 0.950 . S
C650 C651 1.386 . S
C650 C652 1.391 . S
C651 C650 1.386 . S
C651 C655 1.393 . S
C652 H641 0.950 . S
C652 C650 1.391 . S
C652 C653 1.400 . S
C653 C647 1.491 1_556 S
C653 C652 1.400 . S
C653 C654 1.398 . S
C654 H642 0.950 . S
C654 C653 1.398 . S
C654 C655 1.391 . S
C655 H643 0.950 . S
C655 C651 1.393 . S
C655 C654 1.391 . S
H656 C664 0.950 . S
H657 C669 0.950 . S
H658 C666 0.950 . S
H659 C668 0.950 . S
H660 C670 0.950 . S
H661 C672 0.950 . S
H662 C674 0.950 . S
H663 C675 0.950 . S
C664 H656 0.950 . S
C664 C665 1.386 . S
C664 C666 1.391 . S
C665 C664 1.386 . S
C665 C669 1.393 . S
C666 H658 0.950 . S
C666 C664 1.391 . S
C666 C667 1.400 . S
C667 C666 1.400 . S
C667 C668 1.398 . S
C667 C673 1.491 . S
C668 H659 0.950 . S
C668 C667 1.398 . S
C668 C669 1.391 . S
C669 H657 0.950 . S
C669 C665 1.393 . S
C669 C668 1.391 . S
C670 H660 0.950 . S
C670 C671 1.386 . S
C670 C672 1.391 . S
C671 C670 1.386 . S
C671 C675 1.393 . S
C672 H661 0.950 . S
C672 C670 1.391 . S
C672 C673 1.400 . S
C673 C667 1.491 . S
C673 C672 1.400 . S
C673 C674 1.398 . S
C674 H662 0.950 . S
C674 C673 1.398 . S
C674 C675 1.391 . S
C675 H663 0.950 . S
C675 C671 1.393 . S
C675 C674 1.391 . S
H676 C684 0.950 . S
H677 C689 0.950 . S
H678 C686 0.950 . S
H679 C688 0.950 . S
H680 C690 0.950 . S
H681 C692 0.950 . S
H682 C694 0.950 . S
H683 C695 0.950 . S
C684 H676 0.950 . S
C684 C685 1.386 . S
C684 C686 1.391 . S
C685 C684 1.386 . S
C685 C689 1.393 . S
C686 H678 0.950 . S
C686 C684 1.391 . S
C686 C687 1.400 . S
C687 C686 1.400 . S
C687 C688 1.398 . S
C687 C693 1.491 1_556 S
C688 H679 0.950 . S
C688 C687 1.398 . S
C688 C689 1.391 . S
C689 H677 0.950 . S
C689 C685 1.393 . S
C689 C688 1.391 . S
C690 H680 0.950 . S
C690 C691 1.386 . S
C690 C692 1.391 . S
C691 C690 1.386 . S
C691 C695 1.393 . S
C692 H681 0.950 . S
C692 C690 1.391 . S
C692 C693 1.400 . S
C693 C687 1.491 1_554 S
C693 C692 1.400 . S
C693 C694 1.398 . S
C694 H682 0.950 . S
C694 C693 1.398 . S
C694 C695 1.391 . S
C695 H683 0.950 . S
C695 C691 1.393 . S
C695 C694 1.391 . S
H696 C704 0.950 . S
H697 C709 0.950 . S
H698 C706 0.950 . S
H699 C708 0.950 . S
H700 C710 0.950 . S
H701 C712 0.950 . S
H702 C714 0.950 . S
H703 C715 0.950 . S
C704 H696 0.950 . S
C704 C705 1.386 . S
C704 C706 1.391 . S
C705 C704 1.386 . S
C705 C709 1.393 . S
C706 H698 0.950 . S
C706 C704 1.391 . S
C706 C707 1.400 . S
C707 C706 1.400 . S
C707 C708 1.398 . S
C707 C713 1.491 . S
C708 H699 0.950 . S
C708 C707 1.398 . S
C708 C709 1.391 . S
C709 H697 0.950 . S
C709 C705 1.393 . S
C709 C708 1.391 . S
C710 H700 0.950 . S
C710 C711 1.386 . S
C710 C712 1.391 . S
C711 C710 1.386 . S
C711 C715 1.393 . S
C712 H701 0.950 . S
C712 C710 1.391 . S
C712 C713 1.400 . S
C713 C707 1.491 . S
C713 C712 1.400 . S
C713 C714 1.398 . S
C714 H702 0.950 . S
C714 C713 1.398 . S
C714 C715 1.391 . S
C715 H703 0.950 . S
C715 C711 1.393 . S
C715 C714 1.391 . S
H716 C724 0.950 . S
H717 C729 0.950 . S
H718 C726 0.950 . S
H719 C728 0.950 . S
H720 C730 0.950 . S
H721 C732 0.950 . S
H722 C734 0.950 . S
H723 C735 0.950 . S
C724 H716 0.950 . S
C724 C725 1.386 . S
C724 C726 1.391 . S
C725 C724 1.386 . S
C725 C729 1.393 . S
C726 H718 0.950 . S
C726 C724 1.391 . S
C726 C727 1.400 . S
C727 C726 1.400 . S
C727 C728 1.398 . S
C727 C733 1.491 1_556 S
C728 H719 0.950 . S
C728 C727 1.398 . S
C728 C729 1.391 . S
C729 H717 0.950 . S
C729 C725 1.393 . S
C729 C728 1.391 . S
C730 H720 0.950 . S
C730 C731 1.386 . S
C730 C732 1.391 . S
C731 C730 1.386 . S
C731 C735 1.393 . S
C732 H721 0.950 . S
C732 C730 1.391 . S
C732 C733 1.400 . S
C733 C727 1.491 1_554 S
C733 C732 1.400 . S
C733 C734 1.398 . S
C734 H722 0.950 . S
C734 C733 1.398 . S
C734 C735 1.391 . S
C735 H723 0.950 . S
C735 C731 1.393 . S
C735 C734 1.391 . S
H736 C744 0.950 . S
H737 C749 0.950 . S
H738 C746 0.950 . S
H739 C748 0.950 . S
H740 C750 0.950 . S
H741 C752 0.950 . S
H742 C754 0.950 . S
H743 C755 0.950 . S
C744 H736 0.950 . S
C744 C745 1.386 . S
C744 C746 1.391 . S
C745 C744 1.386 . S
C745 C749 1.393 . S
C746 H738 0.950 . S
C746 C744 1.391 . S
C746 C747 1.400 . S
C747 C746 1.400 . S
C747 C748 1.398 . S
C747 C753 1.491 . S
C748 H739 0.950 . S
C748 C747 1.398 . S
C748 C749 1.391 . S
C749 H737 0.950 . S
C749 C745 1.393 . S
C749 C748 1.391 . S
C750 H740 0.950 . S
C750 C751 1.386 . S
C750 C752 1.391 . S
C751 C750 1.386 . S
C751 C755 1.393 . S
C752 H741 0.950 . S
C752 C750 1.391 . S
C752 C753 1.400 . S
C753 C747 1.491 . S
C753 C752 1.400 . S
C753 C754 1.398 . S
C754 H742 0.950 . S
C754 C753 1.398 . S
C754 C755 1.391 . S
C755 H743 0.950 . S
C755 C751 1.393 . S
C755 C754 1.391 . S
H756 C764 0.950 . S
H757 C769 0.950 . S
H758 C766 0.950 . S
H759 C768 0.950 . S
H760 C770 0.950 . S
H761 C772 0.950 . S
H762 C774 0.950 . S
H763 C775 0.950 . S
C764 H756 0.950 . S
C764 C765 1.386 . S
C764 C766 1.391 . S
C765 C764 1.386 . S
C765 C769 1.393 . S
C766 H758 0.950 . S
C766 C764 1.391 . S
C766 C767 1.400 . S
C767 C766 1.400 . S
C767 C768 1.398 . S
C767 C773 1.491 . S
C768 H759 0.950 . S
C768 C767 1.398 . S
C768 C769 1.391 . S
C769 H757 0.950 . S
C769 C765 1.393 . S
C769 C768 1.391 . S
C770 H760 0.950 . S
C770 C771 1.386 . S
C770 C772 1.391 . S
C771 C770 1.386 . S
C771 C775 1.393 . S
C772 H761 0.950 . S
C772 C770 1.391 . S
C772 C773 1.400 . S
C773 C767 1.491 . S
C773 C772 1.400 . S
C773 C774 1.398 . S
C774 H762 0.950 . S
C774 C773 1.398 . S
C774 C775 1.391 . S
C775 H763 0.950 . S
C775 C771 1.393 . S
C775 C774 1.391 . S
H776 C784 0.950 . S
H777 C789 0.950 . S
H778 C786 0.950 . S
H779 C788 0.950 . S
H780 C790 0.950 . S
H781 C792 0.950 . S
H782 C794 0.950 . S
H783 C795 0.950 . S
C784 H776 0.950 . S
C784 C785 1.386 . S
C784 C786 1.391 . S
C785 C784 1.386 . S
C785 C789 1.393 . S
C786 H778 0.950 . S
C786 C784 1.391 . S
C786 C787 1.400 . S
C787 C786 1.400 . S
C787 C788 1.398 . S
C787 C793 1.491 . S
C788 H779 0.950 . S
C788 C787 1.398 . S
C788 C789 1.391 . S
C789 H777 0.950 . S
C789 C785 1.393 . S
C789 C788 1.391 . S
C790 H780 0.950 . S
C790 C791 1.386 . S
C790 C792 1.391 . S
C791 C790 1.386 . S
C791 C795 1.393 . S
C792 H781 0.950 . S
C792 C790 1.391 . S
C792 C793 1.400 . S
C793 C787 1.491 . S
C793 C792 1.400 . S
C793 C794 1.398 . S
C794 H782 0.950 . S
C794 C793 1.398 . S
C794 C795 1.391 . S
C795 H783 0.950 . S
C795 C791 1.393 . S
C795 C794 1.391 . S
H796 C804 0.950 . S
H797 C809 0.950 . S
H798 C806 0.950 . S
H799 C808 0.950 . S
H800 C810 0.950 . S
H801 C812 0.950 . S
H802 C814 0.950 . S
H803 C815 0.950 . S
C804 H796 0.950 . S
C804 C805 1.386 . S
C804 C806 1.391 . S
C805 C804 1.386 . S
C805 C809 1.393 . S
C806 H798 0.950 . S
C806 C804 1.391 . S
C806 C807 1.400 . S
C807 C806 1.400 . S
C807 C808 1.398 . S
C807 C813 1.491 . S
C808 H799 0.950 . S
C808 C807 1.398 . S
C808 C809 1.391 . S
C809 H797 0.950 . S
C809 C805 1.393 . S
C809 C808 1.391 . S
C810 H800 0.950 . S
C810 C811 1.386 . S
C810 C812 1.391 . S
C811 C810 1.386 . S
C811 C815 1.393 . S
C812 H801 0.950 . S
C812 C810 1.391 . S
C812 C813 1.400 . S
C813 C807 1.491 . S
C813 C812 1.400 . S
C813 C814 1.398 . S
C814 H802 0.950 . S
C814 C813 1.398 . S
C814 C815 1.391 . S
C815 H803 0.950 . S
C815 C811 1.393 . S
C815 C814 1.391 . S
H816 C824 0.950 . S
H817 C829 0.950 . S
H818 C826 0.950 . S
H819 C828 0.950 . S
H820 C830 0.950 . S
H821 C832 0.950 . S
H822 C834 0.950 . S
H823 C835 0.950 . S
C824 H816 0.950 . S
C824 C825 1.386 . S
C824 C826 1.391 . S
C825 C824 1.386 . S
C825 C829 1.393 . S
C826 H818 0.950 . S
C826 C824 1.391 . S
C826 C827 1.400 . S
C827 C826 1.400 . S
C827 C828 1.398 . S
C827 C833 1.491 . S
C828 H819 0.950 . S
C828 C827 1.398 . S
C828 C829 1.391 . S
C829 H817 0.950 . S
C829 C825 1.393 . S
C829 C828 1.391 . S
C830 H820 0.950 . S
C830 C831 1.386 . S
C830 C832 1.391 . S
C831 C830 1.386 . S
C831 C835 1.393 . S
C832 H821 0.950 . S
C832 C830 1.391 . S
C832 C833 1.400 . S
C833 C827 1.491 . S
C833 C832 1.400 . S
C833 C834 1.398 . S
C834 H822 0.950 . S
C834 C833 1.398 . S
C834 C835 1.391 . S
C835 H823 0.950 . S
C835 C831 1.393 . S
C835 C834 1.391 . S
H836 C844 0.950 . S
H837 C849 0.950 . S
H838 C846 0.950 . S
H839 C848 0.950 . S
H840 C850 0.950 . S
H841 C852 0.950 . S
H842 C854 0.950 . S
H843 C855 0.950 . S
C844 H836 0.950 . S
C844 C845 1.386 . S
C844 C846 1.391 . S
C845 C844 1.386 . S
C845 C849 1.393 . S
C846 H838 0.950 . S
C846 C844 1.391 . S
C846 C847 1.400 . S
C847 C846 1.400 . S
C847 C848 1.398 . S
C847 C853 1.491 . S
C848 H839 0.950 . S
C848 C847 1.398 . S
C848 C849 1.391 . S
C849 H837 0.950 . S
C849 C845 1.393 . S
C849 C848 1.391 . S
C850 H840 0.950 . S
C850 C851 1.386 . S
C850 C852 1.391 . S
C851 C850 1.386 . S
C851 C855 1.393 . S
C852 H841 0.950 . S
C852 C850 1.391 . S
C852 C853 1.400 . S
C853 C847 1.491 . S
C853 C852 1.400 . S
C853 C854 1.398 . S
C854 H842 0.950 . S
C854 C853 1.398 . S
C854 C855 1.391 . S
C855 H843 0.950 . S
C855 C851 1.393 . S
C855 C854 1.391 . S
H856 C864 0.950 . S
H857 C869 0.950 . S
H858 C866 0.950 . S
H859 C868 0.950 . S
H860 C870 0.950 . S
H861 C872 0.950 . S
H862 C874 0.950 . S
H863 C875 0.950 . S
C864 H856 0.950 . S
C864 C865 1.386 . S
C864 C866 1.391 . S
C865 C864 1.386 . S
C865 C869 1.393 . S
C866 H858 0.950 . S
C866 C864 1.391 . S
C866 C867 1.400 . S
C867 C866 1.400 . S
C867 C868 1.398 . S
C867 C873 1.491 . S
C868 H859 0.950 . S
C868 C867 1.398 . S
C868 C869 1.391 . S
C869 H857 0.950 . S
C869 C865 1.393 . S
C869 C868 1.391 . S
C870 H860 0.950 . S
C870 C871 1.386 . S
C870 C872 1.391 . S
C871 C870 1.386 . S
C871 C875 1.393 . S
C872 H861 0.950 . S
C872 C870 1.391 . S
C872 C873 1.400 . S
C873 C867 1.491 . S
C873 C872 1.400 . S
C873 C874 1.398 . S
C874 H862 0.950 . S
C874 C873 1.398 . S
C874 C875 1.391 . S
C875 H863 0.950 . S
C875 C871 1.393 . S
C875 C874 1.391 . S
H876 C884 0.950 . S
H877 C889 0.950 . S
H878 C886 0.950 . S
H879 C888 0.950 . S
H880 C890 0.950 . S
H881 C892 0.950 . S
H882 C894 0.950 . S
H883 C895 0.950 . S
C884 H876 0.950 . S
C884 C885 1.386 . S
C884 C886 1.391 . S
C885 C884 1.386 . S
C885 C889 1.393 . S
C886 H878 0.950 . S
C886 C884 1.391 . S
C886 C887 1.400 . S
C887 C886 1.400 . S
C887 C888 1.398 . S
C887 C893 1.491 . S
C888 H879 0.950 . S
C888 C887 1.398 . S
C888 C889 1.391 . S
C889 H877 0.950 . S
C889 C885 1.393 . S
C889 C888 1.391 . S
C890 H880 0.950 . S
C890 C891 1.386 . S
C890 C892 1.391 . S
C891 C890 1.386 . S
C891 C895 1.393 . S
C892 H881 0.950 . S
C892 C890 1.391 . S
C892 C893 1.400 . S
C893 C887 1.491 . S
C893 C892 1.400 . S
C893 C894 1.398 . S
C894 H882 0.950 . S
C894 C893 1.398 . S
C894 C895 1.391 . S
C895 H883 0.950 . S
C895 C891 1.393 . S
C895 C894 1.391 . S
H896 C904 0.950 . S
H897 C909 0.950 . S
H898 C906 0.950 . S
H899 C908 0.950 . S
H900 C910 0.950 . S
H901 C912 0.950 . S
H902 C914 0.950 . S
H903 C915 0.950 . S
C904 H896 0.950 . S
C904 C905 1.386 . S
C904 C906 1.391 . S
C905 C904 1.386 . S
C905 C909 1.393 . S
C906 H898 0.950 . S
C906 C904 1.391 . S
C906 C907 1.400 . S
C907 C906 1.400 . S
C907 C908 1.398 . S
C907 C913 1.491 . S
C908 H899 0.950 . S
C908 C907 1.398 . S
C908 C909 1.391 . S
C909 H897 0.950 . S
C909 C905 1.393 . S
C909 C908 1.391 . S
C910 H900 0.950 . S
C910 C911 1.386 . S
C910 C912 1.391 . S
C911 C910 1.386 . S
C911 C915 1.393 . S
C912 H901 0.950 . S
C912 C910 1.391 . S
C912 C913 1.400 . S
C913 C907 1.491 . S
C913 C912 1.400 . S
C913 C914 1.398 . S
C914 H902 0.950 . S
C914 C913 1.398 . S
C914 C915 1.391 . S
C915 H903 0.950 . S
C915 C911 1.393 . S
C915 C914 1.391 . S
H916 C924 0.950 . S
H917 C929 0.950 . S
H918 C926 0.950 . S
H919 C928 0.950 . S
H920 C930 0.950 . S
H921 C932 0.950 . S
H922 C934 0.950 . S
H923 C935 0.950 . S
C924 H916 0.950 . S
C924 C925 1.386 . S
C924 C926 1.391 . S
C925 C924 1.386 . S
C925 C929 1.393 . S
C926 H918 0.950 . S
C926 C924 1.391 . S
C926 C927 1.400 . S
C927 C926 1.400 . S
C927 C928 1.398 . S
C927 C933 1.491 . S
C928 H919 0.950 . S
C928 C927 1.398 . S
C928 C929 1.391 . S
C929 H917 0.950 . S
C929 C925 1.393 . S
C929 C928 1.391 . S
C930 H920 0.950 . S
C930 C931 1.386 . S
C930 C932 1.391 . S
C931 C930 1.386 . S
C931 C935 1.393 . S
C932 H921 0.950 . S
C932 C930 1.391 . S
C932 C933 1.400 . S
C933 C927 1.491 . S
C933 C932 1.400 . S
C933 C934 1.398 . S
C934 H922 0.950 . S
C934 C933 1.398 . S
C934 C935 1.391 . S
C935 H923 0.950 . S
C935 C931 1.393 . S
C935 C934 1.391 . S
H936 C944 0.950 . S
H937 C949 0.950 . S
H938 C946 0.950 . S
H939 C948 0.950 . S
H940 C950 0.950 . S
H941 C952 0.950 . S
H942 C954 0.950 . S
H943 C955 0.950 . S
C944 H936 0.950 . S
C944 C945 1.386 . S
C944 C946 1.391 . S
C945 C944 1.386 . S
C945 C949 1.393 . S
C946 H938 0.950 . S
C946 C944 1.391 . S
C946 C947 1.400 . S
C947 C946 1.400 . S
C947 C948 1.398 . S
C947 C953 1.491 . S
C948 H939 0.950 . S
C948 C947 1.398 . S
C948 C949 1.391 . S
C949 H937 0.950 . S
C949 C945 1.393 . S
C949 C948 1.391 . S
C950 H940 0.950 . S
C950 C951 1.386 . S
C950 C952 1.391 . S
C951 C950 1.386 . S
C951 C955 1.393 . S
C952 H941 0.950 . S
C952 C950 1.391 . S
C952 C953 1.400 . S
C953 C947 1.491 . S
C953 C952 1.400 . S
C953 C954 1.398 . S
C954 H942 0.950 . S
C954 C953 1.398 . S
C954 C955 1.391 . S
C955 H943 0.950 . S
C955 C951 1.393 . S
C955 C954 1.391 . S
H956 C964 0.950 . S
H957 C969 0.950 . S
H958 C966 0.950 . S
H959 C968 0.950 . S
H960 C970 0.950 . S
H961 C972 0.950 . S
H962 C974 0.950 . S
H963 C975 0.950 . S
C964 H956 0.950 . S
C964 C965 1.386 . S
C964 C966 1.391 . S
C965 C964 1.386 . S
C965 C969 1.393 . S
C966 H958 0.950 . S
C966 C964 1.391 . S
C966 C967 1.400 . S
C967 C966 1.400 . S
C967 C968 1.398 . S
C967 C973 1.491 . S
C968 H959 0.950 . S
C968 C967 1.398 . S
C968 C969 1.391 . S
C969 H957 0.950 . S
C969 C965 1.393 . S
C969 C968 1.391 . S
C970 H960 0.950 . S
C970 C971 1.386 . S
C970 C972 1.391 . S
C971 C970 1.386 . S
C971 C975 1.393 . S
C972 H961 0.950 . S
C972 C970 1.391 . S
C972 C973 1.400 . S
C973 C967 1.491 . S
C973 C972 1.400 . S
C973 C974 1.398 . S
C974 H962 0.950 . S
C974 C973 1.398 . S
C974 C975 1.391 . S
C975 H963 0.950 . S
C975 C971 1.393 . S
C975 C974 1.391 . S
H976 C984 0.950 . S
H977 C989 0.950 . S
H978 C986 0.950 . S
H979 C988 0.950 . S
H980 C990 0.950 . S
H981 C992 0.950 . S
H982 C994 0.950 . S
H983 C995 0.950 . S
C984 H976 0.950 . S
C984 C985 1.386 . S
C984 C986 1.391 . S
C985 C984 1.386 . S
C985 C989 1.393 . S
C986 H978 0.950 . S
C986 C984 1.391 . S
C986 C987 1.400 . S
C987 C986 1.400 . S
C987 C988 1.398 . S
C987 C993 1.491 . S
C988 H979 0.950 . S
C988 C987 1.398 . S
C988 C989 1.391 . S
C989 H977 0.950 . S
C989 C985 1.393 . S
C989 C988 1.391 . S
C990 H980 0.950 . S
C990 C991 1.386 . S
C990 C992 1.391 . S
C991 C990 1.386 . S
C991 C995 1.393 . S
C992 H981 0.950 . S
C992 C990 1.391 . S
C992 C993 1.400 . S
C993 C987 1.491 . S
C993 C992 1.400 . S
C993 C994 1.398 . S
C994 H982 0.950 . S
C994 C993 1.398 . S
C994 C995 1.391 . S
C995 H983 0.950 . S
C995 C991 1.393 . S
C995 C994 1.391 . S
C405 N302 1.678 . S
C411 N5 1.693 . S
C425 N38 1.703 . S
C431 N335 1.680 . S
C445 N368 1.690 . S
C451 N71 1.681 . S
C465 N104 1.702 . S
C471 N203 1.682 . S
C485 N137 1.682 . S
C491 N236 1.688 . S
C505 N269 1.680 . S
C511 N170 1.691 . S
C525 C347 1.071 . S
C531 C17 1.089 . S
C545 C380 1.091 . S
C551 C50 1.080 . S
C565 C83 1.064 . S
C571 C215 1.052 . S
C585 C248 1.063 . S
C591 C116 1.084 . S
C605 C281 1.064 . S
C611 C149 1.052 . S
C625 C182 1.055 . S
C631 C314 1.056 . S
C645 C259 1.535 . S
C651 C127 1.509 . S
C665 C292 1.525 . S
C671 C160 1.530 . S
C685 C193 1.518 . S
C691 C325 1.518 . S
C705 C28 1.511 . S
C711 C358 1.537 . S
C725 C61 1.535 . S
C731 C391 1.517 . S
C745 C226 1.536 . S
C751 C94 1.509 . S
C765 N14 1.446 . S
C771 C140 1.445 . S
C785 N47 1.445 . S
C791 C173 1.447 . S
C805 N80 1.443 . S
C811 C8 1.445 . S
C825 C41 1.447 . S
C831 N113 1.445 . S
C845 N146 1.442 . S
C851 C74 1.446 . S
C865 C107 1.447 . S
C871 N179 1.444 . S
C885 C272 1.446 . S
C891 N212 1.447 . S
C905 C305 1.447 . S
C911 N245 1.445 . S
C925 C338 1.446 . S
C931 N278 1.447 . S
C945 N311 1.443 . S
C951 C371 1.445 . S
C965 C206 1.446 . S
C971 N344 1.441 . S
C985 N377 1.447 . S
C991 C239 1.447 . S
