# Generated by pormake.
# Topology whp, (6)-cn, num edge types: 1
# Building blocks:
#     Node 0, Type 0, BuildingBlock: VOLQOD_clean_sbu_1, # of connection points: 6
#     Node 1, Type 0, BuildingBlock: VOLQOD_clean_sbu_1, # of connection points: 6
#     Node 2, Type 0, BuildingBlock: VOLQOD_clean_sbu_1, # of connection points: 6
#     Node 3, Type 0, BuildingBlock: VOLQOD_clean_sbu_1, # of connection points: 6
#     Node 4, Type 0, BuildingBlock: VOLQOD_clean_sbu_1, # of connection points: 6
#     Node 5, Type 0, BuildingBlock: VOLQOD_clean_sbu_1, # of connection points: 6
#     Node 6, Type 0, BuildingBlock: VOLQOD_clean_sbu_1, # of connection points: 6
#     Node 7, Type 0, BuildingBlock: VOLQOD_clean_sbu_1, # of connection points: 6
#     Node 8, Type 0, BuildingBlock: VOLQOD_clean_sbu_1, # of connection points: 6
#     Node 9, Type 0, BuildingBlock: VOLQOD_clean_sbu_1, # of connection points: 6
#     Node 10, Type 0, BuildingBlock: VOLQOD_clean_sbu_1, # of connection points: 6
#     Node 11, Type 0, BuildingBlock: VOLQOD_clean_sbu_1, # of connection points: 6
#     Node 12, Type 0, BuildingBlock: VOLQOD_clean_sbu_1, # of connection points: 6
#     Node 13, Type 0, BuildingBlock: VOLQOD_clean_sbu_1, # of connection points: 6
#     Node 14, Type 0, BuildingBlock: VOLQOD_clean_sbu_1, # of connection points: 6
#     Node 15, Type 0, BuildingBlock: VOLQOD_clean_sbu_1, # of connection points: 6
#     Edge 16, Type (0, 0), BuildingBlock: TEMPAE_clean_linker_10, # of connection points: 2
#     Edge 17, Type (0, 0), BuildingBlock: TEMPAE_clean_linker_10, # of connection points: 2
#     Edge 18, Type (0, 0), BuildingBlock: TEMPAE_clean_linker_10, # of connection points: 2
#     Edge 19, Type (0, 0), BuildingBlock: TEMPAE_clean_linker_10, # of connection points: 2
#     Edge 20, Type (0, 0), BuildingBlock: TEMPAE_clean_linker_10, # of connection points: 2
#     Edge 21, Type (0, 0), BuildingBlock: TEMPAE_clean_linker_10, # of connection points: 2
#     Edge 22, Type (0, 0), BuildingBlock: TEMPAE_clean_linker_10, # of connection points: 2
#     Edge 23, Type (0, 0), BuildingBlock: TEMPAE_clean_linker_10, # of connection points: 2
#     Edge 24, Type (0, 0), BuildingBlock: TEMPAE_clean_linker_10, # of connection points: 2
#     Edge 25, Type (0, 0), BuildingBlock: TEMPAE_clean_linker_10, # of connection points: 2
#     Edge 26, Type (0, 0), BuildingBlock: TEMPAE_clean_linker_10, # of connection points: 2
#     Edge 27, Type (0, 0), BuildingBlock: TEMPAE_clean_linker_10, # of connection points: 2
#     Edge 28, Type (0, 0), BuildingBlock: TEMPAE_clean_linker_10, # of connection points: 2
#     Edge 29, Type (0, 0), BuildingBlock: TEMPAE_clean_linker_10, # of connection points: 2
#     Edge 30, Type (0, 0), BuildingBlock: TEMPAE_clean_linker_10, # of connection points: 2
#     Edge 31, Type (0, 0), BuildingBlock: TEMPAE_clean_linker_10, # of connection points: 2
#     Edge 32, Type (0, 0), BuildingBlock: TEMPAE_clean_linker_10, # of connection points: 2
#     Edge 33, Type (0, 0), BuildingBlock: TEMPAE_clean_linker_10, # of connection points: 2
#     Edge 34, Type (0, 0), BuildingBlock: TEMPAE_clean_linker_10, # of connection points: 2
#     Edge 35, Type (0, 0), BuildingBlock: TEMPAE_clean_linker_10, # of connection points: 2
#     Edge 36, Type (0, 0), BuildingBlock: TEMPAE_clean_linker_10, # of connection points: 2
#     Edge 37, Type (0, 0), BuildingBlock: TEMPAE_clean_linker_10, # of connection points: 2
#     Edge 38, Type (0, 0), BuildingBlock: TEMPAE_clean_linker_10, # of connection points: 2
#     Edge 39, Type (0, 0), BuildingBlock: TEMPAE_clean_linker_10, # of connection points: 2
#     Edge 40, Type (0, 0), BuildingBlock: TEMPAE_clean_linker_10, # of connection points: 2
#     Edge 41, Type (0, 0), BuildingBlock: TEMPAE_clean_linker_10, # of connection points: 2
#     Edge 42, Type (0, 0), BuildingBlock: TEMPAE_clean_linker_10, # of connection points: 2
#     Edge 43, Type (0, 0), BuildingBlock: TEMPAE_clean_linker_10, # of connection points: 2
#     Edge 44, Type (0, 0), BuildingBlock: TEMPAE_clean_linker_10, # of connection points: 2
#     Edge 45, Type (0, 0), BuildingBlock: TEMPAE_clean_linker_10, # of connection points: 2
#     Edge 46, Type (0, 0), BuildingBlock: TEMPAE_clean_linker_10, # of connection points: 2
#     Edge 47, Type (0, 0), BuildingBlock: TEMPAE_clean_linker_10, # of connection points: 2
#     Edge 48, Type (0, 0), BuildingBlock: TEMPAE_clean_linker_10, # of connection points: 2
#     Edge 49, Type (0, 0), BuildingBlock: TEMPAE_clean_linker_10, # of connection points: 2
#     Edge 50, Type (0, 0), BuildingBlock: TEMPAE_clean_linker_10, # of connection points: 2
#     Edge 51, Type (0, 0), BuildingBlock: TEMPAE_clean_linker_10, # of connection points: 2
#     Edge 52, Type (0, 0), BuildingBlock: TEMPAE_clean_linker_10, # of connection points: 2
#     Edge 53, Type (0, 0), BuildingBlock: TEMPAE_clean_linker_10, # of connection points: 2
#     Edge 54, Type (0, 0), BuildingBlock: TEMPAE_clean_linker_10, # of connection points: 2
#     Edge 55, Type (0, 0), BuildingBlock: TEMPAE_clean_linker_10, # of connection points: 2
#     Edge 56, Type (0, 0), BuildingBlock: TEMPAE_clean_linker_10, # of connection points: 2
#     Edge 57, Type (0, 0), BuildingBlock: TEMPAE_clean_linker_10, # of connection points: 2
#     Edge 58, Type (0, 0), BuildingBlock: TEMPAE_clean_linker_10, # of connection points: 2
#     Edge 59, Type (0, 0), BuildingBlock: TEMPAE_clean_linker_10, # of connection points: 2
#     Edge 60, Type (0, 0), BuildingBlock: TEMPAE_clean_linker_10, # of connection points: 2
#     Edge 61, Type (0, 0), BuildingBlock: TEMPAE_clean_linker_10, # of connection points: 2
#     Edge 62, Type (0, 0), BuildingBlock: TEMPAE_clean_linker_10, # of connection points: 2
#     Edge 63, Type (0, 0), BuildingBlock: TEMPAE_clean_linker_10, # of connection points: 2
# Relax obj value: 0.402
# Max RMSD: 0.252
# Mean RMSD: 0.249
data_MOF--net-whp--node1-VOLQOD_clean_sbu_1--edge1-TEMPAE_clean_linker_10
_symmetry_space_group_name_H-M    P1
_symmetry_Int_Tables_number       1
_symmetry_cell_setting            triclinic
loop_
_symmetry_equiv_pos_as_xyz
'x, y, z'
_cell_length_a     51.75682
_cell_length_b     51.766472
_cell_length_c     29.503338
_cell_angle_alpha  89.945316
_cell_angle_beta   90.017536
_cell_angle_gamma 89.875864
loop_
_atom_site_label
_atom_site_type_symbol
_atom_site_fract_x
_atom_site_fract_y
_atom_site_fract_z
_atom_type_partial_charge
O0 O 0.3024 0.56859 0.38445 0.0
Zn1 Zn 0.28429 0.56275 0.32493 0.0
O2 O 0.28676 0.52743 0.30405 0.0
Zn3 Zn 0.25281 0.5112 0.30289 0.0
Zn4 Zn 0.30905 0.51029 0.346 0.0
Zn5 Zn 0.30279 0.52568 0.2449 0.0
O6 O 0.24674 0.49396 0.24108 0.0
O7 O 0.27653 0.51444 0.19971 0.0
O8 O 0.2475 0.57399 0.3298 0.0
O9 O 0.22532 0.53904 0.30985 0.0
O10 O 0.24884 0.48726 0.3579 0.0
O11 O 0.28809 0.4894 0.38832 0.0
O12 O 0.33372 0.48735 0.31509 0.0
O13 O 0.30311 0.58582 0.2816 0.0
O14 O 0.33145 0.4991 0.24301 0.0
O15 O 0.31804 0.55999 0.22751 0.0
C16 C 0.32265 0.55717 0.39857 0.0
C17 C 0.25672 0.49999 0.20284 0.0
C18 C 0.26487 0.48143 0.38931 0.0
C19 C 0.22615 0.5627 0.32195 0.0
C20 C 0.34122 0.48525 0.27432 0.0
C21 C 0.31622 0.58225 0.24561 0.0
O22 O 0.32958 0.53543 0.38265 0.0
O23 O 0.93245 0.30381 0.86573 0.0
Zn24 Zn 0.93799 0.28491 0.80804 0.0
O25 O 0.97345 0.28665 0.78844 0.0
Zn26 Zn 0.9885 0.25198 0.78662 0.0
Zn27 Zn 0.9923 0.3075 0.83116 0.0
Zn28 Zn 0.9746 0.30305 0.72938 0.0
O29 O 0.00585 0.24589 0.72485 0.0
O30 O 0.98625 0.27672 0.68427 0.0
O31 O 0.92575 0.24865 0.81332 0.0
O32 O 0.95973 0.22561 0.79124 0.0
O33 O 0.01107 0.24572 0.84312 0.0
O34 O 0.0125 0.28511 0.87266 0.0
O35 O 0.01569 0.3321 0.79933 0.0
O36 O 0.91478 0.30346 0.76512 0.0
O37 O 0.00072 0.33179 0.72865 0.0
O38 O 0.94013 0.31864 0.71092 0.0
C39 C 0.94528 0.32181 0.88439 0.0
C40 C 6e-05 0.25634 0.68681 0.0
C41 C 0.01812 0.26122 0.87451 0.0
C42 C 0.93621 0.22707 0.80388 0.0
C43 C 0.01608 0.3404 0.75872 0.0
C44 C 0.91793 0.31664 0.7292 0.0
O45 O 0.96818 0.32726 0.87196 0.0
O46 O 0.18341 0.93742 0.38067 0.0
Zn47 Zn 0.20196 0.93897 0.32112 0.0
O48 O 0.20066 0.97278 0.29449 0.0
Zn49 Zn 0.23459 0.98852 0.29498 0.0
Zn50 Zn 0.17698 0.99193 0.33104 0.0
Zn51 Zn 0.18755 0.97128 0.2336 0.0
O52 O 0.24178 0.00546 0.23318 0.0
O53 O 0.21556 0.98128 0.19063 0.0
O54 O 0.23827 0.92688 0.32798 0.0
O55 O 0.26142 0.96021 0.30344 0.0
O56 O 0.23758 0.01193 0.35071 0.0
O57 O 0.19713 0.01222 0.37608 0.0
O58 O 0.1551 0.01504 0.29281 0.0
O59 O 0.18312 0.91409 0.2812 0.0
O60 O 0.15903 -0.00279 0.22465 0.0
O61 O 0.173 0.93625 0.21923 0.0
C62 C 0.1618 0.94811 0.38921 0.0
C63 C 0.2341 -0.00271 0.19451 0.0
C64 C 0.22077 0.0185 0.38037 0.0
C65 C 0.25991 0.93708 0.31826 0.0
C66 C 0.14909 0.01393 0.25101 0.0
C67 C 0.17251 0.91546 0.24233 0.0
O68 O 0.15414 0.96783 0.36707 0.0
O69 O 0.56384 0.18695 0.87708 0.0
Zn70 Zn 0.55954 0.20607 0.81877 0.0
O71 O 0.52434 0.20479 0.79715 0.0
Zn72 Zn 0.5096 0.23949 0.79406 0.0
Zn73 Zn 0.50442 0.18396 0.83863 0.0
Zn74 Zn 0.52385 0.18908 0.7376 0.0
O75 O 0.49236 0.24556 0.73245 0.0
O76 O 0.51263 0.21527 0.69195 0.0
O77 O 0.57188 0.24244 0.82459 0.0
O78 O 0.5385 0.26559 0.79987 0.0
O79 O 0.48598 0.24588 0.84837 0.0
O80 O 0.48272 0.20648 0.8775 0.0
O81 O 0.48195 0.15927 0.805 0.0
O82 O 0.58319 0.18745 0.77638 0.0
O83 O 0.49775 0.16051 0.73497 0.0
O84 O 0.55832 0.1738 0.72023 0.0
C85 C 0.55021 0.16956 0.89592 0.0
C86 C 0.49834 0.23527 0.6945 0.0
C87 C 0.47745 0.23047 0.87867 0.0
C88 C 0.56173 0.26405 0.81409 0.0
C89 C 0.48205 0.15149 0.76408 0.0
C90 C 0.58027 0.17506 0.73954 0.0
O91 O 0.5274 0.16456 0.88234 0.0
O92 O 0.82931 0.41253 0.13676 0.0
Zn93 Zn 0.80846 0.42192 0.19141 0.0
O94 O 0.81222 0.45789 0.20707 0.0
Zn95 Zn 0.779 0.47585 0.20326 0.0
Zn96 Zn 0.83656 0.4733 0.16563 0.0
Zn97 Zn 0.82596 0.46003 0.26811 0.0
O98 O 0.77138 0.49426 0.26353 0.0
O99 O 0.79848 0.47307 0.30944 0.0
O100 O 0.77153 0.41234 0.18304 0.0
O101 O 0.75057 0.44948 0.19295 0.0
O102 O 0.77791 0.49941 0.14759 0.0
O103 O 0.81793 0.49565 0.12138 0.0
O104 O 0.86266 0.49432 0.19862 0.0
O105 O 0.82334 0.39943 0.23924 0.0
O106 O 0.85436 0.48631 0.2712 0.0
O107 O 0.84009 0.42573 0.29054 0.0
C108 C 0.84837 0.42374 0.11801 0.0
C109 C 0.7796 0.48846 0.30316 0.0
C110 C 0.79505 0.50444 0.11772 0.0
C111 C 0.75063 0.42526 0.18493 0.0
C112 C 0.86722 0.49782 0.24053 0.0
C113 C 0.83636 0.40305 0.27518 0.0
O114 O 0.8547 0.44673 0.12821 0.0
O115 O 0.06409 0.82253 0.61689 0.0
Zn116 Zn 0.05964 0.80412 0.67674 0.0
O117 O 0.02583 0.80916 0.70261 0.0
Zn118 Zn 0.00658 0.77709 0.70365 0.0
Zn119 Zn 0.00942 0.83443 0.66509 0.0
Zn120 Zn 0.0279 0.82234 0.76349 0.0
O121 O 0.98933 0.77218 0.76593 0.0
O122 O 0.01717 0.79505 0.80734 0.0
O123 O 0.06775 0.76646 0.67081 0.0
O124 O 0.03187 0.74738 0.6952 0.0
O125 O 0.98215 0.7763 0.64916 0.0
O126 O 0.98586 0.81628 0.62228 0.0
O127 O 0.98995 0.85985 0.70203 0.0
O128 O 0.08574 0.82077 0.71737 0.0
O129 O 0.00263 0.85158 0.77258 0.0
O130 O 0.06375 0.83527 0.77684 0.0
C131 C 0.05479 0.84458 0.60672 0.0
C132 C -0.00106 0.77866 0.80425 0.0
C133 C 0.97679 0.79349 0.6194 0.0
C134 C 0.05507 0.74616 0.68067 0.0
C135 C 0.98926 0.8645 0.74432 0.0
C136 C 0.08482 0.83291 0.75488 0.0
O137 O 0.0352 0.85365 0.62736 0.0
O138 O 0.66217 0.07548 0.14888 0.0
Zn139 Zn 0.68696 0.06487 0.19776 0.0
O140 O 0.68294 0.02896 0.2133 0.0
Zn141 Zn 0.71601 0.01085 0.20938 0.0
Zn142 Zn 0.65902 0.01359 0.17158 0.0
Zn143 Zn 0.66863 0.0267 0.27384 0.0
O144 O 0.72337 0.99165 0.26879 0.0
O145 O 0.69542 0.01165 0.31471 0.0
O146 O 0.72336 0.073 0.18078 0.0
O147 O 0.74436 0.03724 0.20075 0.0
O148 O 0.71761 0.98829 0.15233 0.0
O149 O 0.67808 0.99379 0.12483 0.0
O150 O 0.63576 0.98946 0.20427 0.0
O151 O 0.67759 0.0875 0.24992 0.0
O152 O 0.63894 0.00173 0.27624 0.0
O153 O 0.65724 0.06149 0.29785 0.0
C154 C 0.64305 0.06413 0.13055 0.0
C155 C 0.71451 -0.00347 0.30832 0.0
C156 C 0.70081 0.98468 0.12122 0.0
C157 C 0.74433 0.06057 0.18675 0.0
C158 C 0.62918 0.98745 0.24565 0.0
C159 C 0.66425 0.084 0.28557 0.0
O160 O 0.63834 0.04038 0.138 0.0
O161 O 0.42823 0.67666 0.62625 0.0
Zn162 Zn 0.43421 0.69319 0.68684 0.0
O163 O 0.46849 0.68728 0.70976 0.0
Zn164 Zn 0.48796 0.71938 0.71015 0.0
Zn165 Zn 0.48311 0.6623 0.66952 0.0
Zn166 Zn 0.46772 0.67252 0.76967 0.0
O167 O 0.50517 0.72455 0.77254 0.0
O168 O 0.47912 0.6994 0.8137 0.0
O169 O 0.42618 0.7307 0.68282 0.0
O170 O 0.46303 0.74952 0.70254 0.0
O171 O 0.5115 0.72024 0.65414 0.0
O172 O 0.50534 0.681 0.62531 0.0
O173 O 0.50373 0.63612 0.70298 0.0
O174 O 0.4089 0.67603 0.72799 0.0
O175 O 0.49351 0.64319 0.77509 0.0
O176 O 0.43181 0.65941 0.78469 0.0
C177 C 0.4362 0.65437 0.61469 0.0
C178 C 0.49617 0.71707 0.81081 0.0
C179 C 0.51517 0.7035 0.62286 0.0
C180 C 0.43938 0.75091 0.69059 0.0
C181 C 0.50594 0.63077 0.74487 0.0
C182 C 0.4103 0.66285 0.76437 0.0
O183 O 0.45566 0.64399 0.6338 0.0
O184 O 0.69021 0.43191 0.61843 0.0
Zn185 Zn 0.70941 0.43538 0.67719 0.0
O186 O 0.70721 0.46993 0.70134 0.0
Zn187 Zn 0.74129 0.48577 0.70215 0.0
Zn188 Zn 0.6844 0.48882 0.66232 0.0
Zn189 Zn 0.69225 0.46968 0.76122 0.0
O190 O 0.74797 0.50247 0.76427 0.0
O191 O 0.71932 0.48031 0.80548 0.0
O192 O 0.74614 0.42389 0.67006 0.0
O193 O 0.76846 0.45775 0.69451 0.0
O194 O 0.74525 0.50924 0.64651 0.0
O195 O 0.70535 0.50903 0.61865 0.0
O196 O 0.66146 0.51242 0.69743 0.0
O197 O 0.69143 0.41086 0.71908 0.0
O198 O 0.66329 0.49571 0.76673 0.0
O199 O 0.67804 0.43464 0.77707 0.0
C200 C 0.66963 0.44352 0.6063 0.0
C201 C 0.73881 0.49521 0.80251 0.0
C202 C 0.72895 0.51563 0.61584 0.0
C203 C 0.76755 0.43458 0.67987 0.0
C204 C 0.65418 0.51203 0.73861 0.0
C205 C 0.67945 0.41304 0.75657 0.0
O206 O 0.66266 0.46461 0.6249 0.0
O207 O 0.06147 0.68783 0.13378 0.0
Zn208 Zn 0.0548 0.70841 0.18922 0.0
O209 O 0.01932 0.706 0.20824 0.0
Zn210 Zn 0.00327 0.7402 0.20776 0.0
Zn211 Zn 0.00136 0.68372 0.16665 0.0
Zn212 Zn 0.01831 0.69078 0.26816 0.0
O213 O 0.98525 0.74679 0.26866 0.0
O214 O 0.00559 0.71744 0.31151 0.0
O215 O 0.06577 0.74482 0.18055 0.0
O216 O 0.03126 0.76738 0.20164 0.0
O217 O 0.98065 0.74456 0.15094 0.0
O218 O 0.98096 0.70471 0.12327 0.0
O219 O 0.97829 0.65934 0.19968 0.0
O220 O 0.07837 0.69196 0.2341 0.0
O221 O 0.99305 0.66141 0.27037 0.0
O222 O 0.05298 0.67652 0.28801 0.0
C223 C 0.04928 0.66903 0.11633 0.0
C224 C 0.991 0.73717 0.30735 0.0
C225 C 0.97443 0.72833 0.12018 0.0
C226 C 0.05474 0.7663 0.18862 0.0
C227 C 0.97799 0.65184 0.24076 0.0
C228 C 0.07528 0.67913 0.27043 0.0
O229 O 0.02631 0.66348 0.12821 0.0
O230 O 0.80354 0.05438 0.61312 0.0
Zn231 Zn 0.78625 0.05361 0.67403 0.0
O232 O 0.7881 0.02 0.70169 0.0
Zn233 Zn 0.75413 0.00445 0.70455 0.0
Zn234 Zn 0.81069 8e-05 0.66426 0.0
Zn235 Zn 0.80274 0.02204 0.76148 0.0
O236 O 0.74824 0.98855 0.76751 0.0
O237 O 0.77568 0.0131 0.80686 0.0
O238 O 0.74971 0.06581 0.66952 0.0
O239 O 0.72727 0.0327 0.69681 0.0
O240 O 0.74959 0.98015 0.6505 0.0
O241 O 0.78944 0.97886 0.6224 0.0
O242 O 0.83337 0.97742 0.70172 0.0
O243 O 0.80612 0.07885 0.71183 0.0
O244 O 0.83113 0.99584 0.76961 0.0
O245 O 0.8178 0.0571 0.77341 0.0
C246 C 0.8246 0.04308 0.60288 0.0
C247 C 0.75688 -0.00273 0.80514 0.0
C248 C 0.76568 0.97267 0.62031 0.0
C249 C 0.72834 0.05568 0.68123 0.0
C250 C 0.84028 0.97877 0.74304 0.0
C251 C 0.81772 0.07772 0.74985 0.0
O252 O 0.83249 0.02338 0.62487 0.0
O253 O 0.42609 0.80649 0.12849 0.0
Zn254 Zn 0.43117 0.78849 0.18814 0.0
O255 O 0.46568 0.79215 0.21179 0.0
Zn256 Zn 0.48386 0.75926 0.21034 0.0
Zn257 Zn 0.48194 0.81714 0.17351 0.0
Zn258 Zn 0.46498 0.8051 0.27301 0.0
O259 O 0.50191 0.75264 0.27154 0.0
O260 O 0.47707 0.77761 0.31532 0.0
O261 O 0.4218 0.75152 0.18201 0.0
O262 O 0.45751 0.7305 0.20226 0.0
O263 O 0.50707 0.75828 0.15405 0.0
O264 O 0.50452 0.79877 0.12909 0.0
O265 O 0.50127 0.84303 0.20945 0.0
O266 O 0.40622 0.80583 0.23007 0.0
O267 O 0.48939 0.83504 0.28056 0.0
O268 O 0.42948 0.81803 0.28949 0.0
C269 C 0.43578 0.82815 0.11753 0.0
C270 C 0.49388 0.7598 0.31062 0.0
C271 C 0.51252 0.77561 0.12461 0.0
C272 C 0.43393 0.73057 0.18959 0.0
C273 C 0.50203 0.84809 0.25158 0.0
C274 C 0.40804 0.81702 0.26834 0.0
O275 O 0.45591 0.83676 0.13695 0.0
O276 O 0.17056 0.57597 0.87431 0.0
Zn277 Zn 0.19044 0.56735 0.81821 0.0
O278 O 0.18535 0.53188 0.80038 0.0
Zn279 Zn 0.21798 0.51303 0.80106 0.0
Zn280 Zn 0.16134 0.51618 0.84183 0.0
Zn281 Zn 0.17078 0.53102 0.74014 0.0
O282 O 0.22318 0.49421 0.74068 0.0
O283 O 0.19759 0.51857 0.69703 0.0
O284 O 0.228 0.5756 0.82549 0.0
O285 O 0.24733 0.53866 0.80712 0.0
O286 O 0.22013 0.48993 0.85729 0.0
O287 O 0.18039 0.49356 0.8849 0.0
O288 O 0.13488 0.4955 0.80904 0.0
O289 O 0.17496 0.59123 0.77246 0.0
O290 O 0.14212 0.50494 0.73664 0.0
O291 O 0.1569 0.56595 0.72084 0.0
C292 C 0.15102 0.56508 0.89217 0.0
C293 C 0.2153 0.50166 0.70172 0.0
C294 C 0.20333 0.48486 0.88776 0.0
C295 C 0.24841 0.56242 0.81844 0.0
C296 C 0.12973 0.49278 0.76715 0.0
C297 C 0.16112 0.58832 0.7372 0.0
O298 O 0.14379 0.54262 0.88029 0.0
O299 O 0.92378 0.16669 0.37248 0.0
Zn300 Zn 0.93048 0.1871 0.31537 0.0
O301 O 0.96409 0.1805 0.28995 0.0
Zn302 Zn 0.98557 0.21118 0.29129 0.0
Zn303 Zn 0.97843 0.15349 0.32631 0.0
Zn304 Zn 0.96175 0.16874 0.2283 0.0
O305 O 0.00328 0.21661 0.22928 0.0
O306 O 0.97432 0.19616 0.18639 0.0
O307 O 0.92561 0.22482 0.32686 0.0
O308 O 0.96242 0.24225 0.30268 0.0
O309 O 0.00952 0.20921 0.34643 0.0
O310 O 0.00159 0.16964 0.37231 0.0
O311 O -0.00234 0.12842 0.28821 0.0
O312 O 0.90355 0.17452 0.27182 0.0
O313 O 0.98554 0.13843 0.21801 0.0
O314 O 0.92528 0.15868 0.21309 0.0
C315 C 0.93164 0.14389 0.3811 0.0
C316 C 0.99342 0.21144 0.19053 0.0
C317 C 0.01245 0.19158 0.37644 0.0
C318 C 0.93963 0.24447 0.31878 0.0
C319 C -0.00163 0.12455 0.24566 0.0
C320 C 0.90408 0.16288 0.23379 0.0
O321 O 0.95105 0.13431 0.36067 0.0
O322 O 0.31733 0.92768 0.87848 0.0
Zn323 Zn 0.3017 0.93299 0.81697 0.0
O324 O 0.30698 0.96731 0.79425 0.0
Zn325 Zn 0.27474 0.98649 0.7939 0.0
Zn326 Zn 0.33177 0.98221 0.83431 0.0
Zn327 Zn 0.32128 0.96658 0.73412 0.0
O328 O 0.26996 0.00445 0.73221 0.0
O329 O 0.29421 0.97793 0.69021 0.0
O330 O 0.26437 0.92428 0.8188 0.0
O331 O 0.24501 0.96112 0.79995 0.0
O332 O 0.2734 0.00972 0.85014 0.0
O333 O 0.31309 0.00486 0.87794 0.0
O334 O 0.35806 0.00223 0.80043 0.0
O335 O 0.32025 0.908 0.77697 0.0
O336 O 0.35028 0.99232 0.7284 0.0
O337 O 0.33531 0.93108 0.71929 0.0
C338 C 0.33941 0.93589 0.89065 0.0
C339 C 0.27706 0.99553 0.69369 0.0
C340 C 0.29032 0.0141 0.88083 0.0
C341 C 0.24399 0.93728 0.81081 0.0
C342 C 0.36306 0.00444 0.75843 0.0
C343 C 0.33313 0.90966 0.74033 0.0
O344 O 0.34986 0.95515 0.87122 0.0
O345 O 0.48686 0.27835 0.22871 0.0
Zn346 Zn 0.49311 0.29953 0.28554 0.0
O347 O 0.52994 0.30654 0.29376 0.0
Zn348 Zn 0.54192 0.2938 0.35158 0.0
Zn349 Zn 0.54975 0.29029 0.24596 0.0
Zn350 Zn 0.53592 0.34335 0.29249 0.0
O351 O 0.56101 0.32105 0.38685 0.0
O352 O 0.54768 0.35687 0.35252 0.0
O353 O 0.47674 0.28521 0.34367 0.0
O354 O 0.51137 0.28466 0.38864 0.0
O355 O 0.56376 0.26183 0.34475 0.0
O356 O 0.56691 0.25822 0.26995 0.0
O357 O 0.57773 0.31421 0.22173 0.0
O358 O 0.47483 0.3326 0.27103 0.0
O359 O 0.56564 0.35131 0.25296 0.0
O360 O 0.50502 0.36296 0.27102 0.0
C361 C 0.50165 0.27439 0.19476 0.0
C362 C 0.55956 0.34559 0.38472 0.0
C363 C 0.57145 0.2497 0.30971 0.0
C364 C 0.4873 0.28152 0.38226 0.0
C365 C 0.58094 0.33833 0.2282 0.0
C366 C 0.48179 0.35588 0.26469 0.0
O367 O 0.52571 0.27961 0.1962 0.0
C368 C 0.36638 0.56907 0.42571 0.0
C369 C 0.33953 0.57033 0.4312 0.0
C370 C 0.38289 0.58281 0.45452 0.0
C371 C 0.37223 0.59735 0.49056 0.0
C372 C 0.34511 0.59814 0.49693 0.0
C373 C 0.32901 0.58496 0.46653 0.0
C374 C 0.41164 0.58221 0.44583 0.0
C375 C 0.33314 0.61281 0.53587 0.0
C376 C 0.4165 0.6133 0.58888 0.0
C377 C 0.42124 0.63957 0.5814 0.0
C378 C 0.40033 0.59934 0.55976 0.0
C379 C 0.38948 0.61184 0.52152 0.0
C380 C 0.39496 0.63819 0.51303 0.0
C381 C 0.41042 0.65191 0.54367 0.0
C382 C 0.39431 0.57148 0.57059 0.0
C383 C 0.38442 0.6519 0.47174 0.0
H384 H 0.37444 0.558 0.39789 0.0
H385 H 0.30821 0.5858 0.4707 0.0
H386 H 0.41888 0.60215 0.44058 0.0
H387 H 0.42191 0.57418 0.4757 0.0
H388 H 0.41673 0.57042 0.41566 0.0
H389 H 0.31184 0.61036 0.53737 0.0
H390 H 0.34159 0.60615 0.56843 0.0
H391 H 0.33749 0.6337 0.53259 0.0
H392 H 0.42465 0.60391 0.61851 0.0
H393 H 0.41424 0.67225 0.53799 0.0
H394 H 0.40044 0.55885 0.54222 0.0
H395 H 0.37314 0.56903 0.57467 0.0
H396 H 0.40402 0.56478 0.60208 0.0
H397 H 0.38967 0.64107 0.44061 0.0
H398 H 0.39183 0.67195 0.46867 0.0
H399 H 0.36303 0.65264 0.47338 0.0
C400 C 0.87631 0.4226 0.04936 0.0
C401 C 0.86393 0.40947 0.08471 0.0
C402 C 0.8908 0.40908 0.01699 0.0
C403 C 0.89343 0.38195 0.021 0.0
C404 C 0.88161 0.36873 0.05748 0.0
C405 C 0.86667 0.38264 0.08861 0.0
C406 C 0.90262 0.42368 0.97784 0.0
C407 C 0.88447 0.33987 0.0633 0.0
C408 C 0.90579 0.34176 0.91646 0.0
C409 C 0.93248 0.33752 0.91925 0.0
C410 C 0.89298 0.35674 0.94885 0.0
C411 C 0.90715 0.36713 0.98551 0.0
C412 C 0.93413 0.36286 0.98864 0.0
C413 C 0.9466 0.34834 0.95495 0.0
C414 C 0.86429 0.3614 0.94383 0.0
C415 C 0.94968 0.37321 0.02791 0.0
H416 H 0.8741 0.44337 0.04636 0.0
H417 H 0.85737 0.37255 0.11638 0.0
H418 H 0.92372 0.41999 0.97628 0.0
H419 H 0.89418 0.41678 0.94547 0.0
H420 H 0.89937 0.44485 0.98044 0.0
H421 H 0.87577 0.33289 0.09547 0.0
H422 H 0.87499 0.32976 0.03467 0.0
H423 H 0.9052 0.33438 0.06282 0.0
H424 H 0.89494 0.33366 0.88843 0.0
H425 H 0.96724 0.34493 0.95707 0.0
H426 H 0.86016 0.38245 0.94412 0.0
H427 H 0.85383 0.35273 0.97289 0.0
H428 H 0.85644 0.35306 0.912 0.0
H429 H 0.94777 0.39452 0.02968 0.0
H430 H 0.9705 0.36819 0.02523 0.0
H431 H 0.94207 0.36528 0.06021 0.0
C432 C 0.06848 0.88765 0.57809 0.0
C433 C 0.06809 0.86074 0.57289 0.0
C434 C 0.08279 0.90327 0.54853 0.0
C435 C 0.09638 0.89172 0.5122 0.0
C436 C 0.09522 0.86463 0.50577 0.0
C437 C 0.0814 0.84939 0.5367 0.0
C438 C 0.08414 0.93199 0.55719 0.0
C439 C 0.10889 0.85171 0.46663 0.0
C440 C 0.11811 0.93401 0.41422 0.0
C441 C 0.14466 0.93593 0.42273 0.0
C442 C 0.10206 0.9197 0.44315 0.0
C443 C 0.11278 0.90779 0.4821 0.0
C444 C 0.13942 0.91067 0.4918 0.0
C445 C 0.15514 0.92435 0.46151 0.0
C446 C 0.07389 0.91648 0.43111 0.0
C447 C 0.1514 0.89892 0.53373 0.0
H448 H 0.05838 0.89642 0.60638 0.0
H449 H 0.08095 0.82858 0.53254 0.0
H450 H 0.10442 0.9376 0.56433 0.0
H451 H 0.0779 0.94285 0.52665 0.0
H452 H 0.0719 0.93801 0.58626 0.0
H453 H 0.10432 0.83079 0.46432 0.0
H454 H 0.10339 0.86115 0.43423 0.0
H455 H 0.13009 0.85387 0.47055 0.0
H456 H 0.11012 0.94271 0.38383 0.0
H457 H 0.17569 0.92596 0.46807 0.0
H458 H 0.06149 0.92296 0.45956 0.0
H459 H 0.06967 0.89573 0.42529 0.0
H460 H 0.06846 0.9275 0.4002 0.0
H461 H 0.14047 0.90493 0.56432 0.0
H462 H 0.17194 0.90461 0.53804 0.0
H463 H 0.15041 0.87755 0.53179 0.0
C464 C 0.54644 0.14262 0.96611 0.0
C465 C 0.56185 0.15408 0.93264 0.0
C466 C 0.55763 0.12783 1.00093 0.0
C467 C 0.58473 0.12395 1.00138 0.0
C468 C 0.60029 0.13529 0.96735 0.0
C469 C 0.58868 0.15047 0.93373 0.0
C470 C 0.54057 0.11653 0.03735 0.0
C471 C 0.6292 0.13118 0.96614 0.0
C472 C 0.62242 0.10541 0.10651 0.0
C473 C 0.62623 0.0789 0.09963 0.0
C474 C 0.60762 0.12007 0.07609 0.0
C475 C 0.59709 0.10802 0.03722 0.0
C476 C 0.60038 0.08111 0.0307 0.0
C477 C 0.61466 0.06677 0.06241 0.0
C478 C 0.60396 0.14859 0.08482 0.0
C479 C 0.58991 0.06769 0.98917 0.0
H480 H 0.52569 0.14554 0.96543 0.0
H481 H 0.60062 0.15909 0.90761 0.0
H482 H 0.54218 0.09517 0.0373 0.0
H483 H 0.54703 0.12332 0.07116 0.0
H484 H 0.51994 0.12191 0.03274 0.0
H485 H 0.63838 0.14071 0.93651 0.0
H486 H 0.6381 0.13892 0.9975 0.0
H487 H 0.63363 0.11021 0.96483 0.0
H488 H 0.63108 0.11472 0.13569 0.0
H489 H 0.61769 0.04627 0.05706 0.0
H490 H 0.5833 0.15399 0.08116 0.0
H491 H 0.61499 0.15988 0.05941 0.0
H492 H 0.61063 0.15428 0.11919 0.0
H493 H 0.56897 0.07174 0.98528 0.0
H494 H 0.5928 0.04643 0.99054 0.0
H495 H 0.59973 0.07527 0.9585 0.0
C496 C 0.57918 0.35152 0.4614 0.0
C497 C 0.57352 0.3614 0.41829 0.0
C498 C 0.59374 0.36593 0.4925 0.0
C499 C 0.60332 0.39048 0.47965 0.0
C500 C 0.59744 0.40063 0.43632 0.0
C501 C 0.58237 0.38607 0.40632 0.0
C502 C 0.59924 0.3547 0.53877 0.0
C503 C 0.60777 0.42649 0.42108 0.0
C504 C 0.62626 0.43644 0.57132 0.0
C505 C 0.65288 0.43133 0.57196 0.0
C506 C 0.60984 0.4233 0.54138 0.0
C507 C 0.62042 0.40505 0.51084 0.0
C508 C 0.64738 0.40042 0.51041 0.0
C509 C 0.66326 0.41343 0.54131 0.0
C510 C 0.58113 0.42843 0.54321 0.0
C511 C 0.65942 0.3815 0.47764 0.0
H512 H 0.57225 0.33251 0.47079 0.0
H513 H 0.57827 0.39366 0.37281 0.0
H514 H 0.62028 0.35123 0.5426 0.0
H515 H 0.59342 0.36858 0.56555 0.0
H516 H 0.58894 0.33618 0.54452 0.0
H517 H 0.60084 0.43192 0.38672 0.0
H518 H 0.60194 0.4418 0.44529 0.0
H519 H 0.62921 0.42595 0.42064 0.0
H520 H 0.61814 0.45011 0.59524 0.0
H521 H 0.68385 0.40956 0.54153 0.0
H522 H 0.57076 0.41036 0.55197 0.0
H523 H 0.57403 0.43473 0.50948 0.0
H524 H 0.57603 0.44347 0.56854 0.0
H525 H 0.65196 0.36179 0.4843 0.0
H526 H 0.68084 0.38104 0.48024 0.0
H527 H 0.65404 0.38661 0.44234 0.0
C528 C 0.13335 0.60629 0.92195 0.0
C529 C 0.1356 0.57941 0.92553 0.0
C530 C 0.11794 0.62024 0.95228 0.0
C531 C 0.10514 0.60698 0.98769 0.0
C532 C 0.10751 0.57983 0.99168 0.0
C533 C 0.12247 0.56628 0.96003 0.0
C534 C 0.11541 0.64913 0.94649 0.0
C535 C 0.09466 0.56522 0.0298 0.0
C536 C 0.08947 0.64797 0.08983 0.0
C537 C 0.06299 0.65247 0.08391 0.0
C538 C 0.10322 0.63244 0.05951 0.0
C539 C 0.09026 0.6218 0.02171 0.0
C540 C 0.06346 0.62617 0.01563 0.0
C541 C 0.04999 0.64122 0.04736 0.0
C542 C 0.13165 0.62763 0.06771 0.0
C543 C 0.04922 0.61556 0.97507 0.0
H544 H 0.14323 0.61637 0.89479 0.0
H545 H 0.12432 0.54546 0.96275 0.0
H546 H 0.09471 0.65468 0.94467 0.0
H547 H 0.12384 0.65912 0.97625 0.0
H548 H 0.12528 0.65621 0.91545 0.0
H549 H 0.09827 0.54408 0.0278 0.0
H550 H 0.10194 0.57236 0.06288 0.0
H551 H 0.07351 0.56863 0.02921 0.0
H552 H 0.0994 0.6564 0.1186 0.0
H553 H 0.02949 0.64481 0.0429 0.0
H554 H 0.14317 0.6364 0.04001 0.0
H555 H 0.13573 0.60658 0.06761 0.0
H556 H 0.13833 0.63582 0.10047 0.0
H557 H 0.05771 0.6235 0.94348 0.0
H558 H 0.02829 0.62038 0.97578 0.0
H559 H 0.05138 0.59426 0.97362 0.0
C560 C 0.90488 0.13927 0.45091 0.0
C561 C 0.91727 0.12786 0.41378 0.0
C562 C 0.89065 0.12424 0.48159 0.0
C563 C 0.88813 0.09735 0.474 0.0
C564 C 0.90052 0.08577 0.43637 0.0
C565 C 0.9153 0.10114 0.40706 0.0
C566 C 0.87828 0.13715 0.52204 0.0
C567 C 0.89766 0.0573 0.42648 0.0
C568 C 0.86791 0.05528 0.57322 0.0
C569 C 0.84106 0.05456 0.56753 0.0
C570 C 0.88357 0.06896 0.54274 0.0
C571 C 0.87209 0.08147 0.50505 0.0
C572 C 0.84508 0.07971 0.49804 0.0
C573 C 0.82981 0.06662 0.52985 0.0
C574 C 0.9122 0.07096 0.55194 0.0
C575 C 0.83225 0.09211 0.4575 0.0
H576 H 0.90655 0.15992 0.45623 0.0
H577 H 0.92468 0.09236 0.37803 0.0
H578 H 0.85695 0.13545 0.51984 0.0
H579 H 0.88444 0.12736 0.55374 0.0
H580 H 0.88334 0.15795 0.52445 0.0
H581 H 0.90853 0.05132 0.39576 0.0
H582 H 0.90461 0.04572 0.45569 0.0
H583 H 0.87695 0.05258 0.4215 0.0
H584 H 0.87654 0.04618 0.6027 0.0
H585 H 0.80903 0.0659 0.5254 0.0
H586 H 0.91743 0.09147 0.55783 0.0
H587 H 0.92338 0.06426 0.52212 0.0
H588 H 0.9182 0.05946 0.58197 0.0
H589 H 0.8338 0.11343 0.45996 0.0
H590 H 0.81148 0.08694 0.45485 0.0
H591 H 0.84216 0.08615 0.42583 0.0
C592 C 0.38064 0.9188 0.92159 0.0
C593 C 0.35383 0.92167 0.92556 0.0
C594 C 0.39449 0.90361 0.95253 0.0
C595 C 0.38124 0.89178 0.98897 0.0
C596 C 0.35425 0.89533 0.99392 0.0
C597 C 0.34076 0.90992 0.9616 0.0
C598 C 0.42314 0.89969 0.94557 0.0
C599 C 0.33965 0.88363 0.03319 0.0
C600 C 0.41032 0.83306 0.04647 0.0
C601 C 0.42252 0.84433 0.08384 0.0
C602 C 0.3972 0.84839 0.01471 0.0
C603 C 0.39559 0.87541 0.0216 0.0
C604 C 0.40766 0.88681 0.05966 0.0
C605 C 0.42138 0.87113 0.08998 0.0
C606 C 0.38517 0.83571 0.97375 0.0
C607 C 0.40568 0.91546 0.06876 0.0
H608 H 0.39064 0.92768 0.89333 0.0
H609 H 0.32001 0.91232 0.96466 0.0
H610 H 0.43397 0.90652 0.97569 0.0
H611 H 0.42739 0.87879 0.94162 0.0
H612 H 0.43045 0.91008 0.91522 0.0
H613 H 0.319 0.88953 0.03353 0.0
H614 H 0.34066 0.86225 0.03138 0.0
H615 H 0.34865 0.88951 0.06572 0.0
H616 H 0.41136 0.81231 0.04178 0.0
H617 H 0.4306 0.87974 0.11931 0.0
H618 H 0.39265 0.84477 0.94228 0.0
H619 H 0.36395 0.83865 0.97413 0.0
H620 H 0.38919 0.81463 0.97242 0.0
H621 H 0.41418 0.92648 0.0402 0.0
H622 H 0.41569 0.92114 0.10052 0.0
H623 H 0.38506 0.92122 0.07132 0.0
C624 C 0.37046 0.46225 0.21962 0.0
C625 C 0.36212 0.46671 0.26419 0.0
C626 C 0.3905 0.44464 0.21069 0.0
C627 C 0.40232 0.43142 0.24723 0.0
C628 C 0.39403 0.43595 0.29219 0.0
C629 C 0.37404 0.45347 0.30005 0.0
C630 C 0.39895 0.44009 0.16239 0.0
C631 C 0.40622 0.42225 0.33218 0.0
C632 C 0.43664 0.36755 0.24317 0.0
C633 C 0.46217 0.37522 0.25159 0.0
C634 C 0.41706 0.38589 0.23704 0.0
C635 C 0.42323 0.41244 0.23954 0.0
C636 C 0.44927 0.42029 0.24389 0.0
C637 C 0.4685 0.40153 0.24989 0.0
C638 C 0.3895 0.37679 0.23211 0.0
C639 C 0.45657 0.44848 0.24639 0.0
H640 H 0.36131 0.47243 0.19177 0.0
H641 H 0.36785 0.45684 0.33464 0.0
H642 H 0.41989 0.44415 0.15884 0.0
H643 H 0.39601 0.41952 0.15327 0.0
H644 H 0.38814 0.45235 0.13791 0.0
H645 H 0.3976 0.42823 0.36502 0.0
H646 H 0.40386 0.40106 0.32857 0.0
H647 H 0.42725 0.42631 0.33328 0.0
H648 H 0.43167 0.34722 0.24344 0.0
H649 H 0.48826 0.40761 0.25557 0.0
H650 H 0.37906 0.38838 0.20628 0.0
H651 H 0.37926 0.37935 0.26486 0.0
H652 H 0.38846 0.35607 0.22252 0.0
H653 H 0.44587 0.45993 0.22072 0.0
H654 H 0.47763 0.4514 0.24125 0.0
H655 H 0.45132 0.45616 0.28027 0.0
C656 C 0.05746 0.36356 0.76992 0.0
C657 C 0.03375 0.36162 0.74743 0.0
C658 C 0.07305 0.38535 0.76444 0.0
C659 C 0.06431 0.40595 0.73675 0.0
C660 C 0.041 0.40352 0.71206 0.0
C661 C 0.02606 0.38114 0.71733 0.0
C662 C 0.09816 0.38696 0.79043 0.0
C663 C 0.03093 0.42522 0.68274 0.0
C664 C 0.08915 0.46905 0.7824 0.0
C665 C 0.11034 0.47353 0.75408 0.0
C666 C 0.07268 0.44814 0.77472 0.0
C667 C 0.07806 0.43096 0.7386 0.0
C668 C 0.09857 0.43625 0.7083 0.0
C669 C 0.11438 0.45776 0.71616 0.0
C670 C 0.05056 0.4435 0.80709 0.0
C671 C 0.10509 0.41817 0.66984 0.0
H672 H 0.06351 0.34826 0.79275 0.0
H673 H 0.00763 0.37962 0.70005 0.0
H674 H 0.11402 0.39347 0.7679 0.0
H675 H 0.09624 0.40136 0.81806 0.0
H676 H 0.10368 0.36811 0.80572 0.0
H677 H 0.01474 0.41888 0.6607 0.0
H678 H 0.0239 0.44113 0.70474 0.0
H679 H 0.04652 0.4332 0.66112 0.0
H680 H 0.08592 0.48148 0.81143 0.0
H681 H 0.13091 0.46122 0.69441 0.0
H682 H 0.055 0.42653 0.82877 0.0
H683 H 0.03257 0.43914 0.78814 0.0
H684 H 0.04696 0.46039 0.82944 0.0
H685 H 0.11412 0.4004 0.68378 0.0
H686 H 0.11877 0.42705 0.64539 0.0
H687 H 0.08739 0.41226 0.65141 0.0
C688 C 0.12466 0.05507 0.25537 0.0
C689 C 0.12882 0.03134 0.23393 0.0
C690 C 0.10296 0.07005 0.24503 0.0
C691 C 0.08479 0.06076 0.21309 0.0
C692 C 0.08992 0.03781 0.18873 0.0
C693 C 0.11209 0.02336 0.19929 0.0
C694 C 0.09849 0.09479 0.27105 0.0
C695 C 0.07106 0.02736 0.15436 0.0
C696 C 0.01962 0.08207 0.2535 0.0
C697 C 0.01624 0.10483 0.22866 0.0
C698 C 0.04061 0.06579 0.24501 0.0
C699 C 0.0589 0.07293 0.21162 0.0
C700 C 0.05419 0.09458 0.18345 0.0
C701 C 0.03263 0.1103 0.19215 0.0
C702 C 0.04456 0.04244 0.27499 0.0
C703 C 0.07316 0.10267 0.14736 0.0
H704 H 0.13788 0.06146 0.28156 0.0
H705 H 0.11538 0.00501 0.18253 0.0
H706 H 0.09278 0.11062 0.24773 0.0
H707 H 0.08248 0.09198 0.29557 0.0
H708 H 0.11593 0.10091 0.29016 0.0
H709 H 0.08036 0.01314 0.13136 0.0
H710 H 0.05502 0.01753 0.17235 0.0
H711 H 0.06251 0.04315 0.13374 0.0
H712 H 0.00662 0.07776 0.28133 0.0
H713 H 0.02991 0.12797 0.17295 0.0
H714 H 0.06023 0.04644 0.29968 0.0
H715 H 0.05049 0.02546 0.25458 0.0
H716 H 0.0268 0.03744 0.29421 0.0
H717 H 0.08945 0.11312 0.16349 0.0
H718 H 0.06407 0.11576 0.12207 0.0
H719 H 0.08131 0.08565 0.12953 0.0
C720 C 0.37933 0.03993 0.70933 0.0
C721 C 0.38339 0.02253 0.74498 0.0
C722 C 0.3962 0.06079 0.70277 0.0
C723 C 0.41765 0.06372 0.73209 0.0
C724 C 0.42307 0.04468 0.76523 0.0
C725 C 0.40562 0.02447 0.77169 0.0
C726 C 0.38974 0.08081 0.6673 0.0
C727 C 0.44612 0.04677 0.79644 0.0
C728 C 0.47081 0.11303 0.71727 0.0
C729 C 0.46401 0.13096 0.7508 0.0
C730 C 0.45513 0.09152 0.70866 0.0
C731 C 0.43204 0.08836 0.73367 0.0
C732 C 0.42423 0.10747 0.76514 0.0
C733 C 0.4405 0.12841 0.7737 0.0
C734 C 0.46414 0.07139 0.6752 0.0
C735 C 0.39943 0.10506 0.79181 0.0
H736 H 0.36202 0.03835 0.6888 0.0
H737 H 0.4088 0.01071 0.7989 0.0
H738 H 0.38117 0.09799 0.68407 0.0
H739 H 0.40739 0.08728 0.64927 0.0
H740 H 0.37565 0.0734 0.64208 0.0
H741 H 0.4496 0.0286 0.8156 0.0
H742 H 0.46379 0.05157 0.77695 0.0
H743 H 0.4428 0.06257 0.82117 0.0
H744 H 0.48904 0.11505 0.69951 0.0
H745 H 0.43506 0.14255 0.79909 0.0
H746 H 0.44795 0.0649 0.6534 0.0
H747 H 0.47135 0.05424 0.69395 0.0
H748 H 0.47997 0.0787 0.65327 0.0
H749 H 0.38307 0.10045 0.76891 0.0
H750 H 0.39471 0.12302 0.81069 0.0
H751 H 0.40122 0.089 0.81655 0.0
C752 C 0.93734 0.62735 0.23047 0.0
C753 C 0.9608 0.63047 0.25331 0.0
C754 C 0.92225 0.60535 0.23744 0.0
C755 C 0.93127 0.58577 0.26707 0.0
C756 C 0.95429 0.58945 0.29206 0.0
C757 C 0.96873 0.61201 0.2852 0.0
C758 C 0.89742 0.6024 0.211 0.0
C759 C 0.96463 0.56884 0.32347 0.0
C760 C 0.88182 0.5338 0.29002 0.0
C761 C 0.88643 0.51729 0.25329 0.0
C762 C 0.89736 0.5556 0.29699 0.0
C763 C 0.91813 0.56043 0.26702 0.0
C764 C 0.92417 0.54247 0.23243 0.0
C765 C 0.90798 0.52126 0.22558 0.0
C766 C 0.8902 0.57447 0.3339 0.0
C767 C 0.9466 0.54663 0.20051 0.0
H768 H 0.93109 0.64185 0.20626 0.0
H769 H 0.98697 0.61445 0.30277 0.0
H770 H 0.8999 0.58723 0.18479 0.0
H771 H 0.88151 0.5962 0.23371 0.0
H772 H 0.89161 0.62063 0.19387 0.0
H773 H 0.98034 0.57625 0.34555 0.0
H774 H 0.94902 0.56096 0.34516 0.0
H775 H 0.97241 0.5526 0.30305 0.0
H776 H 0.86505 0.5307 0.31134 0.0
H777 H 0.91165 0.50823 0.19753 0.0
H778 H 0.88081 0.59164 0.31844 0.0
H779 H 0.90763 0.58128 0.35214 0.0
H780 H 0.87659 0.56587 0.35879 0.0
H781 H 0.9421 0.56286 0.17719 0.0
H782 H 0.95078 0.52919 0.17982 0.0
H783 H 0.96426 0.55188 0.21969 0.0
C784 C 0.96754 0.90657 0.73394 0.0
C785 C 0.97129 0.88443 0.7603 0.0
C786 C 0.94693 0.9233 0.74261 0.0
C787 C 0.92937 0.91727 0.77783 0.0
C788 C 0.93436 0.89612 0.80704 0.0
C789 C 0.95554 0.87994 0.79807 0.0
C790 C 0.94266 0.94604 0.71134 0.0
C791 C 0.9161 0.88916 0.84495 0.0
C792 C 0.87838 0.96893 0.79199 0.0
C793 C 0.86043 0.96098 0.75929 0.0
C794 C 0.90029 0.95384 0.80145 0.0
C795 C 0.90388 0.93028 0.77801 0.0
C796 C 0.8845 0.92113 0.74823 0.0
C797 C 0.86311 0.93675 0.73889 0.0
C798 C 0.92051 0.96417 0.83347 0.0
C799 C 0.88732 0.89579 0.72331 0.0
H800 H 0.98005 0.91013 0.70512 0.0
H801 H 0.95855 0.86274 0.81843 0.0
H802 H 0.92614 0.94193 0.68847 0.0
H803 H 0.9378 0.96363 0.73103 0.0
H804 H 0.95991 0.95013 0.69013 0.0
H805 H 0.92546 0.87625 0.87023 0.0
H806 H 0.90887 0.90669 0.86245 0.0
H807 H 0.89914 0.87892 0.83063 0.0
H808 H 0.87622 0.98767 0.80795 0.0
H809 H 0.84893 0.93041 0.71424 0.0
H810 H 0.93654 0.9727 0.81351 0.0
H811 H 0.92878 0.94849 0.85465 0.0
H812 H 0.91253 0.9794 0.856 0.0
H813 H 0.90259 0.89762 0.6971 0.0
H814 H 0.8691 0.88992 0.70633 0.0
H815 H 0.89329 0.88021 0.74695 0.0
C816 C 0.51382 0.89381 0.24297 0.0
C817 C 0.51706 0.87046 0.26609 0.0
C818 C 0.53068 0.91439 0.25033 0.0
C819 C 0.55171 0.91106 0.28046 0.0
C820 C 0.55382 0.88819 0.30661 0.0
C821 C 0.53615 0.86807 0.29937 0.0
C822 C 0.52738 0.93872 0.22261 0.0
C823 C 0.57605 0.88395 0.33887 0.0
C824 C 0.61013 0.94436 0.2328 0.0
C825 C 0.61077 0.96713 0.25825 0.0
C826 C 0.59204 0.92514 0.24207 0.0
C827 C 0.57374 0.92908 0.27704 0.0
C828 C 0.57494 0.95157 0.30421 0.0
C829 C 0.59372 0.97034 0.29471 0.0
C830 C 0.59174 0.90116 0.21283 0.0
C831 C 0.55557 0.95648 0.34145 0.0
H832 H 0.49867 0.89559 0.21773 0.0
H833 H 0.53843 0.84989 0.31725 0.0
H834 H 0.53038 0.9561 0.24392 0.0
H835 H 0.54204 0.93908 0.19517 0.0
H836 H 0.50791 0.93992 0.20683 0.0
H837 H 0.57208 0.86796 0.36302 0.0
H838 H 0.59362 0.87892 0.31918 0.0
H839 H 0.58032 0.90176 0.35831 0.0
H840 H 0.62371 0.94165 0.2052 0.0
H841 H 0.59436 0.98796 0.31453 0.0
H842 H 0.57423 0.90127 0.19111 0.0
H843 H 0.59096 0.88357 0.23427 0.0
H844 H 0.60898 0.89986 0.19052 0.0
H845 H 0.53677 0.962 0.32614 0.0
H846 H 0.56184 0.97229 0.36436 0.0
H847 H 0.55233 0.93876 0.36184 0.0
C848 C 0.54135 0.6142 0.79436 0.0
C849 C 0.52443 0.61052 0.7579 0.0
C850 C 0.56246 0.5975 0.80091 0.0
C851 C 0.56617 0.57654 0.77076 0.0
C852 C 0.54769 0.57153 0.73652 0.0
C853 C 0.52721 0.5888 0.73014 0.0
C854 C 0.58185 0.60357 0.83756 0.0
C855 C 0.55059 0.54903 0.70431 0.0
C856 C 0.63167 0.55417 0.73127 0.0
C857 C 0.63388 0.53022 0.75297 0.0
C858 C 0.6106 0.57042 0.73976 0.0
C859 C 0.59099 0.56219 0.7699 0.0
C860 C 0.59386 0.53869 0.79396 0.0
C861 C 0.6155 0.52301 0.78548 0.0
C862 C 0.60856 0.59564 0.71417 0.0
C863 C 0.57325 0.5292 0.82604 0.0
H864 H 0.53918 0.63111 0.8157 0.0
H865 H 0.51387 0.58587 0.70226 0.0
H866 H 0.5882 0.58571 0.85519 0.0
H867 H 0.59922 0.61243 0.82196 0.0
H868 H 0.57392 0.61728 0.86297 0.0
H869 H 0.53284 0.54581 0.68391 0.0
H870 H 0.56685 0.55281 0.68072 0.0
H871 H 0.55515 0.53106 0.7232 0.0
H872 H 0.64611 0.55991 0.70664 0.0
H873 H 0.61722 0.50445 0.80228 0.0
H874 H 0.60339 0.61161 0.73753 0.0
H875 H 0.59301 0.59422 0.68838 0.0
H876 H 0.62686 0.60067 0.69661 0.0
H877 H 0.56632 0.54507 0.84818 0.0
H878 H 0.58029 0.51307 0.84765 0.0
H879 H 0.55644 0.52225 0.80617 0.0
C880 C 0.23743 0.47344 0.94476 0.0
C881 C 0.21136 0.47348 0.9318 0.0
C882 C 0.24443 0.47117 0.99065 0.0
C883 C 0.22488 0.46907 0.02409 0.0
C884 C 0.1989 0.4657 0.01055 0.0
C885 C 0.19247 0.46778 0.96452 0.0
C886 C 0.27248 0.47398 0.00361 0.0
C887 C 0.17746 0.46307 0.0449 0.0
C888 C 0.24418 0.46498 0.14883 0.0
C889 C 0.24497 0.49122 0.16021 0.0
C890 C 0.23729 0.45717 0.10472 0.0
C891 C 0.23076 0.47613 0.07192 0.0
C892 C 0.23042 0.50259 0.0843 0.0
C893 C 0.23786 0.50978 0.12809 0.0
C894 C 0.23829 0.42887 0.09271 0.0
C895 C 0.22299 0.52347 0.05086 0.0
H896 H 0.25223 0.47747 0.91976 0.0
H897 H 0.17228 0.46719 0.95476 0.0
H898 H 0.27595 0.49393 0.01592 0.0
H899 H 0.27759 0.4605 0.03147 0.0
H900 H 0.28551 0.47033 0.97438 0.0
H901 H 0.15945 0.45555 0.02929 0.0
H902 H 0.18324 0.45006 0.07304 0.0
H903 H 0.17321 0.48232 0.0597 0.0
H904 H 0.25022 0.45072 0.17363 0.0
H905 H 0.23868 0.53008 0.13707 0.0
H906 H 0.25562 0.42512 0.07159 0.0
H907 H 0.22115 0.4232 0.0725 0.0
H908 H 0.23939 0.41643 0.12336 0.0
H909 H 0.23715 0.52395 0.02265 0.0
H910 H 0.22232 0.54292 0.06672 0.0
H911 H 0.20375 0.51929 0.036 0.0
C912 C 0.03299 0.23497 0.63648 0.0
C913 C 0.00782 0.24408 0.64376 0.0
C914 C 0.04044 0.22543 0.59365 0.0
C915 C 0.02203 0.22445 0.55807 0.0
C916 C -0.00361 0.23295 0.56605 0.0
C917 C 0.98977 0.24297 0.6085 0.0
C918 C 0.06809 0.21724 0.58608 0.0
C919 C 0.97585 0.2316 0.52967 0.0
C920 C 0.0312 0.2236 0.4313 0.0
C921 C 0.02373 0.19819 0.42134 0.0
C922 C 0.03401 0.23182 0.47646 0.0
C923 C 0.02877 0.21434 0.51228 0.0
C924 C 0.02436 0.188 0.5023 0.0
C925 C 0.02221 0.18018 0.45696 0.0
C926 C 0.03983 0.25986 0.4857 0.0
C927 C 0.01862 0.16864 0.53925 0.0
H928 H 0.04703 0.23615 0.66368 0.0
H929 H 0.97025 0.24989 0.61428 0.0
H930 H 0.06897 0.19801 0.5696 0.0
H931 H 0.07758 0.23118 0.56289 0.0
H932 H 0.07925 0.21649 0.61823 0.0
H933 H 0.95659 0.23788 0.54216 0.0
H934 H 0.9813 0.2441 0.50067 0.0
H935 H 0.97418 0.21154 0.51677 0.0
H936 H 0.03292 0.2376 0.40413 0.0
H937 H 0.01697 0.16034 0.44982 0.0
H938 H 0.05284 0.26186 0.51538 0.0
H939 H 0.02158 0.2702 0.49364 0.0
H940 H 0.04889 0.26939 0.45594 0.0
H941 H 0.0317 0.17128 0.56863 0.0
H942 H 0.02043 0.14844 0.52694 0.0
H943 H -0.00147 0.1716 0.55141 0.0
C944 C 0.25634 0.02616 0.93764 0.0
C945 C 0.28248 0.02523 0.92515 0.0
C946 C 0.24915 0.02813 0.98347 0.0
C947 C 0.26854 0.02901 0.01737 0.0
C948 C 0.29472 0.03148 0.00445 0.0
C949 C 0.30136 0.02974 0.95846 0.0
C950 C 0.22092 0.02634 0.99578 0.0
C951 C 0.31604 0.03278 0.0393 0.0
C952 C 0.2486 0.0324 0.1419 0.0
C953 C 0.24649 0.00608 0.15232 0.0
C954 C 0.25614 0.04044 0.09821 0.0
C955 C 0.26206 0.02163 0.06485 0.0
C956 C 0.26117 0.99505 0.07631 0.0
C957 C 0.25308 0.98765 0.11965 0.0
C958 C 0.25644 0.0689 0.08719 0.0
C959 C 0.26798 0.97428 0.04233 0.0
H960 H 0.24154 0.02306 0.91222 0.0
H961 H 0.32162 0.02964 0.94914 0.0
H962 H 0.21655 0.00642 0.00735 0.0
H963 H 0.2162 0.0397 0.02399 0.0
H964 H 0.20824 0.03088 0.96642 0.0
H965 H 0.33445 0.03972 0.02431 0.0
H966 H 0.31063 0.04566 0.06778 0.0
H967 H 0.31938 0.01318 0.05349 0.0
H968 H 0.24304 0.04662 0.16706 0.0
H969 H 0.25138 0.96729 0.12786 0.0
H970 H 0.23938 0.07367 0.06597 0.0
H971 H 0.27391 0.07406 0.06742 0.0
H972 H 0.25574 0.08099 0.11826 0.0
H973 H 0.254 0.9747 0.01381 0.0
H974 H 0.26776 0.95464 0.05753 0.0
H975 H 0.28747 0.97784 0.02801 0.0
C976 C 0.46776 0.29633 0.45331 0.0
C977 C 0.4719 0.27604 0.4228 0.0
C978 C 0.46471 0.29147 0.49979 0.0
C979 C 0.46584 0.2657 0.51571 0.0
C980 C 0.46626 0.24509 0.48409 0.0
C981 C 0.46966 0.25053 0.43781 0.0
C982 C 0.46411 0.31405 0.53208 0.0
C983 C 0.46667 0.21731 0.49955 0.0
C984 C 0.50775 0.25162 0.61782 0.0
C985 C 0.48948 0.24674 0.65159 0.0
C986 C 0.50015 0.25889 0.57415 0.0
C987 C 0.47347 0.26062 0.56357 0.0
C988 C 0.45485 0.25648 0.59804 0.0
C989 C 0.46314 0.24975 0.64201 0.0
C990 C 0.52078 0.2638 0.53891 0.0
C991 C 0.4263 0.25776 0.58804 0.0
H992 H 0.46988 0.31609 0.44161 0.0
H993 H 0.47321 0.23486 0.41422 0.0
H994 H 0.45122 0.31013 0.5613 0.0
H995 H 0.48386 0.31734 0.54554 0.0
H996 H 0.45758 0.33203 0.51494 0.0
H997 H 0.4615 0.20391 0.47159 0.0
H998 H 0.48638 0.21229 0.51157 0.0
H999 H 0.45311 0.21431 0.52818 0.0
H1000 H 0.52813 0.24922 0.62547 0.0
H1001 H 0.44904 0.24554 0.66815 0.0
H1002 H 0.51772 0.28291 0.52267 0.0
H1003 H 0.51966 0.24892 0.51195 0.0
H1004 H 0.54056 0.26336 0.55356 0.0
H1005 H 0.42163 0.27452 0.56605 0.0
H1006 H 0.41464 0.25905 0.61956 0.0
H1007 H 0.42049 0.24005 0.56953 0.0
C1008 C 0.75754 0.48279 0.37649 0.0
C1009 C 0.76756 0.49955 0.34382 0.0
C1010 C 0.75083 0.49174 0.41968 0.0
C1011 C 0.75491 0.51806 0.43084 0.0
C1012 C 0.7641 0.53534 0.39725 0.0
C1013 C 0.77025 0.52585 0.35384 0.0
C1014 C 0.74051 0.47269 0.45402 0.0
C1015 C 0.76894 0.56342 0.40782 0.0
C1016 C 0.71958 0.53348 0.53904 0.0
C1017 C 0.73793 0.52562 0.5714 0.0
C1018 C 0.72561 0.53389 0.4927 0.0
C1019 C 0.75065 0.52655 0.47849 0.0
C1020 C 0.77016 0.52219 0.51137 0.0
C1021 C 0.76357 0.52174 0.55759 0.0
C1022 C 0.70431 0.53912 0.45894 0.0
C1023 C 0.79734 0.51508 0.49763 0.0
H1024 H 0.75579 0.4624 0.36864 0.0
H1025 H 0.77858 0.53865 0.32869 0.0
H1026 H 0.75459 0.47039 0.48211 0.0
H1027 H 0.72221 0.47997 0.46888 0.0
H1028 H 0.73686 0.45338 0.43895 0.0
H1029 H 0.77121 0.57513 0.3765 0.0
H1030 H 0.753 0.57168 0.42837 0.0
H1031 H 0.78694 0.5651 0.42802 0.0
H1032 H 0.69981 0.53707 0.54946 0.0
H1033 H 0.77798 0.51595 0.58227 0.0
H1034 H 0.69709 0.52047 0.44544 0.0
H1035 H 0.71153 0.55061 0.42985 0.0
H1036 H 0.68782 0.54954 0.47471 0.0
H1037 H 0.79771 0.49472 0.48589 0.0
H1038 H 0.81112 0.51703 0.5263 0.0
H1039 H 0.804 0.52739 0.46915 0.0
C1040 C 0.00627 0.75952 0.87996 0.0
C1041 C 0.98877 0.76792 0.84693 0.0
C1042 C -0.00205 0.75302 0.92364 0.0
C1043 C 0.97148 0.75568 0.93507 0.0
C1044 C 0.95353 0.76351 0.9014 0.0
C1045 C 0.9624 0.76934 0.8574 0.0
C1046 C 0.01772 0.74403 0.95796 0.0
C1047 C 0.92527 0.76703 0.91236 0.0
C1048 C 0.95776 0.71888 0.04261 0.0
C1049 C 0.96459 0.73729 0.07549 0.0
C1050 C 0.95728 0.7252 0.99638 0.0
C1051 C 0.96332 0.75067 0.98274 0.0
C1052 C 0.96665 0.77009 0.01609 0.0
C1053 C 0.96737 0.76315 0.0622 0.0
C1054 C 0.95342 0.70389 0.96217 0.0
C1055 C 0.97224 0.79769 0.00296 0.0
H1056 H 0.02668 0.75853 0.87176 0.0
H1057 H 0.94896 0.77634 0.83199 0.0
H1058 H 0.01913 0.75829 0.98589 0.0
H1059 H 0.01168 0.72535 0.97307 0.0
H1060 H 0.03721 0.74152 0.94281 0.0
H1061 H 0.91334 0.76925 0.88128 0.0
H1062 H 0.91785 0.75045 0.93228 0.0
H1063 H 0.92282 0.7846 0.93345 0.0
H1064 H 0.95503 0.6989 0.05254 0.0
H1065 H 0.97235 0.77761 0.08726 0.0
H1066 H 0.97249 0.69796 0.94843 0.0
H1067 H 0.94143 0.7106 0.93329 0.0
H1068 H 0.94413 0.68666 0.97758 0.0
H1069 H 0.99261 0.79925 0.99159 0.0
H1070 H 0.96933 0.81113 0.03186 0.0
H1071 H 0.95972 0.80386 0.97439 0.0
C1072 C 0.72254 0.95935 0.36019 0.0
C1073 C 0.72658 0.9853 0.3488 0.0
C1074 C 0.72886 0.95012 0.40372 0.0
C1075 C 0.73942 0.96734 0.43608 0.0
C1076 C 0.74486 0.9932 0.42346 0.0
C1077 C 0.7381 0.0019 0.3801 0.0
C1078 C 0.72272 0.92248 0.41576 0.0
C1079 C 0.75657 0.01216 0.45651 0.0
C1080 C 0.73078 0.96645 0.56281 0.0
C1081 C 0.75628 0.96188 0.57679 0.0
C1082 C 0.7241 0.96534 0.5167 0.0
C1083 C 0.74336 0.95946 0.48413 0.0
C1084 C 0.76807 0.95128 0.49878 0.0
C1085 C 0.77423 0.95253 0.54502 0.0
C1086 C 0.69727 0.9735 0.50255 0.0
C1087 C 0.78899 0.94424 0.46535 0.0
H1088 H 0.7131 0.94672 0.33604 0.0
H1089 H 0.74088 0.02203 0.37116 0.0
H1090 H 0.73829 0.9138 0.4367 0.0
H1091 H 0.70467 0.92195 0.43601 0.0
H1092 H 0.71987 0.91042 0.38504 0.0
H1093 H 0.7611 0.03102 0.44038 0.0
H1094 H 0.74294 0.01563 0.4849 0.0
H1095 H 0.77463 0.00413 0.47117 0.0
H1096 H 0.71667 0.97339 0.58709 0.0
H1097 H 0.79387 0.9484 0.55565 0.0
H1098 H 0.68992 0.96092 0.47503 0.0
H1099 H 0.69791 0.99357 0.48932 0.0
H1100 H 0.68347 0.97291 0.53137 0.0
H1101 H 0.78107 0.93268 0.43694 0.0
H1102 H 0.80485 0.93318 0.48177 0.0
H1103 H 0.79727 0.96218 0.45081 0.0
C1104 C 0.52613 0.78682 0.04568 0.0
C1105 C 0.5233 0.76802 0.07977 0.0
C1106 C 0.52782 0.77983 0.99983 0.0
C1107 C 0.52714 0.75341 0.98777 0.0
C1108 C 0.52789 0.73437 0.02231 0.0
C1109 C 0.52582 0.74188 0.06798 0.0
C1110 C 0.52717 0.80083 0.9643 0.0
C1111 C 0.52806 0.70596 0.01094 0.0
C1112 C 0.48617 0.73442 0.88685 0.0
C1113 C 0.50471 0.72914 0.85357 0.0
C1114 C 0.49334 0.74305 0.92997 0.0
C1115 C 0.51987 0.74592 0.94065 0.0
C1116 C 0.53877 0.74123 0.9068 0.0
C1117 C 0.53091 0.73309 0.86331 0.0
C1118 C 0.47242 0.74851 0.96444 0.0
C1119 C 0.56721 0.74367 0.91703 0.0
H1120 H 0.52475 0.80712 0.05431 0.0
H1121 H 0.52409 0.72716 0.09395 0.0
H1122 H 0.54012 0.79611 0.93553 0.0
H1123 H 0.50724 0.80257 0.9507 0.0
H1124 H 0.53288 0.81986 0.97848 0.0
H1125 H 0.5338 0.69396 0.04053 0.0
H1126 H 0.5084 0.70002 1.00018 0.0
H1127 H 0.54145 0.70194 0.98244 0.0
H1128 H 0.46589 0.73148 0.8792 0.0
H1129 H 0.54526 0.72868 0.83769 0.0
H1130 H 0.4746 0.76834 0.97814 0.0
H1131 H 0.47419 0.73486 0.99329 0.0
H1132 H 0.45272 0.74665 0.94988 0.0
H1133 H 0.57128 0.76186 0.93551 0.0
H1134 H 0.57913 0.74314 0.88574 0.0
H1135 H 0.57327 0.72745 0.93927 0.0
C1136 C 0.75747 0.48356 0.87663 0.0
C1137 C 0.75127 0.50287 0.84526 0.0
C1138 C 0.76571 0.48978 0.92043 0.0
C1139 C 0.76717 0.51604 0.93367 0.0
C1140 C 0.76163 0.53573 0.90163 0.0
C1141 C 0.75389 0.52888 0.85743 0.0
C1142 C 0.77204 0.46809 0.95299 0.0
C1143 C 0.76259 0.5639 0.91456 0.0
C1144 C 0.76142 0.51784 0.06106 0.0
C1145 C 0.78751 0.51611 0.0736 0.0
C1146 C 0.75432 0.52094 0.01537 0.0
C1147 C 0.77378 0.52216 0.98162 0.0
C1148 C 0.8 0.52369 0.99478 0.0
C1149 C 0.80654 0.5208 0.04064 0.0
C1150 C 0.72607 0.52004 0.00285 0.0
C1151 C 0.82138 0.52527 0.9601 0.0
H1152 H 0.75534 0.46345 0.86704 0.0
H1153 H 0.74864 0.54376 0.83323 0.0
H1154 H 0.79161 0.47087 0.96751 0.0
H1155 H 0.75808 0.46819 0.98152 0.0
H1156 H 0.77135 0.44883 0.93647 0.0
H1157 H 0.762 0.57672 0.88436 0.0
H1158 H 0.74575 0.56853 0.93637 0.0
H1159 H 0.78027 0.56821 0.9344 0.0
H1160 H 0.74651 0.51462 0.08623 0.0
H1161 H 0.82679 0.52008 0.05003 0.0
H1162 H 0.7213 0.50051 0.98985 0.0
H1163 H 0.72167 0.53416 0.9756 0.0
H1164 H 0.71346 0.52413 0.03246 0.0
H1165 H 0.82428 0.50594 0.94463 0.0
H1166 H 0.83994 0.53144 0.97559 0.0
H1167 H 0.8163 0.53891 0.93247 0.0
C1168 C 0.00057 0.75598 0.38208 0.0
C1169 C 0.98213 0.74954 0.34939 0.0
C1170 C 0.99317 0.76422 0.42529 0.0
C1171 C 0.96657 0.76544 0.43654 0.0
C1172 C 0.94775 0.75966 0.40313 0.0
C1173 C 0.9558 0.7519 0.35958 0.0
C1174 C 0.01397 0.77082 0.45935 0.0
C1175 C 0.91928 0.76033 0.41392 0.0
C1176 C 0.96296 0.7598 0.56351 0.0
C1177 C 0.96463 0.78592 0.5758 0.0
C1178 C 0.96018 0.75263 0.51784 0.0
C1179 C 0.95924 0.77203 0.48395 0.0
C1180 C 0.95727 0.79825 0.49685 0.0
C1181 C 0.95982 0.80488 0.5427 0.0
C1182 C 0.96139 0.72437 0.50556 0.0
C1183 C 0.95582 0.81955 0.46198 0.0
H1184 H 0.02092 0.75403 0.37398 0.0
H1185 H 0.9416 0.74645 0.33434 0.0
H1186 H 0.01057 0.79038 0.47352 0.0
H1187 H 0.0134 0.75689 0.48795 0.0
H1188 H 0.03363 0.77031 0.44427 0.0
H1189 H 0.90727 0.76035 0.3827 0.0
H1190 H 0.91421 0.74301 0.43419 0.0
H1191 H 0.91428 0.77756 0.43449 0.0
H1192 H 0.96618 0.74495 0.58882 0.0
H1193 H 0.96041 0.82514 0.55193 0.0
H1194 H 0.98117 0.71955 0.49371 0.0
H1195 H 0.94778 0.71994 0.47757 0.0
H1196 H 0.95679 0.71182 0.53503 0.0
H1197 H 0.97533 0.82274 0.44744 0.0
H1198 H 0.94904 0.83802 0.47708 0.0
H1199 H 0.94272 0.81424 0.43374 0.0
C1200 C 0.73464 0.97183 0.06449 0.0
C1201 C 0.70851 0.97401 0.0765 0.0
C1202 C 0.74198 0.96931 0.0188 0.0
C1203 C 0.72274 0.96927 0.98458 0.0
C1204 C 0.69639 0.96838 0.99702 0.0
C1205 C 0.6896 0.97052 0.04285 0.0
C1206 C 0.77033 0.96941 0.00696 0.0
C1207 C 0.67521 0.96826 0.96181 0.0
C1208 C 0.74023 0.00864 0.88094 0.0
C1209 C 0.74516 0.98955 0.84854 0.0
C1210 C 0.73227 0.00216 0.92478 0.0
C1211 C 0.72983 0.9758 0.93702 0.0
C1212 C 0.7343 0.95635 0.90411 0.0
C1213 C 0.7417 0.9635 0.85988 0.0
C1214 C 0.72701 0.02361 0.95829 0.0
C1215 C 0.73242 0.92808 0.91608 0.0
H1216 H 0.74943 0.97413 0.0902 0.0
H1217 H 0.66931 0.9716 0.0518 0.0
H1218 H 0.77441 0.9557 0.97897 0.0
H1219 H 0.77593 0.98899 0.99526 0.0
H1220 H 0.78256 0.96424 0.03659 0.0
H1221 H 0.65625 0.96277 0.9766 0.0
H1222 H 0.67334 0.98789 0.947 0.0
H1223 H 0.67984 0.95476 0.93379 0.0
H1224 H 0.74295 0.02879 0.87201 0.0
H1225 H 0.74597 0.94875 0.83491 0.0
H1226 H 0.74103 0.02249 0.98669 0.0
H1227 H 0.70737 0.02148 0.97287 0.0
H1228 H 0.7285 0.04307 0.94258 0.0
H1229 H 0.7488 0.92275 0.93851 0.0
H1230 H 0.73305 0.91556 0.88555 0.0
H1231 H 0.71436 0.92406 0.93503 0.0
C1232 C 0.48582 0.74065 0.38593 0.0
C1233 C 0.50362 0.74752 0.35237 0.0
C1234 C 0.49402 0.7326 0.42888 0.0
C1235 C 0.52078 0.73198 0.43902 0.0
C1236 C 0.53897 0.73815 0.40475 0.0
C1237 C 0.53013 0.74569 0.36148 0.0
C1238 C 0.47388 0.72555 0.46386 0.0
C1239 C 0.5676 0.73809 0.41431 0.0
C1240 C 0.52678 0.73758 0.56599 0.0
C1241 C 0.52612 0.71143 0.57842 0.0
C1242 C 0.52827 0.74485 0.52012 0.0
C1243 C 0.52897 0.72551 0.48614 0.0
C1244 C 0.53182 0.69933 0.49894 0.0
C1245 C 0.53051 0.69262 0.54496 0.0
C1246 C 0.52608 0.77308 0.50792 0.0
C1247 C 0.53301 0.67808 0.46401 0.0
H1248 H 0.46531 0.74209 0.37875 0.0
H1249 H 0.54386 0.75144 0.33565 0.0
H1250 H 0.4779 0.70605 0.47787 0.0
H1251 H 0.47459 0.73945 0.49243 0.0
H1252 H 0.45399 0.72565 0.44966 0.0
H1253 H 0.57917 0.73868 0.38262 0.0
H1254 H 0.57252 0.75532 0.43489 0.0
H1255 H 0.57329 0.72079 0.43418 0.0
H1256 H 0.52375 0.75233 0.59152 0.0
H1257 H 0.53063 0.67235 0.55425 0.0
H1258 H 0.50597 0.77737 0.49716 0.0
H1259 H 0.53904 0.77789 0.4792 0.0
H1260 H 0.53087 0.78573 0.53712 0.0
H1261 H 0.5133 0.67455 0.45057 0.0
H1262 H 0.54039 0.65972 0.47871 0.0
H1263 H 0.54547 0.68365 0.43505 0.0
C1264 C 0.23614 0.50817 0.62767 0.0
C1265 C 0.22656 0.49101 0.66009 0.0
C1266 C 0.24255 0.49969 0.58411 0.0
C1267 C 0.23864 0.47344 0.57237 0.0
C1268 C 0.22987 0.45575 0.60565 0.0
C1269 C 0.22403 0.46478 0.64947 0.0
C1270 C 0.25248 0.51917 0.55013 0.0
C1271 C 0.22518 0.42772 0.59443 0.0
C1272 C 0.23008 0.47246 0.44592 0.0
C1273 C 0.25586 0.46967 0.43225 0.0
C1274 C 0.22332 0.47034 0.49189 0.0
C1275 C 0.24285 0.46546 0.52452 0.0
C1276 C 0.26803 0.4589 0.50998 0.0
C1277 C 0.27421 0.46095 0.46389 0.0
C1278 C 0.19599 0.47652 0.50599 0.0
C1279 C 0.28933 0.45307 0.54345 0.0
H1280 H 0.23789 0.52849 0.6361 0.0
H1281 H 0.21609 0.45167 0.67452 0.0
H1282 H 0.27084 0.51227 0.53492 0.0
H1283 H 0.23828 0.52152 0.52225 0.0
H1284 H 0.25593 0.53841 0.56562 0.0
H1285 H 0.22397 0.41564 0.62549 0.0
H1286 H 0.20664 0.426 0.57582 0.0
H1287 H 0.24063 0.41993 0.57222 0.0
H1288 H 0.21567 0.47883 0.42164 0.0
H1289 H 0.29409 0.4581 0.45336 0.0
H1290 H 0.1951 0.49667 0.51874 0.0
H1291 H 0.18964 0.46357 0.5338 0.0
H1292 H 0.18228 0.47471 0.47718 0.0
H1293 H 0.29643 0.47145 0.55818 0.0
H1294 H 0.30589 0.44311 0.527 0.0
H1295 H 0.28216 0.4409 0.57171 0.0
C1296 C 0.98727 0.23314 0.11667 0.0
C1297 C 0.00421 0.2223 0.14839 0.0
C1298 C 0.99554 0.23919 0.07272 0.0
C1299 C 0.02131 0.23362 0.05967 0.0
C1300 C 0.03883 0.22347 0.09214 0.0
C1301 C 0.03008 0.21807 0.13641 0.0
C1302 C 0.9763 0.25064 0.03974 0.0
C1303 C 0.06632 0.21695 0.07954 0.0
C1304 C 0.02246 0.22586 0.93223 0.0
C1305 C 0.0278 0.25127 0.91867 0.0
C1306 C 0.02308 0.2189 0.97836 0.0
C1307 C 0.02906 0.23781 0.01148 0.0
C1308 C 0.03758 0.26248 0.99739 0.0
C1309 C 0.037 0.26885 0.95115 0.0
C1310 C 0.01464 0.1921 0.99188 0.0
C1311 C 0.04441 0.28318 0.03131 0.0
H1312 H 0.96722 0.23622 0.12597 0.0
H1313 H 0.04302 0.20914 0.16074 0.0
H1314 H 0.98415 0.2686 0.02458 0.0
H1315 H 0.97275 0.23683 0.01168 0.0
H1316 H 0.95751 0.25524 0.05608 0.0
H1317 H 0.0785 0.21335 0.10992 0.0
H1318 H 0.06647 0.19928 0.05829 0.0
H1319 H 0.07512 0.2327 0.05926 0.0
H1320 H 0.01553 0.21204 0.90749 0.0
H1321 H 0.04164 0.28843 0.94096 0.0
H1322 H 0.99447 0.19288 0.00462 0.0
H1323 H 0.02697 0.18447 0.0196 0.0
H1324 H 0.01535 0.17847 0.96284 0.0
H1325 H 0.02638 0.29119 0.04609 0.0
H1326 H 0.05528 0.29928 0.01534 0.0
H1327 H 0.05609 0.27513 0.05952 0.0
C1328 C 0.21063 0.03311 0.45907 0.0
C1329 C 0.2292 0.02851 0.42522 0.0
C1330 C 0.21755 0.03388 0.50501 0.0
C1331 C 0.24374 0.03049 0.51737 0.0
C1332 C 0.26291 0.02952 0.48311 0.0
C1333 C 0.25542 0.02839 0.43733 0.0
C1334 C 0.19645 0.03515 0.54026 0.0
C1335 C 0.29116 0.02681 0.49486 0.0
C1336 C 0.26394 0.03172 0.64193 0.0
C1337 C 0.26547 0.00522 0.6513 0.0
C1338 C 0.25663 0.04052 0.59853 0.0
C1339 C 0.2503 0.02231 0.56443 0.0
C1340 C 0.25068 0.99557 0.57477 0.0
C1341 C 0.25859 0.9874 0.61782 0.0
C1342 C 0.2569 0.06911 0.58865 0.0
C1343 C 0.24338 0.97543 0.53999 0.0
H1344 H 0.19032 0.0338 0.45016 0.0
H1345 H 0.27 0.02527 0.41153 0.0
H1346 H 0.19277 0.01543 0.55352 0.0
H1347 H 0.20227 0.04742 0.56929 0.0
H1348 H 0.17811 0.0428 0.52592 0.0
H1349 H 0.30377 0.03149 0.46551 0.0
H1350 H 0.29631 0.0396 0.52362 0.0
H1351 H 0.29517 0.00661 0.50539 0.0
H1352 H 0.26966 0.04547 0.66772 0.0
H1353 H 0.25976 0.9669 0.62523 0.0
H1354 H 0.2393 0.07501 0.56978 0.0
H1355 H 0.27377 0.07367 0.5669 0.0
H1356 H 0.25829 0.08079 0.62012 0.0
H1357 H 0.22392 0.97965 0.52599 0.0
H1358 H 0.24327 0.95559 0.55436 0.0
H1359 H 0.25728 0.97591 0.51137 0.0
C1360 C 0.45575 0.22342 0.95297 0.0
C1361 C 0.46661 0.24068 0.92156 0.0
C1362 C 0.45466 0.22952 0.99922 0.0
C1363 C 0.46449 0.25351 0.01418 0.0
C1364 C 0.47181 0.2724 0.98188 0.0
C1365 C 0.47277 0.26576 0.93575 0.0
C1366 C 0.44608 0.20903 0.03234 0.0
C1367 C 0.48169 0.29852 0.99639 0.0
C1368 C 0.46509 0.27217 0.13912 0.0
C1369 C 0.49059 0.26586 0.15106 0.0
C1370 C 0.45587 0.26774 0.09493 0.0
C1371 C 0.47254 0.25656 0.0623 0.0
C1372 C 0.49784 0.24893 0.07504 0.0
C1373 C 0.50657 0.25383 0.1191 0.0
C1374 C 0.42884 0.2762 0.08272 0.0
C1375 C 0.51612 0.23638 0.04165 0.0
H1376 H 0.45039 0.20415 0.94212 0.0
H1377 H 0.48088 0.27936 0.91171 0.0
H1378 H 0.46337 0.1994 0.04694 0.0
H1379 H 0.43498 0.21763 0.06074 0.0
H1380 H 0.43402 0.19408 0.01564 0.0
H1381 H 0.48192 0.31248 0.96777 0.0
H1382 H 0.46967 0.30654 0.02414 0.0
H1383 H 0.50171 0.29644 0.0094 0.0
H1384 H 0.45272 0.28172 0.16361 0.0
H1385 H 0.52623 0.24874 0.1283 0.0
H1386 H 0.41909 0.26154 0.06135 0.0
H1387 H 0.42979 0.29436 0.06281 0.0
H1388 H 0.41686 0.2798 0.11333 0.0
H1389 H 0.50704 0.21898 0.02659 0.0
H1390 H 0.53468 0.23054 0.0576 0.0
H1391 H 0.52037 0.24999 0.01357 0.0
C1392 C 0.18016 0.57077 0.29997 0.0
C1393 C 0.20205 0.578 0.32483 0.0
C1394 C 0.15847 0.58704 0.29762 0.0
C1395 C 0.15858 0.61084 0.32134 0.0
C1396 C 0.1799 0.61733 0.34903 0.0
C1397 C 0.20149 0.60094 0.35012 0.0
C1398 C 0.13618 0.57956 0.26736 0.0
C1399 C 0.18053 0.64227 0.37551 0.0
C1400 C 0.12121 0.66487 0.26499 0.0
C1401 C 0.09759 0.66429 0.28838 0.0
C1402 C 0.14135 0.64799 0.27624 0.0
C1403 C 0.13806 0.63028 0.31231 0.0
C1404 C 0.1149 0.63054 0.33785 0.0
C1405 C 0.09482 0.64746 0.3254 0.0
C1406 C 0.16573 0.64831 0.24803 0.0
C1407 C 0.11096 0.61226 0.37712 0.0
H1408 H 0.18048 0.55306 0.28042 0.0
H1409 H 0.21823 0.60643 0.36998 0.0
H1410 H 0.1176 0.58154 0.28574 0.0
H1411 H 0.13543 0.59277 0.23773 0.0
H1412 H 0.13795 0.55941 0.25474 0.0
H1413 H 0.19662 0.64264 0.40044 0.0
H1414 H 0.18302 0.65873 0.35182 0.0
H1415 H 0.16204 0.64528 0.39377 0.0
H1416 H 0.12367 0.67783 0.23645 0.0
H1417 H 0.0767 0.6469 0.34376 0.0
H1418 H 0.16813 0.62946 0.23064 0.0
H1419 H 0.18285 0.65113 0.27007 0.0
H1420 H 0.16551 0.66382 0.22197 0.0
H1421 H 0.10938 0.5922 0.36429 0.0
H1422 H 0.09321 0.61689 0.39668 0.0
H1423 H 0.12781 0.61287 0.40036 0.0
C1424 C 0.83545 0.12189 0.73667 0.0
C1425 C 0.83336 0.10008 0.76469 0.0
C1426 C 0.85235 0.14204 0.74744 0.0
C1427 C 0.86742 0.14046 0.78736 0.0
C1428 C 0.86478 0.11899 0.81669 0.0
C1429 C 0.84778 0.09899 0.80496 0.0
C1430 C 0.85461 0.16469 0.71534 0.0
C1431 C 0.8804 0.11684 0.85976 0.0
C1432 C 0.92829 0.18083 0.78361 0.0
C1433 C 0.92 0.20359 0.8049 0.0
C1434 C 0.9117 0.15957 0.77949 0.0
C1435 C 0.88637 0.16111 0.79741 0.0
C1436 C 0.87843 0.18344 0.82121 0.0
C1437 C 0.89532 0.20446 0.82455 0.0
C1438 C 0.92081 0.13602 0.75384 0.0
C1439 C 0.85164 0.18566 0.84117 0.0
H1440 H 0.82439 0.12296 0.70552 0.0
H1441 H 0.84627 0.08224 0.82686 0.0
H1442 H 0.85073 0.18301 0.73362 0.0
H1443 H 0.87459 0.16579 0.70185 0.0
H1444 H 0.84101 0.16327 0.6863 0.0
H1445 H 0.87488 0.09973 0.88031 0.0
H1446 H 0.90124 0.11534 0.85132 0.0
H1447 H 0.87787 0.13445 0.88069 0.0
H1448 H 0.94735 0.17998 0.76845 0.0
H1449 H 0.88886 0.22186 0.84157 0.0
H1450 H 0.90979 0.1343 0.72172 0.0
H1451 H 0.91714 0.11826 0.77386 0.0
H1452 H 0.94173 0.13694 0.74559 0.0
H1453 H 0.83721 0.18682 0.81343 0.0
H1454 H 0.84949 0.20305 0.86291 0.0
H1455 H 0.84702 0.16829 0.86164 0.0
C1456 C 0.28273 0.89743 0.34535 0.0
C1457 C 0.2834 0.92087 0.32139 0.0
C1458 C 0.30355 0.88012 0.34383 0.0
C1459 C 0.32544 0.88629 0.31732 0.0
C1460 C 0.32686 0.91052 0.29511 0.0
C1461 C 0.30584 0.92761 0.29762 0.0
C1462 C 0.3015 0.85463 0.3685 0.0
C1463 C 0.3499 0.91774 0.26642 0.0
C1464 C 0.3878 0.8477 0.32379 0.0
C1465 C 0.38557 0.83189 0.28534 0.0
C1466 C 0.36795 0.86492 0.33578 0.0
C1467 C 0.34549 0.86638 0.30855 0.0
C1468 C 0.34259 0.84958 0.27111 0.0
C1469 C 0.36259 0.83247 0.2601 0.0
C1470 C 0.37149 0.8823 0.37636 0.0
C1471 C 0.31884 0.85048 0.24132 0.0
H1472 H 0.26557 0.89223 0.36434 0.0
H1473 H 0.30652 0.9457 0.27911 0.0
H1474 H 0.29897 0.83882 0.34355 0.0
H1475 H 0.31948 0.85055 0.38771 0.0
H1476 H 0.2849 0.85426 0.39236 0.0
H1477 H 0.34906 0.93815 0.25483 0.0
H1478 H 0.36808 0.91475 0.28567 0.0
H1479 H 0.3507 0.90505 0.23615 0.0
H1480 H 0.40544 0.84735 0.34359 0.0
H1481 H 0.36057 0.82026 0.2305 0.0
H1482 H 0.35414 0.8817 0.39841 0.0
H1483 H 0.37386 0.90256 0.3648 0.0
H1484 H 0.38868 0.87683 0.39681 0.0
H1485 H 0.30116 0.84803 0.2621 0.0
H1486 H 0.31909 0.8353 0.21472 0.0
H1487 H 0.31749 0.86962 0.2245 0.0
C1488 C 0.602 0.28694 0.83775 0.0
C1489 C 0.57798 0.2875 0.81565 0.0
C1490 C 0.61901 0.30793 0.83501 0.0
C1491 C 0.61192 0.32983 0.80914 0.0
C1492 C 0.58717 0.33107 0.78873 0.0
C1493 C 0.57042 0.30992 0.79245 0.0
C1494 C 0.64507 0.30608 0.85781 0.0
C1495 C 0.57897 0.35411 0.76071 0.0
C1496 C 0.64958 0.39265 0.81318 0.0
C1497 C 0.66467 0.39062 0.7738 0.0
C1498 C 0.63295 0.37258 0.82625 0.0
C1499 C 0.63128 0.35013 0.79908 0.0
C1500 C 0.64726 0.34753 0.76045 0.0
C1501 C 0.66383 0.36772 0.74843 0.0
C1502 C 0.61645 0.37581 0.86805 0.0
C1503 C 0.64605 0.32385 0.73059 0.0
H1504 H 0.60786 0.26981 0.85628 0.0
H1505 H 0.55188 0.31054 0.77539 0.0
H1506 H 0.66034 0.30385 0.83171 0.0
H1507 H 0.6493 0.32403 0.8769 0.0
H1508 H 0.64627 0.28939 0.88143 0.0
H1509 H 0.55834 0.35306 0.75047 0.0
H1510 H 0.58206 0.37226 0.77987 0.0
H1511 H 0.59099 0.35516 0.72962 0.0
H1512 H 0.65017 0.41021 0.83312 0.0
H1513 H 0.67546 0.36587 0.71805 0.0
H1514 H 0.61799 0.3585 0.89008 0.0
H1515 H 0.59588 0.37777 0.85802 0.0
H1516 H 0.62198 0.39311 0.88805 0.0
H1517 H 0.64933 0.30616 0.75105 0.0
H1518 H 0.66056 0.32437 0.70286 0.0
H1519 H 0.62654 0.32227 0.71526 0.0
C1520 C 0.70384 0.42385 0.16381 0.0
C1521 C 0.7259 0.41137 0.18058 0.0
C1522 C 0.67989 0.41118 0.16297 0.0
C1523 C 0.67791 0.38587 0.18086 0.0
C1524 C 0.70037 0.37286 0.19615 0.0
C1525 C 0.72417 0.38566 0.19519 0.0
C1526 C 0.65649 0.42535 0.14507 0.0
C1527 C 0.699 0.34618 0.2168 0.0
C1528 C 0.61617 0.36935 0.24231 0.0
C1529 C 0.60491 0.3511 0.21338 0.0
C1530 C 0.63978 0.38086 0.23177 0.0
C1531 C 0.65213 0.37462 0.19045 0.0
C1532 C 0.64048 0.35683 0.16021 0.0
C1533 C 0.61713 0.34481 0.17251 0.0
C1534 C 0.65188 0.39907 0.26573 0.0
C1535 C 0.65276 0.3504 0.11523 0.0
H1536 H 0.70525 0.44361 0.15184 0.0
H1537 H 0.74121 0.37598 0.20826 0.0
H1538 H 0.64474 0.41246 0.12326 0.0
H1539 H 0.64414 0.43154 0.17381 0.0
H1540 H 0.66194 0.44278 0.12527 0.0
H1541 H 0.71847 0.33784 0.22315 0.0
H1542 H 0.68848 0.34717 0.24953 0.0
H1543 H 0.68815 0.33287 0.19441 0.0
H1544 H 0.60693 0.37397 0.27431 0.0
H1545 H 0.60834 0.33074 0.15013 0.0
H1546 H 0.65479 0.41835 0.25016 0.0
H1547 H 0.67116 0.39169 0.27604 0.0
H1548 H 0.63987 0.40148 0.29666 0.0
H1549 H 0.65727 0.36841 0.09643 0.0
H1550 H 0.64008 0.33811 0.09387 0.0
H1551 H 0.67127 0.34005 0.12082 0.0
C1552 C 0.09117 0.71829 0.65261 0.0
C1553 C 0.06841 0.72088 0.67808 0.0
C1554 C 0.10595 0.69557 0.6545 0.0
C1555 C 0.098 0.67515 0.68313 0.0
C1556 C 0.07428 0.67707 0.70689 0.0
C1557 C 0.05966 0.69987 0.7038 0.0
C1558 C 0.13084 0.69406 0.62796 0.0
C1559 C 0.06524 0.65578 0.73807 0.0
C1560 C 0.13028 0.60902 0.68203 0.0
C1561 C 0.14734 0.61121 0.71883 0.0
C1562 C 0.11467 0.62998 0.66872 0.0
C1563 C 0.11599 0.65347 0.69317 0.0
C1564 C 0.13388 0.65606 0.72913 0.0
C1565 C 0.14943 0.63502 0.74125 0.0
C1566 C 0.09616 0.62671 0.62963 0.0
C1567 C 0.13586 0.68076 0.75621 0.0
H1568 H 0.09786 0.73432 0.63211 0.0
H1569 H 0.04208 0.70171 0.7235 0.0
H1570 H 0.14747 0.69582 0.65149 0.0
H1571 H 0.13258 0.67511 0.61067 0.0
H1572 H 0.13227 0.70966 0.6022 0.0
H1573 H 0.04523 0.65909 0.75041 0.0
H1574 H 0.06601 0.63685 0.72056 0.0
H1575 H 0.0783 0.65458 0.76784 0.0
H1576 H 0.12857 0.59074 0.6644 0.0
H1577 H 0.16256 0.63703 0.76965 0.0
H1578 H 0.09798 0.64308 0.60554 0.0
H1579 H 0.07602 0.62678 0.64248 0.0
H1580 H 0.09951 0.60836 0.611 0.0
H1581 H 0.13991 0.6973 0.73339 0.0
H1582 H 0.15128 0.67985 0.78238 0.0
H1583 H 0.11719 0.68474 0.77334 0.0
C1584 C 0.7697 0.0984 0.15891 0.0
C1585 C 0.76906 0.07443 0.18118 0.0
C1586 C 0.79208 0.11359 0.15919 0.0
C1587 C 0.81416 0.10471 0.18282 0.0
C1588 C 0.81415 0.07985 0.20289 0.0
C1589 C 0.79161 0.06491 0.20156 0.0
C1590 C 0.79156 0.13977 0.13662 0.0
C1591 C 0.83733 0.06976 0.22855 0.0
C1592 C 0.87981 0.13688 0.17614 0.0
C1593 C 0.8799 0.15131 0.21641 0.0
C1594 C 0.85801 0.12255 0.16332 0.0
C1595 C 0.83599 0.1225 0.19171 0.0
C1596 C 0.83547 0.13813 0.23102 0.0
C1597 C 0.85735 0.15246 0.24272 0.0
C1598 C 0.85901 0.1065 0.12067 0.0
C1599 C 0.8123 0.13861 0.26221 0.0
H1600 H 0.75243 0.10572 0.14249 0.0
H1601 H 0.79129 0.04638 0.21869 0.0
H1602 H 0.79059 0.15505 0.1629 0.0
H1603 H 0.80947 0.14297 0.11676 0.0
H1604 H 0.77464 0.14204 0.11376 0.0
H1605 H 0.83508 0.04918 0.23848 0.0
H1606 H 0.85508 0.07169 0.2078 0.0
H1607 H 0.84015 0.08139 0.25975 0.0
H1608 H 0.89708 0.13602 0.1554 0.0
H1609 H 0.85712 0.16365 0.27375 0.0
H1610 H 0.84111 0.10915 0.10048 0.0
H1611 H 0.86031 0.08574 0.1298 0.0
H1612 H 0.87591 0.11146 0.09916 0.0
H1613 H 0.79454 0.14337 0.24286 0.0
H1614 H 0.81447 0.15286 0.29007 0.0
H1615 H 0.80951 0.11919 0.27741 0.0
C1616 C 0.34717 0.86394 0.75078 0.0
C1617 C 0.34783 0.8867 0.72491 0.0
C1618 C 0.36302 0.84288 0.74022 0.0
C1619 C 0.37984 0.84441 0.70252 0.0
C1620 C 0.38003 0.86691 0.67523 0.0
C1621 C 0.36406 0.88788 0.68685 0.0
C1622 C 0.36223 0.81919 0.77021 0.0
C1623 C 0.39751 0.86903 0.63446 0.0
C1624 C 0.43606 0.79772 0.71113 0.0
C1625 C 0.42625 0.77627 0.6879 0.0
C1626 C 0.42177 0.82074 0.71395 0.0
C1627 C 0.3973 0.82235 0.69258 0.0
C1628 C 0.38818 0.80138 0.66643 0.0
C1629 C 0.4027 0.77854 0.66463 0.0
C1630 C 0.43208 0.84269 0.74231 0.0
C1631 C 0.36236 0.80248 0.64264 0.0
H1632 H 0.33471 0.86274 0.78023 0.0
H1633 H 0.36471 0.90537 0.66666 0.0
H1634 H 0.35734 0.8019 0.74978 0.0
H1635 H 0.38154 0.81578 0.78544 0.0
H1636 H 0.34787 0.82103 0.79801 0.0
H1637 H 0.39419 0.88716 0.61512 0.0
H1638 H 0.41799 0.86848 0.64552 0.0
H1639 H 0.39449 0.85236 0.61149 0.0
H1640 H 0.45428 0.79611 0.72907 0.0
H1641 H 0.39518 0.76215 0.64599 0.0
H1642 H 0.42028 0.8446 0.77353 0.0
H1643 H 0.43059 0.86122 0.72358 0.0
H1644 H 0.45255 0.83959 0.75234 0.0
H1645 H 0.34663 0.80178 0.66815 0.0
H1646 H 0.35974 0.78611 0.61875 0.0
H1647 H 0.36025 0.82086 0.62364 0.0
C1648 C 0.89854 0.34897 0.67512 0.0
C1649 C 0.89582 0.33215 0.71216 0.0
C1650 C 0.87852 0.36607 0.66297 0.0
C1651 C 0.85547 0.36651 0.68883 0.0
C1652 C 0.85228 0.34892 0.7251 0.0
C1653 C 0.87236 0.33188 0.73606 0.0
C1654 C 0.88238 0.38425 0.62355 0.0
C1655 C 0.82804 0.34879 0.75368 0.0
C1656 C 0.8136 0.4262 0.70135 0.0
C1657 C 0.79157 0.41908 0.67675 0.0
C1658 C 0.83525 0.40986 0.70349 0.0
C1659 C 0.83496 0.38603 0.67992 0.0
C1660 C 0.81349 0.37958 0.65254 0.0
C1661 C 0.79195 0.39608 0.65157 0.0
C1662 C 0.85771 0.41734 0.73338 0.0
C1663 C 0.81263 0.35458 0.62627 0.0
H1664 H 0.91654 0.3493 0.65637 0.0
H1665 H 0.86993 0.31894 0.76465 0.0
H1666 H 0.8655 0.38353 0.60039 0.0
H1667 H 0.88392 0.40436 0.6362 0.0
H1668 H 0.90012 0.37961 0.60395 0.0
H1669 H 0.82834 0.33339 0.77994 0.0
H1670 H 0.82577 0.36773 0.77084 0.0
H1671 H 0.81081 0.34593 0.73192 0.0
H1672 H 0.81348 0.44395 0.72081 0.0
H1673 H 0.77513 0.39061 0.63194 0.0
H1674 H 0.8762 0.41521 0.71478 0.0
H1675 H 0.85852 0.40422 0.76313 0.0
H1676 H 0.85608 0.43753 0.74583 0.0
H1677 H 0.83103 0.35146 0.60776 0.0
H1678 H 0.79643 0.35421 0.60158 0.0
H1679 H 0.81021 0.33819 0.65013 0.0
C1680 C 0.15536 0.87087 0.25283 0.0
C1681 C 0.15712 0.89324 0.22613 0.0
C1682 C 0.1384 0.85091 0.24136 0.0
C1683 C 0.1229 0.85326 0.20204 0.0
C1684 C 0.12531 0.87524 0.17385 0.0
C1685 C 0.14239 0.89504 0.18627 0.0
C1686 C 0.13645 0.82768 0.27223 0.0
C1687 C 0.10925 0.8782 0.13142 0.0
C1688 C 0.09456 0.78961 0.16445 0.0
C1689 C 0.07035 0.79012 0.18589 0.0
C1690 C 0.1113 0.81078 0.16692 0.0
C1691 C 0.1037 0.83288 0.19171 0.0
C1692 C 0.0787 0.83415 0.21107 0.0
C1693 C 0.06223 0.81275 0.20775 0.0
C1694 C 0.13769 0.80885 0.14534 0.0
C1695 C 0.06995 0.85745 0.23778 0.0
H1696 H 0.1667 0.86922 0.28359 0.0
H1697 H 0.14363 0.91224 0.1654 0.0
H1698 H 0.11664 0.8264 0.28643 0.0
H1699 H 0.14002 0.8097 0.25277 0.0
H1700 H 0.15041 0.82851 0.30079 0.0
H1701 H 0.11491 0.89543 0.11128 0.0
H1702 H 0.11114 0.86079 0.10979 0.0
H1703 H 0.08856 0.88007 0.14068 0.0
H1704 H 0.10083 0.77231 0.14691 0.0
H1705 H 0.04353 0.81331 0.22424 0.0
H1706 H 0.15258 0.80691 0.1722 0.0
H1707 H 0.14213 0.82664 0.12588 0.0
H1708 H 0.13929 0.79196 0.1223 0.0
H1709 H 0.08123 0.85869 0.2697 0.0
H1710 H 0.04909 0.85654 0.24653 0.0
H1711 H 0.07357 0.87544 0.21837 0.0
C1712 C 0.70468 0.09534 0.65614 0.0
C1713 C 0.70467 0.07175 0.67964 0.0
C1714 C 0.68364 0.11236 0.65895 0.0
C1715 C 0.66222 0.10574 0.6863 0.0
C1716 C 0.66147 0.08136 0.70809 0.0
C1717 C 0.68267 0.06458 0.70429 0.0
C1718 C 0.68498 0.13802 0.63467 0.0
C1719 C 0.63897 0.07366 0.73772 0.0
C1720 C 0.62559 0.15899 0.74617 0.0
C1721 C 0.60225 0.15966 0.72198 0.0
C1722 C 0.64546 0.14198 0.73407 0.0
C1723 C 0.64208 0.12535 0.69652 0.0
C1724 C 0.61914 0.12675 0.67051 0.0
C1725 C 0.5994 0.14385 0.68366 0.0
C1726 C 0.66968 0.14108 0.7627 0.0
C1727 C 0.61507 0.10955 0.62986 0.0
H1728 H 0.72148 0.10089 0.63649 0.0
H1729 H 0.68247 0.04636 0.72245 0.0
H1730 H 0.66665 0.14198 0.61641 0.0
H1731 H 0.68769 0.15372 0.6598 0.0
H1732 H 0.70119 0.13876 0.61004 0.0
H1733 H 0.64023 0.05317 0.7488 0.0
H1734 H 0.63851 0.08611 0.76831 0.0
H1735 H 0.62046 0.07656 0.71945 0.0
H1736 H 0.62808 0.17116 0.77573 0.0
H1737 H 0.58148 0.14427 0.66466 0.0
H1738 H 0.68698 0.14401 0.74116 0.0
H1739 H 0.67156 0.12178 0.77879 0.0
H1740 H 0.66965 0.15596 0.78981 0.0
H1741 H 0.63192 0.11068 0.6067 0.0
H1742 H 0.59735 0.11479 0.61065 0.0
H1743 H 0.61339 0.08917 0.64111 0.0
C1744 C 0.4268 0.68461 0.21231 0.0
C1745 C 0.4194 0.70612 0.18654 0.0
C1746 C 0.4106 0.66299 0.21569 0.0
C1747 C 0.38671 0.66288 0.19223 0.0
C1748 C 0.38017 0.68367 0.16332 0.0
C1749 C 0.39653 0.70515 0.16106 0.0
C1750 C 0.41819 0.64115 0.24696 0.0
C1751 C 0.35509 0.68406 0.13714 0.0
C1752 C 0.34879 0.60014 0.191 0.0
C1753 C 0.33204 0.60382 0.22788 0.0
C1754 C 0.36631 0.61946 0.17803 0.0
C1755 C 0.36715 0.64284 0.20274 0.0
C1756 C 0.34964 0.64704 0.23882 0.0
C1757 C 0.33223 0.62756 0.25078 0.0
C1758 C 0.38446 0.61452 0.13893 0.0
C1759 C 0.34988 0.6718 0.26594 0.0
H1760 H 0.44448 0.68527 0.23199 0.0
H1761 H 0.39092 0.7216 0.14048 0.0
H1762 H 0.40542 0.64128 0.27719 0.0
H1763 H 0.41563 0.62225 0.22987 0.0
H1764 H 0.43854 0.64276 0.25857 0.0
H1765 H 0.35473 0.69961 0.11115 0.0
H1766 H 0.3518 0.66524 0.12016 0.0
H1767 H 0.33878 0.68729 0.16088 0.0
H1768 H 0.34875 0.58189 0.17303 0.0
H1769 H 0.31935 0.63068 0.27922 0.0
H1770 H 0.40458 0.61313 0.1517 0.0
H1771 H 0.3838 0.63085 0.11455 0.0
H1772 H 0.37976 0.59639 0.12062 0.0
H1773 H 0.36892 0.67413 0.28276 0.0
H1774 H 0.33459 0.67223 0.29234 0.0
H1775 H 0.3471 0.68864 0.24317 0.0
C1776 C 0.38685 0.63464 0.82028 0.0
C1777 C 0.38672 0.64947 0.78042 0.0
C1778 C 0.36511 0.62006 0.83296 0.0
C1779 C 0.34294 0.62015 0.80483 0.0
C1780 C 0.34249 0.63558 0.76524 0.0
C1781 C 0.36427 0.65014 0.75372 0.0
C1782 C 0.36608 0.60412 0.87578 0.0
C1783 C 0.31927 0.63612 0.73415 0.0
C1784 C 0.29551 0.56466 0.79973 0.0
C1785 C 0.27376 0.57555 0.82074 0.0
C1786 C 0.31875 0.57845 0.79654 0.0
C1787 C 0.32034 0.60356 0.81533 0.0
C1788 C 0.29902 0.61393 0.8392 0.0
C1789 C 0.27591 0.59987 0.84135 0.0
C1790 C 0.34102 0.5668 0.77049 0.0
C1791 C 0.3001 0.64047 0.86028 0.0
H1792 H 0.40407 0.63404 0.84118 0.0
H1793 H 0.36388 0.66149 0.72284 0.0
H1794 H 0.34903 0.60837 0.89733 0.0
H1795 H 0.36532 0.58329 0.86709 0.0
H1796 H 0.3839 0.60774 0.89577 0.0
H1797 H 0.32188 0.64951 0.70507 0.0
H1798 H 0.3156 0.61646 0.72068 0.0
H1799 H 0.30181 0.64213 0.75324 0.0
H1800 H 0.29403 0.54586 0.78381 0.0
H1801 H 0.2593 0.60828 0.85822 0.0
H1802 H 0.35919 0.56835 0.79022 0.0
H1803 H 0.34383 0.57767 0.73842 0.0
H1804 H 0.33767 0.54617 0.76206 0.0
H1805 H 0.31819 0.64287 0.88001 0.0
H1806 H 0.28337 0.6442 0.88294 0.0
H1807 H 0.30011 0.65533 0.83314 0.0
C1808 C 0.84579 0.35593 0.2766 0.0
C1809 C 0.84995 0.38053 0.29513 0.0
C1810 C 0.86157 0.33501 0.28816 0.0
C1811 C 0.88178 0.33854 0.31984 0.0
C1812 C 0.88495 0.36279 0.34129 0.0
C1813 C 0.86907 0.38363 0.32843 0.0
C1814 C 0.85747 0.30946 0.26442 0.0
C1815 C 0.90586 0.36704 0.37613 0.0
C1816 C 0.90803 0.27381 0.35654 0.0
C1817 C 0.92824 0.27035 0.32546 0.0
C1818 C 0.8942 0.2971 0.35832 0.0
C1819 C 0.90036 0.31709 0.32747 0.0
C1820 C 0.92195 0.31437 0.2983 0.0
C1821 C 0.93583 0.29106 0.29798 0.0
C1822 C 0.87183 0.29955 0.39085 0.0
C1823 C 0.92901 0.33515 0.26459 0.0
H1824 H 0.83089 0.35319 0.25125 0.0
H1825 H 0.87235 0.40253 0.3431 0.0
H1826 H 0.87478 0.30459 0.24391 0.0
H1827 H 0.85484 0.29379 0.28963 0.0
H1828 H 0.84038 0.30975 0.24164 0.0
H1829 H 0.90294 0.38533 0.39516 0.0
H1830 H 0.90657 0.35075 0.40056 0.0
H1831 H 0.9249 0.36794 0.35897 0.0
H1832 H 0.90241 0.25796 0.37847 0.0
H1833 H 0.9515 0.28848 0.27402 0.0
H1834 H 0.85342 0.29701 0.37213 0.0
H1835 H 0.87143 0.31902 0.40653 0.0
H1836 H 0.87273 0.28478 0.41814 0.0
H1837 H 0.91399 0.33614 0.23777 0.0
H1838 H 0.94797 0.3314 0.24821 0.0
H1839 H 0.92968 0.35431 0.28133 0.0
C1840 C 0.10774 0.86173 0.81009 0.0
C1841 C 0.10822 0.8467 0.77051 0.0
C1842 C 0.12897 0.8771 0.8222 0.0
C1843 C 0.15103 0.87749 0.79392 0.0
C1844 C 0.15192 0.86181 0.75471 0.0
C1845 C 0.13057 0.84654 0.74361 0.0
C1846 C 0.12754 0.89338 0.86455 0.0
C1847 C 0.17516 0.86169 0.72369 0.0
C1848 C 0.19728 0.93404 0.78962 0.0
C1849 C 0.21889 0.92372 0.81187 0.0
C1850 C 0.17445 0.91966 0.78548 0.0
C1851 C 0.17323 0.89454 0.80445 0.0
C1852 C 0.19442 0.88471 0.82936 0.0
C1853 C 0.21704 0.89938 0.8326 0.0
C1854 C 0.15221 0.93073 0.75854 0.0
C1855 C 0.19372 0.85814 0.8505 0.0
H1856 H 0.09057 0.86196 0.83111 0.0
H1857 H 0.13119 0.835 0.71298 0.0
H1858 H 0.14453 0.88953 0.88652 0.0
H1859 H 0.12807 0.91415 0.8553 0.0
H1860 H 0.10968 0.88967 0.88436 0.0
H1861 H 0.17292 0.84804 0.69493 0.0
H1862 H 0.17832 0.88136 0.70978 0.0
H1863 H 0.19276 0.85628 0.74298 0.0
H1864 H 0.19857 0.95285 0.77361 0.0
H1865 H 0.23356 0.89142 0.85043 0.0
H1866 H 0.13389 0.92888 0.77776 0.0
H1867 H 0.14993 0.91968 0.72658 0.0
H1868 H 0.15521 0.95139 0.74989 0.0
H1869 H 0.17565 0.85546 0.87014 0.0
H1870 H 0.21047 0.85465 0.87328 0.0
H1871 H 0.19397 0.84328 0.8234 0.0
C1872 C 0.62855 0.10669 0.32596 0.0
C1873 C 0.65364 0.10708 0.30818 0.0
C1874 C 0.61542 0.12985 0.33528 0.0
C1875 C 0.62794 0.15372 0.32717 0.0
C1876 C 0.65426 0.15401 0.31425 0.0
C1877 C 0.66675 0.13065 0.30455 0.0
C1878 C 0.58738 0.12872 0.34912 0.0
C1879 C 0.66849 0.17903 0.30624 0.0
C1880 C 0.58872 0.20862 0.27758 0.0
C1881 C 0.58552 0.22497 0.31502 0.0
C1882 C 0.60196 0.18514 0.28158 0.0
C1883 C 0.61257 0.17789 0.324 0.0
C1884 C 0.60929 0.19414 0.36209 0.0
C1885 C 0.59565 0.21748 0.35721 0.0
C1886 C 0.60483 0.1682 0.24014 0.0
C1887 C 0.62059 0.18713 0.40765 0.0
H1888 H 0.61835 0.08849 0.32879 0.0
H1889 H 0.68631 0.13095 0.29137 0.0
H1890 H 0.58303 0.14329 0.37558 0.0
H1891 H 0.57507 0.13318 0.31929 0.0
H1892 H 0.58198 0.1093 0.36205 0.0
H1893 H 0.68972 0.17603 0.30426 0.0
H1894 H 0.6619 0.1877 0.2738 0.0
H1895 H 0.66431 0.19312 0.33358 0.0
H1896 H 0.58074 0.21412 0.24498 0.0
H1897 H 0.59328 0.23004 0.38629 0.0
H1898 H 0.5973 0.14856 0.24728 0.0
H1899 H 0.62557 0.16617 0.23129 0.0
H1900 H 0.59444 0.17611 0.21022 0.0
H1901 H 0.61421 0.16755 0.41795 0.0
H1902 H 0.61499 0.20109 0.43451 0.0
H1903 H 0.64198 0.18663 0.40531 0.0
loop_
_geom_bond_atom_site_label_1
_geom_bond_atom_site_label_2
_geom_bond_distance
_geom_bond_site_symmetry_2
_ccdc_geom_bond_type
O0 Zn1 1.953 . S
O0 C16 1.225 . S
Zn1 O0 1.953 . S
Zn1 O2 1.949 . S
Zn1 O8 1.919 . S
Zn1 O13 1.924 . S
O2 Zn1 1.949 . S
O2 Zn3 1.923 . S
O2 Zn4 1.950 . S
O2 Zn5 1.945 . S
Zn3 O2 1.923 . S
Zn3 O6 1.933 . S
Zn3 O9 1.941 . S
Zn3 O10 1.965 . S
Zn4 O2 1.950 . S
Zn4 O11 1.938 . S
Zn4 O12 1.906 . S
Zn4 O22 1.953 . S
Zn5 O2 1.945 . S
Zn5 O7 1.932 . S
Zn5 O14 1.977 . S
Zn5 O15 1.910 . S
O6 Zn3 1.933 . S
O6 C17 1.226 . S
O7 Zn5 1.932 . S
O7 C17 1.307 . S
O8 Zn1 1.919 . S
O8 C19 1.253 . S
O9 Zn3 1.941 . S
O9 C19 1.283 . S
O10 Zn3 1.965 . S
O10 C18 1.303 . S
O11 Zn4 1.938 . S
O11 C18 1.247 . S
O12 Zn4 1.906 . S
O12 C20 1.304 . S
O13 Zn1 1.924 . S
O13 C21 1.311 . S
O14 Zn5 1.977 . S
O14 C20 1.272 . S
O15 Zn5 1.910 . S
O15 C21 1.231 . S
C16 O0 1.225 . S
C16 O22 1.298 . S
C17 O6 1.226 . S
C17 O7 1.307 . S
C18 O10 1.303 . S
C18 O11 1.247 . S
C19 O8 1.253 . S
C19 O9 1.283 . S
C20 O12 1.304 . S
C20 O14 1.272 . S
C21 O13 1.311 . S
C21 O15 1.231 . S
O22 Zn4 1.953 . S
O22 C16 1.298 . S
O23 Zn24 1.953 . S
O23 C39 1.225 . S
Zn24 O23 1.953 . S
Zn24 O25 1.949 . S
Zn24 O31 1.919 . S
Zn24 O36 1.924 . S
O25 Zn24 1.949 . S
O25 Zn26 1.923 . S
O25 Zn27 1.950 . S
O25 Zn28 1.945 . S
Zn26 O25 1.923 . S
Zn26 O29 1.933 . S
Zn26 O32 1.941 . S
Zn26 O33 1.965 1_655 S
Zn27 O25 1.950 . S
Zn27 O34 1.940 . S
Zn27 O35 1.906 1_655 S
Zn27 O45 1.953 . S
Zn28 O25 1.945 . S
Zn28 O30 1.932 . S
Zn28 O37 2.008 . S
Zn28 O38 1.910 . S
O29 Zn26 1.933 . S
O29 C40 1.226 . S
O30 Zn28 1.932 . S
O30 C40 1.307 . S
O31 Zn24 1.919 . S
O31 C42 1.253 . S
O32 Zn26 1.941 . S
O32 C42 1.283 . S
O33 Zn26 1.965 1_455 S
O33 C41 1.303 . S
O34 Zn27 1.940 . S
O34 C41 1.246 1_655 S
O35 Zn27 1.906 1_455 S
O35 C43 1.304 . S
O36 Zn24 1.924 . S
O36 C44 1.311 . S
O37 Zn28 2.008 . S
O37 C43 1.243 1_655 S
O38 Zn28 1.910 . S
O38 C44 1.231 . S
C39 O23 1.225 . S
C39 O45 1.298 . S
C40 O29 1.226 . S
C40 O30 1.307 . S
C41 O33 1.303 . S
C41 O34 1.246 1_455 S
C42 O31 1.253 . S
C42 O32 1.283 . S
C43 O35 1.304 . S
C43 O37 1.243 1_455 S
C44 O36 1.311 . S
C44 O38 1.231 . S
O45 Zn27 1.953 . S
O45 C39 1.298 . S
O46 Zn47 1.953 . S
O46 C62 1.225 . S
Zn47 O46 1.953 . S
Zn47 O48 1.949 . S
Zn47 O54 1.919 . S
Zn47 O59 1.924 . S
O48 Zn47 1.949 . S
O48 Zn49 1.923 . S
O48 Zn50 1.950 . S
O48 Zn51 1.945 . S
Zn49 O48 1.923 . S
Zn49 O52 1.933 . S
Zn49 O55 1.941 . S
Zn49 O56 1.965 1_565 S
Zn50 O48 1.950 . S
Zn50 O57 1.939 1_565 S
Zn50 O58 1.906 1_565 S
Zn50 O68 1.953 . S
Zn51 O48 1.945 . S
Zn51 O53 1.932 . S
Zn51 O60 1.997 . S
Zn51 O61 1.910 . S
O52 Zn49 1.933 . S
O52 C63 1.226 . S
O53 Zn51 1.932 . S
O53 C63 1.307 . S
O54 Zn47 1.919 . S
O54 C65 1.253 . S
O55 Zn49 1.941 . S
O55 C65 1.283 . S
O56 Zn49 1.965 1_545 S
O56 C64 1.303 . S
O57 Zn50 1.939 1_545 S
O57 C64 1.247 . S
O58 Zn50 1.906 1_545 S
O58 C66 1.304 . S
O59 Zn47 1.924 . S
O59 C67 1.311 . S
O60 Zn51 1.997 . S
O60 C66 1.253 1_565 S
O61 Zn51 1.910 . S
O61 C67 1.231 . S
C62 O46 1.225 . S
C62 O68 1.298 . S
C63 O52 1.226 . S
C63 O53 1.307 . S
C64 O56 1.303 . S
C64 O57 1.247 . S
C65 O54 1.253 . S
C65 O55 1.283 . S
C66 O58 1.304 . S
C66 O60 1.253 1_545 S
C67 O59 1.311 . S
C67 O61 1.231 . S
O68 Zn50 1.953 . S
O68 C62 1.298 . S
O69 Zn70 1.953 . S
O69 C85 1.225 . S
Zn70 O69 1.953 . S
Zn70 O71 1.949 . S
Zn70 O77 1.919 . S
Zn70 O82 1.924 . S
O71 Zn70 1.949 . S
O71 Zn72 1.923 . S
O71 Zn73 1.950 . S
O71 Zn74 1.945 . S
Zn72 O71 1.923 . S
Zn72 O75 1.933 . S
Zn72 O78 1.941 . S
Zn72 O79 1.965 . S
Zn73 O71 1.950 . S
Zn73 O80 1.938 . S
Zn73 O81 1.906 . S
Zn73 O91 1.953 . S
Zn74 O71 1.945 . S
Zn74 O76 1.932 . S
Zn74 O83 1.977 . S
Zn74 O84 1.910 . S
O75 Zn72 1.933 . S
O75 C86 1.226 . S
O76 Zn74 1.932 . S
O76 C86 1.307 . S
O77 Zn70 1.919 . S
O77 C88 1.253 . S
O78 Zn72 1.941 . S
O78 C88 1.283 . S
O79 Zn72 1.965 . S
O79 C87 1.303 . S
O80 Zn73 1.938 . S
O80 C87 1.247 . S
O81 Zn73 1.906 . S
O81 C89 1.304 . S
O82 Zn70 1.924 . S
O82 C90 1.311 . S
O83 Zn74 1.977 . S
O83 C89 1.272 . S
O84 Zn74 1.910 . S
O84 C90 1.231 . S
C85 O69 1.225 . S
C85 O91 1.298 . S
C86 O75 1.226 . S
C86 O76 1.307 . S
C87 O79 1.303 . S
C87 O80 1.247 . S
C88 O77 1.253 . S
C88 O78 1.283 . S
C89 O81 1.304 . S
C89 O83 1.272 . S
C90 O82 1.311 . S
C90 O84 1.231 . S
O91 Zn73 1.953 . S
O91 C85 1.298 . S
O92 Zn93 1.953 . S
O92 C108 1.225 . S
Zn93 O92 1.953 . S
Zn93 O94 1.949 . S
Zn93 O100 1.919 . S
Zn93 O105 1.924 . S
O94 Zn93 1.949 . S
O94 Zn95 1.923 . S
O94 Zn96 1.950 . S
O94 Zn97 1.945 . S
Zn95 O94 1.923 . S
Zn95 O98 1.933 . S
Zn95 O101 1.941 . S
Zn95 O102 1.965 . S
Zn96 O94 1.950 . S
Zn96 O103 1.938 . S
Zn96 O104 1.906 . S
Zn96 O114 1.953 . S
Zn97 O94 1.945 . S
Zn97 O99 1.932 . S
Zn97 O106 1.977 . S
Zn97 O107 1.910 . S
O98 Zn95 1.933 . S
O98 C109 1.226 . S
O99 Zn97 1.932 . S
O99 C109 1.307 . S
O100 Zn93 1.919 . S
O100 C111 1.253 . S
O101 Zn95 1.941 . S
O101 C111 1.283 . S
O102 Zn95 1.965 . S
O102 C110 1.303 . S
O103 Zn96 1.938 . S
O103 C110 1.247 . S
O104 Zn96 1.906 . S
O104 C112 1.304 . S
O105 Zn93 1.924 . S
O105 C113 1.311 . S
O106 Zn97 1.977 . S
O106 C112 1.272 . S
O107 Zn97 1.910 . S
O107 C113 1.231 . S
C108 O92 1.225 . S
C108 O114 1.298 . S
C109 O98 1.226 . S
C109 O99 1.307 . S
C110 O102 1.303 . S
C110 O103 1.247 . S
C111 O100 1.253 . S
C111 O101 1.283 . S
C112 O104 1.304 . S
C112 O106 1.272 . S
C113 O105 1.311 . S
C113 O107 1.231 . S
O114 Zn96 1.953 . S
O114 C108 1.298 . S
O115 Zn116 1.953 . S
O115 C131 1.225 . S
Zn116 O115 1.953 . S
Zn116 O117 1.949 . S
Zn116 O123 1.919 . S
Zn116 O128 1.924 . S
O117 Zn116 1.949 . S
O117 Zn118 1.923 . S
O117 Zn119 1.950 . S
O117 Zn120 1.945 . S
Zn118 O117 1.923 . S
Zn118 O121 1.933 . S
Zn118 O124 1.941 . S
Zn118 O125 1.965 1_455 S
Zn119 O117 1.950 . S
Zn119 O126 1.937 1_455 S
Zn119 O127 1.906 1_455 S
Zn119 O137 1.953 . S
Zn120 O117 1.945 . S
Zn120 O122 1.932 . S
Zn120 O129 1.991 . S
Zn120 O130 1.910 . S
O121 Zn118 1.933 . S
O121 C132 1.226 . S
O122 Zn120 1.932 . S
O122 C132 1.307 . S
O123 Zn116 1.919 . S
O123 C134 1.253 . S
O124 Zn118 1.941 . S
O124 C134 1.283 . S
O125 Zn118 1.965 1_655 S
O125 C133 1.303 . S
O126 Zn119 1.937 1_655 S
O126 C133 1.247 . S
O127 Zn119 1.906 1_655 S
O127 C135 1.304 . S
O128 Zn116 1.924 . S
O128 C136 1.311 . S
O129 Zn120 1.991 . S
O129 C135 1.258 1_455 S
O130 Zn120 1.910 . S
O130 C136 1.231 . S
C131 O115 1.225 . S
C131 O137 1.298 . S
C132 O121 1.226 . S
C132 O122 1.307 . S
C133 O125 1.303 . S
C133 O126 1.247 . S
C134 O123 1.253 . S
C134 O124 1.283 . S
C135 O127 1.304 . S
C135 O129 1.258 1_655 S
C136 O128 1.311 . S
C136 O130 1.231 . S
O137 Zn119 1.953 . S
O137 C131 1.298 . S
O138 Zn139 1.953 . S
O138 C154 1.225 . S
Zn139 O138 1.953 . S
Zn139 O140 1.949 . S
Zn139 O146 1.919 . S
Zn139 O151 1.924 . S
O140 Zn139 1.949 . S
O140 Zn141 1.923 . S
O140 Zn142 1.950 . S
O140 Zn143 1.945 . S
Zn141 O140 1.923 . S
Zn141 O144 1.933 . S
Zn141 O147 1.941 . S
Zn141 O148 1.965 1_545 S
Zn142 O140 1.950 . S
Zn142 O149 1.941 . S
Zn142 O150 1.906 1_545 S
Zn142 O160 1.953 . S
Zn143 O140 1.945 . S
Zn143 O145 1.932 . S
Zn143 O152 2.006 . S
Zn143 O153 1.910 . S
O144 Zn141 1.933 . S
O144 C155 1.226 . S
O145 Zn143 1.932 . S
O145 C155 1.307 . S
O146 Zn139 1.919 . S
O146 C157 1.253 . S
O147 Zn141 1.941 . S
O147 C157 1.283 . S
O148 Zn141 1.965 1_565 S
O148 C156 1.303 . S
O149 Zn142 1.941 . S
O149 C156 1.246 1_545 S
O150 Zn142 1.906 1_565 S
O150 C158 1.304 . S
O151 Zn139 1.924 . S
O151 C159 1.311 . S
O152 Zn143 2.006 . S
O152 C158 1.245 1_545 S
O153 Zn143 1.910 . S
O153 C159 1.231 . S
C154 O138 1.225 . S
C154 O160 1.298 . S
C155 O144 1.226 . S
C155 O145 1.307 . S
C156 O148 1.303 . S
C156 O149 1.246 1_565 S
C157 O146 1.253 . S
C157 O147 1.283 . S
C158 O150 1.304 . S
C158 O152 1.245 1_565 S
C159 O151 1.311 . S
C159 O153 1.231 . S
O160 Zn142 1.953 . S
O160 C154 1.298 . S
O161 Zn162 1.953 . S
O161 C177 1.225 . S
Zn162 O161 1.953 . S
Zn162 O163 1.949 . S
Zn162 O169 1.919 . S
Zn162 O174 1.924 . S
O163 Zn162 1.949 . S
O163 Zn164 1.923 . S
O163 Zn165 1.950 . S
O163 Zn166 1.945 . S
Zn164 O163 1.923 . S
Zn164 O167 1.933 . S
Zn164 O170 1.941 . S
Zn164 O171 1.965 . S
Zn165 O163 1.950 . S
Zn165 O172 1.938 . S
Zn165 O173 1.906 . S
Zn165 O183 1.953 . S
Zn166 O163 1.945 . S
Zn166 O168 1.932 . S
Zn166 O175 1.977 . S
Zn166 O176 1.910 . S
O167 Zn164 1.933 . S
O167 C178 1.226 . S
O168 Zn166 1.932 . S
O168 C178 1.307 . S
O169 Zn162 1.919 . S
O169 C180 1.253 . S
O170 Zn164 1.941 . S
O170 C180 1.283 . S
O171 Zn164 1.965 . S
O171 C179 1.303 . S
O172 Zn165 1.938 . S
O172 C179 1.247 . S
O173 Zn165 1.906 . S
O173 C181 1.304 . S
O174 Zn162 1.924 . S
O174 C182 1.311 . S
O175 Zn166 1.977 . S
O175 C181 1.272 . S
O176 Zn166 1.910 . S
O176 C182 1.231 . S
C177 O161 1.225 . S
C177 O183 1.298 . S
C178 O167 1.226 . S
C178 O168 1.307 . S
C179 O171 1.303 . S
C179 O172 1.247 . S
C180 O169 1.253 . S
C180 O170 1.283 . S
C181 O173 1.304 . S
C181 O175 1.272 . S
C182 O174 1.311 . S
C182 O176 1.231 . S
O183 Zn165 1.953 . S
O183 C177 1.298 . S
O184 Zn185 1.953 . S
O184 C200 1.225 . S
Zn185 O184 1.953 . S
Zn185 O186 1.949 . S
Zn185 O192 1.919 . S
Zn185 O197 1.924 . S
O186 Zn185 1.949 . S
O186 Zn187 1.923 . S
O186 Zn188 1.950 . S
O186 Zn189 1.945 . S
Zn187 O186 1.923 . S
Zn187 O190 1.933 . S
Zn187 O193 1.941 . S
Zn187 O194 1.965 . S
Zn188 O186 1.950 . S
Zn188 O195 1.938 . S
Zn188 O196 1.906 . S
Zn188 O206 1.953 . S
Zn189 O186 1.945 . S
Zn189 O191 1.932 . S
Zn189 O198 1.977 . S
Zn189 O199 1.910 . S
O190 Zn187 1.933 . S
O190 C201 1.226 . S
O191 Zn189 1.932 . S
O191 C201 1.307 . S
O192 Zn185 1.919 . S
O192 C203 1.253 . S
O193 Zn187 1.941 . S
O193 C203 1.283 . S
O194 Zn187 1.965 . S
O194 C202 1.303 . S
O195 Zn188 1.938 . S
O195 C202 1.247 . S
O196 Zn188 1.906 . S
O196 C204 1.304 . S
O197 Zn185 1.924 . S
O197 C205 1.311 . S
O198 Zn189 1.977 . S
O198 C204 1.272 . S
O199 Zn189 1.910 . S
O199 C205 1.231 . S
C200 O184 1.225 . S
C200 O206 1.298 . S
C201 O190 1.226 . S
C201 O191 1.307 . S
C202 O194 1.303 . S
C202 O195 1.247 . S
C203 O192 1.253 . S
C203 O193 1.283 . S
C204 O196 1.304 . S
C204 O198 1.272 . S
C205 O197 1.311 . S
C205 O199 1.231 . S
O206 Zn188 1.953 . S
O206 C200 1.298 . S
O207 Zn208 1.953 . S
O207 C223 1.225 . S
Zn208 O207 1.953 . S
Zn208 O209 1.949 . S
Zn208 O215 1.919 . S
Zn208 O220 1.924 . S
O209 Zn208 1.949 . S
O209 Zn210 1.923 . S
O209 Zn211 1.950 . S
O209 Zn212 1.945 . S
Zn210 O209 1.923 . S
Zn210 O213 1.933 . S
Zn210 O216 1.941 . S
Zn210 O217 1.965 1_455 S
Zn211 O209 1.950 . S
Zn211 O218 1.937 . S
Zn211 O219 1.906 1_455 S
Zn211 O229 1.953 . S
Zn212 O209 1.945 . S
Zn212 O214 1.932 . S
Zn212 O221 2.003 . S
Zn212 O222 1.910 . S
O213 Zn210 1.933 . S
O213 C224 1.226 . S
O214 Zn212 1.932 . S
O214 C224 1.307 . S
O215 Zn208 1.919 . S
O215 C226 1.253 . S
O216 Zn210 1.941 . S
O216 C226 1.283 . S
O217 Zn210 1.965 1_655 S
O217 C225 1.303 . S
O218 Zn211 1.937 . S
O218 C225 1.247 1_455 S
O219 Zn211 1.906 1_655 S
O219 C227 1.304 . S
O220 Zn208 1.924 . S
O220 C228 1.311 . S
O221 Zn212 2.003 . S
O221 C227 1.248 1_455 S
O222 Zn212 1.910 . S
O222 C228 1.231 . S
C223 O207 1.225 . S
C223 O229 1.298 . S
C224 O213 1.226 . S
C224 O214 1.307 . S
C225 O217 1.303 . S
C225 O218 1.247 1_655 S
C226 O215 1.253 . S
C226 O216 1.283 . S
C227 O219 1.304 . S
C227 O221 1.248 1_655 S
C228 O220 1.311 . S
C228 O222 1.231 . S
O229 Zn211 1.953 . S
O229 C223 1.298 . S
O230 Zn231 1.953 . S
O230 C246 1.225 . S
Zn231 O230 1.953 . S
Zn231 O232 1.949 . S
Zn231 O238 1.919 . S
Zn231 O243 1.924 . S
O232 Zn231 1.949 . S
O232 Zn233 1.923 . S
O232 Zn234 1.950 . S
O232 Zn235 1.945 . S
Zn233 O232 1.923 . S
Zn233 O236 1.933 . S
Zn233 O239 1.941 . S
Zn233 O240 1.965 1_545 S
Zn234 O232 1.950 . S
Zn234 O241 1.945 . S
Zn234 O242 1.906 1_545 S
Zn234 O252 1.953 . S
Zn235 O232 1.945 . S
Zn235 O237 1.932 . S
Zn235 O244 1.977 . S
Zn235 O245 1.910 . S
O236 Zn233 1.933 . S
O236 C247 1.226 . S
O237 Zn235 1.932 . S
O237 C247 1.307 . S
O238 Zn231 1.919 . S
O238 C249 1.253 . S
O239 Zn233 1.941 . S
O239 C249 1.283 . S
O240 Zn233 1.965 1_565 S
O240 C248 1.303 . S
O241 Zn234 1.945 . S
O241 C248 1.245 1_545 S
O242 Zn234 1.906 1_565 S
O242 C250 1.304 . S
O243 Zn231 1.924 . S
O243 C251 1.311 . S
O244 Zn235 1.977 . S
O244 C250 1.272 1_545 S
O245 Zn235 1.910 . S
O245 C251 1.231 . S
C246 O230 1.225 . S
C246 O252 1.298 . S
C247 O236 1.226 . S
C247 O237 1.307 . S
C248 O240 1.303 . S
C248 O241 1.245 1_565 S
C249 O238 1.253 . S
C249 O239 1.283 . S
C250 O242 1.304 . S
C250 O244 1.272 1_565 S
C251 O243 1.311 . S
C251 O245 1.231 . S
O252 Zn234 1.953 . S
O252 C246 1.298 . S
O253 Zn254 1.953 . S
O253 C269 1.225 . S
Zn254 O253 1.953 . S
Zn254 O255 1.949 . S
Zn254 O261 1.919 . S
Zn254 O266 1.924 . S
O255 Zn254 1.949 . S
O255 Zn256 1.923 . S
O255 Zn257 1.950 . S
O255 Zn258 1.945 . S
Zn256 O255 1.923 . S
Zn256 O259 1.933 . S
Zn256 O262 1.941 . S
Zn256 O263 1.965 . S
Zn257 O255 1.950 . S
Zn257 O264 1.938 . S
Zn257 O265 1.906 . S
Zn257 O275 1.953 . S
Zn258 O255 1.945 . S
Zn258 O260 1.932 . S
Zn258 O267 1.977 . S
Zn258 O268 1.910 . S
O259 Zn256 1.933 . S
O259 C270 1.226 . S
O260 Zn258 1.932 . S
O260 C270 1.307 . S
O261 Zn254 1.919 . S
O261 C272 1.253 . S
O262 Zn256 1.941 . S
O262 C272 1.283 . S
O263 Zn256 1.965 . S
O263 C271 1.303 . S
O264 Zn257 1.938 . S
O264 C271 1.247 . S
O265 Zn257 1.906 . S
O265 C273 1.304 . S
O266 Zn254 1.924 . S
O266 C274 1.311 . S
O267 Zn258 1.977 . S
O267 C273 1.272 . S
O268 Zn258 1.910 . S
O268 C274 1.231 . S
C269 O253 1.225 . S
C269 O275 1.298 . S
C270 O259 1.226 . S
C270 O260 1.307 . S
C271 O263 1.303 . S
C271 O264 1.247 . S
C272 O261 1.253 . S
C272 O262 1.283 . S
C273 O265 1.304 . S
C273 O267 1.272 . S
C274 O266 1.311 . S
C274 O268 1.231 . S
O275 Zn257 1.953 . S
O275 C269 1.298 . S
O276 Zn277 1.953 . S
O276 C292 1.225 . S
Zn277 O276 1.953 . S
Zn277 O278 1.949 . S
Zn277 O284 1.919 . S
Zn277 O289 1.924 . S
O278 Zn277 1.949 . S
O278 Zn279 1.923 . S
O278 Zn280 1.950 . S
O278 Zn281 1.945 . S
Zn279 O278 1.923 . S
Zn279 O282 1.933 . S
Zn279 O285 1.941 . S
Zn279 O286 1.965 . S
Zn280 O278 1.950 . S
Zn280 O287 1.938 . S
Zn280 O288 1.906 . S
Zn280 O298 1.953 . S
Zn281 O278 1.945 . S
Zn281 O283 1.932 . S
Zn281 O290 1.977 . S
Zn281 O291 1.910 . S
O282 Zn279 1.933 . S
O282 C293 1.226 . S
O283 Zn281 1.932 . S
O283 C293 1.307 . S
O284 Zn277 1.919 . S
O284 C295 1.253 . S
O285 Zn279 1.941 . S
O285 C295 1.283 . S
O286 Zn279 1.965 . S
O286 C294 1.303 . S
O287 Zn280 1.938 . S
O287 C294 1.247 . S
O288 Zn280 1.906 . S
O288 C296 1.304 . S
O289 Zn277 1.924 . S
O289 C297 1.311 . S
O290 Zn281 1.977 . S
O290 C296 1.272 . S
O291 Zn281 1.910 . S
O291 C297 1.231 . S
C292 O276 1.225 . S
C292 O298 1.298 . S
C293 O282 1.226 . S
C293 O283 1.307 . S
C294 O286 1.303 . S
C294 O287 1.247 . S
C295 O284 1.253 . S
C295 O285 1.283 . S
C296 O288 1.304 . S
C296 O290 1.272 . S
C297 O289 1.311 . S
C297 O291 1.231 . S
O298 Zn280 1.953 . S
O298 C292 1.298 . S
O299 Zn300 1.953 . S
O299 C315 1.225 . S
Zn300 O299 1.953 . S
Zn300 O301 1.949 . S
Zn300 O307 1.919 . S
Zn300 O312 1.924 . S
O301 Zn300 1.949 . S
O301 Zn302 1.923 . S
O301 Zn303 1.950 . S
O301 Zn304 1.945 . S
Zn302 O301 1.923 . S
Zn302 O305 1.933 . S
Zn302 O308 1.941 . S
Zn302 O309 1.965 1_655 S
Zn303 O301 1.950 . S
Zn303 O310 1.940 . S
Zn303 O311 1.906 1_655 S
Zn303 O321 1.953 . S
Zn304 O301 1.945 . S
Zn304 O306 1.932 . S
Zn304 O313 2.004 . S
Zn304 O314 1.910 . S
O305 Zn302 1.933 . S
O305 C316 1.226 . S
O306 Zn304 1.932 . S
O306 C316 1.307 . S
O307 Zn300 1.919 . S
O307 C318 1.253 . S
O308 Zn302 1.941 . S
O308 C318 1.283 . S
O309 Zn302 1.965 1_455 S
O309 C317 1.303 . S
O310 Zn303 1.940 . S
O310 C317 1.246 1_655 S
O311 Zn303 1.906 1_455 S
O311 C319 1.304 . S
O312 Zn300 1.924 . S
O312 C320 1.311 . S
O313 Zn304 2.004 . S
O313 C319 1.246 1_655 S
O314 Zn304 1.910 . S
O314 C320 1.231 . S
C315 O299 1.225 . S
C315 O321 1.298 . S
C316 O305 1.226 . S
C316 O306 1.307 . S
C317 O309 1.303 . S
C317 O310 1.246 1_455 S
C318 O307 1.253 . S
C318 O308 1.283 . S
C319 O311 1.304 . S
C319 O313 1.246 1_455 S
C320 O312 1.311 . S
C320 O314 1.231 . S
O321 Zn303 1.953 . S
O321 C315 1.298 . S
O322 Zn323 1.953 . S
O322 C338 1.225 . S
Zn323 O322 1.953 . S
Zn323 O324 1.949 . S
Zn323 O330 1.919 . S
Zn323 O335 1.924 . S
O324 Zn323 1.949 . S
O324 Zn325 1.923 . S
O324 Zn326 1.950 . S
O324 Zn327 1.945 . S
Zn325 O324 1.923 . S
Zn325 O328 1.933 . S
Zn325 O331 1.941 . S
Zn325 O332 1.965 1_565 S
Zn326 O324 1.950 . S
Zn326 O333 1.938 1_565 S
Zn326 O334 1.906 1_565 S
Zn326 O344 1.953 . S
Zn327 O324 1.945 . S
Zn327 O329 1.932 . S
Zn327 O336 1.994 . S
Zn327 O337 1.910 . S
O328 Zn325 1.933 . S
O328 C339 1.226 . S
O329 Zn327 1.932 . S
O329 C339 1.307 . S
O330 Zn323 1.919 . S
O330 C341 1.253 . S
O331 Zn325 1.941 . S
O331 C341 1.283 . S
O332 Zn325 1.965 1_545 S
O332 C340 1.303 . S
O333 Zn326 1.938 1_545 S
O333 C340 1.247 . S
O334 Zn326 1.906 1_545 S
O334 C342 1.304 . S
O335 Zn323 1.924 . S
O335 C343 1.311 . S
O336 Zn327 1.994 . S
O336 C342 1.255 1_565 S
O337 Zn327 1.910 . S
O337 C343 1.231 . S
C338 O322 1.225 . S
C338 O344 1.298 . S
C339 O328 1.226 . S
C339 O329 1.307 . S
C340 O332 1.303 . S
C340 O333 1.247 . S
C341 O330 1.253 . S
C341 O331 1.283 . S
C342 O334 1.304 . S
C342 O336 1.255 1_545 S
C343 O335 1.311 . S
C343 O337 1.231 . S
O344 Zn326 1.953 . S
O344 C338 1.298 . S
O345 Zn346 1.953 . S
O345 C361 1.225 . S
Zn346 O345 1.953 . S
Zn346 O347 1.949 . S
Zn346 O353 1.919 . S
Zn346 O358 1.924 . S
O347 Zn346 1.949 . S
O347 Zn348 1.923 . S
O347 Zn349 1.950 . S
O347 Zn350 1.945 . S
Zn348 O347 1.923 . S
Zn348 O351 1.933 . S
Zn348 O354 1.941 . S
Zn348 O355 1.965 . S
Zn349 O347 1.950 . S
Zn349 O356 1.938 . S
Zn349 O357 1.906 . S
Zn349 O367 1.953 . S
Zn350 O347 1.945 . S
Zn350 O352 1.932 . S
Zn350 O359 1.977 . S
Zn350 O360 1.910 . S
O351 Zn348 1.933 . S
O351 C362 1.226 . S
O352 Zn350 1.932 . S
O352 C362 1.307 . S
O353 Zn346 1.919 . S
O353 C364 1.253 . S
O354 Zn348 1.941 . S
O354 C364 1.283 . S
O355 Zn348 1.965 . S
O355 C363 1.303 . S
O356 Zn349 1.938 . S
O356 C363 1.247 . S
O357 Zn349 1.906 . S
O357 C365 1.304 . S
O358 Zn346 1.924 . S
O358 C366 1.311 . S
O359 Zn350 1.977 . S
O359 C365 1.272 . S
O360 Zn350 1.910 . S
O360 C366 1.231 . S
C361 O345 1.225 . S
C361 O367 1.298 . S
C362 O351 1.226 . S
C362 O352 1.307 . S
C363 O355 1.303 . S
C363 O356 1.247 . S
C364 O353 1.253 . S
C364 O354 1.283 . S
C365 O357 1.304 . S
C365 O359 1.272 . S
C366 O358 1.311 . S
C366 O360 1.231 . S
O367 Zn349 1.953 . S
O367 C361 1.298 . S
C368 C369 1.391 . S
C368 C370 1.394 . S
C368 H384 0.931 . S
C369 C368 1.391 . S
C369 C373 1.376 . S
C370 C368 1.394 . S
C370 C371 1.369 . S
C370 C374 1.531 . S
C371 C370 1.369 . S
C371 C372 1.410 . S
C371 C379 1.503 . S
C372 C371 1.410 . S
C372 C373 1.392 . S
C372 C375 1.511 . S
C373 C369 1.376 . S
C373 C372 1.392 . S
C373 H385 0.929 . S
C374 C370 1.531 . S
C374 H386 0.960 . S
C374 H387 0.962 . S
C374 H388 0.960 . S
C375 C372 1.511 . S
C375 H389 0.961 . S
C375 H390 0.961 . S
C375 H391 0.961 . S
C376 C377 1.370 . S
C376 C378 1.363 . S
C376 H392 0.931 . S
C377 C376 1.370 . S
C377 C381 1.408 . S
C378 C376 1.363 . S
C378 C379 1.370 . S
C378 C382 1.524 . S
C379 C371 1.503 . S
C379 C378 1.370 . S
C379 C380 1.403 . S
C380 C379 1.403 . S
C380 C381 1.404 . S
C380 C383 1.539 . S
C381 C377 1.408 . S
C381 C380 1.404 . S
C381 H393 0.930 . S
C382 C378 1.524 . S
C382 H394 0.956 . S
C382 H395 0.961 . S
C382 H396 0.961 . S
C383 C380 1.539 . S
C383 H397 0.958 . S
C383 H398 0.961 . S
C383 H399 0.960 . S
H384 C368 0.931 . S
H385 C373 0.929 . S
H386 C374 0.960 . S
H387 C374 0.962 . S
H388 C374 0.960 . S
H389 C375 0.961 . S
H390 C375 0.961 . S
H391 C375 0.961 . S
H392 C376 0.931 . S
H393 C381 0.930 . S
H394 C382 0.956 . S
H395 C382 0.961 . S
H396 C382 0.961 . S
H397 C383 0.958 . S
H398 C383 0.961 . S
H399 C383 0.960 . S
C400 C401 1.391 . S
C400 C402 1.394 . S
C400 H416 0.931 . S
C401 C400 1.391 . S
C401 C405 1.376 . S
C402 C400 1.394 . S
C402 C403 1.369 . S
C402 C406 1.531 1_554 S
C403 C402 1.369 . S
C403 C404 1.410 . S
C403 C411 1.503 1_554 S
C404 C403 1.410 . S
C404 C405 1.392 . S
C404 C407 1.511 . S
C405 C401 1.376 . S
C405 C404 1.392 . S
C405 H417 0.929 . S
C406 C402 1.531 1_556 S
C406 H418 0.960 . S
C406 H419 0.962 . S
C406 H420 0.960 . S
C407 C404 1.511 . S
C407 H421 0.961 . S
C407 H422 0.961 . S
C407 H423 0.961 . S
C408 C409 1.370 . S
C408 C410 1.363 . S
C408 H424 0.931 . S
C409 C408 1.370 . S
C409 C413 1.408 . S
C410 C408 1.363 . S
C410 C411 1.370 . S
C410 C414 1.524 . S
C411 C403 1.503 1_556 S
C411 C410 1.370 . S
C411 C412 1.403 1_556 S
C412 C411 1.403 1_554 S
C412 C413 1.404 1_554 S
C412 C415 1.539 . S
C413 C409 1.408 . S
C413 C412 1.404 1_556 S
C413 H425 0.930 . S
C414 C410 1.524 . S
C414 H426 0.956 . S
C414 H427 0.961 . S
C414 H428 0.961 . S
C415 C412 1.539 . S
C415 H429 0.958 . S
C415 H430 0.961 . S
C415 H431 0.960 . S
H416 C400 0.931 . S
H417 C405 0.929 . S
H418 C406 0.960 . S
H419 C406 0.962 . S
H420 C406 0.960 . S
H421 C407 0.961 . S
H422 C407 0.961 . S
H423 C407 0.961 . S
H424 C408 0.931 . S
H425 C413 0.930 . S
H426 C414 0.956 . S
H427 C414 0.961 . S
H428 C414 0.961 . S
H429 C415 0.958 . S
H430 C415 0.961 . S
H431 C415 0.960 . S
C432 C433 1.391 . S
C432 C434 1.394 . S
C432 H448 0.931 . S
C433 C432 1.391 . S
C433 C437 1.376 . S
C434 C432 1.394 . S
C434 C435 1.369 . S
C434 C438 1.531 . S
C435 C434 1.369 . S
C435 C436 1.410 . S
C435 C443 1.503 . S
C436 C435 1.410 . S
C436 C437 1.392 . S
C436 C439 1.511 . S
C437 C433 1.376 . S
C437 C436 1.392 . S
C437 H449 0.929 . S
C438 C434 1.531 . S
C438 H450 0.960 . S
C438 H451 0.962 . S
C438 H452 0.960 . S
C439 C436 1.511 . S
C439 H453 0.961 . S
C439 H454 0.961 . S
C439 H455 0.961 . S
C440 C441 1.370 . S
C440 C442 1.363 . S
C440 H456 0.931 . S
C441 C440 1.370 . S
C441 C445 1.408 . S
C442 C440 1.363 . S
C442 C443 1.370 . S
C442 C446 1.524 . S
C443 C435 1.503 . S
C443 C442 1.370 . S
C443 C444 1.403 . S
C444 C443 1.403 . S
C444 C445 1.404 . S
C444 C447 1.539 . S
C445 C441 1.408 . S
C445 C444 1.404 . S
C445 H457 0.930 . S
C446 C442 1.524 . S
C446 H458 0.956 . S
C446 H459 0.961 . S
C446 H460 0.961 . S
C447 C444 1.539 . S
C447 H461 0.958 . S
C447 H462 0.961 . S
C447 H463 0.960 . S
H448 C432 0.931 . S
H449 C437 0.929 . S
H450 C438 0.960 . S
H451 C438 0.962 . S
H452 C438 0.960 . S
H453 C439 0.961 . S
H454 C439 0.961 . S
H455 C439 0.961 . S
H456 C440 0.931 . S
H457 C445 0.930 . S
H458 C446 0.956 . S
H459 C446 0.961 . S
H460 C446 0.961 . S
H461 C447 0.958 . S
H462 C447 0.961 . S
H463 C447 0.960 . S
C464 C465 1.391 . S
C464 C466 1.394 . S
C464 H480 0.931 . S
C465 C464 1.391 . S
C465 C469 1.376 . S
C466 C464 1.394 . S
C466 C467 1.369 . S
C466 C470 1.531 1_556 S
C467 C466 1.369 . S
C467 C468 1.410 . S
C467 C475 1.503 1_556 S
C468 C467 1.410 . S
C468 C469 1.392 . S
C468 C471 1.511 . S
C469 C465 1.376 . S
C469 C468 1.392 . S
C469 H481 0.929 . S
C470 C466 1.531 1_554 S
C470 H482 0.960 . S
C470 H483 0.962 . S
C470 H484 0.960 1_554 S
C471 C468 1.511 . S
C471 H485 0.961 . S
C471 H486 0.961 . S
C471 H487 0.961 . S
C472 C473 1.370 . S
C472 C474 1.363 . S
C472 H488 0.931 . S
C473 C472 1.370 . S
C473 C477 1.408 . S
C474 C472 1.363 . S
C474 C475 1.370 . S
C474 C478 1.524 . S
C475 C467 1.503 1_554 S
C475 C474 1.370 . S
C475 C476 1.403 1_554 S
C476 C475 1.403 1_556 S
C476 C477 1.404 1_556 S
C476 C479 1.539 . S
C477 C473 1.408 . S
C477 C476 1.404 1_554 S
C477 H489 0.930 . S
C478 C474 1.524 . S
C478 H490 0.956 . S
C478 H491 0.961 . S
C478 H492 0.961 . S
C479 C476 1.539 . S
C479 H493 0.958 . S
C479 H494 0.961 . S
C479 H495 0.960 . S
H480 C464 0.931 . S
H481 C469 0.929 . S
H482 C470 0.960 . S
H483 C470 0.962 . S
H484 C470 0.960 1_556 S
H485 C471 0.961 . S
H486 C471 0.961 . S
H487 C471 0.961 . S
H488 C472 0.931 . S
H489 C477 0.930 . S
H490 C478 0.956 . S
H491 C478 0.961 . S
H492 C478 0.961 . S
H493 C479 0.958 . S
H494 C479 0.961 . S
H495 C479 0.960 . S
C496 C497 1.391 . S
C496 C498 1.394 . S
C496 H512 0.931 . S
C497 C496 1.391 . S
C497 C501 1.376 . S
C498 C496 1.394 . S
C498 C499 1.369 . S
C498 C502 1.531 . S
C499 C498 1.369 . S
C499 C500 1.410 . S
C499 C507 1.503 . S
C500 C499 1.410 . S
C500 C501 1.392 . S
C500 C503 1.511 . S
C501 C497 1.376 . S
C501 C500 1.392 . S
C501 H513 0.929 . S
C502 C498 1.531 . S
C502 H514 0.960 . S
C502 H515 0.962 . S
C502 H516 0.960 . S
C503 C500 1.511 . S
C503 H517 0.961 . S
C503 H518 0.961 . S
C503 H519 0.961 . S
C504 C505 1.370 . S
C504 C506 1.363 . S
C504 H520 0.931 . S
C505 C504 1.370 . S
C505 C509 1.408 . S
C506 C504 1.363 . S
C506 C507 1.370 . S
C506 C510 1.524 . S
C507 C499 1.503 . S
C507 C506 1.370 . S
C507 C508 1.403 . S
C508 C507 1.403 . S
C508 C509 1.404 . S
C508 C511 1.539 . S
C509 C505 1.408 . S
C509 C508 1.404 . S
C509 H521 0.930 . S
C510 C506 1.524 . S
C510 H522 0.956 . S
C510 H523 0.961 . S
C510 H524 0.961 . S
C511 C508 1.539 . S
C511 H525 0.958 . S
C511 H526 0.961 . S
C511 H527 0.960 . S
H512 C496 0.931 . S
H513 C501 0.929 . S
H514 C502 0.960 . S
H515 C502 0.962 . S
H516 C502 0.960 . S
H517 C503 0.961 . S
H518 C503 0.961 . S
H519 C503 0.961 . S
H520 C504 0.931 . S
H521 C509 0.930 . S
H522 C510 0.956 . S
H523 C510 0.961 . S
H524 C510 0.961 . S
H525 C511 0.958 . S
H526 C511 0.961 . S
H527 C511 0.960 . S
C528 C529 1.391 . S
C528 C530 1.394 . S
C528 H544 0.931 . S
C529 C528 1.391 . S
C529 C533 1.376 . S
C530 C528 1.394 . S
C530 C531 1.369 . S
C530 C534 1.531 . S
C531 C530 1.369 . S
C531 C532 1.410 . S
C531 C539 1.503 1_556 S
C532 C531 1.410 . S
C532 C533 1.392 . S
C532 C535 1.511 . S
C533 C529 1.376 . S
C533 C532 1.392 . S
C533 H545 0.929 . S
C534 C530 1.531 . S
C534 H546 0.960 . S
C534 H547 0.962 . S
C534 H548 0.960 . S
C535 C532 1.511 . S
C535 H549 0.961 . S
C535 H550 0.961 1_556 S
C535 H551 0.961 . S
C536 C537 1.370 . S
C536 C538 1.363 . S
C536 H552 0.931 . S
C537 C536 1.370 . S
C537 C541 1.408 . S
C538 C536 1.363 . S
C538 C539 1.370 . S
C538 C542 1.524 . S
C539 C531 1.503 1_554 S
C539 C538 1.370 . S
C539 C540 1.403 1_554 S
C540 C539 1.403 1_556 S
C540 C541 1.404 1_556 S
C540 C543 1.539 . S
C541 C537 1.408 . S
C541 C540 1.404 1_554 S
C541 H553 0.930 . S
C542 C538 1.524 . S
C542 H554 0.956 . S
C542 H555 0.961 . S
C542 H556 0.961 . S
C543 C540 1.539 . S
C543 H557 0.958 . S
C543 H558 0.961 . S
C543 H559 0.960 . S
H544 C528 0.931 . S
H545 C533 0.929 . S
H546 C534 0.960 . S
H547 C534 0.962 . S
H548 C534 0.960 . S
H549 C535 0.961 . S
H550 C535 0.961 1_554 S
H551 C535 0.961 . S
H552 C536 0.931 . S
H553 C541 0.930 . S
H554 C542 0.956 . S
H555 C542 0.961 . S
H556 C542 0.961 . S
H557 C543 0.958 . S
H558 C543 0.961 . S
H559 C543 0.960 . S
C560 C561 1.391 . S
C560 C562 1.394 . S
C560 H576 0.931 . S
C561 C560 1.391 . S
C561 C565 1.376 . S
C562 C560 1.394 . S
C562 C563 1.369 . S
C562 C566 1.531 . S
C563 C562 1.369 . S
C563 C564 1.410 . S
C563 C571 1.503 . S
C564 C563 1.410 . S
C564 C565 1.392 . S
C564 C567 1.511 . S
C565 C561 1.376 . S
C565 C564 1.392 . S
C565 H577 0.929 . S
C566 C562 1.531 . S
C566 H578 0.960 . S
C566 H579 0.962 . S
C566 H580 0.960 . S
C567 C564 1.511 . S
C567 H581 0.961 . S
C567 H582 0.961 . S
C567 H583 0.961 . S
C568 C569 1.370 . S
C568 C570 1.363 . S
C568 H584 0.931 . S
C569 C568 1.370 . S
C569 C573 1.408 . S
C570 C568 1.363 . S
C570 C571 1.370 . S
C570 C574 1.524 . S
C571 C563 1.503 . S
C571 C570 1.370 . S
C571 C572 1.403 . S
C572 C571 1.403 . S
C572 C573 1.404 . S
C572 C575 1.539 . S
C573 C569 1.408 . S
C573 C572 1.404 . S
C573 H585 0.930 . S
C574 C570 1.524 . S
C574 H586 0.956 . S
C574 H587 0.961 . S
C574 H588 0.961 . S
C575 C572 1.539 . S
C575 H589 0.958 . S
C575 H590 0.961 . S
C575 H591 0.960 . S
H576 C560 0.931 . S
H577 C565 0.929 . S
H578 C566 0.960 . S
H579 C566 0.962 . S
H580 C566 0.960 . S
H581 C567 0.961 . S
H582 C567 0.961 . S
H583 C567 0.961 . S
H584 C568 0.931 . S
H585 C573 0.930 . S
H586 C574 0.956 . S
H587 C574 0.961 . S
H588 C574 0.961 . S
H589 C575 0.958 . S
H590 C575 0.961 . S
H591 C575 0.960 . S
C592 C593 1.391 . S
C592 C594 1.394 . S
C592 H608 0.931 . S
C593 C592 1.391 . S
C593 C597 1.376 . S
C594 C592 1.394 . S
C594 C595 1.369 . S
C594 C598 1.531 . S
C595 C594 1.369 . S
C595 C596 1.410 1_556 S
C595 C603 1.503 1_556 S
C596 C595 1.410 1_554 S
C596 C597 1.392 1_554 S
C596 C599 1.511 . S
C597 C593 1.376 . S
C597 C596 1.392 1_556 S
C597 H609 0.929 . S
C598 C594 1.531 . S
C598 H610 0.960 . S
C598 H611 0.962 . S
C598 H612 0.960 . S
C599 C596 1.511 . S
C599 H613 0.961 . S
C599 H614 0.961 . S
C599 H615 0.961 . S
C600 C601 1.370 . S
C600 C602 1.363 . S
C600 H616 0.931 . S
C601 C600 1.370 . S
C601 C605 1.408 . S
C602 C600 1.363 . S
C602 C603 1.370 . S
C602 C606 1.524 1_554 S
C603 C595 1.503 1_554 S
C603 C602 1.370 . S
C603 C604 1.403 . S
C604 C603 1.403 . S
C604 C605 1.404 . S
C604 C607 1.539 . S
C605 C601 1.408 . S
C605 C604 1.404 . S
C605 H617 0.930 . S
C606 C602 1.524 1_556 S
C606 H618 0.956 . S
C606 H619 0.961 . S
C606 H620 0.961 . S
C607 C604 1.539 . S
C607 H621 0.958 . S
C607 H622 0.961 . S
C607 H623 0.960 . S
H608 C592 0.931 . S
H609 C597 0.929 . S
H610 C598 0.960 . S
H611 C598 0.962 . S
H612 C598 0.960 . S
H613 C599 0.961 . S
H614 C599 0.961 . S
H615 C599 0.961 . S
H616 C600 0.931 . S
H617 C605 0.930 . S
H618 C606 0.956 . S
H619 C606 0.961 . S
H620 C606 0.961 . S
H621 C607 0.958 . S
H622 C607 0.961 . S
H623 C607 0.960 . S
C624 C625 1.391 . S
C624 C626 1.394 . S
C624 H640 0.931 . S
C625 C624 1.391 . S
C625 C629 1.376 . S
C626 C624 1.394 . S
C626 C627 1.369 . S
C626 C630 1.531 . S
C627 C626 1.369 . S
C627 C628 1.410 . S
C627 C635 1.503 . S
C628 C627 1.410 . S
C628 C629 1.392 . S
C628 C631 1.511 . S
C629 C625 1.376 . S
C629 C628 1.392 . S
C629 H641 0.929 . S
C630 C626 1.531 . S
C630 H642 0.960 . S
C630 H643 0.962 . S
C630 H644 0.960 . S
C631 C628 1.511 . S
C631 H645 0.961 . S
C631 H646 0.961 . S
C631 H647 0.961 . S
C632 C633 1.370 . S
C632 C634 1.363 . S
C632 H648 0.931 . S
C633 C632 1.370 . S
C633 C637 1.408 . S
C634 C632 1.363 . S
C634 C635 1.370 . S
C634 C638 1.524 . S
C635 C627 1.503 . S
C635 C634 1.370 . S
C635 C636 1.403 . S
C636 C635 1.403 . S
C636 C637 1.404 . S
C636 C639 1.539 . S
C637 C633 1.408 . S
C637 C636 1.404 . S
C637 H649 0.930 . S
C638 C634 1.524 . S
C638 H650 0.956 . S
C638 H651 0.961 . S
C638 H652 0.961 . S
C639 C636 1.539 . S
C639 H653 0.958 . S
C639 H654 0.961 . S
C639 H655 0.960 . S
H640 C624 0.931 . S
H641 C629 0.929 . S
H642 C630 0.960 . S
H643 C630 0.962 . S
H644 C630 0.960 . S
H645 C631 0.961 . S
H646 C631 0.961 . S
H647 C631 0.961 . S
H648 C632 0.931 . S
H649 C637 0.930 . S
H650 C638 0.956 . S
H651 C638 0.961 . S
H652 C638 0.961 . S
H653 C639 0.958 . S
H654 C639 0.961 . S
H655 C639 0.960 . S
C656 C657 1.391 . S
C656 C658 1.394 . S
C656 H672 0.931 . S
C657 C656 1.391 . S
C657 C661 1.376 . S
C658 C656 1.394 . S
C658 C659 1.369 . S
C658 C662 1.531 . S
C659 C658 1.369 . S
C659 C660 1.410 . S
C659 C667 1.503 . S
C660 C659 1.410 . S
C660 C661 1.392 . S
C660 C663 1.511 . S
C661 C657 1.376 . S
C661 C660 1.392 . S
C661 H673 0.929 . S
C662 C658 1.531 . S
C662 H674 0.960 . S
C662 H675 0.962 . S
C662 H676 0.960 . S
C663 C660 1.511 . S
C663 H677 0.961 . S
C663 H678 0.961 . S
C663 H679 0.961 . S
C664 C665 1.370 . S
C664 C666 1.363 . S
C664 H680 0.931 . S
C665 C664 1.370 . S
C665 C669 1.408 . S
C666 C664 1.363 . S
C666 C667 1.370 . S
C666 C670 1.524 . S
C667 C659 1.503 . S
C667 C666 1.370 . S
C667 C668 1.403 . S
C668 C667 1.403 . S
C668 C669 1.404 . S
C668 C671 1.539 . S
C669 C665 1.408 . S
C669 C668 1.404 . S
C669 H681 0.930 . S
C670 C666 1.524 . S
C670 H682 0.956 . S
C670 H683 0.961 . S
C670 H684 0.961 . S
C671 C668 1.539 . S
C671 H685 0.958 . S
C671 H686 0.961 . S
C671 H687 0.960 . S
H672 C656 0.931 . S
H673 C661 0.929 . S
H674 C662 0.960 . S
H675 C662 0.962 . S
H676 C662 0.960 . S
H677 C663 0.961 . S
H678 C663 0.961 . S
H679 C663 0.961 . S
H680 C664 0.931 . S
H681 C669 0.930 . S
H682 C670 0.956 . S
H683 C670 0.961 . S
H684 C670 0.961 . S
H685 C671 0.958 . S
H686 C671 0.961 . S
H687 C671 0.960 . S
C688 C689 1.391 . S
C688 C690 1.394 . S
C688 H704 0.931 . S
C689 C688 1.391 . S
C689 C693 1.376 . S
C690 C688 1.394 . S
C690 C691 1.369 . S
C690 C694 1.531 . S
C691 C690 1.369 . S
C691 C692 1.410 . S
C691 C699 1.503 . S
C692 C691 1.410 . S
C692 C693 1.392 . S
C692 C695 1.511 . S
C693 C689 1.376 . S
C693 C692 1.392 . S
C693 H705 0.929 . S
C694 C690 1.531 . S
C694 H706 0.960 . S
C694 H707 0.962 . S
C694 H708 0.960 . S
C695 C692 1.511 . S
C695 H709 0.961 . S
C695 H710 0.961 . S
C695 H711 0.961 . S
C696 C697 1.370 . S
C696 C698 1.363 . S
C696 H712 0.931 . S
C697 C696 1.370 . S
C697 C701 1.408 . S
C698 C696 1.363 . S
C698 C699 1.370 . S
C698 C702 1.524 . S
C699 C691 1.503 . S
C699 C698 1.370 . S
C699 C700 1.403 . S
C700 C699 1.403 . S
C700 C701 1.404 . S
C700 C703 1.539 . S
C701 C697 1.408 . S
C701 C700 1.404 . S
C701 H713 0.930 . S
C702 C698 1.524 . S
C702 H714 0.956 . S
C702 H715 0.961 . S
C702 H716 0.961 . S
C703 C700 1.539 . S
C703 H717 0.958 . S
C703 H718 0.961 . S
C703 H719 0.960 . S
H704 C688 0.931 . S
H705 C693 0.929 . S
H706 C694 0.960 . S
H707 C694 0.962 . S
H708 C694 0.960 . S
H709 C695 0.961 . S
H710 C695 0.961 . S
H711 C695 0.961 . S
H712 C696 0.931 . S
H713 C701 0.930 . S
H714 C702 0.956 . S
H715 C702 0.961 . S
H716 C702 0.961 . S
H717 C703 0.958 . S
H718 C703 0.961 . S
H719 C703 0.960 . S
C720 C721 1.391 . S
C720 C722 1.394 . S
C720 H736 0.931 . S
C721 C720 1.391 . S
C721 C725 1.376 . S
C722 C720 1.394 . S
C722 C723 1.369 . S
C722 C726 1.531 . S
C723 C722 1.369 . S
C723 C724 1.410 . S
C723 C731 1.503 . S
C724 C723 1.410 . S
C724 C725 1.392 . S
C724 C727 1.511 . S
C725 C721 1.376 . S
C725 C724 1.392 . S
C725 H737 0.929 . S
C726 C722 1.531 . S
C726 H738 0.960 . S
C726 H739 0.962 . S
C726 H740 0.960 . S
C727 C724 1.511 . S
C727 H741 0.961 . S
C727 H742 0.961 . S
C727 H743 0.961 . S
C728 C729 1.370 . S
C728 C730 1.363 . S
C728 H744 0.931 . S
C729 C728 1.370 . S
C729 C733 1.408 . S
C730 C728 1.363 . S
C730 C731 1.370 . S
C730 C734 1.524 . S
C731 C723 1.503 . S
C731 C730 1.370 . S
C731 C732 1.403 . S
C732 C731 1.403 . S
C732 C733 1.404 . S
C732 C735 1.539 . S
C733 C729 1.408 . S
C733 C732 1.404 . S
C733 H745 0.930 . S
C734 C730 1.524 . S
C734 H746 0.956 . S
C734 H747 0.961 . S
C734 H748 0.961 . S
C735 C732 1.539 . S
C735 H749 0.958 . S
C735 H750 0.961 . S
C735 H751 0.960 . S
H736 C720 0.931 . S
H737 C725 0.929 . S
H738 C726 0.960 . S
H739 C726 0.962 . S
H740 C726 0.960 . S
H741 C727 0.961 . S
H742 C727 0.961 . S
H743 C727 0.961 . S
H744 C728 0.931 . S
H745 C733 0.930 . S
H746 C734 0.956 . S
H747 C734 0.961 . S
H748 C734 0.961 . S
H749 C735 0.958 . S
H750 C735 0.961 . S
H751 C735 0.960 . S
C752 C753 1.391 . S
C752 C754 1.394 . S
C752 H768 0.931 . S
C753 C752 1.391 . S
C753 C757 1.376 . S
C754 C752 1.394 . S
C754 C755 1.369 . S
C754 C758 1.531 . S
C755 C754 1.369 . S
C755 C756 1.410 . S
C755 C763 1.503 . S
C756 C755 1.410 . S
C756 C757 1.392 . S
C756 C759 1.511 . S
C757 C753 1.376 . S
C757 C756 1.392 . S
C757 H769 0.929 . S
C758 C754 1.531 . S
C758 H770 0.960 . S
C758 H771 0.962 . S
C758 H772 0.960 . S
C759 C756 1.511 . S
C759 H773 0.961 . S
C759 H774 0.961 . S
C759 H775 0.961 . S
C760 C761 1.370 . S
C760 C762 1.363 . S
C760 H776 0.931 . S
C761 C760 1.370 . S
C761 C765 1.408 . S
C762 C760 1.363 . S
C762 C763 1.370 . S
C762 C766 1.524 . S
C763 C755 1.503 . S
C763 C762 1.370 . S
C763 C764 1.403 . S
C764 C763 1.403 . S
C764 C765 1.404 . S
C764 C767 1.539 . S
C765 C761 1.408 . S
C765 C764 1.404 . S
C765 H777 0.930 . S
C766 C762 1.524 . S
C766 H778 0.956 . S
C766 H779 0.961 . S
C766 H780 0.961 . S
C767 C764 1.539 . S
C767 H781 0.958 . S
C767 H782 0.961 . S
C767 H783 0.960 . S
H768 C752 0.931 . S
H769 C757 0.929 . S
H770 C758 0.960 . S
H771 C758 0.962 . S
H772 C758 0.960 . S
H773 C759 0.961 . S
H774 C759 0.961 . S
H775 C759 0.961 . S
H776 C760 0.931 . S
H777 C765 0.930 . S
H778 C766 0.956 . S
H779 C766 0.961 . S
H780 C766 0.961 . S
H781 C767 0.958 . S
H782 C767 0.961 . S
H783 C767 0.960 . S
C784 C785 1.391 . S
C784 C786 1.394 . S
C784 H800 0.931 . S
C785 C784 1.391 . S
C785 C789 1.376 . S
C786 C784 1.394 . S
C786 C787 1.369 . S
C786 C790 1.531 . S
C787 C786 1.369 . S
C787 C788 1.410 . S
C787 C795 1.503 . S
C788 C787 1.410 . S
C788 C789 1.392 . S
C788 C791 1.511 . S
C789 C785 1.376 . S
C789 C788 1.392 . S
C789 H801 0.929 . S
C790 C786 1.531 . S
C790 H802 0.960 . S
C790 H803 0.962 . S
C790 H804 0.960 . S
C791 C788 1.511 . S
C791 H805 0.961 . S
C791 H806 0.961 . S
C791 H807 0.961 . S
C792 C793 1.370 . S
C792 C794 1.363 . S
C792 H808 0.931 . S
C793 C792 1.370 . S
C793 C797 1.408 . S
C794 C792 1.363 . S
C794 C795 1.370 . S
C794 C798 1.524 . S
C795 C787 1.503 . S
C795 C794 1.370 . S
C795 C796 1.403 . S
C796 C795 1.403 . S
C796 C797 1.404 . S
C796 C799 1.539 . S
C797 C793 1.408 . S
C797 C796 1.404 . S
C797 H809 0.930 . S
C798 C794 1.524 . S
C798 H810 0.956 . S
C798 H811 0.961 . S
C798 H812 0.961 . S
C799 C796 1.539 . S
C799 H813 0.958 . S
C799 H814 0.961 . S
C799 H815 0.960 . S
H800 C784 0.931 . S
H801 C789 0.929 . S
H802 C790 0.960 . S
H803 C790 0.962 . S
H804 C790 0.960 . S
H805 C791 0.961 . S
H806 C791 0.961 . S
H807 C791 0.961 . S
H808 C792 0.931 . S
H809 C797 0.930 . S
H810 C798 0.956 . S
H811 C798 0.961 . S
H812 C798 0.961 . S
H813 C799 0.958 . S
H814 C799 0.961 . S
H815 C799 0.960 . S
C816 C817 1.391 . S
C816 C818 1.394 . S
C816 H832 0.931 . S
C817 C816 1.391 . S
C817 C821 1.376 . S
C818 C816 1.394 . S
C818 C819 1.369 . S
C818 C822 1.531 . S
C819 C818 1.369 . S
C819 C820 1.410 . S
C819 C827 1.503 . S
C820 C819 1.410 . S
C820 C821 1.392 . S
C820 C823 1.511 . S
C821 C817 1.376 . S
C821 C820 1.392 . S
C821 H833 0.929 . S
C822 C818 1.531 . S
C822 H834 0.960 . S
C822 H835 0.962 . S
C822 H836 0.960 . S
C823 C820 1.511 . S
C823 H837 0.961 . S
C823 H838 0.961 . S
C823 H839 0.961 . S
C824 C825 1.370 . S
C824 C826 1.363 . S
C824 H840 0.931 . S
C825 C824 1.370 . S
C825 C829 1.408 . S
C826 C824 1.363 . S
C826 C827 1.370 . S
C826 C830 1.524 . S
C827 C819 1.503 . S
C827 C826 1.370 . S
C827 C828 1.403 . S
C828 C827 1.403 . S
C828 C829 1.404 . S
C828 C831 1.539 . S
C829 C825 1.408 . S
C829 C828 1.404 . S
C829 H841 0.930 . S
C830 C826 1.524 . S
C830 H842 0.956 . S
C830 H843 0.961 . S
C830 H844 0.961 . S
C831 C828 1.539 . S
C831 H845 0.958 . S
C831 H846 0.961 . S
C831 H847 0.960 . S
H832 C816 0.931 . S
H833 C821 0.929 . S
H834 C822 0.960 . S
H835 C822 0.962 . S
H836 C822 0.960 . S
H837 C823 0.961 . S
H838 C823 0.961 . S
H839 C823 0.961 . S
H840 C824 0.931 . S
H841 C829 0.930 . S
H842 C830 0.956 . S
H843 C830 0.961 . S
H844 C830 0.961 . S
H845 C831 0.958 . S
H846 C831 0.961 . S
H847 C831 0.960 . S
C848 C849 1.391 . S
C848 C850 1.394 . S
C848 H864 0.931 . S
C849 C848 1.391 . S
C849 C853 1.376 . S
C850 C848 1.394 . S
C850 C851 1.369 . S
C850 C854 1.531 . S
C851 C850 1.369 . S
C851 C852 1.410 . S
C851 C859 1.503 . S
C852 C851 1.410 . S
C852 C853 1.392 . S
C852 C855 1.511 . S
C853 C849 1.376 . S
C853 C852 1.392 . S
C853 H865 0.929 . S
C854 C850 1.531 . S
C854 H866 0.960 . S
C854 H867 0.962 . S
C854 H868 0.960 . S
C855 C852 1.511 . S
C855 H869 0.961 . S
C855 H870 0.961 . S
C855 H871 0.961 . S
C856 C857 1.370 . S
C856 C858 1.363 . S
C856 H872 0.931 . S
C857 C856 1.370 . S
C857 C861 1.408 . S
C858 C856 1.363 . S
C858 C859 1.370 . S
C858 C862 1.524 . S
C859 C851 1.503 . S
C859 C858 1.370 . S
C859 C860 1.403 . S
C860 C859 1.403 . S
C860 C861 1.404 . S
C860 C863 1.539 . S
C861 C857 1.408 . S
C861 C860 1.404 . S
C861 H873 0.930 . S
C862 C858 1.524 . S
C862 H874 0.956 . S
C862 H875 0.961 . S
C862 H876 0.961 . S
C863 C860 1.539 . S
C863 H877 0.958 . S
C863 H878 0.961 . S
C863 H879 0.960 . S
H864 C848 0.931 . S
H865 C853 0.929 . S
H866 C854 0.960 . S
H867 C854 0.962 . S
H868 C854 0.960 . S
H869 C855 0.961 . S
H870 C855 0.961 . S
H871 C855 0.961 . S
H872 C856 0.931 . S
H873 C861 0.930 . S
H874 C862 0.956 . S
H875 C862 0.961 . S
H876 C862 0.961 . S
H877 C863 0.958 . S
H878 C863 0.961 . S
H879 C863 0.960 . S
C880 C881 1.391 . S
C880 C882 1.394 1_556 S
C880 H896 0.931 . S
C881 C880 1.391 . S
C881 C885 1.376 . S
C882 C880 1.394 1_554 S
C882 C883 1.369 . S
C882 C886 1.531 . S
C883 C882 1.369 . S
C883 C884 1.410 . S
C883 C891 1.503 . S
C884 C883 1.410 . S
C884 C885 1.392 1_554 S
C884 C887 1.511 . S
C885 C881 1.376 . S
C885 C884 1.392 1_556 S
C885 H897 0.929 . S
C886 C882 1.531 . S
C886 H898 0.960 . S
C886 H899 0.962 . S
C886 H900 0.946 1_554 S
C887 C884 1.511 . S
C887 H901 0.961 . S
C887 H902 0.961 . S
C887 H903 0.961 . S
C888 C889 1.370 . S
C888 C890 1.363 . S
C888 H904 0.931 . S
C889 C888 1.370 . S
C889 C893 1.408 . S
C890 C888 1.363 . S
C890 C891 1.370 . S
C890 C894 1.524 . S
C891 C883 1.503 . S
C891 C890 1.370 . S
C891 C892 1.403 . S
C892 C891 1.403 . S
C892 C893 1.404 . S
C892 C895 1.539 . S
C893 C889 1.408 . S
C893 C892 1.404 . S
C893 H905 0.930 . S
C894 C890 1.524 . S
C894 H906 0.956 . S
C894 H907 0.961 . S
C894 H908 0.961 . S
C895 C892 1.539 . S
C895 H909 0.958 . S
C895 H910 0.961 . S
C895 H911 0.960 . S
H896 C880 0.931 . S
H897 C885 0.929 . S
H898 C886 0.960 . S
H899 C886 0.962 . S
H900 C886 0.946 1_556 S
H901 C887 0.961 . S
H902 C887 0.961 . S
H903 C887 0.961 . S
H904 C888 0.931 . S
H905 C893 0.930 . S
H906 C894 0.956 . S
H907 C894 0.961 . S
H908 C894 0.961 . S
H909 C895 0.958 . S
H910 C895 0.961 . S
H911 C895 0.960 . S
C912 C913 1.391 . S
C912 C914 1.394 . S
C912 H928 0.931 . S
C913 C912 1.391 . S
C913 C917 1.376 1_455 S
C914 C912 1.394 . S
C914 C915 1.369 1_455 S
C914 C918 1.531 . S
C915 C914 1.369 1_655 S
C915 C916 1.410 . S
C915 C923 1.503 . S
C916 C915 1.410 . S
C916 C917 1.392 . S
C916 C919 1.511 . S
C917 C913 1.376 1_655 S
C917 C916 1.392 . S
C917 H929 0.929 . S
C918 C914 1.531 . S
C918 H930 0.960 . S
C918 H931 0.962 . S
C918 H932 0.960 . S
C919 C916 1.511 . S
C919 H933 0.961 . S
C919 H934 0.961 . S
C919 H935 0.961 . S
C920 C921 1.370 . S
C920 C922 1.363 . S
C920 H936 0.931 . S
C921 C920 1.370 . S
C921 C925 1.408 1_455 S
C922 C920 1.363 . S
C922 C923 1.373 1_455 S
C922 C926 1.524 . S
C923 C915 1.503 . S
C923 C922 1.373 1_655 S
C923 C924 1.400 . S
C924 C923 1.400 . S
C924 C925 1.404 . S
C924 C927 1.539 . S
C925 C921 1.408 1_655 S
C925 C924 1.404 . S
C925 H937 0.930 . S
C926 C922 1.524 . S
C926 H938 0.956 . S
C926 H939 0.961 . S
C926 H940 0.961 . S
C927 C924 1.539 . S
C927 H941 0.958 . S
C927 H942 0.961 . S
C927 H943 0.960 . S
H928 C912 0.931 . S
H929 C917 0.929 . S
H930 C918 0.960 . S
H931 C918 0.962 . S
H932 C918 0.960 . S
H933 C919 0.961 . S
H934 C919 0.961 . S
H935 C919 0.961 . S
H936 C920 0.931 . S
H937 C925 0.930 . S
H938 C926 0.956 . S
H939 C926 0.961 . S
H940 C926 0.961 . S
H941 C927 0.958 . S
H942 C927 0.961 . S
H943 C927 0.960 . S
C944 C945 1.391 1_565 S
C944 C946 1.394 1_556 S
C944 H960 0.931 . S
C945 C944 1.391 1_545 S
C945 C949 1.376 . S
C946 C944 1.394 1_554 S
C946 C947 1.369 1_565 S
C946 C950 1.531 . S
C947 C946 1.369 1_545 S
C947 C948 1.410 . S
C947 C955 1.503 . S
C948 C947 1.410 . S
C948 C949 1.392 1_554 S
C948 C951 1.511 . S
C949 C945 1.376 . S
C949 C948 1.392 1_556 S
C949 H961 0.929 . S
C950 C946 1.531 . S
C950 H962 0.960 . S
C950 H963 0.962 . S
C950 H964 0.960 . S
C951 C948 1.511 . S
C951 H965 0.961 . S
C951 H966 0.961 . S
C951 H967 0.961 . S
C952 C953 1.370 . S
C952 C954 1.363 . S
C952 H968 0.931 . S
C953 C952 1.370 . S
C953 C957 1.408 1_545 S
C954 C952 1.363 . S
C954 C955 1.370 . S
C954 C958 1.524 . S
C955 C947 1.503 . S
C955 C954 1.370 . S
C955 C956 1.403 1_545 S
C956 C955 1.403 1_565 S
C956 C957 1.404 . S
C956 C959 1.539 . S
C957 C953 1.408 1_565 S
C957 C956 1.404 . S
C957 H969 0.930 . S
C958 C954 1.524 . S
C958 H970 0.956 . S
C958 H971 0.961 . S
C958 H972 0.961 . S
C959 C956 1.539 . S
C959 H973 0.958 . S
C959 H974 0.961 . S
C959 H975 0.960 . S
H960 C944 0.931 . S
H961 C949 0.929 . S
H962 C950 0.960 . S
H963 C950 0.962 . S
H964 C950 0.960 . S
H965 C951 0.961 . S
H966 C951 0.961 . S
H967 C951 0.961 . S
H968 C952 0.931 . S
H969 C957 0.930 . S
H970 C958 0.956 . S
H971 C958 0.961 . S
H972 C958 0.961 . S
H973 C959 0.958 . S
H974 C959 0.961 . S
H975 C959 0.960 . S
C976 C977 1.391 . S
C976 C978 1.394 . S
C976 H992 0.931 . S
C977 C976 1.391 . S
C977 C981 1.376 . S
C978 C976 1.394 . S
C978 C979 1.369 . S
C978 C982 1.531 . S
C979 C978 1.369 . S
C979 C980 1.410 . S
C979 C987 1.503 . S
C980 C979 1.410 . S
C980 C981 1.392 . S
C980 C983 1.511 . S
C981 C977 1.376 . S
C981 C980 1.392 . S
C981 H993 0.929 . S
C982 C978 1.531 . S
C982 H994 0.960 . S
C982 H995 0.962 . S
C982 H996 0.960 . S
C983 C980 1.511 . S
C983 H997 0.961 . S
C983 H998 0.961 . S
C983 H999 0.961 . S
C984 C985 1.370 . S
C984 C986 1.363 . S
C984 H1000 0.931 . S
C985 C984 1.370 . S
C985 C989 1.408 . S
C986 C984 1.363 . S
C986 C987 1.370 . S
C986 C990 1.524 . S
C987 C979 1.503 . S
C987 C986 1.370 . S
C987 C988 1.403 . S
C988 C987 1.403 . S
C988 C989 1.404 . S
C988 C991 1.539 . S
C989 C985 1.408 . S
C989 C988 1.404 . S
C989 H1001 0.930 . S
C990 C986 1.524 . S
C990 H1002 0.956 . S
C990 H1003 0.961 . S
C990 H1004 0.961 . S
C991 C988 1.539 . S
C991 H1005 0.958 . S
C991 H1006 0.961 . S
C991 H1007 0.960 . S
H992 C976 0.931 . S
H993 C981 0.929 . S
H994 C982 0.960 . S
H995 C982 0.962 . S
H996 C982 0.960 . S
H997 C983 0.961 . S
H998 C983 0.961 . S
H999 C983 0.961 . S
H1000 C984 0.931 . S
H1001 C989 0.930 . S
H1002 C990 0.956 . S
H1003 C990 0.961 . S
H1004 C990 0.961 . S
H1005 C991 0.958 . S
H1006 C991 0.961 . S
H1007 C991 0.960 . S
C1008 C1009 1.391 . S
C1008 C1010 1.394 . S
C1008 H1024 0.931 . S
C1009 C1008 1.391 . S
C1009 C1013 1.376 . S
C1010 C1008 1.394 . S
C1010 C1011 1.369 . S
C1010 C1014 1.531 . S
C1011 C1010 1.369 . S
C1011 C1012 1.410 . S
C1011 C1019 1.503 . S
C1012 C1011 1.410 . S
C1012 C1013 1.392 . S
C1012 C1015 1.511 . S
C1013 C1009 1.376 . S
C1013 C1012 1.392 . S
C1013 H1025 0.929 . S
C1014 C1010 1.531 . S
C1014 H1026 0.960 . S
C1014 H1027 0.962 . S
C1014 H1028 0.960 . S
C1015 C1012 1.511 . S
C1015 H1029 0.961 . S
C1015 H1030 0.961 . S
C1015 H1031 0.961 . S
C1016 C1017 1.370 . S
C1016 C1018 1.363 . S
C1016 H1032 0.931 . S
C1017 C1016 1.370 . S
C1017 C1021 1.408 . S
C1018 C1016 1.363 . S
C1018 C1019 1.370 . S
C1018 C1022 1.524 . S
C1019 C1011 1.503 . S
C1019 C1018 1.370 . S
C1019 C1020 1.403 . S
C1020 C1019 1.403 . S
C1020 C1021 1.404 . S
C1020 C1023 1.539 . S
C1021 C1017 1.408 . S
C1021 C1020 1.404 . S
C1021 H1033 0.930 . S
C1022 C1018 1.524 . S
C1022 H1034 0.956 . S
C1022 H1035 0.961 . S
C1022 H1036 0.961 . S
C1023 C1020 1.539 . S
C1023 H1037 0.958 . S
C1023 H1038 0.961 . S
C1023 H1039 0.960 . S
H1024 C1008 0.931 . S
H1025 C1013 0.929 . S
H1026 C1014 0.960 . S
H1027 C1014 0.962 . S
H1028 C1014 0.960 . S
H1029 C1015 0.961 . S
H1030 C1015 0.961 . S
H1031 C1015 0.961 . S
H1032 C1016 0.931 . S
H1033 C1021 0.930 . S
H1034 C1022 0.956 . S
H1035 C1022 0.961 . S
H1036 C1022 0.961 . S
H1037 C1023 0.958 . S
H1038 C1023 0.961 . S
H1039 C1023 0.960 . S
C1040 C1041 1.391 1_455 S
C1040 C1042 1.394 . S
C1040 H1056 0.931 . S
C1041 C1040 1.391 1_655 S
C1041 C1045 1.376 . S
C1042 C1040 1.394 . S
C1042 C1043 1.369 1_455 S
C1042 C1046 1.531 . S
C1043 C1042 1.369 1_655 S
C1043 C1044 1.410 . S
C1043 C1051 1.503 . S
C1044 C1043 1.410 . S
C1044 C1045 1.392 . S
C1044 C1047 1.511 . S
C1045 C1041 1.376 . S
C1045 C1044 1.392 . S
C1045 H1057 0.929 . S
C1046 C1042 1.531 . S
C1046 H1058 0.960 . S
C1046 H1059 0.962 . S
C1046 H1060 0.960 . S
C1047 C1044 1.511 . S
C1047 H1061 0.961 . S
C1047 H1062 0.961 . S
C1047 H1063 0.961 . S
C1048 C1049 1.370 1_455 S
C1048 C1050 1.363 1_554 S
C1048 H1064 0.931 . S
C1049 C1048 1.370 1_655 S
C1049 C1053 1.408 . S
C1050 C1048 1.363 1_556 S
C1050 C1051 1.370 1_455 S
C1050 C1054 1.524 . S
C1051 C1043 1.503 . S
C1051 C1050 1.370 1_655 S
C1051 C1052 1.403 1_556 S
C1052 C1051 1.403 1_554 S
C1052 C1053 1.404 . S
C1052 C1055 1.539 1_554 S
C1053 C1049 1.408 . S
C1053 C1052 1.404 . S
C1053 H1065 0.930 . S
C1054 C1050 1.524 . S
C1054 H1066 0.956 . S
C1054 H1067 0.956 1_455 S
C1054 H1068 0.961 . S
C1055 C1052 1.539 1_556 S
C1055 H1069 0.958 . S
C1055 H1070 0.961 1_556 S
C1055 H1071 0.960 . S
H1056 C1040 0.931 . S
H1057 C1045 0.929 . S
H1058 C1046 0.960 . S
H1059 C1046 0.962 . S
H1060 C1046 0.960 . S
H1061 C1047 0.961 . S
H1062 C1047 0.961 . S
H1063 C1047 0.961 . S
H1064 C1048 0.931 . S
H1065 C1053 0.930 . S
H1066 C1054 0.956 . S
H1067 C1054 0.956 1_655 S
H1068 C1054 0.961 . S
H1069 C1055 0.958 . S
H1070 C1055 0.961 1_554 S
H1071 C1055 0.960 . S
C1072 C1073 1.391 . S
C1072 C1074 1.394 . S
C1072 H1088 0.931 . S
C1073 C1072 1.391 . S
C1073 C1077 1.376 1_565 S
C1074 C1072 1.394 . S
C1074 C1075 1.369 . S
C1074 C1078 1.531 . S
C1075 C1074 1.369 . S
C1075 C1076 1.410 1_565 S
C1075 C1083 1.503 . S
C1076 C1075 1.410 1_545 S
C1076 C1077 1.392 . S
C1076 C1079 1.511 . S
C1077 C1073 1.376 1_545 S
C1077 C1076 1.392 . S
C1077 H1089 0.929 . S
C1078 C1074 1.531 . S
C1078 H1090 0.960 . S
C1078 H1091 0.962 . S
C1078 H1092 0.960 . S
C1079 C1076 1.511 . S
C1079 H1093 0.961 . S
C1079 H1094 0.961 . S
C1079 H1095 0.961 . S
C1080 C1081 1.370 1_545 S
C1080 C1082 1.363 . S
C1080 H1096 0.931 . S
C1081 C1080 1.370 1_565 S
C1081 C1085 1.408 . S
C1082 C1080 1.363 . S
C1082 C1083 1.370 1_545 S
C1082 C1086 1.524 . S
C1083 C1075 1.503 . S
C1083 C1082 1.370 1_565 S
C1083 C1084 1.403 . S
C1084 C1083 1.403 . S
C1084 C1085 1.404 . S
C1084 C1087 1.539 . S
C1085 C1081 1.408 . S
C1085 C1084 1.404 . S
C1085 H1097 0.930 . S
C1086 C1082 1.524 . S
C1086 H1098 0.956 . S
C1086 H1099 0.961 . S
C1086 H1100 0.961 . S
C1087 C1084 1.539 . S
C1087 H1101 0.958 . S
C1087 H1102 0.961 . S
C1087 H1103 0.960 . S
H1088 C1072 0.931 . S
H1089 C1077 0.929 . S
H1090 C1078 0.960 . S
H1091 C1078 0.962 . S
H1092 C1078 0.960 . S
H1093 C1079 0.961 . S
H1094 C1079 0.961 . S
H1095 C1079 0.961 . S
H1096 C1080 0.931 . S
H1097 C1085 0.930 . S
H1098 C1086 0.956 . S
H1099 C1086 0.961 . S
H1100 C1086 0.961 . S
H1101 C1087 0.958 . S
H1102 C1087 0.961 . S
H1103 C1087 0.960 . S
C1104 C1105 1.391 . S
C1104 C1106 1.394 1_554 S
C1104 H1120 0.931 . S
C1105 C1104 1.391 . S
C1105 C1109 1.376 . S
C1106 C1104 1.394 1_556 S
C1106 C1107 1.369 . S
C1106 C1110 1.531 . S
C1107 C1106 1.369 . S
C1107 C1108 1.410 . S
C1107 C1115 1.503 . S
C1108 C1107 1.410 . S
C1108 C1109 1.392 1_556 S
C1108 C1111 1.511 . S
C1109 C1105 1.376 . S
C1109 C1108 1.392 1_554 S
C1109 H1121 0.929 . S
C1110 C1106 1.531 . S
C1110 H1122 0.960 . S
C1110 H1123 0.962 . S
C1110 H1124 0.960 . S
C1111 C1108 1.511 . S
C1111 H1125 0.961 1_556 S
C1111 H1126 0.961 . S
C1111 H1127 0.961 . S
C1112 C1113 1.370 . S
C1112 C1114 1.363 . S
C1112 H1128 0.931 . S
C1113 C1112 1.370 . S
C1113 C1117 1.408 . S
C1114 C1112 1.363 . S
C1114 C1115 1.370 . S
C1114 C1118 1.524 . S
C1115 C1107 1.503 . S
C1115 C1114 1.370 . S
C1115 C1116 1.403 . S
C1116 C1115 1.403 . S
C1116 C1117 1.404 . S
C1116 C1119 1.539 . S
C1117 C1113 1.408 . S
C1117 C1116 1.404 . S
C1117 H1129 0.930 . S
C1118 C1114 1.524 . S
C1118 H1130 0.956 . S
C1118 H1131 0.961 . S
C1118 H1132 0.961 . S
C1119 C1116 1.539 . S
C1119 H1133 0.958 . S
C1119 H1134 0.961 . S
C1119 H1135 0.960 . S
H1120 C1104 0.931 . S
H1121 C1109 0.929 . S
H1122 C1110 0.960 . S
H1123 C1110 0.962 . S
H1124 C1110 0.960 . S
H1125 C1111 0.961 1_554 S
H1126 C1111 0.961 . S
H1127 C1111 0.961 . S
H1128 C1112 0.931 . S
H1129 C1117 0.930 . S
H1130 C1118 0.956 . S
H1131 C1118 0.961 . S
H1132 C1118 0.961 . S
H1133 C1119 0.958 . S
H1134 C1119 0.961 . S
H1135 C1119 0.960 . S
C1136 C1137 1.391 . S
C1136 C1138 1.394 . S
C1136 H1152 0.931 . S
C1137 C1136 1.391 . S
C1137 C1141 1.376 . S
C1138 C1136 1.394 . S
C1138 C1139 1.369 . S
C1138 C1142 1.531 . S
C1139 C1138 1.369 . S
C1139 C1140 1.410 . S
C1139 C1147 1.503 . S
C1140 C1139 1.410 . S
C1140 C1141 1.392 . S
C1140 C1143 1.511 . S
C1141 C1137 1.376 . S
C1141 C1140 1.392 . S
C1141 H1153 0.929 . S
C1142 C1138 1.531 . S
C1142 H1154 0.960 . S
C1142 H1155 0.962 . S
C1142 H1156 0.960 . S
C1143 C1140 1.511 . S
C1143 H1157 0.961 . S
C1143 H1158 0.961 . S
C1143 H1159 0.961 . S
C1144 C1145 1.370 . S
C1144 C1146 1.363 1_554 S
C1144 H1160 0.931 . S
C1145 C1144 1.370 . S
C1145 C1149 1.408 . S
C1146 C1144 1.363 1_556 S
C1146 C1147 1.370 . S
C1146 C1150 1.524 . S
C1147 C1139 1.503 . S
C1147 C1146 1.370 . S
C1147 C1148 1.412 . S
C1148 C1147 1.412 . S
C1148 C1149 1.389 1_556 S
C1148 C1151 1.544 . S
C1149 C1145 1.408 . S
C1149 C1148 1.389 1_554 S
C1149 H1161 0.930 . S
C1150 C1146 1.524 . S
C1150 H1162 0.956 . S
C1150 H1163 0.961 . S
C1150 H1164 0.961 . S
C1151 C1148 1.544 . S
C1151 H1165 0.958 . S
C1151 H1166 0.961 1_556 S
C1151 H1167 0.960 . S
H1152 C1136 0.931 . S
H1153 C1141 0.929 . S
H1154 C1142 0.960 . S
H1155 C1142 0.962 . S
H1156 C1142 0.960 . S
H1157 C1143 0.961 . S
H1158 C1143 0.961 . S
H1159 C1143 0.961 . S
H1160 C1144 0.931 . S
H1161 C1149 0.930 . S
H1162 C1150 0.956 . S
H1163 C1150 0.961 . S
H1164 C1150 0.961 . S
H1165 C1151 0.958 . S
H1166 C1151 0.961 1_554 S
H1167 C1151 0.960 . S
C1168 C1169 1.391 1_455 S
C1168 C1170 1.394 . S
C1168 H1184 0.931 . S
C1169 C1168 1.391 1_655 S
C1169 C1173 1.376 . S
C1170 C1168 1.394 . S
C1170 C1171 1.369 1_455 S
C1170 C1174 1.531 . S
C1171 C1170 1.369 1_655 S
C1171 C1172 1.410 . S
C1171 C1179 1.503 . S
C1172 C1171 1.410 . S
C1172 C1173 1.392 . S
C1172 C1175 1.511 . S
C1173 C1169 1.376 . S
C1173 C1172 1.392 . S
C1173 H1185 0.929 . S
C1174 C1170 1.531 . S
C1174 H1186 0.960 . S
C1174 H1187 0.962 . S
C1174 H1188 0.960 . S
C1175 C1172 1.511 . S
C1175 H1189 0.961 . S
C1175 H1190 0.961 . S
C1175 H1191 0.961 . S
C1176 C1177 1.370 1_455 S
C1176 C1178 1.363 . S
C1176 H1192 0.931 . S
C1177 C1176 1.370 1_655 S
C1177 C1181 1.408 . S
C1178 C1176 1.363 . S
C1178 C1179 1.370 1_455 S
C1178 C1182 1.524 . S
C1179 C1171 1.503 . S
C1179 C1178 1.370 1_655 S
C1179 C1180 1.403 . S
C1180 C1179 1.403 . S
C1180 C1181 1.404 . S
C1180 C1183 1.539 . S
C1181 C1177 1.408 . S
C1181 C1180 1.404 . S
C1181 H1193 0.930 . S
C1182 C1178 1.524 . S
C1182 H1194 0.956 . S
C1182 H1195 0.961 1_455 S
C1182 H1196 0.961 . S
C1183 C1180 1.539 . S
C1183 H1197 0.958 . S
C1183 H1198 0.961 . S
C1183 H1199 0.960 . S
H1184 C1168 0.931 . S
H1185 C1173 0.929 . S
H1186 C1174 0.960 . S
H1187 C1174 0.962 . S
H1188 C1174 0.960 . S
H1189 C1175 0.961 . S
H1190 C1175 0.961 . S
H1191 C1175 0.961 . S
H1192 C1176 0.931 . S
H1193 C1181 0.930 . S
H1194 C1182 0.956 . S
H1195 C1182 0.961 1_655 S
H1196 C1182 0.961 . S
H1197 C1183 0.958 . S
H1198 C1183 0.961 . S
H1199 C1183 0.960 . S
C1200 C1201 1.391 . S
C1200 C1202 1.392 1_554 S
C1200 H1216 0.931 . S
C1201 C1200 1.391 . S
C1201 C1205 1.376 1_565 S
C1202 C1200 1.392 1_556 S
C1202 C1203 1.370 . S
C1202 C1206 1.531 . S
C1203 C1202 1.370 . S
C1203 C1204 1.410 1_565 S
C1203 C1211 1.503 . S
C1204 C1203 1.410 1_545 S
C1204 C1205 1.392 1_556 S
C1204 C1207 1.511 . S
C1205 C1201 1.376 1_545 S
C1205 C1204 1.392 1_554 S
C1205 H1217 0.929 . S
C1206 C1202 1.531 . S
C1206 H1218 0.960 . S
C1206 H1219 0.962 . S
C1206 H1220 0.960 1_556 S
C1207 C1204 1.511 . S
C1207 H1221 0.961 . S
C1207 H1222 0.961 . S
C1207 H1223 0.961 1_545 S
C1208 C1209 1.370 1_545 S
C1208 C1210 1.363 . S
C1208 H1224 0.931 . S
C1209 C1208 1.370 1_565 S
C1209 C1213 1.408 . S
C1210 C1208 1.363 . S
C1210 C1211 1.370 1_545 S
C1210 C1214 1.524 . S
C1211 C1203 1.503 . S
C1211 C1210 1.370 1_565 S
C1211 C1212 1.403 . S
C1212 C1211 1.403 . S
C1212 C1213 1.404 . S
C1212 C1215 1.539 . S
C1213 C1209 1.408 . S
C1213 C1212 1.404 . S
C1213 H1225 0.930 . S
C1214 C1210 1.524 . S
C1214 H1226 0.956 . S
C1214 H1227 0.961 . S
C1214 H1228 0.961 . S
C1215 C1212 1.539 . S
C1215 H1229 0.958 . S
C1215 H1230 0.961 . S
C1215 H1231 0.960 . S
H1216 C1200 0.931 . S
H1217 C1205 0.929 . S
H1218 C1206 0.960 . S
H1219 C1206 0.962 . S
H1220 C1206 0.960 1_554 S
H1221 C1207 0.961 . S
H1222 C1207 0.961 . S
H1223 C1207 0.961 1_565 S
H1224 C1208 0.931 . S
H1225 C1213 0.930 . S
H1226 C1214 0.956 . S
H1227 C1214 0.961 . S
H1228 C1214 0.961 . S
H1229 C1215 0.958 . S
H1230 C1215 0.961 . S
H1231 C1215 0.960 . S
C1232 C1233 1.391 . S
C1232 C1234 1.394 . S
C1232 H1248 0.931 . S
C1233 C1232 1.391 . S
C1233 C1237 1.376 . S
C1234 C1232 1.394 . S
C1234 C1235 1.369 . S
C1234 C1238 1.531 . S
C1235 C1234 1.369 . S
C1235 C1236 1.410 . S
C1235 C1243 1.503 . S
C1236 C1235 1.410 . S
C1236 C1237 1.392 . S
C1236 C1239 1.511 . S
C1237 C1233 1.376 . S
C1237 C1236 1.392 . S
C1237 H1249 0.929 . S
C1238 C1234 1.531 . S
C1238 H1250 0.960 . S
C1238 H1251 0.962 . S
C1238 H1252 0.960 . S
C1239 C1236 1.511 . S
C1239 H1253 0.961 . S
C1239 H1254 0.961 . S
C1239 H1255 0.961 . S
C1240 C1241 1.370 . S
C1240 C1242 1.363 . S
C1240 H1256 0.931 . S
C1241 C1240 1.370 . S
C1241 C1245 1.408 . S
C1242 C1240 1.363 . S
C1242 C1243 1.370 . S
C1242 C1246 1.524 . S
C1243 C1235 1.503 . S
C1243 C1242 1.370 . S
C1243 C1244 1.403 . S
C1244 C1243 1.403 . S
C1244 C1245 1.404 . S
C1244 C1247 1.539 . S
C1245 C1241 1.408 . S
C1245 C1244 1.404 . S
C1245 H1257 0.930 . S
C1246 C1242 1.524 . S
C1246 H1258 0.956 . S
C1246 H1259 0.961 . S
C1246 H1260 0.961 . S
C1247 C1244 1.539 . S
C1247 H1261 0.958 . S
C1247 H1262 0.961 . S
C1247 H1263 0.960 . S
H1248 C1232 0.931 . S
H1249 C1237 0.929 . S
H1250 C1238 0.960 . S
H1251 C1238 0.962 . S
H1252 C1238 0.960 . S
H1253 C1239 0.961 . S
H1254 C1239 0.961 . S
H1255 C1239 0.961 . S
H1256 C1240 0.931 . S
H1257 C1245 0.930 . S
H1258 C1246 0.956 . S
H1259 C1246 0.961 . S
H1260 C1246 0.961 . S
H1261 C1247 0.958 . S
H1262 C1247 0.961 . S
H1263 C1247 0.960 . S
C1264 C1265 1.391 . S
C1264 C1266 1.394 . S
C1264 H1280 0.931 . S
C1265 C1264 1.391 . S
C1265 C1269 1.376 . S
C1266 C1264 1.394 . S
C1266 C1267 1.369 . S
C1266 C1270 1.531 . S
C1267 C1266 1.369 . S
C1267 C1268 1.410 . S
C1267 C1275 1.503 . S
C1268 C1267 1.410 . S
C1268 C1269 1.392 . S
C1268 C1271 1.511 . S
C1269 C1265 1.376 . S
C1269 C1268 1.392 . S
C1269 H1281 0.929 . S
C1270 C1266 1.531 . S
C1270 H1282 0.960 . S
C1270 H1283 0.962 . S
C1270 H1284 0.960 . S
C1271 C1268 1.511 . S
C1271 H1285 0.961 . S
C1271 H1286 0.961 . S
C1271 H1287 0.961 . S
C1272 C1273 1.370 . S
C1272 C1274 1.363 . S
C1272 H1288 0.931 . S
C1273 C1272 1.370 . S
C1273 C1277 1.408 . S
C1274 C1272 1.363 . S
C1274 C1275 1.370 . S
C1274 C1278 1.524 . S
C1275 C1267 1.503 . S
C1275 C1274 1.370 . S
C1275 C1276 1.403 . S
C1276 C1275 1.403 . S
C1276 C1277 1.404 . S
C1276 C1279 1.539 . S
C1277 C1273 1.408 . S
C1277 C1276 1.404 . S
C1277 H1289 0.930 . S
C1278 C1274 1.524 . S
C1278 H1290 0.956 . S
C1278 H1291 0.961 . S
C1278 H1292 0.961 . S
C1279 C1276 1.539 . S
C1279 H1293 0.958 . S
C1279 H1294 0.961 . S
C1279 H1295 0.960 . S
H1280 C1264 0.931 . S
H1281 C1269 0.929 . S
H1282 C1270 0.960 . S
H1283 C1270 0.962 . S
H1284 C1270 0.960 . S
H1285 C1271 0.961 . S
H1286 C1271 0.961 . S
H1287 C1271 0.961 . S
H1288 C1272 0.931 . S
H1289 C1277 0.930 . S
H1290 C1278 0.956 . S
H1291 C1278 0.961 . S
H1292 C1278 0.961 . S
H1293 C1279 0.958 . S
H1294 C1279 0.961 . S
H1295 C1279 0.960 . S
C1296 C1297 1.391 1_655 S
C1296 C1298 1.394 . S
C1296 H1312 0.931 . S
C1297 C1296 1.391 1_455 S
C1297 C1301 1.376 . S
C1298 C1296 1.394 . S
C1298 C1299 1.369 1_655 S
C1298 C1302 1.531 . S
C1299 C1298 1.369 1_455 S
C1299 C1300 1.410 . S
C1299 C1307 1.503 . S
C1300 C1299 1.410 . S
C1300 C1301 1.392 . S
C1300 C1303 1.511 . S
C1301 C1297 1.376 . S
C1301 C1300 1.392 . S
C1301 H1313 0.929 . S
C1302 C1298 1.531 . S
C1302 H1314 0.960 . S
C1302 H1315 0.962 . S
C1302 H1316 0.960 . S
C1303 C1300 1.511 . S
C1303 H1317 0.961 . S
C1303 H1318 0.961 . S
C1303 H1319 0.961 . S
C1304 C1305 1.370 1_655 S
C1304 C1306 1.363 1_556 S
C1304 H1320 0.931 . S
C1305 C1304 1.370 1_455 S
C1305 C1309 1.408 . S
C1306 C1304 1.363 1_554 S
C1306 C1307 1.370 1_655 S
C1306 C1310 1.524 . S
C1307 C1299 1.503 . S
C1307 C1306 1.370 1_455 S
C1307 C1308 1.403 . S
C1308 C1307 1.403 . S
C1308 C1309 1.404 1_554 S
C1308 C1311 1.539 . S
C1309 C1305 1.408 . S
C1309 C1308 1.404 1_556 S
C1309 H1321 0.930 . S
C1310 C1306 1.524 . S
C1310 H1322 0.956 . S
C1310 H1323 0.961 . S
C1310 H1324 0.961 . S
C1311 C1308 1.539 . S
C1311 H1325 0.958 . S
C1311 H1326 0.961 . S
C1311 H1327 0.960 . S
H1312 C1296 0.931 . S
H1313 C1301 0.929 . S
H1314 C1302 0.960 . S
H1315 C1302 0.962 . S
H1316 C1302 0.960 . S
H1317 C1303 0.961 . S
H1318 C1303 0.961 . S
H1319 C1303 0.961 . S
H1320 C1304 0.931 . S
H1321 C1309 0.930 . S
H1322 C1310 0.956 . S
H1323 C1310 0.961 . S
H1324 C1310 0.961 . S
H1325 C1311 0.958 . S
H1326 C1311 0.961 . S
H1327 C1311 0.960 . S
C1328 C1329 1.391 1_565 S
C1328 C1330 1.394 . S
C1328 H1344 0.931 . S
C1329 C1328 1.391 1_545 S
C1329 C1333 1.376 . S
C1330 C1328 1.394 . S
C1330 C1331 1.352 1_565 S
C1330 C1334 1.531 . S
C1331 C1330 1.352 1_545 S
C1331 C1332 1.428 . S
C1331 C1339 1.504 . S
C1332 C1331 1.428 . S
C1332 C1333 1.392 . S
C1332 C1335 1.511 . S
C1333 C1329 1.376 . S
C1333 C1332 1.392 . S
C1333 H1345 0.929 . S
C1334 C1330 1.531 . S
C1334 H1346 0.960 . S
C1334 H1347 0.962 . S
C1334 H1348 0.960 . S
C1335 C1332 1.511 . S
C1335 H1349 0.961 . S
C1335 H1350 0.961 . S
C1335 H1351 0.961 . S
C1336 C1337 1.370 . S
C1336 C1338 1.363 . S
C1336 H1352 0.931 . S
C1337 C1336 1.370 . S
C1337 C1341 1.408 1_545 S
C1338 C1336 1.363 . S
C1338 C1339 1.370 . S
C1338 C1342 1.524 . S
C1339 C1331 1.504 . S
C1339 C1338 1.370 . S
C1339 C1340 1.403 1_545 S
C1340 C1339 1.403 1_565 S
C1340 C1341 1.404 . S
C1340 C1343 1.539 . S
C1341 C1337 1.408 1_565 S
C1341 C1340 1.404 . S
C1341 H1353 0.930 . S
C1342 C1338 1.524 . S
C1342 H1354 0.956 . S
C1342 H1355 0.961 . S
C1342 H1356 0.961 . S
C1343 C1340 1.539 . S
C1343 H1357 0.958 . S
C1343 H1358 0.961 . S
C1343 H1359 0.960 . S
H1344 C1328 0.931 . S
H1345 C1333 0.929 . S
H1346 C1334 0.960 . S
H1347 C1334 0.962 . S
H1348 C1334 0.960 . S
H1349 C1335 0.961 . S
H1350 C1335 0.961 . S
H1351 C1335 0.961 . S
H1352 C1336 0.931 . S
H1353 C1341 0.930 . S
H1354 C1342 0.956 . S
H1355 C1342 0.961 . S
H1356 C1342 0.961 . S
H1357 C1343 0.958 . S
H1358 C1343 0.961 . S
H1359 C1343 0.960 . S
C1360 C1361 1.391 . S
C1360 C1362 1.394 1_556 S
C1360 H1376 0.931 . S
C1361 C1360 1.391 . S
C1361 C1365 1.376 . S
C1362 C1360 1.394 1_554 S
C1362 C1363 1.369 . S
C1362 C1366 1.531 . S
C1363 C1362 1.369 . S
C1363 C1364 1.410 . S
C1363 C1371 1.503 . S
C1364 C1363 1.410 . S
C1364 C1365 1.392 1_554 S
C1364 C1367 1.511 . S
C1365 C1361 1.376 . S
C1365 C1364 1.392 1_556 S
C1365 H1377 0.929 . S
C1366 C1362 1.531 . S
C1366 H1378 0.960 . S
C1366 H1379 0.962 . S
C1366 H1380 0.960 . S
C1367 C1364 1.511 . S
C1367 H1381 0.961 . S
C1367 H1382 0.961 . S
C1367 H1383 0.961 . S
C1368 C1369 1.370 . S
C1368 C1370 1.363 . S
C1368 H1384 0.931 . S
C1369 C1368 1.370 . S
C1369 C1373 1.408 . S
C1370 C1368 1.363 . S
C1370 C1371 1.370 . S
C1370 C1374 1.524 . S
C1371 C1363 1.503 . S
C1371 C1370 1.370 . S
C1371 C1372 1.403 . S
C1372 C1371 1.403 . S
C1372 C1373 1.404 . S
C1372 C1375 1.539 . S
C1373 C1369 1.408 . S
C1373 C1372 1.404 . S
C1373 H1385 0.930 . S
C1374 C1370 1.524 . S
C1374 H1386 0.956 . S
C1374 H1387 0.961 . S
C1374 H1388 0.961 . S
C1375 C1372 1.539 . S
C1375 H1389 0.958 . S
C1375 H1390 0.961 . S
C1375 H1391 0.960 . S
H1376 C1360 0.931 . S
H1377 C1365 0.929 . S
H1378 C1366 0.960 . S
H1379 C1366 0.962 . S
H1380 C1366 0.960 . S
H1381 C1367 0.961 . S
H1382 C1367 0.961 . S
H1383 C1367 0.961 . S
H1384 C1368 0.931 . S
H1385 C1373 0.930 . S
H1386 C1374 0.956 . S
H1387 C1374 0.961 . S
H1388 C1374 0.961 . S
H1389 C1375 0.958 . S
H1390 C1375 0.961 . S
H1391 C1375 0.960 . S
C1392 C1393 1.391 . S
C1392 C1394 1.394 . S
C1392 H1408 0.931 . S
C1393 C1392 1.391 . S
C1393 C1397 1.376 . S
C1394 C1392 1.394 . S
C1394 C1395 1.369 . S
C1394 C1398 1.531 . S
C1395 C1394 1.369 . S
C1395 C1396 1.410 . S
C1395 C1403 1.503 . S
C1396 C1395 1.410 . S
C1396 C1397 1.392 . S
C1396 C1399 1.511 . S
C1397 C1393 1.376 . S
C1397 C1396 1.392 . S
C1397 H1409 0.929 . S
C1398 C1394 1.531 . S
C1398 H1410 0.960 . S
C1398 H1411 0.962 . S
C1398 H1412 0.960 . S
C1399 C1396 1.511 . S
C1399 H1413 0.961 . S
C1399 H1414 0.961 . S
C1399 H1415 0.961 . S
C1400 C1401 1.370 . S
C1400 C1402 1.363 . S
C1400 H1416 0.931 . S
C1401 C1400 1.370 . S
C1401 C1405 1.408 . S
C1402 C1400 1.363 . S
C1402 C1403 1.370 . S
C1402 C1406 1.524 . S
C1403 C1395 1.503 . S
C1403 C1402 1.370 . S
C1403 C1404 1.403 . S
C1404 C1403 1.403 . S
C1404 C1405 1.404 . S
C1404 C1407 1.539 . S
C1405 C1401 1.408 . S
C1405 C1404 1.404 . S
C1405 H1417 0.930 . S
C1406 C1402 1.524 . S
C1406 H1418 0.956 . S
C1406 H1419 0.961 . S
C1406 H1420 0.961 . S
C1407 C1404 1.539 . S
C1407 H1421 0.958 . S
C1407 H1422 0.961 . S
C1407 H1423 0.960 . S
H1408 C1392 0.931 . S
H1409 C1397 0.929 . S
H1410 C1398 0.960 . S
H1411 C1398 0.962 . S
H1412 C1398 0.960 . S
H1413 C1399 0.961 . S
H1414 C1399 0.961 . S
H1415 C1399 0.961 . S
H1416 C1400 0.931 . S
H1417 C1405 0.930 . S
H1418 C1406 0.956 . S
H1419 C1406 0.961 . S
H1420 C1406 0.961 . S
H1421 C1407 0.958 . S
H1422 C1407 0.961 . S
H1423 C1407 0.960 . S
C1424 C1425 1.391 . S
C1424 C1426 1.394 . S
C1424 H1440 0.931 . S
C1425 C1424 1.391 . S
C1425 C1429 1.376 . S
C1426 C1424 1.394 . S
C1426 C1427 1.369 . S
C1426 C1430 1.531 . S
C1427 C1426 1.369 . S
C1427 C1428 1.410 . S
C1427 C1435 1.503 . S
C1428 C1427 1.410 . S
C1428 C1429 1.392 . S
C1428 C1431 1.511 . S
C1429 C1425 1.376 . S
C1429 C1428 1.392 . S
C1429 H1441 0.929 . S
C1430 C1426 1.531 . S
C1430 H1442 0.960 . S
C1430 H1443 0.962 . S
C1430 H1444 0.960 . S
C1431 C1428 1.511 . S
C1431 H1445 0.961 . S
C1431 H1446 0.961 . S
C1431 H1447 0.961 . S
C1432 C1433 1.370 . S
C1432 C1434 1.363 . S
C1432 H1448 0.931 . S
C1433 C1432 1.370 . S
C1433 C1437 1.408 . S
C1434 C1432 1.363 . S
C1434 C1435 1.370 . S
C1434 C1438 1.524 . S
C1435 C1427 1.503 . S
C1435 C1434 1.370 . S
C1435 C1436 1.403 . S
C1436 C1435 1.403 . S
C1436 C1437 1.404 . S
C1436 C1439 1.539 . S
C1437 C1433 1.408 . S
C1437 C1436 1.404 . S
C1437 H1449 0.930 . S
C1438 C1434 1.524 . S
C1438 H1450 0.956 . S
C1438 H1451 0.961 . S
C1438 H1452 0.961 . S
C1439 C1436 1.539 . S
C1439 H1453 0.958 . S
C1439 H1454 0.961 . S
C1439 H1455 0.960 . S
H1440 C1424 0.931 . S
H1441 C1429 0.929 . S
H1442 C1430 0.960 . S
H1443 C1430 0.962 . S
H1444 C1430 0.960 . S
H1445 C1431 0.961 . S
H1446 C1431 0.961 . S
H1447 C1431 0.961 . S
H1448 C1432 0.931 . S
H1449 C1437 0.930 . S
H1450 C1438 0.956 . S
H1451 C1438 0.961 . S
H1452 C1438 0.961 . S
H1453 C1439 0.958 . S
H1454 C1439 0.961 . S
H1455 C1439 0.960 . S
C1456 C1457 1.391 . S
C1456 C1458 1.394 . S
C1456 H1472 0.931 . S
C1457 C1456 1.391 . S
C1457 C1461 1.376 . S
C1458 C1456 1.394 . S
C1458 C1459 1.369 . S
C1458 C1462 1.531 . S
C1459 C1458 1.369 . S
C1459 C1460 1.410 . S
C1459 C1467 1.503 . S
C1460 C1459 1.410 . S
C1460 C1461 1.392 . S
C1460 C1463 1.511 . S
C1461 C1457 1.376 . S
C1461 C1460 1.392 . S
C1461 H1473 0.929 . S
C1462 C1458 1.531 . S
C1462 H1474 0.960 . S
C1462 H1475 0.962 . S
C1462 H1476 0.960 . S
C1463 C1460 1.511 . S
C1463 H1477 0.961 . S
C1463 H1478 0.961 . S
C1463 H1479 0.961 . S
C1464 C1465 1.370 . S
C1464 C1466 1.363 . S
C1464 H1480 0.931 . S
C1465 C1464 1.370 . S
C1465 C1469 1.408 . S
C1466 C1464 1.363 . S
C1466 C1467 1.370 . S
C1466 C1470 1.524 . S
C1467 C1459 1.503 . S
C1467 C1466 1.370 . S
C1467 C1468 1.403 . S
C1468 C1467 1.403 . S
C1468 C1469 1.404 . S
C1468 C1471 1.539 . S
C1469 C1465 1.408 . S
C1469 C1468 1.404 . S
C1469 H1481 0.930 . S
C1470 C1466 1.524 . S
C1470 H1482 0.956 . S
C1470 H1483 0.961 . S
C1470 H1484 0.961 . S
C1471 C1468 1.539 . S
C1471 H1485 0.958 . S
C1471 H1486 0.961 . S
C1471 H1487 0.960 . S
H1472 C1456 0.931 . S
H1473 C1461 0.929 . S
H1474 C1462 0.960 . S
H1475 C1462 0.962 . S
H1476 C1462 0.960 . S
H1477 C1463 0.961 . S
H1478 C1463 0.961 . S
H1479 C1463 0.961 . S
H1480 C1464 0.931 . S
H1481 C1469 0.930 . S
H1482 C1470 0.956 . S
H1483 C1470 0.961 . S
H1484 C1470 0.961 . S
H1485 C1471 0.958 . S
H1486 C1471 0.961 . S
H1487 C1471 0.960 . S
C1488 C1489 1.391 . S
C1488 C1490 1.394 . S
C1488 H1504 0.931 . S
C1489 C1488 1.391 . S
C1489 C1493 1.376 . S
C1490 C1488 1.394 . S
C1490 C1491 1.369 . S
C1490 C1494 1.531 . S
C1491 C1490 1.369 . S
C1491 C1492 1.410 . S
C1491 C1499 1.503 . S
C1492 C1491 1.410 . S
C1492 C1493 1.392 . S
C1492 C1495 1.511 . S
C1493 C1489 1.376 . S
C1493 C1492 1.392 . S
C1493 H1505 0.929 . S
C1494 C1490 1.531 . S
C1494 H1506 0.960 . S
C1494 H1507 0.962 . S
C1494 H1508 0.960 . S
C1495 C1492 1.511 . S
C1495 H1509 0.961 . S
C1495 H1510 0.961 . S
C1495 H1511 0.961 . S
C1496 C1497 1.370 . S
C1496 C1498 1.363 . S
C1496 H1512 0.931 . S
C1497 C1496 1.370 . S
C1497 C1501 1.408 . S
C1498 C1496 1.363 . S
C1498 C1499 1.370 . S
C1498 C1502 1.524 . S
C1499 C1491 1.503 . S
C1499 C1498 1.370 . S
C1499 C1500 1.403 . S
C1500 C1499 1.403 . S
C1500 C1501 1.404 . S
C1500 C1503 1.539 . S
C1501 C1497 1.408 . S
C1501 C1500 1.404 . S
C1501 H1513 0.930 . S
C1502 C1498 1.524 . S
C1502 H1514 0.956 . S
C1502 H1515 0.961 . S
C1502 H1516 0.961 . S
C1503 C1500 1.539 . S
C1503 H1517 0.958 . S
C1503 H1518 0.961 . S
C1503 H1519 0.960 . S
H1504 C1488 0.931 . S
H1505 C1493 0.929 . S
H1506 C1494 0.960 . S
H1507 C1494 0.962 . S
H1508 C1494 0.960 . S
H1509 C1495 0.961 . S
H1510 C1495 0.961 . S
H1511 C1495 0.961 . S
H1512 C1496 0.931 . S
H1513 C1501 0.930 . S
H1514 C1502 0.956 . S
H1515 C1502 0.961 . S
H1516 C1502 0.961 . S
H1517 C1503 0.958 . S
H1518 C1503 0.961 . S
H1519 C1503 0.960 . S
C1520 C1521 1.391 . S
C1520 C1522 1.394 . S
C1520 H1536 0.931 . S
C1521 C1520 1.391 . S
C1521 C1525 1.376 . S
C1522 C1520 1.394 . S
C1522 C1523 1.369 . S
C1522 C1526 1.531 . S
C1523 C1522 1.369 . S
C1523 C1524 1.410 . S
C1523 C1531 1.503 . S
C1524 C1523 1.410 . S
C1524 C1525 1.392 . S
C1524 C1527 1.511 . S
C1525 C1521 1.376 . S
C1525 C1524 1.392 . S
C1525 H1537 0.929 . S
C1526 C1522 1.531 . S
C1526 H1538 0.960 . S
C1526 H1539 0.962 . S
C1526 H1540 0.960 . S
C1527 C1524 1.511 . S
C1527 H1541 0.961 . S
C1527 H1542 0.961 . S
C1527 H1543 0.961 . S
C1528 C1529 1.370 . S
C1528 C1530 1.363 . S
C1528 H1544 0.931 . S
C1529 C1528 1.370 . S
C1529 C1533 1.408 . S
C1530 C1528 1.363 . S
C1530 C1531 1.370 . S
C1530 C1534 1.524 . S
C1531 C1523 1.503 . S
C1531 C1530 1.370 . S
C1531 C1532 1.403 . S
C1532 C1531 1.403 . S
C1532 C1533 1.404 . S
C1532 C1535 1.539 . S
C1533 C1529 1.408 . S
C1533 C1532 1.404 . S
C1533 H1545 0.930 . S
C1534 C1530 1.524 . S
C1534 H1546 0.956 . S
C1534 H1547 0.961 . S
C1534 H1548 0.961 . S
C1535 C1532 1.539 . S
C1535 H1549 0.958 . S
C1535 H1550 0.961 . S
C1535 H1551 0.960 . S
H1536 C1520 0.931 . S
H1537 C1525 0.929 . S
H1538 C1526 0.960 . S
H1539 C1526 0.962 . S
H1540 C1526 0.960 . S
H1541 C1527 0.961 . S
H1542 C1527 0.961 . S
H1543 C1527 0.961 . S
H1544 C1528 0.931 . S
H1545 C1533 0.930 . S
H1546 C1534 0.956 . S
H1547 C1534 0.961 . S
H1548 C1534 0.961 . S
H1549 C1535 0.958 . S
H1550 C1535 0.961 . S
H1551 C1535 0.960 . S
C1552 C1553 1.391 . S
C1552 C1554 1.394 . S
C1552 H1568 0.931 . S
C1553 C1552 1.391 . S
C1553 C1557 1.376 . S
C1554 C1552 1.394 . S
C1554 C1555 1.369 . S
C1554 C1558 1.531 . S
C1555 C1554 1.369 . S
C1555 C1556 1.410 . S
C1555 C1563 1.503 . S
C1556 C1555 1.410 . S
C1556 C1557 1.392 . S
C1556 C1559 1.511 . S
C1557 C1553 1.376 . S
C1557 C1556 1.392 . S
C1557 H1569 0.929 . S
C1558 C1554 1.531 . S
C1558 H1570 0.960 . S
C1558 H1571 0.962 . S
C1558 H1572 0.960 . S
C1559 C1556 1.511 . S
C1559 H1573 0.961 . S
C1559 H1574 0.961 . S
C1559 H1575 0.961 . S
C1560 C1561 1.370 . S
C1560 C1562 1.363 . S
C1560 H1576 0.931 . S
C1561 C1560 1.370 . S
C1561 C1565 1.408 . S
C1562 C1560 1.363 . S
C1562 C1563 1.370 . S
C1562 C1566 1.524 . S
C1563 C1555 1.503 . S
C1563 C1562 1.370 . S
C1563 C1564 1.403 . S
C1564 C1563 1.403 . S
C1564 C1565 1.404 . S
C1564 C1567 1.539 . S
C1565 C1561 1.408 . S
C1565 C1564 1.404 . S
C1565 H1577 0.930 . S
C1566 C1562 1.524 . S
C1566 H1578 0.956 . S
C1566 H1579 0.961 . S
C1566 H1580 0.961 . S
C1567 C1564 1.539 . S
C1567 H1581 0.958 . S
C1567 H1582 0.961 . S
C1567 H1583 0.960 . S
H1568 C1552 0.931 . S
H1569 C1557 0.929 . S
H1570 C1558 0.960 . S
H1571 C1558 0.962 . S
H1572 C1558 0.960 . S
H1573 C1559 0.961 . S
H1574 C1559 0.961 . S
H1575 C1559 0.961 . S
H1576 C1560 0.931 . S
H1577 C1565 0.930 . S
H1578 C1566 0.956 . S
H1579 C1566 0.961 . S
H1580 C1566 0.961 . S
H1581 C1567 0.958 . S
H1582 C1567 0.961 . S
H1583 C1567 0.960 . S
C1584 C1585 1.391 . S
C1584 C1586 1.394 . S
C1584 H1600 0.931 . S
C1585 C1584 1.391 . S
C1585 C1589 1.376 . S
C1586 C1584 1.394 . S
C1586 C1587 1.369 . S
C1586 C1590 1.531 . S
C1587 C1586 1.369 . S
C1587 C1588 1.410 . S
C1587 C1595 1.503 . S
C1588 C1587 1.410 . S
C1588 C1589 1.392 . S
C1588 C1591 1.511 . S
C1589 C1585 1.376 . S
C1589 C1588 1.392 . S
C1589 H1601 0.929 . S
C1590 C1586 1.531 . S
C1590 H1602 0.960 . S
C1590 H1603 0.962 . S
C1590 H1604 0.960 . S
C1591 C1588 1.511 . S
C1591 H1605 0.961 . S
C1591 H1606 0.961 . S
C1591 H1607 0.961 . S
C1592 C1593 1.370 . S
C1592 C1594 1.363 . S
C1592 H1608 0.931 . S
C1593 C1592 1.370 . S
C1593 C1597 1.408 . S
C1594 C1592 1.363 . S
C1594 C1595 1.370 . S
C1594 C1598 1.524 . S
C1595 C1587 1.503 . S
C1595 C1594 1.370 . S
C1595 C1596 1.403 . S
C1596 C1595 1.403 . S
C1596 C1597 1.404 . S
C1596 C1599 1.539 . S
C1597 C1593 1.408 . S
C1597 C1596 1.404 . S
C1597 H1609 0.930 . S
C1598 C1594 1.524 . S
C1598 H1610 0.956 . S
C1598 H1611 0.961 . S
C1598 H1612 0.961 . S
C1599 C1596 1.539 . S
C1599 H1613 0.958 . S
C1599 H1614 0.961 . S
C1599 H1615 0.960 . S
H1600 C1584 0.931 . S
H1601 C1589 0.929 . S
H1602 C1590 0.960 . S
H1603 C1590 0.962 . S
H1604 C1590 0.960 . S
H1605 C1591 0.961 . S
H1606 C1591 0.961 . S
H1607 C1591 0.961 . S
H1608 C1592 0.931 . S
H1609 C1597 0.930 . S
H1610 C1598 0.956 . S
H1611 C1598 0.961 . S
H1612 C1598 0.961 . S
H1613 C1599 0.958 . S
H1614 C1599 0.961 . S
H1615 C1599 0.960 . S
C1616 C1617 1.391 . S
C1616 C1618 1.394 . S
C1616 H1632 0.931 . S
C1617 C1616 1.391 . S
C1617 C1621 1.376 . S
C1618 C1616 1.394 . S
C1618 C1619 1.369 . S
C1618 C1622 1.531 . S
C1619 C1618 1.369 . S
C1619 C1620 1.410 . S
C1619 C1627 1.503 . S
C1620 C1619 1.410 . S
C1620 C1621 1.392 . S
C1620 C1623 1.511 . S
C1621 C1617 1.376 . S
C1621 C1620 1.392 . S
C1621 H1633 0.929 . S
C1622 C1618 1.531 . S
C1622 H1634 0.960 . S
C1622 H1635 0.962 . S
C1622 H1636 0.960 . S
C1623 C1620 1.511 . S
C1623 H1637 0.961 . S
C1623 H1638 0.961 . S
C1623 H1639 0.961 . S
C1624 C1625 1.370 . S
C1624 C1626 1.363 . S
C1624 H1640 0.931 . S
C1625 C1624 1.370 . S
C1625 C1629 1.408 . S
C1626 C1624 1.363 . S
C1626 C1627 1.370 . S
C1626 C1630 1.524 . S
C1627 C1619 1.503 . S
C1627 C1626 1.370 . S
C1627 C1628 1.403 . S
C1628 C1627 1.403 . S
C1628 C1629 1.404 . S
C1628 C1631 1.539 . S
C1629 C1625 1.408 . S
C1629 C1628 1.404 . S
C1629 H1641 0.930 . S
C1630 C1626 1.524 . S
C1630 H1642 0.956 . S
C1630 H1643 0.961 . S
C1630 H1644 0.961 . S
C1631 C1628 1.539 . S
C1631 H1645 0.958 . S
C1631 H1646 0.961 . S
C1631 H1647 0.960 . S
H1632 C1616 0.931 . S
H1633 C1621 0.929 . S
H1634 C1622 0.960 . S
H1635 C1622 0.962 . S
H1636 C1622 0.960 . S
H1637 C1623 0.961 . S
H1638 C1623 0.961 . S
H1639 C1623 0.961 . S
H1640 C1624 0.931 . S
H1641 C1629 0.930 . S
H1642 C1630 0.956 . S
H1643 C1630 0.961 . S
H1644 C1630 0.961 . S
H1645 C1631 0.958 . S
H1646 C1631 0.961 . S
H1647 C1631 0.960 . S
C1648 C1649 1.391 . S
C1648 C1650 1.394 . S
C1648 H1664 0.931 . S
C1649 C1648 1.391 . S
C1649 C1653 1.376 . S
C1650 C1648 1.394 . S
C1650 C1651 1.369 . S
C1650 C1654 1.531 . S
C1651 C1650 1.369 . S
C1651 C1652 1.410 . S
C1651 C1659 1.503 . S
C1652 C1651 1.410 . S
C1652 C1653 1.392 . S
C1652 C1655 1.511 . S
C1653 C1649 1.376 . S
C1653 C1652 1.392 . S
C1653 H1665 0.929 . S
C1654 C1650 1.531 . S
C1654 H1666 0.960 . S
C1654 H1667 0.962 . S
C1654 H1668 0.960 . S
C1655 C1652 1.511 . S
C1655 H1669 0.961 . S
C1655 H1670 0.961 . S
C1655 H1671 0.961 . S
C1656 C1657 1.370 . S
C1656 C1658 1.363 . S
C1656 H1672 0.931 . S
C1657 C1656 1.370 . S
C1657 C1661 1.408 . S
C1658 C1656 1.363 . S
C1658 C1659 1.370 . S
C1658 C1662 1.524 . S
C1659 C1651 1.503 . S
C1659 C1658 1.370 . S
C1659 C1660 1.403 . S
C1660 C1659 1.403 . S
C1660 C1661 1.404 . S
C1660 C1663 1.539 . S
C1661 C1657 1.408 . S
C1661 C1660 1.404 . S
C1661 H1673 0.930 . S
C1662 C1658 1.524 . S
C1662 H1674 0.956 . S
C1662 H1675 0.961 . S
C1662 H1676 0.961 . S
C1663 C1660 1.539 . S
C1663 H1677 0.958 . S
C1663 H1678 0.961 . S
C1663 H1679 0.960 . S
H1664 C1648 0.931 . S
H1665 C1653 0.929 . S
H1666 C1654 0.960 . S
H1667 C1654 0.962 . S
H1668 C1654 0.960 . S
H1669 C1655 0.961 . S
H1670 C1655 0.961 . S
H1671 C1655 0.961 . S
H1672 C1656 0.931 . S
H1673 C1661 0.930 . S
H1674 C1662 0.956 . S
H1675 C1662 0.961 . S
H1676 C1662 0.961 . S
H1677 C1663 0.958 . S
H1678 C1663 0.961 . S
H1679 C1663 0.960 . S
C1680 C1681 1.391 . S
C1680 C1682 1.394 . S
C1680 H1696 0.931 . S
C1681 C1680 1.391 . S
C1681 C1685 1.376 . S
C1682 C1680 1.394 . S
C1682 C1683 1.369 . S
C1682 C1686 1.531 . S
C1683 C1682 1.369 . S
C1683 C1684 1.410 . S
C1683 C1691 1.503 . S
C1684 C1683 1.410 . S
C1684 C1685 1.392 . S
C1684 C1687 1.511 . S
C1685 C1681 1.376 . S
C1685 C1684 1.392 . S
C1685 H1697 0.929 . S
C1686 C1682 1.531 . S
C1686 H1698 0.960 . S
C1686 H1699 0.962 . S
C1686 H1700 0.960 . S
C1687 C1684 1.511 . S
C1687 H1701 0.961 . S
C1687 H1702 0.961 . S
C1687 H1703 0.961 . S
C1688 C1689 1.370 . S
C1688 C1690 1.363 . S
C1688 H1704 0.931 . S
C1689 C1688 1.370 . S
C1689 C1693 1.408 . S
C1690 C1688 1.363 . S
C1690 C1691 1.370 . S
C1690 C1694 1.524 . S
C1691 C1683 1.503 . S
C1691 C1690 1.370 . S
C1691 C1692 1.403 . S
C1692 C1691 1.403 . S
C1692 C1693 1.404 . S
C1692 C1695 1.539 . S
C1693 C1689 1.408 . S
C1693 C1692 1.404 . S
C1693 H1705 0.930 . S
C1694 C1690 1.524 . S
C1694 H1706 0.956 . S
C1694 H1707 0.961 . S
C1694 H1708 0.961 . S
C1695 C1692 1.539 . S
C1695 H1709 0.958 . S
C1695 H1710 0.961 . S
C1695 H1711 0.960 . S
H1696 C1680 0.931 . S
H1697 C1685 0.929 . S
H1698 C1686 0.960 . S
H1699 C1686 0.962 . S
H1700 C1686 0.960 . S
H1701 C1687 0.961 . S
H1702 C1687 0.961 . S
H1703 C1687 0.961 . S
H1704 C1688 0.931 . S
H1705 C1693 0.930 . S
H1706 C1694 0.956 . S
H1707 C1694 0.961 . S
H1708 C1694 0.961 . S
H1709 C1695 0.958 . S
H1710 C1695 0.961 . S
H1711 C1695 0.960 . S
C1712 C1713 1.391 . S
C1712 C1714 1.394 . S
C1712 H1728 0.931 . S
C1713 C1712 1.391 . S
C1713 C1717 1.376 . S
C1714 C1712 1.394 . S
C1714 C1715 1.369 . S
C1714 C1718 1.531 . S
C1715 C1714 1.369 . S
C1715 C1716 1.410 . S
C1715 C1723 1.503 . S
C1716 C1715 1.410 . S
C1716 C1717 1.392 . S
C1716 C1719 1.511 . S
C1717 C1713 1.376 . S
C1717 C1716 1.392 . S
C1717 H1729 0.929 . S
C1718 C1714 1.531 . S
C1718 H1730 0.960 . S
C1718 H1731 0.962 . S
C1718 H1732 0.960 . S
C1719 C1716 1.511 . S
C1719 H1733 0.961 . S
C1719 H1734 0.961 . S
C1719 H1735 0.961 . S
C1720 C1721 1.370 . S
C1720 C1722 1.363 . S
C1720 H1736 0.931 . S
C1721 C1720 1.370 . S
C1721 C1725 1.408 . S
C1722 C1720 1.363 . S
C1722 C1723 1.370 . S
C1722 C1726 1.524 . S
C1723 C1715 1.503 . S
C1723 C1722 1.370 . S
C1723 C1724 1.403 . S
C1724 C1723 1.403 . S
C1724 C1725 1.404 . S
C1724 C1727 1.539 . S
C1725 C1721 1.408 . S
C1725 C1724 1.404 . S
C1725 H1737 0.930 . S
C1726 C1722 1.524 . S
C1726 H1738 0.956 . S
C1726 H1739 0.961 . S
C1726 H1740 0.961 . S
C1727 C1724 1.539 . S
C1727 H1741 0.958 . S
C1727 H1742 0.961 . S
C1727 H1743 0.960 . S
H1728 C1712 0.931 . S
H1729 C1717 0.929 . S
H1730 C1718 0.960 . S
H1731 C1718 0.962 . S
H1732 C1718 0.960 . S
H1733 C1719 0.961 . S
H1734 C1719 0.961 . S
H1735 C1719 0.961 . S
H1736 C1720 0.931 . S
H1737 C1725 0.930 . S
H1738 C1726 0.956 . S
H1739 C1726 0.961 . S
H1740 C1726 0.961 . S
H1741 C1727 0.958 . S
H1742 C1727 0.961 . S
H1743 C1727 0.960 . S
C1744 C1745 1.391 . S
C1744 C1746 1.394 . S
C1744 H1760 0.931 . S
C1745 C1744 1.391 . S
C1745 C1749 1.376 . S
C1746 C1744 1.394 . S
C1746 C1747 1.369 . S
C1746 C1750 1.531 . S
C1747 C1746 1.369 . S
C1747 C1748 1.410 . S
C1747 C1755 1.503 . S
C1748 C1747 1.410 . S
C1748 C1749 1.392 . S
C1748 C1751 1.511 . S
C1749 C1745 1.376 . S
C1749 C1748 1.392 . S
C1749 H1761 0.929 . S
C1750 C1746 1.531 . S
C1750 H1762 0.960 . S
C1750 H1763 0.962 . S
C1750 H1764 0.960 . S
C1751 C1748 1.511 . S
C1751 H1765 0.961 . S
C1751 H1766 0.961 . S
C1751 H1767 0.961 . S
C1752 C1753 1.370 . S
C1752 C1754 1.363 . S
C1752 H1768 0.931 . S
C1753 C1752 1.370 . S
C1753 C1757 1.408 . S
C1754 C1752 1.363 . S
C1754 C1755 1.370 . S
C1754 C1758 1.524 . S
C1755 C1747 1.503 . S
C1755 C1754 1.370 . S
C1755 C1756 1.403 . S
C1756 C1755 1.403 . S
C1756 C1757 1.404 . S
C1756 C1759 1.539 . S
C1757 C1753 1.408 . S
C1757 C1756 1.404 . S
C1757 H1769 0.930 . S
C1758 C1754 1.524 . S
C1758 H1770 0.956 . S
C1758 H1771 0.961 . S
C1758 H1772 0.961 . S
C1759 C1756 1.539 . S
C1759 H1773 0.958 . S
C1759 H1774 0.961 . S
C1759 H1775 0.960 . S
H1760 C1744 0.931 . S
H1761 C1749 0.929 . S
H1762 C1750 0.960 . S
H1763 C1750 0.962 . S
H1764 C1750 0.960 . S
H1765 C1751 0.961 . S
H1766 C1751 0.961 . S
H1767 C1751 0.961 . S
H1768 C1752 0.931 . S
H1769 C1757 0.930 . S
H1770 C1758 0.956 . S
H1771 C1758 0.961 . S
H1772 C1758 0.961 . S
H1773 C1759 0.958 . S
H1774 C1759 0.961 . S
H1775 C1759 0.960 . S
C1776 C1777 1.391 . S
C1776 C1778 1.394 . S
C1776 H1792 0.931 . S
C1777 C1776 1.391 . S
C1777 C1781 1.376 . S
C1778 C1776 1.394 . S
C1778 C1779 1.369 . S
C1778 C1782 1.531 . S
C1779 C1778 1.369 . S
C1779 C1780 1.410 . S
C1779 C1787 1.503 . S
C1780 C1779 1.410 . S
C1780 C1781 1.392 . S
C1780 C1783 1.511 . S
C1781 C1777 1.376 . S
C1781 C1780 1.392 . S
C1781 H1793 0.929 . S
C1782 C1778 1.531 . S
C1782 H1794 0.960 . S
C1782 H1795 0.962 . S
C1782 H1796 0.960 . S
C1783 C1780 1.511 . S
C1783 H1797 0.961 . S
C1783 H1798 0.961 . S
C1783 H1799 0.961 . S
C1784 C1785 1.370 . S
C1784 C1786 1.363 . S
C1784 H1800 0.931 . S
C1785 C1784 1.370 . S
C1785 C1789 1.408 . S
C1786 C1784 1.363 . S
C1786 C1787 1.370 . S
C1786 C1790 1.524 . S
C1787 C1779 1.503 . S
C1787 C1786 1.370 . S
C1787 C1788 1.403 . S
C1788 C1787 1.403 . S
C1788 C1789 1.404 . S
C1788 C1791 1.539 . S
C1789 C1785 1.408 . S
C1789 C1788 1.404 . S
C1789 H1801 0.930 . S
C1790 C1786 1.524 . S
C1790 H1802 0.956 . S
C1790 H1803 0.961 . S
C1790 H1804 0.961 . S
C1791 C1788 1.539 . S
C1791 H1805 0.958 . S
C1791 H1806 0.961 . S
C1791 H1807 0.960 . S
H1792 C1776 0.931 . S
H1793 C1781 0.929 . S
H1794 C1782 0.960 . S
H1795 C1782 0.962 . S
H1796 C1782 0.960 . S
H1797 C1783 0.961 . S
H1798 C1783 0.961 . S
H1799 C1783 0.961 . S
H1800 C1784 0.931 . S
H1801 C1789 0.930 . S
H1802 C1790 0.956 . S
H1803 C1790 0.961 . S
H1804 C1790 0.961 . S
H1805 C1791 0.958 . S
H1806 C1791 0.961 . S
H1807 C1791 0.960 . S
C1808 C1809 1.391 . S
C1808 C1810 1.394 . S
C1808 H1824 0.931 . S
C1809 C1808 1.391 . S
C1809 C1813 1.376 . S
C1810 C1808 1.394 . S
C1810 C1811 1.369 . S
C1810 C1814 1.531 . S
C1811 C1810 1.369 . S
C1811 C1812 1.410 . S
C1811 C1819 1.503 . S
C1812 C1811 1.410 . S
C1812 C1813 1.392 . S
C1812 C1815 1.511 . S
C1813 C1809 1.376 . S
C1813 C1812 1.392 . S
C1813 H1825 0.929 . S
C1814 C1810 1.531 . S
C1814 H1826 0.960 . S
C1814 H1827 0.962 . S
C1814 H1828 0.960 . S
C1815 C1812 1.511 . S
C1815 H1829 0.961 . S
C1815 H1830 0.961 . S
C1815 H1831 0.961 . S
C1816 C1817 1.370 . S
C1816 C1818 1.363 . S
C1816 H1832 0.931 . S
C1817 C1816 1.370 . S
C1817 C1821 1.408 . S
C1818 C1816 1.363 . S
C1818 C1819 1.370 . S
C1818 C1822 1.524 . S
C1819 C1811 1.503 . S
C1819 C1818 1.370 . S
C1819 C1820 1.403 . S
C1820 C1819 1.403 . S
C1820 C1821 1.404 . S
C1820 C1823 1.539 . S
C1821 C1817 1.408 . S
C1821 C1820 1.404 . S
C1821 H1833 0.930 . S
C1822 C1818 1.524 . S
C1822 H1834 0.956 . S
C1822 H1835 0.961 . S
C1822 H1836 0.961 . S
C1823 C1820 1.539 . S
C1823 H1837 0.958 . S
C1823 H1838 0.961 . S
C1823 H1839 0.960 . S
H1824 C1808 0.931 . S
H1825 C1813 0.929 . S
H1826 C1814 0.960 . S
H1827 C1814 0.962 . S
H1828 C1814 0.960 . S
H1829 C1815 0.961 . S
H1830 C1815 0.961 . S
H1831 C1815 0.961 . S
H1832 C1816 0.931 . S
H1833 C1821 0.930 . S
H1834 C1822 0.956 . S
H1835 C1822 0.961 . S
H1836 C1822 0.961 . S
H1837 C1823 0.958 . S
H1838 C1823 0.961 . S
H1839 C1823 0.960 . S
C1840 C1841 1.391 . S
C1840 C1842 1.394 . S
C1840 H1856 0.931 . S
C1841 C1840 1.391 . S
C1841 C1845 1.376 . S
C1842 C1840 1.394 . S
C1842 C1843 1.369 . S
C1842 C1846 1.531 . S
C1843 C1842 1.369 . S
C1843 C1844 1.410 . S
C1843 C1851 1.503 . S
C1844 C1843 1.410 . S
C1844 C1845 1.392 . S
C1844 C1847 1.511 . S
C1845 C1841 1.376 . S
C1845 C1844 1.392 . S
C1845 H1857 0.929 . S
C1846 C1842 1.531 . S
C1846 H1858 0.960 . S
C1846 H1859 0.962 . S
C1846 H1860 0.960 . S
C1847 C1844 1.511 . S
C1847 H1861 0.961 . S
C1847 H1862 0.961 . S
C1847 H1863 0.961 . S
C1848 C1849 1.370 . S
C1848 C1850 1.363 . S
C1848 H1864 0.931 . S
C1849 C1848 1.370 . S
C1849 C1853 1.408 . S
C1850 C1848 1.363 . S
C1850 C1851 1.370 . S
C1850 C1854 1.524 . S
C1851 C1843 1.503 . S
C1851 C1850 1.370 . S
C1851 C1852 1.403 . S
C1852 C1851 1.403 . S
C1852 C1853 1.404 . S
C1852 C1855 1.539 . S
C1853 C1849 1.408 . S
C1853 C1852 1.404 . S
C1853 H1865 0.930 . S
C1854 C1850 1.524 . S
C1854 H1866 0.956 . S
C1854 H1867 0.961 . S
C1854 H1868 0.961 . S
C1855 C1852 1.539 . S
C1855 H1869 0.958 . S
C1855 H1870 0.961 . S
C1855 H1871 0.960 . S
H1856 C1840 0.931 . S
H1857 C1845 0.929 . S
H1858 C1846 0.960 . S
H1859 C1846 0.962 . S
H1860 C1846 0.960 . S
H1861 C1847 0.961 . S
H1862 C1847 0.961 . S
H1863 C1847 0.961 . S
H1864 C1848 0.931 . S
H1865 C1853 0.930 . S
H1866 C1854 0.956 . S
H1867 C1854 0.961 . S
H1868 C1854 0.961 . S
H1869 C1855 0.958 . S
H1870 C1855 0.961 . S
H1871 C1855 0.960 . S
C1872 C1873 1.391 . S
C1872 C1874 1.394 . S
C1872 H1888 0.931 . S
C1873 C1872 1.391 . S
C1873 C1877 1.376 . S
C1874 C1872 1.394 . S
C1874 C1875 1.369 . S
C1874 C1878 1.531 . S
C1875 C1874 1.369 . S
C1875 C1876 1.410 . S
C1875 C1883 1.503 . S
C1876 C1875 1.410 . S
C1876 C1877 1.392 . S
C1876 C1879 1.511 . S
C1877 C1873 1.376 . S
C1877 C1876 1.392 . S
C1877 H1889 0.929 . S
C1878 C1874 1.531 . S
C1878 H1890 0.960 . S
C1878 H1891 0.962 . S
C1878 H1892 0.960 . S
C1879 C1876 1.511 . S
C1879 H1893 0.961 . S
C1879 H1894 0.961 . S
C1879 H1895 0.961 . S
C1880 C1881 1.370 . S
C1880 C1882 1.363 . S
C1880 H1896 0.931 . S
C1881 C1880 1.370 . S
C1881 C1885 1.408 . S
C1882 C1880 1.363 . S
C1882 C1883 1.370 . S
C1882 C1886 1.524 . S
C1883 C1875 1.503 . S
C1883 C1882 1.370 . S
C1883 C1884 1.403 . S
C1884 C1883 1.403 . S
C1884 C1885 1.404 . S
C1884 C1887 1.539 . S
C1885 C1881 1.408 . S
C1885 C1884 1.404 . S
C1885 H1897 0.930 . S
C1886 C1882 1.524 . S
C1886 H1898 0.956 . S
C1886 H1899 0.961 . S
C1886 H1900 0.961 . S
C1887 C1884 1.539 . S
C1887 H1901 0.958 . S
C1887 H1902 0.961 . S
C1887 H1903 0.960 . S
H1888 C1872 0.931 . S
H1889 C1877 0.929 . S
H1890 C1878 0.960 . S
H1891 C1878 0.962 . S
H1892 C1878 0.960 . S
H1893 C1879 0.961 . S
H1894 C1879 0.961 . S
H1895 C1879 0.961 . S
H1896 C1880 0.931 . S
H1897 C1885 0.930 . S
H1898 C1886 0.956 . S
H1899 C1886 0.961 . S
H1900 C1886 0.961 . S
H1901 C1887 0.958 . S
H1902 C1887 0.961 . S
H1903 C1887 0.960 . S
C369 C16 1.033 . S
C377 C177 1.068 . S
C401 C108 1.031 . S
C409 C39 1.067 . S
C433 C131 1.030 . S
C441 C62 1.071 . S
C465 C85 1.025 . S
C473 C154 1.066 . S
C497 C362 1.029 . S
C505 C200 1.052 . S
C529 C292 1.027 . S
C537 C223 1.070 . S
C561 C315 1.039 . S
C569 C246 1.069 . S
C593 C338 1.080 . S
C601 C269 1.051 . S
C625 C20 1.179 . S
C633 C366 1.191 . S
C657 C43 1.207 . S
C665 C296 1.196 . S
C689 C66 1.202 . S
C697 C319 1.190 . S
C721 C342 1.179 . S
C729 C89 1.177 . S
C753 C227 1.161 . S
C761 C112 1.173 . S
C785 C135 1.181 . S
C793 C250 1.185 . S
C817 C273 1.170 . S
C825 C158 1.179 . S
C849 C181 1.135 . S
C857 C204 1.152 . S
C881 C294 1.434 . S
C889 C17 1.449 . S
C913 C40 1.430 1_455 S
C921 C317 1.456 . S
C945 C340 1.430 . S
C953 C63 1.451 1_545 S
C977 C364 1.482 . S
C985 C86 1.478 . S
C1009 C109 1.456 . S
C1017 C202 1.477 . S
C1041 C132 1.447 1_655 S
C1049 C225 1.468 . S
C1073 C155 1.473 1_565 S
C1081 C248 1.457 . S
C1105 C271 1.442 . S
C1113 C178 1.459 . S
C1137 C201 1.464 . S
C1145 C110 1.466 . S
C1169 C224 1.464 1_655 S
C1177 C133 1.452 . S
C1201 C156 1.446 . S
C1209 C247 1.454 1_565 S
C1233 C270 1.463 . S
C1241 C179 1.453 . S
C1265 C293 1.439 . S
C1273 C18 1.454 . S
C1297 C316 1.472 1_455 S
C1305 C41 1.459 . S
C1329 C64 1.466 . S
C1337 C339 1.442 1_545 S
C1361 C87 1.484 . S
C1369 C361 1.492 . S
C1393 C19 1.531 . S
C1401 C228 1.529 . S
C1425 C251 1.535 . S
C1433 C42 1.535 . S
C1457 C65 1.548 . S
C1465 C274 1.502 . S
C1489 C88 1.559 . S
C1497 C205 1.541 . S
C1521 C111 1.492 . S
C1529 C365 1.536 . S
C1553 C134 1.542 . S
C1561 C297 1.502 . S
C1585 C157 1.551 . S
C1593 C320 1.507 . S
C1617 C343 1.521 . S
C1625 C180 1.528 . S
C1649 C44 1.491 . S
C1657 C203 1.553 . S
C1681 C67 1.525 . S
C1689 C226 1.539 . S
C1713 C249 1.522 . S
C1721 C90 1.529 . S
C1745 C272 1.552 . S
C1753 C21 1.508 . S
C1777 C182 1.504 . S
C1785 C295 1.532 . S
C1809 C113 1.535 . S
C1817 C318 1.532 . S
C1841 C136 1.484 . S
C1849 C341 1.545 . S
C1873 C159 1.509 . S
C1881 C363 1.559 . S
