# Generated by pormake.
# Topology uku, (4)-cn, num edge types: 1
# Building blocks:
#     Node 0, Type 0, BuildingBlock: KUFVIS_clean_sbu_0, # of connection points: 4
#     Node 1, Type 0, BuildingBlock: KUFVIS_clean_sbu_0, # of connection points: 4
#     Node 2, Type 0, BuildingBlock: KUFVIS_clean_sbu_0, # of connection points: 4
#     Node 3, Type 0, BuildingBlock: KUFVIS_clean_sbu_0, # of connection points: 4
#     Node 4, Type 0, BuildingBlock: KUFVIS_clean_sbu_0, # of connection points: 4
#     Node 5, Type 0, BuildingBlock: KUFVIS_clean_sbu_0, # of connection points: 4
#     Node 6, Type 0, BuildingBlock: KUFVIS_clean_sbu_0, # of connection points: 4
#     Node 7, Type 0, BuildingBlock: KUFVIS_clean_sbu_0, # of connection points: 4
#     Node 8, Type 0, BuildingBlock: KUFVIS_clean_sbu_0, # of connection points: 4
#     Node 9, Type 0, BuildingBlock: KUFVIS_clean_sbu_0, # of connection points: 4
#     Node 10, Type 0, BuildingBlock: KUFVIS_clean_sbu_0, # of connection points: 4
#     Node 11, Type 0, BuildingBlock: KUFVIS_clean_sbu_0, # of connection points: 4
#     Edge 12, Type (0, 0), BuildingBlock: MIFKUJ_clean_linker_0, # of connection points: 2
#     Edge 13, Type (0, 0), BuildingBlock: MIFKUJ_clean_linker_0, # of connection points: 2
#     Edge 14, Type (0, 0), BuildingBlock: MIFKUJ_clean_linker_0, # of connection points: 2
#     Edge 15, Type (0, 0), BuildingBlock: MIFKUJ_clean_linker_0, # of connection points: 2
#     Edge 16, Type (0, 0), BuildingBlock: MIFKUJ_clean_linker_0, # of connection points: 2
#     Edge 17, Type (0, 0), BuildingBlock: MIFKUJ_clean_linker_0, # of connection points: 2
#     Edge 18, Type (0, 0), BuildingBlock: MIFKUJ_clean_linker_0, # of connection points: 2
#     Edge 19, Type (0, 0), BuildingBlock: MIFKUJ_clean_linker_0, # of connection points: 2
#     Edge 20, Type (0, 0), BuildingBlock: MIFKUJ_clean_linker_0, # of connection points: 2
#     Edge 21, Type (0, 0), BuildingBlock: MIFKUJ_clean_linker_0, # of connection points: 2
#     Edge 22, Type (0, 0), BuildingBlock: MIFKUJ_clean_linker_0, # of connection points: 2
#     Edge 23, Type (0, 0), BuildingBlock: MIFKUJ_clean_linker_0, # of connection points: 2
#     Edge 24, Type (0, 0), BuildingBlock: MIFKUJ_clean_linker_0, # of connection points: 2
#     Edge 25, Type (0, 0), BuildingBlock: MIFKUJ_clean_linker_0, # of connection points: 2
#     Edge 26, Type (0, 0), BuildingBlock: MIFKUJ_clean_linker_0, # of connection points: 2
#     Edge 27, Type (0, 0), BuildingBlock: MIFKUJ_clean_linker_0, # of connection points: 2
#     Edge 28, Type (0, 0), BuildingBlock: MIFKUJ_clean_linker_0, # of connection points: 2
#     Edge 29, Type (0, 0), BuildingBlock: MIFKUJ_clean_linker_0, # of connection points: 2
#     Edge 30, Type (0, 0), BuildingBlock: MIFKUJ_clean_linker_0, # of connection points: 2
#     Edge 31, Type (0, 0), BuildingBlock: MIFKUJ_clean_linker_0, # of connection points: 2
#     Edge 32, Type (0, 0), BuildingBlock: MIFKUJ_clean_linker_0, # of connection points: 2
#     Edge 33, Type (0, 0), BuildingBlock: MIFKUJ_clean_linker_0, # of connection points: 2
#     Edge 34, Type (0, 0), BuildingBlock: MIFKUJ_clean_linker_0, # of connection points: 2
#     Edge 35, Type (0, 0), BuildingBlock: MIFKUJ_clean_linker_0, # of connection points: 2
# Relax obj value: 0.400
# Max RMSD: 0.284
# Mean RMSD: 0.284
data_MOF--net-uku--node1-KUFVIS_clean_sbu_0--edge1-MIFKUJ_clean_linker_0
_symmetry_space_group_name_H-M    P1
_symmetry_Int_Tables_number       1
_symmetry_cell_setting            triclinic
loop_
_symmetry_equiv_pos_as_xyz
'x, y, z'
_cell_length_a     52.286039
_cell_length_b     52.28358
_cell_length_c     52.263532
_cell_angle_alpha  89.921039
_cell_angle_beta   90.006692
_cell_angle_gamma 89.963424
loop_
_atom_site_label
_atom_site_type_symbol
_atom_site_fract_x
_atom_site_fract_y
_atom_site_fract_z
_atom_type_partial_charge
Mn0 Mn 0.0729 0.1857 0.65322 0.0
Mn1 Mn 0.01422 0.20247 0.67325 0.0
C2 C 0.06868 0.22016 0.67999 0.0
C3 C 0.10655 0.15746 0.65811 0.0
C4 C 0.03475 0.21302 0.61979 0.0
O5 O 0.05034 0.15586 0.64378 0.0
O6 O 0.01423 0.16511 0.66521 0.0
C7 C 0.01136 0.1733 0.72174 0.0
N8 N 0.01034 0.19605 0.70905 0.0
C9 C 0.00251 0.21895 0.74818 0.0
C10 C 0.00327 0.19574 0.76164 0.0
C11 C 0.00777 0.17283 0.74836 0.0
C12 C 0.00607 0.21821 0.72163 0.0
H13 H 0.01498 0.15566 0.71163 0.0
C14 C 0.02849 0.14969 0.65254 0.0
O15 O 0.10262 0.16877 0.6363 0.0
O16 O 0.09176 0.1634 0.6771 0.0
N17 N 0.01185 0.23794 0.6821 0.0
C18 C 0.0133 0.25884 0.66655 0.0
C19 C 0.01008 0.28335 0.67703 0.0
C20 C 0.00524 0.28613 0.70331 0.0
C21 C 0.00357 0.26434 0.71888 0.0
C22 C 0.00675 0.24039 0.70734 0.0
H23 H 0.017 0.25688 0.64634 0.0
O24 O 0.08977 0.21681 0.6673 0.0
O25 O 0.05138 0.20249 0.67754 0.0
O26 O 0.05786 0.20647 0.62402 0.0
O27 O 0.01677 0.21045 0.63623 0.0
C28 C -0.00064 0.2655 0.74548 0.0
C29 C -0.00108 0.24283 0.76014 0.0
H30 H 0.00068 0.19531 0.7822 0.0
H31 H 0.00856 0.15486 0.75864 0.0
H32 H 0.01141 0.30008 0.66488 0.0
H33 H 0.00301 0.30508 0.71135 0.0
H34 H 0.99681 0.28375 0.75491 0.0
H35 H 0.99614 0.24401 0.78064 0.0
Mn36 Mn 0.93918 0.83886 0.66011 0.0
Mn37 Mn 0.0009 0.82716 0.67417 0.0
C38 C 0.94974 0.80294 0.68317 0.0
C39 C 0.90128 0.85988 0.66904 0.0
C40 C 0.97772 0.81827 0.62177 0.0
O41 O 0.95646 0.87272 0.65391 0.0
O42 O 0.9968 0.86455 0.66685 0.0
C43 C 0.00525 0.85584 0.72277 0.0
N44 N 0.00697 0.8334 0.70968 0.0
C45 C 0.01924 0.81061 0.74778 0.0
C46 C 0.0178 0.83351 0.76163 0.0
C47 C 0.01074 0.85621 0.74907 0.0
C48 C 0.01379 0.81145 0.72156 0.0
H49 H -0.00033 0.87331 0.71325 0.0
C50 C 0.97918 0.87978 0.659 0.0
O51 O 0.90663 0.85234 0.64599 0.0
O52 O 0.91775 0.85474 0.68693 0.0
N53 N 0.00701 0.79194 0.68213 0.0
C54 C 0.0057 0.77119 0.66644 0.0
C55 C 0.01129 0.74682 0.67627 0.0
C56 C 0.01822 0.74404 0.70208 0.0
C57 C 0.0194 0.76566 0.71789 0.0
C58 C 0.01381 0.78949 0.70698 0.0
H59 H 0.0003 0.77319 0.6466 0.0
O60 O 0.92813 0.80419 0.67096 0.0
O61 O 0.96434 0.82306 0.68169 0.0
O62 O 0.95496 0.82419 0.62794 0.0
O63 O 0.99658 0.81951 0.63727 0.0
C64 C 0.02552 0.76446 0.74412 0.0
C65 C 0.02537 0.7869 0.75907 0.0
H66 H 0.02182 0.83384 0.78196 0.0
H67 H 0.00943 0.87394 0.75967 0.0
H68 H 0.01023 0.73021 0.66398 0.0
H69 H 0.02246 0.72519 0.70956 0.0
H70 H 0.03012 0.74638 0.75308 0.0
H71 H 0.02973 0.78566 0.77929 0.0
Mn72 Mn 0.04823 0.80709 0.31656 0.0
Mn73 Mn 0.98525 0.79854 0.30776 0.0
C74 C 0.03442 0.7739 0.29144 0.0
C75 C 0.0846 0.82961 0.3052 0.0
C76 C 0.01334 0.78434 0.35669 0.0
O77 O 0.03235 0.83991 0.32898 0.0
O78 O 0.99124 0.83521 0.31712 0.0
C79 C 0.97746 0.83046 0.2616 0.0
N80 N 0.97619 0.80726 0.27342 0.0
C81 C 0.95999 0.78733 0.23525 0.0
C82 C 0.96094 0.81104 0.22272 0.0
C83 C 0.96977 0.83269 0.23595 0.0
C84 C 0.96783 0.7863 0.26085 0.0
H85 H 0.98437 0.84711 0.27166 0.0
C86 C 0.00978 0.84856 0.32612 0.0
O87 O 0.0825 0.81927 0.32774 0.0
O88 O 0.06601 0.82604 0.28917 0.0
N89 N 0.97719 0.76412 0.29834 0.0
C90 C 0.97873 0.74243 0.31275 0.0
C91 C 0.97126 0.71895 0.3021 0.0
C92 C 0.96216 0.71804 0.27684 0.0
C93 C 0.96061 0.74063 0.26245 0.0
C94 C 0.96824 0.76348 0.27408 0.0
H95 H 0.98571 0.743 0.33218 0.0
O96 O 0.0575 0.77389 0.30066 0.0
O97 O 0.02059 0.79394 0.29652 0.0
O98 O 0.03585 0.78886 0.34856 0.0
O99 O 0.99316 0.78846 0.34344 0.0
C100 C 0.95201 0.74133 0.23693 0.0
C101 C 0.95183 0.76463 0.22328 0.0
H102 H 0.95512 0.81281 0.2029 0.0
H103 H 0.9707 0.85103 0.22637 0.0
H104 H 0.97255 0.70159 0.31333 0.0
H105 H 0.95653 0.69987 0.26865 0.0
H106 H 0.94557 0.72402 0.22765 0.0
H107 H 0.94547 0.76486 0.20356 0.0
Mn108 Mn 0.94074 0.16122 0.32904 0.0
Mn109 Mn 0.00254 0.16709 0.31183 0.0
C110 C 0.95225 0.19272 0.30081 0.0
C111 C 0.90195 0.14042 0.32467 0.0
C112 C 0.98125 0.18736 0.36172 0.0
O113 O 0.95654 0.12828 0.34122 0.0
O114 O 0.99676 0.13231 0.32673 0.0
C115 C 0.00321 0.12867 0.27024 0.0
N116 N 0.00676 0.1532 0.27828 0.0
C117 C 0.02007 0.16643 0.23626 0.0
C118 C 0.01667 0.1413 0.22754 0.0
C119 C 0.00814 0.12236 0.2446 0.0
C120 C 0.01476 0.17161 0.26199 0.0
H121 H 0.9967 0.11401 0.28326 0.0
C122 C 0.97889 0.11951 0.33762 0.0
O123 O 0.90811 0.15167 0.34593 0.0
O124 O 0.91807 0.14187 0.30583 0.0
N125 N 0.01093 0.19932 0.29662 0.0
C126 C 0.01275 0.22274 0.30791 0.0
C127 C 0.02058 0.24388 0.29328 0.0
C128 C 0.02687 0.24065 0.26735 0.0
C129 C 0.02525 0.21629 0.25628 0.0
C130 C 0.01713 0.19598 0.27174 0.0
H131 H 0.00812 0.2253 0.32787 0.0
O132 O 0.93058 0.19387 0.31289 0.0
O133 O 0.96604 0.17227 0.30457 0.0
O134 O 0.95819 0.1807 0.35764 0.0
O135 O -0.00035 0.1825 0.34635 0.0
C136 C 0.03141 0.21135 0.23053 0.0
C137 C 0.02858 0.18652 0.22044 0.0
H138 H 0.02052 0.13635 0.20779 0.0
H139 H 0.00544 0.10293 0.23802 0.0
H140 H 0.02184 0.2626 0.30198 0.0
H141 H 0.03293 0.257 0.25613 0.0
H142 H 0.03854 0.22646 0.21837 0.0
H143 H 0.03313 0.18307 0.20052 0.0
Mn144 Mn 0.65766 0.06809 0.17936 0.0
Mn145 Mn 0.67974 0.00828 0.18951 0.0
C146 C 0.68216 0.05971 0.21472 0.0
C147 C 0.66151 0.10722 0.15891 0.0
C148 C 0.62526 0.02453 0.20053 0.0
O149 O 0.65284 0.05078 0.14528 0.0
O150 O 0.67051 0.01216 0.15256 0.0
C151 C 0.72742 0.01137 0.15911 0.0
N152 N 0.71549 0.00709 0.18188 0.0
C153 C 0.75567 -0.00076 0.20296 0.0
C154 C 0.76837 0.00336 0.17969 0.0
C155 C 0.75418 0.00948 0.15768 0.0
C156 C 0.72895 0.00114 0.20316 0.0
H157 H 0.71662 0.01628 0.14219 0.0
C158 C 0.66007 0.02879 0.13779 0.0
O159 O 0.63938 0.09884 0.16644 0.0
O160 O 0.68136 0.09306 0.16364 0.0
N161 N 0.68974 0.00206 0.22422 0.0
C162 C 0.67474 0.00016 0.24546 0.0
C163 C 0.68608 0.99491 0.26925 0.0
C164 C 0.71269 0.99156 0.27095 0.0
C165 C 0.7277 0.99335 0.2488 0.0
C166 C 0.7153 -0.00165 0.22557 0.0
H167 H 0.6543 0.00284 0.24432 0.0
O168 O 0.66765 0.07987 0.21407 0.0
O169 O 0.68235 0.04545 0.19432 0.0
O170 O 0.62809 0.04793 0.19437 0.0
O171 O 0.64302 0.00783 0.19863 0.0
C172 C 0.75454 0.99093 0.24896 0.0
C173 C 0.76852 0.99391 0.22607 0.0
H174 H 0.78902 0.00214 0.17855 0.0
H175 H 0.76386 0.01284 0.13969 0.0
H176 H 0.67437 0.99359 0.28627 0.0
H177 H 0.7214 0.98782 0.28939 0.0
H178 H 0.76466 0.98715 0.26666 0.0
H179 H 0.78918 0.9924 0.22652 0.0
Mn180 Mn 0.3335 0.93448 0.17459 0.0
Mn181 Mn 0.31691 0.99542 0.18609 0.0
C182 C 0.30363 0.94297 0.20558 0.0
C183 C 0.32941 0.89865 0.14902 0.0
C184 C 0.36685 0.97145 0.20364 0.0
O185 O 0.34724 0.95405 0.14426 0.0
O186 O 0.32936 0.99278 0.15 0.0
C187 C 0.27295 0.00139 0.15088 0.0
N188 N 0.28268 0.00197 0.17506 0.0
C189 C 0.24176 0.01363 0.19259 0.0
C190 C 0.23135 0.01333 0.16787 0.0
C191 C 0.24701 0.00715 0.14694 0.0
C192 C 0.2678 0.00796 0.19533 0.0
H193 H 0.28487 0.9965 0.13474 0.0
C194 C 0.34152 0.97637 0.13637 0.0
O195 O 0.3502 0.90283 0.16197 0.0
O196 O 0.31081 0.91491 0.15156 0.0
N197 N 0.30397 -5e-05 0.22006 0.0
C198 C 0.31649 0.9976 0.24281 0.0
C199 C 0.30327 0.00221 0.26572 0.0
C200 C 0.27736 0.00924 0.26502 0.0
C201 C 0.26485 0.01151 0.24139 0.0
C202 C 0.27906 0.00688 0.21917 0.0
H203 H 0.33639 0.99216 0.24351 0.0
O204 O 0.3154 0.92108 0.20517 0.0
O205 O 0.30913 0.95878 0.18715 0.0
O206 O 0.36147 0.94867 0.19715 0.0
O207 O 0.3524 0.9906 0.19878 0.0
C208 C 0.23875 0.01779 0.23904 0.0
C209 C 0.2272 0.01879 0.21467 0.0
H210 H 0.2113 0.01755 0.16476 0.0
H211 H 0.23909 0.00673 0.12781 0.0
H212 H 0.31302 0.00032 0.28389 0.0
H213 H 0.26727 0.01274 0.28275 0.0
H214 H 0.22728 0.02163 0.25583 0.0
H215 H 0.20702 0.02327 0.21315 0.0
Mn216 Mn 0.66072 0.92535 0.83319 0.0
Mn217 Mn 0.67591 0.98594 0.8169 0.0
C218 C 0.68441 0.93286 0.79707 0.0
C219 C 0.66975 0.88955 0.85786 0.0
C220 C 0.62374 0.96251 0.80754 0.0
O221 O 0.65329 0.94525 0.8652 0.0
O222 O 0.66596 0.9848 0.8539 0.0
C223 C 0.72251 0.99133 0.84863 0.0
N224 N 0.71101 0.99188 0.82524 0.0
C225 C 0.75085 0.00193 0.80447 0.0
C226 C 0.76306 0.00166 0.82836 0.0
C227 C 0.74883 0.99632 0.85053 0.0
C228 C 0.72452 0.99706 0.8038 0.0
H229 H 0.71171 0.98705 0.86571 0.0
C230 C 0.65739 0.96865 0.87031 0.0
O231 O 0.64676 0.89372 0.84934 0.0
O232 O 0.68738 0.90577 0.85147 0.0
N233 N 0.68639 0.98985 0.78199 0.0
C234 C 0.67205 0.98805 0.7603 0.0
C235 C 0.68356 0.9923 0.7364 0.0
C236 C 0.70969 -0.00163 0.73503 0.0
C237 C 0.72403 0.00029 0.7576 0.0
C238 C 0.71144 0.99618 0.78091 0.0
H239 H 0.65208 0.983 0.76119 0.0
O240 O 0.67243 0.91129 0.7999 0.0
O241 O 0.68271 0.94908 0.81586 0.0
O242 O 0.62885 0.94037 0.81646 0.0
O243 O 0.6397 0.98104 0.80699 0.0
C244 C 0.75045 0.00557 0.75786 0.0
C245 C 0.76386 0.00636 0.78127 0.0
H246 H 0.7834 0.0053 0.82988 0.0
H247 H 0.75814 0.99595 0.86902 0.0
H248 H 0.67238 0.99066 0.71905 0.0
H249 H 0.71858 0.00129 0.71654 0.0
H250 H 0.76072 0.00871 0.74013 0.0
H251 H 0.78423 0.01011 0.78119 0.0
Mn252 Mn 0.32726 0.0605 0.82674 0.0
Mn253 Mn 0.31343 -0.00117 0.81393 0.0
C254 C 0.30368 0.05084 0.79105 0.0
C255 C 0.31817 0.09737 0.84955 0.0
C256 C 0.36491 0.02289 0.80291 0.0
O257 O 0.33502 0.04257 0.85975 0.0
O258 O 0.32381 0.00207 0.85078 0.0
C259 C 0.26744 0.99365 0.84657 0.0
N260 N 0.27872 0.99202 0.82314 0.0
C261 C 0.23943 0.97793 0.80379 0.0
C262 C 0.22745 0.97924 0.82775 0.0
C263 C 0.24151 0.98719 0.84922 0.0
C264 C 0.26539 0.98436 0.80236 0.0
H265 H 0.27812 -0.00012 0.86311 0.0
C266 C 0.33179 0.01939 0.86623 0.0
O267 O 0.3411 0.09288 0.84107 0.0
O268 O 0.30051 0.08085 0.84404 0.0
N269 N 0.30265 0.99276 0.77947 0.0
C270 C 0.3164 0.99471 0.75741 0.0
C271 C 0.30483 0.98839 0.73402 0.0
C272 C 0.2793 0.98007 0.73358 0.0
C273 C 0.26548 0.97838 0.75648 0.0
C274 C 0.2781 0.98466 0.77925 0.0
H275 H 0.33595 0.00129 0.75764 0.0
O276 O 0.3155 0.0726 0.79287 0.0
O277 O 0.30542 0.0355 0.81071 0.0
O278 O 0.35937 0.04525 0.81086 0.0
O279 O 0.34933 0.00409 0.80324 0.0
C280 C 0.23951 0.97129 0.75753 0.0
C281 C 0.22649 0.9711 0.78116 0.0
H282 H 0.2074 0.97448 0.82984 0.0
H283 H 0.23236 0.98841 0.86775 0.0
H284 H 0.31552 0.98997 0.71636 0.0
H285 H 0.2704 0.97517 0.71557 0.0
H286 H 0.22925 0.96639 0.74021 0.0
H287 H 0.20641 0.96603 0.78167 0.0
Mn288 Mn 0.18556 0.66153 0.05638 0.0
Mn289 Mn 0.2059 0.67272 0.9964 0.0
C290 C 0.22027 0.68743 0.05019 0.0
C291 C 0.15603 0.6706 0.08822 0.0
C292 C 0.21561 0.62321 0.02538 0.0
O293 O 0.15704 0.6486 0.03385 0.0
O294 O 0.16876 0.66375 0.99527 0.0
C295 C 0.17615 0.71954 0.98496 0.0
N296 N 0.19914 0.70746 0.98714 0.0
C297 C 0.22184 0.74608 0.97657 0.0
C298 C 0.1984 0.75885 0.9739 0.0
C299 C 0.17546 0.74553 0.97816 0.0
C300 C 0.22133 0.72011 0.98315 0.0
H301 H 0.15849 0.70948 0.98855 0.0
C302 C 0.15256 0.65314 0.01035 0.0
O303 O 0.16736 0.64851 0.08708 0.0
O304 O 0.16236 0.68758 0.07122 0.0
N305 N 0.2413 0.68205 0.9949 0.0
C306 C 0.26231 0.66725 -0.00071 0.0
C307 C 0.2868 0.6779 0.99647 0.0
C308 C 0.28945 0.7036 0.98907 0.0
C309 C 0.26756 0.71836 0.98432 0.0
C310 C 0.24365 0.70661 0.98709 0.0
H311 H 0.26045 0.64751 0.00506 0.0
O312 O 0.21568 0.67793 0.0727 0.0
O313 O 0.20354 0.6826 0.03244 0.0
O314 O 0.20712 0.63079 0.0469 0.0
O315 O 0.21435 0.63659 0.00486 0.0
C316 C 0.26853 0.74438 0.97736 0.0
C317 C 0.24569 0.75824 0.97352 0.0
H318 H 0.19779 0.77895 0.96888 0.0
H319 H 0.1573 0.7553 0.97637 0.0
H320 H 0.30361 0.66637 0.00014 0.0
H321 H 0.30837 0.71182 0.98722 0.0
H322 H 0.28675 0.75401 0.97521 0.0
H323 H 0.24668 0.77832 0.9685 0.0
Mn324 Mn 0.16314 0.33504 0.94098 0.0
Mn325 Mn 0.17278 0.31229 0.00059 0.0
C326 C 0.19656 0.30771 0.9485 0.0
C327 C 0.14122 0.33242 0.90258 0.0
C328 C 0.18824 0.36558 0.98366 0.0
O329 O 0.13023 0.34329 0.95924 0.0
O330 O 0.13663 0.32438 0.99739 0.0
C331 C 0.13845 0.26732 -0.00152 0.0
N332 N 0.16226 0.2773 0.00198 0.0
C333 C 0.18021 0.23545 0.00881 0.0
C334 C 0.15585 0.22474 0.00544 0.0
C335 C 0.13489 0.24076 0.00026 0.0
C336 C 0.18254 0.26207 0.00708 0.0
H337 H 0.12231 0.27951 0.99428 0.0
C338 C 0.12249 0.33631 0.98123 0.0
O339 O 0.15115 0.35391 0.91013 0.0
O340 O 0.1444 0.31258 0.91716 0.0
N341 N 0.20666 0.29948 0.00612 0.0
C342 C 0.22904 0.31272 0.0079 0.0
C343 C 0.25193 0.29942 0.01249 0.0
C344 C 0.25158 0.2727 0.0153 0.0
C345 C 0.22828 0.25953 0.01374 0.0
C346 C 0.20603 0.27383 0.00943 0.0
H347 H 0.22947 0.33323 0.00561 0.0
O348 O 0.19633 0.32194 0.92813 0.0
O349 O 0.17664 0.3092 0.96338 0.0
O350 O 0.18149 0.3632 0.96036 0.0
O351 O 0.1849 0.34819 0.00057 0.0
C352 C 0.22634 0.23273 0.01579 0.0
C353 C 0.20233 0.22069 0.01332 0.0
H354 H 0.15306 0.20425 0.00659 0.0
H355 H 0.11604 0.23264 0.99754 0.0
H356 H 0.26983 0.30972 0.01368 0.0
H357 H 0.26932 0.26248 0.01853 0.0
H358 H 0.24324 0.22116 0.01897 0.0
H359 H 0.20112 0.20005 0.01466 0.0
Mn360 Mn 0.83754 0.67347 0.94291 0.0
Mn361 Mn 0.83291 0.68651 0.0058 0.0
C362 C 0.80234 0.69508 0.9578 0.0
C363 C 0.85503 0.68452 0.90364 0.0
C364 C 0.82103 0.63452 0.98296 0.0
O365 O 0.87294 0.66631 0.95631 0.0
O366 O 0.86937 0.67879 0.99725 0.0
C367 C 0.86241 0.73479 0.00645 0.0
N368 N 0.84033 0.72184 0.01127 0.0
C369 C 0.82034 0.75962 0.02823 0.0
C370 C 0.84292 0.77334 0.02362 0.0
C371 C 0.86401 0.76088 0.01259 0.0
C372 C 0.81985 0.73368 0.02164 0.0
H373 H 0.87867 0.72528 0.99797 0.0
C374 C 0.88248 0.67052 0.97826 0.0
O375 O 0.84809 0.66111 0.90836 0.0
O376 O 0.85113 0.70135 0.92141 0.0
N377 N 0.79901 0.69464 0.01692 0.0
C378 C 0.77829 0.67898 0.01904 0.0
C379 C 0.75534 0.68872 0.02903 0.0
C380 C 0.75406 0.71431 0.03711 0.0
C381 C 0.77574 0.72994 0.03503 0.0
C382 C 0.79803 0.71923 0.02479 0.0
H383 H 0.77923 0.65925 0.01302 0.0
O384 O 0.80196 0.68417 0.93551 0.0
O385 O 0.82395 0.69416 0.9702 0.0
O386 O 0.82453 0.64066 0.95958 0.0
O387 O 0.82437 0.64994 0.00166 0.0
C388 C 0.7761 0.75577 0.04261 0.0
C389 C 0.79826 0.77068 0.03899 0.0
H390 H 0.84422 0.79346 0.02836 0.0
H391 H 0.88147 0.77135 0.00887 0.0
H392 H 0.7387 0.67652 0.03058 0.0
H393 H 0.73633 0.72176 0.0448 0.0
H394 H 0.75947 0.76431 0.05135 0.0
H395 H 0.79812 0.79063 0.04457 0.0
Mn396 Mn 0.81103 0.32722 0.06612 0.0
Mn397 Mn 0.79858 0.31791 0.0036 0.0
C398 C 0.77328 0.30839 0.05443 0.0
C399 C 0.83251 0.3139 0.10259 0.0
C400 C 0.7927 0.36917 0.03001 0.0
O401 O 0.84502 0.33277 0.04907 0.0
O402 O 0.8363 0.32308 0.0081 0.0
C403 C 0.82471 0.26811 0.99713 0.0
N404 N 0.80306 0.28253 0.99566 0.0
C405 C 0.77871 0.24672 0.98019 0.0
C406 C 0.80079 0.23153 0.98133 0.0
C407 C 0.82387 0.24226 0.98992 0.0
C408 C 0.78073 0.27238 0.98757 0.0
H409 H 0.84248 0.27625 0.00379 0.0
C410 C 0.85187 0.32924 0.02604 0.0
O411 O 0.82618 0.33773 0.09937 0.0
O412 O 0.8254 0.29778 0.08512 0.0
N413 N 0.76314 0.31232 0.99638 0.0
C414 C 0.7433 0.32917 0.99774 0.0
C415 C 0.71866 0.32118 0.99064 0.0
C416 C 0.71474 0.29607 0.98196 0.0
C417 C 0.73551 0.27916 0.98048 0.0
C418 C 0.75961 0.28819 0.98783 0.0
H419 H 0.74621 0.34851 0.00436 0.0
O420 O 0.77596 0.31828 0.07707 0.0
O421 O 0.79339 0.30874 0.03968 0.0
O422 O 0.79839 0.36144 0.05245 0.0
O423 O 0.79289 0.35469 0.01031 0.0
C424 C 0.73321 0.25364 0.97225 0.0
C425 C 0.75473 0.23736 0.97227 0.0
H426 H 0.8002 0.21156 0.97585 0.0
H427 H 0.84097 0.23062 0.99099 0.0
H428 H 0.70272 0.33434 0.99186 0.0
H429 H 0.69569 0.28994 0.97661 0.0
H430 H 0.71498 0.24633 0.96588 0.0
H431 H 0.75259 0.21766 0.96626 0.0
H432 H 0.02808 0.19772 0.38317 0.0
H433 H 0.03611 0.21416 0.42632 0.0
H434 H 0.95505 0.22398 0.43785 0.0
H435 H 0.94675 0.20762 0.3951 0.0
H436 H 0.02068 0.25923 0.45735 0.0
H437 H 0.94211 0.19125 0.49253 0.0
H438 H 0.91995 0.15199 0.47857 0.0
H439 H 0.98687 0.12846 0.43718 0.0
H440 H 0.00953 0.16733 0.45125 0.0
H441 H 0.98708 0.22317 0.60064 0.0
H442 H 0.97588 0.23153 0.55609 0.0
H443 H 0.05585 0.23217 0.53584 0.0
H444 H 0.06733 0.22397 0.58029 0.0
H445 H 0.98769 0.19628 0.52042 0.0
H446 H 0.06376 0.26773 0.48085 0.0
H447 H 0.08592 0.30695 0.49476 0.0
H448 H 0.0244 0.3239 0.54645 0.0
H449 H 0.00169 0.28503 0.53259 0.0
C450 C 0.01201 0.20385 0.3947 0.0
C451 C 0.98675 0.20072 0.38597 0.0
C452 C 0.01665 0.21345 0.41922 0.0
C453 C 0.99612 0.21997 0.43518 0.0
C454 C 0.97109 0.21885 0.42576 0.0
C455 C 0.96642 0.20926 0.4014 0.0
C456 C 0.00031 0.22388 0.46276 0.0
C457 C 0.01369 0.24548 0.47125 0.0
C458 C 0.99058 0.20613 0.48069 0.0
C459 C 0.97736 0.18235 0.47268 0.0
C460 C 0.9521 0.17763 0.48054 0.0
C461 C 0.93946 0.15545 0.4726 0.0
C462 C 0.95196 0.13779 0.45691 0.0
C463 C 0.97717 0.1422 0.44924 0.0
C464 C 0.98991 0.16431 0.45717 0.0
C465 C 0.00235 0.22564 0.58685 0.0
C466 C 0.02809 0.22237 0.59394 0.0
C467 C 0.99588 0.2305 0.56142 0.0
C468 C 0.01504 0.23243 0.54274 0.0
C469 C 0.0408 0.23102 0.55004 0.0
C470 C 0.04729 0.22607 0.57544 0.0
C471 C 0.0082 0.23171 0.51536 0.0
C472 C 0.99439 0.21042 0.50675 0.0
C473 C 0.01765 0.24974 0.4975 0.0
C474 C 0.03113 0.27329 0.50582 0.0
C475 C 0.0549 0.27987 0.49511 0.0
C476 C 0.06757 0.30204 0.503 0.0
C477 C 0.05662 0.31786 0.52153 0.0
C478 C 0.03293 0.31158 0.53217 0.0
C479 C 0.02017 0.28944 0.52434 0.0
H480 H 0.06645 0.33502 0.52761 0.0
H481 H 0.94213 0.12066 0.45075 0.0
H482 H 0.96883 0.77489 0.3826 0.0
H483 H 0.96372 0.77197 0.42888 0.0
H484 H 0.0456 0.77347 0.43844 0.0
H485 H 0.05107 0.7762 0.39217 0.0
H486 H 0.01879 0.74342 0.47635 0.0
H487 H 0.0187 0.82752 0.43766 0.0
H488 H 0.00406 0.85845 0.40509 0.0
H489 H 0.92712 0.85197 0.433 0.0
H490 H 0.94122 0.82057 0.4654 0.0
H491 H 0.02331 0.8049 0.59919 0.0
H492 H 0.03021 0.79232 0.55461 0.0
H493 H 0.94929 0.79917 0.53999 0.0
H494 H 0.9422 0.81201 0.58408 0.0
H495 H 0.97686 0.82382 0.50458 0.0
H496 H 0.97744 0.74107 0.54502 0.0
H497 H 0.99193 0.70864 0.57611 0.0
H498 H 0.06793 0.71238 0.54523 0.0
H499 H 0.05398 0.74514 0.51418 0.0
C500 C 0.98581 0.77391 0.39442 0.0
C501 C 0.01034 0.77653 0.38372 0.0
C502 C 0.98283 0.77213 0.42087 0.0
C503 C 0.00429 0.77302 0.43694 0.0
C504 C 0.02884 0.77286 0.42626 0.0
C505 C 0.03188 0.77463 0.3998 0.0
C506 C 0.00104 0.77861 0.46438 0.0
C507 C 0.00981 0.76103 0.48265 0.0
C508 C 0.98928 0.80162 0.47235 0.0
C509 C 0.98097 0.82148 0.45376 0.0
C510 C -0.00136 0.8326 0.43677 0.0
C511 C 0.99044 0.85017 0.41832 0.0
C512 C 0.96465 0.85701 0.41687 0.0
C513 C 0.94706 0.84654 0.43407 0.0
C514 C 0.95515 0.82886 0.45249 0.0
C515 C 0.00698 0.80363 0.58651 0.0
C516 C 0.98223 0.80964 0.59521 0.0
C517 C 0.01094 0.79631 0.5611 0.0
C518 C 0.99022 0.79473 0.54409 0.0
C519 C 0.96553 0.80035 0.55282 0.0
C520 C 0.96155 0.80768 0.57809 0.0
C521 C 0.99417 0.7884 0.51683 0.0
C522 C 0.98574 0.80609 0.49846 0.0
C523 C 0.00632 0.76554 0.50889 0.0
C524 C 0.01472 0.74576 0.52745 0.0
C525 C 0.99729 0.73514 0.545 0.0
C526 C 0.0054 0.71667 0.56259 0.0
C527 C 0.03085 0.70851 0.56269 0.0
C528 C 0.04823 0.71875 0.54515 0.0
C529 C 0.04023 0.73726 0.52754 0.0
H530 H 0.03709 0.69421 0.57633 0.0
H531 H 0.95831 0.87049 0.40246 0.0
H532 H 0.39209 0.01693 0.20997 0.0
H533 H 0.43685 0.02239 0.22237 0.0
H534 H 0.4429 0.9415 0.23748 0.0
H535 H 0.39838 0.93575 0.22499 0.0
H536 H 0.47023 0.01012 0.26374 0.0
H537 H 0.49596 0.9213 0.20529 0.0
H538 H 0.47762 0.89402 0.1714 0.0
H539 H 0.43564 0.9582 0.14182 0.0
H540 H 0.45403 0.98588 0.17527 0.0
H541 H 0.60969 0.97626 0.21421 0.0
H542 H 0.56688 0.96313 0.22784 0.0
H543 H 0.54106 0.04134 0.22229 0.0
H544 H 0.58351 0.05467 0.20907 0.0
H545 H 0.52506 0.96723 0.19917 0.0
H546 H 0.49326 0.05333 0.26286 0.0
H547 H 0.51194 0.08159 0.29563 0.0
H548 H 0.56776 0.02419 0.31405 0.0
H549 H 0.54921 0.99541 0.28168 0.0
C550 C 0.40275 0.0004 0.21653 0.0
C551 C 0.39192 0.97582 0.21585 0.0
C552 C 0.42826 0.00359 0.22375 0.0
C553 C 0.44315 0.98226 0.23039 0.0
C554 C 0.43171 0.95811 0.2321 0.0
C555 C 0.40631 0.95488 0.22479 0.0
C556 C 0.47122 0.98464 0.23146 0.0
C557 C 0.48234 0.00079 0.24971 0.0
C558 C 0.48689 0.97186 0.21349 0.0
C559 C 0.4761 0.95553 0.19298 0.0
C560 C 0.48287 0.92957 0.19149 0.0
C561 C 0.47248 0.91405 0.17237 0.0
C562 C 0.45539 0.92435 0.15453 0.0
C563 C 0.44879 0.95022 0.1557 0.0
C564 C 0.45918 0.96582 0.17475 0.0
C565 C 0.59497 0.99071 0.21619 0.0
C566 C 0.59998 0.01648 0.21028 0.0
C567 C 0.57058 0.98318 0.22407 0.0
C568 C 0.55093 0.00131 0.22638 0.0
C569 C 0.55608 0.0271 0.22118 0.0
C570 C 0.58036 0.03464 0.21332 0.0
C571 C 0.52429 0.99321 0.23115 0.0
C572 C 0.51327 0.97602 0.21381 0.0
C573 C 0.50882 0.00515 0.2499 0.0
C574 C 0.51989 0.02225 0.2697 0.0
C575 C 0.50941 0.04665 0.27401 0.0
C576 C 0.52001 0.06278 0.29249 0.0
C577 C 0.54105 0.05471 0.30688 0.0
C578 C 0.55151 0.03045 0.30284 0.0
C579 C 0.54098 0.01424 0.28439 0.0
H580 H 0.54924 0.06724 0.32117 0.0
H581 H 0.44733 0.91229 0.13977 0.0
H582 H 0.57985 0.94181 0.82575 0.0
H583 H 0.53629 0.95174 0.81283 0.0
H584 H 0.56498 0.00271 0.75435 0.0
H585 H 0.60864 0.99435 0.76881 0.0
H586 H 0.5292 0.02488 0.77382 0.0
H587 H 0.53357 0.94226 0.74066 0.0
H588 H 0.54323 0.89619 0.73805 0.0
H589 H 0.49046 0.88115 0.79918 0.0
H590 H 0.48075 0.92717 0.80244 0.0
H591 H 0.38088 0.99013 0.76542 0.0
H592 H 0.42496 0.98135 0.7524 0.0
H593 H 0.45207 0.03448 0.80956 0.0
H594 H 0.4082 0.04467 0.82105 0.0
H595 H 0.46019 0.9599 0.77404 0.0
H596 H 0.50771 0.05882 0.79981 0.0
H597 H 0.49813 0.10463 0.79407 0.0
H598 H 0.44747 0.08687 0.73194 0.0
H599 H 0.45701 0.04097 0.73702 0.0
C600 C 0.57686 0.95493 0.80997 0.0
C601 C 0.59759 0.96722 0.7982 0.0
C602 C 0.55191 0.96042 0.80236 0.0
C603 C 0.5472 0.97753 0.78212 0.0
C604 C 0.56803 0.98939 0.76995 0.0
C605 C 0.59299 0.98455 0.77816 0.0
C606 C 0.52048 0.98459 0.77543 0.0
C607 C 0.51415 0.01063 0.7735 0.0
C608 C 0.50082 0.96606 0.77366 0.0
C609 C 0.50648 0.93825 0.77182 0.0
C610 C 0.52412 0.92916 0.75365 0.0
C611 C 0.5296 0.90304 0.75205 0.0
C612 C 0.51748 0.88576 0.76845 0.0
C613 C 0.49982 0.89456 0.78647 0.0
C614 C 0.49428 0.92067 0.78816 0.0
C615 C 0.39631 0.00029 0.77476 0.0
C616 C 0.3912 0.01824 0.79406 0.0
C617 C 0.42149 0.99523 0.76737 0.0
C618 C 0.44199 0.00756 0.77962 0.0
C619 C 0.43673 0.02541 0.79902 0.0
C620 C 0.41161 0.03105 0.80581 0.0
C621 C 0.46888 0.00023 0.77408 0.0
C622 C 0.47525 0.97413 0.77361 0.0
C623 C 0.48861 0.01868 0.77219 0.0
C624 C 0.48303 0.04638 0.76887 0.0
C625 C 0.49468 0.06467 0.78478 0.0
C626 C 0.48921 0.09067 0.78168 0.0
C627 C 0.47218 0.09865 0.76268 0.0
C628 C 0.46061 0.08066 0.7467 0.0
C629 C 0.46602 0.05464 0.7497 0.0
H630 H 0.46796 0.11879 0.76033 0.0
H631 H 0.52175 0.86554 0.76718 0.0
H632 H 0.20478 0.37984 0.03145 0.0
H633 H 0.22251 0.42129 0.044 0.0
H634 H 0.21727 0.44741 0.96585 0.0
H635 H 0.19996 0.40625 0.95305 0.0
H636 H 0.2607 0.46492 0.98897 0.0
H637 H 0.16934 0.45905 0.00723 0.0
H638 H 0.13144 0.43995 0.02785 0.0
H639 H 0.16476 0.45261 0.10186 0.0
H640 H 0.20303 0.47149 0.08161 0.0
H641 H 0.22473 0.59438 0.98263 0.0
H642 H 0.23389 0.54865 0.98128 0.0
H643 H 0.23898 0.54681 0.06367 0.0
H644 H 0.22947 0.59242 0.06526 0.0
H645 H 0.20435 0.51443 0.04702 0.0
H646 H 0.29095 0.53131 0.02712 0.0
H647 H 0.32741 0.55166 0.00524 0.0
H648 H 0.3029 0.51984 0.93364 0.0
H649 H 0.26604 0.4996 0.95498 0.0
C650 C 0.20763 0.39432 0.01689 0.0
C651 C 0.20051 0.38986 0.99132 0.0
C652 C 0.21786 0.41792 0.02409 0.0
C653 C 0.22099 0.43741 0.00586 0.0
C654 C 0.21508 0.43257 0.98018 0.0
C655 C 0.20492 0.40907 0.97297 0.0
C656 C 0.2277 0.46371 0.01358 0.0
C657 C 0.24852 0.47583 0.00173 0.0
C658 C 0.21214 0.47762 0.03076 0.0
C659 C 0.18915 0.46634 0.04292 0.0
C660 C 0.16865 0.45756 0.02789 0.0
C661 C 0.1471 0.44681 0.0395 0.0
C662 C 0.14573 0.44498 0.06615 0.0
C663 C 0.16588 0.45397 0.08123 0.0
C664 C 0.1875 0.46469 0.0697 0.0
C665 C 0.22841 0.5844 0.00043 0.0
C666 C 0.22583 0.59691 0.02406 0.0
C667 C 0.23385 0.55826 -0.00037 0.0
C668 C 0.23712 0.54434 0.0224 0.0
C669 C 0.23645 0.55721 0.0459 0.0
C670 C 0.23089 0.58326 0.04673 0.0
C671 C 0.23698 0.51607 0.0218 0.0
C672 C 0.21722 0.50351 0.03493 0.0
C673 C 0.25344 0.50192 0.00568 0.0
C674 C 0.27562 0.51401 0.99268 0.0
C675 C 0.29321 0.52879 0.00667 0.0
C676 C 0.31398 0.54029 0.99437 0.0
C677 C 0.31746 0.53707 0.96806 0.0
C678 C 0.30019 0.52231 0.95402 0.0
C679 C 0.27937 0.51078 0.96623 0.0
H680 H 0.33355 0.54599 0.95857 0.0
H681 H 0.12903 0.43667 0.07511 0.0
H682 H 0.80561 0.59743 0.94936 0.0
H683 H 0.79402 0.55325 0.95922 0.0
H684 H 0.80635 0.56754 0.03954 0.0
H685 H 0.81799 0.61172 0.02998 0.0
H686 H 0.83165 0.52488 0.02189 0.0
H687 H 0.74729 0.56045 0.01863 0.0
H688 H 0.71156 0.58477 -0.00028 0.0
H689 H 0.70918 0.53281 0.93622 0.0
H690 H 0.74519 0.50838 0.95455 0.0
H691 H 0.79109 0.40645 0.06664 0.0
H692 H 0.78834 0.45248 0.05987 0.0
H693 H 0.77902 0.44052 0.97879 0.0
H694 H 0.78153 0.39429 0.98527 0.0
H695 H 0.75014 0.4824 0.9981 0.0
H696 H 0.83574 0.449 -0.00093 0.0
H697 H 0.87098 0.42364 0.01741 0.0
H698 H 0.87182 0.47197 0.08379 0.0
H699 H 0.83596 0.49717 0.06615 0.0
C700 C 0.80573 0.59125 0.96915 0.0
C701 C 0.81289 0.60809 0.98887 0.0
C702 C 0.79893 0.56605 0.97474 0.0
C703 C 0.7992 0.55727 0.0001 0.0
C704 C 0.80599 0.57405 0.01985 0.0
C705 C 0.81263 0.59929 0.01432 0.0
C706 C 0.79403 0.53012 0.00586 0.0
C707 C 0.81366 0.51571 0.01712 0.0
C708 C 0.77081 0.51811 -0.00109 0.0
C709 C 0.74911 0.53272 0.98785 0.0
C710 C 0.73931 0.55434 0.00051 0.0
C711 C 0.71897 0.56812 0.98992 0.0
C712 C 0.70815 0.56038 0.96675 0.0
C713 C 0.71761 0.5388 0.95415 0.0
C714 C 0.73797 0.52496 0.96465 0.0
C715 C 0.788 0.41348 0.04739 0.0
C716 C 0.78711 0.39667 0.02641 0.0
C717 C 0.78634 0.43981 0.0436 0.0
C718 C 0.78388 0.44978 0.01881 0.0
C719 C 0.78098 0.43309 0.99806 0.0
C720 C 0.78262 0.4067 0.00181 0.0
C721 C 0.78768 0.47737 0.01427 0.0
C722 C 0.76798 0.49174 0.0031 0.0
C723 C 0.81092 0.48941 0.02109 0.0
C724 C 0.83297 0.47478 0.03143 0.0
C725 C 0.8433 0.4541 0.01767 0.0
C726 C 0.86339 0.43975 0.02794 0.0
C727 C 0.87364 0.44617 0.05177 0.0
C728 C 0.86383 0.46699 0.06535 0.0
C729 C 0.84359 0.48129 0.05525 0.0
H730 H 0.88921 0.43504 0.05969 0.0
H731 H 0.6924 0.57107 0.95858 0.0
H732 H 0.09979 0.11154 0.68032 0.0
H733 H 0.13306 0.08125 0.69318 0.0
H734 H 0.19026 0.12875 0.65746 0.0
H735 H 0.15666 0.1586 0.64334 0.0
H736 H 0.20275 0.07497 0.65766 0.0
H737 H 0.17581 0.14188 0.71709 0.0
H738 H 0.1424 0.16586 0.74025 0.0
H739 H 0.11658 0.09638 0.77572 0.0
H740 H 0.14971 0.07198 0.75255 0.0
H741 H 0.30899 0.06367 0.74122 0.0
H742 H 0.27454 0.0706 0.71063 0.0
H743 H 0.22067 0.03819 0.76435 0.0
H744 H 0.25461 0.03498 0.79608 0.0
H745 H 0.20407 0.07953 0.75243 0.0
H746 H 0.23568 0.01255 0.69763 0.0
H747 H 0.2671 0.98815 0.67211 0.0
H748 H 0.28399 0.05516 0.6278 0.0
H749 H 0.25251 0.0799 0.65271 0.0
C750 C 0.1194 0.1151 0.6746 0.0
C751 C 0.12595 0.13749 0.66135 0.0
C752 C 0.13829 0.09776 0.68181 0.0
C753 C 0.16407 0.1031 0.67674 0.0
C754 C 0.17043 0.12435 0.66155 0.0
C755 C 0.15134 0.14143 0.65368 0.0
C756 C 0.18414 0.08947 0.69132 0.0
C757 C 0.20324 0.07584 0.67839 0.0
C758 C 0.18433 0.09032 0.71833 0.0
C759 C 0.16512 0.10513 0.73304 0.0
C760 C 0.16299 0.13175 0.72984 0.0
C761 C 0.1441 0.1454 0.74293 0.0
C762 C 0.12736 0.13265 0.75943 0.0
C763 C 0.12957 0.10623 0.76296 0.0
C764 C 0.14842 0.09249 0.74989 0.0
C765 C 0.28986 0.05738 0.74611 0.0
C766 C 0.28456 0.04789 0.77066 0.0
C767 C 0.27014 0.06101 0.72845 0.0
C768 C 0.24482 0.0546 0.73483 0.0
C769 C 0.23997 0.04328 0.75879 0.0
C770 C 0.25948 0.04084 0.77683 0.0
C771 C 0.2231 0.06419 0.71904 0.0
C772 C 0.20362 0.07766 0.73177 0.0
C773 C 0.22266 0.06293 0.69191 0.0
C774 C 0.24182 0.04811 0.67714 0.0
C775 C 0.2462 0.02212 0.68255 0.0
C776 C 0.26399 0.00822 0.66817 0.0
C777 C 0.27764 0.02014 0.64853 0.0
C778 C 0.27342 0.04595 0.64305 0.0
C779 C 0.25552 0.05988 0.65718 0.0
H780 H 0.29143 0.00934 0.63749 0.0
H781 H 0.1127 0.14324 0.7695 0.0
H782 H 0.6775 0.92661 0.74601 0.0
H783 H 0.7111 0.9241 0.71324 0.0
H784 H 0.7682 0.93905 0.771 0.0
H785 H 0.73467 0.94187 0.80347 0.0
H786 H 0.78098 0.96153 0.72571 0.0
H787 H 0.75118 0.87838 0.75634 0.0
H788 H 0.71827 0.84537 0.76372 0.0
H789 H 0.70195 0.84325 0.68321 0.0
H790 H 0.73459 0.87649 0.67544 0.0
H791 H 0.89003 0.88601 0.71249 0.0
H792 H 0.85022 0.90792 0.72299 0.0
H793 H 0.81923 0.88777 0.64921 0.0
H794 H 0.85929 0.86583 0.63843 0.0
H795 H 0.78838 0.87399 0.68985 0.0
H796 H 0.83002 0.94838 0.66022 0.0
H797 H 0.86529 0.97923 0.65527 0.0
H798 H 0.86156 0.99692 0.73538 0.0
H799 H 0.8266 0.96581 0.74097 0.0
C800 C 0.69722 0.92997 0.7514 0.0
C801 C 0.70366 0.93507 0.77692 0.0
C802 C 0.71632 0.92857 0.73279 0.0
C803 C 0.74211 0.93135 0.73974 0.0
C804 C 0.7484 0.93717 0.76518 0.0
C805 C 0.72931 0.93876 0.78369 0.0
C806 C 0.76285 0.92479 0.72171 0.0
C807 C 0.78262 0.94247 0.71769 0.0
C808 C 0.76455 0.90013 0.71071 0.0
C809 C 0.74503 0.88011 0.71536 0.0
C810 C 0.74043 0.87098 0.74025 0.0
C811 C 0.72186 0.85223 0.7445 0.0
C812 C 0.70796 0.84229 0.72395 0.0
C813 C 0.71268 0.85102 0.69911 0.0
C814 C 0.7312 0.86981 0.69477 0.0
C815 C 0.87485 0.88642 0.69839 0.0
C816 C 0.87764 0.87406 0.67473 0.0
C817 C 0.85222 0.89917 0.70431 0.0
C818 C 0.83196 0.89971 0.68672 0.0
C819 C 0.83479 0.88773 0.6629 0.0
C820 C 0.8576 0.87518 0.65683 0.0
C821 C 0.80706 0.91037 0.6947 0.0
C822 C 0.78645 0.8934 0.69693 0.0
C823 C 0.80483 0.93557 0.70427 0.0
C824 C 0.8257 0.95461 0.70103 0.0
C825 C 0.83682 0.9587 0.67684 0.0
C826 C 0.85676 0.97626 0.67391 0.0
C827 C 0.86567 0.99001 0.695 0.0
C828 C 0.85462 0.98626 0.71905 0.0
C829 C 0.83471 0.96868 0.72211 0.0
H830 H 0.88112 0.00359 0.69269 0.0
H831 H 0.6936 0.82777 0.72727 0.0
H832 H 0.25629 0.95515 0.18913 0.0
H833 H 0.2163 0.94701 0.21171 0.0
H834 H 0.25883 0.92334 0.27846 0.0
H835 H 0.29889 0.93301 0.25624 0.0
H836 H 0.20882 0.89848 0.22243 0.0
H837 H 0.22073 0.91935 0.32977 0.0
H838 H 0.23734 0.95297 0.35838 0.0
H839 H 0.22207 0.00985 0.30111 0.0
H840 H 0.20576 0.97652 0.27193 0.0
H841 H 0.12989 0.83568 0.33094 0.0
H842 H 0.16631 0.8624 0.31808 0.0
H843 H 0.12418 0.88797 0.2518 0.0
H844 H 0.08828 0.86098 0.26403 0.0
H845 H 0.17351 0.91349 0.3092 0.0
H846 H 0.16269 0.89075 0.20112 0.0
H847 H 0.14706 0.85583 0.17354 0.0
H848 H 0.16217 0.80136 0.23323 0.0
H849 H 0.17822 0.83589 0.26102 0.0
C850 C 0.25703 0.94983 0.20916 0.0
C851 C 0.28052 0.94531 0.22125 0.0
C852 C 0.23419 0.94489 0.22197 0.0
C853 C 0.23455 0.9345 0.24675 0.0
C854 C 0.25803 0.93176 0.25953 0.0
C855 C 0.2809 0.9371 0.2468 0.0
C856 C 0.2115 0.92138 0.25664 0.0
C857 C 0.20074 0.90228 0.24118 0.0
C858 C 0.20184 0.92531 0.28159 0.0
C859 C 0.21219 0.94542 0.29864 0.0
C860 C 0.221 0.93903 0.32325 0.0
C861 C 0.23045 0.95801 0.33951 0.0
C862 C 0.23092 0.9835 0.33147 0.0
C863 C 0.22196 0.99005 0.30714 0.0
C864 C 0.21276 0.97111 0.29068 0.0
C865 C 0.12848 0.84701 0.31363 0.0
C866 C 0.10648 0.84592 0.29823 0.0
C867 C 0.14918 0.86237 0.30643 0.0
C868 C 0.14803 0.87686 0.28383 0.0
C869 C 0.12563 0.87656 0.26907 0.0
C870 C 0.10516 0.86106 0.27605 0.0
C871 C 0.1706 0.89122 0.27467 0.0
C872 C 0.18144 0.91013 0.29032 0.0
C873 C 0.18068 0.88696 0.24994 0.0
C874 C 0.1714 0.86596 0.23323 0.0
C875 C 0.16277 0.87131 0.20832 0.0
C876 C 0.15382 0.85158 0.19266 0.0
C877 C 0.15354 0.82641 0.20166 0.0
C878 C 0.1623 0.82088 0.22631 0.0
C879 C 0.1713 0.84053 0.24204 0.0
H880 H 0.14658 0.81117 0.18952 0.0
H881 H 0.23813 -0.00181 0.34413 0.0
H882 H 0.67611 0.0616 0.26637 0.0
H883 H 0.7104 0.06498 0.29848 0.0
H884 H 0.76678 0.05931 0.23842 0.0
H885 H 0.73275 0.05631 0.20662 0.0
H886 H 0.78139 0.03334 0.28306 0.0
H887 H 0.74584 0.11649 0.25595 0.0
H888 H 0.71031 0.1473 0.25174 0.0
H889 H 0.69784 0.14446 0.33292 0.0
H890 H 0.73316 0.11337 0.33752 0.0
H891 H 0.887 0.1116 0.28416 0.0
H892 H 0.84714 0.08819 0.27908 0.0
H893 H 0.82287 0.1123 0.3542 0.0
H894 H 0.86296 0.13611 0.3594 0.0
H895 H 0.78692 0.12115 0.31853 0.0
H896 H 0.83543 0.04989 0.34425 0.0
H897 H 0.87243 0.02074 0.34631 0.0
H898 H 0.86187 0.0011 0.26729 0.0
H899 H 0.82511 0.03047 0.26455 0.0
C900 C 0.69589 0.06048 0.2603 0.0
C901 C 0.70203 0.05794 0.23431 0.0
C902 C 0.71535 0.06231 0.27854 0.0
C903 C 0.74106 0.06218 0.27078 0.0
C904 C 0.74707 0.05898 0.24483 0.0
C905 C 0.72769 0.05725 0.2267 0.0
C906 C 0.76181 0.06909 0.28857 0.0
C907 C 0.78263 0.05239 0.29114 0.0
C908 C 0.7629 0.09366 0.29978 0.0
C909 C 0.74185 0.11241 0.29703 0.0
C910 C 0.73539 0.12233 0.27286 0.0
C911 C 0.71532 0.13984 0.27041 0.0
C912 C 0.70177 0.14776 0.29204 0.0
C913 C 0.70831 0.13824 0.31618 0.0
C914 C 0.72834 0.12068 0.31872 0.0
C915 C 0.8733 0.11181 0.29971 0.0
C916 C 0.87801 0.12581 0.32211 0.0
C917 C 0.85064 0.09816 0.29691 0.0
C918 C 0.83227 0.09812 0.31648 0.0
C919 C 0.83697 0.11188 0.33902 0.0
C920 C 0.85978 0.12553 0.34189 0.0
C921 C 0.80723 0.0859 0.31179 0.0
C922 C 0.7855 0.10163 0.31165 0.0
C923 C 0.80545 0.06047 0.30271 0.0
C924 C 0.82746 0.0425 0.30421 0.0
C925 C 0.84107 0.03949 0.32725 0.0
C926 C 0.86201 0.0229 0.32854 0.0
C927 C 0.8695 0.00908 0.30694 0.0
C928 C 0.85603 0.0118 0.28401 0.0
C929 C 0.83509 0.02839 0.2826 0.0
H930 H 0.88573 0.99627 0.30798 0.0
H931 H 0.68624 0.16133 0.29011 0.0
H932 H 0.70498 0.13448 0.15133 0.0
H933 H 0.71003 0.17378 0.12659 0.0
H934 H 0.62944 0.17367 0.10899 0.0
H935 H 0.62408 0.13428 0.1342 0.0
H936 H 0.66559 0.18174 0.06536 0.0
H937 H 0.64309 0.21574 0.14692 0.0
H938 H 0.64472 0.21882 0.19396 0.0
H939 H 0.72434 0.23855 0.19033 0.0
H940 H 0.7233 0.23521 0.14328 0.0
H941 H 0.72398 0.32215 0.06125 0.0
H942 H 0.68839 0.2926 0.06853 0.0
H943 H 0.73643 0.22942 0.04605 0.0
H944 H 0.77214 0.25878 0.03968 0.0
H945 H 0.69975 0.25952 0.10745 0.0
H946 H 0.69795 0.17927 0.02924 0.0
H947 H 0.6935 0.1753 0.98245 0.0
H948 H 0.65899 0.24976 0.97886 0.0
H949 H 0.6632 0.2542 0.02561 0.0
C950 C 0.68829 0.14285 0.14231 0.0
C951 C 0.66413 0.13143 0.14474 0.0
C952 C 0.6912 0.16527 0.12821 0.0
C953 C 0.67008 0.17652 0.11609 0.0
C954 C 0.64591 0.16516 0.11827 0.0
C955 C 0.64289 0.14284 0.13276 0.0
C956 C 0.67385 0.20019 0.1012 0.0
C957 C 0.67275 0.19896 0.07442 0.0
C958 C 0.68242 0.22275 0.11324 0.0
C959 C 0.68311 0.22515 0.14155 0.0
C960 C 0.66098 0.2206 0.15615 0.0
C961 C 0.6618 0.22241 0.18283 0.0
C962 C 0.68462 0.22886 0.19513 0.0
C963 C 0.70667 0.23358 0.18077 0.0
C964 C 0.70596 0.23177 0.15409 0.0
C965 C 0.72648 0.30208 0.05671 0.0
C966 C 0.75057 0.29269 0.04955 0.0
C967 C 0.70615 0.28527 0.06077 0.0
C968 C 0.70976 0.25885 0.0578 0.0
C969 C 0.73308 0.24978 0.04802 0.0
C970 C 0.7535 0.26657 0.04428 0.0
C971 C 0.69282 0.24074 0.07139 0.0
C972 C 0.69174 0.2428 0.09815 0.0
C973 C 0.68219 0.21908 0.05926 0.0
C974 C 0.6809 0.21705 0.03098 0.0
C975 C 0.68939 0.19479 0.01848 0.0
C976 C 0.68691 0.19246 0.99196 0.0
C977 C 0.67578 0.21217 0.97772 0.0
C978 C 0.66747 0.23444 0.98993 0.0
C979 C 0.67009 0.23695 0.01642 0.0
H980 H 0.67379 0.21029 0.9572 0.0
H981 H 0.68522 0.23024 0.21578 0.0
H982 H 0.27088 0.68088 0.05865 0.0
H983 H 0.30284 0.71486 0.06342 0.0
H984 H 0.24578 0.77109 0.04321 0.0
H985 H 0.21422 0.73705 0.0376 0.0
H986 H 0.29291 0.78724 0.02901 0.0
H987 H 0.25215 0.75106 0.10484 0.0
H988 H 0.24093 0.71564 0.13399 0.0
H989 H 0.32062 0.69974 0.14606 0.0
H990 H 0.33227 0.7349 0.11668 0.0
H991 H 0.29156 0.88972 0.11453 0.0
H992 H 0.28627 0.85235 0.08724 0.0
H993 H 0.35665 0.8206 0.11648 0.0
H994 H 0.36212 0.85813 0.14401 0.0
H995 H 0.3162 0.78836 0.12108 0.0
H996 H 0.35382 0.83708 0.05476 0.0
H997 H 0.36115 0.87506 0.02776 0.0
H998 H 0.28424 0.87041 -0.00063 0.0
H999 H 0.27625 0.83268 0.02653 0.0
C1000 C 0.26558 0.70045 0.05435 0.0
C1001 C 0.24042 0.70655 0.04745 0.0
C1002 C 0.28376 0.71978 0.05702 0.0
C1003 C 0.27655 0.7455 0.05405 0.0
C1004 C 0.25178 0.75138 0.04548 0.0
C1005 C 0.23376 0.73201 0.04237 0.0
C1006 C 0.29268 0.76623 0.06446 0.0
C1007 C 0.29823 0.78753 0.04908 0.0
C1008 C 0.30002 0.76629 0.09055 0.0
C1009 C 0.29306 0.74533 0.10836 0.0
C1010 C 0.26726 0.7399 0.11361 0.0
C1011 C 0.26082 0.71989 0.13016 0.0
C1012 C 0.28005 0.70539 0.1418 0.0
C1013 C 0.30575 0.71094 0.13697 0.0
C1014 C 0.31229 0.73089 0.12037 0.0
C1015 C 0.30607 0.87492 0.11499 0.0
C1016 C 0.3271 0.87666 0.1316 0.0
C1017 C 0.30318 0.85373 0.09914 0.0
C1018 C 0.32126 0.83391 0.0996 0.0
C1019 C 0.34264 0.83586 0.1157 0.0
C1020 C 0.34565 0.85721 0.13147 0.0
C1021 C 0.31571 0.80986 0.0859 0.0
C1022 C 0.31197 0.78787 0.10075 0.0
C1023 C 0.30965 0.80949 0.05951 0.0
C1024 C 0.31441 0.83203 0.0428 0.0
C1025 C 0.3384 0.84423 0.04289 0.0
C1026 C 0.34268 0.86572 0.02753 0.0
C1027 C 0.32317 0.87515 0.01188 0.0
C1028 C 0.29935 0.86307 0.0115 0.0
C1029 C 0.29495 0.84159 0.02684 0.0
H1030 H 0.32652 0.89181 2e-05 0.0
H1031 H 0.27504 0.68991 0.15462 0.0
H1032 H 0.80428 0.74537 0.97019 0.0
H1033 H 0.76869 0.7755 0.96734 0.0
H1034 H 0.71661 0.71283 0.95454 0.0
H1035 H 0.75225 0.68263 0.95798 0.0
H1036 H 0.72002 0.74362 0.91397 0.0
H1037 H 0.69965 0.75541 0.00062 0.0
H1038 H 0.70287 0.76318 0.04701 0.0
H1039 H 0.7401 0.83497 0.03277 0.0
H1040 H 0.73695 0.82773 0.98626 0.0
H1041 H 0.64116 0.84652 0.86705 0.0
H1042 H 0.65271 0.81021 0.8947 0.0
H1043 H 0.72305 0.84813 0.91511 0.0
H1044 H 0.71189 0.88404 0.88752 0.0
H1045 H 0.69747 0.82489 0.95724 0.0
H1046 H 0.72489 0.8059 0.86967 0.0
H1047 H 0.71707 0.79908 0.82363 0.0
H1048 H 0.66392 0.739 0.84128 0.0
H1049 H 0.67122 0.74572 0.88747 0.0
C1050 C 0.78502 0.73797 0.96838 0.0
C1051 C 0.78083 0.71175 0.96473 0.0
C1052 C 0.76464 0.75519 0.96667 0.0
C1053 C 0.73995 0.74641 0.96067 0.0
C1054 C 0.73545 0.71999 0.95931 0.0
C1055 C 0.75579 0.70279 0.96123 0.0
C1056 C 0.72123 0.76456 0.94953 0.0
C1057 C 0.71436 0.76101 0.92378 0.0
C1058 C 0.71415 0.78741 0.96207 0.0
C1059 C 0.71809 0.79099 0.98994 0.0
C1060 C 0.70876 0.77274 0.00737 0.0
C1061 C 0.71032 0.77718 0.03368 0.0
C1062 C 0.72147 0.79967 0.04282 0.0
C1063 C 0.7313 0.81765 0.02566 0.0
C1064 C 0.72954 0.81343 -0.00069 0.0
C1065 C 0.65899 0.8471 0.87758 0.0
C1066 C 0.67576 0.86793 0.87496 0.0
C1067 C 0.6655 0.82645 0.89337 0.0
C1068 C 0.68869 0.82661 0.90693 0.0
C1069 C 0.705 0.84776 0.90492 0.0
C1070 C 0.6987 0.86814 0.88895 0.0
C1071 C 0.6973 0.80412 0.92174 0.0
C1072 C 0.70241 0.80703 0.94792 0.0
C1073 C 0.70268 0.78057 0.90969 0.0
C1074 C 0.69831 0.77655 0.88197 0.0
C1075 C 0.71136 0.79141 0.86372 0.0
C1076 C 0.70706 0.78753 0.83761 0.0
C1077 C 0.68993 0.76869 0.82954 0.0
C1078 C 0.67713 0.75364 0.84756 0.0
C1079 C 0.68134 0.75747 0.8737 0.0
H1080 H 0.68663 0.7657 0.80932 0.0
H1081 H 0.72271 0.80304 0.06321 0.0
H1082 H 0.34864 0.13883 0.85928 0.0
H1083 H 0.33825 0.17594 0.88609 0.0
H1084 H 0.26472 0.14279 0.90347 0.0
H1085 H 0.27484 0.10596 0.87684 0.0
H1086 H 0.29849 0.20897 0.8781 0.0
H1087 H 0.2473 0.15823 0.96399 0.0
H1088 H 0.25296 0.11958 0.99047 0.0
H1089 H 0.33282 0.11767 0.97155 0.0
H1090 H 0.32781 0.15656 0.94533 0.0
H1091 H 0.18713 0.2571 0.95156 0.0
H1092 H 0.218 0.22249 0.94538 0.0
H1093 H 0.27914 0.27775 0.94088 0.0
H1094 H 0.24808 0.31245 0.94698 0.0
H1095 H 0.26334 0.20392 0.9662 0.0
H1096 H 0.31494 0.26106 0.88887 0.0
H1097 H 0.30837 0.29905 0.86151 0.0
H1098 H 0.2273 0.28589 0.86197 0.0
H1099 H 0.23346 0.24766 0.88901 0.0
C1100 C 0.33034 0.13945 0.86897 0.0
C1101 C 0.31246 0.11964 0.86583 0.0
C1102 C 0.3245 0.16055 0.88431 0.0
C1103 C 0.30091 0.16187 0.89705 0.0
C1104 C 0.28325 0.1419 0.89422 0.0
C1105 C 0.28894 0.121 0.87874 0.0
C1106 C 0.29334 0.18506 0.9113 0.0
C1107 C 0.29156 0.20807 0.89765 0.0
C1108 C 0.28397 0.18372 0.93668 0.0
C1109 C 0.28712 0.16031 0.95254 0.0
C1110 C 0.26611 0.14968 0.96558 0.0
C1111 C 0.2692 0.1277 0.98054 0.0
C1112 C 0.29323 0.11619 0.98268 0.0
C1113 C 0.31421 0.12659 0.96983 0.0
C1114 C 0.31125 0.14858 0.95488 0.0
C1115 C 0.2073 0.26169 0.95026 0.0
C1116 C 0.21549 0.2872 0.9503 0.0
C1117 C 0.2249 0.24198 0.94671 0.0
C1118 C 0.2508 0.24761 0.94256 0.0
C1119 C 0.25921 0.27306 0.94402 0.0
C1120 C 0.24155 0.29279 0.94746 0.0
C1121 C 0.2678 0.22735 0.93262 0.0
C1122 C 0.27118 0.20495 0.94701 0.0
C1123 C 0.27857 0.22912 0.90784 0.0
C1124 C 0.27465 0.25177 0.89121 0.0
C1125 C 0.29574 0.26627 0.88306 0.0
C1126 C 0.29208 0.28783 0.86761 0.0
C1127 C 0.26742 0.29494 0.86009 0.0
C1128 C 0.24638 0.28042 0.86788 0.0
C1129 C 0.24994 0.25882 0.88327 0.0
H1130 H 0.26463 0.31165 0.84817 0.0
H1131 H 0.29562 0.09927 0.99437 0.0
H1132 H 0.0225 0.78619 0.24274 0.0
H1133 H 0.02988 0.75888 0.20578 0.0
H1134 H 0.04239 0.69441 0.25597 0.0
H1135 H 0.03591 0.72219 0.29304 0.0
H1136 H 0.08342 0.70434 0.23143 0.0
H1137 H 0.99774 0.68927 0.20149 0.0
H1138 H 0.95328 0.69909 0.18902 0.0
H1139 H 0.9801 0.75568 0.13584 0.0
H1140 H 0.02477 0.74557 0.14736 0.0
H1141 H 0.14026 0.6397 0.12732 0.0
H1142 H 0.10851 0.64951 0.16027 0.0
H1143 H 0.09546 0.72343 0.12586 0.0
H1144 H 0.12695 0.71369 0.09271 0.0
H1145 H 0.0505 0.70105 0.14253 0.0
H1146 H 0.13518 0.71877 0.17507 0.0
H1147 H 0.17994 0.70826 0.1857 0.0
H1148 H 0.15448 0.6481 0.23557 0.0
H1149 H 0.10955 0.65806 0.22495 0.0
C1150 C 0.02543 0.76589 0.24577 0.0
C1151 C 0.02857 0.75615 0.27058 0.0
C1152 C 0.0296 0.75018 0.22459 0.0
C1153 C 0.0369 0.72452 0.22801 0.0
C1154 C 0.0369 0.71415 0.25284 0.0
C1155 C 0.03315 0.72996 0.27401 0.0
C1156 C 0.05066 0.71105 0.20713 0.0
C1157 C 0.07577 0.70285 0.21219 0.0
C1158 C 0.04129 0.70997 0.18176 0.0
C1159 C 0.01453 0.71677 0.1754 0.0
C1160 C 0.99413 0.7039 0.18724 0.0
C1161 C 0.96892 0.7094 0.18021 0.0
C1162 C 0.96386 0.72813 0.1618 0.0
C1163 C 0.98404 0.7412 0.15013 0.0
C1164 C 0.00931 0.73542 0.15672 0.0
C1165 C 0.13052 0.65798 0.12669 0.0
C1166 C 0.13634 0.67608 0.10766 0.0
C1167 C 0.11236 0.66352 0.14547 0.0
C1168 C 0.0998 0.68726 0.14557 0.0
C1169 C 0.1049 0.70498 0.12606 0.0
C1170 C 0.12307 0.69947 0.10729 0.0
C1171 C 0.08292 0.6945 0.16709 0.0
C1172 C 0.05759 0.7018 0.16202 0.0
C1173 C 0.09206 0.6949 0.19252 0.0
C1174 C 0.11905 0.68893 0.19896 0.0
C1175 C 0.13915 0.70316 0.18813 0.0
C1176 C 0.16454 0.69733 0.19418 0.0
C1177 C 0.17005 0.67747 0.21123 0.0
C1178 C 0.15018 0.66344 0.22232 0.0
C1179 C 0.12475 0.66917 0.2163 0.0
H1180 H 0.18972 0.67299 0.2159 0.0
H1181 H 0.94431 0.73248 0.15655 0.0
H1182 H 0.07536 0.2713 0.67392 0.0
H1183 H 0.0786 0.30344 0.70812 0.0
H1184 H 0.06491 0.24453 0.76444 0.0
H1185 H 0.06165 0.21268 0.7304 0.0
H1186 H 0.04055 0.28968 0.77674 0.0
H1187 H 0.12497 0.26049 0.74769 0.0
H1188 H 0.1585 0.25498 0.71494 0.0
H1189 H 0.15948 0.33606 0.70168 0.0
H1190 H 0.12571 0.34198 0.73419 0.0
H1191 H 0.11172 0.29269 0.88729 0.0
H1192 H 0.09031 0.28726 0.84638 0.0
H1193 H 0.1165 0.36172 0.82218 0.0
H1194 H 0.13823 0.36732 0.86347 0.0
H1195 H 0.12802 0.32459 0.78795 0.0
H1196 H 0.05343 0.35246 0.82975 0.0
H1197 H 0.0213 0.35601 0.86406 0.0
H1198 H 0.00178 0.27683 0.85468 0.0
H1199 H 0.03407 0.27262 0.82064 0.0
C1200 C 0.07254 0.26551 0.69363 0.0
C1201 C 0.06755 0.23987 0.69974 0.0
C1202 C 0.07436 0.28377 0.71305 0.0
C1203 C 0.07188 0.27633 0.73875 0.0
C1204 C 0.0665 0.25071 0.74471 0.0
C1205 C 0.06463 0.23256 0.72534 0.0
C1206 C 0.07776 0.29417 0.75982 0.0
C1207 C 0.05955 0.29757 0.7792 0.0
C1208 C 0.10231 0.30519 0.76248 0.0
C1209 C 0.12263 0.30164 0.74306 0.0
C1210 C 0.13223 0.27711 0.73765 0.0
C1211 C 0.15128 0.27391 0.71916 0.0
C1212 C 0.16105 0.29515 0.70617 0.0
C1213 C 0.15184 0.31963 0.71171 0.0
C1214 C 0.13275 0.32291 0.73015 0.0
C1215 C 0.11271 0.30808 0.87342 0.0
C1216 C 0.12681 0.33034 0.87846 0.0
C1217 C 0.10021 0.30507 0.85013 0.0
C1218 C 0.10149 0.32426 0.83139 0.0
C1219 C 0.11508 0.34682 0.83653 0.0
C1220 C 0.1275 0.34995 0.86004 0.0
C1221 C 0.0912 0.31891 0.80561 0.0
C1222 C 0.1086 0.31782 0.78522 0.0
C1223 C 0.06593 0.30987 0.80216 0.0
C1224 C 0.0463 0.31223 0.82261 0.0
C1225 C 0.04242 0.33574 0.8351 0.0
C1226 C 0.02415 0.33787 0.85451 0.0
C1227 C 0.00952 0.31666 0.86156 0.0
C1228 C 0.01311 0.29326 0.84919 0.0
C1229 C 0.03137 0.291 0.82979 0.0
H1230 H 0.99539 0.31835 0.8766 0.0
H1231 H 0.17581 0.29264 0.69187 0.0
H1232 H 0.88133 0.72815 0.89472 0.0
H1233 H 0.90199 0.74164 0.85532 0.0
H1234 H 0.87856 0.67162 0.81857 0.0
H1235 H 0.85829 0.65747 0.85866 0.0
H1236 H 0.92683 0.68536 0.80403 0.0
H1237 H 0.84546 0.72512 0.80696 0.0
H1238 H 0.80929 0.74889 0.82567 0.0
H1239 H 0.85725 0.81474 0.83576 0.0
H1240 H 0.89383 0.79125 0.81746 0.0
H1241 H 0.94058 0.75179 0.68105 0.0
H1242 H 0.93083 0.72424 0.71785 0.0
H1243 H 0.95241 0.78522 0.76899 0.0
H1244 H 0.96084 0.81294 0.73248 0.0
H1245 H 0.90216 0.77142 0.77244 0.0
H1246 H 0.98488 0.72729 0.77127 0.0
H1247 H 0.01903 0.70124 0.75156 0.0
H1248 H 0.96456 0.64265 0.73348 0.0
H1249 H 0.93018 0.66809 0.75345 0.0
C1250 C 0.88053 0.71555 0.87831 0.0
C1251 C 0.86784 0.69193 0.87962 0.0
C1252 C 0.89238 0.72329 0.85579 0.0
C1253 C 0.89135 0.70787 0.83387 0.0
C1254 C 0.87944 0.68384 0.83526 0.0
C1255 C 0.86778 0.67587 0.85806 0.0
C1256 C 0.90191 0.71776 0.80951 0.0
C1257 C 0.92122 0.70403 0.79686 0.0
C1258 C 0.89445 0.74202 0.80007 0.0
C1259 C 0.87245 0.75634 0.81098 0.0
C1260 C 0.84835 0.74461 0.81333 0.0
C1261 C 0.82776 0.75805 0.82384 0.0
C1262 C 0.83098 0.7833 0.83194 0.0
C1263 C 0.85478 0.79518 0.82949 0.0
C1264 C 0.87545 0.78182 0.81901 0.0
C1265 C 0.94422 0.75882 0.7002 0.0
C1266 C 0.95201 0.78423 0.70402 0.0
C1267 C 0.93875 0.74308 0.72117 0.0
C1268 C 0.94091 0.75271 0.74613 0.0
C1269 C 0.95078 0.77738 0.74987 0.0
C1270 C 0.95593 0.79313 0.729 0.0
C1271 C 0.92806 0.73969 0.76773 0.0
C1272 C 0.90786 0.75277 0.7796 0.0
C1273 C 0.93436 0.7147 0.77593 0.0
C1274 C 0.95495 0.69968 0.76362 0.0
C1275 C 0.98017 0.70894 0.76292 0.0
C1276 C -0.00043 0.69426 0.75179 0.0
C1277 C 0.99392 0.67045 0.74109 0.0
C1278 C 0.9689 0.66113 0.74171 0.0
C1279 C 0.94948 0.67559 0.75305 0.0
H1280 H 0.00897 0.65918 0.73242 0.0
H1281 H 0.81502 0.79367 0.84008 0.0
H1282 H 0.9603 0.18323 0.25046 0.0
H1283 H 0.95176 0.21342 0.21578 0.0
H1284 H 0.94382 0.2744 0.27081 0.0
H1285 H 0.95205 0.24403 0.30547 0.0
H1286 H 0.90091 0.26703 0.24702 0.0
H1287 H 0.98526 0.28309 0.2186 0.0
H1288 H 0.02976 0.27588 0.20478 0.0
H1289 H 0.00353 0.22737 0.14397 0.0
H1290 H 0.95881 0.23461 0.1572 0.0
H1291 H 0.84714 0.34168 0.14448 0.0
H1292 H 0.87649 0.32825 0.17859 0.0
H1293 H 0.88501 0.25461 0.14248 0.0
H1294 H 0.85567 0.26771 0.10857 0.0
H1295 H 0.93196 0.27714 0.15797 0.0
H1296 H 0.84702 0.25902 0.19141 0.0
H1297 H 0.80305 0.27056 0.20405 0.0
H1298 H 0.8324 0.32602 0.25698 0.0
H1299 H 0.87656 0.31502 0.24438 0.0
C1300 C 0.95815 0.20334 0.25496 0.0
C1301 C 0.95698 0.21147 0.28048 0.0
C1302 C 0.95324 0.22065 0.23514 0.0
C1303 C 0.94693 0.2462 0.2407 0.0
C1304 C 0.94856 0.25479 0.26608 0.0
C1305 C 0.9533 0.23748 0.28585 0.0
C1306 C 0.93292 0.26168 0.22145 0.0
C1307 C 0.9081 0.2699 0.22776 0.0
C1308 C 0.9419 0.26497 0.19616 0.0
C1309 C 0.96871 0.25929 0.18897 0.0
C1310 C 0.98899 0.27073 0.2024 0.0
C1311 C 0.01423 0.26684 0.19451 0.0
C1312 C 0.01946 0.25122 0.17347 0.0
C1313 C -0.00055 0.2395 0.16023 0.0
C1314 C 0.97414 0.24362 0.16782 0.0
C1315 C 0.85517 0.32259 0.14392 0.0
C1316 C 0.84899 0.30568 0.12397 0.0
C1317 C 0.87197 0.31501 0.16332 0.0
C1318 C 0.88293 0.2905 0.16291 0.0
C1319 C 0.87685 0.27366 0.14298 0.0
C1320 C 0.85991 0.28111 0.12377 0.0
C1321 C 0.90012 0.28186 0.18363 0.0
C1322 C 0.92526 0.2748 0.17748 0.0
C1323 C 0.89157 0.27984 0.20916 0.0
C1324 C 0.86505 0.28644 0.21672 0.0
C1325 C 0.84408 0.27384 0.20557 0.0
C1326 C 0.81913 0.28025 0.21276 0.0
C1327 C 0.81493 0.29908 0.23124 0.0
C1328 C 0.83568 0.31149 0.24262 0.0
C1329 C 0.86066 0.30517 0.23547 0.0
H1330 H 0.79561 0.30401 0.23679 0.0
H1331 H 0.03904 0.24812 0.1675 0.0
H1332 H 0.98373 0.12684 0.66826 0.0
H1333 H 0.97399 0.08094 0.66832 0.0
H1334 H 0.04623 0.06537 0.63175 0.0
H1335 H 0.05612 0.11078 0.63137 0.0
H1336 H 0.97214 0.04355 0.62789 0.0
H1337 H 0.07255 0.01437 0.66385 0.0
H1338 H 0.10769 0.03261 0.68955 0.0
H1339 H 0.05412 0.07992 0.72995 0.0
H1340 H 0.01865 0.06172 0.70479 0.0
H1341 H 0.02463 0.90376 0.64802 0.0
H1342 H 0.03217 0.95007 0.64519 0.0
H1343 H 0.95357 0.96405 0.66632 0.0
H1344 H 0.94571 0.91825 0.66775 0.0
H1345 H 0.03042 0.98741 0.67775 0.0
H1346 H 0.93014 0.01669 0.64159 0.0
H1347 H 0.89494 -0.00119 0.61578 0.0
H1348 H 0.94836 0.95175 0.57485 0.0
H1349 H 0.98391 0.96953 0.60025 0.0
C1350 C 0.99736 0.11369 0.65988 0.0
C1351 C 0.02075 0.12256 0.64994 0.0
C1352 C 0.99176 0.08751 0.65994 0.0
C1353 C 0.00958 0.06987 0.65035 0.0
C1354 C 0.03239 0.07872 0.6395 0.0
C1355 C 0.03792 0.10476 0.63924 0.0
C1356 C 0.00503 0.04207 0.65256 0.0
C1357 C 0.98463 0.03125 0.63904 0.0
C1358 C 0.02178 0.02612 0.66665 0.0
C1359 C 0.04297 0.03682 0.68225 0.0
C1360 C 0.06826 0.02857 0.6783 0.0
C1361 C 0.08824 0.03892 0.69277 0.0
C1362 C 0.08313 0.05742 0.71136 0.0
C1363 C 0.05805 0.06563 0.71552 0.0
C1364 C 0.03801 0.05533 0.70113 0.0
C1365 C 0.009 0.91681 0.65182 0.0
C1366 C 0.9845 0.90746 0.65759 0.0
C1367 C 0.0133 0.94322 0.65028 0.0
C1368 C 0.99327 0.96059 0.65491 0.0
C1369 C 0.96911 0.95113 0.66173 0.0
C1370 C 0.96466 0.9249 0.66264 0.0
C1371 C 0.99751 0.98862 0.6529 0.0
C1372 C 0.01791 -0.00042 0.6665 0.0
C1373 C 0.98078 0.0047 0.63877 0.0
C1374 C 0.95965 0.99433 0.62294 0.0
C1375 C 0.93439 0.00265 0.62697 0.0
C1376 C 0.91437 0.99249 0.61246 0.0
C1377 C 0.9194 0.97412 0.59373 0.0
C1378 C 0.94448 0.96593 0.58941 0.0
C1379 C 0.96457 0.97601 0.60388 0.0
H1380 H 0.90388 0.96625 0.58253 0.0
H1381 H 0.09859 0.06537 0.72259 0.0
H1382 H 0.02433 0.09304 0.33778 0.0
H1383 H 0.02995 0.04676 0.3419 0.0
H1384 H 0.94887 0.03785 0.35434 0.0
H1385 H 0.9432 0.08389 0.3513 0.0
H1386 H 0.97342 0.0039 0.38189 0.0
H1387 H 0.97562 0.03153 0.29438 0.0
H1388 H 0.99091 0.05771 0.25822 0.0
H1389 H 0.06633 0.02633 0.26694 0.0
H1390 H 0.05157 0.00025 0.30347 0.0
H1391 H 0.96424 0.87468 0.33138 0.0
H1392 H 0.95873 0.92078 0.33879 0.0
H1393 H 0.04059 0.93025 0.34128 0.0
H1394 H 0.04635 0.88468 0.33422 0.0
H1395 H 0.01495 0.96341 0.30677 0.0
H1396 H 0.01079 0.93511 0.39489 0.0
H1397 H 0.99386 0.90966 0.43085 0.0
H1398 H 0.91914 0.94156 0.4187 0.0
H1399 H 0.93563 0.96715 0.38257 0.0
C1400 C 0.00778 0.08128 0.34189 0.0
C1401 C 0.9833 0.0922 0.34387 0.0
C1402 C 0.01099 0.05482 0.34413 0.0
C1403 C 0.98972 0.03878 0.3478 0.0
C1404 C 0.96554 0.04979 0.3514 0.0
C1405 C 0.96237 0.07621 0.34955 0.0
C1406 C 0.99218 0.01058 0.34574 0.0
C1407 C 0.98231 0.99505 0.36536 0.0
C1408 C 0.00376 -0.00102 0.32418 0.0
C1409 C 0.01255 0.01412 0.3018 0.0
C1410 C 0.9955 0.0303 0.28866 0.0
C1411 C 0.00407 0.04513 0.26811 0.0
C1412 C 0.02959 0.04374 0.26033 0.0
C1413 C 0.04657 0.02742 0.27302 0.0
C1414 C 0.03811 0.0126 0.29364 0.0
C1415 C 0.98103 0.88657 0.33372 0.0
C1416 C 0.00571 0.87596 0.33212 0.0
C1417 C 0.97785 0.91283 0.33804 0.0
C1418 C -0.00071 0.92881 0.34054 0.0
C1419 C 0.02384 0.91821 0.33936 0.0
C1420 C 0.02703 0.89208 0.33539 0.0
C1421 C 0.99647 0.95684 0.34301 0.0
C1422 C 0.00613 0.97231 0.32332 0.0
C1423 C 0.98436 0.96829 0.36428 0.0
C1424 C 0.97439 0.95285 0.38589 0.0
C1425 C 0.99071 0.93655 0.39976 0.0
C1426 C 0.98122 0.92218 0.42023 0.0
C1427 C 0.95543 0.92396 0.42702 0.0
C1428 C 0.93911 0.94019 0.41341 0.0
C1429 C 0.94853 0.95468 0.39298 0.0
H1430 H 0.94811 0.91275 0.44283 0.0
H1431 H 0.0362 0.05527 0.24444 0.0
H1432 H 0.6589 0.01737 0.8902 0.0
H1433 H 0.65585 0.02955 0.93533 0.0
H1434 H 0.64556 0.95033 0.95623 0.0
H1435 H 0.64764 0.93815 0.91151 0.0
H1436 H 0.61592 0.97808 0.98436 0.0
H1437 H 0.70443 0.98117 0.95998 0.0
H1438 H 0.74129 0.99499 0.93397 0.0
H1439 H 0.72781 0.07305 0.95561 0.0
H1440 H 0.69059 0.05972 0.98142 0.0
H1441 H 0.66082 0.98184 0.11429 0.0
H1442 H 0.65733 0.97313 0.06829 0.0
H1443 H 0.65052 0.05393 0.05317 0.0
H1444 H 0.65361 0.06284 0.09885 0.0
H1445 H 0.68749 0.02741 0.02232 0.0
H1446 H 0.59936 0.0217 0.04919 0.0
H1447 H 0.56385 0.00554 0.0757 0.0
H1448 H 0.57915 0.92897 0.05029 0.0
H1449 H 0.61502 0.94464 0.0239 0.0
C1450 C 0.6557 0.0026 0.9044 0.0
C1451 C 0.65366 0.97679 0.89719 0.0
C1452 C 0.65408 0.00956 0.93019 0.0
C1453 C 0.65089 0.99078 0.94921 0.0
C1454 C 0.64801 0.96517 0.94194 0.0
C1455 C 0.64929 0.95824 0.91626 0.0
C1456 C 0.65156 0.9974 0.97679 0.0
C1457 C 0.63168 0.98869 0.99265 0.0
C1458 C 0.67201 0.01146 0.98764 0.0
C1459 C 0.69456 0.01949 0.97239 0.0
C1460 C 0.70923 0.0013 0.95905 0.0
C1461 C 0.73019 0.00904 0.94435 0.0
C1462 C 0.73684 0.03489 0.94308 0.0
C1463 C 0.7226 0.05304 0.95657 0.0
C1464 C 0.70157 0.04541 0.97124 0.0
C1465 C 0.65847 0.99772 0.10117 0.0
C1466 C 0.65737 0.023 0.11024 0.0
C1467 C 0.65644 0.99272 0.07496 0.0
C1468 C 0.65361 0.01293 0.05747 0.0
C1469 C 0.65267 0.03813 0.06642 0.0
C1470 C 0.65431 0.04312 0.09256 0.0
C1471 C 0.65199 0.00792 0.02971 0.0
C1472 C 0.6717 0.01692 0.0139 0.0
C1473 C 0.63165 0.99375 0.01899 0.0
C1474 C 0.61004 0.98431 0.03478 0.0
C1475 C 0.59531 0.00139 0.04944 0.0
C1476 C 0.57508 0.99232 0.0644 0.0
C1477 C 0.56929 0.96624 0.06473 0.0
C1478 C 0.58368 0.94917 0.05004 0.0
C1479 C 0.60394 0.95813 0.03506 0.0
H1480 H 0.55362 0.95926 0.07633 0.0
H1481 H 0.75307 0.04085 0.93169 0.0
H1482 H 0.3584 0.94329 0.09971 0.0
H1483 H 0.35994 0.95015 0.05387 0.0
H1484 H 0.33763 0.02891 0.06449 0.0
H1485 H 0.33496 0.0219 0.11073 0.0
H1486 H 0.3096 0.00848 0.02917 0.0
H1487 H 0.39981 0.01017 0.04483 0.0
H1488 H 0.44093 0.99459 0.06193 0.0
H1489 H 0.43426 0.92624 0.01697 0.0
H1490 H 0.39291 0.94126 -0.00015 0.0
H1491 H 0.33716 0.0529 0.9056 0.0
H1492 H 0.34169 0.04354 0.95087 0.0
H1493 H 0.34066 0.96269 0.93488 0.0
H1494 H 0.33572 0.97184 0.88892 0.0
H1495 H 0.38066 0.98238 0.97188 0.0
H1496 H 0.29029 0.98265 0.95547 0.0
H1497 H 0.25022 0.00017 0.93783 0.0
H1498 H 0.25831 0.06708 0.98463 0.0
H1499 H 0.29884 0.05025 0.0021 0.0
C1500 C 0.35425 0.96227 0.09249 0.0
C1501 C 0.34651 0.98208 0.10903 0.0
C1502 C 0.35526 0.96617 0.06613 0.0
C1503 C 0.34916 0.99011 0.05566 0.0
C1504 C 0.34241 0.01024 0.07215 0.0
C1505 C 0.34103 0.00626 0.09859 0.0
C1506 C 0.348 0.99349 0.02747 0.0
C1507 C 0.32533 0.00313 0.01674 0.0
C1508 C 0.3682 0.98577 0.0111 0.0
C1509 C 0.39316 0.97676 0.02122 0.0
C1510 C 0.40703 0.99174 0.03872 0.0
C1511 C 0.43039 0.98302 0.0484 0.0
C1512 C 0.44018 0.95942 0.04058 0.0
C1513 C 0.42665 0.94452 0.02302 0.0
C1514 C 0.40326 0.95314 0.0133 0.0
C1515 C 0.33811 0.03305 0.91148 0.0
C1516 C 0.33604 0.01307 0.89354 0.0
C1517 C 0.34066 0.02779 0.93744 0.0
C1518 C 0.3414 0.00249 0.94612 0.0
C1519 C 0.34013 0.98237 0.92839 0.0
C1520 C 0.33722 0.98762 0.90224 0.0
C1521 C 0.34245 0.99751 0.97391 0.0
C1522 C 0.36502 0.98762 0.98447 0.0
C1523 C 0.32228 0.00521 0.99018 0.0
C1524 C 0.29779 0.01531 0.97987 0.0
C1525 C 0.28371 0.00124 0.96179 0.0
C1526 C 0.26089 0.01104 0.95184 0.0
C1527 C 0.2518 0.03479 0.96002 0.0
C1528 C 0.26547 0.04875 0.97823 0.0
C1529 C 0.28836 0.03909 0.98816 0.0
H1530 H 0.23412 0.04233 0.95232 0.0
H1531 H 0.45826 0.9527 0.04811 0.0
H1532 H 0.91565 0.65009 0.94344 0.0
H1533 H 0.96156 0.64398 0.9478 0.0
H1534 H 0.9587 0.67456 0.02436 0.0
H1535 H 0.91251 0.68114 0.02011 0.0
H1536 H 0.99779 0.69476 0.99748 0.0
H1537 H 0.96562 0.61124 0.01536 0.0
H1538 H 0.94019 0.57224 0.00801 0.0
H1539 H 0.98134 0.55807 0.93835 0.0
H1540 H 0.00679 0.59721 0.9451 0.0
H1541 H 0.11755 0.62056 0.03097 0.0
H1542 H 0.0717 0.61973 0.02256 0.0
H1543 H 0.08163 0.67444 0.96153 0.0
H1544 H 0.12772 0.67547 0.96985 0.0
H1545 H 0.03902 0.61056 0.98226 0.0
H1546 H 0.0356 0.72013 0.9706 0.0
H1547 H 0.06152 0.75781 0.98229 0.0
H1548 H 0.09103 0.71769 0.04771 0.0
H1549 H 0.06503 0.67996 0.03661 0.0
C1550 C 0.92466 0.65548 0.96131 0.0
C1551 C 0.9103 0.66608 0.98148 0.0
C1552 C 0.95095 0.65186 0.96376 0.0
C1553 C 0.96349 0.65859 0.98647 0.0
C1554 C 0.94933 0.6692 0.00667 0.0
C1555 C 0.92293 0.67284 0.00425 0.0
C1556 C 0.99149 0.65497 0.98879 0.0
C1557 C 0.00677 0.67635 0.99413 0.0
C1558 C 0.00319 0.63088 0.98473 0.0
C1559 C 0.98795 0.6073 0.98062 0.0
C1560 C 0.96911 0.59993 -0.00164 0.0
C1561 C 0.95471 0.57777 0.99432 0.0
C1562 C 0.9591 0.56272 0.97269 0.0
C1563 C 0.97794 0.56976 0.95508 0.0
C1564 C 0.99237 0.59192 0.95902 0.0
C1565 C 0.1101 0.63202 0.01536 0.0
C1566 C 0.12619 0.64842 0.00134 0.0
C1567 C 0.08389 0.63141 0.01053 0.0
C1568 C 0.07329 0.64734 0.99174 0.0
C1569 C 0.08951 0.66221 0.97632 0.0
C1570 C 0.11583 0.6627 0.98103 0.0
C1571 C 0.04521 0.65043 0.99039 0.0
C1572 C 0.02996 0.62898 0.98535 0.0
C1573 C 0.03346 0.6743 0.99533 0.0
C1574 C 0.04858 0.69717 0.0026 0.0
C1575 C 0.04753 0.71942 0.98754 0.0
C1576 C 0.06225 0.74077 0.99406 0.0
C1577 C 0.07798 0.74011 0.01567 0.0
C1578 C 0.07891 0.71815 0.03092 0.0
C1579 C 0.0642 0.69678 0.02451 0.0
H1580 H 0.0894 0.75663 0.02064 0.0
H1581 H 0.94794 0.54557 0.96961 0.0
H1582 H 0.09777 0.3291 0.02708 0.0
H1583 H 0.05166 0.33079 0.03485 0.0
H1584 H 0.03902 0.35252 0.95617 0.0
H1585 H 0.08485 0.35182 0.94848 0.0
H1586 H 0.0071 0.37739 0.98527 0.0
H1587 H 0.03329 0.28978 0.97711 0.0
H1588 H 0.05918 0.25172 0.98752 0.0
H1589 H 0.03042 0.25256 0.06447 0.0
H1590 H 0.00471 0.29094 0.05465 0.0
H1591 H 0.8755 0.3358 0.97938 0.0
H1592 H 0.92168 0.33942 0.97129 0.0
H1593 H 0.93662 0.33095 0.052 0.0
H1594 H 0.89097 0.32755 0.0603 0.0
H1595 H 0.96679 0.29908 0.02069 0.0
H1596 H 0.94379 0.3887 0.02916 0.0
H1597 H 0.91929 0.42769 0.01891 0.0
H1598 H 0.94116 0.42136 0.93998 0.0
H1599 H 0.96615 0.38248 0.94988 0.0
C1600 C 0.0852 0.3346 0.01155 0.0
C1601 C 0.09505 0.34011 0.98713 0.0
C1602 C 0.05883 0.33541 0.01596 0.0
C1603 C 0.04185 0.34123 0.99592 0.0
C1604 C 0.05172 0.3479 0.9719 0.0
C1605 C 0.07802 0.34743 0.96756 0.0
C1606 C 0.01377 0.33922 -0.0005 0.0
C1607 C -0.00169 0.36013 0.99273 0.0
C1608 C 0.00223 0.31678 0.00941 0.0
C1609 C 0.01726 0.29338 0.01521 0.0
C1610 C 0.03259 0.28193 0.99629 0.0
C1611 C 0.04724 0.26031 0.00209 0.0
C1612 C 0.04648 0.24976 0.02665 0.0
C1613 C 0.03101 0.26078 0.04546 0.0
C1614 C 0.01639 0.28246 0.03979 0.0
C1615 C 0.88865 0.33474 0.99536 0.0
C1616 C 0.87954 0.33149 0.02046 0.0
C1617 C 0.91496 0.3369 0.99073 0.0
C1618 C 0.93245 0.33552 0.0111 0.0
C1619 C 0.9234 0.33206 0.03606 0.0
C1620 C 0.89725 0.33024 0.04073 0.0
C1621 C 0.96032 0.33726 0.00661 0.0
C1622 C 0.97568 0.31625 0.01314 0.0
C1623 C 0.97173 0.35945 0.99628 0.0
C1624 C 0.95656 0.38259 0.9902 0.0
C1625 C 0.94321 0.39553 0.00959 0.0
C1626 C 0.92928 0.41764 0.00386 0.0
C1627 C 0.92845 0.42687 0.97877 0.0
C1628 C 0.94175 0.41414 0.95939 0.0
C1629 C 0.95589 0.39214 0.96507 0.0
H1630 H 0.91759 0.44396 0.97437 0.0
H1631 H 0.05786 0.23303 0.0311 0.0
loop_
_geom_bond_atom_site_label_1
_geom_bond_atom_site_label_2
_geom_bond_distance
_geom_bond_site_symmetry_2
_ccdc_geom_bond_type
Mn0 O5 2.095 . S
Mn0 O15 2.162 . S
Mn0 O16 2.297 . S
Mn0 O24 2.385 . S
Mn0 O25 2.209 . S
Mn0 O26 2.094 . S
Mn1 O6 2.121 . S
Mn1 N8 2.257 . S
Mn1 N17 2.282 . S
Mn1 O25 2.215 . S
Mn1 O27 2.117 . S
C2 O24 1.234 . S
C2 O25 1.283 . S
C3 O15 1.281 . S
C3 O16 1.236 . S
C4 O26 1.240 . S
C4 O27 1.264 . S
O5 Mn0 2.095 . S
O5 C14 1.250 . S
O6 Mn1 2.121 . S
O6 C14 1.258 . S
C7 N8 1.327 1_655 S
C7 C11 1.459 . S
C7 H13 0.930 1_655 S
N8 Mn1 2.257 . S
N8 C7 1.327 1_455 S
N8 C12 1.356 1_455 S
C9 C10 1.258 . S
C9 C12 1.444 . S
C9 C29 1.449 . S
C10 C9 1.258 . S
C10 C11 1.477 . S
C10 H30 0.931 . S
C11 C7 1.459 . S
C11 C10 1.477 . S
C11 H31 0.930 . S
C12 N8 1.356 1_655 S
C12 C9 1.444 . S
C12 C22 1.469 1_655 S
H13 C7 0.930 1_455 S
C14 O5 1.250 . S
C14 O6 1.258 . S
O15 Mn0 2.162 . S
O15 C3 1.281 . S
O16 Mn0 2.297 . S
O16 C3 1.236 . S
N17 Mn1 2.282 . S
N17 C18 1.328 . S
N17 C22 1.318 . S
C18 N17 1.328 . S
C18 C19 1.457 . S
C18 H23 0.929 . S
C19 C18 1.457 . S
C19 C20 1.291 . S
C19 H32 0.931 . S
C20 C19 1.291 . S
C20 C21 1.373 . S
C20 H33 0.929 . S
C21 C20 1.373 . S
C21 C22 1.396 . S
C21 C28 1.403 1_455 S
C22 C12 1.469 1_455 S
C22 N17 1.318 . S
C22 C21 1.396 . S
H23 C18 0.929 . S
O24 Mn0 2.385 . S
O24 C2 1.234 . S
O25 Mn0 2.209 . S
O25 Mn1 2.215 . S
O25 C2 1.283 . S
O26 Mn0 2.094 . S
O26 C4 1.240 . S
O27 Mn1 2.117 . S
O27 C4 1.264 . S
C28 C21 1.403 1_655 S
C28 C29 1.399 . S
C28 H34 0.929 . S
C29 C9 1.449 . S
C29 C28 1.399 . S
C29 H35 0.930 . S
H30 C10 0.931 . S
H31 C11 0.930 . S
H32 C19 0.931 . S
H33 C20 0.929 . S
H34 C28 0.929 . S
H35 C29 0.930 . S
Mn36 O41 2.095 . S
Mn36 O51 2.162 . S
Mn36 O52 2.297 . S
Mn36 O60 2.385 . S
Mn36 O61 2.209 . S
Mn36 O62 2.094 . S
Mn37 O42 2.121 . S
Mn37 N44 2.257 . S
Mn37 N53 2.282 . S
Mn37 O61 2.215 . S
Mn37 O63 2.117 . S
C38 O60 1.234 . S
C38 O61 1.283 . S
C39 O51 1.281 . S
C39 O52 1.236 . S
C40 O62 1.240 . S
C40 O63 1.264 . S
O41 Mn36 2.095 . S
O41 C50 1.250 . S
O42 Mn37 2.121 . S
O42 C50 1.258 . S
C43 N44 1.327 1_455 S
C43 C47 1.459 . S
C43 H49 0.930 1_455 S
N44 Mn37 2.257 . S
N44 C43 1.327 1_655 S
N44 C48 1.356 1_655 S
C45 C46 1.258 . S
C45 C48 1.444 . S
C45 C65 1.449 . S
C46 C45 1.258 . S
C46 C47 1.477 . S
C46 H66 0.931 . S
C47 C43 1.459 . S
C47 C46 1.477 . S
C47 H67 0.930 . S
C48 N44 1.356 1_455 S
C48 C45 1.444 . S
C48 C58 1.469 1_455 S
H49 C43 0.930 1_655 S
C50 O41 1.250 . S
C50 O42 1.258 . S
O51 Mn36 2.162 . S
O51 C39 1.281 . S
O52 Mn36 2.297 . S
O52 C39 1.236 . S
N53 Mn37 2.282 . S
N53 C54 1.328 . S
N53 C58 1.318 . S
C54 N53 1.328 . S
C54 C55 1.457 . S
C54 H59 0.929 . S
C55 C54 1.457 . S
C55 C56 1.291 . S
C55 H68 0.931 . S
C56 C55 1.291 . S
C56 C57 1.373 . S
C56 H69 0.929 . S
C57 C56 1.373 . S
C57 C58 1.396 . S
C57 C64 1.403 1_655 S
C58 C48 1.469 1_655 S
C58 N53 1.318 . S
C58 C57 1.396 . S
H59 C54 0.929 . S
O60 Mn36 2.385 . S
O60 C38 1.234 . S
O61 Mn36 2.209 . S
O61 Mn37 2.215 . S
O61 C38 1.283 . S
O62 Mn36 2.094 . S
O62 C40 1.240 . S
O63 Mn37 2.117 . S
O63 C40 1.264 . S
C64 C57 1.403 1_455 S
C64 C65 1.399 . S
C64 H70 0.929 . S
C65 C45 1.449 . S
C65 C64 1.399 . S
C65 H71 0.930 . S
H66 C46 0.931 . S
H67 C47 0.930 . S
H68 C55 0.931 . S
H69 C56 0.929 . S
H70 C64 0.929 . S
H71 C65 0.930 . S
Mn72 O77 2.095 . S
Mn72 O87 2.162 . S
Mn72 O88 2.297 . S
Mn72 O96 2.385 . S
Mn72 O97 2.209 . S
Mn72 O98 2.094 . S
Mn73 O78 2.121 . S
Mn73 N80 2.257 . S
Mn73 N89 2.282 . S
Mn73 O97 2.215 . S
Mn73 O99 2.117 . S
C74 O96 1.234 . S
C74 O97 1.283 . S
C75 O87 1.281 . S
C75 O88 1.236 . S
C76 O98 1.240 . S
C76 O99 1.264 . S
O77 Mn72 2.095 . S
O77 C86 1.250 . S
O78 Mn73 2.121 . S
O78 C86 1.258 . S
C79 N80 1.327 1_655 S
C79 C83 1.459 . S
C79 H85 0.930 1_655 S
N80 Mn73 2.257 . S
N80 C79 1.327 1_455 S
N80 C84 1.356 1_455 S
C81 C82 1.258 . S
C81 C84 1.444 . S
C81 C101 1.449 . S
C82 C81 1.258 . S
C82 C83 1.477 . S
C82 H102 0.931 . S
C83 C79 1.459 . S
C83 C82 1.477 . S
C83 H103 0.930 . S
C84 N80 1.356 1_655 S
C84 C81 1.444 . S
C84 C94 1.469 1_655 S
H85 C79 0.930 1_455 S
C86 O77 1.250 . S
C86 O78 1.258 . S
O87 Mn72 2.162 . S
O87 C75 1.281 . S
O88 Mn72 2.297 . S
O88 C75 1.236 . S
N89 Mn73 2.282 . S
N89 C90 1.328 . S
N89 C94 1.318 . S
C90 N89 1.328 . S
C90 C91 1.457 . S
C90 H95 0.929 . S
C91 C90 1.457 . S
C91 C92 1.291 . S
C91 H104 0.931 . S
C92 C91 1.291 . S
C92 C93 1.373 . S
C92 H105 0.929 . S
C93 C92 1.373 . S
C93 C94 1.396 . S
C93 C100 1.403 1_455 S
C94 C84 1.469 1_455 S
C94 N89 1.318 . S
C94 C93 1.396 . S
H95 C90 0.929 . S
O96 Mn72 2.385 . S
O96 C74 1.234 . S
O97 Mn72 2.209 . S
O97 Mn73 2.215 . S
O97 C74 1.283 . S
O98 Mn72 2.094 . S
O98 C76 1.240 . S
O99 Mn73 2.117 . S
O99 C76 1.264 . S
C100 C93 1.403 1_655 S
C100 C101 1.399 . S
C100 H106 0.929 . S
C101 C81 1.449 . S
C101 C100 1.399 . S
C101 H107 0.930 . S
H102 C82 0.931 . S
H103 C83 0.930 . S
H104 C91 0.931 . S
H105 C92 0.929 . S
H106 C100 0.929 . S
H107 C101 0.930 . S
Mn108 O113 2.095 . S
Mn108 O123 2.162 . S
Mn108 O124 2.297 . S
Mn108 O132 2.385 . S
Mn108 O133 2.209 . S
Mn108 O134 2.094 . S
Mn109 O114 2.121 . S
Mn109 N116 2.257 . S
Mn109 N125 2.282 . S
Mn109 O133 2.215 . S
Mn109 O135 2.117 . S
C110 O132 1.234 . S
C110 O133 1.283 . S
C111 O123 1.281 . S
C111 O124 1.236 . S
C112 O134 1.240 . S
C112 O135 1.264 . S
O113 Mn108 2.095 . S
O113 C122 1.250 . S
O114 Mn109 2.121 . S
O114 C122 1.258 . S
C115 N116 1.327 1_455 S
C115 C119 1.459 . S
C115 H121 0.930 1_455 S
N116 Mn109 2.257 . S
N116 C115 1.327 1_655 S
N116 C120 1.356 1_655 S
C117 C118 1.258 . S
C117 C120 1.444 . S
C117 C137 1.449 . S
C118 C117 1.258 . S
C118 C119 1.477 . S
C118 H138 0.931 . S
C119 C115 1.459 . S
C119 C118 1.477 . S
C119 H139 0.930 . S
C120 N116 1.356 1_455 S
C120 C117 1.444 . S
C120 C130 1.469 1_455 S
H121 C115 0.930 1_655 S
C122 O113 1.250 . S
C122 O114 1.258 . S
O123 Mn108 2.162 . S
O123 C111 1.281 . S
O124 Mn108 2.297 . S
O124 C111 1.236 . S
N125 Mn109 2.282 . S
N125 C126 1.328 . S
N125 C130 1.318 . S
C126 N125 1.328 . S
C126 C127 1.457 . S
C126 H131 0.929 . S
C127 C126 1.457 . S
C127 C128 1.291 . S
C127 H140 0.931 . S
C128 C127 1.291 . S
C128 C129 1.373 . S
C128 H141 0.929 . S
C129 C128 1.373 . S
C129 C130 1.396 . S
C129 C136 1.403 1_655 S
C130 C120 1.469 1_655 S
C130 N125 1.318 . S
C130 C129 1.396 . S
H131 C126 0.929 . S
O132 Mn108 2.385 . S
O132 C110 1.234 . S
O133 Mn108 2.209 . S
O133 Mn109 2.215 . S
O133 C110 1.283 . S
O134 Mn108 2.094 . S
O134 C112 1.240 . S
O135 Mn109 2.117 . S
O135 C112 1.264 . S
C136 C129 1.403 1_455 S
C136 C137 1.399 . S
C136 H142 0.929 . S
C137 C117 1.449 . S
C137 C136 1.399 . S
C137 H143 0.930 . S
H138 C118 0.931 . S
H139 C119 0.930 . S
H140 C127 0.931 . S
H141 C128 0.929 . S
H142 C136 0.929 . S
H143 C137 0.930 . S
Mn144 O149 2.095 . S
Mn144 O159 2.162 . S
Mn144 O160 2.297 . S
Mn144 O168 2.385 . S
Mn144 O169 2.209 . S
Mn144 O170 2.094 . S
Mn145 O150 2.121 . S
Mn145 N152 2.257 . S
Mn145 N161 2.282 . S
Mn145 O169 2.215 . S
Mn145 O171 2.117 . S
C146 O168 1.234 . S
C146 O169 1.283 . S
C147 O159 1.281 . S
C147 O160 1.236 . S
C148 O170 1.240 . S
C148 O171 1.264 . S
O149 Mn144 2.095 . S
O149 C158 1.250 . S
O150 Mn145 2.121 . S
O150 C158 1.258 . S
C151 N152 1.327 1_565 S
C151 C155 1.459 . S
C151 H157 0.930 1_565 S
N152 Mn145 2.257 . S
N152 C151 1.327 1_545 S
N152 C156 1.356 1_545 S
C153 C154 1.258 . S
C153 C156 1.444 . S
C153 C173 1.449 . S
C154 C153 1.258 . S
C154 C155 1.477 . S
C154 H174 0.931 . S
C155 C151 1.459 . S
C155 C154 1.477 . S
C155 H175 0.930 . S
C156 N152 1.356 1_565 S
C156 C153 1.444 . S
C156 C166 1.469 1_565 S
H157 C151 0.930 1_545 S
C158 O149 1.250 . S
C158 O150 1.258 . S
O159 Mn144 2.162 . S
O159 C147 1.281 . S
O160 Mn144 2.297 . S
O160 C147 1.236 . S
N161 Mn145 2.282 . S
N161 C162 1.328 . S
N161 C166 1.318 . S
C162 N161 1.328 . S
C162 C163 1.457 . S
C162 H167 0.929 . S
C163 C162 1.457 . S
C163 C164 1.291 . S
C163 H176 0.931 . S
C164 C163 1.291 . S
C164 C165 1.373 . S
C164 H177 0.929 . S
C165 C164 1.373 . S
C165 C166 1.396 . S
C165 C172 1.403 1_545 S
C166 C156 1.469 1_545 S
C166 N161 1.318 . S
C166 C165 1.396 . S
H167 C162 0.929 . S
O168 Mn144 2.385 . S
O168 C146 1.234 . S
O169 Mn144 2.209 . S
O169 Mn145 2.215 . S
O169 C146 1.283 . S
O170 Mn144 2.094 . S
O170 C148 1.240 . S
O171 Mn145 2.117 . S
O171 C148 1.264 . S
C172 C165 1.403 1_565 S
C172 C173 1.399 . S
C172 H178 0.929 . S
C173 C153 1.449 . S
C173 C172 1.399 . S
C173 H179 0.930 . S
H174 C154 0.931 . S
H175 C155 0.930 . S
H176 C163 0.931 . S
H177 C164 0.929 . S
H178 C172 0.929 . S
H179 C173 0.930 . S
Mn180 O185 2.095 . S
Mn180 O195 2.162 . S
Mn180 O196 2.297 . S
Mn180 O204 2.385 . S
Mn180 O205 2.209 . S
Mn180 O206 2.094 . S
Mn181 O186 2.121 . S
Mn181 N188 2.257 . S
Mn181 N197 2.282 . S
Mn181 O205 2.215 . S
Mn181 O207 2.117 . S
C182 O204 1.234 . S
C182 O205 1.283 . S
C183 O195 1.281 . S
C183 O196 1.236 . S
C184 O206 1.240 . S
C184 O207 1.264 . S
O185 Mn180 2.095 . S
O185 C194 1.250 . S
O186 Mn181 2.121 . S
O186 C194 1.258 . S
C187 N188 1.327 1_545 S
C187 C191 1.459 . S
C187 H193 0.930 1_545 S
N188 Mn181 2.257 . S
N188 C187 1.327 1_565 S
N188 C192 1.356 1_565 S
C189 C190 1.258 . S
C189 C192 1.444 . S
C189 C209 1.449 . S
C190 C189 1.258 . S
C190 C191 1.477 . S
C190 H210 0.931 . S
C191 C187 1.459 . S
C191 C190 1.477 . S
C191 H211 0.930 . S
C192 N188 1.356 1_545 S
C192 C189 1.444 . S
C192 C202 1.469 1_545 S
H193 C187 0.930 1_565 S
C194 O185 1.250 . S
C194 O186 1.258 . S
O195 Mn180 2.162 . S
O195 C183 1.281 . S
O196 Mn180 2.297 . S
O196 C183 1.236 . S
N197 Mn181 2.282 . S
N197 C198 1.328 . S
N197 C202 1.318 . S
C198 N197 1.328 . S
C198 C199 1.457 . S
C198 H203 0.929 . S
C199 C198 1.457 . S
C199 C200 1.291 . S
C199 H212 0.931 . S
C200 C199 1.291 . S
C200 C201 1.373 . S
C200 H213 0.929 . S
C201 C200 1.373 . S
C201 C202 1.396 . S
C201 C208 1.403 1_565 S
C202 C192 1.469 1_565 S
C202 N197 1.318 . S
C202 C201 1.396 . S
H203 C198 0.929 . S
O204 Mn180 2.385 . S
O204 C182 1.234 . S
O205 Mn180 2.209 . S
O205 Mn181 2.215 . S
O205 C182 1.283 . S
O206 Mn180 2.094 . S
O206 C184 1.240 . S
O207 Mn181 2.117 . S
O207 C184 1.264 . S
C208 C201 1.403 1_545 S
C208 C209 1.399 . S
C208 H214 0.929 . S
C209 C189 1.449 . S
C209 C208 1.399 . S
C209 H215 0.930 . S
H210 C190 0.931 . S
H211 C191 0.930 . S
H212 C199 0.931 . S
H213 C200 0.929 . S
H214 C208 0.929 . S
H215 C209 0.930 . S
Mn216 O221 2.095 . S
Mn216 O231 2.162 . S
Mn216 O232 2.297 . S
Mn216 O240 2.385 . S
Mn216 O241 2.209 . S
Mn216 O242 2.094 . S
Mn217 O222 2.121 . S
Mn217 N224 2.257 . S
Mn217 N233 2.282 . S
Mn217 O241 2.215 . S
Mn217 O243 2.117 . S
C218 O240 1.234 . S
C218 O241 1.283 . S
C219 O231 1.281 . S
C219 O232 1.236 . S
C220 O242 1.240 . S
C220 O243 1.264 . S
O221 Mn216 2.095 . S
O221 C230 1.250 . S
O222 Mn217 2.121 . S
O222 C230 1.258 . S
C223 N224 1.327 1_545 S
C223 C227 1.459 . S
C223 H229 0.930 1_545 S
N224 Mn217 2.257 . S
N224 C223 1.327 1_565 S
N224 C228 1.356 1_565 S
C225 C226 1.258 . S
C225 C228 1.444 . S
C225 C245 1.449 . S
C226 C225 1.258 . S
C226 C227 1.477 . S
C226 H246 0.931 . S
C227 C223 1.459 . S
C227 C226 1.477 . S
C227 H247 0.930 . S
C228 N224 1.356 1_545 S
C228 C225 1.444 . S
C228 C238 1.469 1_545 S
H229 C223 0.930 1_565 S
C230 O221 1.250 . S
C230 O222 1.258 . S
O231 Mn216 2.162 . S
O231 C219 1.281 . S
O232 Mn216 2.297 . S
O232 C219 1.236 . S
N233 Mn217 2.282 . S
N233 C234 1.328 . S
N233 C238 1.318 . S
C234 N233 1.328 . S
C234 C235 1.457 . S
C234 H239 0.929 . S
C235 C234 1.457 . S
C235 C236 1.291 . S
C235 H248 0.931 . S
C236 C235 1.291 . S
C236 C237 1.373 . S
C236 H249 0.929 . S
C237 C236 1.373 . S
C237 C238 1.396 . S
C237 C244 1.403 1_565 S
C238 C228 1.469 1_565 S
C238 N233 1.318 . S
C238 C237 1.396 . S
H239 C234 0.929 . S
O240 Mn216 2.385 . S
O240 C218 1.234 . S
O241 Mn216 2.209 . S
O241 Mn217 2.215 . S
O241 C218 1.283 . S
O242 Mn216 2.094 . S
O242 C220 1.240 . S
O243 Mn217 2.117 . S
O243 C220 1.264 . S
C244 C237 1.403 1_545 S
C244 C245 1.399 . S
C244 H250 0.929 . S
C245 C225 1.449 . S
C245 C244 1.399 . S
C245 H251 0.930 . S
H246 C226 0.931 . S
H247 C227 0.930 . S
H248 C235 0.931 . S
H249 C236 0.929 . S
H250 C244 0.929 . S
H251 C245 0.930 . S
Mn252 O257 2.095 . S
Mn252 O267 2.162 . S
Mn252 O268 2.297 . S
Mn252 O276 2.385 . S
Mn252 O277 2.209 . S
Mn252 O278 2.094 . S
Mn253 O258 2.121 . S
Mn253 N260 2.257 . S
Mn253 N269 2.282 . S
Mn253 O277 2.215 . S
Mn253 O279 2.117 . S
C254 O276 1.234 . S
C254 O277 1.283 . S
C255 O267 1.281 . S
C255 O268 1.236 . S
C256 O278 1.240 . S
C256 O279 1.264 . S
O257 Mn252 2.095 . S
O257 C266 1.250 . S
O258 Mn253 2.121 . S
O258 C266 1.258 . S
C259 N260 1.327 1_565 S
C259 C263 1.459 . S
C259 H265 0.930 1_565 S
N260 Mn253 2.257 . S
N260 C259 1.327 1_545 S
N260 C264 1.356 1_545 S
C261 C262 1.258 . S
C261 C264 1.444 . S
C261 C281 1.449 . S
C262 C261 1.258 . S
C262 C263 1.477 . S
C262 H282 0.931 . S
C263 C259 1.459 . S
C263 C262 1.477 . S
C263 H283 0.930 . S
C264 N260 1.356 1_565 S
C264 C261 1.444 . S
C264 C274 1.469 1_565 S
H265 C259 0.930 1_545 S
C266 O257 1.250 . S
C266 O258 1.258 . S
O267 Mn252 2.162 . S
O267 C255 1.281 . S
O268 Mn252 2.297 . S
O268 C255 1.236 . S
N269 Mn253 2.282 . S
N269 C270 1.328 . S
N269 C274 1.318 . S
C270 N269 1.328 . S
C270 C271 1.457 . S
C270 H275 0.929 . S
C271 C270 1.457 . S
C271 C272 1.291 . S
C271 H284 0.931 . S
C272 C271 1.291 . S
C272 C273 1.373 . S
C272 H285 0.929 . S
C273 C272 1.373 . S
C273 C274 1.396 . S
C273 C280 1.403 1_545 S
C274 C264 1.469 1_545 S
C274 N269 1.318 . S
C274 C273 1.396 . S
H275 C270 0.929 . S
O276 Mn252 2.385 . S
O276 C254 1.234 . S
O277 Mn252 2.209 . S
O277 Mn253 2.215 . S
O277 C254 1.283 . S
O278 Mn252 2.094 . S
O278 C256 1.240 . S
O279 Mn253 2.117 . S
O279 C256 1.264 . S
C280 C273 1.403 1_565 S
C280 C281 1.399 . S
C280 H286 0.929 . S
C281 C261 1.449 . S
C281 C280 1.399 . S
C281 H287 0.930 . S
H282 C262 0.931 . S
H283 C263 0.930 . S
H284 C271 0.931 . S
H285 C272 0.929 . S
H286 C280 0.929 . S
H287 C281 0.930 . S
Mn288 O293 2.095 . S
Mn288 O303 2.162 . S
Mn288 O304 2.297 . S
Mn288 O312 2.385 . S
Mn288 O313 2.209 . S
Mn288 O314 2.094 . S
Mn289 O294 2.121 . S
Mn289 N296 2.257 . S
Mn289 N305 2.282 . S
Mn289 O313 2.215 . S
Mn289 O315 2.117 . S
C290 O312 1.234 . S
C290 O313 1.283 . S
C291 O303 1.281 . S
C291 O304 1.236 . S
C292 O314 1.240 . S
C292 O315 1.264 . S
O293 Mn288 2.095 . S
O293 C302 1.250 . S
O294 Mn289 2.121 . S
O294 C302 1.258 . S
C295 N296 1.327 1_556 S
C295 C299 1.459 . S
C295 H301 0.930 1_556 S
N296 Mn289 2.257 . S
N296 C295 1.327 1_554 S
N296 C300 1.356 1_554 S
C297 C298 1.258 . S
C297 C300 1.444 . S
C297 C317 1.449 . S
C298 C297 1.258 . S
C298 C299 1.477 . S
C298 H318 0.931 . S
C299 C295 1.459 . S
C299 C298 1.477 . S
C299 H319 0.930 . S
C300 N296 1.356 1_556 S
C300 C297 1.444 . S
C300 C310 1.469 1_556 S
H301 C295 0.930 1_554 S
C302 O293 1.250 . S
C302 O294 1.258 . S
O303 Mn288 2.162 . S
O303 C291 1.281 . S
O304 Mn288 2.297 . S
O304 C291 1.236 . S
N305 Mn289 2.282 . S
N305 C306 1.328 . S
N305 C310 1.318 . S
C306 N305 1.328 . S
C306 C307 1.457 . S
C306 H311 0.929 . S
C307 C306 1.457 . S
C307 C308 1.291 . S
C307 H320 0.931 . S
C308 C307 1.291 . S
C308 C309 1.373 . S
C308 H321 0.929 . S
C309 C308 1.373 . S
C309 C310 1.396 . S
C309 C316 1.403 1_554 S
C310 C300 1.469 1_554 S
C310 N305 1.318 . S
C310 C309 1.396 . S
H311 C306 0.929 . S
O312 Mn288 2.385 . S
O312 C290 1.234 . S
O313 Mn288 2.209 . S
O313 Mn289 2.215 . S
O313 C290 1.283 . S
O314 Mn288 2.094 . S
O314 C292 1.240 . S
O315 Mn289 2.117 . S
O315 C292 1.264 . S
C316 C309 1.403 1_556 S
C316 C317 1.399 . S
C316 H322 0.929 . S
C317 C297 1.449 . S
C317 C316 1.399 . S
C317 H323 0.930 . S
H318 C298 0.931 . S
H319 C299 0.930 . S
H320 C307 0.931 . S
H321 C308 0.929 . S
H322 C316 0.929 . S
H323 C317 0.930 . S
Mn324 O329 2.095 . S
Mn324 O339 2.162 . S
Mn324 O340 2.297 . S
Mn324 O348 2.385 . S
Mn324 O349 2.209 . S
Mn324 O350 2.094 . S
Mn325 O330 2.121 . S
Mn325 N332 2.257 . S
Mn325 N341 2.282 . S
Mn325 O349 2.215 . S
Mn325 O351 2.117 . S
C326 O348 1.234 . S
C326 O349 1.283 . S
C327 O339 1.281 . S
C327 O340 1.236 . S
C328 O350 1.240 . S
C328 O351 1.264 . S
O329 Mn324 2.095 . S
O329 C338 1.250 . S
O330 Mn325 2.121 . S
O330 C338 1.258 . S
C331 N332 1.327 1_554 S
C331 C335 1.459 . S
C331 H337 0.930 1_554 S
N332 Mn325 2.257 . S
N332 C331 1.327 1_556 S
N332 C336 1.356 1_556 S
C333 C334 1.258 . S
C333 C336 1.444 . S
C333 C353 1.449 . S
C334 C333 1.258 . S
C334 C335 1.477 . S
C334 H354 0.931 . S
C335 C331 1.459 . S
C335 C334 1.477 . S
C335 H355 0.930 . S
C336 N332 1.356 1_554 S
C336 C333 1.444 . S
C336 C346 1.469 1_554 S
H337 C331 0.930 1_556 S
C338 O329 1.250 . S
C338 O330 1.258 . S
O339 Mn324 2.162 . S
O339 C327 1.281 . S
O340 Mn324 2.297 . S
O340 C327 1.236 . S
N341 Mn325 2.282 . S
N341 C342 1.328 . S
N341 C346 1.318 . S
C342 N341 1.328 . S
C342 C343 1.457 . S
C342 H347 0.929 . S
C343 C342 1.457 . S
C343 C344 1.291 . S
C343 H356 0.931 . S
C344 C343 1.291 . S
C344 C345 1.373 . S
C344 H357 0.929 . S
C345 C344 1.373 . S
C345 C346 1.396 . S
C345 C352 1.403 1_556 S
C346 C336 1.469 1_556 S
C346 N341 1.318 . S
C346 C345 1.396 . S
H347 C342 0.929 . S
O348 Mn324 2.385 . S
O348 C326 1.234 . S
O349 Mn324 2.209 . S
O349 Mn325 2.215 . S
O349 C326 1.283 . S
O350 Mn324 2.094 . S
O350 C328 1.240 . S
O351 Mn325 2.117 . S
O351 C328 1.264 . S
C352 C345 1.403 1_554 S
C352 C353 1.399 . S
C352 H358 0.929 . S
C353 C333 1.449 . S
C353 C352 1.399 . S
C353 H359 0.930 . S
H354 C334 0.931 . S
H355 C335 0.930 . S
H356 C343 0.931 . S
H357 C344 0.929 . S
H358 C352 0.929 . S
H359 C353 0.930 . S
Mn360 O365 2.095 . S
Mn360 O375 2.162 . S
Mn360 O376 2.297 . S
Mn360 O384 2.385 . S
Mn360 O385 2.209 . S
Mn360 O386 2.094 . S
Mn361 O366 2.121 . S
Mn361 N368 2.257 . S
Mn361 N377 2.282 . S
Mn361 O385 2.215 . S
Mn361 O387 2.117 . S
C362 O384 1.234 . S
C362 O385 1.283 . S
C363 O375 1.281 . S
C363 O376 1.236 . S
C364 O386 1.240 . S
C364 O387 1.264 . S
O365 Mn360 2.095 . S
O365 C374 1.250 . S
O366 Mn361 2.121 . S
O366 C374 1.258 . S
C367 N368 1.327 1_554 S
C367 C371 1.459 . S
C367 H373 0.930 1_554 S
N368 Mn361 2.257 . S
N368 C367 1.327 1_556 S
N368 C372 1.356 1_556 S
C369 C370 1.258 . S
C369 C372 1.444 . S
C369 C389 1.449 . S
C370 C369 1.258 . S
C370 C371 1.477 . S
C370 H390 0.931 . S
C371 C367 1.459 . S
C371 C370 1.477 . S
C371 H391 0.930 . S
C372 N368 1.356 1_554 S
C372 C369 1.444 . S
C372 C382 1.469 1_554 S
H373 C367 0.930 1_556 S
C374 O365 1.250 . S
C374 O366 1.258 . S
O375 Mn360 2.162 . S
O375 C363 1.281 . S
O376 Mn360 2.297 . S
O376 C363 1.236 . S
N377 Mn361 2.282 . S
N377 C378 1.328 . S
N377 C382 1.318 . S
C378 N377 1.328 . S
C378 C379 1.457 . S
C378 H383 0.929 . S
C379 C378 1.457 . S
C379 C380 1.291 . S
C379 H392 0.931 . S
C380 C379 1.291 . S
C380 C381 1.373 . S
C380 H393 0.929 . S
C381 C380 1.373 . S
C381 C382 1.396 . S
C381 C388 1.403 1_556 S
C382 C372 1.469 1_556 S
C382 N377 1.318 . S
C382 C381 1.396 . S
H383 C378 0.929 . S
O384 Mn360 2.385 . S
O384 C362 1.234 . S
O385 Mn360 2.209 . S
O385 Mn361 2.215 . S
O385 C362 1.283 . S
O386 Mn360 2.094 . S
O386 C364 1.240 . S
O387 Mn361 2.117 . S
O387 C364 1.264 . S
C388 C381 1.403 1_554 S
C388 C389 1.399 . S
C388 H394 0.929 . S
C389 C369 1.449 . S
C389 C388 1.399 . S
C389 H395 0.930 . S
H390 C370 0.931 . S
H391 C371 0.930 . S
H392 C379 0.931 . S
H393 C380 0.929 . S
H394 C388 0.929 . S
H395 C389 0.930 . S
Mn396 O401 2.095 . S
Mn396 O411 2.162 . S
Mn396 O412 2.297 . S
Mn396 O420 2.385 . S
Mn396 O421 2.209 . S
Mn396 O422 2.094 . S
Mn397 O402 2.121 . S
Mn397 N404 2.257 . S
Mn397 N413 2.282 . S
Mn397 O421 2.215 . S
Mn397 O423 2.117 . S
C398 O420 1.234 . S
C398 O421 1.283 . S
C399 O411 1.281 . S
C399 O412 1.236 . S
C400 O422 1.240 . S
C400 O423 1.264 . S
O401 Mn396 2.095 . S
O401 C410 1.250 . S
O402 Mn397 2.121 . S
O402 C410 1.258 . S
C403 N404 1.327 1_556 S
C403 C407 1.459 . S
C403 H409 0.930 1_556 S
N404 Mn397 2.257 . S
N404 C403 1.327 1_554 S
N404 C408 1.356 1_554 S
C405 C406 1.258 . S
C405 C408 1.444 . S
C405 C425 1.449 . S
C406 C405 1.258 . S
C406 C407 1.477 . S
C406 H426 0.931 . S
C407 C403 1.459 . S
C407 C406 1.477 . S
C407 H427 0.930 . S
C408 N404 1.356 1_556 S
C408 C405 1.444 . S
C408 C418 1.469 1_556 S
H409 C403 0.930 1_554 S
C410 O401 1.250 . S
C410 O402 1.258 . S
O411 Mn396 2.162 . S
O411 C399 1.281 . S
O412 Mn396 2.297 . S
O412 C399 1.236 . S
N413 Mn397 2.282 . S
N413 C414 1.328 . S
N413 C418 1.318 . S
C414 N413 1.328 . S
C414 C415 1.457 . S
C414 H419 0.929 . S
C415 C414 1.457 . S
C415 C416 1.291 . S
C415 H428 0.931 . S
C416 C415 1.291 . S
C416 C417 1.373 . S
C416 H429 0.929 . S
C417 C416 1.373 . S
C417 C418 1.396 . S
C417 C424 1.403 1_554 S
C418 C408 1.469 1_554 S
C418 N413 1.318 . S
C418 C417 1.396 . S
H419 C414 0.929 . S
O420 Mn396 2.385 . S
O420 C398 1.234 . S
O421 Mn396 2.209 . S
O421 Mn397 2.215 . S
O421 C398 1.283 . S
O422 Mn396 2.094 . S
O422 C400 1.240 . S
O423 Mn397 2.117 . S
O423 C400 1.264 . S
C424 C417 1.403 1_556 S
C424 C425 1.399 . S
C424 H430 0.929 . S
C425 C405 1.449 . S
C425 C424 1.399 . S
C425 H431 0.930 . S
H426 C406 0.931 . S
H427 C407 0.930 . S
H428 C415 0.931 . S
H429 C416 0.929 . S
H430 C424 0.929 . S
H431 C425 0.930 . S
H432 C450 0.951 . S
H433 C452 0.951 . S
H434 C454 0.950 . S
H435 C455 0.950 . S
H436 C457 0.950 . S
H437 C460 0.950 . S
H438 C461 0.950 . S
H439 C463 0.950 1_455 S
H440 C464 0.950 . S
H441 C465 0.951 . S
H442 C467 0.951 . S
H443 C469 0.950 . S
H444 C470 0.950 . S
H445 C472 0.950 . S
H446 C475 0.950 . S
H447 C476 0.950 . S
H448 C478 0.950 1_655 S
H449 C479 0.950 . S
C450 H432 0.951 . S
C450 C451 1.366 . S
C450 C452 1.388 . S
C451 C450 1.366 . S
C451 C455 1.385 . S
C452 H433 0.951 . S
C452 C450 1.388 . S
C452 C453 1.366 . S
C453 C452 1.366 . S
C453 C454 1.414 . S
C453 C456 1.499 . S
C454 H434 0.950 . S
C454 C453 1.414 . S
C454 C455 1.374 . S
C455 H435 0.950 . S
C455 C451 1.385 . S
C455 C454 1.374 . S
C456 C453 1.499 . S
C456 C457 1.373 . S
C456 C458 1.389 . S
C457 H436 0.950 . S
C457 C456 1.373 . S
C457 C473 1.377 1_655 S
C458 C456 1.389 . S
C458 C459 1.524 . S
C458 C472 1.377 1_655 S
C459 C458 1.524 . S
C459 C460 1.397 . S
C459 C464 1.363 1_655 S
C460 H437 0.950 . S
C460 C459 1.397 . S
C460 C461 1.334 . S
C461 H438 0.950 . S
C461 C460 1.334 . S
C461 C462 1.287 . S
C462 C461 1.287 . S
C462 C463 1.524 . S
C462 H481 0.913 . S
C463 H439 0.950 1_655 S
C463 C462 1.524 . S
C463 C464 1.415 1_655 S
C464 H440 0.950 . S
C464 C459 1.363 1_455 S
C464 C463 1.415 1_455 S
C465 H441 0.951 . S
C465 C466 1.366 . S
C465 C467 1.388 . S
C466 C465 1.366 . S
C466 C470 1.385 . S
C467 H442 0.951 . S
C467 C465 1.388 . S
C467 C468 1.366 . S
C468 C467 1.366 . S
C468 C469 1.414 . S
C468 C471 1.499 . S
C469 H443 0.950 . S
C469 C468 1.414 . S
C469 C470 1.374 . S
C470 H444 0.950 . S
C470 C466 1.385 . S
C470 C469 1.374 . S
C471 C468 1.499 . S
C471 C472 1.373 . S
C471 C473 1.389 . S
C472 H445 0.950 . S
C472 C458 1.377 1_455 S
C472 C471 1.373 . S
C473 C457 1.377 1_455 S
C473 C471 1.389 . S
C473 C474 1.524 . S
C474 C473 1.524 . S
C474 C475 1.397 . S
C474 C479 1.363 1_455 S
C475 H446 0.950 . S
C475 C474 1.397 . S
C475 C476 1.334 . S
C476 H447 0.950 . S
C476 C475 1.334 . S
C476 C477 1.287 . S
C477 C476 1.287 . S
C477 C478 1.524 . S
C477 H480 0.999 . S
C478 H448 0.950 1_455 S
C478 C477 1.524 . S
C478 C479 1.415 1_455 S
C479 H449 0.950 . S
C479 C474 1.363 1_655 S
C479 C478 1.415 1_655 S
H480 C477 0.999 . S
H481 C462 0.913 . S
H482 C500 0.951 . S
H483 C502 0.951 . S
H484 C504 0.950 . S
H485 C505 0.950 . S
H486 C507 0.950 . S
H487 C510 0.914 1_455 S
H488 C511 0.950 . S
H489 C513 0.950 . S
H490 C514 0.950 . S
H491 C515 0.951 . S
H492 C517 0.951 . S
H493 C519 0.950 . S
H494 C520 0.950 . S
H495 C522 0.950 . S
H496 C525 0.914 1_655 S
H497 C526 0.950 . S
H498 C528 0.950 . S
H499 C529 0.950 . S
C500 H482 0.951 . S
C500 C501 1.366 . S
C500 C502 1.388 . S
C501 C500 1.366 . S
C501 C505 1.385 . S
C502 H483 0.951 . S
C502 C500 1.388 . S
C502 C503 1.366 . S
C503 C502 1.366 . S
C503 C504 1.414 . S
C503 C506 1.499 . S
C504 H484 0.950 . S
C504 C503 1.414 . S
C504 C505 1.374 . S
C505 H485 0.950 . S
C505 C501 1.385 . S
C505 C504 1.374 . S
C506 C503 1.499 . S
C506 C507 1.373 . S
C506 C508 1.389 1_455 S
C507 H486 0.950 . S
C507 C506 1.373 . S
C507 C523 1.377 . S
C508 C506 1.389 1_655 S
C508 C509 1.524 . S
C508 C522 1.377 . S
C509 C508 1.524 . S
C509 C510 1.397 . S
C509 C514 1.363 . S
C510 H487 0.914 1_655 S
C510 C509 1.397 . S
C510 C511 1.334 . S
C511 H488 0.950 . S
C511 C510 1.334 . S
C511 C512 1.287 . S
C512 C511 1.287 . S
C512 C513 1.524 . S
C512 H531 0.913 . S
C513 H489 0.950 . S
C513 C512 1.524 . S
C513 C514 1.415 . S
C514 H490 0.950 . S
C514 C509 1.363 . S
C514 C513 1.415 . S
C515 H491 0.951 . S
C515 C516 1.366 . S
C515 C517 1.388 . S
C516 C515 1.366 . S
C516 C520 1.385 . S
C517 H492 0.951 . S
C517 C515 1.388 . S
C517 C518 1.366 . S
C518 C517 1.366 . S
C518 C519 1.414 . S
C518 C521 1.499 . S
C519 H493 0.950 . S
C519 C518 1.414 . S
C519 C520 1.374 . S
C520 H494 0.950 . S
C520 C516 1.385 . S
C520 C519 1.374 . S
C521 C518 1.499 . S
C521 C522 1.373 . S
C521 C523 1.389 1_655 S
C522 H495 0.950 . S
C522 C508 1.377 . S
C522 C521 1.373 . S
C523 C507 1.377 . S
C523 C521 1.389 1_455 S
C523 C524 1.524 . S
C524 C523 1.524 . S
C524 C525 1.397 . S
C524 C529 1.363 . S
C525 H496 0.914 1_455 S
C525 C524 1.397 . S
C525 C526 1.334 . S
C526 H497 0.950 . S
C526 C525 1.334 . S
C526 C527 1.287 . S
C527 C526 1.287 . S
C527 C528 1.524 . S
C527 H530 0.999 . S
C528 H498 0.950 . S
C528 C527 1.524 . S
C528 C529 1.415 . S
C529 H499 0.950 . S
C529 C524 1.363 . S
C529 C528 1.415 . S
H530 C527 0.999 . S
H531 C512 0.913 . S
H532 C550 0.951 . S
H533 C552 0.951 . S
H534 C554 0.950 . S
H535 C555 0.950 . S
H536 C557 0.950 . S
H537 C560 0.950 . S
H538 C561 0.950 . S
H539 C563 0.950 . S
H540 C564 0.950 . S
H541 C565 0.951 . S
H542 C567 0.951 . S
H543 C569 0.950 . S
H544 C570 0.950 . S
H545 C572 0.950 . S
H546 C575 0.950 . S
H547 C576 0.950 . S
H548 C578 0.950 . S
H549 C579 0.950 . S
C550 H532 0.951 . S
C550 C551 1.366 . S
C550 C552 1.388 . S
C551 C550 1.366 . S
C551 C555 1.385 . S
C552 H533 0.951 . S
C552 C550 1.388 . S
C552 C553 1.366 . S
C553 C552 1.366 . S
C553 C554 1.414 . S
C553 C556 1.499 . S
C554 H534 0.950 . S
C554 C553 1.414 . S
C554 C555 1.374 . S
C555 H535 0.950 . S
C555 C551 1.385 . S
C555 C554 1.374 . S
C556 C553 1.499 . S
C556 C557 1.390 . S
C556 C558 1.389 . S
C557 H536 0.950 . S
C557 C556 1.390 . S
C557 C573 1.360 1_565 S
C558 C556 1.389 . S
C558 C559 1.524 . S
C558 C572 1.360 1_565 S
C559 C558 1.524 . S
C559 C560 1.397 . S
C559 C564 1.363 . S
C560 H537 0.950 . S
C560 C559 1.397 . S
C560 C561 1.334 . S
C561 H538 0.950 . S
C561 C560 1.334 . S
C561 C562 1.287 . S
C562 C561 1.287 . S
C562 C563 1.524 . S
C562 H581 0.913 . S
C563 H539 0.950 . S
C563 C562 1.524 . S
C563 C564 1.415 . S
C564 H540 0.950 . S
C564 C559 1.363 . S
C564 C563 1.415 . S
C565 H541 0.951 . S
C565 C566 1.366 . S
C565 C567 1.388 . S
C566 C565 1.366 . S
C566 C570 1.385 . S
C567 H542 0.951 . S
C567 C565 1.388 . S
C567 C568 1.366 . S
C568 C567 1.366 . S
C568 C569 1.414 . S
C568 C571 1.499 . S
C569 H543 0.950 . S
C569 C568 1.414 . S
C569 C570 1.374 . S
C570 H544 0.950 . S
C570 C566 1.385 . S
C570 C569 1.374 . S
C571 C568 1.499 . S
C571 C572 1.390 . S
C571 C573 1.389 . S
C572 H545 0.950 . S
C572 C558 1.360 1_545 S
C572 C571 1.390 . S
C573 C557 1.360 1_545 S
C573 C571 1.389 . S
C573 C574 1.524 . S
C574 C573 1.524 . S
C574 C575 1.397 . S
C574 C579 1.363 . S
C575 H546 0.950 . S
C575 C574 1.397 . S
C575 C576 1.334 . S
C576 H547 0.950 . S
C576 C575 1.334 . S
C576 C577 1.287 . S
C577 C576 1.287 . S
C577 C578 1.524 . S
C577 H580 0.999 . S
C578 H548 0.950 . S
C578 C577 1.524 . S
C578 C579 1.415 . S
C579 H549 0.950 . S
C579 C574 1.363 . S
C579 C578 1.415 . S
H580 C577 0.999 . S
H581 C562 0.913 . S
H582 C600 0.951 . S
H583 C602 0.951 . S
H584 C604 0.950 . S
H585 C605 0.950 . S
H586 C607 0.950 . S
H587 C610 0.950 . S
H588 C611 0.950 . S
H589 C613 0.950 . S
H590 C614 0.950 . S
H591 C615 0.951 . S
H592 C617 0.951 . S
H593 C619 0.950 . S
H594 C620 0.950 . S
H595 C622 0.950 . S
H596 C625 0.950 . S
H597 C626 0.950 . S
H598 C628 0.950 . S
H599 C629 0.950 . S
C600 H582 0.951 . S
C600 C601 1.366 . S
C600 C602 1.388 . S
C601 C600 1.366 . S
C601 C605 1.385 . S
C602 H583 0.951 . S
C602 C600 1.388 . S
C602 C603 1.366 . S
C603 C602 1.366 . S
C603 C604 1.414 . S
C603 C606 1.499 . S
C604 H584 0.950 . S
C604 C603 1.414 . S
C604 C605 1.374 . S
C605 H585 0.950 . S
C605 C601 1.385 . S
C605 C604 1.374 . S
C606 C603 1.499 . S
C606 C607 1.373 1_565 S
C606 C608 1.389 . S
C607 H586 0.950 . S
C607 C606 1.373 1_545 S
C607 C623 1.377 . S
C608 C606 1.389 . S
C608 C609 1.524 . S
C608 C622 1.377 . S
C609 C608 1.524 . S
C609 C610 1.397 . S
C609 C614 1.363 . S
C610 H587 0.950 . S
C610 C609 1.397 . S
C610 C611 1.334 . S
C611 H588 0.950 . S
C611 C610 1.334 . S
C611 C612 1.287 . S
C612 C611 1.287 . S
C612 C613 1.524 . S
C612 H631 0.913 . S
C613 H589 0.950 . S
C613 C612 1.524 . S
C613 C614 1.415 . S
C614 H590 0.950 . S
C614 C609 1.363 . S
C614 C613 1.415 . S
C615 H591 0.951 . S
C615 C616 1.366 . S
C615 C617 1.388 . S
C616 C615 1.366 . S
C616 C620 1.385 . S
C617 H592 0.951 . S
C617 C615 1.388 . S
C617 C618 1.366 . S
C618 C617 1.366 . S
C618 C619 1.414 . S
C618 C621 1.499 . S
C619 H593 0.950 . S
C619 C618 1.414 . S
C619 C620 1.374 . S
C620 H594 0.950 . S
C620 C616 1.385 . S
C620 C619 1.374 . S
C621 C618 1.499 . S
C621 C622 1.373 1_545 S
C621 C623 1.389 . S
C622 H595 0.950 . S
C622 C608 1.377 . S
C622 C621 1.373 1_565 S
C623 C607 1.377 . S
C623 C621 1.389 . S
C623 C624 1.524 . S
C624 C623 1.524 . S
C624 C625 1.397 . S
C624 C629 1.363 . S
C625 H596 0.950 . S
C625 C624 1.397 . S
C625 C626 1.334 . S
C626 H597 0.950 . S
C626 C625 1.334 . S
C626 C627 1.287 . S
C627 C626 1.287 . S
C627 C628 1.524 . S
C627 H630 0.999 . S
C628 H598 0.950 . S
C628 C627 1.524 . S
C628 C629 1.415 . S
C629 H599 0.950 . S
C629 C624 1.363 . S
C629 C628 1.415 . S
H630 C627 0.999 . S
H631 C612 0.913 . S
H632 C650 0.951 . S
H633 C652 0.951 . S
H634 C654 0.950 . S
H635 C655 0.950 . S
H636 C657 0.950 . S
H637 C660 0.950 . S
H638 C661 0.950 . S
H639 C663 0.950 . S
H640 C664 0.950 . S
H641 C665 0.951 . S
H642 C667 0.951 . S
H643 C669 0.950 . S
H644 C670 0.950 . S
H645 C672 0.950 . S
H646 C675 0.950 . S
H647 C676 0.950 . S
H648 C678 0.950 . S
H649 C679 0.950 . S
C650 H632 0.951 . S
C650 C651 1.366 . S
C650 C652 1.388 . S
C651 C650 1.366 . S
C651 C655 1.385 . S
C652 H633 0.951 . S
C652 C650 1.388 . S
C652 C653 1.366 . S
C653 C652 1.366 . S
C653 C654 1.414 . S
C653 C656 1.499 . S
C654 H634 0.950 . S
C654 C653 1.414 . S
C654 C655 1.374 . S
C655 H635 0.950 . S
C655 C651 1.385 . S
C655 C654 1.374 . S
C656 C653 1.499 . S
C656 C657 1.373 . S
C656 C658 1.389 . S
C657 H636 0.950 . S
C657 C656 1.373 . S
C657 C673 1.377 1_556 S
C658 C656 1.389 . S
C658 C659 1.524 . S
C658 C672 1.377 1_556 S
C659 C658 1.524 . S
C659 C660 1.397 . S
C659 C664 1.363 . S
C660 H637 0.950 . S
C660 C659 1.397 . S
C660 C661 1.334 . S
C661 H638 0.950 . S
C661 C660 1.334 . S
C661 C662 1.287 . S
C662 C661 1.287 . S
C662 C663 1.524 . S
C662 H681 0.913 . S
C663 H639 0.950 . S
C663 C662 1.524 . S
C663 C664 1.415 . S
C664 H640 0.950 . S
C664 C659 1.363 . S
C664 C663 1.415 . S
C665 H641 0.951 . S
C665 C666 1.366 . S
C665 C667 1.388 . S
C666 C665 1.366 . S
C666 C670 1.385 . S
C667 H642 0.951 . S
C667 C665 1.388 . S
C667 C668 1.366 . S
C668 C667 1.366 . S
C668 C669 1.414 . S
C668 C671 1.499 . S
C669 H643 0.950 . S
C669 C668 1.414 . S
C669 C670 1.374 . S
C670 H644 0.950 . S
C670 C666 1.385 . S
C670 C669 1.374 . S
C671 C668 1.499 . S
C671 C672 1.373 . S
C671 C673 1.389 . S
C672 H645 0.950 . S
C672 C658 1.377 1_554 S
C672 C671 1.373 . S
C673 C657 1.377 1_554 S
C673 C671 1.389 . S
C673 C674 1.524 . S
C674 C673 1.524 . S
C674 C675 1.397 . S
C674 C679 1.363 . S
C675 H646 0.950 . S
C675 C674 1.397 . S
C675 C676 1.334 . S
C676 H647 0.950 . S
C676 C675 1.334 . S
C676 C677 1.287 . S
C677 C676 1.287 . S
C677 C678 1.524 . S
C677 H680 0.999 . S
C678 H648 0.950 . S
C678 C677 1.524 . S
C678 C679 1.415 . S
C679 H649 0.950 . S
C679 C674 1.363 . S
C679 C678 1.415 . S
H680 C677 0.999 . S
H681 C662 0.913 . S
H682 C700 0.951 . S
H683 C702 0.951 . S
H684 C704 0.950 . S
H685 C705 0.950 . S
H686 C707 0.950 . S
H687 C710 0.950 . S
H688 C711 0.950 . S
H689 C713 0.950 . S
H690 C714 0.947 1_556 S
H691 C715 0.951 . S
H692 C717 0.951 . S
H693 C719 0.950 . S
H694 C720 0.950 . S
H695 C722 0.950 . S
H696 C725 0.950 . S
H697 C726 0.950 . S
H698 C728 0.950 . S
H699 C729 0.947 1_554 S
C700 H682 0.951 . S
C700 C701 1.366 . S
C700 C702 1.388 . S
C701 C700 1.366 . S
C701 C705 1.385 . S
C702 H683 0.951 . S
C702 C700 1.388 . S
C702 C703 1.366 . S
C703 C702 1.366 . S
C703 C704 1.414 . S
C703 C706 1.499 . S
C704 H684 0.950 . S
C704 C703 1.414 . S
C704 C705 1.374 . S
C705 H685 0.950 . S
C705 C701 1.385 . S
C705 C704 1.374 . S
C706 C703 1.499 . S
C706 C707 1.373 . S
C706 C708 1.389 1_556 S
C707 H686 0.950 . S
C707 C706 1.373 . S
C707 C723 1.377 . S
C708 C706 1.389 1_554 S
C708 C709 1.524 . S
C708 C722 1.377 . S
C709 C708 1.524 . S
C709 C710 1.397 . S
C709 C714 1.363 . S
C710 H687 0.950 . S
C710 C709 1.397 . S
C710 C711 1.334 . S
C711 H688 0.950 . S
C711 C710 1.334 . S
C711 C712 1.287 . S
C712 C711 1.287 . S
C712 C713 1.524 . S
C712 H731 0.913 . S
C713 H689 0.950 . S
C713 C712 1.524 . S
C713 C714 1.415 . S
C714 H690 0.947 1_554 S
C714 C709 1.363 . S
C714 C713 1.415 . S
C715 H691 0.951 . S
C715 C716 1.366 . S
C715 C717 1.388 . S
C716 C715 1.366 . S
C716 C720 1.385 . S
C717 H692 0.951 . S
C717 C715 1.388 . S
C717 C718 1.366 . S
C718 C717 1.366 . S
C718 C719 1.414 . S
C718 C721 1.499 . S
C719 H693 0.950 . S
C719 C718 1.414 . S
C719 C720 1.374 . S
C720 H694 0.950 . S
C720 C716 1.385 . S
C720 C719 1.374 . S
C721 C718 1.499 . S
C721 C722 1.373 . S
C721 C723 1.389 1_554 S
C722 H695 0.950 . S
C722 C708 1.377 . S
C722 C721 1.373 . S
C723 C707 1.377 . S
C723 C721 1.389 1_556 S
C723 C724 1.524 . S
C724 C723 1.524 . S
C724 C725 1.397 . S
C724 C729 1.363 . S
C725 H696 0.950 . S
C725 C724 1.397 . S
C725 C726 1.334 . S
C726 H697 0.950 . S
C726 C725 1.334 . S
C726 C727 1.287 . S
C727 C726 1.287 . S
C727 C728 1.524 . S
C727 H730 0.999 . S
C728 H698 0.950 . S
C728 C727 1.524 . S
C728 C729 1.415 . S
C729 H699 0.947 1_556 S
C729 C724 1.363 . S
C729 C728 1.415 . S
H730 C727 0.999 . S
H731 C712 0.913 . S
H732 C750 0.951 . S
H733 C752 0.951 . S
H734 C754 0.950 . S
H735 C755 0.950 . S
H736 C757 0.950 . S
H737 C760 0.950 . S
H738 C761 0.950 . S
H739 C763 0.950 . S
H740 C764 0.950 . S
H741 C765 0.951 . S
H742 C767 0.951 . S
H743 C769 0.950 . S
H744 C770 0.950 . S
H745 C772 0.950 . S
H746 C775 0.950 . S
H747 C776 0.950 . S
H748 C778 0.950 . S
H749 C779 0.950 . S
C750 H732 0.951 . S
C750 C751 1.366 . S
C750 C752 1.388 . S
C751 C750 1.366 . S
C751 C755 1.385 . S
C752 H733 0.951 . S
C752 C750 1.388 . S
C752 C753 1.366 . S
C753 C752 1.366 . S
C753 C754 1.414 . S
C753 C756 1.499 . S
C754 H734 0.950 . S
C754 C753 1.414 . S
C754 C755 1.374 . S
C755 H735 0.950 . S
C755 C751 1.385 . S
C755 C754 1.374 . S
C756 C753 1.499 . S
C756 C757 1.373 . S
C756 C758 1.389 . S
C757 H736 0.950 . S
C757 C756 1.373 . S
C757 C773 1.377 . S
C758 C756 1.389 . S
C758 C759 1.524 . S
C758 C772 1.377 . S
C759 C758 1.524 . S
C759 C760 1.397 . S
C759 C764 1.363 . S
C760 H737 0.950 . S
C760 C759 1.397 . S
C760 C761 1.334 . S
C761 H738 0.950 . S
C761 C760 1.334 . S
C761 C762 1.287 . S
C762 C761 1.287 . S
C762 C763 1.524 . S
C762 H781 0.913 . S
C763 H739 0.950 . S
C763 C762 1.524 . S
C763 C764 1.415 . S
C764 H740 0.950 . S
C764 C759 1.363 . S
C764 C763 1.415 . S
C765 H741 0.951 . S
C765 C766 1.366 . S
C765 C767 1.388 . S
C766 C765 1.366 . S
C766 C770 1.385 . S
C767 H742 0.951 . S
C767 C765 1.388 . S
C767 C768 1.366 . S
C768 C767 1.366 . S
C768 C769 1.414 . S
C768 C771 1.499 . S
C769 H743 0.950 . S
C769 C768 1.414 . S
C769 C770 1.374 . S
C770 H744 0.950 . S
C770 C766 1.385 . S
C770 C769 1.374 . S
C771 C768 1.499 . S
C771 C772 1.373 . S
C771 C773 1.389 . S
C772 H745 0.950 . S
C772 C758 1.377 . S
C772 C771 1.373 . S
C773 C757 1.377 . S
C773 C771 1.389 . S
C773 C774 1.524 . S
C774 C773 1.524 . S
C774 C775 1.397 . S
C774 C779 1.363 . S
C775 H746 0.950 . S
C775 C774 1.397 . S
C775 C776 1.334 . S
C776 H747 0.950 . S
C776 C775 1.334 . S
C776 C777 1.287 . S
C777 C776 1.287 . S
C777 C778 1.524 . S
C777 H780 0.999 . S
C778 H748 0.950 . S
C778 C777 1.524 . S
C778 C779 1.415 . S
C779 H749 0.950 . S
C779 C774 1.363 . S
C779 C778 1.415 . S
H780 C777 0.999 . S
H781 C762 0.913 . S
H782 C800 0.951 . S
H783 C802 0.951 . S
H784 C804 0.950 . S
H785 C805 0.950 . S
H786 C807 0.950 . S
H787 C810 0.950 . S
H788 C811 0.950 . S
H789 C813 0.950 . S
H790 C814 0.950 . S
H791 C815 0.951 . S
H792 C817 0.951 . S
H793 C819 0.950 . S
H794 C820 0.950 . S
H795 C822 0.950 . S
H796 C825 0.950 . S
H797 C826 0.950 . S
H798 C828 0.950 . S
H799 C829 0.950 . S
C800 H782 0.951 . S
C800 C801 1.366 . S
C800 C802 1.388 . S
C801 C800 1.366 . S
C801 C805 1.385 . S
C802 H783 0.951 . S
C802 C800 1.388 . S
C802 C803 1.366 . S
C803 C802 1.366 . S
C803 C804 1.414 . S
C803 C806 1.499 . S
C804 H784 0.950 . S
C804 C803 1.414 . S
C804 C805 1.374 . S
C805 H785 0.950 . S
C805 C801 1.385 . S
C805 C804 1.374 . S
C806 C803 1.499 . S
C806 C807 1.373 . S
C806 C808 1.389 . S
C807 H786 0.950 . S
C807 C806 1.373 . S
C807 C823 1.377 . S
C808 C806 1.389 . S
C808 C809 1.524 . S
C808 C822 1.377 . S
C809 C808 1.524 . S
C809 C810 1.397 . S
C809 C814 1.363 . S
C810 H787 0.950 . S
C810 C809 1.397 . S
C810 C811 1.334 . S
C811 H788 0.950 . S
C811 C810 1.334 . S
C811 C812 1.287 . S
C812 C811 1.287 . S
C812 C813 1.524 . S
C812 H831 0.913 . S
C813 H789 0.950 . S
C813 C812 1.524 . S
C813 C814 1.415 . S
C814 H790 0.950 . S
C814 C809 1.363 . S
C814 C813 1.415 . S
C815 H791 0.951 . S
C815 C816 1.366 . S
C815 C817 1.388 . S
C816 C815 1.366 . S
C816 C820 1.385 . S
C817 H792 0.951 . S
C817 C815 1.388 . S
C817 C818 1.366 . S
C818 C817 1.366 . S
C818 C819 1.414 . S
C818 C821 1.499 . S
C819 H793 0.950 . S
C819 C818 1.414 . S
C819 C820 1.374 . S
C820 H794 0.950 . S
C820 C816 1.385 . S
C820 C819 1.374 . S
C821 C818 1.499 . S
C821 C822 1.373 . S
C821 C823 1.389 . S
C822 H795 0.950 . S
C822 C808 1.377 . S
C822 C821 1.373 . S
C823 C807 1.377 . S
C823 C821 1.389 . S
C823 C824 1.524 . S
C824 C823 1.524 . S
C824 C825 1.397 . S
C824 C829 1.363 . S
C825 H796 0.950 . S
C825 C824 1.397 . S
C825 C826 1.334 . S
C826 H797 0.950 . S
C826 C825 1.334 . S
C826 C827 1.287 . S
C827 C826 1.287 . S
C827 C828 1.524 . S
C827 H830 0.999 . S
C828 H798 0.950 . S
C828 C827 1.524 . S
C828 C829 1.415 . S
C829 H799 0.950 . S
C829 C824 1.363 . S
C829 C828 1.415 . S
H830 C827 0.999 . S
H831 C812 0.913 . S
H832 C850 0.951 . S
H833 C852 0.951 . S
H834 C854 0.950 . S
H835 C855 0.950 . S
H836 C857 0.950 . S
H837 C860 0.950 . S
H838 C861 0.950 . S
H839 C863 0.950 . S
H840 C864 0.950 . S
H841 C865 0.951 . S
H842 C867 0.951 . S
H843 C869 0.950 . S
H844 C870 0.950 . S
H845 C872 0.950 . S
H846 C875 0.950 . S
H847 C876 0.950 . S
H848 C878 0.950 . S
H849 C879 0.950 . S
C850 H832 0.951 . S
C850 C851 1.366 . S
C850 C852 1.388 . S
C851 C850 1.366 . S
C851 C855 1.385 . S
C852 H833 0.951 . S
C852 C850 1.388 . S
C852 C853 1.366 . S
C853 C852 1.366 . S
C853 C854 1.414 . S
C853 C856 1.499 . S
C854 H834 0.950 . S
C854 C853 1.414 . S
C854 C855 1.374 . S
C855 H835 0.950 . S
C855 C851 1.385 . S
C855 C854 1.374 . S
C856 C853 1.499 . S
C856 C857 1.373 . S
C856 C858 1.389 . S
C857 H836 0.950 . S
C857 C856 1.373 . S
C857 C873 1.377 . S
C858 C856 1.389 . S
C858 C859 1.524 . S
C858 C872 1.377 . S
C859 C858 1.524 . S
C859 C860 1.397 . S
C859 C864 1.363 . S
C860 H837 0.950 . S
C860 C859 1.397 . S
C860 C861 1.334 . S
C861 H838 0.950 . S
C861 C860 1.334 . S
C861 C862 1.287 . S
C862 C861 1.287 . S
C862 C863 1.524 . S
C862 H881 0.913 . S
C863 H839 0.950 . S
C863 C862 1.524 . S
C863 C864 1.415 . S
C864 H840 0.950 . S
C864 C859 1.363 . S
C864 C863 1.415 . S
C865 H841 0.951 . S
C865 C866 1.366 . S
C865 C867 1.388 . S
C866 C865 1.366 . S
C866 C870 1.385 . S
C867 H842 0.951 . S
C867 C865 1.388 . S
C867 C868 1.366 . S
C868 C867 1.366 . S
C868 C869 1.414 . S
C868 C871 1.499 . S
C869 H843 0.950 . S
C869 C868 1.414 . S
C869 C870 1.374 . S
C870 H844 0.950 . S
C870 C866 1.385 . S
C870 C869 1.374 . S
C871 C868 1.499 . S
C871 C872 1.373 . S
C871 C873 1.389 . S
C872 H845 0.950 . S
C872 C858 1.377 . S
C872 C871 1.373 . S
C873 C857 1.377 . S
C873 C871 1.389 . S
C873 C874 1.524 . S
C874 C873 1.524 . S
C874 C875 1.397 . S
C874 C879 1.363 . S
C875 H846 0.950 . S
C875 C874 1.397 . S
C875 C876 1.334 . S
C876 H847 0.950 . S
C876 C875 1.334 . S
C876 C877 1.287 . S
C877 C876 1.287 . S
C877 C878 1.524 . S
C877 H880 0.999 . S
C878 H848 0.950 . S
C878 C877 1.524 . S
C878 C879 1.415 . S
C879 H849 0.950 . S
C879 C874 1.363 . S
C879 C878 1.415 . S
H880 C877 0.999 . S
H881 C862 0.913 . S
H882 C900 0.951 . S
H883 C902 0.951 . S
H884 C904 0.950 . S
H885 C905 0.950 . S
H886 C907 0.950 . S
H887 C910 0.950 . S
H888 C911 0.950 . S
H889 C913 0.950 . S
H890 C914 0.950 . S
H891 C915 0.951 . S
H892 C917 0.951 . S
H893 C919 0.950 . S
H894 C920 0.950 . S
H895 C922 0.950 . S
H896 C925 0.950 . S
H897 C926 0.950 . S
H898 C928 0.950 . S
H899 C929 0.950 . S
C900 H882 0.951 . S
C900 C901 1.366 . S
C900 C902 1.388 . S
C901 C900 1.366 . S
C901 C905 1.385 . S
C902 H883 0.951 . S
C902 C900 1.388 . S
C902 C903 1.366 . S
C903 C902 1.366 . S
C903 C904 1.414 . S
C903 C906 1.499 . S
C904 H884 0.950 . S
C904 C903 1.414 . S
C904 C905 1.374 . S
C905 H885 0.950 . S
C905 C901 1.385 . S
C905 C904 1.374 . S
C906 C903 1.499 . S
C906 C907 1.373 . S
C906 C908 1.389 . S
C907 H886 0.950 . S
C907 C906 1.373 . S
C907 C923 1.377 . S
C908 C906 1.389 . S
C908 C909 1.524 . S
C908 C922 1.377 . S
C909 C908 1.524 . S
C909 C910 1.397 . S
C909 C914 1.363 . S
C910 H887 0.950 . S
C910 C909 1.397 . S
C910 C911 1.334 . S
C911 H888 0.950 . S
C911 C910 1.334 . S
C911 C912 1.287 . S
C912 C911 1.287 . S
C912 C913 1.524 . S
C912 H931 0.913 . S
C913 H889 0.950 . S
C913 C912 1.524 . S
C913 C914 1.415 . S
C914 H890 0.950 . S
C914 C909 1.363 . S
C914 C913 1.415 . S
C915 H891 0.951 . S
C915 C916 1.366 . S
C915 C917 1.388 . S
C916 C915 1.366 . S
C916 C920 1.385 . S
C917 H892 0.951 . S
C917 C915 1.388 . S
C917 C918 1.366 . S
C918 C917 1.366 . S
C918 C919 1.414 . S
C918 C921 1.499 . S
C919 H893 0.950 . S
C919 C918 1.414 . S
C919 C920 1.374 . S
C920 H894 0.950 . S
C920 C916 1.385 . S
C920 C919 1.374 . S
C921 C918 1.499 . S
C921 C922 1.373 . S
C921 C923 1.389 . S
C922 H895 0.950 . S
C922 C908 1.377 . S
C922 C921 1.373 . S
C923 C907 1.377 . S
C923 C921 1.389 . S
C923 C924 1.524 . S
C924 C923 1.524 . S
C924 C925 1.397 . S
C924 C929 1.363 . S
C925 H896 0.950 . S
C925 C924 1.397 . S
C925 C926 1.334 . S
C926 H897 0.950 . S
C926 C925 1.334 . S
C926 C927 1.287 . S
C927 C926 1.287 . S
C927 C928 1.524 . S
C927 H930 0.999 . S
C928 H898 0.950 . S
C928 C927 1.524 . S
C928 C929 1.415 . S
C929 H899 0.950 . S
C929 C924 1.363 . S
C929 C928 1.415 . S
H930 C927 0.999 . S
H931 C912 0.913 . S
H932 C950 0.951 . S
H933 C952 0.951 . S
H934 C954 0.950 . S
H935 C955 0.950 . S
H936 C957 0.950 . S
H937 C960 0.950 . S
H938 C961 0.950 . S
H939 C963 0.950 . S
H940 C964 0.950 . S
H941 C965 0.951 . S
H942 C967 0.951 . S
H943 C969 0.950 . S
H944 C970 0.950 . S
H945 C972 0.950 . S
H946 C975 0.950 . S
H947 C976 0.950 . S
H948 C978 0.950 . S
H949 C979 0.950 . S
C950 H932 0.951 . S
C950 C951 1.366 . S
C950 C952 1.388 . S
C951 C950 1.366 . S
C951 C955 1.385 . S
C952 H933 0.951 . S
C952 C950 1.388 . S
C952 C953 1.366 . S
C953 C952 1.366 . S
C953 C954 1.414 . S
C953 C956 1.499 . S
C954 H934 0.950 . S
C954 C953 1.414 . S
C954 C955 1.374 . S
C955 H935 0.950 . S
C955 C951 1.385 . S
C955 C954 1.374 . S
C956 C953 1.499 . S
C956 C957 1.373 . S
C956 C958 1.389 . S
C957 H936 0.950 . S
C957 C956 1.373 . S
C957 C973 1.377 . S
C958 C956 1.389 . S
C958 C959 1.524 . S
C958 C972 1.377 . S
C959 C958 1.524 . S
C959 C960 1.397 . S
C959 C964 1.363 . S
C960 H937 0.950 . S
C960 C959 1.397 . S
C960 C961 1.334 . S
C961 H938 0.950 . S
C961 C960 1.334 . S
C961 C962 1.287 . S
C962 C961 1.287 . S
C962 C963 1.524 . S
C962 H981 0.913 . S
C963 H939 0.950 . S
C963 C962 1.524 . S
C963 C964 1.415 . S
C964 H940 0.950 . S
C964 C959 1.363 . S
C964 C963 1.415 . S
C965 H941 0.951 . S
C965 C966 1.366 . S
C965 C967 1.388 . S
C966 C965 1.366 . S
C966 C970 1.385 . S
C967 H942 0.951 . S
C967 C965 1.388 . S
C967 C968 1.366 . S
C968 C967 1.366 . S
C968 C969 1.414 . S
C968 C971 1.499 . S
C969 H943 0.950 . S
C969 C968 1.414 . S
C969 C970 1.374 . S
C970 H944 0.950 . S
C970 C966 1.385 . S
C970 C969 1.374 . S
C971 C968 1.499 . S
C971 C972 1.373 . S
C971 C973 1.389 . S
C972 H945 0.950 . S
C972 C958 1.377 . S
C972 C971 1.373 . S
C973 C957 1.377 . S
C973 C971 1.389 . S
C973 C974 1.524 . S
C974 C973 1.524 . S
C974 C975 1.397 . S
C974 C979 1.363 . S
C975 H946 0.950 . S
C975 C974 1.397 . S
C975 C976 1.334 . S
C976 H947 0.950 . S
C976 C975 1.334 . S
C976 C977 1.287 . S
C977 C976 1.287 . S
C977 C978 1.524 . S
C977 H980 0.999 1_554 S
C978 H948 0.950 . S
C978 C977 1.524 . S
C978 C979 1.415 . S
C979 H949 0.950 . S
C979 C974 1.363 . S
C979 C978 1.415 . S
H980 C977 0.999 1_556 S
H981 C962 0.913 . S
H982 C1000 0.951 . S
H983 C1002 0.951 . S
H984 C1004 0.950 . S
H985 C1005 0.950 . S
H986 C1007 0.950 . S
H987 C1010 0.950 . S
H988 C1011 0.950 . S
H989 C1013 0.950 . S
H990 C1014 0.950 . S
H991 C1015 0.951 . S
H992 C1017 0.951 . S
H993 C1019 0.950 . S
H994 C1020 0.950 . S
H995 C1022 0.950 . S
H996 C1025 0.950 . S
H997 C1026 0.950 . S
H998 C1028 0.950 . S
H999 C1029 0.950 . S
C1000 H982 0.951 . S
C1000 C1001 1.366 . S
C1000 C1002 1.388 . S
C1001 C1000 1.366 . S
C1001 C1005 1.385 . S
C1002 H983 0.951 . S
C1002 C1000 1.388 . S
C1002 C1003 1.366 . S
C1003 C1002 1.366 . S
C1003 C1004 1.414 . S
C1003 C1006 1.499 . S
C1004 H984 0.950 . S
C1004 C1003 1.414 . S
C1004 C1005 1.374 . S
C1005 H985 0.950 . S
C1005 C1001 1.385 . S
C1005 C1004 1.374 . S
C1006 C1003 1.499 . S
C1006 C1007 1.373 . S
C1006 C1008 1.389 . S
C1007 H986 0.950 . S
C1007 C1006 1.373 . S
C1007 C1023 1.377 . S
C1008 C1006 1.389 . S
C1008 C1009 1.524 . S
C1008 C1022 1.377 . S
C1009 C1008 1.524 . S
C1009 C1010 1.397 . S
C1009 C1014 1.363 . S
C1010 H987 0.950 . S
C1010 C1009 1.397 . S
C1010 C1011 1.334 . S
C1011 H988 0.950 . S
C1011 C1010 1.334 . S
C1011 C1012 1.287 . S
C1012 C1011 1.287 . S
C1012 C1013 1.524 . S
C1012 H1031 0.913 . S
C1013 H989 0.950 . S
C1013 C1012 1.524 . S
C1013 C1014 1.415 . S
C1014 H990 0.950 . S
C1014 C1009 1.363 . S
C1014 C1013 1.415 . S
C1015 H991 0.951 . S
C1015 C1016 1.366 . S
C1015 C1017 1.388 . S
C1016 C1015 1.366 . S
C1016 C1020 1.385 . S
C1017 H992 0.951 . S
C1017 C1015 1.388 . S
C1017 C1018 1.366 . S
C1018 C1017 1.366 . S
C1018 C1019 1.414 . S
C1018 C1021 1.499 . S
C1019 H993 0.950 . S
C1019 C1018 1.414 . S
C1019 C1020 1.374 . S
C1020 H994 0.950 . S
C1020 C1016 1.385 . S
C1020 C1019 1.374 . S
C1021 C1018 1.499 . S
C1021 C1022 1.373 . S
C1021 C1023 1.389 . S
C1022 H995 0.950 . S
C1022 C1008 1.377 . S
C1022 C1021 1.373 . S
C1023 C1007 1.377 . S
C1023 C1021 1.389 . S
C1023 C1024 1.524 . S
C1024 C1023 1.524 . S
C1024 C1025 1.397 . S
C1024 C1029 1.363 . S
C1025 H996 0.950 . S
C1025 C1024 1.397 . S
C1025 C1026 1.334 . S
C1026 H997 0.950 . S
C1026 C1025 1.334 . S
C1026 C1027 1.287 . S
C1027 C1026 1.287 . S
C1027 C1028 1.524 . S
C1027 H1030 0.999 . S
C1028 H998 0.950 . S
C1028 C1027 1.524 . S
C1028 C1029 1.415 . S
C1029 H999 0.950 . S
C1029 C1024 1.363 . S
C1029 C1028 1.415 . S
H1030 C1027 0.999 . S
H1031 C1012 0.913 . S
H1032 C1050 0.951 . S
H1033 C1052 0.951 . S
H1034 C1054 0.950 . S
H1035 C1055 0.950 . S
H1036 C1057 0.950 . S
H1037 C1060 0.950 . S
H1038 C1061 0.950 . S
H1039 C1063 0.950 . S
H1040 C1064 0.950 . S
H1041 C1065 0.951 . S
H1042 C1067 0.951 . S
H1043 C1069 0.950 . S
H1044 C1070 0.950 . S
H1045 C1072 0.950 . S
H1046 C1075 0.950 . S
H1047 C1076 0.950 . S
H1048 C1078 0.950 . S
H1049 C1079 0.950 . S
C1050 H1032 0.951 . S
C1050 C1051 1.366 . S
C1050 C1052 1.388 . S
C1051 C1050 1.366 . S
C1051 C1055 1.385 . S
C1052 H1033 0.951 . S
C1052 C1050 1.388 . S
C1052 C1053 1.366 . S
C1053 C1052 1.366 . S
C1053 C1054 1.414 . S
C1053 C1056 1.499 . S
C1054 H1034 0.950 . S
C1054 C1053 1.414 . S
C1054 C1055 1.374 . S
C1055 H1035 0.950 . S
C1055 C1051 1.385 . S
C1055 C1054 1.374 . S
C1056 C1053 1.499 . S
C1056 C1057 1.373 . S
C1056 C1058 1.389 . S
C1057 H1036 0.950 . S
C1057 C1056 1.373 . S
C1057 C1073 1.377 . S
C1058 C1056 1.389 . S
C1058 C1059 1.524 . S
C1058 C1072 1.377 . S
C1059 C1058 1.524 . S
C1059 C1060 1.397 . S
C1059 C1064 1.363 . S
C1060 H1037 0.950 . S
C1060 C1059 1.397 . S
C1060 C1061 1.334 . S
C1061 H1038 0.950 . S
C1061 C1060 1.334 . S
C1061 C1062 1.287 . S
C1062 C1061 1.287 . S
C1062 C1063 1.524 . S
C1062 H1081 0.913 . S
C1063 H1039 0.950 . S
C1063 C1062 1.524 . S
C1063 C1064 1.415 . S
C1064 H1040 0.950 . S
C1064 C1059 1.363 . S
C1064 C1063 1.415 . S
C1065 H1041 0.951 . S
C1065 C1066 1.366 . S
C1065 C1067 1.388 . S
C1066 C1065 1.366 . S
C1066 C1070 1.385 . S
C1067 H1042 0.951 . S
C1067 C1065 1.388 . S
C1067 C1068 1.366 . S
C1068 C1067 1.366 . S
C1068 C1069 1.414 . S
C1068 C1071 1.499 . S
C1069 H1043 0.950 . S
C1069 C1068 1.414 . S
C1069 C1070 1.374 . S
C1070 H1044 0.950 . S
C1070 C1066 1.385 . S
C1070 C1069 1.374 . S
C1071 C1068 1.499 . S
C1071 C1072 1.373 . S
C1071 C1073 1.389 . S
C1072 H1045 0.950 . S
C1072 C1058 1.377 . S
C1072 C1071 1.373 . S
C1073 C1057 1.377 . S
C1073 C1071 1.389 . S
C1073 C1074 1.524 . S
C1074 C1073 1.524 . S
C1074 C1075 1.397 . S
C1074 C1079 1.363 . S
C1075 H1046 0.950 . S
C1075 C1074 1.397 . S
C1075 C1076 1.334 . S
C1076 H1047 0.950 . S
C1076 C1075 1.334 . S
C1076 C1077 1.287 . S
C1077 C1076 1.287 . S
C1077 C1078 1.524 . S
C1077 H1080 0.999 . S
C1078 H1048 0.950 . S
C1078 C1077 1.524 . S
C1078 C1079 1.415 . S
C1079 H1049 0.950 . S
C1079 C1074 1.363 . S
C1079 C1078 1.415 . S
H1080 C1077 0.999 . S
H1081 C1062 0.913 . S
H1082 C1100 0.951 . S
H1083 C1102 0.951 . S
H1084 C1104 0.950 . S
H1085 C1105 0.950 . S
H1086 C1107 0.950 . S
H1087 C1110 0.950 . S
H1088 C1111 0.950 . S
H1089 C1113 0.950 . S
H1090 C1114 0.950 . S
H1091 C1115 0.951 . S
H1092 C1117 0.951 . S
H1093 C1119 0.950 . S
H1094 C1120 0.950 . S
H1095 C1122 0.950 . S
H1096 C1125 0.950 . S
H1097 C1126 0.950 . S
H1098 C1128 0.950 . S
H1099 C1129 0.950 . S
C1100 H1082 0.951 . S
C1100 C1101 1.366 . S
C1100 C1102 1.388 . S
C1101 C1100 1.366 . S
C1101 C1105 1.385 . S
C1102 H1083 0.951 . S
C1102 C1100 1.388 . S
C1102 C1103 1.366 . S
C1103 C1102 1.366 . S
C1103 C1104 1.414 . S
C1103 C1106 1.499 . S
C1104 H1084 0.950 . S
C1104 C1103 1.414 . S
C1104 C1105 1.374 . S
C1105 H1085 0.950 . S
C1105 C1101 1.385 . S
C1105 C1104 1.374 . S
C1106 C1103 1.499 . S
C1106 C1107 1.373 . S
C1106 C1108 1.389 . S
C1107 H1086 0.950 . S
C1107 C1106 1.373 . S
C1107 C1123 1.377 . S
C1108 C1106 1.389 . S
C1108 C1109 1.524 . S
C1108 C1122 1.377 . S
C1109 C1108 1.524 . S
C1109 C1110 1.397 . S
C1109 C1114 1.363 . S
C1110 H1087 0.950 . S
C1110 C1109 1.397 . S
C1110 C1111 1.334 . S
C1111 H1088 0.950 . S
C1111 C1110 1.334 . S
C1111 C1112 1.287 . S
C1112 C1111 1.287 . S
C1112 C1113 1.524 . S
C1112 H1131 0.913 . S
C1113 H1089 0.950 . S
C1113 C1112 1.524 . S
C1113 C1114 1.415 . S
C1114 H1090 0.950 . S
C1114 C1109 1.363 . S
C1114 C1113 1.415 . S
C1115 H1091 0.951 . S
C1115 C1116 1.366 . S
C1115 C1117 1.388 . S
C1116 C1115 1.366 . S
C1116 C1120 1.385 . S
C1117 H1092 0.951 . S
C1117 C1115 1.388 . S
C1117 C1118 1.366 . S
C1118 C1117 1.366 . S
C1118 C1119 1.414 . S
C1118 C1121 1.499 . S
C1119 H1093 0.950 . S
C1119 C1118 1.414 . S
C1119 C1120 1.374 . S
C1120 H1094 0.950 . S
C1120 C1116 1.385 . S
C1120 C1119 1.374 . S
C1121 C1118 1.499 . S
C1121 C1122 1.373 . S
C1121 C1123 1.389 . S
C1122 H1095 0.950 . S
C1122 C1108 1.377 . S
C1122 C1121 1.373 . S
C1123 C1107 1.377 . S
C1123 C1121 1.389 . S
C1123 C1124 1.524 . S
C1124 C1123 1.524 . S
C1124 C1125 1.397 . S
C1124 C1129 1.363 . S
C1125 H1096 0.950 . S
C1125 C1124 1.397 . S
C1125 C1126 1.334 . S
C1126 H1097 0.950 . S
C1126 C1125 1.334 . S
C1126 C1127 1.287 . S
C1127 C1126 1.287 . S
C1127 C1128 1.524 . S
C1127 H1130 0.999 . S
C1128 H1098 0.950 . S
C1128 C1127 1.524 . S
C1128 C1129 1.415 . S
C1129 H1099 0.950 . S
C1129 C1124 1.363 . S
C1129 C1128 1.415 . S
H1130 C1127 0.999 . S
H1131 C1112 0.913 . S
H1132 C1150 0.951 . S
H1133 C1152 0.951 . S
H1134 C1154 0.950 . S
H1135 C1155 0.950 . S
H1136 C1157 0.950 . S
H1137 C1160 0.950 . S
H1138 C1161 0.950 . S
H1139 C1163 0.950 . S
H1140 C1164 0.950 . S
H1141 C1165 0.951 . S
H1142 C1167 0.951 . S
H1143 C1169 0.950 . S
H1144 C1170 0.950 . S
H1145 C1172 0.950 . S
H1146 C1175 0.950 . S
H1147 C1176 0.950 . S
H1148 C1178 0.950 . S
H1149 C1179 0.950 . S
C1150 H1132 0.951 . S
C1150 C1151 1.366 . S
C1150 C1152 1.388 . S
C1151 C1150 1.366 . S
C1151 C1155 1.385 . S
C1152 H1133 0.951 . S
C1152 C1150 1.388 . S
C1152 C1153 1.366 . S
C1153 C1152 1.366 . S
C1153 C1154 1.414 . S
C1153 C1156 1.499 . S
C1154 H1134 0.950 . S
C1154 C1153 1.414 . S
C1154 C1155 1.374 . S
C1155 H1135 0.950 . S
C1155 C1151 1.385 . S
C1155 C1154 1.374 . S
C1156 C1153 1.499 . S
C1156 C1157 1.373 . S
C1156 C1158 1.389 . S
C1157 H1136 0.950 . S
C1157 C1156 1.373 . S
C1157 C1173 1.377 . S
C1158 C1156 1.389 . S
C1158 C1159 1.524 . S
C1158 C1172 1.377 . S
C1159 C1158 1.524 . S
C1159 C1160 1.397 . S
C1159 C1164 1.363 . S
C1160 H1137 0.950 . S
C1160 C1159 1.397 . S
C1160 C1161 1.334 . S
C1161 H1138 0.950 . S
C1161 C1160 1.334 . S
C1161 C1162 1.287 . S
C1162 C1161 1.287 . S
C1162 C1163 1.524 . S
C1162 H1181 0.913 . S
C1163 H1139 0.950 . S
C1163 C1162 1.524 . S
C1163 C1164 1.415 . S
C1164 H1140 0.950 . S
C1164 C1159 1.363 . S
C1164 C1163 1.415 . S
C1165 H1141 0.951 . S
C1165 C1166 1.366 . S
C1165 C1167 1.388 . S
C1166 C1165 1.366 . S
C1166 C1170 1.385 . S
C1167 H1142 0.951 . S
C1167 C1165 1.388 . S
C1167 C1168 1.366 . S
C1168 C1167 1.366 . S
C1168 C1169 1.414 . S
C1168 C1171 1.499 . S
C1169 H1143 0.950 . S
C1169 C1168 1.414 . S
C1169 C1170 1.374 . S
C1170 H1144 0.950 . S
C1170 C1166 1.385 . S
C1170 C1169 1.374 . S
C1171 C1168 1.499 . S
C1171 C1172 1.373 . S
C1171 C1173 1.389 . S
C1172 H1145 0.950 . S
C1172 C1158 1.377 . S
C1172 C1171 1.373 . S
C1173 C1157 1.377 . S
C1173 C1171 1.389 . S
C1173 C1174 1.524 . S
C1174 C1173 1.524 . S
C1174 C1175 1.397 . S
C1174 C1179 1.363 . S
C1175 H1146 0.950 . S
C1175 C1174 1.397 . S
C1175 C1176 1.334 . S
C1176 H1147 0.950 . S
C1176 C1175 1.334 . S
C1176 C1177 1.287 . S
C1177 C1176 1.287 . S
C1177 C1178 1.524 . S
C1177 H1180 0.999 . S
C1178 H1148 0.950 . S
C1178 C1177 1.524 . S
C1178 C1179 1.415 . S
C1179 H1149 0.950 . S
C1179 C1174 1.363 . S
C1179 C1178 1.415 . S
H1180 C1177 0.999 . S
H1181 C1162 0.913 . S
H1182 C1200 0.951 . S
H1183 C1202 0.951 . S
H1184 C1204 0.950 . S
H1185 C1205 0.950 . S
H1186 C1207 0.950 . S
H1187 C1210 0.950 . S
H1188 C1211 0.950 . S
H1189 C1213 0.950 . S
H1190 C1214 0.950 . S
H1191 C1215 0.951 . S
H1192 C1217 0.951 . S
H1193 C1219 0.950 . S
H1194 C1220 0.950 . S
H1195 C1222 0.950 . S
H1196 C1225 0.950 . S
H1197 C1226 0.950 . S
H1198 C1228 0.950 . S
H1199 C1229 0.950 . S
C1200 H1182 0.951 . S
C1200 C1201 1.366 . S
C1200 C1202 1.388 . S
C1201 C1200 1.366 . S
C1201 C1205 1.385 . S
C1202 H1183 0.951 . S
C1202 C1200 1.388 . S
C1202 C1203 1.366 . S
C1203 C1202 1.366 . S
C1203 C1204 1.414 . S
C1203 C1206 1.499 . S
C1204 H1184 0.950 . S
C1204 C1203 1.414 . S
C1204 C1205 1.374 . S
C1205 H1185 0.950 . S
C1205 C1201 1.385 . S
C1205 C1204 1.374 . S
C1206 C1203 1.499 . S
C1206 C1207 1.373 . S
C1206 C1208 1.389 . S
C1207 H1186 0.950 . S
C1207 C1206 1.373 . S
C1207 C1223 1.377 . S
C1208 C1206 1.389 . S
C1208 C1209 1.524 . S
C1208 C1222 1.377 . S
C1209 C1208 1.524 . S
C1209 C1210 1.397 . S
C1209 C1214 1.363 . S
C1210 H1187 0.950 . S
C1210 C1209 1.397 . S
C1210 C1211 1.334 . S
C1211 H1188 0.950 . S
C1211 C1210 1.334 . S
C1211 C1212 1.287 . S
C1212 C1211 1.287 . S
C1212 C1213 1.524 . S
C1212 H1231 0.913 . S
C1213 H1189 0.950 . S
C1213 C1212 1.524 . S
C1213 C1214 1.415 . S
C1214 H1190 0.950 . S
C1214 C1209 1.363 . S
C1214 C1213 1.415 . S
C1215 H1191 0.951 . S
C1215 C1216 1.366 . S
C1215 C1217 1.388 . S
C1216 C1215 1.366 . S
C1216 C1220 1.385 . S
C1217 H1192 0.951 . S
C1217 C1215 1.388 . S
C1217 C1218 1.366 . S
C1218 C1217 1.366 . S
C1218 C1219 1.414 . S
C1218 C1221 1.499 . S
C1219 H1193 0.950 . S
C1219 C1218 1.414 . S
C1219 C1220 1.374 . S
C1220 H1194 0.950 . S
C1220 C1216 1.385 . S
C1220 C1219 1.374 . S
C1221 C1218 1.499 . S
C1221 C1222 1.373 . S
C1221 C1223 1.389 . S
C1222 H1195 0.950 . S
C1222 C1208 1.377 . S
C1222 C1221 1.373 . S
C1223 C1207 1.377 . S
C1223 C1221 1.389 . S
C1223 C1224 1.524 . S
C1224 C1223 1.524 . S
C1224 C1225 1.397 . S
C1224 C1229 1.363 . S
C1225 H1196 0.950 . S
C1225 C1224 1.397 . S
C1225 C1226 1.334 . S
C1226 H1197 0.950 . S
C1226 C1225 1.334 . S
C1226 C1227 1.287 . S
C1227 C1226 1.287 . S
C1227 C1228 1.524 . S
C1227 H1230 0.999 . S
C1228 H1198 0.950 . S
C1228 C1227 1.524 . S
C1228 C1229 1.415 . S
C1229 H1199 0.950 . S
C1229 C1224 1.363 . S
C1229 C1228 1.415 . S
H1230 C1227 0.999 . S
H1231 C1212 0.913 . S
H1232 C1250 0.951 . S
H1233 C1252 0.951 . S
H1234 C1254 0.950 . S
H1235 C1255 0.950 . S
H1236 C1257 0.950 . S
H1237 C1260 0.950 . S
H1238 C1261 0.950 . S
H1239 C1263 0.950 . S
H1240 C1264 0.950 . S
H1241 C1265 0.951 . S
H1242 C1267 0.951 . S
H1243 C1269 0.950 . S
H1244 C1270 0.950 . S
H1245 C1272 0.950 . S
H1246 C1275 0.950 . S
H1247 C1276 0.950 . S
H1248 C1278 0.950 . S
H1249 C1279 0.950 . S
C1250 H1232 0.951 . S
C1250 C1251 1.366 . S
C1250 C1252 1.388 . S
C1251 C1250 1.366 . S
C1251 C1255 1.385 . S
C1252 H1233 0.951 . S
C1252 C1250 1.388 . S
C1252 C1253 1.366 . S
C1253 C1252 1.366 . S
C1253 C1254 1.414 . S
C1253 C1256 1.499 . S
C1254 H1234 0.950 . S
C1254 C1253 1.414 . S
C1254 C1255 1.374 . S
C1255 H1235 0.950 . S
C1255 C1251 1.385 . S
C1255 C1254 1.374 . S
C1256 C1253 1.499 . S
C1256 C1257 1.373 . S
C1256 C1258 1.389 . S
C1257 H1236 0.950 . S
C1257 C1256 1.373 . S
C1257 C1273 1.377 . S
C1258 C1256 1.389 . S
C1258 C1259 1.524 . S
C1258 C1272 1.377 . S
C1259 C1258 1.524 . S
C1259 C1260 1.397 . S
C1259 C1264 1.363 . S
C1260 H1237 0.950 . S
C1260 C1259 1.397 . S
C1260 C1261 1.334 . S
C1261 H1238 0.950 . S
C1261 C1260 1.334 . S
C1261 C1262 1.287 . S
C1262 C1261 1.287 . S
C1262 C1263 1.524 . S
C1262 H1281 0.913 . S
C1263 H1239 0.950 . S
C1263 C1262 1.524 . S
C1263 C1264 1.415 . S
C1264 H1240 0.950 . S
C1264 C1259 1.363 . S
C1264 C1263 1.415 . S
C1265 H1241 0.951 . S
C1265 C1266 1.366 . S
C1265 C1267 1.388 . S
C1266 C1265 1.366 . S
C1266 C1270 1.385 . S
C1267 H1242 0.951 . S
C1267 C1265 1.388 . S
C1267 C1268 1.366 . S
C1268 C1267 1.366 . S
C1268 C1269 1.414 . S
C1268 C1271 1.499 . S
C1269 H1243 0.950 . S
C1269 C1268 1.414 . S
C1269 C1270 1.374 . S
C1270 H1244 0.950 . S
C1270 C1266 1.385 . S
C1270 C1269 1.374 . S
C1271 C1268 1.499 . S
C1271 C1272 1.373 . S
C1271 C1273 1.389 . S
C1272 H1245 0.950 . S
C1272 C1258 1.377 . S
C1272 C1271 1.373 . S
C1273 C1257 1.377 . S
C1273 C1271 1.389 . S
C1273 C1274 1.524 . S
C1274 C1273 1.524 . S
C1274 C1275 1.397 . S
C1274 C1279 1.363 . S
C1275 H1246 0.950 . S
C1275 C1274 1.397 . S
C1275 C1276 1.334 . S
C1276 H1247 0.950 . S
C1276 C1275 1.334 . S
C1276 C1277 1.287 . S
C1277 C1276 1.287 . S
C1277 C1278 1.524 . S
C1277 H1280 0.999 . S
C1278 H1248 0.950 . S
C1278 C1277 1.524 . S
C1278 C1279 1.415 . S
C1279 H1249 0.950 . S
C1279 C1274 1.363 . S
C1279 C1278 1.415 . S
H1280 C1277 0.999 . S
H1281 C1262 0.913 . S
H1282 C1300 0.951 . S
H1283 C1302 0.951 . S
H1284 C1304 0.950 . S
H1285 C1305 0.950 . S
H1286 C1307 0.950 . S
H1287 C1310 0.950 . S
H1288 C1311 0.950 . S
H1289 C1313 0.950 . S
H1290 C1314 0.950 . S
H1291 C1315 0.951 . S
H1292 C1317 0.951 . S
H1293 C1319 0.950 . S
H1294 C1320 0.950 . S
H1295 C1322 0.950 . S
H1296 C1325 0.950 . S
H1297 C1326 0.950 . S
H1298 C1328 0.950 . S
H1299 C1329 0.950 . S
C1300 H1282 0.951 . S
C1300 C1301 1.366 . S
C1300 C1302 1.388 . S
C1301 C1300 1.366 . S
C1301 C1305 1.385 . S
C1302 H1283 0.951 . S
C1302 C1300 1.388 . S
C1302 C1303 1.366 . S
C1303 C1302 1.366 . S
C1303 C1304 1.414 . S
C1303 C1306 1.499 . S
C1304 H1284 0.950 . S
C1304 C1303 1.414 . S
C1304 C1305 1.374 . S
C1305 H1285 0.950 . S
C1305 C1301 1.385 . S
C1305 C1304 1.374 . S
C1306 C1303 1.499 . S
C1306 C1307 1.373 . S
C1306 C1308 1.389 . S
C1307 H1286 0.950 . S
C1307 C1306 1.373 . S
C1307 C1323 1.377 . S
C1308 C1306 1.389 . S
C1308 C1309 1.524 . S
C1308 C1322 1.377 . S
C1309 C1308 1.524 . S
C1309 C1310 1.397 . S
C1309 C1314 1.363 . S
C1310 H1287 0.950 . S
C1310 C1309 1.397 . S
C1310 C1311 1.334 . S
C1311 H1288 0.950 . S
C1311 C1310 1.334 . S
C1311 C1312 1.287 . S
C1312 C1311 1.287 . S
C1312 C1313 1.524 . S
C1312 H1331 0.913 . S
C1313 H1289 0.950 . S
C1313 C1312 1.524 . S
C1313 C1314 1.415 . S
C1314 H1290 0.950 . S
C1314 C1309 1.363 . S
C1314 C1313 1.415 . S
C1315 H1291 0.951 . S
C1315 C1316 1.366 . S
C1315 C1317 1.388 . S
C1316 C1315 1.366 . S
C1316 C1320 1.385 . S
C1317 H1292 0.951 . S
C1317 C1315 1.388 . S
C1317 C1318 1.366 . S
C1318 C1317 1.366 . S
C1318 C1319 1.414 . S
C1318 C1321 1.499 . S
C1319 H1293 0.950 . S
C1319 C1318 1.414 . S
C1319 C1320 1.374 . S
C1320 H1294 0.950 . S
C1320 C1316 1.385 . S
C1320 C1319 1.374 . S
C1321 C1318 1.499 . S
C1321 C1322 1.373 . S
C1321 C1323 1.389 . S
C1322 H1295 0.950 . S
C1322 C1308 1.377 . S
C1322 C1321 1.373 . S
C1323 C1307 1.377 . S
C1323 C1321 1.389 . S
C1323 C1324 1.524 . S
C1324 C1323 1.524 . S
C1324 C1325 1.397 . S
C1324 C1329 1.363 . S
C1325 H1296 0.950 . S
C1325 C1324 1.397 . S
C1325 C1326 1.334 . S
C1326 H1297 0.950 . S
C1326 C1325 1.334 . S
C1326 C1327 1.287 . S
C1327 C1326 1.287 . S
C1327 C1328 1.524 . S
C1327 H1330 0.999 . S
C1328 H1298 0.950 . S
C1328 C1327 1.524 . S
C1328 C1329 1.415 . S
C1329 H1299 0.950 . S
C1329 C1324 1.363 . S
C1329 C1328 1.415 . S
H1330 C1327 0.999 . S
H1331 C1312 0.913 . S
H1332 C1350 0.951 . S
H1333 C1352 0.951 . S
H1334 C1354 0.950 . S
H1335 C1355 0.950 . S
H1336 C1357 0.950 . S
H1337 C1360 0.950 . S
H1338 C1361 0.950 . S
H1339 C1363 0.950 . S
H1340 C1364 0.950 . S
H1341 C1365 0.951 . S
H1342 C1367 0.951 . S
H1343 C1369 0.950 . S
H1344 C1370 0.950 . S
H1345 C1372 0.950 . S
H1346 C1375 0.950 . S
H1347 C1376 0.950 . S
H1348 C1378 0.950 . S
H1349 C1379 0.950 . S
C1350 H1332 0.951 . S
C1350 C1351 1.366 . S
C1350 C1352 1.388 . S
C1351 C1350 1.366 . S
C1351 C1355 1.385 . S
C1352 H1333 0.951 . S
C1352 C1350 1.388 . S
C1352 C1353 1.366 . S
C1353 C1352 1.366 . S
C1353 C1354 1.414 . S
C1353 C1356 1.499 . S
C1354 H1334 0.950 . S
C1354 C1353 1.414 . S
C1354 C1355 1.374 . S
C1355 H1335 0.950 . S
C1355 C1351 1.385 . S
C1355 C1354 1.374 . S
C1356 C1353 1.499 . S
C1356 C1357 1.373 1_455 S
C1356 C1358 1.389 . S
C1357 H1336 0.950 . S
C1357 C1356 1.373 1_655 S
C1357 C1373 1.377 1_545 S
C1358 C1356 1.389 . S
C1358 C1359 1.524 . S
C1358 C1372 1.377 1_545 S
C1359 C1358 1.524 . S
C1359 C1360 1.397 . S
C1359 C1364 1.363 1_545 S
C1360 H1337 0.950 . S
C1360 C1359 1.397 . S
C1360 C1361 1.334 . S
C1361 H1338 0.950 . S
C1361 C1360 1.334 . S
C1361 C1362 1.287 . S
C1362 C1361 1.287 . S
C1362 C1363 1.524 1_545 S
C1362 H1381 0.913 . S
C1363 H1339 0.950 . S
C1363 C1362 1.524 1_565 S
C1363 C1364 1.415 . S
C1364 H1340 0.950 . S
C1364 C1359 1.363 1_565 S
C1364 C1363 1.415 . S
C1365 H1341 0.951 . S
C1365 C1366 1.366 . S
C1365 C1367 1.388 . S
C1366 C1365 1.366 . S
C1366 C1370 1.385 . S
C1367 H1342 0.951 . S
C1367 C1365 1.388 . S
C1367 C1368 1.366 . S
C1368 C1367 1.366 . S
C1368 C1369 1.414 . S
C1368 C1371 1.499 . S
C1369 H1343 0.950 . S
C1369 C1368 1.414 . S
C1369 C1370 1.374 . S
C1370 H1344 0.950 . S
C1370 C1366 1.385 . S
C1370 C1369 1.374 . S
C1371 C1368 1.499 . S
C1371 C1372 1.373 1_655 S
C1371 C1373 1.389 . S
C1372 H1345 0.950 . S
C1372 C1358 1.377 1_565 S
C1372 C1371 1.373 1_455 S
C1373 C1357 1.377 1_565 S
C1373 C1371 1.389 . S
C1373 C1374 1.524 . S
C1374 C1373 1.524 . S
C1374 C1375 1.397 . S
C1374 C1379 1.363 1_565 S
C1375 H1346 0.950 . S
C1375 C1374 1.397 . S
C1375 C1376 1.334 . S
C1376 H1347 0.950 . S
C1376 C1375 1.334 . S
C1376 C1377 1.287 . S
C1377 C1376 1.287 . S
C1377 C1378 1.524 1_565 S
C1377 H1380 0.999 . S
C1378 H1348 0.950 . S
C1378 C1377 1.524 1_545 S
C1378 C1379 1.415 . S
C1379 H1349 0.950 . S
C1379 C1374 1.363 1_545 S
C1379 C1378 1.415 . S
H1380 C1377 0.999 . S
H1381 C1362 0.913 . S
H1382 C1400 0.951 . S
H1383 C1402 0.951 . S
H1384 C1404 0.950 . S
H1385 C1405 0.950 . S
H1386 C1407 0.950 . S
H1387 C1410 0.950 . S
H1388 C1411 0.950 . S
H1389 C1413 0.950 . S
H1390 C1414 0.950 . S
H1391 C1415 0.951 . S
H1392 C1417 0.951 . S
H1393 C1419 0.950 . S
H1394 C1420 0.950 . S
H1395 C1422 0.950 . S
H1396 C1425 0.950 . S
H1397 C1426 0.950 . S
H1398 C1428 0.950 . S
H1399 C1429 0.950 . S
C1400 H1382 0.951 . S
C1400 C1401 1.366 . S
C1400 C1402 1.388 . S
C1401 C1400 1.366 . S
C1401 C1405 1.385 . S
C1402 H1383 0.951 . S
C1402 C1400 1.388 . S
C1402 C1403 1.366 . S
C1403 C1402 1.366 . S
C1403 C1404 1.414 . S
C1403 C1406 1.499 . S
C1404 H1384 0.950 . S
C1404 C1403 1.414 . S
C1404 C1405 1.374 . S
C1405 H1385 0.950 . S
C1405 C1401 1.385 . S
C1405 C1404 1.374 . S
C1406 C1403 1.499 . S
C1406 C1407 1.373 . S
C1406 C1408 1.389 1_655 S
C1407 H1386 0.950 . S
C1407 C1406 1.373 . S
C1407 C1423 1.377 1_545 S
C1408 C1406 1.389 1_455 S
C1408 C1409 1.524 . S
C1408 C1422 1.377 1_545 S
C1409 C1408 1.524 . S
C1409 C1410 1.397 . S
C1409 C1414 1.363 . S
C1410 H1387 0.950 . S
C1410 C1409 1.397 . S
C1410 C1411 1.334 . S
C1411 H1388 0.950 . S
C1411 C1410 1.334 . S
C1411 C1412 1.287 . S
C1412 C1411 1.287 . S
C1412 C1413 1.524 . S
C1412 H1431 0.913 . S
C1413 H1389 0.950 . S
C1413 C1412 1.524 . S
C1413 C1414 1.415 . S
C1414 H1390 0.950 . S
C1414 C1409 1.363 . S
C1414 C1413 1.415 . S
C1415 H1391 0.951 . S
C1415 C1416 1.366 . S
C1415 C1417 1.388 . S
C1416 C1415 1.366 . S
C1416 C1420 1.385 . S
C1417 H1392 0.951 . S
C1417 C1415 1.388 . S
C1417 C1418 1.366 . S
C1418 C1417 1.366 . S
C1418 C1419 1.414 . S
C1418 C1421 1.499 . S
C1419 H1393 0.950 . S
C1419 C1418 1.414 . S
C1419 C1420 1.374 . S
C1420 H1394 0.950 . S
C1420 C1416 1.385 . S
C1420 C1419 1.374 . S
C1421 C1418 1.499 . S
C1421 C1422 1.373 . S
C1421 C1423 1.389 1_455 S
C1422 H1395 0.950 . S
C1422 C1408 1.377 1_565 S
C1422 C1421 1.373 . S
C1423 C1407 1.377 1_565 S
C1423 C1421 1.389 1_655 S
C1423 C1424 1.524 . S
C1424 C1423 1.524 . S
C1424 C1425 1.397 . S
C1424 C1429 1.363 . S
C1425 H1396 0.950 . S
C1425 C1424 1.397 . S
C1425 C1426 1.334 . S
C1426 H1397 0.950 . S
C1426 C1425 1.334 . S
C1426 C1427 1.287 . S
C1427 C1426 1.287 . S
C1427 C1428 1.524 . S
C1427 H1430 0.999 . S
C1428 H1398 0.950 . S
C1428 C1427 1.524 . S
C1428 C1429 1.415 . S
C1429 H1399 0.950 . S
C1429 C1424 1.363 . S
C1429 C1428 1.415 . S
H1430 C1427 0.999 . S
H1431 C1412 0.913 . S
H1432 C1450 0.951 . S
H1433 C1452 0.951 1_545 S
H1434 C1454 0.950 . S
H1435 C1455 0.950 . S
H1436 C1457 0.950 . S
H1437 C1460 0.950 . S
H1438 C1461 0.950 . S
H1439 C1463 0.950 . S
H1440 C1464 0.950 . S
H1441 C1465 0.951 . S
H1442 C1467 0.951 1_565 S
H1443 C1469 0.950 . S
H1444 C1470 0.950 . S
H1445 C1472 0.950 . S
H1446 C1475 0.950 . S
H1447 C1476 0.950 . S
H1448 C1478 0.950 . S
H1449 C1479 0.950 . S
C1450 H1432 0.951 . S
C1450 C1451 1.366 . S
C1450 C1452 1.388 . S
C1451 C1450 1.366 . S
C1451 C1455 1.385 . S
C1452 H1433 0.951 1_565 S
C1452 C1450 1.388 . S
C1452 C1453 1.366 . S
C1453 C1452 1.366 . S
C1453 C1454 1.414 . S
C1453 C1456 1.499 . S
C1454 H1434 0.950 . S
C1454 C1453 1.414 . S
C1454 C1455 1.374 . S
C1455 H1435 0.950 . S
C1455 C1451 1.385 . S
C1455 C1454 1.374 . S
C1456 C1453 1.499 . S
C1456 C1457 1.373 . S
C1456 C1458 1.389 1_565 S
C1457 H1436 0.950 . S
C1457 C1456 1.373 . S
C1457 C1473 1.377 1_556 S
C1458 C1456 1.389 1_545 S
C1458 C1459 1.524 . S
C1458 C1472 1.377 1_556 S
C1459 C1458 1.524 . S
C1459 C1460 1.397 1_545 S
C1459 C1464 1.363 . S
C1460 H1437 0.950 . S
C1460 C1459 1.397 1_565 S
C1460 C1461 1.334 . S
C1461 H1438 0.950 . S
C1461 C1460 1.334 . S
C1461 C1462 1.287 1_565 S
C1462 C1461 1.287 1_545 S
C1462 C1463 1.524 . S
C1462 H1481 0.913 . S
C1463 H1439 0.950 . S
C1463 C1462 1.524 . S
C1463 C1464 1.415 . S
C1464 H1440 0.950 . S
C1464 C1459 1.363 . S
C1464 C1463 1.415 . S
C1465 H1441 0.951 . S
C1465 C1466 1.366 . S
C1465 C1467 1.388 . S
C1466 C1465 1.366 . S
C1466 C1470 1.385 . S
C1467 H1442 0.951 1_545 S
C1467 C1465 1.388 . S
C1467 C1468 1.366 . S
C1468 C1467 1.366 . S
C1468 C1469 1.414 . S
C1468 C1471 1.499 . S
C1469 H1443 0.950 . S
C1469 C1468 1.414 . S
C1469 C1470 1.374 . S
C1470 H1444 0.950 . S
C1470 C1466 1.385 . S
C1470 C1469 1.374 . S
C1471 C1468 1.499 . S
C1471 C1472 1.373 . S
C1471 C1473 1.389 1_545 S
C1472 H1445 0.950 . S
C1472 C1458 1.377 1_554 S
C1472 C1471 1.373 . S
C1473 C1457 1.377 1_554 S
C1473 C1471 1.389 1_565 S
C1473 C1474 1.524 . S
C1474 C1473 1.524 . S
C1474 C1475 1.397 1_565 S
C1474 C1479 1.363 . S
C1475 H1446 0.950 . S
C1475 C1474 1.397 1_545 S
C1475 C1476 1.334 . S
C1476 H1447 0.950 . S
C1476 C1475 1.334 . S
C1476 C1477 1.287 1_545 S
C1477 C1476 1.287 1_565 S
C1477 C1478 1.524 . S
C1477 H1480 0.999 . S
C1478 H1448 0.950 . S
C1478 C1477 1.524 . S
C1478 C1479 1.415 . S
C1479 H1449 0.950 . S
C1479 C1474 1.363 . S
C1479 C1478 1.415 . S
H1480 C1477 0.999 . S
H1481 C1462 0.913 . S
H1482 C1500 0.951 . S
H1483 C1502 0.951 . S
H1484 C1504 0.950 . S
H1485 C1505 0.950 . S
H1486 C1507 0.950 . S
H1487 C1510 0.950 . S
H1488 C1511 0.950 . S
H1489 C1513 0.950 . S
H1490 C1514 0.950 1_556 S
H1491 C1515 0.951 . S
H1492 C1517 0.951 . S
H1493 C1519 0.950 . S
H1494 C1520 0.950 . S
H1495 C1522 0.950 . S
H1496 C1525 0.950 . S
H1497 C1526 0.950 . S
H1498 C1528 0.950 . S
H1499 C1529 0.950 1_554 S
C1500 H1482 0.951 . S
C1500 C1501 1.366 . S
C1500 C1502 1.388 . S
C1501 C1500 1.366 . S
C1501 C1505 1.385 . S
C1502 H1483 0.951 . S
C1502 C1500 1.388 . S
C1502 C1503 1.366 . S
C1503 C1502 1.366 . S
C1503 C1504 1.414 . S
C1503 C1506 1.499 . S
C1504 H1484 0.950 . S
C1504 C1503 1.414 . S
C1504 C1505 1.374 . S
C1505 H1485 0.950 . S
C1505 C1501 1.385 . S
C1505 C1504 1.374 . S
C1506 C1503 1.499 . S
C1506 C1507 1.373 . S
C1506 C1508 1.389 . S
C1507 H1486 0.950 . S
C1507 C1506 1.373 . S
C1507 C1523 1.377 1_564 S
C1508 C1506 1.389 . S
C1508 C1509 1.524 . S
C1508 C1522 1.377 1_564 S
C1509 C1508 1.524 . S
C1509 C1510 1.397 1_565 S
C1509 C1514 1.363 . S
C1510 H1487 0.950 . S
C1510 C1509 1.397 1_545 S
C1510 C1511 1.334 . S
C1511 H1488 0.950 . S
C1511 C1510 1.334 . S
C1511 C1512 1.287 . S
C1512 C1511 1.287 . S
C1512 C1513 1.524 1_545 S
C1512 H1531 0.913 . S
C1513 H1489 0.950 . S
C1513 C1512 1.524 1_565 S
C1513 C1514 1.415 . S
C1514 H1490 0.950 1_554 S
C1514 C1509 1.363 . S
C1514 C1513 1.415 . S
C1515 H1491 0.951 . S
C1515 C1516 1.366 . S
C1515 C1517 1.388 . S
C1516 C1515 1.366 . S
C1516 C1520 1.385 . S
C1517 H1492 0.951 . S
C1517 C1515 1.388 . S
C1517 C1518 1.366 . S
C1518 C1517 1.366 . S
C1518 C1519 1.414 . S
C1518 C1521 1.499 . S
C1519 H1493 0.950 . S
C1519 C1518 1.414 . S
C1519 C1520 1.374 . S
C1520 H1494 0.950 . S
C1520 C1516 1.385 . S
C1520 C1519 1.374 . S
C1521 C1518 1.499 . S
C1521 C1522 1.373 . S
C1521 C1523 1.389 . S
C1522 H1495 0.950 . S
C1522 C1508 1.377 1_546 S
C1522 C1521 1.373 . S
C1523 C1507 1.377 1_546 S
C1523 C1521 1.389 . S
C1523 C1524 1.524 . S
C1524 C1523 1.524 . S
C1524 C1525 1.397 1_545 S
C1524 C1529 1.363 . S
C1525 H1496 0.950 . S
C1525 C1524 1.397 1_565 S
C1525 C1526 1.334 . S
C1526 H1497 0.950 . S
C1526 C1525 1.334 . S
C1526 C1527 1.287 . S
C1527 C1526 1.287 . S
C1527 C1528 1.524 1_565 S
C1527 H1530 0.999 . S
C1528 H1498 0.950 . S
C1528 C1527 1.524 1_545 S
C1528 C1529 1.415 . S
C1529 H1499 0.950 1_556 S
C1529 C1524 1.363 . S
C1529 C1528 1.415 . S
H1530 C1527 0.999 . S
H1531 C1512 0.913 . S
H1532 C1550 0.951 . S
H1533 C1552 0.951 . S
H1534 C1554 0.950 . S
H1535 C1555 0.950 . S
H1536 C1557 0.950 . S
H1537 C1560 0.950 . S
H1538 C1561 0.950 . S
H1539 C1563 0.950 . S
H1540 C1564 0.985 . S
H1541 C1565 0.951 . S
H1542 C1567 0.951 . S
H1543 C1569 0.950 . S
H1544 C1570 0.950 . S
H1545 C1572 0.950 . S
H1546 C1575 0.950 . S
H1547 C1576 0.950 . S
H1548 C1578 0.950 . S
H1549 C1579 0.985 . S
C1550 H1532 0.951 . S
C1550 C1551 1.366 . S
C1550 C1552 1.388 . S
C1551 C1550 1.366 . S
C1551 C1555 1.385 . S
C1552 H1533 0.951 . S
C1552 C1550 1.388 . S
C1552 C1553 1.366 . S
C1553 C1552 1.366 . S
C1553 C1554 1.414 . S
C1553 C1556 1.499 . S
C1554 H1534 0.950 . S
C1554 C1553 1.414 . S
C1554 C1555 1.374 . S
C1555 H1535 0.950 . S
C1555 C1551 1.385 . S
C1555 C1554 1.374 . S
C1556 C1553 1.499 . S
C1556 C1557 1.373 . S
C1556 C1558 1.392 . S
C1557 H1536 0.950 . S
C1557 C1556 1.373 . S
C1557 C1573 1.373 1_656 S
C1558 C1556 1.392 . S
C1558 C1559 1.524 1_556 S
C1558 C1572 1.373 1_656 S
C1559 C1558 1.524 1_554 S
C1559 C1560 1.397 . S
C1559 C1564 1.363 1_554 S
C1560 H1537 0.950 . S
C1560 C1559 1.397 . S
C1560 C1561 1.334 . S
C1561 H1538 0.950 . S
C1561 C1560 1.334 . S
C1561 C1562 1.287 . S
C1562 C1561 1.287 . S
C1562 C1563 1.524 1_554 S
C1562 H1581 0.913 . S
C1563 H1539 0.950 . S
C1563 C1562 1.524 1_556 S
C1563 C1564 1.415 . S
C1564 H1540 0.985 . S
C1564 C1559 1.363 1_556 S
C1564 C1563 1.415 . S
C1565 H1541 0.951 . S
C1565 C1566 1.366 . S
C1565 C1567 1.388 . S
C1566 C1565 1.366 . S
C1566 C1570 1.385 . S
C1567 H1542 0.951 . S
C1567 C1565 1.388 . S
C1567 C1568 1.366 . S
C1568 C1567 1.366 . S
C1568 C1569 1.414 . S
C1568 C1571 1.499 . S
C1569 H1543 0.950 . S
C1569 C1568 1.414 . S
C1569 C1570 1.374 . S
C1570 H1544 0.950 . S
C1570 C1566 1.385 . S
C1570 C1569 1.374 . S
C1571 C1568 1.499 . S
C1571 C1572 1.373 . S
C1571 C1573 1.392 . S
C1572 H1545 0.950 . S
C1572 C1558 1.373 1_454 S
C1572 C1571 1.373 . S
C1573 C1557 1.373 1_454 S
C1573 C1571 1.392 . S
C1573 C1574 1.524 1_554 S
C1574 C1573 1.524 1_556 S
C1574 C1575 1.397 . S
C1574 C1579 1.363 1_556 S
C1575 H1546 0.950 . S
C1575 C1574 1.397 . S
C1575 C1576 1.334 . S
C1576 H1547 0.950 . S
C1576 C1575 1.334 . S
C1576 C1577 1.287 . S
C1577 C1576 1.287 . S
C1577 C1578 1.524 1_556 S
C1577 H1580 0.999 . S
C1578 H1548 0.950 . S
C1578 C1577 1.524 1_554 S
C1578 C1579 1.415 . S
C1579 H1549 0.985 . S
C1579 C1574 1.363 1_554 S
C1579 C1578 1.415 . S
H1580 C1577 0.999 . S
H1581 C1562 0.913 . S
H1582 C1600 0.951 . S
H1583 C1602 0.951 1_554 S
H1584 C1604 0.950 . S
H1585 C1605 0.950 . S
H1586 C1607 0.950 . S
H1587 C1610 0.950 1_556 S
H1588 C1611 0.950 1_556 S
H1589 C1613 0.950 . S
H1590 C1614 0.950 . S
H1591 C1615 0.951 . S
H1592 C1617 0.951 1_556 S
H1593 C1619 0.950 . S
H1594 C1620 0.950 . S
H1595 C1622 0.950 . S
H1596 C1625 0.950 1_554 S
H1597 C1626 0.950 1_554 S
H1598 C1628 0.950 . S
H1599 C1629 0.950 . S
C1600 H1582 0.951 . S
C1600 C1601 1.366 . S
C1600 C1602 1.388 . S
C1601 C1600 1.366 . S
C1601 C1605 1.385 . S
C1602 H1583 0.951 1_556 S
C1602 C1600 1.388 . S
C1602 C1603 1.366 . S
C1603 C1602 1.366 . S
C1603 C1604 1.414 . S
C1603 C1606 1.499 . S
C1604 H1584 0.950 . S
C1604 C1603 1.414 . S
C1604 C1605 1.374 . S
C1605 H1585 0.950 . S
C1605 C1601 1.385 . S
C1605 C1604 1.374 . S
C1606 C1603 1.499 . S
C1606 C1607 1.373 . S
C1606 C1608 1.389 1_556 S
C1607 H1586 0.950 . S
C1607 C1606 1.373 . S
C1607 C1623 1.377 1_455 S
C1608 C1606 1.389 1_554 S
C1608 C1609 1.524 . S
C1608 C1622 1.377 1_455 S
C1609 C1608 1.524 . S
C1609 C1610 1.397 . S
C1609 C1614 1.363 . S
C1610 H1587 0.950 1_554 S
C1610 C1609 1.397 . S
C1610 C1611 1.334 . S
C1611 H1588 0.950 1_554 S
C1611 C1610 1.334 . S
C1611 C1612 1.287 . S
C1612 C1611 1.287 . S
C1612 C1613 1.524 . S
C1612 H1631 0.913 . S
C1613 H1589 0.950 . S
C1613 C1612 1.524 . S
C1613 C1614 1.415 . S
C1614 H1590 0.950 . S
C1614 C1609 1.363 . S
C1614 C1613 1.415 . S
C1615 H1591 0.951 . S
C1615 C1616 1.366 . S
C1615 C1617 1.388 . S
C1616 C1615 1.366 . S
C1616 C1620 1.385 . S
C1617 H1592 0.951 1_554 S
C1617 C1615 1.388 . S
C1617 C1618 1.366 . S
C1618 C1617 1.366 . S
C1618 C1619 1.414 . S
C1618 C1621 1.499 . S
C1619 H1593 0.950 . S
C1619 C1618 1.414 . S
C1619 C1620 1.374 . S
C1620 H1594 0.950 . S
C1620 C1616 1.385 . S
C1620 C1619 1.374 . S
C1621 C1618 1.499 . S
C1621 C1622 1.373 . S
C1621 C1623 1.389 1_554 S
C1622 H1595 0.950 . S
C1622 C1608 1.377 1_655 S
C1622 C1621 1.373 . S
C1623 C1607 1.377 1_655 S
C1623 C1621 1.389 1_556 S
C1623 C1624 1.524 . S
C1624 C1623 1.524 . S
C1624 C1625 1.397 . S
C1624 C1629 1.363 . S
C1625 H1596 0.950 1_556 S
C1625 C1624 1.397 . S
C1625 C1626 1.334 . S
C1626 H1597 0.950 1_556 S
C1626 C1625 1.334 . S
C1626 C1627 1.287 . S
C1627 C1626 1.287 . S
C1627 C1628 1.524 . S
C1627 H1630 0.999 . S
C1628 H1598 0.950 . S
C1628 C1627 1.524 . S
C1628 C1629 1.415 . S
C1629 H1599 0.950 . S
C1629 C1624 1.363 . S
C1629 C1628 1.415 . S
H1630 C1627 0.999 . S
H1631 C1612 0.913 . S
C451 C112 0.730 . S
C466 C4 0.729 . S
C501 C76 0.731 . S
C516 C40 0.730 . S
C551 C184 0.730 . S
C566 C148 0.729 . S
C601 C220 0.729 . S
C616 C256 0.729 . S
C651 C328 0.730 . S
C666 C292 0.729 . S
C701 C364 0.730 . S
C716 C400 0.731 . S
C751 C3 0.663 . S
C766 C254 0.676 . S
C801 C218 0.677 . S
C816 C39 0.663 . S
C851 C182 0.675 . S
C866 C75 0.663 . S
C901 C146 0.677 . S
C916 C111 0.663 . S
C951 C147 0.662 . S
C966 C398 0.674 . S
C1001 C290 0.677 . S
C1016 C183 0.663 . S
C1051 C362 0.675 . S
C1066 C219 0.662 . S
C1101 C255 0.663 . S
C1116 C326 0.676 . S
C1151 C74 0.675 . S
C1166 C291 0.662 . S
C1201 C2 0.677 . S
C1216 C327 0.662 . S
C1251 C363 0.663 . S
C1266 C38 0.675 . S
C1301 C110 0.675 . S
C1316 C399 0.662 . S
C1351 C14 1.032 . S
C1366 C50 1.032 . S
C1401 C122 1.033 . S
C1416 C86 1.033 . S
C1451 C230 1.032 . S
C1466 C158 1.033 . S
C1501 C194 1.033 . S
C1516 C266 1.032 . S
C1551 C374 1.033 . S
C1566 C302 1.032 . S
C1601 C338 1.032 . S
C1616 C410 1.033 . S
