# Generated by pormake.
# Topology dft, (4)-cn, num edge types: 1
# Building blocks:
#     Node 0, Type 0, BuildingBlock: ICAMEG_clean_sbu_1, # of connection points: 4
#     Node 1, Type 0, BuildingBlock: ICAMEG_clean_sbu_1, # of connection points: 4
#     Node 2, Type 0, BuildingBlock: ICAMEG_clean_sbu_1, # of connection points: 4
#     Node 3, Type 0, BuildingBlock: ICAMEG_clean_sbu_1, # of connection points: 4
#     Node 4, Type 0, BuildingBlock: ICAMEG_clean_sbu_1, # of connection points: 4
#     Node 5, Type 0, BuildingBlock: ICAMEG_clean_sbu_1, # of connection points: 4
#     Node 6, Type 0, BuildingBlock: ICAMEG_clean_sbu_1, # of connection points: 4
#     Node 7, Type 0, BuildingBlock: ICAMEG_clean_sbu_1, # of connection points: 4
#     Edge 8, Type (0, 0), BuildingBlock: AJUNOK_clean_linker_0, # of connection points: 2
#     Edge 9, Type (0, 0), BuildingBlock: AJUNOK_clean_linker_0, # of connection points: 2
#     Edge 10, Type (0, 0), BuildingBlock: AJUNOK_clean_linker_0, # of connection points: 2
#     Edge 11, Type (0, 0), BuildingBlock: AJUNOK_clean_linker_0, # of connection points: 2
#     Edge 12, Type (0, 0), BuildingBlock: AJUNOK_clean_linker_0, # of connection points: 2
#     Edge 13, Type (0, 0), BuildingBlock: AJUNOK_clean_linker_0, # of connection points: 2
#     Edge 14, Type (0, 0), BuildingBlock: AJUNOK_clean_linker_0, # of connection points: 2
#     Edge 15, Type (0, 0), BuildingBlock: AJUNOK_clean_linker_0, # of connection points: 2
#     Edge 16, Type (0, 0), BuildingBlock: AJUNOK_clean_linker_0, # of connection points: 2
#     Edge 17, Type (0, 0), BuildingBlock: AJUNOK_clean_linker_0, # of connection points: 2
#     Edge 18, Type (0, 0), BuildingBlock: AJUNOK_clean_linker_0, # of connection points: 2
#     Edge 19, Type (0, 0), BuildingBlock: AJUNOK_clean_linker_0, # of connection points: 2
#     Edge 20, Type (0, 0), BuildingBlock: AJUNOK_clean_linker_0, # of connection points: 2
#     Edge 21, Type (0, 0), BuildingBlock: AJUNOK_clean_linker_0, # of connection points: 2
#     Edge 22, Type (0, 0), BuildingBlock: AJUNOK_clean_linker_0, # of connection points: 2
#     Edge 23, Type (0, 0), BuildingBlock: AJUNOK_clean_linker_0, # of connection points: 2
# Relax obj value: 0.222
# Max RMSD: 0.218
# Mean RMSD: 0.218
data_MOF--net-dft--node1-ICAMEG_clean_sbu_1--edge1-AJUNOK_clean_linker_0
_symmetry_space_group_name_H-M    P1
_symmetry_Int_Tables_number       1
_symmetry_cell_setting            triclinic
loop_
_symmetry_equiv_pos_as_xyz
'x, y, z'
_cell_length_a     25.791346
_cell_length_b     25.818761
_cell_length_c     35.852585
_cell_angle_alpha  89.990609
_cell_angle_beta   89.995456
_cell_angle_gamma 90.011503
loop_
_atom_site_label
_atom_site_type_symbol
_atom_site_fract_x
_atom_site_fract_y
_atom_site_fract_z
_atom_type_partial_charge
Co0 Co 0.28861 0.10652 0.15905 0.0
Co1 Co 0.37985 0.06006 0.21956 0.0
O2 O 0.35821 0.07826 0.16824 0.0
C3 C 0.31759 0.05283 0.08736 0.0
O4 O 0.36039 0.0341 0.1018 0.0
C5 C 0.48106 0.08392 0.17819 0.0
O6 O 0.45682 0.09811 0.14769 0.0
O7 O 0.36983 0.1346 0.23439 0.0
O8 O 0.29169 0.14442 0.20733 0.0
H9 H 0.37209 0.06598 0.35992 0.0
H10 H 0.37947 0.12793 0.10817 0.0
O11 O 0.28302 0.07217 0.10859 0.0
H12 H 0.29777 0.29731 0.12996 0.0
H13 H 0.14012 0.17546 0.08232 0.0
H14 H 0.19616 0.11973 0.20755 0.0
H15 H 0.26428 0.21939 0.16121 0.0
H16 H 0.23068 0.14994 0.09374 0.0
O17 O 0.4554 0.07192 0.20734 0.0
H18 H 0.34457 0.08726 0.296 0.0
H19 H 0.46484 0.99482 0.25125 0.0
H20 H 0.10541 0.14665 0.19756 0.0
H21 H 0.41434 0.20461 0.07688 0.0
H22 H 0.07669 0.17264 0.13408 0.0
H23 H 0.37332 0.29038 0.08738 0.0
O24 O 0.25797 0.04407 0.18433 0.0
H25 H 0.43229 0.91279 0.13493 0.0
H26 H 0.34528 0.95977 0.25251 0.0
H27 H 0.34995 0.86821 0.23387 0.0
H28 H 0.39401 0.84404 0.17479 0.0
H29 H 0.42595 0.00378 0.15422 0.0
H30 H 0.49452 0.97269 0.31454 0.0
H31 H 0.44793 0.00816 0.36954 0.0
O32 O 0.30673 0.04611 0.23571 0.0
C33 C 0.3276 0.15999 0.2291 0.0
C34 C 0.39282 0.05028 0.33623 0.0
C35 C 0.46147 0.99798 0.31078 0.0
N36 N 0.40272 0.04271 0.26984 0.0
C37 C 0.37719 0.06235 0.29996 0.0
C38 C 0.44456 0.01089 0.27495 0.0
C39 C 0.43532 0.01786 0.3416 0.0
C40 C 0.36064 0.16441 0.11273 0.0
N41 N 0.31824 0.16807 0.13545 0.0
C42 C 0.38098 0.20811 0.09503 0.0
C43 C 0.35806 0.2562 0.10099 0.0
C44 C 0.31569 0.26009 0.12486 0.0
C45 C 0.29668 0.21558 0.14229 0.0
C46 C 0.15217 0.16353 0.10993 0.0
C47 C 0.18421 0.13237 0.18013 0.0
C48 C 0.20331 0.14851 0.1165 0.0
N49 N 0.21868 0.13256 0.15117 0.0
C50 C 0.13276 0.1475 0.17465 0.0
C51 C 0.11668 0.16254 0.13916 0.0
C52 C 0.26593 0.03214 0.21849 0.0
C53 C 0.41331 0.92278 0.16087 0.0
C54 C 0.36444 0.94983 0.22667 0.0
C55 C 0.36703 0.89776 0.21632 0.0
C56 C 0.39174 0.88423 0.1832 0.0
N57 N 0.38603 0.98758 0.20478 0.0
C58 C 0.4099 0.97447 0.17211 0.0
Co59 Co 0.03013 0.25804 0.64116 0.0
Co60 Co 0.03768 0.34264 0.71305 0.0
O61 O 0.04285 0.32912 0.65886 0.0
C62 C 0.09103 0.30872 0.5799 0.0
O63 O 0.09922 0.35109 0.59924 0.0
C64 C 0.01665 0.44584 0.67478 0.0
O65 O 0.01562 0.42361 0.64195 0.0
O66 O 0.96288 0.32078 0.71038 0.0
O67 O 0.98089 0.2455 0.68303 0.0
H68 H 0.97719 0.29897 0.84249 0.0
H69 H 1.00362 0.35346 0.59617 0.0
O70 O 0.07713 0.26733 0.5966 0.0
H71 H 0.85035 0.24135 0.58621 0.0
H72 H 0.00411 0.11277 0.54852 0.0
H73 H 0.02579 0.1578 0.68118 0.0
H74 H 0.92577 0.21351 0.62253 0.0
H75 H 0.01204 0.20399 0.56803 0.0
O76 O 0.01906 0.41814 0.7043 0.0
H77 H 0.98963 0.28424 0.77521 0.0
H78 H 0.06925 0.42759 0.76531 0.0
H79 H 0.01615 0.06643 0.66317 0.0
H80 H 0.92986 0.38221 0.55889 0.0
H81 H 0.00596 0.04313 0.59638 0.0
H82 H 0.852 0.32614 0.55354 0.0
O83 O 0.08977 0.23536 0.67294 0.0
H84 H 0.2013 0.4267 0.66505 0.0
H85 H 0.12515 0.32118 0.76558 0.0
H86 H 0.21792 0.34288 0.7677 0.0
H87 H 0.25668 0.39636 0.71731 0.0
H88 H 0.1091 0.40342 0.66367 0.0
H89 H 0.05709 0.44424 0.83247 0.0
H90 H 0.01099 0.3795 0.87159 0.0
O91 O 0.05936 0.26956 0.72554 0.0
C92 C 0.94913 0.27553 0.69957 0.0
C93 C 0.99731 0.3275 0.82575 0.0
C94 C 0.04204 0.40907 0.8201 0.0
N95 N 0.0298 0.35523 0.76621 0.0
C96 C 0.00447 0.3194 0.78759 0.0
C97 C 0.04846 0.39964 0.78202 0.0
C98 C 0.01624 0.3727 0.84205 0.0
C99 C 0.97101 0.32808 0.59381 0.0
N100 N 0.97066 0.28091 0.61114 0.0
C101 C 0.92875 0.34493 0.57269 0.0
C102 C 0.88509 0.31356 0.56975 0.0
C103 C 0.88417 0.26605 0.58804 0.0
C104 C 0.92728 0.25048 0.60877 0.0
C105 C 0.00909 0.12232 0.57769 0.0
C106 C 0.02108 0.14826 0.65205 0.0
C107 C 0.0143 0.17392 0.58881 0.0
N108 N 0.02032 0.18642 0.62561 0.0
C109 C 0.01575 0.09631 0.642 0.0
C110 C 0.00998 0.08329 0.60454 0.0
C111 C 0.0903 0.23907 0.70852 0.0
C112 C 0.18479 0.40379 0.68737 0.0
C113 C 0.14142 0.34459 0.74354 0.0
C114 C 0.19414 0.35673 0.74491 0.0
C115 C 0.21586 0.38668 0.71664 0.0
N116 N 0.11084 0.36196 0.71494 0.0
C117 C 0.13222 0.39077 0.68689 0.0
Co118 Co 0.88565 0.05464 0.13333 0.0
Co119 Co 0.80347 0.06466 0.2068 0.0
O120 O 0.8151 0.06479 0.15245 0.0
C121 C 0.82993 0.11126 0.07165 0.0
O122 O 0.78729 0.11622 0.09132 0.0
C123 C 0.70175 0.0309 0.17154 0.0
O124 O 0.72382 0.02523 0.13887 0.0
O125 O 0.83098 0.99177 0.20896 0.0
O126 O 0.90289 0.00995 0.1767 0.0
H127 H 0.85283 0.02481 0.33946 0.0
H128 H 0.79204 0.02137 0.08792 0.0
O129 O 0.87191 0.09736 0.08743 0.0
H130 H 0.90542 0.86857 0.09344 0.0
H131 H 0.02157 0.01818 0.03554 0.0
H132 H 0.99103 0.06768 0.16638 0.0
H133 H 0.93067 0.94922 0.12495 0.0
H134 H 0.93259 0.02765 0.05953 0.0
O135 O 0.72941 0.04015 0.20033 0.0
H136 H 0.8657 0.02832 0.27145 0.0
H137 H 0.71786 0.09813 0.25766 0.0
H138 H 0.08044 0.05565 0.14413 0.0
H139 H 0.76613 0.94234 0.05541 0.0
H140 H 0.09638 0.03169 0.07809 0.0
H141 H 0.82288 0.86476 0.0579 0.0
O142 O 0.90791 0.11762 0.16224 0.0
H143 H 0.70482 0.21513 0.15162 0.0
H144 H 0.82326 0.15987 0.25186 0.0
H145 H 0.79537 0.25088 0.24866 0.0
H146 H 0.73538 0.27909 0.19843 0.0
H147 H 0.73428 0.12492 0.1554 0.0
H148 H 0.70298 0.09461 0.32552 0.0
H149 H 0.7709 0.05798 0.36698 0.0
O150 O 0.87502 0.09149 0.21664 0.0
C151 C 0.87767 0.98126 0.1993 0.0
C152 C 0.82284 0.0407 0.32169 0.0
C153 C 0.73874 0.0798 0.31387 0.0
N154 N 0.79231 0.06288 0.26044 0.0
C155 C 0.82988 0.04275 0.2831 0.0
C156 C 0.74719 0.08129 0.27541 0.0
C157 C 0.77688 0.05931 0.33711 0.0
C158 C 0.81795 0.98901 0.08851 0.0
N159 N 0.86406 0.99156 0.1072 0.0
C160 C 0.80262 0.94371 0.0703 0.0
C161 C 0.83435 0.90017 0.0718 0.0
C162 C 0.88063 0.90231 0.09169 0.0
C163 C 0.89472 0.94832 0.10946 0.0
C164 C 0.0152 0.02851 0.06443 0.0
C165 C 0.99733 0.05582 0.13791 0.0
C166 C 0.96483 0.03409 0.0782 0.0
N167 N 0.95628 0.04671 0.11476 0.0
C168 C 0.04821 0.04977 0.12531 0.0
C169 C 0.05713 0.03614 0.08828 0.0
C170 C 0.90604 0.11979 0.19795 0.0
C171 C 0.73056 0.20322 0.17387 0.0
C172 C 0.79705 0.17158 0.2299 0.0
C173 C 0.78141 0.22331 0.22826 0.0
C174 C 0.74779 0.23911 0.20008 0.0
N175 N 0.77949 0.13627 0.20436 0.0
C176 C 0.74711 0.15183 0.17636 0.0
Co177 Co 0.08393 0.8579 0.6573 0.0
Co178 Co 0.03223 0.76855 0.71718 0.0
O179 O 0.05772 0.78774 0.66714 0.0
C180 C 0.04062 0.82055 0.58372 0.0
O181 O 0.02201 0.77842 0.59915 0.0
C182 C 0.06909 0.66668 0.68245 0.0
O183 O 0.08754 0.69003 0.65277 0.0
O184 O 0.10298 0.78524 0.73811 0.0
O185 O 0.11247 0.8616 0.70861 0.0
H186 H 0.01629 0.7833 0.85695 0.0
H187 H 0.11818 0.767 0.61052 0.0
O188 O 0.05853 0.85689 0.60403 0.0
H189 H 0.2789 0.85169 0.6524 0.0
H190 H 0.16095 1.00197 0.58022 0.0
H191 H 0.08525 0.95498 0.7019 0.0
H192 H 0.19402 0.88597 0.67146 0.0
H193 H 0.1352 0.91194 0.59326 0.0
O194 O 0.05089 0.69323 0.70945 0.0
H195 H 0.04644 0.80837 0.79441 0.0
H196 H 0.96627 0.68226 0.74609 0.0
H197 H 0.11235 0.04517 0.6904 0.0
H198 H 0.20196 0.73208 0.59042 0.0
H199 H 0.14876 0.06939 0.62864 0.0
H200 H 0.28342 0.77438 0.61131 0.0
O201 O 0.01647 0.88729 0.67548 0.0
H202 H 0.90403 0.69811 0.62346 0.0
H203 H 0.92506 0.7989 0.73917 0.0
H204 H 0.83775 0.78581 0.71324 0.0
H205 H 0.82663 0.73476 0.65508 0.0
H206 H 0.9905 0.71288 0.64987 0.0
H207 H 0.93553 0.65485 0.808 0.0
H208 H 0.96023 0.70566 0.86409 0.0
O209 O 0.01079 0.84165 0.72832 0.0
C210 C 0.1259 0.82904 0.73348 0.0
C211 C 0.00491 0.76098 0.83275 0.0
C212 C 0.95968 0.68893 0.8053 0.0
N213 N 0.00772 0.74786 0.76645 0.0
C214 C 0.02179 0.77543 0.79722 0.0
C215 C 0.97733 0.7047 0.77026 0.0
C216 C 0.97355 0.71741 0.83674 0.0
C217 C 0.15288 0.78655 0.61921 0.0
N218 N 0.1505 0.82969 0.64122 0.0
C219 C 0.20054 0.76617 0.60796 0.0
C220 C 0.24622 0.78982 0.61975 0.0
C221 C 0.24371 0.83319 0.64276 0.0
C222 C 0.19535 0.85251 0.65338 0.0
C223 C 0.14458 0.99192 0.60706 0.0
C224 C 0.10226 0.96492 0.6753 0.0
C225 C 0.12956 0.94103 0.61455 0.0
N226 N 0.10826 0.92811 0.64824 0.0
C227 C 0.11739 0.01612 0.66892 0.0
C228 C 0.13807 0.02969 0.63437 0.0
C229 C 0.99901 0.8811 0.70862 0.0
C230 C 0.9083 0.72013 0.64896 0.0
C231 C 0.92084 0.77684 0.71373 0.0
C232 C 0.87113 0.76944 0.69925 0.0
C233 C 0.86492 0.74079 0.66666 0.0
N234 N 0.96337 0.75608 0.69643 0.0
C235 C 0.95743 0.72836 0.66426 0.0
Co236 Co 0.24484 0.05825 0.87152 0.0
Co237 Co 0.33132 0.05339 0.8002 0.0
O238 O 0.31695 0.06186 0.85383 0.0
C239 C 0.3034 0.11579 0.93069 0.0
O240 O 0.34477 0.12123 0.9098 0.0
C241 C 0.43038 0.02329 0.84036 0.0
O242 O 0.4068 0.02334 0.87269 0.0
O243 O 0.29952 0.98218 0.80316 0.0
O244 O 0.22665 0.00923 0.83049 0.0
H245 H 0.28577 0.99439 0.67068 0.0
H246 H 0.33593 0.02338 0.91839 0.0
O247 O 0.25997 0.10532 0.91537 0.0
H248 H 0.2088 0.88215 0.9269 0.0
H249 H 0.1003 0.05028 0.96646 0.0
H250 H 0.14311 0.0684 0.83314 0.0
H251 H 0.19024 0.95915 0.88909 0.0
H252 H 0.19121 0.04728 0.94535 0.0
O253 O 0.40376 0.02591 0.81036 0.0
H254 H 0.27 0.01056 0.73741 0.0
H255 H 0.422 0.07168 0.74953 0.0
H256 H 0.05181 0.0706 0.8529 0.0
H257 H 0.35556 0.94804 0.95713 0.0
H258 H 0.02976 0.0618 0.91998 0.0
H259 H 0.29176 0.87628 0.96179 0.0
O260 O 0.22811 0.1184 0.83798 0.0
H261 H 0.43457 0.20632 0.84733 0.0
H262 H 0.32348 0.14113 0.74606 0.0
H263 H 0.35721 0.22997 0.74278 0.0
H264 H 0.41366 0.26319 0.79353 0.0
H265 H 0.3992 0.11835 0.84981 0.0
H266 H 0.43954 0.05584 0.68293 0.0
H267 H 0.37105 0.0172 0.64294 0.0
O268 O 0.26179 0.08348 0.78643 0.0
C269 C 0.2521 0.97486 0.81263 0.0
C270 C 0.31593 0.01132 0.68779 0.0
C271 C 0.40221 0.04579 0.69467 0.0
N272 N 0.34488 0.04234 0.74742 0.0
C273 C 0.30723 0.02058 0.72565 0.0
C274 C 0.39211 0.05448 0.73243 0.0
C275 C 0.36377 0.02412 0.67225 0.0
C276 C 0.30725 0.99361 0.92067 0.0
N277 N 0.26092 0.99762 0.9024 0.0
C278 C 0.3189 0.95036 0.94252 0.0
C279 C 0.28321 0.91011 0.94505 0.0
C280 C 0.2367 0.91341 0.92553 0.0
C281 C 0.22637 0.9574 0.90411 0.0
C282 C 0.10939 0.05433 0.93712 0.0
C283 C 0.1341 0.06453 0.86241 0.0
C284 C 0.16088 0.05294 0.92502 0.0
N285 N 0.17277 0.05754 0.88798 0.0
C286 C 0.08218 0.06588 0.87344 0.0
C287 C 0.06984 0.06081 0.91107 0.0
C288 C 0.23131 0.11565 0.80232 0.0
C289 C 0.41035 0.19221 0.82486 0.0
C290 C 0.34775 0.155 0.76836 0.0
C291 C 0.3669 0.20552 0.76629 0.0
C292 C 0.39854 0.22412 0.79474 0.0
N293 N 0.35991 0.12346 0.79777 0.0
C294 C 0.39038 0.14194 0.82598 0.0
Co295 Co 0.09875 0.26518 0.35958 0.0
Co296 Co 0.09289 0.35572 0.29106 0.0
O297 O 0.08748 0.33758 0.34445 0.0
C298 C 0.03638 0.31229 0.42149 0.0
O299 O 0.02829 0.35557 0.40322 0.0
C300 C 0.1174 0.45511 0.33328 0.0
O301 O 0.11747 0.43101 0.36543 0.0
O302 O 0.16709 0.33157 0.29206 0.0
O303 O 0.1488 0.25517 0.31799 0.0
H304 H 0.15312 0.3241 0.15972 0.0
H305 H 0.12438 0.35715 0.40837 0.0
O306 O 0.05056 0.27183 0.40377 0.0
H307 H 0.27673 0.24362 0.41671 0.0
H308 H 0.1211 0.11377 0.4475 0.0
H309 H 0.1039 0.1676 0.3162 0.0
H310 H 0.20227 0.21872 0.37835 0.0
H311 H 0.11431 0.2062 0.43098 0.0
O312 O 0.114 0.42936 0.30297 0.0
H313 H 0.14094 0.30327 0.22616 0.0
H314 H 0.06105 0.44517 0.2429 0.0
H315 H 0.11222 0.07506 0.33125 0.0
H316 H 0.19712 0.38288 0.44775 0.0
H317 H 0.12029 0.04737 0.39734 0.0
H318 H 0.27453 0.32608 0.4523 0.0
O319 O 0.04003 0.24461 0.32601 0.0
H320 H 0.93311 0.44053 0.3448 0.0
H321 H 1.00346 0.34281 0.23845 0.0
H322 H 0.91144 0.36706 0.23863 0.0
H323 H 0.87553 0.41676 0.292 0.0
H324 H 0.02443 0.41441 0.3438 0.0
H325 H 0.0727 0.46779 0.17661 0.0
H326 H 0.11883 0.40691 0.13446 0.0
O327 O 0.06951 0.28466 0.27519 0.0
C328 C 0.18011 0.28539 0.30117 0.0
C329 C 0.13304 0.35103 0.17779 0.0
C330 C 0.08794 0.43166 0.18729 0.0
N331 N 0.10056 0.3731 0.23855 0.0
C332 C 0.12609 0.3395 0.21552 0.0
C333 C 0.08175 0.4188 0.22487 0.0
C334 C 0.11379 0.39747 0.16365 0.0
C335 C 0.15683 0.33149 0.41027 0.0
N336 N 0.15748 0.2856 0.39125 0.0
C337 C 0.1985 0.34661 0.43263 0.0
C338 C 0.2419 0.31484 0.43513 0.0
C339 C 0.24313 0.26865 0.41519 0.0
C340 C 0.2006 0.25478 0.39325 0.0
C341 C 0.11709 0.12526 0.41861 0.0
C342 C 0.10759 0.15613 0.34504 0.0
C343 C 0.11249 0.17756 0.40917 0.0
N344 N 0.10768 0.19251 0.37276 0.0
C345 C 0.11227 0.10354 0.3534 0.0
C346 C 0.11682 0.08805 0.39047 0.0
C347 C 0.04045 0.25088 0.29057 0.0
C348 C 0.9483 0.41912 0.32126 0.0
C349 C 0.98842 0.36389 0.26192 0.0
C350 C 0.93611 0.37782 0.26179 0.0
C351 C 0.916 0.4057 0.29169 0.0
N352 N 0.02022 0.37742 0.29087 0.0
C353 C 1.00041 0.40442 0.32041 0.0
Co354 Co 0.84084 0.10853 0.84041 0.0
Co355 Co 0.74875 0.05474 0.78361 0.0
O356 O 0.77191 0.07719 0.83381 0.0
C357 C 0.81768 0.05654 0.91407 0.0
O358 O 0.77485 0.03597 0.90102 0.0
C359 C 0.64969 0.08105 0.82618 0.0
O360 O 0.67602 0.1011 0.85391 0.0
O361 O 0.75653 0.1281 0.76538 0.0
O362 O 0.83501 0.14181 0.7907 0.0
H363 H 0.75505 0.04745 0.64334 0.0
H364 H 0.75342 0.13014 0.89376 0.0
O365 O 0.84936 0.07893 0.89206 0.0
H366 H 0.82474 0.301 0.86139 0.0
H367 H 0.9881 0.19773 0.9077 0.0
H368 H 0.93032 0.12005 0.78919 0.0
H369 H 0.85962 0.22213 0.83212 0.0
H370 H 0.90019 0.16111 0.90184 0.0
O371 O 0.67324 0.06598 0.79685 0.0
H372 H 0.784 0.07382 0.70596 0.0
H373 H 0.66154 0.989 0.75561 0.0
H374 H 0.01784 0.15766 0.79349 0.0
H375 H 0.71679 0.20777 0.9228 0.0
H376 H 0.0474 0.19679 0.85308 0.0
H377 H 0.75264 0.29428 0.90693 0.0
O378 O 0.87248 0.04506 0.81765 0.0
H379 H 0.70127 0.91352 0.87477 0.0
H380 H 0.78338 0.95266 0.75389 0.0
H381 H 0.78038 0.86252 0.77607 0.0
H382 H 0.73883 0.84231 0.83686 0.0
H383 H 0.70583 1.00306 0.85187 0.0
H384 H 0.63048 0.96208 0.69364 0.0
H385 H 0.67748 0.99108 0.63687 0.0
O386 O 0.82198 0.04054 0.76711 0.0
C387 C 0.7983 0.1547 0.76884 0.0
C388 C 0.73415 0.03457 0.66783 0.0
C389 C 0.66426 0.98674 0.69604 0.0
N390 N 0.72476 0.03336 0.73446 0.0
C391 C 0.75055 0.04949 0.70336 0.0
C392 C 0.68192 1.00241 0.7311 0.0
C393 C 0.69066 1.00298 0.66422 0.0
C394 C 0.76969 0.16709 0.88663 0.0
N395 N 0.80989 0.17079 0.86194 0.0
C396 C 0.74847 0.21125 0.90315 0.0
C397 C 0.76849 0.25974 0.89419 0.0
C398 C 0.80887 0.26351 0.86858 0.0
C399 C 0.82865 0.21854 0.85226 0.0
C400 C 0.97574 0.18068 0.8816 0.0
C401 C 0.94269 0.13707 0.81524 0.0
C402 C 0.92617 0.15931 0.87825 0.0
N403 N 0.91009 0.13795 0.84532 0.0
C404 C 0.99239 0.15835 0.81749 0.0
C405 C 0.00895 0.18025 0.85093 0.0
C406 C 0.86354 0.02916 0.7845 0.0
C407 C 0.71919 0.92177 0.84812 0.0
C408 C 0.76526 0.94441 0.78042 0.0
C409 C 0.76364 0.89316 0.7928 0.0
C410 C 0.74034 0.88185 0.82688 0.0
N411 N 0.74415 0.98349 0.80128 0.0
C412 C 0.7216 0.97259 0.83486 0.0
Co413 Co 0.05231 0.86541 0.35741 0.0
Co414 Co 0.09714 0.77806 0.29347 0.0
O415 O 0.0785 0.79577 0.34539 0.0
C416 C 0.10457 0.82763 0.42752 0.0
O417 O 0.12375 0.78724 0.41018 0.0
C418 C 0.06481 0.67566 0.32912 0.0
O419 O 0.04858 0.69867 0.35957 0.0
O420 O 0.0239 0.79381 0.2776 0.0
O421 O 0.0177 0.86919 0.30825 0.0
H422 H 0.09328 0.80053 0.15392 0.0
H423 H 0.02568 0.77332 0.40549 0.0
O424 O 0.08382 0.86425 0.40895 0.0
H425 H 0.85872 0.85463 0.3743 0.0
H426 H 0.97553 0.00641 0.43782 0.0
H427 H 0.04376 0.96237 0.31336 0.0
H428 H 0.94017 0.89086 0.35001 0.0
H429 H 0.00751 0.91838 0.42458 0.0
O430 O 0.08045 0.70249 0.30145 0.0
H431 H 0.07205 0.8223 0.2189 0.0
H432 H 0.15985 0.69435 0.25761 0.0
H433 H 0.01 0.05012 0.32499 0.0
H434 H 0.94552 0.73657 0.43082 0.0
H435 H 0.97607 0.07285 0.38769 0.0
H436 H 0.86093 0.77716 0.41534 0.0
O437 O 0.11711 0.8964 0.33528 0.0
H438 H 0.2375 0.70613 0.37685 0.0
H439 H 0.20086 0.80967 0.26444 0.0
H440 H 0.29126 0.79635 0.28403 0.0
H441 H 0.31022 0.7439 0.34048 0.0
H442 H 0.14779 0.7212 0.35675 0.0
H443 H 0.18161 0.67051 0.19297 0.0
H444 H 0.14847 0.72392 0.14051 0.0
O445 O 0.11652 0.8513 0.28212 0.0
C446 C 1.00188 0.83757 0.28353 0.0
C447 C 0.10806 0.77696 0.17651 0.0
C448 C 0.15756 0.70402 0.19841 0.0
N449 N 0.11467 0.75999 0.24223 0.0
C450 C 0.09619 0.7893 0.21346 0.0
C451 C 0.14489 0.71763 0.235 0.0
C452 C 0.13898 0.73398 0.16901 0.0
C453 C 0.98967 0.79223 0.3992 0.0
N454 N 0.98846 0.83557 0.37732 0.0
C455 C 0.94404 0.77076 0.41337 0.0
C456 C 0.89661 0.79345 0.40461 0.0
C457 C 0.89535 0.83691 0.38163 0.0
C458 C 0.9418 0.85734 0.36803 0.0
C459 C 0.99035 0.997 0.4104 0.0
C460 C 0.02855 0.97164 0.34063 0.0
C461 C 0.00898 0.9473 0.40281 0.0
N462 N 0.02755 0.93503 0.36818 0.0
C463 C 0.0096 0.02151 0.34707 0.0
C464 C 0.99054 0.03423 0.38225 0.0
C465 C 0.13134 0.89009 0.30131 0.0
C466 C 0.22978 0.72879 0.35206 0.0
C467 C 0.20851 0.78703 0.28919 0.0
C468 C 0.25994 0.77949 0.30006 0.0
C469 C 0.27055 0.75006 0.3317 0.0
N470 N 0.16855 0.76568 0.30909 0.0
C471 C 0.17882 0.73719 0.34034 0.0
C472 C 0.26765 0.08218 0.03096 0.0
C473 C 0.31492 0.06578 0.04678 0.0
C474 C 0.26492 0.10097 0.99425 0.0
C475 C 0.30918 0.1038 0.97132 0.0
H476 H 0.23223 0.08078 0.04715 0.0
H477 H 0.22751 0.11306 0.98368 0.0
S478 S 0.44288 0.06645 0.99927 0.0
N479 N 0.40746 0.05463 0.03661 0.0
N480 N 0.40229 0.089 0.96762 0.0
C481 C 0.3569 0.08796 0.98686 0.0
C482 C 0.35967 0.06882 0.02434 0.0
C483 C 0.07276 0.26588 0.51859 0.0
C484 C 0.08107 0.31179 0.53889 0.0
C485 C 0.05443 0.2667 0.48182 0.0
C486 C 0.04626 0.3135 0.46257 0.0
H487 H 0.07994 0.22857 0.53131 0.0
H488 H 0.04711 0.23 0.46826 0.0
S489 S 0.06382 0.44537 0.50224 0.0
N490 N 0.07916 0.40603 0.53681 0.0
N491 N 0.04838 0.40761 0.4668 0.0
C492 C 0.05511 0.36001 0.48224 0.0
C493 C 0.07231 0.35915 0.5203 0.0
C494 C 0.77765 0.06918 0.97726 0.0
C495 C 0.82234 0.06794 0.95466 0.0
C496 C 0.77975 0.08635 0.01442 0.0
C497 C 0.82662 0.10305 0.0306 0.0
H498 H 0.74043 0.05755 0.96606 0.0
H499 H 0.74452 0.08501 0.03084 0.0
S500 S 0.9547 0.10836 0.98338 0.0
N501 N 0.91512 0.08442 0.95159 0.0
N502 N 0.91849 0.11908 0.02054 0.0
C503 C 0.87141 0.10287 0.00811 0.0
C504 C 0.86946 0.0846 0.97051 0.0
C505 C 0.08186 0.87029 0.48823 0.0
C506 C 0.09213 0.82464 0.46803 0.0
C507 C 0.06388 0.86858 0.5252 0.0
C508 C 0.05423 0.82115 0.54335 0.0
H509 H 0.08756 0.90779 0.47529 0.0
H510 H 0.05743 0.90484 0.53968 0.0
S511 S 0.07421 0.69023 0.50281 0.0
N512 N 0.09111 0.73039 0.46912 0.0
N513 N 0.05679 0.7272 0.5382 0.0
C514 C 0.06403 0.77515 0.52342 0.0
C515 C 0.08323 0.77688 0.48598 0.0
C516 C 0.56393 0.06724 0.14289 0.0
C517 C 0.53777 0.07203 0.17722 0.0
C518 C 0.61618 0.05173 0.14118 0.0
C519 C 0.64463 0.04009 0.17373 0.0
H520 H 0.54385 0.07509 0.11696 0.0
H521 H 0.63461 0.04991 0.11407 0.0
S522 S 0.59429 0.04557 0.27073 0.0
N523 N 0.54514 0.06463 0.2447 0.0
N524 N 0.64164 0.0325 0.24128 0.0
C525 C 0.61865 0.04383 0.20817 0.0
C526 C 0.56584 0.06061 0.20997 0.0
C527 C 0.04355 0.53034 0.64547 0.0
C528 C 0.0271 0.50274 0.67732 0.0
C529 C 0.05881 0.58258 0.64759 0.0
C530 C 0.05844 0.60974 0.68166 0.0
H531 H 0.04541 0.51134 0.61857 0.0
H532 H 0.07023 0.60197 0.62208 0.0
S533 S 0.01895 0.55564 0.77351 0.0
N534 N 0.01039 0.50739 0.74398 0.0
N535 N 0.04136 0.60421 0.74831 0.0
C536 C 0.0425 0.58249 0.7138 0.0
C537 C 0.02623 0.52953 0.71154 0.0
C538 C 0.56501 0.04872 0.80002 0.0
C539 C 0.59364 0.06738 0.83073 0.0
C540 C 0.51318 0.03264 0.80372 0.0
C541 C 0.48736 0.0342 0.83834 0.0
H542 H 0.58263 0.04661 0.77265 0.0
H543 H 0.49309 0.01931 0.77901 0.0
S544 S 0.54498 0.07865 0.9279 0.0
N545 N 0.59221 0.08549 0.89728 0.0
N546 N 0.49519 0.05549 0.90428 0.0
C547 C 0.51573 0.05211 0.86946 0.0
C548 C 0.56853 0.06877 0.86562 0.0
C549 C 0.09151 0.53866 0.36438 0.0
C550 C 0.108 0.51216 0.33209 0.0
C551 C 0.07603 0.59088 0.36303 0.0
C552 C 0.07592 0.61886 0.32928 0.0
H553 H 0.08964 0.51876 0.39095 0.0
H554 H 0.06456 0.6095 0.38881 0.0
S555 S 0.11578 0.56771 0.23665 0.0
N556 N 0.12529 0.519 0.2656 0.0
N557 N 0.09245 0.61512 0.26249 0.0
C558 C 0.09189 0.59262 0.29675 0.0
C559 C 0.10896 0.53998 0.29831 0.0
C560 C 0.24086 0.21074 0.30108 0.0
C561 C 0.22929 0.26102 0.2881 0.0
C562 C 0.28022 0.18107 0.28557 0.0
C563 C 0.31015 0.19947 0.2559 0.0
H564 H 0.21642 0.19142 0.32117 0.0
H565 H 0.28175 0.14098 0.29369 0.0
S566 S 0.302 0.33084 0.21445 0.0
N567 N 0.25587 0.33046 0.24645 0.0
N568 N 0.33008 0.27334 0.2165 0.0
C569 C 0.3025 0.25115 0.24451 0.0
C570 C 0.26211 0.28216 0.26072 0.0
C571 C 0.88749 0.20131 0.69815 0.0
C572 C 0.89873 0.25184 0.71082 0.0
C573 C 0.84603 0.17287 0.71219 0.0
C574 C 0.81433 0.19263 0.74048 0.0
H575 H 0.91338 0.18104 0.6795 0.0
H576 H 0.84415 0.13254 0.70459 0.0
S577 S 0.8191 0.32634 0.77805 0.0
N578 N 0.86853 0.32378 0.74879 0.0
N579 N 0.79094 0.26884 0.77634 0.0
C580 C 0.8212 0.24489 0.75062 0.0
C581 C 0.86344 0.27468 0.73577 0.0
C582 C 0.91579 0.85938 0.25457 0.0
C583 C 0.97035 0.86271 0.25448 0.0
C584 C 0.88512 0.89706 0.23619 0.0
C585 C 0.90829 0.93971 0.21808 0.0
H586 H 0.89676 0.8293 0.27058 0.0
H587 H 0.8433 0.89357 0.23708 0.0
S588 S 0.04979 0.96876 0.21465 0.0
N589 N 0.04549 0.913 0.23659 0.0
N590 N 0.98961 0.98394 0.20436 0.0
C591 C 0.96293 0.94292 0.21834 0.0
C592 C 0.99347 0.90438 0.23586 0.0
C593 C 0.21356 0.85332 0.75743 0.0
C594 C 0.15937 0.85167 0.76252 0.0
C595 C 0.2443 0.89148 0.77508 0.0
C596 C 0.22172 0.9296 0.79814 0.0
H597 H 0.23172 0.82752 0.73751 0.0
H598 H 0.28541 0.89272 0.76902 0.0
S599 S 0.08062 0.94243 0.81911 0.0
N600 N 0.08479 0.89251 0.7908 0.0
N601 N 0.14095 0.96094 0.82563 0.0
C602 C 0.16767 0.92626 0.80459 0.0
C603 C 0.13693 0.88826 0.78633 0.0
C604 C 0.92883 0.95729 0.78471 0.0
C605 C 0.90167 0.99548 0.76492 0.0
C606 C 0.95989 0.92087 0.76611 0.0
C607 C 0.96652 0.9218 0.72694 0.0
H608 H 0.9244 0.95411 0.81467 0.0
H609 H 0.97839 0.89126 0.78282 0.0
S610 S 0.90521 0.01586 0.66233 0.0
N611 N 0.8841 0.03303 0.704 0.0
N612 N 0.94373 0.96567 0.66924 0.0
C613 C 0.94076 0.96092 0.70693 0.0
C614 C 0.90814 0.9974 0.72584 0.0
C615 C 0.20075 0.96027 0.22176 0.0
C616 C 0.22795 1.00008 0.23968 0.0
C617 C 0.17012 0.92533 0.2421 0.0
C618 C 0.16372 0.92944 0.28126 0.0
H619 H 0.2048 0.95466 0.19195 0.0
H620 H 0.15151 0.89448 0.22665 0.0
S621 S 0.22627 0.02811 0.34143 0.0
N622 N 0.24652 0.04213 0.29895 0.0
N623 N 0.18755 0.97756 0.33688 0.0
C624 C 0.1898 0.96999 0.29941 0.0
C625 C 0.22206 0.00498 0.27873 0.0
C626 C 0.12236 0.20683 0.77096 0.0
C627 C 0.12562 0.2059 0.73157 0.0
C628 C 0.15643 0.178 0.79356 0.0
C629 C 0.19533 0.14653 0.77793 0.0
H630 H 0.09333 0.23034 0.78471 0.0
H631 H 0.15203 0.18042 0.82355 0.0
S632 S 0.22037 0.12989 0.6762 0.0
N633 N 0.17124 0.17065 0.67807 0.0
N634 N 0.23399 0.11573 0.71991 0.0
C635 C 0.19843 0.14469 0.73848 0.0
C636 C 0.16402 0.17441 0.71554 0.0
C637 C 0.97881 0.17629 0.28129 0.0
C638 C 0.00869 0.21641 0.26582 0.0
C639 C 0.9469 0.14507 0.25893 0.0
C640 C 0.94284 0.15252 0.21993 0.0
H641 H 0.97964 0.16898 0.31103 0.0
H642 H 0.92481 0.11497 0.27271 0.0
S643 S 0.013 0.25198 0.16506 0.0
N644 N 0.0336 0.26026 0.20819 0.0
N645 N 0.97162 0.2033 0.16691 0.0
C646 C 0.97298 0.19189 0.20391 0.0
C647 C 0.00627 0.22329 0.2266 0.0
loop_
_geom_bond_atom_site_label_1
_geom_bond_atom_site_label_2
_geom_bond_distance
_geom_bond_site_symmetry_2
_ccdc_geom_bond_type
Co0 O2 2.143 . S
Co0 O8 2.074 . S
Co0 O11 2.093 . S
Co0 O24 2.097 . S
Co0 N41 2.151 . S
Co0 N49 2.214 . S
Co1 O2 2.160 . S
Co1 O7 2.058 . S
Co1 O17 2.057 . S
Co1 O32 2.037 . S
Co1 N36 2.145 . S
Co1 N57 2.257 1_545 S
O2 Co0 2.143 . S
O2 Co1 2.160 . S
C3 O4 1.278 . S
C3 O11 1.224 . S
O4 C3 1.278 . S
C5 O6 1.245 . S
C5 O17 1.232 . S
O6 C5 1.245 . S
O7 Co1 2.058 . S
O7 C33 1.269 . S
O8 Co0 2.074 . S
O8 C33 1.257 . S
H9 C34 0.930 . S
H10 C40 0.930 . S
O11 Co0 2.093 . S
O11 C3 1.224 . S
H12 C44 0.929 . S
H13 C46 0.930 . S
H14 C47 0.930 . S
H15 C45 0.929 . S
H16 C48 0.928 . S
O17 Co1 2.057 . S
O17 C5 1.232 . S
H18 C37 0.929 . S
H19 C38 0.929 . S
H20 C50 0.931 . S
H21 C42 0.929 . S
H22 C51 0.930 . S
H23 C43 0.931 . S
O24 Co0 2.097 . S
O24 C52 1.214 . S
H25 C53 0.929 . S
H26 C54 0.929 . S
H27 C55 0.930 . S
H28 C56 0.929 . S
H29 C58 0.930 1_545 S
H30 C35 0.930 . S
H31 C39 0.930 . S
O32 Co1 2.037 . S
O32 C52 1.234 . S
C33 O7 1.269 . S
C33 O8 1.257 . S
C34 H9 0.930 . S
C34 C37 1.388 . S
C34 C39 1.418 1_545 S
C35 H30 0.930 . S
C35 C38 1.404 . S
C35 C39 1.353 1_545 S
N36 Co1 2.145 . S
N36 C37 1.397 . S
N36 C38 1.334 . S
C37 H18 0.929 . S
C37 C34 1.388 . S
C37 N36 1.397 . S
C38 H19 0.929 . S
C38 C35 1.404 . S
C38 N36 1.334 . S
C39 H31 0.930 . S
C39 C34 1.418 1_565 S
C39 C35 1.353 1_565 S
C40 H10 0.930 . S
C40 N41 1.330 . S
C40 C42 1.446 . S
N41 Co0 2.151 . S
N41 C40 1.330 . S
N41 C45 1.418 . S
C42 H21 0.929 . S
C42 C40 1.446 . S
C42 C43 1.332 . S
C43 H23 0.931 . S
C43 C42 1.332 . S
C43 C44 1.267 . S
C44 H12 0.929 . S
C44 C43 1.267 . S
C44 C45 1.251 . S
C45 H15 0.929 . S
C45 N41 1.418 . S
C45 C44 1.251 . S
C46 H13 0.930 . S
C46 C48 1.406 . S
C46 C51 1.261 . S
C47 H14 0.930 . S
C47 N49 1.325 . S
C47 C50 1.357 . S
C48 H16 0.928 . S
C48 C46 1.406 . S
C48 N49 1.261 . S
N49 Co0 2.214 . S
N49 C47 1.325 . S
N49 C48 1.261 . S
C50 H20 0.931 . S
C50 C47 1.357 . S
C50 C51 1.312 . S
C51 H22 0.930 . S
C51 C46 1.261 . S
C51 C50 1.312 . S
C52 O24 1.214 . S
C52 O32 1.234 . S
C53 H25 0.929 . S
C53 C56 1.391 . S
C53 C58 1.391 . S
C54 H26 0.929 . S
C54 C55 1.390 . S
C54 N57 1.391 . S
C55 H27 0.930 . S
C55 C54 1.390 . S
C55 C56 1.392 . S
C56 H28 0.929 . S
C56 C53 1.391 . S
C56 C55 1.392 . S
N57 Co1 2.257 1_565 S
N57 C54 1.391 . S
N57 C58 1.388 . S
C58 H29 0.930 1_565 S
C58 C53 1.391 . S
C58 N57 1.388 . S
Co59 O61 2.143 . S
Co59 O67 2.074 1_455 S
Co59 O70 2.093 . S
Co59 O83 2.097 . S
Co59 N100 2.151 1_455 S
Co59 N108 2.214 1_455 S
Co60 O61 2.160 . S
Co60 O66 2.058 1_455 S
Co60 O76 2.057 . S
Co60 O91 2.037 . S
Co60 N95 2.145 . S
Co60 N116 2.257 . S
O61 Co59 2.143 . S
O61 Co60 2.160 . S
C62 O63 1.278 . S
C62 O70 1.224 . S
O63 C62 1.278 . S
C64 O65 1.245 1_455 S
C64 O76 1.232 . S
O65 C64 1.245 1_655 S
O66 Co60 2.058 1_655 S
O66 C92 1.269 . S
O67 Co59 2.074 1_655 S
O67 C92 1.257 . S
H68 C93 0.930 . S
H69 C99 0.930 . S
O70 Co59 2.093 . S
O70 C62 1.224 . S
H71 C103 0.929 . S
H72 C105 0.930 . S
H73 C106 0.921 1_455 S
H74 C104 0.929 . S
H75 C107 0.928 . S
O76 Co60 2.057 . S
O76 C64 1.232 . S
H77 C96 0.929 . S
H78 C97 0.929 . S
H79 C109 0.931 . S
H80 C101 0.929 . S
H81 C110 0.930 . S
H82 C102 0.931 . S
O83 Co59 2.097 . S
O83 C111 1.214 . S
H84 C112 0.929 . S
H85 C113 0.929 . S
H86 C114 0.930 . S
H87 C115 0.929 . S
H88 C117 0.930 . S
H89 C94 0.930 . S
H90 C98 0.930 . S
O91 Co60 2.037 . S
O91 C111 1.234 . S
C92 O66 1.269 . S
C92 O67 1.257 . S
C93 H68 0.930 . S
C93 C96 1.388 . S
C93 C98 1.418 . S
C94 H89 0.930 . S
C94 C97 1.404 . S
C94 C98 1.353 . S
N95 Co60 2.145 . S
N95 C96 1.397 . S
N95 C97 1.334 . S
C96 H77 0.929 . S
C96 C93 1.388 . S
C96 N95 1.397 . S
C97 H78 0.929 . S
C97 C94 1.404 . S
C97 N95 1.334 . S
C98 H90 0.930 . S
C98 C93 1.418 . S
C98 C94 1.353 . S
C99 H69 0.930 . S
C99 N100 1.330 . S
C99 C101 1.446 . S
N100 Co59 2.151 1_655 S
N100 C99 1.330 . S
N100 C104 1.418 . S
C101 H80 0.929 . S
C101 C99 1.446 . S
C101 C102 1.332 . S
C102 H82 0.931 . S
C102 C101 1.332 . S
C102 C103 1.267 . S
C103 H71 0.929 . S
C103 C102 1.267 . S
C103 C104 1.251 . S
C104 H74 0.929 . S
C104 N100 1.418 . S
C104 C103 1.251 . S
C105 H72 0.930 . S
C105 C107 1.406 . S
C105 C110 1.261 . S
C106 H73 0.921 1_655 S
C106 N108 1.328 . S
C106 C109 1.363 . S
C107 H75 0.928 . S
C107 C105 1.406 . S
C107 N108 1.261 . S
N108 Co59 2.214 1_655 S
N108 C106 1.328 . S
N108 C107 1.261 . S
C109 H79 0.931 . S
C109 C106 1.363 . S
C109 C110 1.312 . S
C110 H81 0.930 . S
C110 C105 1.261 . S
C110 C109 1.312 . S
C111 O83 1.214 . S
C111 O91 1.234 . S
C112 H84 0.929 . S
C112 C115 1.391 . S
C112 C117 1.391 . S
C113 H85 0.929 . S
C113 C114 1.390 . S
C113 N116 1.391 . S
C114 H86 0.930 . S
C114 C113 1.390 . S
C114 C115 1.392 . S
C115 H87 0.929 . S
C115 C112 1.391 . S
C115 C114 1.392 . S
N116 Co60 2.257 . S
N116 C113 1.391 . S
N116 C117 1.388 . S
C117 H88 0.930 . S
C117 C112 1.391 . S
C117 N116 1.388 . S
Co118 O120 2.143 . S
Co118 O126 2.074 1_545 S
Co118 O129 2.093 . S
Co118 O142 2.097 . S
Co118 N159 2.151 1_545 S
Co118 N167 2.214 1_545 S
Co119 O120 2.160 . S
Co119 O125 2.058 1_545 S
Co119 O135 2.057 . S
Co119 O150 2.037 . S
Co119 N154 2.145 . S
Co119 N175 2.257 . S
O120 Co118 2.143 . S
O120 Co119 2.160 . S
C121 O122 1.278 . S
C121 O129 1.224 . S
O122 C121 1.278 . S
C123 O124 1.245 1_545 S
C123 O135 1.232 . S
O124 C123 1.245 1_565 S
O125 Co119 2.058 1_565 S
O125 C151 1.269 . S
O126 Co118 2.074 1_565 S
O126 C151 1.257 . S
H127 C152 0.930 . S
H128 C158 0.930 . S
O129 Co118 2.093 . S
O129 C121 1.224 . S
H130 C162 0.929 . S
H131 C164 0.930 . S
H132 C165 0.921 1_545 S
H133 C163 0.929 . S
H134 C166 0.928 . S
O135 Co119 2.057 . S
O135 C123 1.232 . S
H136 C155 0.929 . S
H137 C156 0.929 . S
H138 C168 0.931 . S
H139 C160 0.929 . S
H140 C169 0.930 . S
H141 C161 0.931 . S
O142 Co118 2.097 . S
O142 C170 1.214 . S
H143 C171 0.929 . S
H144 C172 0.929 . S
H145 C173 0.930 . S
H146 C174 0.929 . S
H147 C176 0.930 . S
H148 C153 0.930 . S
H149 C157 0.930 . S
O150 Co119 2.037 . S
O150 C170 1.234 . S
C151 O125 1.269 . S
C151 O126 1.257 . S
C152 H127 0.930 . S
C152 C155 1.388 . S
C152 C157 1.418 . S
C153 H148 0.930 . S
C153 C156 1.404 . S
C153 C157 1.353 . S
N154 Co119 2.145 . S
N154 C155 1.397 . S
N154 C156 1.334 . S
C155 H136 0.929 . S
C155 C152 1.388 . S
C155 N154 1.397 . S
C156 H137 0.929 . S
C156 C153 1.404 . S
C156 N154 1.334 . S
C157 H149 0.930 . S
C157 C152 1.418 . S
C157 C153 1.353 . S
C158 H128 0.930 . S
C158 N159 1.330 . S
C158 C160 1.446 . S
N159 Co118 2.151 1_565 S
N159 C158 1.330 . S
N159 C163 1.418 . S
C160 H139 0.929 . S
C160 C158 1.446 . S
C160 C161 1.332 . S
C161 H141 0.931 . S
C161 C160 1.332 . S
C161 C162 1.267 . S
C162 H130 0.929 . S
C162 C161 1.267 . S
C162 C163 1.251 . S
C163 H133 0.929 . S
C163 N159 1.418 . S
C163 C162 1.251 . S
C164 H131 0.930 . S
C164 C166 1.406 1_455 S
C164 C169 1.261 . S
C165 H132 0.921 1_565 S
C165 N167 1.328 . S
C165 C168 1.363 1_655 S
C166 H134 0.928 . S
C166 C164 1.406 1_655 S
C166 N167 1.261 . S
N167 Co118 2.214 1_565 S
N167 C165 1.328 . S
N167 C166 1.261 . S
C168 H138 0.931 . S
C168 C165 1.363 1_455 S
C168 C169 1.312 . S
C169 H140 0.930 . S
C169 C164 1.261 . S
C169 C168 1.312 . S
C170 O142 1.214 . S
C170 O150 1.234 . S
C171 H143 0.929 . S
C171 C174 1.391 . S
C171 C176 1.391 . S
C172 H144 0.929 . S
C172 C173 1.390 . S
C172 N175 1.391 . S
C173 H145 0.930 . S
C173 C172 1.390 . S
C173 C174 1.392 . S
C174 H146 0.929 . S
C174 C171 1.391 . S
C174 C173 1.392 . S
N175 Co119 2.257 . S
N175 C172 1.391 . S
N175 C176 1.388 . S
C176 H147 0.930 . S
C176 C171 1.391 . S
C176 N175 1.388 . S
Co177 O179 2.143 . S
Co177 O185 2.074 . S
Co177 O188 2.093 . S
Co177 O201 2.097 . S
Co177 N218 2.151 . S
Co177 N226 2.214 . S
Co178 O179 2.160 . S
Co178 O184 2.058 . S
Co178 O194 2.057 . S
Co178 O209 2.037 . S
Co178 N213 2.145 . S
Co178 N234 2.257 1_455 S
O179 Co177 2.143 . S
O179 Co178 2.160 . S
C180 O181 1.278 . S
C180 O188 1.224 . S
O181 C180 1.278 . S
C182 O183 1.245 . S
C182 O194 1.232 . S
O183 C182 1.245 . S
O184 Co178 2.058 . S
O184 C210 1.269 . S
O185 Co177 2.074 . S
O185 C210 1.257 . S
H186 C211 0.930 . S
H187 C217 0.930 . S
O188 Co177 2.093 . S
O188 C180 1.224 . S
H189 C221 0.929 . S
H190 C223 0.930 . S
H191 C224 0.930 . S
H192 C222 0.929 . S
H193 C225 0.928 . S
O194 Co178 2.057 . S
O194 C182 1.232 . S
H195 C214 0.929 . S
H196 C215 0.929 . S
H197 C227 0.931 . S
H198 C219 0.929 . S
H199 C228 0.930 . S
H200 C220 0.931 . S
O201 Co177 2.097 . S
O201 C229 1.214 . S
H202 C230 0.929 . S
H203 C231 0.929 . S
H204 C232 0.930 . S
H205 C233 0.929 . S
H206 C235 0.930 1_455 S
H207 C212 0.930 . S
H208 C216 0.930 . S
O209 Co178 2.037 . S
O209 C229 1.234 . S
C210 O184 1.269 . S
C210 O185 1.257 . S
C211 H186 0.930 . S
C211 C214 1.388 . S
C211 C216 1.418 1_455 S
C212 H207 0.930 . S
C212 C215 1.404 . S
C212 C216 1.353 1_455 S
N213 Co178 2.145 . S
N213 C214 1.397 . S
N213 C215 1.334 . S
C214 H195 0.929 . S
C214 C211 1.388 . S
C214 N213 1.397 . S
C215 H196 0.929 . S
C215 C212 1.404 . S
C215 N213 1.334 . S
C216 H208 0.930 . S
C216 C211 1.418 1_655 S
C216 C212 1.353 1_655 S
C217 H187 0.930 . S
C217 N218 1.330 . S
C217 C219 1.446 . S
N218 Co177 2.151 . S
N218 C217 1.330 . S
N218 C222 1.418 . S
C219 H198 0.929 . S
C219 C217 1.446 . S
C219 C220 1.332 . S
C220 H200 0.931 . S
C220 C219 1.332 . S
C220 C221 1.267 . S
C221 H189 0.929 . S
C221 C220 1.267 . S
C221 C222 1.251 . S
C222 H192 0.929 . S
C222 N218 1.418 . S
C222 C221 1.251 . S
C223 H190 0.930 . S
C223 C225 1.406 1_545 S
C223 C228 1.261 . S
C224 H191 0.930 . S
C224 N226 1.325 . S
C224 C227 1.357 1_565 S
C225 H193 0.928 . S
C225 C223 1.406 1_565 S
C225 N226 1.261 . S
N226 Co177 2.214 . S
N226 C224 1.325 . S
N226 C225 1.261 . S
C227 H197 0.931 . S
C227 C224 1.357 1_545 S
C227 C228 1.312 . S
C228 H199 0.930 . S
C228 C223 1.261 . S
C228 C227 1.312 . S
C229 O201 1.214 . S
C229 O209 1.234 . S
C230 H202 0.929 . S
C230 C233 1.391 . S
C230 C235 1.391 . S
C231 H203 0.929 . S
C231 C232 1.390 . S
C231 N234 1.391 . S
C232 H204 0.930 . S
C232 C231 1.390 . S
C232 C233 1.392 . S
C233 H205 0.929 . S
C233 C230 1.391 . S
C233 C232 1.392 . S
N234 Co178 2.257 1_655 S
N234 C231 1.391 . S
N234 C235 1.388 . S
C235 H206 0.930 1_655 S
C235 C230 1.391 . S
C235 N234 1.388 . S
Co236 O238 2.143 . S
Co236 O244 2.074 1_545 S
Co236 O247 2.093 . S
Co236 O260 2.097 . S
Co236 N277 2.151 1_545 S
Co236 N285 2.214 1_545 S
Co237 O238 2.160 . S
Co237 O243 2.058 1_545 S
Co237 O253 2.057 . S
Co237 O268 2.037 . S
Co237 N272 2.145 . S
Co237 N293 2.257 . S
O238 Co236 2.143 . S
O238 Co237 2.160 . S
C239 O240 1.278 . S
C239 O247 1.224 . S
O240 C239 1.278 . S
C241 O242 1.245 1_545 S
C241 O253 1.232 . S
O242 C241 1.245 1_565 S
O243 Co237 2.058 1_565 S
O243 C269 1.269 . S
O244 Co236 2.074 1_565 S
O244 C269 1.257 . S
H245 C270 0.930 . S
H246 C276 0.930 . S
O247 Co236 2.093 . S
O247 C239 1.224 . S
H248 C280 0.929 . S
H249 C282 0.930 . S
H250 C283 0.921 1_545 S
H251 C281 0.929 . S
H252 C284 0.928 . S
O253 Co237 2.057 . S
O253 C241 1.232 . S
H254 C273 0.929 . S
H255 C274 0.929 . S
H256 C286 0.931 . S
H257 C278 0.929 . S
H258 C287 0.930 . S
H259 C279 0.931 . S
O260 Co236 2.097 . S
O260 C288 1.214 . S
H261 C289 0.929 . S
H262 C290 0.929 . S
H263 C291 0.930 . S
H264 C292 0.929 . S
H265 C294 0.930 . S
H266 C271 0.930 . S
H267 C275 0.930 . S
O268 Co237 2.037 . S
O268 C288 1.234 . S
C269 O243 1.269 . S
C269 O244 1.257 . S
C270 H245 0.930 . S
C270 C273 1.388 . S
C270 C275 1.418 . S
C271 H266 0.930 . S
C271 C274 1.404 . S
C271 C275 1.353 . S
N272 Co237 2.145 . S
N272 C273 1.397 . S
N272 C274 1.334 . S
C273 H254 0.929 . S
C273 C270 1.388 . S
C273 N272 1.397 . S
C274 H255 0.929 . S
C274 C271 1.404 . S
C274 N272 1.334 . S
C275 H267 0.930 . S
C275 C270 1.418 . S
C275 C271 1.353 . S
C276 H246 0.930 . S
C276 N277 1.330 . S
C276 C278 1.446 . S
N277 Co236 2.151 1_565 S
N277 C276 1.330 . S
N277 C281 1.418 . S
C278 H257 0.929 . S
C278 C276 1.446 . S
C278 C279 1.332 . S
C279 H259 0.931 . S
C279 C278 1.332 . S
C279 C280 1.267 . S
C280 H248 0.929 . S
C280 C279 1.267 . S
C280 C281 1.251 . S
C281 H251 0.929 . S
C281 N277 1.418 . S
C281 C280 1.251 . S
C282 H249 0.930 . S
C282 C284 1.406 . S
C282 C287 1.261 . S
C283 H250 0.921 1_565 S
C283 N285 1.328 . S
C283 C286 1.363 . S
C284 H252 0.928 . S
C284 C282 1.406 . S
C284 N285 1.261 . S
N285 Co236 2.214 1_565 S
N285 C283 1.328 . S
N285 C284 1.261 . S
C286 H256 0.931 . S
C286 C283 1.363 . S
C286 C287 1.312 . S
C287 H258 0.930 . S
C287 C282 1.261 . S
C287 C286 1.312 . S
C288 O260 1.214 . S
C288 O268 1.234 . S
C289 H261 0.929 . S
C289 C292 1.391 . S
C289 C294 1.391 . S
C290 H262 0.929 . S
C290 C291 1.390 . S
C290 N293 1.391 . S
C291 H263 0.930 . S
C291 C290 1.390 . S
C291 C292 1.392 . S
C292 H264 0.929 . S
C292 C289 1.391 . S
C292 C291 1.392 . S
N293 Co237 2.257 . S
N293 C290 1.391 . S
N293 C294 1.388 . S
C294 H265 0.930 . S
C294 C289 1.391 . S
C294 N293 1.388 . S
Co295 O297 2.143 . S
Co295 O303 2.074 . S
Co295 O306 2.093 . S
Co295 O319 2.097 . S
Co295 N336 2.151 . S
Co295 N344 2.214 . S
Co296 O297 2.160 . S
Co296 O302 2.058 . S
Co296 O312 2.057 . S
Co296 O327 2.037 . S
Co296 N331 2.145 . S
Co296 N352 2.257 1_455 S
O297 Co295 2.143 . S
O297 Co296 2.160 . S
C298 O299 1.278 . S
C298 O306 1.224 . S
O299 C298 1.278 . S
C300 O301 1.245 . S
C300 O312 1.232 . S
O301 C300 1.245 . S
O302 Co296 2.058 . S
O302 C328 1.269 . S
O303 Co295 2.074 . S
O303 C328 1.257 . S
H304 C329 0.930 . S
H305 C335 0.930 . S
O306 Co295 2.093 . S
O306 C298 1.224 . S
H307 C339 0.929 . S
H308 C341 0.930 . S
H309 C342 0.930 . S
H310 C340 0.929 . S
H311 C343 0.928 . S
O312 Co296 2.057 . S
O312 C300 1.232 . S
H313 C332 0.929 . S
H314 C333 0.929 . S
H315 C345 0.931 . S
H316 C337 0.929 . S
H317 C346 0.930 . S
H318 C338 0.931 . S
O319 Co295 2.097 . S
O319 C347 1.214 . S
H320 C348 0.929 . S
H321 C349 0.929 . S
H322 C350 0.930 . S
H323 C351 0.929 . S
H324 C353 0.930 1_455 S
H325 C330 0.930 . S
H326 C334 0.930 . S
O327 Co296 2.037 . S
O327 C347 1.234 . S
C328 O302 1.269 . S
C328 O303 1.257 . S
C329 H304 0.930 . S
C329 C332 1.388 . S
C329 C334 1.418 1_455 S
C330 H325 0.930 . S
C330 C333 1.404 . S
C330 C334 1.353 1_455 S
N331 Co296 2.145 . S
N331 C332 1.397 . S
N331 C333 1.334 . S
C332 H313 0.929 . S
C332 C329 1.388 . S
C332 N331 1.397 . S
C333 H314 0.929 . S
C333 C330 1.404 . S
C333 N331 1.334 . S
C334 H326 0.930 . S
C334 C329 1.418 1_655 S
C334 C330 1.353 1_655 S
C335 H305 0.930 . S
C335 N336 1.330 . S
C335 C337 1.446 . S
N336 Co295 2.151 . S
N336 C335 1.330 . S
N336 C340 1.418 . S
C337 H316 0.929 . S
C337 C335 1.446 . S
C337 C338 1.332 . S
C338 H318 0.931 . S
C338 C337 1.332 . S
C338 C339 1.267 . S
C339 H307 0.929 . S
C339 C338 1.267 . S
C339 C340 1.251 . S
C340 H310 0.929 . S
C340 N336 1.418 . S
C340 C339 1.251 . S
C341 H308 0.930 . S
C341 C343 1.406 . S
C341 C346 1.261 . S
C342 H309 0.930 . S
C342 N344 1.325 . S
C342 C345 1.357 . S
C343 H311 0.928 . S
C343 C341 1.406 . S
C343 N344 1.261 . S
N344 Co295 2.214 . S
N344 C342 1.325 . S
N344 C343 1.261 . S
C345 H315 0.931 . S
C345 C342 1.357 . S
C345 C346 1.312 . S
C346 H317 0.930 . S
C346 C341 1.261 . S
C346 C345 1.312 . S
C347 O319 1.214 . S
C347 O327 1.234 . S
C348 H320 0.929 . S
C348 C351 1.391 . S
C348 C353 1.391 . S
C349 H321 0.929 . S
C349 C350 1.390 . S
C349 N352 1.391 . S
C350 H322 0.930 . S
C350 C349 1.390 . S
C350 C351 1.392 . S
C351 H323 0.929 . S
C351 C348 1.391 . S
C351 C350 1.392 . S
N352 Co296 2.257 1_655 S
N352 C349 1.391 . S
N352 C353 1.388 . S
C353 H324 0.930 1_655 S
C353 C348 1.391 . S
C353 N352 1.388 . S
Co354 O356 2.143 . S
Co354 O362 2.074 . S
Co354 O365 2.093 . S
Co354 O378 2.097 . S
Co354 N395 2.151 . S
Co354 N403 2.214 . S
Co355 O356 2.160 . S
Co355 O361 2.058 . S
Co355 O371 2.057 . S
Co355 O386 2.037 . S
Co355 N390 2.145 . S
Co355 N411 2.257 1_545 S
O356 Co354 2.143 . S
O356 Co355 2.160 . S
C357 O358 1.278 . S
C357 O365 1.224 . S
O358 C357 1.278 . S
C359 O360 1.245 . S
C359 O371 1.232 . S
O360 C359 1.245 . S
O361 Co355 2.058 . S
O361 C387 1.269 . S
O362 Co354 2.074 . S
O362 C387 1.257 . S
H363 C388 0.930 . S
H364 C394 0.930 . S
O365 Co354 2.093 . S
O365 C357 1.224 . S
H366 C398 0.929 . S
H367 C400 0.930 . S
H368 C401 0.930 . S
H369 C399 0.929 . S
H370 C402 0.928 . S
O371 Co355 2.057 . S
O371 C359 1.232 . S
H372 C391 0.929 . S
H373 C392 0.929 . S
H374 C404 0.931 . S
H375 C396 0.929 . S
H376 C405 0.930 . S
H377 C397 0.931 . S
O378 Co354 2.097 . S
O378 C406 1.214 . S
H379 C407 0.929 . S
H380 C408 0.929 . S
H381 C409 0.930 . S
H382 C410 0.929 . S
H383 C412 0.930 1_545 S
H384 C389 0.930 . S
H385 C393 0.930 . S
O386 Co355 2.037 . S
O386 C406 1.234 . S
C387 O361 1.269 . S
C387 O362 1.257 . S
C388 H363 0.930 . S
C388 C391 1.388 . S
C388 C393 1.418 1_545 S
C389 H384 0.930 . S
C389 C392 1.404 . S
C389 C393 1.353 1_545 S
N390 Co355 2.145 . S
N390 C391 1.397 . S
N390 C392 1.334 . S
C391 H372 0.929 . S
C391 C388 1.388 . S
C391 N390 1.397 . S
C392 H373 0.929 . S
C392 C389 1.404 . S
C392 N390 1.334 . S
C393 H385 0.930 . S
C393 C388 1.418 1_565 S
C393 C389 1.353 1_565 S
C394 H364 0.930 . S
C394 N395 1.330 . S
C394 C396 1.446 . S
N395 Co354 2.151 . S
N395 C394 1.330 . S
N395 C399 1.418 . S
C396 H375 0.929 . S
C396 C394 1.446 . S
C396 C397 1.332 . S
C397 H377 0.931 . S
C397 C396 1.332 . S
C397 C398 1.267 . S
C398 H366 0.929 . S
C398 C397 1.267 . S
C398 C399 1.251 . S
C399 H369 0.929 . S
C399 N395 1.418 . S
C399 C398 1.251 . S
C400 H367 0.930 . S
C400 C402 1.406 1_455 S
C400 C405 1.261 . S
C401 H368 0.930 . S
C401 N403 1.325 . S
C401 C404 1.357 1_655 S
C402 H370 0.928 . S
C402 C400 1.406 1_655 S
C402 N403 1.261 . S
N403 Co354 2.214 . S
N403 C401 1.325 . S
N403 C402 1.261 . S
C404 H374 0.931 . S
C404 C401 1.357 1_455 S
C404 C405 1.312 . S
C405 H376 0.930 . S
C405 C400 1.261 . S
C405 C404 1.312 . S
C406 O378 1.214 . S
C406 O386 1.234 . S
C407 H379 0.929 . S
C407 C410 1.391 . S
C407 C412 1.391 . S
C408 H380 0.929 . S
C408 C409 1.390 . S
C408 N411 1.391 . S
C409 H381 0.930 . S
C409 C408 1.390 . S
C409 C410 1.392 . S
C410 H382 0.929 . S
C410 C407 1.391 . S
C410 C409 1.392 . S
N411 Co355 2.257 1_565 S
N411 C408 1.391 . S
N411 C412 1.388 . S
C412 H383 0.930 1_565 S
C412 C407 1.391 . S
C412 N411 1.388 . S
Co413 O415 2.143 . S
Co413 O421 2.074 1_455 S
Co413 O424 2.093 . S
Co413 O437 2.097 . S
Co413 N454 2.151 1_455 S
Co413 N462 2.214 1_455 S
Co414 O415 2.160 . S
Co414 O420 2.058 1_455 S
Co414 O430 2.057 . S
Co414 O445 2.037 . S
Co414 N449 2.145 . S
Co414 N470 2.257 . S
O415 Co413 2.143 . S
O415 Co414 2.160 . S
C416 O417 1.278 . S
C416 O424 1.224 . S
O417 C416 1.278 . S
C418 O419 1.245 1_455 S
C418 O430 1.232 . S
O419 C418 1.245 1_655 S
O420 Co414 2.058 1_655 S
O420 C446 1.269 . S
O421 Co413 2.074 1_655 S
O421 C446 1.257 . S
H422 C447 0.930 . S
H423 C453 0.930 . S
O424 Co413 2.093 . S
O424 C416 1.224 . S
H425 C457 0.929 . S
H426 C459 0.930 . S
H427 C460 0.921 1_455 S
H428 C458 0.929 . S
H429 C461 0.928 . S
O430 Co414 2.057 . S
O430 C418 1.232 . S
H431 C450 0.929 . S
H432 C451 0.929 . S
H433 C463 0.931 . S
H434 C455 0.929 . S
H435 C464 0.930 . S
H436 C456 0.931 . S
O437 Co413 2.097 . S
O437 C465 1.214 . S
H438 C466 0.929 . S
H439 C467 0.929 . S
H440 C468 0.930 . S
H441 C469 0.929 . S
H442 C471 0.930 . S
H443 C448 0.930 . S
H444 C452 0.930 . S
O445 Co414 2.037 . S
O445 C465 1.234 . S
C446 O420 1.269 . S
C446 O421 1.257 . S
C447 H422 0.930 . S
C447 C450 1.388 . S
C447 C452 1.418 . S
C448 H443 0.930 . S
C448 C451 1.404 . S
C448 C452 1.353 . S
N449 Co414 2.145 . S
N449 C450 1.397 . S
N449 C451 1.334 . S
C450 H431 0.929 . S
C450 C447 1.388 . S
C450 N449 1.397 . S
C451 H432 0.929 . S
C451 C448 1.404 . S
C451 N449 1.334 . S
C452 H444 0.930 . S
C452 C447 1.418 . S
C452 C448 1.353 . S
C453 H423 0.930 . S
C453 N454 1.330 . S
C453 C455 1.446 . S
N454 Co413 2.151 1_655 S
N454 C453 1.330 . S
N454 C458 1.418 . S
C455 H434 0.929 . S
C455 C453 1.446 . S
C455 C456 1.332 . S
C456 H436 0.931 . S
C456 C455 1.332 . S
C456 C457 1.267 . S
C457 H425 0.929 . S
C457 C456 1.267 . S
C457 C458 1.251 . S
C458 H428 0.929 . S
C458 N454 1.418 . S
C458 C457 1.251 . S
C459 H426 0.930 . S
C459 C461 1.406 1_545 S
C459 C464 1.261 . S
C460 H427 0.921 1_655 S
C460 N462 1.328 . S
C460 C463 1.363 1_565 S
C461 H429 0.928 . S
C461 C459 1.406 1_565 S
C461 N462 1.261 . S
N462 Co413 2.214 1_655 S
N462 C460 1.328 . S
N462 C461 1.261 . S
C463 H433 0.931 . S
C463 C460 1.363 1_545 S
C463 C464 1.312 . S
C464 H435 0.930 . S
C464 C459 1.261 . S
C464 C463 1.312 . S
C465 O437 1.214 . S
C465 O445 1.234 . S
C466 H438 0.929 . S
C466 C469 1.391 . S
C466 C471 1.391 . S
C467 H439 0.929 . S
C467 C468 1.390 . S
C467 N470 1.391 . S
C468 H440 0.930 . S
C468 C467 1.390 . S
C468 C469 1.392 . S
C469 H441 0.929 . S
C469 C466 1.391 . S
C469 C468 1.392 . S
N470 Co414 2.257 . S
N470 C467 1.391 . S
N470 C471 1.388 . S
C471 H442 0.930 . S
C471 C466 1.391 . S
C471 N470 1.388 . S
C472 C473 1.369 . S
C472 C474 1.419 1_554 S
C472 H476 0.930 1_545 S
C473 C472 1.369 . S
C473 C482 1.429 . S
C474 C472 1.419 1_556 S
C474 C475 1.363 . S
C474 H477 0.929 1_545 S
C475 C474 1.363 . S
C475 C481 1.428 . S
H476 C472 0.930 1_565 S
H477 C474 0.929 1_565 S
S478 N479 1.613 . S
S478 N480 1.610 1_554 S
N479 S478 1.613 . S
N479 C482 1.350 . S
N480 S478 1.610 1_556 S
N480 C481 1.351 . S
C481 C475 1.428 . S
C481 N480 1.351 . S
C481 C482 1.434 1_556 S
C482 C473 1.429 . S
C482 N479 1.350 . S
C482 C481 1.434 1_554 S
C483 C484 1.369 . S
C483 C485 1.419 . S
C483 H487 0.930 . S
C484 C483 1.369 . S
C484 C493 1.429 . S
C485 C483 1.419 . S
C485 C486 1.363 . S
C485 H488 0.929 1_455 S
C486 C485 1.363 . S
C486 C492 1.428 . S
H487 C483 0.930 . S
H488 C485 0.929 1_655 S
S489 N490 1.613 . S
S489 N491 1.610 . S
N490 S489 1.613 . S
N490 C493 1.350 . S
N491 S489 1.610 . S
N491 C492 1.351 . S
C492 C486 1.428 . S
C492 N491 1.351 . S
C492 C493 1.434 . S
C493 C484 1.429 . S
C493 N490 1.350 . S
C493 C492 1.434 . S
C494 C495 1.369 . S
C494 C496 1.419 1_556 S
C494 H498 0.930 . S
C495 C494 1.369 . S
C495 C504 1.429 . S
C496 C494 1.419 1_554 S
C496 C497 1.363 . S
C496 H499 0.929 . S
C497 C496 1.363 . S
C497 C503 1.428 . S
H498 C494 0.930 . S
H499 C496 0.929 . S
S500 N501 1.613 1_554 S
S500 N502 1.610 . S
N501 S500 1.613 1_556 S
N501 C504 1.350 1_565 S
N502 S500 1.610 . S
N502 C503 1.351 1_565 S
C503 C497 1.428 . S
C503 N502 1.351 1_545 S
C503 C504 1.434 1_554 S
C504 C495 1.429 . S
C504 N501 1.350 1_545 S
C504 C503 1.434 1_556 S
C505 C506 1.369 . S
C505 C507 1.419 . S
C505 H509 0.930 . S
C506 C505 1.369 . S
C506 C515 1.429 . S
C507 C505 1.419 . S
C507 C508 1.363 . S
C507 H510 0.929 . S
C508 C507 1.363 . S
C508 C514 1.428 . S
H509 C505 0.930 . S
H510 C507 0.929 . S
S511 N512 1.613 . S
S511 N513 1.610 . S
N512 S511 1.613 . S
N512 C515 1.350 1_655 S
N513 S511 1.610 . S
N513 C514 1.351 1_655 S
C514 C508 1.428 . S
C514 N513 1.351 1_455 S
C514 C515 1.434 . S
C515 C506 1.429 . S
C515 N512 1.350 1_455 S
C515 C514 1.434 . S
C516 C517 1.369 . S
C516 C518 1.419 . S
C516 H520 0.930 . S
C517 C516 1.369 . S
C517 C526 1.429 . S
C518 C516 1.419 . S
C518 C519 1.363 . S
C518 H521 0.929 . S
C519 C518 1.363 . S
C519 C525 1.428 . S
H520 C516 0.930 . S
H521 C518 0.929 . S
S522 N523 1.613 . S
S522 N524 1.610 . S
N523 S522 1.613 . S
N523 C526 1.350 . S
N524 S522 1.610 . S
N524 C525 1.351 . S
C525 C519 1.428 . S
C525 N524 1.351 . S
C525 C526 1.434 . S
C526 C517 1.429 . S
C526 N523 1.350 . S
C526 C525 1.434 . S
C527 C528 1.369 . S
C527 C529 1.419 . S
C527 H531 0.930 . S
C528 C527 1.369 . S
C528 C537 1.429 . S
C529 C527 1.419 . S
C529 C530 1.363 . S
C529 H532 0.929 . S
C530 C529 1.363 . S
C530 C536 1.428 . S
H531 C527 0.930 . S
H532 C529 0.929 . S
S533 N534 1.613 . S
S533 N535 1.610 . S
N534 S533 1.613 . S
N534 C537 1.350 . S
N535 S533 1.610 . S
N535 C536 1.351 . S
C536 C530 1.428 . S
C536 N535 1.351 . S
C536 C537 1.434 . S
C537 C528 1.429 . S
C537 N534 1.350 . S
C537 C536 1.434 . S
C538 C539 1.369 . S
C538 C540 1.419 . S
C538 H542 0.930 . S
C539 C538 1.369 . S
C539 C548 1.429 . S
C540 C538 1.419 . S
C540 C541 1.363 . S
C540 H543 0.929 . S
C541 C540 1.363 . S
C541 C547 1.428 . S
H542 C538 0.930 . S
H543 C540 0.929 . S
S544 N545 1.613 . S
S544 N546 1.610 . S
N545 S544 1.613 . S
N545 C548 1.350 . S
N546 S544 1.610 . S
N546 C547 1.351 . S
C547 C541 1.428 . S
C547 N546 1.351 . S
C547 C548 1.434 . S
C548 C539 1.429 . S
C548 N545 1.350 . S
C548 C547 1.434 . S
C549 C550 1.369 . S
C549 C551 1.419 . S
C549 H553 0.930 . S
C550 C549 1.369 . S
C550 C559 1.429 . S
C551 C549 1.419 . S
C551 C552 1.363 . S
C551 H554 0.929 1_455 S
C552 C551 1.363 . S
C552 C558 1.428 . S
H553 C549 0.930 . S
H554 C551 0.929 1_655 S
S555 N556 1.613 . S
S555 N557 1.610 . S
N556 S555 1.613 . S
N556 C559 1.350 . S
N557 S555 1.610 . S
N557 C558 1.351 . S
C558 C552 1.428 . S
C558 N557 1.351 . S
C558 C559 1.434 . S
C559 C550 1.429 . S
C559 N556 1.350 . S
C559 C558 1.434 . S
C560 C561 1.369 . S
C560 C562 1.419 . S
C560 H564 0.930 . S
C561 C560 1.369 . S
C561 C570 1.429 . S
C562 C560 1.419 . S
C562 C563 1.363 . S
C562 H565 0.929 . S
C563 C562 1.363 . S
C563 C569 1.428 . S
H564 C560 0.930 . S
H565 C562 0.929 . S
S566 N567 1.613 . S
S566 N568 1.610 . S
N567 S566 1.613 . S
N567 C570 1.350 . S
N568 S566 1.610 . S
N568 C569 1.351 . S
C569 C563 1.428 . S
C569 N568 1.351 . S
C569 C570 1.434 . S
C570 C561 1.429 . S
C570 N567 1.350 . S
C570 C569 1.434 . S
C571 C572 1.369 . S
C571 C573 1.419 . S
C571 H575 0.930 . S
C572 C571 1.369 . S
C572 C581 1.429 . S
C573 C571 1.419 . S
C573 C574 1.363 . S
C573 H576 0.929 . S
C574 C573 1.363 . S
C574 C580 1.428 . S
H575 C571 0.930 . S
H576 C573 0.929 . S
S577 N578 1.613 . S
S577 N579 1.610 . S
N578 S577 1.613 . S
N578 C581 1.350 . S
N579 S577 1.610 . S
N579 C580 1.351 . S
C580 C574 1.428 . S
C580 N579 1.351 . S
C580 C581 1.434 . S
C581 C572 1.429 . S
C581 N578 1.350 . S
C581 C580 1.434 . S
C582 C583 1.369 . S
C582 C584 1.419 . S
C582 H586 0.930 . S
C583 C582 1.369 . S
C583 C592 1.429 . S
C584 C582 1.419 . S
C584 C585 1.363 . S
C584 H587 0.929 . S
C585 C584 1.363 . S
C585 C591 1.428 . S
H586 C582 0.930 . S
H587 C584 0.929 . S
S588 N589 1.613 1_655 S
S588 N590 1.610 . S
N589 S588 1.613 1_455 S
N589 C592 1.347 1_455 S
N590 S588 1.610 . S
N590 C591 1.351 . S
C591 C585 1.428 . S
C591 N590 1.351 . S
C591 C592 1.434 . S
C592 C583 1.429 . S
C592 N589 1.347 1_655 S
C592 C591 1.434 . S
C593 C594 1.369 . S
C593 C595 1.419 . S
C593 H597 0.930 . S
C594 C593 1.369 . S
C594 C603 1.429 . S
C595 C593 1.419 . S
C595 C596 1.363 . S
C595 H598 0.929 . S
C596 C595 1.363 . S
C596 C602 1.428 . S
H597 C593 0.930 . S
H598 C595 0.929 . S
S599 N600 1.613 . S
S599 N601 1.609 1_565 S
N600 S599 1.613 . S
N600 C603 1.350 . S
N601 S599 1.609 1_545 S
N601 C602 1.339 1_545 S
C602 C596 1.428 . S
C602 N601 1.339 1_565 S
C602 C603 1.434 . S
C603 C594 1.429 . S
C603 N600 1.350 . S
C603 C602 1.434 . S
C604 C605 1.369 . S
C604 C606 1.407 1_655 S
C604 H608 0.930 . S
C605 C604 1.369 . S
C605 C614 1.429 . S
C606 C604 1.407 1_455 S
C606 C607 1.356 1_455 S
C606 H609 0.949 . S
C607 C606 1.356 1_655 S
C607 C613 1.428 . S
H608 C604 0.930 . S
H609 C606 0.949 . S
S610 N611 1.613 . S
S610 N612 1.610 . S
N611 S610 1.613 . S
N611 C614 1.350 . S
N612 S610 1.610 . S
N612 C613 1.351 . S
C613 C607 1.428 . S
C613 N612 1.351 . S
C613 C614 1.434 . S
C614 C605 1.429 . S
C614 N611 1.350 . S
C614 C613 1.434 . S
C615 C616 1.369 . S
C615 C617 1.419 . S
C615 H619 0.930 . S
C616 C615 1.369 . S
C616 C625 1.429 . S
C617 C615 1.419 . S
C617 C618 1.363 . S
C617 H620 0.929 . S
C618 C617 1.363 . S
C618 C624 1.428 . S
H619 C615 0.930 . S
H620 C617 0.929 . S
S621 N622 1.613 . S
S621 N623 1.610 . S
N622 S621 1.613 . S
N622 C625 1.350 . S
N623 S621 1.610 . S
N623 C624 1.351 . S
C624 C618 1.428 . S
C624 N623 1.351 . S
C624 C625 1.434 . S
C625 C616 1.429 . S
C625 N622 1.350 . S
C625 C624 1.434 . S
C626 C627 1.369 . S
C626 C628 1.419 . S
C626 H630 0.930 . S
C627 C626 1.369 . S
C627 C636 1.429 . S
C628 C626 1.419 . S
C628 C629 1.363 . S
C628 H631 0.929 . S
C629 C628 1.363 . S
C629 C635 1.428 . S
H630 C626 0.930 . S
H631 C628 0.929 . S
S632 N633 1.613 . S
S632 N634 1.610 . S
N633 S632 1.613 . S
N633 C636 1.350 . S
N634 S632 1.610 . S
N634 C635 1.351 . S
C635 C629 1.428 . S
C635 N634 1.351 . S
C635 C636 1.434 . S
C636 C627 1.429 . S
C636 N633 1.350 . S
C636 C635 1.434 . S
C637 C638 1.369 . S
C637 C639 1.419 . S
C637 H641 0.930 . S
C638 C637 1.369 . S
C638 C647 1.429 . S
C639 C637 1.419 . S
C639 C640 1.363 . S
C639 H642 0.929 . S
C640 C639 1.363 . S
C640 C646 1.428 . S
H641 C637 0.930 . S
H642 C639 0.929 . S
S643 N644 1.613 . S
S643 N645 1.610 . S
N644 S643 1.613 . S
N644 C647 1.350 . S
N645 S643 1.610 . S
N645 C646 1.351 . S
C646 C640 1.428 . S
C646 N645 1.351 . S
C646 C647 1.434 . S
C647 C638 1.429 . S
C647 N644 1.350 . S
C647 C646 1.434 . S
C473 C3 1.576 . S
C475 C239 1.579 . S
C484 C62 1.580 . S
C486 C298 1.577 . S
C495 C357 1.579 . S
C497 C121 1.576 . S
C506 C416 1.576 . S
C508 C180 1.579 . S
C517 C5 1.699 . S
C519 C123 1.698 . S
C528 C64 1.698 . S
C530 C182 1.699 . S
C539 C359 1.697 . S
C541 C241 1.697 . S
C550 C300 1.702 . S
C552 C418 1.694 . S
C561 C328 1.149 . S
C563 C33 1.140 . S
C572 C92 1.149 . S
C574 C387 1.142 . S
C583 C446 1.139 . S
C585 C151 1.140 . S
C594 C210 1.138 . S
C596 C269 1.142 . S
C605 C406 1.720 1_565 S
C607 C229 1.722 1_655 S
C616 C52 1.720 1_565 S
C618 C465 1.723 . S
C627 C111 1.724 . S
C629 C288 1.721 . S
C638 C347 1.720 1_655 S
C640 C170 1.722 . S
