# Generated by pormake.
# Topology wjd, (6)-cn, num edge types: 1
# Building blocks:
#     Node 0, Type 0, BuildingBlock: BETDEL_clean_sbu_0, # of connection points: 6
#     Node 1, Type 0, BuildingBlock: BETDEL_clean_sbu_0, # of connection points: 6
#     Node 2, Type 0, BuildingBlock: BETDEL_clean_sbu_0, # of connection points: 6
#     Node 3, Type 0, BuildingBlock: BETDEL_clean_sbu_0, # of connection points: 6
#     Node 4, Type 0, BuildingBlock: BETDEL_clean_sbu_0, # of connection points: 6
#     Node 5, Type 0, BuildingBlock: BETDEL_clean_sbu_0, # of connection points: 6
#     Node 6, Type 0, BuildingBlock: BETDEL_clean_sbu_0, # of connection points: 6
#     Node 7, Type 0, BuildingBlock: BETDEL_clean_sbu_0, # of connection points: 6
#     Node 8, Type 0, BuildingBlock: BETDEL_clean_sbu_0, # of connection points: 6
#     Node 9, Type 0, BuildingBlock: BETDEL_clean_sbu_0, # of connection points: 6
#     Node 10, Type 0, BuildingBlock: BETDEL_clean_sbu_0, # of connection points: 6
#     Node 11, Type 0, BuildingBlock: BETDEL_clean_sbu_0, # of connection points: 6
#     Edge 12, Type (0, 0), BuildingBlock: CIFDUS_clean_linker_0, # of connection points: 2
#     Edge 13, Type (0, 0), BuildingBlock: CIFDUS_clean_linker_0, # of connection points: 2
#     Edge 14, Type (0, 0), BuildingBlock: CIFDUS_clean_linker_0, # of connection points: 2
#     Edge 15, Type (0, 0), BuildingBlock: CIFDUS_clean_linker_0, # of connection points: 2
#     Edge 16, Type (0, 0), BuildingBlock: CIFDUS_clean_linker_0, # of connection points: 2
#     Edge 17, Type (0, 0), BuildingBlock: CIFDUS_clean_linker_0, # of connection points: 2
#     Edge 18, Type (0, 0), BuildingBlock: CIFDUS_clean_linker_0, # of connection points: 2
#     Edge 19, Type (0, 0), BuildingBlock: CIFDUS_clean_linker_0, # of connection points: 2
#     Edge 20, Type (0, 0), BuildingBlock: CIFDUS_clean_linker_0, # of connection points: 2
#     Edge 21, Type (0, 0), BuildingBlock: CIFDUS_clean_linker_0, # of connection points: 2
#     Edge 22, Type (0, 0), BuildingBlock: CIFDUS_clean_linker_0, # of connection points: 2
#     Edge 23, Type (0, 0), BuildingBlock: CIFDUS_clean_linker_0, # of connection points: 2
#     Edge 24, Type (0, 0), BuildingBlock: CIFDUS_clean_linker_0, # of connection points: 2
#     Edge 25, Type (0, 0), BuildingBlock: CIFDUS_clean_linker_0, # of connection points: 2
#     Edge 26, Type (0, 0), BuildingBlock: CIFDUS_clean_linker_0, # of connection points: 2
#     Edge 27, Type (0, 0), BuildingBlock: CIFDUS_clean_linker_0, # of connection points: 2
#     Edge 28, Type (0, 0), BuildingBlock: CIFDUS_clean_linker_0, # of connection points: 2
#     Edge 29, Type (0, 0), BuildingBlock: CIFDUS_clean_linker_0, # of connection points: 2
#     Edge 30, Type (0, 0), BuildingBlock: CIFDUS_clean_linker_0, # of connection points: 2
#     Edge 31, Type (0, 0), BuildingBlock: CIFDUS_clean_linker_0, # of connection points: 2
#     Edge 32, Type (0, 0), BuildingBlock: CIFDUS_clean_linker_0, # of connection points: 2
#     Edge 33, Type (0, 0), BuildingBlock: CIFDUS_clean_linker_0, # of connection points: 2
#     Edge 34, Type (0, 0), BuildingBlock: CIFDUS_clean_linker_0, # of connection points: 2
#     Edge 35, Type (0, 0), BuildingBlock: CIFDUS_clean_linker_0, # of connection points: 2
#     Edge 36, Type (0, 0), BuildingBlock: CIFDUS_clean_linker_0, # of connection points: 2
#     Edge 37, Type (0, 0), BuildingBlock: CIFDUS_clean_linker_0, # of connection points: 2
#     Edge 38, Type (0, 0), BuildingBlock: CIFDUS_clean_linker_0, # of connection points: 2
#     Edge 39, Type (0, 0), BuildingBlock: CIFDUS_clean_linker_0, # of connection points: 2
#     Edge 40, Type (0, 0), BuildingBlock: CIFDUS_clean_linker_0, # of connection points: 2
#     Edge 41, Type (0, 0), BuildingBlock: CIFDUS_clean_linker_0, # of connection points: 2
#     Edge 42, Type (0, 0), BuildingBlock: CIFDUS_clean_linker_0, # of connection points: 2
#     Edge 43, Type (0, 0), BuildingBlock: CIFDUS_clean_linker_0, # of connection points: 2
#     Edge 44, Type (0, 0), BuildingBlock: CIFDUS_clean_linker_0, # of connection points: 2
#     Edge 45, Type (0, 0), BuildingBlock: CIFDUS_clean_linker_0, # of connection points: 2
#     Edge 46, Type (0, 0), BuildingBlock: CIFDUS_clean_linker_0, # of connection points: 2
#     Edge 47, Type (0, 0), BuildingBlock: CIFDUS_clean_linker_0, # of connection points: 2
# Relax obj value: 0.090
# Max RMSD: 0.183
# Mean RMSD: 0.183
data_MOF--net-wjd--node1-BETDEL_clean_sbu_0--edge1-CIFDUS_clean_linker_0
_symmetry_space_group_name_H-M    P1
_symmetry_Int_Tables_number       1
_symmetry_cell_setting            triclinic
loop_
_symmetry_equiv_pos_as_xyz
'x, y, z'
_cell_length_a     29.231275
_cell_length_b     29.266912
_cell_length_c     46.891844
_cell_angle_alpha  89.788574
_cell_angle_beta   90.180032
_cell_angle_gamma 120.10487
loop_
_atom_site_label
_atom_site_type_symbol
_atom_site_fract_x
_atom_site_fract_y
_atom_site_fract_z
_atom_type_partial_charge
Dy0 Dy 0.37279 0.1917 0.12611 0.0
C1 C 0.20988 0.98054 0.14202 0.0
C2 C 0.46028 0.29097 0.12637 0.0
Dy3 Dy 0.29745 0.07781 0.14576 0.0
O4 O 0.41646 0.27866 0.11291 0.0
O5 O 0.45583 0.2493 0.13862 0.0
O6 O 0.33403 0.168 0.08196 0.0
O7 O 0.34069 0.11279 0.10683 0.0
C8 C 0.32183 0.11874 0.08393 0.0
C9 C 0.32814 0.13723 0.19312 0.0
O10 O 0.37465 0.07571 0.14425 0.0
O11 O 0.4302 0.16545 0.13463 0.0
O12 O 0.24776 0.99355 0.16054 0.0
O13 O 0.22193 0.01946 0.12456 0.0
O14 O 0.29657 0.08649 0.19288 0.0
O15 O 0.34159 0.15352 0.1676 0.0
O16 O 0.30913 0.20251 0.14391 0.0
O17 O 0.24591 0.11474 0.13862 0.0
C18 C 0.42271 0.11836 0.14113 0.0
C19 C 0.2593 0.16474 0.14299 0.0
Dy20 Dy 0.78598 0.71057 0.4044 0.0
C21 C 0.83932 0.54992 0.42106 0.0
C22 C 0.77553 0.79749 0.40866 0.0
Dy23 Dy 0.82639 0.63654 0.42134 0.0
O24 O 0.74816 0.75817 0.39141 0.0
O25 O 0.80508 0.78698 0.42497 0.0
O26 O 0.79299 0.71445 0.35761 0.0
O27 O 0.81704 0.66762 0.38024 0.0
C28 C 0.8125 0.68345 0.35561 0.0
C29 C 0.80464 0.68455 0.46525 0.0
O30 O 0.89978 0.7017 0.40253 0.0
O31 O 0.87432 0.76307 0.41127 0.0
O32 O 0.87329 0.59549 0.43195 0.0
O33 O 0.79916 0.55215 0.41118 0.0
O34 O 0.84245 0.67324 0.46606 0.0
O35 O 0.77939 0.66629 0.4425 0.0
O36 O 0.70702 0.63364 0.40598 0.0
O37 O 0.74182 0.57833 0.41394 0.0
C38 C 0.91114 0.7511 0.40481 0.0
C39 C 0.70155 0.58567 0.40879 0.0
Dy40 Dy 0.81318 0.17856 0.12561 0.0
C41 C 0.02067 0.22332 0.13395 0.0
C42 C 0.70916 0.1536 0.12308 0.0
Dy43 Dy 0.92984 0.22459 0.14391 0.0
O44 O 0.73054 0.13349 0.10681 0.0
O45 O 0.74479 0.18762 0.14017 0.0
O46 O 0.83741 0.16298 0.08202 0.0
O47 O 0.89112 0.22824 0.1052 0.0
C48 C 0.88567 0.2026 0.0827 0.0
C49 C 0.87197 0.19483 0.19171 0.0
O50 O 0.92783 0.30167 0.14173 0.0
O51 O 0.83682 0.26188 0.13287 0.0
O52 O 0.01616 0.25313 0.15319 0.0
O53 O 0.97759 0.19906 0.11905 0.0
O54 O 0.92332 0.21786 0.1914 0.0
O55 O 0.85478 0.19024 0.16629 0.0
O56 O 0.80633 0.10659 0.14498 0.0
O57 O 0.89522 0.1359 0.13982 0.0
C58 C 0.88311 0.30362 0.13901 0.0
C59 C 0.84616 0.09778 0.14488 0.0
Dy60 Dy 0.30345 0.07413 0.40285 0.0
C61 C 0.44937 0.29574 0.42296 0.0
C62 C 0.21318 0.98072 0.41299 0.0
Dy63 Dy 0.3678 0.19314 0.42049 0.0
O64 O 0.24434 0.98925 0.3912 0.0
O65 O 0.23464 0.02094 0.42998 0.0
O66 O 0.30479 0.08157 0.35517 0.0
O67 O 0.33965 0.14925 0.38069 0.0
C68 C 0.32899 0.13292 0.35512 0.0
C69 C 0.32049 0.1201 0.4631 0.0
O70 O 0.29624 0.19467 0.40832 0.0
O71 O 0.24474 0.10311 0.40874 0.0
O72 O 0.43396 0.26177 0.44379 0.0
O73 O 0.41835 0.27448 0.40119 0.0
O74 O 0.32402 0.16638 0.46297 0.0
O75 O 0.34366 0.11662 0.44123 0.0
O76 O 0.38477 0.08117 0.40684 0.0
O77 O 0.42864 0.17308 0.4089 0.0
C78 C 0.25012 0.15092 0.40756 0.0
C79 C 0.42931 0.12841 0.40697 0.0
Dy80 Dy 0.82516 0.63575 0.12718 0.0
C81 C 0.78376 0.80062 0.1373 0.0
C82 C 0.85207 0.55816 0.12521 0.0
Dy83 Dy 0.78779 0.71116 0.14516 0.0
O84 O 0.87471 0.60174 0.11056 0.0
O85 O 0.81409 0.55655 0.14016 0.0
O86 O 0.82976 0.66663 0.08074 0.0
O87 O 0.77497 0.66298 0.10895 0.0
C88 C 0.79246 0.67796 0.08458 0.0
C89 C 0.8336 0.68705 0.18935 0.0
O90 O 0.70725 0.6351 0.1448 0.0
O91 O 0.74004 0.57826 0.13474 0.0
O92 O 0.76106 0.76828 0.15887 0.0
O93 O 0.80385 0.78129 0.11985 0.0
O94 O 0.83852 0.73283 0.18418 0.0
O95 O 0.80595 0.65732 0.16914 0.0
O96 O 0.90048 0.70606 0.1406 0.0
O97 O 0.86836 0.75851 0.12554 0.0
C98 C 0.70043 0.58652 0.14103 0.0
C99 C 0.90855 0.75253 0.13268 0.0
Dy100 Dy 0.93696 0.22808 0.39899 0.0
C101 C 0.71418 0.15106 0.41797 0.0
C102 C 0.03489 0.23939 0.40101 0.0
Dy103 Dy 0.81915 0.17974 0.41878 0.0
O104 O 0.02016 0.26231 0.38215 0.0
O105 O 0.99776 0.21471 0.41956 0.0
O106 O 0.92519 0.21592 0.35172 0.0
O107 O 0.85967 0.18977 0.37832 0.0
C108 C 0.87404 0.19167 0.35267 0.0
C109 C 0.89234 0.20496 0.46122 0.0
O110 O 0.81858 0.10788 0.40321 0.0
O111 O 0.9081 0.14301 0.41048 0.0
O112 O 0.733 0.12366 0.42981 0.0
O113 O 0.7527 0.19438 0.40756 0.0
O114 O 0.84269 0.16893 0.46395 0.0
O115 O 0.89751 0.22879 0.43799 0.0
O116 O 0.93553 0.30427 0.40424 0.0
O117 O 0.84423 0.26471 0.41164 0.0
C118 C 0.86012 0.10206 0.40668 0.0
C119 C 0.89156 0.30708 0.4075 0.0
Dy120 Dy 0.08213 0.29949 0.64733 0.0
C121 C 0.29454 0.45275 0.62305 0.0
C122 C 0.98478 0.21182 0.64249 0.0
Dy123 Dy 0.19103 0.37382 0.62812 0.0
O124 O 0.99958 0.24467 0.66378 0.0
O125 O 0.02262 0.22702 0.62411 0.0
O126 O 0.09433 0.3299 0.69144 0.0
O127 O 0.15888 0.33227 0.66973 0.0
C128 C 0.14479 0.34655 0.69223 0.0
C129 C 0.11553 0.32822 0.58575 0.0
O130 O 0.20563 0.31006 0.64033 0.0
O131 O 0.11765 0.24653 0.6404 0.0
O132 O 0.27172 0.41057 0.60735 0.0
O133 O 0.26035 0.45245 0.64072 0.0
O134 O 0.16396 0.33844 0.58283 0.0
O135 O 0.1127 0.34582 0.60943 0.0
O136 O 0.07705 0.37322 0.63846 0.0
O137 O 0.16703 0.43114 0.64177 0.0
C138 C 0.1684 0.26031 0.64041 0.0
C139 C 0.11815 0.42201 0.64101 0.0
Dy140 Dy 0.18415 0.81667 0.92011 0.0
C141 C 0.23121 0.02487 0.90784 0.0
C142 C 0.15815 0.71194 0.92258 0.0
Dy143 Dy 0.22558 0.93031 0.90089 0.0
O144 O 0.14138 0.73462 0.9401 0.0
O145 O 0.18979 0.74673 0.90434 0.0
O146 O 0.17215 0.84185 0.96486 0.0
O147 O 0.23277 0.89449 0.9394 0.0
C148 C 0.20995 0.89074 0.96252 0.0
C149 C 0.182 0.85992 0.85684 0.0
O150 O 0.30482 0.93334 0.9021 0.0
O151 O 0.27022 0.84486 0.91607 0.0
O152 O 0.25105 0.01331 0.8858 0.0
O153 O 0.21468 0.98734 0.92666 0.0
O154 O 0.18123 0.90361 0.85954 0.0
O155 O 0.20746 0.85747 0.8782 0.0
O156 O 0.10927 0.81072 0.90541 0.0
O157 O 0.14143 0.89852 0.91421 0.0
C158 C 0.31043 0.89161 0.90828 0.0
C159 C 0.1017 0.85088 0.90891 0.0
Dy160 Dy 0.70787 0.7798 0.64253 0.0
C161 C 0.55627 0.84648 0.63084 0.0
C162 C 0.79742 0.77314 0.64809 0.0
Dy163 Dy 0.63877 0.82864 0.62373 0.0
O164 O 0.77676 0.78818 0.66768 0.0
O165 O 0.76642 0.75719 0.62588 0.0
O166 O 0.66139 0.75414 0.68248 0.0
O167 O 0.67842 0.82634 0.6644 0.0
C168 C 0.65823 0.79661 0.68627 0.0
C169 C 0.67365 0.79613 0.57769 0.0
O170 O 0.71154 0.90502 0.63192 0.0
O171 O 0.76539 0.86807 0.6382 0.0
O172 O 0.59463 0.87191 0.61255 0.0
O173 O 0.56406 0.81285 0.64501 0.0
O174 O 0.64276 0.81616 0.57521 0.0
O175 O 0.68149 0.79545 0.60385 0.0
O176 O 0.63058 0.70356 0.63503 0.0
O177 O 0.5805 0.74527 0.63333 0.0
C178 C 0.75849 0.90964 0.63595 0.0
C179 C 0.58431 0.70233 0.63508 0.0
Dy180 Dy 0.19472 0.37153 0.92061 0.0
C181 C 0.97657 0.20861 0.90319 0.0
C182 C 0.29822 0.44957 0.91987 0.0
Dy183 Dy 0.0734 0.29696 0.9008 0.0
O184 O 0.26744 0.43541 0.94196 0.0
O185 O 0.27287 0.42036 0.89817 0.0
O186 O 0.17527 0.36247 0.96877 0.0
O187 O 0.11699 0.32508 0.93942 0.0
C188 C 0.12438 0.33176 0.96589 0.0
C189 C 0.13478 0.32911 0.85438 0.0
O190 O 0.07734 0.3768 0.90656 0.0
O191 O 0.16979 0.4284 0.90818 0.0
O192 O 0.99051 0.24578 0.88416 0.0
O193 O 0.01395 0.22207 0.92182 0.0
O194 O 0.08357 0.30046 0.8538 0.0
O195 O 0.15003 0.34155 0.88022 0.0
O196 O 0.19987 0.30068 0.9124 0.0
O197 O 0.11037 0.24379 0.9013 0.0
C198 C 0.12251 0.42362 0.90621 0.0
C199 C 0.16018 0.25422 0.90477 0.0
Dy200 Dy 0.22236 0.92877 0.64338 0.0
C201 C 0.17207 0.71478 0.63269 0.0
C202 C 0.21774 0.01737 0.63522 0.0
Dy203 Dy 0.18941 0.81477 0.62584 0.0
O204 O 0.25213 0.01476 0.65203 0.0
O205 O 0.18953 0.9733 0.62175 0.0
O206 O 0.21656 0.92293 0.6908 0.0
O207 O 0.19521 0.85534 0.66618 0.0
C208 C 0.19708 0.87211 0.69143 0.0
C209 C 0.20962 0.8863 0.58253 0.0
O210 O 0.10918 0.7998 0.63319 0.0
O211 O 0.13287 0.88778 0.63663 0.0
O212 O 0.17601 0.73701 0.60795 0.0
O213 O 0.1776 0.74707 0.65293 0.0
O214 O 0.17619 0.83569 0.5804 0.0
O215 O 0.23319 0.89329 0.60594 0.0
O216 O 0.30363 0.93657 0.63789 0.0
O217 O 0.27445 0.84626 0.63453 0.0
C218 C 0.09655 0.83685 0.63489 0.0
C219 C 0.3126 0.89594 0.63713 0.0
Dy220 Dy 0.63867 0.82419 0.91961 0.0
C221 C 0.80192 0.77947 0.90268 0.0
C222 C 0.55244 0.83809 0.91911 0.0
Dy223 Dy 0.71125 0.78361 0.90174 0.0
O224 O 0.59757 0.87068 0.93103 0.0
O225 O 0.55512 0.79906 0.90818 0.0
O226 O 0.66982 0.83306 0.96595 0.0
O227 O 0.66705 0.77561 0.93954 0.0
C228 C 0.68282 0.79671 0.96339 0.0
C229 C 0.68686 0.81312 0.85298 0.0
O230 O 0.63542 0.70465 0.90383 0.0
O231 O 0.5809 0.74039 0.9106 0.0
O232 O 0.75475 0.73755 0.90259 0.0
O233 O 0.79867 0.82188 0.90298 0.0
O234 O 0.71409 0.78958 0.85537 0.0
O235 O 0.66927 0.81718 0.87726 0.0
O236 O 0.70812 0.89855 0.90525 0.0
O237 O 0.76078 0.86574 0.9197 0.0
C238 C 0.58765 0.69961 0.90628 0.0
C239 C 0.75479 0.906 0.9124 0.0
H240 H 0.1188 0.27112 0.15882 0.0
H241 H 0.00927 0.13416 0.11047 0.0
H242 H 0.07042 0.10064 0.11156 0.0
H243 H 0.15749 0.11233 0.12376 0.0
H244 H 0.26953 0.25162 0.16966 0.0
H245 H 0.2055 0.28175 0.17205 0.0
C246 C 0.10875 0.23429 0.14832 0.0
C247 C 0.06026 0.206 0.13399 0.0
C248 C 0.14467 0.21545 0.14856 0.0
C249 C 0.04709 0.15761 0.12098 0.0
C250 C 0.08186 0.13806 0.12175 0.0
C251 C 0.16764 0.149 0.1345 0.0
C252 C 0.21828 0.17982 0.14631 0.0
C253 C 0.13113 0.16698 0.1351 0.0
C254 C 0.23093 0.22738 0.1601 0.0
C255 C 0.19435 0.24473 0.16148 0.0
H256 H 0.15303 0.89995 0.37584 0.0
H257 H 0.14454 0.97463 0.45325 0.0
H258 H 0.04946 0.91502 0.45561 0.0
H259 H 0.96867 0.8379 0.43745 0.0
H260 H 0.97708 0.75823 0.36234 0.0
H261 H 0.07118 0.82349 0.35697 0.0
C262 C 0.1304 0.90249 0.39342 0.0
C263 C 0.1562 0.94069 0.41474 0.0
C264 C 0.07535 0.86732 0.39495 0.0
C265 C 0.12601 0.94467 0.43692 0.0
C266 C 0.07142 0.91083 0.43821 0.0
C267 C 0.99117 0.83525 0.41981 0.0
C268 C 0.9664 0.79338 0.40041 0.0
C269 C 0.0457 0.87151 0.41761 0.0
C270 C 0.99576 0.79 0.37769 0.0
C271 C 0.04951 0.82718 0.37466 0.0
H272 H 0.88044 0.0438 0.11359 0.0
H273 H 0.78516 0.03046 0.18645 0.0
H274 H 0.75775 0.93677 0.19155 0.0
H275 H 0.75679 0.85704 0.17328 0.0
H276 H 0.84651 0.87061 0.09759 0.0
H277 H 0.87958 0.96494 0.09543 0.0
C278 C 0.85417 0.02033 0.13073 0.0
C279 C 0.83472 0.04344 0.14963 0.0
C280 C 0.8367 0.96616 0.13268 0.0
C281 C 0.80027 0.01294 0.17161 0.0
C282 C 0.78448 0.95948 0.17445 0.0
C283 C 0.78295 0.88066 0.15617 0.0
C284 C 0.79832 0.85664 0.13544 0.0
C285 C 0.8014 0.93526 0.15469 0.0
C286 C 0.83318 0.88787 0.11362 0.0
C287 C 0.85258 0.94205 0.11241 0.0
H288 H 0.22056 0.19863 0.36844 0.0
H289 H 0.17621 0.11673 0.44904 0.0
H290 H 0.10619 0.13889 0.45461 0.0
H291 H 0.06157 0.18584 0.4377 0.0
H292 H 0.10259 0.26442 0.35598 0.0
H293 H 0.16987 0.23879 0.34936 0.0
C294 C 0.19484 0.18507 0.38693 0.0
C295 C 0.20297 0.15625 0.40832 0.0
C296 C 0.15488 0.19794 0.3899 0.0
C297 C 0.16983 0.13849 0.43224 0.0
C298 C 0.13032 0.15158 0.43552 0.0
C299 C 0.08575 0.198 0.4186 0.0
C300 C 0.0787 0.22868 0.3978 0.0
C301 C 0.12333 0.18226 0.41477 0.0
C302 C 0.10888 0.24258 0.37273 0.0
C303 C 0.14682 0.22742 0.36883 0.0
H304 H 0.12884 0.9527 0.10544 0.0
H305 H 0.17029 0.90668 0.18448 0.0
H306 H 0.07968 0.83262 0.18921 0.0
H307 H 0.98937 0.77886 0.16963 0.0
H308 H 0.94743 0.82857 0.09203 0.0
H309 H 0.03767 0.90317 0.08777 0.0
C310 C 0.11819 0.92599 0.12349 0.0
C311 C 0.15647 0.9339 0.14409 0.0
C312 C 0.06608 0.88409 0.1262 0.0
C313 C 0.14184 0.90017 0.16787 0.0
C314 C 0.09 0.85813 0.17067 0.0
C315 C 1.00034 0.80596 0.15174 0.0
C316 C 0.96256 0.79791 0.13081 0.0
C317 C 0.05201 0.84923 0.14973 0.0
C318 C 0.97629 0.83397 0.1082 0.0
C319 C 0.02777 0.87648 0.10575 0.0
H320 H 0.84254 0.8847 0.43835 0.0
H321 H 0.72859 0.83079 0.36987 0.0
H322 H 0.74641 0.92112 0.36217 0.0
H323 H 0.79243 0.01522 0.37624 0.0
H324 H 0.91013 0.06905 0.4428 0.0
H325 H 0.89279 0.97896 0.45004 0.0
C326 C 0.82102 0.8926 0.42202 0.0
C327 C 0.78297 0.85096 0.40534 0.0
C328 C 0.83225 0.94461 0.41739 0.0
C329 C 0.75677 0.862 0.3836 0.0
C330 C 0.76728 0.91366 0.37904 0.0
C331 C 0.81426 0.00701 0.39224 0.0
C332 C 0.85214 0.04834 0.40913 0.0
C333 C 0.80452 0.9552 0.39603 0.0
C334 C 0.88093 0.03773 0.42949 0.0
C335 C 0.87081 0.98625 0.43375 0.0
H336 H 0.27964 0.12327 0.64125 0.0
H337 H 0.11757 0.99769 0.63505 0.0
H338 H 0.08679 0.06111 0.63817 0.0
H339 H 0.10628 0.15297 0.63996 0.0
H340 H 0.26921 0.27885 0.64323 0.0
H341 H 0.29905 0.21508 0.64354 0.0
C342 C 0.23774 0.11018 0.64055 0.0
C343 C 0.20097 0.05659 0.63741 0.0
C344 C 0.22035 0.14692 0.64156 0.0
C345 C 0.1466 0.03934 0.63677 0.0
C346 C 0.12893 0.07542 0.63868 0.0
C347 C 0.14823 0.16636 0.64086 0.0
C348 C 0.18521 0.22052 0.64154 0.0
C349 C 0.1655 0.12946 0.64058 0.0
C350 C 0.2396 0.2373 0.64268 0.0
C351 C 0.25695 0.2009 0.64287 0.0
H352 H 0.008 0.76719 0.92571 0.0
H353 H 0.07733 0.91956 0.88455 0.0
H354 H 0.98984 0.90942 0.87797 0.0
H355 H 0.89428 0.85805 0.88446 0.0
H356 H 0.82322 0.70674 0.92662 0.0
H357 H 0.91095 0.71578 0.93286 0.0
C358 C 1.00364 0.79791 0.91526 0.0
C359 C 0.04862 0.84394 0.90558 0.0
C360 C 0.95321 0.79208 0.91189 0.0
C361 C 0.04304 0.88399 0.89236 0.0
C362 C 0.99314 0.87816 0.88851 0.0
C363 C 0.89804 0.82678 0.89475 0.0
C364 C 0.8528 0.78132 0.90461 0.0
C365 C 0.9481 0.83247 0.89823 0.0
C366 C 0.85774 0.74134 0.91822 0.0
C367 C 0.90778 0.74677 0.92195 0.0
H368 H 0.77011 0.00331 0.61772 0.0
H369 H 0.85057 0.93618 0.66371 0.0
H370 H 0.92671 0.02423 0.67113 0.0
H371 H 0.97136 0.12067 0.66371 0.0
H372 H 0.89242 0.18772 0.61665 0.0
H373 H 0.81462 0.09955 0.61043 0.0
C374 C 0.8043 0.00797 0.62938 0.0
C375 C 0.80486 0.96315 0.63987 0.0
C376 C 0.84804 0.05878 0.63348 0.0
C377 C 0.8495 0.96988 0.65493 0.0
C378 C 0.89293 0.02028 0.65937 0.0
C379 C 0.93658 0.11573 0.65255 0.0
C380 C 0.93643 0.16011 0.64127 0.0
C381 C 0.89269 0.06499 0.64868 0.0
C382 C 0.89234 0.15381 0.62606 0.0
C383 C 0.84822 0.10352 0.62236 0.0
H384 H 0.1095 0.15098 0.92167 0.0
H385 H 0.24401 0.26747 0.87436 0.0
H386 H 0.27723 0.20623 0.8692 0.0
H387 H 0.27202 0.12155 0.88156 0.0
H388 H 0.14084 0.00819 0.93224 0.0
H389 H 0.10249 0.06518 0.93243 0.0
C390 C 0.14552 0.16239 0.90985 0.0
C391 C 0.17438 0.2135 0.89852 0.0
C392 C 0.16559 0.12764 0.90791 0.0
C393 C 0.22134 0.22822 0.88345 0.0
C394 C 0.24048 0.19333 0.88054 0.0
C395 C 0.23524 0.10967 0.89267 0.0
C396 C 0.21019 0.06149 0.90743 0.0
C397 C 0.21376 0.14337 0.89334 0.0
C398 C 0.16192 0.04596 0.9214 0.0
C399 C 0.13956 0.07832 0.92136 0.0
H400 H 0.04713 0.89154 0.6512 0.0
H401 H 0.01659 0.74183 0.61723 0.0
H402 H 0.92215 0.70932 0.61736 0.0
H403 H 0.84677 0.72194 0.6278 0.0
H404 H 0.87587 0.86812 0.66541 0.0
H405 H 0.97129 0.90359 0.66261 0.0
C406 C 0.01981 0.85198 0.64368 0.0
C407 C 0.03926 0.81938 0.63423 0.0
C408 C 0.96485 0.83268 0.64441 0.0
C409 C 1.00304 0.76796 0.62476 0.0
C410 C 0.94877 0.74913 0.62476 0.0
C411 C 0.87418 0.76133 0.63552 0.0
C412 C 0.85459 0.7921 0.64711 0.0
C413 C 0.92907 0.78087 0.63471 0.0
C414 C 0.89026 0.84334 0.65687 0.0
C415 C 0.94484 0.86376 0.65518 0.0
H416 H 0.93971 0.13295 0.94359 0.0
H417 H 0.91862 0.16126 0.85553 0.0
H418 H 0.85018 0.06841 0.84998 0.0
H419 H 0.79275 0.98026 0.87118 0.0
H420 H 0.81656 0.95158 0.95865 0.0
H421 H 0.88717 0.0438 0.96372 0.0
C422 C 0.91944 0.11889 0.92333 0.0
C423 C 0.93242 0.1541 0.90032 0.0
C424 C 0.88058 0.06562 0.92031 0.0
C425 C 0.90749 0.13522 0.87386 0.0
C426 C 0.86884 0.08211 0.87062 0.0
C427 C 0.81367 0.99449 0.89126 0.0
C428 C 0.79955 0.96003 0.91465 0.0
C429 C 0.85438 0.04721 0.89384 0.0
C430 C 0.82715 0.9779 0.94046 0.0
C431 C 0.86721 0.03047 0.94336 0.0
H432 H 0.39619 0.13352 0.31604 0.0
H433 H 0.2936 0.19616 0.33261 0.0
H434 H 0.29262 0.2149 0.28154 0.0
H435 H 0.30454 0.19314 0.23146 0.0
H436 H 0.40873 0.1317 0.21616 0.0
H437 H 0.42591 0.13312 0.26713 0.0
C438 C 0.37567 0.15362 0.30862 0.0
C439 C 0.3453 0.16372 0.32812 0.0
C440 C 0.37471 0.1634 0.27921 0.0
C441 C 0.31796 0.18872 0.31814 0.0
C442 C 0.3168 0.1987 0.28881 0.0
C443 C 0.33342 0.18312 0.2392 0.0
C444 C 0.35604 0.16311 0.21989 0.0
C445 C 0.34277 0.18355 0.26895 0.0
C446 C 0.39198 0.14856 0.2304 0.0
C447 C 0.40113 0.14852 0.25969 0.0
H448 H 0.74743 0.66383 0.31248 0.0
H449 H 0.88958 0.66231 0.33486 0.0
H450 H 0.90635 0.65559 0.28382 0.0
H451 H 0.88745 0.66691 0.23229 0.0
H452 H 0.74457 0.67022 0.21322 0.0
H453 H 0.72217 0.66143 0.26346 0.0
C454 C 0.7817 0.66098 0.3063 0.0
C455 C 0.81761 0.66435 0.32726 0.0
C456 C 0.79162 0.659 0.27736 0.0
C457 C 0.86135 0.65984 0.31905 0.0
C458 C 0.8712 0.65673 0.28984 0.0
C459 C 0.85075 0.664 0.23923 0.0
C460 C 0.81757 0.66913 0.21907 0.0
C461 C 0.83777 0.65878 0.26866 0.0
C462 C 0.77031 0.66578 0.22829 0.0
C463 C 0.75756 0.661 0.25704 0.0
H464 H 0.83585 0.11325 0.2293 0.0
H465 H 0.85055 0.26555 0.21577 0.0
H466 H 0.84021 0.27377 0.26693 0.0
H467 H 0.8481 0.24648 0.31586 0.0
H468 H 0.8346 0.09478 0.32951 0.0
H469 H 0.82152 0.07641 0.27834 0.0
C470 C 0.83387 0.14687 0.23743 0.0
C471 C 0.84312 0.18841 0.2187 0.0
C472 C 0.8289 0.15169 0.26711 0.0
C473 C 0.84224 0.23256 0.22963 0.0
C474 C 0.83711 0.23758 0.25901 0.0
C475 C 0.83924 0.20821 0.30776 0.0
C476 C 0.84154 0.1717 0.32652 0.0
C477 C 0.83321 0.19864 0.27809 0.0
C478 C 0.83181 0.12299 0.31563 0.0
C479 C 0.82525 0.11289 0.28623 0.0
H480 H 0.14196 0.27389 0.72975 0.0
H481 H 0.20174 0.44045 0.71917 0.0
H482 H 0.2174 0.45382 0.77064 0.0
H483 H 0.19407 0.41437 0.81931 0.0
H484 H 0.13572 0.2479 0.82938 0.0
H485 H 0.13985 0.23823 0.77802 0.0
C486 C 0.16068 0.31342 0.73859 0.0
C487 C 0.17116 0.35627 0.72056 0.0
C488 C 0.16871 0.32063 0.76841 0.0
C489 C 0.19395 0.40699 0.73249 0.0
C490 C 0.20236 0.41453 0.76204 0.0
C491 C 0.18552 0.37674 0.81042 0.0
C492 C 0.16512 0.33206 0.82839 0.0
C493 C 0.18735 0.37126 0.78043 0.0
C494 C 0.1526 0.28319 0.81623 0.0
C495 C 0.15401 0.27738 0.78666 0.0
H496 H 0.11267 0.7974 0.81459 0.0
H497 H 0.27774 0.90241 0.83289 0.0
H498 H 0.29879 0.90794 0.78231 0.0
H499 H 0.26863 0.89517 0.73271 0.0
H500 H 0.10481 0.78981 0.71277 0.0
H501 H 0.08511 0.76989 0.7638 0.0
C502 C 0.15339 0.81977 0.8075 0.0
C503 C 0.19371 0.84922 0.82757 0.0
C504 C 0.16543 0.82266 0.778 0.0
C505 C 0.24621 0.87874 0.81801 0.0
C506 C 0.25824 0.88228 0.789 0.0
C507 C 0.22899 0.86608 0.73946 0.0
C508 C 0.18832 0.84375 0.71898 0.0
C509 C 0.21801 0.85599 0.76876 0.0
C510 C 0.13698 0.80685 0.72804 0.0
C511 C 0.12563 0.79622 0.75731 0.0
H512 H 0.60167 0.81457 0.72882 0.0
H513 H 0.75087 0.8246 0.70997 0.0
H514 H 0.77392 0.83531 0.75996 0.0
H515 H 0.74963 0.83327 0.80881 0.0
H516 H 0.60309 0.82503 0.83164 0.0
H517 H 0.5831 0.8271 0.78044 0.0
C518 C 0.63993 0.82112 0.73569 0.0
C519 C 0.67455 0.81859 0.71549 0.0
C520 C 0.65377 0.82839 0.76514 0.0
C521 C 0.72375 0.82664 0.72483 0.0
C522 C 0.73698 0.83264 0.75354 0.0
C523 C 0.71338 0.83259 0.80279 0.0
C524 C 0.67733 0.82769 0.82401 0.0
C525 C 0.70189 0.83224 0.77383 0.0
C526 C 0.63132 0.82819 0.81573 0.0
C527 C 0.61974 0.82878 0.78642 0.0
H528 H 0.16674 0.93392 0.99901 0.0
H529 H 0.31279 0.93932 0.97809 0.0
H530 H 0.35988 0.00849 1.01352 0.0
H531 H 0.36082 0.06932 0.05054 0.0
H532 H 0.2176 0.07137 0.06848 0.0
H533 H 0.16867 0.99834 0.03486 0.0
C534 C 0.20868 0.94973 1.00257 0.0
C535 C 0.23577 0.93015 0.98623 0.0
C536 C 0.23637 0.99156 1.0225 0.0
C537 C 0.29059 0.95269 0.99056 0.0
C538 C 0.31774 0.99261 1.01082 0.0
C539 C 0.31894 0.05396 0.04695 0.0
C540 C 0.29305 0.07617 0.06204 0.0
C541 C 0.29128 0.0127 0.02688 0.0
C542 C 0.23873 0.0556 0.05702 0.0
C543 C 0.21063 0.01351 0.03782 0.0
H544 H 0.7156 0.69328 0.46834 0.0
H545 H 0.85705 0.73033 0.51522 0.0
H546 H 0.82998 0.7682 0.55378 0.0
H547 H 0.76504 0.79037 0.5747 0.0
H548 H 0.62436 0.75376 0.52729 0.0
H549 H 0.65178 0.71634 0.48882 0.0
C550 C 0.74059 0.7096 0.48699 0.0
C551 C 0.78838 0.70846 0.48876 0.0
C552 C 0.72458 0.73131 0.50922 0.0
C553 C 0.82004 0.73014 0.51319 0.0
C554 C 0.80449 0.75191 0.53532 0.0
C555 C 0.74012 0.77361 0.55611 0.0
C556 C 0.69213 0.77433 0.55422 0.0
C557 C 0.75661 0.75245 0.53373 0.0
C558 C 0.66133 0.75388 0.52944 0.0
C559 C 0.67703 0.73232 0.50739 0.0
H560 H 0.02837 0.2376 0.97236 0.0
H561 H 0.13081 0.38445 1.0147 0.0
H562 H 0.06828 0.35844 0.05436 0.0
H563 H 0.98291 0.29413 0.07726 0.0
H564 H 0.88009 0.14738 0.03455 0.0
H565 H 0.94321 0.17299 0.99517 0.0
C566 C 0.03643 0.26457 0.98975 0.0
C567 C 0.08408 0.31386 0.98973 0.0
C568 C 0.99992 0.24902 1.01283 0.0
C569 C 0.0946 0.34659 1.0137 0.0
C570 C 0.05864 0.33166 0.03653 0.0
C571 C 0.97422 0.2677 0.05933 0.0
C572 C 0.92605 0.21877 0.05904 0.0
C573 C 0.01095 0.28299 0.0364 0.0
C574 C 0.91622 0.18528 0.03551 0.0
C575 C 0.95253 0.20001 1.01285 0.0
H576 H 0.34465 0.04502 0.48195 0.0
H577 H 0.23359 0.09888 0.49488 0.0
H578 H 0.18745 0.03017 0.53112 0.0
H579 H 0.1795 0.95519 0.56064 0.0
H580 H 0.29491 0.90627 0.55033 0.0
H581 H 0.33839 0.97208 0.51242 0.0
C582 C 0.3103 0.04169 0.49267 0.0
C583 C 0.29282 0.07753 0.48546 0.0
C584 C 0.28457 1.00259 0.51425 0.0
C585 C 0.24839 0.07249 0.49994 0.0
C586 C 0.22179 0.03289 0.52072 0.0
C587 C 0.21372 0.95848 0.5498 0.0
C588 C 0.2329 0.92444 0.55792 0.0
C589 C 0.23953 0.99772 0.52825 0.0
C590 C 0.27836 0.93069 0.54412 0.0
C591 C 0.30349 0.9687 0.52247 0.0
H592 H 0.81349 0.70596 0.02713 0.0
H593 H 0.71811 0.70356 0.09768 0.0
H594 H 0.68177 0.74694 0.06892 0.0
H595 H 0.67238 0.78231 1.02235 0.0
H596 H 0.75675 0.77249 0.95053 0.0
H597 H 0.80054 0.73709 0.98001 0.0
C598 C 0.78498 0.71514 0.0362 0.0
C599 C 0.77038 0.70297 0.06501 0.0
C600 C 0.76147 0.73787 1.01891 0.0
C601 C 0.73179 0.71379 0.0759 0.0
C602 C 0.71043 0.7385 0.05936 0.0
C603 C 0.70106 0.77331 1.01333 0.0
C604 C 0.71206 0.78096 0.98391 0.0
C605 C 0.72462 0.75066 0.03069 0.0
C606 C 0.7481 0.76735 0.97278 0.0
C607 C 0.77309 0.74696 0.98982 0.0
H608 H 0.09493 0.26243 0.53859 0.0
H609 H 0.03585 0.34995 0.58406 0.0
H610 H 0.9624 0.32005 0.55073 0.0
H611 H 0.91445 0.27029 0.50746 0.0
H612 H 0.96454 0.17197 0.46605 0.0
H613 H 0.04133 0.20517 0.49785 0.0
C614 C 0.06625 0.27529 0.54102 0.0
C615 C 0.07207 0.30948 0.56375 0.0
C616 C 0.02226 0.25631 0.52202 0.0
C617 C 0.03328 0.3243 0.56679 0.0
C618 C 0.99086 0.30709 0.54764 0.0
C619 C 0.94205 0.25596 0.50551 0.0
C620 C 0.935 0.22054 0.48333 0.0
C621 C 0.98484 0.27322 0.52505 0.0
C622 C 0.97051 0.20143 0.48176 0.0
C623 C 0.01417 0.2199 0.50033 0.0
H624 H 0.6628 0.19414 0.15649 0.0
H625 H 0.62803 0.0775 0.09145 0.0
H626 H 0.53387 0.05003 0.09383 0.0
H627 H 0.46142 0.06247 0.11293 0.0
H628 H 0.49839 0.1798 0.17786 0.0
H629 H 0.59097 0.20337 0.17716 0.0
C630 C 0.63458 0.16256 0.14289 0.0
C631 C 0.65237 0.13792 0.12378 0.0
C632 C 0.58054 0.14664 0.14461 0.0
C633 C 0.61534 0.09725 0.10625 0.0
C634 C 0.56143 0.08134 0.10772 0.0
C635 C 0.48939 0.09144 0.12774 0.0
C636 C 0.47261 0.11807 0.14608 0.0
C637 C 0.54339 0.10571 0.12683 0.0
C638 C 0.50996 0.15748 0.16423 0.0
C639 C 0.56316 0.17161 0.16354 0.0
H640 H 0.66831 0.50251 0.4437 0.0
H641 H 0.61987 0.55699 0.37042 0.0
H642 H 0.53886 0.47001 0.36655 0.0
H643 H 0.48066 0.37858 0.38537 0.0
H644 H 0.53051 0.3283 0.46001 0.0
H645 H 0.61252 0.41301 0.46169 0.0
C646 C 0.63959 0.49568 0.42711 0.0
C647 C 0.64924 0.53659 0.40786 0.0
C648 C 0.59347 0.44613 0.42525 0.0
C649 C 0.61234 0.52677 0.3861 0.0
C650 C 0.56642 0.47685 0.38373 0.0
C651 C 0.50937 0.38655 0.40211 0.0
C652 C 0.49886 0.3477 0.42304 0.0
C653 C 0.55624 0.43631 0.40342 0.0
C654 C 0.53695 0.35796 0.44415 0.0
C655 C 0.58396 0.40638 0.44509 0.0
H656 H 0.95006 0.40717 0.12105 0.0
H657 H 0.80557 0.30711 0.1669 0.0
H658 H 0.7821 0.37553 0.16564 0.0
H659 H 0.79912 0.4618 0.14952 0.0
H660 H 0.94314 0.56519 0.10462 0.0
H661 H 0.97063 0.49861 0.108 0.0
C662 C 0.91447 0.40122 0.13153 0.0
C663 C 0.87974 0.35193 0.14398 0.0
C664 C 0.90063 0.44125 0.13068 0.0
C665 C 0.83315 0.34461 0.15711 0.0
C666 C 0.81933 0.38364 0.1563 0.0
C667 C 0.8366 0.46983 0.1405 0.0
C668 C 0.86874 0.518 0.12655 0.0
C669 C 0.85213 0.43165 0.14266 0.0
C670 C 0.91726 0.52792 0.11507 0.0
C671 C 0.93313 0.48997 0.11716 0.0
H672 H 0.46497 0.055 0.40807 0.0
H673 H 0.52022 0.22284 0.40447 0.0
H674 H 0.60986 0.2431 0.40774 0.0
H675 H 0.6753 0.21625 0.41266 0.0
H676 H 0.62695 0.05126 0.41682 0.0
H677 H 0.53375 0.0275 0.41148 0.0
C678 C 0.4966 0.09582 0.40773 0.0
C679 C 0.48429 0.13663 0.40625 0.0
C680 C 0.55025 0.10835 0.40963 0.0
C681 C 0.52674 0.18959 0.40578 0.0
C682 C 0.579 0.20189 0.40764 0.0
C683 C 0.64433 0.17503 0.4125 0.0
C684 C 0.65772 0.13561 0.41557 0.0
C685 C 0.5913 0.16188 0.40983 0.0
C686 C 0.6173 0.08238 0.41513 0.0
C687 C 0.56406 0.06883 0.41193 0.0
H688 H 0.47278 0.38996 0.11605 0.0
H689 H 0.55494 0.31007 0.14492 0.0
H690 H 0.63351 0.39418 0.15486 0.0
H691 H 0.67962 0.48948 0.15526 0.0
H692 H 0.60298 0.57384 0.12546 0.0
H693 H 0.52101 0.48922 0.11702 0.0
C694 C 0.50811 0.39128 0.12429 0.0
C695 C 0.508 0.34374 0.12963 0.0
C696 C 0.55374 0.44047 0.13038 0.0
C697 C 0.55386 0.34593 0.14058 0.0
C698 C 0.59886 0.39406 0.14644 0.0
C699 C 0.64489 0.48965 0.14714 0.0
C700 C 0.64744 0.53801 0.14105 0.0
C701 C 0.59915 0.4414 0.14156 0.0
C702 C 0.60188 0.53725 0.13075 0.0
C703 C 0.5553 0.48882 0.12554 0.0
H704 H 0.92855 0.5404 0.4184 0.0
H705 H 0.75797 0.45076 0.41931 0.0
H706 H 0.75955 0.36895 0.41407 0.0
H707 H 0.808 0.32271 0.40939 0.0
H708 H 0.97865 0.40856 0.40706 0.0
H709 H 0.9784 0.49208 0.41188 0.0
C710 C 0.89196 0.5028 0.41775 0.0
C711 C 0.84319 0.50151 0.41965 0.0
C712 C 0.89308 0.45539 0.4141 0.0
C713 C 0.79596 0.45275 0.41809 0.0
C714 C 0.79679 0.40591 0.415 0.0
C715 C 0.84551 0.35945 0.40998 0.0
C716 C 0.89341 0.35896 0.40824 0.0
C717 C 0.845 0.40678 0.41296 0.0
C718 C 0.94118 0.40751 0.40854 0.0
C719 C 0.94101 0.45529 0.41143 0.0
H720 H 0.15152 0.63687 0.59398 0.0
H721 H 0.1677 0.67132 0.68406 0.0
H722 H 0.1462 0.58142 0.69498 0.0
H723 H 0.12532 0.49332 0.67913 0.0
H724 H 0.10894 0.4573 0.58957 0.0
H725 H 0.12768 0.54687 0.57813 0.0
C726 C 0.15015 0.62446 0.61593 0.0
C727 C 0.1609 0.66051 0.63815 0.0
C728 C 0.13696 0.57214 0.62218 0.0
C729 C 0.15942 0.64421 0.66654 0.0
C730 C 0.14692 0.59272 0.67287 0.0
C731 C 0.12369 0.50465 0.65725 0.0
C732 C 0.11326 0.4685 0.63529 0.0
C733 C 0.13532 0.55627 0.65092 0.0
C734 C 0.11415 0.48403 0.60683 0.0
C735 C 0.12584 0.53545 0.60029 0.0
H736 H 0.32756 0.81076 0.90069 0.0
H737 H 0.41081 0.97885 0.91522 0.0
H738 H 0.4941 0.97774 0.92095 0.0
H739 H 0.54222 0.92687 0.92387 0.0
H740 H 0.45434 0.75858 0.90925 0.0
H741 H 0.37363 0.76173 0.90242 0.0
C742 C 0.36383 0.84744 0.90513 0.0
C743 C 0.36279 0.89479 0.90788 0.0
C744 C 0.41066 0.84618 0.90889 0.0
C745 C 0.4105 0.94188 0.91295 0.0
C746 C 0.45797 0.94108 0.9165 0.0
C747 C 0.50523 0.89105 0.91942 0.0
C748 C 0.50424 0.8425 0.91723 0.0
C749 C 0.45839 0.89319 0.91501 0.0
C750 C 0.45623 0.79641 0.91107 0.0
C751 C 0.40999 0.79813 0.90705 0.0
H752 H 0.54273 0.60363 0.61012 0.0
H753 H 0.50889 0.69378 0.6704 0.0
H754 H 0.4163 0.62586 0.67134 0.0
H755 H 0.34326 0.54337 0.65317 0.0
H756 H 0.37397 0.45058 0.5934 0.0
H757 H 0.46875 0.516 0.59441 0.0
C758 C 0.51533 0.60736 0.6241 0.0
C759 C 0.53291 0.65365 0.6402 0.0
C760 C 0.46115 0.56792 0.62438 0.0
C761 C 0.49653 0.65842 0.65784 0.0
C762 C 0.44332 0.61976 0.65828 0.0
C763 C 0.3707 0.53744 0.64036 0.0
C764 C 0.35163 0.49263 0.62296 0.0
C765 C 0.42493 0.57491 0.6412 0.0
C766 C 0.38768 0.48529 0.60664 0.0
C767 C 0.44193 0.52254 0.60735 0.0
H768 H 0.20415 0.66625 0.89332 0.0
H769 H 0.07445 0.62939 0.94998 0.0
H770 H 0.0464 0.53506 0.9475 0.0
H771 H 0.06223 0.46271 0.93102 0.0
H772 H 0.19272 0.50336 0.87387 0.0
H773 H 0.21691 0.59549 0.87506 0.0
C774 C 0.16966 0.63757 0.90512 0.0
C775 C 0.14168 0.65488 0.92197 0.0
C776 C 0.15377 0.58357 0.90352 0.0
C777 C 0.09713 0.61716 0.93713 0.0
C778 C 0.08089 0.56311 0.93557 0.0
C779 C 0.09467 0.49146 0.91809 0.0
C780 C 0.12508 0.4755 0.90216 0.0
C781 C 0.10905 0.54562 0.91892 0.0
C782 C 0.1681 0.51402 0.88614 0.0
C783 C 0.18242 0.5671 0.88693 0.0
H784 H 0.34734 0.84255 0.66794 0.0
H785 H 0.39486 0.96055 0.60209 0.0
H786 H 0.47455 0.95454 0.59311 0.0
H787 H 0.52928 0.91292 0.60329 0.0
H788 H 0.47788 0.79316 0.66877 0.0
H789 H 0.40108 0.80216 0.67838 0.0
C790 C 0.37607 0.86815 0.65221 0.0
C791 C 0.36638 0.90333 0.63636 0.0
C792 C 0.42072 0.8635 0.64684 0.0
C793 C 0.40277 0.93493 0.61538 0.0
C794 C 0.44776 0.93072 0.60993 0.0
C795 C 0.50139 0.8892 0.61976 0.0
C796 C 0.50974 0.85296 0.63552 0.0
C797 C 0.457 0.89481 0.6254 0.0
C798 C 0.47278 0.82174 0.65649 0.0
C799 C 0.4288 0.82689 0.66209 0.0
H800 H 0.49231 0.67834 0.92552 0.0
H801 H 0.57169 0.60367 0.88651 0.0
H802 H 0.48759 0.51927 0.88556 0.0
H803 H 0.39121 0.46682 0.89675 0.0
H804 H 0.31672 0.54362 0.93848 0.0
H805 H 0.39932 0.62801 0.93665 0.0
C806 C 0.49171 0.64386 0.91664 0.0
C807 C 0.53845 0.64741 0.90598 0.0
C808 C 0.44394 0.59604 0.91654 0.0
C809 C 0.53641 0.60193 0.89495 0.0
C810 C 0.48832 0.55383 0.89432 0.0
C811 C 0.39353 0.5022 0.90545 0.0
C812 C 0.34864 0.49939 0.9181 0.0
C813 C 0.44184 0.55039 0.90518 0.0
C814 C 0.35135 0.54507 0.92919 0.0
C815 C 0.39839 0.5932 0.92808 0.0
loop_
_geom_bond_atom_site_label_1
_geom_bond_atom_site_label_2
_geom_bond_distance
_geom_bond_site_symmetry_2
_ccdc_geom_bond_type
Dy0 O4 2.398 . S
Dy0 O5 2.491 . S
Dy0 O6 2.403 . S
Dy0 O7 2.664 . S
Dy0 O11 2.326 . S
Dy0 O15 2.310 . S
Dy0 O16 2.351 . S
C1 O12 1.185 . S
C1 O13 1.355 1_565 S
C2 O4 1.185 . S
C2 O5 1.355 . S
Dy3 O7 2.310 . S
Dy3 O10 2.351 . S
Dy3 O12 2.398 1_545 S
Dy3 O13 2.491 . S
Dy3 O14 2.403 . S
Dy3 O15 2.664 . S
Dy3 O17 2.326 . S
O4 Dy0 2.398 . S
O4 C2 1.185 . S
O5 Dy0 2.491 . S
O5 C2 1.355 . S
O6 Dy0 2.403 . S
O6 C8 1.254 . S
O7 Dy0 2.664 . S
O7 Dy3 2.310 . S
O7 C8 1.268 . S
C8 O6 1.254 . S
C8 O7 1.268 . S
C9 O14 1.254 . S
C9 O15 1.268 . S
O10 Dy3 2.351 . S
O10 C18 1.249 . S
O11 Dy0 2.326 . S
O11 C18 1.267 . S
O12 C1 1.185 . S
O12 Dy3 2.398 1_565 S
O13 C1 1.355 1_545 S
O13 Dy3 2.491 . S
O14 Dy3 2.403 . S
O14 C9 1.254 . S
O15 Dy0 2.310 . S
O15 Dy3 2.664 . S
O15 C9 1.268 . S
O16 Dy0 2.351 . S
O16 C19 1.249 . S
O17 Dy3 2.326 . S
O17 C19 1.267 . S
C18 O10 1.249 . S
C18 O11 1.267 . S
C19 O16 1.249 . S
C19 O17 1.267 . S
Dy20 O24 2.398 . S
Dy20 O25 2.491 . S
Dy20 O26 2.403 . S
Dy20 O27 2.664 . S
Dy20 O31 2.326 . S
Dy20 O35 2.310 . S
Dy20 O36 2.351 . S
C21 O32 1.185 . S
C21 O33 1.355 . S
C22 O24 1.185 . S
C22 O25 1.355 . S
Dy23 O27 2.310 . S
Dy23 O30 2.351 . S
Dy23 O32 2.398 . S
Dy23 O33 2.491 . S
Dy23 O34 2.403 . S
Dy23 O35 2.664 . S
Dy23 O37 2.326 . S
O24 Dy20 2.398 . S
O24 C22 1.185 . S
O25 Dy20 2.491 . S
O25 C22 1.355 . S
O26 Dy20 2.403 . S
O26 C28 1.254 . S
O27 Dy20 2.664 . S
O27 Dy23 2.310 . S
O27 C28 1.268 . S
C28 O26 1.254 . S
C28 O27 1.268 . S
C29 O34 1.254 . S
C29 O35 1.268 . S
O30 Dy23 2.351 . S
O30 C38 1.249 . S
O31 Dy20 2.326 . S
O31 C38 1.267 . S
O32 C21 1.185 . S
O32 Dy23 2.398 . S
O33 C21 1.355 . S
O33 Dy23 2.491 . S
O34 Dy23 2.403 . S
O34 C29 1.254 . S
O35 Dy20 2.310 . S
O35 Dy23 2.664 . S
O35 C29 1.268 . S
O36 Dy20 2.351 . S
O36 C39 1.249 . S
O37 Dy23 2.326 . S
O37 C39 1.267 . S
C38 O30 1.249 . S
C38 O31 1.267 . S
C39 O36 1.249 . S
C39 O37 1.267 . S
Dy40 O44 2.398 . S
Dy40 O45 2.491 . S
Dy40 O46 2.403 . S
Dy40 O47 2.664 . S
Dy40 O51 2.326 . S
Dy40 O55 2.310 . S
Dy40 O56 2.351 . S
C41 O52 1.185 . S
C41 O53 1.355 1_455 S
C42 O44 1.185 . S
C42 O45 1.355 . S
Dy43 O47 2.310 . S
Dy43 O50 2.351 . S
Dy43 O52 2.398 1_655 S
Dy43 O53 2.491 . S
Dy43 O54 2.403 . S
Dy43 O55 2.664 . S
Dy43 O57 2.326 . S
O44 Dy40 2.398 . S
O44 C42 1.185 . S
O45 Dy40 2.491 . S
O45 C42 1.355 . S
O46 Dy40 2.403 . S
O46 C48 1.254 . S
O47 Dy40 2.664 . S
O47 Dy43 2.310 . S
O47 C48 1.268 . S
C48 O46 1.254 . S
C48 O47 1.268 . S
C49 O54 1.254 . S
C49 O55 1.268 . S
O50 Dy43 2.351 . S
O50 C58 1.249 . S
O51 Dy40 2.326 . S
O51 C58 1.267 . S
O52 C41 1.185 . S
O52 Dy43 2.398 1_455 S
O53 C41 1.355 1_655 S
O53 Dy43 2.491 . S
O54 Dy43 2.403 . S
O54 C49 1.254 . S
O55 Dy40 2.310 . S
O55 Dy43 2.664 . S
O55 C49 1.268 . S
O56 Dy40 2.351 . S
O56 C59 1.249 . S
O57 Dy43 2.326 . S
O57 C59 1.267 . S
C58 O50 1.249 . S
C58 O51 1.267 . S
C59 O56 1.249 . S
C59 O57 1.267 . S
Dy60 O64 2.398 1_545 S
Dy60 O65 2.491 . S
Dy60 O66 2.403 . S
Dy60 O67 2.664 . S
Dy60 O71 2.326 . S
Dy60 O75 2.310 . S
Dy60 O76 2.351 . S
C61 O72 1.185 . S
C61 O73 1.355 . S
C62 O64 1.185 . S
C62 O65 1.355 1_565 S
Dy63 O67 2.310 . S
Dy63 O70 2.351 . S
Dy63 O72 2.398 . S
Dy63 O73 2.491 . S
Dy63 O74 2.403 . S
Dy63 O75 2.664 . S
Dy63 O77 2.326 . S
O64 Dy60 2.398 1_565 S
O64 C62 1.185 . S
O65 Dy60 2.491 . S
O65 C62 1.355 1_545 S
O66 Dy60 2.403 . S
O66 C68 1.254 . S
O67 Dy60 2.664 . S
O67 Dy63 2.310 . S
O67 C68 1.268 . S
C68 O66 1.254 . S
C68 O67 1.268 . S
C69 O74 1.254 . S
C69 O75 1.268 . S
O70 Dy63 2.351 . S
O70 C78 1.249 . S
O71 Dy60 2.326 . S
O71 C78 1.267 . S
O72 C61 1.185 . S
O72 Dy63 2.398 . S
O73 C61 1.355 . S
O73 Dy63 2.491 . S
O74 Dy63 2.403 . S
O74 C69 1.254 . S
O75 Dy60 2.310 . S
O75 Dy63 2.664 . S
O75 C69 1.268 . S
O76 Dy60 2.351 . S
O76 C79 1.249 . S
O77 Dy63 2.326 . S
O77 C79 1.267 . S
C78 O70 1.249 . S
C78 O71 1.267 . S
C79 O76 1.249 . S
C79 O77 1.267 . S
Dy80 O84 2.398 . S
Dy80 O85 2.491 . S
Dy80 O86 2.403 . S
Dy80 O87 2.664 . S
Dy80 O91 2.326 . S
Dy80 O95 2.310 . S
Dy80 O96 2.351 . S
C81 O92 1.185 . S
C81 O93 1.355 . S
C82 O84 1.185 . S
C82 O85 1.355 . S
Dy83 O87 2.310 . S
Dy83 O90 2.351 . S
Dy83 O92 2.398 . S
Dy83 O93 2.491 . S
Dy83 O94 2.403 . S
Dy83 O95 2.664 . S
Dy83 O97 2.326 . S
O84 Dy80 2.398 . S
O84 C82 1.185 . S
O85 Dy80 2.491 . S
O85 C82 1.355 . S
O86 Dy80 2.403 . S
O86 C88 1.254 . S
O87 Dy80 2.664 . S
O87 Dy83 2.310 . S
O87 C88 1.268 . S
C88 O86 1.254 . S
C88 O87 1.268 . S
C89 O94 1.254 . S
C89 O95 1.268 . S
O90 Dy83 2.351 . S
O90 C98 1.249 . S
O91 Dy80 2.326 . S
O91 C98 1.267 . S
O92 C81 1.185 . S
O92 Dy83 2.398 . S
O93 C81 1.355 . S
O93 Dy83 2.491 . S
O94 Dy83 2.403 . S
O94 C89 1.254 . S
O95 Dy80 2.310 . S
O95 Dy83 2.664 . S
O95 C89 1.268 . S
O96 Dy80 2.351 . S
O96 C99 1.249 . S
O97 Dy83 2.326 . S
O97 C99 1.267 . S
C98 O90 1.249 . S
C98 O91 1.267 . S
C99 O96 1.249 . S
C99 O97 1.267 . S
Dy100 O104 2.398 1_655 S
Dy100 O105 2.491 . S
Dy100 O106 2.403 . S
Dy100 O107 2.664 . S
Dy100 O111 2.326 . S
Dy100 O115 2.310 . S
Dy100 O116 2.351 . S
C101 O112 1.185 . S
C101 O113 1.355 . S
C102 O104 1.185 . S
C102 O105 1.355 1_455 S
Dy103 O107 2.310 . S
Dy103 O110 2.351 . S
Dy103 O112 2.398 . S
Dy103 O113 2.491 . S
Dy103 O114 2.403 . S
Dy103 O115 2.664 . S
Dy103 O117 2.326 . S
O104 Dy100 2.398 1_455 S
O104 C102 1.185 . S
O105 Dy100 2.491 . S
O105 C102 1.355 1_655 S
O106 Dy100 2.403 . S
O106 C108 1.254 . S
O107 Dy100 2.664 . S
O107 Dy103 2.310 . S
O107 C108 1.268 . S
C108 O106 1.254 . S
C108 O107 1.268 . S
C109 O114 1.254 . S
C109 O115 1.268 . S
O110 Dy103 2.351 . S
O110 C118 1.249 . S
O111 Dy100 2.326 . S
O111 C118 1.267 . S
O112 C101 1.185 . S
O112 Dy103 2.398 . S
O113 C101 1.355 . S
O113 Dy103 2.491 . S
O114 Dy103 2.403 . S
O114 C109 1.254 . S
O115 Dy100 2.310 . S
O115 Dy103 2.664 . S
O115 C109 1.268 . S
O116 Dy100 2.351 . S
O116 C119 1.249 . S
O117 Dy103 2.326 . S
O117 C119 1.267 . S
C118 O110 1.249 . S
C118 O111 1.267 . S
C119 O116 1.249 . S
C119 O117 1.267 . S
Dy120 O124 2.398 1_455 S
Dy120 O125 2.491 . S
Dy120 O126 2.403 . S
Dy120 O127 2.664 . S
Dy120 O131 2.326 . S
Dy120 O135 2.310 . S
Dy120 O136 2.351 . S
C121 O132 1.185 . S
C121 O133 1.355 . S
C122 O124 1.185 . S
C122 O125 1.355 1_655 S
Dy123 O127 2.310 . S
Dy123 O130 2.351 . S
Dy123 O132 2.398 . S
Dy123 O133 2.491 . S
Dy123 O134 2.403 . S
Dy123 O135 2.664 . S
Dy123 O137 2.326 . S
O124 Dy120 2.398 1_655 S
O124 C122 1.185 . S
O125 Dy120 2.491 . S
O125 C122 1.355 1_455 S
O126 Dy120 2.403 . S
O126 C128 1.254 . S
O127 Dy120 2.664 . S
O127 Dy123 2.310 . S
O127 C128 1.268 . S
C128 O126 1.254 . S
C128 O127 1.268 . S
C129 O134 1.254 . S
C129 O135 1.268 . S
O130 Dy123 2.351 . S
O130 C138 1.249 . S
O131 Dy120 2.326 . S
O131 C138 1.267 . S
O132 C121 1.185 . S
O132 Dy123 2.398 . S
O133 C121 1.355 . S
O133 Dy123 2.491 . S
O134 Dy123 2.403 . S
O134 C129 1.254 . S
O135 Dy120 2.310 . S
O135 Dy123 2.664 . S
O135 C129 1.268 . S
O136 Dy120 2.351 . S
O136 C139 1.249 . S
O137 Dy123 2.326 . S
O137 C139 1.267 . S
C138 O130 1.249 . S
C138 O131 1.267 . S
C139 O136 1.249 . S
C139 O137 1.267 . S
Dy140 O144 2.398 . S
Dy140 O145 2.491 . S
Dy140 O146 2.403 . S
Dy140 O147 2.664 . S
Dy140 O151 2.326 . S
Dy140 O155 2.310 . S
Dy140 O156 2.351 . S
C141 O152 1.185 . S
C141 O153 1.355 1_545 S
C142 O144 1.185 . S
C142 O145 1.355 . S
Dy143 O147 2.310 . S
Dy143 O150 2.351 . S
Dy143 O152 2.398 1_565 S
Dy143 O153 2.491 . S
Dy143 O154 2.403 . S
Dy143 O155 2.664 . S
Dy143 O157 2.326 . S
O144 Dy140 2.398 . S
O144 C142 1.185 . S
O145 Dy140 2.491 . S
O145 C142 1.355 . S
O146 Dy140 2.403 . S
O146 C148 1.254 . S
O147 Dy140 2.664 . S
O147 Dy143 2.310 . S
O147 C148 1.268 . S
C148 O146 1.254 . S
C148 O147 1.268 . S
C149 O154 1.254 . S
C149 O155 1.268 . S
O150 Dy143 2.351 . S
O150 C158 1.249 . S
O151 Dy140 2.326 . S
O151 C158 1.267 . S
O152 C141 1.185 . S
O152 Dy143 2.398 1_545 S
O153 C141 1.355 1_565 S
O153 Dy143 2.491 . S
O154 Dy143 2.403 . S
O154 C149 1.254 . S
O155 Dy140 2.310 . S
O155 Dy143 2.664 . S
O155 C149 1.268 . S
O156 Dy140 2.351 . S
O156 C159 1.249 . S
O157 Dy143 2.326 . S
O157 C159 1.267 . S
C158 O150 1.249 . S
C158 O151 1.267 . S
C159 O156 1.249 . S
C159 O157 1.267 . S
Dy160 O164 2.398 . S
Dy160 O165 2.491 . S
Dy160 O166 2.403 . S
Dy160 O167 2.664 . S
Dy160 O171 2.326 . S
Dy160 O175 2.310 . S
Dy160 O176 2.351 . S
C161 O172 1.185 . S
C161 O173 1.355 . S
C162 O164 1.185 . S
C162 O165 1.355 . S
Dy163 O167 2.310 . S
Dy163 O170 2.351 . S
Dy163 O172 2.398 . S
Dy163 O173 2.491 . S
Dy163 O174 2.403 . S
Dy163 O175 2.664 . S
Dy163 O177 2.326 . S
O164 Dy160 2.398 . S
O164 C162 1.185 . S
O165 Dy160 2.491 . S
O165 C162 1.355 . S
O166 Dy160 2.403 . S
O166 C168 1.254 . S
O167 Dy160 2.664 . S
O167 Dy163 2.310 . S
O167 C168 1.268 . S
C168 O166 1.254 . S
C168 O167 1.268 . S
C169 O174 1.254 . S
C169 O175 1.268 . S
O170 Dy163 2.351 . S
O170 C178 1.249 . S
O171 Dy160 2.326 . S
O171 C178 1.267 . S
O172 C161 1.185 . S
O172 Dy163 2.398 . S
O173 C161 1.355 . S
O173 Dy163 2.491 . S
O174 Dy163 2.403 . S
O174 C169 1.254 . S
O175 Dy160 2.310 . S
O175 Dy163 2.664 . S
O175 C169 1.268 . S
O176 Dy160 2.351 . S
O176 C179 1.249 . S
O177 Dy163 2.326 . S
O177 C179 1.267 . S
C178 O170 1.249 . S
C178 O171 1.267 . S
C179 O176 1.249 . S
C179 O177 1.267 . S
Dy180 O184 2.398 . S
Dy180 O185 2.491 . S
Dy180 O186 2.403 . S
Dy180 O187 2.664 . S
Dy180 O191 2.326 . S
Dy180 O195 2.310 . S
Dy180 O196 2.351 . S
C181 O192 1.185 . S
C181 O193 1.355 1_655 S
C182 O184 1.185 . S
C182 O185 1.355 . S
Dy183 O187 2.310 . S
Dy183 O190 2.351 . S
Dy183 O192 2.398 1_455 S
Dy183 O193 2.491 . S
Dy183 O194 2.403 . S
Dy183 O195 2.664 . S
Dy183 O197 2.326 . S
O184 Dy180 2.398 . S
O184 C182 1.185 . S
O185 Dy180 2.491 . S
O185 C182 1.355 . S
O186 Dy180 2.403 . S
O186 C188 1.254 . S
O187 Dy180 2.664 . S
O187 Dy183 2.310 . S
O187 C188 1.268 . S
C188 O186 1.254 . S
C188 O187 1.268 . S
C189 O194 1.254 . S
C189 O195 1.268 . S
O190 Dy183 2.351 . S
O190 C198 1.249 . S
O191 Dy180 2.326 . S
O191 C198 1.267 . S
O192 C181 1.185 . S
O192 Dy183 2.398 1_655 S
O193 C181 1.355 1_455 S
O193 Dy183 2.491 . S
O194 Dy183 2.403 . S
O194 C189 1.254 . S
O195 Dy180 2.310 . S
O195 Dy183 2.664 . S
O195 C189 1.268 . S
O196 Dy180 2.351 . S
O196 C199 1.249 . S
O197 Dy183 2.326 . S
O197 C199 1.267 . S
C198 O190 1.249 . S
C198 O191 1.267 . S
C199 O196 1.249 . S
C199 O197 1.267 . S
Dy200 O204 2.398 1_565 S
Dy200 O205 2.491 . S
Dy200 O206 2.403 . S
Dy200 O207 2.664 . S
Dy200 O211 2.326 . S
Dy200 O215 2.310 . S
Dy200 O216 2.351 . S
C201 O212 1.185 . S
C201 O213 1.355 . S
C202 O204 1.185 . S
C202 O205 1.355 1_545 S
Dy203 O207 2.310 . S
Dy203 O210 2.351 . S
Dy203 O212 2.398 . S
Dy203 O213 2.491 . S
Dy203 O214 2.403 . S
Dy203 O215 2.664 . S
Dy203 O217 2.326 . S
O204 Dy200 2.398 1_545 S
O204 C202 1.185 . S
O205 Dy200 2.491 . S
O205 C202 1.355 1_565 S
O206 Dy200 2.403 . S
O206 C208 1.254 . S
O207 Dy200 2.664 . S
O207 Dy203 2.310 . S
O207 C208 1.268 . S
C208 O206 1.254 . S
C208 O207 1.268 . S
C209 O214 1.254 . S
C209 O215 1.268 . S
O210 Dy203 2.351 . S
O210 C218 1.249 . S
O211 Dy200 2.326 . S
O211 C218 1.267 . S
O212 C201 1.185 . S
O212 Dy203 2.398 . S
O213 C201 1.355 . S
O213 Dy203 2.491 . S
O214 Dy203 2.403 . S
O214 C209 1.254 . S
O215 Dy200 2.310 . S
O215 Dy203 2.664 . S
O215 C209 1.268 . S
O216 Dy200 2.351 . S
O216 C219 1.249 . S
O217 Dy203 2.326 . S
O217 C219 1.267 . S
C218 O210 1.249 . S
C218 O211 1.267 . S
C219 O216 1.249 . S
C219 O217 1.267 . S
Dy220 O224 2.398 . S
Dy220 O225 2.491 . S
Dy220 O226 2.403 . S
Dy220 O227 2.664 . S
Dy220 O231 2.326 . S
Dy220 O235 2.310 . S
Dy220 O236 2.351 . S
C221 O232 1.185 . S
C221 O233 1.355 . S
C222 O224 1.185 . S
C222 O225 1.355 . S
Dy223 O227 2.310 . S
Dy223 O230 2.351 . S
Dy223 O232 2.398 . S
Dy223 O233 2.491 . S
Dy223 O234 2.403 . S
Dy223 O235 2.664 . S
Dy223 O237 2.326 . S
O224 Dy220 2.398 . S
O224 C222 1.185 . S
O225 Dy220 2.491 . S
O225 C222 1.355 . S
O226 Dy220 2.403 . S
O226 C228 1.254 . S
O227 Dy220 2.664 . S
O227 Dy223 2.310 . S
O227 C228 1.268 . S
C228 O226 1.254 . S
C228 O227 1.268 . S
C229 O234 1.254 . S
C229 O235 1.268 . S
O230 Dy223 2.351 . S
O230 C238 1.249 . S
O231 Dy220 2.326 . S
O231 C238 1.267 . S
O232 C221 1.185 . S
O232 Dy223 2.398 . S
O233 C221 1.355 . S
O233 Dy223 2.491 . S
O234 Dy223 2.403 . S
O234 C229 1.254 . S
O235 Dy220 2.310 . S
O235 Dy223 2.664 . S
O235 C229 1.268 . S
O236 Dy220 2.351 . S
O236 C239 1.249 . S
O237 Dy223 2.326 . S
O237 C239 1.267 . S
C238 O230 1.249 . S
C238 O231 1.267 . S
C239 O236 1.249 . S
C239 O237 1.267 . S
H240 C246 0.930 . S
H241 C249 0.930 1_655 S
H242 C250 0.930 . S
H243 C251 0.930 . S
H244 C254 0.930 . S
H245 C255 0.930 . S
C246 H240 0.930 . S
C246 C247 1.355 . S
C246 C248 1.415 . S
C247 C246 1.355 . S
C247 C249 1.419 . S
C248 C246 1.415 . S
C248 C253 1.425 . S
C248 C255 1.409 . S
C249 H241 0.930 1_455 S
C249 C247 1.419 . S
C249 C250 1.362 . S
C250 H242 0.930 . S
C250 C249 1.362 . S
C250 C253 1.409 . S
C251 H243 0.930 . S
C251 C252 1.355 . S
C251 C253 1.415 . S
C252 C251 1.355 . S
C252 C254 1.419 . S
C253 C248 1.425 . S
C253 C250 1.409 . S
C253 C251 1.415 . S
C254 H244 0.930 . S
C254 C252 1.419 . S
C254 C255 1.362 . S
C255 H245 0.930 . S
C255 C248 1.409 . S
C255 C254 1.362 . S
H256 C262 0.930 . S
H257 C265 0.930 . S
H258 C266 0.930 . S
H259 C267 0.930 . S
H260 C270 0.930 . S
H261 C271 0.930 . S
C262 H256 0.930 . S
C262 C263 1.355 . S
C262 C264 1.415 . S
C263 C262 1.355 . S
C263 C265 1.419 . S
C264 C262 1.415 . S
C264 C269 1.425 . S
C264 C271 1.409 . S
C265 H257 0.930 . S
C265 C263 1.419 . S
C265 C266 1.362 . S
C266 H258 0.930 . S
C266 C265 1.362 . S
C266 C269 1.409 . S
C267 H259 0.930 . S
C267 C268 1.355 . S
C267 C269 1.415 1_655 S
C268 C267 1.355 . S
C268 C270 1.419 . S
C269 C264 1.425 . S
C269 C266 1.409 . S
C269 C267 1.415 1_455 S
C270 H260 0.930 . S
C270 C268 1.419 . S
C270 C271 1.362 1_655 S
C271 H261 0.930 . S
C271 C264 1.409 . S
C271 C270 1.362 1_455 S
H272 C278 0.930 . S
H273 C281 0.930 . S
H274 C282 0.930 . S
H275 C283 0.930 . S
H276 C286 0.930 . S
H277 C287 0.930 . S
C278 H272 0.930 . S
C278 C279 1.355 . S
C278 C280 1.415 1_545 S
C279 C278 1.355 . S
C279 C281 1.419 . S
C280 C278 1.415 1_565 S
C280 C285 1.425 . S
C280 C287 1.409 . S
C281 H273 0.930 . S
C281 C279 1.419 . S
C281 C282 1.362 1_545 S
C282 H274 0.930 . S
C282 C281 1.362 1_565 S
C282 C285 1.409 . S
C283 H275 0.930 . S
C283 C284 1.355 . S
C283 C285 1.415 . S
C284 C283 1.355 . S
C284 C286 1.419 . S
C285 C280 1.425 . S
C285 C282 1.409 . S
C285 C283 1.415 . S
C286 H276 0.930 . S
C286 C284 1.419 . S
C286 C287 1.362 . S
C287 H277 0.930 . S
C287 C280 1.409 . S
C287 C286 1.362 . S
H288 C294 0.930 . S
H289 C297 0.930 . S
H290 C298 0.930 . S
H291 C299 0.930 . S
H292 C302 0.930 . S
H293 C303 0.930 . S
C294 H288 0.930 . S
C294 C295 1.355 . S
C294 C296 1.415 . S
C295 C294 1.355 . S
C295 C297 1.419 . S
C296 C294 1.415 . S
C296 C301 1.425 . S
C296 C303 1.409 . S
C297 H289 0.930 . S
C297 C295 1.419 . S
C297 C298 1.362 . S
C298 H290 0.930 . S
C298 C297 1.362 . S
C298 C301 1.409 . S
C299 H291 0.930 . S
C299 C300 1.355 . S
C299 C301 1.415 . S
C300 C299 1.355 . S
C300 C302 1.419 . S
C301 C296 1.425 . S
C301 C298 1.409 . S
C301 C299 1.415 . S
C302 H292 0.930 . S
C302 C300 1.419 . S
C302 C303 1.362 . S
C303 H293 0.930 . S
C303 C296 1.409 . S
C303 C302 1.362 . S
H304 C310 0.930 . S
H305 C313 0.930 . S
H306 C314 0.930 . S
H307 C315 0.930 . S
H308 C318 0.930 . S
H309 C319 0.930 . S
C310 H304 0.930 . S
C310 C311 1.355 . S
C310 C312 1.415 . S
C311 C310 1.355 . S
C311 C313 1.419 . S
C312 C310 1.415 . S
C312 C317 1.425 . S
C312 C319 1.409 . S
C313 H305 0.930 . S
C313 C311 1.419 . S
C313 C314 1.362 . S
C314 H306 0.930 . S
C314 C313 1.362 . S
C314 C317 1.409 . S
C315 H307 0.930 . S
C315 C316 1.355 . S
C315 C317 1.415 1_655 S
C316 C315 1.355 . S
C316 C318 1.419 . S
C317 C312 1.425 . S
C317 C314 1.409 . S
C317 C315 1.415 1_455 S
C318 H308 0.930 . S
C318 C316 1.419 . S
C318 C319 1.362 1_655 S
C319 H309 0.930 . S
C319 C312 1.409 . S
C319 C318 1.362 1_455 S
H320 C326 0.930 . S
H321 C329 0.930 . S
H322 C330 0.930 . S
H323 C331 0.930 . S
H324 C334 0.930 . S
H325 C335 0.930 . S
C326 H320 0.930 . S
C326 C327 1.355 . S
C326 C328 1.415 . S
C327 C326 1.355 . S
C327 C329 1.419 . S
C328 C326 1.415 . S
C328 C333 1.425 . S
C328 C335 1.409 . S
C329 H321 0.930 . S
C329 C327 1.419 . S
C329 C330 1.362 . S
C330 H322 0.930 . S
C330 C329 1.362 . S
C330 C333 1.409 . S
C331 H323 0.930 . S
C331 C332 1.355 . S
C331 C333 1.415 1_545 S
C332 C331 1.355 . S
C332 C334 1.419 . S
C333 C328 1.425 . S
C333 C330 1.409 . S
C333 C331 1.415 1_565 S
C334 H324 0.930 . S
C334 C332 1.419 . S
C334 C335 1.362 1_545 S
C335 H325 0.930 . S
C335 C328 1.409 . S
C335 C334 1.362 1_565 S
H336 C342 0.930 . S
H337 C345 0.930 1_565 S
H338 C346 0.930 . S
H339 C347 0.930 . S
H340 C350 0.930 . S
H341 C351 0.930 . S
C342 H336 0.930 . S
C342 C343 1.355 . S
C342 C344 1.415 . S
C343 C342 1.355 . S
C343 C345 1.419 . S
C344 C342 1.415 . S
C344 C349 1.425 . S
C344 C351 1.409 . S
C345 H337 0.930 1_545 S
C345 C343 1.419 . S
C345 C346 1.362 . S
C346 H338 0.930 . S
C346 C345 1.362 . S
C346 C349 1.409 . S
C347 H339 0.930 . S
C347 C348 1.355 . S
C347 C349 1.415 . S
C348 C347 1.355 . S
C348 C350 1.419 . S
C349 C344 1.425 . S
C349 C346 1.409 . S
C349 C347 1.415 . S
C350 H340 0.930 . S
C350 C348 1.419 . S
C350 C351 1.362 . S
C351 H341 0.930 . S
C351 C344 1.409 . S
C351 C350 1.362 . S
H352 C358 0.930 . S
H353 C361 0.930 . S
H354 C362 0.930 . S
H355 C363 0.930 . S
H356 C366 0.930 . S
H357 C367 0.930 . S
C358 H352 0.930 . S
C358 C359 1.355 . S
C358 C360 1.415 1_455 S
C359 C358 1.355 . S
C359 C361 1.419 . S
C360 C358 1.415 1_655 S
C360 C365 1.425 . S
C360 C367 1.409 . S
C361 H353 0.930 . S
C361 C359 1.419 . S
C361 C362 1.362 . S
C362 H354 0.930 . S
C362 C361 1.362 . S
C362 C365 1.409 1_455 S
C363 H355 0.930 . S
C363 C364 1.355 . S
C363 C365 1.415 . S
C364 C363 1.355 . S
C364 C366 1.419 . S
C365 C360 1.425 . S
C365 C362 1.409 1_655 S
C365 C363 1.415 . S
C366 H356 0.930 . S
C366 C364 1.419 . S
C366 C367 1.362 . S
C367 H357 0.930 . S
C367 C360 1.409 . S
C367 C366 1.362 . S
H368 C374 0.930 . S
H369 C377 0.930 . S
H370 C378 0.930 . S
H371 C379 0.930 . S
H372 C382 0.930 . S
H373 C383 0.930 . S
C374 H368 0.930 . S
C374 C375 1.355 . S
C374 C376 1.415 1_565 S
C375 C374 1.355 . S
C375 C377 1.419 . S
C376 C374 1.415 1_545 S
C376 C381 1.425 . S
C376 C383 1.409 . S
C377 H369 0.930 . S
C377 C375 1.419 . S
C377 C378 1.362 . S
C378 H370 0.930 . S
C378 C377 1.362 . S
C378 C381 1.409 1_565 S
C379 H371 0.930 . S
C379 C380 1.355 . S
C379 C381 1.415 . S
C380 C379 1.355 . S
C380 C382 1.419 . S
C381 C376 1.425 . S
C381 C378 1.409 1_545 S
C381 C379 1.415 . S
C382 H372 0.930 . S
C382 C380 1.419 . S
C382 C383 1.362 . S
C383 H373 0.930 . S
C383 C376 1.409 . S
C383 C382 1.362 . S
H384 C390 0.930 . S
H385 C393 0.930 . S
H386 C394 0.930 . S
H387 C395 0.930 . S
H388 C398 0.930 1_565 S
H389 C399 0.930 . S
C390 H384 0.930 . S
C390 C391 1.355 . S
C390 C392 1.415 . S
C391 C390 1.355 . S
C391 C393 1.419 . S
C392 C390 1.415 . S
C392 C397 1.425 . S
C392 C399 1.409 . S
C393 H385 0.930 . S
C393 C391 1.419 . S
C393 C394 1.362 . S
C394 H386 0.930 . S
C394 C393 1.362 . S
C394 C397 1.409 . S
C395 H387 0.930 . S
C395 C396 1.355 . S
C395 C397 1.415 . S
C396 C395 1.355 . S
C396 C398 1.419 . S
C397 C392 1.425 . S
C397 C394 1.409 . S
C397 C395 1.415 . S
C398 H388 0.930 1_545 S
C398 C396 1.419 . S
C398 C399 1.362 . S
C399 H389 0.930 . S
C399 C392 1.409 . S
C399 C398 1.362 . S
H400 C406 0.930 . S
H401 C409 0.930 . S
H402 C410 0.930 . S
H403 C411 0.930 . S
H404 C414 0.930 . S
H405 C415 0.930 . S
C406 H400 0.930 . S
C406 C407 1.355 . S
C406 C408 1.415 1_455 S
C407 C406 1.355 . S
C407 C409 1.419 . S
C408 C406 1.415 1_655 S
C408 C413 1.425 . S
C408 C415 1.409 . S
C409 H401 0.930 . S
C409 C407 1.419 . S
C409 C410 1.362 1_455 S
C410 H402 0.930 . S
C410 C409 1.362 1_655 S
C410 C413 1.409 . S
C411 H403 0.930 . S
C411 C412 1.355 . S
C411 C413 1.415 . S
C412 C411 1.355 . S
C412 C414 1.419 . S
C413 C408 1.425 . S
C413 C410 1.409 . S
C413 C411 1.415 . S
C414 H404 0.930 . S
C414 C412 1.419 . S
C414 C415 1.362 . S
C415 H405 0.930 . S
C415 C408 1.409 . S
C415 C414 1.362 . S
H416 C422 0.930 . S
H417 C425 0.930 . S
H418 C426 0.930 . S
H419 C427 0.930 . S
H420 C430 0.930 . S
H421 C431 0.930 . S
C422 H416 0.930 . S
C422 C423 1.355 . S
C422 C424 1.415 . S
C423 C422 1.355 . S
C423 C425 1.419 . S
C424 C422 1.415 . S
C424 C429 1.425 . S
C424 C431 1.409 . S
C425 H417 0.930 . S
C425 C423 1.419 . S
C425 C426 1.362 . S
C426 H418 0.930 . S
C426 C425 1.362 . S
C426 C429 1.409 . S
C427 H419 0.930 . S
C427 C428 1.355 . S
C427 C429 1.415 1_565 S
C428 C427 1.355 . S
C428 C430 1.419 . S
C429 C424 1.425 . S
C429 C426 1.409 . S
C429 C427 1.415 1_545 S
C430 H420 0.930 . S
C430 C428 1.419 . S
C430 C431 1.362 1_565 S
C431 H421 0.930 . S
C431 C424 1.409 . S
C431 C430 1.362 1_545 S
H432 C438 0.930 . S
H433 C441 0.930 . S
H434 C442 0.930 . S
H435 C443 0.930 . S
H436 C446 0.930 . S
H437 C447 0.930 . S
C438 H432 0.930 . S
C438 C439 1.355 . S
C438 C440 1.415 . S
C439 C438 1.355 . S
C439 C441 1.419 . S
C440 C438 1.415 . S
C440 C445 1.425 . S
C440 C447 1.409 . S
C441 H433 0.930 . S
C441 C439 1.419 . S
C441 C442 1.362 . S
C442 H434 0.930 . S
C442 C441 1.362 . S
C442 C445 1.409 . S
C443 H435 0.930 . S
C443 C444 1.355 . S
C443 C445 1.415 . S
C444 C443 1.355 . S
C444 C446 1.419 . S
C445 C440 1.425 . S
C445 C442 1.409 . S
C445 C443 1.415 . S
C446 H436 0.930 . S
C446 C444 1.419 . S
C446 C447 1.362 . S
C447 H437 0.930 . S
C447 C440 1.409 . S
C447 C446 1.362 . S
H448 C454 0.930 . S
H449 C457 0.930 . S
H450 C458 0.930 . S
H451 C459 0.930 . S
H452 C462 0.930 . S
H453 C463 0.930 . S
C454 H448 0.930 . S
C454 C455 1.355 . S
C454 C456 1.415 . S
C455 C454 1.355 . S
C455 C457 1.419 . S
C456 C454 1.415 . S
C456 C461 1.425 . S
C456 C463 1.409 . S
C457 H449 0.930 . S
C457 C455 1.419 . S
C457 C458 1.362 . S
C458 H450 0.930 . S
C458 C457 1.362 . S
C458 C461 1.409 . S
C459 H451 0.930 . S
C459 C460 1.355 . S
C459 C461 1.415 . S
C460 C459 1.355 . S
C460 C462 1.419 . S
C461 C456 1.425 . S
C461 C458 1.409 . S
C461 C459 1.415 . S
C462 H452 0.930 . S
C462 C460 1.419 . S
C462 C463 1.362 . S
C463 H453 0.930 . S
C463 C456 1.409 . S
C463 C462 1.362 . S
H464 C470 0.930 . S
H465 C473 0.930 . S
H466 C474 0.930 . S
H467 C475 0.930 . S
H468 C478 0.930 . S
H469 C479 0.930 . S
C470 H464 0.930 . S
C470 C471 1.355 . S
C470 C472 1.415 . S
C471 C470 1.355 . S
C471 C473 1.419 . S
C472 C470 1.415 . S
C472 C477 1.425 . S
C472 C479 1.409 . S
C473 H465 0.930 . S
C473 C471 1.419 . S
C473 C474 1.362 . S
C474 H466 0.930 . S
C474 C473 1.362 . S
C474 C477 1.409 . S
C475 H467 0.930 . S
C475 C476 1.355 . S
C475 C477 1.415 . S
C476 C475 1.355 . S
C476 C478 1.419 . S
C477 C472 1.425 . S
C477 C474 1.409 . S
C477 C475 1.415 . S
C478 H468 0.930 . S
C478 C476 1.419 . S
C478 C479 1.362 . S
C479 H469 0.930 . S
C479 C472 1.409 . S
C479 C478 1.362 . S
H480 C486 0.930 . S
H481 C489 0.930 . S
H482 C490 0.930 . S
H483 C491 0.930 . S
H484 C494 0.930 . S
H485 C495 0.930 . S
C486 H480 0.930 . S
C486 C487 1.355 . S
C486 C488 1.415 . S
C487 C486 1.355 . S
C487 C489 1.419 . S
C488 C486 1.415 . S
C488 C493 1.425 . S
C488 C495 1.409 . S
C489 H481 0.930 . S
C489 C487 1.419 . S
C489 C490 1.362 . S
C490 H482 0.930 . S
C490 C489 1.362 . S
C490 C493 1.409 . S
C491 H483 0.930 . S
C491 C492 1.355 . S
C491 C493 1.415 . S
C492 C491 1.355 . S
C492 C494 1.419 . S
C493 C488 1.425 . S
C493 C490 1.409 . S
C493 C491 1.415 . S
C494 H484 0.930 . S
C494 C492 1.419 . S
C494 C495 1.362 . S
C495 H485 0.930 . S
C495 C488 1.409 . S
C495 C494 1.362 . S
H496 C502 0.930 . S
H497 C505 0.930 . S
H498 C506 0.930 . S
H499 C507 0.930 . S
H500 C510 0.930 . S
H501 C511 0.930 . S
C502 H496 0.930 . S
C502 C503 1.355 . S
C502 C504 1.415 . S
C503 C502 1.355 . S
C503 C505 1.419 . S
C504 C502 1.415 . S
C504 C509 1.425 . S
C504 C511 1.409 . S
C505 H497 0.930 . S
C505 C503 1.419 . S
C505 C506 1.362 . S
C506 H498 0.930 . S
C506 C505 1.362 . S
C506 C509 1.409 . S
C507 H499 0.930 . S
C507 C508 1.355 . S
C507 C509 1.415 . S
C508 C507 1.355 . S
C508 C510 1.419 . S
C509 C504 1.425 . S
C509 C506 1.409 . S
C509 C507 1.415 . S
C510 H500 0.930 . S
C510 C508 1.419 . S
C510 C511 1.362 . S
C511 H501 0.930 . S
C511 C504 1.409 . S
C511 C510 1.362 . S
H512 C518 0.930 . S
H513 C521 0.930 . S
H514 C522 0.930 . S
H515 C523 0.930 . S
H516 C526 0.930 . S
H517 C527 0.930 . S
C518 H512 0.930 . S
C518 C519 1.355 . S
C518 C520 1.415 . S
C519 C518 1.355 . S
C519 C521 1.419 . S
C520 C518 1.415 . S
C520 C525 1.425 . S
C520 C527 1.409 . S
C521 H513 0.930 . S
C521 C519 1.419 . S
C521 C522 1.362 . S
C522 H514 0.930 . S
C522 C521 1.362 . S
C522 C525 1.409 . S
C523 H515 0.930 . S
C523 C524 1.355 . S
C523 C525 1.415 . S
C524 C523 1.355 . S
C524 C526 1.419 . S
C525 C520 1.425 . S
C525 C522 1.409 . S
C525 C523 1.415 . S
C526 H516 0.930 . S
C526 C524 1.419 . S
C526 C527 1.362 . S
C527 H517 0.930 . S
C527 C520 1.409 . S
C527 C526 1.362 . S
H528 C534 0.930 . S
H529 C537 0.930 . S
H530 C538 0.930 1_545 S
H531 C539 0.930 . S
H532 C542 0.930 . S
H533 C543 0.930 1_565 S
C534 H528 0.930 . S
C534 C535 1.355 . S
C534 C536 1.415 . S
C535 C534 1.355 . S
C535 C537 1.419 . S
C536 C534 1.415 . S
C536 C541 1.425 1_566 S
C536 C543 1.409 1_566 S
C537 H529 0.930 . S
C537 C535 1.419 . S
C537 C538 1.362 . S
C538 H530 0.930 1_565 S
C538 C537 1.362 . S
C538 C541 1.409 1_566 S
C539 H531 0.930 . S
C539 C540 1.355 . S
C539 C541 1.415 . S
C540 C539 1.355 . S
C540 C542 1.419 . S
C541 C536 1.425 1_544 S
C541 C538 1.409 1_544 S
C541 C539 1.415 . S
C542 H532 0.930 . S
C542 C540 1.419 . S
C542 C543 1.362 . S
C543 H533 0.930 1_545 S
C543 C536 1.409 1_544 S
C543 C542 1.362 . S
H544 C550 0.930 . S
H545 C553 0.930 . S
H546 C554 0.930 . S
H547 C555 0.930 . S
H548 C558 0.930 . S
H549 C559 0.930 . S
C550 H544 0.930 . S
C550 C551 1.355 . S
C550 C552 1.415 . S
C551 C550 1.355 . S
C551 C553 1.419 . S
C552 C550 1.415 . S
C552 C557 1.425 . S
C552 C559 1.409 . S
C553 H545 0.930 . S
C553 C551 1.419 . S
C553 C554 1.362 . S
C554 H546 0.930 . S
C554 C553 1.362 . S
C554 C557 1.409 . S
C555 H547 0.930 . S
C555 C556 1.355 . S
C555 C557 1.415 . S
C556 C555 1.355 . S
C556 C558 1.419 . S
C557 C552 1.425 . S
C557 C554 1.409 . S
C557 C555 1.415 . S
C558 H548 0.930 . S
C558 C556 1.419 . S
C558 C559 1.362 . S
C559 H549 0.930 . S
C559 C552 1.409 . S
C559 C558 1.362 . S
H560 C566 0.930 . S
H561 C569 0.930 . S
H562 C570 0.930 . S
H563 C571 0.930 . S
H564 C574 0.930 . S
H565 C575 0.930 . S
C566 H560 0.930 . S
C566 C567 1.355 . S
C566 C568 1.415 1_455 S
C567 C566 1.355 . S
C567 C569 1.419 . S
C568 C566 1.415 1_655 S
C568 C573 1.425 1_656 S
C568 C575 1.409 . S
C569 H561 0.930 . S
C569 C567 1.419 . S
C569 C570 1.362 1_556 S
C570 H562 0.930 . S
C570 C569 1.362 1_554 S
C570 C573 1.409 . S
C571 H563 0.930 . S
C571 C572 1.355 . S
C571 C573 1.415 1_655 S
C572 C571 1.355 . S
C572 C574 1.419 . S
C573 C568 1.425 1_454 S
C573 C570 1.409 . S
C573 C571 1.415 1_455 S
C574 H564 0.930 . S
C574 C572 1.419 . S
C574 C575 1.362 1_554 S
C575 H565 0.930 . S
C575 C568 1.409 . S
C575 C574 1.362 1_556 S
H576 C582 0.930 . S
H577 C585 0.930 . S
H578 C586 0.930 . S
H579 C587 0.930 . S
H580 C590 0.930 . S
H581 C591 0.930 . S
C582 H576 0.930 . S
C582 C583 1.355 . S
C582 C584 1.415 . S
C583 C582 1.355 . S
C583 C585 1.419 . S
C584 C582 1.415 . S
C584 C589 1.425 1_545 S
C584 C591 1.409 1_545 S
C585 H577 0.930 . S
C585 C583 1.419 . S
C585 C586 1.362 . S
C586 H578 0.930 . S
C586 C585 1.362 . S
C586 C589 1.409 1_545 S
C587 H579 0.930 . S
C587 C588 1.355 . S
C587 C589 1.415 . S
C588 C587 1.355 . S
C588 C590 1.419 . S
C589 C584 1.425 1_565 S
C589 C586 1.409 1_565 S
C589 C587 1.415 . S
C590 H580 0.930 . S
C590 C588 1.419 . S
C590 C591 1.362 . S
C591 H581 0.930 . S
C591 C584 1.409 1_565 S
C591 C590 1.362 . S
H592 C598 0.930 . S
H593 C601 0.930 . S
H594 C602 0.930 . S
H595 C603 0.930 . S
H596 C606 0.930 . S
H597 C607 0.930 . S
C598 H592 0.930 . S
C598 C599 1.355 . S
C598 C600 1.415 1_554 S
C599 C598 1.355 . S
C599 C601 1.419 . S
C600 C598 1.415 1_556 S
C600 C605 1.425 1_556 S
C600 C607 1.409 . S
C601 H593 0.930 . S
C601 C599 1.419 . S
C601 C602 1.362 . S
C602 H594 0.930 . S
C602 C601 1.362 . S
C602 C605 1.409 . S
C603 H595 0.930 . S
C603 C604 1.355 . S
C603 C605 1.415 1_556 S
C604 C603 1.355 . S
C604 C606 1.419 . S
C605 C600 1.425 1_554 S
C605 C602 1.409 . S
C605 C603 1.415 1_554 S
C606 H596 0.930 . S
C606 C604 1.419 . S
C606 C607 1.362 . S
C607 H597 0.930 . S
C607 C600 1.409 . S
C607 C606 1.362 . S
H608 C614 0.930 . S
H609 C617 0.930 . S
H610 C618 0.930 . S
H611 C619 0.930 . S
H612 C622 0.930 . S
H613 C623 0.930 . S
C614 H608 0.930 . S
C614 C615 1.355 . S
C614 C616 1.415 . S
C615 C614 1.355 . S
C615 C617 1.419 . S
C616 C614 1.415 . S
C616 C621 1.425 1_455 S
C616 C623 1.409 . S
C617 H609 0.930 . S
C617 C615 1.419 . S
C617 C618 1.362 1_455 S
C618 H610 0.930 . S
C618 C617 1.362 1_655 S
C618 C621 1.409 . S
C619 H611 0.930 . S
C619 C620 1.355 . S
C619 C621 1.415 . S
C620 C619 1.355 . S
C620 C622 1.419 . S
C621 C616 1.425 1_655 S
C621 C618 1.409 . S
C621 C619 1.415 . S
C622 H612 0.930 . S
C622 C620 1.419 . S
C622 C623 1.362 1_655 S
C623 H613 0.930 . S
C623 C616 1.409 . S
C623 C622 1.362 1_455 S
H624 C630 0.930 . S
H625 C633 0.930 . S
H626 C634 0.930 . S
H627 C635 0.930 . S
H628 C638 0.930 . S
H629 C639 0.930 . S
C630 H624 0.930 . S
C630 C631 1.355 . S
C630 C632 1.415 . S
C631 C630 1.355 . S
C631 C633 1.419 . S
C632 C630 1.415 . S
C632 C637 1.425 . S
C632 C639 1.409 . S
C633 H625 0.930 . S
C633 C631 1.419 . S
C633 C634 1.362 . S
C634 H626 0.930 . S
C634 C633 1.362 . S
C634 C637 1.409 . S
C635 H627 0.930 . S
C635 C636 1.355 . S
C635 C637 1.415 . S
C636 C635 1.355 . S
C636 C638 1.419 . S
C637 C632 1.425 . S
C637 C634 1.409 . S
C637 C635 1.415 . S
C638 H628 0.930 . S
C638 C636 1.419 . S
C638 C639 1.362 . S
C639 H629 0.930 . S
C639 C632 1.409 . S
C639 C638 1.362 . S
H640 C646 0.930 . S
H641 C649 0.930 . S
H642 C650 0.930 . S
H643 C651 0.930 . S
H644 C654 0.930 . S
H645 C655 0.930 . S
C646 H640 0.930 . S
C646 C647 1.355 . S
C646 C648 1.415 . S
C647 C646 1.355 . S
C647 C649 1.419 . S
C648 C646 1.415 . S
C648 C653 1.425 . S
C648 C655 1.409 . S
C649 H641 0.930 . S
C649 C647 1.419 . S
C649 C650 1.362 . S
C650 H642 0.930 . S
C650 C649 1.362 . S
C650 C653 1.409 . S
C651 H643 0.930 . S
C651 C652 1.355 . S
C651 C653 1.415 . S
C652 C651 1.355 . S
C652 C654 1.419 . S
C653 C648 1.425 . S
C653 C650 1.409 . S
C653 C651 1.415 . S
C654 H644 0.930 . S
C654 C652 1.419 . S
C654 C655 1.362 . S
C655 H645 0.930 . S
C655 C648 1.409 . S
C655 C654 1.362 . S
H656 C662 0.930 . S
H657 C665 0.930 . S
H658 C666 0.930 . S
H659 C667 0.930 . S
H660 C670 0.930 . S
H661 C671 0.930 . S
C662 H656 0.930 . S
C662 C663 1.355 . S
C662 C664 1.415 . S
C663 C662 1.355 . S
C663 C665 1.419 . S
C664 C662 1.415 . S
C664 C669 1.425 . S
C664 C671 1.409 . S
C665 H657 0.930 . S
C665 C663 1.419 . S
C665 C666 1.362 . S
C666 H658 0.930 . S
C666 C665 1.362 . S
C666 C669 1.409 . S
C667 H659 0.930 . S
C667 C668 1.355 . S
C667 C669 1.415 . S
C668 C667 1.355 . S
C668 C670 1.419 . S
C669 C664 1.425 . S
C669 C666 1.409 . S
C669 C667 1.415 . S
C670 H660 0.930 . S
C670 C668 1.419 . S
C670 C671 1.362 . S
C671 H661 0.930 . S
C671 C664 1.409 . S
C671 C670 1.362 . S
H672 C678 0.930 . S
H673 C681 0.930 . S
H674 C682 0.930 . S
H675 C683 0.930 . S
H676 C686 0.930 . S
H677 C687 0.930 . S
C678 H672 0.930 . S
C678 C679 1.355 . S
C678 C680 1.415 . S
C679 C678 1.355 . S
C679 C681 1.419 . S
C680 C678 1.415 . S
C680 C685 1.425 . S
C680 C687 1.409 . S
C681 H673 0.930 . S
C681 C679 1.419 . S
C681 C682 1.362 . S
C682 H674 0.930 . S
C682 C681 1.362 . S
C682 C685 1.409 . S
C683 H675 0.930 . S
C683 C684 1.355 . S
C683 C685 1.415 . S
C684 C683 1.355 . S
C684 C686 1.419 . S
C685 C680 1.425 . S
C685 C682 1.409 . S
C685 C683 1.415 . S
C686 H676 0.930 . S
C686 C684 1.419 . S
C686 C687 1.362 . S
C687 H677 0.930 . S
C687 C680 1.409 . S
C687 C686 1.362 . S
H688 C694 0.930 . S
H689 C697 0.930 . S
H690 C698 0.930 . S
H691 C699 0.930 . S
H692 C702 0.930 . S
H693 C703 0.930 . S
C694 H688 0.930 . S
C694 C695 1.355 . S
C694 C696 1.415 . S
C695 C694 1.355 . S
C695 C697 1.419 . S
C696 C694 1.415 . S
C696 C701 1.425 . S
C696 C703 1.409 . S
C697 H689 0.930 . S
C697 C695 1.419 . S
C697 C698 1.362 . S
C698 H690 0.930 . S
C698 C697 1.362 . S
C698 C701 1.409 . S
C699 H691 0.930 . S
C699 C700 1.355 . S
C699 C701 1.415 . S
C700 C699 1.355 . S
C700 C702 1.419 . S
C701 C696 1.425 . S
C701 C698 1.409 . S
C701 C699 1.415 . S
C702 H692 0.930 . S
C702 C700 1.419 . S
C702 C703 1.362 . S
C703 H693 0.930 . S
C703 C696 1.409 . S
C703 C702 1.362 . S
H704 C710 0.930 . S
H705 C713 0.930 . S
H706 C714 0.930 . S
H707 C715 0.930 . S
H708 C718 0.930 . S
H709 C719 0.930 . S
C710 H704 0.930 . S
C710 C711 1.355 . S
C710 C712 1.415 . S
C711 C710 1.355 . S
C711 C713 1.419 . S
C712 C710 1.415 . S
C712 C717 1.425 . S
C712 C719 1.409 . S
C713 H705 0.930 . S
C713 C711 1.419 . S
C713 C714 1.362 . S
C714 H706 0.930 . S
C714 C713 1.362 . S
C714 C717 1.409 . S
C715 H707 0.930 . S
C715 C716 1.355 . S
C715 C717 1.415 . S
C716 C715 1.355 . S
C716 C718 1.419 . S
C717 C712 1.425 . S
C717 C714 1.409 . S
C717 C715 1.415 . S
C718 H708 0.930 . S
C718 C716 1.419 . S
C718 C719 1.362 . S
C719 H709 0.930 . S
C719 C712 1.409 . S
C719 C718 1.362 . S
H720 C726 0.930 . S
H721 C729 0.930 . S
H722 C730 0.930 . S
H723 C731 0.930 . S
H724 C734 0.930 . S
H725 C735 0.930 . S
C726 H720 0.930 . S
C726 C727 1.355 . S
C726 C728 1.415 . S
C727 C726 1.355 . S
C727 C729 1.419 . S
C728 C726 1.415 . S
C728 C733 1.425 . S
C728 C735 1.409 . S
C729 H721 0.930 . S
C729 C727 1.419 . S
C729 C730 1.362 . S
C730 H722 0.930 . S
C730 C729 1.362 . S
C730 C733 1.409 . S
C731 H723 0.930 . S
C731 C732 1.355 . S
C731 C733 1.415 . S
C732 C731 1.355 . S
C732 C734 1.419 . S
C733 C728 1.425 . S
C733 C730 1.409 . S
C733 C731 1.415 . S
C734 H724 0.930 . S
C734 C732 1.419 . S
C734 C735 1.362 . S
C735 H725 0.930 . S
C735 C728 1.409 . S
C735 C734 1.362 . S
H736 C742 0.930 . S
H737 C745 0.930 . S
H738 C746 0.930 . S
H739 C747 0.930 . S
H740 C750 0.930 . S
H741 C751 0.930 . S
C742 H736 0.930 . S
C742 C743 1.355 . S
C742 C744 1.415 . S
C743 C742 1.355 . S
C743 C745 1.419 . S
C744 C742 1.415 . S
C744 C749 1.425 . S
C744 C751 1.409 . S
C745 H737 0.930 . S
C745 C743 1.419 . S
C745 C746 1.362 . S
C746 H738 0.930 . S
C746 C745 1.362 . S
C746 C749 1.409 . S
C747 H739 0.930 . S
C747 C748 1.355 . S
C747 C749 1.415 . S
C748 C747 1.355 . S
C748 C750 1.419 . S
C749 C744 1.425 . S
C749 C746 1.409 . S
C749 C747 1.415 . S
C750 H740 0.930 . S
C750 C748 1.419 . S
C750 C751 1.362 . S
C751 H741 0.930 . S
C751 C744 1.409 . S
C751 C750 1.362 . S
H752 C758 0.930 . S
H753 C761 0.930 . S
H754 C762 0.930 . S
H755 C763 0.930 . S
H756 C766 0.930 . S
H757 C767 0.930 . S
C758 H752 0.930 . S
C758 C759 1.355 . S
C758 C760 1.415 . S
C759 C758 1.355 . S
C759 C761 1.419 . S
C760 C758 1.415 . S
C760 C765 1.425 . S
C760 C767 1.409 . S
C761 H753 0.930 . S
C761 C759 1.419 . S
C761 C762 1.362 . S
C762 H754 0.930 . S
C762 C761 1.362 . S
C762 C765 1.409 . S
C763 H755 0.930 . S
C763 C764 1.355 . S
C763 C765 1.415 . S
C764 C763 1.355 . S
C764 C766 1.419 . S
C765 C760 1.425 . S
C765 C762 1.409 . S
C765 C763 1.415 . S
C766 H756 0.930 . S
C766 C764 1.419 . S
C766 C767 1.362 . S
C767 H757 0.930 . S
C767 C760 1.409 . S
C767 C766 1.362 . S
H768 C774 0.930 . S
H769 C777 0.930 . S
H770 C778 0.930 . S
H771 C779 0.930 . S
H772 C782 0.930 . S
H773 C783 0.930 . S
C774 H768 0.930 . S
C774 C775 1.355 . S
C774 C776 1.415 . S
C775 C774 1.355 . S
C775 C777 1.419 . S
C776 C774 1.415 . S
C776 C781 1.425 . S
C776 C783 1.409 . S
C777 H769 0.930 . S
C777 C775 1.419 . S
C777 C778 1.362 . S
C778 H770 0.930 . S
C778 C777 1.362 . S
C778 C781 1.409 . S
C779 H771 0.930 . S
C779 C780 1.355 . S
C779 C781 1.415 . S
C780 C779 1.355 . S
C780 C782 1.419 . S
C781 C776 1.425 . S
C781 C778 1.409 . S
C781 C779 1.415 . S
C782 H772 0.930 . S
C782 C780 1.419 . S
C782 C783 1.362 . S
C783 H773 0.930 . S
C783 C776 1.409 . S
C783 C782 1.362 . S
H784 C790 0.930 . S
H785 C793 0.930 . S
H786 C794 0.930 . S
H787 C795 0.930 . S
H788 C798 0.930 . S
H789 C799 0.930 . S
C790 H784 0.930 . S
C790 C791 1.355 . S
C790 C792 1.415 . S
C791 C790 1.355 . S
C791 C793 1.419 . S
C792 C790 1.415 . S
C792 C797 1.425 . S
C792 C799 1.409 . S
C793 H785 0.930 . S
C793 C791 1.419 . S
C793 C794 1.362 . S
C794 H786 0.930 . S
C794 C793 1.362 . S
C794 C797 1.409 . S
C795 H787 0.930 . S
C795 C796 1.355 . S
C795 C797 1.415 . S
C796 C795 1.355 . S
C796 C798 1.419 . S
C797 C792 1.425 . S
C797 C794 1.409 . S
C797 C795 1.415 . S
C798 H788 0.930 . S
C798 C796 1.419 . S
C798 C799 1.362 . S
C799 H789 0.930 . S
C799 C792 1.409 . S
C799 C798 1.362 . S
H800 C806 0.930 . S
H801 C809 0.930 . S
H802 C810 0.930 . S
H803 C811 0.930 . S
H804 C814 0.930 . S
H805 C815 0.930 . S
C806 H800 0.930 . S
C806 C807 1.355 . S
C806 C808 1.415 . S
C807 C806 1.355 . S
C807 C809 1.419 . S
C808 C806 1.415 . S
C808 C813 1.425 . S
C808 C815 1.409 . S
C809 H801 0.930 . S
C809 C807 1.419 . S
C809 C810 1.362 . S
C810 H802 0.930 . S
C810 C809 1.362 . S
C810 C813 1.409 . S
C811 H803 0.930 . S
C811 C812 1.355 . S
C811 C813 1.415 . S
C812 C811 1.355 . S
C812 C814 1.419 . S
C813 C808 1.425 . S
C813 C810 1.409 . S
C813 C811 1.415 . S
C814 H804 0.930 . S
C814 C812 1.419 . S
C814 C815 1.362 . S
C815 H805 0.930 . S
C815 C808 1.409 . S
C815 C814 1.362 . S
C247 C41 1.269 . S
C252 C19 1.197 . S
C263 C62 1.270 . S
C268 C38 1.197 . S
C279 C59 1.197 . S
C284 C81 1.270 . S
C295 C78 1.265 . S
C300 C102 1.277 . S
C311 C1 1.276 . S
C316 C99 1.265 . S
C327 C22 1.270 . S
C332 C118 1.274 . S
C343 C202 1.277 . S
C348 C138 1.220 . S
C359 C159 1.226 . S
C364 C221 1.263 . S
C375 C178 1.258 . S
C380 C122 1.265 . S
C391 C199 1.204 . S
C396 C141 1.274 . S
C407 C218 1.206 . S
C412 C162 1.275 . S
C423 C181 1.277 . S
C428 C239 1.259 . S
C439 C68 1.631 . S
C444 C9 1.564 . S
C455 C28 1.634 . S
C460 C89 1.560 . S
C471 C49 1.606 . S
C476 C108 1.589 . S
C487 C128 1.610 . S
C492 C189 1.586 . S
C503 C149 1.573 . S
C508 C208 1.622 . S
C519 C168 1.562 . S
C524 C229 1.632 . S
C535 C148 2.037 . S
C540 C8 2.035 . S
C551 C29 2.043 . S
C556 C169 2.045 . S
C567 C188 2.045 . S
C572 C48 2.043 . S
C583 C69 2.038 . S
C588 C209 2.040 . S
C599 C88 2.031 . S
C604 C228 2.031 . S
C615 C129 2.037 . S
C620 C109 2.035 . S
C631 C42 1.468 . S
C636 C18 1.528 . S
C647 C39 1.553 . S
C652 C61 1.514 . S
C663 C58 1.535 . S
C668 C82 1.474 . S
C679 C79 1.513 . S
C684 C101 1.470 . S
C695 C2 1.535 . S
C700 C98 1.537 . S
C711 C21 1.533 . S
C716 C119 1.532 . S
C727 C201 1.481 . S
C732 C139 1.508 . S
C743 C158 1.527 . S
C748 C222 1.529 . S
C759 C179 1.526 . S
C764 C121 1.468 . S
C775 C142 1.467 . S
C780 C198 1.524 . S
C791 C219 1.523 . S
C796 C161 1.526 . S
C807 C238 1.539 . S
C812 C182 1.535 . S
