# Generated by pormake.
# Topology uos, (4)-cn, num edge types: 1
# Building blocks:
#     Node 0, Type 0, BuildingBlock: NAHDIM_clean_sbu_0, # of connection points: 4
#     Node 1, Type 0, BuildingBlock: NAHDIM_clean_sbu_0, # of connection points: 4
#     Node 2, Type 0, BuildingBlock: NAHDIM_clean_sbu_0, # of connection points: 4
#     Node 3, Type 0, BuildingBlock: NAHDIM_clean_sbu_0, # of connection points: 4
#     Node 4, Type 0, BuildingBlock: NAHDIM_clean_sbu_0, # of connection points: 4
#     Node 5, Type 0, BuildingBlock: NAHDIM_clean_sbu_0, # of connection points: 4
#     Node 6, Type 0, BuildingBlock: NAHDIM_clean_sbu_0, # of connection points: 4
#     Node 7, Type 0, BuildingBlock: NAHDIM_clean_sbu_0, # of connection points: 4
#     Node 8, Type 0, BuildingBlock: NAHDIM_clean_sbu_0, # of connection points: 4
#     Node 9, Type 0, BuildingBlock: NAHDIM_clean_sbu_0, # of connection points: 4
#     Node 10, Type 0, BuildingBlock: NAHDIM_clean_sbu_0, # of connection points: 4
#     Node 11, Type 0, BuildingBlock: NAHDIM_clean_sbu_0, # of connection points: 4
#     Node 12, Type 0, BuildingBlock: NAHDIM_clean_sbu_0, # of connection points: 4
#     Node 13, Type 0, BuildingBlock: NAHDIM_clean_sbu_0, # of connection points: 4
#     Node 14, Type 0, BuildingBlock: NAHDIM_clean_sbu_0, # of connection points: 4
#     Node 15, Type 0, BuildingBlock: NAHDIM_clean_sbu_0, # of connection points: 4
#     Node 16, Type 0, BuildingBlock: NAHDIM_clean_sbu_0, # of connection points: 4
#     Node 17, Type 0, BuildingBlock: NAHDIM_clean_sbu_0, # of connection points: 4
#     Node 18, Type 0, BuildingBlock: NAHDIM_clean_sbu_0, # of connection points: 4
#     Node 19, Type 0, BuildingBlock: NAHDIM_clean_sbu_0, # of connection points: 4
#     Node 20, Type 0, BuildingBlock: NAHDIM_clean_sbu_0, # of connection points: 4
#     Node 21, Type 0, BuildingBlock: NAHDIM_clean_sbu_0, # of connection points: 4
#     Node 22, Type 0, BuildingBlock: NAHDIM_clean_sbu_0, # of connection points: 4
#     Node 23, Type 0, BuildingBlock: NAHDIM_clean_sbu_0, # of connection points: 4
#     Node 24, Type 0, BuildingBlock: NAHDIM_clean_sbu_0, # of connection points: 4
#     Node 25, Type 0, BuildingBlock: NAHDIM_clean_sbu_0, # of connection points: 4
#     Node 26, Type 0, BuildingBlock: NAHDIM_clean_sbu_0, # of connection points: 4
#     Node 27, Type 0, BuildingBlock: NAHDIM_clean_sbu_0, # of connection points: 4
#     Node 28, Type 0, BuildingBlock: NAHDIM_clean_sbu_0, # of connection points: 4
#     Node 29, Type 0, BuildingBlock: NAHDIM_clean_sbu_0, # of connection points: 4
#     Node 30, Type 0, BuildingBlock: NAHDIM_clean_sbu_0, # of connection points: 4
#     Node 31, Type 0, BuildingBlock: NAHDIM_clean_sbu_0, # of connection points: 4
#     Edge 32, Type (0, 0), BuildingBlock: ZUJKAS_clean_linker_0, # of connection points: 2
#     Edge 33, Type (0, 0), BuildingBlock: ZUJKAS_clean_linker_0, # of connection points: 2
#     Edge 34, Type (0, 0), BuildingBlock: ZUJKAS_clean_linker_0, # of connection points: 2
#     Edge 35, Type (0, 0), BuildingBlock: ZUJKAS_clean_linker_0, # of connection points: 2
#     Edge 36, Type (0, 0), BuildingBlock: ZUJKAS_clean_linker_0, # of connection points: 2
#     Edge 37, Type (0, 0), BuildingBlock: ZUJKAS_clean_linker_0, # of connection points: 2
#     Edge 38, Type (0, 0), BuildingBlock: ZUJKAS_clean_linker_0, # of connection points: 2
#     Edge 39, Type (0, 0), BuildingBlock: ZUJKAS_clean_linker_0, # of connection points: 2
#     Edge 40, Type (0, 0), BuildingBlock: ZUJKAS_clean_linker_0, # of connection points: 2
#     Edge 41, Type (0, 0), BuildingBlock: ZUJKAS_clean_linker_0, # of connection points: 2
#     Edge 42, Type (0, 0), BuildingBlock: ZUJKAS_clean_linker_0, # of connection points: 2
#     Edge 43, Type (0, 0), BuildingBlock: ZUJKAS_clean_linker_0, # of connection points: 2
#     Edge 44, Type (0, 0), BuildingBlock: ZUJKAS_clean_linker_0, # of connection points: 2
#     Edge 45, Type (0, 0), BuildingBlock: ZUJKAS_clean_linker_0, # of connection points: 2
#     Edge 46, Type (0, 0), BuildingBlock: ZUJKAS_clean_linker_0, # of connection points: 2
#     Edge 47, Type (0, 0), BuildingBlock: ZUJKAS_clean_linker_0, # of connection points: 2
#     Edge 48, Type (0, 0), BuildingBlock: ZUJKAS_clean_linker_0, # of connection points: 2
#     Edge 49, Type (0, 0), BuildingBlock: ZUJKAS_clean_linker_0, # of connection points: 2
#     Edge 50, Type (0, 0), BuildingBlock: ZUJKAS_clean_linker_0, # of connection points: 2
#     Edge 51, Type (0, 0), BuildingBlock: ZUJKAS_clean_linker_0, # of connection points: 2
#     Edge 52, Type (0, 0), BuildingBlock: ZUJKAS_clean_linker_0, # of connection points: 2
#     Edge 53, Type (0, 0), BuildingBlock: ZUJKAS_clean_linker_0, # of connection points: 2
#     Edge 54, Type (0, 0), BuildingBlock: ZUJKAS_clean_linker_0, # of connection points: 2
#     Edge 55, Type (0, 0), BuildingBlock: ZUJKAS_clean_linker_0, # of connection points: 2
#     Edge 56, Type (0, 0), BuildingBlock: ZUJKAS_clean_linker_0, # of connection points: 2
#     Edge 57, Type (0, 0), BuildingBlock: ZUJKAS_clean_linker_0, # of connection points: 2
#     Edge 58, Type (0, 0), BuildingBlock: ZUJKAS_clean_linker_0, # of connection points: 2
#     Edge 59, Type (0, 0), BuildingBlock: ZUJKAS_clean_linker_0, # of connection points: 2
#     Edge 60, Type (0, 0), BuildingBlock: ZUJKAS_clean_linker_0, # of connection points: 2
#     Edge 61, Type (0, 0), BuildingBlock: ZUJKAS_clean_linker_0, # of connection points: 2
#     Edge 62, Type (0, 0), BuildingBlock: ZUJKAS_clean_linker_0, # of connection points: 2
#     Edge 63, Type (0, 0), BuildingBlock: ZUJKAS_clean_linker_0, # of connection points: 2
#     Edge 64, Type (0, 0), BuildingBlock: ZUJKAS_clean_linker_0, # of connection points: 2
#     Edge 65, Type (0, 0), BuildingBlock: ZUJKAS_clean_linker_0, # of connection points: 2
#     Edge 66, Type (0, 0), BuildingBlock: ZUJKAS_clean_linker_0, # of connection points: 2
#     Edge 67, Type (0, 0), BuildingBlock: ZUJKAS_clean_linker_0, # of connection points: 2
#     Edge 68, Type (0, 0), BuildingBlock: ZUJKAS_clean_linker_0, # of connection points: 2
#     Edge 69, Type (0, 0), BuildingBlock: ZUJKAS_clean_linker_0, # of connection points: 2
#     Edge 70, Type (0, 0), BuildingBlock: ZUJKAS_clean_linker_0, # of connection points: 2
#     Edge 71, Type (0, 0), BuildingBlock: ZUJKAS_clean_linker_0, # of connection points: 2
#     Edge 72, Type (0, 0), BuildingBlock: ZUJKAS_clean_linker_0, # of connection points: 2
#     Edge 73, Type (0, 0), BuildingBlock: ZUJKAS_clean_linker_0, # of connection points: 2
#     Edge 74, Type (0, 0), BuildingBlock: ZUJKAS_clean_linker_0, # of connection points: 2
#     Edge 75, Type (0, 0), BuildingBlock: ZUJKAS_clean_linker_0, # of connection points: 2
#     Edge 76, Type (0, 0), BuildingBlock: ZUJKAS_clean_linker_0, # of connection points: 2
#     Edge 77, Type (0, 0), BuildingBlock: ZUJKAS_clean_linker_0, # of connection points: 2
#     Edge 78, Type (0, 0), BuildingBlock: ZUJKAS_clean_linker_0, # of connection points: 2
#     Edge 79, Type (0, 0), BuildingBlock: ZUJKAS_clean_linker_0, # of connection points: 2
#     Edge 80, Type (0, 0), BuildingBlock: ZUJKAS_clean_linker_0, # of connection points: 2
#     Edge 81, Type (0, 0), BuildingBlock: ZUJKAS_clean_linker_0, # of connection points: 2
#     Edge 82, Type (0, 0), BuildingBlock: ZUJKAS_clean_linker_0, # of connection points: 2
#     Edge 83, Type (0, 0), BuildingBlock: ZUJKAS_clean_linker_0, # of connection points: 2
#     Edge 84, Type (0, 0), BuildingBlock: ZUJKAS_clean_linker_0, # of connection points: 2
#     Edge 85, Type (0, 0), BuildingBlock: ZUJKAS_clean_linker_0, # of connection points: 2
#     Edge 86, Type (0, 0), BuildingBlock: ZUJKAS_clean_linker_0, # of connection points: 2
#     Edge 87, Type (0, 0), BuildingBlock: ZUJKAS_clean_linker_0, # of connection points: 2
#     Edge 88, Type (0, 0), BuildingBlock: ZUJKAS_clean_linker_0, # of connection points: 2
#     Edge 89, Type (0, 0), BuildingBlock: ZUJKAS_clean_linker_0, # of connection points: 2
#     Edge 90, Type (0, 0), BuildingBlock: ZUJKAS_clean_linker_0, # of connection points: 2
#     Edge 91, Type (0, 0), BuildingBlock: ZUJKAS_clean_linker_0, # of connection points: 2
#     Edge 92, Type (0, 0), BuildingBlock: ZUJKAS_clean_linker_0, # of connection points: 2
#     Edge 93, Type (0, 0), BuildingBlock: ZUJKAS_clean_linker_0, # of connection points: 2
#     Edge 94, Type (0, 0), BuildingBlock: ZUJKAS_clean_linker_0, # of connection points: 2
#     Edge 95, Type (0, 0), BuildingBlock: ZUJKAS_clean_linker_0, # of connection points: 2
# Relax obj value: 0.056
# Max RMSD: 0.086
# Mean RMSD: 0.086
data_MOF--net-uos--node1-NAHDIM_clean_sbu_0--edge1-ZUJKAS_clean_linker_0
_symmetry_space_group_name_H-M    P1
_symmetry_Int_Tables_number       1
_symmetry_cell_setting            triclinic
loop_
_symmetry_equiv_pos_as_xyz
'x, y, z'
_cell_length_a     109.79683
_cell_length_b     109.81235
_cell_length_c     30.64726
_cell_angle_alpha  90.001972
_cell_angle_beta   90.00344
_cell_angle_gamma 89.952281
loop_
_atom_site_label
_atom_site_type_symbol
_atom_site_fract_x
_atom_site_fract_y
_atom_site_fract_z
_atom_type_partial_charge
C0 C 0.15061 0.1523 0.05841 0.0
O1 O 0.1433 0.1592 0.08165 0.0
O2 O 0.16336 0.17769 0.11964 0.0
Zn3 Zn 0.16616 0.15964 0.12597 0.0
O4 O 0.15574 0.15297 0.17383 0.0
C5 C 0.19185 0.16434 0.13201 0.0
O6 O 0.18888 0.17394 0.10872 0.0
O7 O 0.16159 0.15103 0.07059 0.0
C8 C 0.1572 0.15625 0.2132 0.0
O9 O 0.16562 0.16434 0.22257 0.0
C10 C 0.15392 0.18323 0.13318 0.0
O11 O 0.14518 0.17704 0.15223 0.0
O12 O 0.18366 0.15667 0.14198 0.0
C13 C 0.09358 0.89991 0.30076 0.0
O14 O 0.08521 0.8933 0.32013 0.0
O15 O 0.06993 0.91225 0.36828 0.0
Zn16 Zn 0.08804 0.91497 0.37259 0.0
O17 O 0.09499 0.90458 0.42021 0.0
C18 C 0.08343 0.94075 0.38223 0.0
O19 O 0.07311 0.93802 0.36293 0.0
O20 O 0.09633 0.91021 0.3168 0.0
C21 C 0.09483 0.90811 0.45966 0.0
O22 O 0.08985 0.91866 0.46931 0.0
C23 C 0.06455 0.90333 0.38635 0.0
O24 O 0.07097 0.89529 0.40822 0.0
O25 O 0.09135 0.93246 0.38794 0.0
C26 C 0.3385 0.85514 0.5678 0.0
O27 O 0.33427 0.86199 0.59953 0.0
O28 O 0.33539 0.81794 0.625 0.0
Zn29 Zn 0.33183 0.83593 0.62643 0.0
O30 O 0.3403 0.84356 0.67788 0.0
C31 C 0.30603 0.83046 0.62489 0.0
O32 O 0.30971 0.82006 0.60828 0.0
O33 O 0.33813 0.84363 0.57172 0.0
C34 C 0.33463 0.84524 0.71355 0.0
O35 O 0.32319 0.84185 0.71666 0.0
C36 C 0.33528 0.81166 0.65982 0.0
O37 O 0.33299 0.81707 0.69714 0.0
O38 O 0.31382 0.8387 0.63298 0.0
C39 C 0.40163 0.08293 0.7838 0.0
O40 O 0.41337 0.08085 0.78009 0.0
O41 O 0.42395 0.08371 0.86619 0.0
Zn42 Zn 0.40627 0.07997 0.87621 0.0
O43 O 0.39943 0.09125 0.92141 0.0
C44 C 0.41299 0.05786 0.91915 0.0
O45 O 0.42271 0.06433 0.92842 0.0
O46 O 0.39673 0.08266 0.82131 0.0
C47 C 0.40423 0.0928 0.95869 0.0
O48 O 0.41417 0.08678 0.96888 0.0
C49 C 0.42827 0.09443 0.86776 0.0
O50 O 0.42095 0.10363 0.87564 0.0
O51 O 0.40455 0.06264 0.89651 0.0
C52 C 0.1524 0.84146 0.94117 0.0
O53 O 0.14505 0.83443 0.91863 0.0
O54 O 0.16326 0.81649 0.87749 0.0
Zn55 Zn 0.16734 0.83432 0.87199 0.0
O56 O 0.15724 0.84191 0.82463 0.0
C57 C 0.19059 0.82722 0.83835 0.0
O58 O 0.18482 0.81682 0.83412 0.0
O59 O 0.16326 0.84291 0.92791 0.0
C60 C 0.15999 0.84066 0.78462 0.0
O61 O 0.16956 0.83414 0.77391 0.0
C62 C 0.15421 0.81154 0.85866 0.0
O63 O 0.14667 0.81833 0.8359 0.0
O64 O 0.18507 0.83621 0.85559 0.0
C65 C 0.40374 0.89949 0.19577 0.0
O66 O 0.40847 0.89116 0.17005 0.0
O67 O 0.42984 0.91028 0.12841 0.0
Zn68 Zn 0.41192 0.91394 0.12616 0.0
O69 O 0.40378 0.90329 0.08173 0.0
C70 C 0.40974 0.93409 0.06829 0.0
O71 O 0.4111 0.92529 0.03964 0.0
O72 O 0.40427 0.91059 0.18426 0.0
C73 C 0.3925 0.90482 0.0744 0.0
O74 O 0.38652 0.91309 0.09677 0.0
C75 C 0.43553 0.90721 0.09402 0.0
O76 O 0.4295 0.90611 0.05723 0.0
O77 O 0.40969 0.93148 0.10871 0.0
C78 C 0.3463 0.14637 0.43086 0.0
O79 O 0.35411 0.15018 0.40139 0.0
O80 O 0.33515 0.17783 0.39022 0.0
Zn81 Zn 0.33096 0.16039 0.37694 0.0
O82 O 0.34071 0.15462 0.32553 0.0
C83 C 0.30777 0.16814 0.34475 0.0
O84 O 0.31369 0.17847 0.34101 0.0
O85 O 0.33525 0.14974 0.42808 0.0
C86 C 0.33944 0.15872 0.28705 0.0
O87 O 0.33134 0.16726 0.27943 0.0
C88 C 0.34543 0.1824 0.38064 0.0
O89 O 0.35382 0.17545 0.36289 0.0
O90 O 0.3132 0.15898 0.36111 0.0
C91 C 0.09203 0.09342 0.69925 0.0
O92 O 0.0834 0.09988 0.68066 0.0
O93 O 0.06919 0.08168 0.62864 0.0
Zn94 Zn 0.08739 0.07934 0.62458 0.0
O95 O 0.09448 0.0905 0.5796 0.0
C96 C 0.08381 0.05347 0.61478 0.0
O97 O 0.07408 0.05562 0.63853 0.0
O98 O 0.09532 0.08348 0.68159 0.0
C99 C 0.09329 0.08834 0.53912 0.0
O100 O 0.0871 0.07872 0.52661 0.0
C101 C 0.06359 0.09033 0.60972 0.0
O102 O 0.0698 0.0983 0.58683 0.0
O103 O 0.09104 0.06218 0.60625 0.0
C104 C 0.84536 0.8451 0.93495 0.0
O105 O 0.85303 0.83955 0.90875 0.0
O106 O 0.83331 0.8187 0.87458 0.0
Zn107 Zn 0.83002 0.83668 0.86906 0.0
O108 O 0.84059 0.84388 0.82253 0.0
C109 C 0.80421 0.83196 0.86139 0.0
O110 O 0.80674 0.82269 0.88694 0.0
O111 O 0.8341 0.84511 0.92533 0.0
C112 C 0.83854 0.84195 0.78235 0.0
O113 O 0.82937 0.83494 0.77105 0.0
C114 C 0.84297 0.81373 0.86017 0.0
O115 O 0.85124 0.82049 0.8409 0.0
O116 O 0.81263 0.83935 0.85118 0.0
C117 C 0.90069 0.096 0.68897 0.0
O118 O 0.90729 0.10378 0.66658 0.0
O119 O 0.92689 0.0844 0.62833 0.0
Zn120 Zn 0.90892 0.08165 0.62001 0.0
O121 O 0.90233 0.0931 0.57479 0.0
C122 C 0.90903 0.06216 0.56002 0.0
O123 O 0.91264 0.0711 0.53466 0.0
O124 O 0.90002 0.08505 0.67578 0.0
C125 C 0.8916 0.09167 0.56019 0.0
O126 O 0.88497 0.08261 0.5749 0.0
C127 C 0.93303 0.09117 0.6029 0.0
O128 O 0.92747 0.09684 0.57084 0.0
O129 O 0.90658 0.06442 0.59974 0.0
C130 C 0.64983 0.14888 0.43666 0.0
O131 O 0.6424 0.15524 0.41194 0.0
O132 O 0.66238 0.17474 0.37721 0.0
Zn133 Zn 0.66543 0.15675 0.3705 0.0
O134 O 0.65482 0.15008 0.32301 0.0
C135 C 0.6911 0.16161 0.36532 0.0
O136 O 0.68806 0.17093 0.38993 0.0
O137 O 0.66098 0.14816 0.42593 0.0
C138 C 0.65807 0.15018 0.28326 0.0
O139 O 0.66871 0.15479 0.27265 0.0
C140 C 0.65326 0.18017 0.36064 0.0
O141 O 0.64523 0.17388 0.33822 0.0
O142 O 0.68296 0.154 0.35429 0.0
C143 C 0.59866 0.90141 0.18296 0.0
O144 O 0.59491 0.89392 0.15234 0.0
O145 O 0.5719 0.91379 0.12223 0.0
Zn146 Zn 0.58978 0.91749 0.1201 0.0
O147 O 0.59755 0.90731 0.07329 0.0
C148 C 0.58423 0.94316 0.11563 0.0
O149 O 0.57467 0.93993 0.13865 0.0
O150 O 0.59737 0.9128 0.17725 0.0
C151 C 0.60114 0.91156 0.03696 0.0
O152 O 0.59963 0.92319 0.02846 0.0
C153 C 0.56573 0.91325 0.08722 0.0
O154 O 0.57124 0.915 0.04969 0.0
O155 O 0.59216 0.93518 0.10587 0.0
C156 C 0.84616 0.14953 0.06484 0.0
O157 O 0.85408 0.15284 0.09466 0.0
O158 O 0.83461 0.18011 0.1129 0.0
Zn159 Zn 0.83078 0.16239 0.12279 0.0
O160 O 0.84033 0.15583 0.17351 0.0
C161 C 0.80807 0.16902 0.1605 0.0
O162 O 0.81444 0.17879 0.17001 0.0
O163 O 0.83507 0.15263 0.06936 0.0
C164 C 0.84185 0.16161 0.20898 0.0
O165 O 0.8373 0.17262 0.21306 0.0
C166 C 0.84509 0.18478 0.11821 0.0
O167 O 0.85425 0.17777 0.1297 0.0
O168 O 0.81304 0.1606 0.13827 0.0
C169 C 0.59226 0.09756 0.81116 0.0
O170 O 0.58826 0.10567 0.83922 0.0
O171 O 0.56297 0.08526 0.86454 0.0
Zn172 Zn 0.58088 0.08217 0.87265 0.0
O173 O 0.5873 0.09261 0.92102 0.0
C174 C 0.57565 0.0566 0.8881 0.0
O175 O 0.56494 0.05934 0.87171 0.0
O176 O 0.59006 0.08636 0.81799 0.0
C177 C 0.58586 0.08964 0.96072 0.0
O178 O 0.57973 0.07972 0.97023 0.0
C179 C 0.55809 0.09548 0.87317 0.0
O180 O 0.56492 0.10444 0.88751 0.0
O181 O 0.58384 0.06475 0.88997 0.0
C182 C 0.64894 0.84607 0.56669 0.0
O183 O 0.64178 0.8441 0.60028 0.0
O184 O 0.6611 0.81537 0.61647 0.0
Zn185 Zn 0.66513 0.83316 0.62177 0.0
O186 O 0.65627 0.84023 0.67294 0.0
C187 C 0.69048 0.82661 0.63465 0.0
O188 O 0.68666 0.81564 0.62447 0.0
O189 O 0.6598 0.84206 0.56766 0.0
C190 C 0.65977 0.83852 0.71193 0.0
O191 O 0.66939 0.8317 0.71933 0.0
C192 C 0.65107 0.81097 0.62976 0.0
O193 O 0.64287 0.81825 0.64692 0.0
O194 O 0.68301 0.83546 0.63353 0.0
C195 C 0.90173 0.90004 0.30686 0.0
O196 O 0.90693 0.89232 0.33385 0.0
O197 O 0.9289 0.91202 0.36424 0.0
Zn198 Zn 0.91104 0.91581 0.37039 0.0
O199 O 0.90356 0.90595 0.41862 0.0
C200 C 0.91727 0.93894 0.40622 0.0
O201 O 0.927 0.93275 0.41775 0.0
O202 O 0.90235 0.91136 0.31507 0.0
C203 C 0.90696 0.90652 0.45817 0.0
O204 O 0.91594 0.91381 0.46895 0.0
C205 C 0.93402 0.90251 0.37925 0.0
O206 O 0.92741 0.89424 0.39915 0.0
O207 O 0.90899 0.93363 0.38432 0.0
C208 C 0.65168 0.647 0.57104 0.0
O209 O 0.64422 0.64961 0.60323 0.0
O210 O 0.66239 0.67708 0.6217 0.0
Zn211 Zn 0.66726 0.65955 0.62802 0.0
O212 O 0.65858 0.65194 0.67876 0.0
C213 C 0.68808 0.66227 0.67916 0.0
O214 O 0.67942 0.66588 0.70579 0.0
O215 O 0.66271 0.65042 0.57355 0.0
C216 C 0.66179 0.64135 0.6908 0.0
O217 O 0.6706 0.63578 0.66968 0.0
C218 C 0.65259 0.68146 0.63724 0.0
O219 O 0.64505 0.67428 0.65827 0.0
O220 O 0.68522 0.65891 0.6408 0.0
C221 C 0.59105 0.40963 0.78963 0.0
O222 O 0.57913 0.41039 0.78765 0.0
O223 O 0.56944 0.41147 0.87457 0.0
Zn224 Zn 0.58732 0.41497 0.88127 0.0
O225 O 0.59416 0.40412 0.92759 0.0
C226 C 0.58123 0.44018 0.89462 0.0
O227 O 0.57123 0.43699 0.87406 0.0
O228 O 0.59639 0.41157 0.82573 0.0
C229 C 0.59034 0.40483 0.96661 0.0
O230 O 0.58178 0.41275 0.97625 0.0
C231 C 0.56478 0.40103 0.88076 0.0
O232 O 0.57188 0.39185 0.89128 0.0
O233 O 0.58959 0.43234 0.90034 0.0
C234 C 0.83512 0.34021 0.03788 0.0
O235 O 0.83438 0.32828 0.03659 0.0
O236 O 0.83218 0.31904 0.12319 0.0
Zn237 Zn 0.82857 0.33694 0.12868 0.0
O238 O 0.83884 0.34412 0.17596 0.0
C239 C 0.80306 0.33131 0.13697 0.0
O240 O 0.80621 0.32159 0.1146 0.0
O241 O 0.83261 0.34575 0.07314 0.0
C242 C 0.83904 0.33962 0.21412 0.0
O243 O 0.83251 0.32988 0.22258 0.0
C244 C 0.84284 0.31465 0.12679 0.0
O245 O 0.85203 0.32199 0.13452 0.0
O246 O 0.81106 0.33931 0.14551 0.0
C247 C 0.90435 0.58327 0.28186 0.0
O248 O 0.91609 0.58128 0.27742 0.0
O249 O 0.92722 0.5844 0.36189 0.0
Zn250 Zn 0.90969 0.58023 0.3736 0.0
O251 O 0.90316 0.59129 0.42007 0.0
C252 C 0.91747 0.55816 0.41477 0.0
O253 O 0.92757 0.56446 0.41875 0.0
O254 O 0.89963 0.58285 0.31967 0.0
C255 C 0.90832 0.5923 0.45696 0.0
O256 O 0.91829 0.58605 0.46483 0.0
C257 C 0.93128 0.59523 0.36303 0.0
O258 O 0.92376 0.60425 0.3713 0.0
O259 O 0.90843 0.56292 0.3952 0.0
C260 C 0.64826 0.34419 0.4441 0.0
O261 O 0.64052 0.33875 0.41784 0.0
O262 O 0.65998 0.31586 0.39233 0.0
Zn263 Zn 0.66369 0.33361 0.38264 0.0
O264 O 0.65332 0.34036 0.33436 0.0
C265 C 0.68653 0.32669 0.34597 0.0
O266 O 0.68048 0.31649 0.34026 0.0
O267 O 0.6596 0.34315 0.43658 0.0
C268 C 0.65478 0.33778 0.29431 0.0
O269 O 0.6634 0.33012 0.28286 0.0
C270 C 0.65069 0.31052 0.37676 0.0
O271 O 0.64262 0.31685 0.35465 0.0
O272 O 0.68131 0.33553 0.36518 0.0
C273 C 0.90018 0.39989 0.69438 0.0
O274 O 0.90589 0.3928 0.66652 0.0
O275 O 0.92565 0.41234 0.63322 0.0
Zn276 Zn 0.90772 0.41618 0.63077 0.0
O277 O 0.89991 0.40619 0.5835 0.0
C278 C 0.91363 0.44168 0.62633 0.0
O279 O 0.92338 0.43808 0.64761 0.0
O280 O 0.89983 0.41127 0.687 0.0
C281 C 0.89773 0.41029 0.54554 0.0
O282 O 0.90071 0.42157 0.53597 0.0
C283 C 0.93155 0.41048 0.59819 0.0
O284 O 0.92577 0.41091 0.5607 0.0
O285 O 0.90539 0.43396 0.61734 0.0
C286 C 0.84893 0.6489 0.93441 0.0
O287 O 0.85695 0.6536 0.90743 0.0
O288 O 0.83756 0.67861 0.88627 0.0
Zn289 Zn 0.83376 0.66098 0.8748 0.0
O290 O 0.84413 0.65461 0.82572 0.0
C291 C 0.81111 0.66819 0.83741 0.0
O292 O 0.81749 0.67807 0.82968 0.0
O293 O 0.83768 0.65099 0.92797 0.0
C294 C 0.84301 0.65773 0.78603 0.0
O295 O 0.8346 0.66568 0.77508 0.0
C296 C 0.84732 0.68375 0.87366 0.0
O297 O 0.85568 0.67727 0.85362 0.0
O298 O 0.81608 0.65941 0.85781 0.0
C299 C 0.59843 0.59666 0.18408 0.0
O300 O 0.5959 0.60434 0.15246 0.0
O301 O 0.56867 0.58632 0.13016 0.0
Zn302 Zn 0.58624 0.58135 0.1251 0.0
O303 O 0.59434 0.59002 0.07529 0.0
C304 C 0.58303 0.56056 0.07429 0.0
O305 O 0.57873 0.56918 0.0488 0.0
O306 O 0.59508 0.58563 0.18036 0.0
C307 C 0.60467 0.58625 0.06245 0.0
O308 O 0.60973 0.57694 0.08241 0.0
C309 C 0.56333 0.59293 0.102 0.0
O310 O 0.5695 0.59702 0.06836 0.0
O311 O 0.58695 0.56344 0.11193 0.0
C312 C 0.34897 0.34459 0.44102 0.0
O313 O 0.35646 0.33797 0.41746 0.0
O314 O 0.33719 0.31731 0.38817 0.0
Zn315 Zn 0.33337 0.33504 0.37774 0.0
O316 O 0.34338 0.34159 0.3283 0.0
C317 C 0.3101 0.32826 0.3438 0.0
O318 O 0.31587 0.31791 0.33781 0.0
O319 O 0.33775 0.34478 0.43091 0.0
C320 C 0.34214 0.33807 0.28908 0.0
O321 O 0.33411 0.32959 0.27989 0.0
C322 C 0.34673 0.31212 0.37381 0.0
O323 O 0.35474 0.31851 0.35172 0.0
O324 O 0.31567 0.33705 0.36196 0.0
C325 C 0.40057 0.59748 0.18352 0.0
O326 O 0.40614 0.60513 0.15726 0.0
O327 O 0.42775 0.58706 0.12805 0.0
Zn328 Zn 0.41029 0.58177 0.12097 0.0
O329 O 0.40241 0.59078 0.07116 0.0
C330 C 0.41863 0.55877 0.08951 0.0
O331 O 0.42799 0.56556 0.07857 0.0
O332 O 0.40109 0.58616 0.1752 0.0
C333 C 0.40004 0.58592 0.03451 0.0
O334 O 0.40292 0.57447 0.02778 0.0
C335 C 0.43324 0.59361 0.1001 0.0
O336 O 0.4273 0.59748 0.06558 0.0
O337 O 0.40972 0.56366 0.10943 0.0
C338 C 0.1462 0.64886 0.93417 0.0
O339 O 0.13802 0.65325 0.90707 0.0
O340 O 0.15723 0.67517 0.86934 0.0
Zn341 Zn 0.16089 0.65727 0.86613 0.0
O342 O 0.14988 0.64947 0.8218 0.0
C343 C 0.18648 0.66268 0.8542 0.0
O344 O 0.18372 0.67269 0.87548 0.0
O345 O 0.1574 0.64961 0.92408 0.0
C346 C 0.15348 0.64696 0.78346 0.0
O347 O 0.16468 0.64967 0.77196 0.0
C348 C 0.15644 0.68143 0.8346 0.0
O349 O 0.15793 0.67602 0.79674 0.0
O350 O 0.1783 0.65469 0.84808 0.0
C351 C 0.09403 0.39938 0.69163 0.0
O352 O 0.08742 0.39138 0.67031 0.0
O353 O 0.06805 0.40919 0.62747 0.0
Zn354 Zn 0.08582 0.41338 0.62118 0.0
O355 O 0.09321 0.40256 0.57536 0.0
C356 C 0.07879 0.43843 0.60823 0.0
O357 O 0.06897 0.43492 0.62918 0.0
O358 O 0.09465 0.4102 0.67719 0.0
C359 C 0.09536 0.40634 0.53695 0.0
O360 O 0.09271 0.41764 0.52662 0.0
C361 C 0.06182 0.40732 0.5932 0.0
O362 O 0.06722 0.40787 0.55502 0.0
O363 O 0.08744 0.4309 0.60263 0.0
C364 C 0.34246 0.65082 0.55543 0.0
O365 O 0.34982 0.65626 0.58302 0.0
O366 O 0.32887 0.67613 0.61957 0.0
Zn367 Zn 0.32613 0.65801 0.62085 0.0
O368 O 0.33622 0.65045 0.6681 0.0
C369 C 0.30026 0.6624 0.62681 0.0
O370 O 0.30306 0.67245 0.60582 0.0
O371 O 0.33114 0.65049 0.56398 0.0
C372 C 0.33307 0.6513 0.70785 0.0
O373 O 0.32314 0.65737 0.71794 0.0
C374 C 0.33785 0.68127 0.63811 0.0
O375 O 0.34601 0.67458 0.65831 0.0
O376 O 0.30858 0.65467 0.63487 0.0
C377 C 0.09777 0.59274 0.31772 0.0
O378 O 0.09729 0.5991 0.35396 0.0
O379 O 0.0642 0.58273 0.35615 0.0
Zn380 Zn 0.08156 0.57776 0.36659 0.0
O381 O 0.08809 0.58586 0.4203 0.0
C382 C 0.07345 0.55468 0.39635 0.0
O383 O 0.06375 0.56125 0.40508 0.0
O384 O 0.09175 0.58287 0.31501 0.0
C385 C 0.08249 0.58719 0.45621 0.0
O386 O 0.07129 0.58314 0.46013 0.0
C387 C 0.06031 0.59354 0.36111 0.0
O388 O 0.06793 0.60213 0.37312 0.0
O389 O 0.08245 0.5597 0.37746 0.0
C390 C 0.15216 0.34913 0.06614 0.0
O391 O 0.14447 0.34596 0.09694 0.0
O392 O 0.16462 0.31847 0.1124 0.0
Zn393 Zn 0.16784 0.33627 0.12288 0.0
O394 O 0.15794 0.34244 0.17344 0.0
C395 C 0.18989 0.3307 0.16523 0.0
O396 O 0.18292 0.32176 0.17892 0.0
O397 O 0.16326 0.34596 0.06956 0.0
C398 C 0.15503 0.33632 0.20703 0.0
O399 O 0.15852 0.32492 0.21042 0.0
C400 C 0.15417 0.31357 0.11475 0.0
O401 O 0.14462 0.32036 0.12343 0.0
O402 O 0.18551 0.33842 0.13859 0.0
C403 C 0.40671 0.40303 0.79974 0.0
O404 O 0.41557 0.39619 0.81494 0.0
O405 O 0.42974 0.41209 0.87418 0.0
Zn406 Zn 0.41172 0.41548 0.87868 0.0
O407 O 0.40422 0.40442 0.923 0.0
C408 C 0.41715 0.44085 0.89066 0.0
O409 O 0.42676 0.43798 0.86725 0.0
O410 O 0.40345 0.41236 0.82127 0.0
C411 C 0.40658 0.4057 0.96328 0.0
O412 O 0.41411 0.41435 0.97558 0.0
C413 C 0.43468 0.40229 0.88749 0.0
O414 O 0.42785 0.39373 0.90464 0.0
O415 O 0.40921 0.43274 0.89853 0.0
H416 H 0.29479 0.18534 0.30054 0.0
H417 H 0.27505 0.18292 0.26481 0.0
H418 H 0.27308 0.1458 0.31002 0.0
H419 H 0.29288 0.1481 0.34602 0.0
H420 H 0.26988 0.16403 0.19878 0.0
H421 H 0.23968 0.16205 0.34467 0.0
H422 H 0.25472 0.16868 0.34659 0.0
H423 H 0.25298 0.15245 0.34462 0.0
C424 C 0.29013 0.17669 0.30333 0.0
C425 C 0.29541 0.16691 0.32613 0.0
C426 C 0.27887 0.17533 0.28278 0.0
C427 C 0.27264 0.16422 0.285 0.0
C428 C 0.27773 0.15449 0.30836 0.0
H429 H 0.20107 0.14557 0.18064 0.0
H430 H 0.22114 0.14437 0.21509 0.0
C431 C 0.28904 0.15582 0.32881 0.0
C432 C 0.26102 0.16274 0.26128 0.0
H433 H 0.23036 0.16 0.27588 0.0
C434 C 0.26123 0.16309 0.21554 0.0
C435 C 0.24982 0.16143 0.28338 0.0
C436 C 0.24918 0.16119 0.33254 0.0
C437 C 0.25045 0.16226 0.19116 0.0
C438 C 0.23918 0.16136 0.21326 0.0
C439 C 0.23902 0.16071 0.25904 0.0
C440 C 0.2274 0.16165 0.18973 0.0
C441 C 0.25126 0.16228 0.14201 0.0
C442 C 0.2243 0.17175 0.16396 0.0
C443 C 0.21288 0.17243 0.14403 0.0
C444 C 0.20429 0.16309 0.14997 0.0
C445 C 0.20749 0.15291 0.17536 0.0
C446 C 0.21893 0.15221 0.19513 0.0
H447 H 0.26034 0.15914 0.13064 0.0
H448 H 0.24417 0.15636 0.12729 0.0
H449 H 0.2499 0.1717 0.12986 0.0
H450 H 0.23058 0.17927 0.16019 0.0
H451 H 0.21069 0.18044 0.12496 0.0
H452 H 0.06773 0.96008 0.38114 0.0
H453 H 0.06993 0.97945 0.41953 0.0
H454 H 0.10533 0.9684 0.46594 0.0
H455 H 0.10317 0.94892 0.42812 0.0
H456 H 0.09018 0.97688 0.53155 0.0
H457 H 0.09109 0.0091 0.39233 0.0
H458 H 0.07836 -0.00114 0.39108 0.0
H459 H 0.09356 0.99295 0.38575 0.0
C460 C 0.07607 0.96183 0.39898 0.0
C461 C 0.08528 0.95295 0.40157 0.0
C462 C 0.07733 0.97293 0.42073 0.0
C463 C 0.08785 0.9754 0.44517 0.0
C464 C 0.09716 0.96667 0.44709 0.0
H465 H 0.10231 0.04648 0.56057 0.0
H466 H 0.10439 0.02714 0.52177 0.0
C467 C 0.09592 0.95556 0.42537 0.0
C468 C 0.08876 0.98675 0.471 0.0
H469 H 0.08767 0.01771 0.46289 0.0
C470 C 0.08975 0.98581 0.51655 0.0
C471 C 0.08834 -0.00163 0.45128 0.0
C472 C 0.0879 -8e-05 0.40239 0.0
C473 C 0.08994 0.99622 0.54307 0.0
C474 C 0.08894 0.00783 0.52347 0.0
C475 C 0.08834 0.00878 0.47784 0.0
C476 C 0.08817 0.01913 0.54966 0.0
C477 C 0.09124 0.99471 0.59178 0.0
C478 C 0.07839 0.02098 0.57838 0.0
C479 C 0.07718 0.03201 0.60069 0.0
C480 C 0.08569 0.04141 0.59439 0.0
C481 C 0.09561 0.03942 0.56622 0.0
C482 C 0.09681 0.02839 0.54394 0.0
H483 H 0.0953 0.98574 0.6003 0.0
H484 H 0.09699 0.00203 0.60592 0.0
H485 H 0.0821 0.99522 0.60712 0.0
H486 H 0.0715 0.01403 0.58261 0.0
H487 H 0.06941 0.03327 0.62198 0.0
H488 H 0.20419 0.80994 0.79717 0.0
H489 H 0.22356 0.81265 0.75946 0.0
H490 H 0.22397 0.85055 0.79617 0.0
H491 H 0.20452 0.84794 0.83433 0.0
H492 H 0.22767 0.82976 0.68915 0.0
H493 H 0.25816 0.8373 0.83186 0.0
H494 H 0.24335 0.8303 0.83709 0.0
H495 H 0.24457 0.84644 0.82908 0.0
C496 C 0.20842 0.81884 0.79768 0.0
C497 C 0.2028 0.82873 0.81878 0.0
C498 C 0.21948 0.82037 0.77599 0.0
C499 C 0.22518 0.83178 0.77522 0.0
C500 C 0.21975 0.84164 0.79686 0.0
H501 H 0.29568 0.85057 0.66238 0.0
H502 H 0.2754 0.85216 0.69483 0.0
C503 C 0.20864 0.84013 0.81857 0.0
C504 C 0.2366 0.83333 0.75038 0.0
H505 H 0.26712 0.83807 0.76216 0.0
C506 C 0.2363 0.83164 0.705 0.0
C507 C 0.24779 0.83587 0.77124 0.0
C508 C 0.24859 0.83751 0.82003 0.0
C509 C 0.24695 0.83228 0.67987 0.0
C510 C 0.25821 0.83441 0.7009 0.0
C511 C 0.25846 0.83643 0.74614 0.0
C512 C 0.26994 0.83389 0.67714 0.0
C513 C 0.24604 0.8307 0.63107 0.0
C514 C 0.27353 0.82313 0.65602 0.0
C515 C 0.28508 0.8222 0.63726 0.0
C516 C 0.29331 0.83197 0.63973 0.0
C517 C 0.28956 0.84287 0.65987 0.0
C518 C 0.27799 0.8438 0.67851 0.0
H519 H 0.23678 0.83301 0.61897 0.0
H520 H 0.25279 0.83647 0.61378 0.0
H521 H 0.24786 0.82104 0.62266 0.0
H522 H 0.26756 0.81528 0.65542 0.0
H523 H 0.28771 0.81366 0.62224 0.0
H524 H 0.42898 0.04545 0.97086 0.0
H525 H 0.42743 0.02442 0.99613 0.0
H526 H 0.39326 0.02047 0.9282 0.0
H527 H 0.39463 0.0416 0.90318 0.0
H528 H 0.39297 0.01109 0.01333 0.0
H529 H 0.43285 0.99429 0.9197 0.0
H530 H 0.43613 0.00716 0.95386 0.0
H531 H 0.42575 0.00881 0.90884 0.0
C532 C 0.42114 0.04012 0.9612 0.0
C533 C 0.41197 0.04517 0.93475 0.0
C534 C 0.4203 0.02809 0.97554 0.0
C535 C 0.41033 0.02086 0.96343 0.0
C536 C 0.40106 0.02591 0.93769 0.0
H537 H 0.40801 0.94227 0.98454 0.0
H538 H 0.40717 0.96335 0.95945 0.0
C539 C 0.40187 0.03796 0.92337 0.0
C540 C 0.40961 0.00802 0.97776 0.0
H541 H 0.42454 0.98081 0.97248 0.0
C542 C 0.39983 0.00444 0.00429 0.0
C543 C 0.41849 -0.00064 0.96538 0.0
C544 C 0.42884 0.00254 0.93504 0.0
C545 C 0.39883 0.99243 0.01954 0.0
C546 C 0.40796 0.98388 0.00844 0.0
C547 C 0.41761 0.98742 0.98124 0.0
C548 C 0.40769 0.97115 0.02425 0.0
C549 C 0.38794 0.98896 0.04685 0.0
C550 C 0.40824 0.96856 0.06905 0.0
C551 C 0.40867 0.9565 0.08356 0.0
C552 C 0.40868 0.94684 0.05343 0.0
C553 C 0.40803 0.94949 0.00861 0.0
C554 C 0.40755 0.96153 0.99418 0.0
H555 H 0.3803 0.99549 0.04258 0.0
H556 H 0.38467 0.97968 0.03842 0.0
H557 H 0.39057 0.98899 0.08181 0.0
H558 H 0.40861 0.97587 0.09275 0.0
H559 H 0.40923 0.95476 0.11829 0.0
H560 H 0.79686 0.84865 0.80068 0.0
H561 H 0.77742 0.84934 0.7619 0.0
H562 H 0.76478 0.81839 0.83558 0.0
H563 H 0.78418 0.81763 0.87478 0.0
H564 H 0.7679 0.83002 0.71064 0.0
H565 H 0.73657 0.84329 0.84477 0.0
H566 H 0.75286 0.84539 0.84799 0.0
H567 H 0.74633 0.8306 0.85698 0.0
C568 C 0.7899 0.84208 0.80912 0.0
C569 C 0.79207 0.83308 0.84085 0.0
C570 C 0.77881 0.84248 0.78683 0.0
C571 C 0.76966 0.83398 0.79614 0.0
C572 C 0.77168 0.82515 0.82841 0.0
H573 H 0.70862 0.80969 0.64279 0.0
H574 H 0.72825 0.81219 0.67933 0.0
C575 C 0.78278 0.8247 0.85065 0.0
C576 C 0.75829 0.83391 0.77031 0.0
H577 H 0.72742 0.83656 0.77867 0.0
C578 C 0.75904 0.83153 0.72539 0.0
C579 C 0.74679 0.83599 0.78967 0.0
C580 C 0.74554 0.83907 0.83743 0.0
C581 C 0.74854 0.83087 0.69943 0.0
C582 C 0.73702 0.83253 0.71909 0.0
C583 C 0.73628 0.83522 0.7638 0.0
C584 C 0.72556 0.83128 0.69411 0.0
C585 C 0.74985 0.82846 0.6512 0.0
C586 C 0.71757 0.84118 0.69039 0.0
C587 C 0.70634 0.83979 0.66955 0.0
C588 C 0.70287 0.82842 0.65246 0.0
C589 C 0.71103 0.81858 0.65546 0.0
C590 C 0.72227 0.82 0.67618 0.0
H591 H 0.75921 0.83045 0.63947 0.0
H592 H 0.74791 0.81872 0.64463 0.0
H593 H 0.74328 0.83403 0.63214 0.0
H594 H 0.71995 0.84995 0.70417 0.0
H595 H 0.70026 0.84754 0.66793 0.0
H596 H 0.93173 0.9516 0.4624 0.0
H597 H 0.92917 0.97253 0.48739 0.0
H598 H 0.89727 0.97632 0.4063 0.0
H599 H 0.89959 0.95521 0.38187 0.0
H600 H 0.92948 0.99346 0.44149 0.0
H601 H 0.88476 0.98796 0.5236 0.0
H602 H 0.89384 0.97515 0.50608 0.0
H603 H 0.88476 0.98344 0.4673 0.0
C604 C 0.92414 0.95686 0.4499 0.0
C605 C 0.91582 0.95173 0.42028 0.0
C606 C 0.92269 0.96883 0.46425 0.0
C607 C 0.91292 0.97592 0.44925 0.0
C608 C 0.90471 0.97091 0.4191 0.0
H609 H 0.91113 0.05482 0.47533 0.0
H610 H 0.91146 0.03398 0.44746 0.0
C611 C 0.90609 0.95888 0.40494 0.0
C612 C 0.91159 0.98864 0.46455 0.0
H613 H 0.89237 0.00812 0.51758 0.0
C614 C 0.92137 0.99667 0.45814 0.0
C615 C 0.90107 0.99275 0.48679 0.0
C616 C 0.89055 0.98436 0.49678 0.0
C617 C 0.92091 0.00871 0.47325 0.0
C618 C 0.91024 0.01292 0.49434 0.0
C619 C 0.90048 0.00489 0.50097 0.0
C620 C 0.9092 0.02556 0.51078 0.0
C621 C 0.93198 0.0167 0.4675 0.0
C622 C 0.90729 0.02774 0.55538 0.0
C623 C 0.90694 0.03965 0.57138 0.0
C624 C 0.90852 0.04958 0.54298 0.0
C625 C 0.91004 0.04736 0.49813 0.0
C626 C 0.91029 0.03546 0.48215 0.0
H627 H 0.94034 0.01122 0.46175 0.0
H628 H 0.93062 0.02269 0.43877 0.0
H629 H 0.93346 0.02254 0.49658 0.0
H630 H 0.90636 0.02021 0.57797 0.0
H631 H 0.90572 0.04106 0.60609 0.0
H632 H 0.71 0.17747 0.37629 0.0
H633 H 0.72989 0.17692 0.34061 0.0
H634 H 0.72031 0.14315 0.27756 0.0
H635 H 0.70028 0.14372 0.3125 0.0
H636 H 0.74843 0.15959 0.34278 0.0
H637 H 0.72983 0.16504 0.1751 0.0
H638 H 0.72075 0.16763 0.2233 0.0
H639 H 0.72385 0.15237 0.20528 0.0
C640 C 0.71213 0.16989 0.35503 0.0
C641 C 0.70352 0.16069 0.34694 0.0
C642 C 0.7235 0.16959 0.33467 0.0
C643 C 0.72646 0.16012 0.30583 0.0
C644 C 0.71808 0.15068 0.29895 0.0
H645 H 0.79242 0.1498 0.14934 0.0
H646 H 0.77256 0.14683 0.18434 0.0
C647 C 0.70668 0.15098 0.31919 0.0
C648 C 0.73829 0.16028 0.28268 0.0
H649 H 0.75113 0.1626 0.18149 0.0
C650 C 0.74902 0.16021 0.30752 0.0
C651 C 0.73902 0.16107 0.23665 0.0
C652 C 0.72777 0.16164 0.20842 0.0
C653 C 0.76049 0.16099 0.28756 0.0
C654 C 0.7612 0.16202 0.24166 0.0
C655 C 0.7505 0.1618 0.21669 0.0
C656 C 0.77295 0.16394 0.21926 0.0
C657 C 0.77176 0.16072 0.31572 0.0
C658 C 0.77954 0.17468 0.22654 0.0
C659 C 0.79082 0.17643 0.20656 0.0
C660 C 0.79571 0.16747 0.17883 0.0
C661 C 0.78892 0.15686 0.17062 0.0
C662 C 0.77759 0.15513 0.19058 0.0
H663 H 0.76986 0.15686 0.34853 0.0
H664 H 0.77908 0.15528 0.30004 0.0
H665 H 0.77517 0.17015 0.32013 0.0
H666 H 0.77599 0.18167 0.24798 0.0
H667 H 0.79577 0.18473 0.21344 0.0
H668 H 0.59604 0.04881 0.93106 0.0
H669 H 0.59899 0.02944 0.96896 0.0
H670 H 0.56312 0.01788 0.92955 0.0
H671 H 0.56008 0.03718 0.89124 0.0
H672 H 0.58436 0.02055 0.03776 0.0
H673 H 0.58516 0.98884 0.89667 0.0
H674 H 0.58737 0.00506 0.89084 0.0
H675 H 0.5723 -0.00103 0.89771 0.0
C676 C 0.58882 0.04209 0.92995 0.0
C677 C 0.57782 0.04453 0.90806 0.0
C678 C 0.59052 0.03105 0.95173 0.0
C679 C 0.58132 0.02222 0.95171 0.0
C680 C 0.57041 0.02452 0.92934 0.0
H681 H 0.5683 0.96209 0.12623 0.0
H682 H 0.5685 0.98169 0.0884 0.0
C683 C 0.56868 0.03557 0.90761 0.0
C684 C 0.58288 0.01084 0.97692 0.0
H685 H 0.58355 0.97991 0.96717 0.0
C686 C 0.58426 0.01166 0.02236 0.0
C687 C 0.58288 -0.00071 0.95661 0.0
C688 C 0.58196 -0.00207 0.90773 0.0
C689 C 0.58534 0.00117 0.04823 0.0
C690 C 0.58488 0.98961 0.02807 0.0
C691 C 0.58381 0.9888 0.98252 0.0
C692 C 0.58529 0.97818 0.0536 0.0
C693 C 0.58701 0.00255 0.09684 0.0
C694 C 0.59465 0.96973 0.04648 0.0
C695 C 0.59456 0.95851 0.06794 0.0
C696 C 0.58502 0.95551 0.09666 0.0
C697 C 0.5758 0.96413 0.10448 0.0
C698 C 0.57592 0.97536 0.08303 0.0
H699 H 0.59032 0.01179 0.1056 0.0
H700 H 0.57813 0.0011 0.11333 0.0
H701 H 0.59355 0.9957 0.10958 0.0
H702 H 0.60194 0.97174 0.02376 0.0
H703 H 0.60179 0.95207 0.0611 0.0
H704 H 0.69638 0.66522 0.76214 0.0
H705 H 0.71746 0.66565 0.78711 0.0
H706 H 0.72988 0.6598 0.65524 0.0
H707 H 0.7087 0.65905 0.62999 0.0
H708 H 0.74238 0.64591 0.71444 0.0
H709 H 0.74056 0.69391 0.7698 0.0
H710 H 0.72903 0.68464 0.79452 0.0
H711 H 0.7288 0.6872 0.73651 0.0
C712 C 0.70358 0.66404 0.73836 0.0
C713 C 0.70088 0.66222 0.694 0.0
C714 C 0.71563 0.66434 0.7527 0.0
C715 C 0.72523 0.66303 0.7229 0.0
C716 C 0.72259 0.66092 0.67871 0.0
H717 H 0.79967 0.68344 0.78053 0.0
H718 H 0.77911 0.68164 0.75111 0.0
C719 C 0.7105 0.66051 0.66434 0.0
C720 C 0.73801 0.66386 0.73805 0.0
H721 H 0.75782 0.68237 0.79235 0.0
C722 C 0.7458 0.6539 0.73124 0.0
C723 C 0.74249 0.67437 0.75937 0.0
C724 C 0.73482 0.68568 0.76511 0.0
C725 C 0.7579 0.65408 0.74601 0.0
C726 C 0.76221 0.66438 0.76908 0.0
C727 C 0.75447 0.67441 0.77514 0.0
C728 C 0.77479 0.66513 0.78638 0.0
C729 C 0.76601 0.64332 0.73604 0.0
C730 C 0.77916 0.65649 0.81635 0.0
C731 C 0.79099 0.65744 0.83299 0.0
C732 C 0.79855 0.66715 0.82048 0.0
C733 C 0.79407 0.67587 0.79095 0.0
C734 C 0.78232 0.67485 0.77403 0.0
H735 H 0.76251 0.63796 0.70797 0.0
H736 H 0.77544 0.6463 0.7286 0.0
H737 H 0.7663 0.63722 0.76486 0.0
H738 H 0.7734 0.6491 0.82722 0.0
H739 H 0.79415 0.65063 0.85592 0.0
H740 H 0.60084 0.44995 0.93719 0.0
H741 H 0.60225 0.47003 0.97155 0.0
H742 H 0.56572 0.47834 0.92933 0.0
H743 H 0.56418 0.45831 0.89499 0.0
H744 H 0.59906 0.4936 0.93177 0.0
H745 H 0.56551 0.48452 0.06339 0.0
H746 H 0.57266 0.47251 0.03227 0.0
H747 H 0.56023 0.48102 0.00931 0.0
C748 C 0.59311 0.45606 0.93512 0.0
C749 C 0.58238 0.45252 0.91352 0.0
C750 C 0.59394 0.46751 0.95478 0.0
C751 C 0.58402 0.47554 0.95351 0.0
C752 C 0.57339 0.47215 0.93128 0.0
H753 H 0.57736 0.55224 0.9931 0.0
H754 H 0.57856 0.53137 0.96609 0.0
C755 C 0.57257 0.46073 0.91146 0.0
C756 C 0.5848 0.48758 0.97488 0.0
H757 H 0.57167 0.50514 0.05382 0.0
C758 C 0.59315 0.49611 0.95869 0.0
C759 C 0.57719 0.49073 0.01035 0.0
C760 C 0.56846 0.48169 0.03021 0.0
C761 C 0.59377 0.50791 0.97603 0.0
C762 C 0.58575 0.51124 0.01013 0.0
C763 C 0.57773 0.50256 0.02743 0.0
C764 C 0.58517 0.52384 0.02685 0.0
C765 C 0.60292 0.51677 0.95761 0.0
C766 C 0.58825 0.52644 0.07028 0.0
C767 C 0.58757 0.53839 0.08594 0.0
C768 C 0.58366 0.54787 0.05844 0.0
C769 C 0.58043 0.54516 0.01511 0.0
C770 C 0.58118 0.53325 -0.0005 0.0
H771 H 0.61035 0.51201 0.93981 0.0
H772 H 0.59826 0.52296 0.93433 0.0
H773 H 0.60699 0.52241 0.9839 0.0
H774 H 0.59127 0.51924 0.09192 0.0
H775 H 0.59009 0.54018 0.11949 0.0
H776 H 0.70162 0.34657 0.34991 0.0
H777 H 0.72137 0.34911 0.31361 0.0
H778 H 0.71881 0.31266 0.26223 0.0
H779 H 0.69916 0.31001 0.29812 0.0
H780 H 0.7432 0.33387 0.32166 0.0
H781 H 0.72431 0.33494 0.15363 0.0
H782 H 0.71508 0.33763 0.20149 0.0
H783 H 0.71923 0.32237 0.18645 0.0
C784 C 0.70529 0.33908 0.33103 0.0
C785 C 0.69879 0.32811 0.32669 0.0
C786 C 0.71655 0.34056 0.31033 0.0
C787 C 0.7214 0.33114 0.28472 0.0
C788 C 0.71509 0.3201 0.28125 0.0
H789 H 0.78451 0.31479 0.1319 0.0
H790 H 0.76465 0.31585 0.1677 0.0
C791 C 0.70389 0.31859 0.302 0.0
C792 C 0.7331 0.33273 0.26165 0.0
H793 H 0.74579 0.33273 0.16002 0.0
C794 C 0.7438 0.33377 0.28633 0.0
C795 C 0.73377 0.33258 0.2156 0.0
C796 C 0.72249 0.33193 0.18762 0.0
C797 C 0.75526 0.33416 0.26609 0.0
C798 C 0.75596 0.33376 0.21998 0.0
C799 C 0.74521 0.33302 0.19534 0.0
C800 C 0.76777 0.33353 0.19675 0.0
C801 C 0.76653 0.3345 0.29426 0.0
C802 C 0.77596 0.34327 0.20037 0.0
C803 C 0.78734 0.34268 0.18007 0.0
C804 C 0.79067 0.33238 0.1555 0.0
C805 C 0.78225 0.32284 0.15066 0.0
C806 C 0.7709 0.32342 0.1711 0.0
H807 H 0.76454 0.33193 0.32858 0.0
H808 H 0.77364 0.32827 0.28133 0.0
H809 H 0.77029 0.34388 0.2943 0.0
H810 H 0.7736 0.35127 0.21923 0.0
H811 H 0.79358 0.35023 0.18417 0.0
H812 H 0.89508 0.45188 0.57908 0.0
H813 H 0.89492 0.47183 0.54344 0.0
H814 H 0.93034 0.47966 0.59719 0.0
H815 H 0.93064 0.45975 0.63285 0.0
H816 H 0.8981 0.49621 0.58005 0.0
H817 H 0.93431 0.48311 0.46227 0.0
H818 H 0.92581 0.47204 0.49341 0.0
H819 H 0.9379 0.48048 0.51871 0.0
C820 C 0.90279 0.45788 0.58368 0.0
C821 C 0.91292 0.45419 0.60854 0.0
C822 C 0.90268 0.46927 0.56329 0.0
C823 C 0.9127 0.47709 0.56719 0.0
C824 C 0.92261 0.47364 0.5933 0.0
H825 H 0.93476 0.54617 0.46206 0.0
H826 H 0.93293 0.52649 0.49842 0.0
C827 C 0.92273 0.46228 0.6138 0.0
C828 C 0.91297 0.48873 0.54298 0.0
H829 H 0.92826 0.50381 0.46257 0.0
C830 C 0.90463 0.49788 0.55419 0.0
C831 C 0.92149 0.4908 0.50923 0.0
C832 C 0.93034 0.48107 0.4948 0.0
C833 C 0.90484 0.50927 0.53332 0.0
C834 C 0.91346 0.51139 0.49984 0.0
C835 C 0.92168 0.50215 0.48828 0.0
C836 C 0.91441 0.52328 0.47731 0.0
C837 C 0.8961 0.51903 0.54819 0.0
C838 C 0.90465 0.5279 0.45278 0.0
C839 C 0.90565 0.53919 0.43196 0.0
C840 C 0.91647 0.54599 0.43511 0.0
C841 C 0.9263 0.54119 0.45901 0.0
C842 C 0.92527 0.52994 0.47985 0.0
H843 H 0.89216 0.51695 0.58074 0.0
H844 H 0.90069 0.52803 0.5498 0.0
H845 H 0.8885 0.51972 0.52448 0.0
H846 H 0.89628 0.52277 0.44964 0.0
H847 H 0.89794 0.5426 0.41361 0.0
H848 H 0.2963 0.31155 0.30043 0.0
H849 H 0.27608 0.31442 0.26898 0.0
H850 H 0.2754 0.35141 0.31613 0.0
H851 H 0.29567 0.34862 0.34812 0.0
H852 H 0.25379 0.33812 0.33227 0.0
H853 H 0.26813 0.33465 0.15927 0.0
H854 H 0.27332 0.32219 0.19237 0.0
H855 H 0.27877 0.33733 0.20317 0.0
C856 C 0.29187 0.32031 0.30421 0.0
C857 C 0.29762 0.32988 0.32661 0.0
C858 C 0.28035 0.32195 0.28593 0.0
C859 C 0.27438 0.33319 0.28952 0.0
C860 C 0.27993 0.3427 0.3127 0.0
H861 H 0.20703 0.34788 0.14389 0.0
H862 H 0.22758 0.35 0.17447 0.0
C863 C 0.29149 0.34108 0.33098 0.0
C864 C 0.26219 0.33484 0.26987 0.0
H865 H 0.24678 0.33267 0.17348 0.0
C866 C 0.25226 0.33708 0.29751 0.0
C867 C 0.26027 0.33368 0.22442 0.0
C868 C 0.2707 0.33195 0.19298 0.0
C869 C 0.24034 0.33758 0.28109 0.0
C870 C 0.23836 0.33564 0.23603 0.0
C871 C 0.24834 0.33402 0.20809 0.0
C872 C 0.22595 0.33453 0.21773 0.0
C873 C 0.22997 0.34003 0.31217 0.0
C874 C 0.21838 0.32499 0.2314 0.0
C875 C 0.20672 0.32372 0.21397 0.0
C876 C 0.20241 0.33195 0.18238 0.0
C877 C 0.21008 0.34142 0.16826 0.0
C878 C 0.2218 0.34265 0.18568 0.0
H879 H 0.23316 0.3447 0.34221 0.0
H880 H 0.22282 0.3457 0.29649 0.0
H881 H 0.2258 0.33124 0.32198 0.0
H882 H 0.22153 0.31847 0.25541 0.0
H883 H 0.20108 0.3163 0.22546 0.0
H884 H 0.39977 0.54263 0.0991 0.0
H885 H 0.39856 0.52182 0.07047 0.0
H886 H 0.43478 0.52532 0.01756 0.0
H887 H 0.43616 0.54596 0.04641 0.0
H888 H 0.40033 0.51492 0.98317 0.0
H889 H 0.43647 0.4928 0.0814 0.0
H890 H 0.42992 0.50733 0.09596 0.0
H891 H 0.44157 0.50643 0.0548 0.0
C892 C 0.40754 0.5389 0.08189 0.0
C893 C 0.41807 0.54593 0.07512 0.0
C894 C 0.40682 0.52703 0.06549 0.0
C895 C 0.41664 0.52199 0.04244 0.0
C896 C 0.4272 0.52894 0.03607 0.0
H897 H 0.43352 0.45953 0.88645 0.0
H898 H 0.43244 0.47918 0.92372 0.0
C899 C 0.42793 0.54078 0.05238 0.0
C900 C 0.41569 0.50972 0.02273 0.0
H901 H 0.42997 0.48215 0.01733 0.0
C902 C 0.4067 0.50768 0.99101 0.0
C903 C 0.42402 0.50032 0.0331 0.0
C904 C 0.43346 0.50177 0.06849 0.0
C905 C 0.40612 0.49663 0.96807 0.0
C906 C 0.41469 0.4874 0.97752 0.0
C907 C 0.42348 0.48932 0.00999 0.0
C908 C 0.41491 0.47575 0.95338 0.0
C909 C 0.39664 0.49506 0.93287 0.0
C910 C 0.40536 0.46736 0.95768 0.0
C911 C 0.40594 0.45611 0.93646 0.0
C912 C 0.4161 0.45307 0.91067 0.0
C913 C 0.42556 0.46159 0.90595 0.0
C914 C 0.42498 0.47281 0.92729 0.0
H915 H 0.39225 0.50384 0.92398 0.0
H916 H 0.40077 0.49102 0.90312 0.0
H917 H 0.38947 0.48876 0.94461 0.0
H918 H 0.39759 0.46942 0.97816 0.0
H919 H 0.39853 0.44973 0.94088 0.0
H920 H 0.29204 0.64348 0.67672 0.0
H921 H 0.27237 0.64182 0.71362 0.0
H922 H 0.26114 0.67605 0.65755 0.0
H923 H 0.28072 0.67775 0.62012 0.0
H924 H 0.26344 0.65841 0.77464 0.0
H925 H 0.23189 0.65376 0.63422 0.0
H926 H 0.24811 0.65131 0.62944 0.0
H927 H 0.24205 0.66652 0.63014 0.0
C928 C 0.28532 0.65057 0.67165 0.0
C929 C 0.28795 0.66076 0.64546 0.0
C930 C 0.2741 0.64961 0.69286 0.0
C931 C 0.26528 0.65875 0.688 0.0
C932 C 0.26775 0.66879 0.6611 0.0
H933 H 0.20572 0.67846 0.85714 0.0
H934 H 0.22511 0.67673 0.81846 0.0
C935 C 0.27897 0.66977 0.63988 0.0
C936 C 0.25383 0.6582 0.71336 0.0
H937 H 0.22289 0.6581 0.7033 0.0
C938 C 0.25457 0.65824 0.75909 0.0
C939 C 0.2423 0.65787 0.69294 0.0
C940 C 0.24099 0.65724 0.64398 0.0
C941 C 0.24404 0.65828 0.78501 0.0
C942 C 0.2325 0.65844 0.76456 0.0
C943 C 0.23176 0.65808 0.71885 0.0
C944 C 0.22106 0.65917 0.78992 0.0
C945 C 0.24535 0.65808 0.83401 0.0
C946 C 0.21233 0.64991 0.78638 0.0
C947 C 0.20122 0.65089 0.80829 0.0
C948 C 0.19861 0.6612 0.83392 0.0
C949 C 0.20746 0.67038 0.83788 0.0
C950 C 0.21858 0.66939 0.81595 0.0
H951 H 0.25447 0.6547 0.84416 0.0
H952 H 0.24426 0.66747 0.84682 0.0
H953 H 0.23826 0.65225 0.84921 0.0
H954 H 0.21407 0.64198 0.7663 0.0
H955 H 0.19459 0.64367 0.80444 0.0
H956 H 0.06095 0.45576 0.60674 0.0
H957 H 0.06123 0.47527 0.56848 0.0
H958 H 0.09801 0.46832 0.5257 0.0
H959 H 0.09775 0.44865 0.56322 0.0
H960 H 0.07659 0.49508 0.57872 0.0
H961 H 0.08034 0.47583 0.41147 0.0
H962 H 0.07643 0.46664 0.45824 0.0
H963 H 0.09198 0.47099 0.44882 0.0
C964 C 0.06912 0.45838 0.58934 0.0
C965 C 0.0793 0.45062 0.58782 0.0
C966 C 0.06926 0.46953 0.56745 0.0
C967 C 0.07955 0.47312 0.54362 0.0
C968 C 0.08987 0.46558 0.54307 0.0
H969 H 0.09319 0.53936 0.39366 0.0
H970 H 0.0951 0.51935 0.42844 0.0
C971 C 0.08973 0.45439 0.56482 0.0
C972 C 0.07945 0.48483 0.51973 0.0
H973 H 0.08102 0.4973 0.41775 0.0
C974 C 0.07756 0.49557 0.54354 0.0
C975 C 0.08077 0.48542 0.47382 0.0
C976 C 0.08239 0.47411 0.44643 0.0
C977 C 0.07692 0.50691 0.52269 0.0
C978 C 0.07802 0.50748 0.47677 0.0
C979 C 0.08016 0.49679 0.45296 0.0
C980 C 0.07663 0.5191 0.45296 0.0
C981 C 0.07515 0.51821 0.55001 0.0
C982 C 0.0655 0.52535 0.45411 0.0
C983 C 0.06437 0.53674 0.43436 0.0
C984 C 0.07435 0.54206 0.41288 0.0
C985 C 0.08534 0.53552 0.41007 0.0
C986 C 0.08647 0.52411 0.42993 0.0
H987 H 0.07757 0.51662 0.58474 0.0
H988 H 0.08072 0.52587 0.53737 0.0
H989 H 0.06543 0.52098 0.54869 0.0
H990 H 0.05774 0.5215 0.47101 0.0
H991 H 0.05574 0.54147 0.4368 0.0
H992 H 0.12845 0.15513 0.01984 0.0
H993 H 0.12025 0.14396 0.95755 0.0
H994 H 0.15368 0.12353 0.9473 0.0
H995 H 0.16205 0.13472 0.00978 0.0
H996 H 0.13234 0.14178 0.86895 0.0
H997 H 0.12433 0.09798 0.95637 0.0
H998 H 0.12543 0.11232 0.98501 0.0
H999 H 0.13885 0.10542 0.96271 0.0
C1000 C 0.13409 0.14828 0.00438 0.0
C1001 C 0.14589 0.14578 0.0198 0.0
C1002 C 0.12939 0.14192 0.96881 0.0
C1003 C 0.13634 0.13289 0.94829 0.0
C1004 C 0.14816 0.13042 0.96314 0.0
H1005 H 0.11276 0.08452 0.73757 0.0
H1006 H 0.12436 0.09375 0.79733 0.0
C1007 C 0.15293 0.13685 -0.00136 0.0
C1008 C 0.13112 0.12616 0.91109 0.0
H1009 H 0.11808 0.09908 0.88304 0.0
C1010 C 0.1293 0.13242 0.8718 0.0
C1011 C 0.12728 0.11395 0.91511 0.0
C1012 C 0.12898 0.10696 0.95704 0.0
C1013 C 0.12351 0.12681 0.83637 0.0
C1014 C 0.11917 0.11475 0.84093 0.0
C1015 C 0.12136 0.10836 0.87981 0.0
C1016 C 0.11191 0.10882 0.80628 0.0
C1017 C 0.12212 0.13386 0.79437 0.0
C1018 C 0.1009 0.11405 0.79256 0.0
C1019 C 0.0943 0.10886 0.75844 0.0
C1020 C 0.09852 0.09825 0.73775 0.0
C1021 C 0.10929 0.09272 0.75279 0.0
C1022 C 0.11594 0.09798 0.78685 0.0
H1023 H 0.12901 0.14123 0.79176 0.0
H1024 H 0.12301 0.12779 0.76554 0.0
H1025 H 0.11297 0.13815 0.79352 0.0
H1026 H 0.09747 0.12225 0.80797 0.0
H1027 H 0.08597 0.11326 0.74795 0.0
H1028 H 0.13066 0.83814 0.9821 0.0
H1029 H 0.12265 0.84923 0.04493 0.0
H1030 H 0.15559 0.87048 0.05144 0.0
H1031 H 0.16378 0.85937 0.9884 0.0
H1032 H 0.13551 0.85206 0.1327 0.0
H1033 H 0.12525 0.89516 0.04366 0.0
H1034 H 0.12648 0.88072 0.0157 0.0
H1035 H 0.1399 0.88805 0.03602 0.0
C1036 C 0.13624 0.84515 -0.00313 0.0
C1037 C 0.14784 0.8479 0.98022 0.0
C1038 C 0.13164 0.85146 0.03276 0.0
C1039 C 0.13851 0.8607 0.05239 0.0
C1040 C 0.15015 0.86342 0.03633 0.0
H1041 H 0.11382 0.90938 0.26093 0.0
H1042 H 0.1257 0.90021 0.20174 0.0
C1043 C 0.15481 0.85704 0.00051 0.0
C1044 C 0.13336 0.86741 0.08977 0.0
H1045 H 0.11938 0.89408 0.11735 0.0
C1046 C 0.13207 0.86128 0.12958 0.0
C1047 C 0.129 0.87945 0.08541 0.0
C1048 C 0.13014 0.88629 0.04294 0.0
C1049 C 0.12629 0.86683 0.16519 0.0
C1050 C 0.12139 0.87868 0.16028 0.0
C1051 C 0.12307 0.88496 0.12086 0.0
C1052 C 0.11404 0.88445 0.19506 0.0
C1053 C 0.12548 0.85993 0.20769 0.0
C1054 C 0.10338 0.87878 0.20996 0.0
C1055 C 0.09662 0.88394 0.24377 0.0
C1056 C 0.10031 0.89496 0.26296 0.0
C1057 C 0.11075 0.90086 0.24688 0.0
C1058 C 0.11756 0.89564 0.21315 0.0
H1059 H 0.13276 0.85293 0.21026 0.0
H1060 H 0.12619 0.86617 0.23609 0.0
H1061 H 0.11658 0.85519 0.20941 0.0
H1062 H 0.10032 0.87031 0.19559 0.0
H1063 H 0.08855 0.87923 0.25509 0.0
H1064 H 0.39264 0.91431 0.25574 0.0
H1065 H 0.38178 0.90813 0.32194 0.0
H1066 H 0.38951 0.87047 0.29318 0.0
H1067 H 0.4005 0.87653 0.2275 0.0
H1068 H 0.36145 0.89295 0.32815 0.0
H1069 H 0.40053 0.8738 0.41985 0.0
H1070 H 0.40246 0.8835 0.37281 0.0
H1071 H 0.39906 0.86759 0.36593 0.0
C1072 C 0.39212 0.90472 0.26372 0.0
C1073 C 0.39748 0.89591 0.23648 0.0
C1074 C 0.3859 0.90121 0.30149 0.0
C1075 C 0.38501 0.88887 0.31274 0.0
C1076 C 0.39033 0.88006 0.28557 0.0
H1077 H 0.34922 0.84344 0.49921 0.0
H1078 H 0.36004 0.85255 0.43777 0.0
C1079 C 0.39655 0.88355 0.2479 0.0
C1080 C 0.37815 0.88507 0.35195 0.0
H1081 H 0.38069 0.86867 0.44606 0.0
C1082 C 0.36566 0.88777 0.35425 0.0
C1083 C 0.3837 0.87835 0.3859 0.0
C1084 C 0.3972 0.87574 0.38632 0.0
C1085 C 0.35847 0.88348 0.38885 0.0
C1086 C 0.36397 0.87644 0.42204 0.0
C1087 C 0.37651 0.87401 0.42031 0.0
C1088 C 0.35684 0.87113 0.45819 0.0
C1089 C 0.34499 0.88613 0.38893 0.0
C1090 C 0.35144 0.8786 0.48988 0.0
C1091 C 0.34524 0.87342 0.52515 0.0
C1092 C 0.3444 0.86069 0.52927 0.0
C1093 C 0.34969 0.85327 0.49703 0.0
C1094 C 0.35589 0.85845 0.46193 0.0
H1095 H 0.3418 0.88974 0.35703 0.0
H1096 H 0.33974 0.87777 0.39679 0.0
H1097 H 0.34295 0.89302 0.4144 0.0
H1098 H 0.35223 0.88842 0.48779 0.0
H1099 H 0.3413 0.87939 0.54948 0.0
H1100 H 0.40983 0.08804 0.70158 0.0
H1101 H 0.39817 0.09677 0.64119 0.0
H1102 H 0.36546 0.09527 0.71888 0.0
H1103 H 0.37706 0.08674 0.77972 0.0
H1104 H 0.37744 0.08874 0.5949 0.0
H1105 H 0.36838 0.13143 0.68725 0.0
H1106 H 0.37948 0.12034 0.70486 0.0
H1107 H 0.36353 0.11765 0.7136 0.0
C1108 C 0.40014 0.08946 0.70571 0.0
C1109 C 0.3944 0.08685 0.74562 0.0
C1110 C 0.39349 0.09443 0.67117 0.0
C1111 C 0.38102 0.09687 0.67597 0.0
C1112 C 0.37514 0.09369 0.71493 0.0
H1113 H 0.33314 0.13795 0.50068 0.0
H1114 H 0.34037 0.12475 0.55982 0.0
C1115 C 0.38178 0.08878 0.74956 0.0
C1116 C 0.37434 0.10325 0.64086 0.0
H1117 H 0.36007 0.13003 0.61665 0.0
C1118 C 0.37358 0.09774 0.59965 0.0
C1119 C 0.3693 0.11497 0.64732 0.0
C1120 C 0.37027 0.12152 0.6905 0.0
C1121 C 0.368 0.10372 0.56448 0.0
C1122 C 0.36325 0.11556 0.5707 0.0
C1123 C 0.3637 0.12093 0.61217 0.0
C1124 C 0.35862 0.12294 0.53394 0.0
C1125 C 0.3673 0.09736 0.52093 0.0
C1126 C 0.36654 0.12636 0.50026 0.0
C1127 C 0.36248 0.13392 0.46672 0.0
C1128 C 0.35042 0.13823 0.4663 0.0
C1129 C 0.34247 0.13476 0.50006 0.0
C1130 C 0.34657 0.12721 0.53378 0.0
H1131 H 0.36808 0.08732 0.52454 0.0
H1132 H 0.35862 0.09951 0.50398 0.0
H1133 H 0.37493 0.10049 0.50003 0.0
H1134 H 0.37594 0.12337 0.50035 0.0
H1135 H 0.36885 0.13644 0.44128 0.0
H1136 H 0.86869 0.84578 0.96481 0.0
H1137 H 0.87648 0.85654 0.02851 0.0
H1138 H 0.8404 0.8699 0.05698 0.0
H1139 H 0.83242 0.85897 0.99334 0.0
H1140 H 0.87567 0.88148 0.0458 0.0
H1141 H 0.85146 0.8546 0.17289 0.0
H1142 H 0.85271 0.84954 0.11704 0.0
H1143 H 0.84202 0.86126 0.13132 0.0
C1144 C 0.86237 0.85095 0.98465 0.0
C1145 C 0.84992 0.85148 0.97412 0.0
C1146 C 0.86686 0.85712 0.02099 0.0
C1147 C 0.859 0.86392 0.04759 0.0
C1148 C 0.84657 0.86454 0.03719 0.0
H1149 H 0.88844 0.91321 0.24758 0.0
H1150 H 0.87716 0.90538 0.18455 0.0
C1151 C 0.84204 0.85832 0.00078 0.0
C1152 C 0.864 0.8704 0.08589 0.0
H1153 H 0.86394 0.87068 0.1972 0.0
C1154 C 0.87305 0.87921 0.07894 0.0
C1155 C 0.8606 0.86731 0.12897 0.0
C1156 C 0.85124 0.8576 0.13827 0.0
C1157 C 0.87901 0.88484 0.11402 0.0
C1158 C 0.87565 0.88171 0.15711 0.0
C1159 C 0.86642 0.87309 0.16405 0.0
C1160 C 0.88223 0.88658 0.19543 0.0
C1161 C 0.88917 0.89372 0.10468 0.0
C1162 C 0.8886 0.87856 0.22277 0.0
C1163 C 0.89497 0.88297 0.25882 0.0
C1164 C 0.89507 0.8955 0.26827 0.0
C1165 C 0.88861 0.90352 0.24096 0.0
C1166 C 0.88219 0.89908 0.2049 0.0
H1167 H 0.8923 0.89318 0.07026 0.0
H1168 H 0.8859 0.90312 0.11078 0.0
H1169 H 0.89708 0.892 0.12645 0.0
H1170 H 0.88873 0.86888 0.21598 0.0
H1171 H 0.89983 0.87654 0.27921 0.0
H1172 H 0.83215 0.14009 -0.00112 0.0
H1173 H 0.83916 0.12853 0.93522 0.0
H1174 H 0.87625 0.13161 0.98024 0.0
H1175 H 0.86936 0.14291 0.04406 0.0
H1176 H 0.85451 0.13592 0.87109 0.0
H1177 H 0.87392 0.09559 0.95373 0.0
H1178 H 0.86396 0.1062 0.98119 0.0
H1179 H 0.87996 0.10949 0.97553 0.0
C1180 C 0.84179 0.13821 0.99538 0.0
C1181 C 0.8502 0.14238 0.02659 0.0
C1182 C 0.84577 0.1316 0.95905 0.0
C1183 C 0.85819 0.12901 0.95348 0.0
C1184 C 0.86658 0.13321 0.98451 0.0
H1185 H 0.90107 0.1185 0.72633 0.0
H1186 H 0.88945 0.12558 0.78921 0.0
C1187 C 0.86263 0.13977 0.02082 0.0
C1188 C 0.86257 0.12261 0.91395 0.0
H1189 H 0.88099 0.09937 0.88043 0.0
C1190 C 0.86014 0.12782 0.87306 0.0
C1191 C 0.86973 0.11191 0.91646 0.0
C1192 C 0.87194 0.1054 0.95908 0.0
C1193 C 0.86525 0.123 0.83483 0.0
C1194 C 0.87319 0.11288 0.8378 0.0
C1195 C 0.87505 0.10725 0.87834 0.0
C1196 C 0.88017 0.10845 0.79966 0.0
C1197 C 0.8622 0.12889 0.7917 0.0
C1198 C 0.87911 0.09633 0.78561 0.0
C1199 C 0.88586 0.0922 0.74982 0.0
C1200 C 0.89381 0.10012 0.7277 0.0
C1201 C 0.89497 0.11219 0.74241 0.0
C1202 C 0.88826 0.11629 0.77815 0.0
H1203 H 0.8533 0.13371 0.79312 0.0
H1204 H 0.8693 0.13571 0.78362 0.0
H1205 H 0.86186 0.12205 0.76501 0.0
H1206 H 0.87299 0.09011 0.80209 0.0
H1207 H 0.88478 0.08285 0.73932 0.0
H1208 H 0.60276 0.08322 0.74832 0.0
H1209 H 0.61469 0.08994 0.68519 0.0
H1210 H 0.60957 0.12736 0.72382 0.0
H1211 H 0.59785 0.12077 0.7871 0.0
H1212 H 0.60743 0.10459 0.61747 0.0
H1213 H 0.64621 0.12561 0.70474 0.0
H1214 H 0.63554 0.11552 0.73125 0.0
H1215 H 0.63181 0.13134 0.72332 0.0
C1216 C 0.60424 0.09287 0.74348 0.0
C1217 C 0.5994 0.10147 0.7728 0.0
C1218 C 0.61106 0.09669 0.70747 0.0
C1219 C 0.61321 0.10912 0.70038 0.0
C1220 C 0.60829 0.1177 0.72935 0.0
H1221 H 0.62679 0.14965 0.46941 0.0
H1222 H 0.61878 0.13877 0.53251 0.0
C1223 C 0.60151 0.11392 0.76532 0.0
C1224 C 0.62003 0.11326 0.6615 0.0
H1225 H 0.64354 0.13153 0.62978 0.0
C1226 C 0.61543 0.11034 0.6201 0.0
C1227 C 0.63058 0.12058 0.66501 0.0
C1228 C 0.63641 0.12334 0.70848 0.0
C1229 C 0.62074 0.11507 0.58213 0.0
C1230 C 0.63075 0.12311 0.58584 0.0
C1231 C 0.63575 0.12551 0.62708 0.0
C1232 C 0.63574 0.12963 0.54759 0.0
C1233 C 0.61551 0.11152 0.53842 0.0
C1234 C 0.64804 0.12841 0.53605 0.0
C1235 C 0.6527 0.13473 0.50014 0.0
C1236 C 0.64512 0.14241 0.47538 0.0
C1237 C 0.63285 0.14374 0.48755 0.0
C1238 C 0.62823 0.13745 0.52343 0.0
H1239 H 0.61067 0.10265 0.54024 0.0
H1240 H 0.60883 0.11852 0.52797 0.0
H1241 H 0.62274 0.11087 0.51317 0.0
H1242 H 0.65401 0.12249 0.55462 0.0
H1243 H 0.6622 0.13354 0.49163 0.0
H1244 H 0.65985 0.84894 0.48696 0.0
H1245 H 0.65165 0.85957 0.4232 0.0
H1246 H 0.61955 0.86928 0.49662 0.0
H1247 H 0.62751 0.85843 0.55999 0.0
H1248 H 0.61384 0.85999 0.41851 0.0
H1249 H 0.64905 0.89568 0.39837 0.0
H1250 H 0.65524 0.88055 0.39903 0.0
H1251 H 0.64788 0.88649 0.447 0.0
C1252 C 0.65109 0.85342 0.48959 0.0
C1253 C 0.64432 0.85284 0.52847 0.0
C1254 C 0.64645 0.85957 0.45324 0.0
C1255 C 0.63508 0.86538 0.45541 0.0
C1256 C 0.62837 0.86489 0.49432 0.0
H1257 H 0.60477 0.91384 0.25737 0.0
H1258 H 0.61345 0.90539 0.32457 0.0
C1259 C 0.63293 0.85868 0.53048 0.0
C1260 C 0.62979 0.87138 0.41649 0.0
H1261 H 0.63505 0.89318 0.33937 0.0
C1262 C 0.61844 0.8673 0.40138 0.0
C1263 C 0.63573 0.88103 0.39458 0.0
C1264 C 0.64759 0.88629 0.41079 0.0
C1265 C 0.61297 0.87244 0.36442 0.0
C1266 C 0.61917 0.88169 0.3413 0.0
C1267 C 0.63039 0.88598 0.35693 0.0
C1268 C 0.61422 0.88688 0.30044 0.0
C1269 C 0.60053 0.86799 0.35082 0.0
C1270 C 0.612 0.87931 0.26448 0.0
C1271 C 0.60698 0.88407 0.22635 0.0
C1272 C 0.60422 0.89654 0.22322 0.0
C1273 C 0.60676 0.90419 0.25887 0.0
C1274 C 0.61172 0.89939 0.29721 0.0
H1275 H 0.5956 0.86369 0.37849 0.0
H1276 H 0.59488 0.87555 0.3378 0.0
H1277 H 0.60157 0.86103 0.32483 0.0
H1278 H 0.61415 0.86969 0.26594 0.0
H1279 H 0.60527 0.87796 0.1993 0.0
H1280 H 0.62952 0.63626 0.561 0.0
H1281 H 0.62144 0.62626 0.49611 0.0
H1282 H 0.6551 0.63323 0.42799 0.0
H1283 H 0.66339 0.64305 0.4933 0.0
H1284 H 0.61773 0.63675 0.41744 0.0
H1285 H 0.6492 0.59746 0.40069 0.0
H1286 H 0.64825 0.60647 0.44987 0.0
H1287 H 0.65677 0.61192 0.40374 0.0
C1288 C 0.63527 0.63557 0.53238 0.0
C1289 C 0.6471 0.64046 0.53224 0.0
C1290 C 0.63063 0.62984 0.49534 0.0
C1291 C 0.63771 0.62888 0.45742 0.0
C1292 C 0.64958 0.63364 0.45723 0.0
H1293 H 0.60857 0.61897 0.1978 0.0
H1294 H 0.61845 0.62642 0.26393 0.0
C1295 C 0.65427 0.63932 0.49446 0.0
C1296 C 0.63232 0.62362 0.41739 0.0
H1297 H 0.63585 0.60129 0.34088 0.0
C1298 C 0.62167 0.62896 0.40081 0.0
C1299 C 0.6374 0.61338 0.39607 0.0
C1300 C 0.64847 0.60689 0.41368 0.0
C1301 C 0.61602 0.62445 0.36316 0.0
C1302 C 0.62134 0.61449 0.34093 0.0
C1303 C 0.63188 0.60901 0.35782 0.0
C1304 C 0.61603 0.60968 0.30009 0.0
C1305 C 0.60431 0.63028 0.34794 0.0
C1306 C 0.6118 0.59764 0.29804 0.0
C1307 C 0.60622 0.5933 0.26009 0.0
C1308 C 0.60481 0.60095 0.22363 0.0
C1309 C 0.60938 0.61289 0.22548 0.0
C1310 C 0.615 0.61719 0.26328 0.0
H1311 H 0.59977 0.63542 0.37461 0.0
H1312 H 0.60634 0.63678 0.32121 0.0
H1313 H 0.59786 0.62334 0.33531 0.0
H1314 H 0.61258 0.59169 0.3261 0.0
H1315 H 0.60284 0.58403 0.2596 0.0
H1316 H 0.6158 0.40773 0.78224 0.0
H1317 H 0.62735 0.3989 0.72182 0.0
H1318 H 0.59392 0.39261 0.65142 0.0
H1319 H 0.58232 0.40163 0.71121 0.0
H1320 H 0.62534 0.37556 0.69305 0.0
H1321 H 0.6153 0.40741 0.55775 0.0
H1322 H 0.61239 0.41119 0.61414 0.0
H1323 H 0.60175 0.40199 0.584 0.0
C1324 C 0.61091 0.40465 0.7536 0.0
C1325 C 0.59813 0.40537 0.75152 0.0
C1326 C 0.61753 0.3996 0.71914 0.0
C1327 C 0.61151 0.39524 0.68194 0.0
C1328 C 0.59878 0.39619 0.67938 0.0
H1329 H 0.62463 0.34919 0.4642 0.0
H1330 H 0.61694 0.36213 0.52278 0.0
C1331 C 0.59215 0.40128 0.71373 0.0
C1332 C 0.61839 0.38878 0.64744 0.0
H1333 H 0.62301 0.38773 0.5374 0.0
C1334 C 0.62501 0.37832 0.65909 0.0
C1335 C 0.61794 0.39243 0.60322 0.0
C1336 C 0.61156 0.40394 0.58905 0.0
C1337 C 0.63073 0.37109 0.62739 0.0
C1338 C 0.62987 0.3745 0.58306 0.0
C1339 C 0.62359 0.38515 0.5715 0.0
C1340 C 0.63476 0.36671 0.5479 0.0
C1341 C 0.6372 0.3596 0.64125 0.0
C1342 C 0.64735 0.36505 0.54271 0.0
C1343 C 0.6518 0.35764 0.50916 0.0
C1344 C 0.64371 0.3518 0.48038 0.0
C1345 C 0.63111 0.35352 0.48585 0.0
C1346 C 0.62669 0.36094 0.51921 0.0
H1347 H 0.63538 0.35727 0.67593 0.0
H1348 H 0.63435 0.35182 0.62046 0.0
H1349 H 0.64716 0.36082 0.63712 0.0
H1350 H 0.65371 0.36955 0.56437 0.0
H1351 H 0.66156 0.35653 0.50567 0.0
H1352 H 0.88741 0.41176 0.75851 0.0
H1353 H 0.87613 0.40257 0.81914 0.0
H1354 H 0.88672 0.36681 0.77492 0.0
H1355 H 0.89815 0.37586 0.715 0.0
H1356 H 0.85683 0.38633 0.81482 0.0
H1357 H 0.89574 0.36579 0.90344 0.0
H1358 H 0.89772 0.37718 0.86157 0.0
H1359 H 0.89529 0.36149 0.84699 0.0
C1360 C 0.88743 0.40195 0.76199 0.0
C1361 C 0.89373 0.39454 0.73209 0.0
C1362 C 0.88097 0.39672 0.79655 0.0
C1363 C 0.88075 0.38403 0.80184 0.0
C1364 C 0.887 0.37664 0.772 0.0
H1365 H 0.84499 0.33096 0.96306 0.0
H1366 H 0.85529 0.34222 0.90495 0.0
C1367 C 0.89349 0.38183 0.73761 0.0
C1368 C 0.87363 0.3784 0.83749 0.0
H1369 H 0.87592 0.3587 0.92318 0.0
C1370 C 0.861 0.38039 0.83884 0.0
C1371 C 0.87913 0.37069 0.86877 0.0
C1372 C 0.89273 0.36875 0.87048 0.0
C1373 C 0.85366 0.37452 0.86985 0.0
C1374 C 0.85913 0.36655 0.90023 0.0
C1375 C 0.87177 0.36474 0.89943 0.0
C1376 C 0.85194 0.35994 0.9333 0.0
C1377 C 0.84008 0.3766 0.86927 0.0
C1378 C 0.84656 0.36623 0.96811 0.0
C1379 C 0.84071 0.35984 0.00145 0.0
C1380 C 0.84016 0.34704 0.00046 0.0
C1381 C 0.84524 0.3408 0.96476 0.0
C1382 C 0.85114 0.34721 0.93159 0.0
H1383 H 0.83705 0.38132 0.83909 0.0
H1384 H 0.83515 0.3678 0.87202 0.0
H1385 H 0.83748 0.38229 0.8977 0.0
H1386 H 0.84722 0.37606 0.97015 0.0
H1387 H 0.83689 0.36491 0.0285 0.0
H1388 H 0.87979 0.58742 0.27936 0.0
H1389 H 0.868 0.59608 0.21921 0.0
H1390 H 0.90043 0.59738 0.1399 0.0
H1391 H 0.91222 0.58849 0.1994 0.0
H1392 H 0.87164 0.61835 0.18404 0.0
H1393 H 0.87603 0.58341 0.05495 0.0
H1394 H 0.87968 0.58035 0.11134 0.0
H1395 H 0.89055 0.58785 0.07651 0.0
C1396 C 0.88438 0.58934 0.24884 0.0
C1397 C 0.89696 0.58728 0.24417 0.0
C1398 C 0.87762 0.5943 0.21453 0.0
C1399 C 0.8833 0.59723 0.1749 0.0
C1400 C 0.89579 0.59491 0.1698 0.0
H1401 H 0.87208 0.64142 0.95172 0.0
H1402 H 0.879 0.62829 0.011 0.0
C1403 C 0.90254 0.5899 0.20399 0.0
C1404 C 0.87647 0.60375 0.14036 0.0
H1405 H 0.87028 0.60353 0.03122 0.0
C1406 C 0.87114 0.61501 0.15078 0.0
C1407 C 0.87582 0.59936 0.09703 0.0
C1408 C 0.88072 0.58702 0.08437 0.0
C1409 C 0.86572 0.62229 0.11856 0.0
C1410 C 0.86555 0.61812 0.07496 0.0
C1411 C 0.87049 0.60669 0.06475 0.0
C1412 C 0.86109 0.62589 0.03901 0.0
C1413 C 0.8607 0.63461 0.1309 0.0
C1414 C 0.8487 0.62882 0.03515 0.0
C1415 C 0.84468 0.63634 0.0012 0.0
C1416 C 0.85302 0.64103 0.9707 0.0
C1417 C 0.86542 0.638 0.97472 0.0
C1418 C 0.8694 0.63047 0.00847 0.0
H1419 H 0.86311 0.63721 0.16486 0.0
H1420 H 0.86417 0.64172 0.10832 0.0
H1421 H 0.85062 0.63447 0.12811 0.0
H1422 H 0.84215 0.62526 0.0583 0.0
H1423 H 0.83507 0.63847 -0.00113 0.0
H1424 H 0.33675 0.36153 0.49026 0.0
H1425 H 0.34516 0.37434 0.5485 0.0
H1426 H 0.38015 0.35704 0.53252 0.0
H1427 H 0.37196 0.34443 0.4741 0.0
H1428 H 0.35568 0.36772 0.6266 0.0
H1429 H 0.38893 0.39286 0.52537 0.0
H1430 H 0.37672 0.38401 0.50196 0.0
H1431 H 0.39056 0.3767 0.51957 0.0
C1432 C 0.34624 0.36048 0.49914 0.0
C1433 C 0.35372 0.35204 0.47736 0.0
C1434 C 0.35102 0.36781 0.53231 0.0
C1435 C 0.36334 0.36683 0.54403 0.0
C1436 C 0.37072 0.35819 0.52307 0.0
H1437 H 0.41294 0.38505 0.74277 0.0
H1438 H 0.40141 0.37793 0.67958 0.0
C1439 C 0.36598 0.35092 0.48989 0.0
C1440 C 0.36851 0.37445 0.57925 0.0
H1441 H 0.39253 0.39302 0.60296 0.0
C1442 C 0.36359 0.37345 0.62136 0.0
C1443 C 0.37877 0.38198 0.57217 0.0
C1444 C 0.38397 0.38406 0.52721 0.0
C1445 C 0.36913 0.3792 0.65708 0.0
C1446 C 0.37978 0.38615 0.65026 0.0
C1447 C 0.38438 0.38761 0.60794 0.0
C1448 C 0.38688 0.39106 0.68713 0.0
C1449 C 0.36396 0.37735 0.7022 0.0
C1450 C 0.38258 0.40095 0.71164 0.0
C1451 C 0.38918 0.4051 0.74773 0.0
C1452 C 0.40013 0.39935 0.75983 0.0
C1453 C 0.40451 0.38963 0.73445 0.0
C1454 C 0.39796 0.38556 0.69831 0.0
H1455 H 0.35631 0.37072 0.70242 0.0
H1456 H 0.37117 0.37406 0.72469 0.0
H1457 H 0.36057 0.38617 0.71502 0.0
H1458 H 0.37407 0.40535 0.70313 0.0
H1459 H 0.38557 0.41261 0.76664 0.0
H1460 H 0.33004 0.6377 0.49371 0.0
H1461 H 0.33857 0.62709 0.43035 0.0
H1462 H 0.37447 0.63975 0.4649 0.0
H1463 H 0.3661 0.65022 0.52839 0.0
H1464 H 0.35159 0.6365 0.36004 0.0
H1465 H 0.37928 0.60297 0.4519 0.0
H1466 H 0.36739 0.61189 0.47714 0.0
H1467 H 0.38219 0.61842 0.4679 0.0
C1468 C 0.33975 0.63821 0.48783 0.0
C1469 C 0.34741 0.64474 0.51622 0.0
C1470 C 0.3446 0.63214 0.45168 0.0
C1471 C 0.35717 0.63245 0.44351 0.0
C1472 C 0.36478 0.63916 0.47126 0.0
H1473 H 0.39828 0.62104 0.21031 0.0
H1474 H 0.38678 0.62875 0.27259 0.0
C1475 C 0.35996 0.64521 0.50737 0.0
C1476 C 0.36236 0.62605 0.40533 0.0
H1477 H 0.38392 0.6052 0.376 0.0
C1478 C 0.35856 0.62956 0.36347 0.0
C1479 C 0.3713 0.61686 0.40998 0.0
C1480 C 0.3752 0.61221 0.45416 0.0
C1481 C 0.36386 0.62448 0.32601 0.0
C1482 C 0.37333 0.61583 0.3307 0.0
C1483 C 0.37675 0.61194 0.37254 0.0
C1484 C 0.38014 0.61107 0.29269 0.0
C1485 C 0.35931 0.62844 0.28179 0.0
C1486 C 0.3805 0.59853 0.28412 0.0
C1487 C 0.38717 0.59406 0.24868 0.0
C1488 C 0.39363 0.60208 0.22143 0.0
C1489 C 0.39334 0.61463 0.23048 0.0
C1490 C 0.3867 0.61907 0.26588 0.0
H1491 H 0.34989 0.63212 0.28367 0.0
H1492 H 0.36529 0.63577 0.26907 0.0
H1493 H 0.35944 0.62077 0.2582 0.0
H1494 H 0.37558 0.5922 0.30472 0.0
H1495 H 0.38723 0.58434 0.24262 0.0
H1496 H 0.123 0.64436 0.96126 0.0
H1497 H 0.11651 0.63451 0.02867 0.0
H1498 H 0.15401 0.63021 0.06765 0.0
H1499 H 0.16065 0.6399 -0.00032 0.0
H1500 H 0.14015 0.60928 0.07993 0.0
H1501 H 0.11708 0.64971 0.15001 0.0
H1502 H 0.11182 0.64601 0.09618 0.0
H1503 H 0.12735 0.65071 0.10418 0.0
C1504 C 0.12989 0.64137 0.98419 0.0
C1505 C 0.14234 0.64298 0.97526 0.0
C1506 C 0.12615 0.63579 0.02279 0.0
C1507 C 0.13478 0.63183 0.05341 0.0
C1508 C 0.14722 0.63328 0.04447 0.0
H1509 H 0.11346 0.61193 0.31668 0.0
H1510 H 0.12382 0.62074 0.25372 0.0
C1511 C 0.15099 0.63883 0.0057 0.0
C1512 C 0.13074 0.62602 0.09444 0.0
H1513 H 0.11278 0.6306 0.1837 0.0
C1514 C 0.13425 0.61396 0.10289 0.0
C1515 C 0.12321 0.63222 0.12457 0.0
C1516 C 0.11974 0.64542 0.11858 0.0
C1517 C 0.1301 0.60778 0.14011 0.0
C1518 C 0.12206 0.61379 0.16905 0.0
C1519 C 0.11886 0.62597 0.16122 0.0
C1520 C 0.1167 0.60765 0.20751 0.0
C1521 C 0.13442 0.59493 0.14823 0.0
C1522 C 0.10934 0.5973 0.20245 0.0
C1523 C 0.10345 0.59218 0.23848 0.0
C1524 C 0.10471 0.59745 0.28004 0.0
C1525 C 0.11227 0.60768 0.28507 0.0
C1526 C 0.1182 0.61273 0.24915 0.0
H1527 H 0.1431 0.59302 0.13089 0.0
H1528 H 0.13576 0.59322 0.18361 0.0
H1529 H 0.12747 0.58845 0.13595 0.0
H1530 H 0.10783 0.5934 0.17044 0.0
H1531 H 0.09763 0.58434 0.23354 0.0
H1532 H 0.11042 0.41292 0.73843 0.0
H1533 H 0.12273 0.40622 0.80066 0.0
H1534 H 0.10578 0.37084 0.79495 0.0
H1535 H 0.09364 0.37734 0.7325 0.0
H1536 H 0.11566 0.39796 0.88115 0.0
H1537 H 0.14181 0.3623 0.79455 0.0
H1538 H 0.13301 0.37371 0.76617 0.0
H1539 H 0.12569 0.36038 0.78807 0.0
C1540 C 0.10933 0.40371 0.75041 0.0
C1541 C 0.10111 0.39563 0.73036 0.0
C1542 C 0.11638 0.3999 0.78589 0.0
C1543 C 0.11535 0.38796 0.80174 0.0
C1544 C 0.10695 0.37999 0.78244 0.0
H1545 H 0.12886 0.35605 0.04846 0.0
H1546 H 0.12136 0.36687 0.98453 0.0
C1547 C 0.09995 0.38376 0.74695 0.0
C1548 C 0.12274 0.38386 0.83934 0.0
H1549 H 0.14164 0.36103 0.87288 0.0
C1550 C 0.12148 0.38999 0.87925 0.0
C1551 C 0.13054 0.37363 0.83656 0.0
C1552 C 0.13296 0.3672 0.7939 0.0
C1553 C 0.12728 0.38573 0.91708 0.0
C1554 C 0.1343 0.37493 0.91497 0.0
C1555 C 0.13612 0.36922 0.87456 0.0
C1556 C 0.1391 0.36893 0.95465 0.0
C1557 C 0.12573 0.39277 0.95899 0.0
C1558 C 0.15155 0.36621 0.95858 0.0
C1559 C 0.15587 0.35986 0.99501 0.0
C1560 C 0.14779 0.3561 0.02794 0.0
C1561 C 0.13535 0.35888 0.02385 0.0
C1562 C 0.13104 0.36517 0.98747 0.0
H1563 H 0.12379 0.40254 0.95248 0.0
H1564 H 0.11788 0.389 0.97737 0.0
H1565 H 0.13397 0.39211 0.97985 0.0
H1566 H 0.1579 0.36894 0.93335 0.0
H1567 H 0.16551 0.35784 -0.0028 0.0
H1568 H 0.17187 0.29722 0.09292 0.0
H1569 H 0.1704 0.27505 0.09244 0.0
H1570 H 0.13259 0.27739 0.1297 0.0
H1571 H 0.1339 0.29964 0.12952 0.0
H1572 H 0.16471 0.26092 0.16382 0.0
H1573 H 0.13173 0.25294 0.02928 0.0
H1574 H 0.13943 0.26731 0.03679 0.0
H1575 H 0.12662 0.2634 0.07049 0.0
C1576 C 0.16319 0.29304 0.10048 0.0
C1577 C 0.153 0.30019 0.11129 0.0
C1578 C 0.16237 0.28037 0.1002 0.0
C1579 C 0.15137 0.27459 0.11062 0.0
C1580 C 0.14111 0.28168 0.12071 0.0
H1581 H 0.13467 0.19793 0.15472 0.0
H1582 H 0.1336 0.22017 0.14933 0.0
C1583 C 0.1419 0.29439 0.12082 0.0
C1584 C 0.15094 0.26115 0.11375 0.0
H1585 H 0.13744 0.23574 0.07153 0.0
C1586 C 0.15877 0.25541 0.14356 0.0
C1587 C 0.14312 0.25402 0.08747 0.0
C1588 C 0.13481 0.25969 0.05391 0.0
C1589 C 0.15901 0.24272 0.14779 0.0
C1590 C 0.15131 0.23558 0.12116 0.0
C1591 C 0.14332 0.24129 0.09183 0.0
C1592 C 0.15172 0.22215 0.12262 0.0
C1593 C 0.16743 0.23701 0.18093 0.0
C1594 C 0.16219 0.21596 0.10866 0.0
C1595 C 0.16284 0.2033 0.1116 0.0
C1596 C 0.153 0.1966 0.12856 0.0
C1597 C 0.14242 0.20283 0.1417 0.0
C1598 C 0.14177 0.21551 0.13857 0.0
H1599 H 0.17064 0.24375 0.20541 0.0
H1600 H 0.16284 0.22941 0.19826 0.0
H1601 H 0.17552 0.23325 0.16393 0.0
H1602 H 0.1699 0.22095 0.09576 0.0
H1603 H 0.1711 0.19879 0.10103 0.0
H1604 H 0.95012 0.91786 0.33964 0.0
H1605 H 0.97231 0.91649 0.33932 0.0
H1606 H 0.97049 0.88318 0.4136 0.0
H1607 H 0.94822 0.88438 0.41365 0.0
H1608 H 0.98696 0.91636 0.41397 0.0
H1609 H 0.99418 0.87467 0.31428 0.0
H1610 H 0.9799 0.88284 0.31482 0.0
H1611 H 0.98387 0.873 0.35943 0.0
C1612 C 0.95441 0.91016 0.35552 0.0
C1613 C 0.9474 0.90123 0.37669 0.0
C1614 C 0.96709 0.9094 0.3553 0.0
C1615 C 0.97301 0.89968 0.37606 0.0
C1616 C 0.96607 0.89064 0.3967 0.0
H1617 H 0.05011 0.88564 0.42207 0.0
H1618 H 0.02784 0.88444 0.42027 0.0
C1619 C 0.95336 0.89138 0.39689 0.0
C1620 C 0.98647 0.89948 0.37824 0.0
H1621 H 0.01165 0.88342 0.34708 0.0
C1622 C 0.99236 0.90917 0.39928 0.0
C1623 C 0.99346 0.89003 0.35934 0.0
C1624 C 0.98757 0.87958 0.33536 0.0
C1625 C 0.00509 0.90969 0.40191 0.0
C1626 C 0.01209 0.90037 0.38232 0.0
C1627 C 0.00622 0.89056 0.36192 0.0
C1628 C 0.02555 0.90083 0.38199 0.0
C1629 C 0.01093 0.92015 0.42606 0.0
C1630 C 0.03159 0.91031 0.36032 0.0
C1631 C 0.04427 0.91104 0.36132 0.0
C1632 C 0.05115 0.90225 0.38383 0.0
C1633 C 0.04507 0.89258 0.4046 0.0
C1634 C 0.03236 0.89186 0.40357 0.0
H1635 H 0.00441 0.92468 0.44853 0.0
H1636 H 0.01892 0.917 0.44521 0.0
H1637 H 0.01413 0.92702 0.40215 0.0
H1638 H 0.02647 0.9172 0.34283 0.0
H1639 H 0.04866 0.91856 0.34474 0.0
H1640 H 0.33614 0.79577 0.7283 0.0
H1641 H 0.33826 0.77363 0.7253 0.0
H1642 H 0.34036 0.77521 0.58489 0.0
H1643 H 0.33843 0.79737 0.58754 0.0
H1644 H 0.32266 0.7577 0.68494 0.0
H1645 H 0.36918 0.75338 0.61612 0.0
H1646 H 0.36347 0.76745 0.63883 0.0
H1647 H 0.35929 0.76295 0.58444 0.0
C1648 C 0.33718 0.79143 0.69678 0.0
C1649 C 0.33713 0.79833 0.65814 0.0
C1650 C 0.33839 0.77878 0.69515 0.0
C1651 C 0.33963 0.77281 0.65493 0.0
C1652 C 0.33968 0.77967 0.61632 0.0
H1653 H 0.32265 0.69766 0.5989 0.0
H1654 H 0.3235 0.71986 0.60315 0.0
C1655 C 0.3385 0.79233 0.6179 0.0
C1656 C 0.34009 0.75935 0.65327 0.0
H1657 H 0.35712 0.73531 0.61749 0.0
C1658 C 0.33023 0.7528 0.67043 0.0
C1659 C 0.35004 0.75299 0.63476 0.0
C1660 C 0.36116 0.75953 0.61786 0.0
C1661 C 0.32991 0.74005 0.66876 0.0
C1662 C 0.33962 0.73371 0.64865 0.0
C1663 C 0.34963 0.74023 0.63241 0.0
C1664 C 0.33951 0.7203 0.64426 0.0
C1665 C 0.31924 0.73347 0.68893 0.0
C1666 C 0.34849 0.71323 0.66474 0.0
C1667 C 0.34809 0.70053 0.66215 0.0
C1668 C 0.33871 0.69471 0.63887 0.0
C1669 C 0.32994 0.70185 0.61737 0.0
C1670 C 0.33037 0.71454 0.61992 0.0
H1671 H 0.31432 0.73931 0.71275 0.0
H1672 H 0.31272 0.73088 0.66286 0.0
H1673 H 0.32224 0.72503 0.70576 0.0
H1674 H 0.35567 0.71754 0.68347 0.0
H1675 H 0.35501 0.69529 0.67895 0.0
H1676 H 0.44111 0.11558 0.87902 0.0
H1677 H 0.46322 0.11833 0.87386 0.0
H1678 H 0.46741 0.08041 0.84045 0.0
H1679 H 0.44542 0.07757 0.84529 0.0
H1680 H 0.48078 0.10544 0.92418 0.0
H1681 H 0.48766 0.09822 0.74687 0.0
H1682 H 0.47297 0.10184 0.77014 0.0
H1683 H 0.47875 0.08653 0.77253 0.0
C1684 C 0.44673 0.10786 0.87009 0.0
C1685 C 0.44151 0.09636 0.86253 0.0
C1686 C 0.45934 0.10945 0.8672 0.0
C1687 C 0.4669 0.09962 0.85617 0.0
C1688 C 0.4617 0.08817 0.84815 0.0
H1689 H 0.54133 0.0784 0.84902 0.0
H1690 H 0.51927 0.08085 0.84387 0.0
C1691 C 0.44913 0.08656 0.85122 0.0
C1692 C 0.48029 0.101 0.85581 0.0
H1693 H 0.50539 0.09672 0.79201 0.0
C1694 C 0.48619 0.10374 0.89519 0.0
C1695 C 0.48725 0.09874 0.81789 0.0
C1696 C 0.48135 0.09628 0.77434 0.0
C1697 C 0.49894 0.10367 0.89819 0.0
C1698 C 0.50592 0.10102 0.86055 0.0
C1699 C 0.5 0.09871 0.82082 0.0
C1700 C 0.51933 0.09986 0.86232 0.0
C1701 C 0.50482 0.10586 0.94203 0.0
C1702 C 0.52668 0.10981 0.87378 0.0
C1703 C 0.5393 0.10843 0.87696 0.0
C1704 C 0.54479 0.0971 0.86841 0.0
C1705 C 0.5374 0.08724 0.85594 0.0
C1706 C 0.5248 0.08862 0.85289 0.0
H1707 H 0.49815 0.10518 0.9692 0.0
H1708 H 0.51227 0.09921 0.94791 0.0
H1709 H 0.50881 0.11513 0.94262 0.0
H1710 H 0.52264 0.11862 0.88039 0.0
H1711 H 0.54475 0.11623 0.88633 0.0
H1712 H 0.16874 0.79494 0.89984 0.0
H1713 H 0.16746 0.77276 0.89586 0.0
H1714 H 0.1355 0.77561 0.81477 0.0
H1715 H 0.13661 0.79785 0.8188 0.0
H1716 H 0.13415 0.75744 0.8823 0.0
H1717 H 0.17629 0.75399 0.78283 0.0
H1718 H 0.178 0.76243 0.83267 0.0
H1719 H 0.16819 0.76815 0.79041 0.0
C1720 C 0.16137 0.79087 0.88141 0.0
C1721 C 0.15283 0.79816 0.8593 0.0
C1722 C 0.1607 0.7782 0.87905 0.0
C1723 C 0.15151 0.7726 0.85443 0.0
C1724 C 0.14269 0.7798 0.83372 0.0
H1725 H 0.15441 0.69742 0.76667 0.0
H1726 H 0.15199 0.71952 0.77059 0.0
C1727 C 0.14335 0.79249 0.83604 0.0
C1728 C 0.15136 0.75922 0.8493 0.0
H1729 H 0.16808 0.73547 0.80973 0.0
C1730 C 0.14152 0.75261 0.86628 0.0
C1731 C 0.16091 0.75302 0.82775 0.0
C1732 C 0.17141 0.75974 0.80698 0.0
C1733 C 0.14115 0.73986 0.86331 0.0
C1734 C 0.15095 0.73363 0.84329 0.0
C1735 C 0.16062 0.74028 0.82533 0.0
C1736 C 0.1515 0.72018 0.84113 0.0
C1737 C 0.13025 0.73318 0.88128 0.0
C1738 C 0.15205 0.71325 0.87952 0.0
C1739 C 0.15343 0.70062 0.87742 0.0
C1740 C 0.15438 0.69472 0.83684 0.0
C1741 C 0.15371 0.70168 0.79843 0.0
C1742 C 0.15232 0.71431 0.80058 0.0
H1743 H 0.12222 0.73927 0.8845 0.0
H1744 H 0.12775 0.72535 0.86013 0.0
H1745 H 0.13249 0.7296 0.91419 0.0
H1746 H 0.1517 0.71764 0.91115 0.0
H1747 H 0.15396 0.69553 0.90762 0.0
H1748 H 0.45073 0.90335 0.02478 0.0
H1749 H 0.47296 0.90259 0.02546 0.0
H1750 H 0.47288 0.90695 0.16533 0.0
H1751 H 0.45063 0.90796 0.16492 0.0
H1752 H 0.48808 0.92294 0.12415 0.0
H1753 H 0.49644 0.87607 0.0637 0.0
H1754 H 0.48665 0.88485 0.02888 0.0
H1755 H 0.48173 0.88103 0.08317 0.0
C1756 C 0.45542 0.904 0.05577 0.0
C1757 C 0.44892 0.90574 0.0948 0.0
C1758 C 0.46813 0.90348 0.05611 0.0
C1759 C 0.47455 0.90454 0.09551 0.0
C1760 C 0.46808 0.90605 0.13461 0.0
H1761 H 0.55144 0.91072 0.15968 0.0
H1762 H 0.52934 0.90811 0.16238 0.0
C1763 C 0.45537 0.90662 0.13429 0.0
C1764 C 0.48802 0.90502 0.09557 0.0
H1765 H 0.51359 0.88944 0.06525 0.0
C1766 C 0.49367 0.91557 0.11168 0.0
C1767 C 0.49527 0.8954 0.07907 0.0
C1768 C 0.48973 0.88365 0.0631 0.0
C1769 C 0.50636 0.91688 0.11089 0.0
C1770 C 0.51358 0.90732 0.09402 0.0
C1771 C 0.50798 0.89674 0.0781 0.0
C1772 C 0.52699 0.90824 0.09232 0.0
C1773 C 0.51194 0.92859 0.12712 0.0
C1774 C 0.53297 0.90887 0.05196 0.0
C1775 C 0.5456 0.91036 0.05024 0.0
C1776 C 0.55245 0.91116 0.08892 0.0
C1777 C 0.54643 0.9102 0.1293 0.0
C1778 C 0.53381 0.90875 0.13095 0.0
H1779 H 0.50506 0.93596 0.13037 0.0
H1780 H 0.51607 0.92701 0.15967 0.0
H1781 H 0.51925 0.93172 0.10473 0.0
H1782 H 0.52783 0.90846 0.02182 0.0
H1783 H 0.54996 0.91101 0.01864 0.0
H1784 H 0.32987 0.19925 0.4152 0.0
H1785 H 0.33269 0.2213 0.4188 0.0
H1786 H 0.3685 0.21753 0.36265 0.0
H1787 H 0.36575 0.19544 0.35854 0.0
H1788 H 0.35149 0.23571 0.45976 0.0
H1789 H 0.35011 0.24093 0.2791 0.0
H1790 H 0.34506 0.22725 0.30626 0.0
H1791 H 0.36104 0.23024 0.30015 0.0
C1792 C 0.33839 0.20308 0.40388 0.0
C1793 C 0.34755 0.1956 0.38621 0.0
C1794 C 0.33999 0.21568 0.40606 0.0
C1795 C 0.35073 0.22101 0.39046 0.0
C1796 C 0.36007 0.21356 0.37426 0.0
H1797 H 0.36592 0.29811 0.34682 0.0
H1798 H 0.36827 0.27605 0.35434 0.0
C1799 C 0.35849 0.20095 0.37209 0.0
C1800 C 0.35188 0.23441 0.38968 0.0
H1801 H 0.35271 0.25875 0.32055 0.0
C1802 C 0.35183 0.24077 0.42939 0.0
C1803 C 0.35236 0.24094 0.34994 0.0
C1804 C 0.35206 0.23454 0.30635 0.0
C1805 C 0.35214 0.25354 0.4304 0.0
C1806 C 0.35227 0.26007 0.39063 0.0
C1807 C 0.35263 0.2537 0.35097 0.0
C1808 C 0.35132 0.27351 0.38916 0.0
C1809 C 0.35235 0.25992 0.47399 0.0
C1810 C 0.34099 0.27936 0.40614 0.0
C1811 C 0.33962 0.29194 0.40193 0.0
C1812 C 0.34852 0.2989 0.3803 0.0
C1813 C 0.35892 0.29302 0.3637 0.0
C1814 C 0.36028 0.28042 0.36797 0.0
H1815 H 0.35594 0.25388 0.5001 0.0
H1816 H 0.35801 0.26829 0.47271 0.0
H1817 H 0.34293 0.26256 0.48304 0.0
H1818 H 0.33383 0.27415 0.42168 0.0
H1819 H 0.33147 0.29617 0.41489 0.0
H1820 H 0.94883 0.10485 0.55444 0.0
H1821 H 0.97106 0.10531 0.55973 0.0
H1822 H 0.96972 0.08008 0.66738 0.0
H1823 H 0.9475 0.07949 0.66232 0.0
H1824 H 0.98646 0.1112 0.63466 0.0
H1825 H 0.99227 0.06373 0.57472 0.0
H1826 H 0.97832 0.0722 0.56728 0.0
H1827 H 0.98187 0.06569 0.61949 0.0
C1828 C 0.95325 0.09943 0.57938 0.0
C1829 C 0.9464 0.09206 0.60775 0.0
C1830 C 0.96594 0.09973 0.58237 0.0
C1831 C 0.97199 0.09261 0.61355 0.0
C1832 C 0.96519 0.0855 0.6427 0.0
H1833 H 0.04827 0.07671 0.66025 0.0
H1834 H 0.02605 0.0779 0.66368 0.0
C1835 C 0.9525 0.08521 0.63983 0.0
C1836 C 0.98543 0.09242 0.61495 0.0
H1837 H 0.01 0.07403 0.59753 0.0
C1838 C 0.99164 0.10309 0.62656 0.0
C1839 C 0.9921 0.08181 0.60439 0.0
C1840 C 0.98584 0.07021 0.59042 0.0
C1841 C 0.00441 0.1034 0.62844 0.0
C1842 C 0.01109 0.0928 0.61745 0.0
C1843 C 0.00485 0.08212 0.60601 0.0
C1844 C 0.02458 0.0926 0.61693 0.0
C1845 C 0.0106 0.11497 0.64296 0.0
C1846 C 0.0311 0.10043 0.58934 0.0
C1847 C 0.0438 0.09982 0.58749 0.0
C1848 C 0.05019 0.09125 0.61278 0.0
C1849 C 0.04362 0.08341 0.64036 0.0
C1850 C 0.03093 0.08408 0.64238 0.0
H1851 H 0.00434 0.12087 0.66206 0.0
H1852 H 0.01876 0.11297 0.66313 0.0
H1853 H 0.01356 0.12017 0.61379 0.0
H1854 H 0.02636 0.10686 0.5686 0.0
H1855 H 0.04858 0.10593 0.56567 0.0
H1856 H 0.86616 0.69797 0.84512 0.0
H1857 H 0.86758 0.7202 0.84786 0.0
H1858 H 0.83298 0.72187 0.91414 0.0
H1859 H 0.83152 0.69971 0.91201 0.0
H1860 H 0.85093 0.73614 0.80965 0.0
H1861 H 0.8543 0.74447 0.98763 0.0
H1862 H 0.85715 0.72973 0.96354 0.0
H1863 H 0.84179 0.73482 0.97279 0.0
C1864 C 0.85894 0.70306 0.86085 0.0
C1865 C 0.84873 0.69707 0.87835 0.0
C1866 C 0.85977 0.71575 0.86235 0.0
C1867 C 0.85046 0.72265 0.8817 0.0
C1868 C 0.84038 0.7167 0.89989 0.0
H1869 H 0.82749 0.79713 0.89675 0.0
H1870 H 0.83028 0.77509 0.90204 0.0
C1871 C 0.83953 0.70402 0.89838 0.0
C1872 C 0.85079 0.73611 0.8799 0.0
H1873 H 0.84923 0.76165 0.94314 0.0
C1874 C 0.85073 0.74174 0.8388 0.0
C1875 C 0.85047 0.74335 0.91803 0.0
C1876 C 0.85105 0.7378 0.96301 0.0
C1877 C 0.8499 0.75443 0.83475 0.0
C1878 C 0.84932 0.76166 0.87288 0.0
C1879 C 0.84964 0.75605 0.914 0.0
C1880 C 0.84793 0.77504 0.87069 0.0
C1881 C 0.84917 0.75997 0.78975 0.0
C1882 C 0.85703 0.7823 0.85186 0.0
C1883 C 0.85546 0.79489 0.84865 0.0
C1884 C 0.84478 0.80044 0.86448 0.0
C1885 C 0.8358 0.79315 0.88411 0.0
C1886 C 0.83738 0.78056 0.88726 0.0
H1887 H 0.84704 0.75305 0.76441 0.0
H1888 H 0.84213 0.76722 0.78856 0.0
H1889 H 0.85808 0.76415 0.78147 0.0
H1890 H 0.86533 0.77821 0.83955 0.0
H1891 H 0.86258 0.80026 0.83362 0.0
H1892 H 0.66832 0.19575 0.40431 0.0
H1893 H 0.66649 0.21786 0.41037 0.0
H1894 H 0.63356 0.21691 0.33375 0.0
H1895 H 0.63522 0.19475 0.32788 0.0
H1896 H 0.66619 0.23423 0.3402 0.0
H1897 H 0.62401 0.2379 0.43962 0.0
H1898 H 0.63264 0.22394 0.43531 0.0
H1899 H 0.62275 0.22857 0.39165 0.0
C1900 C 0.66062 0.20022 0.38905 0.0
C1901 C 0.65191 0.19349 0.36563 0.0
C1902 C 0.6596 0.21285 0.39256 0.0
C1903 C 0.64982 0.21898 0.37298 0.0
C1904 C 0.64105 0.21231 0.34982 0.0
H1905 H 0.63315 0.29586 0.34109 0.0
H1906 H 0.63259 0.27357 0.34108 0.0
C1907 C 0.64206 0.19966 0.34628 0.0
C1908 C 0.64922 0.23242 0.37478 0.0
H1909 H 0.63208 0.2563 0.41122 0.0
C1910 C 0.65876 0.23906 0.35587 0.0
C1911 C 0.63946 0.23866 0.39499 0.0
C1912 C 0.62917 0.23193 0.41689 0.0
C1913 C 0.65878 0.25182 0.35635 0.0
C1914 C 0.64911 0.25807 0.37702 0.0
C1915 C 0.63949 0.25145 0.39555 0.0
C1916 C 0.64893 0.27151 0.37984 0.0
C1917 C 0.66906 0.25851 0.3341 0.0
C1918 C 0.6581 0.27767 0.40269 0.0
C1919 C 0.65847 0.29037 0.40271 0.0
C1920 C 0.64962 0.29714 0.38005 0.0
C1921 C 0.64013 0.29092 0.3587 0.0
C1922 C 0.63979 0.2782 0.35867 0.0
H1923 H 0.67399 0.25257 0.31063 0.0
H1924 H 0.66563 0.26663 0.31639 0.0
H1925 H 0.67568 0.26162 0.35906 0.0
H1926 H 0.6651 0.27265 0.41992 0.0
H1927 H 0.66585 0.29487 0.41976 0.0
H1928 H 0.86403 0.30184 0.13853 0.0
H1929 H 0.86697 0.27978 0.13185 0.0
H1930 H 0.82905 0.27548 0.0987 0.0
H1931 H 0.82602 0.29742 0.10503 0.0
H1932 H 0.8545 0.26139 0.17963 0.0
H1933 H 0.84702 0.25671 0.00155 0.0
H1934 H 0.85042 0.27113 0.02716 0.0
H1935 H 0.83521 0.26508 0.02891 0.0
C1936 C 0.85634 0.2962 0.12953 0.0
C1937 C 0.84479 0.30138 0.1222 0.0
C1938 C 0.85804 0.28362 0.12574 0.0
C1939 C 0.84828 0.27606 0.11411 0.0
C1940 C 0.83676 0.2812 0.10684 0.0
H1941 H 0.82786 0.20172 0.09724 0.0
H1942 H 0.83019 0.22381 0.09492 0.0
C1943 C 0.83503 0.29374 0.11076 0.0
C1944 C 0.84987 0.26271 0.11157 0.0
H1945 H 0.84588 0.2384 0.04371 0.0
C1946 C 0.85282 0.25634 0.14981 0.0
C1947 C 0.84767 0.2562 0.07255 0.0
C1948 C 0.84502 0.26263 0.03009 0.0
C1949 C 0.85301 0.24356 0.15062 0.0
C1950 C 0.85038 0.23704 0.11193 0.0
C1951 C 0.84786 0.24344 0.07333 0.0
C1952 C 0.84933 0.22361 0.11156 0.0
C1953 C 0.85543 0.23714 0.19329 0.0
C1954 C 0.8594 0.21619 0.12093 0.0
C1955 C 0.8581 0.20352 0.12238 0.0
C1956 C 0.84672 0.1981 0.11428 0.0
C1957 C 0.83675 0.20559 0.10376 0.0
C1958 C 0.83806 0.21822 0.10235 0.0
H1959 H 0.85492 0.24344 0.22157 0.0
H1960 H 0.84881 0.22963 0.19838 0.0
H1961 H 0.8647 0.23311 0.19256 0.0
H1962 H 0.86823 0.22018 0.1274 0.0
H1963 H 0.86598 0.19801 0.13035 0.0
H1964 H 0.63334 0.69426 0.67102 0.0
H1965 H 0.62972 0.71625 0.66624 0.0
H1966 H 0.66247 0.72036 0.59001 0.0
H1967 H 0.6661 0.69849 0.59416 0.0
H1968 H 0.64522 0.73445 0.69659 0.0
H1969 H 0.63743 0.73947 0.51904 0.0
H1970 H 0.63661 0.72494 0.54652 0.0
H1971 H 0.65113 0.73123 0.53129 0.0
C1972 C 0.63969 0.69983 0.65282 0.0
C1973 C 0.65 0.69462 0.63292 0.0
C1974 C 0.6376 0.71238 0.65014 0.0
C1975 C 0.64572 0.71988 0.62717 0.0
C1976 C 0.65594 0.71469 0.60703 0.0
H1977 H 0.6659 0.79364 0.59426 0.0
H1978 H 0.66285 0.77162 0.5937 0.0
C1979 C 0.65805 0.70218 0.60973 0.0
C1980 C 0.64405 0.73325 0.6266 0.0
H1981 H 0.6428 0.7577 0.55802 0.0
C1982 C 0.64446 0.73955 0.6664 0.0
C1983 C 0.64305 0.73983 0.58712 0.0
C1984 C 0.64191 0.73352 0.5436 0.0
C1985 C 0.64458 0.75232 0.6676 0.0
C1986 C 0.64412 0.7589 0.62797 0.0
C1987 C 0.64321 0.7526 0.5883 0.0
C1988 C 0.64548 0.77228 0.62686 0.0
C1989 C 0.64581 0.75869 0.71103 0.0
C1990 C 0.6366 0.77993 0.64512 0.0
C1991 C 0.63831 0.79255 0.64551 0.0
C1992 C 0.64892 0.79769 0.62759 0.0
C1993 C 0.65765 0.78998 0.60847 0.0
C1994 C 0.65592 0.7774 0.60802 0.0
H1995 H 0.64812 0.75226 0.73778 0.0
H1996 H 0.65296 0.76582 0.70941 0.0
H1997 H 0.63707 0.7632 0.7193 0.0
H1998 H 0.62841 0.77613 0.6593 0.0
H1999 H 0.63139 0.79824 0.66032 0.0
H2000 H 0.54793 0.41789 0.85559 0.0
H2001 H 0.52581 0.41566 0.85407 0.0
H2002 H 0.52922 0.37846 0.89743 0.0
H2003 H 0.55143 0.3806 0.89934 0.0
H2004 H 0.51123 0.39805 0.80699 0.0
H2005 H 0.50601 0.39494 0.98743 0.0
H2006 H 0.5197 0.40065 0.96205 0.0
H2007 H 0.51664 0.3846 0.96246 0.0
C2008 C 0.54401 0.40921 0.86472 0.0
C2009 C 0.55144 0.39944 0.87786 0.0
C2010 C 0.53137 0.40795 0.86373 0.0
C2011 C 0.52592 0.39695 0.8761 0.0
C2012 C 0.53328 0.38708 0.88834 0.0
H2013 H 0.44819 0.38245 0.91173 0.0
H2014 H 0.47029 0.37991 0.90635 0.0
C2015 C 0.54596 0.38831 0.88922 0.0
C2016 C 0.5125 0.39597 0.87669 0.0
H2017 H 0.48811 0.39409 0.94537 0.0
C2018 C 0.50616 0.3971 0.83717 0.0
C2019 C 0.50596 0.39468 0.91614 0.0
C2020 C 0.51237 0.39373 0.95957 0.0
C2021 C 0.49339 0.39714 0.83609 0.0
C2022 C 0.48684 0.39628 0.8757 0.0
C2023 C 0.49318 0.39477 0.91509 0.0
C2024 C 0.47343 0.39758 0.8773 0.0
C2025 C 0.48703 0.3981 0.79257 0.0
C2026 C 0.46791 0.40841 0.86316 0.0
C2027 C 0.45532 0.4099 0.86614 0.0
C2028 C 0.448 0.4006 0.88367 0.0
C2029 C 0.45356 0.38977 0.89797 0.0
C2030 C 0.46618 0.38829 0.89493 0.0
H2031 H 0.49299 0.39498 0.76549 0.0
H2032 H 0.47851 0.39266 0.79216 0.0
H2033 H 0.48464 0.40777 0.78634 0.0
H2034 H 0.47338 0.41581 0.85043 0.0
H2035 H 0.45134 0.41838 0.85508 0.0
H2036 H 0.94884 0.57867 0.34188 0.0
H2037 H 0.97073 0.58207 0.33598 0.0
H2038 H 0.96556 0.62017 0.36462 0.0
H2039 H 0.94354 0.61686 0.37091 0.0
H2040 H 0.98387 0.59887 0.28014 0.0
H2041 H 0.99042 0.60786 0.45762 0.0
H2042 H 0.97685 0.60067 0.43662 0.0
H2043 H 0.97909 0.61673 0.4295 0.0
C2044 C 0.95232 0.5878 0.34679 0.0
C2045 C 0.94445 0.59749 0.35715 0.0
C2046 C 0.96483 0.58972 0.34329 0.0
C2047 C 0.96974 0.60134 0.3503 0.0
C2048 C 0.96193 0.61111 0.35963 0.0
H2049 H 0.04834 0.61512 0.37522 0.0
H2050 H 0.02643 0.61901 0.36837 0.0
C2051 C 0.94936 0.6092 0.36304 0.0
C2052 C 0.98309 0.60299 0.34877 0.0
H2053 H 0.00795 0.60704 0.41396 0.0
C2054 C 0.98915 0.60081 0.30924 0.0
C2055 C 0.9899 0.6056 0.38678 0.0
C2056 C 0.9838 0.60779 0.4302 0.0
C2057 C 0.0019 0.60078 0.307 0.0
C2058 C 0.00873 0.60274 0.34548 0.0
C2059 C 0.00267 0.60552 0.38455 0.0
C2060 C 0.02205 0.60076 0.34686 0.0
C2061 C 0.00795 0.59845 0.26359 0.0
C2062 C 0.0268 0.58921 0.33736 0.0
C2063 C 0.03925 0.58695 0.34131 0.0
C2064 C 0.04721 0.5962 0.35512 0.0
C2065 C 0.04245 0.60782 0.36435 0.0
C2066 C 0.02995 0.61006 0.36047 0.0
H2067 H 0.00191 0.60107 0.23603 0.0
H2068 H 0.01665 0.60355 0.26073 0.0
H2069 H 0.00996 0.58858 0.26049 0.0
H2070 H 0.02083 0.58183 0.32783 0.0
H2071 H 0.04259 0.57789 0.33412 0.0
H2072 H 0.94665 0.41105 0.66926 0.0
H2073 H 0.96887 0.40903 0.66985 0.0
H2074 H 0.9687 0.4032 0.53071 0.0
H2075 H 0.94656 0.40536 0.52961 0.0
H2076 H 0.98434 0.38977 0.64105 0.0
H2077 H 0.9916 0.43246 0.54743 0.0
H2078 H 0.9772 0.42872 0.57242 0.0
H2079 H 0.98154 0.42178 0.52161 0.0
C2080 C 0.95134 0.40929 0.6388 0.0
C2081 C 0.94486 0.40849 0.5993 0.0
C2082 C 0.96401 0.40812 0.63924 0.0
C2083 C 0.9704 0.40617 0.60023 0.0
C2084 C 0.96393 0.40494 0.56102 0.0
H2085 H 0.04612 0.40283 0.52614 0.0
H2086 H 0.02394 0.40144 0.52949 0.0
C2087 C 0.95128 0.40614 0.56051 0.0
C2088 C 0.98385 0.40573 0.60026 0.0
H2089 H 0.00895 0.42014 0.55997 0.0
C2090 C 0.98975 0.39642 0.62349 0.0
C2091 C 0.99084 0.41446 0.57743 0.0
C2092 C 0.98501 0.42499 0.55362 0.0
C2093 C 0.0025 0.39545 0.62362 0.0
C2094 C 0.00947 0.40412 0.60042 0.0
C2095 C 0.00356 0.41347 0.57749 0.0
C2096 C 0.02293 0.40379 0.59947 0.0
C2097 C 0.00841 0.38503 0.64775 0.0
C2098 C 0.0297 0.4055 0.63782 0.0
C2099 C 0.04239 0.4063 0.63605 0.0
C2100 C 0.04851 0.4055 0.59582 0.0
C2101 C 0.0417 0.40352 0.55763 0.0
C2102 C 0.02903 0.40271 0.55945 0.0
H2103 H 0.00183 0.37759 0.65465 0.0
H2104 H 0.01615 0.38123 0.62881 0.0
H2105 H 0.012 0.38839 0.67938 0.0
H2106 H 0.02514 0.4066 0.66892 0.0
H2107 H 0.04737 0.40787 0.66603 0.0
H2108 H 0.44835 0.60495 0.04189 0.0
H2109 H 0.47055 0.60662 0.04579 0.0
H2110 H 0.47025 0.589 0.17151 0.0
H2111 H 0.44811 0.58713 0.16775 0.0
H2112 H 0.4865 0.61731 0.109 0.0
H2113 H 0.49233 0.56717 0.09578 0.0
H2114 H 0.47811 0.5747 0.08371 0.0
H2115 H 0.48252 0.57202 0.13936 0.0
C2116 C 0.45299 0.60152 0.07055 0.0
C2117 C 0.44648 0.59577 0.10428 0.0
C2118 C 0.46566 0.6025 0.07273 0.0
C2119 C 0.47202 0.59774 0.10857 0.0
C2120 C 0.46551 0.59252 0.14319 0.0
H2121 H 0.54806 0.58597 0.16777 0.0
H2122 H 0.52596 0.58835 0.17095 0.0
C2123 C 0.45285 0.5915 0.14103 0.0
C2124 C 0.48548 0.59773 0.10891 0.0
H2125 H 0.51007 0.57873 0.10932 0.0
C2126 C 0.49169 0.6089 0.10901 0.0
C2127 C 0.49217 0.58672 0.10868 0.0
C2128 C 0.48597 0.57446 0.10648 0.0
C2129 C 0.50447 0.60933 0.1098 0.0
C2130 C 0.51114 0.59831 0.10984 0.0
C2131 C 0.50491 0.58716 0.10958 0.0
C2132 C 0.52461 0.59802 0.10963 0.0
C2133 C 0.51073 0.62155 0.11138 0.0
C2134 C 0.53117 0.60274 0.07417 0.0
C2135 C 0.54382 0.6014 0.07224 0.0
C2136 C 0.5501 0.59522 0.10558 0.0
C2137 C 0.54351 0.59075 0.1415 0.0
C2138 C 0.53088 0.59211 0.14341 0.0
H2139 H 0.50444 0.62887 0.12235 0.0
H2140 H 0.51871 0.6213 0.13359 0.0
H2141 H 0.51401 0.62393 0.07822 0.0
H2142 H 0.52647 0.60711 0.04734 0.0
H2143 H 0.54862 0.60492 0.04407 0.0
H2144 H 0.13957 0.13894 0.20423 0.0
H2145 H 0.12788 0.12906 0.26186 0.0
H2146 H 0.14606 0.1511 0.35843 0.0
H2147 H 0.15798 0.16095 0.30089 0.0
H2148 H 0.14597 0.1265 0.37816 0.0
H2149 H 0.09952 0.142 0.33397 0.0
H2150 H 0.10755 0.13512 0.2893 0.0
H2151 H 0.1131 0.1491 0.31257 0.0
C2152 C 0.14102 0.14178 0.23767 0.0
C2153 C 0.14971 0.15074 0.248 0.0
C2154 C 0.13426 0.13618 0.27054 0.0
C2155 C 0.13597 0.1395 0.31428 0.0
C2156 C 0.14456 0.14849 0.32476 0.0
H2157 H 0.10688 0.10871 0.55477 0.0
H2158 H 0.11704 0.12169 0.50125 0.0
C2159 C 0.15136 0.1541 0.29187 0.0
C2160 C 0.12932 0.133 0.34917 0.0
H2161 H 0.10082 0.1254 0.38426 0.0
C2162 C 0.1361 0.12637 0.37987 0.0
C2163 C 0.11646 0.13283 0.35112 0.0
C2164 C 0.10872 0.14024 0.32023 0.0
C2165 C 0.13034 0.11924 0.4117 0.0
C2166 C 0.11748 0.1189 0.4131 0.0
C2167 C 0.11069 0.12567 0.38287 0.0
C2168 C 0.11092 0.11136 0.44532 0.0
C2169 C 0.13805 0.11184 0.4427 0.0
C2170 C 0.10387 0.10146 0.43136 0.0
C2171 C 0.09801 0.09403 0.46182 0.0
C2172 C 0.09908 0.09644 0.5067 0.0
C2173 C 0.10594 0.10655 0.52044 0.0
C2174 C 0.11179 0.11396 0.48997 0.0
H2175 H 0.14763 0.11108 0.43138 0.0
H2176 H 0.13808 0.1163 0.47519 0.0
H2177 H 0.13426 0.10254 0.4467 0.0
H2178 H 0.10307 0.09936 0.39693 0.0
H2179 H 0.09277 0.08634 0.45018 0.0
H2180 H 0.09911 0.91437 0.54462 0.0
H2181 H 0.10968 0.90229 0.60013 0.0
H2182 H 0.11424 0.873 0.50787 0.0
H2183 H 0.10372 0.88498 0.45206 0.0
H2184 H 0.10529 0.86656 0.59723 0.0
H2185 H 0.14751 0.8946 0.59302 0.0
H2186 H 0.13333 0.9027 0.59837 0.0
H2187 H 0.13657 0.89456 0.54896 0.0
C2188 C 0.10231 0.90534 0.53617 0.0
C2189 C 0.10065 0.90065 0.49389 0.0
C2190 C 0.10836 0.89848 0.56786 0.0
C2191 C 0.1128 0.88684 0.55778 0.0
C2192 C 0.11089 0.882 0.51605 0.0
H2193 H 0.16497 0.84237 0.6975 0.0
H2194 H 0.15311 0.8531 0.64183 0.0
C2195 C 0.10491 0.88887 0.48426 0.0
C2196 C 0.11963 0.87978 0.59056 0.0
H2197 H 0.14657 0.87897 0.64593 0.0
C2198 C 0.11431 0.86924 0.60797 0.0
C2199 C 0.13143 0.88329 0.60391 0.0
C2200 C 0.13764 0.89435 0.58499 0.0
C2201 C 0.12047 0.86218 0.63913 0.0
C2202 C 0.13217 0.86583 0.65307 0.0
C2203 C 0.13756 0.87627 0.63517 0.0
C2204 C 0.139 0.85896 0.68641 0.0
C2205 C 0.1145 0.85082 0.6566 0.0
C2206 C 0.13497 0.85877 0.72978 0.0
C2207 C 0.14173 0.85272 0.76168 0.0
C2208 C 0.15264 0.84674 0.75065 0.0
C2209 C 0.15659 0.84686 0.70701 0.0
C2210 C 0.14985 0.85298 0.67519 0.0
H2211 H 0.1066 0.84797 0.63635 0.0
H2212 H 0.12114 0.8432 0.65809 0.0
H2213 H 0.11119 0.85256 0.69025 0.0
H2214 H 0.12668 0.86348 0.73905 0.0
H2215 H 0.13845 0.85279 0.79501 0.0
H2216 H 0.40203 0.88652 0.02448 0.0
H2217 H 0.39226 0.87594 0.9636 0.0
H2218 H 0.35955 0.89696 0.98364 0.0
H2219 H 0.36922 0.90762 0.04454 0.0
H2220 H 0.36939 0.86231 0.96335 0.0
H2221 H 0.36936 0.90252 0.85298 0.0
H2222 H 0.37896 0.90156 0.90073 0.0
H2223 H 0.36304 0.90498 0.90641 0.0
C2224 C 0.39274 0.88887 0.01607 0.0
C2225 C 0.38642 0.89796 0.03917 0.0
C2226 C 0.38718 0.88281 0.98134 0.0
C2227 C 0.37527 0.8858 0.96896 0.0
C2228 C 0.36882 0.89466 0.99247 0.0
H2229 H 0.32565 0.84842 0.79584 0.0
H2230 H 0.33585 0.8579 0.85808 0.0
C2231 C 0.37435 0.9007 0.02733 0.0
C2232 C 0.36961 0.87972 0.93112 0.0
H2233 H 0.35899 0.88494 0.82817 0.0
C2234 C 0.36712 0.86722 0.93373 0.0
C2235 C 0.36682 0.88618 0.89249 0.0
C2236 C 0.36975 0.89954 0.88759 0.0
C2237 C 0.36168 0.86102 0.89879 0.0
C2238 C 0.35861 0.86755 0.86059 0.0
C2239 C 0.3613 0.88 0.85771 0.0
C2240 C 0.35256 0.86163 0.8232 0.0
C2241 C 0.35936 0.84753 0.90276 0.0
C2242 C 0.35855 0.86078 0.78291 0.0
C2243 C 0.35276 0.85538 0.74725 0.0
C2244 C 0.34084 0.85085 0.75127 0.0
C2245 C 0.33485 0.8518 0.7917 0.0
C2246 C 0.34067 0.85715 0.82735 0.0
H2247 H 0.36465 0.8434 0.9299 0.0
H2248 H 0.34954 0.84599 0.90926 0.0
H2249 H 0.36173 0.84276 0.87194 0.0
H2250 H 0.36772 0.86426 0.77913 0.0
H2251 H 0.3576 0.85483 0.71652 0.0
H2252 H 0.38542 0.10854 0.94426 0.0
H2253 H 0.37535 0.12175 -0.00274 0.0
H2254 H 0.39961 0.10887 0.09794 0.0
H2255 H 0.40993 0.09582 0.04488 0.0
H2256 H 0.36324 0.11461 0.06963 0.0
H2257 H 0.40111 0.14536 0.11595 0.0
H2258 H 0.40177 0.13562 0.06854 0.0
H2259 H 0.40488 0.12954 0.12193 0.0
C2260 C 0.3887 0.1086 0.97759 0.0
C2261 C 0.39848 0.10114 0.99041 0.0
C2262 C 0.38294 0.11617 0.0078 0.0
C2263 C 0.38684 0.11642 0.05135 0.0
C2264 C 0.39665 0.10903 0.06424 0.0
H2265 H 0.35848 0.14286 0.29369 0.0
H2266 H 0.37002 0.1335 0.23434 0.0
C2267 C 0.40248 0.10152 0.03395 0.0
C2268 C 0.38012 0.12379 0.08383 0.0
H2269 H 0.38353 0.14564 0.16213 0.0
C2270 C 0.36764 0.1215 0.08949 0.0
C2271 C 0.3859 0.13276 0.10966 0.0
C2272 C 0.39912 0.13606 0.10348 0.0
C2273 C 0.36085 0.1277 0.12123 0.0
C2274 C 0.3667 0.13646 0.14766 0.0
C2275 C 0.37912 0.13889 0.14168 0.0
C2276 C 0.36014 0.14275 0.18309 0.0
C2277 C 0.34758 0.12458 0.12725 0.0
C2278 C 0.35091 0.15119 0.17369 0.0
C2279 C 0.34429 0.15659 0.20752 0.0
C2280 C 0.3468 0.15357 0.25119 0.0
C2281 C 0.35626 0.14532 0.26038 0.0
C2282 C 0.3629 0.13999 0.22659 0.0
H2283 H 0.34495 0.11624 0.10903 0.0
H2284 H 0.34548 0.12321 0.16236 0.0
H2285 H 0.34189 0.13224 0.1153 0.0
H2286 H 0.34875 0.15349 0.14019 0.0
H2287 H 0.33709 0.16294 0.19942 0.0
H2288 H 0.91117 0.9062 0.54615 0.0
H2289 H 0.90038 0.89428 0.60146 0.0
H2290 H 0.87781 0.87839 0.50139 0.0
H2291 H 0.88858 0.89014 0.44587 0.0
H2292 H 0.87513 0.89517 0.61872 0.0
H2293 H 0.8899 0.84868 0.57075 0.0
H2294 H 0.89767 0.86225 0.55255 0.0
H2295 H 0.88369 0.85762 0.52698 0.0
C2296 C 0.90398 0.90009 0.53586 0.0
C2297 C 0.90074 0.8991 0.49163 0.0
C2298 C 0.89783 0.8933 0.56749 0.0
C2299 C 0.88843 0.88535 0.55535 0.0
C2300 C 0.8852 0.88431 0.51126 0.0
H2301 H 0.83606 0.84084 0.69358 0.0
H2302 H 0.84838 0.85137 0.6387 0.0
C2303 C 0.89132 0.89109 0.47964 0.0
C2304 C 0.88156 0.87861 0.58901 0.0
H2305 H 0.8739 0.85001 0.62286 0.0
C2306 C 0.87492 0.8853 0.61989 0.0
C2307 C 0.88128 0.86574 0.59012 0.0
C2308 C 0.88859 0.85812 0.55859 0.0
C2309 C 0.86779 0.87945 0.65149 0.0
C2310 C 0.8675 0.86658 0.6526 0.0
C2311 C 0.87416 0.85988 0.62179 0.0
C2312 C 0.86034 0.85993 0.68568 0.0
C2313 C 0.8604 0.8871 0.68275 0.0
C2314 C 0.86316 0.8611 0.73008 0.0
C2315 C 0.85615 0.85514 0.76145 0.0
C2316 C 0.84623 0.84784 0.74891 0.0
C2317 C 0.84361 0.84644 0.70428 0.0
C2318 C 0.85064 0.85242 0.67291 0.0
H2319 H 0.85925 0.89657 0.67075 0.0
H2320 H 0.85126 0.88305 0.68812 0.0
H2321 H 0.86516 0.88749 0.71467 0.0
H2322 H 0.87077 0.86666 0.74048 0.0
H2323 H 0.85847 0.85633 0.79554 0.0
H2324 H 0.84669 0.17121 0.28958 0.0
H2325 H 0.85644 0.161 0.35145 0.0
H2326 H 0.86073 0.12846 0.27411 0.0
H2327 H 0.85124 0.13861 0.21204 0.0
H2328 H 0.84862 0.14049 0.39386 0.0
H2329 H 0.8946 0.13291 0.32481 0.0
H2330 H 0.88378 0.1433 0.30064 0.0
H2331 H 0.88274 0.12721 0.29012 0.0
C2332 C 0.84983 0.16192 0.28561 0.0
C2333 C 0.84822 0.15573 0.24587 0.0
C2334 C 0.85539 0.15611 0.32098 0.0
C2335 C 0.85946 0.14405 0.31711 0.0
C2336 C 0.85791 0.13787 0.27746 0.0
H2337 H 0.87027 0.08964 0.5149 0.0
H2338 H 0.86259 0.10317 0.4579 0.0
C2339 C 0.8524 0.14367 0.24209 0.0
C2340 C 0.86474 0.13764 0.35513 0.0
H2341 H 0.88941 0.12111 0.3879 0.0
C2342 C 0.85759 0.13636 0.3928 0.0
C2343 C 0.87651 0.13242 0.35385 0.0
C2344 C 0.88491 0.13412 0.31534 0.0
C2345 C 0.86173 0.12961 0.42871 0.0
C2346 C 0.87321 0.12379 0.4264 0.0
C2347 C 0.88054 0.12545 0.38936 0.0
C2348 C 0.87772 0.11577 0.46166 0.0
C2349 C 0.85378 0.12882 0.46878 0.0
C2350 C 0.88892 0.11818 0.48185 0.0
C2351 C 0.89341 0.11038 0.51404 0.0
C2352 C 0.88677 0.10001 0.52656 0.0
C2353 C 0.87555 0.09761 0.50625 0.0
C2354 C 0.87111 0.10538 0.47387 0.0
H2355 H 0.84729 0.13657 0.47056 0.0
H2356 H 0.84838 0.12029 0.46744 0.0
H2357 H 0.85934 0.12869 0.49904 0.0
H2358 H 0.8942 0.12612 0.47269 0.0
H2359 H 0.90209 0.11248 0.52905 0.0
H2360 H 0.66331 0.146 0.19733 0.0
H2361 H 0.65009 0.13662 0.14245 0.0
H2362 H 0.62154 0.13302 0.23814 0.0
H2363 H 0.63464 0.14236 0.29323 0.0
H2364 H 0.63891 0.11252 0.15115 0.0
H2365 H 0.6053 0.15 0.12994 0.0
H2366 H 0.62031 0.15244 0.15252 0.0
H2367 H 0.60861 0.14562 0.18526 0.0
C2368 C 0.65419 0.1433 0.20663 0.0
C2369 C 0.65002 0.14492 0.2496 0.0
C2370 C 0.64667 0.13794 0.17528 0.0
C2371 C 0.63484 0.13426 0.1863 0.0
C2372 C 0.6306 0.13596 0.22898 0.0
H2373 H 0.58763 0.08407 0.04748 0.0
H2374 H 0.59908 0.09514 0.10341 0.0
C2375 C 0.63813 0.14124 0.26041 0.0
C2376 C 0.6271 0.12815 0.15363 0.0
H2377 H 0.60094 0.13131 0.09452 0.0
C2378 C 0.63062 0.11661 0.13867 0.0
C2379 C 0.61634 0.13359 0.13747 0.0
C2380 C 0.61241 0.14614 0.15176 0.0
C2381 C 0.62356 0.11027 0.1081 0.0
C2382 C 0.61269 0.11562 0.09247 0.0
C2383 C 0.60924 0.12723 0.10703 0.0
C2384 C 0.60504 0.10942 0.05975 0.0
C2385 C 0.62784 0.09798 0.09223 0.0
C2386 C 0.60437 0.11402 0.01718 0.0
C2387 C 0.59788 0.10773 0.98519 0.0
C2388 C 0.59187 0.09678 0.9954 0.0
C2389 C 0.59219 0.09245 0.03856 0.0
C2390 C 0.59875 0.09873 0.07049 0.0
H2391 H 0.63746 0.09616 0.10138 0.0
H2392 H 0.62207 0.09077 0.10691 0.0
H2393 H 0.62696 0.09732 0.05621 0.0
H2394 H 0.60915 0.12229 0.00845 0.0
H2395 H 0.59775 0.11134 0.9523 0.0
H2396 H 0.66602 0.83879 0.7984 0.0
H2397 H 0.65585 0.8499 0.85742 0.0
H2398 H 0.62913 0.86337 0.76622 0.0
H2399 H 0.63912 0.85227 0.70724 0.0
H2400 H 0.65207 0.87536 0.86053 0.0
H2401 H 0.60846 0.84994 0.86749 0.0
H2402 H 0.62191 0.84396 0.84114 0.0
H2403 H 0.61254 0.855 0.81372 0.0
C2404 C 0.6579 0.84401 0.79101 0.0
C2405 C 0.65336 0.84465 0.74817 0.0
C2406 C 0.65213 0.85035 0.82472 0.0
C2407 C 0.64168 0.85731 0.81617 0.0
C2408 C 0.63706 0.85786 0.77358 0.0
H2409 H 0.61049 0.91765 0.95717 0.0
H2410 H 0.62064 0.90418 0.90497 0.0
C2411 C 0.64283 0.85157 0.73988 0.0
C2412 C 0.63593 0.86455 0.85118 0.0
H2413 H 0.60908 0.869 0.90486 0.0
C2414 C 0.64271 0.87392 0.87055 0.0
C2415 C 0.62376 0.86255 0.86431 0.0
C2416 C 0.61626 0.85224 0.84591 0.0
C2417 C 0.6375 0.88161 0.90196 0.0
C2418 C 0.62517 0.87993 0.91374 0.0
C2419 C 0.6185 0.87033 0.89532 0.0
C2420 C 0.619 0.88806 0.94514 0.0
C2421 C 0.64523 0.89143 0.92239 0.0
C2422 C 0.61449 0.88336 0.98445 0.0
C2423 C 0.60864 0.891 0.01423 0.0
C2424 C 0.60715 0.90346 0.00503 0.0
C2425 C 0.61155 0.90811 0.9653 0.0
C2426 C 0.61741 0.90045 0.93556 0.0
H2427 H 0.65511 0.88958 0.91811 0.0
H2428 H 0.64315 0.90028 0.90658 0.0
H2429 H 0.64326 0.8923 0.95779 0.0
H2430 H 0.61558 0.8738 0.99223 0.0
H2431 H 0.60533 0.88713 0.04449 0.0
H2432 H 0.62559 0.57901 0.02178 0.0
H2433 H 0.63546 0.58851 0.95879 0.0
H2434 H 0.60739 0.61597 0.95506 0.0
H2435 H 0.59745 0.60658 0.01803 0.0
H2436 H 0.62412 0.59302 0.87391 0.0
H2437 H 0.64031 0.63513 0.95634 0.0
H2438 H 0.63613 0.62155 0.98606 0.0
H2439 H 0.62453 0.63137 0.9644 0.0
C2440 C 0.62155 0.58711 0.00773 0.0
C2441 C 0.61076 0.59207 0.02495 0.0
C2442 C 0.62718 0.59249 0.97175 0.0
C2443 C 0.6222 0.60298 0.95274 0.0
C2444 C 0.61145 0.60797 0.96977 0.0
H2445 H 0.64228 0.64967 0.73741 0.0
H2446 H 0.63252 0.63996 0.80008 0.0
C2447 C 0.60576 0.60256 0.0056 0.0
C2448 C 0.62808 0.60854 0.91434 0.0
H2449 H 0.6427 0.63416 0.8797 0.0
C2450 C 0.62824 0.60199 0.87508 0.0
C2451 C 0.63336 0.62025 0.91622 0.0
C2452 C 0.6337 0.62749 0.95805 0.0
C2453 C 0.63338 0.60695 0.83718 0.0
C2454 C 0.63873 0.61866 0.83907 0.0
C2455 C 0.63858 0.62519 0.87842 0.0
C2456 C 0.64453 0.62432 0.80057 0.0
C2457 C 0.63278 0.59976 0.79529 0.0
C2458 C 0.65457 0.61878 0.78038 0.0
C2459 C 0.66013 0.62426 0.74444 0.0
C2460 C 0.65581 0.63546 0.72841 0.0
C2461 C 0.64581 0.64104 0.74896 0.0
C2462 C 0.64023 0.63552 0.78476 0.0
H2463 H 0.6256 0.59264 0.79656 0.0
H2464 H 0.63096 0.6058 0.76697 0.0
H2465 H 0.64164 0.59514 0.78982 0.0
H2466 H 0.65819 0.61027 0.79272 0.0
H2467 H 0.66787 0.61978 0.72954 0.0
H2468 H 0.65657 0.33593 0.20548 0.0
H2469 H 0.64444 0.34674 0.15073 0.0
H2470 H 0.62338 0.36366 0.25293 0.0
H2471 H 0.63552 0.35305 0.30786 0.0
H2472 H 0.61894 0.34677 0.13588 0.0
H2473 H 0.63613 0.39262 0.18151 0.0
H2474 H 0.64341 0.37875 0.19938 0.0
H2475 H 0.62979 0.38403 0.22589 0.0
C2476 C 0.64934 0.34193 0.21631 0.0
C2477 C 0.64709 0.34373 0.261 0.0
C2478 C 0.64242 0.34808 0.18501 0.0
C2479 C 0.63318 0.35613 0.19791 0.0
C2480 C 0.63065 0.35766 0.24241 0.0
H2481 H 0.58543 0.40497 0.05414 0.0
H2482 H 0.59502 0.3925 0.11078 0.0
C2483 C 0.63757 0.35155 0.2737 0.0
C2484 C 0.62626 0.36306 0.16483 0.0
H2485 H 0.62025 0.39191 0.12943 0.0
C2486 C 0.61922 0.35664 0.13436 0.0
C2487 C 0.62667 0.37593 0.16311 0.0
C2488 C 0.63448 0.38326 0.19394 0.0
C2489 C 0.61246 0.36277 0.10231 0.0
C2490 C 0.61292 0.37563 0.10049 0.0
C2491 C 0.61989 0.38205 0.13115 0.0
C2492 C 0.60662 0.38261 0.06602 0.0
C2493 C 0.60477 0.35547 0.07102 0.0
C2494 C 0.61004 0.38119 0.02225 0.0
C2495 C 0.60462 0.3883 0.98988 0.0
C2496 C 0.59572 0.39701 0.00079 0.0
C2497 C 0.59224 0.39834 0.04468 0.0
C2498 C 0.5977 0.39123 0.07706 0.0
H2499 H 0.60287 0.34619 0.08373 0.0
H2500 H 0.59598 0.36012 0.0644 0.0
H2501 H 0.60971 0.3545 0.03962 0.0
H2502 H 0.61708 0.37476 0.01322 0.0
H2503 H 0.60752 0.38707 0.9564 0.0
H2504 H 0.89353 0.4154 0.45952 0.0
H2505 H 0.88412 0.40213 0.40492 0.0
H2506 H 0.87981 0.37398 0.50175 0.0
H2507 H 0.88918 0.38714 0.55662 0.0
H2508 H 0.89216 0.37742 0.38037 0.0
H2509 H 0.84512 0.37926 0.44787 0.0
H2510 H 0.85655 0.39047 0.46121 0.0
H2511 H 0.85711 0.37564 0.48571 0.0
C2512 C 0.89056 0.4064 0.46925 0.0
C2513 C 0.89205 0.40234 0.51242 0.0
C2514 C 0.88521 0.39883 0.43802 0.0
C2515 C 0.88119 0.38716 0.44956 0.0
C2516 C 0.88273 0.38303 0.49247 0.0
H2517 H 0.84159 0.33257 0.29934 0.0
H2518 H 0.85271 0.34319 0.35722 0.0
C2519 C 0.88812 0.39056 0.52368 0.0
C2520 C 0.87545 0.37925 0.41653 0.0
H2521 H 0.84837 0.36643 0.3873 0.0
C2522 C 0.8826 0.37499 0.3818 0.0
C2523 C 0.86301 0.37605 0.41892 0.0
C2524 C 0.85493 0.38063 0.45521 0.0
C2525 C 0.87759 0.36758 0.34914 0.0
C2526 C 0.86506 0.36462 0.35091 0.0
C2527 C 0.85798 0.36872 0.38611 0.0
C2528 C 0.85896 0.35781 0.31551 0.0
C2529 C 0.88578 0.36291 0.31332 0.0
C2530 C 0.85877 0.36255 0.27304 0.0
C2531 C 0.85248 0.3565 0.23997 0.0
C2532 C 0.84615 0.34566 0.24887 0.0
C2533 C 0.84639 0.34089 0.29143 0.0
C2534 C 0.85273 0.34694 0.32452 0.0
H2535 H 0.89547 0.36278 0.32372 0.0
H2536 H 0.88313 0.35358 0.3031 0.0
H2537 H 0.88503 0.36901 0.28458 0.0
H2538 H 0.86327 0.37107 0.26563 0.0
H2539 H 0.85242 0.36046 0.2076 0.0
H2540 H 0.86261 0.64286 0.79894 0.0
H2541 H 0.87525 0.63307 0.74353 0.0
H2542 H 0.85385 0.64997 0.64217 0.0
H2543 H 0.84129 0.66001 0.69738 0.0
H2544 H 0.86767 0.61688 0.6821 0.0
H2545 H 0.88834 0.65717 0.60216 0.0
H2546 H 0.88071 0.65807 0.65423 0.0
H2547 H 0.87202 0.6578 0.60446 0.0
C2548 C 0.86065 0.64459 0.76486 0.0
C2549 C 0.85095 0.65222 0.75251 0.0
C2550 C 0.8679 0.639 0.73327 0.0
C2551 C 0.8656 0.64093 0.6888 0.0
C2552 C 0.85597 0.64859 0.67633 0.0
H2553 H 0.88893 0.60773 0.44896 0.0
H2554 H 0.87929 0.61982 0.5064 0.0
C2555 C 0.84874 0.65425 0.70793 0.0
C2556 C 0.87278 0.63431 0.65555 0.0
H2557 H 0.8905 0.63816 0.56505 0.0
C2558 C 0.87277 0.62153 0.65677 0.0
C2559 C 0.8794 0.64042 0.62257 0.0
C2560 C 0.88024 0.65412 0.62091 0.0
C2561 C 0.87895 0.61468 0.62519 0.0
C2562 C 0.88539 0.62078 0.59185 0.0
C2563 C 0.88552 0.63355 0.59077 0.0
C2564 C 0.89172 0.614 0.55701 0.0
C2565 C 0.87829 0.60096 0.62696 0.0
C2566 C 0.90202 0.60693 0.56652 0.0
C2567 C 0.90758 0.60003 0.53381 0.0
C2568 C 0.90289 0.60009 0.49111 0.0
C2569 C 0.89273 0.60743 0.48157 0.0
C2570 C 0.88722 0.61437 0.51425 0.0
H2571 H 0.87119 0.59772 0.65004 0.0
H2572 H 0.87633 0.59716 0.59411 0.0
H2573 H 0.88721 0.59729 0.63781 0.0
H2574 H 0.90567 0.60666 0.59935 0.0
H2575 H 0.91542 0.5945 0.54215 0.0
H2576 H 0.35961 0.35557 0.29788 0.0
H2577 H 0.37101 0.36572 0.23997 0.0
H2578 H 0.3528 0.34365 0.1436 0.0
H2579 H 0.34121 0.3335 0.20133 0.0
H2580 H 0.38664 0.35565 0.17535 0.0
H2581 H 0.34635 0.37899 0.1036 0.0
H2582 H 0.34606 0.37212 0.1571 0.0
H2583 H 0.34505 0.36275 0.10919 0.0
C2584 C 0.35802 0.35284 0.26439 0.0
C2585 C 0.34943 0.34379 0.25415 0.0
C2586 C 0.36456 0.35864 0.23139 0.0
C2587 C 0.36261 0.35553 0.1876 0.0
C2588 C 0.35427 0.3463 0.17724 0.0
H2589 H 0.39097 0.38683 0.94802 0.0
H2590 H 0.38089 0.3739 0.00189 0.0
C2591 C 0.34771 0.34048 0.21025 0.0
C2592 C 0.36921 0.36212 0.1529 0.0
H2593 H 0.36515 0.38166 0.0676 0.0
C2594 C 0.38196 0.36132 0.1517 0.0
C2595 C 0.36304 0.3695 0.12222 0.0
C2596 C 0.34938 0.37101 0.1231 0.0
C2597 C 0.38874 0.3677 0.12037 0.0
C2598 C 0.38258 0.37521 0.09006 0.0
C2599 C 0.36982 0.37588 0.09093 0.0
C2600 C 0.38918 0.38267 0.05766 0.0
C2601 C 0.4024 0.36626 0.11966 0.0
C2602 C 0.39713 0.39192 0.0713 0.0
C2603 C 0.40292 0.39933 0.04062 0.0
C2604 C 0.40077 0.39766 0.9958 0.0
C2605 C 0.39282 0.38835 0.9823 0.0
C2606 C 0.38706 0.38095 0.01299 0.0
H2607 H 0.40535 0.35784 0.1368 0.0
H2608 H 0.40589 0.36599 0.08566 0.0
H2609 H 0.40664 0.37414 0.13647 0.0
H2610 H 0.39868 0.39355 0.10571 0.0
H2611 H 0.40894 0.40645 0.05207 0.0
H2612 H 0.3927 0.57807 0.95408 0.0
H2613 H 0.3819 0.58976 0.8982 0.0
H2614 H 0.38229 0.62139 0.98155 0.0
H2615 H 0.39317 0.60984 0.03752 0.0
H2616 H 0.35902 0.60149 0.90794 0.0
H2617 H 0.39582 0.63398 0.864 0.0
H2618 H 0.3987 0.62 0.89334 0.0
H2619 H 0.3925 0.63298 0.92132 0.0
C2620 C 0.39057 0.58754 0.96044 0.0
C2621 C 0.39381 0.59304 0.0002 0.0
C2622 C 0.38439 0.59418 0.92851 0.0
C2623 C 0.38144 0.60645 0.93566 0.0
C2624 C 0.38468 0.61199 0.9752 0.0
H2625 H 0.32803 0.64975 0.79509 0.0
H2626 H 0.33981 0.63904 0.85103 0.0
C2627 C 0.39084 0.60535 0.00719 0.0
C2628 C 0.37457 0.61332 0.90231 0.0
H2629 H 0.37628 0.63776 0.83379 0.0
C2630 C 0.36278 0.60941 0.89164 0.0
C2631 C 0.37958 0.62357 0.88099 0.0
C2632 C 0.39238 0.62786 0.89011 0.0
C2633 C 0.35579 0.61558 0.8604 0.0
C2634 C 0.36069 0.62599 0.83979 0.0
C2635 C 0.37253 0.62983 0.85007 0.0
C2636 C 0.35378 0.63282 0.80647 0.0
C2637 C 0.34329 0.61081 0.84914 0.0
C2638 C 0.35792 0.63308 0.76323 0.0
C2639 C 0.35124 0.63919 0.73125 0.0
C2640 C 0.34034 0.64521 0.74207 0.0
C2641 C 0.33636 0.64515 0.78568 0.0
C2642 C 0.34304 0.63901 0.81763 0.0
H2643 H 0.34195 0.60132 0.86084 0.0
H2644 H 0.3363 0.61666 0.86476 0.0
H2645 H 0.34177 0.61105 0.81333 0.0
H2646 H 0.36622 0.62839 0.75412 0.0
H2647 H 0.35459 0.63911 0.698 0.0
H2648 H 0.15829 0.64029 0.69939 0.0
H2649 H 0.1447 0.62985 0.64855 0.0
H2650 H 0.11649 0.62918 0.74639 0.0
H2651 H 0.12996 0.63975 0.79744 0.0
H2652 H 0.13361 0.60678 0.66135 0.0
H2653 H 0.09938 0.64363 0.63815 0.0
H2654 H 0.11427 0.64644 0.66104 0.0
H2655 H 0.10262 0.63946 0.69368 0.0
C2656 C 0.14918 0.63799 0.71007 0.0
C2657 C 0.14519 0.64087 0.75241 0.0
C2658 C 0.14144 0.63202 0.681 0.0
C2659 C 0.12957 0.62888 0.69364 0.0
C2660 C 0.12555 0.63172 0.73583 0.0
H2661 H 0.07357 0.59173 0.53833 0.0
H2662 H 0.08441 0.60125 0.59951 0.0
C2663 C 0.13328 0.6377 0.76498 0.0
C2664 C 0.1216 0.62228 0.66286 0.0
H2665 H 0.0957 0.62502 0.60202 0.0
C2666 C 0.12529 0.61073 0.64849 0.0
C2667 C 0.11071 0.62746 0.64656 0.0
C2668 C 0.1065 0.63997 0.6603 0.0
C2669 C 0.11848 0.60427 0.61757 0.0
C2670 C 0.10781 0.60961 0.60016 0.0
C2671 C 0.10389 0.62098 0.61554 0.0
C2672 C 0.10116 0.60391 0.56362 0.0
C2673 C 0.12278 0.59182 0.60357 0.0
C2674 C 0.10696 0.6025 0.52323 0.0
C2675 C 0.10084 0.59712 0.4884 0.0
C2676 C 0.08876 0.59309 0.49325 0.0
C2677 C 0.08288 0.5947 0.53364 0.0
C2678 C 0.08904 0.60012 0.56856 0.0
H2679 H 0.12892 0.58766 0.62826 0.0
H2680 H 0.11497 0.5856 0.59792 0.0
H2681 H 0.12794 0.59265 0.57257 0.0
H2682 H 0.11624 0.60559 0.51859 0.0
H2683 H 0.10561 0.59611 0.45769 0.0
H2684 H 0.14595 0.35943 0.20831 0.0
H2685 H 0.13476 0.36939 0.26711 0.0
H2686 H 0.13661 0.33652 0.34378 0.0
H2687 H 0.14796 0.32644 0.28513 0.0
H2688 H 0.11234 0.3623 0.30668 0.0
H2689 H 0.15098 0.36318 0.42434 0.0
H2690 H 0.15313 0.36032 0.36684 0.0
H2691 H 0.14718 0.34858 0.40154 0.0
C2692 C 0.14399 0.35429 0.23764 0.0
C2693 C 0.14792 0.34217 0.2422 0.0
C2694 C 0.13758 0.36 0.27114 0.0
C2695 C 0.13501 0.35372 0.30986 0.0
C2696 C 0.13868 0.34155 0.31433 0.0
H2697 H 0.10171 0.38243 0.5475 0.0
H2698 H 0.11049 0.36874 0.49289 0.0
C2699 C 0.14512 0.33581 0.28074 0.0
C2700 C 0.12854 0.36007 0.34546 0.0
H2701 H 0.13243 0.37171 0.44773 0.0
C2702 C 0.11668 0.3643 0.33765 0.0
C2703 C 0.13426 0.36261 0.38577 0.0
C2704 C 0.14712 0.35853 0.39526 0.0
C2705 C 0.11041 0.37117 0.369 0.0
C2706 C 0.11627 0.37403 0.40876 0.0
C2707 C 0.12799 0.3695 0.4171 0.0
C2708 C 0.11063 0.38219 0.44134 0.0
C2709 C 0.09759 0.3753 0.35929 0.0
C2710 C 0.10796 0.39431 0.43045 0.0
C2711 C 0.10296 0.40215 0.46149 0.0
C2712 C 0.10062 0.39802 0.50407 0.0
C2713 C 0.10338 0.38588 0.51495 0.0
C2714 C 0.10839 0.37805 0.48384 0.0
H2715 H 0.09325 0.36954 0.33384 0.0
H2716 H 0.09185 0.37508 0.38912 0.0
H2717 H 0.09781 0.3848 0.34702 0.0
H2718 H 0.10988 0.39775 0.39804 0.0
H2719 H 0.10099 0.41146 0.45213 0.0
loop_
_geom_bond_atom_site_label_1
_geom_bond_atom_site_label_2
_geom_bond_distance
_geom_bond_site_symmetry_2
_ccdc_geom_bond_type
C0 O1 1.160 . S
C0 O7 1.185 . S
O1 C0 1.160 . S
O2 Zn3 1.899 . S
O2 C10 1.284 . S
Zn3 O2 1.899 . S
Zn3 O4 2.032 . S
Zn3 O7 2.086 . S
Zn3 O12 1.977 . S
O4 Zn3 2.032 . S
O4 C8 1.278 . S
C5 O6 1.203 . S
C5 O12 1.267 . S
O6 C5 1.203 . S
O7 C0 1.185 . S
O7 Zn3 2.086 . S
C8 O4 1.278 . S
C8 O9 1.211 . S
O9 C8 1.211 . S
C10 O2 1.284 . S
C10 O11 1.273 . S
O11 C10 1.273 . S
O12 Zn3 1.977 . S
O12 C5 1.267 . S
C13 O14 1.160 . S
C13 O20 1.185 . S
O14 C13 1.160 . S
O15 Zn16 1.899 . S
O15 C23 1.284 . S
Zn16 O15 1.899 . S
Zn16 O17 2.032 . S
Zn16 O20 2.086 . S
Zn16 O25 1.977 . S
O17 Zn16 2.032 . S
O17 C21 1.278 . S
C18 O19 1.203 . S
C18 O25 1.267 . S
O19 C18 1.203 . S
O20 C13 1.185 . S
O20 Zn16 2.086 . S
C21 O17 1.278 . S
C21 O22 1.211 . S
O22 C21 1.211 . S
C23 O15 1.284 . S
C23 O24 1.273 . S
O24 C23 1.273 . S
O25 Zn16 1.977 . S
O25 C18 1.267 . S
C26 O27 1.160 . S
C26 O33 1.185 . S
O27 C26 1.160 . S
O28 Zn29 1.899 . S
O28 C36 1.284 . S
Zn29 O28 1.899 . S
Zn29 O30 2.032 . S
Zn29 O33 2.086 . S
Zn29 O38 1.977 . S
O30 Zn29 2.032 . S
O30 C34 1.278 . S
C31 O32 1.203 . S
C31 O38 1.267 . S
O32 C31 1.203 . S
O33 C26 1.185 . S
O33 Zn29 2.086 . S
C34 O30 1.278 . S
C34 O35 1.211 . S
O35 C34 1.211 . S
C36 O28 1.284 . S
C36 O37 1.273 . S
O37 C36 1.273 . S
O38 Zn29 1.977 . S
O38 C31 1.267 . S
C39 O40 1.160 . S
C39 O46 1.185 . S
O40 C39 1.160 . S
O41 Zn42 1.899 . S
O41 C49 1.284 . S
Zn42 O41 1.899 . S
Zn42 O43 2.032 . S
Zn42 O46 2.086 . S
Zn42 O51 1.977 . S
O43 Zn42 2.032 . S
O43 C47 1.278 . S
C44 O45 1.203 . S
C44 O51 1.267 . S
O45 C44 1.203 . S
O46 C39 1.185 . S
O46 Zn42 2.086 . S
C47 O43 1.278 . S
C47 O48 1.211 . S
O48 C47 1.211 . S
C49 O41 1.284 . S
C49 O50 1.273 . S
O50 C49 1.273 . S
O51 Zn42 1.977 . S
O51 C44 1.267 . S
C52 O53 1.160 . S
C52 O59 1.185 . S
O53 C52 1.160 . S
O54 Zn55 1.899 . S
O54 C62 1.284 . S
Zn55 O54 1.899 . S
Zn55 O56 2.032 . S
Zn55 O59 2.086 . S
Zn55 O64 1.977 . S
O56 Zn55 2.032 . S
O56 C60 1.278 . S
C57 O58 1.203 . S
C57 O64 1.267 . S
O58 C57 1.203 . S
O59 C52 1.185 . S
O59 Zn55 2.086 . S
C60 O56 1.278 . S
C60 O61 1.211 . S
O61 C60 1.211 . S
C62 O54 1.284 . S
C62 O63 1.273 . S
O63 C62 1.273 . S
O64 Zn55 1.977 . S
O64 C57 1.267 . S
C65 O66 1.160 . S
C65 O72 1.185 . S
O66 C65 1.160 . S
O67 Zn68 1.899 . S
O67 C75 1.284 . S
Zn68 O67 1.899 . S
Zn68 O69 2.032 . S
Zn68 O72 2.086 . S
Zn68 O77 1.977 . S
O69 Zn68 2.032 . S
O69 C73 1.278 . S
C70 O71 1.203 . S
C70 O77 1.267 . S
O71 C70 1.203 . S
O72 C65 1.185 . S
O72 Zn68 2.086 . S
C73 O69 1.278 . S
C73 O74 1.211 . S
O74 C73 1.211 . S
C75 O67 1.284 . S
C75 O76 1.273 . S
O76 C75 1.273 . S
O77 Zn68 1.977 . S
O77 C70 1.267 . S
C78 O79 1.160 . S
C78 O85 1.185 . S
O79 C78 1.160 . S
O80 Zn81 1.899 . S
O80 C88 1.284 . S
Zn81 O80 1.899 . S
Zn81 O82 2.032 . S
Zn81 O85 2.086 . S
Zn81 O90 1.977 . S
O82 Zn81 2.032 . S
O82 C86 1.278 . S
C83 O84 1.203 . S
C83 O90 1.267 . S
O84 C83 1.203 . S
O85 C78 1.185 . S
O85 Zn81 2.086 . S
C86 O82 1.278 . S
C86 O87 1.211 . S
O87 C86 1.211 . S
C88 O80 1.284 . S
C88 O89 1.273 . S
O89 C88 1.273 . S
O90 Zn81 1.977 . S
O90 C83 1.267 . S
C91 O92 1.160 . S
C91 O98 1.185 . S
O92 C91 1.160 . S
O93 Zn94 1.899 . S
O93 C101 1.284 . S
Zn94 O93 1.899 . S
Zn94 O95 2.032 . S
Zn94 O98 2.086 . S
Zn94 O103 1.977 . S
O95 Zn94 2.032 . S
O95 C99 1.278 . S
C96 O97 1.203 . S
C96 O103 1.267 . S
O97 C96 1.203 . S
O98 C91 1.185 . S
O98 Zn94 2.086 . S
C99 O95 1.278 . S
C99 O100 1.211 . S
O100 C99 1.211 . S
C101 O93 1.284 . S
C101 O102 1.273 . S
O102 C101 1.273 . S
O103 Zn94 1.977 . S
O103 C96 1.267 . S
C104 O105 1.160 . S
C104 O111 1.185 . S
O105 C104 1.160 . S
O106 Zn107 1.899 . S
O106 C114 1.284 . S
Zn107 O106 1.899 . S
Zn107 O108 2.032 . S
Zn107 O111 2.086 . S
Zn107 O116 1.977 . S
O108 Zn107 2.032 . S
O108 C112 1.278 . S
C109 O110 1.203 . S
C109 O116 1.267 . S
O110 C109 1.203 . S
O111 C104 1.185 . S
O111 Zn107 2.086 . S
C112 O108 1.278 . S
C112 O113 1.211 . S
O113 C112 1.211 . S
C114 O106 1.284 . S
C114 O115 1.273 . S
O115 C114 1.273 . S
O116 Zn107 1.977 . S
O116 C109 1.267 . S
C117 O118 1.160 . S
C117 O124 1.185 . S
O118 C117 1.160 . S
O119 Zn120 1.899 . S
O119 C127 1.284 . S
Zn120 O119 1.899 . S
Zn120 O121 2.032 . S
Zn120 O124 2.086 . S
Zn120 O129 1.977 . S
O121 Zn120 2.032 . S
O121 C125 1.278 . S
C122 O123 1.203 . S
C122 O129 1.267 . S
O123 C122 1.203 . S
O124 C117 1.185 . S
O124 Zn120 2.086 . S
C125 O121 1.278 . S
C125 O126 1.211 . S
O126 C125 1.211 . S
C127 O119 1.284 . S
C127 O128 1.273 . S
O128 C127 1.273 . S
O129 Zn120 1.977 . S
O129 C122 1.267 . S
C130 O131 1.160 . S
C130 O137 1.185 . S
O131 C130 1.160 . S
O132 Zn133 1.899 . S
O132 C140 1.284 . S
Zn133 O132 1.899 . S
Zn133 O134 2.032 . S
Zn133 O137 2.086 . S
Zn133 O142 1.977 . S
O134 Zn133 2.032 . S
O134 C138 1.278 . S
C135 O136 1.203 . S
C135 O142 1.267 . S
O136 C135 1.203 . S
O137 C130 1.185 . S
O137 Zn133 2.086 . S
C138 O134 1.278 . S
C138 O139 1.211 . S
O139 C138 1.211 . S
C140 O132 1.284 . S
C140 O141 1.273 . S
O141 C140 1.273 . S
O142 Zn133 1.977 . S
O142 C135 1.267 . S
C143 O144 1.160 . S
C143 O150 1.185 . S
O144 C143 1.160 . S
O145 Zn146 1.899 . S
O145 C153 1.284 . S
Zn146 O145 1.899 . S
Zn146 O147 2.032 . S
Zn146 O150 2.086 . S
Zn146 O155 1.977 . S
O147 Zn146 2.032 . S
O147 C151 1.278 . S
C148 O149 1.203 . S
C148 O155 1.267 . S
O149 C148 1.203 . S
O150 C143 1.185 . S
O150 Zn146 2.086 . S
C151 O147 1.278 . S
C151 O152 1.211 . S
O152 C151 1.211 . S
C153 O145 1.284 . S
C153 O154 1.273 . S
O154 C153 1.273 . S
O155 Zn146 1.977 . S
O155 C148 1.267 . S
C156 O157 1.160 . S
C156 O163 1.185 . S
O157 C156 1.160 . S
O158 Zn159 1.899 . S
O158 C166 1.284 . S
Zn159 O158 1.899 . S
Zn159 O160 2.032 . S
Zn159 O163 2.086 . S
Zn159 O168 1.977 . S
O160 Zn159 2.032 . S
O160 C164 1.278 . S
C161 O162 1.203 . S
C161 O168 1.267 . S
O162 C161 1.203 . S
O163 C156 1.185 . S
O163 Zn159 2.086 . S
C164 O160 1.278 . S
C164 O165 1.211 . S
O165 C164 1.211 . S
C166 O158 1.284 . S
C166 O167 1.273 . S
O167 C166 1.273 . S
O168 Zn159 1.977 . S
O168 C161 1.267 . S
C169 O170 1.160 . S
C169 O176 1.185 . S
O170 C169 1.160 . S
O171 Zn172 1.899 . S
O171 C179 1.284 . S
Zn172 O171 1.899 . S
Zn172 O173 2.032 . S
Zn172 O176 2.086 . S
Zn172 O181 1.977 . S
O173 Zn172 2.032 . S
O173 C177 1.278 . S
C174 O175 1.203 . S
C174 O181 1.267 . S
O175 C174 1.203 . S
O176 C169 1.185 . S
O176 Zn172 2.086 . S
C177 O173 1.278 . S
C177 O178 1.211 . S
O178 C177 1.211 . S
C179 O171 1.284 . S
C179 O180 1.273 . S
O180 C179 1.273 . S
O181 Zn172 1.977 . S
O181 C174 1.267 . S
C182 O183 1.160 . S
C182 O189 1.185 . S
O183 C182 1.160 . S
O184 Zn185 1.899 . S
O184 C192 1.284 . S
Zn185 O184 1.899 . S
Zn185 O186 2.032 . S
Zn185 O189 2.086 . S
Zn185 O194 1.977 . S
O186 Zn185 2.032 . S
O186 C190 1.278 . S
C187 O188 1.203 . S
C187 O194 1.267 . S
O188 C187 1.203 . S
O189 C182 1.185 . S
O189 Zn185 2.086 . S
C190 O186 1.278 . S
C190 O191 1.211 . S
O191 C190 1.211 . S
C192 O184 1.284 . S
C192 O193 1.273 . S
O193 C192 1.273 . S
O194 Zn185 1.977 . S
O194 C187 1.267 . S
C195 O196 1.160 . S
C195 O202 1.185 . S
O196 C195 1.160 . S
O197 Zn198 1.899 . S
O197 C205 1.284 . S
Zn198 O197 1.899 . S
Zn198 O199 2.032 . S
Zn198 O202 2.086 . S
Zn198 O207 1.977 . S
O199 Zn198 2.032 . S
O199 C203 1.278 . S
C200 O201 1.203 . S
C200 O207 1.267 . S
O201 C200 1.203 . S
O202 C195 1.185 . S
O202 Zn198 2.086 . S
C203 O199 1.278 . S
C203 O204 1.211 . S
O204 C203 1.211 . S
C205 O197 1.284 . S
C205 O206 1.273 . S
O206 C205 1.273 . S
O207 Zn198 1.977 . S
O207 C200 1.267 . S
C208 O209 1.160 . S
C208 O215 1.185 . S
O209 C208 1.160 . S
O210 Zn211 1.899 . S
O210 C218 1.284 . S
Zn211 O210 1.899 . S
Zn211 O212 2.032 . S
Zn211 O215 2.086 . S
Zn211 O220 1.977 . S
O212 Zn211 2.032 . S
O212 C216 1.278 . S
C213 O214 1.203 . S
C213 O220 1.267 . S
O214 C213 1.203 . S
O215 C208 1.185 . S
O215 Zn211 2.086 . S
C216 O212 1.278 . S
C216 O217 1.211 . S
O217 C216 1.211 . S
C218 O210 1.284 . S
C218 O219 1.273 . S
O219 C218 1.273 . S
O220 Zn211 1.977 . S
O220 C213 1.267 . S
C221 O222 1.160 . S
C221 O228 1.185 . S
O222 C221 1.160 . S
O223 Zn224 1.899 . S
O223 C231 1.284 . S
Zn224 O223 1.899 . S
Zn224 O225 2.032 . S
Zn224 O228 2.086 . S
Zn224 O233 1.977 . S
O225 Zn224 2.032 . S
O225 C229 1.278 . S
C226 O227 1.203 . S
C226 O233 1.267 . S
O227 C226 1.203 . S
O228 C221 1.185 . S
O228 Zn224 2.086 . S
C229 O225 1.278 . S
C229 O230 1.211 . S
O230 C229 1.211 . S
C231 O223 1.284 . S
C231 O232 1.273 . S
O232 C231 1.273 . S
O233 Zn224 1.977 . S
O233 C226 1.267 . S
C234 O235 1.160 . S
C234 O241 1.185 . S
O235 C234 1.160 . S
O236 Zn237 1.899 . S
O236 C244 1.284 . S
Zn237 O236 1.899 . S
Zn237 O238 2.032 . S
Zn237 O241 2.086 . S
Zn237 O246 1.977 . S
O238 Zn237 2.032 . S
O238 C242 1.278 . S
C239 O240 1.203 . S
C239 O246 1.267 . S
O240 C239 1.203 . S
O241 C234 1.185 . S
O241 Zn237 2.086 . S
C242 O238 1.278 . S
C242 O243 1.211 . S
O243 C242 1.211 . S
C244 O236 1.284 . S
C244 O245 1.273 . S
O245 C244 1.273 . S
O246 Zn237 1.977 . S
O246 C239 1.267 . S
C247 O248 1.160 . S
C247 O254 1.185 . S
O248 C247 1.160 . S
O249 Zn250 1.899 . S
O249 C257 1.284 . S
Zn250 O249 1.899 . S
Zn250 O251 2.032 . S
Zn250 O254 2.086 . S
Zn250 O259 1.977 . S
O251 Zn250 2.032 . S
O251 C255 1.278 . S
C252 O253 1.203 . S
C252 O259 1.267 . S
O253 C252 1.203 . S
O254 C247 1.185 . S
O254 Zn250 2.086 . S
C255 O251 1.278 . S
C255 O256 1.211 . S
O256 C255 1.211 . S
C257 O249 1.284 . S
C257 O258 1.273 . S
O258 C257 1.273 . S
O259 Zn250 1.977 . S
O259 C252 1.267 . S
C260 O261 1.160 . S
C260 O267 1.185 . S
O261 C260 1.160 . S
O262 Zn263 1.899 . S
O262 C270 1.284 . S
Zn263 O262 1.899 . S
Zn263 O264 2.032 . S
Zn263 O267 2.086 . S
Zn263 O272 1.977 . S
O264 Zn263 2.032 . S
O264 C268 1.278 . S
C265 O266 1.203 . S
C265 O272 1.267 . S
O266 C265 1.203 . S
O267 C260 1.185 . S
O267 Zn263 2.086 . S
C268 O264 1.278 . S
C268 O269 1.211 . S
O269 C268 1.211 . S
C270 O262 1.284 . S
C270 O271 1.273 . S
O271 C270 1.273 . S
O272 Zn263 1.977 . S
O272 C265 1.267 . S
C273 O274 1.160 . S
C273 O280 1.185 . S
O274 C273 1.160 . S
O275 Zn276 1.899 . S
O275 C283 1.284 . S
Zn276 O275 1.899 . S
Zn276 O277 2.032 . S
Zn276 O280 2.086 . S
Zn276 O285 1.977 . S
O277 Zn276 2.032 . S
O277 C281 1.278 . S
C278 O279 1.203 . S
C278 O285 1.267 . S
O279 C278 1.203 . S
O280 C273 1.185 . S
O280 Zn276 2.086 . S
C281 O277 1.278 . S
C281 O282 1.211 . S
O282 C281 1.211 . S
C283 O275 1.284 . S
C283 O284 1.273 . S
O284 C283 1.273 . S
O285 Zn276 1.977 . S
O285 C278 1.267 . S
C286 O287 1.160 . S
C286 O293 1.185 . S
O287 C286 1.160 . S
O288 Zn289 1.899 . S
O288 C296 1.284 . S
Zn289 O288 1.899 . S
Zn289 O290 2.032 . S
Zn289 O293 2.086 . S
Zn289 O298 1.977 . S
O290 Zn289 2.032 . S
O290 C294 1.278 . S
C291 O292 1.203 . S
C291 O298 1.267 . S
O292 C291 1.203 . S
O293 C286 1.185 . S
O293 Zn289 2.086 . S
C294 O290 1.278 . S
C294 O295 1.211 . S
O295 C294 1.211 . S
C296 O288 1.284 . S
C296 O297 1.273 . S
O297 C296 1.273 . S
O298 Zn289 1.977 . S
O298 C291 1.267 . S
C299 O300 1.160 . S
C299 O306 1.185 . S
O300 C299 1.160 . S
O301 Zn302 1.899 . S
O301 C309 1.284 . S
Zn302 O301 1.899 . S
Zn302 O303 2.032 . S
Zn302 O306 2.086 . S
Zn302 O311 1.977 . S
O303 Zn302 2.032 . S
O303 C307 1.278 . S
C304 O305 1.203 . S
C304 O311 1.267 . S
O305 C304 1.203 . S
O306 C299 1.185 . S
O306 Zn302 2.086 . S
C307 O303 1.278 . S
C307 O308 1.211 . S
O308 C307 1.211 . S
C309 O301 1.284 . S
C309 O310 1.273 . S
O310 C309 1.273 . S
O311 Zn302 1.977 . S
O311 C304 1.267 . S
C312 O313 1.160 . S
C312 O319 1.185 . S
O313 C312 1.160 . S
O314 Zn315 1.899 . S
O314 C322 1.284 . S
Zn315 O314 1.899 . S
Zn315 O316 2.032 . S
Zn315 O319 2.086 . S
Zn315 O324 1.977 . S
O316 Zn315 2.032 . S
O316 C320 1.278 . S
C317 O318 1.203 . S
C317 O324 1.267 . S
O318 C317 1.203 . S
O319 C312 1.185 . S
O319 Zn315 2.086 . S
C320 O316 1.278 . S
C320 O321 1.211 . S
O321 C320 1.211 . S
C322 O314 1.284 . S
C322 O323 1.273 . S
O323 C322 1.273 . S
O324 Zn315 1.977 . S
O324 C317 1.267 . S
C325 O326 1.160 . S
C325 O332 1.185 . S
O326 C325 1.160 . S
O327 Zn328 1.899 . S
O327 C335 1.284 . S
Zn328 O327 1.899 . S
Zn328 O329 2.032 . S
Zn328 O332 2.086 . S
Zn328 O337 1.977 . S
O329 Zn328 2.032 . S
O329 C333 1.278 . S
C330 O331 1.203 . S
C330 O337 1.267 . S
O331 C330 1.203 . S
O332 C325 1.185 . S
O332 Zn328 2.086 . S
C333 O329 1.278 . S
C333 O334 1.211 . S
O334 C333 1.211 . S
C335 O327 1.284 . S
C335 O336 1.273 . S
O336 C335 1.273 . S
O337 Zn328 1.977 . S
O337 C330 1.267 . S
C338 O339 1.160 . S
C338 O345 1.185 . S
O339 C338 1.160 . S
O340 Zn341 1.899 . S
O340 C348 1.284 . S
Zn341 O340 1.899 . S
Zn341 O342 2.032 . S
Zn341 O345 2.086 . S
Zn341 O350 1.977 . S
O342 Zn341 2.032 . S
O342 C346 1.278 . S
C343 O344 1.203 . S
C343 O350 1.267 . S
O344 C343 1.203 . S
O345 C338 1.185 . S
O345 Zn341 2.086 . S
C346 O342 1.278 . S
C346 O347 1.211 . S
O347 C346 1.211 . S
C348 O340 1.284 . S
C348 O349 1.273 . S
O349 C348 1.273 . S
O350 Zn341 1.977 . S
O350 C343 1.267 . S
C351 O352 1.160 . S
C351 O358 1.185 . S
O352 C351 1.160 . S
O353 Zn354 1.899 . S
O353 C361 1.284 . S
Zn354 O353 1.899 . S
Zn354 O355 2.032 . S
Zn354 O358 2.086 . S
Zn354 O363 1.977 . S
O355 Zn354 2.032 . S
O355 C359 1.278 . S
C356 O357 1.203 . S
C356 O363 1.267 . S
O357 C356 1.203 . S
O358 C351 1.185 . S
O358 Zn354 2.086 . S
C359 O355 1.278 . S
C359 O360 1.211 . S
O360 C359 1.211 . S
C361 O353 1.284 . S
C361 O362 1.273 . S
O362 C361 1.273 . S
O363 Zn354 1.977 . S
O363 C356 1.267 . S
C364 O365 1.160 . S
C364 O371 1.185 . S
O365 C364 1.160 . S
O366 Zn367 1.899 . S
O366 C374 1.284 . S
Zn367 O366 1.899 . S
Zn367 O368 2.032 . S
Zn367 O371 2.086 . S
Zn367 O376 1.977 . S
O368 Zn367 2.032 . S
O368 C372 1.278 . S
C369 O370 1.203 . S
C369 O376 1.267 . S
O370 C369 1.203 . S
O371 C364 1.185 . S
O371 Zn367 2.086 . S
C372 O368 1.278 . S
C372 O373 1.211 . S
O373 C372 1.211 . S
C374 O366 1.284 . S
C374 O375 1.273 . S
O375 C374 1.273 . S
O376 Zn367 1.977 . S
O376 C369 1.267 . S
C377 O378 1.160 . S
C377 O384 1.185 . S
O378 C377 1.160 . S
O379 Zn380 1.899 . S
O379 C387 1.284 . S
Zn380 O379 1.899 . S
Zn380 O381 2.032 . S
Zn380 O384 2.086 . S
Zn380 O389 1.977 . S
O381 Zn380 2.032 . S
O381 C385 1.278 . S
C382 O383 1.203 . S
C382 O389 1.267 . S
O383 C382 1.203 . S
O384 C377 1.185 . S
O384 Zn380 2.086 . S
C385 O381 1.278 . S
C385 O386 1.211 . S
O386 C385 1.211 . S
C387 O379 1.284 . S
C387 O388 1.273 . S
O388 C387 1.273 . S
O389 Zn380 1.977 . S
O389 C382 1.267 . S
C390 O391 1.160 . S
C390 O397 1.185 . S
O391 C390 1.160 . S
O392 Zn393 1.899 . S
O392 C400 1.284 . S
Zn393 O392 1.899 . S
Zn393 O394 2.032 . S
Zn393 O397 2.086 . S
Zn393 O402 1.977 . S
O394 Zn393 2.032 . S
O394 C398 1.278 . S
C395 O396 1.203 . S
C395 O402 1.267 . S
O396 C395 1.203 . S
O397 C390 1.185 . S
O397 Zn393 2.086 . S
C398 O394 1.278 . S
C398 O399 1.211 . S
O399 C398 1.211 . S
C400 O392 1.284 . S
C400 O401 1.273 . S
O401 C400 1.273 . S
O402 Zn393 1.977 . S
O402 C395 1.267 . S
C403 O404 1.160 . S
C403 O410 1.185 . S
O404 C403 1.160 . S
O405 Zn406 1.899 . S
O405 C413 1.284 . S
Zn406 O405 1.899 . S
Zn406 O407 2.032 . S
Zn406 O410 2.086 . S
Zn406 O415 1.977 . S
O407 Zn406 2.032 . S
O407 C411 1.278 . S
C408 O409 1.203 . S
C408 O415 1.267 . S
O409 C408 1.203 . S
O410 C403 1.185 . S
O410 Zn406 2.086 . S
C411 O407 1.278 . S
C411 O412 1.211 . S
O412 C411 1.211 . S
C413 O405 1.284 . S
C413 O414 1.273 . S
O414 C413 1.273 . S
O415 Zn406 1.977 . S
O415 C408 1.267 . S
H416 C424 0.929 . S
H417 C426 0.930 . S
H418 C428 0.930 . S
H419 C431 0.929 . S
H420 C434 0.930 . S
H421 C436 0.960 . S
H422 C436 0.960 . S
H423 C436 0.960 . S
C424 H416 0.929 . S
C424 C425 1.377 . S
C424 C426 1.384 . S
C425 C424 1.377 . S
C425 C431 1.390 . S
C426 H417 0.930 . S
C426 C424 1.384 . S
C426 C427 1.372 . S
C427 C426 1.372 . S
C427 C428 1.400 . S
C427 C432 1.490 . S
C428 H418 0.930 . S
C428 C427 1.400 . S
C428 C431 1.386 . S
H429 C445 0.930 . S
H430 C446 0.931 . S
C431 H419 0.929 . S
C431 C425 1.390 . S
C431 C428 1.386 . S
C432 C427 1.490 . S
C432 C434 1.395 . S
C432 C435 1.403 . S
H433 C439 0.930 . S
C434 H420 0.930 . S
C434 C432 1.395 . S
C434 C437 1.403 . S
C435 C432 1.403 . S
C435 C436 1.524 . S
C435 C439 1.400 . S
C436 H421 0.960 . S
C436 H422 0.960 . S
C436 H423 0.960 . S
C436 C435 1.524 . S
C437 C434 1.403 . S
C437 C438 1.392 . S
C437 C441 1.495 . S
C438 C437 1.392 . S
C438 C439 1.385 . S
C438 C440 1.478 . S
C439 H433 0.930 . S
C439 C435 1.400 . S
C439 C438 1.385 . S
C440 C438 1.478 . S
C440 C442 1.381 . S
C440 C446 1.383 . S
C441 C437 1.495 . S
C441 H447 0.959 . S
C441 H448 0.961 . S
C441 H449 0.960 . S
C442 C440 1.381 . S
C442 C443 1.394 . S
C442 H450 0.930 . S
C443 C442 1.394 . S
C443 C444 1.383 . S
C443 H451 0.929 . S
C444 C443 1.383 . S
C444 C445 1.377 . S
C445 H429 0.930 . S
C445 C444 1.377 . S
C445 C446 1.379 . S
C446 H430 0.931 . S
C446 C440 1.383 . S
C446 C445 1.379 . S
H447 C441 0.959 . S
H448 C441 0.961 . S
H449 C441 0.960 . S
H450 C442 0.930 . S
H451 C443 0.929 . S
H452 C460 0.929 . S
H453 C462 0.930 . S
H454 C464 0.930 . S
H455 C467 0.929 . S
H456 C470 0.930 . S
H457 C472 0.960 1_545 S
H458 C472 0.960 . S
H459 C472 0.960 . S
C460 H452 0.929 . S
C460 C461 1.377 . S
C460 C462 1.384 . S
C461 C460 1.377 . S
C461 C467 1.390 . S
C462 H453 0.930 . S
C462 C460 1.384 . S
C462 C463 1.372 . S
C463 C462 1.372 . S
C463 C464 1.400 . S
C463 C468 1.490 . S
C464 H454 0.930 . S
C464 C463 1.400 . S
C464 C467 1.386 . S
H465 C481 0.930 . S
H466 C482 0.931 . S
C467 H455 0.929 . S
C467 C461 1.390 . S
C467 C464 1.386 . S
C468 C463 1.490 . S
C468 C470 1.395 . S
C468 C471 1.403 . S
H469 C475 0.930 . S
C470 H456 0.930 . S
C470 C468 1.395 . S
C470 C473 1.403 1_565 S
C471 C468 1.403 . S
C471 C472 1.524 . S
C471 C475 1.400 1_565 S
C472 H457 0.960 1_565 S
C472 H458 0.960 . S
C472 H459 0.960 . S
C472 C471 1.524 . S
C473 C470 1.403 1_545 S
C473 C474 1.392 . S
C473 C477 1.495 . S
C474 C473 1.392 . S
C474 C475 1.385 . S
C474 C476 1.478 . S
C475 H469 0.930 . S
C475 C471 1.400 1_545 S
C475 C474 1.385 . S
C476 C474 1.478 . S
C476 C478 1.381 . S
C476 C482 1.383 . S
C477 C473 1.495 . S
C477 H483 0.959 1_545 S
C477 H484 0.961 . S
C477 H485 0.960 . S
C478 C476 1.381 . S
C478 C479 1.394 . S
C478 H486 0.930 . S
C479 C478 1.394 . S
C479 C480 1.383 . S
C479 H487 0.929 . S
C480 C479 1.383 . S
C480 C481 1.377 . S
C481 H465 0.930 . S
C481 C480 1.377 . S
C481 C482 1.379 . S
C482 H466 0.931 . S
C482 C476 1.383 . S
C482 C481 1.379 . S
H483 C477 0.959 1_565 S
H484 C477 0.961 . S
H485 C477 0.960 . S
H486 C478 0.930 . S
H487 C479 0.929 . S
H488 C496 0.929 . S
H489 C498 0.930 . S
H490 C500 0.930 . S
H491 C503 0.929 . S
H492 C506 0.930 . S
H493 C508 0.960 . S
H494 C508 0.960 . S
H495 C508 0.960 . S
C496 H488 0.929 . S
C496 C497 1.377 . S
C496 C498 1.384 . S
C497 C496 1.377 . S
C497 C503 1.390 . S
C498 H489 0.930 . S
C498 C496 1.384 . S
C498 C499 1.372 . S
C499 C498 1.372 . S
C499 C500 1.400 . S
C499 C504 1.490 . S
C500 H490 0.930 . S
C500 C499 1.400 . S
C500 C503 1.386 . S
H501 C517 0.930 . S
H502 C518 0.931 . S
C503 H491 0.929 . S
C503 C497 1.390 . S
C503 C500 1.386 . S
C504 C499 1.490 . S
C504 C506 1.395 . S
C504 C507 1.403 . S
H505 C511 0.930 . S
C506 H492 0.930 . S
C506 C504 1.395 . S
C506 C509 1.403 . S
C507 C504 1.403 . S
C507 C508 1.524 . S
C507 C511 1.400 . S
C508 H493 0.960 . S
C508 H494 0.960 . S
C508 H495 0.960 . S
C508 C507 1.524 . S
C509 C506 1.403 . S
C509 C510 1.392 . S
C509 C513 1.495 . S
C510 C509 1.392 . S
C510 C511 1.385 . S
C510 C512 1.478 . S
C511 H505 0.930 . S
C511 C507 1.400 . S
C511 C510 1.385 . S
C512 C510 1.478 . S
C512 C514 1.381 . S
C512 C518 1.383 . S
C513 C509 1.495 . S
C513 H519 0.959 . S
C513 H520 0.961 . S
C513 H521 0.960 . S
C514 C512 1.381 . S
C514 C515 1.394 . S
C514 H522 0.930 . S
C515 C514 1.394 . S
C515 C516 1.383 . S
C515 H523 0.929 . S
C516 C515 1.383 . S
C516 C517 1.377 . S
C517 H501 0.930 . S
C517 C516 1.377 . S
C517 C518 1.379 . S
C518 H502 0.931 . S
C518 C512 1.383 . S
C518 C517 1.379 . S
H519 C513 0.959 . S
H520 C513 0.961 . S
H521 C513 0.960 . S
H522 C514 0.930 . S
H523 C515 0.929 . S
H524 C532 0.929 . S
H525 C534 0.930 1_554 S
H526 C536 0.930 . S
H527 C539 0.929 . S
H528 C542 0.930 . S
H529 C544 0.961 1_565 S
H530 C544 0.960 . S
H531 C544 0.960 . S
C532 H524 0.929 . S
C532 C533 1.377 . S
C532 C534 1.384 . S
C533 C532 1.377 . S
C533 C539 1.390 . S
C534 H525 0.930 1_556 S
C534 C532 1.384 . S
C534 C535 1.372 . S
C535 C534 1.372 . S
C535 C536 1.400 . S
C535 C540 1.490 . S
C536 H526 0.930 . S
C536 C535 1.400 . S
C536 C539 1.386 . S
H537 C553 0.930 . S
H538 C554 0.931 1_556 S
C539 H527 0.929 . S
C539 C533 1.390 . S
C539 C536 1.386 . S
C540 C535 1.490 . S
C540 C542 1.395 1_556 S
C540 C543 1.403 . S
H541 C547 0.930 . S
C542 H528 0.930 . S
C542 C540 1.395 1_554 S
C542 C545 1.403 1_545 S
C543 C540 1.403 . S
C543 C544 1.524 . S
C543 C547 1.400 1_545 S
C544 H529 0.961 1_545 S
C544 H530 0.960 . S
C544 H531 0.960 . S
C544 C543 1.524 . S
C545 C542 1.403 1_565 S
C545 C546 1.392 . S
C545 C549 1.495 . S
C546 C545 1.392 . S
C546 C547 1.385 1_554 S
C546 C548 1.478 . S
C547 H541 0.930 . S
C547 C543 1.400 1_565 S
C547 C546 1.385 1_556 S
C548 C546 1.478 . S
C548 C550 1.381 . S
C548 C554 1.383 . S
C549 C545 1.495 . S
C549 H555 0.918 1_565 S
C549 H556 0.961 . S
C549 H557 0.960 . S
C550 C548 1.381 . S
C550 C551 1.394 . S
C550 H558 0.930 . S
C551 C550 1.394 . S
C551 C552 1.383 . S
C551 H559 0.929 . S
C552 C551 1.383 . S
C552 C553 1.377 . S
C553 H537 0.930 . S
C553 C552 1.377 . S
C553 C554 1.379 . S
C554 H538 0.931 1_554 S
C554 C548 1.383 . S
C554 C553 1.379 . S
H555 C549 0.918 1_545 S
H556 C549 0.961 . S
H557 C549 0.960 . S
H558 C550 0.930 . S
H559 C551 0.929 . S
H560 C568 0.929 . S
H561 C570 0.930 . S
H562 C572 0.930 . S
H563 C575 0.929 . S
H564 C578 0.930 . S
H565 C580 0.960 . S
H566 C580 0.960 . S
H567 C580 0.960 . S
C568 H560 0.929 . S
C568 C569 1.377 . S
C568 C570 1.384 . S
C569 C568 1.377 . S
C569 C575 1.390 . S
C570 H561 0.930 . S
C570 C568 1.384 . S
C570 C571 1.372 . S
C571 C570 1.372 . S
C571 C572 1.400 . S
C571 C576 1.490 . S
C572 H562 0.930 . S
C572 C571 1.400 . S
C572 C575 1.386 . S
H573 C589 0.930 . S
H574 C590 0.931 . S
C575 H563 0.929 . S
C575 C569 1.390 . S
C575 C572 1.386 . S
C576 C571 1.490 . S
C576 C578 1.395 . S
C576 C579 1.403 . S
H577 C583 0.930 . S
C578 H564 0.930 . S
C578 C576 1.395 . S
C578 C581 1.403 . S
C579 C576 1.403 . S
C579 C580 1.524 . S
C579 C583 1.400 . S
C580 H565 0.960 . S
C580 H566 0.960 . S
C580 H567 0.960 . S
C580 C579 1.524 . S
C581 C578 1.403 . S
C581 C582 1.392 . S
C581 C585 1.495 . S
C582 C581 1.392 . S
C582 C583 1.385 . S
C582 C584 1.478 . S
C583 H577 0.930 . S
C583 C579 1.400 . S
C583 C582 1.385 . S
C584 C582 1.478 . S
C584 C586 1.381 . S
C584 C590 1.383 . S
C585 C581 1.495 . S
C585 H591 0.959 . S
C585 H592 0.961 . S
C585 H593 0.960 . S
C586 C584 1.381 . S
C586 C587 1.394 . S
C586 H594 0.930 . S
C587 C586 1.394 . S
C587 C588 1.383 . S
C587 H595 0.929 . S
C588 C587 1.383 . S
C588 C589 1.377 . S
C589 H573 0.930 . S
C589 C588 1.377 . S
C589 C590 1.379 . S
C590 H574 0.931 . S
C590 C584 1.383 . S
C590 C589 1.379 . S
H591 C585 0.959 . S
H592 C585 0.961 . S
H593 C585 0.960 . S
H594 C586 0.930 . S
H595 C587 0.929 . S
H596 C604 0.929 . S
H597 C606 0.930 . S
H598 C608 0.930 . S
H599 C611 0.929 . S
H600 C614 0.930 . S
H601 C616 0.960 . S
H602 C616 0.960 . S
H603 C616 0.960 . S
C604 H596 0.929 . S
C604 C605 1.377 . S
C604 C606 1.384 . S
C605 C604 1.377 . S
C605 C611 1.390 . S
C606 H597 0.930 . S
C606 C604 1.384 . S
C606 C607 1.372 . S
C607 C606 1.372 . S
C607 C608 1.400 . S
C607 C612 1.490 . S
C608 H598 0.930 . S
C608 C607 1.400 . S
C608 C611 1.386 . S
H609 C625 0.930 . S
H610 C626 0.931 . S
C611 H599 0.929 . S
C611 C605 1.390 . S
C611 C608 1.386 . S
C612 C607 1.490 . S
C612 C614 1.395 . S
C612 C615 1.403 . S
H613 C619 0.930 . S
C614 H600 0.930 . S
C614 C612 1.395 . S
C614 C617 1.403 1_565 S
C615 C612 1.403 . S
C615 C616 1.524 . S
C615 C619 1.400 1_565 S
C616 H601 0.960 . S
C616 H602 0.960 . S
C616 H603 0.960 . S
C616 C615 1.524 . S
C617 C614 1.403 1_545 S
C617 C618 1.392 . S
C617 C621 1.495 . S
C618 C617 1.392 . S
C618 C619 1.385 . S
C618 C620 1.478 . S
C619 H613 0.930 . S
C619 C615 1.400 1_545 S
C619 C618 1.385 . S
C620 C618 1.478 . S
C620 C622 1.381 . S
C620 C626 1.383 . S
C621 C617 1.495 . S
C621 H627 0.959 . S
C621 H628 0.961 . S
C621 H629 0.960 . S
C622 C620 1.381 . S
C622 C623 1.394 . S
C622 H630 0.930 . S
C623 C622 1.394 . S
C623 C624 1.383 . S
C623 H631 0.929 . S
C624 C623 1.383 . S
C624 C625 1.377 . S
C625 H609 0.930 . S
C625 C624 1.377 . S
C625 C626 1.379 . S
C626 H610 0.931 . S
C626 C620 1.383 . S
C626 C625 1.379 . S
H627 C621 0.959 . S
H628 C621 0.961 . S
H629 C621 0.960 . S
H630 C622 0.930 . S
H631 C623 0.929 . S
H632 C640 0.929 . S
H633 C642 0.930 . S
H634 C644 0.930 . S
H635 C647 0.929 . S
H636 C650 0.930 . S
H637 C652 0.960 . S
H638 C652 0.960 . S
H639 C652 0.960 . S
C640 H632 0.929 . S
C640 C641 1.377 . S
C640 C642 1.384 . S
C641 C640 1.377 . S
C641 C647 1.390 . S
C642 H633 0.930 . S
C642 C640 1.384 . S
C642 C643 1.372 . S
C643 C642 1.372 . S
C643 C644 1.400 . S
C643 C648 1.490 . S
C644 H634 0.930 . S
C644 C643 1.400 . S
C644 C647 1.386 . S
H645 C661 0.930 . S
H646 C662 0.931 . S
C647 H635 0.929 . S
C647 C641 1.390 . S
C647 C644 1.386 . S
C648 C643 1.490 . S
C648 C650 1.395 . S
C648 C651 1.403 . S
H649 C655 0.930 . S
C650 H636 0.930 . S
C650 C648 1.395 . S
C650 C653 1.403 . S
C651 C648 1.403 . S
C651 C652 1.524 . S
C651 C655 1.400 . S
C652 H637 0.960 . S
C652 H638 0.960 . S
C652 H639 0.960 . S
C652 C651 1.524 . S
C653 C650 1.403 . S
C653 C654 1.392 . S
C653 C657 1.495 . S
C654 C653 1.392 . S
C654 C655 1.385 . S
C654 C656 1.478 . S
C655 H649 0.930 . S
C655 C651 1.400 . S
C655 C654 1.385 . S
C656 C654 1.478 . S
C656 C658 1.381 . S
C656 C662 1.383 . S
C657 C653 1.495 . S
C657 H663 0.959 . S
C657 H664 0.961 . S
C657 H665 0.960 . S
C658 C656 1.381 . S
C658 C659 1.394 . S
C658 H666 0.930 . S
C659 C658 1.394 . S
C659 C660 1.383 . S
C659 H667 0.929 . S
C660 C659 1.383 . S
C660 C661 1.377 . S
C661 H645 0.930 . S
C661 C660 1.377 . S
C661 C662 1.379 . S
C662 H646 0.931 . S
C662 C656 1.383 . S
C662 C661 1.379 . S
H663 C657 0.959 . S
H664 C657 0.961 . S
H665 C657 0.960 . S
H666 C658 0.930 . S
H667 C659 0.929 . S
H668 C676 0.929 . S
H669 C678 0.930 . S
H670 C680 0.930 . S
H671 C683 0.929 . S
H672 C686 0.930 . S
H673 C688 0.960 1_565 S
H674 C688 0.960 . S
H675 C688 0.960 . S
C676 H668 0.929 . S
C676 C677 1.377 . S
C676 C678 1.384 . S
C677 C676 1.377 . S
C677 C683 1.390 . S
C678 H669 0.930 . S
C678 C676 1.384 . S
C678 C679 1.372 . S
C679 C678 1.372 . S
C679 C680 1.400 . S
C679 C684 1.490 . S
C680 H670 0.930 . S
C680 C679 1.400 . S
C680 C683 1.386 . S
H681 C697 0.930 . S
H682 C698 0.931 . S
C683 H671 0.929 . S
C683 C677 1.390 . S
C683 C680 1.386 . S
C684 C679 1.490 . S
C684 C686 1.395 1_556 S
C684 C687 1.403 . S
H685 C691 0.930 . S
C686 H672 0.930 . S
C686 C684 1.395 1_554 S
C686 C689 1.403 1_545 S
C687 C684 1.403 . S
C687 C688 1.524 . S
C687 C691 1.400 1_545 S
C688 H673 0.960 1_545 S
C688 H674 0.960 . S
C688 H675 0.960 . S
C688 C687 1.524 . S
C689 C686 1.403 1_565 S
C689 C690 1.392 . S
C689 C693 1.495 . S
C690 C689 1.392 . S
C690 C691 1.385 1_554 S
C690 C692 1.478 . S
C691 H685 0.930 . S
C691 C687 1.400 1_565 S
C691 C690 1.385 1_556 S
C692 C690 1.478 . S
C692 C694 1.381 . S
C692 C698 1.383 . S
C693 C689 1.495 . S
C693 H699 0.959 1_565 S
C693 H700 0.961 . S
C693 H701 0.960 . S
C694 C692 1.381 . S
C694 C695 1.394 . S
C694 H702 0.930 . S
C695 C694 1.394 . S
C695 C696 1.383 . S
C695 H703 0.929 . S
C696 C695 1.383 . S
C696 C697 1.377 . S
C697 H681 0.930 . S
C697 C696 1.377 . S
C697 C698 1.379 . S
C698 H682 0.931 . S
C698 C692 1.383 . S
C698 C697 1.379 . S
H699 C693 0.959 1_545 S
H700 C693 0.961 . S
H701 C693 0.960 . S
H702 C694 0.930 . S
H703 C695 0.929 . S
H704 C712 0.929 . S
H705 C714 0.930 . S
H706 C716 0.930 . S
H707 C719 0.929 . S
H708 C722 0.930 . S
H709 C724 0.960 . S
H710 C724 0.960 . S
H711 C724 0.960 . S
C712 H704 0.929 . S
C712 C713 1.377 . S
C712 C714 1.384 . S
C713 C712 1.377 . S
C713 C719 1.390 . S
C714 H705 0.930 . S
C714 C712 1.384 . S
C714 C715 1.372 . S
C715 C714 1.372 . S
C715 C716 1.400 . S
C715 C720 1.490 . S
C716 H706 0.930 . S
C716 C715 1.400 . S
C716 C719 1.386 . S
H717 C733 0.930 . S
H718 C734 0.931 . S
C719 H707 0.929 . S
C719 C713 1.390 . S
C719 C716 1.386 . S
C720 C715 1.490 . S
C720 C722 1.395 . S
C720 C723 1.403 . S
H721 C727 0.930 . S
C722 H708 0.930 . S
C722 C720 1.395 . S
C722 C725 1.403 . S
C723 C720 1.403 . S
C723 C724 1.524 . S
C723 C727 1.400 . S
C724 H709 0.960 . S
C724 H710 0.960 . S
C724 H711 0.960 . S
C724 C723 1.524 . S
C725 C722 1.403 . S
C725 C726 1.392 . S
C725 C729 1.495 . S
C726 C725 1.392 . S
C726 C727 1.385 . S
C726 C728 1.478 . S
C727 H721 0.930 . S
C727 C723 1.400 . S
C727 C726 1.385 . S
C728 C726 1.478 . S
C728 C730 1.381 . S
C728 C734 1.383 . S
C729 C725 1.495 . S
C729 H735 0.959 . S
C729 H736 0.961 . S
C729 H737 0.960 . S
C730 C728 1.381 . S
C730 C731 1.394 . S
C730 H738 0.930 . S
C731 C730 1.394 . S
C731 C732 1.383 . S
C731 H739 0.929 . S
C732 C731 1.383 . S
C732 C733 1.377 . S
C733 H717 0.930 . S
C733 C732 1.377 . S
C733 C734 1.379 . S
C734 H718 0.931 . S
C734 C728 1.383 . S
C734 C733 1.379 . S
H735 C729 0.959 . S
H736 C729 0.961 . S
H737 C729 0.960 . S
H738 C730 0.930 . S
H739 C731 0.929 . S
H740 C748 0.929 . S
H741 C750 0.930 . S
H742 C752 0.930 . S
H743 C755 0.929 . S
H744 C758 0.930 . S
H745 C760 0.960 . S
H746 C760 0.960 . S
H747 C760 0.960 . S
C748 H740 0.929 . S
C748 C749 1.377 . S
C748 C750 1.384 . S
C749 C748 1.377 . S
C749 C755 1.390 . S
C750 H741 0.930 . S
C750 C748 1.384 . S
C750 C751 1.372 . S
C751 C750 1.372 . S
C751 C752 1.400 . S
C751 C756 1.490 . S
C752 H742 0.930 . S
C752 C751 1.400 . S
C752 C755 1.386 . S
H753 C769 0.930 . S
H754 C770 0.931 . S
C755 H743 0.929 . S
C755 C749 1.390 . S
C755 C752 1.386 . S
C756 C751 1.490 . S
C756 C758 1.395 . S
C756 C759 1.403 1_556 S
H757 C763 0.930 . S
C758 H744 0.930 . S
C758 C756 1.395 . S
C758 C761 1.403 . S
C759 C756 1.403 1_554 S
C759 C760 1.524 . S
C759 C763 1.400 . S
C760 H745 0.960 . S
C760 H746 0.960 . S
C760 H747 0.960 . S
C760 C759 1.524 . S
C761 C758 1.403 . S
C761 C762 1.392 1_556 S
C761 C765 1.495 . S
C762 C761 1.392 1_554 S
C762 C763 1.385 . S
C762 C764 1.478 . S
C763 H757 0.930 . S
C763 C759 1.400 . S
C763 C762 1.385 . S
C764 C762 1.478 . S
C764 C766 1.381 . S
C764 C770 1.383 . S
C765 C761 1.495 . S
C765 H771 0.959 . S
C765 H772 0.961 . S
C765 H773 0.960 . S
C766 C764 1.381 . S
C766 C767 1.394 . S
C766 H774 0.930 . S
C767 C766 1.394 . S
C767 C768 1.383 . S
C767 H775 0.929 . S
C768 C767 1.383 . S
C768 C769 1.377 . S
C769 H753 0.930 . S
C769 C768 1.377 . S
C769 C770 1.379 . S
C770 H754 0.931 . S
C770 C764 1.383 . S
C770 C769 1.379 . S
H771 C765 0.959 . S
H772 C765 0.961 . S
H773 C765 0.960 . S
H774 C766 0.930 . S
H775 C767 0.929 . S
H776 C784 0.929 . S
H777 C786 0.930 . S
H778 C788 0.930 . S
H779 C791 0.929 . S
H780 C794 0.930 . S
H781 C796 0.960 . S
H782 C796 0.960 . S
H783 C796 0.960 . S
C784 H776 0.929 . S
C784 C785 1.377 . S
C784 C786 1.384 . S
C785 C784 1.377 . S
C785 C791 1.390 . S
C786 H777 0.930 . S
C786 C784 1.384 . S
C786 C787 1.372 . S
C787 C786 1.372 . S
C787 C788 1.400 . S
C787 C792 1.490 . S
C788 H778 0.930 . S
C788 C787 1.400 . S
C788 C791 1.386 . S
H789 C805 0.930 . S
H790 C806 0.931 . S
C791 H779 0.929 . S
C791 C785 1.390 . S
C791 C788 1.386 . S
C792 C787 1.490 . S
C792 C794 1.395 . S
C792 C795 1.403 . S
H793 C799 0.930 . S
C794 H780 0.930 . S
C794 C792 1.395 . S
C794 C797 1.403 . S
C795 C792 1.403 . S
C795 C796 1.524 . S
C795 C799 1.400 . S
C796 H781 0.960 . S
C796 H782 0.960 . S
C796 H783 0.960 . S
C796 C795 1.524 . S
C797 C794 1.403 . S
C797 C798 1.392 . S
C797 C801 1.495 . S
C798 C797 1.392 . S
C798 C799 1.385 . S
C798 C800 1.478 . S
C799 H793 0.930 . S
C799 C795 1.400 . S
C799 C798 1.385 . S
C800 C798 1.478 . S
C800 C802 1.381 . S
C800 C806 1.383 . S
C801 C797 1.495 . S
C801 H807 0.959 . S
C801 H808 0.961 . S
C801 H809 0.960 . S
C802 C800 1.381 . S
C802 C803 1.394 . S
C802 H810 0.930 . S
C803 C802 1.394 . S
C803 C804 1.383 . S
C803 H811 0.929 . S
C804 C803 1.383 . S
C804 C805 1.377 . S
C805 H789 0.930 . S
C805 C804 1.377 . S
C805 C806 1.379 . S
C806 H790 0.931 . S
C806 C800 1.383 . S
C806 C805 1.379 . S
H807 C801 0.959 . S
H808 C801 0.961 . S
H809 C801 0.960 . S
H810 C802 0.930 . S
H811 C803 0.929 . S
H812 C820 0.929 . S
H813 C822 0.930 . S
H814 C824 0.930 . S
H815 C827 0.929 . S
H816 C830 0.930 . S
H817 C832 0.960 . S
H818 C832 0.960 . S
H819 C832 0.960 . S
C820 H812 0.929 . S
C820 C821 1.377 . S
C820 C822 1.384 . S
C821 C820 1.377 . S
C821 C827 1.390 . S
C822 H813 0.930 . S
C822 C820 1.384 . S
C822 C823 1.372 . S
C823 C822 1.372 . S
C823 C824 1.400 . S
C823 C828 1.490 . S
C824 H814 0.930 . S
C824 C823 1.400 . S
C824 C827 1.386 . S
H825 C841 0.930 . S
H826 C842 0.931 . S
C827 H815 0.929 . S
C827 C821 1.390 . S
C827 C824 1.386 . S
C828 C823 1.490 . S
C828 C830 1.395 . S
C828 C831 1.403 . S
H829 C835 0.930 . S
C830 H816 0.930 . S
C830 C828 1.395 . S
C830 C833 1.403 . S
C831 C828 1.403 . S
C831 C832 1.524 . S
C831 C835 1.400 . S
C832 H817 0.960 . S
C832 H818 0.960 . S
C832 H819 0.960 . S
C832 C831 1.524 . S
C833 C830 1.403 . S
C833 C834 1.392 . S
C833 C837 1.495 . S
C834 C833 1.392 . S
C834 C835 1.385 . S
C834 C836 1.478 . S
C835 H829 0.930 . S
C835 C831 1.400 . S
C835 C834 1.385 . S
C836 C834 1.478 . S
C836 C838 1.381 . S
C836 C842 1.383 . S
C837 C833 1.495 . S
C837 H843 0.959 . S
C837 H844 0.961 . S
C837 H845 0.960 . S
C838 C836 1.381 . S
C838 C839 1.394 . S
C838 H846 0.930 . S
C839 C838 1.394 . S
C839 C840 1.383 . S
C839 H847 0.929 . S
C840 C839 1.383 . S
C840 C841 1.377 . S
C841 H825 0.930 . S
C841 C840 1.377 . S
C841 C842 1.379 . S
C842 H826 0.931 . S
C842 C836 1.383 . S
C842 C841 1.379 . S
H843 C837 0.959 . S
H844 C837 0.961 . S
H845 C837 0.960 . S
H846 C838 0.930 . S
H847 C839 0.929 . S
H848 C856 0.929 . S
H849 C858 0.930 . S
H850 C860 0.930 . S
H851 C863 0.929 . S
H852 C866 0.930 . S
H853 C868 0.960 . S
H854 C868 0.960 . S
H855 C868 0.960 . S
C856 H848 0.929 . S
C856 C857 1.377 . S
C856 C858 1.384 . S
C857 C856 1.377 . S
C857 C863 1.390 . S
C858 H849 0.930 . S
C858 C856 1.384 . S
C858 C859 1.372 . S
C859 C858 1.372 . S
C859 C860 1.400 . S
C859 C864 1.490 . S
C860 H850 0.930 . S
C860 C859 1.400 . S
C860 C863 1.386 . S
H861 C877 0.930 . S
H862 C878 0.931 . S
C863 H851 0.929 . S
C863 C857 1.390 . S
C863 C860 1.386 . S
C864 C859 1.490 . S
C864 C866 1.395 . S
C864 C867 1.403 . S
H865 C871 0.930 . S
C866 H852 0.930 . S
C866 C864 1.395 . S
C866 C869 1.403 . S
C867 C864 1.403 . S
C867 C868 1.524 . S
C867 C871 1.400 . S
C868 H853 0.960 . S
C868 H854 0.960 . S
C868 H855 0.960 . S
C868 C867 1.524 . S
C869 C866 1.403 . S
C869 C870 1.392 . S
C869 C873 1.495 . S
C870 C869 1.392 . S
C870 C871 1.385 . S
C870 C872 1.478 . S
C871 H865 0.930 . S
C871 C867 1.400 . S
C871 C870 1.385 . S
C872 C870 1.478 . S
C872 C874 1.381 . S
C872 C878 1.383 . S
C873 C869 1.495 . S
C873 H879 0.959 . S
C873 H880 0.961 . S
C873 H881 0.960 . S
C874 C872 1.381 . S
C874 C875 1.394 . S
C874 H882 0.930 . S
C875 C874 1.394 . S
C875 C876 1.383 . S
C875 H883 0.929 . S
C876 C875 1.383 . S
C876 C877 1.377 . S
C877 H861 0.930 . S
C877 C876 1.377 . S
C877 C878 1.379 . S
C878 H862 0.931 . S
C878 C872 1.383 . S
C878 C877 1.379 . S
H879 C873 0.959 . S
H880 C873 0.961 . S
H881 C873 0.960 . S
H882 C874 0.930 . S
H883 C875 0.929 . S
H884 C892 0.929 . S
H885 C894 0.930 . S
H886 C896 0.917 1_556 S
H887 C899 0.929 . S
H888 C902 0.930 . S
H889 C904 0.960 . S
H890 C904 0.960 . S
H891 C904 0.960 . S
C892 H884 0.929 . S
C892 C893 1.377 . S
C892 C894 1.384 . S
C893 C892 1.377 . S
C893 C899 1.390 . S
C894 H885 0.930 . S
C894 C892 1.384 . S
C894 C895 1.372 . S
C895 C894 1.372 . S
C895 C896 1.400 . S
C895 C900 1.490 . S
C896 H886 0.917 1_554 S
C896 C895 1.400 . S
C896 C899 1.386 . S
H897 C913 0.930 . S
H898 C914 0.931 . S
C899 H887 0.929 . S
C899 C893 1.390 . S
C899 C896 1.386 . S
C900 C895 1.490 . S
C900 C902 1.395 1_554 S
C900 C903 1.403 . S
H901 C907 0.930 . S
C902 H888 0.930 . S
C902 C900 1.395 1_556 S
C902 C905 1.403 . S
C903 C900 1.403 . S
C903 C904 1.524 . S
C903 C907 1.400 . S
C904 H889 0.960 . S
C904 H890 0.960 . S
C904 H891 0.960 . S
C904 C903 1.524 . S
C905 C902 1.403 . S
C905 C906 1.392 . S
C905 C909 1.495 . S
C906 C905 1.392 . S
C906 C907 1.385 1_556 S
C906 C908 1.478 . S
C907 H901 0.930 . S
C907 C903 1.400 . S
C907 C906 1.385 1_554 S
C908 C906 1.478 . S
C908 C910 1.381 . S
C908 C914 1.383 . S
C909 C905 1.495 . S
C909 H915 0.959 . S
C909 H916 0.961 . S
C909 H917 0.960 . S
C910 C908 1.381 . S
C910 C911 1.394 . S
C910 H918 0.930 1_556 S
C911 C910 1.394 . S
C911 C912 1.383 . S
C911 H919 0.929 . S
C912 C911 1.383 . S
C912 C913 1.377 . S
C913 H897 0.930 . S
C913 C912 1.377 . S
C913 C914 1.379 . S
C914 H898 0.931 . S
C914 C908 1.383 . S
C914 C913 1.379 . S
H915 C909 0.959 . S
H916 C909 0.961 . S
H917 C909 0.960 . S
H918 C910 0.930 1_554 S
H919 C911 0.929 . S
H920 C928 0.929 . S
H921 C930 0.930 . S
H922 C932 0.930 . S
H923 C935 0.929 . S
H924 C938 0.930 . S
H925 C940 0.960 . S
H926 C940 0.960 . S
H927 C940 0.960 . S
C928 H920 0.929 . S
C928 C929 1.377 . S
C928 C930 1.384 . S
C929 C928 1.377 . S
C929 C935 1.390 . S
C930 H921 0.930 . S
C930 C928 1.384 . S
C930 C931 1.372 . S
C931 C930 1.372 . S
C931 C932 1.400 . S
C931 C936 1.490 . S
C932 H922 0.930 . S
C932 C931 1.400 . S
C932 C935 1.386 . S
H933 C949 0.930 . S
H934 C950 0.931 . S
C935 H923 0.929 . S
C935 C929 1.390 . S
C935 C932 1.386 . S
C936 C931 1.490 . S
C936 C938 1.395 . S
C936 C939 1.403 . S
H937 C943 0.930 . S
C938 H924 0.930 . S
C938 C936 1.395 . S
C938 C941 1.403 . S
C939 C936 1.403 . S
C939 C940 1.524 . S
C939 C943 1.400 . S
C940 H925 0.960 . S
C940 H926 0.960 . S
C940 H927 0.960 . S
C940 C939 1.524 . S
C941 C938 1.403 . S
C941 C942 1.392 . S
C941 C945 1.495 . S
C942 C941 1.392 . S
C942 C943 1.385 . S
C942 C944 1.478 . S
C943 H937 0.930 . S
C943 C939 1.400 . S
C943 C942 1.385 . S
C944 C942 1.478 . S
C944 C946 1.381 . S
C944 C950 1.383 . S
C945 C941 1.495 . S
C945 H951 0.959 . S
C945 H952 0.961 . S
C945 H953 0.960 . S
C946 C944 1.381 . S
C946 C947 1.394 . S
C946 H954 0.930 . S
C947 C946 1.394 . S
C947 C948 1.383 . S
C947 H955 0.929 . S
C948 C947 1.383 . S
C948 C949 1.377 . S
C949 H933 0.930 . S
C949 C948 1.377 . S
C949 C950 1.379 . S
C950 H934 0.931 . S
C950 C944 1.383 . S
C950 C949 1.379 . S
H951 C945 0.959 . S
H952 C945 0.961 . S
H953 C945 0.960 . S
H954 C946 0.930 . S
H955 C947 0.929 . S
H956 C964 0.929 . S
H957 C966 0.930 . S
H958 C968 0.930 . S
H959 C971 0.929 . S
H960 C974 0.930 . S
H961 C976 0.960 . S
H962 C976 0.960 . S
H963 C976 0.960 . S
C964 H956 0.929 . S
C964 C965 1.377 . S
C964 C966 1.384 . S
C965 C964 1.377 . S
C965 C971 1.390 . S
C966 H957 0.930 . S
C966 C964 1.384 . S
C966 C967 1.372 . S
C967 C966 1.372 . S
C967 C968 1.400 . S
C967 C972 1.490 . S
C968 H958 0.930 . S
C968 C967 1.400 . S
C968 C971 1.386 . S
H969 C985 0.930 . S
H970 C986 0.931 . S
C971 H959 0.929 . S
C971 C965 1.390 . S
C971 C968 1.386 . S
C972 C967 1.490 . S
C972 C974 1.395 . S
C972 C975 1.403 . S
H973 C979 0.930 . S
C974 H960 0.930 . S
C974 C972 1.395 . S
C974 C977 1.403 . S
C975 C972 1.403 . S
C975 C976 1.524 . S
C975 C979 1.400 . S
C976 H961 0.960 . S
C976 H962 0.960 . S
C976 H963 0.960 . S
C976 C975 1.524 . S
C977 C974 1.403 . S
C977 C978 1.392 . S
C977 C981 1.495 . S
C978 C977 1.392 . S
C978 C979 1.385 . S
C978 C980 1.478 . S
C979 H973 0.930 . S
C979 C975 1.400 . S
C979 C978 1.385 . S
C980 C978 1.478 . S
C980 C982 1.381 . S
C980 C986 1.383 . S
C981 C977 1.495 . S
C981 H987 0.959 . S
C981 H988 0.961 . S
C981 H989 0.960 . S
C982 C980 1.381 . S
C982 C983 1.394 . S
C982 H990 0.930 . S
C983 C982 1.394 . S
C983 C984 1.383 . S
C983 H991 0.929 . S
C984 C983 1.383 . S
C984 C985 1.377 . S
C985 H969 0.930 . S
C985 C984 1.377 . S
C985 C986 1.379 . S
C986 H970 0.931 . S
C986 C980 1.383 . S
C986 C985 1.379 . S
H987 C981 0.959 . S
H988 C981 0.961 . S
H989 C981 0.960 . S
H990 C982 0.930 . S
H991 C983 0.929 . S
H992 C1000 0.929 . S
H993 C1002 0.930 . S
H994 C1004 0.930 . S
H995 C1007 0.927 1_554 S
H996 C1010 0.930 . S
H997 C1012 0.960 . S
H998 C1012 0.960 . S
H999 C1012 0.960 . S
C1000 H992 0.929 . S
C1000 C1001 1.377 . S
C1000 C1002 1.384 1_554 S
C1001 C1000 1.377 . S
C1001 C1007 1.383 1_554 S
C1002 H993 0.930 . S
C1002 C1000 1.384 1_556 S
C1002 C1003 1.372 . S
C1003 C1002 1.372 . S
C1003 C1004 1.400 . S
C1003 C1008 1.490 . S
C1004 H994 0.930 . S
C1004 C1003 1.400 . S
C1004 C1007 1.395 . S
H1005 C1021 0.930 . S
H1006 C1022 0.931 . S
C1007 H995 0.927 1_556 S
C1007 C1001 1.383 1_556 S
C1007 C1004 1.395 . S
C1008 C1003 1.490 . S
C1008 C1010 1.395 . S
C1008 C1011 1.403 . S
H1009 C1015 0.930 . S
C1010 H996 0.930 . S
C1010 C1008 1.395 . S
C1010 C1013 1.403 . S
C1011 C1008 1.403 . S
C1011 C1012 1.524 . S
C1011 C1015 1.400 . S
C1012 H997 0.960 . S
C1012 H998 0.960 . S
C1012 H999 0.960 . S
C1012 C1011 1.524 . S
C1013 C1010 1.403 . S
C1013 C1014 1.392 . S
C1013 C1017 1.495 . S
C1014 C1013 1.392 . S
C1014 C1015 1.385 . S
C1014 C1016 1.478 . S
C1015 H1009 0.930 . S
C1015 C1011 1.400 . S
C1015 C1014 1.385 . S
C1016 C1014 1.478 . S
C1016 C1018 1.381 . S
C1016 C1022 1.383 . S
C1017 C1013 1.495 . S
C1017 H1023 0.959 . S
C1017 H1024 0.961 . S
C1017 H1025 0.960 . S
C1018 C1016 1.381 . S
C1018 C1019 1.394 . S
C1018 H1026 0.930 . S
C1019 C1018 1.394 . S
C1019 C1020 1.383 . S
C1019 H1027 0.929 . S
C1020 C1019 1.383 . S
C1020 C1021 1.377 . S
C1021 H1005 0.930 . S
C1021 C1020 1.377 . S
C1021 C1022 1.379 . S
C1022 H1006 0.931 . S
C1022 C1016 1.383 . S
C1022 C1021 1.379 . S
H1023 C1017 0.959 . S
H1024 C1017 0.961 . S
H1025 C1017 0.960 . S
H1026 C1018 0.930 . S
H1027 C1019 0.929 . S
H1028 C1036 0.929 . S
H1029 C1038 0.930 . S
H1030 C1040 0.930 . S
H1031 C1043 0.933 . S
H1032 C1046 0.930 . S
H1033 C1048 0.960 . S
H1034 C1048 0.960 . S
H1035 C1048 0.960 . S
C1036 H1028 0.929 . S
C1036 C1037 1.377 . S
C1036 C1038 1.384 1_556 S
C1037 C1036 1.377 . S
C1037 C1043 1.390 1_556 S
C1038 H1029 0.930 . S
C1038 C1036 1.384 1_554 S
C1038 C1039 1.372 . S
C1039 C1038 1.372 . S
C1039 C1040 1.400 . S
C1039 C1044 1.490 . S
C1040 H1030 0.930 . S
C1040 C1039 1.400 . S
C1040 C1043 1.386 . S
H1041 C1057 0.930 . S
H1042 C1058 0.931 . S
C1043 H1031 0.933 . S
C1043 C1037 1.390 1_554 S
C1043 C1040 1.386 . S
C1044 C1039 1.490 . S
C1044 C1046 1.395 . S
C1044 C1047 1.403 . S
H1045 C1051 0.930 . S
C1046 H1032 0.930 . S
C1046 C1044 1.395 . S
C1046 C1049 1.403 . S
C1047 C1044 1.403 . S
C1047 C1048 1.524 . S
C1047 C1051 1.400 . S
C1048 H1033 0.960 . S
C1048 H1034 0.960 . S
C1048 H1035 0.960 . S
C1048 C1047 1.524 . S
C1049 C1046 1.403 . S
C1049 C1050 1.392 . S
C1049 C1053 1.495 . S
C1050 C1049 1.392 . S
C1050 C1051 1.385 . S
C1050 C1052 1.478 . S
C1051 H1045 0.930 . S
C1051 C1047 1.400 . S
C1051 C1050 1.385 . S
C1052 C1050 1.478 . S
C1052 C1054 1.381 . S
C1052 C1058 1.383 . S
C1053 C1049 1.495 . S
C1053 H1059 0.959 . S
C1053 H1060 0.961 . S
C1053 H1061 0.960 . S
C1054 C1052 1.381 . S
C1054 C1055 1.394 . S
C1054 H1062 0.930 . S
C1055 C1054 1.394 . S
C1055 C1056 1.383 . S
C1055 H1063 0.929 . S
C1056 C1055 1.383 . S
C1056 C1057 1.377 . S
C1057 H1041 0.930 . S
C1057 C1056 1.377 . S
C1057 C1058 1.379 . S
C1058 H1042 0.931 . S
C1058 C1052 1.383 . S
C1058 C1057 1.379 . S
H1059 C1053 0.959 . S
H1060 C1053 0.961 . S
H1061 C1053 0.960 . S
H1062 C1054 0.930 . S
H1063 C1055 0.929 . S
H1064 C1072 0.929 . S
H1065 C1074 0.930 . S
H1066 C1076 0.930 . S
H1067 C1079 0.929 . S
H1068 C1082 0.930 . S
H1069 C1084 0.960 . S
H1070 C1084 0.960 . S
H1071 C1084 0.960 . S
C1072 H1064 0.929 . S
C1072 C1073 1.377 . S
C1072 C1074 1.384 . S
C1073 C1072 1.377 . S
C1073 C1079 1.390 . S
C1074 H1065 0.930 . S
C1074 C1072 1.384 . S
C1074 C1075 1.372 . S
C1075 C1074 1.372 . S
C1075 C1076 1.400 . S
C1075 C1080 1.490 . S
C1076 H1066 0.930 . S
C1076 C1075 1.400 . S
C1076 C1079 1.386 . S
H1077 C1093 0.930 . S
H1078 C1094 0.931 . S
C1079 H1067 0.929 . S
C1079 C1073 1.390 . S
C1079 C1076 1.386 . S
C1080 C1075 1.490 . S
C1080 C1082 1.395 . S
C1080 C1083 1.403 . S
H1081 C1087 0.930 . S
C1082 H1068 0.930 . S
C1082 C1080 1.395 . S
C1082 C1085 1.403 . S
C1083 C1080 1.403 . S
C1083 C1084 1.524 . S
C1083 C1087 1.400 . S
C1084 H1069 0.960 . S
C1084 H1070 0.960 . S
C1084 H1071 0.960 . S
C1084 C1083 1.524 . S
C1085 C1082 1.403 . S
C1085 C1086 1.392 . S
C1085 C1089 1.495 . S
C1086 C1085 1.392 . S
C1086 C1087 1.385 . S
C1086 C1088 1.478 . S
C1087 H1081 0.930 . S
C1087 C1083 1.400 . S
C1087 C1086 1.385 . S
C1088 C1086 1.478 . S
C1088 C1090 1.381 . S
C1088 C1094 1.383 . S
C1089 C1085 1.495 . S
C1089 H1095 0.959 . S
C1089 H1096 0.961 . S
C1089 H1097 0.960 . S
C1090 C1088 1.381 . S
C1090 C1091 1.394 . S
C1090 H1098 0.930 . S
C1091 C1090 1.394 . S
C1091 C1092 1.383 . S
C1091 H1099 0.929 . S
C1092 C1091 1.383 . S
C1092 C1093 1.377 . S
C1093 H1077 0.930 . S
C1093 C1092 1.377 . S
C1093 C1094 1.379 . S
C1094 H1078 0.931 . S
C1094 C1088 1.383 . S
C1094 C1093 1.379 . S
H1095 C1089 0.959 . S
H1096 C1089 0.961 . S
H1097 C1089 0.960 . S
H1098 C1090 0.930 . S
H1099 C1091 0.929 . S
H1100 C1108 0.929 . S
H1101 C1110 0.930 . S
H1102 C1112 0.930 . S
H1103 C1115 0.929 . S
H1104 C1118 0.930 . S
H1105 C1120 0.960 . S
H1106 C1120 0.960 . S
H1107 C1120 0.960 . S
C1108 H1100 0.929 . S
C1108 C1109 1.377 . S
C1108 C1110 1.384 . S
C1109 C1108 1.377 . S
C1109 C1115 1.390 . S
C1110 H1101 0.930 . S
C1110 C1108 1.384 . S
C1110 C1111 1.372 . S
C1111 C1110 1.372 . S
C1111 C1112 1.400 . S
C1111 C1116 1.490 . S
C1112 H1102 0.930 . S
C1112 C1111 1.400 . S
C1112 C1115 1.386 . S
H1113 C1129 0.930 . S
H1114 C1130 0.931 . S
C1115 H1103 0.929 . S
C1115 C1109 1.390 . S
C1115 C1112 1.386 . S
C1116 C1111 1.490 . S
C1116 C1118 1.395 . S
C1116 C1119 1.403 . S
H1117 C1123 0.930 . S
C1118 H1104 0.930 . S
C1118 C1116 1.395 . S
C1118 C1121 1.403 . S
C1119 C1116 1.403 . S
C1119 C1120 1.524 . S
C1119 C1123 1.400 . S
C1120 H1105 0.960 . S
C1120 H1106 0.960 . S
C1120 H1107 0.960 . S
C1120 C1119 1.524 . S
C1121 C1118 1.403 . S
C1121 C1122 1.392 . S
C1121 C1125 1.495 . S
C1122 C1121 1.392 . S
C1122 C1123 1.385 . S
C1122 C1124 1.478 . S
C1123 H1117 0.930 . S
C1123 C1119 1.400 . S
C1123 C1122 1.385 . S
C1124 C1122 1.478 . S
C1124 C1126 1.381 . S
C1124 C1130 1.383 . S
C1125 C1121 1.495 . S
C1125 H1131 0.959 . S
C1125 H1132 0.961 . S
C1125 H1133 0.960 . S
C1126 C1124 1.381 . S
C1126 C1127 1.394 . S
C1126 H1134 0.930 . S
C1127 C1126 1.394 . S
C1127 C1128 1.383 . S
C1127 H1135 0.929 . S
C1128 C1127 1.383 . S
C1128 C1129 1.377 . S
C1129 H1113 0.930 . S
C1129 C1128 1.377 . S
C1129 C1130 1.379 . S
C1130 H1114 0.931 . S
C1130 C1124 1.383 . S
C1130 C1129 1.379 . S
H1131 C1125 0.959 . S
H1132 C1125 0.961 . S
H1133 C1125 0.960 . S
H1134 C1126 0.930 . S
H1135 C1127 0.929 . S
H1136 C1144 0.929 . S
H1137 C1146 0.930 . S
H1138 C1148 0.930 . S
H1139 C1151 0.929 . S
H1140 C1154 0.930 . S
H1141 C1156 0.960 . S
H1142 C1156 0.960 . S
H1143 C1156 0.960 . S
C1144 H1136 0.929 . S
C1144 C1145 1.377 . S
C1144 C1146 1.384 1_556 S
C1145 C1144 1.377 . S
C1145 C1151 1.390 1_556 S
C1146 H1137 0.930 . S
C1146 C1144 1.384 1_554 S
C1146 C1147 1.372 . S
C1147 C1146 1.372 . S
C1147 C1148 1.400 . S
C1147 C1152 1.490 . S
C1148 H1138 0.930 . S
C1148 C1147 1.400 . S
C1148 C1151 1.386 . S
H1149 C1165 0.930 . S
H1150 C1166 0.931 . S
C1151 H1139 0.929 . S
C1151 C1145 1.390 1_554 S
C1151 C1148 1.386 . S
C1152 C1147 1.490 . S
C1152 C1154 1.395 . S
C1152 C1155 1.403 . S
H1153 C1159 0.930 . S
C1154 H1140 0.930 . S
C1154 C1152 1.395 . S
C1154 C1157 1.403 . S
C1155 C1152 1.403 . S
C1155 C1156 1.524 . S
C1155 C1159 1.400 . S
C1156 H1141 0.960 . S
C1156 H1142 0.960 . S
C1156 H1143 0.960 . S
C1156 C1155 1.524 . S
C1157 C1154 1.403 . S
C1157 C1158 1.392 . S
C1157 C1161 1.495 . S
C1158 C1157 1.392 . S
C1158 C1159 1.385 . S
C1158 C1160 1.478 . S
C1159 H1153 0.930 . S
C1159 C1155 1.400 . S
C1159 C1158 1.385 . S
C1160 C1158 1.478 . S
C1160 C1162 1.381 . S
C1160 C1166 1.383 . S
C1161 C1157 1.495 . S
C1161 H1167 0.959 . S
C1161 H1168 0.961 . S
C1161 H1169 0.960 . S
C1162 C1160 1.381 . S
C1162 C1163 1.394 . S
C1162 H1170 0.930 . S
C1163 C1162 1.394 . S
C1163 C1164 1.383 . S
C1163 H1171 0.929 . S
C1164 C1163 1.383 . S
C1164 C1165 1.377 . S
C1165 H1149 0.930 . S
C1165 C1164 1.377 . S
C1165 C1166 1.379 . S
C1166 H1150 0.931 . S
C1166 C1160 1.383 . S
C1166 C1165 1.379 . S
H1167 C1161 0.959 . S
H1168 C1161 0.961 . S
H1169 C1161 0.960 . S
H1170 C1162 0.930 . S
H1171 C1163 0.929 . S
H1172 C1180 0.929 1_554 S
H1173 C1182 0.930 . S
H1174 C1184 0.930 . S
H1175 C1187 0.929 . S
H1176 C1190 0.930 . S
H1177 C1192 0.960 . S
H1178 C1192 0.960 . S
H1179 C1192 0.960 . S
C1180 H1172 0.929 1_556 S
C1180 C1181 1.377 1_556 S
C1180 C1182 1.384 . S
C1181 C1180 1.377 1_554 S
C1181 C1187 1.390 . S
C1182 H1173 0.930 . S
C1182 C1180 1.384 . S
C1182 C1183 1.372 . S
C1183 C1182 1.372 . S
C1183 C1184 1.400 . S
C1183 C1188 1.490 . S
C1184 H1174 0.930 . S
C1184 C1183 1.400 . S
C1184 C1187 1.386 1_556 S
H1185 C1201 0.930 . S
H1186 C1202 0.931 . S
C1187 H1175 0.929 . S
C1187 C1181 1.390 . S
C1187 C1184 1.386 1_554 S
C1188 C1183 1.490 . S
C1188 C1190 1.395 . S
C1188 C1191 1.403 . S
H1189 C1195 0.930 . S
C1190 H1176 0.930 . S
C1190 C1188 1.395 . S
C1190 C1193 1.403 . S
C1191 C1188 1.403 . S
C1191 C1192 1.524 . S
C1191 C1195 1.400 . S
C1192 H1177 0.960 . S
C1192 H1178 0.960 . S
C1192 H1179 0.960 . S
C1192 C1191 1.524 . S
C1193 C1190 1.403 . S
C1193 C1194 1.392 . S
C1193 C1197 1.495 . S
C1194 C1193 1.392 . S
C1194 C1195 1.385 . S
C1194 C1196 1.478 . S
C1195 H1189 0.930 . S
C1195 C1191 1.400 . S
C1195 C1194 1.385 . S
C1196 C1194 1.478 . S
C1196 C1198 1.381 . S
C1196 C1202 1.383 . S
C1197 C1193 1.495 . S
C1197 H1203 0.959 . S
C1197 H1204 0.961 . S
C1197 H1205 0.960 . S
C1198 C1196 1.381 . S
C1198 C1199 1.394 . S
C1198 H1206 0.930 . S
C1199 C1198 1.394 . S
C1199 C1200 1.383 . S
C1199 H1207 0.929 . S
C1200 C1199 1.383 . S
C1200 C1201 1.377 . S
C1201 H1185 0.930 . S
C1201 C1200 1.377 . S
C1201 C1202 1.379 . S
C1202 H1186 0.931 . S
C1202 C1196 1.383 . S
C1202 C1201 1.379 . S
H1203 C1197 0.959 . S
H1204 C1197 0.961 . S
H1205 C1197 0.960 . S
H1206 C1198 0.930 . S
H1207 C1199 0.929 . S
H1208 C1216 0.929 . S
H1209 C1218 0.930 . S
H1210 C1220 0.930 . S
H1211 C1223 0.929 . S
H1212 C1226 0.930 . S
H1213 C1228 0.960 . S
H1214 C1228 0.960 . S
H1215 C1228 0.960 . S
C1216 H1208 0.929 . S
C1216 C1217 1.377 . S
C1216 C1218 1.384 . S
C1217 C1216 1.377 . S
C1217 C1223 1.390 . S
C1218 H1209 0.930 . S
C1218 C1216 1.384 . S
C1218 C1219 1.372 . S
C1219 C1218 1.372 . S
C1219 C1220 1.400 . S
C1219 C1224 1.490 . S
C1220 H1210 0.930 . S
C1220 C1219 1.400 . S
C1220 C1223 1.386 . S
H1221 C1237 0.930 . S
H1222 C1238 0.931 . S
C1223 H1211 0.929 . S
C1223 C1217 1.390 . S
C1223 C1220 1.386 . S
C1224 C1219 1.490 . S
C1224 C1226 1.395 . S
C1224 C1227 1.403 . S
H1225 C1231 0.930 . S
C1226 H1212 0.930 . S
C1226 C1224 1.395 . S
C1226 C1229 1.403 . S
C1227 C1224 1.403 . S
C1227 C1228 1.524 . S
C1227 C1231 1.400 . S
C1228 H1213 0.960 . S
C1228 H1214 0.960 . S
C1228 H1215 0.960 . S
C1228 C1227 1.524 . S
C1229 C1226 1.403 . S
C1229 C1230 1.392 . S
C1229 C1233 1.495 . S
C1230 C1229 1.392 . S
C1230 C1231 1.385 . S
C1230 C1232 1.478 . S
C1231 H1225 0.930 . S
C1231 C1227 1.400 . S
C1231 C1230 1.385 . S
C1232 C1230 1.478 . S
C1232 C1234 1.381 . S
C1232 C1238 1.383 . S
C1233 C1229 1.495 . S
C1233 H1239 0.959 . S
C1233 H1240 0.961 . S
C1233 H1241 0.960 . S
C1234 C1232 1.381 . S
C1234 C1235 1.394 . S
C1234 H1242 0.930 . S
C1235 C1234 1.394 . S
C1235 C1236 1.383 . S
C1235 H1243 0.929 . S
C1236 C1235 1.383 . S
C1236 C1237 1.377 . S
C1237 H1221 0.930 . S
C1237 C1236 1.377 . S
C1237 C1238 1.379 . S
C1238 H1222 0.931 . S
C1238 C1232 1.383 . S
C1238 C1237 1.379 . S
H1239 C1233 0.959 . S
H1240 C1233 0.961 . S
H1241 C1233 0.960 . S
H1242 C1234 0.930 . S
H1243 C1235 0.929 . S
H1244 C1252 0.929 . S
H1245 C1254 0.930 . S
H1246 C1256 0.930 . S
H1247 C1259 0.929 . S
H1248 C1262 0.930 . S
H1249 C1264 0.960 . S
H1250 C1264 0.960 . S
H1251 C1264 0.960 . S
C1252 H1244 0.929 . S
C1252 C1253 1.377 . S
C1252 C1254 1.384 . S
C1253 C1252 1.377 . S
C1253 C1259 1.390 . S
C1254 H1245 0.930 . S
C1254 C1252 1.384 . S
C1254 C1255 1.372 . S
C1255 C1254 1.372 . S
C1255 C1256 1.400 . S
C1255 C1260 1.490 . S
C1256 H1246 0.930 . S
C1256 C1255 1.400 . S
C1256 C1259 1.386 . S
H1257 C1273 0.930 . S
H1258 C1274 0.931 . S
C1259 H1247 0.929 . S
C1259 C1253 1.390 . S
C1259 C1256 1.386 . S
C1260 C1255 1.490 . S
C1260 C1262 1.395 . S
C1260 C1263 1.403 . S
H1261 C1267 0.930 . S
C1262 H1248 0.930 . S
C1262 C1260 1.395 . S
C1262 C1265 1.403 . S
C1263 C1260 1.403 . S
C1263 C1264 1.524 . S
C1263 C1267 1.400 . S
C1264 H1249 0.960 . S
C1264 H1250 0.960 . S
C1264 H1251 0.960 . S
C1264 C1263 1.524 . S
C1265 C1262 1.403 . S
C1265 C1266 1.392 . S
C1265 C1269 1.495 . S
C1266 C1265 1.392 . S
C1266 C1267 1.385 . S
C1266 C1268 1.478 . S
C1267 H1261 0.930 . S
C1267 C1263 1.400 . S
C1267 C1266 1.385 . S
C1268 C1266 1.478 . S
C1268 C1270 1.381 . S
C1268 C1274 1.383 . S
C1269 C1265 1.495 . S
C1269 H1275 0.959 . S
C1269 H1276 0.961 . S
C1269 H1277 0.960 . S
C1270 C1268 1.381 . S
C1270 C1271 1.394 . S
C1270 H1278 0.930 . S
C1271 C1270 1.394 . S
C1271 C1272 1.383 . S
C1271 H1279 0.929 . S
C1272 C1271 1.383 . S
C1272 C1273 1.377 . S
C1273 H1257 0.930 . S
C1273 C1272 1.377 . S
C1273 C1274 1.379 . S
C1274 H1258 0.931 . S
C1274 C1268 1.383 . S
C1274 C1273 1.379 . S
H1275 C1269 0.959 . S
H1276 C1269 0.961 . S
H1277 C1269 0.960 . S
H1278 C1270 0.930 . S
H1279 C1271 0.929 . S
H1280 C1288 0.929 . S
H1281 C1290 0.930 . S
H1282 C1292 0.930 . S
H1283 C1295 0.929 . S
H1284 C1298 0.930 . S
H1285 C1300 0.960 . S
H1286 C1300 0.960 . S
H1287 C1300 0.960 . S
C1288 H1280 0.929 . S
C1288 C1289 1.377 . S
C1288 C1290 1.384 . S
C1289 C1288 1.377 . S
C1289 C1295 1.390 . S
C1290 H1281 0.930 . S
C1290 C1288 1.384 . S
C1290 C1291 1.372 . S
C1291 C1290 1.372 . S
C1291 C1292 1.400 . S
C1291 C1296 1.490 . S
C1292 H1282 0.930 . S
C1292 C1291 1.400 . S
C1292 C1295 1.386 . S
H1293 C1309 0.930 . S
H1294 C1310 0.931 . S
C1295 H1283 0.929 . S
C1295 C1289 1.390 . S
C1295 C1292 1.386 . S
C1296 C1291 1.490 . S
C1296 C1298 1.395 . S
C1296 C1299 1.403 . S
H1297 C1303 0.930 . S
C1298 H1284 0.930 . S
C1298 C1296 1.395 . S
C1298 C1301 1.403 . S
C1299 C1296 1.403 . S
C1299 C1300 1.524 . S
C1299 C1303 1.400 . S
C1300 H1285 0.960 . S
C1300 H1286 0.960 . S
C1300 H1287 0.960 . S
C1300 C1299 1.524 . S
C1301 C1298 1.403 . S
C1301 C1302 1.392 . S
C1301 C1305 1.495 . S
C1302 C1301 1.392 . S
C1302 C1303 1.385 . S
C1302 C1304 1.478 . S
C1303 H1297 0.930 . S
C1303 C1299 1.400 . S
C1303 C1302 1.385 . S
C1304 C1302 1.478 . S
C1304 C1306 1.381 . S
C1304 C1310 1.383 . S
C1305 C1301 1.495 . S
C1305 H1311 0.959 . S
C1305 H1312 0.961 . S
C1305 H1313 0.960 . S
C1306 C1304 1.381 . S
C1306 C1307 1.394 . S
C1306 H1314 0.930 . S
C1307 C1306 1.394 . S
C1307 C1308 1.383 . S
C1307 H1315 0.929 . S
C1308 C1307 1.383 . S
C1308 C1309 1.377 . S
C1309 H1293 0.930 . S
C1309 C1308 1.377 . S
C1309 C1310 1.379 . S
C1310 H1294 0.931 . S
C1310 C1304 1.383 . S
C1310 C1309 1.379 . S
H1311 C1305 0.959 . S
H1312 C1305 0.961 . S
H1313 C1305 0.960 . S
H1314 C1306 0.930 . S
H1315 C1307 0.929 . S
H1316 C1324 0.929 . S
H1317 C1326 0.930 . S
H1318 C1328 0.930 . S
H1319 C1331 0.929 . S
H1320 C1334 0.930 . S
H1321 C1336 0.960 . S
H1322 C1336 0.960 . S
H1323 C1336 0.960 . S
C1324 H1316 0.929 . S
C1324 C1325 1.377 . S
C1324 C1326 1.384 . S
C1325 C1324 1.377 . S
C1325 C1331 1.390 . S
C1326 H1317 0.930 . S
C1326 C1324 1.384 . S
C1326 C1327 1.372 . S
C1327 C1326 1.372 . S
C1327 C1328 1.400 . S
C1327 C1332 1.490 . S
C1328 H1318 0.930 . S
C1328 C1327 1.400 . S
C1328 C1331 1.386 . S
H1329 C1345 0.930 . S
H1330 C1346 0.931 . S
C1331 H1319 0.929 . S
C1331 C1325 1.390 . S
C1331 C1328 1.386 . S
C1332 C1327 1.490 . S
C1332 C1334 1.395 . S
C1332 C1335 1.403 . S
H1333 C1339 0.930 . S
C1334 H1320 0.930 . S
C1334 C1332 1.395 . S
C1334 C1337 1.403 . S
C1335 C1332 1.403 . S
C1335 C1336 1.524 . S
C1335 C1339 1.400 . S
C1336 H1321 0.960 . S
C1336 H1322 0.960 . S
C1336 H1323 0.960 . S
C1336 C1335 1.524 . S
C1337 C1334 1.403 . S
C1337 C1338 1.392 . S
C1337 C1341 1.495 . S
C1338 C1337 1.392 . S
C1338 C1339 1.385 . S
C1338 C1340 1.478 . S
C1339 H1333 0.930 . S
C1339 C1335 1.400 . S
C1339 C1338 1.385 . S
C1340 C1338 1.478 . S
C1340 C1342 1.381 . S
C1340 C1346 1.383 . S
C1341 C1337 1.495 . S
C1341 H1347 0.959 . S
C1341 H1348 0.961 . S
C1341 H1349 0.960 . S
C1342 C1340 1.381 . S
C1342 C1343 1.394 . S
C1342 H1350 0.930 . S
C1343 C1342 1.394 . S
C1343 C1344 1.383 . S
C1343 H1351 0.929 . S
C1344 C1343 1.383 . S
C1344 C1345 1.377 . S
C1345 H1329 0.930 . S
C1345 C1344 1.377 . S
C1345 C1346 1.379 . S
C1346 H1330 0.931 . S
C1346 C1340 1.383 . S
C1346 C1345 1.379 . S
H1347 C1341 0.959 . S
H1348 C1341 0.961 . S
H1349 C1341 0.960 . S
H1350 C1342 0.930 . S
H1351 C1343 0.929 . S
H1352 C1360 0.929 . S
H1353 C1362 0.930 . S
H1354 C1364 0.930 . S
H1355 C1367 0.929 . S
H1356 C1370 0.930 . S
H1357 C1372 0.960 . S
H1358 C1372 0.960 . S
H1359 C1372 0.960 . S
C1360 H1352 0.929 . S
C1360 C1361 1.377 . S
C1360 C1362 1.384 . S
C1361 C1360 1.377 . S
C1361 C1367 1.390 . S
C1362 H1353 0.930 . S
C1362 C1360 1.384 . S
C1362 C1363 1.372 . S
C1363 C1362 1.372 . S
C1363 C1364 1.400 . S
C1363 C1368 1.490 . S
C1364 H1354 0.930 . S
C1364 C1363 1.400 . S
C1364 C1367 1.386 . S
H1365 C1381 0.930 1_554 S
H1366 C1382 0.931 . S
C1367 H1355 0.929 . S
C1367 C1361 1.390 . S
C1367 C1364 1.386 . S
C1368 C1363 1.490 . S
C1368 C1370 1.395 . S
C1368 C1371 1.403 . S
H1369 C1375 0.930 . S
C1370 H1356 0.930 . S
C1370 C1368 1.395 . S
C1370 C1373 1.403 . S
C1371 C1368 1.403 . S
C1371 C1372 1.524 . S
C1371 C1375 1.400 . S
C1372 H1357 0.960 . S
C1372 H1358 0.960 . S
C1372 H1359 0.960 . S
C1372 C1371 1.524 . S
C1373 C1370 1.403 . S
C1373 C1374 1.392 . S
C1373 C1377 1.495 . S
C1374 C1373 1.392 . S
C1374 C1375 1.385 . S
C1374 C1376 1.478 . S
C1375 H1369 0.930 . S
C1375 C1371 1.400 . S
C1375 C1374 1.385 . S
C1376 C1374 1.478 . S
C1376 C1378 1.381 . S
C1376 C1382 1.383 . S
C1377 C1373 1.495 . S
C1377 H1383 0.959 . S
C1377 H1384 0.961 . S
C1377 H1385 0.960 . S
C1378 C1376 1.381 . S
C1378 C1379 1.394 1_556 S
C1378 H1386 0.930 . S
C1379 C1378 1.394 1_554 S
C1379 C1380 1.383 . S
C1379 H1387 0.929 . S
C1380 C1379 1.383 . S
C1380 C1381 1.377 1_554 S
C1381 H1365 0.930 1_556 S
C1381 C1380 1.377 1_556 S
C1381 C1382 1.379 . S
C1382 H1366 0.931 . S
C1382 C1376 1.383 . S
C1382 C1381 1.379 . S
H1383 C1377 0.959 . S
H1384 C1377 0.961 . S
H1385 C1377 0.960 . S
H1386 C1378 0.930 . S
H1387 C1379 0.929 . S
H1388 C1396 0.929 . S
H1389 C1398 0.930 . S
H1390 C1400 0.930 . S
H1391 C1403 0.929 . S
H1392 C1406 0.930 . S
H1393 C1408 0.960 . S
H1394 C1408 0.960 . S
H1395 C1408 0.960 . S
C1396 H1388 0.929 . S
C1396 C1397 1.377 . S
C1396 C1398 1.384 . S
C1397 C1396 1.377 . S
C1397 C1403 1.390 . S
C1398 H1389 0.930 . S
C1398 C1396 1.384 . S
C1398 C1399 1.372 . S
C1399 C1398 1.372 . S
C1399 C1400 1.400 . S
C1399 C1404 1.490 . S
C1400 H1390 0.930 . S
C1400 C1399 1.400 . S
C1400 C1403 1.386 . S
H1401 C1417 0.930 . S
H1402 C1418 0.931 . S
C1403 H1391 0.929 . S
C1403 C1397 1.390 . S
C1403 C1400 1.386 . S
C1404 C1399 1.490 . S
C1404 C1406 1.395 . S
C1404 C1407 1.403 . S
H1405 C1411 0.930 . S
C1406 H1392 0.930 . S
C1406 C1404 1.395 . S
C1406 C1409 1.403 . S
C1407 C1404 1.403 . S
C1407 C1408 1.524 . S
C1407 C1411 1.400 . S
C1408 H1393 0.960 . S
C1408 H1394 0.960 . S
C1408 H1395 0.960 . S
C1408 C1407 1.524 . S
C1409 C1406 1.403 . S
C1409 C1410 1.392 . S
C1409 C1413 1.495 . S
C1410 C1409 1.392 . S
C1410 C1411 1.385 . S
C1410 C1412 1.478 . S
C1411 H1405 0.930 . S
C1411 C1407 1.400 . S
C1411 C1410 1.385 . S
C1412 C1410 1.478 . S
C1412 C1414 1.381 . S
C1412 C1418 1.383 . S
C1413 C1409 1.495 . S
C1413 H1419 0.959 . S
C1413 H1420 0.961 . S
C1413 H1421 0.960 . S
C1414 C1412 1.381 . S
C1414 C1415 1.394 . S
C1414 H1422 0.930 . S
C1415 C1414 1.394 . S
C1415 C1416 1.383 1_554 S
C1415 H1423 0.929 . S
C1416 C1415 1.383 1_556 S
C1416 C1417 1.377 . S
C1417 H1401 0.930 . S
C1417 C1416 1.377 . S
C1417 C1418 1.379 1_556 S
C1418 H1402 0.931 . S
C1418 C1412 1.383 . S
C1418 C1417 1.379 1_554 S
H1419 C1413 0.959 . S
H1420 C1413 0.961 . S
H1421 C1413 0.960 . S
H1422 C1414 0.930 . S
H1423 C1415 0.929 . S
H1424 C1432 0.929 . S
H1425 C1434 0.930 . S
H1426 C1436 0.930 . S
H1427 C1439 0.929 . S
H1428 C1442 0.930 . S
H1429 C1444 0.960 . S
H1430 C1444 0.960 . S
H1431 C1444 0.960 . S
C1432 H1424 0.929 . S
C1432 C1433 1.377 . S
C1432 C1434 1.384 . S
C1433 C1432 1.377 . S
C1433 C1439 1.390 . S
C1434 H1425 0.930 . S
C1434 C1432 1.384 . S
C1434 C1435 1.372 . S
C1435 C1434 1.372 . S
C1435 C1436 1.400 . S
C1435 C1440 1.490 . S
C1436 H1426 0.930 . S
C1436 C1435 1.400 . S
C1436 C1439 1.386 . S
H1437 C1453 0.930 . S
H1438 C1454 0.931 . S
C1439 H1427 0.929 . S
C1439 C1433 1.390 . S
C1439 C1436 1.386 . S
C1440 C1435 1.490 . S
C1440 C1442 1.395 . S
C1440 C1443 1.403 . S
H1441 C1447 0.930 . S
C1442 H1428 0.930 . S
C1442 C1440 1.395 . S
C1442 C1445 1.403 . S
C1443 C1440 1.403 . S
C1443 C1444 1.524 . S
C1443 C1447 1.400 . S
C1444 H1429 0.960 . S
C1444 H1430 0.960 . S
C1444 H1431 0.960 . S
C1444 C1443 1.524 . S
C1445 C1442 1.403 . S
C1445 C1446 1.392 . S
C1445 C1449 1.495 . S
C1446 C1445 1.392 . S
C1446 C1447 1.385 . S
C1446 C1448 1.478 . S
C1447 H1441 0.930 . S
C1447 C1443 1.400 . S
C1447 C1446 1.385 . S
C1448 C1446 1.478 . S
C1448 C1450 1.381 . S
C1448 C1454 1.383 . S
C1449 C1445 1.495 . S
C1449 H1455 0.959 . S
C1449 H1456 0.961 . S
C1449 H1457 0.960 . S
C1450 C1448 1.381 . S
C1450 C1451 1.394 . S
C1450 H1458 0.930 . S
C1451 C1450 1.394 . S
C1451 C1452 1.383 . S
C1451 H1459 0.929 . S
C1452 C1451 1.383 . S
C1452 C1453 1.377 . S
C1453 H1437 0.930 . S
C1453 C1452 1.377 . S
C1453 C1454 1.379 . S
C1454 H1438 0.931 . S
C1454 C1448 1.383 . S
C1454 C1453 1.379 . S
H1455 C1449 0.959 . S
H1456 C1449 0.961 . S
H1457 C1449 0.960 . S
H1458 C1450 0.930 . S
H1459 C1451 0.929 . S
H1460 C1468 0.929 . S
H1461 C1470 0.930 . S
H1462 C1472 0.930 . S
H1463 C1475 0.929 . S
H1464 C1478 0.930 . S
H1465 C1480 0.960 . S
H1466 C1480 0.960 . S
H1467 C1480 0.960 . S
C1468 H1460 0.929 . S
C1468 C1469 1.377 . S
C1468 C1470 1.384 . S
C1469 C1468 1.377 . S
C1469 C1475 1.390 . S
C1470 H1461 0.930 . S
C1470 C1468 1.384 . S
C1470 C1471 1.372 . S
C1471 C1470 1.372 . S
C1471 C1472 1.400 . S
C1471 C1476 1.490 . S
C1472 H1462 0.930 . S
C1472 C1471 1.400 . S
C1472 C1475 1.386 . S
H1473 C1489 0.930 . S
H1474 C1490 0.931 . S
C1475 H1463 0.929 . S
C1475 C1469 1.390 . S
C1475 C1472 1.386 . S
C1476 C1471 1.490 . S
C1476 C1478 1.395 . S
C1476 C1479 1.403 . S
H1477 C1483 0.930 . S
C1478 H1464 0.930 . S
C1478 C1476 1.395 . S
C1478 C1481 1.403 . S
C1479 C1476 1.403 . S
C1479 C1480 1.524 . S
C1479 C1483 1.400 . S
C1480 H1465 0.960 . S
C1480 H1466 0.960 . S
C1480 H1467 0.960 . S
C1480 C1479 1.524 . S
C1481 C1478 1.403 . S
C1481 C1482 1.392 . S
C1481 C1485 1.495 . S
C1482 C1481 1.392 . S
C1482 C1483 1.385 . S
C1482 C1484 1.478 . S
C1483 H1477 0.930 . S
C1483 C1479 1.400 . S
C1483 C1482 1.385 . S
C1484 C1482 1.478 . S
C1484 C1486 1.381 . S
C1484 C1490 1.383 . S
C1485 C1481 1.495 . S
C1485 H1491 0.959 . S
C1485 H1492 0.961 . S
C1485 H1493 0.960 . S
C1486 C1484 1.381 . S
C1486 C1487 1.394 . S
C1486 H1494 0.930 . S
C1487 C1486 1.394 . S
C1487 C1488 1.383 . S
C1487 H1495 0.929 . S
C1488 C1487 1.383 . S
C1488 C1489 1.377 . S
C1489 H1473 0.930 . S
C1489 C1488 1.377 . S
C1489 C1490 1.379 . S
C1490 H1474 0.931 . S
C1490 C1484 1.383 . S
C1490 C1489 1.379 . S
H1491 C1485 0.959 . S
H1492 C1485 0.961 . S
H1493 C1485 0.960 . S
H1494 C1486 0.930 . S
H1495 C1487 0.929 . S
H1496 C1504 0.929 . S
H1497 C1506 0.930 . S
H1498 C1508 0.930 . S
H1499 C1511 0.929 . S
H1500 C1514 0.930 . S
H1501 C1516 0.960 . S
H1502 C1516 0.960 . S
H1503 C1516 0.960 . S
C1504 H1496 0.929 . S
C1504 C1505 1.377 . S
C1504 C1506 1.384 1_556 S
C1505 C1504 1.377 . S
C1505 C1511 1.390 1_556 S
C1506 H1497 0.930 . S
C1506 C1504 1.384 1_554 S
C1506 C1507 1.372 . S
C1507 C1506 1.372 . S
C1507 C1508 1.400 . S
C1507 C1512 1.490 . S
C1508 H1498 0.930 . S
C1508 C1507 1.400 . S
C1508 C1511 1.386 . S
H1509 C1525 0.930 . S
H1510 C1526 0.931 . S
C1511 H1499 0.929 . S
C1511 C1505 1.390 1_554 S
C1511 C1508 1.386 . S
C1512 C1507 1.490 . S
C1512 C1514 1.395 . S
C1512 C1515 1.403 . S
H1513 C1519 0.930 . S
C1514 H1500 0.930 . S
C1514 C1512 1.395 . S
C1514 C1517 1.403 . S
C1515 C1512 1.403 . S
C1515 C1516 1.524 . S
C1515 C1519 1.400 . S
C1516 H1501 0.960 . S
C1516 H1502 0.960 . S
C1516 H1503 0.960 . S
C1516 C1515 1.524 . S
C1517 C1514 1.403 . S
C1517 C1518 1.392 . S
C1517 C1521 1.495 . S
C1518 C1517 1.392 . S
C1518 C1519 1.385 . S
C1518 C1520 1.478 . S
C1519 H1513 0.930 . S
C1519 C1515 1.400 . S
C1519 C1518 1.385 . S
C1520 C1518 1.478 . S
C1520 C1522 1.381 . S
C1520 C1526 1.383 . S
C1521 C1517 1.495 . S
C1521 H1527 0.959 . S
C1521 H1528 0.961 . S
C1521 H1529 0.960 . S
C1522 C1520 1.381 . S
C1522 C1523 1.394 . S
C1522 H1530 0.930 . S
C1523 C1522 1.394 . S
C1523 C1524 1.383 . S
C1523 H1531 0.929 . S
C1524 C1523 1.383 . S
C1524 C1525 1.377 . S
C1525 H1509 0.930 . S
C1525 C1524 1.377 . S
C1525 C1526 1.379 . S
C1526 H1510 0.931 . S
C1526 C1520 1.383 . S
C1526 C1525 1.379 . S
H1527 C1521 0.959 . S
H1528 C1521 0.961 . S
H1529 C1521 0.960 . S
H1530 C1522 0.930 . S
H1531 C1523 0.929 . S
H1532 C1540 0.929 . S
H1533 C1542 0.930 . S
H1534 C1544 0.930 . S
H1535 C1547 0.929 . S
H1536 C1550 0.930 . S
H1537 C1552 0.960 . S
H1538 C1552 0.960 . S
H1539 C1552 0.960 . S
C1540 H1532 0.929 . S
C1540 C1541 1.377 . S
C1540 C1542 1.384 . S
C1541 C1540 1.377 . S
C1541 C1547 1.390 . S
C1542 H1533 0.930 . S
C1542 C1540 1.384 . S
C1542 C1543 1.372 . S
C1543 C1542 1.372 . S
C1543 C1544 1.400 . S
C1543 C1548 1.490 . S
C1544 H1534 0.930 . S
C1544 C1543 1.400 . S
C1544 C1547 1.386 . S
H1545 C1561 0.930 . S
H1546 C1562 0.931 . S
C1547 H1535 0.929 . S
C1547 C1541 1.390 . S
C1547 C1544 1.386 . S
C1548 C1543 1.490 . S
C1548 C1550 1.395 . S
C1548 C1551 1.403 . S
H1549 C1555 0.930 . S
C1550 H1536 0.930 . S
C1550 C1548 1.395 . S
C1550 C1553 1.403 . S
C1551 C1548 1.403 . S
C1551 C1552 1.524 . S
C1551 C1555 1.400 . S
C1552 H1537 0.960 . S
C1552 H1538 0.960 . S
C1552 H1539 0.960 . S
C1552 C1551 1.524 . S
C1553 C1550 1.403 . S
C1553 C1554 1.392 . S
C1553 C1557 1.495 . S
C1554 C1553 1.392 . S
C1554 C1555 1.385 . S
C1554 C1556 1.478 . S
C1555 H1549 0.930 . S
C1555 C1551 1.400 . S
C1555 C1554 1.385 . S
C1556 C1554 1.478 . S
C1556 C1558 1.381 . S
C1556 C1562 1.383 . S
C1557 C1553 1.495 . S
C1557 H1563 0.959 . S
C1557 H1564 0.961 . S
C1557 H1565 0.960 . S
C1558 C1556 1.381 . S
C1558 C1559 1.394 1_556 S
C1558 H1566 0.930 . S
C1559 C1558 1.394 1_554 S
C1559 C1560 1.383 . S
C1559 H1567 0.929 . S
C1560 C1559 1.383 . S
C1560 C1561 1.377 . S
C1561 H1545 0.930 . S
C1561 C1560 1.377 . S
C1561 C1562 1.379 1_554 S
C1562 H1546 0.931 . S
C1562 C1556 1.383 . S
C1562 C1561 1.379 1_556 S
H1563 C1557 0.959 . S
H1564 C1557 0.961 . S
H1565 C1557 0.960 . S
H1566 C1558 0.930 . S
H1567 C1559 0.929 . S
H1568 C1576 0.929 . S
H1569 C1578 0.930 . S
H1570 C1580 0.930 . S
H1571 C1583 0.929 . S
H1572 C1586 0.930 . S
H1573 C1588 0.960 . S
H1574 C1588 0.960 . S
H1575 C1588 0.960 . S
C1576 H1568 0.929 . S
C1576 C1577 1.377 . S
C1576 C1578 1.384 . S
C1577 C1576 1.377 . S
C1577 C1583 1.390 . S
C1578 H1569 0.930 . S
C1578 C1576 1.384 . S
C1578 C1579 1.372 . S
C1579 C1578 1.372 . S
C1579 C1580 1.400 . S
C1579 C1584 1.490 . S
C1580 H1570 0.930 . S
C1580 C1579 1.400 . S
C1580 C1583 1.386 . S
H1581 C1597 0.930 . S
H1582 C1598 0.931 . S
C1583 H1571 0.929 . S
C1583 C1577 1.390 . S
C1583 C1580 1.386 . S
C1584 C1579 1.490 . S
C1584 C1586 1.395 . S
C1584 C1587 1.403 . S
H1585 C1591 0.930 . S
C1586 H1572 0.930 . S
C1586 C1584 1.395 . S
C1586 C1589 1.403 . S
C1587 C1584 1.403 . S
C1587 C1588 1.524 . S
C1587 C1591 1.400 . S
C1588 H1573 0.960 . S
C1588 H1574 0.960 . S
C1588 H1575 0.960 . S
C1588 C1587 1.524 . S
C1589 C1586 1.403 . S
C1589 C1590 1.392 . S
C1589 C1593 1.495 . S
C1590 C1589 1.392 . S
C1590 C1591 1.385 . S
C1590 C1592 1.478 . S
C1591 H1585 0.930 . S
C1591 C1587 1.400 . S
C1591 C1590 1.385 . S
C1592 C1590 1.478 . S
C1592 C1594 1.381 . S
C1592 C1598 1.383 . S
C1593 C1589 1.495 . S
C1593 H1599 0.959 . S
C1593 H1600 0.961 . S
C1593 H1601 0.960 . S
C1594 C1592 1.381 . S
C1594 C1595 1.394 . S
C1594 H1602 0.930 . S
C1595 C1594 1.394 . S
C1595 C1596 1.383 . S
C1595 H1603 0.929 . S
C1596 C1595 1.383 . S
C1596 C1597 1.377 . S
C1597 H1581 0.930 . S
C1597 C1596 1.377 . S
C1597 C1598 1.379 . S
C1598 H1582 0.931 . S
C1598 C1592 1.383 . S
C1598 C1597 1.379 . S
H1599 C1593 0.959 . S
H1600 C1593 0.961 . S
H1601 C1593 0.960 . S
H1602 C1594 0.930 . S
H1603 C1595 0.929 . S
H1604 C1612 0.929 . S
H1605 C1614 0.930 . S
H1606 C1616 0.930 . S
H1607 C1619 0.929 . S
H1608 C1622 0.930 . S
H1609 C1624 0.960 . S
H1610 C1624 0.960 . S
H1611 C1624 0.960 . S
C1612 H1604 0.929 . S
C1612 C1613 1.377 . S
C1612 C1614 1.384 . S
C1613 C1612 1.377 . S
C1613 C1619 1.390 . S
C1614 H1605 0.930 . S
C1614 C1612 1.384 . S
C1614 C1615 1.372 . S
C1615 C1614 1.372 . S
C1615 C1616 1.400 . S
C1615 C1620 1.490 . S
C1616 H1606 0.930 . S
C1616 C1615 1.400 . S
C1616 C1619 1.386 . S
H1617 C1633 0.930 . S
H1618 C1634 0.931 . S
C1619 H1607 0.929 . S
C1619 C1613 1.390 . S
C1619 C1616 1.386 . S
C1620 C1615 1.490 . S
C1620 C1622 1.395 . S
C1620 C1623 1.403 . S
H1621 C1627 0.930 . S
C1622 H1608 0.930 . S
C1622 C1620 1.395 . S
C1622 C1625 1.403 1_655 S
C1623 C1620 1.403 . S
C1623 C1624 1.524 . S
C1623 C1627 1.400 1_655 S
C1624 H1609 0.960 . S
C1624 H1610 0.960 . S
C1624 H1611 0.960 . S
C1624 C1623 1.524 . S
C1625 C1622 1.403 1_455 S
C1625 C1626 1.392 . S
C1625 C1629 1.495 . S
C1626 C1625 1.392 . S
C1626 C1627 1.385 . S
C1626 C1628 1.478 . S
C1627 H1621 0.930 . S
C1627 C1623 1.400 1_455 S
C1627 C1626 1.385 . S
C1628 C1626 1.478 . S
C1628 C1630 1.381 . S
C1628 C1634 1.383 . S
C1629 C1625 1.495 . S
C1629 H1635 0.959 . S
C1629 H1636 0.961 . S
C1629 H1637 0.960 . S
C1630 C1628 1.381 . S
C1630 C1631 1.394 . S
C1630 H1638 0.930 . S
C1631 C1630 1.394 . S
C1631 C1632 1.383 . S
C1631 H1639 0.929 . S
C1632 C1631 1.383 . S
C1632 C1633 1.377 . S
C1633 H1617 0.930 . S
C1633 C1632 1.377 . S
C1633 C1634 1.379 . S
C1634 H1618 0.931 . S
C1634 C1628 1.383 . S
C1634 C1633 1.379 . S
H1635 C1629 0.959 . S
H1636 C1629 0.961 . S
H1637 C1629 0.960 . S
H1638 C1630 0.930 . S
H1639 C1631 0.929 . S
H1640 C1648 0.929 . S
H1641 C1650 0.930 . S
H1642 C1652 0.930 . S
H1643 C1655 0.929 . S
H1644 C1658 0.930 . S
H1645 C1660 0.960 . S
H1646 C1660 0.960 . S
H1647 C1660 0.960 . S
C1648 H1640 0.929 . S
C1648 C1649 1.377 . S
C1648 C1650 1.384 . S
C1649 C1648 1.377 . S
C1649 C1655 1.390 . S
C1650 H1641 0.930 . S
C1650 C1648 1.384 . S
C1650 C1651 1.372 . S
C1651 C1650 1.372 . S
C1651 C1652 1.400 . S
C1651 C1656 1.490 . S
C1652 H1642 0.930 . S
C1652 C1651 1.400 . S
C1652 C1655 1.386 . S
H1653 C1669 0.930 . S
H1654 C1670 0.931 . S
C1655 H1643 0.929 . S
C1655 C1649 1.390 . S
C1655 C1652 1.386 . S
C1656 C1651 1.490 . S
C1656 C1658 1.395 . S
C1656 C1659 1.403 . S
H1657 C1663 0.930 . S
C1658 H1644 0.930 . S
C1658 C1656 1.395 . S
C1658 C1661 1.403 . S
C1659 C1656 1.403 . S
C1659 C1660 1.524 . S
C1659 C1663 1.400 . S
C1660 H1645 0.960 . S
C1660 H1646 0.960 . S
C1660 H1647 0.960 . S
C1660 C1659 1.524 . S
C1661 C1658 1.403 . S
C1661 C1662 1.392 . S
C1661 C1665 1.495 . S
C1662 C1661 1.392 . S
C1662 C1663 1.385 . S
C1662 C1664 1.478 . S
C1663 H1657 0.930 . S
C1663 C1659 1.400 . S
C1663 C1662 1.385 . S
C1664 C1662 1.478 . S
C1664 C1666 1.381 . S
C1664 C1670 1.383 . S
C1665 C1661 1.495 . S
C1665 H1671 0.959 . S
C1665 H1672 0.961 . S
C1665 H1673 0.960 . S
C1666 C1664 1.381 . S
C1666 C1667 1.394 . S
C1666 H1674 0.930 . S
C1667 C1666 1.394 . S
C1667 C1668 1.383 . S
C1667 H1675 0.929 . S
C1668 C1667 1.383 . S
C1668 C1669 1.377 . S
C1669 H1653 0.930 . S
C1669 C1668 1.377 . S
C1669 C1670 1.379 . S
C1670 H1654 0.931 . S
C1670 C1664 1.383 . S
C1670 C1669 1.379 . S
H1671 C1665 0.959 . S
H1672 C1665 0.961 . S
H1673 C1665 0.960 . S
H1674 C1666 0.930 . S
H1675 C1667 0.929 . S
H1676 C1684 0.929 . S
H1677 C1686 0.930 . S
H1678 C1688 0.930 . S
H1679 C1691 0.929 . S
H1680 C1694 0.930 . S
H1681 C1696 0.960 . S
H1682 C1696 0.960 . S
H1683 C1696 0.960 . S
C1684 H1676 0.929 . S
C1684 C1685 1.377 . S
C1684 C1686 1.384 . S
C1685 C1684 1.377 . S
C1685 C1691 1.390 . S
C1686 H1677 0.930 . S
C1686 C1684 1.384 . S
C1686 C1687 1.372 . S
C1687 C1686 1.372 . S
C1687 C1688 1.400 . S
C1687 C1692 1.490 . S
C1688 H1678 0.930 . S
C1688 C1687 1.400 . S
C1688 C1691 1.386 . S
H1689 C1705 0.930 . S
H1690 C1706 0.931 . S
C1691 H1679 0.929 . S
C1691 C1685 1.390 . S
C1691 C1688 1.386 . S
C1692 C1687 1.490 . S
C1692 C1694 1.395 . S
C1692 C1695 1.403 . S
H1693 C1699 0.930 . S
C1694 H1680 0.930 . S
C1694 C1692 1.395 . S
C1694 C1697 1.403 . S
C1695 C1692 1.403 . S
C1695 C1696 1.524 . S
C1695 C1699 1.400 . S
C1696 H1681 0.960 . S
C1696 H1682 0.960 . S
C1696 H1683 0.960 . S
C1696 C1695 1.524 . S
C1697 C1694 1.403 . S
C1697 C1698 1.392 . S
C1697 C1701 1.495 . S
C1698 C1697 1.392 . S
C1698 C1699 1.385 . S
C1698 C1700 1.478 . S
C1699 H1693 0.930 . S
C1699 C1695 1.400 . S
C1699 C1698 1.385 . S
C1700 C1698 1.478 . S
C1700 C1702 1.381 . S
C1700 C1706 1.383 . S
C1701 C1697 1.495 . S
C1701 H1707 0.959 . S
C1701 H1708 0.961 . S
C1701 H1709 0.960 . S
C1702 C1700 1.381 . S
C1702 C1703 1.394 . S
C1702 H1710 0.930 . S
C1703 C1702 1.394 . S
C1703 C1704 1.383 . S
C1703 H1711 0.929 . S
C1704 C1703 1.383 . S
C1704 C1705 1.377 . S
C1705 H1689 0.930 . S
C1705 C1704 1.377 . S
C1705 C1706 1.379 . S
C1706 H1690 0.931 . S
C1706 C1700 1.383 . S
C1706 C1705 1.379 . S
H1707 C1701 0.959 . S
H1708 C1701 0.961 . S
H1709 C1701 0.960 . S
H1710 C1702 0.930 . S
H1711 C1703 0.929 . S
H1712 C1720 0.929 . S
H1713 C1722 0.930 . S
H1714 C1724 0.930 . S
H1715 C1727 0.929 . S
H1716 C1730 0.930 . S
H1717 C1732 0.960 . S
H1718 C1732 0.960 . S
H1719 C1732 0.960 . S
C1720 H1712 0.929 . S
C1720 C1721 1.377 . S
C1720 C1722 1.384 . S
C1721 C1720 1.377 . S
C1721 C1727 1.390 . S
C1722 H1713 0.930 . S
C1722 C1720 1.384 . S
C1722 C1723 1.372 . S
C1723 C1722 1.372 . S
C1723 C1724 1.400 . S
C1723 C1728 1.490 . S
C1724 H1714 0.930 . S
C1724 C1723 1.400 . S
C1724 C1727 1.386 . S
H1725 C1741 0.930 . S
H1726 C1742 0.931 . S
C1727 H1715 0.929 . S
C1727 C1721 1.390 . S
C1727 C1724 1.386 . S
C1728 C1723 1.490 . S
C1728 C1730 1.395 . S
C1728 C1731 1.403 . S
H1729 C1735 0.930 . S
C1730 H1716 0.930 . S
C1730 C1728 1.395 . S
C1730 C1733 1.403 . S
C1731 C1728 1.403 . S
C1731 C1732 1.524 . S
C1731 C1735 1.400 . S
C1732 H1717 0.960 . S
C1732 H1718 0.960 . S
C1732 H1719 0.960 . S
C1732 C1731 1.524 . S
C1733 C1730 1.403 . S
C1733 C1734 1.392 . S
C1733 C1737 1.495 . S
C1734 C1733 1.392 . S
C1734 C1735 1.385 . S
C1734 C1736 1.478 . S
C1735 H1729 0.930 . S
C1735 C1731 1.400 . S
C1735 C1734 1.385 . S
C1736 C1734 1.478 . S
C1736 C1738 1.381 . S
C1736 C1742 1.383 . S
C1737 C1733 1.495 . S
C1737 H1743 0.959 . S
C1737 H1744 0.961 . S
C1737 H1745 0.960 . S
C1738 C1736 1.381 . S
C1738 C1739 1.394 . S
C1738 H1746 0.930 . S
C1739 C1738 1.394 . S
C1739 C1740 1.383 . S
C1739 H1747 0.929 . S
C1740 C1739 1.383 . S
C1740 C1741 1.377 . S
C1741 H1725 0.930 . S
C1741 C1740 1.377 . S
C1741 C1742 1.379 . S
C1742 H1726 0.931 . S
C1742 C1736 1.383 . S
C1742 C1741 1.379 . S
H1743 C1737 0.959 . S
H1744 C1737 0.961 . S
H1745 C1737 0.960 . S
H1746 C1738 0.930 . S
H1747 C1739 0.929 . S
H1748 C1756 0.929 . S
H1749 C1758 0.930 . S
H1750 C1760 0.930 . S
H1751 C1763 0.929 . S
H1752 C1766 0.930 . S
H1753 C1768 0.960 . S
H1754 C1768 0.960 . S
H1755 C1768 0.960 . S
C1756 H1748 0.929 . S
C1756 C1757 1.377 . S
C1756 C1758 1.384 . S
C1757 C1756 1.377 . S
C1757 C1763 1.390 . S
C1758 H1749 0.930 . S
C1758 C1756 1.384 . S
C1758 C1759 1.372 . S
C1759 C1758 1.372 . S
C1759 C1760 1.400 . S
C1759 C1764 1.490 . S
C1760 H1750 0.930 . S
C1760 C1759 1.400 . S
C1760 C1763 1.386 . S
H1761 C1777 0.930 . S
H1762 C1778 0.931 . S
C1763 H1751 0.929 . S
C1763 C1757 1.390 . S
C1763 C1760 1.386 . S
C1764 C1759 1.490 . S
C1764 C1766 1.395 . S
C1764 C1767 1.403 . S
H1765 C1771 0.930 . S
C1766 H1752 0.930 . S
C1766 C1764 1.395 . S
C1766 C1769 1.403 . S
C1767 C1764 1.403 . S
C1767 C1768 1.524 . S
C1767 C1771 1.400 . S
C1768 H1753 0.960 . S
C1768 H1754 0.960 . S
C1768 H1755 0.960 . S
C1768 C1767 1.524 . S
C1769 C1766 1.403 . S
C1769 C1770 1.392 . S
C1769 C1773 1.495 . S
C1770 C1769 1.392 . S
C1770 C1771 1.385 . S
C1770 C1772 1.478 . S
C1771 H1765 0.930 . S
C1771 C1767 1.400 . S
C1771 C1770 1.385 . S
C1772 C1770 1.478 . S
C1772 C1774 1.381 . S
C1772 C1778 1.383 . S
C1773 C1769 1.495 . S
C1773 H1779 0.959 . S
C1773 H1780 0.961 . S
C1773 H1781 0.960 . S
C1774 C1772 1.381 . S
C1774 C1775 1.394 . S
C1774 H1782 0.930 . S
C1775 C1774 1.394 . S
C1775 C1776 1.383 . S
C1775 H1783 0.929 . S
C1776 C1775 1.383 . S
C1776 C1777 1.377 . S
C1777 H1761 0.930 . S
C1777 C1776 1.377 . S
C1777 C1778 1.379 . S
C1778 H1762 0.931 . S
C1778 C1772 1.383 . S
C1778 C1777 1.379 . S
H1779 C1773 0.959 . S
H1780 C1773 0.961 . S
H1781 C1773 0.960 . S
H1782 C1774 0.930 . S
H1783 C1775 0.929 . S
H1784 C1792 0.929 . S
H1785 C1794 0.930 . S
H1786 C1796 0.930 . S
H1787 C1799 0.929 . S
H1788 C1802 0.930 . S
H1789 C1804 0.960 . S
H1790 C1804 0.960 . S
H1791 C1804 0.960 . S
C1792 H1784 0.929 . S
C1792 C1793 1.377 . S
C1792 C1794 1.384 . S
C1793 C1792 1.377 . S
C1793 C1799 1.390 . S
C1794 H1785 0.930 . S
C1794 C1792 1.384 . S
C1794 C1795 1.372 . S
C1795 C1794 1.372 . S
C1795 C1796 1.400 . S
C1795 C1800 1.490 . S
C1796 H1786 0.930 . S
C1796 C1795 1.400 . S
C1796 C1799 1.386 . S
H1797 C1813 0.930 . S
H1798 C1814 0.931 . S
C1799 H1787 0.929 . S
C1799 C1793 1.390 . S
C1799 C1796 1.386 . S
C1800 C1795 1.490 . S
C1800 C1802 1.395 . S
C1800 C1803 1.403 . S
H1801 C1807 0.930 . S
C1802 H1788 0.930 . S
C1802 C1800 1.395 . S
C1802 C1805 1.403 . S
C1803 C1800 1.403 . S
C1803 C1804 1.524 . S
C1803 C1807 1.400 . S
C1804 H1789 0.960 . S
C1804 H1790 0.960 . S
C1804 H1791 0.960 . S
C1804 C1803 1.524 . S
C1805 C1802 1.403 . S
C1805 C1806 1.392 . S
C1805 C1809 1.495 . S
C1806 C1805 1.392 . S
C1806 C1807 1.385 . S
C1806 C1808 1.478 . S
C1807 H1801 0.930 . S
C1807 C1803 1.400 . S
C1807 C1806 1.385 . S
C1808 C1806 1.478 . S
C1808 C1810 1.381 . S
C1808 C1814 1.383 . S
C1809 C1805 1.495 . S
C1809 H1815 0.959 . S
C1809 H1816 0.961 . S
C1809 H1817 0.960 . S
C1810 C1808 1.381 . S
C1810 C1811 1.394 . S
C1810 H1818 0.930 . S
C1811 C1810 1.394 . S
C1811 C1812 1.383 . S
C1811 H1819 0.929 . S
C1812 C1811 1.383 . S
C1812 C1813 1.377 . S
C1813 H1797 0.930 . S
C1813 C1812 1.377 . S
C1813 C1814 1.379 . S
C1814 H1798 0.931 . S
C1814 C1808 1.383 . S
C1814 C1813 1.379 . S
H1815 C1809 0.959 . S
H1816 C1809 0.961 . S
H1817 C1809 0.960 . S
H1818 C1810 0.930 . S
H1819 C1811 0.929 . S
H1820 C1828 0.929 . S
H1821 C1830 0.930 . S
H1822 C1832 0.930 . S
H1823 C1835 0.929 . S
H1824 C1838 0.930 . S
H1825 C1840 0.960 . S
H1826 C1840 0.960 . S
H1827 C1840 0.960 . S
C1828 H1820 0.929 . S
C1828 C1829 1.377 . S
C1828 C1830 1.384 . S
C1829 C1828 1.377 . S
C1829 C1835 1.390 . S
C1830 H1821 0.930 . S
C1830 C1828 1.384 . S
C1830 C1831 1.372 . S
C1831 C1830 1.372 . S
C1831 C1832 1.400 . S
C1831 C1836 1.490 . S
C1832 H1822 0.930 . S
C1832 C1831 1.400 . S
C1832 C1835 1.386 . S
H1833 C1849 0.930 . S
H1834 C1850 0.931 . S
C1835 H1823 0.929 . S
C1835 C1829 1.390 . S
C1835 C1832 1.386 . S
C1836 C1831 1.490 . S
C1836 C1838 1.395 . S
C1836 C1839 1.403 . S
H1837 C1843 0.930 . S
C1838 H1824 0.930 . S
C1838 C1836 1.395 . S
C1838 C1841 1.403 1_655 S
C1839 C1836 1.403 . S
C1839 C1840 1.524 . S
C1839 C1843 1.400 1_655 S
C1840 H1825 0.960 . S
C1840 H1826 0.960 . S
C1840 H1827 0.960 . S
C1840 C1839 1.524 . S
C1841 C1838 1.403 1_455 S
C1841 C1842 1.392 . S
C1841 C1845 1.495 . S
C1842 C1841 1.392 . S
C1842 C1843 1.385 . S
C1842 C1844 1.478 . S
C1843 H1837 0.930 . S
C1843 C1839 1.400 1_455 S
C1843 C1842 1.385 . S
C1844 C1842 1.478 . S
C1844 C1846 1.381 . S
C1844 C1850 1.383 . S
C1845 C1841 1.495 . S
C1845 H1851 0.959 . S
C1845 H1852 0.961 . S
C1845 H1853 0.960 . S
C1846 C1844 1.381 . S
C1846 C1847 1.394 . S
C1846 H1854 0.930 . S
C1847 C1846 1.394 . S
C1847 C1848 1.383 . S
C1847 H1855 0.929 . S
C1848 C1847 1.383 . S
C1848 C1849 1.377 . S
C1849 H1833 0.930 . S
C1849 C1848 1.377 . S
C1849 C1850 1.379 . S
C1850 H1834 0.931 . S
C1850 C1844 1.383 . S
C1850 C1849 1.379 . S
H1851 C1845 0.959 . S
H1852 C1845 0.961 . S
H1853 C1845 0.960 . S
H1854 C1846 0.930 . S
H1855 C1847 0.929 . S
H1856 C1864 0.929 . S
H1857 C1866 0.930 . S
H1858 C1868 0.930 . S
H1859 C1871 0.929 . S
H1860 C1874 0.930 . S
H1861 C1876 0.960 . S
H1862 C1876 0.960 . S
H1863 C1876 0.960 . S
C1864 H1856 0.929 . S
C1864 C1865 1.377 . S
C1864 C1866 1.384 . S
C1865 C1864 1.377 . S
C1865 C1871 1.390 . S
C1866 H1857 0.930 . S
C1866 C1864 1.384 . S
C1866 C1867 1.372 . S
C1867 C1866 1.372 . S
C1867 C1868 1.400 . S
C1867 C1872 1.490 . S
C1868 H1858 0.930 . S
C1868 C1867 1.400 . S
C1868 C1871 1.386 . S
H1869 C1885 0.930 . S
H1870 C1886 0.931 . S
C1871 H1859 0.929 . S
C1871 C1865 1.390 . S
C1871 C1868 1.386 . S
C1872 C1867 1.490 . S
C1872 C1874 1.395 . S
C1872 C1875 1.403 . S
H1873 C1879 0.930 . S
C1874 H1860 0.930 . S
C1874 C1872 1.395 . S
C1874 C1877 1.403 . S
C1875 C1872 1.403 . S
C1875 C1876 1.524 . S
C1875 C1879 1.400 . S
C1876 H1861 0.960 . S
C1876 H1862 0.960 . S
C1876 H1863 0.960 . S
C1876 C1875 1.524 . S
C1877 C1874 1.403 . S
C1877 C1878 1.392 . S
C1877 C1881 1.495 . S
C1878 C1877 1.392 . S
C1878 C1879 1.385 . S
C1878 C1880 1.478 . S
C1879 H1873 0.930 . S
C1879 C1875 1.400 . S
C1879 C1878 1.385 . S
C1880 C1878 1.478 . S
C1880 C1882 1.381 . S
C1880 C1886 1.383 . S
C1881 C1877 1.495 . S
C1881 H1887 0.959 . S
C1881 H1888 0.961 . S
C1881 H1889 0.960 . S
C1882 C1880 1.381 . S
C1882 C1883 1.394 . S
C1882 H1890 0.930 . S
C1883 C1882 1.394 . S
C1883 C1884 1.383 . S
C1883 H1891 0.929 . S
C1884 C1883 1.383 . S
C1884 C1885 1.377 . S
C1885 H1869 0.930 . S
C1885 C1884 1.377 . S
C1885 C1886 1.379 . S
C1886 H1870 0.931 . S
C1886 C1880 1.383 . S
C1886 C1885 1.379 . S
H1887 C1881 0.959 . S
H1888 C1881 0.961 . S
H1889 C1881 0.960 . S
H1890 C1882 0.930 . S
H1891 C1883 0.929 . S
H1892 C1900 0.929 . S
H1893 C1902 0.930 . S
H1894 C1904 0.930 . S
H1895 C1907 0.929 . S
H1896 C1910 0.930 . S
H1897 C1912 0.960 . S
H1898 C1912 0.960 . S
H1899 C1912 0.960 . S
C1900 H1892 0.929 . S
C1900 C1901 1.377 . S
C1900 C1902 1.384 . S
C1901 C1900 1.377 . S
C1901 C1907 1.390 . S
C1902 H1893 0.930 . S
C1902 C1900 1.384 . S
C1902 C1903 1.372 . S
C1903 C1902 1.372 . S
C1903 C1904 1.400 . S
C1903 C1908 1.490 . S
C1904 H1894 0.930 . S
C1904 C1903 1.400 . S
C1904 C1907 1.386 . S
H1905 C1921 0.930 . S
H1906 C1922 0.931 . S
C1907 H1895 0.929 . S
C1907 C1901 1.390 . S
C1907 C1904 1.386 . S
C1908 C1903 1.490 . S
C1908 C1910 1.395 . S
C1908 C1911 1.403 . S
H1909 C1915 0.930 . S
C1910 H1896 0.930 . S
C1910 C1908 1.395 . S
C1910 C1913 1.403 . S
C1911 C1908 1.403 . S
C1911 C1912 1.524 . S
C1911 C1915 1.400 . S
C1912 H1897 0.960 . S
C1912 H1898 0.960 . S
C1912 H1899 0.960 . S
C1912 C1911 1.524 . S
C1913 C1910 1.403 . S
C1913 C1914 1.392 . S
C1913 C1917 1.495 . S
C1914 C1913 1.392 . S
C1914 C1915 1.385 . S
C1914 C1916 1.478 . S
C1915 H1909 0.930 . S
C1915 C1911 1.400 . S
C1915 C1914 1.385 . S
C1916 C1914 1.478 . S
C1916 C1918 1.381 . S
C1916 C1922 1.383 . S
C1917 C1913 1.495 . S
C1917 H1923 0.959 . S
C1917 H1924 0.961 . S
C1917 H1925 0.960 . S
C1918 C1916 1.381 . S
C1918 C1919 1.394 . S
C1918 H1926 0.930 . S
C1919 C1918 1.394 . S
C1919 C1920 1.383 . S
C1919 H1927 0.929 . S
C1920 C1919 1.383 . S
C1920 C1921 1.377 . S
C1921 H1905 0.930 . S
C1921 C1920 1.377 . S
C1921 C1922 1.379 . S
C1922 H1906 0.931 . S
C1922 C1916 1.383 . S
C1922 C1921 1.379 . S
H1923 C1917 0.959 . S
H1924 C1917 0.961 . S
H1925 C1917 0.960 . S
H1926 C1918 0.930 . S
H1927 C1919 0.929 . S
H1928 C1936 0.929 . S
H1929 C1938 0.930 . S
H1930 C1940 0.930 . S
H1931 C1943 0.929 . S
H1932 C1946 0.930 . S
H1933 C1948 0.960 . S
H1934 C1948 0.960 . S
H1935 C1948 0.960 . S
C1936 H1928 0.929 . S
C1936 C1937 1.377 . S
C1936 C1938 1.384 . S
C1937 C1936 1.377 . S
C1937 C1943 1.390 . S
C1938 H1929 0.930 . S
C1938 C1936 1.384 . S
C1938 C1939 1.372 . S
C1939 C1938 1.372 . S
C1939 C1940 1.400 . S
C1939 C1944 1.490 . S
C1940 H1930 0.930 . S
C1940 C1939 1.400 . S
C1940 C1943 1.386 . S
H1941 C1957 0.930 . S
H1942 C1958 0.931 . S
C1943 H1931 0.929 . S
C1943 C1937 1.390 . S
C1943 C1940 1.386 . S
C1944 C1939 1.490 . S
C1944 C1946 1.395 . S
C1944 C1947 1.403 . S
H1945 C1951 0.930 . S
C1946 H1932 0.930 . S
C1946 C1944 1.395 . S
C1946 C1949 1.403 . S
C1947 C1944 1.403 . S
C1947 C1948 1.524 . S
C1947 C1951 1.400 . S
C1948 H1933 0.960 . S
C1948 H1934 0.960 . S
C1948 H1935 0.960 . S
C1948 C1947 1.524 . S
C1949 C1946 1.403 . S
C1949 C1950 1.392 . S
C1949 C1953 1.495 . S
C1950 C1949 1.392 . S
C1950 C1951 1.385 . S
C1950 C1952 1.478 . S
C1951 H1945 0.930 . S
C1951 C1947 1.400 . S
C1951 C1950 1.385 . S
C1952 C1950 1.478 . S
C1952 C1954 1.381 . S
C1952 C1958 1.383 . S
C1953 C1949 1.495 . S
C1953 H1959 0.959 . S
C1953 H1960 0.961 . S
C1953 H1961 0.960 . S
C1954 C1952 1.381 . S
C1954 C1955 1.394 . S
C1954 H1962 0.930 . S
C1955 C1954 1.394 . S
C1955 C1956 1.383 . S
C1955 H1963 0.929 . S
C1956 C1955 1.383 . S
C1956 C1957 1.377 . S
C1957 H1941 0.930 . S
C1957 C1956 1.377 . S
C1957 C1958 1.379 . S
C1958 H1942 0.931 . S
C1958 C1952 1.383 . S
C1958 C1957 1.379 . S
H1959 C1953 0.959 . S
H1960 C1953 0.961 . S
H1961 C1953 0.960 . S
H1962 C1954 0.930 . S
H1963 C1955 0.929 . S
H1964 C1972 0.929 . S
H1965 C1974 0.930 . S
H1966 C1976 0.930 . S
H1967 C1979 0.929 . S
H1968 C1982 0.930 . S
H1969 C1984 0.960 . S
H1970 C1984 0.960 . S
H1971 C1984 0.960 . S
C1972 H1964 0.929 . S
C1972 C1973 1.377 . S
C1972 C1974 1.384 . S
C1973 C1972 1.377 . S
C1973 C1979 1.390 . S
C1974 H1965 0.930 . S
C1974 C1972 1.384 . S
C1974 C1975 1.372 . S
C1975 C1974 1.372 . S
C1975 C1976 1.400 . S
C1975 C1980 1.490 . S
C1976 H1966 0.930 . S
C1976 C1975 1.400 . S
C1976 C1979 1.386 . S
H1977 C1993 0.930 . S
H1978 C1994 0.931 . S
C1979 H1967 0.929 . S
C1979 C1973 1.390 . S
C1979 C1976 1.386 . S
C1980 C1975 1.490 . S
C1980 C1982 1.395 . S
C1980 C1983 1.403 . S
H1981 C1987 0.930 . S
C1982 H1968 0.930 . S
C1982 C1980 1.395 . S
C1982 C1985 1.403 . S
C1983 C1980 1.403 . S
C1983 C1984 1.524 . S
C1983 C1987 1.400 . S
C1984 H1969 0.960 . S
C1984 H1970 0.960 . S
C1984 H1971 0.960 . S
C1984 C1983 1.524 . S
C1985 C1982 1.403 . S
C1985 C1986 1.392 . S
C1985 C1989 1.495 . S
C1986 C1985 1.392 . S
C1986 C1987 1.385 . S
C1986 C1988 1.478 . S
C1987 H1981 0.930 . S
C1987 C1983 1.400 . S
C1987 C1986 1.385 . S
C1988 C1986 1.478 . S
C1988 C1990 1.381 . S
C1988 C1994 1.383 . S
C1989 C1985 1.495 . S
C1989 H1995 0.959 . S
C1989 H1996 0.961 . S
C1989 H1997 0.960 . S
C1990 C1988 1.381 . S
C1990 C1991 1.394 . S
C1990 H1998 0.930 . S
C1991 C1990 1.394 . S
C1991 C1992 1.383 . S
C1991 H1999 0.929 . S
C1992 C1991 1.383 . S
C1992 C1993 1.377 . S
C1993 H1977 0.930 . S
C1993 C1992 1.377 . S
C1993 C1994 1.379 . S
C1994 H1978 0.931 . S
C1994 C1988 1.383 . S
C1994 C1993 1.379 . S
H1995 C1989 0.959 . S
H1996 C1989 0.961 . S
H1997 C1989 0.960 . S
H1998 C1990 0.930 . S
H1999 C1991 0.929 . S
H2000 C2008 0.929 . S
H2001 C2010 0.930 . S
H2002 C2012 0.930 . S
H2003 C2015 0.929 . S
H2004 C2018 0.930 . S
H2005 C2020 0.960 . S
H2006 C2020 0.960 . S
H2007 C2020 0.960 . S
C2008 H2000 0.929 . S
C2008 C2009 1.377 . S
C2008 C2010 1.384 . S
C2009 C2008 1.377 . S
C2009 C2015 1.390 . S
C2010 H2001 0.930 . S
C2010 C2008 1.384 . S
C2010 C2011 1.372 . S
C2011 C2010 1.372 . S
C2011 C2012 1.400 . S
C2011 C2016 1.490 . S
C2012 H2002 0.930 . S
C2012 C2011 1.400 . S
C2012 C2015 1.386 . S
H2013 C2029 0.930 . S
H2014 C2030 0.931 . S
C2015 H2003 0.929 . S
C2015 C2009 1.390 . S
C2015 C2012 1.386 . S
C2016 C2011 1.490 . S
C2016 C2018 1.395 . S
C2016 C2019 1.403 . S
H2017 C2023 0.930 . S
C2018 H2004 0.930 . S
C2018 C2016 1.395 . S
C2018 C2021 1.403 . S
C2019 C2016 1.403 . S
C2019 C2020 1.524 . S
C2019 C2023 1.400 . S
C2020 H2005 0.960 . S
C2020 H2006 0.960 . S
C2020 H2007 0.960 . S
C2020 C2019 1.524 . S
C2021 C2018 1.403 . S
C2021 C2022 1.392 . S
C2021 C2025 1.495 . S
C2022 C2021 1.392 . S
C2022 C2023 1.385 . S
C2022 C2024 1.478 . S
C2023 H2017 0.930 . S
C2023 C2019 1.400 . S
C2023 C2022 1.385 . S
C2024 C2022 1.478 . S
C2024 C2026 1.381 . S
C2024 C2030 1.383 . S
C2025 C2021 1.495 . S
C2025 H2031 0.959 . S
C2025 H2032 0.961 . S
C2025 H2033 0.960 . S
C2026 C2024 1.381 . S
C2026 C2027 1.394 . S
C2026 H2034 0.930 . S
C2027 C2026 1.394 . S
C2027 C2028 1.383 . S
C2027 H2035 0.929 . S
C2028 C2027 1.383 . S
C2028 C2029 1.377 . S
C2029 H2013 0.930 . S
C2029 C2028 1.377 . S
C2029 C2030 1.379 . S
C2030 H2014 0.931 . S
C2030 C2024 1.383 . S
C2030 C2029 1.379 . S
H2031 C2025 0.959 . S
H2032 C2025 0.961 . S
H2033 C2025 0.960 . S
H2034 C2026 0.930 . S
H2035 C2027 0.929 . S
H2036 C2044 0.929 . S
H2037 C2046 0.930 . S
H2038 C2048 0.930 . S
H2039 C2051 0.929 . S
H2040 C2054 0.930 . S
H2041 C2056 0.960 . S
H2042 C2056 0.960 . S
H2043 C2056 0.960 . S
C2044 H2036 0.929 . S
C2044 C2045 1.377 . S
C2044 C2046 1.384 . S
C2045 C2044 1.377 . S
C2045 C2051 1.390 . S
C2046 H2037 0.930 . S
C2046 C2044 1.384 . S
C2046 C2047 1.372 . S
C2047 C2046 1.372 . S
C2047 C2048 1.400 . S
C2047 C2052 1.490 . S
C2048 H2038 0.930 . S
C2048 C2047 1.400 . S
C2048 C2051 1.386 . S
H2049 C2065 0.930 . S
H2050 C2066 0.931 . S
C2051 H2039 0.929 . S
C2051 C2045 1.390 . S
C2051 C2048 1.386 . S
C2052 C2047 1.490 . S
C2052 C2054 1.395 . S
C2052 C2055 1.403 . S
H2053 C2059 0.930 . S
C2054 H2040 0.930 . S
C2054 C2052 1.395 . S
C2054 C2057 1.403 1_655 S
C2055 C2052 1.403 . S
C2055 C2056 1.524 . S
C2055 C2059 1.400 1_655 S
C2056 H2041 0.960 . S
C2056 H2042 0.960 . S
C2056 H2043 0.960 . S
C2056 C2055 1.524 . S
C2057 C2054 1.403 1_455 S
C2057 C2058 1.392 . S
C2057 C2061 1.495 . S
C2058 C2057 1.392 . S
C2058 C2059 1.385 . S
C2058 C2060 1.478 . S
C2059 H2053 0.930 . S
C2059 C2055 1.400 1_455 S
C2059 C2058 1.385 . S
C2060 C2058 1.478 . S
C2060 C2062 1.381 . S
C2060 C2066 1.383 . S
C2061 C2057 1.495 . S
C2061 H2067 0.959 . S
C2061 H2068 0.961 . S
C2061 H2069 0.960 . S
C2062 C2060 1.381 . S
C2062 C2063 1.394 . S
C2062 H2070 0.930 . S
C2063 C2062 1.394 . S
C2063 C2064 1.383 . S
C2063 H2071 0.929 . S
C2064 C2063 1.383 . S
C2064 C2065 1.377 . S
C2065 H2049 0.930 . S
C2065 C2064 1.377 . S
C2065 C2066 1.379 . S
C2066 H2050 0.931 . S
C2066 C2060 1.383 . S
C2066 C2065 1.379 . S
H2067 C2061 0.959 . S
H2068 C2061 0.961 . S
H2069 C2061 0.960 . S
H2070 C2062 0.930 . S
H2071 C2063 0.929 . S
H2072 C2080 0.929 . S
H2073 C2082 0.930 . S
H2074 C2084 0.930 . S
H2075 C2087 0.929 . S
H2076 C2090 0.930 . S
H2077 C2092 0.960 . S
H2078 C2092 0.960 . S
H2079 C2092 0.960 . S
C2080 H2072 0.929 . S
C2080 C2081 1.377 . S
C2080 C2082 1.384 . S
C2081 C2080 1.377 . S
C2081 C2087 1.390 . S
C2082 H2073 0.930 . S
C2082 C2080 1.384 . S
C2082 C2083 1.372 . S
C2083 C2082 1.372 . S
C2083 C2084 1.400 . S
C2083 C2088 1.490 . S
C2084 H2074 0.930 . S
C2084 C2083 1.400 . S
C2084 C2087 1.386 . S
H2085 C2101 0.930 . S
H2086 C2102 0.931 . S
C2087 H2075 0.929 . S
C2087 C2081 1.390 . S
C2087 C2084 1.386 . S
C2088 C2083 1.490 . S
C2088 C2090 1.395 . S
C2088 C2091 1.403 . S
H2089 C2095 0.930 . S
C2090 H2076 0.930 . S
C2090 C2088 1.395 . S
C2090 C2093 1.403 1_655 S
C2091 C2088 1.403 . S
C2091 C2092 1.524 . S
C2091 C2095 1.400 1_655 S
C2092 H2077 0.960 . S
C2092 H2078 0.960 . S
C2092 H2079 0.960 . S
C2092 C2091 1.524 . S
C2093 C2090 1.403 1_455 S
C2093 C2094 1.392 . S
C2093 C2097 1.495 . S
C2094 C2093 1.392 . S
C2094 C2095 1.385 . S
C2094 C2096 1.478 . S
C2095 H2089 0.930 . S
C2095 C2091 1.400 1_455 S
C2095 C2094 1.385 . S
C2096 C2094 1.478 . S
C2096 C2098 1.381 . S
C2096 C2102 1.383 . S
C2097 C2093 1.495 . S
C2097 H2103 0.959 . S
C2097 H2104 0.961 . S
C2097 H2105 0.960 . S
C2098 C2096 1.381 . S
C2098 C2099 1.394 . S
C2098 H2106 0.930 . S
C2099 C2098 1.394 . S
C2099 C2100 1.383 . S
C2099 H2107 0.929 . S
C2100 C2099 1.383 . S
C2100 C2101 1.377 . S
C2101 H2085 0.930 . S
C2101 C2100 1.377 . S
C2101 C2102 1.379 . S
C2102 H2086 0.931 . S
C2102 C2096 1.383 . S
C2102 C2101 1.379 . S
H2103 C2097 0.959 . S
H2104 C2097 0.961 . S
H2105 C2097 0.960 . S
H2106 C2098 0.930 . S
H2107 C2099 0.929 . S
H2108 C2116 0.929 . S
H2109 C2118 0.930 . S
H2110 C2120 0.930 . S
H2111 C2123 0.929 . S
H2112 C2126 0.930 . S
H2113 C2128 0.960 . S
H2114 C2128 0.960 . S
H2115 C2128 0.960 . S
C2116 H2108 0.929 . S
C2116 C2117 1.377 . S
C2116 C2118 1.384 . S
C2117 C2116 1.377 . S
C2117 C2123 1.390 . S
C2118 H2109 0.930 . S
C2118 C2116 1.384 . S
C2118 C2119 1.372 . S
C2119 C2118 1.372 . S
C2119 C2120 1.400 . S
C2119 C2124 1.490 . S
C2120 H2110 0.930 . S
C2120 C2119 1.400 . S
C2120 C2123 1.386 . S
H2121 C2137 0.930 . S
H2122 C2138 0.931 . S
C2123 H2111 0.929 . S
C2123 C2117 1.390 . S
C2123 C2120 1.386 . S
C2124 C2119 1.490 . S
C2124 C2126 1.395 . S
C2124 C2127 1.403 . S
H2125 C2131 0.930 . S
C2126 H2112 0.930 . S
C2126 C2124 1.395 . S
C2126 C2129 1.403 . S
C2127 C2124 1.403 . S
C2127 C2128 1.524 . S
C2127 C2131 1.400 . S
C2128 H2113 0.960 . S
C2128 H2114 0.960 . S
C2128 H2115 0.960 . S
C2128 C2127 1.524 . S
C2129 C2126 1.403 . S
C2129 C2130 1.392 . S
C2129 C2133 1.495 . S
C2130 C2129 1.392 . S
C2130 C2131 1.385 . S
C2130 C2132 1.478 . S
C2131 H2125 0.930 . S
C2131 C2127 1.400 . S
C2131 C2130 1.385 . S
C2132 C2130 1.478 . S
C2132 C2134 1.381 . S
C2132 C2138 1.383 . S
C2133 C2129 1.495 . S
C2133 H2139 0.959 . S
C2133 H2140 0.961 . S
C2133 H2141 0.960 . S
C2134 C2132 1.381 . S
C2134 C2135 1.394 . S
C2134 H2142 0.930 . S
C2135 C2134 1.394 . S
C2135 C2136 1.383 . S
C2135 H2143 0.929 . S
C2136 C2135 1.383 . S
C2136 C2137 1.377 . S
C2137 H2121 0.930 . S
C2137 C2136 1.377 . S
C2137 C2138 1.379 . S
C2138 H2122 0.931 . S
C2138 C2132 1.383 . S
C2138 C2137 1.379 . S
H2139 C2133 0.959 . S
H2140 C2133 0.961 . S
H2141 C2133 0.960 . S
H2142 C2134 0.930 . S
H2143 C2135 0.929 . S
H2144 C2152 0.929 . S
H2145 C2154 0.930 . S
H2146 C2156 0.930 . S
H2147 C2159 0.929 . S
H2148 C2162 0.930 . S
H2149 C2164 0.960 . S
H2150 C2164 0.960 . S
H2151 C2164 0.960 . S
C2152 H2144 0.929 . S
C2152 C2153 1.377 . S
C2152 C2154 1.384 . S
C2153 C2152 1.377 . S
C2153 C2159 1.390 . S
C2154 H2145 0.930 . S
C2154 C2152 1.384 . S
C2154 C2155 1.372 . S
C2155 C2154 1.372 . S
C2155 C2156 1.400 . S
C2155 C2160 1.490 . S
C2156 H2146 0.930 . S
C2156 C2155 1.400 . S
C2156 C2159 1.386 . S
H2157 C2173 0.930 . S
H2158 C2174 0.931 . S
C2159 H2147 0.929 . S
C2159 C2153 1.390 . S
C2159 C2156 1.386 . S
C2160 C2155 1.490 . S
C2160 C2162 1.395 . S
C2160 C2163 1.403 . S
H2161 C2167 0.930 . S
C2162 H2148 0.930 . S
C2162 C2160 1.395 . S
C2162 C2165 1.403 . S
C2163 C2160 1.403 . S
C2163 C2164 1.524 . S
C2163 C2167 1.400 . S
C2164 H2149 0.960 . S
C2164 H2150 0.960 . S
C2164 H2151 0.960 . S
C2164 C2163 1.524 . S
C2165 C2162 1.403 . S
C2165 C2166 1.392 . S
C2165 C2169 1.495 . S
C2166 C2165 1.392 . S
C2166 C2167 1.385 . S
C2166 C2168 1.478 . S
C2167 H2161 0.930 . S
C2167 C2163 1.400 . S
C2167 C2166 1.385 . S
C2168 C2166 1.478 . S
C2168 C2170 1.381 . S
C2168 C2174 1.383 . S
C2169 C2165 1.495 . S
C2169 H2175 0.959 . S
C2169 H2176 0.961 . S
C2169 H2177 0.960 . S
C2170 C2168 1.381 . S
C2170 C2171 1.394 . S
C2170 H2178 0.930 . S
C2171 C2170 1.394 . S
C2171 C2172 1.383 . S
C2171 H2179 0.929 . S
C2172 C2171 1.383 . S
C2172 C2173 1.377 . S
C2173 H2157 0.930 . S
C2173 C2172 1.377 . S
C2173 C2174 1.379 . S
C2174 H2158 0.931 . S
C2174 C2168 1.383 . S
C2174 C2173 1.379 . S
H2175 C2169 0.959 . S
H2176 C2169 0.961 . S
H2177 C2169 0.960 . S
H2178 C2170 0.930 . S
H2179 C2171 0.929 . S
H2180 C2188 0.929 . S
H2181 C2190 0.930 . S
H2182 C2192 0.930 . S
H2183 C2195 0.929 . S
H2184 C2198 0.930 . S
H2185 C2200 0.960 . S
H2186 C2200 0.960 . S
H2187 C2200 0.960 . S
C2188 H2180 0.929 . S
C2188 C2189 1.377 . S
C2188 C2190 1.384 . S
C2189 C2188 1.377 . S
C2189 C2195 1.390 . S
C2190 H2181 0.930 . S
C2190 C2188 1.384 . S
C2190 C2191 1.372 . S
C2191 C2190 1.372 . S
C2191 C2192 1.400 . S
C2191 C2196 1.490 . S
C2192 H2182 0.930 . S
C2192 C2191 1.400 . S
C2192 C2195 1.386 . S
H2193 C2209 0.930 . S
H2194 C2210 0.931 . S
C2195 H2183 0.929 . S
C2195 C2189 1.390 . S
C2195 C2192 1.386 . S
C2196 C2191 1.490 . S
C2196 C2198 1.395 . S
C2196 C2199 1.403 . S
H2197 C2203 0.930 . S
C2198 H2184 0.930 . S
C2198 C2196 1.395 . S
C2198 C2201 1.403 . S
C2199 C2196 1.403 . S
C2199 C2200 1.524 . S
C2199 C2203 1.400 . S
C2200 H2185 0.960 . S
C2200 H2186 0.960 . S
C2200 H2187 0.960 . S
C2200 C2199 1.524 . S
C2201 C2198 1.403 . S
C2201 C2202 1.392 . S
C2201 C2205 1.495 . S
C2202 C2201 1.392 . S
C2202 C2203 1.385 . S
C2202 C2204 1.478 . S
C2203 H2197 0.930 . S
C2203 C2199 1.400 . S
C2203 C2202 1.385 . S
C2204 C2202 1.478 . S
C2204 C2206 1.381 . S
C2204 C2210 1.383 . S
C2205 C2201 1.495 . S
C2205 H2211 0.959 . S
C2205 H2212 0.961 . S
C2205 H2213 0.960 . S
C2206 C2204 1.381 . S
C2206 C2207 1.394 . S
C2206 H2214 0.930 . S
C2207 C2206 1.394 . S
C2207 C2208 1.383 . S
C2207 H2215 0.929 . S
C2208 C2207 1.383 . S
C2208 C2209 1.377 . S
C2209 H2193 0.930 . S
C2209 C2208 1.377 . S
C2209 C2210 1.379 . S
C2210 H2194 0.931 . S
C2210 C2204 1.383 . S
C2210 C2209 1.379 . S
H2211 C2205 0.959 . S
H2212 C2205 0.961 . S
H2213 C2205 0.960 . S
H2214 C2206 0.930 . S
H2215 C2207 0.929 . S
H2216 C2224 0.929 1_554 S
H2217 C2226 0.930 . S
H2218 C2228 0.930 . S
H2219 C2231 0.929 . S
H2220 C2234 0.930 . S
H2221 C2236 0.960 . S
H2222 C2236 0.960 . S
H2223 C2236 0.960 . S
C2224 H2216 0.929 1_556 S
C2224 C2225 1.377 1_556 S
C2224 C2226 1.384 . S
C2225 C2224 1.377 1_554 S
C2225 C2231 1.390 . S
C2226 H2217 0.930 . S
C2226 C2224 1.384 . S
C2226 C2227 1.372 . S
C2227 C2226 1.372 . S
C2227 C2228 1.400 . S
C2227 C2232 1.490 . S
C2228 H2218 0.930 . S
C2228 C2227 1.400 . S
C2228 C2231 1.386 1_556 S
H2229 C2245 0.930 . S
H2230 C2246 0.931 . S
C2231 H2219 0.929 . S
C2231 C2225 1.390 . S
C2231 C2228 1.386 1_554 S
C2232 C2227 1.490 . S
C2232 C2234 1.395 . S
C2232 C2235 1.403 . S
H2233 C2239 0.930 . S
C2234 H2220 0.930 . S
C2234 C2232 1.395 . S
C2234 C2237 1.403 . S
C2235 C2232 1.403 . S
C2235 C2236 1.524 . S
C2235 C2239 1.400 . S
C2236 H2221 0.960 . S
C2236 H2222 0.960 . S
C2236 H2223 0.960 . S
C2236 C2235 1.524 . S
C2237 C2234 1.403 . S
C2237 C2238 1.392 . S
C2237 C2241 1.495 . S
C2238 C2237 1.392 . S
C2238 C2239 1.385 . S
C2238 C2240 1.478 . S
C2239 H2233 0.930 . S
C2239 C2235 1.400 . S
C2239 C2238 1.385 . S
C2240 C2238 1.478 . S
C2240 C2242 1.381 . S
C2240 C2246 1.383 . S
C2241 C2237 1.495 . S
C2241 H2247 0.959 . S
C2241 H2248 0.961 . S
C2241 H2249 0.960 . S
C2242 C2240 1.381 . S
C2242 C2243 1.394 . S
C2242 H2250 0.930 . S
C2243 C2242 1.394 . S
C2243 C2244 1.383 . S
C2243 H2251 0.929 . S
C2244 C2243 1.383 . S
C2244 C2245 1.377 . S
C2245 H2229 0.930 . S
C2245 C2244 1.377 . S
C2245 C2246 1.379 . S
C2246 H2230 0.931 . S
C2246 C2240 1.383 . S
C2246 C2245 1.379 . S
H2247 C2241 0.959 . S
H2248 C2241 0.961 . S
H2249 C2241 0.960 . S
H2250 C2242 0.930 . S
H2251 C2243 0.929 . S
H2252 C2260 0.929 . S
H2253 C2262 0.930 . S
H2254 C2264 0.930 . S
H2255 C2267 0.929 . S
H2256 C2270 0.930 . S
H2257 C2272 0.960 . S
H2258 C2272 0.960 . S
H2259 C2272 0.960 . S
C2260 H2252 0.929 . S
C2260 C2261 1.377 . S
C2260 C2262 1.384 1_556 S
C2261 C2260 1.377 . S
C2261 C2267 1.390 1_556 S
C2262 H2253 0.930 . S
C2262 C2260 1.384 1_554 S
C2262 C2263 1.372 . S
C2263 C2262 1.372 . S
C2263 C2264 1.400 . S
C2263 C2268 1.490 . S
C2264 H2254 0.930 . S
C2264 C2263 1.400 . S
C2264 C2267 1.386 . S
H2265 C2281 0.930 . S
H2266 C2282 0.931 . S
C2267 H2255 0.929 . S
C2267 C2261 1.390 1_554 S
C2267 C2264 1.386 . S
C2268 C2263 1.490 . S
C2268 C2270 1.395 . S
C2268 C2271 1.403 . S
H2269 C2275 0.930 . S
C2270 H2256 0.930 . S
C2270 C2268 1.395 . S
C2270 C2273 1.403 . S
C2271 C2268 1.403 . S
C2271 C2272 1.524 . S
C2271 C2275 1.400 . S
C2272 H2257 0.960 . S
C2272 H2258 0.960 . S
C2272 H2259 0.960 . S
C2272 C2271 1.524 . S
C2273 C2270 1.403 . S
C2273 C2274 1.392 . S
C2273 C2277 1.495 . S
C2274 C2273 1.392 . S
C2274 C2275 1.385 . S
C2274 C2276 1.478 . S
C2275 H2269 0.930 . S
C2275 C2271 1.400 . S
C2275 C2274 1.385 . S
C2276 C2274 1.478 . S
C2276 C2278 1.381 . S
C2276 C2282 1.383 . S
C2277 C2273 1.495 . S
C2277 H2283 0.959 . S
C2277 H2284 0.961 . S
C2277 H2285 0.960 . S
C2278 C2276 1.381 . S
C2278 C2279 1.394 . S
C2278 H2286 0.930 . S
C2279 C2278 1.394 . S
C2279 C2280 1.383 . S
C2279 H2287 0.929 . S
C2280 C2279 1.383 . S
C2280 C2281 1.377 . S
C2281 H2265 0.930 . S
C2281 C2280 1.377 . S
C2281 C2282 1.379 . S
C2282 H2266 0.931 . S
C2282 C2276 1.383 . S
C2282 C2281 1.379 . S
H2283 C2277 0.959 . S
H2284 C2277 0.961 . S
H2285 C2277 0.960 . S
H2286 C2278 0.930 . S
H2287 C2279 0.929 . S
H2288 C2296 0.929 . S
H2289 C2298 0.930 . S
H2290 C2300 0.930 . S
H2291 C2303 0.929 . S
H2292 C2306 0.930 . S
H2293 C2308 0.960 . S
H2294 C2308 0.960 . S
H2295 C2308 0.960 . S
C2296 H2288 0.929 . S
C2296 C2297 1.377 . S
C2296 C2298 1.384 . S
C2297 C2296 1.377 . S
C2297 C2303 1.390 . S
C2298 H2289 0.930 . S
C2298 C2296 1.384 . S
C2298 C2299 1.372 . S
C2299 C2298 1.372 . S
C2299 C2300 1.400 . S
C2299 C2304 1.490 . S
C2300 H2290 0.930 . S
C2300 C2299 1.400 . S
C2300 C2303 1.386 . S
H2301 C2317 0.930 . S
H2302 C2318 0.931 . S
C2303 H2291 0.929 . S
C2303 C2297 1.390 . S
C2303 C2300 1.386 . S
C2304 C2299 1.490 . S
C2304 C2306 1.395 . S
C2304 C2307 1.403 . S
H2305 C2311 0.930 . S
C2306 H2292 0.930 . S
C2306 C2304 1.395 . S
C2306 C2309 1.403 . S
C2307 C2304 1.403 . S
C2307 C2308 1.524 . S
C2307 C2311 1.400 . S
C2308 H2293 0.960 . S
C2308 H2294 0.960 . S
C2308 H2295 0.960 . S
C2308 C2307 1.524 . S
C2309 C2306 1.403 . S
C2309 C2310 1.392 . S
C2309 C2313 1.495 . S
C2310 C2309 1.392 . S
C2310 C2311 1.385 . S
C2310 C2312 1.478 . S
C2311 H2305 0.930 . S
C2311 C2307 1.400 . S
C2311 C2310 1.385 . S
C2312 C2310 1.478 . S
C2312 C2314 1.381 . S
C2312 C2318 1.383 . S
C2313 C2309 1.495 . S
C2313 H2319 0.959 . S
C2313 H2320 0.961 . S
C2313 H2321 0.960 . S
C2314 C2312 1.381 . S
C2314 C2315 1.394 . S
C2314 H2322 0.930 . S
C2315 C2314 1.394 . S
C2315 C2316 1.383 . S
C2315 H2323 0.929 . S
C2316 C2315 1.383 . S
C2316 C2317 1.377 . S
C2317 H2301 0.930 . S
C2317 C2316 1.377 . S
C2317 C2318 1.379 . S
C2318 H2302 0.931 . S
C2318 C2312 1.383 . S
C2318 C2317 1.379 . S
H2319 C2313 0.959 . S
H2320 C2313 0.961 . S
H2321 C2313 0.960 . S
H2322 C2314 0.930 . S
H2323 C2315 0.929 . S
H2324 C2332 0.929 . S
H2325 C2334 0.930 . S
H2326 C2336 0.930 . S
H2327 C2339 0.929 . S
H2328 C2342 0.930 . S
H2329 C2344 0.960 . S
H2330 C2344 0.960 . S
H2331 C2344 0.960 . S
C2332 H2324 0.929 . S
C2332 C2333 1.377 . S
C2332 C2334 1.384 . S
C2333 C2332 1.377 . S
C2333 C2339 1.390 . S
C2334 H2325 0.930 . S
C2334 C2332 1.384 . S
C2334 C2335 1.372 . S
C2335 C2334 1.372 . S
C2335 C2336 1.400 . S
C2335 C2340 1.490 . S
C2336 H2326 0.930 . S
C2336 C2335 1.400 . S
C2336 C2339 1.386 . S
H2337 C2353 0.930 . S
H2338 C2354 0.931 . S
C2339 H2327 0.929 . S
C2339 C2333 1.390 . S
C2339 C2336 1.386 . S
C2340 C2335 1.490 . S
C2340 C2342 1.395 . S
C2340 C2343 1.403 . S
H2341 C2347 0.930 . S
C2342 H2328 0.930 . S
C2342 C2340 1.395 . S
C2342 C2345 1.403 . S
C2343 C2340 1.403 . S
C2343 C2344 1.524 . S
C2343 C2347 1.400 . S
C2344 H2329 0.960 . S
C2344 H2330 0.960 . S
C2344 H2331 0.960 . S
C2344 C2343 1.524 . S
C2345 C2342 1.403 . S
C2345 C2346 1.392 . S
C2345 C2349 1.495 . S
C2346 C2345 1.392 . S
C2346 C2347 1.385 . S
C2346 C2348 1.478 . S
C2347 H2341 0.930 . S
C2347 C2343 1.400 . S
C2347 C2346 1.385 . S
C2348 C2346 1.478 . S
C2348 C2350 1.381 . S
C2348 C2354 1.383 . S
C2349 C2345 1.495 . S
C2349 H2355 0.959 . S
C2349 H2356 0.961 . S
C2349 H2357 0.960 . S
C2350 C2348 1.381 . S
C2350 C2351 1.394 . S
C2350 H2358 0.930 . S
C2351 C2350 1.394 . S
C2351 C2352 1.383 . S
C2351 H2359 0.929 . S
C2352 C2351 1.383 . S
C2352 C2353 1.377 . S
C2353 H2337 0.930 . S
C2353 C2352 1.377 . S
C2353 C2354 1.379 . S
C2354 H2338 0.931 . S
C2354 C2348 1.383 . S
C2354 C2353 1.379 . S
H2355 C2349 0.959 . S
H2356 C2349 0.961 . S
H2357 C2349 0.960 . S
H2358 C2350 0.930 . S
H2359 C2351 0.929 . S
H2360 C2368 0.929 . S
H2361 C2370 0.930 . S
H2362 C2372 0.930 . S
H2363 C2375 0.929 . S
H2364 C2378 0.930 . S
H2365 C2380 0.960 . S
H2366 C2380 0.960 . S
H2367 C2380 0.960 . S
C2368 H2360 0.929 . S
C2368 C2369 1.377 . S
C2368 C2370 1.384 . S
C2369 C2368 1.377 . S
C2369 C2375 1.390 . S
C2370 H2361 0.930 . S
C2370 C2368 1.384 . S
C2370 C2371 1.372 . S
C2371 C2370 1.372 . S
C2371 C2372 1.400 . S
C2371 C2376 1.490 . S
C2372 H2362 0.930 . S
C2372 C2371 1.400 . S
C2372 C2375 1.386 . S
H2373 C2389 0.930 . S
H2374 C2390 0.931 . S
C2375 H2363 0.929 . S
C2375 C2369 1.390 . S
C2375 C2372 1.386 . S
C2376 C2371 1.490 . S
C2376 C2378 1.395 . S
C2376 C2379 1.403 . S
H2377 C2383 0.930 . S
C2378 H2364 0.930 . S
C2378 C2376 1.395 . S
C2378 C2381 1.403 . S
C2379 C2376 1.403 . S
C2379 C2380 1.524 . S
C2379 C2383 1.400 . S
C2380 H2365 0.960 . S
C2380 H2366 0.960 . S
C2380 H2367 0.960 . S
C2380 C2379 1.524 . S
C2381 C2378 1.403 . S
C2381 C2382 1.392 . S
C2381 C2385 1.495 . S
C2382 C2381 1.392 . S
C2382 C2383 1.385 . S
C2382 C2384 1.478 . S
C2383 H2377 0.930 . S
C2383 C2379 1.400 . S
C2383 C2382 1.385 . S
C2384 C2382 1.478 . S
C2384 C2386 1.381 . S
C2384 C2390 1.383 . S
C2385 C2381 1.495 . S
C2385 H2391 0.959 . S
C2385 H2392 0.961 . S
C2385 H2393 0.960 . S
C2386 C2384 1.381 . S
C2386 C2387 1.394 1_554 S
C2386 H2394 0.930 . S
C2387 C2386 1.394 1_556 S
C2387 C2388 1.383 . S
C2387 H2395 0.929 . S
C2388 C2387 1.383 . S
C2388 C2389 1.377 1_556 S
C2389 H2373 0.930 . S
C2389 C2388 1.377 1_554 S
C2389 C2390 1.379 . S
C2390 H2374 0.931 . S
C2390 C2384 1.383 . S
C2390 C2389 1.379 . S
H2391 C2385 0.959 . S
H2392 C2385 0.961 . S
H2393 C2385 0.960 . S
H2394 C2386 0.930 . S
H2395 C2387 0.929 . S
H2396 C2404 0.929 . S
H2397 C2406 0.930 . S
H2398 C2408 0.930 . S
H2399 C2411 0.929 . S
H2400 C2414 0.930 . S
H2401 C2416 0.960 . S
H2402 C2416 0.960 . S
H2403 C2416 0.960 . S
C2404 H2396 0.929 . S
C2404 C2405 1.377 . S
C2404 C2406 1.384 . S
C2405 C2404 1.377 . S
C2405 C2411 1.390 . S
C2406 H2397 0.930 . S
C2406 C2404 1.384 . S
C2406 C2407 1.372 . S
C2407 C2406 1.372 . S
C2407 C2408 1.400 . S
C2407 C2412 1.490 . S
C2408 H2398 0.930 . S
C2408 C2407 1.400 . S
C2408 C2411 1.386 . S
H2409 C2425 0.930 . S
H2410 C2426 0.931 . S
C2411 H2399 0.929 . S
C2411 C2405 1.390 . S
C2411 C2408 1.386 . S
C2412 C2407 1.490 . S
C2412 C2414 1.395 . S
C2412 C2415 1.403 . S
H2413 C2419 0.930 . S
C2414 H2400 0.930 . S
C2414 C2412 1.395 . S
C2414 C2417 1.403 . S
C2415 C2412 1.403 . S
C2415 C2416 1.524 . S
C2415 C2419 1.400 . S
C2416 H2401 0.960 . S
C2416 H2402 0.960 . S
C2416 H2403 0.960 . S
C2416 C2415 1.524 . S
C2417 C2414 1.403 . S
C2417 C2418 1.392 . S
C2417 C2421 1.495 . S
C2418 C2417 1.392 . S
C2418 C2419 1.385 . S
C2418 C2420 1.478 . S
C2419 H2413 0.930 . S
C2419 C2415 1.400 . S
C2419 C2418 1.385 . S
C2420 C2418 1.478 . S
C2420 C2422 1.381 . S
C2420 C2426 1.383 . S
C2421 C2417 1.495 . S
C2421 H2427 0.959 . S
C2421 H2428 0.961 . S
C2421 H2429 0.960 . S
C2422 C2420 1.381 . S
C2422 C2423 1.394 1_556 S
C2422 H2430 0.930 . S
C2423 C2422 1.394 1_554 S
C2423 C2424 1.383 . S
C2423 H2431 0.929 . S
C2424 C2423 1.383 . S
C2424 C2425 1.377 1_554 S
C2425 H2409 0.930 . S
C2425 C2424 1.377 1_556 S
C2425 C2426 1.379 . S
C2426 H2410 0.931 . S
C2426 C2420 1.383 . S
C2426 C2425 1.379 . S
H2427 C2421 0.959 . S
H2428 C2421 0.961 . S
H2429 C2421 0.960 . S
H2430 C2422 0.930 . S
H2431 C2423 0.929 . S
H2432 C2440 0.929 . S
H2433 C2442 0.930 . S
H2434 C2444 0.930 . S
H2435 C2447 0.936 . S
H2436 C2450 0.930 . S
H2437 C2452 0.960 . S
H2438 C2452 0.960 . S
H2439 C2452 0.960 . S
C2440 H2432 0.929 . S
C2440 C2441 1.377 . S
C2440 C2442 1.384 1_554 S
C2441 C2440 1.377 . S
C2441 C2447 1.397 . S
C2442 H2433 0.930 . S
C2442 C2440 1.384 1_556 S
C2442 C2443 1.372 . S
C2443 C2442 1.372 . S
C2443 C2444 1.400 . S
C2443 C2448 1.490 . S
C2444 H2434 0.930 . S
C2444 C2443 1.400 . S
C2444 C2447 1.372 1_556 S
H2445 C2461 0.930 . S
H2446 C2462 0.931 . S
C2447 H2435 0.936 . S
C2447 C2441 1.397 . S
C2447 C2444 1.372 1_554 S
C2448 C2443 1.490 . S
C2448 C2450 1.395 . S
C2448 C2451 1.403 . S
H2449 C2455 0.930 . S
C2450 H2436 0.930 . S
C2450 C2448 1.395 . S
C2450 C2453 1.403 . S
C2451 C2448 1.403 . S
C2451 C2452 1.524 . S
C2451 C2455 1.400 . S
C2452 H2437 0.960 . S
C2452 H2438 0.960 . S
C2452 H2439 0.960 . S
C2452 C2451 1.524 . S
C2453 C2450 1.403 . S
C2453 C2454 1.392 . S
C2453 C2457 1.495 . S
C2454 C2453 1.392 . S
C2454 C2455 1.385 . S
C2454 C2456 1.478 . S
C2455 H2449 0.930 . S
C2455 C2451 1.400 . S
C2455 C2454 1.385 . S
C2456 C2454 1.478 . S
C2456 C2458 1.381 . S
C2456 C2462 1.383 . S
C2457 C2453 1.495 . S
C2457 H2463 0.959 . S
C2457 H2464 0.961 . S
C2457 H2465 0.960 . S
C2458 C2456 1.381 . S
C2458 C2459 1.394 . S
C2458 H2466 0.930 . S
C2459 C2458 1.394 . S
C2459 C2460 1.383 . S
C2459 H2467 0.929 . S
C2460 C2459 1.383 . S
C2460 C2461 1.377 . S
C2461 H2445 0.930 . S
C2461 C2460 1.377 . S
C2461 C2462 1.379 . S
C2462 H2446 0.931 . S
C2462 C2456 1.383 . S
C2462 C2461 1.379 . S
H2463 C2457 0.959 . S
H2464 C2457 0.961 . S
H2465 C2457 0.960 . S
H2466 C2458 0.930 . S
H2467 C2459 0.929 . S
H2468 C2476 0.929 . S
H2469 C2478 0.930 . S
H2470 C2480 0.930 . S
H2471 C2483 0.929 . S
H2472 C2486 0.930 . S
H2473 C2488 0.960 . S
H2474 C2488 0.960 . S
H2475 C2488 0.960 . S
C2476 H2468 0.929 . S
C2476 C2477 1.377 . S
C2476 C2478 1.384 . S
C2477 C2476 1.377 . S
C2477 C2483 1.390 . S
C2478 H2469 0.930 . S
C2478 C2476 1.384 . S
C2478 C2479 1.372 . S
C2479 C2478 1.372 . S
C2479 C2480 1.400 . S
C2479 C2484 1.490 . S
C2480 H2470 0.930 . S
C2480 C2479 1.400 . S
C2480 C2483 1.386 . S
H2481 C2497 0.930 . S
H2482 C2498 0.931 . S
C2483 H2471 0.929 . S
C2483 C2477 1.390 . S
C2483 C2480 1.386 . S
C2484 C2479 1.490 . S
C2484 C2486 1.395 . S
C2484 C2487 1.403 . S
H2485 C2491 0.930 . S
C2486 H2472 0.930 . S
C2486 C2484 1.395 . S
C2486 C2489 1.403 . S
C2487 C2484 1.403 . S
C2487 C2488 1.524 . S
C2487 C2491 1.400 . S
C2488 H2473 0.960 . S
C2488 H2474 0.960 . S
C2488 H2475 0.960 . S
C2488 C2487 1.524 . S
C2489 C2486 1.403 . S
C2489 C2490 1.392 . S
C2489 C2493 1.495 . S
C2490 C2489 1.392 . S
C2490 C2491 1.385 . S
C2490 C2492 1.478 . S
C2491 H2485 0.930 . S
C2491 C2487 1.400 . S
C2491 C2490 1.385 . S
C2492 C2490 1.478 . S
C2492 C2494 1.381 . S
C2492 C2498 1.383 . S
C2493 C2489 1.495 . S
C2493 H2499 0.959 . S
C2493 H2500 0.961 . S
C2493 H2501 0.960 . S
C2494 C2492 1.381 . S
C2494 C2495 1.394 1_554 S
C2494 H2502 0.934 . S
C2495 C2494 1.394 1_556 S
C2495 C2496 1.383 . S
C2495 H2503 0.929 . S
C2496 C2495 1.383 . S
C2496 C2497 1.377 1_556 S
C2497 H2481 0.930 . S
C2497 C2496 1.377 1_554 S
C2497 C2498 1.379 . S
C2498 H2482 0.931 . S
C2498 C2492 1.383 . S
C2498 C2497 1.379 . S
H2499 C2493 0.959 . S
H2500 C2493 0.961 . S
H2501 C2493 0.960 . S
H2502 C2494 0.934 . S
H2503 C2495 0.929 . S
H2504 C2512 0.929 . S
H2505 C2514 0.930 . S
H2506 C2516 0.930 . S
H2507 C2519 0.929 . S
H2508 C2522 0.930 . S
H2509 C2524 0.960 . S
H2510 C2524 0.960 . S
H2511 C2524 0.960 . S
C2512 H2504 0.929 . S
C2512 C2513 1.377 . S
C2512 C2514 1.384 . S
C2513 C2512 1.377 . S
C2513 C2519 1.390 . S
C2514 H2505 0.930 . S
C2514 C2512 1.384 . S
C2514 C2515 1.372 . S
C2515 C2514 1.372 . S
C2515 C2516 1.400 . S
C2515 C2520 1.490 . S
C2516 H2506 0.930 . S
C2516 C2515 1.400 . S
C2516 C2519 1.386 . S
H2517 C2533 0.930 . S
H2518 C2534 0.931 . S
C2519 H2507 0.929 . S
C2519 C2513 1.390 . S
C2519 C2516 1.386 . S
C2520 C2515 1.490 . S
C2520 C2522 1.395 . S
C2520 C2523 1.403 . S
H2521 C2527 0.930 . S
C2522 H2508 0.930 . S
C2522 C2520 1.395 . S
C2522 C2525 1.403 . S
C2523 C2520 1.403 . S
C2523 C2524 1.524 . S
C2523 C2527 1.400 . S
C2524 H2509 0.960 . S
C2524 H2510 0.960 . S
C2524 H2511 0.960 . S
C2524 C2523 1.524 . S
C2525 C2522 1.403 . S
C2525 C2526 1.392 . S
C2525 C2529 1.495 . S
C2526 C2525 1.392 . S
C2526 C2527 1.385 . S
C2526 C2528 1.478 . S
C2527 H2521 0.930 . S
C2527 C2523 1.400 . S
C2527 C2526 1.385 . S
C2528 C2526 1.478 . S
C2528 C2530 1.381 . S
C2528 C2534 1.383 . S
C2529 C2525 1.495 . S
C2529 H2535 0.959 . S
C2529 H2536 0.961 . S
C2529 H2537 0.960 . S
C2530 C2528 1.381 . S
C2530 C2531 1.394 . S
C2530 H2538 0.930 . S
C2531 C2530 1.394 . S
C2531 C2532 1.383 . S
C2531 H2539 0.929 . S
C2532 C2531 1.383 . S
C2532 C2533 1.377 . S
C2533 H2517 0.930 . S
C2533 C2532 1.377 . S
C2533 C2534 1.379 . S
C2534 H2518 0.931 . S
C2534 C2528 1.383 . S
C2534 C2533 1.379 . S
H2535 C2529 0.959 . S
H2536 C2529 0.961 . S
H2537 C2529 0.960 . S
H2538 C2530 0.930 . S
H2539 C2531 0.929 . S
H2540 C2548 0.929 . S
H2541 C2550 0.930 . S
H2542 C2552 0.930 . S
H2543 C2555 0.929 . S
H2544 C2558 0.930 . S
H2545 C2560 0.960 . S
H2546 C2560 0.960 . S
H2547 C2560 0.960 . S
C2548 H2540 0.929 . S
C2548 C2549 1.377 . S
C2548 C2550 1.384 . S
C2549 C2548 1.377 . S
C2549 C2555 1.390 . S
C2550 H2541 0.930 . S
C2550 C2548 1.384 . S
C2550 C2551 1.372 . S
C2551 C2550 1.372 . S
C2551 C2552 1.400 . S
C2551 C2556 1.490 . S
C2552 H2542 0.930 . S
C2552 C2551 1.400 . S
C2552 C2555 1.386 . S
H2553 C2569 0.930 . S
H2554 C2570 0.931 . S
C2555 H2543 0.929 . S
C2555 C2549 1.390 . S
C2555 C2552 1.386 . S
C2556 C2551 1.490 . S
C2556 C2558 1.395 . S
C2556 C2559 1.403 . S
H2557 C2563 0.930 . S
C2558 H2544 0.930 . S
C2558 C2556 1.395 . S
C2558 C2561 1.403 . S
C2559 C2556 1.403 . S
C2559 C2560 1.524 . S
C2559 C2563 1.400 . S
C2560 H2545 0.960 . S
C2560 H2546 0.960 . S
C2560 H2547 0.960 . S
C2560 C2559 1.524 . S
C2561 C2558 1.403 . S
C2561 C2562 1.392 . S
C2561 C2565 1.495 . S
C2562 C2561 1.392 . S
C2562 C2563 1.385 . S
C2562 C2564 1.478 . S
C2563 H2557 0.930 . S
C2563 C2559 1.400 . S
C2563 C2562 1.385 . S
C2564 C2562 1.478 . S
C2564 C2566 1.381 . S
C2564 C2570 1.383 . S
C2565 C2561 1.495 . S
C2565 H2571 0.959 . S
C2565 H2572 0.961 . S
C2565 H2573 0.960 . S
C2566 C2564 1.381 . S
C2566 C2567 1.394 . S
C2566 H2574 0.930 . S
C2567 C2566 1.394 . S
C2567 C2568 1.383 . S
C2567 H2575 0.929 . S
C2568 C2567 1.383 . S
C2568 C2569 1.377 . S
C2569 H2553 0.930 . S
C2569 C2568 1.377 . S
C2569 C2570 1.379 . S
C2570 H2554 0.931 . S
C2570 C2564 1.383 . S
C2570 C2569 1.379 . S
H2571 C2565 0.959 . S
H2572 C2565 0.961 . S
H2573 C2565 0.960 . S
H2574 C2566 0.930 . S
H2575 C2567 0.929 . S
H2576 C2584 0.929 . S
H2577 C2586 0.930 . S
H2578 C2588 0.930 . S
H2579 C2591 0.929 . S
H2580 C2594 0.930 . S
H2581 C2596 0.960 . S
H2582 C2596 0.960 . S
H2583 C2596 0.960 . S
C2584 H2576 0.929 . S
C2584 C2585 1.377 . S
C2584 C2586 1.384 . S
C2585 C2584 1.377 . S
C2585 C2591 1.390 . S
C2586 H2577 0.930 . S
C2586 C2584 1.384 . S
C2586 C2587 1.372 . S
C2587 C2586 1.372 . S
C2587 C2588 1.400 . S
C2587 C2592 1.490 . S
C2588 H2578 0.930 . S
C2588 C2587 1.400 . S
C2588 C2591 1.386 . S
H2589 C2605 0.930 . S
H2590 C2606 0.931 . S
C2591 H2579 0.929 . S
C2591 C2585 1.390 . S
C2591 C2588 1.386 . S
C2592 C2587 1.490 . S
C2592 C2594 1.395 . S
C2592 C2595 1.403 . S
H2593 C2599 0.930 . S
C2594 H2580 0.930 . S
C2594 C2592 1.395 . S
C2594 C2597 1.403 . S
C2595 C2592 1.403 . S
C2595 C2596 1.524 . S
C2595 C2599 1.400 . S
C2596 H2581 0.960 . S
C2596 H2582 0.960 . S
C2596 H2583 0.960 . S
C2596 C2595 1.524 . S
C2597 C2594 1.403 . S
C2597 C2598 1.392 . S
C2597 C2601 1.495 . S
C2598 C2597 1.392 . S
C2598 C2599 1.385 . S
C2598 C2600 1.478 . S
C2599 H2593 0.930 . S
C2599 C2595 1.400 . S
C2599 C2598 1.385 . S
C2600 C2598 1.478 . S
C2600 C2602 1.381 . S
C2600 C2606 1.383 . S
C2601 C2597 1.495 . S
C2601 H2607 0.959 . S
C2601 H2608 0.961 . S
C2601 H2609 0.960 . S
C2602 C2600 1.381 . S
C2602 C2603 1.394 . S
C2602 H2610 0.930 . S
C2603 C2602 1.394 . S
C2603 C2604 1.383 1_554 S
C2603 H2611 0.929 . S
C2604 C2603 1.383 1_556 S
C2604 C2605 1.377 . S
C2605 H2589 0.930 . S
C2605 C2604 1.377 . S
C2605 C2606 1.379 1_556 S
C2606 H2590 0.931 . S
C2606 C2600 1.383 . S
C2606 C2605 1.379 1_554 S
H2607 C2601 0.959 . S
H2608 C2601 0.961 . S
H2609 C2601 0.960 . S
H2610 C2602 0.930 . S
H2611 C2603 0.929 . S
H2612 C2620 0.929 . S
H2613 C2622 0.930 . S
H2614 C2624 0.930 . S
H2615 C2627 0.929 . S
H2616 C2630 0.930 . S
H2617 C2632 0.960 . S
H2618 C2632 0.960 . S
H2619 C2632 0.960 . S
C2620 H2612 0.929 . S
C2620 C2621 1.377 1_556 S
C2620 C2622 1.384 . S
C2621 C2620 1.377 1_554 S
C2621 C2627 1.390 . S
C2622 H2613 0.930 . S
C2622 C2620 1.384 . S
C2622 C2623 1.372 . S
C2623 C2622 1.372 . S
C2623 C2624 1.400 . S
C2623 C2628 1.490 . S
C2624 H2614 0.930 . S
C2624 C2623 1.400 . S
C2624 C2627 1.386 1_556 S
H2625 C2641 0.930 . S
H2626 C2642 0.931 . S
C2627 H2615 0.929 . S
C2627 C2621 1.390 . S
C2627 C2624 1.386 1_554 S
C2628 C2623 1.490 . S
C2628 C2630 1.395 . S
C2628 C2631 1.403 . S
H2629 C2635 0.930 . S
C2630 H2616 0.930 . S
C2630 C2628 1.395 . S
C2630 C2633 1.403 . S
C2631 C2628 1.403 . S
C2631 C2632 1.524 . S
C2631 C2635 1.400 . S
C2632 H2617 0.960 . S
C2632 H2618 0.960 . S
C2632 H2619 0.960 . S
C2632 C2631 1.524 . S
C2633 C2630 1.403 . S
C2633 C2634 1.392 . S
C2633 C2637 1.495 . S
C2634 C2633 1.392 . S
C2634 C2635 1.385 . S
C2634 C2636 1.478 . S
C2635 H2629 0.930 . S
C2635 C2631 1.400 . S
C2635 C2634 1.385 . S
C2636 C2634 1.478 . S
C2636 C2638 1.381 . S
C2636 C2642 1.383 . S
C2637 C2633 1.495 . S
C2637 H2643 0.959 . S
C2637 H2644 0.961 . S
C2637 H2645 0.960 . S
C2638 C2636 1.381 . S
C2638 C2639 1.394 . S
C2638 H2646 0.930 . S
C2639 C2638 1.394 . S
C2639 C2640 1.383 . S
C2639 H2647 0.929 . S
C2640 C2639 1.383 . S
C2640 C2641 1.377 . S
C2641 H2625 0.930 . S
C2641 C2640 1.377 . S
C2641 C2642 1.379 . S
C2642 H2626 0.931 . S
C2642 C2636 1.383 . S
C2642 C2641 1.379 . S
H2643 C2637 0.959 . S
H2644 C2637 0.961 . S
H2645 C2637 0.960 . S
H2646 C2638 0.930 . S
H2647 C2639 0.929 . S
H2648 C2656 0.929 . S
H2649 C2658 0.930 . S
H2650 C2660 0.930 . S
H2651 C2663 0.929 . S
H2652 C2666 0.930 . S
H2653 C2668 0.960 . S
H2654 C2668 0.960 . S
H2655 C2668 0.960 . S
C2656 H2648 0.929 . S
C2656 C2657 1.377 . S
C2656 C2658 1.384 . S
C2657 C2656 1.377 . S
C2657 C2663 1.390 . S
C2658 H2649 0.930 . S
C2658 C2656 1.384 . S
C2658 C2659 1.372 . S
C2659 C2658 1.372 . S
C2659 C2660 1.400 . S
C2659 C2664 1.490 . S
C2660 H2650 0.930 . S
C2660 C2659 1.400 . S
C2660 C2663 1.386 . S
H2661 C2677 0.930 . S
H2662 C2678 0.931 . S
C2663 H2651 0.929 . S
C2663 C2657 1.390 . S
C2663 C2660 1.386 . S
C2664 C2659 1.490 . S
C2664 C2666 1.395 . S
C2664 C2667 1.403 . S
H2665 C2671 0.930 . S
C2666 H2652 0.930 . S
C2666 C2664 1.395 . S
C2666 C2669 1.403 . S
C2667 C2664 1.403 . S
C2667 C2668 1.524 . S
C2667 C2671 1.400 . S
C2668 H2653 0.960 . S
C2668 H2654 0.960 . S
C2668 H2655 0.960 . S
C2668 C2667 1.524 . S
C2669 C2666 1.403 . S
C2669 C2670 1.392 . S
C2669 C2673 1.495 . S
C2670 C2669 1.392 . S
C2670 C2671 1.385 . S
C2670 C2672 1.478 . S
C2671 H2665 0.930 . S
C2671 C2667 1.400 . S
C2671 C2670 1.385 . S
C2672 C2670 1.478 . S
C2672 C2674 1.381 . S
C2672 C2678 1.383 . S
C2673 C2669 1.495 . S
C2673 H2679 0.959 . S
C2673 H2680 0.961 . S
C2673 H2681 0.960 . S
C2674 C2672 1.381 . S
C2674 C2675 1.394 . S
C2674 H2682 0.930 . S
C2675 C2674 1.394 . S
C2675 C2676 1.383 . S
C2675 H2683 0.929 . S
C2676 C2675 1.383 . S
C2676 C2677 1.377 . S
C2677 H2661 0.930 . S
C2677 C2676 1.377 . S
C2677 C2678 1.379 . S
C2678 H2662 0.931 . S
C2678 C2672 1.383 . S
C2678 C2677 1.379 . S
H2679 C2673 0.959 . S
H2680 C2673 0.961 . S
H2681 C2673 0.960 . S
H2682 C2674 0.930 . S
H2683 C2675 0.929 . S
H2684 C2692 0.929 . S
H2685 C2694 0.930 . S
H2686 C2696 0.930 . S
H2687 C2699 0.929 . S
H2688 C2702 0.930 . S
H2689 C2704 0.960 . S
H2690 C2704 0.960 . S
H2691 C2704 0.960 . S
C2692 H2684 0.929 . S
C2692 C2693 1.377 . S
C2692 C2694 1.384 . S
C2693 C2692 1.377 . S
C2693 C2699 1.390 . S
C2694 H2685 0.930 . S
C2694 C2692 1.384 . S
C2694 C2695 1.372 . S
C2695 C2694 1.372 . S
C2695 C2696 1.400 . S
C2695 C2700 1.490 . S
C2696 H2686 0.930 . S
C2696 C2695 1.400 . S
C2696 C2699 1.386 . S
H2697 C2713 0.930 . S
H2698 C2714 0.931 . S
C2699 H2687 0.929 . S
C2699 C2693 1.390 . S
C2699 C2696 1.386 . S
C2700 C2695 1.490 . S
C2700 C2702 1.395 . S
C2700 C2703 1.403 . S
H2701 C2707 0.930 . S
C2702 H2688 0.930 . S
C2702 C2700 1.395 . S
C2702 C2705 1.403 . S
C2703 C2700 1.403 . S
C2703 C2704 1.524 . S
C2703 C2707 1.400 . S
C2704 H2689 0.960 . S
C2704 H2690 0.960 . S
C2704 H2691 0.960 . S
C2704 C2703 1.524 . S
C2705 C2702 1.403 . S
C2705 C2706 1.392 . S
C2705 C2709 1.495 . S
C2706 C2705 1.392 . S
C2706 C2707 1.385 . S
C2706 C2708 1.478 . S
C2707 H2701 0.930 . S
C2707 C2703 1.400 . S
C2707 C2706 1.385 . S
C2708 C2706 1.478 . S
C2708 C2710 1.381 . S
C2708 C2714 1.383 . S
C2709 C2705 1.495 . S
C2709 H2715 0.959 . S
C2709 H2716 0.961 . S
C2709 H2717 0.960 . S
C2710 C2708 1.381 . S
C2710 C2711 1.394 . S
C2710 H2718 0.930 . S
C2711 C2710 1.394 . S
C2711 C2712 1.383 . S
C2711 H2719 0.929 . S
C2712 C2711 1.383 . S
C2712 C2713 1.377 . S
C2713 H2697 0.930 . S
C2713 C2712 1.377 . S
C2713 C2714 1.379 . S
C2714 H2698 0.931 . S
C2714 C2708 1.383 . S
C2714 C2713 1.379 . S
H2715 C2709 0.959 . S
H2716 C2709 0.961 . S
H2717 C2709 0.960 . S
H2718 C2710 0.930 . S
H2719 C2711 0.929 . S
C425 C83 1.435 . S
C444 C5 1.459 . S
C461 C18 1.434 . S
C480 C96 1.462 . S
C497 C57 1.437 . S
C516 C31 1.449 . S
C533 C44 1.433 . S
C552 C70 1.462 . S
C569 C109 1.443 . S
C588 C187 1.437 . S
C605 C200 1.439 . S
C624 C122 1.418 . S
C641 C135 1.434 . S
C660 C161 1.426 . S
C677 C174 1.445 . S
C696 C148 1.454 . S
C713 C213 1.433 . S
C732 C291 1.462 . S
C749 C226 1.438 . S
C768 C304 1.434 . S
C785 C265 1.442 . S
C804 C239 1.417 . S
C821 C278 1.437 . S
C840 C252 1.437 . S
C857 C317 1.433 . S
C876 C395 1.421 . S
C893 C330 1.442 . S
C912 C408 1.462 . S
C929 C369 1.444 . S
C948 C343 1.451 . S
C965 C356 1.434 . S
C984 C382 1.411 . S
C1001 C0 1.534 . S
C1020 C91 1.525 . S
C1037 C52 1.535 . S
C1056 C13 1.521 . S
C1073 C65 1.531 . S
C1092 C26 1.548 . S
C1109 C39 1.530 . S
C1128 C78 1.547 . S
C1145 C104 1.530 . S
C1164 C195 1.528 . S
C1181 C156 1.538 . S
C1200 C117 1.539 . S
C1217 C169 1.537 . S
C1236 C130 1.530 . S
C1253 C182 1.536 . S
C1272 C143 1.522 . S
C1289 C208 1.537 . S
C1308 C299 1.513 . S
C1325 C221 1.537 . S
C1344 C260 1.515 . S
C1361 C273 1.534 . S
C1380 C234 1.535 . S
C1397 C247 1.537 . S
C1416 C286 1.515 . S
C1433 C312 1.537 . S
C1452 C403 1.546 . S
C1469 C364 1.537 . S
C1488 C325 1.524 . S
C1505 C338 1.533 . S
C1524 C377 1.546 . S
C1541 C351 1.537 . S
C1560 C390 1.546 . S
C1577 C400 1.404 . S
C1596 C10 1.388 . S
C1613 C205 1.403 . S
C1632 C23 1.407 . S
C1649 C36 1.400 . S
C1668 C374 1.400 . S
C1685 C49 1.405 . S
C1704 C179 1.390 . S
C1721 C62 1.404 . S
C1740 C348 1.401 . S
C1757 C75 1.400 . S
C1776 C153 1.406 . S
C1793 C88 1.404 . S
C1812 C322 1.405 . S
C1829 C127 1.400 . S
C1848 C101 1.397 . S
C1865 C296 1.403 . S
C1884 C114 1.387 . S
C1901 C140 1.404 . S
C1920 C270 1.399 . S
C1937 C244 1.403 . S
C1956 C166 1.387 . S
C1973 C218 1.403 . S
C1992 C192 1.388 . S
C2009 C231 1.402 . S
C2028 C413 1.410 . S
C2045 C257 1.400 . S
C2064 C387 1.407 . S
C2081 C283 1.404 . S
C2100 C361 1.401 . S
C2117 C335 1.402 . S
C2136 C309 1.389 . S
C2153 C8 0.853 . S
C2172 C99 0.856 . S
C2189 C21 0.842 . S
C2208 C60 0.880 . S
C2225 C73 0.848 . S
C2244 C34 0.840 . S
C2261 C47 0.857 . S
C2280 C86 0.809 . S
C2297 C203 0.855 . S
C2316 C112 0.859 . S
C2333 C164 0.852 . S
C2352 C125 0.839 . S
C2369 C138 0.842 . S
C2388 C177 0.809 . S
C2405 C190 0.846 . S
C2424 C151 0.817 . S
C2441 C307 0.851 . S
C2460 C216 0.864 . S
C2477 C268 0.841 . S
C2496 C229 0.884 . S
C2513 C281 0.841 . S
C2532 C242 0.884 . S
C2549 C294 0.858 . S
C2568 C255 0.811 . S
C2585 C320 0.845 . S
C2604 C411 0.844 . S
C2621 C333 0.846 . S
C2640 C372 0.817 . S
C2657 C346 0.844 . S
C2676 C385 0.811 . S
C2693 C398 0.842 . S
C2712 C359 0.821 . S
