# Generated by pormake.
# Topology ato, (4)-cn, num edge types: 1
# Building blocks:
#     Node 0, Type 0, BuildingBlock: QUQFOY_clean_sbu_3, # of connection points: 4
#     Node 1, Type 0, BuildingBlock: QUQFOY_clean_sbu_3, # of connection points: 4
#     Node 2, Type 0, BuildingBlock: QUQFOY_clean_sbu_3, # of connection points: 4
#     Node 3, Type 0, BuildingBlock: QUQFOY_clean_sbu_3, # of connection points: 4
#     Node 4, Type 0, BuildingBlock: QUQFOY_clean_sbu_3, # of connection points: 4
#     Node 5, Type 0, BuildingBlock: QUQFOY_clean_sbu_3, # of connection points: 4
#     Node 6, Type 0, BuildingBlock: QUQFOY_clean_sbu_3, # of connection points: 4
#     Node 7, Type 0, BuildingBlock: QUQFOY_clean_sbu_3, # of connection points: 4
#     Node 8, Type 0, BuildingBlock: QUQFOY_clean_sbu_3, # of connection points: 4
#     Node 9, Type 0, BuildingBlock: QUQFOY_clean_sbu_3, # of connection points: 4
#     Node 10, Type 0, BuildingBlock: QUQFOY_clean_sbu_3, # of connection points: 4
#     Node 11, Type 0, BuildingBlock: QUQFOY_clean_sbu_3, # of connection points: 4
#     Node 12, Type 0, BuildingBlock: QUQFOY_clean_sbu_3, # of connection points: 4
#     Node 13, Type 0, BuildingBlock: QUQFOY_clean_sbu_3, # of connection points: 4
#     Node 14, Type 0, BuildingBlock: QUQFOY_clean_sbu_3, # of connection points: 4
#     Node 15, Type 0, BuildingBlock: QUQFOY_clean_sbu_3, # of connection points: 4
#     Node 16, Type 0, BuildingBlock: QUQFOY_clean_sbu_3, # of connection points: 4
#     Node 17, Type 0, BuildingBlock: QUQFOY_clean_sbu_3, # of connection points: 4
#     Node 18, Type 0, BuildingBlock: QUQFOY_clean_sbu_3, # of connection points: 4
#     Node 19, Type 0, BuildingBlock: QUQFOY_clean_sbu_3, # of connection points: 4
#     Node 20, Type 0, BuildingBlock: QUQFOY_clean_sbu_3, # of connection points: 4
#     Node 21, Type 0, BuildingBlock: QUQFOY_clean_sbu_3, # of connection points: 4
#     Node 22, Type 0, BuildingBlock: QUQFOY_clean_sbu_3, # of connection points: 4
#     Node 23, Type 0, BuildingBlock: QUQFOY_clean_sbu_3, # of connection points: 4
#     Node 24, Type 0, BuildingBlock: QUQFOY_clean_sbu_3, # of connection points: 4
#     Node 25, Type 0, BuildingBlock: QUQFOY_clean_sbu_3, # of connection points: 4
#     Node 26, Type 0, BuildingBlock: QUQFOY_clean_sbu_3, # of connection points: 4
#     Node 27, Type 0, BuildingBlock: QUQFOY_clean_sbu_3, # of connection points: 4
#     Node 28, Type 0, BuildingBlock: QUQFOY_clean_sbu_3, # of connection points: 4
#     Node 29, Type 0, BuildingBlock: QUQFOY_clean_sbu_3, # of connection points: 4
#     Node 30, Type 0, BuildingBlock: QUQFOY_clean_sbu_3, # of connection points: 4
#     Node 31, Type 0, BuildingBlock: QUQFOY_clean_sbu_3, # of connection points: 4
#     Node 32, Type 0, BuildingBlock: QUQFOY_clean_sbu_3, # of connection points: 4
#     Node 33, Type 0, BuildingBlock: QUQFOY_clean_sbu_3, # of connection points: 4
#     Node 34, Type 0, BuildingBlock: QUQFOY_clean_sbu_3, # of connection points: 4
#     Node 35, Type 0, BuildingBlock: QUQFOY_clean_sbu_3, # of connection points: 4
#     Edge 36, Type (0, 0), BuildingBlock: AJUNOK_clean_linker_0, # of connection points: 2
#     Edge 37, Type (0, 0), BuildingBlock: AJUNOK_clean_linker_0, # of connection points: 2
#     Edge 38, Type (0, 0), BuildingBlock: AJUNOK_clean_linker_0, # of connection points: 2
#     Edge 39, Type (0, 0), BuildingBlock: AJUNOK_clean_linker_0, # of connection points: 2
#     Edge 40, Type (0, 0), BuildingBlock: AJUNOK_clean_linker_0, # of connection points: 2
#     Edge 41, Type (0, 0), BuildingBlock: AJUNOK_clean_linker_0, # of connection points: 2
#     Edge 42, Type (0, 0), BuildingBlock: AJUNOK_clean_linker_0, # of connection points: 2
#     Edge 43, Type (0, 0), BuildingBlock: AJUNOK_clean_linker_0, # of connection points: 2
#     Edge 44, Type (0, 0), BuildingBlock: AJUNOK_clean_linker_0, # of connection points: 2
#     Edge 45, Type (0, 0), BuildingBlock: AJUNOK_clean_linker_0, # of connection points: 2
#     Edge 46, Type (0, 0), BuildingBlock: AJUNOK_clean_linker_0, # of connection points: 2
#     Edge 47, Type (0, 0), BuildingBlock: AJUNOK_clean_linker_0, # of connection points: 2
#     Edge 48, Type (0, 0), BuildingBlock: AJUNOK_clean_linker_0, # of connection points: 2
#     Edge 49, Type (0, 0), BuildingBlock: AJUNOK_clean_linker_0, # of connection points: 2
#     Edge 50, Type (0, 0), BuildingBlock: AJUNOK_clean_linker_0, # of connection points: 2
#     Edge 51, Type (0, 0), BuildingBlock: AJUNOK_clean_linker_0, # of connection points: 2
#     Edge 52, Type (0, 0), BuildingBlock: AJUNOK_clean_linker_0, # of connection points: 2
#     Edge 53, Type (0, 0), BuildingBlock: AJUNOK_clean_linker_0, # of connection points: 2
#     Edge 54, Type (0, 0), BuildingBlock: AJUNOK_clean_linker_0, # of connection points: 2
#     Edge 55, Type (0, 0), BuildingBlock: AJUNOK_clean_linker_0, # of connection points: 2
#     Edge 56, Type (0, 0), BuildingBlock: AJUNOK_clean_linker_0, # of connection points: 2
#     Edge 57, Type (0, 0), BuildingBlock: AJUNOK_clean_linker_0, # of connection points: 2
#     Edge 58, Type (0, 0), BuildingBlock: AJUNOK_clean_linker_0, # of connection points: 2
#     Edge 59, Type (0, 0), BuildingBlock: AJUNOK_clean_linker_0, # of connection points: 2
#     Edge 60, Type (0, 0), BuildingBlock: AJUNOK_clean_linker_0, # of connection points: 2
#     Edge 61, Type (0, 0), BuildingBlock: AJUNOK_clean_linker_0, # of connection points: 2
#     Edge 62, Type (0, 0), BuildingBlock: AJUNOK_clean_linker_0, # of connection points: 2
#     Edge 63, Type (0, 0), BuildingBlock: AJUNOK_clean_linker_0, # of connection points: 2
#     Edge 64, Type (0, 0), BuildingBlock: AJUNOK_clean_linker_0, # of connection points: 2
#     Edge 65, Type (0, 0), BuildingBlock: AJUNOK_clean_linker_0, # of connection points: 2
#     Edge 66, Type (0, 0), BuildingBlock: AJUNOK_clean_linker_0, # of connection points: 2
#     Edge 67, Type (0, 0), BuildingBlock: AJUNOK_clean_linker_0, # of connection points: 2
#     Edge 68, Type (0, 0), BuildingBlock: AJUNOK_clean_linker_0, # of connection points: 2
#     Edge 69, Type (0, 0), BuildingBlock: AJUNOK_clean_linker_0, # of connection points: 2
#     Edge 70, Type (0, 0), BuildingBlock: AJUNOK_clean_linker_0, # of connection points: 2
#     Edge 71, Type (0, 0), BuildingBlock: AJUNOK_clean_linker_0, # of connection points: 2
#     Edge 72, Type (0, 0), BuildingBlock: AJUNOK_clean_linker_0, # of connection points: 2
#     Edge 73, Type (0, 0), BuildingBlock: AJUNOK_clean_linker_0, # of connection points: 2
#     Edge 74, Type (0, 0), BuildingBlock: AJUNOK_clean_linker_0, # of connection points: 2
#     Edge 75, Type (0, 0), BuildingBlock: AJUNOK_clean_linker_0, # of connection points: 2
#     Edge 76, Type (0, 0), BuildingBlock: AJUNOK_clean_linker_0, # of connection points: 2
#     Edge 77, Type (0, 0), BuildingBlock: AJUNOK_clean_linker_0, # of connection points: 2
#     Edge 78, Type (0, 0), BuildingBlock: AJUNOK_clean_linker_0, # of connection points: 2
#     Edge 79, Type (0, 0), BuildingBlock: AJUNOK_clean_linker_0, # of connection points: 2
#     Edge 80, Type (0, 0), BuildingBlock: AJUNOK_clean_linker_0, # of connection points: 2
#     Edge 81, Type (0, 0), BuildingBlock: AJUNOK_clean_linker_0, # of connection points: 2
#     Edge 82, Type (0, 0), BuildingBlock: AJUNOK_clean_linker_0, # of connection points: 2
#     Edge 83, Type (0, 0), BuildingBlock: AJUNOK_clean_linker_0, # of connection points: 2
#     Edge 84, Type (0, 0), BuildingBlock: AJUNOK_clean_linker_0, # of connection points: 2
#     Edge 85, Type (0, 0), BuildingBlock: AJUNOK_clean_linker_0, # of connection points: 2
#     Edge 86, Type (0, 0), BuildingBlock: AJUNOK_clean_linker_0, # of connection points: 2
#     Edge 87, Type (0, 0), BuildingBlock: AJUNOK_clean_linker_0, # of connection points: 2
#     Edge 88, Type (0, 0), BuildingBlock: AJUNOK_clean_linker_0, # of connection points: 2
#     Edge 89, Type (0, 0), BuildingBlock: AJUNOK_clean_linker_0, # of connection points: 2
#     Edge 90, Type (0, 0), BuildingBlock: AJUNOK_clean_linker_0, # of connection points: 2
#     Edge 91, Type (0, 0), BuildingBlock: AJUNOK_clean_linker_0, # of connection points: 2
#     Edge 92, Type (0, 0), BuildingBlock: AJUNOK_clean_linker_0, # of connection points: 2
#     Edge 93, Type (0, 0), BuildingBlock: AJUNOK_clean_linker_0, # of connection points: 2
#     Edge 94, Type (0, 0), BuildingBlock: AJUNOK_clean_linker_0, # of connection points: 2
#     Edge 95, Type (0, 0), BuildingBlock: AJUNOK_clean_linker_0, # of connection points: 2
#     Edge 96, Type (0, 0), BuildingBlock: AJUNOK_clean_linker_0, # of connection points: 2
#     Edge 97, Type (0, 0), BuildingBlock: AJUNOK_clean_linker_0, # of connection points: 2
#     Edge 98, Type (0, 0), BuildingBlock: AJUNOK_clean_linker_0, # of connection points: 2
#     Edge 99, Type (0, 0), BuildingBlock: AJUNOK_clean_linker_0, # of connection points: 2
#     Edge 100, Type (0, 0), BuildingBlock: AJUNOK_clean_linker_0, # of connection points: 2
#     Edge 101, Type (0, 0), BuildingBlock: AJUNOK_clean_linker_0, # of connection points: 2
#     Edge 102, Type (0, 0), BuildingBlock: AJUNOK_clean_linker_0, # of connection points: 2
#     Edge 103, Type (0, 0), BuildingBlock: AJUNOK_clean_linker_0, # of connection points: 2
#     Edge 104, Type (0, 0), BuildingBlock: AJUNOK_clean_linker_0, # of connection points: 2
#     Edge 105, Type (0, 0), BuildingBlock: AJUNOK_clean_linker_0, # of connection points: 2
#     Edge 106, Type (0, 0), BuildingBlock: AJUNOK_clean_linker_0, # of connection points: 2
#     Edge 107, Type (0, 0), BuildingBlock: AJUNOK_clean_linker_0, # of connection points: 2
# Relax obj value: 0.074
# Max RMSD: 0.090
# Mean RMSD: 0.090
data_MOF--net-ato--node1-QUQFOY_clean_sbu_3--edge1-AJUNOK_clean_linker_0
_symmetry_space_group_name_H-M    P1
_symmetry_Int_Tables_number       1
_symmetry_cell_setting            triclinic
loop_
_symmetry_equiv_pos_as_xyz
'x, y, z'
_cell_length_a     78.252262
_cell_length_b     78.268464
_cell_length_c     18.395481
_cell_angle_alpha  89.876645
_cell_angle_beta   90.11753
_cell_angle_gamma 120.12226
loop_
_atom_site_label
_atom_site_type_symbol
_atom_site_fract_x
_atom_site_fract_y
_atom_site_fract_z
_atom_type_partial_charge
C0 C 0.21425 0.05855 0.1491 0.0
O1 O 0.21523 0.06035 0.08042 0.0
Cd2 Cd 0.23299 0.05056 0.00354 0.0
O3 O 0.22046 0.04831 0.18163 0.0
Cd4 Cd 0.23257 0.02565 0.14347 0.0
C5 C 0.27487 0.06774 0.11035 0.0
O6 O 0.21902 0.01645 0.02323 0.0
O7 O 0.24371 0.01222 0.04468 0.0
O8 O 0.20681 -0.00122 0.21399 0.0
C9 C 0.23043 0.01053 0.00081 0.0
O10 O 0.26673 0.06877 0.05169 0.0
C11 C 0.21846 -0.00494 0.24983 0.0
O12 O 0.26547 0.05381 0.15575 0.0
O13 O 0.2368 0.0058 0.23644 0.0
C14 C 0.9049 0.14046 0.22239 0.0
O15 O 0.91316 0.14773 0.16192 0.0
Cd16 Cd 0.93512 0.18096 0.13224 0.0
O17 O 0.90894 0.15131 0.27881 0.0
Cd18 Cd 0.93353 0.18699 0.30441 0.0
C19 C 0.90819 0.20171 0.19892 0.0
O20 O 0.95915 0.19092 0.22387 0.0
O21 O 0.96029 0.21804 0.25095 0.0
O22 O 0.94613 0.17913 0.41237 0.0
C23 C 0.96818 0.20949 0.21846 0.0
O24 O 0.91616 0.19797 0.14558 0.0
C25 C 0.9463 0.19252 0.45171 0.0
O26 O 0.91078 0.19772 0.26386 0.0
O27 O 0.93901 0.20235 0.42408 0.0
C28 C 0.82461 0.7519 0.24569 0.0
O29 O 0.81999 0.75283 0.18023 0.0
Cd30 Cd 0.78762 0.7402 0.13481 0.0
O31 O 0.81141 0.74402 0.29487 0.0
Cd32 Cd 0.77502 0.73042 0.30418 0.0
C33 C 0.76593 0.69183 0.19734 0.0
O34 O 0.77448 0.75312 0.21947 0.0
O35 O 0.74577 0.72859 0.24292 0.0
O36 O 0.78326 0.75026 0.41268 0.0
C37 C 0.75605 0.74492 0.21048 0.0
O38 O 0.77166 0.7042 0.14506 0.0
C39 C 0.76867 0.73785 0.44999 0.0
O40 O 0.76668 0.69752 0.26276 0.0
O41 O 0.75729 0.72123 0.42056 0.0
C42 C 0.06382 0.22274 0.81894 0.0
O43 O 0.06547 0.22562 0.88708 0.0
Cd44 Cd 0.05188 0.2409 0.9586 0.0
O45 O 0.05305 0.22718 0.78039 0.0
Cd46 Cd 0.02907 0.23854 0.80903 0.0
C47 C 0.0662 0.28338 0.85758 0.0
O48 O 0.0184 0.22309 0.92578 0.0
O49 O 0.01051 0.24517 0.90298 0.0
O50 O 0.0049 0.2117 0.73431 0.0
C51 C 0.00955 0.23202 0.94583 0.0
O52 O 0.06689 0.27499 0.91601 0.0
C53 C 0.0001 0.22222 0.69658 0.0
O54 O 0.05455 0.27337 0.80607 0.0
O55 O 0.00921 0.24064 0.71004 0.0
C56 C 0.75316 0.83581 0.80571 0.0
O57 O 0.75093 0.83579 0.87404 0.0
Cd58 Cd 0.73319 0.80739 0.94777 0.0
O59 O 0.74719 0.81972 0.77106 0.0
Cd60 Cd 0.73296 0.7844 0.80568 0.0
C61 C 0.69047 0.7828 0.84635 0.0
O62 O 0.74777 0.78789 0.92366 0.0
O63 O 0.72258 0.75925 0.90207 0.0
O64 O 0.75773 0.7825 0.73271 0.0
C65 C 0.7367 0.77023 0.94417 0.0
O66 O 0.69894 0.79151 0.90524 0.0
C67 C 0.7456 0.76751 0.69628 0.0
O68 O 0.69985 0.77929 0.7978 0.0
O69 O 0.72737 0.76054 0.7099 0.0
C70 C 0.14511 0.90913 0.73989 0.0
O71 O 0.15315 0.91805 0.79861 0.0
Cd72 Cd 0.18691 0.93885 0.82097 0.0
O73 O 0.15543 0.91158 0.68295 0.0
Cd74 Cd 0.19134 0.93409 0.65177 0.0
C75 C 0.20469 0.90854 0.76209 0.0
O76 O 0.1954 0.96113 0.72314 0.0
O77 O 0.22268 0.96213 0.70213 0.0
O78 O 0.18115 0.9431 0.54037 0.0
C79 C 0.21393 0.97065 0.72832 0.0
O80 O 0.20183 0.91779 0.81326 0.0
C81 C 0.19483 0.94387 0.50117 0.0
O82 O 0.20084 0.91067 0.69644 0.0
O83 O 0.20618 0.93867 0.53094 0.0
C84 C 0.7604 0.90816 0.72521 0.0
O85 O 0.76083 0.91599 0.78605 0.0
Cd86 Cd 0.75046 0.93884 0.81354 0.0
O87 O 0.75472 0.91306 0.66775 0.0
Cd88 Cd 0.74483 0.93825 0.641 0.0
C89 C 0.70351 0.91312 0.74151 0.0
O90 O 0.76641 0.9634 0.72403 0.0
O91 O 0.74139 0.96572 0.69148 0.0
O92 O 0.76537 0.95048 0.53287 0.0
C93 C 0.75748 0.97305 0.72652 0.0
O94 O 0.71439 0.92101 0.79718 0.0
C95 C 0.75194 0.95005 0.4927 0.0
O96 O 0.71104 0.91576 0.67825 0.0
O97 O 0.73484 0.94282 0.52048 0.0
C98 C 0.07279 0.8457 0.83227 0.0
O99 O 0.07681 0.84539 0.89896 0.0
Cd100 Cd 0.06101 0.8179 0.97844 0.0
O101 O 0.05817 0.83093 0.80236 0.0
Cd102 Cd 0.03149 0.79861 0.84844 0.0
C103 C 0.066 0.78549 0.8697 0.0
O104 O 0.02702 0.80815 0.96885 0.0
O105 O 0.01512 0.77696 0.953 0.0
O106 O 0.00699 0.80158 0.77515 0.0
C107 C 0.0166 0.79079 -0.0069 0.0
O108 O 0.07019 0.79427 0.93086 0.0
C109 C -0.00026 0.78447 0.74739 0.0
O110 O 0.05324 0.78582 0.82789 0.0
O111 O 0.00744 0.77424 0.7665 0.0
C112 C 0.1297 0.21538 0.78983 0.0
O113 O 0.13385 0.21698 0.85706 0.0
Cd114 Cd 0.16497 0.22792 0.91127 0.0
O115 O 0.14278 0.21894 0.74173 0.0
Cd116 Cd 0.17783 0.2264 0.75034 0.0
C117 C 0.19266 0.27149 0.81826 0.0
O118 O 0.17554 0.20753 0.85715 0.0
O119 O 0.20497 0.23036 0.83077 0.0
O120 O 0.17253 0.20157 0.65936 0.0
C121 C 0.19381 0.21562 0.87006 0.0
O122 O 0.18596 0.26281 0.87889 0.0
C123 C 0.18755 0.21298 0.62151 0.0
O124 O 0.19032 0.26157 0.76061 0.0
O125 O 0.19744 0.23087 0.64186 0.0
C126 C 0.90348 0.76616 0.27118 0.0
O127 O 0.91132 0.76866 0.20883 0.0
Cd128 Cd 0.93699 0.76263 0.17445 0.0
O129 O 0.90997 0.7609 0.32534 0.0
Cd130 Cd 0.93791 0.75495 0.34675 0.0
C131 C 0.91527 0.71479 0.23792 0.0
O132 O 0.9615 0.77882 0.26452 0.0
O133 O 0.9675 0.75593 0.29553 0.0
O134 O 0.94849 0.7744 0.4577 0.0
C135 C 0.97301 0.77193 0.26129 0.0
O136 O 0.92168 0.72656 0.18382 0.0
C137 C 0.94882 0.76102 0.49588 0.0
O138 O 0.9181 0.72138 0.30275 0.0
O139 O 0.94285 0.74442 0.4654 0.0
C140 C 0.21828 0.12939 0.20259 0.0
O141 O 0.22163 0.13494 0.13675 0.0
Cd142 Cd 0.23271 0.16669 0.0884 0.0
O143 O 0.22076 0.14147 0.25352 0.0
Cd144 Cd 0.22972 0.1771 0.25086 0.0
C145 C 0.27559 0.19465 0.18414 0.0
O146 O 0.21073 0.17492 0.14475 0.0
O147 O 0.23232 0.20452 0.17416 0.0
O148 O 0.20475 0.17092 0.34267 0.0
C149 C 0.21781 0.19316 0.13431 0.0
O150 O 0.26726 0.18861 0.12259 0.0
C151 C 0.21604 0.18569 0.38179 0.0
O152 O 0.2653 0.19078 0.24176 0.0
O153 O 0.23393 0.1958 0.36178 0.0
C154 C 0.83543 0.07142 0.14141 0.0
O155 O 0.83474 0.07458 0.07406 0.0
Cd156 Cd 0.80616 0.05993 -0.00054 0.0
O157 O 0.82028 0.05829 0.17504 0.0
Cd158 Cd 0.78635 0.03257 0.13779 0.0
C159 C 0.77567 0.06858 0.10868 0.0
O160 O 0.79323 0.02568 0.01682 0.0
O161 O 0.76255 0.01521 0.03934 0.0
O162 O 0.79015 0.00835 0.20876 0.0
C163 C 0.77545 0.01591 -0.00403 0.0
O164 O 0.78472 0.07159 0.04833 0.0
C165 C 0.77412 0.00204 0.24372 0.0
O166 O 0.77495 0.05588 0.15371 0.0
O167 O 0.76389 0.01012 0.22953 0.0
C168 C 0.89783 0.41654 0.54925 0.0
O169 O 0.89746 0.41391 0.4811 0.0
Cd170 Cd 0.90776 0.39412 0.4196 0.0
O171 O 0.90264 0.40698 0.5929 0.0
Cd172 Cd 0.91003 0.37961 0.57867 0.0
C173 C 0.95335 0.41118 0.50043 0.0
O174 O 0.88966 0.36277 0.47472 0.0
O175 O 0.91278 0.35628 0.49688 0.0
O176 O 0.88587 0.36076 0.67144 0.0
C177 C 0.8977 0.35269 0.45961 0.0
O178 O 0.94317 0.40915 0.44359 0.0
C179 C 0.89705 0.35664 0.70831 0.0
O180 O 0.94496 0.40294 0.56001 0.0
O181 O 0.91478 0.36403 0.68652 0.0
C182 C 0.57349 0.47832 0.51097 0.0
O183 O 0.57081 0.47798 0.4428 0.0
Cd184 Cd 0.58644 0.50492 0.36086 0.0
O185 O 0.58651 0.49392 0.54281 0.0
Cd186 Cd 0.61261 0.52718 0.4991 0.0
C187 C 0.57795 0.53851 0.4505 0.0
O188 O 0.62044 0.51768 0.38393 0.0
O189 O 0.63077 0.54868 0.39629 0.0
O190 O 0.63692 0.52551 0.57748 0.0
C191 C 0.63051 0.53498 0.35879 0.0
O192 O 0.57528 0.52803 0.39409 0.0
C193 C 0.6429 0.54219 0.60727 0.0
O194 O 0.58988 0.53977 0.50014 0.0
O195 O 0.63442 0.55168 0.58775 0.0
C196 C 0.49656 0.08886 0.55151 0.0
O197 O 0.49288 0.08707 0.48386 0.0
Cd198 Cd 0.46154 0.07436 0.42909 0.0
O199 O 0.48292 0.08425 0.59826 0.0
Cd200 Cd 0.44724 0.07395 0.59 0.0
C201 C 0.43618 0.02998 0.51927 0.0
O202 O 0.45001 0.09367 0.48648 0.0
O203 O 0.42025 0.07113 0.51016 0.0
O204 O 0.45274 0.09765 0.68507 0.0
C205 C 0.43184 0.08622 0.47312 0.0
O206 O 0.4427 0.03908 0.45921 0.0
C207 C 0.43752 0.08606 0.72163 0.0
O208 O 0.43714 0.03936 0.57697 0.0
O209 O 0.42731 0.06847 0.69845 0.0
C210 C 0.74176 0.55719 0.07021 0.0
O211 O 0.73294 0.55293 0.13106 0.0
Cd212 Cd 0.70786 0.55898 0.17181 0.0
O213 O 0.73636 0.56433 0.01849 0.0
Cd214 Cd 0.70834 0.57092 0.00157 0.0
C215 C 0.73013 0.60841 0.12205 0.0
O216 O 0.68403 0.54591 0.07949 0.0
O217 O 0.67914 0.56994 0.05634 0.0
O218 O 0.69719 0.55272 0.88826 0.0
C219 C 0.67316 0.55343 0.08739 0.0
O220 O 0.72352 0.59507 0.17106 0.0
C221 C 0.69626 0.56626 0.85346 0.0
O222 O 0.72778 0.60377 0.05482 0.0
O223 O 0.70258 0.58265 0.88606 0.0
C224 C 0.41896 0.18036 0.12332 0.0
O225 O 0.41554 0.17619 0.19034 0.0
Cd226 Cd 0.40191 0.14519 0.2488 0.0
O227 O 0.41533 0.16705 0.07617 0.0
Cd228 Cd 0.40376 0.13107 0.08963 0.0
C229 C 0.35896 0.11951 0.15196 0.0
O230 O 0.42099 0.13229 0.20008 0.0
O231 O 0.39725 0.10345 0.17157 0.0
O232 O 0.42712 0.13216 -0.00063 0.0
C233 C 0.41182 0.11394 0.21252 0.0
O234 O 0.36703 0.12551 0.21395 0.0
C235 C 0.4142 0.11742 0.96367 0.0
O236 O 0.36936 0.12163 0.09602 0.0
O237 O 0.39643 0.10987 0.98468 0.0
C238 C 0.80688 0.2438 0.11171 0.0
O239 O 0.80967 0.24701 0.17947 0.0
Cd240 Cd 0.84032 0.26531 0.23927 0.0
O241 O 0.82121 0.25201 0.06696 0.0
Cd242 Cd 0.8568 0.27812 0.07956 0.0
C243 C 0.86655 0.24541 0.16014 0.0
O244 O 0.85488 0.29636 0.18173 0.0
O245 O 0.88382 0.30081 0.16065 0.0
O246 O 0.85277 0.29766 0.98615 0.0
C247 C 0.87309 0.30558 0.19681 0.0
O248 O 0.85878 0.24822 0.21636 0.0
C249 C 0.86772 0.3008 0.94905 0.0
O250 O 0.86684 0.25365 0.09996 0.0
O251 O 0.87718 0.29247 0.97086 0.0
C252 C 0.42071 0.24961 0.16437 0.0
O253 O 0.41845 0.24697 0.23256 0.0
Cd254 Cd 0.40335 0.25918 0.31174 0.0
O255 O 0.41599 0.26095 0.13112 0.0
Cd256 Cd 0.40543 0.28483 0.17075 0.0
C257 C 0.36076 0.24586 0.21312 0.0
O258 O 0.42154 0.2932 0.28683 0.0
O259 O 0.3998 0.30201 0.27319 0.0
O260 O 0.43207 0.30981 0.09775 0.0
C261 C 0.41313 0.302 0.31253 0.0
O262 O 0.36906 0.24406 0.27 0.0
C263 C 0.42161 0.31533 0.06334 0.0
O264 O 0.37073 0.25902 0.16564 0.0
O265 O 0.40325 0.30631 0.07803 0.0
C266 C 0.73798 0.17238 0.12915 0.0
O267 O 0.74021 0.17047 0.19644 0.0
Cd268 Cd 0.7239 0.1417 0.26849 0.0
O269 O 0.72536 0.15792 0.09114 0.0
Cd270 Cd 0.69992 0.12327 0.12411 0.0
C271 C 0.73443 0.11138 0.16859 0.0
O272 O 0.69045 0.13039 0.23965 0.0
O273 O 0.68047 0.09972 0.22194 0.0
O274 O 0.67599 0.12486 0.04332 0.0
C275 C 0.68007 0.1128 0.2612 0.0
O276 O 0.73601 0.11984 0.22928 0.0
C277 C 0.67084 0.10852 0.01205 0.0
O278 O 0.7234 0.11179 0.11858 0.0
O279 O 0.67974 0.09946 0.03152 0.0
C280 C 0.81687 0.56926 0.14174 0.0
O281 O 0.81656 0.56993 0.21058 0.0
Cd282 Cd 0.84425 0.58401 0.28921 0.0
O283 O 0.83301 0.57516 0.10743 0.0
Cd284 Cd 0.86773 0.5861 0.14523 0.0
C285 C 0.8742 0.62925 0.2063 0.0
O286 O 0.86205 0.56821 0.25836 0.0
O287 O 0.89157 0.59255 0.24309 0.0
O288 O 0.86742 0.56073 0.0695 0.0
C289 C 0.87961 0.57797 0.28153 0.0
O290 O 0.86384 0.61908 0.26016 0.0
C291 C 0.88286 0.57208 0.03366 0.0
O292 O 0.87711 0.62088 0.1522 0.0
O293 O 0.89115 0.59041 0.04821 0.0
C294 C 0.57127 0.09515 0.5689 0.0
O295 O 0.57822 0.09831 0.50487 0.0
Cd296 Cd 0.59992 0.08867 0.4555 0.0
O297 O 0.57681 0.08707 0.61657 0.0
Cd298 Cd 0.60232 0.07697 0.62278 0.0
C299 C 0.57482 0.03939 0.50868 0.0
O300 O 0.62588 0.10068 0.54032 0.0
O301 O 0.6293 0.07551 0.55921 0.0
O302 O 0.61567 0.09617 0.73225 0.0
C303 C 0.63576 0.09222 0.52914 0.0
O304 O 0.58125 0.05249 0.45881 0.0
C305 C 0.61683 0.08284 0.76753 0.0
O306 O 0.57925 0.04426 0.57514 0.0
O307 O 0.60984 0.06609 0.73696 0.0
C308 C 0.89816 0.48875 0.58194 0.0
O309 O 0.89504 0.49339 0.51915 0.0
Cd310 Cd 0.90397 0.52502 0.474 0.0
O311 O 0.90591 0.50167 0.63218 0.0
Cd312 Cd 0.91576 0.53738 0.64463 0.0
C313 C 0.95334 0.54983 0.52769 0.0
O314 O 0.89196 0.53755 0.56331 0.0
O315 O 0.91653 0.56621 0.58647 0.0
O316 O 0.89673 0.52992 0.75528 0.0
C317 C 0.90022 0.55598 0.55385 0.0
O318 O 0.9401 0.54337 0.47828 0.0
C319 C 0.90967 0.5446 0.791 0.0
O320 O 0.94861 0.54842 0.5947 0.0
O321 O 0.92624 0.55532 0.76015 0.0
C322 C 0.50541 0.4078 0.59236 0.0
O323 O 0.49966 0.39815 0.53337 0.0
Cd324 Cd 0.46721 0.37497 0.49738 0.0
O325 O 0.49333 0.40433 0.64453 0.0
Cd326 Cd 0.45766 0.37891 0.66687 0.0
C327 C 0.4445 0.40199 0.54339 0.0
O328 O 0.45518 0.35247 0.59401 0.0
O329 O 0.42751 0.35086 0.61478 0.0
O330 O 0.46534 0.36861 0.78064 0.0
C331 C 0.43664 0.34304 0.58619 0.0
O332 O 0.44981 0.39369 0.49614 0.0
C333 C 0.45131 0.36824 0.81649 0.0
O334 O 0.44677 0.40019 0.61118 0.0
O335 O 0.44108 0.37443 0.78408 0.0
C336 C 0.54728 0.74771 0.85889 0.0
O337 O 0.54838 0.74502 0.79146 0.0
Cd338 Cd 0.56073 0.72643 0.73414 0.0
O339 O 0.55211 0.73902 0.90641 0.0
Cd340 Cd 0.56173 0.7131 0.89619 0.0
C341 C 0.60533 0.74585 0.82283 0.0
O342 O 0.54316 0.69517 0.79017 0.0
O343 O 0.56804 0.69174 0.81654 0.0
O344 O 0.53926 0.69183 0.99098 0.0
C345 C 0.55284 0.68653 0.77772 0.0
O346 O 0.59617 0.74289 0.76266 0.0
C347 C 0.5525 0.69039 0.02596 0.0
O348 O 0.59598 0.73801 0.8813 0.0
O349 O 0.57008 0.70051 0.00269 0.0
C350 C 0.23343 0.79976 0.89403 0.0
O351 O 0.24135 0.80427 0.83158 0.0
Cd352 Cd 0.26462 0.83571 0.78665 0.0
O353 O 0.23864 0.81272 0.9441 0.0
Cd354 Cd 0.26568 0.84813 0.95568 0.0
C355 C 0.24161 0.862 0.83832 0.0
O356 O 0.28934 0.84716 0.87584 0.0
O357 O 0.29426 0.87621 0.89587 0.0
O358 O 0.27792 0.84181 0.06778 0.0
C359 C 0.30012 0.86551 0.86585 0.0
O360 O 0.24789 0.85515 0.78885 0.0
C361 C 0.27939 0.85659 0.10179 0.0
O362 O 0.24495 0.86045 0.90525 0.0
O363 O 0.27285 0.86653 0.06963 0.0
C364 C 0.17665 0.42356 0.85758 0.0
O365 O 0.17326 0.42035 0.79003 0.0
Cd366 Cd 0.14353 0.41032 0.72613 0.0
O367 O 0.16335 0.42203 0.90136 0.0
Cd368 Cd 0.12894 0.41538 0.88063 0.0
C369 C 0.11333 0.36876 0.82428 0.0
O370 O 0.13507 0.43361 0.76893 0.0
O371 O 0.10443 0.41394 0.79221 0.0
O372 O 0.13381 0.44095 0.96728 0.0
C373 C 0.11728 0.42768 0.75303 0.0
O374 O 0.12079 0.37605 0.76252 0.0
C375 C 0.11798 0.43022 0.00229 0.0
O376 O 0.11531 0.37994 0.87757 0.0
O377 O 0.10771 0.41234 0.98231 0.0
C378 C 0.40168 0.88967 0.45067 0.0
O379 O 0.40254 0.88978 0.51958 0.0
Cd380 Cd 0.38591 0.89974 0.60168 0.0
O381 O 0.38977 0.89364 0.41752 0.0
Cd382 Cd 0.36278 0.89968 0.45808 0.0
C383 C 0.39676 0.94413 0.52213 0.0
O384 O 0.35235 0.88057 0.56954 0.0
O385 O 0.34384 0.90266 0.55784 0.0
O386 O 0.3392 0.87464 0.37577 0.0
C387 C 0.34283 0.88842 0.59423 0.0
O388 O 0.3982 0.93472 0.57619 0.0
C389 C 0.33384 0.88576 0.34534 0.0
O390 O 0.38582 0.93494 0.46801 0.0
O391 O 0.34251 0.90368 0.36581 0.0
C392 C 0.09316 0.51662 0.41787 0.0
O393 O 0.09456 0.51407 0.48531 0.0
Cd394 Cd 0.08607 0.48371 0.54289 0.0
O395 O 0.08802 0.50249 0.37297 0.0
Cd396 Cd 0.08088 0.46781 0.3802 0.0
C397 C 0.0391 0.45489 0.47287 0.0
O398 O 0.10311 0.47105 0.47674 0.0
O399 O 0.07987 0.44137 0.45546 0.0
O400 O 0.10319 0.47381 0.27978 0.0
C401 C 0.09555 0.45282 0.4899 0.0
O402 O 0.05031 0.46287 0.52763 0.0
C403 C 0.09127 0.45866 0.24362 0.0
O404 O 0.0464 0.45568 0.41021 0.0
O405 O 0.07399 0.4482 0.26952 0.0
C406 C 0.47335 0.57354 0.43133 0.0
O407 O 0.47662 0.57574 0.49922 0.0
Cd408 Cd 0.50704 0.59705 0.55658 0.0
O409 O 0.48681 0.58406 0.38562 0.0
Cd410 Cd 0.52124 0.61239 0.39713 0.0
C411 C 0.53635 0.58257 0.46833 0.0
O412 O 0.51649 0.62788 0.50177 0.0
O413 O 0.54679 0.63711 0.47905 0.0
O414 O 0.51486 0.63035 0.30272 0.0
C415 C 0.53448 0.63943 0.5161 0.0
O416 O 0.52889 0.58401 0.52785 0.0
C417 C 0.53052 0.63514 0.26719 0.0
O418 O 0.53453 0.59042 0.41034 0.0
O419 O 0.54131 0.62844 0.29038 0.0
C420 C 0.09077 0.58789 0.37573 0.0
O421 O 0.09491 0.59779 0.43421 0.0
Cd422 Cd 0.08557 0.62115 0.46714 0.0
O423 O 0.08167 0.59091 0.32413 0.0
Cd424 Cd 0.06954 0.61429 0.29805 0.0
C425 C 0.03531 0.59217 0.43011 0.0
O426 O 0.09402 0.64179 0.36473 0.0
O427 O 0.06815 0.64352 0.34088 0.0
O428 O 0.08576 0.62193 0.18123 0.0
C429 C 0.08513 0.65146 0.36986 0.0
O430 O 0.04944 0.60147 0.47504 0.0
C431 C 0.07127 0.62066 0.14552 0.0
O432 O 0.0386 0.59321 0.36183 0.0
O433 O 0.05528 0.61498 0.18036 0.0
C434 C 0.40265 0.49968 0.40383 0.0
O435 O 0.39497 0.49463 0.46654 0.0
Cd436 Cd 0.3733 0.46232 0.50837 0.0
O437 O 0.39795 0.48692 0.35338 0.0
Cd438 Cd 0.37339 0.45093 0.33976 0.0
C439 C 0.40032 0.44034 0.45455 0.0
O440 O 0.34856 0.44957 0.41857 0.0
O441 O 0.34597 0.42141 0.39873 0.0
O442 O 0.36197 0.45857 0.22899 0.0
C443 C 0.33879 0.43111 0.42763 0.0
O444 O 0.39285 0.44579 0.50464 0.0
C445 C 0.36064 0.44421 0.19252 0.0
O446 O 0.3967 0.4417 0.38784 0.0
O447 O 0.36655 0.43354 0.2233 0.0
C448 C 0.47454 0.89644 0.38775 0.0
O449 O 0.48001 0.89483 0.45112 0.0
Cd450 Cd 0.51236 0.90727 0.49552 0.0
O451 O 0.48706 0.90462 0.33647 0.0
Cd452 Cd 0.5236 0.91739 0.32657 0.0
C453 C 0.5335 0.95573 0.43519 0.0
O454 O 0.52621 0.89539 0.41066 0.0
O455 O 0.55353 0.922 0.39026 0.0
O456 O 0.51901 0.89814 0.21791 0.0
C457 C 0.54461 0.90531 0.42135 0.0
O458 O 0.5284 0.94332 0.4872 0.0
C459 C 0.53328 0.91186 0.18289 0.0
O460 O 0.53194 0.9501 0.36931 0.0
O461 O 0.54211 0.92878 0.21259 0.0
C462 C 0.24252 0.41738 0.83611 0.0
O463 O 0.24002 0.41421 0.76824 0.0
Cd464 Cd 0.25306 0.39922 0.69264 0.0
O465 O 0.25396 0.41334 0.87224 0.0
Cd466 Cd 0.27746 0.4019 0.83701 0.0
C467 C 0.23947 0.35702 0.79272 0.0
O468 O 0.28693 0.41775 0.72044 0.0
O469 O 0.29519 0.39573 0.73821 0.0
O470 O 0.30264 0.42796 0.91151 0.0
C471 C 0.29581 0.40912 0.69749 0.0
O472 O 0.23818 0.36502 0.73414 0.0
C473 C 0.30726 0.41689 0.94667 0.0
O474 O 0.25184 0.3673 0.84192 0.0
O475 O 0.29759 0.39857 0.93183 0.0
C476 C 0.55558 0.82082 0.82178 0.0
O477 O 0.55621 0.82095 0.75286 0.0
Cd478 Cd 0.57238 0.84897 0.67686 0.0
O479 O 0.56294 0.83685 0.85795 0.0
Cd480 Cd 0.57637 0.87244 0.8253 0.0
C481 C 0.61802 0.87514 0.76275 0.0
O482 O 0.55851 0.86801 0.71416 0.0
O483 O 0.58314 0.8973 0.72958 0.0
O484 O 0.55175 0.87194 0.90569 0.0
C485 C 0.5684 0.88556 0.6913 0.0
O486 O 0.60744 0.86556 0.70844 0.0
C487 C 0.56342 0.88741 0.94082 0.0
O488 O 0.61036 0.87904 0.81678 0.0
O489 O 0.58161 0.89579 0.92383 0.0
C490 C 0.16032 0.7379 0.8185 0.0
O491 O 0.16127 0.74393 0.75377 0.0
Cd492 Cd 0.13469 0.7336 0.6709 0.0
O493 O 0.1442 0.72426 0.84518 0.0
Cd494 Cd 0.11047 0.7025 0.79471 0.0
C495 C 0.10373 0.74153 0.77892 0.0
O496 O 0.11965 0.69873 0.67299 0.0
O497 O 0.08887 0.68914 0.68695 0.0
O498 O 0.10975 0.67489 0.85902 0.0
C499 C 0.10251 0.69054 0.64591 0.0
O500 O 0.11397 0.74587 0.721 0.0
C501 C 0.0932 0.6692 0.88959 0.0
O502 O 0.10124 0.72715 0.81866 0.0
O503 O 0.0847 0.67901 0.87549 0.0
C504 C 0.21861 0.9622 0.40136 0.0
C505 C 0.19927 0.9535 0.42895 0.0
C506 C 0.22448 0.97507 0.34172 0.0
C507 C 0.21119 0.97959 0.30692 0.0
H508 H 0.22965 0.95999 0.42848 0.0
H509 H 0.23976 0.98205 0.32445 0.0
S510 S 0.15801 0.95819 0.35128 0.0
N511 N 0.16626 0.94854 0.41221 0.0
N512 N 0.17717 0.97253 0.29956 0.0
C513 C 0.19142 0.96984 0.33067 0.0
C514 C 0.18549 0.95684 0.39182 0.0
C515 C 0.97789 0.22509 0.60555 0.0
C516 C 0.98477 0.2135 0.63915 0.0
C517 C 0.96434 0.21767 0.548 0.0
C518 C 0.95731 0.19844 0.52125 0.0
H519 H 0.98332 0.24018 0.62273 0.0
H520 H 0.96011 0.22744 0.52212 0.0
S521 S 0.96908 0.16136 0.59494 0.0
N522 N 0.98221 0.18121 0.64522 0.0
N523 N 0.95695 0.1674 0.53647 0.0
C524 C 0.96331 0.18636 0.55654 0.0
C525 C 0.97699 0.19386 0.61559 0.0
C526 C 0.74409 0.73419 0.54381 0.0
C527 C 0.7638 0.74362 0.51994 0.0
C528 C 0.73843 0.74174 0.60214 0.0
C529 C 0.75231 0.75888 0.63918 0.0
H530 H 0.73273 0.72147 0.515 0.0
H531 H 0.72295 0.73435 0.61691 0.0
S532 S 0.80633 0.78744 0.60393 0.0
N533 N 0.79757 0.76983 0.54198 0.0
N534 N 0.78704 0.78392 0.65204 0.0
C535 C 0.7723 0.76772 0.61863 0.0
C536 C 0.77802 0.76011 0.55892 0.0
C537 C 0.74354 0.96573 0.39138 0.0
C538 C 0.75664 0.96026 0.42154 0.0
C539 C 0.74911 0.97873 0.3323 0.0
C540 C 0.76792 0.98661 0.30053 0.0
H541 H 0.72923 0.96079 0.41583 0.0
H542 H 0.73877 0.98308 0.3129 0.0
S543 S 0.80664 0.97468 0.35258 0.0
N544 N 0.7885 0.9621 0.41065 0.0
N545 N 0.79892 0.98638 0.29896 0.0
C546 C 0.78067 0.98019 0.32694 0.0
C547 C 0.77503 0.96705 0.38758 0.0
C548 C 0.98001 0.79077 0.65551 0.0
C549 C 0.98405 0.77731 0.69139 0.0
C550 C 0.96745 0.78501 0.59502 0.0
C551 C 0.95839 0.76554 0.56833 0.0
H552 H 0.98736 0.80614 0.67186 0.0
H553 H 0.96565 0.79618 0.56692 0.0
S554 S 0.96135 0.7238 0.65125 0.0
N555 N 0.97598 0.74306 0.70198 0.0
N556 N 0.9523 0.73219 0.58851 0.0
C557 C 0.96105 0.75156 0.60739 0.0
C558 C 0.97392 0.75746 0.6688 0.0
C559 C 0.22022 0.21071 0.47455 0.0
C560 C 0.20849 0.19179 0.44443 0.0
C561 C 0.21314 0.21751 0.53068 0.0
C562 C 0.19409 0.20561 0.55957 0.0
H563 H 0.23495 0.22052 0.454 0.0
H564 H 0.2228 0.23218 0.552 0.0
S565 S 0.1575 0.15475 0.50059 0.0
N566 N 0.17685 0.16116 0.44793 0.0
N567 N 0.1636 0.17388 0.5541 0.0
C568 C 0.18221 0.18659 0.53038 0.0
C569 C 0.18939 0.1797 0.47271 0.0
C570 C 0.90063 0.33493 0.79969 0.0
C571 C 0.88941 0.34285 0.77085 0.0
C572 C 0.89331 0.32101 0.85613 0.0
C573 C 0.87454 0.31457 0.88636 0.0
H574 H 0.91513 0.33933 0.77803 0.0
H575 H 0.90257 0.31544 0.87669 0.0
S576 S 0.8393 0.33089 0.83072 0.0
N577 N 0.85856 0.34327 0.77702 0.0
N578 N 0.84485 0.31723 0.88316 0.0
C579 C 0.86317 0.32241 0.85816 0.0
C580 C 0.87059 0.33652 0.80046 0.0
C581 C 0.66488 0.53725 0.69289 0.0
C582 C 0.65849 0.54976 0.66397 0.0
C583 C 0.67812 0.54323 0.75133 0.0
C584 C 0.68561 0.562 0.78308 0.0
H585 H 0.65906 0.52241 0.6721 0.0
H586 H 0.68187 0.53269 0.77359 0.0
S587 S 0.67565 0.60137 0.72101 0.0
N588 N 0.6622 0.58254 0.66666 0.0
N589 N 0.68716 0.59382 0.77638 0.0
C590 C 0.68036 0.57514 0.75164 0.0
C591 C 0.66675 0.569 0.69224 0.0
C592 C 0.44434 0.11212 0.81368 0.0
C593 C 0.43146 0.0932 0.78553 0.0
C594 C 0.43863 0.11983 0.8712 0.0
C595 C 0.41973 0.10901 0.90229 0.0
H596 H 0.45897 0.12116 0.79091 0.0
H597 H 0.44907 0.13448 0.89093 0.0
S598 S 0.38058 0.05848 0.84995 0.0
N599 N 0.39907 0.06359 0.79434 0.0
N600 N 0.38826 0.07814 0.90205 0.0
C601 C 0.40673 0.08998 0.87516 0.0
C602 C 0.41263 0.08205 0.81699 0.0
C603 C 0.42553 0.34989 0.91073 0.0
C604 C 0.44523 0.35801 0.88754 0.0
C605 C 0.41818 0.33658 0.96914 0.0
C606 C 0.43027 0.331 0.00693 0.0
H607 H 0.41538 0.35294 0.88113 0.0
H608 H 0.4027 0.33013 0.98306 0.0
S609 S 0.48379 0.35048 0.97447 0.0
N610 N 0.47726 0.36121 0.91169 0.0
N611 N 0.46358 0.33641 0.0218 0.0
C612 C 0.45037 0.34009 0.98741 0.0
C613 C 0.45781 0.35355 0.92768 0.0
C614 C 0.64851 0.11273 0.92606 0.0
C615 C 0.65549 0.10069 0.95463 0.0
C616 C 0.63513 0.10635 0.86806 0.0
C617 C 0.62808 0.08761 0.83652 0.0
H618 H 0.65387 0.12748 0.94705 0.0
H619 H 0.6308 0.11649 0.8463 0.0
S620 S 0.64002 0.04949 0.89684 0.0
N621 N 0.65308 0.06845 0.95115 0.0
N622 N 0.62785 0.05643 0.84218 0.0
C623 C 0.63408 0.07497 0.86718 0.0
C624 C 0.64783 0.08153 0.9261 0.0
C625 C 0.91486 0.57044 0.88186 0.0
C626 C 0.90451 0.55052 0.86016 0.0
C627 C 0.90799 0.57721 0.93903 0.0
C628 C 0.89061 0.5643 0.977 0.0
H629 H 0.92783 0.58111 0.85223 0.0
H630 H 0.91612 0.5928 0.95218 0.0
S631 S 0.85959 0.51017 0.94739 0.0
N632 N 0.87709 0.5176 0.88529 0.0
N633 N 0.86425 0.53019 -0.00697 0.0
C634 C 0.88078 0.5441 0.95853 0.0
C635 C 0.88772 0.53725 0.90008 0.0
C636 C 0.52314 0.65443 0.17665 0.0
C637 C 0.53637 0.64879 0.20432 0.0
C638 C 0.52855 0.66803 0.11952 0.0
C639 C 0.54748 0.67669 0.08827 0.0
H640 H 0.50844 0.64832 0.1993 0.0
H641 H 0.5178 0.67181 0.0999 0.0
S642 S 0.58761 0.6668 0.14025 0.0
N643 N 0.56922 0.65281 0.19551 0.0
N644 N 0.57944 0.67845 0.08859 0.0
C645 C 0.56088 0.67119 0.11535 0.0
C646 C 0.5553 0.6572 0.17313 0.0
C647 C 0.3113 0.85895 0.26058 0.0
C648 C 0.31842 0.87812 0.288 0.0
C649 C 0.29776 0.85171 0.20306 0.0
C650 C 0.2907 0.86328 0.17072 0.0
H651 H 0.31664 0.8496 0.28217 0.0
H652 H 0.29335 0.83713 0.18223 0.0
S653 S 0.30296 0.91367 0.22788 0.0
N654 N 0.31612 0.90797 0.28255 0.0
N655 N 0.29061 0.89433 0.17447 0.0
C656 C 0.29684 0.88208 0.20022 0.0
C657 C 0.31075 0.88952 0.25871 0.0
C658 C 0.08619 0.43312 0.15167 0.0
C659 C 0.09778 0.45246 0.1783 0.0
C660 C 0.09289 0.42611 0.09493 0.0
C661 C 0.11139 0.43819 0.06217 0.0
H662 H 0.07202 0.42309 0.17602 0.0
H663 H 0.08348 0.41102 0.07703 0.0
S664 S 0.14687 0.4905 0.10855 0.0
N665 N 0.12829 0.48394 0.16537 0.0
N666 N 0.14085 0.4708 0.05843 0.0
C667 C 0.12292 0.45776 0.08689 0.0
C668 C 0.11612 0.46488 0.14496 0.0
C669 C 0.09228 0.6347 0.03545 0.0
C670 C 0.07417 0.62864 0.07067 0.0
C671 C 0.09774 0.64675 0.97364 0.0
C672 C 0.08535 0.65329 0.94491 0.0
H673 H 0.10288 0.6311 0.05814 0.0
H674 H 0.1123 0.65191 0.95106 0.0
S675 S 0.03471 0.63837 0.008 0.0
N676 N 0.04258 0.62762 0.06569 0.0
N677 N 0.05291 0.65037 0.94955 0.0
C678 C 0.06644 0.64584 0.97543 0.0
C679 C 0.06081 0.63344 0.03824 0.0
C680 C 0.34113 0.41887 0.09845 0.0
C681 C 0.34997 0.43856 0.12234 0.0
C682 C 0.32773 0.41213 0.04033 0.0
C683 C 0.32279 0.42485 0.00354 0.0
H684 H 0.34376 0.4083 0.12713 0.0
H685 H 0.32077 0.39667 0.02562 0.0
S686 S 0.3441 0.4785 0.03861 0.0
N687 N 0.35443 0.4712 0.1003 0.0
N688 N 0.32941 0.45863 0.99071 0.0
C689 C 0.33251 0.44489 0.024 0.0
C690 C 0.34607 0.45172 0.08344 0.0
C691 C 0.52886 0.8892 0.08057 0.0
C692 C 0.54058 0.90745 0.1153 0.0
C693 C 0.53632 0.88312 0.02343 0.0
C694 C 0.55588 0.89494 -0.00099 0.0
H695 H 0.51392 0.87924 0.09885 0.0
H696 H 0.52675 0.86875 -0.00044 0.0
S697 S 0.59228 0.94473 0.06801 0.0
N698 N 0.57242 0.93788 0.11832 0.0
N699 N 0.58649 0.92635 0.01099 0.0
C700 C 0.56758 0.91356 0.0314 0.0
C701 C 0.5599 0.91986 0.08937 0.0
C702 C 0.23532 0.98376 0.83798 0.0
C703 C 0.22267 0.9852 0.78713 0.0
C704 C 0.2386 -0.00714 0.90619 0.0
C705 C 0.22928 0.0036 0.9254 0.0
H706 H 0.24145 0.97429 0.82747 0.0
H707 H 0.24753 0.99048 0.94548 0.0
S708 S 0.19804 0.01488 0.80501 0.0
N709 N 0.20318 0.0004 0.75591 0.0
N710 N 0.20937 0.01765 0.88358 0.0
C711 C 0.21809 0.00661 0.87226 0.0
C712 C 0.21481 -0.00261 0.80311 0.0
C713 C -0.007 0.2105 0.13351 0.0
C714 C 0.98161 0.21872 0.15664 0.0
C715 C 0.00246 0.21544 0.06622 0.0
C716 C 0.00078 0.22872 0.01912 0.0
H717 H -0.00609 0.19947 0.16641 0.0
H718 H 0.01062 0.20825 0.05019 0.0
S719 S 0.97377 0.25545 0.05669 0.0
N720 N 0.97007 0.2417 0.12966 0.0
N721 N -0.01209 0.25105 0.00243 0.0
C722 C -0.00972 0.23788 0.04317 0.0
C723 C 0.9807 0.23289 0.11225 0.0
C724 C 0.75515 0.77698 0.06035 0.0
C725 C 0.7395 0.76357 0.01602 0.0
C726 C 0.75951 0.77095 0.12572 0.0
C727 C 0.74835 0.75131 0.14962 0.0
H728 H 0.76457 0.79216 0.04358 0.0
H729 H 0.77222 0.78165 0.15655 0.0
S730 S 0.70459 0.71078 0.05748 0.0
N731 N 0.71181 0.73004 0.00327 0.0
N732 N 0.72006 0.71869 0.12697 0.0
C733 C 0.73192 0.73794 0.10824 0.0
C734 C 0.72751 0.74408 0.04108 0.0
C735 C 0.78125 -0.00242 0.81312 0.0
C736 C 0.76179 0.98688 0.78708 0.0
C737 C 0.78553 0.00751 0.87948 0.0
C738 C 0.77046 0.00694 0.92282 0.0
H739 H 0.7932 -0.00239 0.78333 0.0
H740 H 0.80073 0.01506 0.89807 0.0
S741 S 0.71714 0.98228 0.87594 0.0
N742 N 0.72739 0.97735 0.8068 0.0
N743 N 0.7354 -0.00401 0.9323 0.0
C744 C 0.75101 -0.00285 0.89562 0.0
C745 C 0.74668 0.98715 0.82742 0.0
C746 C -0.00048 0.768 0.09706 0.0
C747 C 0.00773 0.78698 0.06633 0.0
C748 C -0.01048 0.76355 0.16355 0.0
C749 C 0.98718 0.77788 0.20099 0.0
H750 H 0.00033 0.75631 0.06869 0.0
H751 H 0.98263 0.7485 0.1835 0.0
S752 S 0.0077 0.8303 0.14822 0.0
N753 N 0.01437 0.82068 0.08197 0.0
N754 N -0.00476 0.81212 0.20639 0.0
C755 C -0.0038 0.79715 0.17296 0.0
C756 C 0.00656 0.80176 0.10571 0.0
C757 C 0.19388 0.18731 0.03593 0.0
C758 C 0.21212 0.20006 0.06903 0.0
C759 C 0.18831 0.19249 0.97125 0.0
C760 C 0.20083 0.21056 0.93665 0.0
H761 H 0.18378 0.17312 0.0601 0.0
H762 H 0.17406 0.18215 0.94803 0.0
S763 S 0.25025 0.24929 0.00111 0.0
N764 N 0.24276 0.23164 0.06292 0.0
N765 N 0.2323 0.2414 0.94038 0.0
C766 C 0.21916 0.22353 0.96902 0.0
C767 C 0.22478 0.21831 0.03564 0.0
C768 C 0.87405 0.33551 0.35895 0.0
C769 C 0.89195 0.34037 0.39354 0.0
C770 C 0.86831 0.32451 0.29486 0.0
C771 C 0.88031 0.31804 0.26242 0.0
H772 H 0.86429 0.3402 0.3816 0.0
H773 H 0.85431 0.32105 0.27058 0.0
S774 S 0.92874 0.32692 0.33098 0.0
N775 N 0.92175 0.33791 0.3907 0.0
N776 N 0.91098 0.31726 0.26948 0.0
C777 C 0.89834 0.32286 0.29605 0.0
C778 C 0.90413 0.33397 0.36193 0.0
C779 C 0.65692 0.56175 0.1866 0.0
C780 C 0.65958 0.54751 0.14983 0.0
C781 C 0.64722 0.55746 0.25369 0.0
C782 C 0.63963 0.53873 0.28597 0.0
H783 H 0.6632 0.57661 0.16531 0.0
H784 H 0.64604 0.56907 0.28103 0.0
S785 S 0.64089 0.49569 0.2074 0.0
N786 N 0.65259 0.51357 0.14742 0.0
N787 N 0.63412 0.50535 0.27318 0.0
C788 C 0.64127 0.52404 0.24779 0.0
C789 C 0.65129 0.52848 0.17976 0.0
C790 C 0.4339 0.118 0.31573 0.0
C791 C 0.41605 0.10611 0.27884 0.0
C792 C 0.43853 0.11148 0.3793 0.0
C793 C 0.42544 0.09284 0.40898 0.0
H794 H 0.44456 0.13248 0.29506 0.0
H795 H 0.4526 0.12115 0.40519 0.0
S796 S 0.37642 0.05617 0.33474 0.0
N797 N 0.38492 0.07489 0.27719 0.0
N798 N 0.39365 0.06262 0.39772 0.0
C799 C 0.40734 0.08085 0.37356 0.0
C800 C 0.40266 0.08746 0.30807 0.0
C801 C 0.40792 0.32 0.41436 0.0
C802 C 0.41745 0.31018 0.38698 0.0
C803 C 0.41309 0.32938 0.48218 0.0
C804 C 0.42804 0.32933 0.52458 0.0
H805 H 0.39688 0.32108 0.3822 0.0
H806 H 0.40613 0.33767 0.49935 0.0
S807 S 0.45555 0.30344 0.48264 0.0
N808 N 0.44106 0.2992 0.41155 0.0
N809 N 0.45083 0.31703 0.53846 0.0
C810 C 0.43678 0.31855 0.50003 0.0
C811 C 0.43149 0.30893 0.43131 0.0
C812 C 0.66149 0.08889 0.36083 0.0
C813 C 0.67018 0.10818 0.33263 0.0
C814 C 0.65133 0.08402 0.42706 0.0
C815 C 0.64935 0.09825 0.46688 0.0
H816 H 0.66222 0.07736 0.33101 0.0
H817 H 0.64426 0.06883 0.44545 0.0
S818 S 0.67077 0.15121 0.42024 0.0
N819 N 0.67724 0.1419 0.35236 0.0
N820 N 0.65801 0.13263 0.47648 0.0
C821 C 0.65863 0.11774 0.44087 0.0
C822 C 0.66906 0.12274 0.37377 0.0
C823 C 0.87599 0.55195 0.45884 0.0
C824 C 0.89469 0.56372 0.49037 0.0
C825 C 0.8712 0.55694 0.392 0.0
C826 C 0.88498 0.57386 0.3538 0.0
H827 H 0.86509 0.53839 0.48496 0.0
H828 H 0.85673 0.54713 0.36939 0.0
S829 S 0.93554 0.61056 0.41561 0.0
N830 N 0.92672 0.59378 0.48078 0.0
N831 N 0.91772 0.60317 0.35457 0.0
C832 C 0.90349 0.58626 0.38605 0.0
C833 C 0.90833 0.58122 0.45463 0.0
C834 C 0.52612 0.65581 0.61362 0.0
C835 C 0.54015 0.65203 0.58135 0.0
C836 C 0.53039 0.66682 0.67744 0.0
C837 C 0.5488 0.67435 0.71195 0.0
H838 H 0.51164 0.65021 0.58942 0.0
H839 H 0.51908 0.66937 0.70002 0.0
S840 S 0.59082 0.66878 0.64932 0.0
N841 N 0.57334 0.65682 0.58814 0.0
N842 N 0.58137 0.67749 0.70894 0.0
C843 C 0.56305 0.67072 0.68042 0.0
C844 C 0.55874 0.65962 0.61476 0.0
C845 C 0.31653 0.88963 0.76508 0.0
C846 C 0.31358 0.87275 0.80299 0.0
C847 C 0.32621 0.8947 0.69792 0.0
C848 C 0.33345 0.88318 0.66666 0.0
H849 H 0.31055 0.89852 0.78563 0.0
H850 H 0.32768 0.90755 0.66979 0.0
S851 S 0.33128 0.8387 0.74838 0.0
N852 N 0.31991 0.84538 0.80757 0.0
N853 N 0.33826 0.85494 0.68155 0.0
C854 C 0.33145 0.86682 0.70586 0.0
C855 C 0.32149 0.86161 0.77403 0.0
C856 C 0.09322 0.42273 0.65466 0.0
C857 C 0.1121 0.43419 0.68546 0.0
C858 C 0.08818 0.42848 0.58971 0.0
C859 C 0.10175 0.44603 0.55409 0.0
H860 H 0.08227 0.40918 0.68062 0.0
H861 H 0.0734 0.41936 0.56837 0.0
S862 S 0.15318 0.48103 0.61165 0.0
N863 N 0.14453 0.46369 0.6748 0.0
N864 N 0.13494 0.47454 0.55313 0.0
C865 C 0.12071 0.4575 0.58395 0.0
C866 C 0.12591 0.45157 0.64961 0.0
C867 C 0.07939 0.67379 0.54232 0.0
C868 C 0.0988 0.6836 0.56979 0.0
C869 C 0.07517 0.66488 0.4737 0.0
C870 C 0.09024 0.6654 0.43056 0.0
H871 H 0.06717 0.67218 0.57537 0.0
H872 H 0.05987 0.65639 0.45677 0.0
S873 S 0.14383 0.69194 0.47173 0.0
N874 N 0.13354 0.69548 0.54406 0.0
N875 N 0.12546 0.67845 0.41555 0.0
C876 C 0.10984 0.67643 0.45482 0.0
C877 C 0.11417 0.68559 0.5244 0.0
C878 C 0.3144 0.40326 0.59958 0.0
C879 C 0.30466 0.41316 0.62414 0.0
C880 C 0.32427 0.40807 0.53271 0.0
C881 C 0.32482 0.42303 0.48857 0.0
H882 H 0.31497 0.39218 0.63321 0.0
H883 H 0.33244 0.40082 0.51758 0.0
S884 S 0.2995 0.45149 0.5229 0.0
N885 N 0.29449 0.43718 0.59503 0.0
N886 N 0.31324 0.44625 0.46992 0.0
C887 C 0.31418 0.43217 0.51032 0.0
C888 C 0.30406 0.42725 0.57803 0.0
C889 C 0.54849 0.87651 0.57795 0.0
C890 C 0.56415 0.89103 0.61946 0.0
C891 C 0.54311 0.88116 0.51172 0.0
C892 C 0.55317 0.9005 0.48412 0.0
H893 H 0.53994 0.86144 0.59738 0.0
H894 H 0.53052 0.86958 0.483 0.0
S895 S 0.59628 0.94369 0.56862 0.0
N896 N 0.59051 0.92536 0.6261 0.0
N897 N 0.58034 0.93413 0.50093 0.0
C898 C 0.56949 0.91503 0.5231 0.0
C899 C 0.57496 0.91029 0.59106 0.0
C900 C 0.32857 0.10515 0.07533 0.0
C901 C 0.33717 0.10834 0.14488 0.0
C902 C 0.3083 0.09255 0.06517 0.0
C903 C 0.29583 0.08245 0.12403 0.0
H904 H 0.33764 0.11205 0.02784 0.0
H905 H 0.30251 0.09016 0.01027 0.0
S906 S 0.3105 0.08726 0.31823 0.0
N907 N 0.33132 0.10158 0.27453 0.0
N908 N 0.29315 0.07776 0.25518 0.0
C909 C 0.30402 0.08619 0.19434 0.0
C910 C 0.32469 0.0992 0.20485 0.0
C911 C 0.87721 0.22568 0.23506 0.0
C912 C 0.87605 0.23312 0.16656 0.0
C913 C 0.88721 0.2152 0.24447 0.0
C914 C 0.89648 0.21162 0.18578 0.0
H915 H 0.87066 0.22827 0.28255 0.0
H916 H 0.8879 0.21016 0.29869 0.0
S917 S 0.89679 0.22679 -0.00614 0.0
N918 N 0.88428 0.23531 0.03803 0.0
N919 N 0.90308 0.21562 0.05559 0.0
C920 C 0.89495 0.21843 0.11637 0.0
C921 C 0.88475 0.22916 0.10681 0.0
C922 C 0.74644 0.64428 0.08946 0.0
C923 C 0.74015 0.62958 0.14342 0.0
C924 C 0.75502 0.66428 0.10762 0.0
C925 C 0.7577 0.67053 0.18061 0.0
H926 H 0.7445 0.64035 0.0324 0.0
H927 H 0.75931 0.67487 0.06366 0.0
S928 S 0.74482 0.63812 0.34311 0.0
N929 N 0.73798 0.62281 0.2735 0.0
N930 N 0.75409 0.66039 0.30746 0.0
C931 C 0.7519 0.65606 0.23531 0.0
C932 C 0.74315 0.63563 0.2168 0.0
C933 C 0.08203 0.31409 0.78142 0.0
C934 C 0.07879 0.30512 0.8503 0.0
C935 C 0.09351 0.33464 0.77335 0.0
C936 C 0.10196 0.34705 0.83395 0.0
H937 H 0.07567 0.30519 0.73318 0.0
H938 H 0.09545 0.34084 0.71926 0.0
S939 S 0.09841 0.33103 0.02617 0.0
N940 N 0.08538 0.31033 0.98028 0.0
N941 N 0.10679 0.34887 0.96501 0.0
C942 C 0.09901 0.33829 0.90308 0.0
C943 C 0.08749 0.31736 0.91126 0.0
C944 C 0.65737 0.77293 0.89818 0.0
C945 C 0.66911 0.77548 0.83683 0.0
C946 C 0.63683 0.76399 0.89248 0.0
C947 C 0.62719 0.75742 0.82509 0.0
H948 H 0.66396 0.77717 0.95172 0.0
H949 H 0.62843 0.76182 0.9418 0.0
S950 S 0.65141 0.76269 0.64646 0.0
N951 N 0.6698 0.77222 0.70547 0.0
N952 N 0.63114 0.75548 0.69461 0.0
C953 C 0.63884 0.76085 0.76258 0.0
C954 C 0.6598 0.76982 0.7685 0.0
C955 C 0.21825 0.89433 0.85218 0.0
C956 C 0.21306 0.89564 0.77984 0.0
C957 C 0.22703 0.8831 0.87062 0.0
C958 C 0.23106 0.87268 0.81758 0.0
H959 H 0.21581 0.90228 0.89524 0.0
H960 H 0.23102 0.88295 0.92694 0.0
S961 S 0.21916 0.87004 0.62066 0.0
N962 N 0.21175 0.88467 0.65515 0.0
N963 N 0.22822 0.86359 0.68969 0.0
C964 C 0.22547 0.87341 0.74519 0.0
C965 C 0.2165 0.88485 0.72638 0.0
C966 C 0.67271 0.90549 0.80872 0.0
C967 C 0.68176 0.90169 0.74982 0.0
C968 C 0.65209 0.89634 0.81384 0.0
C969 C 0.63969 0.88293 0.76048 0.0
H970 H 0.6816 0.91618 0.84988 0.0
H971 H 0.64588 0.9003 0.85892 0.0
S972 S 0.65616 0.86587 0.60074 0.0
N973 N 0.67684 0.88224 0.64085 0.0
N974 N 0.63816 0.86487 0.65048 0.0
C975 C 0.64861 0.87822 0.70334 0.0
C976 C 0.6696 0.88764 0.69798 0.0
C977 C 0.08134 0.7649 0.89678 0.0
C978 C 0.07619 0.77496 0.84594 0.0
C979 C 0.09021 0.75407 0.8745 0.0
C980 C 0.09464 0.75332 0.80082 0.0
H981 H 0.07808 0.76502 0.95394 0.0
H982 H 0.09371 0.74632 0.91542 0.0
S983 S 0.08515 0.77824 0.64706 0.0
N984 N 0.07672 0.78415 0.71923 0.0
N985 N 0.09374 0.76411 0.6774 0.0
C986 C 0.09002 0.76377 0.74971 0.0
C987 C 0.08068 0.7745 0.77227 0.0
C988 C 0.20698 0.30281 0.74669 0.0
C989 C 0.20379 0.29336 0.81454 0.0
C990 C 0.21818 0.32338 0.74061 0.0
C991 C 0.22687 0.33538 0.80201 0.0
H992 H 0.20086 0.29426 0.69753 0.0
H993 H 0.22036 0.32987 0.68693 0.0
S994 S 0.22242 0.31809 -0.00717 0.0
N995 N 0.20974 0.29766 0.94501 0.0
N996 N 0.23092 0.33636 0.9334 0.0
C997 C 0.22355 0.32618 0.87046 0.0
C998 C 0.21196 0.30519 0.87678 0.0
C999 C 0.89343 0.68054 0.28369 0.0
C1000 C 0.90429 0.69313 0.22605 0.0
C1001 C 0.8834 0.66002 0.27577 0.0
C1002 C 0.88387 0.6511 0.20999 0.0
H1003 H 0.89269 0.68653 0.33586 0.0
H1004 H 0.87551 0.65112 0.32252 0.0
S1005 S 0.90961 0.67743 0.04103 0.0
N1006 N 0.91448 0.69522 0.0998 0.0
N1007 N 0.89564 0.65654 0.085 0.0
C1008 C 0.89437 0.66349 0.15121 0.0
C1009 C 0.90454 0.6845 0.15919 0.0
C1010 C 0.32736 0.22229 0.26337 0.0
C1011 C 0.3392 0.23251 0.20314 0.0
C1012 C 0.30691 0.20993 0.25642 0.0
C1013 C 0.29742 0.20704 0.18878 0.0
H1014 H 0.33388 0.22408 0.31684 0.0
H1015 H 0.29847 0.20262 0.30473 0.0
S1016 S 0.32178 0.22974 0.0133 0.0
N1017 N 0.34 0.2385 0.07301 0.0
N1018 N 0.30157 0.21516 0.05974 0.0
C1019 C 0.30913 0.21686 0.12768 0.0
C1020 C 0.32998 0.22963 0.13492 0.0
C1021 C 0.74926 0.09758 0.08372 0.0
C1022 C 0.74545 0.10089 0.1555 0.0
C1023 C 0.7593 0.08739 0.06925 0.0
C1024 C 0.76565 0.07982 0.12595 0.0
H1025 H 0.74451 0.10297 0.03814 0.0
H1026 H 0.7618 0.08514 0.01305 0.0
S1027 S 0.75971 0.08476 0.32361 0.0
N1028 N 0.74916 0.09609 0.28411 0.0
N1029 N 0.76785 0.0767 0.2568 0.0
C1030 C 0.76206 0.0831 0.19805 0.0
C1031 C 0.75204 0.09372 0.21285 0.0
C1032 C 0.00499 0.43825 0.42054 0.0
C1033 C 0.01732 0.44431 0.48216 0.0
C1034 C 0.98441 0.42782 0.42724 0.0
C1035 C 0.97522 0.42284 0.49585 0.0
H1036 H 0.01125 0.44153 0.36636 0.0
H1037 H 0.97566 0.42339 0.37789 0.0
S1038 S 0.0007 0.43564 0.67473 0.0
N1039 N 0.01876 0.44488 0.61455 0.0
N1040 N 0.98005 0.42522 0.62696 0.0
C1041 C 0.98733 0.42897 0.5581 0.0
C1042 C 0.00835 0.43972 0.55131 0.0
C1043 C 0.5594 0.55353 0.39487 0.0
C1044 C 0.5673 0.54962 0.45729 0.0
C1045 C 0.54957 0.56429 0.39904 0.0
C1046 C 0.54699 0.57137 0.46596 0.0
H1047 H 0.561 0.54843 0.34197 0.0
H1048 H 0.5438 0.56692 0.34932 0.0
S1049 S 0.56461 0.5649 0.64594 0.0
N1050 N 0.57176 0.55357 0.58839 0.0
N1051 N 0.55312 0.57367 0.59635 0.0
C1052 C 0.55467 0.56745 0.52902 0.0
C1053 C 0.56488 0.55664 0.52465 0.0
C1054 C 0.41956 -0.00282 0.45704 0.0
C1055 C 0.42692 0.0082 0.5214 0.0
C1056 C 0.40998 0.97652 0.45779 0.0
C1057 C 0.40758 0.96603 0.52278 0.0
H1058 H 0.42085 0.00454 0.40568 0.0
H1059 H 0.40437 0.96873 0.40688 0.0
S1060 S 0.42507 0.98798 0.70586 0.0
N1061 N 0.43175 0.00713 0.65169 0.0
N1062 N 0.41387 0.96833 0.65316 0.0
C1063 C 0.41527 0.97689 0.58739 0.0
C1064 C 0.42487 -0.00205 0.5867 0.0
C1065 C 0.55778 0.00358 0.54249 0.0
C1066 C 0.56282 0.01817 0.48881 0.0
C1067 C 0.54782 0.98349 0.52477 0.0
C1068 C 0.54246 0.97705 0.45253 0.0
H1069 H 0.56195 0.00766 0.59871 0.0
H1070 H 0.54478 0.97296 0.56815 0.0
S1071 S 0.5504 0.00912 0.29221 0.0
N1072 N 0.56037 0.02466 0.36066 0.0
N1073 N 0.54169 0.98688 0.32752 0.0
C1074 C 0.54671 0.99142 0.39856 0.0
C1075 C 0.55685 0.01194 0.41663 0.0
C1076 C 0.97929 0.56152 0.43115 0.0
C1077 C 0.97445 0.5597 0.50558 0.0
C1078 C -0.00106 0.57167 0.40762 0.0
C1079 C 0.01469 0.58051 0.45739 0.0
H1080 H 0.96781 0.5553 0.39013 0.0
H1081 H 0.00171 0.57284 0.34965 0.0
S1082 S 0.01019 0.57912 0.65884 0.0
N1083 N 0.98717 0.56692 0.62934 0.0
N1084 N 0.02412 0.586 0.58527 0.0
C1085 C 0.01013 0.57839 0.53222 0.0
C1086 C -0.00995 0.56801 0.55623 0.0
C1087 C 0.41479 0.42823 0.54907 0.0
C1088 C 0.41279 0.43172 0.47521 0.0
C1089 C 0.42547 0.41911 0.57056 0.0
C1090 C 0.43463 0.41304 0.51917 0.0
H1091 H 0.40774 0.43221 0.59102 0.0
H1092 H 0.42614 0.41642 0.628 0.0
S1093 S 0.43536 0.42024 0.31907 0.0
N1094 N 0.42194 0.42943 0.35073 0.0
N1095 N 0.44202 0.41232 0.39096 0.0
C1096 C 0.43331 0.41701 0.44517 0.0
C1097 C 0.42241 0.42632 0.42326 0.0
C1098 C 0.19566 0.07617 0.16021 0.0
C1099 C 0.20968 0.07193 0.18979 0.0
C1100 C 0.1968 0.09427 0.17371 0.0
C1101 C 0.21196 0.10862 0.21728 0.0
H1102 H 0.18517 0.06644 0.11997 0.0
H1103 H 0.18714 0.0979 0.14348 0.0
S1104 S 0.24948 0.10292 0.32004 0.0
N1105 N 0.2369 0.08197 0.27485 0.0
N1106 N 0.23904 0.11619 0.29996 0.0
C1107 C 0.22424 0.10346 0.25544 0.0
C1108 C 0.22307 0.08495 0.2418 0.0
C1109 C 0.87181 0.09001 0.14739 0.0
C1110 C 0.85372 0.08474 0.18065 0.0
C1111 C 0.88909 0.10708 0.16819 0.0
C1112 C 0.88879 0.11966 0.2221 0.0
H1113 H 0.87233 0.08174 0.10111 0.0
H1114 H 0.90242 0.11135 0.13728 0.0
S1115 S 0.84567 0.11035 0.33443 0.0
N1116 N 0.83688 0.09155 0.27732 0.0
N1117 N 0.86947 0.12406 0.31591 0.0
C1118 C 0.87125 0.11332 0.26159 0.0
C1119 C 0.85361 0.09572 0.24075 0.0
C1120 C 0.86999 0.75349 0.32485 0.0
C1121 C 0.88489 0.76654 0.27705 0.0
C1122 C 0.85056 0.74977 0.31792 0.0
C1123 C 0.84552 0.75897 0.26296 0.0
H1124 H 0.87297 0.74499 0.36422 0.0
H1125 H 0.83923 0.73863 0.35247 0.0
S1126 S 0.88014 0.79784 0.13598 0.0
N1127 N 0.89404 0.79119 0.18178 0.0
N1128 N 0.8576 0.78422 0.16872 0.0
C1129 C 0.8607 0.77351 0.21991 0.0
C1130 C 0.8804 0.7773 0.22703 0.0
C1131 C 0.09139 0.22807 0.73798 0.0
C1132 C 0.07612 0.21565 0.78562 0.0
C1133 C 0.1082 0.22612 0.7302 0.0
C1134 C 0.10996 0.21173 0.77004 0.0
H1135 H 0.09145 0.24072 0.71357 0.0
H1136 H 0.12073 0.23736 0.70017 0.0
S1137 S 0.07174 0.17266 0.88647 0.0
N1138 N 0.06206 0.18626 0.86124 0.0
N1139 N 0.09355 0.18257 0.84655 0.0
C1140 C 0.09357 0.19759 0.80925 0.0
C1141 C 0.0766 0.19958 0.81717 0.0
C1142 C 0.77366 0.8722 0.80241 0.0
C1143 C 0.76022 0.85465 0.76692 0.0
C1144 C 0.77553 0.89024 0.78196 0.0
C1145 C 0.76389 0.8913 0.72576 0.0
H1146 H 0.78152 0.87176 0.85028 0.0
H1147 H 0.78481 0.90311 0.81479 0.0
S1148 S 0.72973 0.85019 0.60581 0.0
N1149 N 0.7377 0.83984 0.66495 0.0
N1150 N 0.74108 0.8739 0.62672 0.0
C1151 C 0.75237 0.87433 0.68368 0.0
C1152 C 0.75054 0.85588 0.70437 0.0
C1153 C 0.1122 0.89737 0.79422 0.0
C1154 C 0.1238 0.89456 0.74254 0.0
C1155 C 0.09417 0.88164 0.81748 0.0
C1156 C 0.08698 0.86265 0.7889 0.0
H1157 H 0.11788 0.91144 0.82161 0.0
H1158 H 0.08663 0.88398 0.86235 0.0
S1159 S 0.10973 0.84825 0.64271 0.0
N1160 N 0.12545 0.872 0.6559 0.0
N1161 N 0.09117 0.84233 0.69913 0.0
C1162 C 0.09714 0.86011 0.73088 0.0
C1163 C 0.1157 0.87616 0.70756 0.0
C1164 C 0.8809 0.43586 0.53679 0.0
C1165 C 0.89422 0.43221 0.57551 0.0
C1166 C 0.88094 0.45359 0.54513 0.0
C1167 C 0.89445 0.46843 0.59202 0.0
H1168 H 0.87125 0.42548 0.49612 0.0
H1169 H 0.87125 0.45622 0.51064 0.0
S1170 S 0.93005 0.46466 0.71488 0.0
N1171 N 0.91935 0.44355 0.66988 0.0
N1172 N 0.9196 0.4772 0.68525 0.0
C1173 C 0.9064 0.46413 0.63682 0.0
C1174 C 0.90626 0.44591 0.62854 0.0
C1175 C 0.53975 0.42465 0.54631 0.0
C1176 C 0.52577 0.42484 0.59384 0.0
C1177 C 0.55656 0.44217 0.52539 0.0
C1178 C 0.56019 0.46044 0.55232 0.0
H1179 H 0.53683 0.41107 0.52003 0.0
H1180 H 0.56597 0.44155 0.48357 0.0
S1181 S 0.53041 0.46872 0.68883 0.0
N1182 N 0.51822 0.44458 0.6755 0.0
N1183 N 0.55025 0.47763 0.63676 0.0
C1184 C 0.54774 0.46069 0.60658 0.0
C1185 C 0.53039 0.44279 0.62749 0.0
C1186 C 0.53885 0.08483 0.62805 0.0
C1187 C 0.55444 0.09817 0.58315 0.0
C1188 C 0.52019 0.08323 0.6237 0.0
C1189 C 0.51678 0.09491 0.57434 0.0
H1190 H 0.54048 0.07432 0.66147 0.0
H1191 H 0.50802 0.07156 0.65379 0.0
S1192 S 0.55399 0.1355 0.45993 0.0
N1193 N 0.56625 0.12593 0.49948 0.0
N1194 N 0.53113 0.12266 0.49067 0.0
C1195 C 0.53282 0.10987 0.53618 0.0
C1196 C 0.55173 0.11159 0.54086 0.0
C1197 C 0.7623 0.54334 0.11297 0.0
C1198 C 0.76017 0.55633 0.06585 0.0
C1199 C 0.78096 0.5465 0.13162 0.0
C1200 C 0.79812 0.56257 0.10297 0.0
H1201 H 0.74957 0.53167 0.14073 0.0
H1202 H 0.78201 0.5372 0.17306 0.0
S1203 S 0.8005 0.59846 0.96608 0.0
N1204 N 0.77665 0.58406 0.98225 0.0
N1205 N 0.8119 0.58978 0.01683 0.0
C1206 C 0.79618 0.57417 0.04889 0.0
C1207 C 0.77709 0.57106 0.03021 0.0
C1208 C 0.41195 0.2047 0.06557 0.0
C1209 C 0.42538 0.20076 0.10216 0.0
C1210 C 0.41238 0.22267 0.07651 0.0
C1211 C 0.42621 0.23689 0.12438 0.0
H1212 H 0.39954 0.19299 0.03653 0.0
H1213 H 0.4003 0.22425 0.05541 0.0
S1214 S 0.46766 0.23554 0.21589 0.0
N1215 N 0.4553 0.21397 0.1745 0.0
N1216 N 0.45608 0.24767 0.19524 0.0
C1217 C 0.44149 0.23427 0.15152 0.0
C1218 C 0.44108 0.21612 0.14029 0.0
C1219 C 0.75315 0.20844 0.13049 0.0
C1220 C 0.75143 0.19163 0.09641 0.0
C1221 C 0.77071 0.22656 0.12638 0.0
C1222 C 0.78709 0.22834 0.08841 0.0
H1223 H 0.74168 0.20709 0.16701 0.0
H1224 H 0.77217 0.23865 0.15956 0.0
S1225 S 0.78845 0.18959 0.97753 0.0
N1226 N 0.7661 0.17851 0.01362 0.0
N1227 N 0.79935 0.21274 0.00581 0.0
C1228 C 0.78459 0.21236 0.04582 0.0
C1229 C 0.76661 0.19385 0.04997 0.0
C1230 C 0.55843 0.78018 0.91652 0.0
C1231 C 0.54363 0.76375 0.87896 0.0
C1232 C 0.56074 0.79901 0.9062 0.0
C1233 C 0.54826 0.80167 0.85819 0.0
H1234 H 0.56977 0.77897 0.94618 0.0
H1235 H 0.57371 0.81171 0.92855 0.0
S1236 S 0.50398 0.76243 0.76482 0.0
N1237 N 0.51386 0.75063 0.80571 0.0
N1238 N 0.51816 0.78596 0.78636 0.0
C1239 C 0.53168 0.78492 0.82985 0.0
C1240 C 0.52934 0.76588 0.84038 0.0
C1241 C 0.17982 0.76264 0.91248 0.0
C1242 C 0.17816 0.74821 0.86311 0.0
C1243 C 0.19846 0.77841 0.93195 0.0
C1244 C 0.21574 0.78007 0.90188 0.0
H1245 H 0.16674 0.76301 0.92943 0.0
H1246 H 0.19916 0.79046 0.96329 0.0
S1247 S 0.21898 0.74323 0.78532 0.0
N1248 N 0.19504 0.73444 0.79595 0.0
N1249 N 0.23008 0.76385 0.83311 0.0
C1250 C 0.21418 0.76418 0.86105 0.0
C1251 C 0.1953 0.74829 0.84117 0.0
C1252 C 0.21274 0.44183 0.84627 0.0
C1253 C 0.196 0.42744 0.88347 0.0
C1254 C 0.22966 0.44021 0.84055 0.0
C1255 C 0.23029 0.42418 0.87197 0.0
H1256 H 0.21188 0.453 0.81412 0.0
H1257 H 0.24133 0.45019 0.80422 0.0
S1258 S 0.19198 0.38517 0.98818 0.0
N1259 N 0.1823 0.39876 0.96274 0.0
N1260 N 0.21432 0.39572 0.95205 0.0
C1261 C 0.21485 0.41141 0.91814 0.0
C1262 C 0.19754 0.41306 0.92393 0.0
C1263 C 0.42137 0.87322 0.43768 0.0
C1264 C 0.41649 0.88704 0.41087 0.0
C1265 C 0.43956 0.87489 0.42154 0.0
C1266 C 0.45357 0.89054 0.3786 0.0
H1267 H 0.41182 0.86213 0.47666 0.0
H1268 H 0.44343 0.86497 0.44855 0.0
S1269 S 0.44625 0.92821 0.2839 0.0
N1270 N 0.42558 0.91489 0.33001 0.0
N1271 N 0.46009 0.91818 0.30004 0.0
C1272 C 0.44787 0.90293 0.34396 0.0
C1273 C 0.42919 0.90115 0.36017 0.0
C1274 C 0.10677 0.56995 0.42663 0.0
C1275 C 0.09471 0.57128 0.37268 0.0
C1276 C 0.10728 0.55256 0.43718 0.0
C1277 C 0.0959 0.53584 0.39386 0.0
H1278 H 0.11507 0.58205 0.46394 0.0
H1279 H 0.11591 0.55192 0.48214 0.0
S1280 S 0.06463 0.53268 0.23684 0.0
N1281 N 0.07316 0.55522 0.26899 0.0
N1282 N 0.07427 0.52243 0.28874 0.0
C1283 C 0.08532 0.53753 0.33508 0.0
C1284 C 0.0847 0.5553 0.32447 0.0
C1285 C 0.43739 0.55281 0.45004 0.0
C1286 C 0.454 0.55739 0.40738 0.0
C1287 C 0.42002 0.53466 0.44314 0.0
C1288 C 0.41868 0.52033 0.39384 0.0
H1289 H 0.43824 0.5628 0.49244 0.0
H1290 H 0.40803 0.53135 0.48037 0.0
S1291 S 0.457 0.5266 0.26087 0.0
N1292 N 0.46729 0.5475 0.30715 0.0
N1293 N 0.43451 0.51305 0.29437 0.0
C1294 C 0.43446 0.52554 0.34545 0.0
C1295 C 0.45221 0.5442 0.35226 0.0
loop_
_geom_bond_atom_site_label_1
_geom_bond_atom_site_label_2
_geom_bond_distance
_geom_bond_site_symmetry_2
_ccdc_geom_bond_type
C0 O1 1.306 . S
C0 O3 1.160 . S
O1 C0 1.306 . S
O1 Cd2 2.228 . S
Cd2 O1 2.228 . S
Cd2 O6 2.273 . S
Cd2 O10 2.277 . S
O3 C0 1.160 . S
O3 Cd4 2.203 . S
Cd4 O3 2.203 . S
Cd4 O6 2.411 . S
Cd4 O7 2.333 . S
Cd4 O8 2.352 . S
Cd4 O12 2.277 . S
Cd4 O13 2.356 . S
C5 O10 1.209 . S
C5 O12 1.226 . S
O6 Cd2 2.273 . S
O6 Cd4 2.411 . S
O6 C9 1.320 . S
O7 Cd4 2.333 . S
O7 C9 1.214 . S
O8 Cd4 2.352 . S
O8 C11 1.258 . S
C9 O6 1.320 . S
C9 O7 1.214 . S
O10 Cd2 2.277 . S
O10 C5 1.209 . S
C11 O8 1.258 . S
C11 O13 1.282 . S
O12 Cd4 2.277 . S
O12 C5 1.226 . S
O13 Cd4 2.356 . S
O13 C11 1.282 . S
C14 O15 1.306 . S
C14 O17 1.160 . S
O15 C14 1.306 . S
O15 Cd16 2.228 . S
Cd16 O15 2.228 . S
Cd16 O20 2.273 . S
Cd16 O24 2.277 . S
O17 C14 1.160 . S
O17 Cd18 2.203 . S
Cd18 O17 2.203 . S
Cd18 O20 2.411 . S
Cd18 O21 2.333 . S
Cd18 O22 2.352 . S
Cd18 O26 2.277 . S
Cd18 O27 2.356 . S
C19 O24 1.209 . S
C19 O26 1.226 . S
O20 Cd16 2.273 . S
O20 Cd18 2.411 . S
O20 C23 1.320 . S
O21 Cd18 2.333 . S
O21 C23 1.214 . S
O22 Cd18 2.352 . S
O22 C25 1.258 . S
C23 O20 1.320 . S
C23 O21 1.214 . S
O24 Cd16 2.277 . S
O24 C19 1.209 . S
C25 O22 1.258 . S
C25 O27 1.282 . S
O26 Cd18 2.277 . S
O26 C19 1.226 . S
O27 Cd18 2.356 . S
O27 C25 1.282 . S
C28 O29 1.306 . S
C28 O31 1.160 . S
O29 C28 1.306 . S
O29 Cd30 2.228 . S
Cd30 O29 2.228 . S
Cd30 O34 2.273 . S
Cd30 O38 2.277 . S
O31 C28 1.160 . S
O31 Cd32 2.203 . S
Cd32 O31 2.203 . S
Cd32 O34 2.411 . S
Cd32 O35 2.333 . S
Cd32 O36 2.352 . S
Cd32 O40 2.277 . S
Cd32 O41 2.356 . S
C33 O38 1.209 . S
C33 O40 1.226 . S
O34 Cd30 2.273 . S
O34 Cd32 2.411 . S
O34 C37 1.320 . S
O35 Cd32 2.333 . S
O35 C37 1.214 . S
O36 Cd32 2.352 . S
O36 C39 1.258 . S
C37 O34 1.320 . S
C37 O35 1.214 . S
O38 Cd30 2.277 . S
O38 C33 1.209 . S
C39 O36 1.258 . S
C39 O41 1.282 . S
O40 Cd32 2.277 . S
O40 C33 1.226 . S
O41 Cd32 2.356 . S
O41 C39 1.282 . S
C42 O43 1.306 . S
C42 O45 1.160 . S
O43 C42 1.306 . S
O43 Cd44 2.228 . S
Cd44 O43 2.228 . S
Cd44 O48 2.273 . S
Cd44 O52 2.277 . S
O45 C42 1.160 . S
O45 Cd46 2.203 . S
Cd46 O45 2.203 . S
Cd46 O48 2.411 . S
Cd46 O49 2.333 . S
Cd46 O50 2.352 . S
Cd46 O54 2.277 . S
Cd46 O55 2.356 . S
C47 O52 1.209 . S
C47 O54 1.226 . S
O48 Cd44 2.273 . S
O48 Cd46 2.411 . S
O48 C51 1.320 . S
O49 Cd46 2.333 . S
O49 C51 1.214 . S
O50 Cd46 2.352 . S
O50 C53 1.258 . S
C51 O48 1.320 . S
C51 O49 1.214 . S
O52 Cd44 2.277 . S
O52 C47 1.209 . S
C53 O50 1.258 . S
C53 O55 1.282 . S
O54 Cd46 2.277 . S
O54 C47 1.226 . S
O55 Cd46 2.356 . S
O55 C53 1.282 . S
C56 O57 1.306 . S
C56 O59 1.160 . S
O57 C56 1.306 . S
O57 Cd58 2.228 . S
Cd58 O57 2.228 . S
Cd58 O62 2.273 . S
Cd58 O66 2.277 . S
O59 C56 1.160 . S
O59 Cd60 2.203 . S
Cd60 O59 2.203 . S
Cd60 O62 2.411 . S
Cd60 O63 2.333 . S
Cd60 O64 2.352 . S
Cd60 O68 2.277 . S
Cd60 O69 2.356 . S
C61 O66 1.209 . S
C61 O68 1.226 . S
O62 Cd58 2.273 . S
O62 Cd60 2.411 . S
O62 C65 1.320 . S
O63 Cd60 2.333 . S
O63 C65 1.214 . S
O64 Cd60 2.352 . S
O64 C67 1.258 . S
C65 O62 1.320 . S
C65 O63 1.214 . S
O66 Cd58 2.277 . S
O66 C61 1.209 . S
C67 O64 1.258 . S
C67 O69 1.282 . S
O68 Cd60 2.277 . S
O68 C61 1.226 . S
O69 Cd60 2.356 . S
O69 C67 1.282 . S
C70 O71 1.306 . S
C70 O73 1.160 . S
O71 C70 1.306 . S
O71 Cd72 2.228 . S
Cd72 O71 2.228 . S
Cd72 O76 2.273 . S
Cd72 O80 2.277 . S
O73 C70 1.160 . S
O73 Cd74 2.203 . S
Cd74 O73 2.203 . S
Cd74 O76 2.411 . S
Cd74 O77 2.333 . S
Cd74 O78 2.352 . S
Cd74 O82 2.277 . S
Cd74 O83 2.356 . S
C75 O80 1.209 . S
C75 O82 1.226 . S
O76 Cd72 2.273 . S
O76 Cd74 2.411 . S
O76 C79 1.320 . S
O77 Cd74 2.333 . S
O77 C79 1.214 . S
O78 Cd74 2.352 . S
O78 C81 1.258 . S
C79 O76 1.320 . S
C79 O77 1.214 . S
O80 Cd72 2.277 . S
O80 C75 1.209 . S
C81 O78 1.258 . S
C81 O83 1.282 . S
O82 Cd74 2.277 . S
O82 C75 1.226 . S
O83 Cd74 2.356 . S
O83 C81 1.282 . S
C84 O85 1.306 . S
C84 O87 1.160 . S
O85 C84 1.306 . S
O85 Cd86 2.228 . S
Cd86 O85 2.228 . S
Cd86 O90 2.273 . S
Cd86 O94 2.277 . S
O87 C84 1.160 . S
O87 Cd88 2.203 . S
Cd88 O87 2.203 . S
Cd88 O90 2.411 . S
Cd88 O91 2.333 . S
Cd88 O92 2.352 . S
Cd88 O96 2.277 . S
Cd88 O97 2.356 . S
C89 O94 1.209 . S
C89 O96 1.226 . S
O90 Cd86 2.273 . S
O90 Cd88 2.411 . S
O90 C93 1.320 . S
O91 Cd88 2.333 . S
O91 C93 1.214 . S
O92 Cd88 2.352 . S
O92 C95 1.258 . S
C93 O90 1.320 . S
C93 O91 1.214 . S
O94 Cd86 2.277 . S
O94 C89 1.209 . S
C95 O92 1.258 . S
C95 O97 1.282 . S
O96 Cd88 2.277 . S
O96 C89 1.226 . S
O97 Cd88 2.356 . S
O97 C95 1.282 . S
C98 O99 1.306 . S
C98 O101 1.160 . S
O99 C98 1.306 . S
O99 Cd100 2.228 . S
Cd100 O99 2.228 . S
Cd100 O104 2.273 . S
Cd100 O108 2.277 . S
O101 C98 1.160 . S
O101 Cd102 2.203 . S
Cd102 O101 2.203 . S
Cd102 O104 2.411 . S
Cd102 O105 2.333 . S
Cd102 O106 2.352 . S
Cd102 O110 2.277 . S
Cd102 O111 2.356 . S
C103 O108 1.209 . S
C103 O110 1.226 . S
O104 Cd100 2.273 . S
O104 Cd102 2.411 . S
O104 C107 1.320 . S
O105 Cd102 2.333 . S
O105 C107 1.214 . S
O106 Cd102 2.352 . S
O106 C109 1.258 . S
C107 O104 1.320 . S
C107 O105 1.214 . S
O108 Cd100 2.277 . S
O108 C103 1.209 . S
C109 O106 1.258 . S
C109 O111 1.282 . S
O110 Cd102 2.277 . S
O110 C103 1.226 . S
O111 Cd102 2.356 . S
O111 C109 1.282 . S
C112 O113 1.306 . S
C112 O115 1.160 . S
O113 C112 1.306 . S
O113 Cd114 2.228 . S
Cd114 O113 2.228 . S
Cd114 O118 2.273 . S
Cd114 O122 2.277 . S
O115 C112 1.160 . S
O115 Cd116 2.203 . S
Cd116 O115 2.203 . S
Cd116 O118 2.411 . S
Cd116 O119 2.333 . S
Cd116 O120 2.352 . S
Cd116 O124 2.277 . S
Cd116 O125 2.356 . S
C117 O122 1.209 . S
C117 O124 1.226 . S
O118 Cd114 2.273 . S
O118 Cd116 2.411 . S
O118 C121 1.320 . S
O119 Cd116 2.333 . S
O119 C121 1.214 . S
O120 Cd116 2.352 . S
O120 C123 1.258 . S
C121 O118 1.320 . S
C121 O119 1.214 . S
O122 Cd114 2.277 . S
O122 C117 1.209 . S
C123 O120 1.258 . S
C123 O125 1.282 . S
O124 Cd116 2.277 . S
O124 C117 1.226 . S
O125 Cd116 2.356 . S
O125 C123 1.282 . S
C126 O127 1.306 . S
C126 O129 1.160 . S
O127 C126 1.306 . S
O127 Cd128 2.228 . S
Cd128 O127 2.228 . S
Cd128 O132 2.273 . S
Cd128 O136 2.277 . S
O129 C126 1.160 . S
O129 Cd130 2.203 . S
Cd130 O129 2.203 . S
Cd130 O132 2.411 . S
Cd130 O133 2.333 . S
Cd130 O134 2.352 . S
Cd130 O138 2.277 . S
Cd130 O139 2.356 . S
C131 O136 1.209 . S
C131 O138 1.226 . S
O132 Cd128 2.273 . S
O132 Cd130 2.411 . S
O132 C135 1.320 . S
O133 Cd130 2.333 . S
O133 C135 1.214 . S
O134 Cd130 2.352 . S
O134 C137 1.258 . S
C135 O132 1.320 . S
C135 O133 1.214 . S
O136 Cd128 2.277 . S
O136 C131 1.209 . S
C137 O134 1.258 . S
C137 O139 1.282 . S
O138 Cd130 2.277 . S
O138 C131 1.226 . S
O139 Cd130 2.356 . S
O139 C137 1.282 . S
C140 O141 1.306 . S
C140 O143 1.160 . S
O141 C140 1.306 . S
O141 Cd142 2.228 . S
Cd142 O141 2.228 . S
Cd142 O146 2.273 . S
Cd142 O150 2.277 . S
O143 C140 1.160 . S
O143 Cd144 2.203 . S
Cd144 O143 2.203 . S
Cd144 O146 2.411 . S
Cd144 O147 2.333 . S
Cd144 O148 2.352 . S
Cd144 O152 2.277 . S
Cd144 O153 2.356 . S
C145 O150 1.209 . S
C145 O152 1.226 . S
O146 Cd142 2.273 . S
O146 Cd144 2.411 . S
O146 C149 1.320 . S
O147 Cd144 2.333 . S
O147 C149 1.214 . S
O148 Cd144 2.352 . S
O148 C151 1.258 . S
C149 O146 1.320 . S
C149 O147 1.214 . S
O150 Cd142 2.277 . S
O150 C145 1.209 . S
C151 O148 1.258 . S
C151 O153 1.282 . S
O152 Cd144 2.277 . S
O152 C145 1.226 . S
O153 Cd144 2.356 . S
O153 C151 1.282 . S
C154 O155 1.306 . S
C154 O157 1.160 . S
O155 C154 1.306 . S
O155 Cd156 2.228 . S
Cd156 O155 2.228 . S
Cd156 O160 2.273 . S
Cd156 O164 2.277 . S
O157 C154 1.160 . S
O157 Cd158 2.203 . S
Cd158 O157 2.203 . S
Cd158 O160 2.411 . S
Cd158 O161 2.333 . S
Cd158 O162 2.352 . S
Cd158 O166 2.277 . S
Cd158 O167 2.356 . S
C159 O164 1.209 . S
C159 O166 1.226 . S
O160 Cd156 2.273 . S
O160 Cd158 2.411 . S
O160 C163 1.320 . S
O161 Cd158 2.333 . S
O161 C163 1.214 . S
O162 Cd158 2.352 . S
O162 C165 1.258 . S
C163 O160 1.320 . S
C163 O161 1.214 . S
O164 Cd156 2.277 . S
O164 C159 1.209 . S
C165 O162 1.258 . S
C165 O167 1.282 . S
O166 Cd158 2.277 . S
O166 C159 1.226 . S
O167 Cd158 2.356 . S
O167 C165 1.282 . S
C168 O169 1.306 . S
C168 O171 1.160 . S
O169 C168 1.306 . S
O169 Cd170 2.228 . S
Cd170 O169 2.228 . S
Cd170 O174 2.273 . S
Cd170 O178 2.277 . S
O171 C168 1.160 . S
O171 Cd172 2.203 . S
Cd172 O171 2.203 . S
Cd172 O174 2.411 . S
Cd172 O175 2.333 . S
Cd172 O176 2.352 . S
Cd172 O180 2.277 . S
Cd172 O181 2.356 . S
C173 O178 1.209 . S
C173 O180 1.226 . S
O174 Cd170 2.273 . S
O174 Cd172 2.411 . S
O174 C177 1.320 . S
O175 Cd172 2.333 . S
O175 C177 1.214 . S
O176 Cd172 2.352 . S
O176 C179 1.258 . S
C177 O174 1.320 . S
C177 O175 1.214 . S
O178 Cd170 2.277 . S
O178 C173 1.209 . S
C179 O176 1.258 . S
C179 O181 1.282 . S
O180 Cd172 2.277 . S
O180 C173 1.226 . S
O181 Cd172 2.356 . S
O181 C179 1.282 . S
C182 O183 1.306 . S
C182 O185 1.160 . S
O183 C182 1.306 . S
O183 Cd184 2.228 . S
Cd184 O183 2.228 . S
Cd184 O188 2.273 . S
Cd184 O192 2.277 . S
O185 C182 1.160 . S
O185 Cd186 2.203 . S
Cd186 O185 2.203 . S
Cd186 O188 2.411 . S
Cd186 O189 2.333 . S
Cd186 O190 2.352 . S
Cd186 O194 2.277 . S
Cd186 O195 2.356 . S
C187 O192 1.209 . S
C187 O194 1.226 . S
O188 Cd184 2.273 . S
O188 Cd186 2.411 . S
O188 C191 1.320 . S
O189 Cd186 2.333 . S
O189 C191 1.214 . S
O190 Cd186 2.352 . S
O190 C193 1.258 . S
C191 O188 1.320 . S
C191 O189 1.214 . S
O192 Cd184 2.277 . S
O192 C187 1.209 . S
C193 O190 1.258 . S
C193 O195 1.282 . S
O194 Cd186 2.277 . S
O194 C187 1.226 . S
O195 Cd186 2.356 . S
O195 C193 1.282 . S
C196 O197 1.306 . S
C196 O199 1.160 . S
O197 C196 1.306 . S
O197 Cd198 2.228 . S
Cd198 O197 2.228 . S
Cd198 O202 2.273 . S
Cd198 O206 2.277 . S
O199 C196 1.160 . S
O199 Cd200 2.203 . S
Cd200 O199 2.203 . S
Cd200 O202 2.411 . S
Cd200 O203 2.333 . S
Cd200 O204 2.352 . S
Cd200 O208 2.277 . S
Cd200 O209 2.356 . S
C201 O206 1.209 . S
C201 O208 1.226 . S
O202 Cd198 2.273 . S
O202 Cd200 2.411 . S
O202 C205 1.320 . S
O203 Cd200 2.333 . S
O203 C205 1.214 . S
O204 Cd200 2.352 . S
O204 C207 1.258 . S
C205 O202 1.320 . S
C205 O203 1.214 . S
O206 Cd198 2.277 . S
O206 C201 1.209 . S
C207 O204 1.258 . S
C207 O209 1.282 . S
O208 Cd200 2.277 . S
O208 C201 1.226 . S
O209 Cd200 2.356 . S
O209 C207 1.282 . S
C210 O211 1.306 . S
C210 O213 1.160 . S
O211 C210 1.306 . S
O211 Cd212 2.228 . S
Cd212 O211 2.228 . S
Cd212 O216 2.273 . S
Cd212 O220 2.277 . S
O213 C210 1.160 . S
O213 Cd214 2.203 . S
Cd214 O213 2.203 . S
Cd214 O216 2.411 . S
Cd214 O217 2.333 . S
Cd214 O218 2.352 . S
Cd214 O222 2.277 . S
Cd214 O223 2.356 1_554 S
C215 O220 1.209 . S
C215 O222 1.226 . S
O216 Cd212 2.273 . S
O216 Cd214 2.411 . S
O216 C219 1.320 . S
O217 Cd214 2.333 . S
O217 C219 1.214 . S
O218 Cd214 2.352 . S
O218 C221 1.258 1_554 S
C219 O216 1.320 . S
C219 O217 1.214 . S
O220 Cd212 2.277 . S
O220 C215 1.209 . S
C221 O218 1.258 1_556 S
C221 O223 1.282 . S
O222 Cd214 2.277 . S
O222 C215 1.226 . S
O223 Cd214 2.356 1_556 S
O223 C221 1.282 . S
C224 O225 1.306 . S
C224 O227 1.160 . S
O225 C224 1.306 . S
O225 Cd226 2.228 . S
Cd226 O225 2.228 . S
Cd226 O230 2.273 . S
Cd226 O234 2.277 . S
O227 C224 1.160 . S
O227 Cd228 2.203 . S
Cd228 O227 2.203 . S
Cd228 O230 2.411 . S
Cd228 O231 2.333 . S
Cd228 O232 2.352 . S
Cd228 O236 2.277 . S
Cd228 O237 2.356 1_554 S
C229 O234 1.209 . S
C229 O236 1.226 . S
O230 Cd226 2.273 . S
O230 Cd228 2.411 . S
O230 C233 1.320 . S
O231 Cd228 2.333 . S
O231 C233 1.214 . S
O232 Cd228 2.352 . S
O232 C235 1.258 1_554 S
C233 O230 1.320 . S
C233 O231 1.214 . S
O234 Cd226 2.277 . S
O234 C229 1.209 . S
C235 O232 1.258 1_556 S
C235 O237 1.282 . S
O236 Cd228 2.277 . S
O236 C229 1.226 . S
O237 Cd228 2.356 1_556 S
O237 C235 1.282 . S
C238 O239 1.306 . S
C238 O241 1.160 . S
O239 C238 1.306 . S
O239 Cd240 2.228 . S
Cd240 O239 2.228 . S
Cd240 O244 2.273 . S
Cd240 O248 2.277 . S
O241 C238 1.160 . S
O241 Cd242 2.203 . S
Cd242 O241 2.203 . S
Cd242 O244 2.411 . S
Cd242 O245 2.333 . S
Cd242 O246 2.352 . S
Cd242 O250 2.277 . S
Cd242 O251 2.356 1_554 S
C243 O248 1.209 . S
C243 O250 1.226 . S
O244 Cd240 2.273 . S
O244 Cd242 2.411 . S
O244 C247 1.320 . S
O245 Cd242 2.333 . S
O245 C247 1.214 . S
O246 Cd242 2.352 . S
O246 C249 1.258 1_554 S
C247 O244 1.320 . S
C247 O245 1.214 . S
O248 Cd240 2.277 . S
O248 C243 1.209 . S
C249 O246 1.258 1_556 S
C249 O251 1.282 . S
O250 Cd242 2.277 . S
O250 C243 1.226 . S
O251 Cd242 2.356 1_556 S
O251 C249 1.282 . S
C252 O253 1.306 . S
C252 O255 1.160 . S
O253 C252 1.306 . S
O253 Cd254 2.228 . S
Cd254 O253 2.228 . S
Cd254 O258 2.273 . S
Cd254 O262 2.277 . S
O255 C252 1.160 . S
O255 Cd256 2.203 . S
Cd256 O255 2.203 . S
Cd256 O258 2.411 . S
Cd256 O259 2.333 . S
Cd256 O260 2.352 . S
Cd256 O264 2.277 . S
Cd256 O265 2.356 1_554 S
C257 O262 1.209 . S
C257 O264 1.226 . S
O258 Cd254 2.273 . S
O258 Cd256 2.411 . S
O258 C261 1.320 . S
O259 Cd256 2.333 . S
O259 C261 1.214 . S
O260 Cd256 2.352 . S
O260 C263 1.258 1_554 S
C261 O258 1.320 . S
C261 O259 1.214 . S
O262 Cd254 2.277 . S
O262 C257 1.209 . S
C263 O260 1.258 1_556 S
C263 O265 1.282 . S
O264 Cd256 2.277 . S
O264 C257 1.226 . S
O265 Cd256 2.356 1_556 S
O265 C263 1.282 . S
C266 O267 1.306 . S
C266 O269 1.160 . S
O267 C266 1.306 . S
O267 Cd268 2.228 . S
Cd268 O267 2.228 . S
Cd268 O272 2.273 . S
Cd268 O276 2.277 . S
O269 C266 1.160 . S
O269 Cd270 2.203 . S
Cd270 O269 2.203 . S
Cd270 O272 2.411 . S
Cd270 O273 2.333 . S
Cd270 O274 2.352 . S
Cd270 O278 2.277 . S
Cd270 O279 2.356 1_554 S
C271 O276 1.209 . S
C271 O278 1.226 . S
O272 Cd268 2.273 . S
O272 Cd270 2.411 . S
O272 C275 1.320 . S
O273 Cd270 2.333 . S
O273 C275 1.214 . S
O274 Cd270 2.352 . S
O274 C277 1.258 1_554 S
C275 O272 1.320 . S
C275 O273 1.214 . S
O276 Cd268 2.277 . S
O276 C271 1.209 . S
C277 O274 1.258 1_556 S
C277 O279 1.282 . S
O278 Cd270 2.277 . S
O278 C271 1.226 . S
O279 Cd270 2.356 1_556 S
O279 C277 1.282 . S
C280 O281 1.306 . S
C280 O283 1.160 . S
O281 C280 1.306 . S
O281 Cd282 2.228 . S
Cd282 O281 2.228 . S
Cd282 O286 2.273 . S
Cd282 O290 2.277 . S
O283 C280 1.160 . S
O283 Cd284 2.203 . S
Cd284 O283 2.203 . S
Cd284 O286 2.411 . S
Cd284 O287 2.333 . S
Cd284 O288 2.352 . S
Cd284 O292 2.277 . S
Cd284 O293 2.356 1_554 S
C285 O290 1.209 . S
C285 O292 1.226 . S
O286 Cd282 2.273 . S
O286 Cd284 2.411 . S
O286 C289 1.320 . S
O287 Cd284 2.333 . S
O287 C289 1.214 . S
O288 Cd284 2.352 . S
O288 C291 1.258 1_554 S
C289 O286 1.320 . S
C289 O287 1.214 . S
O290 Cd282 2.277 . S
O290 C285 1.209 . S
C291 O288 1.258 1_556 S
C291 O293 1.282 . S
O292 Cd284 2.277 . S
O292 C285 1.226 . S
O293 Cd284 2.356 1_556 S
O293 C291 1.282 . S
C294 O295 1.306 . S
C294 O297 1.160 . S
O295 C294 1.306 . S
O295 Cd296 2.228 . S
Cd296 O295 2.228 . S
Cd296 O300 2.273 . S
Cd296 O304 2.277 . S
O297 C294 1.160 . S
O297 Cd298 2.203 . S
Cd298 O297 2.203 . S
Cd298 O300 2.411 . S
Cd298 O301 2.333 . S
Cd298 O302 2.352 . S
Cd298 O306 2.277 . S
Cd298 O307 2.356 . S
C299 O304 1.209 . S
C299 O306 1.226 . S
O300 Cd296 2.273 . S
O300 Cd298 2.411 . S
O300 C303 1.320 . S
O301 Cd298 2.333 . S
O301 C303 1.214 . S
O302 Cd298 2.352 . S
O302 C305 1.258 . S
C303 O300 1.320 . S
C303 O301 1.214 . S
O304 Cd296 2.277 . S
O304 C299 1.209 . S
C305 O302 1.258 . S
C305 O307 1.282 . S
O306 Cd298 2.277 . S
O306 C299 1.226 . S
O307 Cd298 2.356 . S
O307 C305 1.282 . S
C308 O309 1.306 . S
C308 O311 1.160 . S
O309 C308 1.306 . S
O309 Cd310 2.228 . S
Cd310 O309 2.228 . S
Cd310 O314 2.273 . S
Cd310 O318 2.277 . S
O311 C308 1.160 . S
O311 Cd312 2.203 . S
Cd312 O311 2.203 . S
Cd312 O314 2.411 . S
Cd312 O315 2.333 . S
Cd312 O316 2.352 . S
Cd312 O320 2.277 . S
Cd312 O321 2.356 . S
C313 O318 1.209 . S
C313 O320 1.226 . S
O314 Cd310 2.273 . S
O314 Cd312 2.411 . S
O314 C317 1.320 . S
O315 Cd312 2.333 . S
O315 C317 1.214 . S
O316 Cd312 2.352 . S
O316 C319 1.258 . S
C317 O314 1.320 . S
C317 O315 1.214 . S
O318 Cd310 2.277 . S
O318 C313 1.209 . S
C319 O316 1.258 . S
C319 O321 1.282 . S
O320 Cd312 2.277 . S
O320 C313 1.226 . S
O321 Cd312 2.356 . S
O321 C319 1.282 . S
C322 O323 1.306 . S
C322 O325 1.160 . S
O323 C322 1.306 . S
O323 Cd324 2.228 . S
Cd324 O323 2.228 . S
Cd324 O328 2.273 . S
Cd324 O332 2.277 . S
O325 C322 1.160 . S
O325 Cd326 2.203 . S
Cd326 O325 2.203 . S
Cd326 O328 2.411 . S
Cd326 O329 2.333 . S
Cd326 O330 2.352 . S
Cd326 O334 2.277 . S
Cd326 O335 2.356 . S
C327 O332 1.209 . S
C327 O334 1.226 . S
O328 Cd324 2.273 . S
O328 Cd326 2.411 . S
O328 C331 1.320 . S
O329 Cd326 2.333 . S
O329 C331 1.214 . S
O330 Cd326 2.352 . S
O330 C333 1.258 . S
C331 O328 1.320 . S
C331 O329 1.214 . S
O332 Cd324 2.277 . S
O332 C327 1.209 . S
C333 O330 1.258 . S
C333 O335 1.282 . S
O334 Cd326 2.277 . S
O334 C327 1.226 . S
O335 Cd326 2.356 . S
O335 C333 1.282 . S
C336 O337 1.306 . S
C336 O339 1.160 . S
O337 C336 1.306 . S
O337 Cd338 2.228 . S
Cd338 O337 2.228 . S
Cd338 O342 2.273 . S
Cd338 O346 2.277 . S
O339 C336 1.160 . S
O339 Cd340 2.203 . S
Cd340 O339 2.203 . S
Cd340 O342 2.411 . S
Cd340 O343 2.333 . S
Cd340 O344 2.352 . S
Cd340 O348 2.277 . S
Cd340 O349 2.356 1_556 S
C341 O346 1.209 . S
C341 O348 1.226 . S
O342 Cd338 2.273 . S
O342 Cd340 2.411 . S
O342 C345 1.320 . S
O343 Cd340 2.333 . S
O343 C345 1.214 . S
O344 Cd340 2.352 . S
O344 C347 1.258 1_556 S
C345 O342 1.320 . S
C345 O343 1.214 . S
O346 Cd338 2.277 . S
O346 C341 1.209 . S
C347 O344 1.258 1_554 S
C347 O349 1.282 . S
O348 Cd340 2.277 . S
O348 C341 1.226 . S
O349 Cd340 2.356 1_554 S
O349 C347 1.282 . S
C350 O351 1.306 . S
C350 O353 1.160 . S
O351 C350 1.306 . S
O351 Cd352 2.228 . S
Cd352 O351 2.228 . S
Cd352 O356 2.273 . S
Cd352 O360 2.277 . S
O353 C350 1.160 . S
O353 Cd354 2.203 . S
Cd354 O353 2.203 . S
Cd354 O356 2.411 . S
Cd354 O357 2.333 . S
Cd354 O358 2.352 . S
Cd354 O362 2.277 . S
Cd354 O363 2.356 1_556 S
C355 O360 1.209 . S
C355 O362 1.226 . S
O356 Cd352 2.273 . S
O356 Cd354 2.411 . S
O356 C359 1.320 . S
O357 Cd354 2.333 . S
O357 C359 1.214 . S
O358 Cd354 2.352 . S
O358 C361 1.258 1_556 S
C359 O356 1.320 . S
C359 O357 1.214 . S
O360 Cd352 2.277 . S
O360 C355 1.209 . S
C361 O358 1.258 1_554 S
C361 O363 1.282 . S
O362 Cd354 2.277 . S
O362 C355 1.226 . S
O363 Cd354 2.356 1_554 S
O363 C361 1.282 . S
C364 O365 1.306 . S
C364 O367 1.160 . S
O365 C364 1.306 . S
O365 Cd366 2.228 . S
Cd366 O365 2.228 . S
Cd366 O370 2.273 . S
Cd366 O374 2.277 . S
O367 C364 1.160 . S
O367 Cd368 2.203 . S
Cd368 O367 2.203 . S
Cd368 O370 2.411 . S
Cd368 O371 2.333 . S
Cd368 O372 2.352 . S
Cd368 O376 2.277 . S
Cd368 O377 2.356 1_556 S
C369 O374 1.209 . S
C369 O376 1.226 . S
O370 Cd366 2.273 . S
O370 Cd368 2.411 . S
O370 C373 1.320 . S
O371 Cd368 2.333 . S
O371 C373 1.214 . S
O372 Cd368 2.352 . S
O372 C375 1.258 1_556 S
C373 O370 1.320 . S
C373 O371 1.214 . S
O374 Cd366 2.277 . S
O374 C369 1.209 . S
C375 O372 1.258 1_554 S
C375 O377 1.282 . S
O376 Cd368 2.277 . S
O376 C369 1.226 . S
O377 Cd368 2.356 1_554 S
O377 C375 1.282 . S
C378 O379 1.306 . S
C378 O381 1.160 . S
O379 C378 1.306 . S
O379 Cd380 2.228 . S
Cd380 O379 2.228 . S
Cd380 O384 2.273 . S
Cd380 O388 2.277 . S
O381 C378 1.160 . S
O381 Cd382 2.203 . S
Cd382 O381 2.203 . S
Cd382 O384 2.411 . S
Cd382 O385 2.333 . S
Cd382 O386 2.352 . S
Cd382 O390 2.277 . S
Cd382 O391 2.356 . S
C383 O388 1.209 . S
C383 O390 1.226 . S
O384 Cd380 2.273 . S
O384 Cd382 2.411 . S
O384 C387 1.320 . S
O385 Cd382 2.333 . S
O385 C387 1.214 . S
O386 Cd382 2.352 . S
O386 C389 1.258 . S
C387 O384 1.320 . S
C387 O385 1.214 . S
O388 Cd380 2.277 . S
O388 C383 1.209 . S
C389 O386 1.258 . S
C389 O391 1.282 . S
O390 Cd382 2.277 . S
O390 C383 1.226 . S
O391 Cd382 2.356 . S
O391 C389 1.282 . S
C392 O393 1.306 . S
C392 O395 1.160 . S
O393 C392 1.306 . S
O393 Cd394 2.228 . S
Cd394 O393 2.228 . S
Cd394 O398 2.273 . S
Cd394 O402 2.277 . S
O395 C392 1.160 . S
O395 Cd396 2.203 . S
Cd396 O395 2.203 . S
Cd396 O398 2.411 . S
Cd396 O399 2.333 . S
Cd396 O400 2.352 . S
Cd396 O404 2.277 . S
Cd396 O405 2.356 . S
C397 O402 1.209 . S
C397 O404 1.226 . S
O398 Cd394 2.273 . S
O398 Cd396 2.411 . S
O398 C401 1.320 . S
O399 Cd396 2.333 . S
O399 C401 1.214 . S
O400 Cd396 2.352 . S
O400 C403 1.258 . S
C401 O398 1.320 . S
C401 O399 1.214 . S
O402 Cd394 2.277 . S
O402 C397 1.209 . S
C403 O400 1.258 . S
C403 O405 1.282 . S
O404 Cd396 2.277 . S
O404 C397 1.226 . S
O405 Cd396 2.356 . S
O405 C403 1.282 . S
C406 O407 1.306 . S
C406 O409 1.160 . S
O407 C406 1.306 . S
O407 Cd408 2.228 . S
Cd408 O407 2.228 . S
Cd408 O412 2.273 . S
Cd408 O416 2.277 . S
O409 C406 1.160 . S
O409 Cd410 2.203 . S
Cd410 O409 2.203 . S
Cd410 O412 2.411 . S
Cd410 O413 2.333 . S
Cd410 O414 2.352 . S
Cd410 O418 2.277 . S
Cd410 O419 2.356 . S
C411 O416 1.209 . S
C411 O418 1.226 . S
O412 Cd408 2.273 . S
O412 Cd410 2.411 . S
O412 C415 1.320 . S
O413 Cd410 2.333 . S
O413 C415 1.214 . S
O414 Cd410 2.352 . S
O414 C417 1.258 . S
C415 O412 1.320 . S
C415 O413 1.214 . S
O416 Cd408 2.277 . S
O416 C411 1.209 . S
C417 O414 1.258 . S
C417 O419 1.282 . S
O418 Cd410 2.277 . S
O418 C411 1.226 . S
O419 Cd410 2.356 . S
O419 C417 1.282 . S
C420 O421 1.306 . S
C420 O423 1.160 . S
O421 C420 1.306 . S
O421 Cd422 2.228 . S
Cd422 O421 2.228 . S
Cd422 O426 2.273 . S
Cd422 O430 2.277 . S
O423 C420 1.160 . S
O423 Cd424 2.203 . S
Cd424 O423 2.203 . S
Cd424 O426 2.411 . S
Cd424 O427 2.333 . S
Cd424 O428 2.352 . S
Cd424 O432 2.277 . S
Cd424 O433 2.356 . S
C425 O430 1.209 . S
C425 O432 1.226 . S
O426 Cd422 2.273 . S
O426 Cd424 2.411 . S
O426 C429 1.320 . S
O427 Cd424 2.333 . S
O427 C429 1.214 . S
O428 Cd424 2.352 . S
O428 C431 1.258 . S
C429 O426 1.320 . S
C429 O427 1.214 . S
O430 Cd422 2.277 . S
O430 C425 1.209 . S
C431 O428 1.258 . S
C431 O433 1.282 . S
O432 Cd424 2.277 . S
O432 C425 1.226 . S
O433 Cd424 2.356 . S
O433 C431 1.282 . S
C434 O435 1.306 . S
C434 O437 1.160 . S
O435 C434 1.306 . S
O435 Cd436 2.228 . S
Cd436 O435 2.228 . S
Cd436 O440 2.273 . S
Cd436 O444 2.277 . S
O437 C434 1.160 . S
O437 Cd438 2.203 . S
Cd438 O437 2.203 . S
Cd438 O440 2.411 . S
Cd438 O441 2.333 . S
Cd438 O442 2.352 . S
Cd438 O446 2.277 . S
Cd438 O447 2.356 . S
C439 O444 1.209 . S
C439 O446 1.226 . S
O440 Cd436 2.273 . S
O440 Cd438 2.411 . S
O440 C443 1.320 . S
O441 Cd438 2.333 . S
O441 C443 1.214 . S
O442 Cd438 2.352 . S
O442 C445 1.258 . S
C443 O440 1.320 . S
C443 O441 1.214 . S
O444 Cd436 2.277 . S
O444 C439 1.209 . S
C445 O442 1.258 . S
C445 O447 1.282 . S
O446 Cd438 2.277 . S
O446 C439 1.226 . S
O447 Cd438 2.356 . S
O447 C445 1.282 . S
C448 O449 1.306 . S
C448 O451 1.160 . S
O449 C448 1.306 . S
O449 Cd450 2.228 . S
Cd450 O449 2.228 . S
Cd450 O454 2.273 . S
Cd450 O458 2.277 . S
O451 C448 1.160 . S
O451 Cd452 2.203 . S
Cd452 O451 2.203 . S
Cd452 O454 2.411 . S
Cd452 O455 2.333 . S
Cd452 O456 2.352 . S
Cd452 O460 2.277 . S
Cd452 O461 2.356 . S
C453 O458 1.209 . S
C453 O460 1.226 . S
O454 Cd450 2.273 . S
O454 Cd452 2.411 . S
O454 C457 1.320 . S
O455 Cd452 2.333 . S
O455 C457 1.214 . S
O456 Cd452 2.352 . S
O456 C459 1.258 . S
C457 O454 1.320 . S
C457 O455 1.214 . S
O458 Cd450 2.277 . S
O458 C453 1.209 . S
C459 O456 1.258 . S
C459 O461 1.282 . S
O460 Cd452 2.277 . S
O460 C453 1.226 . S
O461 Cd452 2.356 . S
O461 C459 1.282 . S
C462 O463 1.306 . S
C462 O465 1.160 . S
O463 C462 1.306 . S
O463 Cd464 2.228 . S
Cd464 O463 2.228 . S
Cd464 O468 2.273 . S
Cd464 O472 2.277 . S
O465 C462 1.160 . S
O465 Cd466 2.203 . S
Cd466 O465 2.203 . S
Cd466 O468 2.411 . S
Cd466 O469 2.333 . S
Cd466 O470 2.352 . S
Cd466 O474 2.277 . S
Cd466 O475 2.356 1_556 S
C467 O472 1.209 . S
C467 O474 1.226 . S
O468 Cd464 2.273 . S
O468 Cd466 2.411 . S
O468 C471 1.320 . S
O469 Cd466 2.333 . S
O469 C471 1.214 . S
O470 Cd466 2.352 . S
O470 C473 1.258 1_556 S
C471 O468 1.320 . S
C471 O469 1.214 . S
O472 Cd464 2.277 . S
O472 C467 1.209 . S
C473 O470 1.258 1_554 S
C473 O475 1.282 . S
O474 Cd466 2.277 . S
O474 C467 1.226 . S
O475 Cd466 2.356 1_554 S
O475 C473 1.282 . S
C476 O477 1.306 . S
C476 O479 1.160 . S
O477 C476 1.306 . S
O477 Cd478 2.228 . S
Cd478 O477 2.228 . S
Cd478 O482 2.273 . S
Cd478 O486 2.277 . S
O479 C476 1.160 . S
O479 Cd480 2.203 . S
Cd480 O479 2.203 . S
Cd480 O482 2.411 . S
Cd480 O483 2.333 . S
Cd480 O484 2.352 . S
Cd480 O488 2.277 . S
Cd480 O489 2.356 1_556 S
C481 O486 1.209 . S
C481 O488 1.226 . S
O482 Cd478 2.273 . S
O482 Cd480 2.411 . S
O482 C485 1.320 . S
O483 Cd480 2.333 . S
O483 C485 1.214 . S
O484 Cd480 2.352 . S
O484 C487 1.258 1_556 S
C485 O482 1.320 . S
C485 O483 1.214 . S
O486 Cd478 2.277 . S
O486 C481 1.209 . S
C487 O484 1.258 1_554 S
C487 O489 1.282 . S
O488 Cd480 2.277 . S
O488 C481 1.226 . S
O489 Cd480 2.356 1_554 S
O489 C487 1.282 . S
C490 O491 1.306 . S
C490 O493 1.160 . S
O491 C490 1.306 . S
O491 Cd492 2.228 . S
Cd492 O491 2.228 . S
Cd492 O496 2.273 . S
Cd492 O500 2.277 . S
O493 C490 1.160 . S
O493 Cd494 2.203 . S
Cd494 O493 2.203 . S
Cd494 O496 2.411 . S
Cd494 O497 2.333 . S
Cd494 O498 2.352 . S
Cd494 O502 2.277 . S
Cd494 O503 2.356 1_556 S
C495 O500 1.209 . S
C495 O502 1.226 . S
O496 Cd492 2.273 . S
O496 Cd494 2.411 . S
O496 C499 1.320 . S
O497 Cd494 2.333 . S
O497 C499 1.214 . S
O498 Cd494 2.352 . S
O498 C501 1.258 1_556 S
C499 O496 1.320 . S
C499 O497 1.214 . S
O500 Cd492 2.277 . S
O500 C495 1.209 . S
C501 O498 1.258 1_554 S
C501 O503 1.282 . S
O502 Cd494 2.277 . S
O502 C495 1.226 . S
O503 Cd494 2.356 1_554 S
O503 C501 1.282 . S
C504 C505 1.369 1_545 S
C504 C506 1.419 . S
C504 H508 0.930 . S
C505 C504 1.369 1_565 S
C505 C514 1.429 . S
C506 C504 1.419 . S
C506 C507 1.363 . S
C506 H509 0.929 . S
C507 C506 1.363 . S
C507 C513 1.428 1_545 S
H508 C504 0.930 . S
H509 C506 0.929 . S
S510 N511 1.613 . S
S510 N512 1.610 . S
N511 S510 1.613 . S
N511 C514 1.350 . S
N512 S510 1.610 . S
N512 C513 1.351 . S
C513 C507 1.428 1_565 S
C513 N512 1.351 . S
C513 C514 1.434 . S
C514 C505 1.429 . S
C514 N511 1.350 . S
C514 C513 1.434 . S
C515 C516 1.369 . S
C515 C517 1.453 . S
C515 H519 0.930 . S
C516 C515 1.369 . S
C516 C525 1.429 1_455 S
C517 C515 1.453 . S
C517 C518 1.347 1_455 S
C517 H520 0.914 . S
C518 C517 1.347 1_655 S
C518 C524 1.428 . S
H519 C515 0.930 . S
H520 C517 0.914 . S
S521 N522 1.613 . S
S521 N523 1.610 . S
N522 S521 1.613 . S
N522 C525 1.350 . S
N523 S521 1.610 . S
N523 C524 1.351 . S
C524 C518 1.428 . S
C524 N523 1.351 . S
C524 C525 1.434 . S
C525 C516 1.429 1_655 S
C525 N522 1.350 . S
C525 C524 1.434 . S
C526 C527 1.369 . S
C526 C528 1.419 . S
C526 H530 0.930 . S
C527 C526 1.369 . S
C527 C536 1.429 . S
C528 C526 1.419 . S
C528 C529 1.363 . S
C528 H531 0.929 . S
C529 C528 1.363 . S
C529 C535 1.428 . S
H530 C526 0.930 . S
H531 C528 0.929 . S
S532 N533 1.613 . S
S532 N534 1.610 . S
N533 S532 1.613 . S
N533 C536 1.350 . S
N534 S532 1.610 . S
N534 C535 1.351 . S
C535 C529 1.428 . S
C535 N534 1.351 . S
C535 C536 1.434 . S
C536 C527 1.429 . S
C536 N533 1.350 . S
C536 C535 1.434 . S
C537 C538 1.369 . S
C537 C539 1.419 1_565 S
C537 H541 0.930 . S
C538 C537 1.369 . S
C538 C547 1.429 . S
C539 C537 1.419 1_545 S
C539 C540 1.363 . S
C539 H542 0.929 . S
C540 C539 1.363 . S
C540 C546 1.428 . S
H541 C537 0.930 . S
H542 C539 0.929 . S
S543 N544 1.613 . S
S543 N545 1.610 1_565 S
N544 S543 1.613 . S
N544 C547 1.350 . S
N545 S543 1.610 1_545 S
N545 C546 1.351 . S
C546 C540 1.428 . S
C546 N545 1.351 . S
C546 C547 1.434 1_545 S
C547 C538 1.429 . S
C547 N544 1.350 . S
C547 C546 1.434 1_565 S
C548 C549 1.369 . S
C548 C550 1.419 . S
C548 H552 0.930 . S
C549 C548 1.369 . S
C549 C558 1.429 1_455 S
C550 C548 1.419 . S
C550 C551 1.363 1_455 S
C550 H553 0.929 . S
C551 C550 1.363 1_655 S
C551 C557 1.428 . S
H552 C548 0.930 . S
H553 C550 0.929 . S
S554 N555 1.613 . S
S554 N556 1.610 . S
N555 S554 1.613 . S
N555 C558 1.350 . S
N556 S554 1.610 . S
N556 C557 1.351 . S
C557 C551 1.428 . S
C557 N556 1.351 . S
C557 C558 1.434 . S
C558 C549 1.429 1_655 S
C558 N555 1.350 . S
C558 C557 1.434 . S
C559 C560 1.369 . S
C559 C561 1.419 . S
C559 H563 0.930 . S
C560 C559 1.369 . S
C560 C569 1.429 . S
C561 C559 1.419 . S
C561 C562 1.363 . S
C561 H564 0.929 . S
C562 C561 1.363 . S
C562 C568 1.428 . S
H563 C559 0.930 . S
H564 C561 0.929 . S
S565 N566 1.613 . S
S565 N567 1.610 . S
N566 S565 1.613 . S
N566 C569 1.350 . S
N567 S565 1.610 . S
N567 C568 1.351 . S
C568 C562 1.428 . S
C568 N567 1.351 . S
C568 C569 1.434 . S
C569 C560 1.429 . S
C569 N566 1.350 . S
C569 C568 1.434 . S
C570 C571 1.369 . S
C570 C572 1.419 . S
C570 H574 0.930 . S
C571 C570 1.369 . S
C571 C580 1.429 . S
C572 C570 1.419 . S
C572 C573 1.363 . S
C572 H575 0.929 . S
C573 C572 1.363 . S
C573 C579 1.428 . S
H574 C570 0.930 . S
H575 C572 0.929 . S
S576 N577 1.613 . S
S576 N578 1.610 . S
N577 S576 1.613 . S
N577 C580 1.350 . S
N578 S576 1.610 . S
N578 C579 1.351 . S
C579 C573 1.428 . S
C579 N578 1.351 . S
C579 C580 1.434 . S
C580 C571 1.429 . S
C580 N577 1.350 . S
C580 C579 1.434 . S
C581 C582 1.369 . S
C581 C583 1.419 . S
C581 H585 0.930 . S
C582 C581 1.369 . S
C582 C591 1.429 . S
C583 C581 1.419 . S
C583 C584 1.363 . S
C583 H586 0.929 . S
C584 C583 1.363 . S
C584 C590 1.428 . S
H585 C581 0.930 . S
H586 C583 0.929 . S
S587 N588 1.613 . S
S587 N589 1.610 . S
N588 S587 1.613 . S
N588 C591 1.350 . S
N589 S587 1.610 . S
N589 C590 1.351 . S
C590 C584 1.428 . S
C590 N589 1.351 . S
C590 C591 1.434 . S
C591 C582 1.429 . S
C591 N588 1.350 . S
C591 C590 1.434 . S
C592 C593 1.369 . S
C592 C594 1.419 . S
C592 H596 0.930 . S
C593 C592 1.369 . S
C593 C602 1.429 . S
C594 C592 1.419 . S
C594 C595 1.363 . S
C594 H597 0.929 . S
C595 C594 1.363 . S
C595 C601 1.428 . S
H596 C592 0.930 . S
H597 C594 0.929 . S
S598 N599 1.613 . S
S598 N600 1.610 . S
N599 S598 1.613 . S
N599 C602 1.350 . S
N600 S598 1.610 . S
N600 C601 1.351 . S
C601 C595 1.428 . S
C601 N600 1.351 . S
C601 C602 1.434 . S
C602 C593 1.429 . S
C602 N599 1.350 . S
C602 C601 1.434 . S
C603 C604 1.369 . S
C603 C605 1.419 . S
C603 H607 0.930 . S
C604 C603 1.369 . S
C604 C613 1.429 . S
C605 C603 1.419 . S
C605 C606 1.363 . S
C605 H608 0.929 . S
C606 C605 1.363 . S
C606 C612 1.428 . S
H607 C603 0.930 . S
H608 C605 0.929 . S
S609 N610 1.613 . S
S609 N611 1.610 . S
N610 S609 1.613 . S
N610 C613 1.350 . S
N611 S609 1.610 . S
N611 C612 1.351 . S
C612 C606 1.428 . S
C612 N611 1.351 . S
C612 C613 1.434 . S
C613 C604 1.429 . S
C613 N610 1.350 . S
C613 C612 1.434 . S
C614 C615 1.369 . S
C614 C616 1.419 . S
C614 H618 0.930 . S
C615 C614 1.369 . S
C615 C624 1.429 . S
C616 C614 1.419 . S
C616 C617 1.363 . S
C616 H619 0.929 . S
C617 C616 1.363 . S
C617 C623 1.428 . S
H618 C614 0.930 . S
H619 C616 0.929 . S
S620 N621 1.613 . S
S620 N622 1.610 . S
N621 S620 1.613 . S
N621 C624 1.350 . S
N622 S620 1.610 . S
N622 C623 1.351 . S
C623 C617 1.428 . S
C623 N622 1.351 . S
C623 C624 1.434 . S
C624 C615 1.429 . S
C624 N621 1.350 . S
C624 C623 1.434 . S
C625 C626 1.369 . S
C625 C627 1.419 . S
C625 H629 0.930 . S
C626 C625 1.369 . S
C626 C635 1.429 . S
C627 C625 1.419 . S
C627 C628 1.363 . S
C627 H630 0.929 . S
C628 C627 1.363 . S
C628 C634 1.428 . S
H629 C625 0.930 . S
H630 C627 0.929 . S
S631 N632 1.613 . S
S631 N633 1.610 . S
N632 S631 1.613 . S
N632 C635 1.350 . S
N633 S631 1.610 . S
N633 C634 1.351 . S
C634 C628 1.428 . S
C634 N633 1.351 . S
C634 C635 1.434 . S
C635 C626 1.429 . S
C635 N632 1.350 . S
C635 C634 1.434 . S
C636 C637 1.369 . S
C636 C638 1.419 . S
C636 H640 0.930 . S
C637 C636 1.369 . S
C637 C646 1.429 . S
C638 C636 1.419 . S
C638 C639 1.363 . S
C638 H641 0.929 . S
C639 C638 1.363 . S
C639 C645 1.428 . S
H640 C636 0.930 . S
H641 C638 0.929 . S
S642 N643 1.613 . S
S642 N644 1.610 . S
N643 S642 1.613 . S
N643 C646 1.350 . S
N644 S642 1.610 . S
N644 C645 1.351 . S
C645 C639 1.428 . S
C645 N644 1.351 . S
C645 C646 1.434 . S
C646 C637 1.429 . S
C646 N643 1.350 . S
C646 C645 1.434 . S
C647 C648 1.369 . S
C647 C649 1.419 . S
C647 H651 0.930 . S
C648 C647 1.369 . S
C648 C657 1.429 . S
C649 C647 1.419 . S
C649 C650 1.363 . S
C649 H652 0.929 . S
C650 C649 1.363 . S
C650 C656 1.428 . S
H651 C647 0.930 . S
H652 C649 0.929 . S
S653 N654 1.613 . S
S653 N655 1.610 . S
N654 S653 1.613 . S
N654 C657 1.350 . S
N655 S653 1.610 . S
N655 C656 1.351 . S
C656 C650 1.428 . S
C656 N655 1.351 . S
C656 C657 1.434 . S
C657 C648 1.429 . S
C657 N654 1.350 . S
C657 C656 1.434 . S
C658 C659 1.369 . S
C658 C660 1.419 . S
C658 H662 0.930 . S
C659 C658 1.369 . S
C659 C668 1.429 . S
C660 C658 1.419 . S
C660 C661 1.363 . S
C660 H663 0.929 . S
C661 C660 1.363 . S
C661 C667 1.428 . S
H662 C658 0.930 . S
H663 C660 0.929 . S
S664 N665 1.613 . S
S664 N666 1.610 . S
N665 S664 1.613 . S
N665 C668 1.350 . S
N666 S664 1.610 . S
N666 C667 1.351 . S
C667 C661 1.428 . S
C667 N666 1.351 . S
C667 C668 1.434 . S
C668 C659 1.429 . S
C668 N665 1.350 . S
C668 C667 1.434 . S
C669 C670 1.369 . S
C669 C671 1.419 . S
C669 H673 0.930 . S
C670 C669 1.369 . S
C670 C679 1.429 . S
C671 C669 1.419 . S
C671 C672 1.363 . S
C671 H674 0.929 . S
C672 C671 1.363 . S
C672 C678 1.428 . S
H673 C669 0.930 . S
H674 C671 0.929 . S
S675 N676 1.613 . S
S675 N677 1.610 . S
N676 S675 1.613 . S
N676 C679 1.350 . S
N677 S675 1.610 . S
N677 C678 1.351 . S
C678 C672 1.428 . S
C678 N677 1.351 . S
C678 C679 1.434 . S
C679 C670 1.429 . S
C679 N676 1.350 . S
C679 C678 1.434 . S
C680 C681 1.369 . S
C680 C682 1.419 . S
C680 H684 0.930 . S
C681 C680 1.369 . S
C681 C690 1.429 . S
C682 C680 1.419 . S
C682 C683 1.363 . S
C682 H685 0.929 . S
C683 C682 1.363 . S
C683 C689 1.428 . S
H684 C680 0.930 . S
H685 C682 0.929 . S
S686 N687 1.613 . S
S686 N688 1.610 . S
N687 S686 1.613 . S
N687 C690 1.350 . S
N688 S686 1.610 . S
N688 C689 1.351 . S
C689 C683 1.428 . S
C689 N688 1.351 . S
C689 C690 1.434 . S
C690 C681 1.429 . S
C690 N687 1.350 . S
C690 C689 1.434 . S
C691 C692 1.369 . S
C691 C693 1.419 . S
C691 H695 0.930 . S
C692 C691 1.369 . S
C692 C701 1.429 . S
C693 C691 1.419 . S
C693 C694 1.363 . S
C693 H696 0.929 . S
C694 C693 1.363 . S
C694 C700 1.428 . S
H695 C691 0.930 . S
H696 C693 0.929 . S
S697 N698 1.613 . S
S697 N699 1.610 . S
N698 S697 1.613 . S
N698 C701 1.350 . S
N699 S697 1.610 . S
N699 C700 1.351 . S
C700 C694 1.428 . S
C700 N699 1.351 . S
C700 C701 1.434 . S
C701 C692 1.429 . S
C701 N698 1.350 . S
C701 C700 1.434 . S
C702 C703 1.369 . S
C702 C704 1.419 1_556 S
C702 H706 0.930 . S
C703 C702 1.369 . S
C703 C712 1.429 1_565 S
C704 C702 1.419 1_554 S
C704 C705 1.363 1_565 S
C704 H707 0.929 . S
C705 C704 1.363 1_545 S
C705 C711 1.430 . S
H706 C702 0.930 . S
H707 C704 0.929 . S
S708 N709 1.613 . S
S708 N710 1.610 . S
N709 S708 1.613 . S
N709 C712 1.350 . S
N710 S708 1.610 . S
N710 C711 1.351 1_556 S
C711 C705 1.430 . S
C711 N710 1.351 1_554 S
C711 C712 1.432 1_554 S
C712 C703 1.429 1_545 S
C712 N709 1.350 . S
C712 C711 1.432 1_556 S
C713 C714 1.369 1_556 S
C713 C715 1.419 . S
C713 H717 0.930 . S
C714 C713 1.369 1_554 S
C714 C723 1.429 1_655 S
C715 C713 1.419 . S
C715 C716 1.363 1_655 S
C715 H718 0.929 . S
C716 C715 1.363 1_455 S
C716 C722 1.428 1_556 S
H717 C713 0.930 . S
H718 C715 0.929 . S
S719 N720 1.613 . S
S719 N721 1.610 . S
N720 S719 1.613 . S
N720 C723 1.350 . S
N721 S719 1.610 . S
N721 C722 1.351 . S
C722 C716 1.428 1_554 S
C722 N721 1.351 . S
C722 C723 1.434 . S
C723 C714 1.429 1_455 S
C723 N720 1.350 . S
C723 C722 1.434 . S
C724 C725 1.369 . S
C724 C726 1.419 1_556 S
C724 H728 0.930 . S
C725 C724 1.369 . S
C725 C734 1.429 . S
C726 C724 1.419 1_554 S
C726 C727 1.363 . S
C726 H729 0.929 . S
C727 C726 1.363 . S
C727 C733 1.428 . S
H728 C724 0.930 . S
H729 C726 0.929 . S
S730 N731 1.613 1_554 S
S730 N732 1.610 . S
N731 S730 1.613 1_556 S
N731 C734 1.350 . S
N732 S730 1.610 . S
N732 C733 1.351 . S
C733 C727 1.428 . S
C733 N732 1.351 . S
C733 C734 1.434 1_554 S
C734 C725 1.429 . S
C734 N731 1.350 . S
C734 C733 1.434 1_556 S
C735 C736 1.369 . S
C735 C737 1.444 1_556 S
C735 H739 0.930 . S
C736 C735 1.369 . S
C736 C745 1.429 1_565 S
C737 C735 1.444 1_554 S
C737 C738 1.317 1_565 S
C737 H740 0.953 . S
C738 C737 1.317 1_545 S
C738 C744 1.428 . S
H739 C735 0.930 . S
H740 C737 0.953 . S
S741 N742 1.613 . S
S741 N743 1.610 1_556 S
N742 S741 1.613 . S
N742 C745 1.350 . S
N743 S741 1.610 1_554 S
N743 C744 1.351 . S
C744 C738 1.428 . S
C744 N743 1.351 . S
C744 C745 1.434 1_554 S
C745 C736 1.429 1_545 S
C745 N742 1.350 . S
C745 C744 1.434 1_556 S
C746 C747 1.369 . S
C746 C748 1.419 1_456 S
C746 H750 0.930 . S
C747 C746 1.369 . S
C747 C756 1.429 . S
C748 C746 1.419 1_654 S
C748 C749 1.363 . S
C748 H751 0.929 . S
C749 C748 1.363 . S
C749 C755 1.428 . S
H750 C746 0.930 . S
H751 C748 0.929 . S
S752 N753 1.613 1_554 S
S752 N754 1.610 1_455 S
N753 S752 1.613 1_556 S
N753 C756 1.350 . S
N754 S752 1.610 1_655 S
N754 C755 1.351 . S
C755 C749 1.428 . S
C755 N754 1.351 . S
C755 C756 1.434 1_654 S
C756 C747 1.429 . S
C756 N753 1.350 . S
C756 C755 1.434 1_456 S
C757 C758 1.369 . S
C757 C759 1.419 1_554 S
C757 H761 0.930 . S
C758 C757 1.369 . S
C758 C767 1.429 . S
C759 C757 1.419 1_556 S
C759 C760 1.363 . S
C759 H762 0.929 . S
C760 C759 1.363 . S
C760 C766 1.428 . S
H761 C757 0.930 . S
H762 C759 0.929 . S
S763 N764 1.613 1_556 S
S763 N765 1.610 . S
N764 S763 1.613 1_554 S
N764 C767 1.350 . S
N765 S763 1.610 . S
N765 C766 1.351 . S
C766 C760 1.428 . S
C766 N765 1.351 . S
C766 C767 1.434 1_556 S
C767 C758 1.429 . S
C767 N764 1.350 . S
C767 C766 1.434 1_554 S
C768 C769 1.369 . S
C768 C770 1.419 . S
C768 H772 0.930 . S
C769 C768 1.369 . S
C769 C778 1.429 . S
C770 C768 1.419 . S
C770 C771 1.363 . S
C770 H773 0.929 . S
C771 C770 1.363 . S
C771 C777 1.428 . S
H772 C768 0.930 . S
H773 C770 0.929 . S
S774 N775 1.613 . S
S774 N776 1.610 . S
N775 S774 1.613 . S
N775 C778 1.350 . S
N776 S774 1.610 . S
N776 C777 1.351 . S
C777 C771 1.428 . S
C777 N776 1.351 . S
C777 C778 1.434 . S
C778 C769 1.429 . S
C778 N775 1.350 . S
C778 C777 1.434 . S
C779 C780 1.369 . S
C779 C781 1.419 . S
C779 H783 0.930 . S
C780 C779 1.369 . S
C780 C789 1.429 . S
C781 C779 1.419 . S
C781 C782 1.363 . S
C781 H784 0.929 . S
C782 C781 1.363 . S
C782 C788 1.428 . S
H783 C779 0.930 . S
H784 C781 0.929 . S
S785 N786 1.613 . S
S785 N787 1.610 . S
N786 S785 1.613 . S
N786 C789 1.350 . S
N787 S785 1.610 . S
N787 C788 1.351 . S
C788 C782 1.428 . S
C788 N787 1.351 . S
C788 C789 1.434 . S
C789 C780 1.429 . S
C789 N786 1.350 . S
C789 C788 1.434 . S
C790 C791 1.369 . S
C790 C792 1.419 . S
C790 H794 0.930 . S
C791 C790 1.369 . S
C791 C800 1.429 . S
C792 C790 1.419 . S
C792 C793 1.363 . S
C792 H795 0.929 . S
C793 C792 1.363 . S
C793 C799 1.428 . S
H794 C790 0.930 . S
H795 C792 0.929 . S
S796 N797 1.613 . S
S796 N798 1.610 . S
N797 S796 1.613 . S
N797 C800 1.350 . S
N798 S796 1.610 . S
N798 C799 1.351 . S
C799 C793 1.428 . S
C799 N798 1.351 . S
C799 C800 1.434 . S
C800 C791 1.429 . S
C800 N797 1.350 . S
C800 C799 1.434 . S
C801 C802 1.369 . S
C801 C803 1.419 . S
C801 H805 0.930 . S
C802 C801 1.369 . S
C802 C811 1.429 . S
C803 C801 1.419 . S
C803 C804 1.363 . S
C803 H806 0.929 . S
C804 C803 1.363 . S
C804 C810 1.428 . S
H805 C801 0.930 . S
H806 C803 0.929 . S
S807 N808 1.613 . S
S807 N809 1.610 . S
N808 S807 1.613 . S
N808 C811 1.350 . S
N809 S807 1.610 . S
N809 C810 1.351 . S
C810 C804 1.428 . S
C810 N809 1.351 . S
C810 C811 1.434 . S
C811 C802 1.429 . S
C811 N808 1.350 . S
C811 C810 1.434 . S
C812 C813 1.369 . S
C812 C814 1.419 . S
C812 H816 0.930 . S
C813 C812 1.369 . S
C813 C822 1.429 . S
C814 C812 1.419 . S
C814 C815 1.363 . S
C814 H817 0.929 . S
C815 C814 1.363 . S
C815 C821 1.428 . S
H816 C812 0.930 . S
H817 C814 0.929 . S
S818 N819 1.613 . S
S818 N820 1.610 . S
N819 S818 1.613 . S
N819 C822 1.350 . S
N820 S818 1.610 . S
N820 C821 1.351 . S
C821 C815 1.428 . S
C821 N820 1.351 . S
C821 C822 1.434 . S
C822 C813 1.429 . S
C822 N819 1.350 . S
C822 C821 1.434 . S
C823 C824 1.369 . S
C823 C825 1.419 . S
C823 H827 0.930 . S
C824 C823 1.369 . S
C824 C833 1.429 . S
C825 C823 1.419 . S
C825 C826 1.363 . S
C825 H828 0.929 . S
C826 C825 1.363 . S
C826 C832 1.428 . S
H827 C823 0.930 . S
H828 C825 0.929 . S
S829 N830 1.613 . S
S829 N831 1.610 . S
N830 S829 1.613 . S
N830 C833 1.350 . S
N831 S829 1.610 . S
N831 C832 1.351 . S
C832 C826 1.428 . S
C832 N831 1.351 . S
C832 C833 1.434 . S
C833 C824 1.429 . S
C833 N830 1.350 . S
C833 C832 1.434 . S
C834 C835 1.369 . S
C834 C836 1.419 . S
C834 H838 0.930 . S
C835 C834 1.369 . S
C835 C844 1.429 . S
C836 C834 1.419 . S
C836 C837 1.363 . S
C836 H839 0.929 . S
C837 C836 1.363 . S
C837 C843 1.428 . S
H838 C834 0.930 . S
H839 C836 0.929 . S
S840 N841 1.613 . S
S840 N842 1.610 . S
N841 S840 1.613 . S
N841 C844 1.350 . S
N842 S840 1.610 . S
N842 C843 1.351 . S
C843 C837 1.428 . S
C843 N842 1.351 . S
C843 C844 1.434 . S
C844 C835 1.429 . S
C844 N841 1.350 . S
C844 C843 1.434 . S
C845 C846 1.369 . S
C845 C847 1.419 . S
C845 H849 0.930 . S
C846 C845 1.369 . S
C846 C855 1.429 . S
C847 C845 1.419 . S
C847 C848 1.363 . S
C847 H850 0.929 . S
C848 C847 1.363 . S
C848 C854 1.428 . S
H849 C845 0.930 . S
H850 C847 0.929 . S
S851 N852 1.613 . S
S851 N853 1.610 . S
N852 S851 1.613 . S
N852 C855 1.350 . S
N853 S851 1.610 . S
N853 C854 1.351 . S
C854 C848 1.428 . S
C854 N853 1.351 . S
C854 C855 1.434 . S
C855 C846 1.429 . S
C855 N852 1.350 . S
C855 C854 1.434 . S
C856 C857 1.369 . S
C856 C858 1.419 . S
C856 H860 0.930 . S
C857 C856 1.369 . S
C857 C866 1.429 . S
C858 C856 1.419 . S
C858 C859 1.363 . S
C858 H861 0.929 . S
C859 C858 1.363 . S
C859 C865 1.428 . S
H860 C856 0.930 . S
H861 C858 0.929 . S
S862 N863 1.613 . S
S862 N864 1.610 . S
N863 S862 1.613 . S
N863 C866 1.350 . S
N864 S862 1.610 . S
N864 C865 1.351 . S
C865 C859 1.428 . S
C865 N864 1.351 . S
C865 C866 1.434 . S
C866 C857 1.429 . S
C866 N863 1.350 . S
C866 C865 1.434 . S
C867 C868 1.369 . S
C867 C869 1.419 . S
C867 H871 0.930 . S
C868 C867 1.369 . S
C868 C877 1.429 . S
C869 C867 1.419 . S
C869 C870 1.363 . S
C869 H872 0.929 . S
C870 C869 1.363 . S
C870 C876 1.428 . S
H871 C867 0.930 . S
H872 C869 0.929 . S
S873 N874 1.613 . S
S873 N875 1.610 . S
N874 S873 1.613 . S
N874 C877 1.350 . S
N875 S873 1.610 . S
N875 C876 1.351 . S
C876 C870 1.428 . S
C876 N875 1.351 . S
C876 C877 1.434 . S
C877 C868 1.429 . S
C877 N874 1.350 . S
C877 C876 1.434 . S
C878 C879 1.369 . S
C878 C880 1.419 . S
C878 H882 0.930 . S
C879 C878 1.369 . S
C879 C888 1.429 . S
C880 C878 1.419 . S
C880 C881 1.363 . S
C880 H883 0.929 . S
C881 C880 1.363 . S
C881 C887 1.428 . S
H882 C878 0.930 . S
H883 C880 0.929 . S
S884 N885 1.613 . S
S884 N886 1.610 . S
N885 S884 1.613 . S
N885 C888 1.350 . S
N886 S884 1.610 . S
N886 C887 1.351 . S
C887 C881 1.428 . S
C887 N886 1.351 . S
C887 C888 1.434 . S
C888 C879 1.429 . S
C888 N885 1.350 . S
C888 C887 1.434 . S
C889 C890 1.369 . S
C889 C891 1.419 . S
C889 H893 0.930 . S
C890 C889 1.369 . S
C890 C899 1.429 . S
C891 C889 1.419 . S
C891 C892 1.363 . S
C891 H894 0.929 . S
C892 C891 1.363 . S
C892 C898 1.428 . S
H893 C889 0.930 . S
H894 C891 0.929 . S
S895 N896 1.613 . S
S895 N897 1.610 . S
N896 S895 1.613 . S
N896 C899 1.350 . S
N897 S895 1.610 . S
N897 C898 1.351 . S
C898 C892 1.428 . S
C898 N897 1.351 . S
C898 C899 1.434 . S
C899 C890 1.429 . S
C899 N896 1.350 . S
C899 C898 1.434 . S
C900 C901 1.369 . S
C900 C902 1.419 . S
C900 H904 0.930 . S
C901 C900 1.369 . S
C901 C910 1.429 . S
C902 C900 1.419 . S
C902 C903 1.363 . S
C902 H905 0.929 . S
C903 C902 1.363 . S
C903 C909 1.428 . S
H904 C900 0.930 . S
H905 C902 0.929 . S
S906 N907 1.613 . S
S906 N908 1.610 . S
N907 S906 1.613 . S
N907 C910 1.350 . S
N908 S906 1.610 . S
N908 C909 1.351 . S
C909 C903 1.428 . S
C909 N908 1.351 . S
C909 C910 1.434 . S
C910 C901 1.429 . S
C910 N907 1.350 . S
C910 C909 1.434 . S
C911 C912 1.369 . S
C911 C913 1.419 . S
C911 H915 0.930 . S
C912 C911 1.369 . S
C912 C921 1.429 . S
C913 C911 1.419 . S
C913 C914 1.363 . S
C913 H916 0.929 . S
C914 C913 1.363 . S
C914 C920 1.428 . S
H915 C911 0.930 . S
H916 C913 0.929 . S
S917 N918 1.613 1_556 S
S917 N919 1.610 1_556 S
N918 S917 1.613 1_554 S
N918 C921 1.350 . S
N919 S917 1.610 1_554 S
N919 C920 1.351 . S
C920 C914 1.428 . S
C920 N919 1.351 . S
C920 C921 1.434 . S
C921 C912 1.429 . S
C921 N918 1.350 . S
C921 C920 1.434 . S
C922 C923 1.369 . S
C922 C924 1.419 . S
C922 H926 0.930 . S
C923 C922 1.369 . S
C923 C932 1.429 . S
C924 C922 1.419 . S
C924 C925 1.363 . S
C924 H927 0.929 . S
C925 C924 1.363 . S
C925 C931 1.428 . S
H926 C922 0.930 . S
H927 C924 0.929 . S
S928 N929 1.613 . S
S928 N930 1.610 . S
N929 S928 1.613 . S
N929 C932 1.350 . S
N930 S928 1.610 . S
N930 C931 1.351 . S
C931 C925 1.428 . S
C931 N930 1.351 . S
C931 C932 1.434 . S
C932 C923 1.429 . S
C932 N929 1.350 . S
C932 C931 1.434 . S
C933 C934 1.369 . S
C933 C935 1.419 . S
C933 H937 0.930 . S
C934 C933 1.369 . S
C934 C943 1.429 . S
C935 C933 1.419 . S
C935 C936 1.363 . S
C935 H938 0.929 . S
C936 C935 1.363 . S
C936 C942 1.428 . S
H937 C933 0.930 . S
H938 C935 0.929 . S
S939 N940 1.613 1_554 S
S939 N941 1.610 1_554 S
N940 S939 1.613 1_556 S
N940 C943 1.350 . S
N941 S939 1.610 1_556 S
N941 C942 1.351 . S
C942 C936 1.428 . S
C942 N941 1.351 . S
C942 C943 1.434 . S
C943 C934 1.429 . S
C943 N940 1.350 . S
C943 C942 1.434 . S
C944 C945 1.369 . S
C944 C946 1.419 . S
C944 H948 0.930 . S
C945 C944 1.369 . S
C945 C954 1.429 . S
C946 C944 1.419 . S
C946 C947 1.363 . S
C946 H949 0.929 . S
C947 C946 1.363 . S
C947 C953 1.428 . S
H948 C944 0.930 . S
H949 C946 0.929 . S
S950 N951 1.613 . S
S950 N952 1.610 . S
N951 S950 1.613 . S
N951 C954 1.350 . S
N952 S950 1.610 . S
N952 C953 1.351 . S
C953 C947 1.428 . S
C953 N952 1.351 . S
C953 C954 1.434 . S
C954 C945 1.429 . S
C954 N951 1.350 . S
C954 C953 1.434 . S
C955 C956 1.369 . S
C955 C957 1.419 . S
C955 H959 0.930 . S
C956 C955 1.369 . S
C956 C965 1.429 . S
C957 C955 1.419 . S
C957 C958 1.363 . S
C957 H960 0.929 . S
C958 C957 1.363 . S
C958 C964 1.428 . S
H959 C955 0.930 . S
H960 C957 0.929 . S
S961 N962 1.613 . S
S961 N963 1.610 . S
N962 S961 1.613 . S
N962 C965 1.350 . S
N963 S961 1.610 . S
N963 C964 1.351 . S
C964 C958 1.428 . S
C964 N963 1.351 . S
C964 C965 1.434 . S
C965 C956 1.429 . S
C965 N962 1.350 . S
C965 C964 1.434 . S
C966 C967 1.369 . S
C966 C968 1.419 . S
C966 H970 0.930 . S
C967 C966 1.369 . S
C967 C976 1.429 . S
C968 C966 1.419 . S
C968 C969 1.363 . S
C968 H971 0.929 . S
C969 C968 1.363 . S
C969 C975 1.428 . S
H970 C966 0.930 . S
H971 C968 0.929 . S
S972 N973 1.613 . S
S972 N974 1.610 . S
N973 S972 1.613 . S
N973 C976 1.350 . S
N974 S972 1.610 . S
N974 C975 1.351 . S
C975 C969 1.428 . S
C975 N974 1.351 . S
C975 C976 1.434 . S
C976 C967 1.429 . S
C976 N973 1.350 . S
C976 C975 1.434 . S
C977 C978 1.369 . S
C977 C979 1.419 . S
C977 H981 0.930 . S
C978 C977 1.369 . S
C978 C987 1.429 . S
C979 C977 1.419 . S
C979 C980 1.363 . S
C979 H982 0.929 . S
C980 C979 1.363 . S
C980 C986 1.428 . S
H981 C977 0.930 . S
H982 C979 0.929 . S
S983 N984 1.613 . S
S983 N985 1.610 . S
N984 S983 1.613 . S
N984 C987 1.350 . S
N985 S983 1.610 . S
N985 C986 1.351 . S
C986 C980 1.428 . S
C986 N985 1.351 . S
C986 C987 1.434 . S
C987 C978 1.429 . S
C987 N984 1.350 . S
C987 C986 1.434 . S
C988 C989 1.369 . S
C988 C990 1.419 . S
C988 H992 0.930 . S
C989 C988 1.369 . S
C989 C998 1.429 . S
C990 C988 1.419 . S
C990 C991 1.363 . S
C990 H993 0.929 . S
C991 C990 1.363 . S
C991 C997 1.428 . S
H992 C988 0.930 . S
H993 C990 0.929 . S
S994 N995 1.613 1_554 S
S994 N996 1.610 1_554 S
N995 S994 1.613 1_556 S
N995 C998 1.350 . S
N996 S994 1.610 1_556 S
N996 C997 1.351 . S
C997 C991 1.428 . S
C997 N996 1.351 . S
C997 C998 1.434 . S
C998 C989 1.429 . S
C998 N995 1.350 . S
C998 C997 1.434 . S
C999 C1000 1.369 . S
C999 C1001 1.419 . S
C999 H1003 0.930 . S
C1000 C999 1.369 . S
C1000 C1009 1.429 . S
C1001 C999 1.419 . S
C1001 C1002 1.363 . S
C1001 H1004 0.929 . S
C1002 C1001 1.363 . S
C1002 C1008 1.428 . S
H1003 C999 0.930 . S
H1004 C1001 0.929 . S
S1005 N1006 1.613 . S
S1005 N1007 1.610 . S
N1006 S1005 1.613 . S
N1006 C1009 1.350 . S
N1007 S1005 1.610 . S
N1007 C1008 1.351 . S
C1008 C1002 1.428 . S
C1008 N1007 1.351 . S
C1008 C1009 1.434 . S
C1009 C1000 1.429 . S
C1009 N1006 1.350 . S
C1009 C1008 1.434 . S
C1010 C1011 1.369 . S
C1010 C1012 1.419 . S
C1010 H1014 0.930 . S
C1011 C1010 1.369 . S
C1011 C1020 1.429 . S
C1012 C1010 1.419 . S
C1012 C1013 1.363 . S
C1012 H1015 0.929 . S
C1013 C1012 1.363 . S
C1013 C1019 1.428 . S
H1014 C1010 0.930 . S
H1015 C1012 0.929 . S
S1016 N1017 1.613 . S
S1016 N1018 1.610 . S
N1017 S1016 1.613 . S
N1017 C1020 1.350 . S
N1018 S1016 1.610 . S
N1018 C1019 1.351 . S
C1019 C1013 1.428 . S
C1019 N1018 1.351 . S
C1019 C1020 1.434 . S
C1020 C1011 1.429 . S
C1020 N1017 1.350 . S
C1020 C1019 1.434 . S
C1021 C1022 1.369 . S
C1021 C1023 1.419 . S
C1021 H1025 0.930 . S
C1022 C1021 1.369 . S
C1022 C1031 1.429 . S
C1023 C1021 1.419 . S
C1023 C1024 1.363 . S
C1023 H1026 0.929 . S
C1024 C1023 1.363 . S
C1024 C1030 1.428 . S
H1025 C1021 0.930 . S
H1026 C1023 0.929 . S
S1027 N1028 1.613 . S
S1027 N1029 1.610 . S
N1028 S1027 1.613 . S
N1028 C1031 1.350 . S
N1029 S1027 1.610 . S
N1029 C1030 1.351 . S
C1030 C1024 1.428 . S
C1030 N1029 1.351 . S
C1030 C1031 1.434 . S
C1031 C1022 1.429 . S
C1031 N1028 1.350 . S
C1031 C1030 1.434 . S
C1032 C1033 1.369 . S
C1032 C1034 1.419 1_455 S
C1032 H1036 0.930 . S
C1033 C1032 1.369 . S
C1033 C1042 1.429 . S
C1034 C1032 1.419 1_655 S
C1034 C1035 1.363 . S
C1034 H1037 0.929 . S
C1035 C1034 1.363 . S
C1035 C1041 1.428 . S
H1036 C1032 0.930 . S
H1037 C1034 0.929 . S
S1038 N1039 1.613 . S
S1038 N1040 1.610 1_455 S
N1039 S1038 1.613 . S
N1039 C1042 1.350 . S
N1040 S1038 1.610 1_655 S
N1040 C1041 1.351 . S
C1041 C1035 1.428 . S
C1041 N1040 1.351 . S
C1041 C1042 1.434 1_655 S
C1042 C1033 1.429 . S
C1042 N1039 1.350 . S
C1042 C1041 1.434 1_455 S
C1043 C1044 1.369 . S
C1043 C1045 1.419 . S
C1043 H1047 0.930 . S
C1044 C1043 1.369 . S
C1044 C1053 1.429 . S
C1045 C1043 1.419 . S
C1045 C1046 1.363 . S
C1045 H1048 0.929 . S
C1046 C1045 1.363 . S
C1046 C1052 1.428 . S
H1047 C1043 0.930 . S
H1048 C1045 0.929 . S
S1049 N1050 1.613 . S
S1049 N1051 1.610 . S
N1050 S1049 1.613 . S
N1050 C1053 1.350 . S
N1051 S1049 1.610 . S
N1051 C1052 1.351 . S
C1052 C1046 1.428 . S
C1052 N1051 1.351 . S
C1052 C1053 1.434 . S
C1053 C1044 1.429 . S
C1053 N1050 1.350 . S
C1053 C1052 1.434 . S
C1054 C1055 1.369 . S
C1054 C1056 1.419 1_545 S
C1054 H1058 0.930 . S
C1055 C1054 1.369 . S
C1055 C1064 1.429 . S
C1056 C1054 1.419 1_565 S
C1056 C1057 1.363 . S
C1056 H1059 0.929 . S
C1057 C1056 1.363 . S
C1057 C1063 1.428 . S
H1058 C1054 0.930 . S
H1059 C1056 0.929 . S
S1060 N1061 1.613 1_565 S
S1060 N1062 1.610 . S
N1061 S1060 1.613 1_545 S
N1061 C1064 1.350 . S
N1062 S1060 1.610 . S
N1062 C1063 1.351 . S
C1063 C1057 1.428 . S
C1063 N1062 1.351 . S
C1063 C1064 1.434 1_565 S
C1064 C1055 1.429 . S
C1064 N1061 1.350 . S
C1064 C1063 1.434 1_545 S
C1065 C1066 1.369 . S
C1065 C1067 1.419 1_545 S
C1065 H1069 0.930 . S
C1066 C1065 1.369 . S
C1066 C1075 1.429 . S
C1067 C1065 1.419 1_565 S
C1067 C1068 1.363 . S
C1067 H1070 0.929 . S
C1068 C1067 1.363 . S
C1068 C1074 1.428 . S
H1069 C1065 0.930 . S
H1070 C1067 0.929 . S
S1071 N1072 1.613 . S
S1071 N1073 1.610 1_545 S
N1072 S1071 1.613 . S
N1072 C1075 1.350 . S
N1073 S1071 1.610 1_565 S
N1073 C1074 1.351 . S
C1074 C1068 1.428 . S
C1074 N1073 1.351 . S
C1074 C1075 1.434 1_565 S
C1075 C1066 1.429 . S
C1075 N1072 1.350 . S
C1075 C1074 1.434 1_545 S
C1076 C1077 1.369 . S
C1076 C1078 1.419 1_655 S
C1076 H1080 0.930 . S
C1077 C1076 1.369 . S
C1077 C1086 1.429 . S
C1078 C1076 1.419 1_455 S
C1078 C1079 1.363 . S
C1078 H1081 0.929 . S
C1079 C1078 1.363 . S
C1079 C1085 1.428 . S
H1080 C1076 0.930 . S
H1081 C1078 0.929 . S
S1082 N1083 1.613 1_455 S
S1082 N1084 1.610 . S
N1083 S1082 1.613 1_655 S
N1083 C1086 1.350 . S
N1084 S1082 1.610 . S
N1084 C1085 1.351 . S
C1085 C1079 1.428 . S
C1085 N1084 1.351 . S
C1085 C1086 1.434 1_455 S
C1086 C1077 1.429 . S
C1086 N1083 1.350 . S
C1086 C1085 1.434 1_655 S
C1087 C1088 1.369 . S
C1087 C1089 1.419 . S
C1087 H1091 0.930 . S
C1088 C1087 1.369 . S
C1088 C1097 1.429 . S
C1089 C1087 1.419 . S
C1089 C1090 1.363 . S
C1089 H1092 0.929 . S
C1090 C1089 1.363 . S
C1090 C1096 1.428 . S
H1091 C1087 0.930 . S
H1092 C1089 0.929 . S
S1093 N1094 1.613 . S
S1093 N1095 1.610 . S
N1094 S1093 1.613 . S
N1094 C1097 1.350 . S
N1095 S1093 1.610 . S
N1095 C1096 1.351 . S
C1096 C1090 1.428 . S
C1096 N1095 1.351 . S
C1096 C1097 1.434 . S
C1097 C1088 1.429 . S
C1097 N1094 1.350 . S
C1097 C1096 1.434 . S
C1098 C1099 1.369 . S
C1098 C1100 1.419 . S
C1098 H1102 0.930 . S
C1099 C1098 1.369 . S
C1099 C1108 1.429 . S
C1100 C1098 1.419 . S
C1100 C1101 1.363 . S
C1100 H1103 0.929 . S
C1101 C1100 1.363 . S
C1101 C1107 1.428 . S
H1102 C1098 0.930 . S
H1103 C1100 0.929 . S
S1104 N1105 1.613 . S
S1104 N1106 1.610 . S
N1105 S1104 1.613 . S
N1105 C1108 1.350 . S
N1106 S1104 1.610 . S
N1106 C1107 1.351 . S
C1107 C1101 1.428 . S
C1107 N1106 1.351 . S
C1107 C1108 1.434 . S
C1108 C1099 1.429 . S
C1108 N1105 1.350 . S
C1108 C1107 1.434 . S
C1109 C1110 1.369 . S
C1109 C1111 1.419 . S
C1109 H1113 0.930 . S
C1110 C1109 1.369 . S
C1110 C1119 1.429 . S
C1111 C1109 1.419 . S
C1111 C1112 1.363 . S
C1111 H1114 0.929 . S
C1112 C1111 1.363 . S
C1112 C1118 1.428 . S
H1113 C1109 0.930 . S
H1114 C1111 0.929 . S
S1115 N1116 1.613 . S
S1115 N1117 1.610 . S
N1116 S1115 1.613 . S
N1116 C1119 1.350 . S
N1117 S1115 1.610 . S
N1117 C1118 1.351 . S
C1118 C1112 1.428 . S
C1118 N1117 1.351 . S
C1118 C1119 1.434 . S
C1119 C1110 1.429 . S
C1119 N1116 1.350 . S
C1119 C1118 1.434 . S
C1120 C1121 1.369 . S
C1120 C1122 1.419 . S
C1120 H1124 0.930 . S
C1121 C1120 1.369 . S
C1121 C1130 1.429 . S
C1122 C1120 1.419 . S
C1122 C1123 1.363 . S
C1122 H1125 0.929 . S
C1123 C1122 1.363 . S
C1123 C1129 1.428 . S
H1124 C1120 0.930 . S
H1125 C1122 0.929 . S
S1126 N1127 1.613 . S
S1126 N1128 1.610 . S
N1127 S1126 1.613 . S
N1127 C1130 1.350 . S
N1128 S1126 1.610 . S
N1128 C1129 1.351 . S
C1129 C1123 1.428 . S
C1129 N1128 1.351 . S
C1129 C1130 1.434 . S
C1130 C1121 1.429 . S
C1130 N1127 1.350 . S
C1130 C1129 1.434 . S
C1131 C1132 1.369 . S
C1131 C1133 1.419 . S
C1131 H1135 0.930 . S
C1132 C1131 1.369 . S
C1132 C1141 1.429 . S
C1133 C1131 1.419 . S
C1133 C1134 1.363 . S
C1133 H1136 0.929 . S
C1134 C1133 1.363 . S
C1134 C1140 1.428 . S
H1135 C1131 0.930 . S
H1136 C1133 0.929 . S
S1137 N1138 1.613 . S
S1137 N1139 1.610 . S
N1138 S1137 1.613 . S
N1138 C1141 1.350 . S
N1139 S1137 1.610 . S
N1139 C1140 1.351 . S
C1140 C1134 1.428 . S
C1140 N1139 1.351 . S
C1140 C1141 1.434 . S
C1141 C1132 1.429 . S
C1141 N1138 1.350 . S
C1141 C1140 1.434 . S
C1142 C1143 1.369 . S
C1142 C1144 1.419 . S
C1142 H1146 0.930 . S
C1143 C1142 1.369 . S
C1143 C1152 1.429 . S
C1144 C1142 1.419 . S
C1144 C1145 1.363 . S
C1144 H1147 0.929 . S
C1145 C1144 1.363 . S
C1145 C1151 1.428 . S
H1146 C1142 0.930 . S
H1147 C1144 0.929 . S
S1148 N1149 1.613 . S
S1148 N1150 1.610 . S
N1149 S1148 1.613 . S
N1149 C1152 1.350 . S
N1150 S1148 1.610 . S
N1150 C1151 1.351 . S
C1151 C1145 1.428 . S
C1151 N1150 1.351 . S
C1151 C1152 1.434 . S
C1152 C1143 1.429 . S
C1152 N1149 1.350 . S
C1152 C1151 1.434 . S
C1153 C1154 1.369 . S
C1153 C1155 1.419 . S
C1153 H1157 0.930 . S
C1154 C1153 1.369 . S
C1154 C1163 1.429 . S
C1155 C1153 1.419 . S
C1155 C1156 1.363 . S
C1155 H1158 0.929 . S
C1156 C1155 1.363 . S
C1156 C1162 1.428 . S
H1157 C1153 0.930 . S
H1158 C1155 0.929 . S
S1159 N1160 1.613 . S
S1159 N1161 1.610 . S
N1160 S1159 1.613 . S
N1160 C1163 1.350 . S
N1161 S1159 1.610 . S
N1161 C1162 1.351 . S
C1162 C1156 1.428 . S
C1162 N1161 1.351 . S
C1162 C1163 1.434 . S
C1163 C1154 1.429 . S
C1163 N1160 1.350 . S
C1163 C1162 1.434 . S
C1164 C1165 1.369 . S
C1164 C1166 1.419 . S
C1164 H1168 0.930 . S
C1165 C1164 1.369 . S
C1165 C1174 1.429 . S
C1166 C1164 1.419 . S
C1166 C1167 1.363 . S
C1166 H1169 0.929 . S
C1167 C1166 1.363 . S
C1167 C1173 1.428 . S
H1168 C1164 0.930 . S
H1169 C1166 0.929 . S
S1170 N1171 1.613 . S
S1170 N1172 1.610 . S
N1171 S1170 1.613 . S
N1171 C1174 1.350 . S
N1172 S1170 1.610 . S
N1172 C1173 1.351 . S
C1173 C1167 1.428 . S
C1173 N1172 1.351 . S
C1173 C1174 1.434 . S
C1174 C1165 1.429 . S
C1174 N1171 1.350 . S
C1174 C1173 1.434 . S
C1175 C1176 1.369 . S
C1175 C1177 1.419 . S
C1175 H1179 0.930 . S
C1176 C1175 1.369 . S
C1176 C1185 1.429 . S
C1177 C1175 1.419 . S
C1177 C1178 1.363 . S
C1177 H1180 0.929 . S
C1178 C1177 1.363 . S
C1178 C1184 1.428 . S
H1179 C1175 0.930 . S
H1180 C1177 0.929 . S
S1181 N1182 1.613 . S
S1181 N1183 1.610 . S
N1182 S1181 1.613 . S
N1182 C1185 1.350 . S
N1183 S1181 1.610 . S
N1183 C1184 1.351 . S
C1184 C1178 1.428 . S
C1184 N1183 1.351 . S
C1184 C1185 1.434 . S
C1185 C1176 1.429 . S
C1185 N1182 1.350 . S
C1185 C1184 1.434 . S
C1186 C1187 1.369 . S
C1186 C1188 1.419 . S
C1186 H1190 0.930 . S
C1187 C1186 1.369 . S
C1187 C1196 1.429 . S
C1188 C1186 1.419 . S
C1188 C1189 1.363 . S
C1188 H1191 0.929 . S
C1189 C1188 1.363 . S
C1189 C1195 1.428 . S
H1190 C1186 0.930 . S
H1191 C1188 0.929 . S
S1192 N1193 1.613 . S
S1192 N1194 1.610 . S
N1193 S1192 1.613 . S
N1193 C1196 1.350 . S
N1194 S1192 1.610 . S
N1194 C1195 1.351 . S
C1195 C1189 1.428 . S
C1195 N1194 1.351 . S
C1195 C1196 1.434 . S
C1196 C1187 1.429 . S
C1196 N1193 1.350 . S
C1196 C1195 1.434 . S
C1197 C1198 1.369 . S
C1197 C1199 1.419 . S
C1197 H1201 0.930 . S
C1198 C1197 1.369 . S
C1198 C1207 1.429 . S
C1199 C1197 1.419 . S
C1199 C1200 1.363 . S
C1199 H1202 0.929 . S
C1200 C1199 1.363 . S
C1200 C1206 1.428 . S
H1201 C1197 0.930 . S
H1202 C1199 0.929 . S
S1203 N1204 1.613 . S
S1203 N1205 1.610 . S
N1204 S1203 1.613 . S
N1204 C1207 1.350 1_556 S
N1205 S1203 1.610 . S
N1205 C1206 1.351 1_556 S
C1206 C1200 1.428 . S
C1206 N1205 1.351 1_554 S
C1206 C1207 1.434 . S
C1207 C1198 1.429 . S
C1207 N1204 1.350 1_554 S
C1207 C1206 1.434 . S
C1208 C1209 1.369 . S
C1208 C1210 1.419 . S
C1208 H1212 0.930 . S
C1209 C1208 1.369 . S
C1209 C1218 1.429 . S
C1210 C1208 1.419 . S
C1210 C1211 1.363 . S
C1210 H1213 0.929 . S
C1211 C1210 1.363 . S
C1211 C1217 1.428 . S
H1212 C1208 0.930 . S
H1213 C1210 0.929 . S
S1214 N1215 1.613 . S
S1214 N1216 1.610 . S
N1215 S1214 1.613 . S
N1215 C1218 1.350 1_556 S
N1216 S1214 1.610 . S
N1216 C1217 1.351 1_556 S
C1217 C1211 1.428 . S
C1217 N1216 1.351 1_554 S
C1217 C1218 1.434 . S
C1218 C1209 1.429 . S
C1218 N1215 1.350 1_554 S
C1218 C1217 1.434 . S
C1219 C1220 1.369 . S
C1219 C1221 1.419 . S
C1219 H1223 0.930 . S
C1220 C1219 1.369 . S
C1220 C1229 1.437 . S
C1221 C1219 1.419 . S
C1221 C1222 1.363 . S
C1221 H1224 0.929 . S
C1222 C1221 1.363 . S
C1222 C1228 1.438 . S
H1223 C1219 0.930 . S
H1224 C1221 0.929 . S
S1225 N1226 1.613 . S
S1225 N1227 1.610 . S
N1226 S1225 1.613 . S
N1226 C1229 1.340 1_556 S
N1227 S1225 1.610 . S
N1227 C1228 1.341 1_556 S
C1228 C1222 1.438 . S
C1228 N1227 1.341 1_554 S
C1228 C1229 1.434 . S
C1229 C1220 1.437 . S
C1229 N1226 1.340 1_554 S
C1229 C1228 1.434 . S
C1230 C1231 1.369 . S
C1230 C1232 1.419 . S
C1230 H1234 0.930 . S
C1231 C1230 1.369 . S
C1231 C1240 1.429 . S
C1232 C1230 1.419 . S
C1232 C1233 1.363 . S
C1232 H1235 0.929 . S
C1233 C1232 1.363 . S
C1233 C1239 1.428 . S
H1234 C1230 0.930 . S
H1235 C1232 0.929 . S
S1236 N1237 1.613 . S
S1236 N1238 1.610 . S
N1237 S1236 1.613 . S
N1237 C1240 1.350 1_554 S
N1238 S1236 1.610 . S
N1238 C1239 1.351 1_554 S
C1239 C1233 1.428 . S
C1239 N1238 1.351 1_556 S
C1239 C1240 1.434 . S
C1240 C1231 1.429 . S
C1240 N1237 1.350 1_556 S
C1240 C1239 1.434 . S
C1241 C1242 1.369 . S
C1241 C1243 1.419 . S
C1241 H1245 0.930 . S
C1242 C1241 1.369 . S
C1242 C1251 1.429 . S
C1243 C1241 1.419 . S
C1243 C1244 1.363 . S
C1243 H1246 0.929 . S
C1244 C1243 1.363 . S
C1244 C1250 1.428 . S
H1245 C1241 0.930 . S
H1246 C1243 0.929 . S
S1247 N1248 1.613 . S
S1247 N1249 1.610 . S
N1248 S1247 1.613 . S
N1248 C1251 1.350 . S
N1249 S1247 1.610 . S
N1249 C1250 1.351 . S
C1250 C1244 1.428 . S
C1250 N1249 1.351 . S
C1250 C1251 1.434 . S
C1251 C1242 1.429 . S
C1251 N1248 1.350 . S
C1251 C1250 1.434 . S
C1252 C1253 1.369 . S
C1252 C1254 1.419 . S
C1252 H1256 0.930 1_556 S
C1253 C1252 1.369 . S
C1253 C1262 1.429 . S
C1254 C1252 1.419 . S
C1254 C1255 1.363 . S
C1254 H1257 0.929 1_556 S
C1255 C1254 1.363 . S
C1255 C1261 1.428 . S
H1256 C1252 0.930 1_554 S
H1257 C1254 0.929 1_554 S
S1258 N1259 1.613 . S
S1258 N1260 1.610 . S
N1259 S1258 1.613 . S
N1259 C1262 1.350 . S
N1260 S1258 1.610 . S
N1260 C1261 1.351 . S
C1261 C1255 1.428 . S
C1261 N1260 1.351 . S
C1261 C1262 1.434 . S
C1262 C1253 1.429 . S
C1262 N1259 1.350 . S
C1262 C1261 1.434 . S
C1263 C1264 1.369 . S
C1263 C1265 1.419 . S
C1263 H1267 0.930 . S
C1264 C1263 1.369 . S
C1264 C1273 1.429 . S
C1265 C1263 1.419 . S
C1265 C1266 1.363 . S
C1265 H1268 0.929 . S
C1266 C1265 1.363 . S
C1266 C1272 1.428 . S
H1267 C1263 0.930 . S
H1268 C1265 0.929 . S
S1269 N1270 1.613 . S
S1269 N1271 1.610 . S
N1270 S1269 1.613 . S
N1270 C1273 1.350 . S
N1271 S1269 1.610 . S
N1271 C1272 1.351 . S
C1272 C1266 1.428 . S
C1272 N1271 1.351 . S
C1272 C1273 1.434 . S
C1273 C1264 1.429 . S
C1273 N1270 1.350 . S
C1273 C1272 1.434 . S
C1274 C1275 1.369 . S
C1274 C1276 1.419 . S
C1274 H1278 0.930 . S
C1275 C1274 1.369 . S
C1275 C1284 1.429 . S
C1276 C1274 1.419 . S
C1276 C1277 1.363 . S
C1276 H1279 0.929 . S
C1277 C1276 1.363 . S
C1277 C1283 1.428 . S
H1278 C1274 0.930 . S
H1279 C1276 0.929 . S
S1280 N1281 1.613 . S
S1280 N1282 1.610 . S
N1281 S1280 1.613 . S
N1281 C1284 1.350 . S
N1282 S1280 1.610 . S
N1282 C1283 1.351 . S
C1283 C1277 1.428 . S
C1283 N1282 1.351 . S
C1283 C1284 1.434 . S
C1284 C1275 1.429 . S
C1284 N1281 1.350 . S
C1284 C1283 1.434 . S
C1285 C1286 1.369 . S
C1285 C1287 1.419 . S
C1285 H1289 0.930 . S
C1286 C1285 1.369 . S
C1286 C1295 1.429 . S
C1287 C1285 1.419 . S
C1287 C1288 1.363 . S
C1287 H1290 0.929 . S
C1288 C1287 1.363 . S
C1288 C1294 1.428 . S
H1289 C1285 0.930 . S
H1290 C1287 0.929 . S
S1291 N1292 1.613 . S
S1291 N1293 1.610 . S
N1292 S1291 1.613 . S
N1292 C1295 1.350 . S
N1293 S1291 1.610 . S
N1293 C1294 1.351 . S
C1294 C1288 1.428 . S
C1294 N1293 1.351 . S
C1294 C1295 1.434 . S
C1295 C1286 1.429 . S
C1295 N1292 1.350 . S
C1295 C1294 1.434 . S
C505 C81 1.490 . S
C507 C11 1.489 . S
C516 C53 1.492 . S
C518 C25 1.491 . S
C527 C39 1.492 . S
C529 C67 1.491 . S
C538 C95 1.492 . S
C540 C165 1.491 . S
C549 C109 1.487 . S
C551 C137 1.489 . S
C560 C151 1.492 . S
C562 C123 1.491 . S
C571 C179 1.492 . S
C573 C249 1.492 . S
C582 C193 1.489 . S
C584 C221 1.490 . S
C593 C207 1.488 . S
C595 C235 1.489 . S
C604 C333 1.489 . S
C606 C263 1.491 . S
C615 C277 1.487 . S
C617 C305 1.489 . S
C626 C319 1.488 . S
C628 C291 1.490 . S
C637 C417 1.487 . S
C639 C347 1.489 . S
C648 C389 1.487 . S
C650 C361 1.488 . S
C659 C403 1.490 . S
C661 C375 1.491 . S
C670 C431 1.490 . S
C672 C501 1.488 . S
C681 C445 1.488 . S
C683 C473 1.490 . S
C692 C459 1.487 . S
C694 C487 1.487 . S
C703 C79 1.593 . S
C705 C9 1.593 . S
C714 C23 1.592 . S
C716 C51 1.592 . S
C725 C65 1.592 . S
C727 C37 1.592 . S
C736 C93 1.592 . S
C738 C163 1.592 . S
C747 C107 1.593 . S
C749 C135 1.593 . S
C758 C149 1.592 . S
C760 C121 1.592 . S
C769 C177 1.592 . S
C771 C247 1.592 . S
C780 C219 1.593 . S
C782 C191 1.593 . S
C791 C233 1.592 . S
C793 C205 1.592 . S
C802 C261 1.593 . S
C804 C331 1.593 . S
C813 C275 1.593 . S
C815 C303 1.593 . S
C824 C317 1.592 . S
C826 C289 1.592 . S
C835 C415 1.592 . S
C837 C345 1.592 . S
C846 C359 1.593 . S
C848 C387 1.593 . S
C857 C373 1.593 . S
C859 C401 1.593 . S
C868 C499 1.592 . S
C870 C429 1.593 . S
C879 C471 1.592 . S
C881 C443 1.593 . S
C890 C485 1.592 . S
C892 C457 1.592 . S
C901 C229 1.612 . S
C903 C5 1.611 . S
C912 C243 1.611 . S
C914 C19 1.612 . S
C923 C215 1.612 . S
C925 C33 1.611 . S
C934 C47 1.612 . S
C936 C369 1.611 . S
C945 C61 1.611 . S
C947 C341 1.611 . S
C956 C75 1.611 . S
C958 C355 1.612 . S
C967 C89 1.611 . S
C969 C481 1.612 . S
C978 C103 1.611 . S
C980 C495 1.612 . S
C989 C117 1.612 . S
C991 C467 1.611 . S
C1000 C131 1.612 . S
C1002 C285 1.611 . S
C1011 C257 1.612 . S
C1013 C145 1.611 . S
C1022 C271 1.612 . S
C1024 C159 1.611 . S
C1033 C397 1.612 . S
C1035 C173 1.611 . S
C1044 C187 1.611 . S
C1046 C411 1.612 . S
C1055 C201 1.611 . S
C1057 C383 1.612 . S
C1066 C299 1.612 . S
C1068 C453 1.611 . S
C1077 C313 1.611 . S
C1079 C425 1.612 . S
C1088 C439 1.611 . S
C1090 C327 1.612 . S
C1099 C0 1.370 . S
C1101 C140 1.370 . S
C1110 C154 1.367 . S
C1112 C14 1.368 . S
C1121 C126 1.367 . S
C1123 C28 1.368 . S
C1132 C42 1.372 . S
C1134 C112 1.371 . S
C1143 C56 1.372 . S
C1145 C84 1.371 . S
C1154 C70 1.369 . S
C1156 C98 1.369 . S
C1165 C168 1.372 . S
C1167 C308 1.372 . S
C1176 C322 1.366 . S
C1178 C182 1.367 . S
C1187 C294 1.368 . S
C1189 C196 1.368 . S
C1198 C210 1.372 . S
C1200 C280 1.371 . S
C1209 C224 1.373 . S
C1211 C252 1.372 . S
C1220 C266 1.371 . S
C1222 C238 1.371 . S
C1231 C336 1.372 . S
C1233 C476 1.372 . S
C1242 C490 1.371 . S
C1244 C350 1.371 . S
C1253 C364 1.366 . S
C1255 C462 1.367 . S
C1264 C378 1.366 . S
C1266 C448 1.367 . S
C1275 C420 1.369 . S
C1277 C392 1.369 . S
C1286 C406 1.373 . S
C1288 C434 1.372 . S
