# Generated by pormake.
# Topology unf, (4)-cn, num edge types: 1
# Building blocks:
#     Node 0, Type 0, BuildingBlock: KUFVIS_clean_sbu_0, # of connection points: 4
#     Node 1, Type 0, BuildingBlock: KUFVIS_clean_sbu_0, # of connection points: 4
#     Node 2, Type 0, BuildingBlock: KUFVIS_clean_sbu_0, # of connection points: 4
#     Node 3, Type 0, BuildingBlock: KUFVIS_clean_sbu_0, # of connection points: 4
#     Node 4, Type 0, BuildingBlock: KUFVIS_clean_sbu_0, # of connection points: 4
#     Node 5, Type 0, BuildingBlock: KUFVIS_clean_sbu_0, # of connection points: 4
#     Node 6, Type 0, BuildingBlock: KUFVIS_clean_sbu_0, # of connection points: 4
#     Node 7, Type 0, BuildingBlock: KUFVIS_clean_sbu_0, # of connection points: 4
#     Node 8, Type 0, BuildingBlock: KUFVIS_clean_sbu_0, # of connection points: 4
#     Node 9, Type 0, BuildingBlock: KUFVIS_clean_sbu_0, # of connection points: 4
#     Node 10, Type 0, BuildingBlock: KUFVIS_clean_sbu_0, # of connection points: 4
#     Node 11, Type 0, BuildingBlock: KUFVIS_clean_sbu_0, # of connection points: 4
#     Edge 12, Type (0, 0), BuildingBlock: EZIPEK_clean_linker_0, # of connection points: 2
#     Edge 13, Type (0, 0), BuildingBlock: EZIPEK_clean_linker_0, # of connection points: 2
#     Edge 14, Type (0, 0), BuildingBlock: EZIPEK_clean_linker_0, # of connection points: 2
#     Edge 15, Type (0, 0), BuildingBlock: EZIPEK_clean_linker_0, # of connection points: 2
#     Edge 16, Type (0, 0), BuildingBlock: EZIPEK_clean_linker_0, # of connection points: 2
#     Edge 17, Type (0, 0), BuildingBlock: EZIPEK_clean_linker_0, # of connection points: 2
#     Edge 18, Type (0, 0), BuildingBlock: EZIPEK_clean_linker_0, # of connection points: 2
#     Edge 19, Type (0, 0), BuildingBlock: EZIPEK_clean_linker_0, # of connection points: 2
#     Edge 20, Type (0, 0), BuildingBlock: EZIPEK_clean_linker_0, # of connection points: 2
#     Edge 21, Type (0, 0), BuildingBlock: EZIPEK_clean_linker_0, # of connection points: 2
#     Edge 22, Type (0, 0), BuildingBlock: EZIPEK_clean_linker_0, # of connection points: 2
#     Edge 23, Type (0, 0), BuildingBlock: EZIPEK_clean_linker_0, # of connection points: 2
#     Edge 24, Type (0, 0), BuildingBlock: EZIPEK_clean_linker_0, # of connection points: 2
#     Edge 25, Type (0, 0), BuildingBlock: EZIPEK_clean_linker_0, # of connection points: 2
#     Edge 26, Type (0, 0), BuildingBlock: EZIPEK_clean_linker_0, # of connection points: 2
#     Edge 27, Type (0, 0), BuildingBlock: EZIPEK_clean_linker_0, # of connection points: 2
#     Edge 28, Type (0, 0), BuildingBlock: EZIPEK_clean_linker_0, # of connection points: 2
#     Edge 29, Type (0, 0), BuildingBlock: EZIPEK_clean_linker_0, # of connection points: 2
#     Edge 30, Type (0, 0), BuildingBlock: EZIPEK_clean_linker_0, # of connection points: 2
#     Edge 31, Type (0, 0), BuildingBlock: EZIPEK_clean_linker_0, # of connection points: 2
#     Edge 32, Type (0, 0), BuildingBlock: EZIPEK_clean_linker_0, # of connection points: 2
#     Edge 33, Type (0, 0), BuildingBlock: EZIPEK_clean_linker_0, # of connection points: 2
#     Edge 34, Type (0, 0), BuildingBlock: EZIPEK_clean_linker_0, # of connection points: 2
#     Edge 35, Type (0, 0), BuildingBlock: EZIPEK_clean_linker_0, # of connection points: 2
# Relax obj value: 0.236
# Max RMSD: 0.189
# Mean RMSD: 0.182
data_MOF--net-unf--node1-KUFVIS_clean_sbu_0--edge1-EZIPEK_clean_linker_0
_symmetry_space_group_name_H-M    P1
_symmetry_Int_Tables_number       1
_symmetry_cell_setting            triclinic
loop_
_symmetry_equiv_pos_as_xyz
'x, y, z'
_cell_length_a     28.36022
_cell_length_b     28.559115
_cell_length_c     26.301345
_cell_angle_alpha  90.184997
_cell_angle_beta   89.62534
_cell_angle_gamma 119.61594
loop_
_atom_site_label
_atom_site_type_symbol
_atom_site_fract_x
_atom_site_fract_y
_atom_site_fract_z
_atom_type_partial_charge
Mn0 Mn 0.0692 0.38936 0.06299 0.0
Mn1 Mn 0.04304 0.27115 0.11593 0.0
C2 C -0.00535 0.30895 0.03748 0.0
C3 C 0.0502 0.45814 0.04671 0.0
C4 C 0.13016 0.3299 0.03475 0.0
O5 O 0.11695 0.41465 0.12869 0.0
O6 O 0.09222 0.33204 0.16011 0.0
C7 C 0.98113 0.27352 0.20614 0.0
N8 N 0.98417 0.24841 0.16313 0.0
C9 C 0.89446 0.17369 0.17732 0.0
C10 C 0.89044 0.19866 0.22185 0.0
C11 C 0.93391 0.24888 0.23622 0.0
C12 C 0.94233 0.20045 0.14864 0.0
H13 H 0.01447 0.31208 0.21736 0.0
C14 C 0.12056 0.38341 0.16207 0.0
O15 O 0.09627 0.46259 0.03288 0.0
O16 O 0.02232 0.42114 0.0802 0.0
N17 N -0.00433 0.20816 0.07809 0.0
C18 C 0.00705 0.18841 0.03538 0.0
C19 C 0.96835 0.13789 0.01659 0.0
C20 C 0.91896 0.10785 0.0425 0.0
C21 C 0.9084 0.12849 0.08679 0.0
C22 C 0.94867 0.17888 0.10392 0.0
H23 H 0.04557 0.21082 0.01608 0.0
O24 O 0.01639 0.35038 0.00798 0.0
O25 O 0.01777 0.31486 0.08136 0.0
O26 O 0.1232 0.37036 0.03028 0.0
O27 O 0.10348 0.2914 0.06626 0.0
C28 C 0.85999 0.10058 0.11514 0.0
C29 C 0.85289 0.12333 0.16025 0.0
H30 H 0.85418 0.17967 0.24528 0.0
H31 H 0.93109 0.26844 0.27051 0.0
H32 H 0.97683 0.12164 0.98276 0.0
H33 H 0.89016 0.06835 0.02884 0.0
H34 H 0.82798 0.06163 0.1026 0.0
H35 H 0.81541 0.10165 0.18163 0.0
Mn36 Mn 0.59816 0.68444 0.06459 0.0
Mn37 Mn 0.71892 0.78134 0.10979 0.0
C38 C 0.67858 0.68948 0.03747 0.0
C39 C 0.52709 0.59421 0.05649 0.0
C40 C 0.65414 0.80262 0.03129 0.0
O41 O 0.57515 0.70944 0.13007 0.0
O42 O 0.65906 0.77042 0.1567 0.0
C43 C 0.7285 0.73268 0.20502 0.0
N44 N 0.74883 0.75474 0.1587 0.0
C45 C 0.83445 0.76041 0.17657 0.0
C46 C 0.81471 0.73848 0.22462 0.0
C47 C 0.76134 0.72391 0.2388 0.0
C48 C 0.79992 0.76826 0.14459 0.0
H49 H 0.68794 0.72273 0.21637 0.0
C50 C 0.60738 0.74566 0.16177 0.0
O51 O 0.52331 0.63463 0.03879 0.0
O52 O 0.56801 0.60765 0.08645 0.0
N53 N 0.77998 0.79503 0.06836 0.0
C54 C 0.7903 0.8107 0.01884 0.0
C55 C 0.84002 0.82157 -0.0031 0.0
C56 C 0.87915 0.81824 0.02664 0.0
C57 C 0.86723 0.80135 0.07738 0.0
C58 C 0.8163 0.7892 0.09654 0.0
H59 H 0.76033 0.81381 -0.00382 0.0
O60 O 0.63533 0.66734 0.00992 0.0
O61 O 0.67439 0.70972 0.0805 0.0
O62 O 0.61373 0.75505 0.02874 0.0
O63 O 0.69443 0.81556 0.06026 0.0
C64 C 0.90321 0.79483 0.10939 0.0
C65 C 0.88698 0.77473 0.15915 0.0
H66 H 0.8406 0.73317 0.25069 0.0
H67 H 0.74568 0.70683 0.27583 0.0
H68 H 0.84844 0.83291 0.95727 0.0
H69 H 0.91786 0.82816 0.00986 0.0
H70 H 0.94302 0.80423 0.09595 0.0
H71 H 0.91471 0.76925 0.18327 0.0
Mn72 Mn 0.29291 0.92098 0.07464 0.0
Mn73 Mn 0.31342 0.81544 0.06947 0.0
C74 C 0.3812 0.93626 0.06651 0.0
C75 C 0.2873 0.99192 0.03728 0.0
C76 C 0.26367 0.84194 0.16198 0.0
O77 O 0.22049 0.85894 0.04831 0.0
O78 O 0.24367 0.7941 0.0344 0.0
C79 C 0.32919 0.80453 0.95956 0.0
N80 N 0.34955 0.81609 0.00754 0.0
C81 C 0.43861 0.83889 0.97722 0.0
C82 C 0.41887 0.82851 0.92735 0.0
C83 C 0.36379 0.81084 0.91853 0.0
C84 C 0.40212 0.83175 0.01657 0.0
H85 H 0.28694 0.79077 0.95268 0.0
C86 C 0.21046 0.8124 0.03178 0.0
O87 O 0.2675 0.97445 0.08228 0.0
O88 O 0.30413 0.96413 0.01179 0.0
N89 N 0.38086 0.83434 0.10178 0.0
C90 C 0.39274 0.83988 0.15226 0.0
C91 C 0.4456 0.85467 0.16787 0.0
C92 C 0.48561 0.86369 0.13132 0.0
C93 C 0.47214 0.85683 0.07964 0.0
C94 C 0.41859 0.841 0.06651 0.0
H95 H 0.36205 0.8328 0.18032 0.0
O96 O 0.37164 0.97049 0.09051 0.0
O97 O 0.33779 0.89119 0.0557 0.0
O98 O 0.27525 0.88862 0.14661 0.0
O99 O 0.27513 0.8109 0.13574 0.0
C100 C 0.50977 0.86522 0.04061 0.0
C101 C 0.4931 0.85633 0.98943 0.0
H102 H 0.44552 0.83363 0.8956 0.0
H103 H 0.34809 0.80226 0.8802 0.0
H104 H 0.45554 0.85938 0.20789 0.0
H105 H 0.52644 0.87557 0.14324 0.0
H106 H 0.55163 0.87863 0.04949 0.0
H107 H 0.52247 0.86283 0.95982 0.0
Mn108 Mn 0.59008 0.91538 0.41472 0.0
Mn109 Mn 0.47353 0.80173 0.43855 0.0
C110 C 0.51079 0.92 0.42356 0.0
C111 C 0.66535 0.99429 0.44378 0.0
C112 C 0.53908 0.82088 0.34089 0.0
O113 O 0.61464 0.86637 0.4461 0.0
O114 O 0.53385 0.79662 0.47198 0.0
C115 C 0.45922 0.80761 0.54985 0.0
N116 N 0.44212 0.8071 0.50155 0.0
C117 C 0.36197 0.80713 0.53242 0.0
C118 C 0.38013 0.81012 0.58238 0.0
C119 C 0.42898 0.81027 0.59112 0.0
C120 C 0.39513 0.80694 0.49275 0.0
H121 H 0.49547 0.80584 0.55671 0.0
C122 C 0.58592 0.82084 0.46783 0.0
O123 O 0.66695 0.97267 0.40076 0.0
O124 O 0.62133 0.96824 0.47003 0.0
N125 N 0.41357 0.80266 0.40713 0.0
C126 C 0.39891 0.79301 0.3573 0.0
C127 C 0.34689 0.78172 0.34302 0.0
C128 C 0.31076 0.78103 0.38 0.0
C129 C 0.3275 0.79384 0.43054 0.0
C130 C 0.37927 0.80296 0.44284 0.0
H131 H 0.42565 0.79129 0.32892 0.0
O132 O 0.54992 0.95379 0.39429 0.0
O133 O 0.51686 0.88022 0.43896 0.0
O134 O 0.57227 0.87045 0.3498 0.0
O135 O 0.50106 0.79161 0.37188 0.0
C136 C 0.29359 0.7944 0.46965 0.0
C137 C 0.31131 0.80218 0.52052 0.0
H138 H 0.35621 0.81086 0.61433 0.0
H139 H 0.44278 0.8114 0.6296 0.0
H140 H 0.334 0.77174 0.30393 0.0
H141 H 0.26946 0.76784 0.36958 0.0
H142 H 0.25353 0.78809 0.46111 0.0
H143 H 0.28478 0.80215 0.55037 0.0
Mn144 Mn 0.06676 0.69253 0.43439 0.0
Mn145 Mn 0.03122 0.77614 0.37769 0.0
C146 C -0.00622 0.70005 0.46479 0.0
C147 C 0.04856 0.60276 0.44689 0.0
C148 C 0.12484 0.81439 0.45079 0.0
O149 O 0.11125 0.71134 0.36711 0.0
O150 O 0.08057 0.76354 0.3324 0.0
C151 C 0.96064 0.69334 0.30378 0.0
N152 N 0.96815 0.73176 0.33848 0.0
C153 C 0.87368 0.70625 0.33602 0.0
C154 C 0.86513 0.66683 0.29962 0.0
C155 C 0.90887 0.66042 0.28337 0.0
C156 C 0.926 0.73719 0.35538 0.0
H157 H -0.00647 0.68676 0.29332 0.0
C158 C 0.11183 0.74296 0.332 0.0
O159 O 0.09316 0.64395 0.46296 0.0
O160 O 0.01974 0.61497 0.41778 0.0
N161 N 0.98572 0.79502 0.41596 0.0
C162 C 0.00081 0.83368 0.45253 0.0
C163 C 0.96315 0.84812 0.47058 0.0
C164 C 0.91064 0.82313 0.45044 0.0
C165 C 0.89603 0.78354 0.41285 0.0
C166 C 0.93591 0.77224 0.39513 0.0
H167 H 0.04162 0.85419 0.46711 0.0
O168 O 0.01737 0.68125 0.49329 0.0
O169 O 0.01332 0.71365 0.41913 0.0
O170 O 0.12115 0.76859 0.45982 0.0
O171 O 0.09337 0.82114 0.42086 0.0
C172 C 0.84373 0.75517 0.39192 0.0
C173 C 0.83217 0.71539 0.35463 0.0
H174 H 0.82515 0.64121 0.28404 0.0
H175 H 0.90251 0.62966 0.25581 0.0
H176 H 0.97482 0.87912 0.49924 0.0
H177 H 0.88256 0.83587 0.46308 0.0
H178 H 0.81186 0.7626 0.40523 0.0
H179 H 0.79112 0.69162 0.34094 0.0
Mn180 Mn 0.29761 0.39589 0.42912 0.0
Mn181 Mn 0.22081 0.28431 0.36017 0.0
C182 C 0.29501 0.31615 0.4499 0.0
C183 C 0.38284 0.46624 0.45139 0.0
C184 C 0.17334 0.32799 0.43881 0.0
O185 O 0.28018 0.42746 0.36554 0.0
O186 O 0.2338 0.34945 0.32197 0.0
C187 C 0.29996 0.30173 0.27855 0.0
N188 N 0.26589 0.27007 0.31595 0.0
C189 C 0.28578 0.19923 0.29684 0.0
C190 C 0.32043 0.23077 0.25748 0.0
C191 C 0.32779 0.28242 0.2485 0.0
C192 C 0.25912 0.22068 0.32544 0.0
H193 H 0.306 0.34145 0.2721 0.0
C194 C 0.25225 0.40027 0.32704 0.0
O195 O 0.33901 0.46637 0.46625 0.0
O196 O 0.37698 0.43238 0.41588 0.0
N197 N 0.20436 0.21805 0.39282 0.0
C198 C 0.17295 0.19461 0.43466 0.0
C199 C 0.16374 0.14386 0.45064 0.0
C200 C 0.18636 0.11747 0.42304 0.0
C201 C 0.21845 0.14236 0.38002 0.0
C202 C 0.22641 0.19304 0.36612 0.0
H203 H 0.15605 0.21505 0.45619 0.0
O204 O 0.30989 0.35473 0.48229 0.0
O205 O 0.28225 0.32534 0.4049 0.0
O206 O 0.21872 0.3664 0.45453 0.0
O207 O 0.17132 0.2961 0.40397 0.0
C208 C 0.24358 0.1193 0.35079 0.0
C209 C 0.27729 0.14772 0.30931 0.0
H210 H 0.34205 0.21599 0.23435 0.0
H211 H 0.35489 0.3073 0.21856 0.0
H212 H 0.13936 0.12518 0.48418 0.0
H213 H 0.17916 0.07834 0.4354 0.0
H214 H 0.23796 0.08009 0.36017 0.0
H215 H 0.2971 0.1299 0.28773 0.0
Mn216 Mn 0.91318 0.6068 0.92559 0.0
Mn217 Mn 0.95477 0.73535 0.89405 0.0
C218 C -0.00917 0.67665 0.96152 0.0
C219 C 0.92477 0.53247 0.92952 0.0
C220 C 0.85885 0.66918 0.96398 0.0
O221 O 0.87034 0.59798 0.85847 0.0
O222 O 0.9045 0.68649 0.84121 0.0
C223 C 0.01955 0.73761 0.80526 0.0
N224 N 0.01582 0.75999 0.84981 0.0
C225 C 0.11102 0.82469 0.84821 0.0
C226 C 0.11611 0.80096 0.80317 0.0
C227 C 0.07013 0.75778 0.78128 0.0
C228 C 0.05974 0.80182 0.87111 0.0
H229 H 0.98455 0.70326 0.78922 0.0
C230 C 0.87181 0.6367 0.83178 0.0
O231 O 0.87881 0.52866 0.94284 0.0
O232 O 0.95613 0.57341 0.90112 0.0
N233 N 0.00409 0.78672 0.94158 0.0
C234 C -0.00491 0.79472 0.99093 0.0
C235 C 0.03757 0.83507 0.01935 0.0
C236 C 0.08885 0.86634 -0.00312 0.0
C237 C 0.09735 0.85675 0.94627 0.0
C238 C 0.05329 0.81656 0.91954 0.0
H239 H 0.95611 0.76961 0.00866 0.0
O240 O 0.96308 0.63141 0.98501 0.0
O241 O 0.97055 0.68068 0.9187 0.0
O242 O 0.86145 0.62607 0.96192 0.0
O243 O 0.89173 0.71261 0.94065 0.0
C244 C 0.14846 0.88353 0.92219 0.0
C245 C 0.15538 0.86727 0.87332 0.0
H246 H 0.15533 0.81388 0.78591 0.0
H247 H 0.07396 0.7393 0.74667 0.0
H248 H 0.03125 0.84153 0.05875 0.0
H249 H 0.12178 0.89645 0.01932 0.0
H250 H 0.1833 0.91475 0.94195 0.0
H251 H 0.19566 0.88581 0.85681 0.0
Mn252 Mn 0.38283 0.31193 0.91811 0.0
Mn253 Mn 0.26552 0.21381 0.86816 0.0
C254 C 0.30082 0.30349 0.94366 0.0
C255 C 0.45311 0.40214 0.92989 0.0
C256 C 0.32266 0.19263 0.95307 0.0
O257 O 0.41104 0.29066 0.85418 0.0
O258 O 0.33038 0.2201 0.83181 0.0
C259 C 0.2769 0.26603 0.76843 0.0
N260 N 0.24758 0.24366 0.8116 0.0
C261 C 0.1724 0.25138 0.77997 0.0
C262 C 0.20177 0.27418 0.73514 0.0
C263 C 0.25429 0.28178 0.7294 0.0
C264 C 0.19713 0.23656 0.8176 0.0
H265 H 0.31706 0.27153 0.76353 0.0
C266 C 0.38181 0.24942 0.82618 0.0
O267 O 0.45617 0.36128 0.9475 0.0
O268 O 0.41349 0.3894 0.89846 0.0
N269 N 0.19864 0.20264 0.89748 0.0
C270 C 0.17547 0.17987 0.94287 0.0
C271 C 0.12364 0.17152 0.9553 0.0
C272 C 0.09529 0.18496 0.92009 0.0
C273 C 0.11903 0.20659 0.87289 0.0
C274 C 0.17119 0.21482 0.86302 0.0
H275 H 0.19629 0.16807 0.96918 0.0
O276 O 0.34371 0.32646 0.97151 0.0
O277 O 0.30661 0.28554 0.89953 0.0
O278 O 0.36452 0.23966 0.95242 0.0
O279 O 0.28073 0.17959 0.92595 0.0
C280 C 0.09299 0.22044 0.83528 0.0
C281 C 0.11967 0.24281 0.78888 0.0
H282 H 0.18461 0.28612 0.70488 0.0
H283 H 0.27711 0.29939 0.69484 0.0
H284 H 0.10535 0.15419 0.99166 0.0
H285 H 0.05522 0.17828 0.92942 0.0
H286 H 0.0526 0.21441 0.8418 0.0
H287 H 0.09918 0.25329 0.76047 0.0
Mn288 Mn 0.67389 0.07584 0.928 0.0
Mn289 Mn 0.77215 0.05581 0.87708 0.0
C290 C 0.68443 0.00375 0.9531 0.0
C291 C 0.58319 0.05122 0.94625 0.0
C292 C 0.7948 0.13944 0.95577 0.0
O293 O 0.69065 0.12053 0.86179 0.0
O294 O 0.76156 0.10973 0.83726 0.0
C295 C 0.72938 0.00964 0.77619 0.0
N296 N 0.7455 0.0042 0.82334 0.0
C297 C 0.75122 0.92633 0.79711 0.0
C298 C 0.73618 0.93225 0.74818 0.0
C299 C 0.72422 0.97338 0.73766 0.0
C300 C 0.7566 0.96423 0.83363 0.0
H301 H 0.72311 0.04284 0.76748 0.0
C302 C 0.73178 0.1319 0.83278 0.0
O303 O 0.62283 0.09833 0.95883 0.0
O304 O 0.5955 0.02452 0.91392 0.0
N305 N 0.78571 0.0053 0.9121 0.0
C306 C 0.80532 0.00881 0.9599 0.0
C307 C 0.81723 0.96934 0.97688 0.0
C308 C 0.81039 0.92782 0.94391 0.0
C309 C 0.7899 0.92484 0.89502 0.0
C310 C 0.77717 0.96443 0.88085 0.0
H311 H 0.81091 0.04108 0.98499 0.0
O312 O 0.66525 0.02601 0.98341 0.0
O313 O 0.7005 0.02625 0.90863 0.0
O314 O 0.7478 0.13523 0.95625 0.0
O315 O 0.80587 0.10798 0.93106 0.0
C316 C 0.7826 0.88486 0.8595 0.0
C317 C 0.76386 0.88599 0.81025 0.0
H318 H 0.73653 0.90697 0.71814 0.0
H319 H 0.71317 0.9784 0.69957 0.0
H320 H 0.83239 0.97129 0.01492 0.0
H321 H 0.82176 0.89897 0.95624 0.0
H322 H 0.79221 0.85372 0.86934 0.0
H323 H 0.75976 0.85597 0.78264 0.0
Mn324 Mn 0.37862 0.08009 0.55795 0.0
Mn325 Mn 0.26557 0.06294 0.61631 0.0
C326 C 0.29474 0.01243 0.53355 0.0
C327 C 0.4403 0.05067 0.53761 0.0
C328 C 0.32079 0.14481 0.53538 0.0
O329 O 0.4111 0.12304 0.62399 0.0
O330 O 0.33296 0.11836 0.65067 0.0
C331 C 0.27983 0.01752 0.71174 0.0
N332 N 0.24992 0.01242 0.66971 0.0
C333 C 0.17854 0.92614 0.69735 0.0
C334 C 0.20869 0.93078 0.74093 0.0
C335 C 0.25958 0.97644 0.74813 0.0
C336 C 0.20094 0.9684 0.66234 0.0
H337 H 0.31845 0.05287 0.71784 0.0
C338 C 0.38435 0.13727 0.65386 0.0
O339 O 0.44974 0.09839 0.52406 0.0
O340 O 0.40201 0.02594 0.57069 0.0
N341 N 0.1976 0.01057 0.58812 0.0
C342 C 0.17163 0.01489 0.54649 0.0
C343 C 0.12016 0.9722 0.5338 0.0
C344 C 0.09511 0.92643 0.56512 0.0
C345 C 0.12157 0.92404 0.60903 0.0
C346 C 0.17319 0.96741 0.61921 0.0
H347 H 0.19026 0.05051 0.52298 0.0
O348 O 0.33482 0.03327 0.5019 0.0
O349 O 0.30384 0.03298 0.57907 0.0
O350 O 0.36392 0.14087 0.53368 0.0
O351 O 0.27872 0.11329 0.5611 0.0
C352 C 0.0984 0.88077 0.64359 0.0
C353 C 0.12684 0.88184 0.68771 0.0
H354 H 0.19311 0.90012 0.76953 0.0
H355 H 0.28281 0.98021 0.78191 0.0
H356 H 0.09966 0.97477 0.50026 0.0
H357 H 0.0552 0.89379 0.55566 0.0
H358 H 0.05848 0.84677 0.63703 0.0
H359 H 0.10825 0.84862 0.71409 0.0
Mn360 Mn 0.89987 0.31019 0.56023 0.0
Mn361 Mn 0.92285 0.21117 0.59959 0.0
C362 C 0.96937 0.30013 0.52348 0.0
C363 C 0.92389 0.40215 0.55885 0.0
C364 C 0.83064 0.19254 0.52855 0.0
O365 O 0.85507 0.28457 0.62832 0.0
O366 O 0.88068 0.22466 0.65233 0.0
C367 C -0.00112 0.27919 0.6791 0.0
N368 N -0.01231 0.24544 0.6387 0.0
C369 C 0.08067 0.26604 0.63266 0.0
C370 C 0.09335 0.30185 0.67358 0.0
C371 C 0.0522 0.308 0.69724 0.0
C372 C 0.02712 0.23965 0.61544 0.0
H373 H 0.96772 0.28552 0.69614 0.0
C374 C 0.85298 0.24842 0.65915 0.0
O375 O 0.87766 0.36445 0.54174 0.0
O376 O 0.95131 0.38492 0.58424 0.0
N377 N 0.9626 0.19145 0.55383 0.0
C378 C 0.9431 0.15599 0.51434 0.0
C379 C 0.97706 0.13991 0.49015 0.0
C380 C 0.03073 0.16063 0.50668 0.0
C381 C 0.04961 0.19667 0.54768 0.0
C382 C 0.01307 0.20901 0.57183 0.0
H383 H 0.90168 0.13942 0.50187 0.0
O384 O 0.9496 0.32622 0.50017 0.0
O385 O 0.94769 0.28059 0.56746 0.0
O386 O 0.84141 0.24148 0.52565 0.0
O387 O 0.85719 0.17651 0.55604 0.0
C388 C 0.1031 0.22063 0.56571 0.0
C389 C 0.11918 0.25674 0.60712 0.0
H390 H 0.13456 0.3255 0.68687 0.0
H391 H 0.06178 0.33565 0.72876 0.0
H392 H 0.96204 0.11189 0.45867 0.0
H393 H 0.0571 0.14885 0.48741 0.0
H394 H 0.13214 0.21197 0.54743 0.0
H395 H 0.16108 0.27673 0.61906 0.0
Mn396 Mn 0.67377 0.61401 0.57154 0.0
Mn397 Mn 0.75647 0.73841 0.61698 0.0
C398 C 0.6739 0.68866 0.53728 0.0
C399 C 0.58634 0.54231 0.55964 0.0
C400 C 0.79547 0.67971 0.54824 0.0
O401 O 0.69522 0.59562 0.64041 0.0
O402 O 0.75232 0.68176 0.66465 0.0
C403 C 0.6856 0.73294 0.70265 0.0
N404 N 0.71378 0.75768 0.65976 0.0
C405 C 0.68011 0.82032 0.66187 0.0
C406 C 0.65119 0.79573 0.70648 0.0
C407 C 0.65408 0.75191 0.72703 0.0
C408 C 0.71147 0.80012 0.63984 0.0
H409 H 0.68671 0.69867 0.71751 0.0
C410 C 0.73125 0.63045 0.67041 0.0
O411 O 0.62834 0.5377 0.54697 0.0
O412 O 0.59568 0.5826 0.58845 0.0
N413 N 0.76423 0.79591 0.57423 0.0
C414 C 0.792 0.81308 0.52962 0.0
C415 C 0.79377 0.85706 0.50408 0.0
C416 C 0.76665 0.88271 0.5247 0.0
C417 C 0.73839 0.86433 0.57082 0.0
C418 C 0.73904 0.82099 0.59496 0.0
H419 H 0.81121 0.79216 0.5132 0.0
O420 O 0.65915 0.64591 0.51035 0.0
O421 O 0.69086 0.68752 0.58269 0.0
O422 O 0.75042 0.6355 0.54606 0.0
O423 O 0.80148 0.72171 0.57143 0.0
C424 C 0.70845 0.88637 0.5931 0.0
C425 C 0.67877 0.86394 0.63823 0.0
H426 H 0.62653 0.81004 0.72512 0.0
H427 H 0.63164 0.73245 0.76127 0.0
H428 H 0.81513 0.87052 0.46819 0.0
H429 H 0.76719 0.91596 0.5045 0.0
H430 H 0.70689 0.91967 0.57521 0.0
H431 H 0.6548 0.88038 0.6544 0.0
C432 C 0.21767 0.33151 0.03488 0.0
C433 C 0.1756 0.32987 0.00643 0.0
C434 C 0.2221 0.32238 0.9306 0.0
C435 C 0.2524 0.30608 0.96208 0.0
N436 N 0.26879 0.28725 0.0486 0.0
N437 N 0.1403 0.32945 0.92322 0.0
C438 C 0.24599 0.30698 0.01559 0.0
C439 C 0.17803 0.32654 0.95276 0.0
N440 N 0.23727 0.36487 0.07551 0.0
N441 N 0.23798 0.33868 0.88175 0.0
H442 H 0.1105 0.33665 0.93849 0.0
H443 H 0.13815 0.32333 0.88404 0.0
H444 H 0.27233 0.34039 0.86541 0.0
H445 H 0.21979 0.35513 0.85914 0.0
H446 H 0.27247 0.37155 0.09419 0.0
H447 H 0.2222 0.39056 0.08515 0.0
H448 H 0.26311 0.28762 0.08786 0.0
H449 H 0.2886 0.26662 0.03673 0.0
C450 C 0.65425 0.85642 0.95385 0.0
C451 C 0.65226 0.84848 0.00707 0.0
C452 C 0.68237 0.94301 0.02101 0.0
C453 C 0.67863 0.95099 0.96844 0.0
N454 N 0.64273 0.90785 0.88698 0.0
N455 N 0.63808 0.87885 0.08762 0.0
C456 C 0.65932 0.90563 0.93502 0.0
C457 C 0.6584 0.89023 0.03958 0.0
N458 N 0.65182 0.81789 0.92154 0.0
N459 N 0.70919 0.9854 0.0535 0.0
H460 H 0.61463 0.83904 0.09984 0.0
H461 H 0.63743 0.90806 0.11112 0.0
H462 H 0.73131 0.02524 0.04107 0.0
H463 H 0.71453 0.97989 0.09181 0.0
H464 H 0.6581 0.82409 0.88246 0.0
H465 H 0.64706 0.78131 0.93455 0.0
H466 H 0.62471 0.8743 0.8632 0.0
H467 H 0.642 0.94139 0.87264 0.0
C468 C 0.11358 0.74368 0.0458 0.0
C469 C 0.15569 0.7753 0.01163 0.0
C470 C 0.09215 0.72891 0.94235 0.0
C471 C 0.04796 0.71278 0.97726 0.0
N472 N 0.01938 0.70917 0.06499 0.0
N473 N 0.18754 0.79188 0.92509 0.0
C474 C 0.05949 0.72171 0.02985 0.0
C475 C 0.1458 0.76625 0.95889 0.0
N476 N 0.12483 0.72811 0.09078 0.0
N477 N 0.08375 0.70596 0.89528 0.0
H478 H 0.22636 0.82084 0.93641 0.0
H479 H 0.18299 0.78716 0.88587 0.0
H480 H 0.04593 0.67599 0.88297 0.0
H481 H 0.11516 0.71248 0.87045 0.0
H482 H 0.09434 0.69832 0.11314 0.0
H483 H 0.16441 0.73985 0.10188 0.0
H484 H 0.02791 0.7178 0.10354 0.0
H485 H 0.97908 0.69545 0.05512 0.0
C486 C 0.66993 0.75024 0.47222 0.0
C487 C 0.6559 0.72696 0.52146 0.0
C488 C 0.60428 0.77329 0.5375 0.0
C489 C 0.6139 0.7924 0.48695 0.0
N490 N 0.64659 0.78966 0.40237 0.0
N491 N 0.59642 0.7043 0.59502 0.0
C492 C 0.64453 0.77869 0.45318 0.0
C493 C 0.61906 0.73479 0.55245 0.0
N494 N 0.70791 0.74556 0.44375 0.0
N495 N 0.58278 0.79365 0.57174 0.0
H496 H 0.60488 0.67478 0.60752 0.0
H497 H 0.56513 0.70477 0.61555 0.0
H498 H 0.58031 0.82809 0.56365 0.0
H499 H 0.57508 0.78192 0.6097 0.0
H500 H 0.7241 0.76667 0.41005 0.0
H501 H 0.72722 0.7247 0.45623 0.0
H502 H 0.66275 0.77479 0.37526 0.0
H503 H 0.62766 0.80928 0.38626 0.0
C504 C 0.1826 0.86587 0.5264 0.0
C505 C 0.16879 0.8639 0.47422 0.0
C506 C 0.22572 0.96148 0.46893 0.0
C507 C 0.24587 0.9625 0.5181 0.0
N508 N 0.25251 0.9121 0.58904 0.0
N509 N 0.19152 0.90958 0.39257 0.0
C510 C 0.22698 0.91375 0.54578 0.0
C511 C 0.19439 0.91164 0.44449 0.0
N512 N 0.15264 0.82346 0.55812 0.0
N513 N 0.2363 0.00824 0.44537 0.0
H514 H 0.17235 0.87372 0.37208 0.0
H515 H 0.21396 0.94327 0.36965 0.0
H516 H 0.25867 0.04601 0.46235 0.0
H517 H 0.21717 0.0084 0.41177 0.0
H518 H 0.15862 0.82566 0.59731 0.0
H519 H 0.1184 0.78828 0.54657 0.0
H520 H 0.24327 0.87616 0.60723 0.0
H521 H 0.28588 0.94567 0.60437 0.0
C522 C 0.07064 0.34163 0.52566 0.0
C523 C 0.02039 0.30371 0.50428 0.0
C524 C 0.06829 0.27738 0.44317 0.0
C525 C 0.12002 0.31992 0.46073 0.0
N526 N 0.16184 0.40733 0.50347 0.0
N527 N 0.97343 0.24908 0.432 0.0
C528 C 0.11923 0.35622 0.49809 0.0
C529 C 0.0201 0.27677 0.45912 0.0
N530 N 0.07227 0.36653 0.57054 0.0
N531 N 0.06311 0.23541 0.41383 0.0
H532 H 0.93659 0.24418 0.44488 0.0
H533 H 0.97242 0.23484 0.39525 0.0
H534 H 0.09219 0.22384 0.40965 0.0
H535 H 0.02588 0.20456 0.40122 0.0
H536 H 0.10846 0.39064 0.58972 0.0
H537 H 0.03757 0.35943 0.59064 0.0
H538 H 0.16107 0.43514 0.52874 0.0
H539 H 0.19275 0.42586 0.47668 0.0
C540 C 0.73551 0.68182 0.96926 0.0
C541 C 0.72564 0.68326 0.02194 0.0
C542 C 0.80217 0.66824 0.03965 0.0
C543 C 0.80973 0.66609 0.98674 0.0
N544 N 0.75791 0.63156 0.91065 0.0
N545 N 0.73534 0.65248 0.10513 0.0
C546 C 0.76899 0.66128 0.95383 0.0
C547 C 0.75471 0.66898 0.05708 0.0
N548 N 0.71431 0.7007 0.93364 0.0
N549 N 0.8389 0.66812 0.07273 0.0
H550 H 0.69846 0.64802 0.11778 0.0
H551 H 0.75317 0.638 0.13053 0.0
H552 H 0.87306 0.66639 0.06036 0.0
H553 H 0.83647 0.67209 0.11188 0.0
H554 H 0.72302 0.70088 0.89501 0.0
H555 H 0.69404 0.72168 0.94299 0.0
H556 H 0.72373 0.62215 0.88885 0.0
H557 H 0.77938 0.61193 0.90058 0.0
C558 C 0.2736 0.11581 0.01327 0.0
C559 C 0.32158 0.14914 0.98542 0.0
C560 C 0.35261 0.08443 0.00295 0.0
C561 C 0.29919 0.04611 0.0196 0.0
N562 N 0.20688 0.02498 0.03621 0.0
N563 N 0.41032 0.16659 0.95709 0.0
C564 C 0.25918 0.06179 0.02388 0.0
C565 C 0.36244 0.13422 0.9816 0.0
N566 N 0.24337 0.137 0.03212 0.0
N567 N 0.39487 0.07491 0.00999 0.0
H568 H 0.42248 0.20563 0.9453 0.0
H569 H 0.43723 0.15354 0.94592 0.0
H570 H 0.39067 0.04024 0.02673 0.0
H571 H 0.43535 0.10385 0.00427 0.0
H572 H 0.21014 0.11596 0.05625 0.0
H573 H 0.25638 0.17791 0.02869 0.0
H574 H 0.17533 0.03376 0.03493 0.0
H575 H 0.19409 0.98449 0.04286 0.0
C576 C 0.94081 0.24313 0.97112 0.0
C577 C 0.94308 0.26168 0.02139 0.0
C578 C 0.84497 0.20021 0.03051 0.0
C579 C 0.84257 0.18647 0.97836 0.0
N580 N 0.88652 0.20965 0.89588 0.0
N581 N 0.89431 0.26765 0.09477 0.0
C582 C 0.89004 0.21263 0.94771 0.0
C583 C 0.8943 0.24313 0.05013 0.0
N584 N 0.9873 0.25378 0.94587 0.0
N585 N 0.80129 0.17157 0.06161 0.0
H586 H 0.92917 0.29968 0.11007 0.0
H587 H 0.8589 0.25884 0.11451 0.0
H588 H 0.7648 0.13971 0.04866 0.0
H589 H 0.80285 0.17685 0.1009 0.0
H590 H 0.98734 0.23692 0.91066 0.0
H591 H 0.02524 0.27399 0.96299 0.0
H592 H 0.91964 0.23201 0.87199 0.0
H593 H 0.84958 0.19 0.87692 0.0
C594 C 0.29667 0.2171 0.54079 0.0
C595 C 0.31931 0.19108 0.51169 0.0
C596 C 0.33009 0.2503 0.44007 0.0
C597 C 0.29765 0.26798 0.46622 0.0
N598 N 0.24186 0.25981 0.53923 0.0
N599 N 0.3511 0.17817 0.43014 0.0
C600 C 0.27817 0.24842 0.51578 0.0
C601 C 0.33436 0.20627 0.46022 0.0
N602 N 0.29498 0.21393 0.59271 0.0
N603 N 0.35899 0.2769 0.39781 0.0
H604 H 0.35305 0.14467 0.44287 0.0
H605 H 0.35851 0.18542 0.39131 0.0
H606 H 0.35814 0.31014 0.38265 0.0
H607 H 0.38713 0.26857 0.38037 0.0
H608 H 0.2836 0.23654 0.61567 0.0
H609 H 0.31136 0.19414 0.61304 0.0
H610 H 0.22383 0.24316 0.57412 0.0
H611 H 0.22543 0.28107 0.52143 0.0
C612 C 0.78609 0.13925 0.44902 0.0
C613 C 0.78306 0.15059 0.50091 0.0
C614 C 0.70941 0.06044 0.51453 0.0
C615 C 0.70898 0.04784 0.46203 0.0
N616 N 0.73713 0.08494 0.37666 0.0
N617 N 0.72118 0.13244 0.56993 0.0
C618 C 0.74473 0.08979 0.42808 0.0
C619 C 0.73814 0.11454 0.52968 0.0
N620 N 0.82688 0.17653 0.41945 0.0
N621 N 0.68545 0.02139 0.55079 0.0
H622 H 0.74045 0.17329 0.57952 0.0
H623 H 0.68544 0.1074 0.58979 0.0
H624 H 0.67112 0.9807 0.54337 0.0
H625 H 0.68734 0.03069 0.58941 0.0
H626 H 0.83602 0.16813 0.38328 0.0
H627 H 0.85116 0.21597 0.43193 0.0
H628 H 0.7599 0.11619 0.35136 0.0
H629 H 0.70418 0.05291 0.35923 0.0
C630 C 0.89268 0.661 0.4597 0.0
C631 C 0.94295 0.69704 0.48281 0.0
C632 C 0.89436 0.7094 0.55366 0.0
C633 C 0.84509 0.68238 0.52603 0.0
N634 N 0.79876 0.63718 0.44869 0.0
N635 N -0.00812 0.76169 0.54862 0.0
C636 C 0.84442 0.65914 0.47791 0.0
C637 C 0.94381 0.7232 0.52877 0.0
N638 N 0.89073 0.62759 0.42145 0.0
N639 N 0.89383 0.71845 0.6047 0.0
H640 H 0.02913 0.77361 0.53096 0.0
H641 H -0.00615 0.78576 0.57927 0.0
H642 H 0.85814 0.70389 0.62592 0.0
H643 H 0.92852 0.73389 0.62711 0.0
H644 H 0.85459 0.59658 0.40702 0.0
H645 H 0.92512 0.62781 0.40693 0.0
H646 H 0.79695 0.62155 0.4125 0.0
H647 H 0.76427 0.63961 0.45789 0.0
C648 C 0.24787 0.4122 0.23592 0.0
C649 C 0.23763 0.42544 0.2844 0.0
C650 C 0.16189 0.43293 0.24611 0.0
C651 C 0.16423 0.40466 0.2022 0.0
N652 N 0.19946 0.34661 0.17287 0.0
N653 N 0.1833 0.45005 0.33652 0.0
C654 C 0.20484 0.38897 0.20116 0.0
C655 C 0.19478 0.43764 0.28966 0.0
N656 N 0.2964 0.4154 0.22532 0.0
N657 N 0.12653 0.45226 0.24747 0.0
H658 H 0.20755 0.45494 0.36799 0.0
H659 H 0.14899 0.45335 0.34428 0.0
H660 H 0.10093 0.44734 0.21716 0.0
H661 H 0.1256 0.47623 0.27697 0.0
H662 H 0.30539 0.40597 0.18945 0.0
H663 H 0.32818 0.43193 0.25144 0.0
H664 H 0.2256 0.33096 0.17731 0.0
H665 H 0.16774 0.32451 0.14807 0.0
C666 C 0.60179 0.81765 0.21545 0.0
C667 C 0.58551 0.76224 0.20677 0.0
C668 C 0.53933 0.74288 0.29035 0.0
C669 C 0.54754 0.79655 0.29298 0.0
N670 N 0.56986 0.87689 0.24495 0.0
N671 N 0.53234 0.67041 0.23662 0.0
C672 C 0.57281 0.83095 0.25106 0.0
C673 C 0.55111 0.72411 0.24382 0.0
N674 N 0.64687 0.85871 0.19333 0.0
N675 N 0.52554 0.71121 0.33279 0.0
H676 H 0.54398 0.6551 0.20602 0.0
H677 H 0.50257 0.64095 0.25981 0.0
H678 H 0.52168 0.7239 0.36887 0.0
H679 H 0.52457 0.67426 0.33344 0.0
H680 H 0.66141 0.89883 0.20374 0.0
H681 H 0.67304 0.85399 0.16888 0.0
H682 H 0.58699 0.90226 0.21366 0.0
H683 H 0.5449 0.88577 0.26754 0.0
C684 C 0.17004 0.7932 0.20138 0.0
C685 C 0.22697 0.81928 0.20788 0.0
C686 C 0.20925 0.80132 0.2998 0.0
C687 C 0.15377 0.76286 0.28997 0.0
N688 N 0.08443 0.71775 0.22732 0.0
N689 N 0.30142 0.8539 0.26643 0.0
C690 C 0.13538 0.75727 0.23932 0.0
C691 C 0.24696 0.82462 0.25814 0.0
N692 N 0.14856 0.80676 0.16174 0.0
N693 N 0.2249 0.81934 0.34819 0.0
H694 H 0.32913 0.87417 0.23723 0.0
H695 H 0.31889 0.85699 0.30185 0.0
H696 H 0.19935 0.80261 0.37955 0.0
H697 H 0.26227 0.85272 0.35677 0.0
H698 H 0.10707 0.7931 0.1589 0.0
H699 H 0.17259 0.83557 0.13487 0.0
H700 H 0.06863 0.71229 0.19079 0.0
H701 H 0.06112 0.68696 0.25288 0.0
C702 C 0.82362 0.5939 0.74739 0.0
C703 C 0.82983 0.626 0.79128 0.0
C704 C 0.75256 0.63474 0.76161 0.0
C705 C 0.75354 0.61339 0.71388 0.0
N706 N 0.79424 0.57534 0.65903 0.0
N707 N 0.80864 0.69293 0.82717 0.0
C708 C 0.78974 0.59282 0.7062 0.0
C709 C 0.79699 0.65122 0.79471 0.0
N710 N 0.8517 0.56663 0.74377 0.0
N711 N 0.70872 0.63942 0.77544 0.0
H712 H 0.83818 0.70674 0.85508 0.0
H713 H 0.78895 0.71554 0.82476 0.0
H714 H 0.67371 0.6226 0.75326 0.0
H715 H 0.70506 0.65357 0.81101 0.0
H716 H 0.84501 0.53883 0.71506 0.0
H717 H 0.87937 0.56945 0.77117 0.0
H718 H 0.8243 0.56602 0.64926 0.0
H719 H 0.76952 0.57306 0.62886 0.0
C720 C 0.40418 0.18118 0.78847 0.0
C721 C 0.40607 0.23183 0.78441 0.0
C722 C 0.41716 0.22921 0.6916 0.0
C723 C 0.41123 0.177 0.69594 0.0
N724 N 0.42024 0.11346 0.74819 0.0
N725 N 0.42853 0.31026 0.73392 0.0
C726 C 0.41261 0.1569 0.74449 0.0
C727 C 0.41812 0.25826 0.73651 0.0
N728 N 0.39018 0.15426 0.83366 0.0
N729 N 0.41896 0.24948 0.64424 0.0
H730 H 0.42861 0.33172 0.76611 0.0
H731 H 0.44108 0.33338 0.70094 0.0
H732 H 0.42088 0.22983 0.61139 0.0
H733 H 0.41682 0.28423 0.63733 0.0
H734 H 0.38202 0.1147 0.83796 0.0
H735 H 0.38279 0.17049 0.86615 0.0
H736 H 0.42584 0.09899 0.78262 0.0
H737 H 0.426 0.09529 0.71603 0.0
C738 C 0.78831 0.22466 0.79285 0.0
C739 C 0.74634 0.17002 0.78874 0.0
C740 C 0.77039 0.1696 0.69997 0.0
C741 C 0.81155 0.22512 0.70184 0.0
N742 N 0.85303 0.3078 0.74967 0.0
N743 N 0.68421 0.10067 0.73339 0.0
C744 C 0.8177 0.25374 0.74804 0.0
C745 C 0.73255 0.14664 0.74033 0.0
N746 N 0.80152 0.24772 0.83987 0.0
N747 N 0.77009 0.13643 0.6625 0.0
H748 H 0.6562 0.08305 0.76304 0.0
H749 H 0.67065 0.0836 0.69757 0.0
H750 H 0.79706 0.14945 0.63215 0.0
H751 H 0.74519 0.09468 0.66396 0.0
H752 H 0.83537 0.28509 0.84695 0.0
H753 H 0.77917 0.22775 0.87224 0.0
H754 H 0.85669 0.33181 0.78093 0.0
H755 H 0.87591 0.32919 0.71809 0.0
C756 C -0.00505 0.50477 0.04031 0.0
C757 C 0.02219 0.48107 0.01521 0.0
C758 C 0.98145 0.48681 0.93385 0.0
C759 C 0.9505 0.50623 0.95984 0.0
N760 N 0.92092 0.52347 0.04177 0.0
N761 N 0.03506 0.44247 0.93732 0.0
C762 C 0.95494 0.51192 0.01416 0.0
C763 C 0.01405 0.47048 0.96173 0.0
N764 N 0.00918 0.52284 0.08908 0.0
N765 N 0.98005 0.48422 0.88189 0.0
H766 H 0.06236 0.43265 0.95335 0.0
H767 H 0.02296 0.42593 0.9012 0.0
H768 H 0.95255 0.48995 0.86034 0.0
H769 H 0.00775 0.47885 0.85999 0.0
H770 H -0.00378 0.54675 0.10773 0.0
H771 H 0.03886 0.51908 0.10898 0.0
H772 H 0.91832 0.52101 0.08128 0.0
H773 H 0.89129 0.53038 0.02665 0.0
C774 C 0.46685 0.53154 0.98636 0.0
C775 C 0.49964 0.53968 0.0298 0.0
C776 C 0.51255 0.46422 0.0009 0.0
C777 C 0.48002 0.45632 0.95726 0.0
N778 N 0.44666 0.49881 0.89983 0.0
N779 N 0.53352 0.49778 0.08723 0.0
C780 C 0.46283 0.49459 0.94755 0.0
C781 C 0.51686 0.50147 0.03957 0.0
N782 N 0.43606 0.55605 0.98378 0.0
N783 N 0.54301 0.43937 0.00369 0.0
H784 H 0.53032 0.51927 0.11794 0.0
H785 H 0.54238 0.46786 0.09784 0.0
H786 H 0.54644 0.4177 0.97327 0.0
H787 H 0.57098 0.44702 0.03247 0.0
H788 H 0.40793 0.54818 0.95508 0.0
H789 H 0.43259 0.57762 0.01427 0.0
H790 H 0.43777 0.52878 0.88949 0.0
H791 H 0.45047 0.47797 0.86889 0.0
C792 C 0.4313 0.96204 0.98034 0.0
C793 C 0.43266 0.95911 0.03469 0.0
C794 C 0.53218 0.02007 0.03139 0.0
C795 C 0.53094 0.02241 0.97695 0.0
N796 N 0.47964 0.98944 0.89974 0.0
N797 N 0.48524 0.97947 0.11089 0.0
C798 C 0.48061 0.99131 0.95172 0.0
C799 C 0.48342 0.98687 0.05969 0.0
N800 N 0.38277 0.93979 0.95551 0.0
N801 N 0.58007 0.04913 0.0567 0.0
H802 H 0.45064 0.95628 0.13282 0.0
H803 H 0.52079 0.99204 0.13129 0.0
H804 H 0.61803 0.06707 0.03948 0.0
H805 H 0.58257 0.05712 0.09551 0.0
H806 H 0.37865 0.94877 0.91804 0.0
H807 H 0.34562 0.91399 0.97212 0.0
H808 H 0.447 0.96057 0.87896 0.0
H809 H 0.51251 0.01526 0.87701 0.0
C810 C 0.49838 0.95698 0.50888 0.0
C811 C 0.48406 0.9438 0.45645 0.0
C812 C 0.44771 0.00651 0.45588 0.0
C813 C 0.46086 0.0188 0.50845 0.0
N814 N 0.48988 0.99801 0.58685 0.0
N815 N 0.43256 0.94532 0.3853 0.0
C816 C 0.48321 0.9914 0.53536 0.0
C817 C 0.45495 0.96549 0.43173 0.0
N818 N 0.52901 0.93935 0.53345 0.0
N819 N 0.42852 0.03403 0.42837 0.0
H820 H 0.43657 0.91482 0.3673 0.0
H821 H 0.40546 0.95433 0.36722 0.0
H822 H 0.42015 0.06271 0.44366 0.0
H823 H 0.42475 0.03153 0.38897 0.0
H824 H 0.54871 0.95559 0.56766 0.0
H825 H 0.53733 0.91022 0.51957 0.0
H826 H 0.49734 0.97292 0.61006 0.0
H827 H 0.48506 0.02688 0.60704 0.0
C828 C 0.93279 0.46891 0.49047 0.0
C829 C 0.9524 0.45848 0.53614 0.0
C830 C 0.04209 0.53839 0.51818 0.0
C831 C 0.02231 0.54746 0.47176 0.0
N832 N 0.95595 0.50547 0.40556 0.0
N833 N 0.02029 0.49565 0.60135 0.0
C834 C 0.96972 0.50796 0.45553 0.0
C835 C 0.00573 0.49675 0.55218 0.0
N836 N 0.87834 0.44466 0.48184 0.0
N837 N 0.09638 0.56631 0.52795 0.0
H838 H -0.00726 0.46947 0.62826 0.0
H839 H 0.05659 0.52499 0.61708 0.0
H840 H 0.12468 0.59124 0.50098 0.0
H841 H 0.11405 0.55866 0.55909 0.0
H842 H 0.86198 0.45398 0.45066 0.0
H843 H 0.84973 0.42241 0.50974 0.0
H844 H 0.91965 0.47483 0.39091 0.0
H845 H 0.98407 0.52924 0.37782 0.0
C846 C 0.43409 0.47644 0.53376 0.0
C847 C 0.43432 0.49095 0.48171 0.0
C848 C 0.53299 0.52564 0.47816 0.0
C849 C 0.53362 0.51547 0.53128 0.0
N850 N 0.48514 0.48646 0.61071 0.0
N851 N 0.48552 0.53945 0.40824 0.0
C852 C 0.4842 0.49252 0.55923 0.0
C853 C 0.48432 0.5184 0.45518 0.0
N854 N 0.38618 0.44491 0.55867 0.0
N855 N 0.57852 0.54184 0.449 0.0
H856 H 0.4508 0.53578 0.39098 0.0
H857 H 0.52121 0.56532 0.38893 0.0
H858 H 0.61542 0.54831 0.46292 0.0
H859 H 0.57849 0.54385 0.40947 0.0
H860 H 0.38362 0.42619 0.5933 0.0
H861 H 0.34834 0.43457 0.5441 0.0
H862 H 0.45233 0.47768 0.63456 0.0
H863 H 0.51985 0.49283 0.63004 0.0
loop_
_geom_bond_atom_site_label_1
_geom_bond_atom_site_label_2
_geom_bond_distance
_geom_bond_site_symmetry_2
_ccdc_geom_bond_type
Mn0 O5 2.095 . S
Mn0 O15 2.162 . S
Mn0 O16 2.297 . S
Mn0 O24 2.385 1_554 S
Mn0 O25 2.209 . S
Mn0 O26 2.094 . S
Mn1 O6 2.121 . S
Mn1 N8 2.257 1_455 S
Mn1 N17 2.282 . S
Mn1 O25 2.215 . S
Mn1 O27 2.117 . S
C2 O24 1.234 1_654 S
C2 O25 1.283 1_655 S
C3 O15 1.281 . S
C3 O16 1.236 . S
C4 O26 1.240 . S
C4 O27 1.264 . S
O5 Mn0 2.095 . S
O5 C14 1.250 . S
O6 Mn1 2.121 . S
O6 C14 1.258 . S
C7 N8 1.326 . S
C7 C11 1.460 . S
C7 H13 0.929 1_655 S
N8 Mn1 2.257 1_655 S
N8 C7 1.326 . S
N8 C12 1.362 . S
C9 C10 1.258 . S
C9 C12 1.431 . S
C9 C29 1.449 . S
C10 C9 1.258 . S
C10 C11 1.477 . S
C10 H30 0.931 . S
C11 C7 1.460 . S
C11 C10 1.477 . S
C11 H31 0.930 . S
C12 N8 1.362 . S
C12 C9 1.431 . S
C12 C22 1.476 . S
H13 C7 0.929 1_455 S
C14 O5 1.250 . S
C14 O6 1.258 . S
O15 Mn0 2.162 . S
O15 C3 1.281 . S
O16 Mn0 2.297 . S
O16 C3 1.236 . S
N17 Mn1 2.282 . S
N17 C18 1.338 . S
N17 C22 1.318 1_455 S
C18 N17 1.338 . S
C18 C19 1.451 1_454 S
C18 H23 0.925 1_554 S
C19 C18 1.451 1_656 S
C19 C20 1.291 . S
C19 H32 0.931 1_655 S
C20 C19 1.291 . S
C20 C21 1.373 1_556 S
C20 H33 0.929 . S
C21 C20 1.373 1_554 S
C21 C22 1.396 . S
C21 C28 1.403 . S
C22 C12 1.476 . S
C22 N17 1.318 1_655 S
C22 C21 1.396 . S
H23 C18 0.925 1_556 S
O24 Mn0 2.385 1_556 S
O24 C2 1.234 1_456 S
O25 Mn0 2.209 . S
O25 Mn1 2.215 . S
O25 C2 1.283 1_455 S
O26 Mn0 2.094 . S
O26 C4 1.240 . S
O27 Mn1 2.117 . S
O27 C4 1.264 . S
C28 C21 1.403 . S
C28 C29 1.399 . S
C28 H34 0.929 . S
C29 C9 1.449 . S
C29 C28 1.399 . S
C29 H35 0.930 . S
H30 C10 0.931 . S
H31 C11 0.930 . S
H32 C19 0.931 1_455 S
H33 C20 0.929 . S
H34 C28 0.929 . S
H35 C29 0.930 . S
Mn36 O41 2.095 . S
Mn36 O51 2.162 . S
Mn36 O52 2.297 . S
Mn36 O60 2.385 1_554 S
Mn36 O61 2.209 . S
Mn36 O62 2.094 . S
Mn37 O42 2.121 . S
Mn37 N44 2.257 . S
Mn37 N53 2.282 . S
Mn37 O61 2.215 . S
Mn37 O63 2.117 . S
C38 O60 1.234 1_554 S
C38 O61 1.283 . S
C39 O51 1.281 . S
C39 O52 1.236 . S
C40 O62 1.240 . S
C40 O63 1.264 . S
O41 Mn36 2.095 . S
O41 C50 1.250 . S
O42 Mn37 2.121 . S
O42 C50 1.258 . S
C43 N44 1.326 . S
C43 C47 1.460 . S
C43 H49 0.929 . S
N44 Mn37 2.257 . S
N44 C43 1.326 . S
N44 C48 1.362 . S
C45 C46 1.258 . S
C45 C48 1.431 . S
C45 C65 1.449 . S
C46 C45 1.258 . S
C46 C47 1.477 . S
C46 H66 0.931 . S
C47 C43 1.460 . S
C47 C46 1.477 . S
C47 H67 0.930 . S
C48 N44 1.362 . S
C48 C45 1.431 . S
C48 C58 1.476 . S
H49 C43 0.929 . S
C50 O41 1.250 . S
C50 O42 1.258 . S
O51 Mn36 2.162 . S
O51 C39 1.281 . S
O52 Mn36 2.297 . S
O52 C39 1.236 . S
N53 Mn37 2.282 . S
N53 C54 1.328 1_554 S
N53 C58 1.318 . S
C54 N53 1.328 1_556 S
C54 C55 1.457 . S
C54 H59 0.929 . S
C55 C54 1.457 . S
C55 C56 1.291 . S
C55 H68 0.931 . S
C56 C55 1.291 . S
C56 C57 1.373 1_556 S
C56 H69 0.929 . S
C57 C56 1.373 1_554 S
C57 C58 1.396 . S
C57 C64 1.403 . S
C58 C48 1.476 . S
C58 N53 1.318 . S
C58 C57 1.396 . S
H59 C54 0.929 . S
O60 Mn36 2.385 1_556 S
O60 C38 1.234 1_556 S
O61 Mn36 2.209 . S
O61 Mn37 2.215 . S
O61 C38 1.283 . S
O62 Mn36 2.094 . S
O62 C40 1.240 . S
O63 Mn37 2.117 . S
O63 C40 1.264 . S
C64 C57 1.403 . S
C64 C65 1.399 . S
C64 H70 0.929 . S
C65 C45 1.449 . S
C65 C64 1.399 . S
C65 H71 0.930 . S
H66 C46 0.931 . S
H67 C47 0.930 . S
H68 C55 0.931 . S
H69 C56 0.929 . S
H70 C64 0.929 . S
H71 C65 0.930 . S
Mn72 O77 2.095 . S
Mn72 O87 2.162 1_565 S
Mn72 O88 2.297 . S
Mn72 O96 2.385 . S
Mn72 O97 2.209 . S
Mn72 O98 2.094 . S
Mn73 O78 2.121 . S
Mn73 N80 2.257 . S
Mn73 N89 2.282 . S
Mn73 O97 2.215 . S
Mn73 O99 2.117 . S
C74 O96 1.234 . S
C74 O97 1.283 . S
C75 O87 1.281 . S
C75 O88 1.236 1_545 S
C76 O98 1.240 . S
C76 O99 1.264 . S
O77 Mn72 2.095 . S
O77 C86 1.250 . S
O78 Mn73 2.121 . S
O78 C86 1.258 . S
C79 N80 1.326 1_556 S
C79 C83 1.460 . S
C79 H85 0.929 . S
N80 Mn73 2.257 . S
N80 C79 1.326 1_554 S
N80 C84 1.362 . S
C81 C82 1.258 . S
C81 C84 1.431 1_556 S
C81 C101 1.449 1_556 S
C82 C81 1.258 . S
C82 C83 1.477 . S
C82 H102 0.931 . S
C83 C79 1.460 . S
C83 C82 1.477 . S
C83 H103 0.930 . S
C84 N80 1.362 . S
C84 C81 1.431 1_554 S
C84 C94 1.476 . S
H85 C79 0.929 . S
C86 O77 1.250 . S
C86 O78 1.258 . S
O87 Mn72 2.162 1_545 S
O87 C75 1.281 . S
O88 Mn72 2.297 . S
O88 C75 1.236 1_565 S
N89 Mn73 2.282 . S
N89 C90 1.328 . S
N89 C94 1.318 . S
C90 N89 1.328 . S
C90 C91 1.457 . S
C90 H95 0.929 . S
C91 C90 1.457 . S
C91 C92 1.291 . S
C91 H104 0.931 . S
C92 C91 1.291 . S
C92 C93 1.373 . S
C92 H105 0.929 . S
C93 C92 1.373 . S
C93 C94 1.396 . S
C93 C100 1.403 . S
C94 C84 1.476 . S
C94 N89 1.318 . S
C94 C93 1.396 . S
H95 C90 0.929 . S
O96 Mn72 2.385 . S
O96 C74 1.234 . S
O97 Mn72 2.209 . S
O97 Mn73 2.215 . S
O97 C74 1.283 . S
O98 Mn72 2.094 . S
O98 C76 1.240 . S
O99 Mn73 2.117 . S
O99 C76 1.264 . S
C100 C93 1.403 . S
C100 C101 1.399 . S
C100 H106 0.929 . S
C101 C81 1.449 1_554 S
C101 C100 1.399 . S
C101 H107 0.930 1_554 S
H102 C82 0.931 . S
H103 C83 0.930 . S
H104 C91 0.931 . S
H105 C92 0.929 . S
H106 C100 0.929 . S
H107 C101 0.930 1_556 S
Mn108 O113 2.095 . S
Mn108 O123 2.162 1_565 S
Mn108 O124 2.297 . S
Mn108 O132 2.385 . S
Mn108 O133 2.209 . S
Mn108 O134 2.094 . S
Mn109 O114 2.121 . S
Mn109 N116 2.257 . S
Mn109 N125 2.282 . S
Mn109 O133 2.215 . S
Mn109 O135 2.117 . S
C110 O132 1.234 . S
C110 O133 1.283 . S
C111 O123 1.281 . S
C111 O124 1.236 1_545 S
C112 O134 1.240 . S
C112 O135 1.264 . S
O113 Mn108 2.095 . S
O113 C122 1.250 . S
O114 Mn109 2.121 . S
O114 C122 1.258 . S
C115 N116 1.326 . S
C115 C119 1.460 . S
C115 H121 0.929 . S
N116 Mn109 2.257 . S
N116 C115 1.326 . S
N116 C120 1.362 . S
C117 C118 1.258 . S
C117 C120 1.431 . S
C117 C137 1.449 . S
C118 C117 1.258 . S
C118 C119 1.477 . S
C118 H138 0.931 . S
C119 C115 1.460 . S
C119 C118 1.477 . S
C119 H139 0.930 . S
C120 N116 1.362 . S
C120 C117 1.431 . S
C120 C130 1.476 . S
H121 C115 0.929 . S
C122 O113 1.250 . S
C122 O114 1.258 . S
O123 Mn108 2.162 1_545 S
O123 C111 1.281 . S
O124 Mn108 2.297 . S
O124 C111 1.236 1_565 S
N125 Mn109 2.282 . S
N125 C126 1.328 . S
N125 C130 1.318 . S
C126 N125 1.328 . S
C126 C127 1.457 . S
C126 H131 0.929 . S
C127 C126 1.457 . S
C127 C128 1.291 . S
C127 H140 0.931 . S
C128 C127 1.291 . S
C128 C129 1.373 . S
C128 H141 0.929 . S
C129 C128 1.373 . S
C129 C130 1.396 . S
C129 C136 1.403 . S
C130 C120 1.476 . S
C130 N125 1.318 . S
C130 C129 1.396 . S
H131 C126 0.929 . S
O132 Mn108 2.385 . S
O132 C110 1.234 . S
O133 Mn108 2.209 . S
O133 Mn109 2.215 . S
O133 C110 1.283 . S
O134 Mn108 2.094 . S
O134 C112 1.240 . S
O135 Mn109 2.117 . S
O135 C112 1.264 . S
C136 C129 1.403 . S
C136 C137 1.399 . S
C136 H142 0.929 . S
C137 C117 1.449 . S
C137 C136 1.399 . S
C137 H143 0.930 . S
H138 C118 0.931 . S
H139 C119 0.930 . S
H140 C127 0.931 . S
H141 C128 0.929 . S
H142 C136 0.929 . S
H143 C137 0.930 . S
Mn144 O149 2.095 . S
Mn144 O159 2.162 . S
Mn144 O160 2.297 . S
Mn144 O168 2.385 . S
Mn144 O169 2.209 . S
Mn144 O170 2.094 . S
Mn145 O150 2.121 . S
Mn145 N152 2.257 1_455 S
Mn145 N161 2.282 . S
Mn145 O169 2.215 . S
Mn145 O171 2.117 . S
C146 O168 1.234 1_655 S
C146 O169 1.283 1_655 S
C147 O159 1.281 . S
C147 O160 1.236 . S
C148 O170 1.240 . S
C148 O171 1.264 . S
O149 Mn144 2.095 . S
O149 C158 1.250 . S
O150 Mn145 2.121 . S
O150 C158 1.258 . S
C151 N152 1.326 . S
C151 C155 1.460 . S
C151 H157 0.929 1_655 S
N152 Mn145 2.257 1_655 S
N152 C151 1.326 . S
N152 C156 1.362 . S
C153 C154 1.258 . S
C153 C156 1.431 . S
C153 C173 1.449 . S
C154 C153 1.258 . S
C154 C155 1.477 . S
C154 H174 0.931 . S
C155 C151 1.460 . S
C155 C154 1.477 . S
C155 H175 0.930 . S
C156 N152 1.362 . S
C156 C153 1.431 . S
C156 C166 1.476 . S
H157 C151 0.929 1_455 S
C158 O149 1.250 . S
C158 O150 1.258 . S
O159 Mn144 2.162 . S
O159 C147 1.281 . S
O160 Mn144 2.297 . S
O160 C147 1.236 . S
N161 Mn145 2.282 . S
N161 C162 1.328 . S
N161 C166 1.318 1_455 S
C162 N161 1.328 . S
C162 C163 1.457 . S
C162 H167 0.929 . S
C163 C162 1.457 . S
C163 C164 1.291 1_455 S
C163 H176 0.931 . S
C164 C163 1.291 1_655 S
C164 C165 1.373 . S
C164 H177 0.929 . S
C165 C164 1.373 . S
C165 C166 1.396 . S
C165 C172 1.403 . S
C166 C156 1.476 . S
C166 N161 1.318 1_655 S
C166 C165 1.396 . S
H167 C162 0.929 . S
O168 Mn144 2.385 . S
O168 C146 1.234 1_455 S
O169 Mn144 2.209 . S
O169 Mn145 2.215 . S
O169 C146 1.283 1_455 S
O170 Mn144 2.094 . S
O170 C148 1.240 . S
O171 Mn145 2.117 . S
O171 C148 1.264 . S
C172 C165 1.403 . S
C172 C173 1.399 . S
C172 H178 0.929 . S
C173 C153 1.449 . S
C173 C172 1.399 . S
C173 H179 0.930 . S
H174 C154 0.931 . S
H175 C155 0.930 . S
H176 C163 0.931 . S
H177 C164 0.929 . S
H178 C172 0.929 . S
H179 C173 0.930 . S
Mn180 O185 2.095 . S
Mn180 O195 2.162 . S
Mn180 O196 2.297 . S
Mn180 O204 2.385 . S
Mn180 O205 2.209 . S
Mn180 O206 2.094 . S
Mn181 O186 2.121 . S
Mn181 N188 2.257 . S
Mn181 N197 2.282 . S
Mn181 O205 2.215 . S
Mn181 O207 2.117 . S
C182 O204 1.234 . S
C182 O205 1.283 . S
C183 O195 1.281 . S
C183 O196 1.236 . S
C184 O206 1.240 . S
C184 O207 1.264 . S
O185 Mn180 2.095 . S
O185 C194 1.250 . S
O186 Mn181 2.121 . S
O186 C194 1.258 . S
C187 N188 1.326 . S
C187 C191 1.460 . S
C187 H193 0.929 . S
N188 Mn181 2.257 . S
N188 C187 1.326 . S
N188 C192 1.362 . S
C189 C190 1.258 . S
C189 C192 1.431 . S
C189 C209 1.449 . S
C190 C189 1.258 . S
C190 C191 1.477 . S
C190 H210 0.931 . S
C191 C187 1.460 . S
C191 C190 1.477 . S
C191 H211 0.930 . S
C192 N188 1.362 . S
C192 C189 1.431 . S
C192 C202 1.476 . S
H193 C187 0.929 . S
C194 O185 1.250 . S
C194 O186 1.258 . S
O195 Mn180 2.162 . S
O195 C183 1.281 . S
O196 Mn180 2.297 . S
O196 C183 1.236 . S
N197 Mn181 2.282 . S
N197 C198 1.328 . S
N197 C202 1.318 . S
C198 N197 1.328 . S
C198 C199 1.457 . S
C198 H203 0.929 . S
C199 C198 1.457 . S
C199 C200 1.291 . S
C199 H212 0.931 . S
C200 C199 1.291 . S
C200 C201 1.373 . S
C200 H213 0.929 . S
C201 C200 1.373 . S
C201 C202 1.396 . S
C201 C208 1.403 . S
C202 C192 1.476 . S
C202 N197 1.318 . S
C202 C201 1.396 . S
H203 C198 0.929 . S
O204 Mn180 2.385 . S
O204 C182 1.234 . S
O205 Mn180 2.209 . S
O205 Mn181 2.215 . S
O205 C182 1.283 . S
O206 Mn180 2.094 . S
O206 C184 1.240 . S
O207 Mn181 2.117 . S
O207 C184 1.264 . S
C208 C201 1.403 . S
C208 C209 1.399 . S
C208 H214 0.929 . S
C209 C189 1.449 . S
C209 C208 1.399 . S
C209 H215 0.930 . S
H210 C190 0.931 . S
H211 C191 0.930 . S
H212 C199 0.931 . S
H213 C200 0.929 . S
H214 C208 0.929 . S
H215 C209 0.930 . S
Mn216 O221 2.095 . S
Mn216 O231 2.162 . S
Mn216 O232 2.297 . S
Mn216 O240 2.385 . S
Mn216 O241 2.209 . S
Mn216 O242 2.094 . S
Mn217 O222 2.121 . S
Mn217 N224 2.257 1_655 S
Mn217 N233 2.282 . S
Mn217 O241 2.215 . S
Mn217 O243 2.117 . S
C218 O240 1.234 1_455 S
C218 O241 1.283 1_455 S
C219 O231 1.281 . S
C219 O232 1.236 . S
C220 O242 1.240 . S
C220 O243 1.264 . S
O221 Mn216 2.095 . S
O221 C230 1.250 . S
O222 Mn217 2.121 . S
O222 C230 1.258 . S
C223 N224 1.326 . S
C223 C227 1.460 . S
C223 H229 0.929 . S
N224 Mn217 2.257 1_455 S
N224 C223 1.326 . S
N224 C228 1.362 . S
C225 C226 1.258 . S
C225 C228 1.431 . S
C225 C245 1.449 . S
C226 C225 1.258 . S
C226 C227 1.477 . S
C226 H246 0.931 . S
C227 C223 1.460 . S
C227 C226 1.477 . S
C227 H247 0.930 . S
C228 N224 1.362 . S
C228 C225 1.431 . S
C228 C238 1.476 . S
H229 C223 0.929 . S
C230 O221 1.250 . S
C230 O222 1.258 . S
O231 Mn216 2.162 . S
O231 C219 1.281 . S
O232 Mn216 2.297 . S
O232 C219 1.236 . S
N233 Mn217 2.282 . S
N233 C234 1.328 . S
N233 C238 1.318 1_655 S
C234 N233 1.328 . S
C234 C235 1.457 1_656 S
C234 H239 0.929 1_556 S
C235 C234 1.457 1_454 S
C235 C236 1.291 . S
C235 H248 0.931 1_455 S
C236 C235 1.291 . S
C236 C237 1.373 1_554 S
C236 H249 0.929 . S
C237 C236 1.373 1_556 S
C237 C238 1.396 . S
C237 C244 1.403 . S
C238 C228 1.476 . S
C238 N233 1.318 1_455 S
C238 C237 1.396 . S
H239 C234 0.929 1_554 S
O240 Mn216 2.385 . S
O240 C218 1.234 1_655 S
O241 Mn216 2.209 . S
O241 Mn217 2.215 . S
O241 C218 1.283 1_655 S
O242 Mn216 2.094 . S
O242 C220 1.240 . S
O243 Mn217 2.117 . S
O243 C220 1.264 . S
C244 C237 1.403 . S
C244 C245 1.399 . S
C244 H250 0.929 . S
C245 C225 1.449 . S
C245 C244 1.399 . S
C245 H251 0.930 . S
H246 C226 0.931 . S
H247 C227 0.930 . S
H248 C235 0.931 1_655 S
H249 C236 0.929 . S
H250 C244 0.929 . S
H251 C245 0.930 . S
Mn252 O257 2.095 . S
Mn252 O267 2.162 . S
Mn252 O268 2.297 . S
Mn252 O276 2.385 . S
Mn252 O277 2.209 . S
Mn252 O278 2.094 . S
Mn253 O258 2.121 . S
Mn253 N260 2.257 . S
Mn253 N269 2.282 . S
Mn253 O277 2.215 . S
Mn253 O279 2.117 . S
C254 O276 1.234 . S
C254 O277 1.283 . S
C255 O267 1.281 . S
C255 O268 1.236 . S
C256 O278 1.240 . S
C256 O279 1.264 . S
O257 Mn252 2.095 . S
O257 C266 1.250 . S
O258 Mn253 2.121 . S
O258 C266 1.258 . S
C259 N260 1.326 . S
C259 C263 1.460 . S
C259 H265 0.929 . S
N260 Mn253 2.257 . S
N260 C259 1.326 . S
N260 C264 1.362 . S
C261 C262 1.258 . S
C261 C264 1.431 . S
C261 C281 1.449 . S
C262 C261 1.258 . S
C262 C263 1.477 . S
C262 H282 0.931 . S
C263 C259 1.460 . S
C263 C262 1.477 . S
C263 H283 0.930 . S
C264 N260 1.362 . S
C264 C261 1.431 . S
C264 C274 1.476 . S
H265 C259 0.929 . S
C266 O257 1.250 . S
C266 O258 1.258 . S
O267 Mn252 2.162 . S
O267 C255 1.281 . S
O268 Mn252 2.297 . S
O268 C255 1.236 . S
N269 Mn253 2.282 . S
N269 C270 1.328 . S
N269 C274 1.318 . S
C270 N269 1.328 . S
C270 C271 1.457 1_556 S
C270 H275 0.929 1_556 S
C271 C270 1.457 1_554 S
C271 C272 1.291 . S
C271 H284 0.931 . S
C272 C271 1.291 . S
C272 C273 1.373 1_554 S
C272 H285 0.929 . S
C273 C272 1.373 1_556 S
C273 C274 1.396 . S
C273 C280 1.403 . S
C274 C264 1.476 . S
C274 N269 1.318 . S
C274 C273 1.396 . S
H275 C270 0.929 1_554 S
O276 Mn252 2.385 . S
O276 C254 1.234 . S
O277 Mn252 2.209 . S
O277 Mn253 2.215 . S
O277 C254 1.283 . S
O278 Mn252 2.094 . S
O278 C256 1.240 . S
O279 Mn253 2.117 . S
O279 C256 1.264 . S
C280 C273 1.403 . S
C280 C281 1.399 . S
C280 H286 0.929 . S
C281 C261 1.449 . S
C281 C280 1.399 . S
C281 H287 0.930 . S
H282 C262 0.931 . S
H283 C263 0.930 . S
H284 C271 0.931 . S
H285 C272 0.929 . S
H286 C280 0.929 . S
H287 C281 0.930 . S
Mn288 O293 2.095 . S
Mn288 O303 2.162 . S
Mn288 O304 2.297 . S
Mn288 O312 2.385 1_556 S
Mn288 O313 2.209 . S
Mn288 O314 2.094 . S
Mn289 O294 2.121 . S
Mn289 N296 2.257 1_545 S
Mn289 N305 2.282 . S
Mn289 O313 2.215 . S
Mn289 O315 2.117 . S
C290 O312 1.234 1_566 S
C290 O313 1.283 1_565 S
C291 O303 1.281 . S
C291 O304 1.236 . S
C292 O314 1.240 . S
C292 O315 1.264 . S
O293 Mn288 2.095 . S
O293 C302 1.250 . S
O294 Mn289 2.121 . S
O294 C302 1.258 . S
C295 N296 1.326 . S
C295 C299 1.460 . S
C295 H301 0.929 1_565 S
N296 Mn289 2.257 1_565 S
N296 C295 1.326 . S
N296 C300 1.362 . S
C297 C298 1.258 . S
C297 C300 1.431 . S
C297 C317 1.449 . S
C298 C297 1.258 . S
C298 C299 1.477 . S
C298 H318 0.931 . S
C299 C295 1.460 . S
C299 C298 1.477 . S
C299 H319 0.930 . S
C300 N296 1.362 . S
C300 C297 1.431 . S
C300 C310 1.476 . S
H301 C295 0.929 1_545 S
C302 O293 1.250 . S
C302 O294 1.258 . S
O303 Mn288 2.162 . S
O303 C291 1.281 . S
O304 Mn288 2.297 . S
O304 C291 1.236 . S
N305 Mn289 2.282 . S
N305 C306 1.328 . S
N305 C310 1.318 1_545 S
C306 N305 1.328 . S
C306 C307 1.457 1_546 S
C306 H311 0.929 1_556 S
C307 C306 1.457 1_564 S
C307 C308 1.291 . S
C307 H320 0.931 1_565 S
C308 C307 1.291 . S
C308 C309 1.373 1_554 S
C308 H321 0.929 . S
C309 C308 1.373 1_556 S
C309 C310 1.396 . S
C309 C316 1.403 . S
C310 C300 1.476 . S
C310 N305 1.318 1_565 S
C310 C309 1.396 . S
H311 C306 0.929 1_554 S
O312 Mn288 2.385 1_554 S
O312 C290 1.234 1_544 S
O313 Mn288 2.209 . S
O313 Mn289 2.215 . S
O313 C290 1.283 1_545 S
O314 Mn288 2.094 . S
O314 C292 1.240 . S
O315 Mn289 2.117 . S
O315 C292 1.264 . S
C316 C309 1.403 . S
C316 C317 1.399 . S
C316 H322 0.929 . S
C317 C297 1.449 . S
C317 C316 1.399 . S
C317 H323 0.930 . S
H318 C298 0.931 . S
H319 C299 0.930 . S
H320 C307 0.931 1_545 S
H321 C308 0.929 . S
H322 C316 0.929 . S
H323 C317 0.930 . S
Mn324 O329 2.095 . S
Mn324 O339 2.162 . S
Mn324 O340 2.297 . S
Mn324 O348 2.385 . S
Mn324 O349 2.209 . S
Mn324 O350 2.094 . S
Mn325 O330 2.121 . S
Mn325 N332 2.257 1_545 S
Mn325 N341 2.282 . S
Mn325 O349 2.215 . S
Mn325 O351 2.117 . S
C326 O348 1.234 1_565 S
C326 O349 1.283 1_565 S
C327 O339 1.281 . S
C327 O340 1.236 . S
C328 O350 1.240 . S
C328 O351 1.264 . S
O329 Mn324 2.095 . S
O329 C338 1.250 . S
O330 Mn325 2.121 . S
O330 C338 1.258 . S
C331 N332 1.326 . S
C331 C335 1.460 . S
C331 H337 0.929 1_565 S
N332 Mn325 2.257 1_565 S
N332 C331 1.326 . S
N332 C336 1.362 . S
C333 C334 1.258 . S
C333 C336 1.431 . S
C333 C353 1.449 . S
C334 C333 1.258 . S
C334 C335 1.477 . S
C334 H354 0.931 . S
C335 C331 1.460 . S
C335 C334 1.477 . S
C335 H355 0.930 . S
C336 N332 1.362 . S
C336 C333 1.431 . S
C336 C346 1.476 . S
H337 C331 0.929 1_545 S
C338 O329 1.250 . S
C338 O330 1.258 . S
O339 Mn324 2.162 . S
O339 C327 1.281 . S
O340 Mn324 2.297 . S
O340 C327 1.236 . S
N341 Mn325 2.282 . S
N341 C342 1.328 . S
N341 C346 1.318 1_545 S
C342 N341 1.328 . S
C342 C343 1.457 1_545 S
C342 H347 0.929 . S
C343 C342 1.457 1_565 S
C343 C344 1.291 . S
C343 H356 0.931 1_565 S
C344 C343 1.291 . S
C344 C345 1.373 . S
C344 H357 0.929 . S
C345 C344 1.373 . S
C345 C346 1.396 . S
C345 C352 1.403 . S
C346 C336 1.476 . S
C346 N341 1.318 1_565 S
C346 C345 1.396 . S
H347 C342 0.929 . S
O348 Mn324 2.385 . S
O348 C326 1.234 1_545 S
O349 Mn324 2.209 . S
O349 Mn325 2.215 . S
O349 C326 1.283 1_545 S
O350 Mn324 2.094 . S
O350 C328 1.240 . S
O351 Mn325 2.117 . S
O351 C328 1.264 . S
C352 C345 1.403 . S
C352 C353 1.399 . S
C352 H358 0.929 . S
C353 C333 1.449 . S
C353 C352 1.399 . S
C353 H359 0.930 . S
H354 C334 0.931 . S
H355 C335 0.930 . S
H356 C343 0.931 1_545 S
H357 C344 0.929 . S
H358 C352 0.929 . S
H359 C353 0.930 . S
Mn360 O365 2.095 . S
Mn360 O375 2.162 . S
Mn360 O376 2.297 . S
Mn360 O384 2.385 . S
Mn360 O385 2.209 . S
Mn360 O386 2.094 . S
Mn361 O366 2.121 . S
Mn361 N368 2.257 1_655 S
Mn361 N377 2.282 . S
Mn361 O385 2.215 . S
Mn361 O387 2.117 . S
C362 O384 1.234 1_455 S
C362 O385 1.283 1_455 S
C363 O375 1.281 . S
C363 O376 1.236 . S
C364 O386 1.240 . S
C364 O387 1.264 . S
O365 Mn360 2.095 . S
O365 C374 1.250 . S
O366 Mn361 2.121 . S
O366 C374 1.258 . S
C367 N368 1.326 . S
C367 C371 1.460 . S
C367 H373 0.929 1_455 S
N368 Mn361 2.257 1_455 S
N368 C367 1.326 . S
N368 C372 1.362 . S
C369 C370 1.258 . S
C369 C372 1.431 . S
C369 C389 1.449 . S
C370 C369 1.258 . S
C370 C371 1.477 . S
C370 H390 0.931 . S
C371 C367 1.460 . S
C371 C370 1.477 . S
C371 H391 0.930 . S
C372 N368 1.362 . S
C372 C369 1.431 . S
C372 C382 1.476 . S
H373 C367 0.929 1_655 S
C374 O365 1.250 . S
C374 O366 1.258 . S
O375 Mn360 2.162 . S
O375 C363 1.281 . S
O376 Mn360 2.297 . S
O376 C363 1.236 . S
N377 Mn361 2.282 . S
N377 C378 1.328 . S
N377 C382 1.318 1_655 S
C378 N377 1.328 . S
C378 C379 1.457 1_655 S
C378 H383 0.929 . S
C379 C378 1.457 1_455 S
C379 C380 1.291 . S
C379 H392 0.931 1_455 S
C380 C379 1.291 . S
C380 C381 1.373 . S
C380 H393 0.929 . S
C381 C380 1.373 . S
C381 C382 1.396 . S
C381 C388 1.403 . S
C382 C372 1.476 . S
C382 N377 1.318 1_455 S
C382 C381 1.396 . S
H383 C378 0.929 . S
O384 Mn360 2.385 . S
O384 C362 1.234 1_655 S
O385 Mn360 2.209 . S
O385 Mn361 2.215 . S
O385 C362 1.283 1_655 S
O386 Mn360 2.094 . S
O386 C364 1.240 . S
O387 Mn361 2.117 . S
O387 C364 1.264 . S
C388 C381 1.403 . S
C388 C389 1.399 . S
C388 H394 0.929 . S
C389 C369 1.449 . S
C389 C388 1.399 . S
C389 H395 0.930 . S
H390 C370 0.931 . S
H391 C371 0.930 . S
H392 C379 0.931 1_655 S
H393 C380 0.929 . S
H394 C388 0.929 . S
H395 C389 0.930 . S
Mn396 O401 2.095 . S
Mn396 O411 2.162 . S
Mn396 O412 2.297 . S
Mn396 O420 2.385 . S
Mn396 O421 2.209 . S
Mn396 O422 2.094 . S
Mn397 O402 2.121 . S
Mn397 N404 2.257 . S
Mn397 N413 2.282 . S
Mn397 O421 2.215 . S
Mn397 O423 2.117 . S
C398 O420 1.234 . S
C398 O421 1.283 . S
C399 O411 1.281 . S
C399 O412 1.236 . S
C400 O422 1.240 . S
C400 O423 1.264 . S
O401 Mn396 2.095 . S
O401 C410 1.250 . S
O402 Mn397 2.121 . S
O402 C410 1.258 . S
C403 N404 1.326 . S
C403 C407 1.460 . S
C403 H409 0.929 . S
N404 Mn397 2.257 . S
N404 C403 1.326 . S
N404 C408 1.362 . S
C405 C406 1.258 . S
C405 C408 1.431 . S
C405 C425 1.449 . S
C406 C405 1.258 . S
C406 C407 1.477 . S
C406 H426 0.931 . S
C407 C403 1.460 . S
C407 C406 1.477 . S
C407 H427 0.930 . S
C408 N404 1.362 . S
C408 C405 1.431 . S
C408 C418 1.476 . S
H409 C403 0.929 . S
C410 O401 1.250 . S
C410 O402 1.258 . S
O411 Mn396 2.162 . S
O411 C399 1.281 . S
O412 Mn396 2.297 . S
O412 C399 1.236 . S
N413 Mn397 2.282 . S
N413 C414 1.328 . S
N413 C418 1.318 . S
C414 N413 1.328 . S
C414 C415 1.457 . S
C414 H419 0.929 . S
C415 C414 1.457 . S
C415 C416 1.291 . S
C415 H428 0.931 . S
C416 C415 1.291 . S
C416 C417 1.373 . S
C416 H429 0.929 . S
C417 C416 1.373 . S
C417 C418 1.396 . S
C417 C424 1.403 . S
C418 C408 1.476 . S
C418 N413 1.318 . S
C418 C417 1.396 . S
H419 C414 0.929 . S
O420 Mn396 2.385 . S
O420 C398 1.234 . S
O421 Mn396 2.209 . S
O421 Mn397 2.215 . S
O421 C398 1.283 . S
O422 Mn396 2.094 . S
O422 C400 1.240 . S
O423 Mn397 2.117 . S
O423 C400 1.264 . S
C424 C417 1.403 . S
C424 C425 1.399 . S
C424 H430 0.929 . S
C425 C405 1.449 . S
C425 C424 1.399 . S
C425 H431 0.930 . S
H426 C406 0.931 . S
H427 C407 0.930 . S
H428 C415 0.931 . S
H429 C416 0.929 . S
H430 C424 0.929 . S
H431 C425 0.930 . S
C432 C433 1.376 . S
C432 C438 1.379 . S
C432 N440 1.356 . S
C433 C432 1.376 . S
C433 C439 1.342 1_554 S
C434 C435 1.363 . S
C434 C439 1.379 . S
C434 N441 1.356 . S
C435 C434 1.363 . S
C435 C438 1.363 1_556 S
N436 C438 1.356 . S
N436 H448 0.984 . S
N436 H449 0.985 . S
N437 C439 1.356 . S
N437 H442 0.984 . S
N437 H443 0.985 . S
C438 C432 1.379 . S
C438 C435 1.363 1_554 S
C438 N436 1.356 . S
C439 C433 1.342 1_556 S
C439 C434 1.379 . S
C439 N437 1.356 . S
N440 C432 1.356 . S
N440 H446 0.984 . S
N440 H447 0.984 . S
N441 C434 1.356 . S
N441 H444 0.984 . S
N441 H445 0.985 . S
H442 N437 0.984 . S
H443 N437 0.985 . S
H444 N441 0.984 . S
H445 N441 0.985 . S
H446 N440 0.984 . S
H447 N440 0.984 . S
H448 N436 0.984 . S
H449 N436 0.985 . S
C450 C451 1.363 . S
C450 C456 1.379 . S
C450 N458 1.356 . S
C451 C450 1.363 . S
C451 C457 1.363 1_556 S
C452 C453 1.363 1_554 S
C452 C457 1.379 . S
C452 N459 1.356 . S
C453 C452 1.363 1_556 S
C453 C456 1.363 . S
N454 C456 1.356 . S
N454 H466 0.984 . S
N454 H467 0.987 . S
N455 C457 1.356 . S
N455 H460 0.984 . S
N455 H461 0.985 . S
C456 C450 1.379 . S
C456 C453 1.363 . S
C456 N454 1.356 . S
C457 C451 1.363 1_554 S
C457 C452 1.379 . S
C457 N455 1.356 . S
N458 C450 1.356 . S
N458 H464 0.984 . S
N458 H465 0.984 . S
N459 C452 1.356 . S
N459 H462 0.984 1_565 S
N459 H463 0.985 . S
H460 N455 0.984 . S
H461 N455 0.985 . S
H462 N459 0.984 1_545 S
H463 N459 0.985 . S
H464 N458 0.984 . S
H465 N458 0.984 . S
H466 N454 0.984 . S
H467 N454 0.987 . S
C468 C469 1.363 1_556 S
C468 C474 1.379 . S
C468 N476 1.356 1_556 S
C469 C468 1.363 1_554 S
C469 C475 1.363 1_554 S
C470 C471 1.363 . S
C470 C475 1.379 . S
C470 N477 1.356 . S
C471 C470 1.363 . S
C471 C474 1.363 . S
N472 C474 1.356 . S
N472 H484 0.984 . S
N472 H485 0.985 . S
N473 C475 1.354 1_554 S
N473 H478 0.988 . S
N473 H479 0.983 1_554 S
C474 C468 1.379 . S
C474 C471 1.363 . S
C474 N472 1.356 . S
C475 C469 1.363 1_556 S
C475 C470 1.379 . S
C475 N473 1.354 1_556 S
N476 C468 1.356 1_554 S
N476 H482 0.984 . S
N476 H483 0.984 . S
N477 C470 1.356 . S
N477 H480 0.984 1_455 S
N477 H481 0.985 . S
H478 N473 0.988 . S
H479 N473 0.983 1_556 S
H480 N477 0.984 1_655 S
H481 N477 0.985 . S
H482 N476 0.984 . S
H483 N476 0.984 . S
H484 N472 0.984 . S
H485 N472 0.985 . S
C486 C487 1.363 . S
C486 C492 1.379 . S
C486 N494 1.356 . S
C487 C486 1.363 . S
C487 C493 1.363 . S
C488 C489 1.363 . S
C488 C493 1.379 . S
C488 N495 1.356 . S
C489 C488 1.363 . S
C489 C492 1.363 . S
N490 C492 1.356 . S
N490 H502 0.984 . S
N490 H503 0.985 . S
N491 C493 1.356 . S
N491 H496 0.984 . S
N491 H497 0.985 . S
C492 C486 1.379 . S
C492 C489 1.363 . S
C492 N490 1.356 . S
C493 C487 1.363 . S
C493 C488 1.379 . S
C493 N491 1.356 . S
N494 C486 1.356 . S
N494 H500 0.984 . S
N494 H501 0.984 . S
N495 C488 1.356 . S
N495 H498 0.984 . S
N495 H499 0.985 . S
H496 N491 0.984 . S
H497 N491 0.985 . S
H498 N495 0.984 . S
H499 N495 0.985 . S
H500 N494 0.984 . S
H501 N494 0.984 . S
H502 N490 0.984 . S
H503 N490 0.985 . S
C504 C505 1.363 . S
C504 C510 1.379 . S
C504 N512 1.356 . S
C505 C504 1.363 . S
C505 C511 1.363 . S
C506 C507 1.363 . S
C506 C511 1.379 . S
C506 N513 1.356 . S
C507 C506 1.363 . S
C507 C510 1.363 . S
N508 C510 1.356 . S
N508 H520 0.984 . S
N508 H521 0.985 . S
N509 C511 1.356 . S
N509 H514 0.984 . S
N509 H515 0.985 . S
C510 C504 1.379 . S
C510 C507 1.363 . S
C510 N508 1.356 . S
C511 C505 1.363 . S
C511 C506 1.379 . S
C511 N509 1.356 . S
N512 C504 1.356 . S
N512 H518 0.984 . S
N512 H519 0.984 . S
N513 C506 1.356 . S
N513 H516 0.984 1_565 S
N513 H517 0.985 . S
H514 N509 0.984 . S
H515 N509 0.985 . S
H516 N513 0.984 1_545 S
H517 N513 0.985 . S
H518 N512 0.984 . S
H519 N512 0.984 . S
H520 N508 0.984 . S
H521 N508 0.985 . S
C522 C523 1.363 . S
C522 C528 1.379 . S
C522 N530 1.356 . S
C523 C522 1.363 . S
C523 C529 1.363 . S
C524 C525 1.363 . S
C524 C529 1.379 . S
C524 N531 1.356 . S
C525 C524 1.363 . S
C525 C528 1.363 . S
N526 C528 1.356 . S
N526 H538 0.984 . S
N526 H539 0.985 . S
N527 C529 1.356 . S
N527 H532 0.984 1_455 S
N527 H533 0.985 1_455 S
C528 C522 1.379 . S
C528 C525 1.363 . S
C528 N526 1.356 . S
C529 C523 1.363 . S
C529 C524 1.379 . S
C529 N527 1.356 . S
N530 C522 1.356 . S
N530 H536 0.984 . S
N530 H537 0.984 . S
N531 C524 1.356 . S
N531 H534 0.984 . S
N531 H535 0.985 . S
H532 N527 0.984 1_655 S
H533 N527 0.985 1_655 S
H534 N531 0.984 . S
H535 N531 0.985 . S
H536 N530 0.984 . S
H537 N530 0.984 . S
H538 N526 0.984 . S
H539 N526 0.985 . S
C540 C541 1.363 1_556 S
C540 C546 1.379 . S
C540 N548 1.356 . S
C541 C540 1.363 1_554 S
C541 C547 1.363 . S
C542 C543 1.363 1_554 S
C542 C547 1.379 . S
C542 N549 1.356 . S
C543 C542 1.363 1_556 S
C543 C546 1.363 . S
N544 C546 1.356 . S
N544 H556 0.984 . S
N544 H557 0.985 . S
N545 C547 1.356 . S
N545 H550 0.984 . S
N545 H551 0.985 . S
C546 C540 1.379 . S
C546 C543 1.363 . S
C546 N544 1.356 . S
C547 C541 1.363 . S
C547 C542 1.379 . S
C547 N545 1.356 . S
N548 C540 1.356 . S
N548 H554 0.984 . S
N548 H555 0.984 . S
N549 C542 1.356 . S
N549 H552 0.984 . S
N549 H553 0.985 . S
H550 N545 0.984 . S
H551 N545 0.985 . S
H552 N549 0.984 . S
H553 N549 0.985 . S
H554 N548 0.984 . S
H555 N548 0.984 . S
H556 N544 0.984 . S
H557 N544 0.985 . S
C558 C559 1.363 1_554 S
C558 C564 1.379 . S
C558 N566 1.356 . S
C559 C558 1.363 1_556 S
C559 C565 1.363 . S
C560 C561 1.363 1_556 S
C560 C565 1.379 . S
C560 N567 1.356 . S
C561 C560 1.363 1_554 S
C561 C564 1.363 . S
N562 C564 1.356 . S
N562 H574 0.984 . S
N562 H575 0.985 . S
N563 C565 1.356 . S
N563 H568 0.984 . S
N563 H569 0.985 . S
C564 C558 1.379 . S
C564 C561 1.363 . S
C564 N562 1.356 . S
C565 C559 1.363 . S
C565 C560 1.379 . S
C565 N563 1.356 . S
N566 C558 1.356 . S
N566 H572 0.984 . S
N566 H573 0.984 . S
N567 C560 1.356 . S
N567 H570 0.984 1_545 S
N567 H571 0.985 . S
H568 N563 0.984 . S
H569 N563 0.985 . S
H570 N567 0.984 1_565 S
H571 N567 0.985 . S
H572 N566 0.984 . S
H573 N566 0.984 . S
H574 N562 0.984 . S
H575 N562 0.985 . S
C576 C577 1.363 1_556 S
C576 C582 1.379 . S
C576 N584 1.356 . S
C577 C576 1.363 1_554 S
C577 C583 1.363 . S
C578 C579 1.382 . S
C578 C583 1.379 . S
C578 N585 1.356 . S
C579 C578 1.382 . S
C579 C582 1.351 1_554 S
N580 C582 1.356 . S
N580 H592 0.984 . S
N580 H593 0.985 . S
N581 C583 1.356 . S
N581 H586 0.984 . S
N581 H587 0.985 . S
C582 C576 1.379 . S
C582 C579 1.351 1_556 S
C582 N580 1.356 . S
C583 C577 1.363 . S
C583 C578 1.379 . S
C583 N581 1.356 . S
N584 C576 1.356 . S
N584 H590 0.984 . S
N584 H591 0.984 1_655 S
N585 C578 1.356 . S
N585 H588 0.984 . S
N585 H589 0.985 . S
H586 N581 0.984 . S
H587 N581 0.985 . S
H588 N585 0.984 . S
H589 N585 0.985 . S
H590 N584 0.984 . S
H591 N584 0.984 1_455 S
H592 N580 0.984 . S
H593 N580 0.985 . S
C594 C595 1.363 . S
C594 C600 1.379 . S
C594 N602 1.356 . S
C595 C594 1.363 . S
C595 C601 1.363 . S
C596 C597 1.363 . S
C596 C601 1.379 . S
C596 N603 1.356 . S
C597 C596 1.363 . S
C597 C600 1.363 . S
N598 C600 1.356 . S
N598 H610 0.984 . S
N598 H611 0.985 . S
N599 C601 1.356 . S
N599 H604 0.984 . S
N599 H605 0.985 . S
C600 C594 1.379 . S
C600 C597 1.363 . S
C600 N598 1.356 . S
C601 C595 1.363 . S
C601 C596 1.379 . S
C601 N599 1.356 . S
N602 C594 1.356 . S
N602 H608 0.984 . S
N602 H609 0.984 . S
N603 C596 1.356 . S
N603 H606 0.984 . S
N603 H607 0.985 . S
H604 N599 0.984 . S
H605 N599 0.985 . S
H606 N603 0.984 . S
H607 N603 0.985 . S
H608 N602 0.984 . S
H609 N602 0.984 . S
H610 N598 0.984 . S
H611 N598 0.985 . S
C612 C613 1.363 . S
C612 C618 1.379 . S
C612 N620 1.356 . S
C613 C612 1.363 . S
C613 C619 1.363 . S
C614 C615 1.363 . S
C614 C619 1.379 . S
C614 N621 1.356 . S
C615 C614 1.363 . S
C615 C618 1.363 . S
N616 C618 1.356 . S
N616 H628 0.984 . S
N616 H629 0.985 . S
N617 C619 1.356 . S
N617 H622 0.984 . S
N617 H623 0.985 . S
C618 C612 1.379 . S
C618 C615 1.363 . S
C618 N616 1.356 . S
C619 C613 1.363 . S
C619 C614 1.379 . S
C619 N617 1.356 . S
N620 C612 1.356 . S
N620 H626 0.984 . S
N620 H627 0.984 . S
N621 C614 1.356 . S
N621 H624 0.984 1_545 S
N621 H625 0.985 . S
H622 N617 0.984 . S
H623 N617 0.985 . S
H624 N621 0.984 1_565 S
H625 N621 0.985 . S
H626 N620 0.984 . S
H627 N620 0.984 . S
H628 N616 0.984 . S
H629 N616 0.985 . S
C630 C631 1.363 . S
C630 C636 1.379 . S
C630 N638 1.356 . S
C631 C630 1.363 . S
C631 C637 1.363 . S
C632 C633 1.363 . S
C632 C637 1.379 . S
C632 N639 1.356 . S
C633 C632 1.363 . S
C633 C636 1.363 . S
N634 C636 1.356 . S
N634 H646 0.984 . S
N634 H647 0.985 . S
N635 C637 1.356 . S
N635 H640 0.984 1_655 S
N635 H641 0.985 . S
C636 C630 1.379 . S
C636 C633 1.363 . S
C636 N634 1.356 . S
C637 C631 1.363 . S
C637 C632 1.379 . S
C637 N635 1.356 . S
N638 C630 1.356 . S
N638 H644 0.984 . S
N638 H645 0.984 . S
N639 C632 1.356 . S
N639 H642 0.984 . S
N639 H643 0.985 . S
H640 N635 0.984 1_455 S
H641 N635 0.985 . S
H642 N639 0.984 . S
H643 N639 0.985 . S
H644 N638 0.984 . S
H645 N638 0.984 . S
H646 N634 0.984 . S
H647 N634 0.985 . S
C648 C649 1.363 . S
C648 C654 1.379 . S
C648 N656 1.356 . S
C649 C648 1.363 . S
C649 C655 1.363 . S
C650 C651 1.363 . S
C650 C655 1.379 . S
C650 N657 1.356 . S
C651 C650 1.363 . S
C651 C654 1.363 . S
N652 C654 1.356 . S
N652 H664 0.984 . S
N652 H665 0.985 . S
N653 C655 1.356 . S
N653 H658 0.984 . S
N653 H659 0.985 . S
C654 C648 1.379 . S
C654 C651 1.363 . S
C654 N652 1.356 . S
C655 C649 1.363 . S
C655 C650 1.379 . S
C655 N653 1.356 . S
N656 C648 1.356 . S
N656 H662 0.984 . S
N656 H663 0.984 . S
N657 C650 1.356 . S
N657 H660 0.984 . S
N657 H661 0.985 . S
H658 N653 0.984 . S
H659 N653 0.985 . S
H660 N657 0.984 . S
H661 N657 0.985 . S
H662 N656 0.984 . S
H663 N656 0.984 . S
H664 N652 0.984 . S
H665 N652 0.985 . S
C666 C667 1.363 . S
C666 C672 1.379 . S
C666 N674 1.356 . S
C667 C666 1.363 . S
C667 C673 1.363 . S
C668 C669 1.363 . S
C668 C673 1.379 . S
C668 N675 1.356 . S
C669 C668 1.363 . S
C669 C672 1.363 . S
N670 C672 1.356 . S
N670 H682 0.984 . S
N670 H683 0.985 . S
N671 C673 1.356 . S
N671 H676 0.984 . S
N671 H677 0.985 . S
C672 C666 1.379 . S
C672 C669 1.363 . S
C672 N670 1.356 . S
C673 C667 1.363 . S
C673 C668 1.379 . S
C673 N671 1.356 . S
N674 C666 1.356 . S
N674 H680 0.984 . S
N674 H681 0.984 . S
N675 C668 1.356 . S
N675 H678 0.984 . S
N675 H679 0.985 . S
H676 N671 0.984 . S
H677 N671 0.985 . S
H678 N675 0.984 . S
H679 N675 0.985 . S
H680 N674 0.984 . S
H681 N674 0.984 . S
H682 N670 0.984 . S
H683 N670 0.985 . S
C684 C685 1.363 . S
C684 C690 1.379 . S
C684 N692 1.356 . S
C685 C684 1.363 . S
C685 C691 1.363 . S
C686 C687 1.363 . S
C686 C691 1.379 . S
C686 N693 1.356 . S
C687 C686 1.363 . S
C687 C690 1.363 . S
N688 C690 1.356 . S
N688 H700 0.984 . S
N688 H701 0.985 . S
N689 C691 1.356 . S
N689 H694 0.984 . S
N689 H695 0.985 . S
C690 C684 1.379 . S
C690 C687 1.363 . S
C690 N688 1.356 . S
C691 C685 1.363 . S
C691 C686 1.379 . S
C691 N689 1.356 . S
N692 C684 1.356 . S
N692 H698 0.984 . S
N692 H699 0.984 . S
N693 C686 1.356 . S
N693 H696 0.984 . S
N693 H697 0.985 . S
H694 N689 0.984 . S
H695 N689 0.985 . S
H696 N693 0.984 . S
H697 N693 0.985 . S
H698 N692 0.984 . S
H699 N692 0.984 . S
H700 N688 0.984 . S
H701 N688 0.985 . S
C702 C703 1.363 . S
C702 C708 1.379 . S
C702 N710 1.356 . S
C703 C702 1.363 . S
C703 C709 1.363 . S
C704 C705 1.363 . S
C704 C709 1.379 . S
C704 N711 1.356 . S
C705 C704 1.363 . S
C705 C708 1.363 . S
N706 C708 1.356 . S
N706 H718 0.984 . S
N706 H719 0.985 . S
N707 C709 1.356 . S
N707 H712 0.984 . S
N707 H713 0.985 . S
C708 C702 1.379 . S
C708 C705 1.363 . S
C708 N706 1.356 . S
C709 C703 1.363 . S
C709 C704 1.379 . S
C709 N707 1.356 . S
N710 C702 1.356 . S
N710 H716 0.984 . S
N710 H717 0.984 . S
N711 C704 1.356 . S
N711 H714 0.984 . S
N711 H715 0.985 . S
H712 N707 0.984 . S
H713 N707 0.985 . S
H714 N711 0.984 . S
H715 N711 0.985 . S
H716 N710 0.984 . S
H717 N710 0.984 . S
H718 N706 0.984 . S
H719 N706 0.985 . S
C720 C721 1.363 . S
C720 C726 1.379 . S
C720 N728 1.356 . S
C721 C720 1.363 . S
C721 C727 1.363 . S
C722 C723 1.363 . S
C722 C727 1.379 . S
C722 N729 1.356 . S
C723 C722 1.363 . S
C723 C726 1.363 . S
N724 C726 1.356 . S
N724 H736 0.984 . S
N724 H737 0.985 . S
N725 C727 1.356 . S
N725 H730 0.984 . S
N725 H731 0.985 . S
C726 C720 1.379 . S
C726 C723 1.363 . S
C726 N724 1.356 . S
C727 C721 1.363 . S
C727 C722 1.379 . S
C727 N725 1.356 . S
N728 C720 1.356 . S
N728 H734 0.984 . S
N728 H735 0.984 . S
N729 C722 1.356 . S
N729 H732 0.984 . S
N729 H733 0.985 . S
H730 N725 0.984 . S
H731 N725 0.985 . S
H732 N729 0.984 . S
H733 N729 0.985 . S
H734 N728 0.984 . S
H735 N728 0.984 . S
H736 N724 0.984 . S
H737 N724 0.985 . S
C738 C739 1.363 . S
C738 C744 1.379 . S
C738 N746 1.356 . S
C739 C738 1.363 . S
C739 C745 1.363 . S
C740 C741 1.363 . S
C740 C745 1.379 . S
C740 N747 1.356 . S
C741 C740 1.363 . S
C741 C744 1.363 . S
N742 C744 1.356 . S
N742 H754 0.984 . S
N742 H755 0.985 . S
N743 C745 1.356 . S
N743 H748 0.984 . S
N743 H749 0.985 . S
C744 C738 1.379 . S
C744 C741 1.363 . S
C744 N742 1.356 . S
C745 C739 1.363 . S
C745 C740 1.379 . S
C745 N743 1.356 . S
N746 C738 1.356 . S
N746 H752 0.984 . S
N746 H753 0.984 . S
N747 C740 1.356 . S
N747 H750 0.984 . S
N747 H751 0.985 . S
H748 N743 0.984 . S
H749 N743 0.985 . S
H750 N747 0.984 . S
H751 N747 0.985 . S
H752 N746 0.984 . S
H753 N746 0.984 . S
H754 N742 0.984 . S
H755 N742 0.985 . S
C756 C757 1.363 . S
C756 C762 1.379 . S
C756 N764 1.356 . S
C757 C756 1.363 . S
C757 C763 1.363 1_454 S
C758 C759 1.363 . S
C758 C763 1.379 . S
C758 N765 1.356 . S
C759 C758 1.363 . S
C759 C762 1.363 1_656 S
N760 C762 1.356 . S
N760 H772 0.984 . S
N760 H773 0.985 1_454 S
N761 C763 1.366 . S
N761 H766 0.971 1_656 S
N761 H767 0.988 . S
C762 C756 1.379 . S
C762 C759 1.363 1_454 S
C762 N760 1.356 . S
C763 C757 1.363 1_656 S
C763 C758 1.379 . S
C763 N761 1.366 . S
N764 C756 1.356 . S
N764 H770 0.984 . S
N764 H771 0.984 . S
N765 C758 1.356 . S
N765 H768 0.984 . S
N765 H769 0.985 . S
H766 N761 0.971 1_454 S
H767 N761 0.988 . S
H768 N765 0.984 . S
H769 N765 0.985 . S
H770 N764 0.984 . S
H771 N764 0.984 . S
H772 N760 0.984 . S
H773 N760 0.985 1_656 S
C774 C775 1.363 1_556 S
C774 C780 1.379 . S
C774 N782 1.356 . S
C775 C774 1.363 1_554 S
C775 C781 1.363 . S
C776 C777 1.363 1_554 S
C776 C781 1.379 . S
C776 N783 1.356 . S
C777 C776 1.363 1_556 S
C777 C780 1.363 . S
N778 C780 1.356 . S
N778 H790 0.984 . S
N778 H791 0.985 . S
N779 C781 1.356 . S
N779 H784 0.984 . S
N779 H785 0.985 . S
C780 C774 1.379 . S
C780 C777 1.363 . S
C780 N778 1.356 . S
C781 C775 1.363 . S
C781 C776 1.379 . S
C781 N779 1.356 . S
N782 C774 1.356 . S
N782 H788 0.984 . S
N782 H789 0.984 . S
N783 C776 1.356 . S
N783 H786 0.984 1_554 S
N783 H787 0.985 . S
H784 N779 0.984 . S
H785 N779 0.985 . S
H786 N783 0.984 1_556 S
H787 N783 0.985 . S
H788 N782 0.984 . S
H789 N782 0.984 . S
H790 N778 0.984 . S
H791 N778 0.985 . S
C792 C793 1.363 1_556 S
C792 C798 1.379 . S
C792 N800 1.356 . S
C793 C792 1.363 1_554 S
C793 C799 1.363 . S
C794 C795 1.363 1_554 S
C794 C799 1.379 1_545 S
C794 N801 1.356 . S
C795 C794 1.363 1_556 S
C795 C798 1.363 1_545 S
N796 C798 1.356 1_545 S
N796 H808 0.984 1_545 S
N796 H809 0.985 . S
N797 C799 1.356 . S
N797 H802 0.984 . S
N797 H803 0.985 . S
C798 C792 1.379 . S
C798 C795 1.363 1_565 S
C798 N796 1.356 1_565 S
C799 C793 1.363 . S
C799 C794 1.379 1_565 S
C799 N797 1.356 . S
N800 C792 1.356 . S
N800 H806 0.984 . S
N800 H807 0.984 . S
N801 C794 1.356 . S
N801 H804 0.984 . S
N801 H805 0.985 . S
H802 N797 0.984 . S
H803 N797 0.985 . S
H804 N801 0.984 . S
H805 N801 0.985 . S
H806 N800 0.984 . S
H807 N800 0.984 . S
H808 N796 0.984 1_565 S
H809 N796 0.985 . S
C810 C811 1.363 . S
C810 C816 1.379 . S
C810 N818 1.356 . S
C811 C810 1.363 . S
C811 C817 1.363 1_565 S
C812 C813 1.363 . S
C812 C817 1.379 . S
C812 N819 1.356 . S
C813 C812 1.363 . S
C813 C816 1.363 1_545 S
N814 C816 1.356 . S
N814 H826 0.984 . S
N814 H827 0.985 . S
N815 C817 1.356 . S
N815 H820 0.984 1_545 S
N815 H821 0.985 . S
C816 C810 1.379 . S
C816 C813 1.363 1_565 S
C816 N814 1.356 . S
C817 C811 1.363 1_545 S
C817 C812 1.379 . S
C817 N815 1.356 . S
N818 C810 1.356 . S
N818 H824 0.984 . S
N818 H825 0.984 . S
N819 C812 1.356 . S
N819 H822 0.984 . S
N819 H823 0.985 . S
H820 N815 0.984 1_565 S
H821 N815 0.985 . S
H822 N819 0.984 . S
H823 N819 0.985 . S
H824 N818 0.984 . S
H825 N818 0.984 . S
H826 N814 0.984 . S
H827 N814 0.985 . S
C828 C829 1.363 . S
C828 C834 1.379 . S
C828 N836 1.356 . S
C829 C828 1.363 . S
C829 C835 1.363 1_655 S
C830 C831 1.363 . S
C830 C835 1.379 . S
C830 N837 1.356 . S
C831 C830 1.363 . S
C831 C834 1.363 1_455 S
N832 C834 1.356 . S
N832 H844 0.984 . S
N832 H845 0.985 1_655 S
N833 C835 1.356 . S
N833 H838 0.984 1_455 S
N833 H839 0.985 . S
C834 C828 1.379 . S
C834 C831 1.363 1_655 S
C834 N832 1.356 . S
C835 C829 1.363 1_455 S
C835 C830 1.379 . S
C835 N833 1.356 . S
N836 C828 1.356 . S
N836 H842 0.984 . S
N836 H843 0.984 . S
N837 C830 1.356 . S
N837 H840 0.984 . S
N837 H841 0.985 . S
H838 N833 0.984 1_655 S
H839 N833 0.985 . S
H840 N837 0.984 . S
H841 N837 0.985 . S
H842 N836 0.984 . S
H843 N836 0.984 . S
H844 N832 0.984 . S
H845 N832 0.985 1_455 S
C846 C847 1.363 . S
C846 C852 1.379 . S
C846 N854 1.356 . S
C847 C846 1.363 . S
C847 C853 1.363 . S
C848 C849 1.363 . S
C848 C853 1.379 . S
C848 N855 1.356 . S
C849 C848 1.363 . S
C849 C852 1.363 . S
N850 C852 1.356 . S
N850 H862 0.984 . S
N850 H863 0.985 . S
N851 C853 1.356 . S
N851 H856 0.984 . S
N851 H857 0.985 . S
C852 C846 1.379 . S
C852 C849 1.363 . S
C852 N850 1.356 . S
C853 C847 1.363 . S
C853 C848 1.379 . S
C853 N851 1.356 . S
N854 C846 1.356 . S
N854 H860 0.984 . S
N854 H861 0.984 . S
N855 C848 1.356 . S
N855 H858 0.984 . S
N855 H859 0.985 . S
H856 N851 0.984 . S
H857 N851 0.985 . S
H858 N855 0.984 . S
H859 N855 0.985 . S
H860 N854 0.984 . S
H861 N854 0.984 . S
H862 N850 0.984 . S
H863 N850 0.985 . S
C433 C4 0.920 . S
C435 C254 0.906 . S
C451 C40 0.898 1_556 S
C453 C290 0.903 . S
C469 C86 0.952 . S
C471 C218 0.956 . S
C487 C398 0.956 . S
C489 C122 0.952 . S
C505 C148 0.898 . S
C507 C326 0.904 . S
C523 C362 0.906 . S
C525 C184 0.909 . S
C541 C38 0.872 . S
C543 C220 0.869 . S
C559 C256 0.862 . S
C561 C75 0.870 . S
C577 C2 0.952 . S
C579 C292 0.936 1_554 S
C595 C328 0.947 . S
C597 C182 0.952 . S
C613 C364 0.862 . S
C615 C111 0.870 . S
C631 C146 0.872 . S
C633 C400 0.869 . S
C649 C194 1.518 . S
C651 C14 1.518 . S
C667 C50 1.479 . S
C669 C112 1.600 . S
C685 C76 1.600 . S
C687 C158 1.479 . S
C703 C230 1.512 . S
C705 C410 1.512 . S
C721 C266 1.508 . S
C723 C338 1.507 . S
C739 C302 1.507 . S
C741 C374 1.508 . S
C757 C3 1.679 . S
C759 C219 1.679 . S
C775 C39 1.686 . S
C777 C255 1.681 . S
C793 C74 1.688 . S
C795 C291 1.729 . S
C811 C110 1.688 . S
C813 C327 1.729 . S
C829 C363 1.681 . S
C831 C147 1.686 . S
C847 C183 1.679 . S
C849 C399 1.679 . S
