# Generated by pormake.
# Topology wmt, (6)-cn, num edge types: 1
# Building blocks:
#     Node 0, Type 0, BuildingBlock: BETFEN_clean_sbu_0, # of connection points: 6
#     Node 1, Type 0, BuildingBlock: BETFEN_clean_sbu_0, # of connection points: 6
#     Node 2, Type 0, BuildingBlock: BETFEN_clean_sbu_0, # of connection points: 6
#     Node 3, Type 0, BuildingBlock: BETFEN_clean_sbu_0, # of connection points: 6
#     Node 4, Type 0, BuildingBlock: BETFEN_clean_sbu_0, # of connection points: 6
#     Node 5, Type 0, BuildingBlock: BETFEN_clean_sbu_0, # of connection points: 6
#     Node 6, Type 0, BuildingBlock: BETFEN_clean_sbu_0, # of connection points: 6
#     Node 7, Type 0, BuildingBlock: BETFEN_clean_sbu_0, # of connection points: 6
#     Node 8, Type 0, BuildingBlock: BETFEN_clean_sbu_0, # of connection points: 6
#     Node 9, Type 0, BuildingBlock: BETFEN_clean_sbu_0, # of connection points: 6
#     Node 10, Type 0, BuildingBlock: BETFEN_clean_sbu_0, # of connection points: 6
#     Node 11, Type 0, BuildingBlock: BETFEN_clean_sbu_0, # of connection points: 6
#     Node 12, Type 0, BuildingBlock: BETFEN_clean_sbu_0, # of connection points: 6
#     Node 13, Type 0, BuildingBlock: BETFEN_clean_sbu_0, # of connection points: 6
#     Node 14, Type 0, BuildingBlock: BETFEN_clean_sbu_0, # of connection points: 6
#     Node 15, Type 0, BuildingBlock: BETFEN_clean_sbu_0, # of connection points: 6
#     Node 16, Type 0, BuildingBlock: BETFEN_clean_sbu_0, # of connection points: 6
#     Node 17, Type 0, BuildingBlock: BETFEN_clean_sbu_0, # of connection points: 6
#     Node 18, Type 0, BuildingBlock: BETFEN_clean_sbu_0, # of connection points: 6
#     Node 19, Type 0, BuildingBlock: BETFEN_clean_sbu_0, # of connection points: 6
#     Node 20, Type 0, BuildingBlock: BETFEN_clean_sbu_0, # of connection points: 6
#     Node 21, Type 0, BuildingBlock: BETFEN_clean_sbu_0, # of connection points: 6
#     Node 22, Type 0, BuildingBlock: BETFEN_clean_sbu_0, # of connection points: 6
#     Node 23, Type 0, BuildingBlock: BETFEN_clean_sbu_0, # of connection points: 6
#     Node 24, Type 0, BuildingBlock: BETFEN_clean_sbu_0, # of connection points: 6
#     Node 25, Type 0, BuildingBlock: BETFEN_clean_sbu_0, # of connection points: 6
#     Node 26, Type 0, BuildingBlock: BETFEN_clean_sbu_0, # of connection points: 6
#     Node 27, Type 0, BuildingBlock: BETFEN_clean_sbu_0, # of connection points: 6
#     Node 28, Type 0, BuildingBlock: BETFEN_clean_sbu_0, # of connection points: 6
#     Node 29, Type 0, BuildingBlock: BETFEN_clean_sbu_0, # of connection points: 6
#     Node 30, Type 0, BuildingBlock: BETFEN_clean_sbu_0, # of connection points: 6
#     Node 31, Type 0, BuildingBlock: BETFEN_clean_sbu_0, # of connection points: 6
#     Node 32, Type 0, BuildingBlock: BETFEN_clean_sbu_0, # of connection points: 6
#     Node 33, Type 0, BuildingBlock: BETFEN_clean_sbu_0, # of connection points: 6
#     Node 34, Type 0, BuildingBlock: BETFEN_clean_sbu_0, # of connection points: 6
#     Node 35, Type 0, BuildingBlock: BETFEN_clean_sbu_0, # of connection points: 6
#     Edge 36, Type (0, 0), BuildingBlock: XIVTED_clean_linker_0, # of connection points: 2
#     Edge 37, Type (0, 0), BuildingBlock: XIVTED_clean_linker_0, # of connection points: 2
#     Edge 38, Type (0, 0), BuildingBlock: XIVTED_clean_linker_0, # of connection points: 2
#     Edge 39, Type (0, 0), BuildingBlock: XIVTED_clean_linker_0, # of connection points: 2
#     Edge 40, Type (0, 0), BuildingBlock: XIVTED_clean_linker_0, # of connection points: 2
#     Edge 41, Type (0, 0), BuildingBlock: XIVTED_clean_linker_0, # of connection points: 2
#     Edge 42, Type (0, 0), BuildingBlock: XIVTED_clean_linker_0, # of connection points: 2
#     Edge 43, Type (0, 0), BuildingBlock: XIVTED_clean_linker_0, # of connection points: 2
#     Edge 44, Type (0, 0), BuildingBlock: XIVTED_clean_linker_0, # of connection points: 2
#     Edge 45, Type (0, 0), BuildingBlock: XIVTED_clean_linker_0, # of connection points: 2
#     Edge 46, Type (0, 0), BuildingBlock: XIVTED_clean_linker_0, # of connection points: 2
#     Edge 47, Type (0, 0), BuildingBlock: XIVTED_clean_linker_0, # of connection points: 2
#     Edge 48, Type (0, 0), BuildingBlock: XIVTED_clean_linker_0, # of connection points: 2
#     Edge 49, Type (0, 0), BuildingBlock: XIVTED_clean_linker_0, # of connection points: 2
#     Edge 50, Type (0, 0), BuildingBlock: XIVTED_clean_linker_0, # of connection points: 2
#     Edge 51, Type (0, 0), BuildingBlock: XIVTED_clean_linker_0, # of connection points: 2
#     Edge 52, Type (0, 0), BuildingBlock: XIVTED_clean_linker_0, # of connection points: 2
#     Edge 53, Type (0, 0), BuildingBlock: XIVTED_clean_linker_0, # of connection points: 2
#     Edge 54, Type (0, 0), BuildingBlock: XIVTED_clean_linker_0, # of connection points: 2
#     Edge 55, Type (0, 0), BuildingBlock: XIVTED_clean_linker_0, # of connection points: 2
#     Edge 56, Type (0, 0), BuildingBlock: XIVTED_clean_linker_0, # of connection points: 2
#     Edge 57, Type (0, 0), BuildingBlock: XIVTED_clean_linker_0, # of connection points: 2
#     Edge 58, Type (0, 0), BuildingBlock: XIVTED_clean_linker_0, # of connection points: 2
#     Edge 59, Type (0, 0), BuildingBlock: XIVTED_clean_linker_0, # of connection points: 2
#     Edge 60, Type (0, 0), BuildingBlock: XIVTED_clean_linker_0, # of connection points: 2
#     Edge 61, Type (0, 0), BuildingBlock: XIVTED_clean_linker_0, # of connection points: 2
#     Edge 62, Type (0, 0), BuildingBlock: XIVTED_clean_linker_0, # of connection points: 2
#     Edge 63, Type (0, 0), BuildingBlock: XIVTED_clean_linker_0, # of connection points: 2
#     Edge 64, Type (0, 0), BuildingBlock: XIVTED_clean_linker_0, # of connection points: 2
#     Edge 65, Type (0, 0), BuildingBlock: XIVTED_clean_linker_0, # of connection points: 2
#     Edge 66, Type (0, 0), BuildingBlock: XIVTED_clean_linker_0, # of connection points: 2
#     Edge 67, Type (0, 0), BuildingBlock: XIVTED_clean_linker_0, # of connection points: 2
#     Edge 68, Type (0, 0), BuildingBlock: XIVTED_clean_linker_0, # of connection points: 2
#     Edge 69, Type (0, 0), BuildingBlock: XIVTED_clean_linker_0, # of connection points: 2
#     Edge 70, Type (0, 0), BuildingBlock: XIVTED_clean_linker_0, # of connection points: 2
#     Edge 71, Type (0, 0), BuildingBlock: XIVTED_clean_linker_0, # of connection points: 2
#     Edge 72, Type (0, 0), BuildingBlock: XIVTED_clean_linker_0, # of connection points: 2
#     Edge 73, Type (0, 0), BuildingBlock: XIVTED_clean_linker_0, # of connection points: 2
#     Edge 74, Type (0, 0), BuildingBlock: XIVTED_clean_linker_0, # of connection points: 2
#     Edge 75, Type (0, 0), BuildingBlock: XIVTED_clean_linker_0, # of connection points: 2
#     Edge 76, Type (0, 0), BuildingBlock: XIVTED_clean_linker_0, # of connection points: 2
#     Edge 77, Type (0, 0), BuildingBlock: XIVTED_clean_linker_0, # of connection points: 2
#     Edge 78, Type (0, 0), BuildingBlock: XIVTED_clean_linker_0, # of connection points: 2
#     Edge 79, Type (0, 0), BuildingBlock: XIVTED_clean_linker_0, # of connection points: 2
#     Edge 80, Type (0, 0), BuildingBlock: XIVTED_clean_linker_0, # of connection points: 2
#     Edge 81, Type (0, 0), BuildingBlock: XIVTED_clean_linker_0, # of connection points: 2
#     Edge 82, Type (0, 0), BuildingBlock: XIVTED_clean_linker_0, # of connection points: 2
#     Edge 83, Type (0, 0), BuildingBlock: XIVTED_clean_linker_0, # of connection points: 2
#     Edge 84, Type (0, 0), BuildingBlock: XIVTED_clean_linker_0, # of connection points: 2
#     Edge 85, Type (0, 0), BuildingBlock: XIVTED_clean_linker_0, # of connection points: 2
#     Edge 86, Type (0, 0), BuildingBlock: XIVTED_clean_linker_0, # of connection points: 2
#     Edge 87, Type (0, 0), BuildingBlock: XIVTED_clean_linker_0, # of connection points: 2
#     Edge 88, Type (0, 0), BuildingBlock: XIVTED_clean_linker_0, # of connection points: 2
#     Edge 89, Type (0, 0), BuildingBlock: XIVTED_clean_linker_0, # of connection points: 2
#     Edge 90, Type (0, 0), BuildingBlock: XIVTED_clean_linker_0, # of connection points: 2
#     Edge 91, Type (0, 0), BuildingBlock: XIVTED_clean_linker_0, # of connection points: 2
#     Edge 92, Type (0, 0), BuildingBlock: XIVTED_clean_linker_0, # of connection points: 2
#     Edge 93, Type (0, 0), BuildingBlock: XIVTED_clean_linker_0, # of connection points: 2
#     Edge 94, Type (0, 0), BuildingBlock: XIVTED_clean_linker_0, # of connection points: 2
#     Edge 95, Type (0, 0), BuildingBlock: XIVTED_clean_linker_0, # of connection points: 2
#     Edge 96, Type (0, 0), BuildingBlock: XIVTED_clean_linker_0, # of connection points: 2
#     Edge 97, Type (0, 0), BuildingBlock: XIVTED_clean_linker_0, # of connection points: 2
#     Edge 98, Type (0, 0), BuildingBlock: XIVTED_clean_linker_0, # of connection points: 2
#     Edge 99, Type (0, 0), BuildingBlock: XIVTED_clean_linker_0, # of connection points: 2
#     Edge 100, Type (0, 0), BuildingBlock: XIVTED_clean_linker_0, # of connection points: 2
#     Edge 101, Type (0, 0), BuildingBlock: XIVTED_clean_linker_0, # of connection points: 2
#     Edge 102, Type (0, 0), BuildingBlock: XIVTED_clean_linker_0, # of connection points: 2
#     Edge 103, Type (0, 0), BuildingBlock: XIVTED_clean_linker_0, # of connection points: 2
#     Edge 104, Type (0, 0), BuildingBlock: XIVTED_clean_linker_0, # of connection points: 2
#     Edge 105, Type (0, 0), BuildingBlock: XIVTED_clean_linker_0, # of connection points: 2
#     Edge 106, Type (0, 0), BuildingBlock: XIVTED_clean_linker_0, # of connection points: 2
#     Edge 107, Type (0, 0), BuildingBlock: XIVTED_clean_linker_0, # of connection points: 2
#     Edge 108, Type (0, 0), BuildingBlock: XIVTED_clean_linker_0, # of connection points: 2
#     Edge 109, Type (0, 0), BuildingBlock: XIVTED_clean_linker_0, # of connection points: 2
#     Edge 110, Type (0, 0), BuildingBlock: XIVTED_clean_linker_0, # of connection points: 2
#     Edge 111, Type (0, 0), BuildingBlock: XIVTED_clean_linker_0, # of connection points: 2
#     Edge 112, Type (0, 0), BuildingBlock: XIVTED_clean_linker_0, # of connection points: 2
#     Edge 113, Type (0, 0), BuildingBlock: XIVTED_clean_linker_0, # of connection points: 2
#     Edge 114, Type (0, 0), BuildingBlock: XIVTED_clean_linker_0, # of connection points: 2
#     Edge 115, Type (0, 0), BuildingBlock: XIVTED_clean_linker_0, # of connection points: 2
#     Edge 116, Type (0, 0), BuildingBlock: XIVTED_clean_linker_0, # of connection points: 2
#     Edge 117, Type (0, 0), BuildingBlock: XIVTED_clean_linker_0, # of connection points: 2
#     Edge 118, Type (0, 0), BuildingBlock: XIVTED_clean_linker_0, # of connection points: 2
#     Edge 119, Type (0, 0), BuildingBlock: XIVTED_clean_linker_0, # of connection points: 2
#     Edge 120, Type (0, 0), BuildingBlock: XIVTED_clean_linker_0, # of connection points: 2
#     Edge 121, Type (0, 0), BuildingBlock: XIVTED_clean_linker_0, # of connection points: 2
#     Edge 122, Type (0, 0), BuildingBlock: XIVTED_clean_linker_0, # of connection points: 2
#     Edge 123, Type (0, 0), BuildingBlock: XIVTED_clean_linker_0, # of connection points: 2
#     Edge 124, Type (0, 0), BuildingBlock: XIVTED_clean_linker_0, # of connection points: 2
#     Edge 125, Type (0, 0), BuildingBlock: XIVTED_clean_linker_0, # of connection points: 2
#     Edge 126, Type (0, 0), BuildingBlock: XIVTED_clean_linker_0, # of connection points: 2
#     Edge 127, Type (0, 0), BuildingBlock: XIVTED_clean_linker_0, # of connection points: 2
#     Edge 128, Type (0, 0), BuildingBlock: XIVTED_clean_linker_0, # of connection points: 2
#     Edge 129, Type (0, 0), BuildingBlock: XIVTED_clean_linker_0, # of connection points: 2
#     Edge 130, Type (0, 0), BuildingBlock: XIVTED_clean_linker_0, # of connection points: 2
#     Edge 131, Type (0, 0), BuildingBlock: XIVTED_clean_linker_0, # of connection points: 2
#     Edge 132, Type (0, 0), BuildingBlock: XIVTED_clean_linker_0, # of connection points: 2
#     Edge 133, Type (0, 0), BuildingBlock: XIVTED_clean_linker_0, # of connection points: 2
#     Edge 134, Type (0, 0), BuildingBlock: XIVTED_clean_linker_0, # of connection points: 2
#     Edge 135, Type (0, 0), BuildingBlock: XIVTED_clean_linker_0, # of connection points: 2
#     Edge 136, Type (0, 0), BuildingBlock: XIVTED_clean_linker_0, # of connection points: 2
#     Edge 137, Type (0, 0), BuildingBlock: XIVTED_clean_linker_0, # of connection points: 2
#     Edge 138, Type (0, 0), BuildingBlock: XIVTED_clean_linker_0, # of connection points: 2
#     Edge 139, Type (0, 0), BuildingBlock: XIVTED_clean_linker_0, # of connection points: 2
#     Edge 140, Type (0, 0), BuildingBlock: XIVTED_clean_linker_0, # of connection points: 2
#     Edge 141, Type (0, 0), BuildingBlock: XIVTED_clean_linker_0, # of connection points: 2
#     Edge 142, Type (0, 0), BuildingBlock: XIVTED_clean_linker_0, # of connection points: 2
#     Edge 143, Type (0, 0), BuildingBlock: XIVTED_clean_linker_0, # of connection points: 2
# Relax obj value: 0.383
# Max RMSD: 0.190
# Mean RMSD: 0.190
data_MOF--net-wmt--node1-BETFEN_clean_sbu_0--edge1-XIVTED_clean_linker_0
_symmetry_space_group_name_H-M    P1
_symmetry_Int_Tables_number       1
_symmetry_cell_setting            triclinic
loop_
_symmetry_equiv_pos_as_xyz
'x, y, z'
_cell_length_a     80.733677
_cell_length_b     80.72405
_cell_length_c     35.336845
_cell_angle_alpha  89.959363
_cell_angle_beta   90.109179
_cell_angle_gamma 120.02541
loop_
_atom_site_label
_atom_site_type_symbol
_atom_site_fract_x
_atom_site_fract_y
_atom_site_fract_z
_atom_type_partial_charge
Pr0 Pr 0.05509 0.47312 0.21168 0.0
Pr1 Pr 0.03443 0.43184 0.17422 0.0
C2 C 0.0664 0.50414 0.25688 0.0
C3 C 0.06243 0.51008 0.29457 0.0
C4 C 0.06829 0.50559 0.3288 0.0
C5 C 0.06568 0.51239 0.36371 0.0
C6 C 0.05718 0.52398 0.3657 0.0
C7 C 0.05112 0.52824 0.33139 0.0
C8 C 0.05373 0.52144 0.29648 0.0
C9 C 0.07879 0.46266 0.17148 0.0
C10 C 0.03275 0.43452 0.26863 0.0
C11 C 0.02453 0.39729 0.14506 0.0
C12 C 0.01631 0.38796 0.10889 0.0
C13 C 0.00992 0.39676 0.08317 0.0
C14 C 0.00274 0.38843 0.04803 0.0
C15 C 0.00191 0.37118 0.03793 0.0
C16 C 0.00835 0.36239 0.06377 0.0
C17 C 0.01546 0.37072 0.09917 0.0
C18 C 0.01204 0.44868 0.17762 0.0
C19 C 0.04693 0.47064 0.11933 0.0
O20 O 0.05366 0.49947 0.22983 0.0
O21 O 0.07478 0.49377 0.25646 0.0
O22 O 0.06515 0.45185 0.19332 0.0
O23 O 0.08165 0.47998 0.17333 0.0
O24 O 0.02751 0.42311 0.23871 0.0
O25 O 0.04368 0.45326 0.26544 0.0
O26 O 0.04184 0.41201 0.14304 0.0
O27 O 0.01323 0.4003 0.16694 0.0
O28 O 0.02369 0.44992 0.20308 0.0
O29 O 0.01045 0.43686 0.1509 0.0
O30 O 0.04897 0.48061 0.15066 0.0
O31 O 0.04398 0.45282 0.12072 0.0
H32 H 0.07519 0.49703 0.3287 0.0
H33 H 0.07083 0.50892 0.3891 0.0
H34 H 0.04424 0.53681 0.33138 0.0
H35 H 0.04912 0.5253 0.2708 0.0
H36 H 0.01071 0.41021 0.09013 0.0
H37 H 0.99821 0.39571 1.02842 0.0
H38 H 0.00773 0.34905 0.05667 0.0
H39 H 0.02035 0.3638 0.11882 0.0
Pr40 Pr 0.52844 0.58432 0.21425 0.0
Pr41 Pr 0.56962 0.60478 0.17641 0.0
C42 C 0.49712 0.56474 0.25874 0.0
C43 C 0.49055 0.5543 0.29555 0.0
C44 C 0.50304 0.55817 0.32637 0.0
C45 C 0.49618 0.54865 0.36125 0.0
C46 C 0.47663 0.53496 0.36638 0.0
C47 C 0.46429 0.53109 0.33514 0.0
C48 C 0.47115 0.54058 0.30038 0.0
C49 C 0.53907 0.61878 0.17485 0.0
C50 C 0.56715 0.59961 0.27074 0.0
C51 C 0.60442 0.62945 0.14815 0.0
C52 C 0.61491 0.6323 0.11228 0.0
C53 C 0.62742 0.62507 0.10805 0.0
C54 C 0.63594 0.62609 0.07312 0.0
C55 C 0.63226 0.63451 0.04183 0.0
C56 C 0.62062 0.64272 0.04664 0.0
C57 C 0.61208 0.64169 0.08154 0.0
C58 C 0.55226 0.56547 0.17861 0.0
C59 C 0.53069 0.57939 0.12146 0.0
O60 O 0.5016 0.55669 0.23141 0.0
O61 O 0.5083 0.58338 0.25997 0.0
O62 O 0.5499 0.6157 0.1962 0.0
O63 O 0.52169 0.60447 0.17704 0.0
O64 O 0.57842 0.60596 0.24071 0.0
O65 O 0.54841 0.59196 0.26787 0.0
O66 O 0.58998 0.63253 0.14745 0.0
O67 O 0.60101 0.61451 0.16849 0.0
O68 O 0.55129 0.57576 0.20461 0.0
O69 O 0.56405 0.57582 0.15194 0.0
O70 O 0.52075 0.57123 0.15272 0.0
O71 O 0.54857 0.59413 0.12301 0.0
H72 H 0.51809 0.56864 0.32356 0.0
H73 H 0.5063 0.55195 0.38412 0.0
H74 H 0.44914 0.52099 0.33765 0.0
H75 H 0.46116 0.53736 0.27727 0.0
H76 H 0.63022 0.61814 0.13145 0.0
H77 H 0.64511 0.61992 0.07039 0.0
H78 H 0.61747 0.64929 1.02305 0.0
H79 H 0.60284 0.64779 0.08404 0.0
Pr80 Pr 0.41069 0.9345 0.21758 0.0
Pr81 Pr 0.39945 0.96259 0.17668 0.0
C82 C 0.42583 0.91892 0.26476 0.0
C83 C 0.43677 0.92301 0.30104 0.0
C84 C 0.43494 0.93382 0.33027 0.0
C85 C 0.44512 0.93707 0.36451 0.0
C86 C 0.4575 0.92966 0.37051 0.0
C87 C 0.45935 0.91898 0.34089 0.0
C88 C 0.44916 0.91573 0.30678 0.0
C89 C 0.3761 0.91614 0.17688 0.0
C90 C 0.40211 0.96503 0.26987 0.0
C91 C 0.3834 0.97871 0.13461 0.0
C92 C 0.37294 0.97608 0.09899 0.0
C93 C 0.37438 0.96547 0.06905 0.0
C94 C 0.36723 0.966 0.03322 0.0
C95 C 0.35861 0.97721 1.0268 0.0
C96 C 0.35592 0.98658 0.05773 0.0
C97 C 0.36301 0.986 0.09351 0.0
C98 C 0.43724 0.97969 0.20281 0.0
C99 C 0.41848 0.94088 0.1249 0.0
O100 O 0.4349 0.92934 0.23526 0.0
O101 O 0.408 0.91503 0.2665 0.0
O102 O 0.38194 0.93138 0.19621 0.0
O103 O 0.38675 0.90858 0.18371 0.0
O104 O 0.39567 0.96971 0.23961 0.0
O105 O 0.40888 0.95314 0.26765 0.0
O106 O 0.37434 0.96679 0.16227 0.0
O107 O 0.40131 0.98313 0.13151 0.0
O108 O 0.42735 0.96332 0.18896 0.0
O109 O 0.42773 0.98878 0.20101 0.0
O110 O 0.42387 0.9361 0.15683 0.0
O111 O 0.40723 0.94857 0.1254 0.0
H112 H 0.4256 0.93974 0.3267 0.0
H113 H 0.44342 0.94559 0.38612 0.0
H114 H 0.46842 0.91274 0.34423 0.0
H115 H 0.45084 0.90731 0.28485 0.0
H116 H 0.38188 0.9576 0.07287 0.0
H117 H 0.36964 0.95866 1.0101 0.0
H118 H 0.34902 0.99503 0.05395 0.0
H119 H 0.36158 0.99409 0.11645 0.0
Pr120 Pr 0.47165 0.05899 0.57632 0.0
Pr121 Pr 0.43108 0.03823 0.61588 0.0
C122 C 0.50225 0.0713 0.52945 0.0
C123 C 0.50843 0.06852 0.49091 0.0
C124 C 0.51134 0.08142 0.46134 0.0
C125 C 0.51852 0.07995 0.42598 0.0
C126 C 0.5232 0.06559 0.41884 0.0
C127 C 0.52011 0.05255 0.4484 0.0
C128 C 0.51289 0.05401 0.4838 0.0
C129 C 0.46155 0.08282 0.61716 0.0
C130 C 0.43265 0.03382 0.52163 0.0
C131 C 0.39668 0.02883 0.64559 0.0
C132 C 0.38794 0.02518 0.6835 0.0
C133 C 0.36956 0.00948 0.68908 0.0
C134 C 0.3618 0.00467 0.72549 0.0
C135 C 0.37225 0.01559 0.75695 0.0
C136 C 0.39031 0.03188 0.75096 0.0
C137 C 0.39812 0.03658 0.71463 0.0
C138 C 0.44873 0.0167 0.61551 0.0
C139 C 0.47086 0.05298 0.6689 0.0
O140 O 0.49795 0.05815 0.55552 0.0
O141 O 0.49156 0.07928 0.53134 0.0
O142 O 0.45046 0.06891 0.59596 0.0
O143 O 0.47888 0.08584 0.61396 0.0
O144 O 0.42174 0.02827 0.55229 0.0
O145 O 0.45113 0.0463 0.52363 0.0
O146 O 0.40994 0.0464 0.6381 0.0
O147 O 0.40077 0.01612 0.63269 0.0
O148 O 0.44951 0.02736 0.5882 0.0
O149 O 0.43724 0.01582 0.6423 0.0
O150 O 0.4803 0.05422 0.63723 0.0
O151 O 0.45293 0.04977 0.66818 0.0
H152 H 0.50841 0.09298 0.46575 0.0
H153 H 0.5209 0.0905 0.40455 0.0
H154 H 0.52322 0.0411 0.44423 0.0
H155 H 0.51102 0.04385 0.50576 0.0
H156 H 0.36141 0.00062 0.66538 0.0
H157 H 0.34775 0.99222 0.7291 0.0
H158 H 0.39882 0.04051 0.77457 0.0
H159 H 0.41236 0.04878 0.71111 0.0
Pr160 Pr 0.94558 0.41764 0.58008 0.0
Pr161 Pr 0.96633 0.3973 0.61848 0.0
C162 C 0.93433 0.43726 0.53423 0.0
C163 C 0.93811 0.44715 0.49644 0.0
C164 C 0.93186 0.43675 0.46232 0.0
C165 C 0.93415 0.44611 0.42739 0.0
C166 C 0.94272 0.46622 0.42522 0.0
C167 C 0.94916 0.47659 0.45941 0.0
C168 C 0.94685 0.46722 0.49434 0.0
C169 C 0.92175 0.38366 0.62093 0.0
C170 C 0.96932 0.40242 0.52442 0.0
C171 C 0.97521 0.37198 0.64809 0.0
C172 C 0.97452 0.36466 0.68663 0.0
C173 C 0.99077 0.36529 0.7024 0.0
C174 C 0.99091 0.3606 0.74051 0.0
C175 C 0.97466 0.35495 0.76339 0.0
C176 C 0.95811 0.3534 0.74672 0.0
C177 C 0.95817 0.3585 0.70907 0.0
C178 C 0.98843 0.43655 0.61507 0.0
C179 C 0.95252 0.42239 0.67279 0.0
O180 O 0.94708 0.44541 0.56125 0.0
O181 O 0.92601 0.41852 0.53483 0.0
O182 O 0.93551 0.38648 0.59951 0.0
O183 O 0.91884 0.39807 0.61833 0.0
O184 O 0.97555 0.39758 0.55484 0.0
O185 O 0.95695 0.40857 0.52694 0.0
O186 O 0.95876 0.36695 0.63187 0.0
O187 O 0.98792 0.38997 0.64257 0.0
O188 O 0.97701 0.42613 0.58926 0.0
O189 O 0.98992 0.42634 0.64197 0.0
O190 O 0.95137 0.43092 0.64146 0.0
O191 O 0.95496 0.40721 0.67131 0.0
H192 H 0.92487 0.42128 0.46254 0.0
H193 H 0.9287 0.43742 0.40215 0.0
H194 H 0.95609 0.49205 0.45932 0.0
H195 H 0.95174 0.47575 0.51991 0.0
H196 H 0.00362 0.37017 0.68567 0.0
H197 H 0.00404 0.36227 0.75229 0.0
H198 H 0.94513 0.34862 0.76288 0.0
H199 H 0.9456 0.35819 0.69795 0.0
Pr200 Pr 0.58343 0.52894 0.58254 0.0
Pr201 Pr 0.60577 0.56998 0.62001 0.0
C202 C 0.56314 0.49805 0.53718 0.0
C203 C 0.55319 0.49199 0.49946 0.0
C204 C 0.5635 0.49577 0.46535 0.0
C205 C 0.55402 0.48869 0.43053 0.0
C206 C 0.53388 0.4775 0.42851 0.0
C207 C 0.5236 0.47398 0.46266 0.0
C208 C 0.53309 0.48106 0.49747 0.0
C209 C 0.61742 0.53807 0.62265 0.0
C210 C 0.59975 0.56811 0.52637 0.0
C211 C 0.63289 0.60277 0.65114 0.0
C212 C 0.63917 0.60851 0.6905 0.0
C213 C 0.64058 0.62532 0.70497 0.0
C214 C 0.64444 0.62981 0.74334 0.0
C215 C 0.64713 0.61761 0.76797 0.0
C216 C 0.64657 0.60121 0.75282 0.0
C217 C 0.64243 0.59662 0.71466 0.0
C218 C 0.56675 0.55492 0.6171 0.0
C219 C 0.57874 0.53153 0.6747 0.0
O220 O 0.55527 0.50309 0.56394 0.0
O221 O 0.58191 0.50807 0.53775 0.0
O222 O 0.615 0.54896 0.60035 0.0
O223 O 0.60225 0.52118 0.62226 0.0
O224 O 0.60602 0.57938 0.55652 0.0
O225 O 0.59217 0.54935 0.52916 0.0
O226 O 0.63651 0.59002 0.63646 0.0
O227 O 0.61583 0.5998 0.64267 0.0
O228 O 0.57664 0.5531 0.5913 0.0
O229 O 0.57747 0.56632 0.64396 0.0
O230 O 0.56987 0.52198 0.64351 0.0
O231 O 0.5945 0.54874 0.673 0.0
H232 H 0.57898 0.50395 0.46552 0.0
H233 H 0.56261 0.49159 0.40528 0.0
H234 H 0.50813 0.46575 0.46263 0.0
H235 H 0.52463 0.47773 0.52305 0.0
H236 H 0.63806 0.63467 0.68681 0.0
H237 H 0.64451 0.64243 0.75383 0.0
H238 H 0.6491 0.59173 0.77047 0.0
H239 H 0.64131 0.58348 0.70435 0.0
Pr240 Pr 0.96526 0.57095 0.11812 0.0
Pr241 Pr 0.9455 0.52971 0.07983 0.0
C242 C 0.97366 0.60525 0.14673 0.0
C243 C 0.97627 0.61377 0.18466 0.0
C244 C 0.99163 0.63222 0.19139 0.0
C245 C 0.9954 0.63983 0.22798 0.0
C246 C 0.98377 0.62915 0.25851 0.0
C247 C 0.96788 0.61095 0.25129 0.0
C248 C 0.96423 0.6033 0.21477 0.0
C249 C 0.98819 0.55477 0.11493 0.0
C250 C 0.95255 0.53218 0.17271 0.0
C251 C 0.93494 0.49883 0.0345 0.0
C252 C 0.9387 0.49284 0.99663 0.0
C253 C 0.93209 0.49672 0.96268 0.0
C254 C 0.93435 0.48972 0.92771 0.0
C255 C 0.94326 0.4785 0.92534 0.0
C256 C 0.95008 0.47485 0.95935 0.0
C257 C 0.94781 0.48186 0.99433 0.0
C258 C 0.92109 0.53912 0.12029 0.0
C259 C 0.96783 0.5686 1.02362 0.0
O260 O 0.95634 0.59193 0.13769 0.0
O261 O 0.98678 0.60134 0.13565 0.0
O262 O 0.97665 0.55341 0.08905 0.0
O263 O 0.98922 0.56619 0.14204 0.0
O264 O 0.95149 0.52252 0.1414 0.0
O265 O 0.95482 0.54974 0.17122 0.0
O266 O 0.948 0.504 0.06108 0.0
O267 O 0.92604 0.50869 0.03529 0.0
O268 O 0.93472 0.55023 0.09874 0.0
O269 O 0.91856 0.52194 0.11782 0.0
O270 O 0.97353 0.57982 0.05389 0.0
O271 O 0.95629 0.54992 1.0264 0.0
H272 H 0.00098 0.64059 0.16845 0.0
H273 H 0.00753 0.65402 0.23241 0.0
H274 H 0.95874 0.60222 0.2741 0.0
H275 H 0.9523 0.58897 0.21035 0.0
H276 H 0.92483 0.50494 0.96308 0.0
H277 H 0.92861 0.49272 0.9026 0.0
H278 H 0.95729 0.46659 0.95907 0.0
H279 H 0.95299 0.47845 1.01978 0.0
Pr280 Pr 0.43108 0.39604 0.11955 0.0
Pr281 Pr 0.47225 0.4178 0.08183 0.0
C282 C 0.39704 0.36937 0.14788 0.0
C283 C 0.38891 0.36232 0.18597 0.0
C284 C 0.37885 0.36988 0.20473 0.0
C285 C 0.37292 0.36477 0.24214 0.0
C286 C 0.3769 0.35195 0.26164 0.0
C287 C 0.38612 0.34366 0.24221 0.0
C288 C 0.39181 0.34859 0.20464 0.0
C289 C 0.4467 0.43509 0.11567 0.0
C290 C 0.46956 0.42272 0.17432 0.0
C291 C 0.50318 0.43822 0.03689 0.0
C292 C 0.50909 0.44795 0.99904 0.0
C293 C 0.50441 0.43747 0.96498 0.0
C294 C 0.51129 0.44671 0.92995 0.0
C295 C 0.52314 0.46678 0.92766 0.0
C296 C 0.52756 0.47724 0.96179 0.0
C297 C 0.52069 0.46798 0.99682 0.0
C298 C 0.4633 0.38434 0.12338 0.0
C299 C 0.43345 0.40114 1.02517 0.0
O300 O 0.41016 0.36556 0.13629 0.0
O301 O 0.4009 0.38667 0.13883 0.0
O302 O 0.4483 0.42494 0.09011 0.0
O303 O 0.43528 0.42467 0.14276 0.0
O304 O 0.47913 0.43132 0.14298 0.0
O305 O 0.45216 0.40718 0.17292 0.0
O306 O 0.49793 0.44608 0.06328 0.0
O307 O 0.49341 0.41945 0.03774 0.0
O308 O 0.45214 0.38651 0.10125 0.0
O309 O 0.48035 0.39922 0.12114 0.0
O310 O 0.42222 0.39567 0.05537 0.0
O311 O 0.45212 0.40819 1.02812 0.0
H312 H 0.37608 0.38025 0.19094 0.0
H313 H 0.36602 0.3716 0.25628 0.0
H314 H 0.38914 0.33351 0.25615 0.0
H315 H 0.39891 0.34199 0.19056 0.0
H316 H 0.49565 0.42202 0.96533 0.0
H317 H 0.50767 0.43798 0.90471 0.0
H318 H 0.53633 0.49268 0.96156 0.0
H319 H 0.52469 0.47655 1.02237 0.0
Pr320 Pr 0.59925 0.03798 0.11322 0.0
Pr321 Pr 0.58751 0.06544 0.07195 0.0
C322 C 0.61631 0.02339 0.15664 0.0
C323 C 0.62583 0.02776 0.19358 0.0
C324 C 0.63178 0.01561 0.20898 0.0
C325 C 0.6385 0.01824 0.24623 0.0
C326 C 0.6396 0.03325 0.26848 0.0
C327 C 0.63489 0.04619 0.25169 0.0
C328 C 0.62768 0.04321 0.21489 0.0
C329 C 0.56135 0.02022 0.0881 0.0
C330 C 0.57961 0.05924 0.16461 0.0
C331 C 0.57235 0.08098 1.02476 0.0
C332 C 0.56129 0.07688 0.98866 0.0
C333 C 0.56268 0.06569 0.95969 0.0
C334 C 0.55236 0.06241 0.92564 0.0
C335 C 0.54029 0.07018 0.91959 0.0
C336 C 0.5389 0.08125 0.94895 0.0
C337 C 0.54922 0.08453 0.98288 0.0
C338 C 0.62237 0.08412 0.11197 0.0
C339 C 0.59592 0.03458 1.02042 0.0
O340 O 0.62522 0.03582 0.12964 0.0
O341 O 0.59793 0.01721 0.15752 0.0
O342 O 0.57108 0.03678 0.10129 0.0
O343 O 0.57109 0.01137 0.08998 0.0
O344 O 0.57422 0.06389 0.13255 0.0
O345 O 0.591 0.05172 0.16433 0.0
O346 O 0.56332 0.07063 0.05436 0.0
O347 O 0.59012 0.08475 1.02278 0.0
O348 O 0.6165 0.06897 0.09241 0.0
O349 O 0.61138 0.09139 0.10609 0.0
O350 O 0.60281 0.03039 0.05065 0.0
O351 O 0.58892 0.04629 1.0224 0.0
H352 H 0.63037 0.00356 0.19285 0.0
H353 H 0.64174 0.00782 0.25811 0.0
H354 H 0.63594 0.05817 0.2675 0.0
H355 H 0.62287 0.05255 0.20355 0.0
H356 H 0.57177 0.05949 0.96334 0.0
H357 H 0.55371 0.05358 0.90422 0.0
H358 H 0.53008 0.08777 0.94554 0.0
H359 H 0.54788 0.09324 1.00463 0.0
Pr360 Pr 0.56575 0.96049 0.67573 0.0
Pr361 Pr 0.52537 0.93916 0.71414 0.0
C362 C 0.59963 0.97006 0.64413 0.0
C363 C 0.60764 0.97684 0.60632 0.0
C364 C 0.59541 0.9723 0.57503 0.0
C365 C 0.60274 0.9804 0.53982 0.0
C366 C 0.62242 0.9931 0.53526 0.0
C367 C 0.63478 0.99704 0.5662 0.0
C368 C 0.62736 0.98913 0.60171 0.0
C369 C 0.54788 0.98182 0.67579 0.0
C370 C 0.52598 0.94614 0.62227 0.0
C371 C 0.49473 0.92555 0.7612 0.0
C372 C 0.48859 0.92836 0.79974 0.0
C373 C 0.48557 0.91539 0.82921 0.0
C374 C 0.47863 0.91701 0.86474 0.0
C375 C 0.47431 0.93162 0.87212 0.0
C376 C 0.47748 0.9447 0.84262 0.0
C377 C 0.48447 0.94309 0.80707 0.0
C378 C 0.53718 0.91632 0.67399 0.0
C379 C 0.56421 0.96524 0.76936 0.0
O380 O 0.58543 0.95239 0.64607 0.0
O381 O 0.59684 0.98204 0.66429 0.0
O382 O 0.5469 0.97102 0.70295 0.0
O383 O 0.55972 0.98306 0.64951 0.0
O384 O 0.5163 0.94418 0.65392 0.0
O385 O 0.54402 0.9497 0.62312 0.0
O386 O 0.49824 0.93832 0.73473 0.0
O387 O 0.50618 0.91842 0.75942 0.0
O388 O 0.54733 0.92994 0.69643 0.0
O389 O 0.51979 0.91329 0.67435 0.0
O390 O 0.57533 0.97004 0.73912 0.0
O391 O 0.54559 0.95333 0.76697 0.0
H392 H 0.5801 0.96298 0.57808 0.0
H393 H 0.59296 0.97708 0.51627 0.0
H394 H 0.64999 0.00692 0.56334 0.0
H395 H 0.63686 0.9931 0.62584 0.0
H396 H 0.48827 0.90369 0.82462 0.0
H397 H 0.47617 0.90642 0.88613 0.0
H398 H 0.47464 0.95632 0.84698 0.0
H399 H 0.48647 0.95333 0.7852 0.0
Pr400 Pr 0.03354 0.60502 0.67254 0.0
Pr401 Pr 0.0527 0.58292 0.71085 0.0
C402 C 0.02612 0.6315 0.6434 0.0
C403 C 0.0244 0.63782 0.60523 0.0
C404 C 0.03611 0.63819 0.57552 0.0
C405 C 0.03329 0.64271 0.53878 0.0
C406 C 0.01863 0.64684 0.53097 0.0
C407 C 0.00741 0.64712 0.56112 0.0
C408 C 0.01023 0.64258 0.59786 0.0
C409 C 0.01007 0.56593 0.67541 0.0
C410 C 0.04571 0.57858 0.61808 0.0
C411 C 0.06332 0.56238 0.75544 0.0
C412 C 0.05964 0.55211 0.79247 0.0
C413 C 0.06473 0.53794 0.79699 0.0
C414 C 0.06239 0.52865 0.83192 0.0
C415 C 0.05481 0.53317 0.86367 0.0
C416 C 0.04952 0.54731 0.85886 0.0
C417 C 0.05191 0.55665 0.8238 0.0
C418 C 0.0775 0.61648 0.66983 0.0
C419 C 0.03057 0.59973 0.76696 0.0
O420 O 0.04319 0.63524 0.65382 0.0
O421 O 0.01265 0.61442 0.65344 0.0
O422 O 0.02169 0.57592 0.70137 0.0
O423 O 0.0092 0.57653 0.64853 0.0
O424 O 0.04651 0.56979 0.64934 0.0
O425 O 0.04376 0.59405 0.61959 0.0
O426 O 0.05032 0.55464 0.72874 0.0
O427 O 0.07168 0.58111 0.75617 0.0
O428 O 0.06401 0.61427 0.69146 0.0
O429 O 0.07973 0.60166 0.67272 0.0
O430 O 0.02517 0.6056 0.73672 0.0
O431 O 0.04184 0.59228 0.76418 0.0
H432 H 0.04706 0.63441 0.58045 0.0
H433 H 0.04205 0.6421 0.51626 0.0
H434 H 0.99621 0.65054 0.55623 0.0
H435 H 0.00107 0.64239 0.62043 0.0
H436 H 0.07084 0.53421 0.77349 0.0
H437 H 0.06699 0.51818 0.83412 0.0
H438 H 0.04339 0.55114 0.88213 0.0
H439 H 0.04782 0.5675 0.82127 0.0
Pr440 Pr 0.39743 0.43139 0.6746 0.0
Pr441 Pr 0.41775 0.47244 0.71355 0.0
C442 C 0.37313 0.39711 0.64368 0.0
C443 C 0.37194 0.38789 0.60725 0.0
C444 C 0.38741 0.39616 0.58209 0.0
C445 C 0.38605 0.38789 0.54672 0.0
C446 C 0.36914 0.37126 0.53577 0.0
C447 C 0.35368 0.36299 0.56116 0.0
C448 C 0.3551 0.37124 0.59671 0.0
C449 C 0.43669 0.44858 0.67746 0.0
C450 C 0.42332 0.47079 0.62103 0.0
C451 C 0.43697 0.50355 0.75898 0.0
C452 C 0.44718 0.51014 0.79609 0.0
C453 C 0.44324 0.49764 0.82686 0.0
C454 C 0.4525 0.50451 0.86203 0.0
C455 C 0.46599 0.52412 0.86752 0.0
C456 C 0.46994 0.53647 0.83632 0.0
C457 C 0.46071 0.52958 0.80127 0.0
C458 C 0.38353 0.46199 0.6732 0.0
C459 C 0.40197 0.43339 0.76914 0.0
O460 O 0.37044 0.41178 0.64221 0.0
O461 O 0.38738 0.4 0.66573 0.0
O462 O 0.42642 0.44968 0.70336 0.0
O463 O 0.42635 0.43672 0.65088 0.0
O464 O 0.43128 0.48054 0.65259 0.0
O465 O 0.40857 0.4529 0.62199 0.0
O466 O 0.44523 0.49922 0.73185 0.0
O467 O 0.41833 0.4923 0.75964 0.0
O468 O 0.38649 0.45108 0.69455 0.0
O469 O 0.39784 0.47936 0.67588 0.0
O470 O 0.3957 0.42218 0.73891 0.0
O471 O 0.40974 0.45214 0.76652 0.0
H472 H 0.40044 0.40916 0.58964 0.0
H473 H 0.39808 0.39479 0.52755 0.0
H474 H 0.34056 0.35013 0.55356 0.0
H475 H 0.34304 0.36472 0.61583 0.0
H476 H 0.43291 0.48255 0.82382 0.0
H477 H 0.44915 0.49437 0.88484 0.0
H478 H 0.47989 0.55165 0.83906 0.0
H479 H 0.46397 0.5396 0.77821 0.0
Pr480 Pr 0.7236 0.80263 0.54763 0.0
Pr481 Pr 0.70128 0.76211 0.50819 0.0
C482 C 0.73704 0.83345 0.59431 0.0
C483 C 0.73395 0.84007 0.6319 0.0
C484 C 0.7371 0.85876 0.63561 0.0
C485 C 0.73546 0.86587 0.67091 0.0
C486 C 0.73059 0.85451 0.70391 0.0
C487 C 0.72725 0.83566 0.70001 0.0
C488 C 0.72889 0.82854 0.66456 0.0
C489 C 0.74631 0.79063 0.50816 0.0
C490 C 0.69771 0.76395 0.60249 0.0
C491 C 0.68946 0.72732 0.47787 0.0
C492 C 0.68147 0.71733 0.4418 0.0
C493 C 0.6663 0.718 0.42378 0.0
C494 C 0.65983 0.70946 0.38836 0.0
C495 C 0.6684 0.70011 0.37024 0.0
C496 C 0.68333 0.69915 0.38882 0.0
C497 C 0.68984 0.70779 0.42414 0.0
C498 C 0.68108 0.78113 0.50873 0.0
C499 C 0.71746 0.80212 0.45515 0.0
O500 O 0.72469 0.83015 0.56706 0.0
O501 O 0.74352 0.82145 0.59413 0.0
O502 O 0.73204 0.78009 0.52899 0.0
O503 O 0.75024 0.80828 0.51091 0.0
O504 O 0.69232 0.75287 0.57207 0.0
O505 O 0.7099 0.78248 0.60028 0.0
O506 O 0.7072 0.74125 0.47675 0.0
O507 O 0.67852 0.73116 0.49906 0.0
O508 O 0.69166 0.78155 0.53582 0.0
O509 O 0.67945 0.76924 0.48218 0.0
O510 O 0.7194 0.81182 0.48681 0.0
O511 O 0.7133 0.78388 0.45593 0.0
H512 H 0.74117 0.86807 0.61113 0.0
H513 H 0.73848 0.88052 0.67237 0.0
H514 H 0.72321 0.82626 0.72432 0.0
H515 H 0.72633 0.81405 0.66279 0.0
H516 H 0.65977 0.72552 0.43656 0.0
H517 H 0.64859 0.71084 0.37458 0.0
H518 H 0.69018 0.69199 0.37587 0.0
H519 H 0.70174 0.70743 0.43735 0.0
Pr520 Pr 0.18848 0.92383 0.55458 0.0
Pr521 Pr 0.22589 0.93162 0.51222 0.0
C522 C 0.1587 0.91135 0.60359 0.0
C523 C 0.15198 0.90171 0.64134 0.0
C524 C 0.14663 0.91032 0.66974 0.0
C525 C 0.13938 0.90117 0.70469 0.0
C526 C 0.13713 0.883 0.71248 0.0
C527 C 0.14265 0.87446 0.68403 0.0
C528 C 0.14997 0.88366 0.64907 0.0
C529 C 0.20669 0.95836 0.51352 0.0
C530 C 0.22688 0.92922 0.60498 0.0
C531 C 0.25764 0.94448 0.46966 0.0
C532 C 0.26657 0.95391 0.43383 0.0
C533 C 0.28642 0.96219 0.42986 0.0
C534 C 0.29496 0.96828 0.39439 0.0
C535 C 0.28374 0.96612 0.36227 0.0
C536 C 0.264 0.95908 0.36694 0.0
C537 C 0.25547 0.953 0.40249 0.0
C538 C 0.20316 0.89404 0.53833 0.0
C539 C 0.18494 0.91569 0.46212 0.0
O540 O 0.15914 0.90116 0.57515 0.0
O541 O 0.17297 0.92904 0.60304 0.0
O542 O 0.21527 0.95155 0.5327 0.0
O543 O 0.18841 0.94872 0.5204 0.0
O544 O 0.23763 0.93504 0.57429 0.0
O545 O 0.20848 0.92374 0.6037 0.0
O546 O 0.25588 0.95484 0.49608 0.0
O547 O 0.243 0.92711 0.46733 0.0
O548 O 0.19751 0.9047 0.52467 0.0
O549 O 0.22177 0.90292 0.53808 0.0
O550 O 0.17523 0.91125 0.49448 0.0
O551 O 0.20399 0.92543 0.46171 0.0
H552 H 0.14782 0.92411 0.6647 0.0
H553 H 0.13512 0.90822 0.72533 0.0
H554 H 0.14147 0.86066 0.68881 0.0
H555 H 0.15394 0.87654 0.62801 0.0
H556 H 0.29521 0.96313 0.45389 0.0
H557 H 0.31023 0.97397 0.39184 0.0
H558 H 0.25493 0.95715 0.34278 0.0
H559 H 0.24011 0.94673 0.40513 0.0
Pr560 Pr 0.07596 0.26623 0.55588 0.0
Pr561 Pr 0.06616 0.29466 0.514 0.0
C562 C 0.08949 0.24961 0.60428 0.0
C563 C 0.09959 0.25293 0.64152 0.0
C564 C 0.09445 0.25976 0.67347 0.0
C565 C 0.10376 0.26206 0.7085 0.0
C566 C 0.11854 0.25765 0.71266 0.0
C567 C 0.12371 0.25098 0.6804 0.0
C568 C 0.11438 0.24866 0.64548 0.0
C569 C 0.04143 0.24847 0.51462 0.0
C570 C 0.06966 0.29849 0.60682 0.0
C571 C 0.05116 0.31186 0.47222 0.0
C572 C 0.04073 0.30986 0.43693 0.0
C573 C 0.03196 0.3209 0.43172 0.0
C574 C 0.0253 0.32222 0.39598 0.0
C575 C 0.02736 0.31252 0.36489 0.0
C576 C 0.03464 0.30012 0.3711 0.0
C577 C 0.04132 0.29883 0.40688 0.0
C578 C 0.10397 0.31123 0.53971 0.0
C579 C 0.08424 0.27171 0.46342 0.0
O580 O 0.09936 0.26022 0.57556 0.0
O581 O 0.07175 0.24604 0.60442 0.0
O582 O 0.04751 0.26374 0.53396 0.0
O583 O 0.05182 0.24064 0.52155 0.0
O584 O 0.06318 0.30295 0.57639 0.0
O585 O 0.07567 0.28598 0.60526 0.0
O586 O 0.04181 0.30008 0.49988 0.0
O587 O 0.06878 0.31541 0.46867 0.0
O588 O 0.09385 0.29476 0.52627 0.0
O589 O 0.09444 0.3203 0.53896 0.0
O590 O 0.08916 0.26683 0.49578 0.0
O591 O 0.07357 0.28006 0.46312 0.0
H592 H 0.08318 0.26329 0.67146 0.0
H593 H 0.09946 0.26749 0.73227 0.0
H594 H 0.13475 0.24714 0.68219 0.0
H595 H 0.11862 0.24328 0.62152 0.0
H596 H 0.0312 0.32932 0.4548 0.0
H597 H 0.01936 0.33153 0.3923 0.0
H598 H 0.03649 0.29248 0.34783 0.0
H599 H 0.04793 0.2901 0.41055 0.0
Pr600 Pr 0.14577 0.40618 0.90374 0.0
Pr601 Pr 0.10842 0.37572 0.94567 0.0
C602 C 0.17535 0.42391 0.85442 0.0
C603 C 0.18199 0.42069 0.81695 0.0
C604 C 0.18885 0.4351 0.78919 0.0
C605 C 0.19595 0.43279 0.75441 0.0
C606 C 0.19652 0.41597 0.74623 0.0
C607 C 0.18942 0.40144 0.77401 0.0
C608 C 0.18226 0.40374 0.80876 0.0
C609 C 0.12672 0.42171 0.94419 0.0
C610 C 0.10761 0.37277 0.85292 0.0
C611 C 0.07657 0.35583 0.98752 0.0
C612 C 0.06759 0.35543 1.0238 0.0
C613 C 0.0786 0.3656 0.05525 0.0
C614 C 0.07011 0.36264 0.09092 0.0
C615 C 0.05051 0.34936 0.09568 0.0
C616 C 0.0394 0.34004 0.06361 0.0
C617 C 0.04787 0.3431 1.02797 0.0
C618 C 0.13168 0.36177 0.91849 0.0
C619 C 0.14927 0.40092 0.99628 0.0
O620 O 0.17541 0.41381 0.88343 0.0
O621 O 0.16066 0.42666 0.85457 0.0
O622 O 0.11857 0.40621 0.92533 0.0
O623 O 0.14502 0.43095 0.93744 0.0
O624 O 0.0968 0.36776 0.88352 0.0
O625 O 0.126 0.38581 0.8544 0.0
O626 O 0.07837 0.36858 0.96243 0.0
O627 O 0.09125 0.35313 0.98891 0.0
O628 O 0.13704 0.37789 0.93282 0.0
O629 O 0.11309 0.35174 0.91867 0.0
O630 O 0.15905 0.40672 0.96399 0.0
O631 O 0.13022 0.39125 0.99649 0.0
H632 H 0.18895 0.44836 0.7946 0.0
H633 H 0.20143 0.44445 0.73428 0.0
H634 H 0.18926 0.38814 0.76887 0.0
H635 H 0.17701 0.39226 0.82931 0.0
H636 H 0.09388 0.37516 0.05252 0.0
H637 H 0.07912 0.36994 0.11505 0.0
H638 H 0.02424 0.32993 0.06623 0.0
H639 H 0.03916 0.3352 1.0039 0.0
Pr640 Pr 0.60004 0.74318 0.9078 0.0
Pr641 Pr 0.62936 0.7332 0.94782 0.0
C642 C 0.5846 0.75796 0.85934 0.0
C643 C 0.58907 0.76872 0.82243 0.0
C644 C 0.58047 0.75913 0.78843 0.0
C645 C 0.58383 0.76918 0.75405 0.0
C646 C 0.59584 0.78923 0.75237 0.0
C647 C 0.60447 0.79881 0.78647 0.0
C648 C 0.60114 0.78875 0.82084 0.0
C649 C 0.58283 0.70862 0.94865 0.0
C650 C 0.63033 0.73444 0.85485 0.0
C651 C 0.64692 0.71866 0.98985 0.0
C652 C 0.64427 0.70856 1.02589 0.0
C653 C 0.65288 0.69739 0.03133 0.0
C654 C 0.65202 0.68918 0.06662 0.0
C655 C 0.64257 0.69208 0.09713 0.0
C656 C 0.63323 0.70262 0.09094 0.0
C657 C 0.63411 0.71081 0.05566 0.0
C658 C 0.64532 0.77045 0.91951 0.0
C659 C 0.60735 0.75183 1.00016 0.0
O660 O 0.59462 0.76705 0.88932 0.0
O661 O 0.58036 0.74 0.85856 0.0
O662 O 0.59806 0.715 0.92916 0.0
O663 O 0.57454 0.71865 0.94212 0.0
O664 O 0.63552 0.72846 0.88504 0.0
O665 O 0.61832 0.74106 0.85731 0.0
O666 O 0.63507 0.70907 0.96234 0.0
O667 O 0.65079 0.73643 0.99225 0.0
O668 O 0.62926 0.76058 0.9346 0.0
O669 O 0.65472 0.76126 0.92113 0.0
O670 O 0.60183 0.75664 0.96843 0.0
O671 O 0.61552 0.741 0.9994 0.0
H672 H 0.57089 0.74379 0.7884 0.0
H673 H 0.57661 0.76117 0.72887 0.0
H674 H 0.61399 0.81415 0.78666 0.0
H675 H 0.60798 0.79676 0.84628 0.0
H676 H 0.66079 0.69553 1.0086 0.0
H677 H 0.65913 0.68092 0.07025 0.0
H678 H 0.62605 0.7054 0.11382 0.0
H679 H 0.62732 0.71938 0.05196 0.0
Pr680 Pr 0.25679 0.85333 0.90238 0.0
Pr681 Pr 0.26574 0.89124 0.94486 0.0
C682 C 0.24362 0.82338 0.85354 0.0
C683 C 0.23376 0.81675 0.81597 0.0
C684 C 0.2412 0.80967 0.78847 0.0
C685 C 0.23175 0.80249 0.75369 0.0
C686 C 0.21444 0.80206 0.74524 0.0
C687 C 0.20711 0.80935 0.77278 0.0
C688 C 0.21661 0.81659 0.80755 0.0
C689 C 0.29167 0.87139 0.94243 0.0
C690 C 0.26262 0.89193 0.85209 0.0
C691 C 0.2803 0.92333 0.98694 0.0
C692 C 0.29065 0.93208 1.02217 0.0
C693 C 0.29015 0.92079 0.05282 0.0
C694 C 0.29695 0.92917 0.08829 0.0
C695 C 0.30426 0.94893 0.09358 0.0
C696 C 0.30614 0.96032 0.06194 0.0
C697 C 0.29941 0.95194 1.02652 0.0
C698 C 0.22796 0.86918 0.91941 0.0
C699 C 0.249 0.85017 0.99508 0.0
O700 O 0.23367 0.8241 0.88212 0.0
O701 O 0.26141 0.83745 0.8538 0.0
O702 O 0.28486 0.87993 0.92325 0.0
O703 O 0.28171 0.85304 0.93625 0.0
O704 O 0.26874 0.90274 0.88272 0.0
O705 O 0.25685 0.87346 0.85337 0.0
O706 O 0.28983 0.92105 0.95949 0.0
O707 O 0.26276 0.90908 0.99039 0.0
O708 O 0.23843 0.8632 0.93264 0.0
O709 O 0.23707 0.8878 0.92026 0.0
O710 O 0.2443 0.8404 0.9627 0.0
O711 O 0.25912 0.86922 0.99545 0.0
H712 H 0.25428 0.80945 0.79409 0.0
H713 H 0.23784 0.79684 0.73377 0.0
H714 H 0.19403 0.80961 0.76743 0.0
H715 H 0.21045 0.82197 0.82792 0.0
H716 H 0.28357 0.90541 0.04982 0.0
H717 H 0.2952 0.91994 0.11203 0.0
H718 H 0.31202 0.9756 0.06491 0.0
H719 H 0.30011 0.96088 1.00297 0.0
Pr720 Pr 0.62846 0.90029 0.44947 0.0
Pr721 Pr 0.60719 0.85956 0.41136 0.0
C722 C 0.63882 0.9347 0.47992 0.0
C723 C 0.64891 0.94548 0.51437 0.0
C724 C 0.66864 0.95264 0.51923 0.0
C725 C 0.67771 0.96152 0.55308 0.0
C726 C 0.66726 0.96338 0.58293 0.0
C727 C 0.64767 0.95689 0.57739 0.0
C728 C 0.63864 0.94815 0.54342 0.0
C729 C 0.65021 0.88288 0.4483 0.0
C730 C 0.61461 0.86065 0.50326 0.0
C731 C 0.5937 0.82858 0.36501 0.0
C732 C 0.59661 0.82201 0.32714 0.0
C733 C 0.60103 0.83342 0.29439 0.0
C734 C 0.60252 0.82637 0.25875 0.0
C735 C 0.59964 0.80768 0.25465 0.0
C736 C 0.59543 0.79645 0.28774 0.0
C737 C 0.59395 0.80351 0.32326 0.0
C738 C 0.58428 0.87122 0.45169 0.0
C739 C 0.63226 0.89813 0.35534 0.0
O740 O 0.62182 0.91967 0.48476 0.0
O741 O 0.64901 0.93204 0.45444 0.0
O742 O 0.63898 0.88161 0.4218 0.0
O743 O 0.65176 0.89493 0.47444 0.0
O744 O 0.61264 0.85089 0.47168 0.0
O745 O 0.61813 0.87868 0.50226 0.0
O746 O 0.60639 0.83219 0.39172 0.0
O747 O 0.58689 0.84032 0.36569 0.0
O748 O 0.59783 0.88147 0.42923 0.0
O749 O 0.5813 0.85385 0.45102 0.0
O750 O 0.63695 0.90943 0.38538 0.0
O751 O 0.62085 0.87945 0.35815 0.0
H752 H 0.67707 0.95107 0.49723 0.0
H753 H 0.69287 0.96668 0.55601 0.0
H754 H 0.63906 0.95784 0.59981 0.0
H755 H 0.62346 0.94296 0.54031 0.0
H756 H 0.60322 0.84777 0.29626 0.0
H757 H 0.60607 0.83568 0.23442 0.0
H758 H 0.59279 0.78194 0.2862 0.0
H759 H 0.59038 0.79429 0.34779 0.0
Pr760 Pr 0.10586 0.73042 0.44051 0.0
Pr761 Pr 0.14452 0.73913 0.4017 0.0
C762 C 0.07322 0.71633 0.48083 0.0
C763 C 0.06647 0.7094 0.51925 0.0
C764 C 0.07966 0.71372 0.54868 0.0
C765 C 0.07355 0.71079 0.58617 0.0
C766 C 0.05418 0.70383 0.59487 0.0
C767 C 0.04076 0.69794 0.56525 0.0
C768 C 0.04691 0.70076 0.52758 0.0
C769 C 0.12877 0.76828 0.4167 0.0
C770 C 0.14653 0.74752 0.49381 0.0
C771 C 0.17433 0.75119 0.35301 0.0
C772 C 0.18121 0.76145 0.31596 0.0
C773 C 0.18843 0.75424 0.28825 0.0
C774 C 0.19549 0.76383 0.25362 0.0
C775 C 0.19565 0.78102 0.24551 0.0
C776 C 0.18827 0.78815 0.2733 0.0
C777 C 0.18112 0.77849 0.30793 0.0
C778 C 0.12521 0.70381 0.44007 0.0
C779 C 0.10728 0.73471 0.34865 0.0
O780 O 0.077 0.70559 0.45889 0.0
O781 O 0.08584 0.73455 0.47827 0.0
O782 O 0.13438 0.75763 0.43065 0.0
O783 O 0.11016 0.75926 0.41522 0.0
O784 O 0.15681 0.75161 0.4622 0.0
O785 O 0.12743 0.73801 0.49291 0.0
O786 O 0.17447 0.76109 0.38256 0.0
O787 O 0.15942 0.73387 0.35229 0.0
O788 O 0.11737 0.71122 0.42045 0.0
O789 O 0.14366 0.71343 0.43542 0.0
O790 O 0.09544 0.72624 0.37715 0.0
O791 O 0.12592 0.74195 0.35289 0.0
H792 H 0.09483 0.72044 0.54283 0.0
H793 H 0.08416 0.71511 0.60845 0.0
H794 H 0.02576 0.69254 0.57111 0.0
H795 H 0.03653 0.69731 0.50511 0.0
H796 H 0.18878 0.7412 0.29355 0.0
H797 H 0.20122 0.7579 0.23347 0.0
H798 H 0.18782 0.80114 0.2682 0.0
H799 H 0.17556 0.78442 0.32846 0.0
Pr800 Pr 0.26615 0.37522 0.44685 0.0
Pr801 Pr 0.25993 0.40598 0.40426 0.0
C802 C 0.27746 0.35499 0.48958 0.0
C803 C 0.28637 0.35483 0.52574 0.0
C804 C 0.28586 0.36525 0.55702 0.0
C805 C 0.29182 0.36263 0.5926 0.0
C806 C 0.2982 0.34941 0.59747 0.0
C807 C 0.29963 0.33981 0.56557 0.0
C808 C 0.29381 0.34255 0.53 0.0
C809 C 0.22911 0.36156 0.41885 0.0
C810 C 0.25084 0.40085 0.49654 0.0
C811 C 0.24848 0.42391 0.35436 0.0
C812 C 0.23875 0.42082 0.31664 0.0
C813 C 0.2469 0.43498 0.28846 0.0
C814 C 0.23766 0.43285 0.25346 0.0
C815 C 0.21985 0.41646 0.2454 0.0
C816 C 0.2118 0.40219 0.27363 0.0
C817 C 0.22109 0.40432 0.30862 0.0
C818 C 0.29433 0.42105 0.44568 0.0
C819 C 0.26449 0.37239 0.35406 0.0
O820 O 0.28837 0.36704 0.4635 0.0
O821 O 0.2604 0.35307 0.4914 0.0
O822 O 0.2399 0.37772 0.43306 0.0
O823 O 0.23755 0.35143 0.41943 0.0
O824 O 0.24706 0.40669 0.46404 0.0
O825 O 0.26008 0.39105 0.49721 0.0
O826 O 0.23817 0.41386 0.38323 0.0
O827 O 0.26588 0.42653 0.35498 0.0
O828 O 0.28685 0.40562 0.42661 0.0
O829 O 0.28551 0.43052 0.43865 0.0
O830 O 0.26994 0.36716 0.38492 0.0
O831 O 0.25939 0.3856 0.35518 0.0
H832 H 0.28012 0.3748 0.55424 0.0
H833 H 0.2904 0.37016 0.61662 0.0
H834 H 0.30471 0.32973 0.56832 0.0
H835 H 0.29438 0.33445 0.50608 0.0
H836 H 0.2604 0.44793 0.29372 0.0
H837 H 0.24433 0.44432 0.23301 0.0
H838 H 0.19831 0.38921 0.26864 0.0
H839 H 0.21437 0.39304 0.32949 0.0
Pr840 Pr 0.22828 0.29545 1.01428 0.0
Pr841 Pr 0.18993 0.2669 0.05591 0.0
C842 C 0.26039 0.3126 0.97236 0.0
C843 C 0.26873 0.31016 0.93739 0.0
C844 C 0.28859 0.32075 0.93239 0.0
C845 C 0.29657 0.32154 0.89691 0.0
C846 C 0.28476 0.31177 0.8659 0.0
C847 C 0.26499 0.29982 0.87193 0.0
C848 C 0.25703 0.29906 0.90742 0.0
C849 C 0.20704 0.31199 0.03964 0.0
C850 C 0.18728 0.2723 0.96342 0.0
C851 C 0.15974 0.25031 0.10412 0.0
C852 C 0.15279 0.25362 0.14112 0.0
C853 C 0.16438 0.25979 0.17377 0.0
C854 C 0.15716 0.26205 0.20852 0.0
C855 C 0.13813 0.25826 0.21173 0.0
C856 C 0.12668 0.25224 0.1788 0.0
C857 C 0.13389 0.24996 0.14417 0.0
C858 C 0.20684 0.24929 1.0148 0.0
C859 C 0.22853 0.29908 0.10709 0.0
O860 O 0.25828 0.30134 1.00084 0.0
O861 O 0.24613 0.31582 0.96824 0.0
O862 O 0.20062 0.29547 1.02639 0.0
O863 O 0.22564 0.32111 0.03879 0.0
O864 O 0.1774 0.2675 0.99561 0.0
O865 O 0.20629 0.28061 0.96341 0.0
O866 O 0.16044 0.26077 0.07513 0.0
O867 O 0.17398 0.24685 0.10465 0.0
O868 O 0.21592 0.26453 0.03424 0.0
O869 O 0.18861 0.24132 1.02168 0.0
O870 O 0.23951 0.30359 0.07678 0.0
O871 O 0.21 0.28661 0.10534 0.0
H872 H 0.29784 0.32926 0.95538 0.0
H873 H 0.31187 0.33059 0.89328 0.0
H874 H 0.25547 0.29217 0.84863 0.0
H875 H 0.24165 0.29069 0.91087 0.0
H876 H 0.17904 0.26283 0.17253 0.0
H877 H 0.16661 0.26696 0.23283 0.0
H878 H 0.11192 0.24888 0.17982 0.0
H879 H 0.12454 0.24508 0.11969 0.0
Pr880 Pr 0.70199 0.9303 1.00917 0.0
Pr881 Pr 0.72966 0.91889 0.05084 0.0
C882 C 0.68762 0.94695 0.96415 0.0
C883 C 0.69254 0.95669 0.92731 0.0
C884 C 0.70223 0.95215 0.90004 0.0
C885 C 0.70497 0.95979 0.86363 0.0
C886 C 0.69829 0.97235 0.85385 0.0
C887 C 0.68969 0.97779 0.8822 0.0
C888 C 0.68678 0.96996 0.91855 0.0
C889 C 0.68419 0.8929 0.0367 0.0
C890 C 0.7229 0.90982 0.95879 0.0
C891 C 0.74486 0.90395 0.09944 0.0
C892 C 0.74073 0.89343 0.13649 0.0
C893 C 0.75085 0.90292 0.16946 0.0
C894 C 0.74789 0.89303 0.20388 0.0
C895 C 0.73477 0.87323 0.20658 0.0
C896 C 0.72459 0.86375 0.17354 0.0
C897 C 0.72752 0.87366 0.13912 0.0
C898 C 0.74805 0.95318 1.00888 0.0
C899 C 0.69933 0.92823 0.10215 0.0
O900 O 0.69926 0.95595 0.99226 0.0
O901 O 0.68168 0.92859 0.9635 0.0
O902 O 0.70063 0.90224 1.02279 0.0
O903 O 0.67544 0.90273 0.03405 0.0
O904 O 0.72778 0.90479 0.99101 0.0
O905 O 0.71538 0.92121 0.95868 0.0
O906 O 0.73444 0.89473 0.06994 0.0
O907 O 0.74937 0.92199 0.09998 0.0
O908 O 0.73312 0.94762 1.0289 0.0
O909 O 0.75537 0.94228 1.01529 0.0
O910 O 0.69479 0.93461 0.07161 0.0
O911 O 0.7111 0.9213 0.10042 0.0
H912 H 0.70705 0.94213 0.90647 0.0
H913 H 0.71147 0.955 0.8428 0.0
H914 H 0.68482 0.98781 0.87622 0.0
H915 H 0.67959 0.9739 0.93952 0.0
H916 H 0.76132 0.91804 0.16856 0.0
H917 H 0.75627 0.90091 0.22825 0.0
H918 H 0.71419 0.84861 0.17424 0.0
H919 H 0.71948 0.86573 0.11447 0.0
Pr920 Pr 0.06396 0.77443 1.01624 0.0
Pr921 Pr 0.07393 0.8131 0.05499 0.0
C922 C 0.04902 0.74203 0.97489 0.0
C923 C 0.03962 0.73554 0.93806 0.0
C924 C 0.0339 0.71699 0.92552 0.0
C925 C 0.02881 0.71204 0.88762 0.0
C926 C 0.02947 0.72567 0.86183 0.0
C927 C 0.03342 0.74364 0.8757 0.0
C928 C 0.0386 0.74858 0.91341 0.0
C929 C 0.10206 0.79624 0.03969 0.0
C930 C 0.08153 0.81485 0.96294 0.0
C931 C 0.08648 0.84307 0.1034 0.0
C932 C 0.09661 0.84972 0.14055 0.0
C933 C 0.08998 0.85783 0.16752 0.0
C934 C 0.09945 0.86461 0.20236 0.0
C935 C 0.11593 0.86357 0.21134 0.0
C936 C 0.12246 0.85528 0.1843 0.0
C937 C 0.11292 0.84841 0.14947 0.0
C938 C 0.03877 0.79536 1.01594 0.0
C939 C 0.06889 0.77568 0.10802 0.0
O940 O 0.03943 0.7449 1.00133 0.0
O941 O 0.06701 0.75544 0.97349 0.0
O942 O 0.09184 0.80239 1.02589 0.0
O943 O 0.09257 0.77763 0.04061 0.0
O944 O 0.08672 0.82517 0.9946 0.0
O945 O 0.07088 0.79581 0.96398 0.0
O946 O 0.09636 0.84286 0.07415 0.0
O947 O 0.06899 0.82845 0.10392 0.0
O948 O 0.04518 0.78664 0.03591 0.0
O949 O 0.04938 0.81373 1.0206 0.0
O950 O 0.06024 0.76388 0.0795 0.0
O951 O 0.07626 0.79432 0.10385 0.0
H952 H 0.03455 0.70674 0.94438 0.0
H953 H 0.02591 0.6981 0.87808 0.0
H954 H 0.03376 0.75438 0.85688 0.0
H955 H 0.04298 0.76298 0.92268 0.0
H956 H 0.07749 0.85908 0.16149 0.0
H957 H 0.09402 0.87105 0.22198 0.0
H958 H 0.13489 0.85391 0.19015 0.0
H959 H 0.11834 0.8421 0.12951 0.0
Pr960 Pr 0.40566 0.14769 0.88895 0.0
Pr961 Pr 0.37574 0.10897 0.84903 0.0
C962 C 0.42275 0.17763 0.9378 0.0
C963 C 0.41905 0.18467 0.97441 0.0
C964 C 0.41231 0.17303 1.0069 0.0
C965 C 0.40985 0.1803 0.04143 0.0
C966 C 0.41397 0.19944 0.04464 0.0
C967 C 0.42046 0.21094 1.01184 0.0
C968 C 0.42298 0.20368 0.97742 0.0
C969 C 0.42194 0.12893 0.84958 0.0
C970 C 0.37296 0.11009 0.94143 0.0
C971 C 0.35702 0.07659 0.80777 0.0
C972 C 0.35809 0.06824 0.77152 0.0
C973 C 0.3677 0.07996 0.74047 0.0
C974 C 0.36621 0.07191 0.70475 0.0
C975 C 0.35484 0.05203 0.69936 0.0
C976 C 0.34612 0.04026 0.73097 0.0
C977 C 0.3478 0.04832 0.7668 0.0
C978 C 0.36084 0.13185 0.87365 0.0
C979 C 0.39983 0.14968 0.79675 0.0
O980 O 0.41328 0.17775 0.90769 0.0
O981 O 0.42522 0.16276 0.9389 0.0
O982 O 0.40659 0.12073 0.86886 0.0
O983 O 0.43077 0.14729 0.8556 0.0
O984 O 0.36915 0.09836 0.91243 0.0
O985 O 0.38464 0.1287 0.93766 0.0
O986 O 0.36946 0.0789 0.83406 0.0
O987 O 0.35358 0.09078 0.80572 0.0
O988 O 0.37705 0.13737 0.85972 0.0
O989 O 0.35109 0.11323 0.87411 0.0
O990 O 0.40527 0.15989 0.82854 0.0
O991 O 0.39081 0.13059 0.79735 0.0
H992 H 0.40901 0.15828 1.00575 0.0
H993 H 0.40455 0.17081 0.0656 0.0
H994 H 0.42405 0.22577 1.01287 0.0
H995 H 0.42828 0.21308 0.95309 0.0
H996 H 0.37571 0.09538 0.74352 0.0
H997 H 0.37297 0.08138 0.68094 0.0
H998 H 0.33741 0.0249 0.72772 0.0
H999 H 0.34034 0.03905 0.7905 0.0
Pr1000 Pr 0.85526 0.2596 0.88905 0.0
Pr1001 Pr 0.89203 0.26508 0.84755 0.0
C1002 C 0.82599 0.24858 0.9389 0.0
C1003 C 0.81933 0.23877 0.97651 0.0
C1004 C 0.81352 0.24698 1.00491 0.0
C1005 C 0.80645 0.2377 0.03985 0.0
C1006 C 0.80487 0.21981 0.04762 0.0
C1007 C 0.81087 0.21169 1.01917 0.0
C1008 C 0.81801 0.22102 0.98424 0.0
C1009 C 0.87486 0.2938 0.84734 0.0
C1010 C 0.8933 0.26425 0.94004 0.0
C1011 C 0.92332 0.27478 0.80523 0.0
C1012 C 0.93253 0.28118 0.76786 0.0
C1013 C 0.93412 0.26796 0.74462 0.0
C1014 C 0.94357 0.2736 0.71002 0.0
C1015 C 0.95186 0.29269 0.69786 0.0
C1016 C 0.95029 0.30597 0.72111 0.0
C1017 C 0.94078 0.30031 0.75592 0.0
C1018 C 0.868 0.22824 0.87615 0.0
C1019 C 0.85135 0.25012 0.79696 0.0
O1020 O 0.82544 0.23824 0.90981 0.0
O1021 O 0.84099 0.26584 0.93845 0.0
O1022 O 0.8828 0.28633 0.86658 0.0
O1023 O 0.8566 0.28517 0.8544 0.0
O1024 O 0.90407 0.26993 0.90941 0.0
O1025 O 0.8749 0.25883 0.93847 0.0
O1026 O 0.92182 0.28699 0.82734 0.0
O1027 O 0.90869 0.25739 0.80731 0.0
O1028 O 0.86304 0.23914 0.86096 0.0
O1029 O 0.88656 0.23658 0.87677 0.0
O1030 O 0.84163 0.24652 0.82923 0.0
O1031 O 0.87039 0.25912 0.79671 0.0
H1032 H 0.81423 0.26056 0.99988 0.0
H1033 H 0.80181 0.24443 0.06048 0.0
H1034 H 0.81023 0.19813 1.02393 0.0
H1035 H 0.82241 0.21425 0.9632 0.0
H1036 H 0.9281 0.25317 0.75327 0.0
H1037 H 0.9441 0.26287 0.69253 0.0
H1038 H 0.95659 0.32074 0.71246 0.0
H1039 H 0.94001 0.31089 0.77348 0.0
Pr1040 Pr 0.74518 0.6027 0.88296 0.0
Pr1041 Pr 0.72551 0.6236 0.84409 0.0
C1042 C 0.76286 0.58973 0.93007 0.0
C1043 C 0.77204 0.5927 0.96848 0.0
C1044 C 0.76273 0.57919 0.99747 0.0
C1045 C 0.77156 0.58095 0.03282 0.0
C1046 C 0.79012 0.59625 0.0405 0.0
C1047 C 0.79936 0.60989 1.01151 0.0
C1048 C 0.7905 0.60814 0.97613 0.0
C1049 C 0.71026 0.57944 0.8439 0.0
C1050 C 0.73215 0.6286 0.9377 0.0
C1051 C 0.70067 0.63289 0.81383 0.0
C1052 C 0.69779 0.63931 0.77657 0.0
C1053 C 0.70014 0.65768 0.77283 0.0
C1054 C 0.69892 0.66458 0.73732 0.0
C1055 C 0.6952 0.65317 0.70494 0.0
C1056 C 0.69211 0.63451 0.70887 0.0
C1057 C 0.69351 0.62767 0.74431 0.0
C1058 C 0.7647 0.64511 0.84449 0.0
C1059 C 0.75075 0.60916 0.79059 0.0
O1060 O 0.77185 0.6025 0.90346 0.0
O1061 O 0.74423 0.58231 0.92853 0.0
O1062 O 0.71388 0.5933 0.86573 0.0
O1063 O 0.72459 0.57637 0.84447 0.0
O1064 O 0.72572 0.63326 0.90738 0.0
O1065 O 0.73901 0.61681 0.93556 0.0
O1066 O 0.6972 0.61524 0.81629 0.0
O1067 O 0.71594 0.64511 0.83263 0.0
O1068 O 0.75481 0.63435 0.87155 0.0
O1069 O 0.75412 0.64621 0.81782 0.0
O1070 O 0.75874 0.60748 0.82222 0.0
O1071 O 0.73619 0.61261 0.7915 0.0
H1072 H 0.74864 0.56697 0.9926 0.0
H1073 H 0.76395 0.56994 0.0538 0.0
H1074 H 0.81351 0.62205 1.01612 0.0
H1075 H 0.79824 0.61883 0.95465 0.0
H1076 H 0.70331 0.66685 0.79734 0.0
H1077 H 0.70121 0.67896 0.73504 0.0
H1078 H 0.68936 0.62545 0.68433 0.0
H1079 H 0.69158 0.61341 0.74622 0.0
Pr1080 Pr 0.80908 0.73012 0.2395 0.0
Pr1081 Pr 0.7708 0.70071 0.28002 0.0
C1082 C 0.83948 0.74677 0.19182 0.0
C1083 C 0.84653 0.74269 0.15585 0.0
C1084 C 0.83402 0.73164 0.12658 0.0
C1085 C 0.84111 0.72832 0.09272 0.0
C1086 C 0.86094 0.73588 0.08712 0.0
C1087 C 0.87335 0.7468 0.11677 0.0
C1088 C 0.86625 0.75013 0.15052 0.0
C1089 C 0.79159 0.74711 0.28065 0.0
C1090 C 0.77019 0.69881 0.18743 0.0
C1091 C 0.73928 0.68213 0.3232 0.0
C1092 C 0.73261 0.68414 0.36044 0.0
C1093 C 0.71528 0.66939 0.37438 0.0
C1094 C 0.70968 0.67015 0.41137 0.0
C1095 C 0.72122 0.68587 0.43491 0.0
C1096 C 0.73822 0.70108 0.41993 0.0
C1097 C 0.74402 0.70003 0.38326 0.0
C1098 C 0.79258 0.68522 0.252 0.0
C1099 C 0.81135 0.72349 0.33173 0.0
O1100 O 0.83902 0.73709 0.22193 0.0
O1101 O 0.82482 0.74955 0.18982 0.0
O1102 O 0.7827 0.73187 0.26108 0.0
O1103 O 0.8099 0.7553 0.27431 0.0
O1104 O 0.75923 0.69408 0.21778 0.0
O1105 O 0.78884 0.71089 0.18946 0.0
O1106 O 0.74133 0.69468 0.29746 0.0
O1107 O 0.75321 0.67829 0.32347 0.0
O1108 O 0.79858 0.70128 0.26704 0.0
O1109 O 0.77398 0.67576 0.25278 0.0
O1110 O 0.82138 0.72876 0.29973 0.0
O1111 O 0.79237 0.71523 0.33136 0.0
H1112 H 0.81872 0.72557 0.12985 0.0
H1113 H 0.83097 0.7196 0.07109 0.0
H1114 H 0.88868 0.75315 0.11373 0.0
H1115 H 0.87626 0.75872 0.17248 0.0
H1116 H 0.70641 0.65693 0.35712 0.0
H1117 H 0.69669 0.65799 0.42184 0.0
H1118 H 0.74731 0.71362 0.43674 0.0
H1119 H 0.75766 0.71135 0.37309 0.0
Pr1120 Pr 0.26501 0.0779 0.23918 0.0
Pr1121 Pr 0.29412 0.06851 0.27922 0.0
C1122 C 0.24774 0.09054 0.19037 0.0
C1123 C 0.25105 0.10071 0.15321 0.0
C1124 C 0.23671 0.09325 0.12525 0.0
C1125 C 0.23909 0.1028 0.09061 0.0
C1126 C 0.25592 0.12024 0.08273 0.0
C1127 C 0.27035 0.12764 0.11077 0.0
C1128 C 0.26798 0.11802 0.14541 0.0
C1129 C 0.24798 0.04307 0.27927 0.0
C1130 C 0.29756 0.07285 0.18696 0.0
C1131 C 0.3124 0.0546 0.3211 0.0
C1132 C 0.31188 0.04555 0.3575 0.0
C1133 C 0.32388 0.03786 0.36289 0.0
C1134 C 0.32619 0.03214 0.39891 0.0
C1135 C 0.31652 0.03405 0.43018 0.0
C1136 C 0.30344 0.04052 0.4241 0.0
C1137 C 0.30116 0.04627 0.388 0.0
C1138 C 0.30983 0.10643 0.25475 0.0
C1139 C 0.27055 0.08567 0.33124 0.0
O1140 O 0.25781 0.10039 0.21972 0.0
O1141 O 0.24483 0.07303 0.18983 0.0
O1142 O 0.26316 0.04949 0.25959 0.0
O1143 O 0.23988 0.05328 0.27326 0.0
O1144 O 0.30105 0.06463 0.21588 0.0
O1145 O 0.28602 0.07991 0.1907 0.0
O1146 O 0.29944 0.04435 0.29578 0.0
O1147 O 0.3163 0.07238 0.32249 0.0
O1148 O 0.29355 0.09603 0.26868 0.0
O1149 O 0.31917 0.09716 0.25411 0.0
O1150 O 0.26535 0.09061 0.29935 0.0
O1151 O 0.27931 0.07536 0.33076 0.0
H1152 H 0.22346 0.08003 0.13037 0.0
H1153 H 0.2275 0.09665 0.07029 0.0
H1154 H 0.28364 0.14083 0.10585 0.0
H1155 H 0.2794 0.12418 0.16614 0.0
H1156 H 0.33217 0.0371 0.33956 0.0
H1157 H 0.33609 0.02689 0.40254 0.0
H1158 H 0.29583 0.04224 0.44758 0.0
H1159 H 0.29176 0.05212 0.38427 0.0
Pr1160 Pr 0.92387 0.18786 0.23604 0.0
Pr1161 Pr 0.93187 0.22535 0.27835 0.0
C1162 C 0.91166 0.15835 0.18632 0.0
C1163 C 0.90203 0.15193 0.14848 0.0
C1164 C 0.91008 0.14576 0.12042 0.0
C1165 C 0.90089 0.13882 0.08532 0.0
C1166 C 0.88326 0.13772 0.07706 0.0
C1167 C 0.87531 0.1441 0.10516 0.0
C1168 C 0.88455 0.15111 0.14024 0.0
C1169 C 0.95814 0.20568 0.27812 0.0
C1170 C 0.92999 0.22656 0.18572 0.0
C1171 C 0.94462 0.25719 0.32077 0.0
C1172 C 0.95242 0.26628 0.35773 0.0
C1173 C 0.94114 0.27071 0.381 0.0
C1174 C 0.94802 0.27959 0.41583 0.0
C1175 C 0.96641 0.28431 0.4283 0.0
C1176 C 0.97785 0.28004 0.40488 0.0
C1177 C 0.971 0.27133 0.3696 0.0
C1178 C 0.89453 0.20312 0.25055 0.0
C1179 C 0.9146 0.18413 0.32825 0.0
O1180 O 0.90142 0.15851 0.21492 0.0
O1181 O 0.92929 0.17272 0.18712 0.0
O1182 O 0.95167 0.21443 0.25847 0.0
O1183 O 0.94825 0.18739 0.2714 0.0
O1184 O 0.93616 0.2373 0.21641 0.0
O1185 O 0.92398 0.20803 0.18701 0.0
O1186 O 0.95562 0.25441 0.29752 0.0
O1187 O 0.92673 0.24347 0.31997 0.0
O1188 O 0.90484 0.19722 0.26493 0.0
O1189 O 0.90365 0.22173 0.25092 0.0
O1190 O 0.9105 0.17451 0.29573 0.0
O1191 O 0.92451 0.20319 0.32895 0.0
H1192 H 0.92344 0.14606 0.12585 0.0
H1193 H 0.90747 0.13388 0.06496 0.0
H1194 H 0.86196 0.14383 0.1 0.0
H1195 H 0.87791 0.15579 0.16101 0.0
H1196 H 0.92687 0.26723 0.3723 0.0
H1197 H 0.93867 0.2823 0.43346 0.0
H1198 H 0.99206 0.28346 0.41376 0.0
H1199 H 0.98021 0.26858 0.35172 0.0
Pr1200 Pr 0.29237 0.22851 0.77795 0.0
Pr1201 Pr 0.26435 0.18954 0.73853 0.0
C1202 C 0.30812 0.26101 0.81907 0.0
C1203 C 0.30533 0.2675 0.85596 0.0
C1204 C 0.31866 0.28581 0.8689 0.0
C1205 C 0.31839 0.29083 0.90664 0.0
C1206 C 0.30468 0.27758 0.93189 0.0
C1207 C 0.29017 0.25995 0.91755 0.0
C1208 C 0.29071 0.25481 0.88007 0.0
C1209 C 0.30938 0.20718 0.75623 0.0
C1210 C 0.26983 0.18778 0.83086 0.0
C1211 C 0.24725 0.15943 0.69033 0.0
C1212 C 0.25059 0.15265 0.65323 0.0
C1213 C 0.23589 0.14486 0.62607 0.0
C1214 C 0.23838 0.13788 0.59135 0.0
C1215 C 0.25569 0.13841 0.58267 0.0
C1216 C 0.27048 0.14637 0.60992 0.0
C1217 C 0.268 0.15343 0.64463 0.0
C1218 C 0.2465 0.20689 0.77733 0.0
C1219 C 0.29705 0.22708 0.68612 0.0
O1220 O 0.29487 0.25689 0.79354 0.0
O1221 O 0.31412 0.24867 0.82016 0.0
O1222 O 0.29278 0.20079 0.76898 0.0
O1223 O 0.31839 0.22581 0.75571 0.0
O1224 O 0.26483 0.17754 0.7991 0.0
O1225 O 0.27826 0.20684 0.83005 0.0
O1226 O 0.25756 0.15993 0.71952 0.0
O1227 O 0.24407 0.17385 0.68963 0.0
O1228 O 0.26153 0.21567 0.75727 0.0
O1229 O 0.23896 0.18854 0.77252 0.0
O1230 O 0.29997 0.23893 0.71449 0.0
O1231 O 0.28572 0.20844 0.69023 0.0
H1232 H 0.33001 0.29578 0.85049 0.0
H1233 H 0.32982 0.3045 0.91654 0.0
H1234 H 0.27908 0.24959 0.9359 0.0
H1235 H 0.28037 0.24056 0.87053 0.0
H1236 H 0.2223 0.14398 0.63185 0.0
H1237 H 0.22653 0.1317 0.57159 0.0
H1238 H 0.28412 0.14733 0.6043 0.0
H1239 H 0.2797 0.15946 0.66476 0.0
Pr1240 Pr 0.77182 0.06707 0.77746 0.0
Pr1241 Pr 0.80875 0.074 0.73574 0.0
C1242 C 0.74042 0.05627 0.82016 0.0
C1243 C 0.7314 0.04965 0.85753 0.0
C1244 C 0.72624 0.06129 0.87782 0.0
C1245 C 0.71733 0.0555 0.91291 0.0
C1246 C 0.71323 0.03783 0.92858 0.0
C1247 C 0.71843 0.02615 0.90819 0.0
C1248 C 0.72726 0.03191 0.87278 0.0
C1249 C 0.79471 0.10431 0.74997 0.0
C1250 C 0.81265 0.08308 0.82796 0.0
C1251 C 0.8382 0.08564 0.68614 0.0
C1252 C 0.84483 0.09549 0.64861 0.0
C1253 C 0.85158 0.08786 0.62084 0.0
C1254 C 0.85871 0.09727 0.58605 0.0
C1255 C 0.85941 0.11472 0.57785 0.0
C1256 C 0.85241 0.12223 0.60565 0.0
C1257 C 0.84522 0.11276 0.64041 0.0
C1258 C 0.79031 0.0396 0.77724 0.0
C1259 C 0.77044 0.06858 0.68499 0.0
O1260 O 0.74256 0.0444 0.79824 0.0
O1261 O 0.75455 0.07391 0.81803 0.0
O1262 O 0.80036 0.09382 0.76453 0.0
O1263 O 0.77613 0.09535 0.74933 0.0
O1264 O 0.82232 0.08713 0.79557 0.0
O1265 O 0.7936 0.0735 0.8283 0.0
O1266 O 0.8384 0.09587 0.71512 0.0
O1267 O 0.82343 0.06824 0.68646 0.0
O1268 O 0.78177 0.04637 0.75775 0.0
O1269 O 0.80862 0.04925 0.77071 0.0
O1270 O 0.75967 0.06244 0.7156 0.0
O1271 O 0.78893 0.07448 0.68652 0.0
H1272 H 0.72917 0.07498 0.86653 0.0
H1273 H 0.71406 0.06515 0.92809 0.0
H1274 H 0.71561 0.01253 0.9195 0.0
H1275 H 0.7308 0.02252 0.85743 0.0
H1276 H 0.85159 0.07465 0.62626 0.0
H1277 H 0.86412 0.09104 0.56591 0.0
H1278 H 0.85235 0.13542 0.6005 0.0
H1279 H 0.84005 0.11905 0.66098 0.0
Pr1280 Pr 0.93788 0.70234 0.78571 0.0
Pr1281 Pr 0.91832 0.72317 0.74486 0.0
C1282 C 0.96249 0.69229 0.81521 0.0
C1283 C 0.96824 0.68911 0.8529 0.0
C1284 C 0.97074 0.70132 0.88336 0.0
C1285 C 0.97467 0.69721 0.91958 0.0
C1286 C 0.97602 0.68072 0.9261 0.0
C1287 C 0.97429 0.66898 0.8952 0.0
C1288 C 0.97043 0.67315 0.85895 0.0
C1289 C 0.89874 0.68098 0.78424 0.0
C1290 C 0.91321 0.71766 0.83773 0.0
C1291 C 0.90025 0.73555 0.69745 0.0
C1292 C 0.89144 0.73282 0.65877 0.0
C1293 C 0.90117 0.74633 0.63 0.0
C1294 C 0.89266 0.74488 0.59445 0.0
C1295 C 0.874 0.7299 0.58636 0.0
C1296 C 0.86432 0.71624 0.61511 0.0
C1297 C 0.87287 0.71769 0.6507 0.0
C1298 C 0.95238 0.747 0.78531 0.0
C1299 C 0.93211 0.6977 0.69144 0.0
O1300 O 0.96727 0.70985 0.80655 0.0
O1301 O 0.94524 0.67978 0.80393 0.0
O1302 O 0.90876 0.69159 0.75707 0.0
O1303 O 0.90913 0.68013 0.81159 0.0
O1304 O 0.905 0.71873 0.80582 0.0
O1305 O 0.92791 0.71441 0.83744 0.0
O1306 O 0.89129 0.72239 0.72344 0.0
O1307 O 0.91892 0.74347 0.69964 0.0
O1308 O 0.94934 0.73289 0.7646 0.0
O1309 O 0.9382 0.7502 0.78196 0.0
O1310 O 0.93729 0.6922 0.72245 0.0
O1311 O 0.92617 0.71024 0.69276 0.0
H1312 H 0.96907 0.71372 0.87948 0.0
H1313 H 0.97573 0.70645 0.94276 0.0
H1314 H 0.97553 0.65633 0.89918 0.0
H1315 H 0.96872 0.66365 0.83574 0.0
H1316 H 0.91535 0.75835 0.63521 0.0
H1317 H 0.90058 0.75589 0.57364 0.0
H1318 H 0.85006 0.70433 0.61015 0.0
H1319 H 0.8648 0.70704 0.67204 0.0
Pr1320 Pr 0.89549 0.62807 0.34613 0.0
Pr1321 Pr 0.8566 0.59852 0.38709 0.0
C1322 C 0.92769 0.64623 0.30451 0.0
C1323 C 0.93593 0.64483 0.26844 0.0
C1324 C 0.95578 0.65536 0.26345 0.0
C1325 C 0.96375 0.65635 0.22787 0.0
C1326 C 0.95199 0.64667 0.19671 0.0
C1327 C 0.93213 0.63528 0.20242 0.0
C1328 C 0.92416 0.63448 0.23793 0.0
C1329 C 0.87372 0.64365 0.37345 0.0
C1330 C 0.85465 0.60508 0.29447 0.0
C1331 C 0.8264 0.58262 0.43544 0.0
C1332 C 0.81974 0.58673 0.47224 0.0
C1333 C 0.82077 0.57812 0.50618 0.0
C1334 C 0.8137 0.58107 0.54041 0.0
C1335 C 0.8052 0.59268 0.54202 0.0
C1336 C 0.80421 0.60132 0.50799 0.0
C1337 C 0.81133 0.5984 0.47375 0.0
C1338 C 0.87458 0.58171 0.34702 0.0
C1339 C 0.89554 0.62985 0.43915 0.0
O1340 O 0.92537 0.63394 0.33111 0.0
O1341 O 0.91358 0.64978 0.30218 0.0
O1342 O 0.86766 0.62742 0.35914 0.0
O1343 O 0.89232 0.65321 0.37212 0.0
O1344 O 0.84455 0.59956 0.32642 0.0
O1345 O 0.87368 0.61365 0.2948 0.0
O1346 O 0.82714 0.59257 0.40549 0.0
O1347 O 0.84041 0.57881 0.43642 0.0
O1348 O 0.88309 0.59711 0.36613 0.0
O1349 O 0.85624 0.57307 0.35347 0.0
O1350 O 0.90657 0.63487 0.40883 0.0
O1351 O 0.87694 0.61759 0.43706 0.0
H1352 H 0.96508 0.66341 0.28675 0.0
H1353 H 0.9791 0.66513 0.22456 0.0
H1354 H 0.92259 0.62784 0.17903 0.0
H1355 H 0.90876 0.62634 0.24119 0.0
H1356 H 0.82685 0.56883 0.50624 0.0
H1357 H 0.81453 0.57385 0.56554 0.0
H1358 H 0.79805 0.61054 0.50775 0.0
H1359 H 0.81011 0.60523 0.44834 0.0
Pr1360 Pr 0.3777 0.2704 0.35132 0.0
Pr1361 Pr 0.40717 0.26088 0.38989 0.0
C1362 C 0.35932 0.28492 0.31157 0.0
C1363 C 0.35898 0.29184 0.27338 0.0
C1364 C 0.36832 0.28844 0.24357 0.0
C1365 C 0.36494 0.29159 0.20628 0.0
C1366 C 0.35196 0.29794 0.19822 0.0
C1367 C 0.34376 0.30272 0.22828 0.0
C1368 C 0.34723 0.29963 0.2657 0.0
C1369 C 0.36222 0.23245 0.37494 0.0
C1370 C 0.40061 0.25286 0.29755 0.0
C1371 C 0.42437 0.24782 0.43785 0.0
C1372 C 0.42061 0.23706 0.47435 0.0
C1373 C 0.42525 0.2225 0.47786 0.0
C1374 C 0.42254 0.21265 0.51223 0.0
C1375 C 0.41515 0.21709 0.54438 0.0
C1376 C 0.41034 0.23159 0.54065 0.0
C1377 C 0.41298 0.24139 0.50617 0.0
C1378 C 0.42381 0.29636 0.3521 0.0
C1379 C 0.37501 0.26604 0.44345 0.0
O1380 O 0.37422 0.29554 0.33283 0.0
O1381 O 0.35346 0.26665 0.31405 0.0
O1382 O 0.37847 0.24291 0.36086 0.0
O1383 O 0.35286 0.24169 0.37647 0.0
O1384 O 0.40657 0.24843 0.32913 0.0
O1385 O 0.3914 0.26274 0.2986 0.0
O1386 O 0.41467 0.23827 0.40793 0.0
O1387 O 0.42701 0.26522 0.43917 0.0
O1388 O 0.40852 0.28914 0.37154 0.0
O1389 O 0.43233 0.28644 0.35672 0.0
O1390 O 0.37172 0.27461 0.41492 0.0
O1391 O 0.38616 0.25853 0.43906 0.0
H1392 H 0.37732 0.28227 0.24892 0.0
H1393 H 0.37159 0.28798 0.18361 0.0
H1394 H 0.33368 0.30759 0.22284 0.0
H1395 H 0.33993 0.30233 0.28847 0.0
H1396 H 0.43122 0.21886 0.45399 0.0
H1397 H 0.42667 0.20181 0.51377 0.0
H1398 H 0.40434 0.2353 0.56434 0.0
H1399 H 0.40911 0.25243 0.5045 0.0
Pr1400 Pr 0.73267 0.10814 0.3467 0.0
Pr1401 Pr 0.74081 0.14569 0.38869 0.0
C1402 C 0.72035 0.07622 0.30474 0.0
C1403 C 0.71236 0.06661 0.26832 0.0
C1404 C 0.72311 0.06079 0.24687 0.0
C1405 C 0.71631 0.05162 0.21229 0.0
C1406 C 0.69848 0.04795 0.19826 0.0
C1407 C 0.68752 0.05358 0.21996 0.0
C1408 C 0.69433 0.06269 0.25494 0.0
C1409 C 0.77006 0.13028 0.37421 0.0
C1410 C 0.74968 0.1491 0.29628 0.0
C1411 C 0.75328 0.17546 0.4378 0.0
C1412 C 0.7632 0.1822 0.47525 0.0
C1413 C 0.7573 0.17049 0.50771 0.0
C1414 C 0.7665 0.17749 0.54284 0.0
C1415 C 0.78193 0.1964 0.54663 0.0
C1416 C 0.78784 0.20797 0.51391 0.0
C1417 C 0.77862 0.20099 0.4789 0.0
C1418 C 0.7065 0.12804 0.3468 0.0
C1419 C 0.73444 0.10703 0.43941 0.0
O1420 O 0.7093 0.07861 0.32854 0.0
O1421 O 0.73802 0.0904 0.30452 0.0
O1422 O 0.75982 0.13628 0.35989 0.0
O1423 O 0.76084 0.11168 0.37411 0.0
O1424 O 0.75404 0.15883 0.3287 0.0
O1425 O 0.73962 0.13005 0.29588 0.0
O1426 O 0.76344 0.17531 0.40907 0.0
O1427 O 0.73572 0.16094 0.43745 0.0
O1428 O 0.71293 0.11921 0.36633 0.0
O1429 O 0.7164 0.14631 0.35374 0.0
O1430 O 0.72821 0.09627 0.40875 0.0
O1431 O 0.74061 0.12559 0.438 0.0
H1432 H 0.73697 0.06348 0.25676 0.0
H1433 H 0.72536 0.04793 0.19603 0.0
H1434 H 0.67375 0.05098 0.20988 0.0
H1435 H 0.68555 0.06667 0.27126 0.0
H1436 H 0.74553 0.15591 0.50602 0.0
H1437 H 0.7616 0.16796 0.56699 0.0
H1438 H 0.79941 0.22265 0.51539 0.0
H1439 H 0.78346 0.21042 0.45458 0.0
H1440 H 0.13581 0.45772 0.9657 0.0
H1441 H 0.07743 0.42784 0.1613 0.0
H1442 H 0.09933 0.39883 0.99671 0.0
H1443 H 0.09763 0.48266 0.10812 0.0
H1444 H 0.08761 0.41713 0.10504 0.0
H1445 H 0.12436 0.46744 1.02096 0.0
C1446 C 0.12513 0.44677 0.98383 0.0
C1447 C 0.11812 0.42734 0.97575 0.0
C1448 C 0.08976 0.43149 0.1057 0.0
C1449 C 0.1053 0.43842 0.04035 0.0
C1450 C 0.08387 0.43758 0.13777 0.0
C1451 C 0.08623 0.45605 0.13932 0.0
C1452 C 0.09858 0.44413 0.07516 0.0
C1453 C 0.09536 0.46827 0.10839 0.0
C1454 C 0.11863 0.45234 1.01553 0.0
C1455 C 0.10458 0.41386 1.00089 0.0
N1456 N 0.10117 0.46213 0.07787 0.0
N1457 N 0.09874 0.41961 0.0321 0.0
H1458 H 0.60483 0.69933 0.99416 0.0
H1459 H 0.51835 0.61806 0.11298 0.0
H1460 H 0.5468 0.68615 0.97727 0.0
H1461 H 0.5742 0.65184 0.16299 0.0
H1462 H 0.52897 0.63937 0.05804 0.0
H1463 H 0.59462 0.67804 0.04969 0.0
C1464 C 0.58994 0.69171 1.00162 0.0
C1465 C 0.57673 0.6944 0.98045 0.0
C1466 C 0.53896 0.6421 0.08092 0.0
C1467 C 0.5648 0.67014 0.04466 0.0
C1468 C 0.5329 0.62995 0.1125 0.0
C1469 C 0.54551 0.6328 0.1426 0.0
C1470 C 0.55793 0.65724 0.07873 0.0
C1471 C 0.56417 0.6486 0.14001 0.0
C1472 C 0.58413 0.67978 0.03373 0.0
C1473 C 0.55754 0.68448 0.99242 0.0
N1474 N 0.56989 0.66005 0.10853 0.0
N1475 N 0.55216 0.67275 1.02335 0.0
H1476 H 0.36422 0.88408 0.13443 0.0
H1477 H 0.31214 0.90893 0.96932 0.0
H1478 H 0.35684 0.93316 0.14332 0.0
H1479 H 0.302 0.85218 0.99176 0.0
H1480 H 0.3314 0.92023 1.02783 0.0
H1481 H 0.34437 0.87415 0.07766 0.0
C1482 C 0.35841 0.89284 0.12456 0.0
C1483 C 0.36248 0.90969 0.1439 0.0
C1484 C 0.32488 0.90529 1.01993 0.0
C1485 C 0.33968 0.89839 0.07759 0.0
C1486 C 0.31377 0.89882 0.98658 0.0
C1487 C 0.305 0.87947 0.97571 0.0
C1488 C 0.32767 0.8924 0.04218 0.0
C1489 C 0.30832 0.86719 0.99875 0.0
C1490 C 0.34704 0.88713 0.09192 0.0
C1491 C 0.3544 0.92031 0.12928 0.0
N1492 N 0.31934 0.87384 1.0305 0.0
N1493 N 0.34355 0.91461 0.09691 0.0
H1494 H 0.48263 0.10068 0.68015 0.0
H1495 H 0.39839 0.10038 0.79985 0.0
H1496 H 0.42716 0.08209 0.63114 0.0
H1497 H 0.45773 0.13921 0.8233 0.0
H1498 H 0.40753 0.08893 0.74347 0.0
H1499 H 0.47295 0.11106 0.73677 0.0
C1500 C 0.46835 0.09872 0.68118 0.0
C1501 C 0.45557 0.09004 0.65077 0.0
C1502 C 0.41855 0.09985 0.76112 0.0
C1503 C 0.44423 0.10178 0.71662 0.0
C1504 C 0.41331 0.1061 0.79381 0.0
C1505 C 0.4272 0.12039 0.81717 0.0
C1506 C 0.43796 0.10785 0.75158 0.0
C1507 C 0.44646 0.128 0.80655 0.0
C1508 C 0.46282 0.10463 0.71376 0.0
C1509 C 0.43727 0.088 0.65423 0.0
N1510 N 0.45125 0.12159 0.7749 0.0
N1511 N 0.43209 0.09363 0.68657 0.0
H1512 H 0.90562 0.38677 0.68652 0.0
H1513 H 0.9011 0.29687 0.79322 0.0
H1514 H 0.92049 0.34878 0.62989 0.0
H1515 H 0.86734 0.32198 0.82683 0.0
H1516 H 0.91222 0.31803 0.73755 0.0
H1517 H 0.89498 0.36544 0.74139 0.0
C1518 C 0.90656 0.37386 0.68543 0.0
C1519 C 0.91424 0.36977 0.65342 0.0
C1520 C 0.90254 0.31906 0.75732 0.0
C1521 C 0.90202 0.34506 0.71699 0.0
C1522 C 0.89646 0.30718 0.78958 0.0
C1523 C 0.88364 0.30791 0.81553 0.0
C1524 C 0.89598 0.33204 0.75102 0.0
C1525 C 0.87741 0.32103 0.80801 0.0
C1526 C 0.9005 0.36166 0.71698 0.0
C1527 C 0.91502 0.35274 0.65406 0.0
N1528 N 0.88371 0.3326 0.77686 0.0
N1529 N 0.90906 0.34107 0.68526 0.0
H1530 H 0.65528 0.56686 0.62204 0.0
H1531 H 0.71602 0.57143 0.77148 0.0
H1532 H 0.61224 0.52502 0.69586 0.0
H1533 H 0.67335 0.57366 0.84089 0.0
H1534 H 0.69455 0.56301 0.71677 0.0
H1535 H 0.67834 0.57755 0.67506 0.0
C1536 C 0.65067 0.55994 0.64933 0.0
C1537 C 0.6318 0.54489 0.65427 0.0
C1538 C 0.68989 0.56537 0.74394 0.0
C1539 C 0.658 0.55738 0.71538 0.0
C1540 C 0.70209 0.57007 0.77535 0.0
C1541 C 0.69661 0.57343 0.81104 0.0
C1542 C 0.67164 0.56325 0.74817 0.0
C1543 C 0.67826 0.57132 0.81401 0.0
C1544 C 0.66383 0.56602 0.67953 0.0
C1545 C 0.62665 0.53655 0.69053 0.0
N1546 N 0.66635 0.56611 0.78319 0.0
N1547 N 0.63954 0.54303 0.71968 0.0
H1548 H 0.90375 0.6044 0.29802 0.0
H1549 H 0.90365 0.51885 0.1843 0.0
H1550 H 0.86345 0.54551 0.32204 0.0
H1551 H 0.92075 0.57309 0.1311 0.0
H1552 H 0.89301 0.5292 0.23973 0.0
H1553 H 0.91517 0.59439 0.24286 0.0
C1554 C 0.89766 0.58939 0.29231 0.0
C1555 C 0.88296 0.57588 0.31539 0.0
C1556 C 0.89918 0.5389 0.21603 0.0
C1557 C 0.89552 0.56413 0.25142 0.0
C1558 C 0.90522 0.53299 0.18419 0.0
C1559 C 0.91358 0.54527 0.15304 0.0
C1560 C 0.90162 0.55739 0.21732 0.0
C1561 C 0.91513 0.56341 0.15489 0.0
C1562 C 0.90391 0.58366 0.26036 0.0
C1563 C 0.87495 0.55649 0.30539 0.0
N1564 N 0.90943 0.56899 0.18653 0.0
N1565 N 0.8814 0.55121 0.2745 0.0
H1566 H 0.45953 0.32561 0.33426 0.0
H1567 H 0.43032 0.34907 0.1323 0.0
H1568 H 0.40122 0.29885 0.29647 0.0
H1569 H 0.48265 0.38827 0.18955 0.0
H1570 H 0.42034 0.32834 0.18877 0.0
H1571 H 0.46918 0.34688 0.27885 0.0
C1572 C 0.44865 0.32444 0.31469 0.0
C1573 C 0.42934 0.31079 0.3209 0.0
C1574 C 0.43393 0.34159 0.18905 0.0
C1575 C 0.44039 0.33467 0.25618 0.0
C1576 C 0.4396 0.35345 0.15682 0.0
C1577 C 0.45718 0.37069 0.15622 0.0
C1578 C 0.44596 0.34685 0.22103 0.0
C1579 C 0.46894 0.37519 0.18852 0.0
C1580 C 0.45418 0.33654 0.28292 0.0
C1581 C 0.41601 0.30965 0.29388 0.0
N1582 N 0.46314 0.36344 0.2194 0.0
N1583 N 0.42173 0.32123 0.26269 0.0
H1584 H 0.64765 0.07173 0.13465 0.0
H1585 H 0.69425 0.14734 0.30238 0.0
H1586 H 0.62837 0.11099 0.16501 0.0
H1587 H 0.68798 0.09146 0.3148 0.0
H1588 H 0.67471 0.13651 0.24511 0.0
H1589 H 0.66744 0.08104 0.19279 0.0
C1590 C 0.64744 0.08217 0.15348 0.0
C1591 C 0.63592 0.09023 0.14505 0.0
C1592 C 0.67765 0.12657 0.26019 0.0
C1593 C 0.65893 0.10134 0.21114 0.0
C1594 C 0.68881 0.13273 0.29311 0.0
C1595 C 0.69313 0.12038 0.31348 0.0
C1596 C 0.67085 0.10792 0.24658 0.0
C1597 C 0.68549 0.1016 0.29967 0.0
C1598 C 0.65879 0.08752 0.18662 0.0
C1599 C 0.63682 0.1042 0.17014 0.0
N1600 N 0.67492 0.09598 0.26692 0.0
N1601 N 0.64805 0.10929 0.20168 0.0
H1602 H 0.57715 0.85787 0.52453 0.0
H1603 H 0.52442 0.90971 0.6006 0.0
H1604 H 0.57728 0.90158 0.4543 0.0
H1605 H 0.56734 0.90904 0.67217 0.0
H1606 H 0.53721 0.90064 0.54645 0.0
H1607 H 0.56748 0.87007 0.57877 0.0
C1608 C 0.57511 0.87002 0.52039 0.0
C1609 C 0.57815 0.87872 0.48455 0.0
C1610 C 0.54385 0.90252 0.57398 0.0
C1611 C 0.56636 0.89238 0.54679 0.0
C1612 C 0.53652 0.90763 0.60505 0.0
C1613 C 0.54486 0.91032 0.64122 0.0
C1614 C 0.55918 0.89918 0.57907 0.0
C1615 C 0.56048 0.90724 0.64493 0.0
C1616 C 0.56965 0.877 0.55152 0.0
C1617 C 0.57518 0.89443 0.48126 0.0
N1618 N 0.56692 0.90154 0.61449 0.0
N1619 N 0.56915 0.90053 0.51171 0.0
H1620 H 0.09305 0.6119 0.60479 0.0
H1621 H 0.10053 0.70242 0.49511 0.0
H1622 H 0.07925 0.65142 0.65813 0.0
H1623 H 0.13099 0.67423 0.45983 0.0
H1624 H 0.08845 0.68129 0.55046 0.0
H1625 H 0.10361 0.63223 0.54846 0.0
C1626 C 0.09223 0.62488 0.60478 0.0
C1627 C 0.08486 0.6297 0.63632 0.0
C1628 C 0.09758 0.67953 0.53039 0.0
C1629 C 0.09687 0.65316 0.57099 0.0
C1630 C 0.1041 0.69135 0.49823 0.0
C1631 C 0.11617 0.68973 0.47181 0.0
C1632 C 0.10314 0.66579 0.53644 0.0
C1633 C 0.12144 0.67584 0.47897 0.0
C1634 C 0.09823 0.63648 0.57238 0.0
C1635 C 0.0842 0.64676 0.63421 0.0
N1636 N 0.11483 0.66438 0.51029 0.0
N1637 N 0.08997 0.65777 0.60214 0.0
H1638 H 0.38492 0.48289 0.6113 0.0
H1639 H 0.29889 0.39748 0.49625 0.0
H1640 H 0.35027 0.42705 0.66058 0.0
H1641 H 0.3207 0.45683 0.47027 0.0
H1642 H 0.32 0.40684 0.55198 0.0
H1643 H 0.36378 0.47277 0.55618 0.0
C1644 C 0.37283 0.46845 0.61065 0.0
C1645 C 0.36965 0.45573 0.64066 0.0
C1646 C 0.32031 0.41783 0.5339 0.0
C1647 C 0.34526 0.44386 0.57657 0.0
C1648 C 0.30846 0.41244 0.50162 0.0
C1649 C 0.30829 0.42629 0.47777 0.0
C1650 C 0.33233 0.43733 0.54238 0.0
C1651 C 0.32045 0.4456 0.48744 0.0
C1652 C 0.36076 0.46265 0.57893 0.0
C1653 C 0.35364 0.43721 0.6378 0.0
N1654 N 0.332 0.45051 0.51862 0.0
N1655 N 0.34218 0.43178 0.60628 0.0
H1656 H 0.75481 0.72923 0.311 0.0
H1657 H 0.76855 0.81185 0.44898 0.0
H1658 H 0.81017 0.77967 0.32314 0.0
H1659 H 0.7415 0.75448 0.49339 0.0
H1660 H 0.77887 0.80113 0.39362 0.0
H1661 H 0.74392 0.73879 0.36795 0.0
C1662 C 0.76468 0.74224 0.32551 0.0
C1663 C 0.78357 0.75335 0.31245 0.0
C1664 C 0.7705 0.79084 0.41531 0.0
C1665 C 0.77102 0.76479 0.37698 0.0
C1666 C 0.76464 0.79694 0.44713 0.0
C1667 C 0.75358 0.78395 0.47574 0.0
C1668 C 0.76503 0.77148 0.41122 0.0
C1669 C 0.74921 0.76483 0.47143 0.0
C1670 C 0.75845 0.74769 0.35804 0.0
C1671 C 0.79553 0.77046 0.33211 0.0
N1672 N 0.75465 0.7591 0.43958 0.0
N1673 N 0.78905 0.77569 0.36297 0.0
H1674 H 0.2434 0.97658 0.48182 0.0
H1675 H 0.21727 0.03192 0.32522 0.0
H1676 H 0.1878 0.97101 0.4689 0.0
H1677 H 0.2652 0.02315 0.30954 0.0
H1678 H 0.2084 0.01216 0.38184 0.0
H1679 H 0.25394 0.99612 0.42359 0.0
C1680 C 0.23339 0.97935 0.46683 0.0
C1681 C 0.21457 0.9718 0.48033 0.0
C1682 C 0.22092 0.01451 0.3662 0.0
C1683 C 0.22665 0.99462 0.41395 0.0
C1684 C 0.22602 0.02584 0.33357 0.0
C1685 C 0.24224 0.02954 0.31236 0.0
C1686 C 0.23213 0.00672 0.37862 0.0
C1687 C 0.25287 0.0211 0.32514 0.0
C1688 C 0.23943 0.99056 0.43355 0.0
C1689 C 0.20242 0.97637 0.45988 0.0
N1690 N 0.24774 0.01023 0.3575 0.0
N1691 N 0.20864 0.98741 0.42814 0.0
H1692 H 0.9801 0.24336 0.30414 0.0
H1693 H 0.02832 0.21589 0.47315 0.0
H1694 H 0.96658 0.1857 0.32917 0.0
H1695 H 0.02389 0.26678 0.47912 0.0
H1696 H 0.00886 0.20644 0.41577 0.0
H1697 H 0.99973 0.25426 0.36252 0.0
C1698 C 0.98105 0.23298 0.32193 0.0
C1699 C 0.97132 0.2135 0.31174 0.0
C1700 C 0.0121 0.21972 0.42952 0.0
C1701 C 0.99392 0.22591 0.37846 0.0
C1702 C 0.02323 0.22515 0.46253 0.0
C1703 C 0.028 0.24234 0.48128 0.0
C1704 C 0.00571 0.23161 0.4142 0.0
C1705 C 0.02087 0.2536 0.46566 0.0
C1706 C 0.99224 0.23921 0.35527 0.0
C1707 C 0.97366 0.20083 0.33559 0.0
N1708 N 0.01026 0.24817 0.43295 0.0
N1709 N 0.98463 0.20722 0.36747 0.0
H1710 H 0.25962 0.24488 0.79934 0.0
H1711 H 0.18818 0.21593 0.97544 0.0
H1712 H 0.22066 0.18663 0.83226 0.0
H1713 H 0.24187 0.2688 0.97683 0.0
H1714 H 0.19801 0.20668 0.91766 0.0
H1715 H 0.25157 0.25589 0.85821 0.0
C1716 C 0.24955 0.23441 0.8189 0.0
C1717 C 0.24119 0.21475 0.8109 0.0
C1718 C 0.20774 0.22035 0.93052 0.0
C1719 C 0.23141 0.22724 0.87784 0.0
C1720 C 0.20214 0.22566 0.96374 0.0
C1721 C 0.21418 0.24332 0.98136 0.0
C1722 C 0.22548 0.23286 0.9138 0.0
C1723 C 0.23208 0.25521 0.96436 0.0
C1724 C 0.24487 0.2407 0.85245 0.0
C1725 C 0.22765 0.20191 0.83694 0.0
N1726 N 0.23714 0.24989 0.93143 0.0
N1727 N 0.22322 0.20834 0.86884 0.0
H1728 H 0.75322 0.02038 0.80721 0.0
H1729 H 0.77606 0.96035 0.9577 0.0
H1730 H 0.80894 0.02628 0.82084 0.0
H1731 H 0.73386 0.97645 0.98284 0.0
H1732 H 0.78501 0.98021 0.90093 0.0
H1733 H 0.74235 0.99985 0.86428 0.0
C1734 C 0.76319 0.01751 0.82216 0.0
C1735 C 0.78216 0.02549 0.80934 0.0
C1736 C 0.77368 0.97934 0.91867 0.0
C1737 C 0.76968 0.00158 0.87416 0.0
C1738 C 0.76855 0.968 0.95133 0.0
C1739 C 0.75388 0.96636 0.9752 0.0
C1740 C 0.76399 0.98914 0.90894 0.0
C1741 C 0.7448 0.97675 0.96495 0.0
C1742 C 0.75697 0.00577 0.85472 0.0
C1743 C 0.79422 0.02066 0.82948 0.0
N1744 N 0.74986 0.98755 0.93254 0.0
N1745 N 0.78781 0.00908 0.86049 0.0
H1746 H 0.02476 0.81375 0.9732 0.0
H1747 H 0.98495 0.74458 0.80002 0.0
H1748 H 0.01956 0.75835 0.98625 0.0
H1749 H 0.95129 0.76766 0.84567 0.0
H1750 H 0.00406 0.7539 0.85883 0.0
H1751 H 0.00384 0.80189 0.91753 0.0
C1752 C 0.01929 0.79906 0.96443 0.0
C1753 C 0.02437 0.78714 0.98436 0.0
C1754 C 0.99242 0.75679 0.85588 0.0
C1755 C 0.00078 0.77368 0.91942 0.0
C1756 C 0.98132 0.75122 0.82259 0.0
C1757 C 0.96588 0.75448 0.81839 0.0
C1758 C 0.98873 0.76662 0.88443 0.0
C1759 C 0.96286 0.76457 0.84759 0.0
C1760 C 0.00737 0.79235 0.93252 0.0
C1761 C 0.01659 0.76821 0.9714 0.0
N1762 N 0.97422 0.77039 0.87904 0.0
N1763 N 0.00549 0.76214 0.93944 0.0
H1764 H 0.01775 0.3572 0.9875 0.0
H1765 H 0.95644 0.3633 0.81925 0.0
H1766 H 0.97003 0.3666 1.00199 0.0
H1767 H 0.9948 0.34107 0.80317 0.0
H1768 H 0.95968 0.36178 0.88682 0.0
H1769 H 0.00831 0.3485 0.92119 0.0
C1770 C 0.00508 0.35706 0.9769 0.0
C1771 C 0.99483 0.36295 0.99994 0.0
C1772 C 0.96726 0.35702 0.86864 0.0
C1773 C 0.98411 0.35325 0.92444 0.0
C1774 C 0.96528 0.35771 0.82972 0.0
C1775 C 0.9754 0.35235 0.80498 0.0
C1776 C 0.97978 0.35134 0.8834 0.0
C1777 C 0.98704 0.34577 0.82094 0.0
C1778 C 0.99974 0.35217 0.93908 0.0
C1779 C 0.97857 0.36258 0.98489 0.0
N1780 N 0.98913 0.3457 0.85916 0.0
N1781 N 0.97386 0.35805 0.94802 0.0
H1782 H 0.63208 0.60371 1.00955 0.0
H1783 H 0.66456 0.65226 0.80579 0.0
H1784 H 0.64751 0.66223 0.98683 0.0
H1785 H 0.63409 0.59121 0.8256 0.0
H1786 H 0.66476 0.65742 0.87389 0.0
H1787 H 0.6397 0.60049 0.94417 0.0
C1788 C 0.63743 0.61602 0.99101 0.0
C1789 C 0.63908 0.63326 1.00361 0.0
C1790 C 0.65823 0.64292 0.86319 0.0
C1791 C 0.64755 0.62956 0.92856 0.0
C1792 C 0.65801 0.63992 0.82425 0.0
C1793 C 0.6492 0.62123 0.80952 0.0
C1794 C 0.64962 0.62715 0.88767 0.0
C1795 C 0.64131 0.60589 0.83526 0.0
C1796 C 0.64163 0.61411 0.9536 0.0
C1797 C 0.64582 0.64863 0.97813 0.0
N1798 N 0.64162 0.6092 0.87294 0.0
N1799 N 0.64971 0.64639 0.94169 0.0
H1800 H 0.34388 0.95233 0.96631 0.0
H1801 H 0.37376 0.03749 0.8178 0.0
H1802 H 0.36532 0.01134 0.9973 0.0
H1803 H 0.35494 0.97916 0.7855 0.0
H1804 H 0.36602 0.02715 0.88361 0.0
H1805 H 0.34307 0.9608 0.9 0.0
C1806 C 0.34822 0.96701 0.95927 0.0
C1807 C 0.35488 0.98116 0.98748 0.0
C1808 C 0.36338 0.01656 0.86209 0.0
C1809 C 0.35397 0.99097 0.91166 0.0
C1810 C 0.36786 0.02248 0.82451 0.0
C1811 C 0.3652 0.00922 0.79611 0.0
C1812 C 0.35631 0.99724 0.87149 0.0
C1813 C 0.35716 0.98988 0.80639 0.0
C1814 C 0.3477 0.97183 0.92142 0.0
C1815 C 0.35996 0.99989 0.97672 0.0
N1816 N 0.35322 0.98452 0.84326 0.0
N1817 N 0.35961 0.00426 0.93972 0.0
H1818 H 0.95979 0.62575 0.31703 0.0
H1819 H 0.04342 0.66542 0.47212 0.0
H1820 H 0.01951 0.64862 0.29041 0.0
H1821 H 0.98321 0.63312 0.49881 0.0
H1822 H 0.03517 0.66491 0.4053 0.0
H1823 H 0.96847 0.63389 0.38353 0.0
C1824 C 0.97473 0.63258 0.32508 0.0
C1825 C 0.98891 0.63626 0.29805 0.0
C1826 C 0.02378 0.65811 0.42587 0.0
C1827 C 0.99895 0.64574 0.37416 0.0
C1828 C 0.02848 0.65834 0.46401 0.0
C1829 C 0.01401 0.64909 0.49117 0.0
C1830 C 0.00447 0.64856 0.41474 0.0
C1831 C 0.99488 0.64053 0.47904 0.0
C1832 C 0.97968 0.6373 0.36304 0.0
C1833 C 0.00808 0.64557 0.31009 0.0
N1834 N 0.99068 0.64032 0.44174 0.0
N1835 N 0.01251 0.64981 0.34726 0.0
H1836 H 0.39927 0.34894 0.31657 0.0
H1837 H 0.3391 0.35832 0.48595 0.0
H1838 H 0.34555 0.34759 0.30089 0.0
H1839 H 0.39564 0.36582 0.49819 0.0
H1840 H 0.33839 0.34841 0.42022 0.0
H1841 H 0.39502 0.34866 0.38486 0.0
C1842 C 0.38639 0.34823 0.32741 0.0
C1843 C 0.37291 0.34866 0.30285 0.0
C1844 C 0.35087 0.35202 0.43742 0.0
C1845 C 0.36817 0.34873 0.38126 0.0
C1846 C 0.35124 0.35759 0.47499 0.0
C1847 C 0.36757 0.36315 0.4974 0.0
C1848 C 0.36691 0.35196 0.42223 0.0
C1849 C 0.38293 0.36203 0.48167 0.0
C1850 C 0.38405 0.34823 0.36651 0.0
C1851 C 0.35657 0.34781 0.31875 0.0
N1852 N 0.38228 0.35671 0.445 0.0
N1853 N 0.35476 0.34812 0.35694 0.0
H1854 H 0.623 0.04356 0.32421 0.0
H1855 H 0.65155 0.99587 0.49051 0.0
H1856 H 0.66308 0.02344 0.30828 0.0
H1857 H 0.60939 0.0136 0.49809 0.0
H1858 H 0.66058 0.0107 0.42734 0.0
H1859 H 0.62346 0.03865 0.39149 0.0
C1860 C 0.63229 0.03852 0.33476 0.0
C1861 C 0.64279 0.03363 0.31007 0.0
C1862 C 0.64953 0.01152 0.44309 0.0
C1863 C 0.64267 0.02712 0.38788 0.0
C1864 C 0.64441 0.00311 0.479 0.0
C1865 C 0.62952 0.0033 0.49899 0.0
C1866 C 0.63974 0.02027 0.42756 0.0
C1867 C 0.6207 0.01284 0.48317 0.0
C1868 C 0.63234 0.03546 0.37345 0.0
C1869 C 0.65428 0.02686 0.32601 0.0
N1870 N 0.62586 0.02082 0.44836 0.0
N1871 N 0.65366 0.02348 0.36388 0.0
H1872 H 0.63237 0.68177 0.33856 0.0
H1873 H 0.67387 0.69321 0.12994 0.0
H1874 H 0.69164 0.70192 0.31202 0.0
H1875 H 0.61544 0.67785 0.15368 0.0
H1876 H 0.67858 0.68938 0.19663 0.0
H1877 H 0.6243 0.67408 0.27169 0.0
C1878 C 0.64367 0.68444 0.31878 0.0
C1879 C 0.66277 0.6928 0.33095 0.0
C1880 C 0.66464 0.6866 0.18725 0.0
C1881 C 0.65359 0.68386 0.25443 0.0
C1882 C 0.66186 0.68861 0.14897 0.0
C1883 C 0.64432 0.68621 0.13615 0.0
C1884 C 0.64984 0.68231 0.2131 0.0
C1885 C 0.62938 0.6804 0.16246 0.0
C1886 C 0.63903 0.67994 0.28064 0.0
C1887 C 0.67672 0.69547 0.30414 0.0
N1888 N 0.63257 0.67892 0.19979 0.0
N1889 N 0.67188 0.69123 0.26715 0.0
H1890 H 0.2943 0.97445 0.12062 0.0
H1891 H 0.30897 0.95554 0.33615 0.0
H1892 H 0.32039 0.94147 0.15545 0.0
H1893 H 0.27719 0.98273 0.30027 0.0
H1894 H 0.31895 0.95598 0.27087 0.0
H1895 H 0.29397 0.98335 0.18628 0.0
C1896 C 0.30038 0.96942 0.14194 0.0
C1897 C 0.3072 0.957 0.13244 0.0
C1898 C 0.31 0.96208 0.27731 0.0
C1899 C 0.3064 0.96682 0.20811 0.0
C1900 C 0.30441 0.96199 0.31468 0.0
C1901 C 0.29207 0.96897 0.32371 0.0
C1902 C 0.3032 0.96918 0.24863 0.0
C1903 C 0.28643 0.97689 0.29451 0.0
C1904 C 0.3 0.97437 0.17958 0.0
C1905 C 0.31464 0.95075 0.16155 0.0
N1906 N 0.29189 0.97662 0.25825 0.0
N1907 N 0.31384 0.95556 0.19813 0.0
H1908 H 0.03756 0.34789 0.33677 0.0
H1909 H 0.02551 0.31346 0.12218 0.0
H1910 H 0.01179 0.28864 0.30329 0.0
H1911 H 0.05669 0.37261 0.15724 0.0
H1912 H 0.01487 0.30414 0.18723 0.0
H1913 H 0.0387 0.35686 0.27068 0.0
C1914 C 0.03169 0.33667 0.31563 0.0
C1915 C 0.02473 0.31746 0.32567 0.0
C1916 C 0.02386 0.31918 0.18064 0.0
C1917 C 0.02651 0.32778 0.24956 0.0
C1918 C 0.02985 0.32455 0.1434 0.0
C1919 C 0.04219 0.34387 0.13423 0.0
C1920 C 0.03026 0.33319 0.20904 0.0
C1921 C 0.04752 0.35753 0.16314 0.0
C1922 C 0.03255 0.34186 0.27776 0.0
C1923 C 0.01762 0.30365 0.2968 0.0
N1924 N 0.04165 0.35192 0.19928 0.0
N1925 N 0.0189 0.30911 0.26 0.0
H1926 H 0.66102 0.98578 0.6328 0.0
H1927 H 0.7248 0.9787 0.79787 0.0
H1928 H 0.69435 0.95788 0.61916 0.0
H1929 H 0.67189 0.97866 0.81701 0.0
H1930 H 0.72092 0.98141 0.72989 0.0
H1931 H 0.67228 0.99345 0.69818 0.0
C1932 C 0.67076 0.98136 0.6434 0.0
C1933 C 0.67633 0.97077 0.62056 0.0
C1934 C 0.71039 0.98112 0.74924 0.0
C1935 C 0.68975 0.98003 0.69498 0.0
C1936 C 0.71249 0.97946 0.78806 0.0
C1937 C 0.69843 0.97797 0.81354 0.0
C1938 C 0.69431 0.98165 0.7358 0.0
C1939 C 0.68319 0.97978 0.7989 0.0
C1940 C 0.6773 0.98589 0.68059 0.0
C1941 C 0.68962 0.96607 0.63551 0.0
N1942 N 0.68146 0.98134 0.76104 0.0
N1943 N 0.69574 0.97058 0.67189 0.0
H1944 H 0.0227 0.67817 0.63649 0.0
H1945 H 0.05141 0.75181 0.80829 0.0
H1946 H 0.07281 0.73437 0.6414 0.0
H1947 H 0.0083 0.69225 0.82063 0.0
H1948 H 0.0551 0.74612 0.74269 0.0
H1949 H 0.01391 0.68321 0.70043 0.0
C1950 C 0.03187 0.69146 0.65107 0.0
C1951 C 0.04869 0.70571 0.63393 0.0
C1952 C 0.0447 0.73426 0.75954 0.0
C1953 C 0.03858 0.71173 0.70614 0.0
C1954 C 0.04233 0.73757 0.79713 0.0
C1955 C 0.02946 0.7225 0.82037 0.0
C1956 C 0.03433 0.71569 0.74473 0.0
C1957 C 0.01856 0.70425 0.80396 0.0
C1958 C 0.02685 0.69434 0.6874 0.0
C1959 C 0.05998 0.72278 0.65382 0.0
N1960 N 0.02135 0.7013 0.76713 0.0
N1961 N 0.05471 0.72529 0.68869 0.0
H1962 H 0.27682 0.28732 0.80555 0.0
H1963 H 0.31655 0.37329 0.65761 0.0
H1964 H 0.30946 0.34694 0.83673 0.0
H1965 H 0.28696 0.31372 0.62539 0.0
H1966 H 0.31791 0.36388 0.72285 0.0
H1967 H 0.28437 0.29648 0.739 0.0
C1968 C 0.28581 0.30229 0.79844 0.0
C1969 C 0.29232 0.31639 0.8267 0.0
C1970 C 0.31133 0.35286 0.70142 0.0
C1971 C 0.30088 0.32702 0.75072 0.0
C1972 C 0.31047 0.35824 0.66422 0.0
C1973 C 0.30145 0.34427 0.63607 0.0
C1974 C 0.30289 0.33335 0.71068 0.0
C1975 C 0.29413 0.325 0.64609 0.0
C1976 C 0.29015 0.30753 0.76047 0.0
C1977 C 0.30418 0.33557 0.81596 0.0
N1978 N 0.29478 0.3201 0.68263 0.0
N1979 N 0.30782 0.34033 0.77883 0.0
H1980 H 0.379 0.06002 0.63879 0.0
H1981 H 0.29272 0.01678 0.49099 0.0
H1982 H 0.31968 0.02641 0.67103 0.0
H1983 H 0.35223 0.04589 0.45872 0.0
H1984 H 0.30228 0.01684 0.55683 0.0
H1985 H 0.36967 0.05148 0.57256 0.0
C1986 C 0.36404 0.05063 0.63195 0.0
C1987 C 0.35007 0.04411 0.66039 0.0
C1988 C 0.31323 0.02297 0.53526 0.0
C1989 C 0.33923 0.03444 0.5847 0.0
C1990 C 0.30777 0.023 0.4977 0.0
C1991 C 0.32168 0.03147 0.46931 0.0
C1992 C 0.33277 0.03167 0.5446 0.0
C1993 C 0.34098 0.03908 0.47956 0.0
C1994 C 0.35871 0.04573 0.59416 0.0
C1995 C 0.33093 0.03174 0.65005 0.0
N1996 N 0.34595 0.03922 0.51636 0.0
N1997 N 0.32604 0.02756 0.61302 0.0
H1998 H 0.98503 0.27478 0.48154 0.0
H1999 H 0.95016 0.31692 0.6453 0.0
H2000 H 0.96209 0.31226 0.46286 0.0
H2001 H 0.97512 0.2812 0.66451 0.0
H2002 H 0.961 0.3212 0.57976 0.0
H2003 H 0.98837 0.28287 0.54879 0.0
C2004 C 0.98112 0.28506 0.49141 0.0
C2005 C 0.97273 0.29242 0.46678 0.0
C2006 C 0.96435 0.31264 0.59844 0.0
C2007 C 0.97616 0.30146 0.54377 0.0
C2008 C 0.95823 0.31026 0.63599 0.0
C2009 C 0.96126 0.29823 0.66021 0.0
C2010 C 0.97343 0.30281 0.58493 0.0
C2011 C 0.97187 0.29005 0.64647 0.0
C2012 C 0.98291 0.28959 0.5299 0.0
C2013 C 0.96802 0.30576 0.48114 0.0
N2014 N 0.97728 0.29222 0.60961 0.0
N2015 N 0.96945 0.30956 0.51878 0.0
H2016 H 0.67062 0.63668 0.64528 0.0
H2017 H 0.74577 0.70097 0.49552 0.0
H2018 H 0.72272 0.68764 0.67761 0.0
H2019 H 0.68548 0.66999 0.46789 0.0
H2020 H 0.73761 0.69676 0.56225 0.0
H2021 H 0.67533 0.64838 0.58011 0.0
C2022 C 0.68285 0.65048 0.63876 0.0
C2023 C 0.69629 0.66119 0.6668 0.0
C2024 C 0.72617 0.69114 0.54154 0.0
C2025 C 0.702 0.67448 0.5924 0.0
C2026 C 0.7308 0.69362 0.50323 0.0
C2027 C 0.71632 0.68558 0.47562 0.0
C2028 C 0.70697 0.68018 0.55249 0.0
C2029 C 0.69719 0.67589 0.48794 0.0
C2030 C 0.68551 0.65718 0.60164 0.0
C2031 C 0.71195 0.67899 0.65686 0.0
N2032 N 0.69308 0.67315 0.52547 0.0
N2033 N 0.71457 0.68493 0.62029 0.0
H2034 H 0.29878 0.251 0.98579 0.0
H2035 H 0.34662 0.32421 0.15771 0.0
H2036 H 0.31802 0.3112 0.97293 0.0
H2037 H 0.34004 0.26787 0.15072 0.0
H2038 H 0.33241 0.31959 0.09393 0.0
H2039 H 0.30855 0.25653 0.05137 0.0
C2040 C 0.30463 0.26536 0.99686 0.0
C2041 C 0.30759 0.28066 0.97345 0.0
C2042 C 0.33417 0.30833 0.10649 0.0
C2043 C 0.31964 0.28722 0.04897 0.0
C2044 C 0.34226 0.31096 0.14269 0.0
C2045 C 0.3447 0.29648 0.15918 0.0
C2046 C 0.32821 0.29099 0.08731 0.0
C2047 C 0.33878 0.27955 0.13878 0.0
C2048 C 0.31053 0.26856 0.03439 0.0
C2049 C 0.31572 0.29901 0.98972 0.0
N2050 N 0.33079 0.27727 0.1041 0.0
N2051 N 0.32165 0.30184 1.02649 0.0
H2052 H 0.72089 0.01911 0.98502 0.0
H2053 H 0.68121 0.05795 0.14279 0.0
H2054 H 0.68557 0.04395 0.95977 0.0
H2055 H 0.70197 0.01899 0.16592 0.0
H2056 H 0.67847 0.04937 0.07591 0.0
H2057 H 0.71041 0.01519 0.05063 0.0
C2058 C 0.71064 0.02341 0.99299 0.0
C2059 C 0.70452 0.03235 0.96688 0.0
C2060 C 0.68329 0.04242 0.09571 0.0
C2061 C 0.69278 0.02829 0.04241 0.0
C2062 C 0.68476 0.04725 0.13401 0.0
C2063 C 0.69239 0.03962 0.15984 0.0
C2064 C 0.68971 0.03006 0.08322 0.0
C2065 C 0.69668 0.02576 0.14674 0.0
C2066 C 0.70471 0.02124 1.03063 0.0
C2067 C 0.69124 0.03764 0.97916 0.0
N2068 N 0.69568 0.02174 0.10925 0.0
N2069 N 0.68612 0.03588 1.01616 0.0
H2070 H 0.9979 0.70334 0.98512 0.0
H2071 H 0.9424 0.62085 0.13831 0.0
H2072 H 0.95684 0.6448 0.95691 0.0
H2073 H 0.9797 0.68038 0.16604 0.0
H2074 H 0.9521 0.62816 0.07204 0.0
H2075 H 0.99592 0.69402 0.05157 0.0
C2076 C 0.98861 0.6885 0.99284 0.0
C2077 C 0.97733 0.67489 0.96543 0.0
C2078 C 0.95834 0.63958 0.09273 0.0
C2079 C 0.975 0.66409 0.04145 0.0
C2080 C 0.95276 0.63542 0.13055 0.0
C2081 C 0.96001 0.65007 0.15776 0.0
C2082 C 0.97118 0.65855 0.08196 0.0
C2083 C 0.97374 0.66859 0.14619 0.0
C2084 C 0.98753 0.68316 1.03077 0.0
C2085 C 0.96585 0.65578 0.97697 0.0
N2086 N 0.97867 0.67234 0.10914 0.0
N2087 N 0.9648 0.65101 1.01413 0.0
H2088 H 0.04622 0.49586 0.87811 0.0
H2089 H 0.05096 0.50605 0.1051 0.0
H2090 H 0.05866 0.5478 0.93643 0.0
H2091 H 0.04444 0.45613 0.04706 0.0
H2092 H 0.05233 0.52086 0.0439 0.0
H2093 H 0.04423 0.48073 0.9392 0.0
C2094 C 0.04865 0.50422 0.90358 0.0
C2095 C 0.05276 0.52336 0.90143 0.0
C2096 C 0.05062 0.50668 0.04444 0.0
C2097 C 0.05015 0.5057 0.97248 0.0
C2098 C 0.04985 0.49815 0.07956 0.0
C2099 C 0.04768 0.47974 0.08167 0.0
C2100 C 0.04916 0.49683 1.01065 0.0
C2101 C 0.04618 0.47033 0.04718 0.0
C2102 C 0.04738 0.49544 0.93867 0.0
C2103 C 0.05525 0.53303 0.93608 0.0
N2104 N 0.04695 0.47894 1.01333 0.0
N2105 N 0.05394 0.52416 0.96985 0.0
H2106 H 0.54506 0.59236 0.04966 0.0
H2107 H 0.45152 0.51204 0.93987 0.0
H2108 H 0.49533 0.54793 0.10635 0.0
H2109 H 0.50275 0.55386 0.88277 0.0
H2110 H 0.46723 0.52504 1.00067 0.0
H2111 H 0.52975 0.57885 0.98855 0.0
C2112 C 0.53093 0.57978 0.04941 0.0
C2113 C 0.52155 0.5714 0.08362 0.0
C2114 C 0.47506 0.53139 0.97484 0.0
C2115 C 0.50377 0.55572 1.01307 0.0
C2116 C 0.4661 0.52384 0.93985 0.0
C2117 C 0.47565 0.53174 0.90546 0.0
C2118 C 0.49383 0.54708 0.97603 0.0
C2119 C 0.49452 0.54735 0.90807 0.0
C2120 C 0.52217 0.57204 1.01435 0.0
C2121 C 0.5032 0.55505 0.08102 0.0
N2122 N 0.50288 0.55444 0.94244 0.0
N2123 N 0.49498 0.54783 0.04662 0.0
H2124 H 0.40985 0.94799 0.05332 0.0
H2125 H 0.48253 0.92358 0.94387 0.0
H2126 H 0.44469 0.92902 0.11032 0.0
H2127 H 0.44753 0.94265 0.88773 0.0
H2128 H 0.46878 0.92515 1.00455 0.0
H2129 H 0.42326 0.94578 0.99278 0.0
C2130 C 0.42027 0.94328 0.05326 0.0
C2131 C 0.42604 0.93867 0.08743 0.0
C2132 C 0.4641 0.92901 0.97898 0.0
C2133 C 0.4417 0.93616 1.01731 0.0
C2134 C 0.4719 0.92801 0.94405 0.0
C2135 C 0.46629 0.93295 0.91001 0.0
C2136 C 0.45044 0.93496 0.9804 0.0
C2137 C 0.45263 0.93892 0.91285 0.0
C2138 C 0.42798 0.94204 1.01847 0.0
C2139 C 0.43967 0.93267 0.08499 0.0
N2140 N 0.44523 0.93971 0.94713 0.0
N2141 N 0.447 0.93163 0.05075 0.0
H2142 H 0.50565 0.05549 0.68168 0.0
H2143 H 0.50416 0.06545 0.9081 0.0
H2144 H 0.45895 0.0552 0.74141 0.0
H2145 H 0.5513 0.06756 0.84656 0.0
H2146 H 0.48721 0.06119 0.84818 0.0
H2147 H 0.52204 0.05922 0.74191 0.0
C2148 C 0.49879 0.05623 0.70741 0.0
C2149 C 0.4808 0.05506 0.70608 0.0
C2150 C 0.50125 0.06257 0.84776 0.0
C2151 C 0.49974 0.05934 0.776 0.0
C2152 C 0.51107 0.06512 0.88211 0.0
C2153 C 0.52939 0.06697 0.88291 0.0
C2154 C 0.50968 0.06182 0.81348 0.0
C2155 C 0.5372 0.066 0.84789 0.0
C2156 C 0.50822 0.05835 0.74199 0.0
C2157 C 0.47274 0.056 0.74078 0.0
N2158 N 0.52738 0.06355 0.81489 0.0
N2159 N 0.48224 0.0581 0.77413 0.0
H2160 H 0.94892 0.40679 0.74422 0.0
H2161 H 0.94929 0.49462 0.8537 0.0
H2162 H 0.9535 0.45636 0.68802 0.0
H2163 H 0.94155 0.44387 0.9104 0.0
H2164 H 0.95148 0.48106 0.79334 0.0
H2165 H 0.94701 0.4203 0.80524 0.0
C2166 C 0.94955 0.42051 0.74458 0.0
C2167 C 0.95131 0.43034 0.71054 0.0
C2168 C 0.94932 0.47287 0.81897 0.0
C2169 C 0.94915 0.44603 0.78091 0.0
C2170 C 0.94793 0.48059 0.85368 0.0
C2171 C 0.94514 0.47048 0.88782 0.0
C2172 C 0.94792 0.45479 0.81779 0.0
C2173 C 0.94394 0.45245 0.88531 0.0
C2174 C 0.94843 0.42823 0.77957 0.0
C2175 C 0.952 0.44809 0.71322 0.0
N2176 N 0.9453 0.44524 0.85116 0.0
N2177 N 0.95095 0.4553 0.74753 0.0
H2178 H 0.50616 0.45744 0.85663 0.0
H2179 H 0.59485 0.54322 0.7458 0.0
H2180 H 0.55831 0.49884 0.91204 0.0
H2181 H 0.54413 0.49938 0.69037 0.0
H2182 H 0.58141 0.52798 0.80695 0.0
H2183 H 0.51951 0.47313 0.79612 0.0
C2184 C 0.52046 0.46975 0.85629 0.0
C2185 C 0.53102 0.47664 0.8901 0.0
C2186 C 0.57321 0.52168 0.78143 0.0
C2187 C 0.54647 0.49504 0.81995 0.0
C2188 C 0.58088 0.53043 0.74637 0.0
C2189 C 0.57072 0.52261 0.71252 0.0
C2190 C 0.55512 0.50496 0.78302 0.0
C2191 C 0.55265 0.50593 0.71544 0.0
C2192 C 0.52806 0.47882 0.8215 0.0
C2193 C 0.54938 0.49301 0.88721 0.0
N2194 N 0.5455 0.49774 0.74982 0.0
N2195 N 0.55646 0.50155 0.85301 0.0
H2196 H 0.94852 0.54387 0.24411 0.0
H2197 H 0.94937 0.45658 0.35367 0.0
H2198 H 0.95395 0.4994 0.18803 0.0
H2199 H 0.94055 0.49891 0.41017 0.0
H2200 H 0.95174 0.47249 0.29338 0.0
H2201 H 0.94645 0.52832 0.30511 0.0
C2202 C 0.94932 0.53088 0.2445 0.0
C2203 C 0.95137 0.523 0.21049 0.0
C2204 C 0.94929 0.47833 0.31894 0.0
C2205 C 0.949 0.50498 0.28085 0.0
C2206 C 0.94781 0.46914 0.35363 0.0
C2207 C 0.94467 0.47621 0.38771 0.0
C2208 C 0.94766 0.49488 0.31772 0.0
C2209 C 0.94322 0.4929 0.38514 0.0
C2210 C 0.94809 0.52195 0.27947 0.0
C2211 C 0.95225 0.50603 0.2132 0.0
N2212 N 0.94468 0.50156 0.35102 0.0
N2213 N 0.95109 0.49768 0.2475 0.0
H2214 H 0.50095 0.44277 0.41454 0.0
H2215 H 0.50193 0.45727 0.18885 0.0
H2216 H 0.54345 0.49328 0.35648 0.0
H2217 H 0.45824 0.40725 0.24613 0.0
H2218 H 0.51709 0.47053 0.2499 0.0
H2219 H 0.48501 0.42971 0.35391 0.0
C2220 C 0.50693 0.45126 0.38925 0.0
C2221 C 0.52373 0.46931 0.39124 0.0
C2222 C 0.50419 0.45665 0.24925 0.0
C2223 C 0.50542 0.45406 0.32079 0.0
C2224 C 0.49549 0.44899 0.21421 0.0
C2225 C 0.47872 0.43098 0.21195 0.0
C2226 C 0.49622 0.44631 0.28279 0.0
C2227 C 0.47109 0.42116 0.2462 0.0
C2228 C 0.49782 0.44366 0.35441 0.0
C2229 C 0.53077 0.47925 0.35683 0.0
N2230 N 0.47989 0.42889 0.27999 0.0
N2231 N 0.52165 0.47154 0.32334 0.0
H2232 H 0.55294 0.07052 0.17834 0.0
H2233 H 0.5505 0.05515 0.40425 0.0
H2234 H 0.588 0.05217 0.23656 0.0
H2235 H 0.51539 0.07366 0.34669 0.0
H2236 H 0.56417 0.0539 0.34332 0.0
H2237 H 0.53931 0.07209 0.23935 0.0
C2238 C 0.5579 0.06693 0.20386 0.0
C2239 C 0.57175 0.06123 0.20189 0.0
C2240 C 0.55347 0.05824 0.34395 0.0
C2241 C 0.55595 0.06289 0.27248 0.0
C2242 C 0.54548 0.05882 0.37892 0.0
C2243 C 0.5316 0.0645 0.38122 0.0
C2244 C 0.54765 0.06334 0.31047 0.0
C2245 C 0.52616 0.06943 0.34691 0.0
C2246 C 0.55002 0.06777 0.23883 0.0
C2247 C 0.5774 0.05665 0.2363 0.0
N2248 N 0.53412 0.06871 0.31325 0.0
N2249 N 0.56951 0.05755 0.26988 0.0
H2250 H 0.49081 0.94279 0.60929 0.0
H2251 H 0.4939 0.93514 0.38251 0.0
H2252 H 0.53864 0.94538 0.5497 0.0
H2253 H 0.44592 0.93146 0.44352 0.0
H2254 H 0.51063 0.93934 0.44268 0.0
H2255 H 0.47465 0.9393 0.54881 0.0
C2256 C 0.49797 0.9426 0.58354 0.0
C2257 C 0.5162 0.94432 0.58499 0.0
C2258 C 0.49645 0.93764 0.44293 0.0
C2259 C 0.49752 0.94032 0.5148 0.0
C2260 C 0.48676 0.93511 0.40843 0.0
C2261 C 0.46827 0.93283 0.40739 0.0
C2262 C 0.48773 0.93792 0.47716 0.0
C2263 C 0.46016 0.93336 0.44236 0.0
C2264 C 0.48868 0.94063 0.54883 0.0
C2265 C 0.52465 0.94411 0.55027 0.0
N2266 N 0.46986 0.93578 0.47552 0.0
N2267 N 0.51526 0.94211 0.5168 0.0
H2268 H 0.04944 0.50696 0.43661 0.0
H2269 H 0.05068 0.59493 0.54714 0.0
H2270 H 0.05968 0.5589 0.38119 0.0
H2271 H 0.04361 0.54413 0.60243 0.0
H2272 H 0.05308 0.58175 0.4861 0.0
H2273 H 0.04657 0.52008 0.49698 0.0
C2274 C 0.0512 0.52116 0.43693 0.0
C2275 C 0.0549 0.53173 0.40316 0.0
C2276 C 0.05099 0.57347 0.51157 0.0
C2277 C 0.05134 0.54693 0.47313 0.0
C2278 C 0.04957 0.58099 0.54655 0.0
C2279 C 0.04698 0.57072 0.58033 0.0
C2280 C 0.04973 0.55544 0.50998 0.0
C2281 C 0.04574 0.55272 0.57742 0.0
C2282 C 0.04943 0.52863 0.47162 0.0
C2283 C 0.05659 0.54996 0.40599 0.0
N2284 N 0.04711 0.54572 0.54311 0.0
N2285 N 0.05484 0.55692 0.44011 0.0
H2286 H 0.44738 0.49787 0.38016 0.0
H2287 H 0.45488 0.50617 0.60734 0.0
H2288 H 0.48832 0.54892 0.43928 0.0
H2289 H 0.41069 0.45697 0.54865 0.0
H2290 H 0.46799 0.52141 0.54631 0.0
H2291 H 0.43457 0.48236 0.44107 0.0
C2292 C 0.45369 0.50595 0.40579 0.0
C2293 C 0.46903 0.52495 0.40395 0.0
C2294 C 0.45541 0.50729 0.54669 0.0
C2295 C 0.45435 0.50686 0.47473 0.0
C2296 C 0.44784 0.49852 0.5817 0.0
C2297 C 0.43149 0.48018 0.58355 0.0
C2298 C 0.4467 0.49775 0.51278 0.0
C2299 C 0.42325 0.47109 0.54895 0.0
C2300 C 0.44636 0.49695 0.44077 0.0
C2301 C 0.47669 0.53426 0.43872 0.0
N2302 N 0.4309 0.47993 0.51522 0.0
N2303 N 0.46929 0.52519 0.47238 0.0
H2304 H 0.73499 0.88565 0.2797 0.0
H2305 H 0.71706 0.78885 0.3826 0.0
H2306 H 0.72786 0.83628 0.21844 0.0
H2307 H 0.72307 0.83821 0.4421 0.0
H2308 H 0.72096 0.80569 0.32243 0.0
H2309 H 0.73084 0.86844 0.33907 0.0
C2310 C 0.73266 0.87124 0.27854 0.0
C2311 C 0.73186 0.86258 0.24347 0.0
C2312 C 0.72142 0.81284 0.34866 0.0
C2313 C 0.72685 0.84247 0.3123 0.0
C2314 C 0.71918 0.8032 0.38315 0.0
C2315 C 0.71976 0.81204 0.41785 0.0
C2316 C 0.72427 0.83155 0.34853 0.0
C2317 C 0.72258 0.83073 0.41636 0.0
C2318 C 0.73016 0.86133 0.31267 0.0
C2319 C 0.7284 0.84362 0.24441 0.0
N2320 N 0.72473 0.83977 0.38253 0.0
N2321 N 0.72609 0.8343 0.27804 0.0
H2322 H 0.15488 0.88286 0.22543 0.0
H2323 H 0.14592 0.89479 0.44953 0.0
H2324 H 0.10085 0.86209 0.28246 0.0
H2325 H 0.19976 0.92005 0.39015 0.0
H2326 H 0.12919 0.88222 0.38922 0.0
H2327 H 0.17142 0.89562 0.28568 0.0
C2328 C 0.14642 0.88083 0.25056 0.0
C2329 C 0.12631 0.87129 0.24841 0.0
C2330 C 0.14466 0.89056 0.38934 0.0
C2331 C 0.14539 0.88618 0.31816 0.0
C2332 C 0.15427 0.89781 0.42389 0.0
C2333 C 0.17438 0.9086 0.42528 0.0
C2334 C 0.15514 0.89398 0.35561 0.0
C2335 C 0.18428 0.91187 0.3908 0.0
C2336 C 0.15594 0.88828 0.28507 0.0
C2337 C 0.11632 0.8695 0.28227 0.0
N2338 N 0.17462 0.90459 0.35764 0.0
N2339 N 0.12591 0.87679 0.31551 0.0
H2340 H 0.11245 0.27093 0.22473 0.0
H2341 H 0.10928 0.25824 0.45134 0.0
H2342 H 0.14547 0.25062 0.28461 0.0
H2343 H 0.07677 0.27891 0.39078 0.0
H2344 H 0.12236 0.25501 0.391 0.0
H2345 H 0.09914 0.27359 0.285 0.0
C2346 C 0.11688 0.2669 0.25041 0.0
C2347 C 0.13018 0.26044 0.249 0.0
C2348 C 0.11234 0.26021 0.39086 0.0
C2349 C 0.1149 0.2637 0.31909 0.0
C2350 C 0.10477 0.26202 0.42544 0.0
C2351 C 0.09179 0.26886 0.42655 0.0
C2352 C 0.10695 0.26524 0.35671 0.0
C2353 C 0.08669 0.27358 0.39169 0.0
C2354 C 0.1093 0.26855 0.28504 0.0
C2355 C 0.13549 0.25587 0.28385 0.0
N2356 N 0.09425 0.2717 0.35848 0.0
N2357 N 0.12785 0.25753 0.31718 0.0
H2358 H 0.23538 0.42814 0.17368 0.0
H2359 H 0.13427 0.39126 0.06825 0.0
H2360 H 0.18097 0.40011 0.23111 0.0
H2361 H 0.18828 0.41764 1.00943 0.0
H2362 H 0.15123 0.39509 0.12792 0.0
H2363 H 0.21866 0.42512 0.11392 0.0
C2364 C 0.21993 0.42143 0.17398 0.0
C2365 C 0.20972 0.41441 0.20808 0.0
C2366 C 0.15942 0.40009 0.10203 0.0
C2367 C 0.19028 0.41074 0.13877 0.0
C2368 C 0.14971 0.39795 0.06773 0.0
C2369 C 0.15975 0.40413 0.03329 0.0
C2370 C 0.17947 0.40853 0.10243 0.0
C2371 C 0.17983 0.41267 0.035 0.0
C2372 C 0.21036 0.41961 0.13958 0.0
C2373 C 0.18961 0.40556 0.20587 0.0
N2374 N 0.18895 0.41457 0.06877 0.0
N2375 N 0.18065 0.40404 0.1721 0.0
H2376 H 0.61618 0.74438 0.07124 0.0
H2377 H 0.58917 0.81448 0.18376 0.0
H2378 H 0.59437 0.77715 1.01565 0.0
H2379 H 0.61272 0.78267 0.23707 0.0
H2380 H 0.59075 0.80112 0.12249 0.0
H2381 H 0.61438 0.7579 0.13191 0.0
C2382 C 0.61093 0.75436 0.07163 0.0
C2383 C 0.6054 0.75951 0.03778 0.0
C2384 C 0.59557 0.79705 0.1476 0.0
C2385 C 0.60336 0.77532 0.1082 0.0
C2386 C 0.59481 0.80482 0.18281 0.0
C2387 C 0.60078 0.79981 0.21633 0.0
C2388 C 0.60238 0.78408 0.14534 0.0
C2389 C 0.60761 0.78686 0.21259 0.0
C2390 C 0.60993 0.76215 0.10653 0.0
C2391 C 0.59875 0.77262 0.04072 0.0
N2392 N 0.60821 0.77953 0.17807 0.0
N2393 N 0.59794 0.78003 0.07508 0.0
H2394 H 0.21653 0.82008 0.23221 0.0
H2395 H 0.22713 0.81119 1.00745 0.0
H2396 H 0.19321 0.76606 0.17373 0.0
H2397 H 0.25397 0.86497 0.06739 0.0
H2398 H 0.21432 0.79451 0.0676 0.0
H2399 H 0.2296 0.83667 0.17218 0.0
C2400 C 0.214 0.81163 0.20683 0.0
C2401 C 0.20363 0.79149 0.20856 0.0
C2402 C 0.22306 0.80996 0.06766 0.0
C2403 C 0.21891 0.81066 0.13898 0.0
C2404 C 0.23044 0.81955 0.03318 0.0
C2405 C 0.24176 0.83963 0.03194 0.0
C2406 C 0.22686 0.82042 0.10156 0.0
C2407 C 0.24539 0.84952 0.06659 0.0
C2408 C 0.22163 0.82118 0.17243 0.0
C2409 C 0.20125 0.78154 0.17433 0.0
N2410 N 0.23797 0.83987 0.09971 0.0
N2411 N 0.20874 0.79116 0.14122 0.0
H2412 H 0.5987 0.77795 0.67973 0.0
H2413 H 0.61327 0.8733 0.57553 0.0
H2414 H 0.60068 0.82541 0.73984 0.0
H2415 H 0.61123 0.82546 0.51694 0.0
H2416 H 0.60916 0.85646 0.6358 0.0
H2417 H 0.60347 0.79531 0.62033 0.0
C2418 C 0.60002 0.79196 0.68065 0.0
C2419 C 0.59917 0.80003 0.71544 0.0
C2420 C 0.60964 0.84965 0.60977 0.0
C2421 C 0.60493 0.82034 0.64651 0.0
C2422 C 0.61204 0.85931 0.57521 0.0
C2423 C 0.61259 0.85088 0.5407 0.0
C2424 C 0.60778 0.83134 0.61019 0.0
C2425 C 0.61081 0.83261 0.54251 0.0
C2426 C 0.60288 0.80197 0.64648 0.0
C2427 C 0.60142 0.81853 0.71415 0.0
N2428 N 0.6085 0.82354 0.57639 0.0
N2429 N 0.60412 0.82795 0.68051 0.0
H2430 H 0.18536 0.76868 0.5077 0.0
H2431 H 0.1754 0.78104 0.73138 0.0
H2432 H 0.13108 0.74367 0.56538 0.0
H2433 H 0.22958 0.80418 0.6738 0.0
H2434 H 0.15899 0.76769 0.67122 0.0
H2435 H 0.20163 0.78174 0.56806 0.0
C2436 C 0.17679 0.76581 0.533 0.0
C2437 C 0.15669 0.75493 0.53104 0.0
C2438 C 0.17447 0.77568 0.67171 0.0
C2439 C 0.17547 0.77013 0.60099 0.0
C2440 C 0.18393 0.78348 0.70618 0.0
C2441 C 0.20407 0.79388 0.70821 0.0
C2442 C 0.18509 0.77825 0.6385 0.0
C2443 C 0.21411 0.79612 0.67421 0.0
C2444 C 0.18616 0.77335 0.56762 0.0
C2445 C 0.14655 0.7519 0.56517 0.0
N2446 N 0.20458 0.78845 0.64105 0.0
N2447 N 0.156 0.75944 0.59848 0.0
H2448 H 0.22944 0.41853 0.50846 0.0
H2449 H 0.21784 0.3983 0.73306 0.0
H2450 H 0.2551 0.39056 0.56886 0.0
H2451 H 0.19412 0.42859 0.67436 0.0
H2452 H 0.23112 0.39504 0.67321 0.0
H2453 H 0.21641 0.42236 0.56842 0.0
C2454 C 0.23246 0.41327 0.53425 0.0
C2455 C 0.2435 0.40421 0.53321 0.0
C2456 C 0.22302 0.40241 0.67335 0.0
C2457 C 0.22836 0.40846 0.60254 0.0
C2458 C 0.21526 0.40418 0.70766 0.0
C2459 C 0.20469 0.41374 0.7093 0.0
C2460 C 0.22027 0.41018 0.63985 0.0
C2461 C 0.20229 0.4213 0.67504 0.0
C2462 C 0.22494 0.41543 0.5686 0.0
C2463 C 0.24674 0.39765 0.56789 0.0
N2464 N 0.20993 0.41933 0.64198 0.0
N2465 N 0.23922 0.39986 0.60084 0.0
H2466 H 0.10325 0.25103 0.78505 0.0
H2467 H 0.2022 0.27866 0.89128 0.0
H2468 H 0.15659 0.26923 0.72693 0.0
H2469 H 0.14891 0.25952 0.95023 0.0
H2470 H 0.18565 0.27516 0.83119 0.0
H2471 H 0.11956 0.25427 0.84546 0.0
C2472 C 0.1184 0.25583 0.7848 0.0
C2473 C 0.12842 0.25982 0.75029 0.0
C2474 C 0.17752 0.27167 0.85721 0.0
C2475 C 0.14731 0.26338 0.82018 0.0
C2476 C 0.187 0.27365 0.89174 0.0
C2477 C 0.17703 0.26938 0.92629 0.0
C2478 C 0.15782 0.26539 0.85676 0.0
C2479 C 0.15728 0.26295 0.92455 0.0
C2480 C 0.12771 0.25755 0.8195 0.0
C2481 C 0.14805 0.26568 0.75238 0.0
N2482 N 0.1484 0.26121 0.89058 0.0
N2483 N 0.15676 0.26729 0.78645 0.0
H2484 H 0.73498 0.88365 0.94535 0.0
H2485 H 0.71785 0.87987 0.71986 0.0
H2486 H 0.71508 0.91734 0.88684 0.0
H2487 H 0.74 0.84741 0.77562 0.0
H2488 H 0.71659 0.89333 0.78092 0.0
H2489 H 0.7368 0.87004 0.88434 0.0
C2490 C 0.73107 0.8883 0.91979 0.0
C2491 C 0.72489 0.90179 0.92167 0.0
C2492 C 0.72174 0.88326 0.77991 0.0
C2493 C 0.72684 0.88602 0.85117 0.0
C2494 C 0.72258 0.87559 0.74477 0.0
C2495 C 0.72917 0.86243 0.74192 0.0
C2496 C 0.72749 0.87787 0.8131 0.0
C2497 C 0.73463 0.85729 0.77596 0.0
C2498 C 0.73208 0.88044 0.88484 0.0
C2499 C 0.71994 0.90705 0.88723 0.0
N2500 N 0.73371 0.865 0.80985 0.0
N2501 N 0.72101 0.8992 0.85374 0.0
H2502 H 0.07484 0.79896 0.8913 0.0
H2503 H 0.14219 0.89877 0.78417 0.0
H2504 H 0.10525 0.85337 0.94852 0.0
H2505 H 0.11322 0.84429 0.72685 0.0
H2506 H 0.12833 0.88247 0.84401 0.0
H2507 H 0.08812 0.81523 0.83098 0.0
C2508 C 0.08423 0.81433 0.89132 0.0
C2509 C 0.08883 0.82472 0.92547 0.0
C2510 C 0.12499 0.87405 0.81837 0.0
C2511 C 0.10429 0.84359 0.85578 0.0
C2512 C 0.13284 0.8834 0.78392 0.0
C2513 C 0.12895 0.87304 0.74983 0.0
C2514 C 0.11298 0.85405 0.81927 0.0
C2515 C 0.11693 0.85301 0.7521 0.0
C2516 C 0.09187 0.82364 0.85669 0.0
C2517 C 0.10118 0.84466 0.9232 0.0
N2518 N 0.10941 0.84427 0.78596 0.0
N2519 N 0.10843 0.85336 0.8892 0.0
H2520 H 0.41374 0.18811 0.78377 0.0
H2521 H 0.40373 0.17895 0.55684 0.0
H2522 H 0.39264 0.13461 0.72429 0.0
H2523 H 0.42099 0.23152 0.61737 0.0
H2524 H 0.4005 0.16274 0.61728 0.0
H2525 H 0.41739 0.20429 0.72316 0.0
C2526 C 0.40996 0.17972 0.75803 0.0
C2527 C 0.40287 0.15986 0.75953 0.0
C2528 C 0.40498 0.17782 0.61739 0.0
C2529 C 0.40701 0.17851 0.68931 0.0
C2530 C 0.40695 0.18718 0.58271 0.0
C2531 C 0.4127 0.20678 0.58151 0.0
C2532 C 0.40886 0.18803 0.65159 0.0
C2533 C 0.4163 0.21641 0.61648 0.0
C2534 C 0.412 0.18902 0.72328 0.0
C2535 C 0.39815 0.1499 0.72485 0.0
N2536 N 0.41439 0.207 0.6498 0.0
N2537 N 0.4003 0.15928 0.69139 0.0
H2538 H 0.86627 0.25697 0.72494 0.0
H2539 H 0.76626 0.18915 0.61879 0.0
H2540 H 0.81246 0.22655 0.78398 0.0
H2541 H 0.82031 0.22138 0.56121 0.0
H2542 H 0.78262 0.20219 0.67922 0.0
H2543 H 0.84948 0.24403 0.66513 0.0
C2544 C 0.8509 0.24762 0.72547 0.0
C2545 C 0.84087 0.24295 0.75998 0.0
C2546 C 0.7909 0.20643 0.65336 0.0
C2547 C 0.82135 0.22781 0.69068 0.0
C2548 C 0.78157 0.19886 0.61867 0.0
C2549 C 0.79178 0.20409 0.58429 0.0
C2550 C 0.81073 0.21936 0.65416 0.0
C2551 C 0.81163 0.21703 0.58652 0.0
C2552 C 0.84128 0.24019 0.69109 0.0
C2553 C 0.82089 0.23069 0.75832 0.0
N2554 N 0.82035 0.22413 0.62057 0.0
N2555 N 0.81185 0.22355 0.72444 0.0
H2556 H 0.81914 0.5956 0.61492 0.0
H2557 H 0.73664 0.60752 0.71817 0.0
H2558 H 0.77325 0.59654 0.55401 0.0
H2559 H 0.78281 0.60627 0.77718 0.0
H2560 H 0.74973 0.60391 0.65796 0.0
H2561 H 0.80598 0.59966 0.67413 0.0
C2562 C 0.80623 0.59653 0.61379 0.0
C2563 C 0.79737 0.5956 0.57882 0.0
C2564 C 0.75701 0.60444 0.68408 0.0
C2565 C 0.78215 0.60055 0.64756 0.0
C2566 C 0.74954 0.60655 0.7186 0.0
C2567 C 0.75853 0.60719 0.7532 0.0
C2568 C 0.77369 0.60299 0.6838 0.0
C2569 C 0.77522 0.60577 0.75154 0.0
C2570 C 0.79875 0.59899 0.64785 0.0
C2571 C 0.78083 0.59736 0.57985 0.0
N2572 N 0.78218 0.60374 0.71771 0.0
N2573 N 0.77379 0.59968 0.61341 0.0
H2574 H 0.83597 0.71791 0.57091 0.0
H2575 H 0.84966 0.73627 0.34587 0.0
H2576 H 0.89038 0.73954 0.51485 0.0
H2577 H 0.79567 0.71516 0.40325 0.0
H2578 H 0.86491 0.73789 0.40701 0.0
H2579 H 0.82115 0.71672 0.50981 0.0
C2580 C 0.84486 0.72228 0.54585 0.0
C2581 C 0.8646 0.72882 0.54861 0.0
C2582 C 0.84974 0.73296 0.40626 0.0
C2583 C 0.84749 0.72771 0.47769 0.0
C2584 C 0.84099 0.73209 0.37123 0.0
C2585 C 0.82126 0.7256 0.36901 0.0
C2586 C 0.83876 0.7273 0.43966 0.0
C2587 C 0.81088 0.72027 0.40319 0.0
C2588 C 0.83634 0.72173 0.5108 0.0
C2589 C 0.87521 0.73462 0.51467 0.0
N2590 N 0.8197 0.72122 0.4368 0.0
N2591 N 0.86657 0.73391 0.4809 0.0
H2592 H 0.2532 0.1071 0.34471 0.0
H2593 H 0.27459 0.11834 0.56873 0.0
H2594 H 0.28125 0.08091 0.40301 0.0
H2595 H 0.24239 0.14037 0.51147 0.0
H2596 H 0.27797 0.10537 0.50843 0.0
H2597 H 0.24962 0.11976 0.40516 0.0
C2598 C 0.25856 0.10391 0.37016 0.0
C2599 C 0.26754 0.09282 0.36839 0.0
C2600 C 0.27015 0.11303 0.50903 0.0
C2601 C 0.26357 0.10755 0.43836 0.0
C2602 C 0.26831 0.1206 0.54355 0.0
C2603 C 0.25815 0.13056 0.54564 0.0
C2604 C 0.26188 0.11543 0.47589 0.0
C2605 C 0.25014 0.13264 0.51173 0.0
C2606 C 0.25652 0.1112 0.40482 0.0
C2607 C 0.2742 0.08932 0.40268 0.0
N2608 N 0.25221 0.12522 0.47851 0.0
N2609 N 0.27214 0.09667 0.43603 0.0
H2610 H 0.88097 0.15373 0.56467 0.0
H2611 H 0.89245 0.14508 0.34008 0.0
H2612 H 0.85689 0.09971 0.50598 0.0
H2613 H 0.91895 0.19869 0.40058 0.0
H2614 H 0.87916 0.12825 0.39998 0.0
H2615 H 0.89436 0.17028 0.50481 0.0
C2616 C 0.87833 0.14527 0.53928 0.0
C2617 C 0.86763 0.12514 0.54092 0.0
C2618 C 0.88792 0.14369 0.4002 0.0
C2619 C 0.88333 0.14427 0.47146 0.0
C2620 C 0.89559 0.15336 0.36588 0.0
C2621 C 0.90696 0.17345 0.36488 0.0
C2622 C 0.89152 0.15408 0.43416 0.0
C2623 C 0.91034 0.18324 0.39958 0.0
C2624 C 0.88615 0.1548 0.50496 0.0
C2625 C 0.86516 0.11517 0.50666 0.0
N2626 N 0.90267 0.17352 0.43251 0.0
N2627 N 0.87286 0.12478 0.4736 0.0
H2628 H 0.25362 0.1491 0.84451 0.0
H2629 H 0.27336 0.15927 0.06924 0.0
H2630 H 0.27981 0.2033 0.90287 0.0
H2631 H 0.2438 0.1051 1.01096 0.0
H2632 H 0.27655 0.17567 1.00897 0.0
H2633 H 0.25032 0.13297 0.905 0.0
C2634 C 0.25863 0.15767 0.86999 0.0
C2635 C 0.26701 0.17771 0.86817 0.0
C2636 C 0.26935 0.16019 1.00935 0.0
C2637 C 0.26333 0.1591 0.93832 0.0
C2638 C 0.26763 0.15076 0.04387 0.0
C2639 C 0.25825 0.13062 0.0457 0.0
C2640 C 0.26176 0.14954 0.97592 0.0
C2641 C 0.25091 0.12056 1.01149 0.0
C2642 C 0.25675 0.14839 0.90469 0.0
C2643 C 0.27323 0.18787 0.90255 0.0
N2644 N 0.25285 0.13007 0.9783 0.0
N2645 N 0.27132 0.17851 0.93597 0.0
H2646 H 0.89886 0.14147 1.00547 0.0
H2647 H 0.79771 0.0778 0.89991 0.0
H2648 H 0.84438 0.11556 0.06257 0.0
H2649 H 0.85169 0.10539 0.84095 0.0
H2650 H 0.81471 0.09088 0.95952 0.0
H2651 H 0.88216 0.12794 0.94562 0.0
C2652 C 0.8834 0.13288 1.00567 0.0
C2653 C 0.87315 0.12976 0.0397 0.0
C2654 C 0.82289 0.09408 0.93362 0.0
C2655 C 0.85374 0.11417 0.97032 0.0
C2656 C 0.81316 0.08654 0.89935 0.0
C2657 C 0.82317 0.09039 0.8649 0.0
C2658 C 0.84294 0.10566 0.93398 0.0
C2659 C 0.84325 0.10191 0.86654 0.0
C2660 C 0.87384 0.12521 0.97122 0.0
C2661 C 0.85304 0.11869 0.03738 0.0
N2662 N 0.8524 0.1091 0.9003 0.0
N2663 N 0.8441 0.11133 1.00359 0.0
H2664 H 0.88134 0.72099 0.84971 0.0
H2665 H 0.89212 0.73071 0.07638 0.0
H2666 H 0.92698 0.71959 0.91061 0.0
H2667 H 0.84765 0.73352 1.01375 0.0
H2668 H 0.90483 0.72625 1.0168 0.0
H2669 H 0.8687 0.72501 0.9096 0.0
C2670 C 0.88879 0.72155 0.87563 0.0
C2671 C 0.90539 0.71998 0.87471 0.0
C2672 C 0.89228 0.72783 1.01606 0.0
C2673 C 0.89073 0.72459 0.94426 0.0
C2674 C 0.88501 0.7305 0.05022 0.0
C2675 C 0.86869 0.7326 0.05063 0.0
C2676 C 0.88328 0.72721 0.98156 0.0
C2677 C 0.86007 0.73177 1.0154 0.0
C2678 C 0.88148 0.72383 0.91001 0.0
C2679 C 0.91418 0.72071 0.90963 0.0
N2680 N 0.86745 0.7292 0.98259 0.0
N2681 N 0.90679 0.72297 0.94279 0.0
H2682 H 0.81613 0.59123 0.28059 0.0
H2683 H 0.82848 0.6094 0.0553 0.0
H2684 H 0.87017 0.61394 0.22267 0.0
H2685 H 0.77418 0.58635 0.11241 0.0
H2686 H 0.84383 0.61126 0.11615 0.0
H2687 H 0.8005 0.58906 0.21968 0.0
C2688 C 0.82475 0.59566 0.25516 0.0
C2689 C 0.8446 0.60275 0.2572 0.0
C2690 C 0.82855 0.60579 0.11544 0.0
C2691 C 0.82662 0.60041 0.18671 0.0
C2692 C 0.81972 0.60485 0.08052 0.0
C2693 C 0.79985 0.59771 0.07811 0.0
C2694 C 0.81758 0.5996 0.14878 0.0
C2695 C 0.78944 0.59173 0.11227 0.0
C2696 C 0.81577 0.59447 0.22025 0.0
C2697 C 0.85487 0.60837 0.22289 0.0
N2698 N 0.79837 0.59282 0.14589 0.0
N2699 N 0.84582 0.6071 0.18937 0.0
H2700 H 0.40178 0.22559 0.05746 0.0
H2701 H 0.41497 0.22875 0.28403 0.0
H2702 H 0.42109 0.19183 0.11764 0.0
H2703 H 0.39206 0.25973 0.22522 0.0
H2704 H 0.4181 0.21591 0.22341 0.0
H2705 H 0.39895 0.23883 0.11787 0.0
C2706 C 0.40554 0.22097 0.08322 0.0
C2707 C 0.41175 0.20746 0.08187 0.0
C2708 C 0.41241 0.22554 0.22365 0.0
C2709 C 0.40836 0.2227 0.15204 0.0
C2710 C 0.41066 0.23298 0.25843 0.0
C2711 C 0.40324 0.24547 0.26018 0.0
C2712 C 0.40679 0.23056 0.18983 0.0
C2713 C 0.39786 0.2502 0.22564 0.0
C2714 C 0.4038 0.22851 0.11791 0.0
C2715 C 0.41603 0.20196 0.1168 0.0
N2716 N 0.39974 0.2428 0.19213 0.0
N2717 N 0.41432 0.20959 0.15012 0.0
H2718 H 0.80911 0.23526 0.11956 0.0
H2719 H 0.74396 0.13419 0.22411 0.0
H2720 H 0.78204 0.18093 0.0616 0.0
H2721 H 0.77269 0.18806 0.28357 0.0
H2722 H 0.75718 0.15118 0.16457 0.0
H2723 H 0.79547 0.21852 0.17923 0.0
C2724 C 0.80024 0.21983 0.11913 0.0
C2725 C 0.79683 0.20964 0.0849 0.0
C2726 C 0.76059 0.15933 0.19057 0.0
C2727 C 0.78111 0.19017 0.15411 0.0
C2728 C 0.75298 0.14961 0.2248 0.0
C2729 C 0.75711 0.1596 0.25937 0.0
C2730 C 0.77252 0.17935 0.19038 0.0
C2731 C 0.76899 0.17964 0.25789 0.0
C2732 C 0.79251 0.21024 0.15348 0.0
C2733 C 0.7854 0.18955 0.08694 0.0
N2734 N 0.77624 0.18878 0.22419 0.0
N2735 N 0.77799 0.18057 0.12066 0.0
H2736 H 0.04896 0.44765 0.33861 0.0
H2737 H 0.95284 0.39758 0.4541 0.0
H2738 H 0.99719 0.40414 0.28582 0.0
H2739 H 0.00582 0.41012 0.50791 0.0
H2740 H 0.96845 0.40287 0.39206 0.0
H2741 H 0.03353 0.4373 0.40081 0.0
C2742 C 0.03444 0.43573 0.34009 0.0
C2743 C 0.02447 0.42663 0.30678 0.0
C2744 C 0.97658 0.40422 0.41743 0.0
C2745 C 0.00645 0.41516 0.37809 0.0
C2746 C 0.96768 0.4012 0.4529 0.0
C2747 C 0.97793 0.4032 0.48645 0.0
C2748 C 0.99611 0.40995 0.41528 0.0
C2749 C 0.99724 0.40814 0.48292 0.0
C2750 C 0.02564 0.42985 0.37565 0.0
C2751 C 0.00556 0.41141 0.31064 0.0
N2752 N 0.00576 0.41166 0.44816 0.0
N2753 N 0.99708 0.40639 0.34545 0.0
H2754 H 0.5936 0.59804 0.51141 0.0
H2755 H 0.59777 0.59459 0.28594 0.0
H2756 H 0.60273 0.5559 0.45528 0.0
H2757 H 0.55443 0.60189 0.34177 0.0
H2758 H 0.60786 0.5887 0.34793 0.0
H2759 H 0.58737 0.60787 0.44946 0.0
C2760 C 0.59474 0.59115 0.48606 0.0
C2761 C 0.59882 0.57616 0.4887 0.0
C2762 C 0.59632 0.59186 0.34656 0.0
C2763 C 0.59188 0.58754 0.41756 0.0
C2764 C 0.59065 0.59539 0.31124 0.0
C2765 C 0.57525 0.59885 0.30849 0.0
C2766 C 0.58693 0.5923 0.37968 0.0
C2767 C 0.56638 0.59935 0.34241 0.0
C2768 C 0.59101 0.59666 0.45075 0.0
C2769 C 0.59972 0.56754 0.45471 0.0
N2770 N 0.57241 0.59624 0.37649 0.0
N2771 N 0.59641 0.57342 0.42066 0.0
H2772 H 0.40009 0.95067 0.34145 0.0
H2773 H 0.44336 0.04921 0.45036 0.0
H2774 H 0.40773 0.00113 0.28402 0.0
H2775 H 0.40496 0.99644 0.50701 0.0
H2776 H 0.43374 0.03239 0.38929 0.0
H2777 H 0.40504 0.96726 0.40234 0.0
C2778 C 0.40265 0.96519 0.34159 0.0
C2779 C 0.40333 0.97441 0.30732 0.0
C2780 C 0.42723 0.02454 0.41503 0.0
C2781 C 0.40959 0.99376 0.37732 0.0
C2782 C 0.43269 0.03415 0.44998 0.0
C2783 C 0.42481 0.02434 0.4841 0.0
C2784 C 0.41425 0.00475 0.41394 0.0
C2785 C 0.41121 0.00471 0.48158 0.0
C2786 C 0.40544 0.97464 0.37645 0.0
C2787 C 0.40684 0.99332 0.30957 0.0
N2788 N 0.40663 0.99553 0.44733 0.0
N2789 N 0.41012 0.00243 0.34375 0.0
H2790 H 0.95119 0.55644 0.9536 0.0
H2791 H 0.04698 0.60355 0.83699 0.0
H2792 H 0.00395 0.59808 1.00638 0.0
H2793 H 0.9947 0.59381 0.78416 0.0
H2794 H 0.03166 0.5986 0.89926 0.0
H2795 H 0.96653 0.5667 0.89128 0.0
C2796 C 0.96592 0.56793 0.95211 0.0
C2797 C 0.97619 0.57653 0.98548 0.0
C2798 C 0.02362 0.5978 0.87407 0.0
C2799 C 0.99408 0.58787 0.91394 0.0
C2800 C 0.03236 0.60065 0.83846 0.0
C2801 C 0.02223 0.59934 0.80509 0.0
C2802 C 0.00433 0.59293 0.87658 0.0
C2803 C 0.0032 0.59526 0.80899 0.0
C2804 C 0.97466 0.57376 0.91647 0.0
C2805 C 0.99535 0.59121 0.98156 0.0
N2806 N 0.99479 0.59188 0.84388 0.0
N2807 N 0.00374 0.59616 0.94664 0.0
H2808 H 0.39823 0.44576 0.83931 0.0
H2809 H 0.44578 0.39714 0.95502 0.0
H2810 H 0.40788 0.40337 0.78584 0.0
H2811 H 0.40387 0.40762 1.00806 0.0
H2812 H 0.43543 0.40235 0.89279 0.0
H2813 H 0.40333 0.43525 0.90139 0.0
C2814 C 0.40114 0.43404 0.84061 0.0
C2815 C 0.40237 0.42529 0.80713 0.0
C2816 C 0.42833 0.40325 0.91803 0.0
C2817 C 0.40898 0.41367 0.87838 0.0
C2818 C 0.43421 0.40026 0.95361 0.0
C2819 C 0.42556 0.40171 0.98702 0.0
C2820 C 0.41412 0.40841 0.91563 0.0
C2821 C 0.41079 0.40607 0.9832 0.0
C2822 C 0.40407 0.42807 0.87611 0.0
C2823 C 0.40647 0.41034 0.81078 0.0
N2824 N 0.40579 0.40958 0.94836 0.0
N2825 N 0.40995 0.40525 0.84558 0.0
H2826 H 0.58984 0.99822 1.00854 0.0
H2827 H 0.59329 0.00209 0.78235 0.0
H2828 H 0.59755 0.04795 0.94796 0.0
H2829 H 0.55249 0.95114 0.84135 0.0
H2830 H 0.6027 0.01928 0.84321 0.0
H2831 H 0.58374 0.98104 0.94792 0.0
C2832 C 0.59061 0.00566 0.98251 0.0
C2833 C 0.59429 0.02464 0.98354 0.0
C2834 C 0.59187 0.00427 0.84282 0.0
C2835 C 0.58756 0.00504 0.91381 0.0
C2836 C 0.58661 0.99438 0.80812 0.0
C2837 C 0.57212 0.97505 0.80655 0.0
C2838 C 0.583 0.9947 0.87655 0.0
C2839 C 0.56375 0.96598 0.84106 0.0
C2840 C 0.58698 0.99578 0.94794 0.0
C2841 C 0.59478 0.03337 0.94869 0.0
N2842 N 0.56937 0.9758 0.8745 0.0
N2843 N 0.59161 0.0236 0.91539 0.0
H2844 H 0.61553 0.73219 0.78354 0.0
H2845 H 0.71336 0.77513 0.6734 0.0
H2846 H 0.66621 0.7398 0.84015 0.0
H2847 H 0.66053 0.73602 0.61748 0.0
H2848 H 0.6968 0.76568 0.73464 0.0
H2849 H 0.63176 0.73678 0.72236 0.0
C2850 C 0.63 0.73465 0.78315 0.0
C2851 C 0.63941 0.73543 0.81725 0.0
C2852 C 0.68889 0.75897 0.70902 0.0
C2853 C 0.65833 0.7413 0.74703 0.0
C2854 C 0.69834 0.76433 0.674 0.0
C2855 C 0.68842 0.7562 0.64007 0.0
C2856 C 0.66914 0.74583 0.71035 0.0
C2857 C 0.66886 0.74245 0.64281 0.0
C2858 C 0.63925 0.73724 0.74816 0.0
C2859 C 0.65827 0.73883 0.81473 0.0
N2860 N 0.65982 0.73796 0.67713 0.0
N2861 N 0.66717 0.74193 0.78043 0.0
H2862 H 0.25511 0.92136 0.84179 0.0
H2863 H 0.25566 0.92078 0.61537 0.0
H2864 H 0.26415 0.88076 0.77917 0.0
H2865 H 0.21605 0.9313 0.67787 0.0
H2866 H 0.26603 0.9131 0.67518 0.0
H2867 H 0.24787 0.93213 0.782 0.0
C2868 C 0.25593 0.91494 0.81547 0.0
C2869 C 0.26033 0.90013 0.81567 0.0
C2870 C 0.25521 0.91729 0.67577 0.0
C2871 C 0.25223 0.9126 0.74692 0.0
C2872 C 0.24939 0.92184 0.64167 0.0
C2873 C 0.23497 0.92679 0.64143 0.0
C2874 C 0.24697 0.91816 0.7102 0.0
C2875 C 0.2272 0.92759 0.67656 0.0
C2876 C 0.25164 0.921 0.78138 0.0
C2877 C 0.26085 0.8922 0.78051 0.0
N2878 N 0.23335 0.92346 0.70941 0.0
N2879 N 0.25699 0.89859 0.74768 0.0
H2880 H 0.07852 0.33565 0.84299 0.0
H2881 H 0.07781 0.33566 0.61667 0.0
H2882 H 0.11871 0.38524 0.77966 0.0
H2883 H 0.06844 0.28605 0.67996 0.0
H2884 H 0.08588 0.35404 0.67609 0.0
H2885 H 0.06778 0.31738 0.78354 0.0
C2886 C 0.08487 0.34282 0.81658 0.0
C2887 C 0.09954 0.36211 0.81653 0.0
C2888 C 0.08186 0.33908 0.67695 0.0
C2889 C 0.08708 0.3412 0.74807 0.0
C2890 C 0.07708 0.32851 0.64307 0.0
C2891 C 0.07232 0.30919 0.64314 0.0
C2892 C 0.08142 0.33021 0.71151 0.0
C2893 C 0.07198 0.30086 0.67839 0.0
C2894 C 0.07882 0.33232 0.78267 0.0
C2895 C 0.10738 0.37046 0.78123 0.0
N2896 N 0.07631 0.31133 0.71103 0.0
N2897 N 0.10098 0.36005 0.74855 0.0
H2898 H 0.66286 0.92172 0.11481 0.0
H2899 H 0.66879 0.92759 0.34102 0.0
H2900 H 0.7135 0.93118 0.17435 0.0
H2901 H 0.6176 0.88577 0.28387 0.0
H2902 H 0.68541 0.93671 0.27958 0.0
H2903 H 0.64621 0.91608 0.17592 0.0
C2904 C 0.67062 0.92299 0.1407 0.0
C2905 C 0.6897 0.92702 0.13924 0.0
C2906 C 0.67047 0.92573 0.2805 0.0
C2907 C 0.67069 0.92081 0.20953 0.0
C2908 C 0.66089 0.92063 0.31553 0.0
C2909 C 0.64167 0.90594 0.3178 0.0
C2910 C 0.66067 0.91647 0.24713 0.0
C2911 C 0.63237 0.8972 0.28364 0.0
C2912 C 0.66103 0.91962 0.17556 0.0
C2913 C 0.69884 0.92815 0.17394 0.0
N2914 N 0.64187 0.90266 0.24987 0.0
N2915 N 0.68935 0.92521 0.2075 0.0
H2916 H 0.07043 0.7168 0.31826 0.0
H2917 H 0.09604 0.79657 0.16104 0.0
H2918 H 0.12804 0.76206 0.2959 0.0
H2919 H 0.05124 0.73874 0.13825 0.0
H2920 H 0.10435 0.78547 0.21827 0.0
H2921 H 0.05985 0.7255 0.25951 0.0
C2922 C 0.08086 0.72847 0.30107 0.0
C2923 C 0.10022 0.73862 0.31223 0.0
C2924 C 0.09264 0.77518 0.2009 0.0
C2925 C 0.08808 0.74893 0.24554 0.0
C2926 C 0.08775 0.78152 0.16816 0.0
C2927 C 0.07284 0.76861 0.1444 0.0
C2928 C 0.0824 0.75576 0.21098 0.0
C2929 C 0.06285 0.74923 0.15551 0.0
C2930 C 0.07481 0.73338 0.26751 0.0
C2931 C 0.11302 0.75366 0.28864 0.0
N2932 N 0.06771 0.74341 0.18808 0.0
N2933 N 0.10672 0.75845 0.25696 0.0
H2934 H 0.2578 0.33609 0.11759 0.0
H2935 H 0.25601 0.33515 0.34395 0.0
H2936 H 0.21703 0.28641 0.17992 0.0
H2937 H 0.2666 0.38524 0.2809 0.0
H2938 H 0.24862 0.3171 0.28427 0.0
H2939 H 0.2681 0.35422 0.17731 0.0
C2940 C 0.25126 0.32887 0.14385 0.0
C2941 C 0.23655 0.30961 0.14357 0.0
C2942 C 0.25276 0.33209 0.28352 0.0
C2943 C 0.24845 0.33033 0.21225 0.0
C2944 C 0.25713 0.34247 0.31756 0.0
C2945 C 0.26203 0.36183 0.31764 0.0
C2946 C 0.25375 0.34118 0.24895 0.0
C2947 C 0.26292 0.37039 0.28237 0.0
C2948 C 0.25704 0.33929 0.17789 0.0
C2949 C 0.22842 0.30118 0.17863 0.0
N2950 N 0.25897 0.36009 0.24957 0.0
N2951 N 0.23454 0.3115 0.21143 0.0
H2952 H 0.30397 0.10025 0.13473 0.0
H2953 H 0.35339 0.073 0.97102 0.0
H2954 H 0.31611 0.05468 0.1551 0.0
H2955 H 0.36826 0.13109 0.99651 0.0
H2956 H 0.33532 0.06267 0.03118 0.0
H2957 H 0.32238 0.10812 0.07642 0.0
C2958 C 0.31034 0.09171 0.12689 0.0
C2959 C 0.30835 0.0767 0.1503 0.0
C2960 C 0.34268 0.07767 1.02353 0.0
C2961 C 0.32961 0.08574 0.08229 0.0
C2962 C 0.35296 0.08359 0.98914 0.0
C2963 C 0.3625 0.10301 0.97839 0.0
C2964 C 0.34146 0.09117 0.04682 0.0
C2965 C 0.36132 0.116 1.00329 0.0
C2966 C 0.321 0.09634 0.09348 0.0
C2967 C 0.31724 0.06638 0.13818 0.0
N2968 N 0.35089 0.10985 0.03575 0.0
N2969 N 0.32735 0.07098 0.10491 0.0
H2970 H 0.92232 0.25617 0.94999 0.0
H2971 H 0.92233 0.25591 0.1762 0.0
H2972 H 0.88215 0.26559 1.0132 0.0
H2973 H 0.93129 0.21555 0.1125 0.0
H2974 H 0.91467 0.26667 0.11686 0.0
H2975 H 0.93282 0.24835 1.00941 0.0
C2976 C 0.91594 0.25696 0.97638 0.0
C2977 C 0.90134 0.26165 0.97642 0.0
C2978 C 0.91852 0.2556 0.1159 0.0
C2979 C 0.91352 0.25286 0.0448 0.0
C2980 C 0.92306 0.24955 0.14972 0.0
C2981 C 0.92758 0.23483 0.1495 0.0
C2982 C 0.91897 0.24727 0.08127 0.0
C2983 C 0.92794 0.22695 0.11417 0.0
C2984 C 0.92185 0.25233 1.01026 0.0
C2985 C 0.89345 0.2621 1.01166 0.0
N2986 N 0.92384 0.23334 0.0816 0.0
N2987 N 0.8997 0.25791 0.04432 0.0
H2988 H 0.73961 0.66537 0.94988 0.0
H2989 H 0.74013 0.66239 0.17592 0.0
H2990 H 0.73018 0.61488 1.00989 0.0
H2991 H 0.78166 0.71215 0.1148 0.0
H2992 H 0.72893 0.64504 0.11556 0.0
H2993 H 0.74752 0.68286 1.01038 0.0
C2994 C 0.73876 0.65782 0.97581 0.0
C2995 C 0.73409 0.63854 0.97465 0.0
C2996 C 0.74035 0.65982 0.1154 0.0
C2997 C 0.74303 0.65853 0.04416 0.0
C2998 C 0.74668 0.6698 0.14981 0.0
C2999 C 0.76187 0.68884 0.15061 0.0
C3000 C 0.74887 0.66902 0.08119 0.0
C3001 C 0.76994 0.69753 0.11569 0.0
C3002 C 0.74347 0.66789 1.01028 0.0
C3003 C 0.73362 0.62968 1.0093 0.0
N3004 N 0.76328 0.68764 0.0825 0.0
N3005 N 0.73789 0.63966 0.04252 0.0
H3006 H 0.35608 0.28406 0.47339 0.0
H3007 H 0.30407 0.20612 0.6348 0.0
H3008 H 0.36918 0.23948 0.49771 0.0
H3009 H 0.31593 0.2638 0.65427 0.0
H3010 H 0.32322 0.21679 0.57734 0.0
H3011 H 0.33742 0.276 0.53277 0.0
C3012 C 0.35515 0.27268 0.49112 0.0
C3013 C 0.36437 0.26251 0.48024 0.0
C3014 C 0.32163 0.22716 0.59403 0.0
C3015 C 0.34261 0.25294 0.54782 0.0
C3016 C 0.31054 0.22106 0.62694 0.0
C3017 C 0.30823 0.23403 0.64984 0.0
C3018 C 0.33038 0.2464 0.58284 0.0
C3019 C 0.31727 0.25325 0.63774 0.0
C3020 C 0.34451 0.26813 0.52506 0.0
C3021 C 0.36252 0.24787 0.50462 0.0
N3022 N 0.3278 0.25883 0.60498 0.0
N3023 N 0.35176 0.24343 0.53668 0.0
H3024 H 0.74144 0.07675 0.67531 0.0
H3025 H 0.74146 0.07727 0.44908 0.0
H3026 H 0.78141 0.06716 0.61183 0.0
H3027 H 0.73337 0.11822 0.51267 0.0
H3028 H 0.74879 0.06627 0.50844 0.0
H3029 H 0.73103 0.08479 0.61595 0.0
C3030 C 0.74777 0.07595 0.64887 0.0
C3031 C 0.7623 0.07116 0.64872 0.0
C3032 C 0.74521 0.07752 0.50938 0.0
C3033 C 0.75025 0.0802 0.58046 0.0
C3034 C 0.74086 0.08372 0.47554 0.0
C3035 C 0.73669 0.09869 0.47571 0.0
C3036 C 0.74492 0.08594 0.54401 0.0
C3037 C 0.73647 0.10665 0.51103 0.0
C3038 C 0.74192 0.08072 0.61504 0.0
C3039 C 0.77017 0.07072 0.61344 0.0
N3040 N 0.74037 0.10011 0.54364 0.0
N3041 N 0.76397 0.07504 0.58085 0.0
H3042 H 0.92315 0.66048 0.67857 0.0
H3043 H 0.92598 0.66598 0.4522 0.0
H3044 H 0.93635 0.71238 0.61952 0.0
H3045 H 0.88341 0.61597 0.51117 0.0
H3046 H 0.93694 0.68267 0.51328 0.0
H3047 H 0.9157 0.64356 0.61745 0.0
C3048 C 0.92493 0.66844 0.65276 0.0
C3049 C 0.93051 0.68797 0.65435 0.0
C3050 C 0.92534 0.66797 0.51281 0.0
C3051 C 0.92208 0.66863 0.5841 0.0
C3052 C 0.91914 0.65837 0.47797 0.0
C3053 C 0.90373 0.63946 0.47635 0.0
C3054 C 0.91645 0.65852 0.54661 0.0
C3055 C 0.89532 0.6305 0.51089 0.0
C3056 C 0.92048 0.65871 0.6179 0.0
C3057 C 0.93217 0.69738 0.61979 0.0
N3058 N 0.90183 0.64002 0.54447 0.0
N3059 N 0.92809 0.68769 0.58623 0.0
H3060 H 0.01569 0.47681 0.2258 0.0
H3061 H 0.98568 0.52733 0.06613 0.0
H3062 H 0.99616 0.45353 0.11407 0.0
H3063 H 0.00413 0.55007 0.17857 0.0
H3064 H 0.99055 0.50056 0.08236 0.0
H3065 H 0.01138 0.50389 0.20927 0.0
C3066 C 0.01035 0.47736 0.19797 0.0
C3067 C 0.00651 0.46317 0.17111 0.0
C3068 C 0.99362 0.51148 0.1034 0.0
C3069 C 0.00165 0.49386 0.15187 0.0
C3070 C 0.9909 0.52673 0.09406 0.0
C3071 C 0.99422 0.54064 0.12124 0.0
C3072 C 0.99973 0.51032 0.14011 0.0
C3073 C 0.0013 0.53953 0.15684 0.0
C3074 C 0.00796 0.49279 0.18844 0.0
C3075 C 0.99935 0.46426 0.13558 0.0
N3076 N 0.00366 0.5245 0.16539 0.0
N3077 N 0.99729 0.47946 0.12686 0.0
H3078 H 0.52399 0.54089 0.22645 0.0
H3079 H 0.4742 0.46009 0.06704 0.0
H3080 H 0.54733 0.54493 0.11482 0.0
H3081 H 0.45097 0.45588 0.17883 0.0
H3082 H 0.50073 0.49188 0.08321 0.0
H3083 H 0.49702 0.50943 0.20976 0.0
C3084 C 0.52347 0.53505 0.1986 0.0
C3085 C 0.53768 0.54549 0.17185 0.0
C3086 C 0.48975 0.48403 0.10412 0.0
C3087 C 0.50708 0.50986 0.15242 0.0
C3088 C 0.47463 0.46597 0.0948 0.0
C3089 C 0.46065 0.45535 0.12182 0.0
C3090 C 0.49073 0.49138 0.14065 0.0
C3091 C 0.46156 0.46361 0.15722 0.0
C3092 C 0.5081 0.51719 0.18899 0.0
C3093 C 0.53659 0.53731 0.13627 0.0
N3094 N 0.47648 0.4811 0.16575 0.0
N3095 N 0.52145 0.52002 0.12748 0.0
H3096 H 0.53878 0.98542 0.12106 0.0
H3097 H 0.46037 0.01473 0.17126 0.0
H3098 H 0.5378 0.03396 0.07268 0.0
H3099 H 0.46033 0.96532 0.21771 0.0
H3100 H 0.49012 0.02328 0.13812 0.0
H3101 H 0.5091 0.97682 0.15461 0.0
C3102 C 0.53188 0.99381 0.11629 0.0
C3103 C 0.5407 0.01047 0.09434 0.0
C3104 C 0.48378 0.01072 0.15607 0.0
C3105 C 0.50747 0.00136 0.13384 0.0
C3106 C 0.46705 0.00611 0.17569 0.0
C3107 C 0.45792 0.98922 0.19693 0.0
C3108 C 0.49125 0.99831 0.15788 0.0
C3109 C 0.46697 0.9784 0.20134 0.0
C3110 C 0.5152 0.98918 0.13612 0.0
C3111 C 0.53139 0.02104 0.08954 0.0
N3112 N 0.48301 0.98293 0.1814 0.0
N3113 N 0.51542 0.01651 0.1097 0.0
H3114 H 0.5468 0.00146 0.61479 0.0
H3115 H 0.44999 0.99728 0.67663 0.0
H3116 H 0.51787 0.97695 0.72016 0.0
H3117 H 0.47805 0.02057 0.56998 0.0
H3118 H 0.47445 0.98932 0.69245 0.0
H3119 H 0.52212 0.00909 0.59848 0.0
C3120 C 0.53531 0.99786 0.63473 0.0
C3121 C 0.53425 0.98848 0.66885 0.0
C3122 C 0.47527 0.9961 0.66551 0.0
C3123 C 0.50587 0.99701 0.65008 0.0
C3124 C 0.46126 0.00057 0.65631 0.0
C3125 C 0.46217 0.00977 0.62204 0.0
C3126 C 0.49033 0.00084 0.64025 0.0
C3127 C 0.477 0.01365 0.59681 0.0
C3128 C 0.52117 0.00212 0.62523 0.0
C3129 C 0.5191 0.98412 0.69355 0.0
N3130 N 0.49064 0.00925 0.60655 0.0
N3131 N 0.50539 0.98837 0.68357 0.0
H3132 H 0.00397 0.45695 0.67902 0.0
H3133 H 0.994 0.54568 0.61137 0.0
H3134 H 0.98464 0.46127 0.56742 0.0
H3135 H 0.01254 0.54061 0.72326 0.0
H3136 H 0.98941 0.51435 0.59537 0.0
H3137 H 0.0077 0.48785 0.69513 0.0
C3138 C 0.00073 0.46455 0.65767 0.0
C3139 C 0.99371 0.45649 0.62195 0.0
C3140 C 0.99436 0.52 0.62351 0.0
C3141 C 0.99774 0.49178 0.64044 0.0
C3142 C 0.99683 0.53781 0.63281 0.0
C3143 C 0.00393 0.54578 0.66856 0.0
C3144 C 0.99896 0.5101 0.65021 0.0
C3145 C 0.00734 0.53502 0.69522 0.0
C3146 C 0.00271 0.48214 0.66705 0.0
C3147 C 0.98978 0.46693 0.59544 0.0
N3148 N 0.00497 0.51772 0.68538 0.0
N3149 N 0.99173 0.48407 0.60532 0.0
H3150 H 0.54632 0.55154 0.68027 0.0
H3151 H 0.457 0.45293 0.61375 0.0
H3152 H 0.54138 0.52707 0.5694 0.0
H3153 H 0.46139 0.47748 0.72434 0.0
H3154 H 0.48802 0.4799 0.59733 0.0
H3155 H 0.51469 0.52527 0.69606 0.0
C3156 C 0.53841 0.54076 0.659 0.0
C3157 C 0.54649 0.54123 0.62364 0.0
C3158 C 0.48229 0.4794 0.62526 0.0
C3159 C 0.51047 0.51106 0.64173 0.0
C3160 C 0.46465 0.46392 0.63481 0.0
C3161 C 0.45662 0.46317 0.67036 0.0
C3162 C 0.492 0.49418 0.65154 0.0
C3163 C 0.46707 0.47774 0.6965 0.0
C3164 C 0.52043 0.52569 0.66818 0.0
C3165 C 0.53569 0.52699 0.59715 0.0
N3166 N 0.48427 0.49279 0.68647 0.0
N3167 N 0.51822 0.51231 0.60687 0.0
H3168 H 0.67007 0.88172 0.50897 0.0
H3169 H 0.66164 0.78286 0.44815 0.0
H3170 H 0.64493 0.85287 0.4037 0.0
H3171 H 0.68688 0.81136 0.55364 0.0
H3172 H 0.65506 0.80821 0.43206 0.0
H3173 H 0.67706 0.85657 0.52521 0.0
C3174 C 0.66621 0.87016 0.48903 0.0
C3175 C 0.65677 0.8692 0.45504 0.0
C3176 C 0.66198 0.80896 0.45879 0.0
C3177 C 0.66453 0.84032 0.4737 0.0
C3178 C 0.66565 0.79443 0.46816 0.0
C3179 C 0.67499 0.79519 0.50216 0.0
C3180 C 0.66766 0.82437 0.48365 0.0
C3181 C 0.67982 0.81041 0.52701 0.0
C3182 C 0.67011 0.85576 0.49847 0.0
C3183 C 0.65211 0.85399 0.43028 0.0
N3184 N 0.67617 0.82455 0.51714 0.0
N3185 N 0.65595 0.84002 0.44023 0.0
H3186 H 0.21596 0.86904 0.52369 0.0
H3187 H 0.11547 0.7927 0.43326 0.0
H3188 H 0.1646 0.87271 0.53302 0.0
H3189 H 0.16724 0.78992 0.42198 0.0
H3190 H 0.13344 0.82272 0.46805 0.0
H3191 H 0.19777 0.83881 0.48974 0.0
C3192 C 0.20073 0.86318 0.51962 0.0
C3193 C 0.19178 0.87345 0.53065 0.0
C3194 C 0.14092 0.81567 0.45752 0.0
C3195 C 0.1711 0.83938 0.49077 0.0
C3196 C 0.13074 0.79872 0.43706 0.0
C3197 C 0.1399 0.7888 0.42513 0.0
C3198 C 0.16032 0.8226 0.46598 0.0
C3199 C 0.15967 0.79715 0.431 0.0
C3200 C 0.19042 0.84611 0.49963 0.0
C3201 C 0.17204 0.86526 0.5246 0.0
N3202 N 0.16919 0.81344 0.45154 0.0
N3203 N 0.16239 0.84882 0.5045 0.0
H3204 H 0.2034 0.32384 0.43235 0.0
H3205 H 0.12747 0.34879 0.52045 0.0
H3206 H 0.20844 0.37951 0.42336 0.0
H3207 H 0.12664 0.29551 0.53861 0.0
H3208 H 0.15735 0.36074 0.48531 0.0
H3209 H 0.17333 0.31236 0.46631 0.0
C3210 C 0.19787 0.33348 0.43647 0.0
C3211 C 0.20851 0.35272 0.42568 0.0
C3212 C 0.15077 0.34653 0.49748 0.0
C3213 C 0.17463 0.33995 0.46558 0.0
C3214 C 0.13392 0.33986 0.51815 0.0
C3215 C 0.12454 0.32107 0.53197 0.0
C3216 C 0.1581 0.33427 0.49074 0.0
C3217 C 0.13342 0.31005 0.52806 0.0
C3218 C 0.1809 0.32703 0.45651 0.0
C3219 C 0.2007 0.3646 0.43168 0.0
N3220 N 0.14956 0.31669 0.5072 0.0
N3221 N 0.18435 0.35811 0.45186 0.0
H3222 H 0.22092 0.34949 1.02006 0.0
H3223 H 0.1195 0.32415 0.93336 0.0
H3224 H 0.16862 0.29619 0.03917 0.0
H3225 H 0.17029 0.37955 0.9222 0.0
H3226 H 0.13819 0.31281 0.96761 0.0
H3227 H 0.20276 0.36125 0.98505 0.0
C3228 C 0.20553 0.34051 1.01799 0.0
C3229 C 0.19623 0.32177 0.03203 0.0
C3230 C 0.14531 0.32739 0.95725 0.0
C3231 C 0.17559 0.33476 0.99094 0.0
C3232 C 0.13472 0.33374 0.93705 0.0
C3233 C 0.14336 0.35288 0.92553 0.0
C3234 C 0.16459 0.3403 0.96576 0.0
C3235 C 0.16311 0.36472 0.93105 0.0
C3236 C 0.19522 0.34708 0.9974 0.0
C3237 C 0.1763 0.31069 1.02843 0.0
N3238 N 0.17304 0.35833 0.95138 0.0
N3239 N 0.16665 0.31723 1.00763 0.0
H3240 H 0.69673 0.86896 0.05732 0.0
H3241 H 0.63124 0.79336 0.90061 0.0
H3242 H 0.65031 0.87068 1.00058 0.0
H3243 H 0.67944 0.79364 0.95385 0.0
H3244 H 0.63862 0.82247 0.93503 0.0
H3245 H 0.68892 0.83972 1.02303 0.0
C3246 C 0.68437 0.86267 0.03877 0.0
C3247 C 0.67422 0.8722 0.03145 0.0
C3248 C 0.64783 0.8164 0.93866 0.0
C3249 C 0.66576 0.83944 0.99093 0.0
C3250 C 0.64384 0.80005 0.91843 0.0
C3251 C 0.65467 0.79113 0.92473 0.0
C3252 C 0.66271 0.82374 0.96535 0.0
C3253 C 0.6708 0.80017 0.94816 0.0
C3254 C 0.68019 0.84626 1.01856 0.0
C3255 C 0.65843 0.86368 1.00705 0.0
N3256 N 0.67413 0.81584 0.9683 0.0
N3257 N 0.65489 0.84791 0.98699 0.0
H3258 H 0.12483 0.8346 0.04104 0.0
H3259 H 0.20596 0.83062 0.91961 0.0
H3260 H 0.12536 0.7824 1.01792 0.0
H3261 H 0.20375 0.88224 0.93906 0.0
H3262 H 0.17584 0.81242 0.95362 0.0
H3263 H 0.15492 0.85256 1.00685 0.0
C3264 C 0.13165 0.82702 1.02974 0.0
C3265 C 0.12262 0.80704 0.03198 0.0
C3266 C 0.18177 0.82768 0.94998 0.0
C3267 C 0.15656 0.8273 0.99176 0.0
C3268 C 0.19878 0.83801 0.93004 0.0
C3269 C 0.20738 0.85794 0.92692 0.0
C3270 C 0.17338 0.83741 0.96688 0.0
C3271 C 0.1976 0.86688 0.94094 0.0
C3272 C 0.14862 0.83722 1.00968 0.0
C3273 C 0.1319 0.79782 1.01683 0.0
N3274 N 0.18122 0.85656 0.96091 0.0
N3275 N 0.14829 0.80803 0.99678 0.0
H3276 H 0.34686 0.22117 0.77627 0.0
H3277 H 0.32315 0.11924 0.85805 0.0
H3278 H 0.29362 0.16878 0.75718 0.0
H3279 H 0.3782 0.17043 0.86996 0.0
H3280 H 0.3113 0.1379 0.82524 0.0
H3281 H 0.35904 0.20294 0.80987 0.0
C3282 C 0.33798 0.20576 0.77811 0.0
C3283 C 0.31918 0.19642 0.76431 0.0
C3284 C 0.32591 0.14511 0.83545 0.0
C3285 C 0.33263 0.17568 0.80376 0.0
C3286 C 0.33256 0.13452 0.85479 0.0
C3287 C 0.35172 0.14333 0.8663 0.0
C3288 C 0.33855 0.16455 0.82773 0.0
C3289 C 0.36335 0.16313 0.86122 0.0
C3290 C 0.34478 0.1954 0.79786 0.0
C3291 C 0.30818 0.17647 0.7677 0.0
N3292 N 0.35666 0.17306 0.84178 0.0
N3293 N 0.31496 0.16678 0.7876 0.0
H3294 H 0.82938 0.20757 0.87254 0.0
H3295 H 0.8332 0.12626 0.75135 0.0
H3296 H 0.87999 0.2028 0.85994 0.0
H3297 H 0.78147 0.1284 0.76952 0.0
H3298 H 0.85102 0.15575 0.78755 0.0
H3299 H 0.81118 0.17799 0.83666 0.0
C3300 C 0.83649 0.19991 0.86328 0.0
C3301 C 0.85622 0.2077 0.8687 0.0
C3302 C 0.83582 0.14994 0.78319 0.0
C3303 C 0.83577 0.17438 0.82663 0.0
C3304 C 0.82574 0.13334 0.76193 0.0
C3305 C 0.80586 0.12485 0.75788 0.0
C3306 C 0.82592 0.15808 0.80038 0.0
C3307 C 0.7968 0.13448 0.77211 0.0
C3308 C 0.8262 0.18323 0.84225 0.0
C3309 C 0.86481 0.19731 0.85619 0.0
N3310 N 0.80688 0.15048 0.79335 0.0
N3311 N 0.85457 0.18131 0.83508 0.0
H3312 H 0.87375 0.68468 0.73697 0.0
H3313 H 0.78967 0.64108 0.89088 0.0
H3314 H 0.87763 0.66189 0.84505 0.0
H3315 H 0.78555 0.664 0.78313 0.0
H3316 H 0.82231 0.64896 0.87482 0.0
H3317 H 0.84096 0.67664 0.75257 0.0
C3318 C 0.86763 0.67789 0.76377 0.0
C3319 C 0.87836 0.67413 0.78992 0.0
C3320 C 0.81426 0.65232 0.85477 0.0
C3321 C 0.84124 0.665 0.80806 0.0
C3322 C 0.79572 0.6479 0.86405 0.0
C3323 C 0.78499 0.6518 0.8382 0.0
C3324 C 0.82196 0.66069 0.81945 0.0
C3325 C 0.7934 0.66073 0.80384 0.0
C3326 C 0.84901 0.67335 0.77277 0.0
C3327 C 0.86983 0.66512 0.82415 0.0
N3328 N 0.81138 0.6648 0.79535 0.0
N3329 N 0.8518 0.66096 0.83234 0.0
H3330 H 0.83591 0.62833 0.38592 0.0
H3331 H 0.8303 0.7004 0.23919 0.0
H3332 H 0.88539 0.67889 0.34324 0.0
H3333 H 0.78077 0.64992 0.28196 0.0
H3334 H 0.85088 0.69172 0.27431 0.0
H3335 H 0.8153 0.63689 0.35059 0.0
C3336 C 0.84237 0.64163 0.37021 0.0
C3337 C 0.8623 0.65284 0.36714 0.0
C3338 C 0.83553 0.68233 0.2755 0.0
C3339 C 0.839 0.66231 0.32551 0.0
C3340 C 0.82382 0.68707 0.25483 0.0
C3341 C 0.8039 0.67591 0.25799 0.0
C3342 C 0.82716 0.66634 0.29945 0.0
C3343 C 0.7961 0.65887 0.27874 0.0
C3344 C 0.83065 0.64631 0.34945 0.0
C3345 C 0.87006 0.66988 0.34637 0.0
N3346 N 0.80779 0.65476 0.29936 0.0
N3347 N 0.85836 0.67393 0.32568 0.0
H3348 H 0.32449 0.20838 0.35768 0.0
H3349 H 0.34761 0.1307 0.27117 0.0
H3350 H 0.37862 0.21043 0.37117 0.0
H3351 H 0.29337 0.12844 0.25792 0.0
H3352 H 0.35989 0.16101 0.30492 0.0
H3353 H 0.31226 0.17822 0.3233 0.0
C3354 C 0.33359 0.20215 0.35448 0.0
C3355 C 0.35262 0.2119 0.3669 0.0
C3356 C 0.34537 0.15401 0.29418 0.0
C3357 C 0.33907 0.17798 0.32651 0.0
C3358 C 0.33849 0.1369 0.27431 0.0
C3359 C 0.3194 0.12703 0.26223 0.0
C3360 C 0.33303 0.16115 0.30189 0.0
C3361 C 0.30815 0.13561 0.26716 0.0
C3362 C 0.32674 0.18514 0.33423 0.0
C3363 C 0.36387 0.20333 0.36177 0.0
N3364 N 0.31504 0.15207 0.28718 0.0
N3365 N 0.35702 0.18697 0.34144 0.0
H3366 H 0.87233 0.16463 0.24969 0.0
H3367 H 0.7925 0.16871 0.3753 0.0
H3368 H 0.87053 0.21634 0.2707 0.0
H3369 H 0.79375 0.11679 0.35323 0.0
H3370 H 0.82217 0.18672 0.33985 0.0
H3371 H 0.84262 0.14652 0.285 0.0
C3372 C 0.86529 0.17204 0.26068 0.0
C3373 C 0.87393 0.19198 0.25773 0.0
C3374 C 0.81614 0.17144 0.34323 0.0
C3375 C 0.84046 0.17158 0.29921 0.0
C3376 C 0.79942 0.16123 0.36405 0.0
C3377 C 0.79064 0.14127 0.3668 0.0
C3378 C 0.82406 0.16156 0.3251 0.0
C3379 C 0.80006 0.13218 0.35168 0.0
C3380 C 0.84854 0.16177 0.2814 0.0
C3381 C 0.86434 0.20098 0.27245 0.0
N3382 N 0.81616 0.14238 0.33085 0.0
N3383 N 0.84823 0.19072 0.29319 0.0
loop_
_geom_bond_atom_site_label_1
_geom_bond_atom_site_label_2
_geom_bond_distance
_geom_bond_site_symmetry_2
_ccdc_geom_bond_type
Pr0 C2 2.880 . S
Pr0 O20 2.562 . S
Pr0 O21 2.490 . S
Pr0 O22 2.695 . S
Pr0 O23 2.512 . S
Pr0 O25 2.437 . S
Pr0 O28 2.436 . S
Pr0 O30 2.438 . S
Pr1 C11 2.880 . S
Pr1 O22 2.436 . S
Pr1 O24 2.438 . S
Pr1 O26 2.562 . S
Pr1 O27 2.490 . S
Pr1 O28 2.695 . S
Pr1 O29 2.512 . S
Pr1 O31 2.437 . S
C2 Pr0 2.880 . S
C2 C3 1.491 . S
C2 O20 1.254 . S
C2 O21 1.225 . S
C3 C2 1.491 . S
C3 C4 1.392 . S
C3 C8 1.356 . S
C4 C3 1.392 . S
C4 C5 1.368 . S
C4 H32 0.929 . S
C5 C4 1.368 . S
C5 C6 1.386 . S
C5 H33 0.929 . S
C6 C5 1.386 . S
C6 C7 1.373 . S
C7 C6 1.373 . S
C7 C8 1.409 . S
C7 H34 0.931 . S
C8 C3 1.356 . S
C8 C7 1.409 . S
C8 H35 0.930 . S
C9 O22 1.270 . S
C9 O23 1.248 . S
C10 O24 1.267 . S
C10 O25 1.278 . S
C11 Pr1 2.880 . S
C11 C12 1.491 . S
C11 O26 1.254 . S
C11 O27 1.225 . S
C12 C11 1.491 . S
C12 C13 1.392 1_554 S
C12 C17 1.356 1_554 S
C13 C12 1.392 1_556 S
C13 C14 1.368 . S
C13 H36 0.929 1_556 S
C14 C13 1.368 . S
C14 C15 1.386 . S
C14 H37 0.929 1_455 S
C15 C14 1.386 . S
C15 C16 1.373 . S
C16 C15 1.373 . S
C16 C17 1.409 . S
C16 H38 0.931 . S
C17 C12 1.356 1_556 S
C17 C16 1.409 . S
C17 H39 0.930 . S
C18 O28 1.270 . S
C18 O29 1.248 . S
C19 O30 1.267 . S
C19 O31 1.278 . S
O20 Pr0 2.562 . S
O20 C2 1.254 . S
O21 Pr0 2.490 . S
O21 C2 1.225 . S
O22 Pr0 2.695 . S
O22 Pr1 2.436 . S
O22 C9 1.270 . S
O23 Pr0 2.512 . S
O23 C9 1.248 . S
O24 Pr1 2.438 . S
O24 C10 1.267 . S
O25 Pr0 2.437 . S
O25 C10 1.278 . S
O26 Pr1 2.562 . S
O26 C11 1.254 . S
O27 Pr1 2.490 . S
O27 C11 1.225 . S
O28 Pr0 2.436 . S
O28 Pr1 2.695 . S
O28 C18 1.270 . S
O29 Pr1 2.512 . S
O29 C18 1.248 . S
O30 Pr0 2.438 . S
O30 C19 1.267 . S
O31 Pr1 2.437 . S
O31 C19 1.278 . S
H32 C4 0.929 . S
H33 C5 0.929 . S
H34 C7 0.931 . S
H35 C8 0.930 . S
H36 C13 0.929 1_554 S
H37 C14 0.929 1_655 S
H38 C16 0.931 . S
H39 C17 0.930 . S
Pr40 C42 2.880 . S
Pr40 O60 2.562 . S
Pr40 O61 2.490 . S
Pr40 O62 2.695 . S
Pr40 O63 2.512 . S
Pr40 O65 2.437 . S
Pr40 O68 2.436 . S
Pr40 O70 2.438 . S
Pr41 C51 2.880 . S
Pr41 O62 2.436 . S
Pr41 O64 2.438 . S
Pr41 O66 2.562 . S
Pr41 O67 2.490 . S
Pr41 O68 2.695 . S
Pr41 O69 2.512 . S
Pr41 O71 2.437 . S
C42 Pr40 2.880 . S
C42 C43 1.491 . S
C42 O60 1.254 . S
C42 O61 1.225 . S
C43 C42 1.491 . S
C43 C44 1.392 . S
C43 C48 1.356 . S
C44 C43 1.392 . S
C44 C45 1.368 . S
C44 H72 0.929 . S
C45 C44 1.368 . S
C45 C46 1.386 . S
C45 H73 0.929 . S
C46 C45 1.386 . S
C46 C47 1.373 . S
C47 C46 1.373 . S
C47 C48 1.409 . S
C47 H74 0.931 . S
C48 C43 1.356 . S
C48 C47 1.409 . S
C48 H75 0.930 . S
C49 O62 1.270 . S
C49 O63 1.248 . S
C50 O64 1.267 . S
C50 O65 1.278 . S
C51 Pr41 2.880 . S
C51 C52 1.491 . S
C51 O66 1.254 . S
C51 O67 1.225 . S
C52 C51 1.491 . S
C52 C53 1.392 1_554 S
C52 C57 1.356 1_554 S
C53 C52 1.392 1_556 S
C53 C54 1.368 . S
C53 H76 0.929 1_556 S
C54 C53 1.368 . S
C54 C55 1.386 . S
C54 H77 0.929 . S
C55 C54 1.386 . S
C55 C56 1.373 . S
C56 C55 1.373 . S
C56 C57 1.409 . S
C56 H78 0.931 . S
C57 C52 1.356 1_556 S
C57 C56 1.409 . S
C57 H79 0.930 . S
C58 O68 1.270 . S
C58 O69 1.248 . S
C59 O70 1.267 . S
C59 O71 1.278 . S
O60 Pr40 2.562 . S
O60 C42 1.254 . S
O61 Pr40 2.490 . S
O61 C42 1.225 . S
O62 Pr40 2.695 . S
O62 Pr41 2.436 . S
O62 C49 1.270 . S
O63 Pr40 2.512 . S
O63 C49 1.248 . S
O64 Pr41 2.438 . S
O64 C50 1.267 . S
O65 Pr40 2.437 . S
O65 C50 1.278 . S
O66 Pr41 2.562 . S
O66 C51 1.254 . S
O67 Pr41 2.490 . S
O67 C51 1.225 . S
O68 Pr40 2.436 . S
O68 Pr41 2.695 . S
O68 C58 1.270 . S
O69 Pr41 2.512 . S
O69 C58 1.248 . S
O70 Pr40 2.438 . S
O70 C59 1.267 . S
O71 Pr41 2.437 . S
O71 C59 1.278 . S
H72 C44 0.929 . S
H73 C45 0.929 . S
H74 C47 0.931 . S
H75 C48 0.930 . S
H76 C53 0.929 1_554 S
H77 C54 0.929 . S
H78 C56 0.931 . S
H79 C57 0.930 . S
Pr80 C82 2.880 . S
Pr80 O100 2.562 . S
Pr80 O101 2.490 . S
Pr80 O102 2.695 . S
Pr80 O103 2.512 . S
Pr80 O105 2.437 . S
Pr80 O108 2.436 . S
Pr80 O110 2.438 . S
Pr81 C91 2.880 . S
Pr81 O102 2.436 . S
Pr81 O104 2.438 . S
Pr81 O106 2.562 . S
Pr81 O107 2.490 . S
Pr81 O108 2.695 . S
Pr81 O109 2.512 . S
Pr81 O111 2.437 . S
C82 Pr80 2.880 . S
C82 C83 1.491 . S
C82 O100 1.254 . S
C82 O101 1.225 . S
C83 C82 1.491 . S
C83 C84 1.392 . S
C83 C88 1.356 . S
C84 C83 1.392 . S
C84 C85 1.368 . S
C84 H112 0.929 . S
C85 C84 1.368 . S
C85 C86 1.386 . S
C85 H113 0.929 . S
C86 C85 1.386 . S
C86 C87 1.373 . S
C87 C86 1.373 . S
C87 C88 1.409 . S
C87 H114 0.931 . S
C88 C83 1.356 . S
C88 C87 1.409 . S
C88 H115 0.930 . S
C89 O102 1.270 . S
C89 O103 1.248 . S
C90 O104 1.267 . S
C90 O105 1.278 . S
C91 Pr81 2.880 . S
C91 C92 1.491 . S
C91 O106 1.254 . S
C91 O107 1.225 . S
C92 C91 1.491 . S
C92 C93 1.392 1_554 S
C92 C97 1.356 1_554 S
C93 C92 1.392 1_556 S
C93 C94 1.368 . S
C93 H116 0.929 1_556 S
C94 C93 1.368 . S
C94 C95 1.386 . S
C94 H117 0.929 1_565 S
C95 C94 1.386 . S
C95 C96 1.373 . S
C96 C95 1.373 . S
C96 C97 1.409 . S
C96 H118 0.931 . S
C97 C92 1.356 1_556 S
C97 C96 1.409 . S
C97 H119 0.930 . S
C98 O108 1.270 . S
C98 O109 1.248 . S
C99 O110 1.267 . S
C99 O111 1.278 . S
O100 Pr80 2.562 . S
O100 C82 1.254 . S
O101 Pr80 2.490 . S
O101 C82 1.225 . S
O102 Pr80 2.695 . S
O102 Pr81 2.436 . S
O102 C89 1.270 . S
O103 Pr80 2.512 . S
O103 C89 1.248 . S
O104 Pr81 2.438 . S
O104 C90 1.267 . S
O105 Pr80 2.437 . S
O105 C90 1.278 . S
O106 Pr81 2.562 . S
O106 C91 1.254 . S
O107 Pr81 2.490 . S
O107 C91 1.225 . S
O108 Pr80 2.436 . S
O108 Pr81 2.695 . S
O108 C98 1.270 . S
O109 Pr81 2.512 . S
O109 C98 1.248 . S
O110 Pr80 2.438 . S
O110 C99 1.267 . S
O111 Pr81 2.437 . S
O111 C99 1.278 . S
H112 C84 0.929 . S
H113 C85 0.929 . S
H114 C87 0.931 . S
H115 C88 0.930 . S
H116 C93 0.929 1_554 S
H117 C94 0.929 1_545 S
H118 C96 0.931 . S
H119 C97 0.930 . S
Pr120 C122 2.880 . S
Pr120 O140 2.562 . S
Pr120 O141 2.490 . S
Pr120 O142 2.695 . S
Pr120 O143 2.512 . S
Pr120 O145 2.437 . S
Pr120 O148 2.436 . S
Pr120 O150 2.438 . S
Pr121 C131 2.880 . S
Pr121 O142 2.436 . S
Pr121 O144 2.438 . S
Pr121 O146 2.562 . S
Pr121 O147 2.490 . S
Pr121 O148 2.695 . S
Pr121 O149 2.512 . S
Pr121 O151 2.437 . S
C122 Pr120 2.880 . S
C122 C123 1.491 . S
C122 O140 1.254 . S
C122 O141 1.225 . S
C123 C122 1.491 . S
C123 C124 1.392 . S
C123 C128 1.356 . S
C124 C123 1.392 . S
C124 C125 1.368 . S
C124 H152 0.929 . S
C125 C124 1.368 . S
C125 C126 1.386 . S
C125 H153 0.929 . S
C126 C125 1.386 . S
C126 C127 1.373 . S
C127 C126 1.373 . S
C127 C128 1.409 . S
C127 H154 0.931 . S
C128 C123 1.356 . S
C128 C127 1.409 . S
C128 H155 0.930 . S
C129 O142 1.270 . S
C129 O143 1.248 . S
C130 O144 1.267 . S
C130 O145 1.278 . S
C131 Pr121 2.880 . S
C131 C132 1.491 . S
C131 O146 1.254 . S
C131 O147 1.225 . S
C132 C131 1.491 . S
C132 C133 1.392 . S
C132 C137 1.356 . S
C133 C132 1.392 . S
C133 C134 1.368 . S
C133 H156 0.929 . S
C134 C133 1.368 . S
C134 C135 1.386 . S
C134 H157 0.929 1_545 S
C135 C134 1.386 . S
C135 C136 1.373 . S
C136 C135 1.373 . S
C136 C137 1.409 . S
C136 H158 0.931 . S
C137 C132 1.356 . S
C137 C136 1.409 . S
C137 H159 0.930 . S
C138 O148 1.270 . S
C138 O149 1.248 . S
C139 O150 1.267 . S
C139 O151 1.278 . S
O140 Pr120 2.562 . S
O140 C122 1.254 . S
O141 Pr120 2.490 . S
O141 C122 1.225 . S
O142 Pr120 2.695 . S
O142 Pr121 2.436 . S
O142 C129 1.270 . S
O143 Pr120 2.512 . S
O143 C129 1.248 . S
O144 Pr121 2.438 . S
O144 C130 1.267 . S
O145 Pr120 2.437 . S
O145 C130 1.278 . S
O146 Pr121 2.562 . S
O146 C131 1.254 . S
O147 Pr121 2.490 . S
O147 C131 1.225 . S
O148 Pr120 2.436 . S
O148 Pr121 2.695 . S
O148 C138 1.270 . S
O149 Pr121 2.512 . S
O149 C138 1.248 . S
O150 Pr120 2.438 . S
O150 C139 1.267 . S
O151 Pr121 2.437 . S
O151 C139 1.278 . S
H152 C124 0.929 . S
H153 C125 0.929 . S
H154 C127 0.931 . S
H155 C128 0.930 . S
H156 C133 0.929 . S
H157 C134 0.929 1_565 S
H158 C136 0.931 . S
H159 C137 0.930 . S
Pr160 C162 2.880 . S
Pr160 O180 2.562 . S
Pr160 O181 2.490 . S
Pr160 O182 2.695 . S
Pr160 O183 2.512 . S
Pr160 O185 2.437 . S
Pr160 O188 2.436 . S
Pr160 O190 2.438 . S
Pr161 C171 2.880 . S
Pr161 O182 2.436 . S
Pr161 O184 2.438 . S
Pr161 O186 2.562 . S
Pr161 O187 2.490 . S
Pr161 O188 2.695 . S
Pr161 O189 2.512 . S
Pr161 O191 2.437 . S
C162 Pr160 2.880 . S
C162 C163 1.491 . S
C162 O180 1.254 . S
C162 O181 1.225 . S
C163 C162 1.491 . S
C163 C164 1.392 . S
C163 C168 1.356 . S
C164 C163 1.392 . S
C164 C165 1.368 . S
C164 H192 0.929 . S
C165 C164 1.368 . S
C165 C166 1.386 . S
C165 H193 0.929 . S
C166 C165 1.386 . S
C166 C167 1.373 . S
C167 C166 1.373 . S
C167 C168 1.409 . S
C167 H194 0.931 . S
C168 C163 1.356 . S
C168 C167 1.409 . S
C168 H195 0.930 . S
C169 O182 1.270 . S
C169 O183 1.248 . S
C170 O184 1.267 . S
C170 O185 1.278 . S
C171 Pr161 2.880 . S
C171 C172 1.491 . S
C171 O186 1.254 . S
C171 O187 1.225 . S
C172 C171 1.491 . S
C172 C173 1.392 . S
C172 C177 1.356 . S
C173 C172 1.392 . S
C173 C174 1.368 . S
C173 H196 0.929 . S
C174 C173 1.368 . S
C174 C175 1.386 . S
C174 H197 0.929 1_655 S
C175 C174 1.386 . S
C175 C176 1.373 . S
C176 C175 1.373 . S
C176 C177 1.409 . S
C176 H198 0.931 . S
C177 C172 1.356 . S
C177 C176 1.409 . S
C177 H199 0.930 . S
C178 O188 1.270 . S
C178 O189 1.248 . S
C179 O190 1.267 . S
C179 O191 1.278 . S
O180 Pr160 2.562 . S
O180 C162 1.254 . S
O181 Pr160 2.490 . S
O181 C162 1.225 . S
O182 Pr160 2.695 . S
O182 Pr161 2.436 . S
O182 C169 1.270 . S
O183 Pr160 2.512 . S
O183 C169 1.248 . S
O184 Pr161 2.438 . S
O184 C170 1.267 . S
O185 Pr160 2.437 . S
O185 C170 1.278 . S
O186 Pr161 2.562 . S
O186 C171 1.254 . S
O187 Pr161 2.490 . S
O187 C171 1.225 . S
O188 Pr160 2.436 . S
O188 Pr161 2.695 . S
O188 C178 1.270 . S
O189 Pr161 2.512 . S
O189 C178 1.248 . S
O190 Pr160 2.438 . S
O190 C179 1.267 . S
O191 Pr161 2.437 . S
O191 C179 1.278 . S
H192 C164 0.929 . S
H193 C165 0.929 . S
H194 C167 0.931 . S
H195 C168 0.930 . S
H196 C173 0.929 . S
H197 C174 0.929 1_455 S
H198 C176 0.931 . S
H199 C177 0.930 . S
Pr200 C202 2.880 . S
Pr200 O220 2.562 . S
Pr200 O221 2.490 . S
Pr200 O222 2.695 . S
Pr200 O223 2.512 . S
Pr200 O225 2.437 . S
Pr200 O228 2.436 . S
Pr200 O230 2.438 . S
Pr201 C211 2.880 . S
Pr201 O222 2.436 . S
Pr201 O224 2.438 . S
Pr201 O226 2.562 . S
Pr201 O227 2.490 . S
Pr201 O228 2.695 . S
Pr201 O229 2.512 . S
Pr201 O231 2.437 . S
C202 Pr200 2.880 . S
C202 C203 1.491 . S
C202 O220 1.254 . S
C202 O221 1.225 . S
C203 C202 1.491 . S
C203 C204 1.392 . S
C203 C208 1.356 . S
C204 C203 1.392 . S
C204 C205 1.368 . S
C204 H232 0.929 . S
C205 C204 1.368 . S
C205 C206 1.386 . S
C205 H233 0.929 . S
C206 C205 1.386 . S
C206 C207 1.373 . S
C207 C206 1.373 . S
C207 C208 1.409 . S
C207 H234 0.931 . S
C208 C203 1.356 . S
C208 C207 1.409 . S
C208 H235 0.930 . S
C209 O222 1.270 . S
C209 O223 1.248 . S
C210 O224 1.267 . S
C210 O225 1.278 . S
C211 Pr201 2.880 . S
C211 C212 1.491 . S
C211 O226 1.254 . S
C211 O227 1.225 . S
C212 C211 1.491 . S
C212 C213 1.392 . S
C212 C217 1.356 . S
C213 C212 1.392 . S
C213 C214 1.368 . S
C213 H236 0.929 . S
C214 C213 1.368 . S
C214 C215 1.386 . S
C214 H237 0.929 . S
C215 C214 1.386 . S
C215 C216 1.373 . S
C216 C215 1.373 . S
C216 C217 1.409 . S
C216 H238 0.931 . S
C217 C212 1.356 . S
C217 C216 1.409 . S
C217 H239 0.930 . S
C218 O228 1.270 . S
C218 O229 1.248 . S
C219 O230 1.267 . S
C219 O231 1.278 . S
O220 Pr200 2.562 . S
O220 C202 1.254 . S
O221 Pr200 2.490 . S
O221 C202 1.225 . S
O222 Pr200 2.695 . S
O222 Pr201 2.436 . S
O222 C209 1.270 . S
O223 Pr200 2.512 . S
O223 C209 1.248 . S
O224 Pr201 2.438 . S
O224 C210 1.267 . S
O225 Pr200 2.437 . S
O225 C210 1.278 . S
O226 Pr201 2.562 . S
O226 C211 1.254 . S
O227 Pr201 2.490 . S
O227 C211 1.225 . S
O228 Pr200 2.436 . S
O228 Pr201 2.695 . S
O228 C218 1.270 . S
O229 Pr201 2.512 . S
O229 C218 1.248 . S
O230 Pr200 2.438 . S
O230 C219 1.267 . S
O231 Pr201 2.437 . S
O231 C219 1.278 . S
H232 C204 0.929 . S
H233 C205 0.929 . S
H234 C207 0.931 . S
H235 C208 0.930 . S
H236 C213 0.929 . S
H237 C214 0.929 . S
H238 C216 0.931 . S
H239 C217 0.930 . S
Pr240 C242 2.880 . S
Pr240 O260 2.562 . S
Pr240 O261 2.490 . S
Pr240 O262 2.695 . S
Pr240 O263 2.512 . S
Pr240 O265 2.437 . S
Pr240 O268 2.436 . S
Pr240 O270 2.438 . S
Pr241 C251 2.880 1_554 S
Pr241 O262 2.436 . S
Pr241 O264 2.438 . S
Pr241 O266 2.562 1_554 S
Pr241 O267 2.512 . S
Pr241 O268 2.695 . S
Pr241 O269 2.512 . S
Pr241 O271 2.437 . S
C242 Pr240 2.880 . S
C242 C243 1.491 . S
C242 O260 1.254 . S
C242 O261 1.225 . S
C243 C242 1.491 . S
C243 C244 1.392 . S
C243 C248 1.356 . S
C244 C243 1.392 . S
C244 C245 1.368 . S
C244 H272 0.929 . S
C245 C244 1.368 . S
C245 C246 1.386 . S
C245 H273 0.929 1_655 S
C246 C245 1.386 . S
C246 C247 1.373 . S
C247 C246 1.373 . S
C247 C248 1.409 . S
C247 H274 0.931 . S
C248 C243 1.356 . S
C248 C247 1.409 . S
C248 H275 0.930 . S
C249 O262 1.270 . S
C249 O263 1.248 . S
C250 O264 1.267 . S
C250 O265 1.278 . S
C251 Pr241 2.880 1_556 S
C251 C252 1.491 . S
C251 O266 1.254 . S
C251 O267 1.210 1_556 S
C252 C251 1.491 . S
C252 C253 1.392 . S
C252 C257 1.356 . S
C253 C252 1.392 . S
C253 C254 1.368 . S
C253 H276 0.929 . S
C254 C253 1.368 . S
C254 C255 1.386 . S
C254 H277 0.929 . S
C255 C254 1.386 . S
C255 C256 1.373 . S
C256 C255 1.373 . S
C256 C257 1.409 . S
C256 H278 0.931 . S
C257 C252 1.356 . S
C257 C256 1.409 . S
C257 H279 0.930 . S
C258 O268 1.270 . S
C258 O269 1.248 . S
C259 O270 1.267 . S
C259 O271 1.278 . S
O260 Pr240 2.562 . S
O260 C242 1.254 . S
O261 Pr240 2.490 . S
O261 C242 1.225 . S
O262 Pr240 2.695 . S
O262 Pr241 2.436 . S
O262 C249 1.270 . S
O263 Pr240 2.512 . S
O263 C249 1.248 . S
O264 Pr241 2.438 . S
O264 C250 1.267 . S
O265 Pr240 2.437 . S
O265 C250 1.278 . S
O266 Pr241 2.562 1_556 S
O266 C251 1.254 . S
O267 Pr241 2.512 . S
O267 C251 1.210 1_554 S
O268 Pr240 2.436 . S
O268 Pr241 2.695 . S
O268 C258 1.270 . S
O269 Pr241 2.512 . S
O269 C258 1.248 . S
O270 Pr240 2.438 . S
O270 C259 1.267 . S
O271 Pr241 2.437 . S
O271 C259 1.278 . S
H272 C244 0.929 . S
H273 C245 0.929 1_455 S
H274 C247 0.931 . S
H275 C248 0.930 . S
H276 C253 0.929 . S
H277 C254 0.929 . S
H278 C256 0.931 . S
H279 C257 0.930 . S
Pr280 C282 2.880 . S
Pr280 O300 2.562 . S
Pr280 O301 2.490 . S
Pr280 O302 2.695 . S
Pr280 O303 2.512 . S
Pr280 O305 2.437 . S
Pr280 O308 2.436 . S
Pr280 O310 2.438 . S
Pr281 C291 2.880 1_554 S
Pr281 O302 2.436 . S
Pr281 O304 2.438 . S
Pr281 O306 2.562 1_554 S
Pr281 O307 2.514 . S
Pr281 O308 2.695 . S
Pr281 O309 2.512 . S
Pr281 O311 2.437 . S
C282 Pr280 2.880 . S
C282 C283 1.491 . S
C282 O300 1.254 . S
C282 O301 1.225 . S
C283 C282 1.491 . S
C283 C284 1.392 . S
C283 C288 1.356 . S
C284 C283 1.392 . S
C284 C285 1.368 . S
C284 H312 0.929 . S
C285 C284 1.368 . S
C285 C286 1.386 . S
C285 H313 0.929 . S
C286 C285 1.386 . S
C286 C287 1.373 . S
C287 C286 1.373 . S
C287 C288 1.409 . S
C287 H314 0.931 . S
C288 C283 1.356 . S
C288 C287 1.409 . S
C288 H315 0.930 . S
C289 O302 1.270 . S
C289 O303 1.248 . S
C290 O304 1.267 . S
C290 O305 1.278 . S
C291 Pr281 2.880 1_556 S
C291 C292 1.491 . S
C291 O306 1.254 . S
C291 O307 1.209 1_556 S
C292 C291 1.491 . S
C292 C293 1.392 . S
C292 C297 1.356 . S
C293 C292 1.392 . S
C293 C294 1.368 . S
C293 H316 0.929 . S
C294 C293 1.368 . S
C294 C295 1.386 . S
C294 H317 0.929 . S
C295 C294 1.386 . S
C295 C296 1.373 . S
C296 C295 1.373 . S
C296 C297 1.409 . S
C296 H318 0.931 . S
C297 C292 1.356 . S
C297 C296 1.409 . S
C297 H319 0.930 . S
C298 O308 1.270 . S
C298 O309 1.248 . S
C299 O310 1.267 . S
C299 O311 1.278 . S
O300 Pr280 2.562 . S
O300 C282 1.254 . S
O301 Pr280 2.490 . S
O301 C282 1.225 . S
O302 Pr280 2.695 . S
O302 Pr281 2.436 . S
O302 C289 1.270 . S
O303 Pr280 2.512 . S
O303 C289 1.248 . S
O304 Pr281 2.438 . S
O304 C290 1.267 . S
O305 Pr280 2.437 . S
O305 C290 1.278 . S
O306 Pr281 2.562 1_556 S
O306 C291 1.254 . S
O307 Pr281 2.514 . S
O307 C291 1.209 1_554 S
O308 Pr280 2.436 . S
O308 Pr281 2.695 . S
O308 C298 1.270 . S
O309 Pr281 2.512 . S
O309 C298 1.248 . S
O310 Pr280 2.438 . S
O310 C299 1.267 . S
O311 Pr281 2.437 . S
O311 C299 1.278 . S
H312 C284 0.929 . S
H313 C285 0.929 . S
H314 C287 0.931 . S
H315 C288 0.930 . S
H316 C293 0.929 . S
H317 C294 0.929 . S
H318 C296 0.931 . S
H319 C297 0.930 . S
Pr320 C322 2.880 . S
Pr320 O340 2.562 . S
Pr320 O341 2.490 . S
Pr320 O342 2.695 . S
Pr320 O343 2.512 . S
Pr320 O345 2.437 . S
Pr320 O348 2.436 . S
Pr320 O350 2.438 . S
Pr321 C331 2.880 1_554 S
Pr321 O342 2.436 . S
Pr321 O344 2.438 . S
Pr321 O346 2.562 1_554 S
Pr321 O347 2.512 . S
Pr321 O348 2.695 . S
Pr321 O349 2.512 . S
Pr321 O351 2.437 . S
C322 Pr320 2.880 . S
C322 C323 1.491 . S
C322 O340 1.254 . S
C322 O341 1.225 . S
C323 C322 1.491 . S
C323 C324 1.392 . S
C323 C328 1.356 . S
C324 C323 1.392 . S
C324 C325 1.368 . S
C324 H352 0.929 . S
C325 C324 1.368 . S
C325 C326 1.386 . S
C325 H353 0.929 1_545 S
C326 C325 1.386 . S
C326 C327 1.373 . S
C327 C326 1.373 . S
C327 C328 1.409 . S
C327 H354 0.931 . S
C328 C323 1.356 . S
C328 C327 1.409 . S
C328 H355 0.930 . S
C329 O342 1.270 . S
C329 O343 1.248 . S
C330 O344 1.267 . S
C330 O345 1.278 . S
C331 Pr321 2.880 1_556 S
C331 C332 1.491 . S
C331 O346 1.254 . S
C331 O347 1.210 1_556 S
C332 C331 1.491 . S
C332 C333 1.392 . S
C332 C337 1.356 . S
C333 C332 1.392 . S
C333 C334 1.368 . S
C333 H356 0.929 . S
C334 C333 1.368 . S
C334 C335 1.386 . S
C334 H357 0.929 . S
C335 C334 1.386 . S
C335 C336 1.373 . S
C336 C335 1.373 . S
C336 C337 1.409 . S
C336 H358 0.931 . S
C337 C332 1.356 . S
C337 C336 1.409 . S
C337 H359 0.930 . S
C338 O348 1.270 . S
C338 O349 1.248 . S
C339 O350 1.267 . S
C339 O351 1.278 . S
O340 Pr320 2.562 . S
O340 C322 1.254 . S
O341 Pr320 2.490 . S
O341 C322 1.225 . S
O342 Pr320 2.695 . S
O342 Pr321 2.436 . S
O342 C329 1.270 . S
O343 Pr320 2.512 . S
O343 C329 1.248 . S
O344 Pr321 2.438 . S
O344 C330 1.267 . S
O345 Pr320 2.437 . S
O345 C330 1.278 . S
O346 Pr321 2.562 1_556 S
O346 C331 1.254 . S
O347 Pr321 2.512 . S
O347 C331 1.210 1_554 S
O348 Pr320 2.436 . S
O348 Pr321 2.695 . S
O348 C338 1.270 . S
O349 Pr321 2.512 . S
O349 C338 1.248 . S
O350 Pr320 2.438 . S
O350 C339 1.267 . S
O351 Pr321 2.437 . S
O351 C339 1.278 . S
H352 C324 0.929 . S
H353 C325 0.929 1_565 S
H354 C327 0.931 . S
H355 C328 0.930 . S
H356 C333 0.929 . S
H357 C334 0.929 . S
H358 C336 0.931 . S
H359 C337 0.930 . S
Pr360 C362 2.880 . S
Pr360 O380 2.562 . S
Pr360 O381 2.490 . S
Pr360 O382 2.695 . S
Pr360 O383 2.512 . S
Pr360 O385 2.437 . S
Pr360 O388 2.436 . S
Pr360 O390 2.438 . S
Pr361 C371 2.880 . S
Pr361 O382 2.436 . S
Pr361 O384 2.438 . S
Pr361 O386 2.562 . S
Pr361 O387 2.490 . S
Pr361 O388 2.695 . S
Pr361 O389 2.512 . S
Pr361 O391 2.437 . S
C362 Pr360 2.880 . S
C362 C363 1.491 . S
C362 O380 1.254 . S
C362 O381 1.225 . S
C363 C362 1.491 . S
C363 C364 1.392 . S
C363 C368 1.356 . S
C364 C363 1.392 . S
C364 C365 1.368 . S
C364 H392 0.929 . S
C365 C364 1.368 . S
C365 C366 1.386 . S
C365 H393 0.929 1_565 S
C366 C365 1.386 . S
C366 C367 1.373 . S
C367 C366 1.373 . S
C367 C368 1.409 . S
C367 H394 0.931 . S
C368 C363 1.356 . S
C368 C367 1.409 . S
C368 H395 0.930 . S
C369 O382 1.270 . S
C369 O383 1.248 . S
C370 O384 1.267 . S
C370 O385 1.278 . S
C371 Pr361 2.880 . S
C371 C372 1.491 . S
C371 O386 1.254 . S
C371 O387 1.225 . S
C372 C371 1.491 . S
C372 C373 1.392 . S
C372 C377 1.356 . S
C373 C372 1.392 . S
C373 C374 1.368 . S
C373 H396 0.929 . S
C374 C373 1.368 . S
C374 C375 1.386 . S
C374 H397 0.929 . S
C375 C374 1.386 . S
C375 C376 1.373 . S
C376 C375 1.373 . S
C376 C377 1.409 . S
C376 H398 0.931 . S
C377 C372 1.356 . S
C377 C376 1.409 . S
C377 H399 0.930 . S
C378 O388 1.270 . S
C378 O389 1.248 . S
C379 O390 1.267 . S
C379 O391 1.278 . S
O380 Pr360 2.562 . S
O380 C362 1.254 . S
O381 Pr360 2.490 . S
O381 C362 1.225 . S
O382 Pr360 2.695 . S
O382 Pr361 2.436 . S
O382 C369 1.270 . S
O383 Pr360 2.512 . S
O383 C369 1.248 . S
O384 Pr361 2.438 . S
O384 C370 1.267 . S
O385 Pr360 2.437 . S
O385 C370 1.278 . S
O386 Pr361 2.562 . S
O386 C371 1.254 . S
O387 Pr361 2.490 . S
O387 C371 1.225 . S
O388 Pr360 2.436 . S
O388 Pr361 2.695 . S
O388 C378 1.270 . S
O389 Pr361 2.512 . S
O389 C378 1.248 . S
O390 Pr360 2.438 . S
O390 C379 1.267 . S
O391 Pr361 2.437 . S
O391 C379 1.278 . S
H392 C364 0.929 . S
H393 C365 0.929 1_545 S
H394 C367 0.931 . S
H395 C368 0.930 . S
H396 C373 0.929 . S
H397 C374 0.929 . S
H398 C376 0.931 . S
H399 C377 0.930 . S
Pr400 C402 2.880 . S
Pr400 O420 2.562 . S
Pr400 O421 2.490 . S
Pr400 O422 2.695 . S
Pr400 O423 2.512 . S
Pr400 O425 2.437 . S
Pr400 O428 2.436 . S
Pr400 O430 2.438 . S
Pr401 C411 2.880 . S
Pr401 O422 2.436 . S
Pr401 O424 2.438 . S
Pr401 O426 2.562 . S
Pr401 O427 2.490 . S
Pr401 O428 2.695 . S
Pr401 O429 2.512 . S
Pr401 O431 2.437 . S
C402 Pr400 2.880 . S
C402 C403 1.491 . S
C402 O420 1.254 . S
C402 O421 1.225 . S
C403 C402 1.491 . S
C403 C404 1.392 . S
C403 C408 1.356 . S
C404 C403 1.392 . S
C404 C405 1.368 . S
C404 H432 0.929 . S
C405 C404 1.368 . S
C405 C406 1.386 . S
C405 H433 0.929 1_455 S
C406 C405 1.386 . S
C406 C407 1.373 . S
C407 C406 1.373 . S
C407 C408 1.409 . S
C407 H434 0.931 . S
C408 C403 1.356 . S
C408 C407 1.409 . S
C408 H435 0.930 . S
C409 O422 1.270 . S
C409 O423 1.248 . S
C410 O424 1.267 . S
C410 O425 1.278 . S
C411 Pr401 2.880 . S
C411 C412 1.491 . S
C411 O426 1.254 . S
C411 O427 1.225 . S
C412 C411 1.491 . S
C412 C413 1.392 . S
C412 C417 1.356 . S
C413 C412 1.392 . S
C413 C414 1.368 . S
C413 H436 0.929 . S
C414 C413 1.368 . S
C414 C415 1.386 . S
C414 H437 0.929 . S
C415 C414 1.386 . S
C415 C416 1.373 . S
C416 C415 1.373 . S
C416 C417 1.409 . S
C416 H438 0.931 . S
C417 C412 1.356 . S
C417 C416 1.409 . S
C417 H439 0.930 . S
C418 O428 1.270 . S
C418 O429 1.248 . S
C419 O430 1.267 . S
C419 O431 1.278 . S
O420 Pr400 2.562 . S
O420 C402 1.254 . S
O421 Pr400 2.490 . S
O421 C402 1.225 . S
O422 Pr400 2.695 . S
O422 Pr401 2.436 . S
O422 C409 1.270 . S
O423 Pr400 2.512 . S
O423 C409 1.248 . S
O424 Pr401 2.438 . S
O424 C410 1.267 . S
O425 Pr400 2.437 . S
O425 C410 1.278 . S
O426 Pr401 2.562 . S
O426 C411 1.254 . S
O427 Pr401 2.490 . S
O427 C411 1.225 . S
O428 Pr400 2.436 . S
O428 Pr401 2.695 . S
O428 C418 1.270 . S
O429 Pr401 2.512 . S
O429 C418 1.248 . S
O430 Pr400 2.438 . S
O430 C419 1.267 . S
O431 Pr401 2.437 . S
O431 C419 1.278 . S
H432 C404 0.929 . S
H433 C405 0.929 1_655 S
H434 C407 0.931 . S
H435 C408 0.930 . S
H436 C413 0.929 . S
H437 C414 0.929 . S
H438 C416 0.931 . S
H439 C417 0.930 . S
Pr440 C442 2.880 . S
Pr440 O460 2.562 . S
Pr440 O461 2.490 . S
Pr440 O462 2.695 . S
Pr440 O463 2.512 . S
Pr440 O465 2.437 . S
Pr440 O468 2.436 . S
Pr440 O470 2.438 . S
Pr441 C451 2.880 . S
Pr441 O462 2.436 . S
Pr441 O464 2.438 . S
Pr441 O466 2.562 . S
Pr441 O467 2.490 . S
Pr441 O468 2.695 . S
Pr441 O469 2.512 . S
Pr441 O471 2.437 . S
C442 Pr440 2.880 . S
C442 C443 1.491 . S
C442 O460 1.254 . S
C442 O461 1.225 . S
C443 C442 1.491 . S
C443 C444 1.392 . S
C443 C448 1.356 . S
C444 C443 1.392 . S
C444 C445 1.368 . S
C444 H472 0.929 . S
C445 C444 1.368 . S
C445 C446 1.386 . S
C445 H473 0.929 . S
C446 C445 1.386 . S
C446 C447 1.373 . S
C447 C446 1.373 . S
C447 C448 1.409 . S
C447 H474 0.931 . S
C448 C443 1.356 . S
C448 C447 1.409 . S
C448 H475 0.930 . S
C449 O462 1.270 . S
C449 O463 1.248 . S
C450 O464 1.267 . S
C450 O465 1.278 . S
C451 Pr441 2.880 . S
C451 C452 1.491 . S
C451 O466 1.254 . S
C451 O467 1.225 . S
C452 C451 1.491 . S
C452 C453 1.392 . S
C452 C457 1.356 . S
C453 C452 1.392 . S
C453 C454 1.368 . S
C453 H476 0.929 . S
C454 C453 1.368 . S
C454 C455 1.386 . S
C454 H477 0.929 . S
C455 C454 1.386 . S
C455 C456 1.373 . S
C456 C455 1.373 . S
C456 C457 1.409 . S
C456 H478 0.931 . S
C457 C452 1.356 . S
C457 C456 1.409 . S
C457 H479 0.930 . S
C458 O468 1.270 . S
C458 O469 1.248 . S
C459 O470 1.267 . S
C459 O471 1.278 . S
O460 Pr440 2.562 . S
O460 C442 1.254 . S
O461 Pr440 2.490 . S
O461 C442 1.225 . S
O462 Pr440 2.695 . S
O462 Pr441 2.436 . S
O462 C449 1.270 . S
O463 Pr440 2.512 . S
O463 C449 1.248 . S
O464 Pr441 2.438 . S
O464 C450 1.267 . S
O465 Pr440 2.437 . S
O465 C450 1.278 . S
O466 Pr441 2.562 . S
O466 C451 1.254 . S
O467 Pr441 2.490 . S
O467 C451 1.225 . S
O468 Pr440 2.436 . S
O468 Pr441 2.695 . S
O468 C458 1.270 . S
O469 Pr441 2.512 . S
O469 C458 1.248 . S
O470 Pr440 2.438 . S
O470 C459 1.267 . S
O471 Pr441 2.437 . S
O471 C459 1.278 . S
H472 C444 0.929 . S
H473 C445 0.929 . S
H474 C447 0.931 . S
H475 C448 0.930 . S
H476 C453 0.929 . S
H477 C454 0.929 . S
H478 C456 0.931 . S
H479 C457 0.930 . S
Pr480 C482 2.880 . S
Pr480 O500 2.562 . S
Pr480 O501 2.490 . S
Pr480 O502 2.695 . S
Pr480 O503 2.512 . S
Pr480 O505 2.437 . S
Pr480 O508 2.436 . S
Pr480 O510 2.438 . S
Pr481 C491 2.880 . S
Pr481 O502 2.436 . S
Pr481 O504 2.438 . S
Pr481 O506 2.562 . S
Pr481 O507 2.490 . S
Pr481 O508 2.695 . S
Pr481 O509 2.512 . S
Pr481 O511 2.437 . S
C482 Pr480 2.880 . S
C482 C483 1.491 . S
C482 O500 1.254 . S
C482 O501 1.225 . S
C483 C482 1.491 . S
C483 C484 1.392 . S
C483 C488 1.356 . S
C484 C483 1.392 . S
C484 C485 1.368 . S
C484 H512 0.929 . S
C485 C484 1.368 . S
C485 C486 1.386 . S
C485 H513 0.929 . S
C486 C485 1.386 . S
C486 C487 1.373 . S
C487 C486 1.373 . S
C487 C488 1.409 . S
C487 H514 0.931 . S
C488 C483 1.356 . S
C488 C487 1.409 . S
C488 H515 0.930 . S
C489 O502 1.270 . S
C489 O503 1.248 . S
C490 O504 1.267 . S
C490 O505 1.278 . S
C491 Pr481 2.880 . S
C491 C492 1.491 . S
C491 O506 1.254 . S
C491 O507 1.225 . S
C492 C491 1.491 . S
C492 C493 1.392 . S
C492 C497 1.356 . S
C493 C492 1.392 . S
C493 C494 1.368 . S
C493 H516 0.929 . S
C494 C493 1.368 . S
C494 C495 1.386 . S
C494 H517 0.929 . S
C495 C494 1.386 . S
C495 C496 1.373 . S
C496 C495 1.373 . S
C496 C497 1.409 . S
C496 H518 0.931 . S
C497 C492 1.356 . S
C497 C496 1.409 . S
C497 H519 0.930 . S
C498 O508 1.270 . S
C498 O509 1.248 . S
C499 O510 1.267 . S
C499 O511 1.278 . S
O500 Pr480 2.562 . S
O500 C482 1.254 . S
O501 Pr480 2.490 . S
O501 C482 1.225 . S
O502 Pr480 2.695 . S
O502 Pr481 2.436 . S
O502 C489 1.270 . S
O503 Pr480 2.512 . S
O503 C489 1.248 . S
O504 Pr481 2.438 . S
O504 C490 1.267 . S
O505 Pr480 2.437 . S
O505 C490 1.278 . S
O506 Pr481 2.562 . S
O506 C491 1.254 . S
O507 Pr481 2.490 . S
O507 C491 1.225 . S
O508 Pr480 2.436 . S
O508 Pr481 2.695 . S
O508 C498 1.270 . S
O509 Pr481 2.512 . S
O509 C498 1.248 . S
O510 Pr480 2.438 . S
O510 C499 1.267 . S
O511 Pr481 2.437 . S
O511 C499 1.278 . S
H512 C484 0.929 . S
H513 C485 0.929 . S
H514 C487 0.931 . S
H515 C488 0.930 . S
H516 C493 0.929 . S
H517 C494 0.929 . S
H518 C496 0.931 . S
H519 C497 0.930 . S
Pr520 C522 2.880 . S
Pr520 O540 2.562 . S
Pr520 O541 2.490 . S
Pr520 O542 2.695 . S
Pr520 O543 2.512 . S
Pr520 O545 2.437 . S
Pr520 O548 2.436 . S
Pr520 O550 2.438 . S
Pr521 C531 2.880 . S
Pr521 O542 2.436 . S
Pr521 O544 2.438 . S
Pr521 O546 2.562 . S
Pr521 O547 2.490 . S
Pr521 O548 2.695 . S
Pr521 O549 2.512 . S
Pr521 O551 2.437 . S
C522 Pr520 2.880 . S
C522 C523 1.491 . S
C522 O540 1.254 . S
C522 O541 1.225 . S
C523 C522 1.491 . S
C523 C524 1.392 . S
C523 C528 1.356 . S
C524 C523 1.392 . S
C524 C525 1.368 . S
C524 H552 0.929 . S
C525 C524 1.368 . S
C525 C526 1.386 . S
C525 H553 0.929 . S
C526 C525 1.386 . S
C526 C527 1.373 . S
C527 C526 1.373 . S
C527 C528 1.409 . S
C527 H554 0.931 . S
C528 C523 1.356 . S
C528 C527 1.409 . S
C528 H555 0.930 . S
C529 O542 1.270 . S
C529 O543 1.248 . S
C530 O544 1.267 . S
C530 O545 1.278 . S
C531 Pr521 2.880 . S
C531 C532 1.491 . S
C531 O546 1.254 . S
C531 O547 1.225 . S
C532 C531 1.491 . S
C532 C533 1.392 . S
C532 C537 1.356 . S
C533 C532 1.392 . S
C533 C534 1.368 . S
C533 H556 0.929 . S
C534 C533 1.368 . S
C534 C535 1.386 . S
C534 H557 0.929 . S
C535 C534 1.386 . S
C535 C536 1.373 . S
C536 C535 1.373 . S
C536 C537 1.409 . S
C536 H558 0.931 . S
C537 C532 1.356 . S
C537 C536 1.409 . S
C537 H559 0.930 . S
C538 O548 1.270 . S
C538 O549 1.248 . S
C539 O550 1.267 . S
C539 O551 1.278 . S
O540 Pr520 2.562 . S
O540 C522 1.254 . S
O541 Pr520 2.490 . S
O541 C522 1.225 . S
O542 Pr520 2.695 . S
O542 Pr521 2.436 . S
O542 C529 1.270 . S
O543 Pr520 2.512 . S
O543 C529 1.248 . S
O544 Pr521 2.438 . S
O544 C530 1.267 . S
O545 Pr520 2.437 . S
O545 C530 1.278 . S
O546 Pr521 2.562 . S
O546 C531 1.254 . S
O547 Pr521 2.490 . S
O547 C531 1.225 . S
O548 Pr520 2.436 . S
O548 Pr521 2.695 . S
O548 C538 1.270 . S
O549 Pr521 2.512 . S
O549 C538 1.248 . S
O550 Pr520 2.438 . S
O550 C539 1.267 . S
O551 Pr521 2.437 . S
O551 C539 1.278 . S
H552 C524 0.929 . S
H553 C525 0.929 . S
H554 C527 0.931 . S
H555 C528 0.930 . S
H556 C533 0.929 . S
H557 C534 0.929 . S
H558 C536 0.931 . S
H559 C537 0.930 . S
Pr560 C562 2.880 . S
Pr560 O580 2.562 . S
Pr560 O581 2.490 . S
Pr560 O582 2.695 . S
Pr560 O583 2.512 . S
Pr560 O585 2.437 . S
Pr560 O588 2.436 . S
Pr560 O590 2.438 . S
Pr561 C571 2.880 . S
Pr561 O582 2.436 . S
Pr561 O584 2.438 . S
Pr561 O586 2.562 . S
Pr561 O587 2.490 . S
Pr561 O588 2.695 . S
Pr561 O589 2.512 . S
Pr561 O591 2.437 . S
C562 Pr560 2.880 . S
C562 C563 1.491 . S
C562 O580 1.254 . S
C562 O581 1.225 . S
C563 C562 1.491 . S
C563 C564 1.392 . S
C563 C568 1.356 . S
C564 C563 1.392 . S
C564 C565 1.368 . S
C564 H592 0.929 . S
C565 C564 1.368 . S
C565 C566 1.386 . S
C565 H593 0.929 . S
C566 C565 1.386 . S
C566 C567 1.373 . S
C567 C566 1.373 . S
C567 C568 1.409 . S
C567 H594 0.931 . S
C568 C563 1.356 . S
C568 C567 1.409 . S
C568 H595 0.930 . S
C569 O582 1.270 . S
C569 O583 1.248 . S
C570 O584 1.267 . S
C570 O585 1.278 . S
C571 Pr561 2.880 . S
C571 C572 1.491 . S
C571 O586 1.254 . S
C571 O587 1.225 . S
C572 C571 1.491 . S
C572 C573 1.392 . S
C572 C577 1.356 . S
C573 C572 1.392 . S
C573 C574 1.368 . S
C573 H596 0.929 . S
C574 C573 1.368 . S
C574 C575 1.386 . S
C574 H597 0.929 . S
C575 C574 1.386 . S
C575 C576 1.373 . S
C576 C575 1.373 . S
C576 C577 1.409 . S
C576 H598 0.931 . S
C577 C572 1.356 . S
C577 C576 1.409 . S
C577 H599 0.930 . S
C578 O588 1.270 . S
C578 O589 1.248 . S
C579 O590 1.267 . S
C579 O591 1.278 . S
O580 Pr560 2.562 . S
O580 C562 1.254 . S
O581 Pr560 2.490 . S
O581 C562 1.225 . S
O582 Pr560 2.695 . S
O582 Pr561 2.436 . S
O582 C569 1.270 . S
O583 Pr560 2.512 . S
O583 C569 1.248 . S
O584 Pr561 2.438 . S
O584 C570 1.267 . S
O585 Pr560 2.437 . S
O585 C570 1.278 . S
O586 Pr561 2.562 . S
O586 C571 1.254 . S
O587 Pr561 2.490 . S
O587 C571 1.225 . S
O588 Pr560 2.436 . S
O588 Pr561 2.695 . S
O588 C578 1.270 . S
O589 Pr561 2.512 . S
O589 C578 1.248 . S
O590 Pr560 2.438 . S
O590 C579 1.267 . S
O591 Pr561 2.437 . S
O591 C579 1.278 . S
H592 C564 0.929 . S
H593 C565 0.929 . S
H594 C567 0.931 . S
H595 C568 0.930 . S
H596 C573 0.929 . S
H597 C574 0.929 . S
H598 C576 0.931 . S
H599 C577 0.930 . S
Pr600 C602 2.880 . S
Pr600 O620 2.562 . S
Pr600 O621 2.490 . S
Pr600 O622 2.695 . S
Pr600 O623 2.512 . S
Pr600 O625 2.437 . S
Pr600 O628 2.436 . S
Pr600 O630 2.438 . S
Pr601 C611 2.880 1_556 S
Pr601 O622 2.436 . S
Pr601 O624 2.438 . S
Pr601 O626 2.562 1_556 S
Pr601 O627 2.490 . S
Pr601 O628 2.695 . S
Pr601 O629 2.512 . S
Pr601 O631 2.437 . S
C602 Pr600 2.880 . S
C602 C603 1.491 . S
C602 O620 1.254 . S
C602 O621 1.225 . S
C603 C602 1.491 . S
C603 C604 1.392 . S
C603 C608 1.356 . S
C604 C603 1.392 . S
C604 C605 1.368 . S
C604 H632 0.929 . S
C605 C604 1.368 . S
C605 C606 1.386 . S
C605 H633 0.929 . S
C606 C605 1.386 . S
C606 C607 1.373 . S
C607 C606 1.373 . S
C607 C608 1.409 . S
C607 H634 0.931 . S
C608 C603 1.356 . S
C608 C607 1.409 . S
C608 H635 0.930 . S
C609 O622 1.270 . S
C609 O623 1.248 . S
C610 O624 1.267 . S
C610 O625 1.278 . S
C611 Pr601 2.880 1_554 S
C611 C612 1.491 . S
C611 O626 1.254 . S
C611 O627 1.225 1_554 S
C612 C611 1.491 . S
C612 C613 1.392 . S
C612 C617 1.356 . S
C613 C612 1.392 . S
C613 C614 1.368 . S
C613 H636 0.929 . S
C614 C613 1.368 . S
C614 C615 1.386 . S
C614 H637 0.929 . S
C615 C614 1.386 . S
C615 C616 1.373 . S
C616 C615 1.373 . S
C616 C617 1.409 . S
C616 H638 0.931 . S
C617 C612 1.356 . S
C617 C616 1.409 . S
C617 H639 0.930 . S
C618 O628 1.270 . S
C618 O629 1.248 . S
C619 O630 1.267 . S
C619 O631 1.278 . S
O620 Pr600 2.562 . S
O620 C602 1.254 . S
O621 Pr600 2.490 . S
O621 C602 1.225 . S
O622 Pr600 2.695 . S
O622 Pr601 2.436 . S
O622 C609 1.270 . S
O623 Pr600 2.512 . S
O623 C609 1.248 . S
O624 Pr601 2.438 . S
O624 C610 1.267 . S
O625 Pr600 2.437 . S
O625 C610 1.278 . S
O626 Pr601 2.562 1_554 S
O626 C611 1.254 . S
O627 Pr601 2.490 . S
O627 C611 1.225 1_556 S
O628 Pr600 2.436 . S
O628 Pr601 2.695 . S
O628 C618 1.270 . S
O629 Pr601 2.512 . S
O629 C618 1.248 . S
O630 Pr600 2.438 . S
O630 C619 1.267 . S
O631 Pr601 2.437 . S
O631 C619 1.278 . S
H632 C604 0.929 . S
H633 C605 0.929 . S
H634 C607 0.931 . S
H635 C608 0.930 . S
H636 C613 0.929 . S
H637 C614 0.929 . S
H638 C616 0.931 . S
H639 C617 0.930 . S
Pr640 C642 2.880 . S
Pr640 O660 2.562 . S
Pr640 O661 2.490 . S
Pr640 O662 2.695 . S
Pr640 O663 2.512 . S
Pr640 O665 2.437 . S
Pr640 O668 2.436 . S
Pr640 O670 2.438 . S
Pr641 C651 2.880 1_556 S
Pr641 O662 2.436 . S
Pr641 O664 2.438 . S
Pr641 O666 2.562 1_556 S
Pr641 O667 2.490 . S
Pr641 O668 2.695 . S
Pr641 O669 2.512 . S
Pr641 O671 2.437 . S
C642 Pr640 2.880 . S
C642 C643 1.491 . S
C642 O660 1.254 . S
C642 O661 1.225 . S
C643 C642 1.491 . S
C643 C644 1.392 . S
C643 C648 1.356 . S
C644 C643 1.392 . S
C644 C645 1.368 . S
C644 H672 0.929 . S
C645 C644 1.368 . S
C645 C646 1.386 . S
C645 H673 0.929 . S
C646 C645 1.386 . S
C646 C647 1.373 . S
C647 C646 1.373 . S
C647 C648 1.409 . S
C647 H674 0.931 . S
C648 C643 1.356 . S
C648 C647 1.409 . S
C648 H675 0.930 . S
C649 O662 1.270 . S
C649 O663 1.248 . S
C650 O664 1.267 . S
C650 O665 1.278 . S
C651 Pr641 2.880 1_554 S
C651 C652 1.491 . S
C651 O666 1.254 . S
C651 O667 1.225 1_554 S
C652 C651 1.491 . S
C652 C653 1.392 . S
C652 C657 1.356 . S
C653 C652 1.392 . S
C653 C654 1.368 . S
C653 H676 0.929 . S
C654 C653 1.368 . S
C654 C655 1.386 . S
C654 H677 0.929 . S
C655 C654 1.386 . S
C655 C656 1.373 . S
C656 C655 1.373 . S
C656 C657 1.409 . S
C656 H678 0.931 . S
C657 C652 1.356 . S
C657 C656 1.409 . S
C657 H679 0.930 . S
C658 O668 1.270 . S
C658 O669 1.248 . S
C659 O670 1.267 . S
C659 O671 1.278 . S
O660 Pr640 2.562 . S
O660 C642 1.254 . S
O661 Pr640 2.490 . S
O661 C642 1.225 . S
O662 Pr640 2.695 . S
O662 Pr641 2.436 . S
O662 C649 1.270 . S
O663 Pr640 2.512 . S
O663 C649 1.248 . S
O664 Pr641 2.438 . S
O664 C650 1.267 . S
O665 Pr640 2.437 . S
O665 C650 1.278 . S
O666 Pr641 2.562 1_554 S
O666 C651 1.254 . S
O667 Pr641 2.490 . S
O667 C651 1.225 1_556 S
O668 Pr640 2.436 . S
O668 Pr641 2.695 . S
O668 C658 1.270 . S
O669 Pr641 2.512 . S
O669 C658 1.248 . S
O670 Pr640 2.438 . S
O670 C659 1.267 . S
O671 Pr641 2.437 . S
O671 C659 1.278 . S
H672 C644 0.929 . S
H673 C645 0.929 . S
H674 C647 0.931 . S
H675 C648 0.930 . S
H676 C653 0.929 . S
H677 C654 0.929 . S
H678 C656 0.931 . S
H679 C657 0.930 . S
Pr680 C682 2.880 . S
Pr680 O700 2.562 . S
Pr680 O701 2.490 . S
Pr680 O702 2.695 . S
Pr680 O703 2.512 . S
Pr680 O705 2.437 . S
Pr680 O708 2.436 . S
Pr680 O710 2.438 . S
Pr681 C691 2.880 1_556 S
Pr681 O702 2.436 . S
Pr681 O704 2.438 . S
Pr681 O706 2.562 1_556 S
Pr681 O707 2.490 . S
Pr681 O708 2.695 . S
Pr681 O709 2.512 . S
Pr681 O711 2.437 . S
C682 Pr680 2.880 . S
C682 C683 1.491 . S
C682 O700 1.254 . S
C682 O701 1.225 . S
C683 C682 1.491 . S
C683 C684 1.392 . S
C683 C688 1.356 . S
C684 C683 1.392 . S
C684 C685 1.368 . S
C684 H712 0.929 . S
C685 C684 1.368 . S
C685 C686 1.386 . S
C685 H713 0.929 . S
C686 C685 1.386 . S
C686 C687 1.373 . S
C687 C686 1.373 . S
C687 C688 1.409 . S
C687 H714 0.931 . S
C688 C683 1.356 . S
C688 C687 1.409 . S
C688 H715 0.930 . S
C689 O702 1.270 . S
C689 O703 1.248 . S
C690 O704 1.267 . S
C690 O705 1.278 . S
C691 Pr681 2.880 1_554 S
C691 C692 1.491 . S
C691 O706 1.254 . S
C691 O707 1.225 1_554 S
C692 C691 1.491 . S
C692 C693 1.392 . S
C692 C697 1.356 . S
C693 C692 1.392 . S
C693 C694 1.368 . S
C693 H716 0.929 . S
C694 C693 1.368 . S
C694 C695 1.386 . S
C694 H717 0.929 . S
C695 C694 1.386 . S
C695 C696 1.373 . S
C696 C695 1.373 . S
C696 C697 1.409 . S
C696 H718 0.931 . S
C697 C692 1.356 . S
C697 C696 1.409 . S
C697 H719 0.930 . S
C698 O708 1.270 . S
C698 O709 1.248 . S
C699 O710 1.267 . S
C699 O711 1.278 . S
O700 Pr680 2.562 . S
O700 C682 1.254 . S
O701 Pr680 2.490 . S
O701 C682 1.225 . S
O702 Pr680 2.695 . S
O702 Pr681 2.436 . S
O702 C689 1.270 . S
O703 Pr680 2.512 . S
O703 C689 1.248 . S
O704 Pr681 2.438 . S
O704 C690 1.267 . S
O705 Pr680 2.437 . S
O705 C690 1.278 . S
O706 Pr681 2.562 1_554 S
O706 C691 1.254 . S
O707 Pr681 2.490 . S
O707 C691 1.225 1_556 S
O708 Pr680 2.436 . S
O708 Pr681 2.695 . S
O708 C698 1.270 . S
O709 Pr681 2.512 . S
O709 C698 1.248 . S
O710 Pr680 2.438 . S
O710 C699 1.267 . S
O711 Pr681 2.437 . S
O711 C699 1.278 . S
H712 C684 0.929 . S
H713 C685 0.929 . S
H714 C687 0.931 . S
H715 C688 0.930 . S
H716 C693 0.929 . S
H717 C694 0.929 . S
H718 C696 0.931 . S
H719 C697 0.930 . S
Pr720 C722 2.880 . S
Pr720 O740 2.562 . S
Pr720 O741 2.490 . S
Pr720 O742 2.695 . S
Pr720 O743 2.512 . S
Pr720 O745 2.437 . S
Pr720 O748 2.436 . S
Pr720 O750 2.438 . S
Pr721 C731 2.880 . S
Pr721 O742 2.436 . S
Pr721 O744 2.438 . S
Pr721 O746 2.562 . S
Pr721 O747 2.490 . S
Pr721 O748 2.695 . S
Pr721 O749 2.512 . S
Pr721 O751 2.437 . S
C722 Pr720 2.880 . S
C722 C723 1.491 . S
C722 O740 1.254 . S
C722 O741 1.225 . S
C723 C722 1.491 . S
C723 C724 1.392 . S
C723 C728 1.356 . S
C724 C723 1.392 . S
C724 C725 1.368 . S
C724 H752 0.929 . S
C725 C724 1.368 . S
C725 C726 1.386 . S
C725 H753 0.929 . S
C726 C725 1.386 . S
C726 C727 1.373 . S
C727 C726 1.373 . S
C727 C728 1.409 . S
C727 H754 0.931 . S
C728 C723 1.356 . S
C728 C727 1.409 . S
C728 H755 0.930 . S
C729 O742 1.270 . S
C729 O743 1.248 . S
C730 O744 1.267 . S
C730 O745 1.278 . S
C731 Pr721 2.880 . S
C731 C732 1.491 . S
C731 O746 1.254 . S
C731 O747 1.225 . S
C732 C731 1.491 . S
C732 C733 1.392 . S
C732 C737 1.356 . S
C733 C732 1.392 . S
C733 C734 1.368 . S
C733 H756 0.929 . S
C734 C733 1.368 . S
C734 C735 1.386 . S
C734 H757 0.929 . S
C735 C734 1.386 . S
C735 C736 1.373 . S
C736 C735 1.373 . S
C736 C737 1.409 . S
C736 H758 0.931 . S
C737 C732 1.356 . S
C737 C736 1.409 . S
C737 H759 0.930 . S
C738 O748 1.270 . S
C738 O749 1.248 . S
C739 O750 1.267 . S
C739 O751 1.278 . S
O740 Pr720 2.562 . S
O740 C722 1.254 . S
O741 Pr720 2.490 . S
O741 C722 1.225 . S
O742 Pr720 2.695 . S
O742 Pr721 2.436 . S
O742 C729 1.270 . S
O743 Pr720 2.512 . S
O743 C729 1.248 . S
O744 Pr721 2.438 . S
O744 C730 1.267 . S
O745 Pr720 2.437 . S
O745 C730 1.278 . S
O746 Pr721 2.562 . S
O746 C731 1.254 . S
O747 Pr721 2.490 . S
O747 C731 1.225 . S
O748 Pr720 2.436 . S
O748 Pr721 2.695 . S
O748 C738 1.270 . S
O749 Pr721 2.512 . S
O749 C738 1.248 . S
O750 Pr720 2.438 . S
O750 C739 1.267 . S
O751 Pr721 2.437 . S
O751 C739 1.278 . S
H752 C724 0.929 . S
H753 C725 0.929 . S
H754 C727 0.931 . S
H755 C728 0.930 . S
H756 C733 0.929 . S
H757 C734 0.929 . S
H758 C736 0.931 . S
H759 C737 0.930 . S
Pr760 C762 2.880 . S
Pr760 O780 2.562 . S
Pr760 O781 2.490 . S
Pr760 O782 2.695 . S
Pr760 O783 2.512 . S
Pr760 O785 2.437 . S
Pr760 O788 2.436 . S
Pr760 O790 2.438 . S
Pr761 C771 2.880 . S
Pr761 O782 2.436 . S
Pr761 O784 2.438 . S
Pr761 O786 2.562 . S
Pr761 O787 2.490 . S
Pr761 O788 2.695 . S
Pr761 O789 2.512 . S
Pr761 O791 2.437 . S
C762 Pr760 2.880 . S
C762 C763 1.491 . S
C762 O780 1.254 . S
C762 O781 1.225 . S
C763 C762 1.491 . S
C763 C764 1.392 . S
C763 C768 1.356 . S
C764 C763 1.392 . S
C764 C765 1.368 . S
C764 H792 0.929 . S
C765 C764 1.368 . S
C765 C766 1.386 . S
C765 H793 0.929 . S
C766 C765 1.386 . S
C766 C767 1.373 . S
C767 C766 1.373 . S
C767 C768 1.409 . S
C767 H794 0.931 . S
C768 C763 1.356 . S
C768 C767 1.409 . S
C768 H795 0.930 . S
C769 O782 1.270 . S
C769 O783 1.248 . S
C770 O784 1.267 . S
C770 O785 1.278 . S
C771 Pr761 2.880 . S
C771 C772 1.491 . S
C771 O786 1.254 . S
C771 O787 1.225 . S
C772 C771 1.491 . S
C772 C773 1.392 . S
C772 C777 1.356 . S
C773 C772 1.392 . S
C773 C774 1.368 . S
C773 H796 0.929 . S
C774 C773 1.368 . S
C774 C775 1.386 . S
C774 H797 0.929 . S
C775 C774 1.386 . S
C775 C776 1.373 . S
C776 C775 1.373 . S
C776 C777 1.409 . S
C776 H798 0.931 . S
C777 C772 1.356 . S
C777 C776 1.409 . S
C777 H799 0.930 . S
C778 O788 1.270 . S
C778 O789 1.248 . S
C779 O790 1.267 . S
C779 O791 1.278 . S
O780 Pr760 2.562 . S
O780 C762 1.254 . S
O781 Pr760 2.490 . S
O781 C762 1.225 . S
O782 Pr760 2.695 . S
O782 Pr761 2.436 . S
O782 C769 1.270 . S
O783 Pr760 2.512 . S
O783 C769 1.248 . S
O784 Pr761 2.438 . S
O784 C770 1.267 . S
O785 Pr760 2.437 . S
O785 C770 1.278 . S
O786 Pr761 2.562 . S
O786 C771 1.254 . S
O787 Pr761 2.490 . S
O787 C771 1.225 . S
O788 Pr760 2.436 . S
O788 Pr761 2.695 . S
O788 C778 1.270 . S
O789 Pr761 2.512 . S
O789 C778 1.248 . S
O790 Pr760 2.438 . S
O790 C779 1.267 . S
O791 Pr761 2.437 . S
O791 C779 1.278 . S
H792 C764 0.929 . S
H793 C765 0.929 . S
H794 C767 0.931 . S
H795 C768 0.930 . S
H796 C773 0.929 . S
H797 C774 0.929 . S
H798 C776 0.931 . S
H799 C777 0.930 . S
Pr800 C802 2.880 . S
Pr800 O820 2.562 . S
Pr800 O821 2.490 . S
Pr800 O822 2.695 . S
Pr800 O823 2.512 . S
Pr800 O825 2.437 . S
Pr800 O828 2.436 . S
Pr800 O830 2.438 . S
Pr801 C811 2.880 . S
Pr801 O822 2.436 . S
Pr801 O824 2.438 . S
Pr801 O826 2.562 . S
Pr801 O827 2.490 . S
Pr801 O828 2.695 . S
Pr801 O829 2.512 . S
Pr801 O831 2.437 . S
C802 Pr800 2.880 . S
C802 C803 1.491 . S
C802 O820 1.254 . S
C802 O821 1.225 . S
C803 C802 1.491 . S
C803 C804 1.392 . S
C803 C808 1.356 . S
C804 C803 1.392 . S
C804 C805 1.368 . S
C804 H832 0.929 . S
C805 C804 1.368 . S
C805 C806 1.386 . S
C805 H833 0.929 . S
C806 C805 1.386 . S
C806 C807 1.373 . S
C807 C806 1.373 . S
C807 C808 1.409 . S
C807 H834 0.931 . S
C808 C803 1.356 . S
C808 C807 1.409 . S
C808 H835 0.930 . S
C809 O822 1.270 . S
C809 O823 1.248 . S
C810 O824 1.267 . S
C810 O825 1.278 . S
C811 Pr801 2.880 . S
C811 C812 1.491 . S
C811 O826 1.254 . S
C811 O827 1.225 . S
C812 C811 1.491 . S
C812 C813 1.392 . S
C812 C817 1.356 . S
C813 C812 1.392 . S
C813 C814 1.368 . S
C813 H836 0.929 . S
C814 C813 1.368 . S
C814 C815 1.386 . S
C814 H837 0.929 . S
C815 C814 1.386 . S
C815 C816 1.373 . S
C816 C815 1.373 . S
C816 C817 1.409 . S
C816 H838 0.931 . S
C817 C812 1.356 . S
C817 C816 1.409 . S
C817 H839 0.930 . S
C818 O828 1.270 . S
C818 O829 1.248 . S
C819 O830 1.267 . S
C819 O831 1.278 . S
O820 Pr800 2.562 . S
O820 C802 1.254 . S
O821 Pr800 2.490 . S
O821 C802 1.225 . S
O822 Pr800 2.695 . S
O822 Pr801 2.436 . S
O822 C809 1.270 . S
O823 Pr800 2.512 . S
O823 C809 1.248 . S
O824 Pr801 2.438 . S
O824 C810 1.267 . S
O825 Pr800 2.437 . S
O825 C810 1.278 . S
O826 Pr801 2.562 . S
O826 C811 1.254 . S
O827 Pr801 2.490 . S
O827 C811 1.225 . S
O828 Pr800 2.436 . S
O828 Pr801 2.695 . S
O828 C818 1.270 . S
O829 Pr801 2.512 . S
O829 C818 1.248 . S
O830 Pr800 2.438 . S
O830 C819 1.267 . S
O831 Pr801 2.437 . S
O831 C819 1.278 . S
H832 C804 0.929 . S
H833 C805 0.929 . S
H834 C807 0.931 . S
H835 C808 0.930 . S
H836 C813 0.929 . S
H837 C814 0.929 . S
H838 C816 0.931 . S
H839 C817 0.930 . S
Pr840 C842 2.880 . S
Pr840 O860 2.562 . S
Pr840 O861 2.490 . S
Pr840 O862 2.695 . S
Pr840 O863 2.512 . S
Pr840 O865 2.437 . S
Pr840 O868 2.436 . S
Pr840 O870 2.438 1_556 S
Pr841 C851 2.880 . S
Pr841 O862 2.436 1_554 S
Pr841 O864 2.438 1_554 S
Pr841 O866 2.562 . S
Pr841 O867 2.490 . S
Pr841 O868 2.695 1_554 S
Pr841 O869 2.512 1_554 S
Pr841 O871 2.437 . S
C842 Pr840 2.880 . S
C842 C843 1.491 . S
C842 O860 1.254 . S
C842 O861 1.225 . S
C843 C842 1.491 . S
C843 C844 1.392 . S
C843 C848 1.356 . S
C844 C843 1.392 . S
C844 C845 1.368 . S
C844 H872 0.929 . S
C845 C844 1.368 . S
C845 C846 1.386 . S
C845 H873 0.929 . S
C846 C845 1.386 . S
C846 C847 1.373 . S
C847 C846 1.373 . S
C847 C848 1.409 . S
C847 H874 0.931 . S
C848 C843 1.356 . S
C848 C847 1.409 . S
C848 H875 0.930 . S
C849 O862 1.270 . S
C849 O863 1.248 . S
C850 O864 1.267 . S
C850 O865 1.278 . S
C851 Pr841 2.880 . S
C851 C852 1.491 . S
C851 O866 1.254 . S
C851 O867 1.225 . S
C852 C851 1.491 . S
C852 C853 1.392 . S
C852 C857 1.356 . S
C853 C852 1.392 . S
C853 C854 1.368 . S
C853 H876 0.929 . S
C854 C853 1.368 . S
C854 C855 1.386 . S
C854 H877 0.929 . S
C855 C854 1.386 . S
C855 C856 1.373 . S
C856 C855 1.373 . S
C856 C857 1.409 . S
C856 H878 0.931 . S
C857 C852 1.356 . S
C857 C856 1.409 . S
C857 H879 0.930 . S
C858 O868 1.270 . S
C858 O869 1.248 . S
C859 O870 1.267 . S
C859 O871 1.278 . S
O860 Pr840 2.562 . S
O860 C842 1.254 . S
O861 Pr840 2.490 . S
O861 C842 1.225 . S
O862 Pr840 2.695 . S
O862 Pr841 2.436 1_556 S
O862 C849 1.270 . S
O863 Pr840 2.512 . S
O863 C849 1.248 . S
O864 Pr841 2.438 1_556 S
O864 C850 1.267 . S
O865 Pr840 2.437 . S
O865 C850 1.278 . S
O866 Pr841 2.562 . S
O866 C851 1.254 . S
O867 Pr841 2.490 . S
O867 C851 1.225 . S
O868 Pr840 2.436 . S
O868 Pr841 2.695 1_556 S
O868 C858 1.270 . S
O869 Pr841 2.512 1_556 S
O869 C858 1.248 . S
O870 Pr840 2.438 1_554 S
O870 C859 1.267 . S
O871 Pr841 2.437 . S
O871 C859 1.278 . S
H872 C844 0.929 . S
H873 C845 0.929 . S
H874 C847 0.931 . S
H875 C848 0.930 . S
H876 C853 0.929 . S
H877 C854 0.929 . S
H878 C856 0.931 . S
H879 C857 0.930 . S
Pr880 C882 2.880 . S
Pr880 O900 2.562 . S
Pr880 O901 2.490 . S
Pr880 O902 2.695 . S
Pr880 O903 2.512 . S
Pr880 O905 2.437 . S
Pr880 O908 2.436 . S
Pr880 O910 2.438 1_556 S
Pr881 C891 2.880 . S
Pr881 O902 2.436 1_554 S
Pr881 O904 2.438 1_554 S
Pr881 O906 2.562 . S
Pr881 O907 2.490 . S
Pr881 O908 2.695 1_554 S
Pr881 O909 2.512 1_554 S
Pr881 O911 2.437 . S
C882 Pr880 2.880 . S
C882 C883 1.491 . S
C882 O900 1.254 . S
C882 O901 1.225 . S
C883 C882 1.491 . S
C883 C884 1.392 . S
C883 C888 1.356 . S
C884 C883 1.392 . S
C884 C885 1.368 . S
C884 H912 0.929 . S
C885 C884 1.368 . S
C885 C886 1.386 . S
C885 H913 0.929 . S
C886 C885 1.386 . S
C886 C887 1.373 . S
C887 C886 1.373 . S
C887 C888 1.409 . S
C887 H914 0.931 . S
C888 C883 1.356 . S
C888 C887 1.409 . S
C888 H915 0.930 . S
C889 O902 1.270 . S
C889 O903 1.248 . S
C890 O904 1.267 . S
C890 O905 1.278 . S
C891 Pr881 2.880 . S
C891 C892 1.491 . S
C891 O906 1.254 . S
C891 O907 1.225 . S
C892 C891 1.491 . S
C892 C893 1.392 . S
C892 C897 1.356 . S
C893 C892 1.392 . S
C893 C894 1.368 . S
C893 H916 0.929 . S
C894 C893 1.368 . S
C894 C895 1.386 . S
C894 H917 0.929 . S
C895 C894 1.386 . S
C895 C896 1.373 . S
C896 C895 1.373 . S
C896 C897 1.409 . S
C896 H918 0.931 . S
C897 C892 1.356 . S
C897 C896 1.409 . S
C897 H919 0.930 . S
C898 O908 1.270 . S
C898 O909 1.248 . S
C899 O910 1.267 . S
C899 O911 1.278 . S
O900 Pr880 2.562 . S
O900 C882 1.254 . S
O901 Pr880 2.490 . S
O901 C882 1.225 . S
O902 Pr880 2.695 . S
O902 Pr881 2.436 1_556 S
O902 C889 1.270 . S
O903 Pr880 2.512 . S
O903 C889 1.248 . S
O904 Pr881 2.438 1_556 S
O904 C890 1.267 . S
O905 Pr880 2.437 . S
O905 C890 1.278 . S
O906 Pr881 2.562 . S
O906 C891 1.254 . S
O907 Pr881 2.490 . S
O907 C891 1.225 . S
O908 Pr880 2.436 . S
O908 Pr881 2.695 1_556 S
O908 C898 1.270 . S
O909 Pr881 2.512 1_556 S
O909 C898 1.248 . S
O910 Pr880 2.438 1_554 S
O910 C899 1.267 . S
O911 Pr881 2.437 . S
O911 C899 1.278 . S
H912 C884 0.929 . S
H913 C885 0.929 . S
H914 C887 0.931 . S
H915 C888 0.930 . S
H916 C893 0.929 . S
H917 C894 0.929 . S
H918 C896 0.931 . S
H919 C897 0.930 . S
Pr920 C922 2.880 . S
Pr920 O940 2.562 . S
Pr920 O941 2.490 . S
Pr920 O942 2.695 . S
Pr920 O943 2.512 . S
Pr920 O945 2.437 . S
Pr920 O948 2.436 . S
Pr920 O950 2.438 1_556 S
Pr921 C931 2.880 . S
Pr921 O942 2.436 1_554 S
Pr921 O944 2.438 1_554 S
Pr921 O946 2.562 . S
Pr921 O947 2.490 . S
Pr921 O948 2.695 1_554 S
Pr921 O949 2.512 1_554 S
Pr921 O951 2.437 . S
C922 Pr920 2.880 . S
C922 C923 1.491 . S
C922 O940 1.254 . S
C922 O941 1.225 . S
C923 C922 1.491 . S
C923 C924 1.392 . S
C923 C928 1.356 . S
C924 C923 1.392 . S
C924 C925 1.368 . S
C924 H952 0.929 . S
C925 C924 1.368 . S
C925 C926 1.386 . S
C925 H953 0.929 . S
C926 C925 1.386 . S
C926 C927 1.373 . S
C927 C926 1.373 . S
C927 C928 1.409 . S
C927 H954 0.931 . S
C928 C923 1.356 . S
C928 C927 1.409 . S
C928 H955 0.930 . S
C929 O942 1.270 . S
C929 O943 1.248 . S
C930 O944 1.267 . S
C930 O945 1.278 . S
C931 Pr921 2.880 . S
C931 C932 1.491 . S
C931 O946 1.254 . S
C931 O947 1.225 . S
C932 C931 1.491 . S
C932 C933 1.392 . S
C932 C937 1.356 . S
C933 C932 1.392 . S
C933 C934 1.368 . S
C933 H956 0.929 . S
C934 C933 1.368 . S
C934 C935 1.386 . S
C934 H957 0.929 . S
C935 C934 1.386 . S
C935 C936 1.373 . S
C936 C935 1.373 . S
C936 C937 1.409 . S
C936 H958 0.931 . S
C937 C932 1.356 . S
C937 C936 1.409 . S
C937 H959 0.930 . S
C938 O948 1.270 . S
C938 O949 1.248 . S
C939 O950 1.267 . S
C939 O951 1.278 . S
O940 Pr920 2.562 . S
O940 C922 1.254 . S
O941 Pr920 2.490 . S
O941 C922 1.225 . S
O942 Pr920 2.695 . S
O942 Pr921 2.436 1_556 S
O942 C929 1.270 . S
O943 Pr920 2.512 . S
O943 C929 1.248 . S
O944 Pr921 2.438 1_556 S
O944 C930 1.267 . S
O945 Pr920 2.437 . S
O945 C930 1.278 . S
O946 Pr921 2.562 . S
O946 C931 1.254 . S
O947 Pr921 2.490 . S
O947 C931 1.225 . S
O948 Pr920 2.436 . S
O948 Pr921 2.695 1_556 S
O948 C938 1.270 . S
O949 Pr921 2.512 1_556 S
O949 C938 1.248 . S
O950 Pr920 2.438 1_554 S
O950 C939 1.267 . S
O951 Pr921 2.437 . S
O951 C939 1.278 . S
H952 C924 0.929 . S
H953 C925 0.929 . S
H954 C927 0.931 . S
H955 C928 0.930 . S
H956 C933 0.929 . S
H957 C934 0.929 . S
H958 C936 0.931 . S
H959 C937 0.930 . S
Pr960 C962 2.880 . S
Pr960 O980 2.562 . S
Pr960 O981 2.490 . S
Pr960 O982 2.695 . S
Pr960 O983 2.512 . S
Pr960 O985 2.437 . S
Pr960 O988 2.436 . S
Pr960 O990 2.438 . S
Pr961 C971 2.880 . S
Pr961 O982 2.436 . S
Pr961 O984 2.438 . S
Pr961 O986 2.562 . S
Pr961 O987 2.490 . S
Pr961 O988 2.695 . S
Pr961 O989 2.512 . S
Pr961 O991 2.437 . S
C962 Pr960 2.880 . S
C962 C963 1.491 . S
C962 O980 1.254 . S
C962 O981 1.225 . S
C963 C962 1.491 . S
C963 C964 1.392 . S
C963 C968 1.356 . S
C964 C963 1.392 . S
C964 C965 1.368 1_556 S
C964 H992 0.929 . S
C965 C964 1.368 1_554 S
C965 C966 1.386 . S
C965 H993 0.929 . S
C966 C965 1.386 . S
C966 C967 1.373 . S
C967 C966 1.373 . S
C967 C968 1.409 1_554 S
C967 H994 0.931 . S
C968 C963 1.356 . S
C968 C967 1.409 1_556 S
C968 H995 0.930 . S
C969 O982 1.270 . S
C969 O983 1.248 . S
C970 O984 1.267 . S
C970 O985 1.278 . S
C971 Pr961 2.880 . S
C971 C972 1.491 . S
C971 O986 1.254 . S
C971 O987 1.225 . S
C972 C971 1.491 . S
C972 C973 1.392 . S
C972 C977 1.356 . S
C973 C972 1.392 . S
C973 C974 1.368 . S
C973 H996 0.929 . S
C974 C973 1.368 . S
C974 C975 1.386 . S
C974 H997 0.929 . S
C975 C974 1.386 . S
C975 C976 1.373 . S
C976 C975 1.373 . S
C976 C977 1.409 . S
C976 H998 0.931 . S
C977 C972 1.356 . S
C977 C976 1.409 . S
C977 H999 0.930 . S
C978 O988 1.270 . S
C978 O989 1.248 . S
C979 O990 1.267 . S
C979 O991 1.278 . S
O980 Pr960 2.562 . S
O980 C962 1.254 . S
O981 Pr960 2.490 . S
O981 C962 1.225 . S
O982 Pr960 2.695 . S
O982 Pr961 2.436 . S
O982 C969 1.270 . S
O983 Pr960 2.512 . S
O983 C969 1.248 . S
O984 Pr961 2.438 . S
O984 C970 1.267 . S
O985 Pr960 2.437 . S
O985 C970 1.278 . S
O986 Pr961 2.562 . S
O986 C971 1.254 . S
O987 Pr961 2.490 . S
O987 C971 1.225 . S
O988 Pr960 2.436 . S
O988 Pr961 2.695 . S
O988 C978 1.270 . S
O989 Pr961 2.512 . S
O989 C978 1.248 . S
O990 Pr960 2.438 . S
O990 C979 1.267 . S
O991 Pr961 2.437 . S
O991 C979 1.278 . S
H992 C964 0.929 . S
H993 C965 0.929 . S
H994 C967 0.931 . S
H995 C968 0.930 . S
H996 C973 0.929 . S
H997 C974 0.929 . S
H998 C976 0.931 . S
H999 C977 0.930 . S
Pr1000 C1002 2.880 . S
Pr1000 O1020 2.562 . S
Pr1000 O1021 2.490 . S
Pr1000 O1022 2.695 . S
Pr1000 O1023 2.512 . S
Pr1000 O1025 2.437 . S
Pr1000 O1028 2.436 . S
Pr1000 O1030 2.438 . S
Pr1001 C1011 2.880 . S
Pr1001 O1022 2.436 . S
Pr1001 O1024 2.438 . S
Pr1001 O1026 2.562 . S
Pr1001 O1027 2.490 . S
Pr1001 O1028 2.695 . S
Pr1001 O1029 2.512 . S
Pr1001 O1031 2.437 . S
C1002 Pr1000 2.880 . S
C1002 C1003 1.491 . S
C1002 O1020 1.254 . S
C1002 O1021 1.225 . S
C1003 C1002 1.491 . S
C1003 C1004 1.392 . S
C1003 C1008 1.356 . S
C1004 C1003 1.392 . S
C1004 C1005 1.368 1_556 S
C1004 H1032 0.929 . S
C1005 C1004 1.368 1_554 S
C1005 C1006 1.386 . S
C1005 H1033 0.929 . S
C1006 C1005 1.386 . S
C1006 C1007 1.373 . S
C1007 C1006 1.373 . S
C1007 C1008 1.409 1_554 S
C1007 H1034 0.931 . S
C1008 C1003 1.356 . S
C1008 C1007 1.409 1_556 S
C1008 H1035 0.930 . S
C1009 O1022 1.270 . S
C1009 O1023 1.248 . S
C1010 O1024 1.267 . S
C1010 O1025 1.278 . S
C1011 Pr1001 2.880 . S
C1011 C1012 1.491 . S
C1011 O1026 1.254 . S
C1011 O1027 1.225 . S
C1012 C1011 1.491 . S
C1012 C1013 1.392 . S
C1012 C1017 1.356 . S
C1013 C1012 1.392 . S
C1013 C1014 1.368 . S
C1013 H1036 0.929 . S
C1014 C1013 1.368 . S
C1014 C1015 1.386 . S
C1014 H1037 0.929 . S
C1015 C1014 1.386 . S
C1015 C1016 1.373 . S
C1016 C1015 1.373 . S
C1016 C1017 1.409 . S
C1016 H1038 0.931 . S
C1017 C1012 1.356 . S
C1017 C1016 1.409 . S
C1017 H1039 0.930 . S
C1018 O1028 1.270 . S
C1018 O1029 1.248 . S
C1019 O1030 1.267 . S
C1019 O1031 1.278 . S
O1020 Pr1000 2.562 . S
O1020 C1002 1.254 . S
O1021 Pr1000 2.490 . S
O1021 C1002 1.225 . S
O1022 Pr1000 2.695 . S
O1022 Pr1001 2.436 . S
O1022 C1009 1.270 . S
O1023 Pr1000 2.512 . S
O1023 C1009 1.248 . S
O1024 Pr1001 2.438 . S
O1024 C1010 1.267 . S
O1025 Pr1000 2.437 . S
O1025 C1010 1.278 . S
O1026 Pr1001 2.562 . S
O1026 C1011 1.254 . S
O1027 Pr1001 2.490 . S
O1027 C1011 1.225 . S
O1028 Pr1000 2.436 . S
O1028 Pr1001 2.695 . S
O1028 C1018 1.270 . S
O1029 Pr1001 2.512 . S
O1029 C1018 1.248 . S
O1030 Pr1000 2.438 . S
O1030 C1019 1.267 . S
O1031 Pr1001 2.437 . S
O1031 C1019 1.278 . S
H1032 C1004 0.929 . S
H1033 C1005 0.929 . S
H1034 C1007 0.931 . S
H1035 C1008 0.930 . S
H1036 C1013 0.929 . S
H1037 C1014 0.929 . S
H1038 C1016 0.931 . S
H1039 C1017 0.930 . S
Pr1040 C1042 2.880 . S
Pr1040 O1060 2.562 . S
Pr1040 O1061 2.490 . S
Pr1040 O1062 2.695 . S
Pr1040 O1063 2.512 . S
Pr1040 O1065 2.437 . S
Pr1040 O1068 2.436 . S
Pr1040 O1070 2.438 . S
Pr1041 C1051 2.880 . S
Pr1041 O1062 2.436 . S
Pr1041 O1064 2.438 . S
Pr1041 O1066 2.562 . S
Pr1041 O1067 2.490 . S
Pr1041 O1068 2.695 . S
Pr1041 O1069 2.512 . S
Pr1041 O1071 2.437 . S
C1042 Pr1040 2.880 . S
C1042 C1043 1.491 . S
C1042 O1060 1.254 . S
C1042 O1061 1.225 . S
C1043 C1042 1.491 . S
C1043 C1044 1.392 . S
C1043 C1048 1.356 . S
C1044 C1043 1.392 . S
C1044 C1045 1.368 1_556 S
C1044 H1072 0.929 . S
C1045 C1044 1.368 1_554 S
C1045 C1046 1.386 . S
C1045 H1073 0.929 . S
C1046 C1045 1.386 . S
C1046 C1047 1.373 . S
C1047 C1046 1.373 . S
C1047 C1048 1.409 1_554 S
C1047 H1074 0.931 . S
C1048 C1043 1.356 . S
C1048 C1047 1.409 1_556 S
C1048 H1075 0.930 . S
C1049 O1062 1.270 . S
C1049 O1063 1.248 . S
C1050 O1064 1.267 . S
C1050 O1065 1.278 . S
C1051 Pr1041 2.880 . S
C1051 C1052 1.491 . S
C1051 O1066 1.254 . S
C1051 O1067 1.225 . S
C1052 C1051 1.491 . S
C1052 C1053 1.392 . S
C1052 C1057 1.356 . S
C1053 C1052 1.392 . S
C1053 C1054 1.368 . S
C1053 H1076 0.929 . S
C1054 C1053 1.368 . S
C1054 C1055 1.386 . S
C1054 H1077 0.929 . S
C1055 C1054 1.386 . S
C1055 C1056 1.373 . S
C1056 C1055 1.373 . S
C1056 C1057 1.409 . S
C1056 H1078 0.931 . S
C1057 C1052 1.356 . S
C1057 C1056 1.409 . S
C1057 H1079 0.930 . S
C1058 O1068 1.270 . S
C1058 O1069 1.248 . S
C1059 O1070 1.267 . S
C1059 O1071 1.278 . S
O1060 Pr1040 2.562 . S
O1060 C1042 1.254 . S
O1061 Pr1040 2.490 . S
O1061 C1042 1.225 . S
O1062 Pr1040 2.695 . S
O1062 Pr1041 2.436 . S
O1062 C1049 1.270 . S
O1063 Pr1040 2.512 . S
O1063 C1049 1.248 . S
O1064 Pr1041 2.438 . S
O1064 C1050 1.267 . S
O1065 Pr1040 2.437 . S
O1065 C1050 1.278 . S
O1066 Pr1041 2.562 . S
O1066 C1051 1.254 . S
O1067 Pr1041 2.490 . S
O1067 C1051 1.225 . S
O1068 Pr1040 2.436 . S
O1068 Pr1041 2.695 . S
O1068 C1058 1.270 . S
O1069 Pr1041 2.512 . S
O1069 C1058 1.248 . S
O1070 Pr1040 2.438 . S
O1070 C1059 1.267 . S
O1071 Pr1041 2.437 . S
O1071 C1059 1.278 . S
H1072 C1044 0.929 . S
H1073 C1045 0.929 . S
H1074 C1047 0.931 . S
H1075 C1048 0.930 . S
H1076 C1053 0.929 . S
H1077 C1054 0.929 . S
H1078 C1056 0.931 . S
H1079 C1057 0.930 . S
Pr1080 C1082 2.880 . S
Pr1080 O1100 2.562 . S
Pr1080 O1101 2.490 . S
Pr1080 O1102 2.695 . S
Pr1080 O1103 2.512 . S
Pr1080 O1105 2.437 . S
Pr1080 O1108 2.436 . S
Pr1080 O1110 2.438 . S
Pr1081 C1091 2.880 . S
Pr1081 O1102 2.436 . S
Pr1081 O1104 2.438 . S
Pr1081 O1106 2.562 . S
Pr1081 O1107 2.490 . S
Pr1081 O1108 2.695 . S
Pr1081 O1109 2.512 . S
Pr1081 O1111 2.437 . S
C1082 Pr1080 2.880 . S
C1082 C1083 1.491 . S
C1082 O1100 1.254 . S
C1082 O1101 1.225 . S
C1083 C1082 1.491 . S
C1083 C1084 1.392 . S
C1083 C1088 1.356 . S
C1084 C1083 1.392 . S
C1084 C1085 1.368 . S
C1084 H1112 0.929 . S
C1085 C1084 1.368 . S
C1085 C1086 1.386 . S
C1085 H1113 0.929 . S
C1086 C1085 1.386 . S
C1086 C1087 1.373 . S
C1087 C1086 1.373 . S
C1087 C1088 1.409 . S
C1087 H1114 0.931 . S
C1088 C1083 1.356 . S
C1088 C1087 1.409 . S
C1088 H1115 0.930 . S
C1089 O1102 1.270 . S
C1089 O1103 1.248 . S
C1090 O1104 1.267 . S
C1090 O1105 1.278 . S
C1091 Pr1081 2.880 . S
C1091 C1092 1.491 . S
C1091 O1106 1.254 . S
C1091 O1107 1.225 . S
C1092 C1091 1.491 . S
C1092 C1093 1.392 . S
C1092 C1097 1.356 . S
C1093 C1092 1.392 . S
C1093 C1094 1.368 . S
C1093 H1116 0.929 . S
C1094 C1093 1.368 . S
C1094 C1095 1.386 . S
C1094 H1117 0.929 . S
C1095 C1094 1.386 . S
C1095 C1096 1.373 . S
C1096 C1095 1.373 . S
C1096 C1097 1.409 . S
C1096 H1118 0.931 . S
C1097 C1092 1.356 . S
C1097 C1096 1.409 . S
C1097 H1119 0.930 . S
C1098 O1108 1.270 . S
C1098 O1109 1.248 . S
C1099 O1110 1.267 . S
C1099 O1111 1.278 . S
O1100 Pr1080 2.562 . S
O1100 C1082 1.254 . S
O1101 Pr1080 2.490 . S
O1101 C1082 1.225 . S
O1102 Pr1080 2.695 . S
O1102 Pr1081 2.436 . S
O1102 C1089 1.270 . S
O1103 Pr1080 2.512 . S
O1103 C1089 1.248 . S
O1104 Pr1081 2.438 . S
O1104 C1090 1.267 . S
O1105 Pr1080 2.437 . S
O1105 C1090 1.278 . S
O1106 Pr1081 2.562 . S
O1106 C1091 1.254 . S
O1107 Pr1081 2.490 . S
O1107 C1091 1.225 . S
O1108 Pr1080 2.436 . S
O1108 Pr1081 2.695 . S
O1108 C1098 1.270 . S
O1109 Pr1081 2.512 . S
O1109 C1098 1.248 . S
O1110 Pr1080 2.438 . S
O1110 C1099 1.267 . S
O1111 Pr1081 2.437 . S
O1111 C1099 1.278 . S
H1112 C1084 0.929 . S
H1113 C1085 0.929 . S
H1114 C1087 0.931 . S
H1115 C1088 0.930 . S
H1116 C1093 0.929 . S
H1117 C1094 0.929 . S
H1118 C1096 0.931 . S
H1119 C1097 0.930 . S
Pr1120 C1122 2.880 . S
Pr1120 O1140 2.562 . S
Pr1120 O1141 2.490 . S
Pr1120 O1142 2.695 . S
Pr1120 O1143 2.512 . S
Pr1120 O1145 2.437 . S
Pr1120 O1148 2.436 . S
Pr1120 O1150 2.438 . S
Pr1121 C1131 2.880 . S
Pr1121 O1142 2.436 . S
Pr1121 O1144 2.438 . S
Pr1121 O1146 2.562 . S
Pr1121 O1147 2.490 . S
Pr1121 O1148 2.695 . S
Pr1121 O1149 2.512 . S
Pr1121 O1151 2.437 . S
C1122 Pr1120 2.880 . S
C1122 C1123 1.491 . S
C1122 O1140 1.254 . S
C1122 O1141 1.225 . S
C1123 C1122 1.491 . S
C1123 C1124 1.392 . S
C1123 C1128 1.356 . S
C1124 C1123 1.392 . S
C1124 C1125 1.368 . S
C1124 H1152 0.929 . S
C1125 C1124 1.368 . S
C1125 C1126 1.386 . S
C1125 H1153 0.929 . S
C1126 C1125 1.386 . S
C1126 C1127 1.373 . S
C1127 C1126 1.373 . S
C1127 C1128 1.409 . S
C1127 H1154 0.931 . S
C1128 C1123 1.356 . S
C1128 C1127 1.409 . S
C1128 H1155 0.930 . S
C1129 O1142 1.270 . S
C1129 O1143 1.248 . S
C1130 O1144 1.267 . S
C1130 O1145 1.278 . S
C1131 Pr1121 2.880 . S
C1131 C1132 1.491 . S
C1131 O1146 1.254 . S
C1131 O1147 1.225 . S
C1132 C1131 1.491 . S
C1132 C1133 1.392 . S
C1132 C1137 1.356 . S
C1133 C1132 1.392 . S
C1133 C1134 1.368 . S
C1133 H1156 0.929 . S
C1134 C1133 1.368 . S
C1134 C1135 1.386 . S
C1134 H1157 0.929 . S
C1135 C1134 1.386 . S
C1135 C1136 1.373 . S
C1136 C1135 1.373 . S
C1136 C1137 1.409 . S
C1136 H1158 0.931 . S
C1137 C1132 1.356 . S
C1137 C1136 1.409 . S
C1137 H1159 0.930 . S
C1138 O1148 1.270 . S
C1138 O1149 1.248 . S
C1139 O1150 1.267 . S
C1139 O1151 1.278 . S
O1140 Pr1120 2.562 . S
O1140 C1122 1.254 . S
O1141 Pr1120 2.490 . S
O1141 C1122 1.225 . S
O1142 Pr1120 2.695 . S
O1142 Pr1121 2.436 . S
O1142 C1129 1.270 . S
O1143 Pr1120 2.512 . S
O1143 C1129 1.248 . S
O1144 Pr1121 2.438 . S
O1144 C1130 1.267 . S
O1145 Pr1120 2.437 . S
O1145 C1130 1.278 . S
O1146 Pr1121 2.562 . S
O1146 C1131 1.254 . S
O1147 Pr1121 2.490 . S
O1147 C1131 1.225 . S
O1148 Pr1120 2.436 . S
O1148 Pr1121 2.695 . S
O1148 C1138 1.270 . S
O1149 Pr1121 2.512 . S
O1149 C1138 1.248 . S
O1150 Pr1120 2.438 . S
O1150 C1139 1.267 . S
O1151 Pr1121 2.437 . S
O1151 C1139 1.278 . S
H1152 C1124 0.929 . S
H1153 C1125 0.929 . S
H1154 C1127 0.931 . S
H1155 C1128 0.930 . S
H1156 C1133 0.929 . S
H1157 C1134 0.929 . S
H1158 C1136 0.931 . S
H1159 C1137 0.930 . S
Pr1160 C1162 2.880 . S
Pr1160 O1180 2.562 . S
Pr1160 O1181 2.490 . S
Pr1160 O1182 2.695 . S
Pr1160 O1183 2.512 . S
Pr1160 O1185 2.437 . S
Pr1160 O1188 2.436 . S
Pr1160 O1190 2.438 . S
Pr1161 C1171 2.880 . S
Pr1161 O1182 2.436 . S
Pr1161 O1184 2.438 . S
Pr1161 O1186 2.562 . S
Pr1161 O1187 2.490 . S
Pr1161 O1188 2.695 . S
Pr1161 O1189 2.512 . S
Pr1161 O1191 2.437 . S
C1162 Pr1160 2.880 . S
C1162 C1163 1.491 . S
C1162 O1180 1.254 . S
C1162 O1181 1.225 . S
C1163 C1162 1.491 . S
C1163 C1164 1.392 . S
C1163 C1168 1.356 . S
C1164 C1163 1.392 . S
C1164 C1165 1.368 . S
C1164 H1192 0.929 . S
C1165 C1164 1.368 . S
C1165 C1166 1.386 . S
C1165 H1193 0.929 . S
C1166 C1165 1.386 . S
C1166 C1167 1.373 . S
C1167 C1166 1.373 . S
C1167 C1168 1.409 . S
C1167 H1194 0.931 . S
C1168 C1163 1.356 . S
C1168 C1167 1.409 . S
C1168 H1195 0.930 . S
C1169 O1182 1.270 . S
C1169 O1183 1.248 . S
C1170 O1184 1.267 . S
C1170 O1185 1.278 . S
C1171 Pr1161 2.880 . S
C1171 C1172 1.491 . S
C1171 O1186 1.254 . S
C1171 O1187 1.225 . S
C1172 C1171 1.491 . S
C1172 C1173 1.392 . S
C1172 C1177 1.356 . S
C1173 C1172 1.392 . S
C1173 C1174 1.368 . S
C1173 H1196 0.929 . S
C1174 C1173 1.368 . S
C1174 C1175 1.386 . S
C1174 H1197 0.929 . S
C1175 C1174 1.386 . S
C1175 C1176 1.373 . S
C1176 C1175 1.373 . S
C1176 C1177 1.409 . S
C1176 H1198 0.931 . S
C1177 C1172 1.356 . S
C1177 C1176 1.409 . S
C1177 H1199 0.930 . S
C1178 O1188 1.270 . S
C1178 O1189 1.248 . S
C1179 O1190 1.267 . S
C1179 O1191 1.278 . S
O1180 Pr1160 2.562 . S
O1180 C1162 1.254 . S
O1181 Pr1160 2.490 . S
O1181 C1162 1.225 . S
O1182 Pr1160 2.695 . S
O1182 Pr1161 2.436 . S
O1182 C1169 1.270 . S
O1183 Pr1160 2.512 . S
O1183 C1169 1.248 . S
O1184 Pr1161 2.438 . S
O1184 C1170 1.267 . S
O1185 Pr1160 2.437 . S
O1185 C1170 1.278 . S
O1186 Pr1161 2.562 . S
O1186 C1171 1.254 . S
O1187 Pr1161 2.490 . S
O1187 C1171 1.225 . S
O1188 Pr1160 2.436 . S
O1188 Pr1161 2.695 . S
O1188 C1178 1.270 . S
O1189 Pr1161 2.512 . S
O1189 C1178 1.248 . S
O1190 Pr1160 2.438 . S
O1190 C1179 1.267 . S
O1191 Pr1161 2.437 . S
O1191 C1179 1.278 . S
H1192 C1164 0.929 . S
H1193 C1165 0.929 . S
H1194 C1167 0.931 . S
H1195 C1168 0.930 . S
H1196 C1173 0.929 . S
H1197 C1174 0.929 . S
H1198 C1176 0.931 . S
H1199 C1177 0.930 . S
Pr1200 C1202 2.880 . S
Pr1200 O1220 2.562 . S
Pr1200 O1221 2.490 . S
Pr1200 O1222 2.695 . S
Pr1200 O1223 2.512 . S
Pr1200 O1225 2.437 . S
Pr1200 O1228 2.436 . S
Pr1200 O1230 2.438 . S
Pr1201 C1211 2.880 . S
Pr1201 O1222 2.436 . S
Pr1201 O1224 2.438 . S
Pr1201 O1226 2.562 . S
Pr1201 O1227 2.490 . S
Pr1201 O1228 2.695 . S
Pr1201 O1229 2.512 . S
Pr1201 O1231 2.437 . S
C1202 Pr1200 2.880 . S
C1202 C1203 1.491 . S
C1202 O1220 1.254 . S
C1202 O1221 1.225 . S
C1203 C1202 1.491 . S
C1203 C1204 1.392 . S
C1203 C1208 1.356 . S
C1204 C1203 1.392 . S
C1204 C1205 1.368 . S
C1204 H1232 0.929 . S
C1205 C1204 1.368 . S
C1205 C1206 1.386 . S
C1205 H1233 0.929 . S
C1206 C1205 1.386 . S
C1206 C1207 1.373 . S
C1207 C1206 1.373 . S
C1207 C1208 1.409 . S
C1207 H1234 0.931 . S
C1208 C1203 1.356 . S
C1208 C1207 1.409 . S
C1208 H1235 0.930 . S
C1209 O1222 1.270 . S
C1209 O1223 1.248 . S
C1210 O1224 1.267 . S
C1210 O1225 1.278 . S
C1211 Pr1201 2.880 . S
C1211 C1212 1.491 . S
C1211 O1226 1.254 . S
C1211 O1227 1.225 . S
C1212 C1211 1.491 . S
C1212 C1213 1.392 . S
C1212 C1217 1.356 . S
C1213 C1212 1.392 . S
C1213 C1214 1.368 . S
C1213 H1236 0.929 . S
C1214 C1213 1.368 . S
C1214 C1215 1.386 . S
C1214 H1237 0.929 . S
C1215 C1214 1.386 . S
C1215 C1216 1.373 . S
C1216 C1215 1.373 . S
C1216 C1217 1.409 . S
C1216 H1238 0.931 . S
C1217 C1212 1.356 . S
C1217 C1216 1.409 . S
C1217 H1239 0.930 . S
C1218 O1228 1.270 . S
C1218 O1229 1.248 . S
C1219 O1230 1.267 . S
C1219 O1231 1.278 . S
O1220 Pr1200 2.562 . S
O1220 C1202 1.254 . S
O1221 Pr1200 2.490 . S
O1221 C1202 1.225 . S
O1222 Pr1200 2.695 . S
O1222 Pr1201 2.436 . S
O1222 C1209 1.270 . S
O1223 Pr1200 2.512 . S
O1223 C1209 1.248 . S
O1224 Pr1201 2.438 . S
O1224 C1210 1.267 . S
O1225 Pr1200 2.437 . S
O1225 C1210 1.278 . S
O1226 Pr1201 2.562 . S
O1226 C1211 1.254 . S
O1227 Pr1201 2.490 . S
O1227 C1211 1.225 . S
O1228 Pr1200 2.436 . S
O1228 Pr1201 2.695 . S
O1228 C1218 1.270 . S
O1229 Pr1201 2.512 . S
O1229 C1218 1.248 . S
O1230 Pr1200 2.438 . S
O1230 C1219 1.267 . S
O1231 Pr1201 2.437 . S
O1231 C1219 1.278 . S
H1232 C1204 0.929 . S
H1233 C1205 0.929 . S
H1234 C1207 0.931 . S
H1235 C1208 0.930 . S
H1236 C1213 0.929 . S
H1237 C1214 0.929 . S
H1238 C1216 0.931 . S
H1239 C1217 0.930 . S
Pr1240 C1242 2.880 . S
Pr1240 O1260 2.562 . S
Pr1240 O1261 2.490 . S
Pr1240 O1262 2.695 . S
Pr1240 O1263 2.512 . S
Pr1240 O1265 2.437 . S
Pr1240 O1268 2.436 . S
Pr1240 O1270 2.438 . S
Pr1241 C1251 2.880 . S
Pr1241 O1262 2.436 . S
Pr1241 O1264 2.438 . S
Pr1241 O1266 2.562 . S
Pr1241 O1267 2.490 . S
Pr1241 O1268 2.695 . S
Pr1241 O1269 2.512 . S
Pr1241 O1271 2.437 . S
C1242 Pr1240 2.880 . S
C1242 C1243 1.491 . S
C1242 O1260 1.254 . S
C1242 O1261 1.225 . S
C1243 C1242 1.491 . S
C1243 C1244 1.392 . S
C1243 C1248 1.356 . S
C1244 C1243 1.392 . S
C1244 C1245 1.368 . S
C1244 H1272 0.929 . S
C1245 C1244 1.368 . S
C1245 C1246 1.386 . S
C1245 H1273 0.929 . S
C1246 C1245 1.386 . S
C1246 C1247 1.373 . S
C1247 C1246 1.373 . S
C1247 C1248 1.409 . S
C1247 H1274 0.931 . S
C1248 C1243 1.356 . S
C1248 C1247 1.409 . S
C1248 H1275 0.930 . S
C1249 O1262 1.270 . S
C1249 O1263 1.248 . S
C1250 O1264 1.267 . S
C1250 O1265 1.278 . S
C1251 Pr1241 2.880 . S
C1251 C1252 1.491 . S
C1251 O1266 1.254 . S
C1251 O1267 1.225 . S
C1252 C1251 1.491 . S
C1252 C1253 1.392 . S
C1252 C1257 1.356 . S
C1253 C1252 1.392 . S
C1253 C1254 1.368 . S
C1253 H1276 0.929 . S
C1254 C1253 1.368 . S
C1254 C1255 1.386 . S
C1254 H1277 0.929 . S
C1255 C1254 1.386 . S
C1255 C1256 1.373 . S
C1256 C1255 1.373 . S
C1256 C1257 1.409 . S
C1256 H1278 0.931 . S
C1257 C1252 1.356 . S
C1257 C1256 1.409 . S
C1257 H1279 0.930 . S
C1258 O1268 1.270 . S
C1258 O1269 1.248 . S
C1259 O1270 1.267 . S
C1259 O1271 1.278 . S
O1260 Pr1240 2.562 . S
O1260 C1242 1.254 . S
O1261 Pr1240 2.490 . S
O1261 C1242 1.225 . S
O1262 Pr1240 2.695 . S
O1262 Pr1241 2.436 . S
O1262 C1249 1.270 . S
O1263 Pr1240 2.512 . S
O1263 C1249 1.248 . S
O1264 Pr1241 2.438 . S
O1264 C1250 1.267 . S
O1265 Pr1240 2.437 . S
O1265 C1250 1.278 . S
O1266 Pr1241 2.562 . S
O1266 C1251 1.254 . S
O1267 Pr1241 2.490 . S
O1267 C1251 1.225 . S
O1268 Pr1240 2.436 . S
O1268 Pr1241 2.695 . S
O1268 C1258 1.270 . S
O1269 Pr1241 2.512 . S
O1269 C1258 1.248 . S
O1270 Pr1240 2.438 . S
O1270 C1259 1.267 . S
O1271 Pr1241 2.437 . S
O1271 C1259 1.278 . S
H1272 C1244 0.929 . S
H1273 C1245 0.929 . S
H1274 C1247 0.931 . S
H1275 C1248 0.930 . S
H1276 C1253 0.929 . S
H1277 C1254 0.929 . S
H1278 C1256 0.931 . S
H1279 C1257 0.930 . S
Pr1280 C1282 2.880 . S
Pr1280 O1300 2.562 . S
Pr1280 O1301 2.490 . S
Pr1280 O1302 2.695 . S
Pr1280 O1303 2.512 . S
Pr1280 O1305 2.437 . S
Pr1280 O1308 2.436 . S
Pr1280 O1310 2.438 . S
Pr1281 C1291 2.880 . S
Pr1281 O1302 2.436 . S
Pr1281 O1304 2.438 . S
Pr1281 O1306 2.562 . S
Pr1281 O1307 2.490 . S
Pr1281 O1308 2.695 . S
Pr1281 O1309 2.512 . S
Pr1281 O1311 2.437 . S
C1282 Pr1280 2.880 . S
C1282 C1283 1.491 . S
C1282 O1300 1.254 . S
C1282 O1301 1.225 . S
C1283 C1282 1.491 . S
C1283 C1284 1.392 . S
C1283 C1288 1.356 . S
C1284 C1283 1.392 . S
C1284 C1285 1.368 . S
C1284 H1312 0.929 . S
C1285 C1284 1.368 . S
C1285 C1286 1.386 . S
C1285 H1313 0.929 . S
C1286 C1285 1.386 . S
C1286 C1287 1.373 . S
C1287 C1286 1.373 . S
C1287 C1288 1.409 . S
C1287 H1314 0.931 . S
C1288 C1283 1.356 . S
C1288 C1287 1.409 . S
C1288 H1315 0.930 . S
C1289 O1302 1.270 . S
C1289 O1303 1.248 . S
C1290 O1304 1.267 . S
C1290 O1305 1.278 . S
C1291 Pr1281 2.880 . S
C1291 C1292 1.491 . S
C1291 O1306 1.254 . S
C1291 O1307 1.225 . S
C1292 C1291 1.491 . S
C1292 C1293 1.392 . S
C1292 C1297 1.356 . S
C1293 C1292 1.392 . S
C1293 C1294 1.368 . S
C1293 H1316 0.929 . S
C1294 C1293 1.368 . S
C1294 C1295 1.386 . S
C1294 H1317 0.929 . S
C1295 C1294 1.386 . S
C1295 C1296 1.373 . S
C1296 C1295 1.373 . S
C1296 C1297 1.409 . S
C1296 H1318 0.931 . S
C1297 C1292 1.356 . S
C1297 C1296 1.409 . S
C1297 H1319 0.930 . S
C1298 O1308 1.270 . S
C1298 O1309 1.248 . S
C1299 O1310 1.267 . S
C1299 O1311 1.278 . S
O1300 Pr1280 2.562 . S
O1300 C1282 1.254 . S
O1301 Pr1280 2.490 . S
O1301 C1282 1.225 . S
O1302 Pr1280 2.695 . S
O1302 Pr1281 2.436 . S
O1302 C1289 1.270 . S
O1303 Pr1280 2.512 . S
O1303 C1289 1.248 . S
O1304 Pr1281 2.438 . S
O1304 C1290 1.267 . S
O1305 Pr1280 2.437 . S
O1305 C1290 1.278 . S
O1306 Pr1281 2.562 . S
O1306 C1291 1.254 . S
O1307 Pr1281 2.490 . S
O1307 C1291 1.225 . S
O1308 Pr1280 2.436 . S
O1308 Pr1281 2.695 . S
O1308 C1298 1.270 . S
O1309 Pr1281 2.512 . S
O1309 C1298 1.248 . S
O1310 Pr1280 2.438 . S
O1310 C1299 1.267 . S
O1311 Pr1281 2.437 . S
O1311 C1299 1.278 . S
H1312 C1284 0.929 . S
H1313 C1285 0.929 . S
H1314 C1287 0.931 . S
H1315 C1288 0.930 . S
H1316 C1293 0.929 . S
H1317 C1294 0.929 . S
H1318 C1296 0.931 . S
H1319 C1297 0.930 . S
Pr1320 C1322 2.880 . S
Pr1320 O1340 2.562 . S
Pr1320 O1341 2.490 . S
Pr1320 O1342 2.695 . S
Pr1320 O1343 2.512 . S
Pr1320 O1345 2.437 . S
Pr1320 O1348 2.436 . S
Pr1320 O1350 2.438 . S
Pr1321 C1331 2.880 . S
Pr1321 O1342 2.436 . S
Pr1321 O1344 2.438 . S
Pr1321 O1346 2.562 . S
Pr1321 O1347 2.490 . S
Pr1321 O1348 2.695 . S
Pr1321 O1349 2.512 . S
Pr1321 O1351 2.437 . S
C1322 Pr1320 2.880 . S
C1322 C1323 1.491 . S
C1322 O1340 1.254 . S
C1322 O1341 1.225 . S
C1323 C1322 1.491 . S
C1323 C1324 1.392 . S
C1323 C1328 1.356 . S
C1324 C1323 1.392 . S
C1324 C1325 1.368 . S
C1324 H1352 0.929 . S
C1325 C1324 1.368 . S
C1325 C1326 1.386 . S
C1325 H1353 0.929 . S
C1326 C1325 1.386 . S
C1326 C1327 1.373 . S
C1327 C1326 1.373 . S
C1327 C1328 1.409 . S
C1327 H1354 0.931 . S
C1328 C1323 1.356 . S
C1328 C1327 1.409 . S
C1328 H1355 0.930 . S
C1329 O1342 1.270 . S
C1329 O1343 1.248 . S
C1330 O1344 1.267 . S
C1330 O1345 1.278 . S
C1331 Pr1321 2.880 . S
C1331 C1332 1.491 . S
C1331 O1346 1.254 . S
C1331 O1347 1.225 . S
C1332 C1331 1.491 . S
C1332 C1333 1.392 . S
C1332 C1337 1.356 . S
C1333 C1332 1.392 . S
C1333 C1334 1.368 . S
C1333 H1356 0.929 . S
C1334 C1333 1.368 . S
C1334 C1335 1.386 . S
C1334 H1357 0.929 . S
C1335 C1334 1.386 . S
C1335 C1336 1.373 . S
C1336 C1335 1.373 . S
C1336 C1337 1.409 . S
C1336 H1358 0.931 . S
C1337 C1332 1.356 . S
C1337 C1336 1.409 . S
C1337 H1359 0.930 . S
C1338 O1348 1.270 . S
C1338 O1349 1.248 . S
C1339 O1350 1.267 . S
C1339 O1351 1.278 . S
O1340 Pr1320 2.562 . S
O1340 C1322 1.254 . S
O1341 Pr1320 2.490 . S
O1341 C1322 1.225 . S
O1342 Pr1320 2.695 . S
O1342 Pr1321 2.436 . S
O1342 C1329 1.270 . S
O1343 Pr1320 2.512 . S
O1343 C1329 1.248 . S
O1344 Pr1321 2.438 . S
O1344 C1330 1.267 . S
O1345 Pr1320 2.437 . S
O1345 C1330 1.278 . S
O1346 Pr1321 2.562 . S
O1346 C1331 1.254 . S
O1347 Pr1321 2.490 . S
O1347 C1331 1.225 . S
O1348 Pr1320 2.436 . S
O1348 Pr1321 2.695 . S
O1348 C1338 1.270 . S
O1349 Pr1321 2.512 . S
O1349 C1338 1.248 . S
O1350 Pr1320 2.438 . S
O1350 C1339 1.267 . S
O1351 Pr1321 2.437 . S
O1351 C1339 1.278 . S
H1352 C1324 0.929 . S
H1353 C1325 0.929 . S
H1354 C1327 0.931 . S
H1355 C1328 0.930 . S
H1356 C1333 0.929 . S
H1357 C1334 0.929 . S
H1358 C1336 0.931 . S
H1359 C1337 0.930 . S
Pr1360 C1362 2.880 . S
Pr1360 O1380 2.562 . S
Pr1360 O1381 2.490 . S
Pr1360 O1382 2.695 . S
Pr1360 O1383 2.512 . S
Pr1360 O1385 2.437 . S
Pr1360 O1388 2.436 . S
Pr1360 O1390 2.438 . S
Pr1361 C1371 2.880 . S
Pr1361 O1382 2.436 . S
Pr1361 O1384 2.438 . S
Pr1361 O1386 2.562 . S
Pr1361 O1387 2.490 . S
Pr1361 O1388 2.695 . S
Pr1361 O1389 2.512 . S
Pr1361 O1391 2.437 . S
C1362 Pr1360 2.880 . S
C1362 C1363 1.491 . S
C1362 O1380 1.254 . S
C1362 O1381 1.225 . S
C1363 C1362 1.491 . S
C1363 C1364 1.392 . S
C1363 C1368 1.356 . S
C1364 C1363 1.392 . S
C1364 C1365 1.368 . S
C1364 H1392 0.929 . S
C1365 C1364 1.368 . S
C1365 C1366 1.386 . S
C1365 H1393 0.929 . S
C1366 C1365 1.386 . S
C1366 C1367 1.373 . S
C1367 C1366 1.373 . S
C1367 C1368 1.409 . S
C1367 H1394 0.931 . S
C1368 C1363 1.356 . S
C1368 C1367 1.409 . S
C1368 H1395 0.930 . S
C1369 O1382 1.270 . S
C1369 O1383 1.248 . S
C1370 O1384 1.267 . S
C1370 O1385 1.278 . S
C1371 Pr1361 2.880 . S
C1371 C1372 1.491 . S
C1371 O1386 1.254 . S
C1371 O1387 1.225 . S
C1372 C1371 1.491 . S
C1372 C1373 1.392 . S
C1372 C1377 1.356 . S
C1373 C1372 1.392 . S
C1373 C1374 1.368 . S
C1373 H1396 0.929 . S
C1374 C1373 1.368 . S
C1374 C1375 1.386 . S
C1374 H1397 0.929 . S
C1375 C1374 1.386 . S
C1375 C1376 1.373 . S
C1376 C1375 1.373 . S
C1376 C1377 1.409 . S
C1376 H1398 0.931 . S
C1377 C1372 1.356 . S
C1377 C1376 1.409 . S
C1377 H1399 0.930 . S
C1378 O1388 1.270 . S
C1378 O1389 1.248 . S
C1379 O1390 1.267 . S
C1379 O1391 1.278 . S
O1380 Pr1360 2.562 . S
O1380 C1362 1.254 . S
O1381 Pr1360 2.490 . S
O1381 C1362 1.225 . S
O1382 Pr1360 2.695 . S
O1382 Pr1361 2.436 . S
O1382 C1369 1.270 . S
O1383 Pr1360 2.512 . S
O1383 C1369 1.248 . S
O1384 Pr1361 2.438 . S
O1384 C1370 1.267 . S
O1385 Pr1360 2.437 . S
O1385 C1370 1.278 . S
O1386 Pr1361 2.562 . S
O1386 C1371 1.254 . S
O1387 Pr1361 2.490 . S
O1387 C1371 1.225 . S
O1388 Pr1360 2.436 . S
O1388 Pr1361 2.695 . S
O1388 C1378 1.270 . S
O1389 Pr1361 2.512 . S
O1389 C1378 1.248 . S
O1390 Pr1360 2.438 . S
O1390 C1379 1.267 . S
O1391 Pr1361 2.437 . S
O1391 C1379 1.278 . S
H1392 C1364 0.929 . S
H1393 C1365 0.929 . S
H1394 C1367 0.931 . S
H1395 C1368 0.930 . S
H1396 C1373 0.929 . S
H1397 C1374 0.929 . S
H1398 C1376 0.931 . S
H1399 C1377 0.930 . S
Pr1400 C1402 2.880 . S
Pr1400 O1420 2.562 . S
Pr1400 O1421 2.490 . S
Pr1400 O1422 2.695 . S
Pr1400 O1423 2.512 . S
Pr1400 O1425 2.437 . S
Pr1400 O1428 2.436 . S
Pr1400 O1430 2.438 . S
Pr1401 C1411 2.880 . S
Pr1401 O1422 2.436 . S
Pr1401 O1424 2.438 . S
Pr1401 O1426 2.562 . S
Pr1401 O1427 2.490 . S
Pr1401 O1428 2.695 . S
Pr1401 O1429 2.512 . S
Pr1401 O1431 2.437 . S
C1402 Pr1400 2.880 . S
C1402 C1403 1.491 . S
C1402 O1420 1.254 . S
C1402 O1421 1.225 . S
C1403 C1402 1.491 . S
C1403 C1404 1.392 . S
C1403 C1408 1.356 . S
C1404 C1403 1.392 . S
C1404 C1405 1.368 . S
C1404 H1432 0.929 . S
C1405 C1404 1.368 . S
C1405 C1406 1.386 . S
C1405 H1433 0.929 . S
C1406 C1405 1.386 . S
C1406 C1407 1.373 . S
C1407 C1406 1.373 . S
C1407 C1408 1.409 . S
C1407 H1434 0.931 . S
C1408 C1403 1.356 . S
C1408 C1407 1.409 . S
C1408 H1435 0.930 . S
C1409 O1422 1.270 . S
C1409 O1423 1.248 . S
C1410 O1424 1.267 . S
C1410 O1425 1.278 . S
C1411 Pr1401 2.880 . S
C1411 C1412 1.491 . S
C1411 O1426 1.254 . S
C1411 O1427 1.225 . S
C1412 C1411 1.491 . S
C1412 C1413 1.392 . S
C1412 C1417 1.356 . S
C1413 C1412 1.392 . S
C1413 C1414 1.368 . S
C1413 H1436 0.929 . S
C1414 C1413 1.368 . S
C1414 C1415 1.386 . S
C1414 H1437 0.929 . S
C1415 C1414 1.386 . S
C1415 C1416 1.373 . S
C1416 C1415 1.373 . S
C1416 C1417 1.409 . S
C1416 H1438 0.931 . S
C1417 C1412 1.356 . S
C1417 C1416 1.409 . S
C1417 H1439 0.930 . S
C1418 O1428 1.270 . S
C1418 O1429 1.248 . S
C1419 O1430 1.267 . S
C1419 O1431 1.278 . S
O1420 Pr1400 2.562 . S
O1420 C1402 1.254 . S
O1421 Pr1400 2.490 . S
O1421 C1402 1.225 . S
O1422 Pr1400 2.695 . S
O1422 Pr1401 2.436 . S
O1422 C1409 1.270 . S
O1423 Pr1400 2.512 . S
O1423 C1409 1.248 . S
O1424 Pr1401 2.438 . S
O1424 C1410 1.267 . S
O1425 Pr1400 2.437 . S
O1425 C1410 1.278 . S
O1426 Pr1401 2.562 . S
O1426 C1411 1.254 . S
O1427 Pr1401 2.490 . S
O1427 C1411 1.225 . S
O1428 Pr1400 2.436 . S
O1428 Pr1401 2.695 . S
O1428 C1418 1.270 . S
O1429 Pr1401 2.512 . S
O1429 C1418 1.248 . S
O1430 Pr1400 2.438 . S
O1430 C1419 1.267 . S
O1431 Pr1401 2.437 . S
O1431 C1419 1.278 . S
H1432 C1404 0.929 . S
H1433 C1405 0.929 . S
H1434 C1407 0.931 . S
H1435 C1408 0.930 . S
H1436 C1413 0.929 . S
H1437 C1414 0.929 . S
H1438 C1416 0.931 . S
H1439 C1417 0.930 . S
H1440 C1446 0.930 . S
H1441 C1450 0.930 . S
H1442 C1455 0.929 . S
H1443 C1453 0.929 . S
H1444 C1448 0.929 . S
H1445 C1454 0.929 . S
C1446 H1440 0.930 . S
C1446 C1447 1.367 . S
C1446 C1454 1.378 . S
C1447 C1446 1.367 . S
C1447 C1455 1.433 . S
C1448 H1444 0.929 . S
C1448 C1450 1.378 . S
C1448 C1452 1.350 . S
C1449 C1452 1.463 . S
C1449 C1454 1.350 1_554 S
C1449 N1457 1.427 . S
C1450 H1441 0.930 . S
C1450 C1448 1.378 . S
C1450 C1451 1.367 . S
C1451 C1450 1.367 . S
C1451 C1453 1.433 . S
C1452 C1448 1.350 . S
C1452 C1449 1.463 . S
C1452 N1456 1.427 . S
C1453 H1443 0.929 . S
C1453 C1451 1.433 . S
C1453 N1456 1.384 . S
C1454 H1445 0.929 . S
C1454 C1446 1.378 . S
C1454 C1449 1.350 1_556 S
C1455 H1442 0.929 . S
C1455 C1447 1.433 . S
C1455 N1457 1.384 1_556 S
N1456 C1452 1.427 . S
N1456 C1453 1.384 . S
N1457 C1449 1.427 . S
N1457 C1455 1.384 1_554 S
H1458 C1464 0.930 . S
H1459 C1468 0.930 . S
H1460 C1473 0.929 . S
H1461 C1471 0.929 . S
H1462 C1466 0.929 . S
H1463 C1472 0.929 . S
C1464 H1458 0.930 . S
C1464 C1465 1.367 . S
C1464 C1472 1.378 . S
C1465 C1464 1.367 . S
C1465 C1473 1.433 . S
C1466 H1462 0.929 . S
C1466 C1468 1.378 . S
C1466 C1470 1.350 . S
C1467 C1470 1.463 . S
C1467 C1472 1.350 1_554 S
C1467 N1475 1.427 . S
C1468 H1459 0.930 . S
C1468 C1466 1.378 . S
C1468 C1469 1.367 . S
C1469 C1468 1.367 . S
C1469 C1471 1.433 . S
C1470 C1466 1.350 . S
C1470 C1467 1.463 . S
C1470 N1474 1.427 . S
C1471 H1461 0.929 . S
C1471 C1469 1.433 . S
C1471 N1474 1.384 . S
C1472 H1463 0.929 . S
C1472 C1464 1.378 . S
C1472 C1467 1.350 1_556 S
C1473 H1460 0.929 . S
C1473 C1465 1.433 . S
C1473 N1475 1.384 1_556 S
N1474 C1470 1.427 . S
N1474 C1471 1.384 . S
N1475 C1467 1.427 . S
N1475 C1473 1.384 1_554 S
H1476 C1482 0.930 . S
H1477 C1486 0.930 . S
H1478 C1491 0.929 . S
H1479 C1489 0.929 . S
H1480 C1484 0.929 . S
H1481 C1490 0.929 . S
C1482 H1476 0.930 . S
C1482 C1483 1.367 . S
C1482 C1490 1.378 . S
C1483 C1482 1.367 . S
C1483 C1491 1.433 . S
C1484 H1480 0.929 . S
C1484 C1486 1.378 . S
C1484 C1488 1.350 1_556 S
C1485 C1488 1.463 . S
C1485 C1490 1.350 . S
C1485 N1493 1.427 . S
C1486 H1477 0.930 . S
C1486 C1484 1.378 . S
C1486 C1487 1.367 . S
C1487 C1486 1.367 . S
C1487 C1489 1.433 . S
C1488 C1484 1.350 1_554 S
C1488 C1485 1.463 . S
C1488 N1492 1.427 . S
C1489 H1479 0.929 . S
C1489 C1487 1.433 . S
C1489 N1492 1.384 1_556 S
C1490 H1481 0.929 . S
C1490 C1482 1.378 . S
C1490 C1485 1.350 . S
C1491 H1478 0.929 . S
C1491 C1483 1.433 . S
C1491 N1493 1.384 . S
N1492 C1488 1.427 . S
N1492 C1489 1.384 1_554 S
N1493 C1485 1.427 . S
N1493 C1491 1.384 . S
H1494 C1500 0.930 . S
H1495 C1504 0.930 . S
H1496 C1509 0.929 . S
H1497 C1507 0.929 . S
H1498 C1502 0.929 . S
H1499 C1508 0.929 . S
C1500 H1494 0.930 . S
C1500 C1501 1.367 . S
C1500 C1508 1.378 . S
C1501 C1500 1.367 . S
C1501 C1509 1.433 . S
C1502 H1498 0.929 . S
C1502 C1504 1.378 . S
C1502 C1506 1.350 . S
C1503 C1506 1.463 . S
C1503 C1508 1.350 . S
C1503 N1511 1.427 . S
C1504 H1495 0.930 . S
C1504 C1502 1.378 . S
C1504 C1505 1.367 . S
C1505 C1504 1.367 . S
C1505 C1507 1.433 . S
C1506 C1502 1.350 . S
C1506 C1503 1.463 . S
C1506 N1510 1.427 . S
C1507 H1497 0.929 . S
C1507 C1505 1.433 . S
C1507 N1510 1.384 . S
C1508 H1499 0.929 . S
C1508 C1500 1.378 . S
C1508 C1503 1.350 . S
C1509 H1496 0.929 . S
C1509 C1501 1.433 . S
C1509 N1511 1.384 . S
N1510 C1506 1.427 . S
N1510 C1507 1.384 . S
N1511 C1503 1.427 . S
N1511 C1509 1.384 . S
H1512 C1518 0.930 . S
H1513 C1522 0.930 . S
H1514 C1527 0.929 . S
H1515 C1525 0.929 . S
H1516 C1520 0.929 . S
H1517 C1526 0.929 . S
C1518 H1512 0.930 . S
C1518 C1519 1.367 . S
C1518 C1526 1.378 . S
C1519 C1518 1.367 . S
C1519 C1527 1.433 . S
C1520 H1516 0.929 . S
C1520 C1522 1.378 . S
C1520 C1524 1.350 . S
C1521 C1524 1.463 . S
C1521 C1526 1.350 . S
C1521 N1529 1.427 . S
C1522 H1513 0.930 . S
C1522 C1520 1.378 . S
C1522 C1523 1.367 . S
C1523 C1522 1.367 . S
C1523 C1525 1.433 . S
C1524 C1520 1.350 . S
C1524 C1521 1.463 . S
C1524 N1528 1.427 . S
C1525 H1515 0.929 . S
C1525 C1523 1.433 . S
C1525 N1528 1.384 . S
C1526 H1517 0.929 . S
C1526 C1518 1.378 . S
C1526 C1521 1.350 . S
C1527 H1514 0.929 . S
C1527 C1519 1.433 . S
C1527 N1529 1.384 . S
N1528 C1524 1.427 . S
N1528 C1525 1.384 . S
N1529 C1521 1.427 . S
N1529 C1527 1.384 . S
H1530 C1536 0.930 . S
H1531 C1540 0.930 . S
H1532 C1545 0.929 . S
H1533 C1543 0.929 . S
H1534 C1538 0.929 . S
H1535 C1544 0.929 . S
C1536 H1530 0.930 . S
C1536 C1537 1.367 . S
C1536 C1544 1.378 . S
C1537 C1536 1.367 . S
C1537 C1545 1.433 . S
C1538 H1534 0.929 . S
C1538 C1540 1.378 . S
C1538 C1542 1.350 . S
C1539 C1542 1.463 . S
C1539 C1544 1.350 . S
C1539 N1547 1.427 . S
C1540 H1531 0.930 . S
C1540 C1538 1.378 . S
C1540 C1541 1.367 . S
C1541 C1540 1.367 . S
C1541 C1543 1.433 . S
C1542 C1538 1.350 . S
C1542 C1539 1.463 . S
C1542 N1546 1.427 . S
C1543 H1533 0.929 . S
C1543 C1541 1.433 . S
C1543 N1546 1.384 . S
C1544 H1535 0.929 . S
C1544 C1536 1.378 . S
C1544 C1539 1.350 . S
C1545 H1532 0.929 . S
C1545 C1537 1.433 . S
C1545 N1547 1.384 . S
N1546 C1542 1.427 . S
N1546 C1543 1.384 . S
N1547 C1539 1.427 . S
N1547 C1545 1.384 . S
H1548 C1554 0.930 . S
H1549 C1558 0.930 . S
H1550 C1563 0.929 . S
H1551 C1561 0.929 . S
H1552 C1556 0.929 . S
H1553 C1562 0.929 . S
C1554 H1548 0.930 . S
C1554 C1555 1.367 . S
C1554 C1562 1.378 . S
C1555 C1554 1.367 . S
C1555 C1563 1.433 . S
C1556 H1552 0.929 . S
C1556 C1558 1.378 . S
C1556 C1560 1.350 . S
C1557 C1560 1.463 . S
C1557 C1562 1.350 . S
C1557 N1565 1.427 . S
C1558 H1549 0.930 . S
C1558 C1556 1.378 . S
C1558 C1559 1.367 . S
C1559 C1558 1.367 . S
C1559 C1561 1.433 . S
C1560 C1556 1.350 . S
C1560 C1557 1.463 . S
C1560 N1564 1.427 . S
C1561 H1551 0.929 . S
C1561 C1559 1.433 . S
C1561 N1564 1.384 . S
C1562 H1553 0.929 . S
C1562 C1554 1.378 . S
C1562 C1557 1.350 . S
C1563 H1550 0.929 . S
C1563 C1555 1.433 . S
C1563 N1565 1.384 . S
N1564 C1560 1.427 . S
N1564 C1561 1.384 . S
N1565 C1557 1.427 . S
N1565 C1563 1.384 . S
H1566 C1572 0.930 . S
H1567 C1576 0.930 . S
H1568 C1581 0.929 . S
H1569 C1579 0.929 . S
H1570 C1574 0.929 . S
H1571 C1580 0.929 . S
C1572 H1566 0.930 . S
C1572 C1573 1.367 . S
C1572 C1580 1.378 . S
C1573 C1572 1.367 . S
C1573 C1581 1.433 . S
C1574 H1570 0.929 . S
C1574 C1576 1.378 . S
C1574 C1578 1.350 . S
C1575 C1578 1.463 . S
C1575 C1580 1.350 . S
C1575 N1583 1.427 . S
C1576 H1567 0.930 . S
C1576 C1574 1.378 . S
C1576 C1577 1.367 . S
C1577 C1576 1.367 . S
C1577 C1579 1.433 . S
C1578 C1574 1.350 . S
C1578 C1575 1.463 . S
C1578 N1582 1.427 . S
C1579 H1569 0.929 . S
C1579 C1577 1.433 . S
C1579 N1582 1.384 . S
C1580 H1571 0.929 . S
C1580 C1572 1.378 . S
C1580 C1575 1.350 . S
C1581 H1568 0.929 . S
C1581 C1573 1.433 . S
C1581 N1583 1.384 . S
N1582 C1578 1.427 . S
N1582 C1579 1.384 . S
N1583 C1575 1.427 . S
N1583 C1581 1.384 . S
H1584 C1590 0.930 . S
H1585 C1594 0.930 . S
H1586 C1599 0.929 . S
H1587 C1597 0.929 . S
H1588 C1592 0.929 . S
H1589 C1598 0.929 . S
C1590 H1584 0.930 . S
C1590 C1591 1.367 . S
C1590 C1598 1.378 . S
C1591 C1590 1.367 . S
C1591 C1599 1.433 . S
C1592 H1588 0.929 . S
C1592 C1594 1.378 . S
C1592 C1596 1.350 . S
C1593 C1596 1.463 . S
C1593 C1598 1.350 . S
C1593 N1601 1.427 . S
C1594 H1585 0.930 . S
C1594 C1592 1.378 . S
C1594 C1595 1.367 . S
C1595 C1594 1.367 . S
C1595 C1597 1.433 . S
C1596 C1592 1.350 . S
C1596 C1593 1.463 . S
C1596 N1600 1.427 . S
C1597 H1587 0.929 . S
C1597 C1595 1.433 . S
C1597 N1600 1.384 . S
C1598 H1589 0.929 . S
C1598 C1590 1.378 . S
C1598 C1593 1.350 . S
C1599 H1586 0.929 . S
C1599 C1591 1.433 . S
C1599 N1601 1.384 . S
N1600 C1596 1.427 . S
N1600 C1597 1.384 . S
N1601 C1593 1.427 . S
N1601 C1599 1.384 . S
H1602 C1608 0.930 . S
H1603 C1612 0.930 . S
H1604 C1617 0.929 . S
H1605 C1615 0.929 . S
H1606 C1610 0.929 . S
H1607 C1616 0.929 . S
C1608 H1602 0.930 . S
C1608 C1609 1.367 . S
C1608 C1616 1.378 . S
C1609 C1608 1.367 . S
C1609 C1617 1.433 . S
C1610 H1606 0.929 . S
C1610 C1612 1.378 . S
C1610 C1614 1.350 . S
C1611 C1614 1.463 . S
C1611 C1616 1.350 . S
C1611 N1619 1.427 . S
C1612 H1603 0.930 . S
C1612 C1610 1.378 . S
C1612 C1613 1.367 . S
C1613 C1612 1.367 . S
C1613 C1615 1.433 . S
C1614 C1610 1.350 . S
C1614 C1611 1.463 . S
C1614 N1618 1.427 . S
C1615 H1605 0.929 . S
C1615 C1613 1.433 . S
C1615 N1618 1.384 . S
C1616 H1607 0.929 . S
C1616 C1608 1.378 . S
C1616 C1611 1.350 . S
C1617 H1604 0.929 . S
C1617 C1609 1.433 . S
C1617 N1619 1.384 . S
N1618 C1614 1.427 . S
N1618 C1615 1.384 . S
N1619 C1611 1.427 . S
N1619 C1617 1.384 . S
H1620 C1626 0.930 . S
H1621 C1630 0.930 . S
H1622 C1635 0.929 . S
H1623 C1633 0.929 . S
H1624 C1628 0.929 . S
H1625 C1634 0.929 . S
C1626 H1620 0.930 . S
C1626 C1627 1.367 . S
C1626 C1634 1.378 . S
C1627 C1626 1.367 . S
C1627 C1635 1.433 . S
C1628 H1624 0.929 . S
C1628 C1630 1.378 . S
C1628 C1632 1.350 . S
C1629 C1632 1.463 . S
C1629 C1634 1.350 . S
C1629 N1637 1.427 . S
C1630 H1621 0.930 . S
C1630 C1628 1.378 . S
C1630 C1631 1.367 . S
C1631 C1630 1.367 . S
C1631 C1633 1.433 . S
C1632 C1628 1.350 . S
C1632 C1629 1.463 . S
C1632 N1636 1.427 . S
C1633 H1623 0.929 . S
C1633 C1631 1.433 . S
C1633 N1636 1.384 . S
C1634 H1625 0.929 . S
C1634 C1626 1.378 . S
C1634 C1629 1.350 . S
C1635 H1622 0.929 . S
C1635 C1627 1.433 . S
C1635 N1637 1.384 . S
N1636 C1632 1.427 . S
N1636 C1633 1.384 . S
N1637 C1629 1.427 . S
N1637 C1635 1.384 . S
H1638 C1644 0.930 . S
H1639 C1648 0.930 . S
H1640 C1653 0.929 . S
H1641 C1651 0.929 . S
H1642 C1646 0.929 . S
H1643 C1652 0.929 . S
C1644 H1638 0.930 . S
C1644 C1645 1.367 . S
C1644 C1652 1.378 . S
C1645 C1644 1.367 . S
C1645 C1653 1.433 . S
C1646 H1642 0.929 . S
C1646 C1648 1.378 . S
C1646 C1650 1.350 . S
C1647 C1650 1.463 . S
C1647 C1652 1.350 . S
C1647 N1655 1.427 . S
C1648 H1639 0.930 . S
C1648 C1646 1.378 . S
C1648 C1649 1.367 . S
C1649 C1648 1.367 . S
C1649 C1651 1.433 . S
C1650 C1646 1.350 . S
C1650 C1647 1.463 . S
C1650 N1654 1.427 . S
C1651 H1641 0.929 . S
C1651 C1649 1.433 . S
C1651 N1654 1.384 . S
C1652 H1643 0.929 . S
C1652 C1644 1.378 . S
C1652 C1647 1.350 . S
C1653 H1640 0.929 . S
C1653 C1645 1.433 . S
C1653 N1655 1.384 . S
N1654 C1650 1.427 . S
N1654 C1651 1.384 . S
N1655 C1647 1.427 . S
N1655 C1653 1.384 . S
H1656 C1662 0.930 . S
H1657 C1666 0.930 . S
H1658 C1671 0.929 . S
H1659 C1669 0.929 . S
H1660 C1664 0.929 . S
H1661 C1670 0.929 . S
C1662 H1656 0.930 . S
C1662 C1663 1.367 . S
C1662 C1670 1.378 . S
C1663 C1662 1.367 . S
C1663 C1671 1.433 . S
C1664 H1660 0.929 . S
C1664 C1666 1.378 . S
C1664 C1668 1.350 . S
C1665 C1668 1.463 . S
C1665 C1670 1.350 . S
C1665 N1673 1.427 . S
C1666 H1657 0.930 . S
C1666 C1664 1.378 . S
C1666 C1667 1.367 . S
C1667 C1666 1.367 . S
C1667 C1669 1.433 . S
C1668 C1664 1.350 . S
C1668 C1665 1.463 . S
C1668 N1672 1.427 . S
C1669 H1659 0.929 . S
C1669 C1667 1.433 . S
C1669 N1672 1.384 . S
C1670 H1661 0.929 . S
C1670 C1662 1.378 . S
C1670 C1665 1.350 . S
C1671 H1658 0.929 . S
C1671 C1663 1.433 . S
C1671 N1673 1.384 . S
N1672 C1668 1.427 . S
N1672 C1669 1.384 . S
N1673 C1665 1.427 . S
N1673 C1671 1.384 . S
H1674 C1680 0.930 . S
H1675 C1684 0.930 . S
H1676 C1689 0.929 . S
H1677 C1687 0.929 . S
H1678 C1682 0.929 . S
H1679 C1688 0.929 . S
C1680 H1674 0.930 . S
C1680 C1681 1.367 . S
C1680 C1688 1.378 . S
C1681 C1680 1.367 . S
C1681 C1689 1.433 . S
C1682 H1678 0.929 . S
C1682 C1684 1.378 . S
C1682 C1686 1.350 . S
C1683 C1686 1.463 1_565 S
C1683 C1688 1.350 . S
C1683 N1691 1.418 1_565 S
C1684 H1675 0.930 . S
C1684 C1682 1.378 . S
C1684 C1685 1.367 . S
C1685 C1684 1.367 . S
C1685 C1687 1.433 . S
C1686 C1682 1.350 . S
C1686 C1683 1.463 1_545 S
C1686 N1690 1.418 1_545 S
C1687 H1677 0.929 . S
C1687 C1685 1.433 . S
C1687 N1690 1.376 1_545 S
C1688 H1679 0.929 . S
C1688 C1680 1.378 . S
C1688 C1683 1.350 . S
C1689 H1676 0.929 . S
C1689 C1681 1.433 . S
C1689 N1691 1.375 1_565 S
N1690 C1686 1.418 1_565 S
N1690 C1687 1.376 1_565 S
N1691 C1683 1.418 1_545 S
N1691 C1689 1.375 1_545 S
H1692 C1698 0.930 . S
H1693 C1702 0.930 . S
H1694 C1707 0.929 . S
H1695 C1705 0.929 . S
H1696 C1700 0.929 . S
H1697 C1706 0.929 . S
C1698 H1692 0.930 . S
C1698 C1699 1.367 . S
C1698 C1706 1.378 1_655 S
C1699 C1698 1.367 . S
C1699 C1707 1.433 . S
C1700 H1696 0.929 . S
C1700 C1702 1.378 1_655 S
C1700 C1704 1.350 1_655 S
C1701 C1704 1.463 1_655 S
C1701 C1706 1.350 1_655 S
C1701 N1709 1.427 . S
C1702 H1693 0.930 . S
C1702 C1700 1.378 1_455 S
C1702 C1703 1.367 . S
C1703 C1702 1.367 . S
C1703 C1705 1.433 . S
C1704 C1700 1.350 1_455 S
C1704 C1701 1.463 1_455 S
C1704 N1708 1.427 . S
C1705 H1695 0.929 . S
C1705 C1703 1.433 . S
C1705 N1708 1.384 . S
C1706 H1697 0.929 . S
C1706 C1698 1.378 1_455 S
C1706 C1701 1.350 1_455 S
C1707 H1694 0.929 . S
C1707 C1699 1.433 . S
C1707 N1709 1.384 . S
N1708 C1704 1.427 . S
N1708 C1705 1.384 . S
N1709 C1701 1.427 . S
N1709 C1707 1.384 . S
H1710 C1716 0.930 . S
H1711 C1720 0.930 . S
H1712 C1725 0.929 . S
H1713 C1723 0.929 . S
H1714 C1718 0.929 . S
H1715 C1724 0.929 . S
C1716 H1710 0.930 . S
C1716 C1717 1.367 . S
C1716 C1724 1.378 . S
C1717 C1716 1.367 . S
C1717 C1725 1.433 . S
C1718 H1714 0.929 . S
C1718 C1720 1.378 . S
C1718 C1722 1.350 . S
C1719 C1722 1.463 . S
C1719 C1724 1.350 . S
C1719 N1727 1.427 . S
C1720 H1711 0.930 . S
C1720 C1718 1.378 . S
C1720 C1721 1.367 . S
C1721 C1720 1.367 . S
C1721 C1723 1.433 . S
C1722 C1718 1.350 . S
C1722 C1719 1.463 . S
C1722 N1726 1.427 . S
C1723 H1713 0.929 . S
C1723 C1721 1.433 . S
C1723 N1726 1.384 . S
C1724 H1715 0.929 . S
C1724 C1716 1.378 . S
C1724 C1719 1.350 . S
C1725 H1712 0.929 . S
C1725 C1717 1.433 . S
C1725 N1727 1.384 . S
N1726 C1722 1.427 . S
N1726 C1723 1.384 . S
N1727 C1719 1.427 . S
N1727 C1725 1.384 . S
H1728 C1734 0.930 . S
H1729 C1738 0.930 . S
H1730 C1743 0.929 . S
H1731 C1741 0.929 . S
H1732 C1736 0.929 . S
H1733 C1742 0.929 . S
C1734 H1728 0.930 . S
C1734 C1735 1.367 . S
C1734 C1742 1.378 . S
C1735 C1734 1.367 . S
C1735 C1743 1.433 . S
C1736 H1732 0.929 . S
C1736 C1738 1.378 . S
C1736 C1740 1.350 . S
C1737 C1740 1.463 1_545 S
C1737 C1742 1.350 . S
C1737 N1745 1.427 . S
C1738 H1729 0.930 . S
C1738 C1736 1.378 . S
C1738 C1739 1.367 . S
C1739 C1738 1.367 . S
C1739 C1741 1.433 . S
C1740 C1736 1.350 . S
C1740 C1737 1.463 1_565 S
C1740 N1744 1.427 . S
C1741 H1731 0.929 . S
C1741 C1739 1.433 . S
C1741 N1744 1.384 . S
C1742 H1733 0.929 . S
C1742 C1734 1.378 . S
C1742 C1737 1.350 . S
C1743 H1730 0.929 . S
C1743 C1735 1.433 . S
C1743 N1745 1.384 . S
N1744 C1740 1.427 . S
N1744 C1741 1.384 . S
N1745 C1737 1.427 . S
N1745 C1743 1.384 . S
H1746 C1752 0.930 . S
H1747 C1756 0.930 . S
H1748 C1761 0.929 . S
H1749 C1759 0.929 . S
H1750 C1754 0.929 . S
H1751 C1760 0.929 . S
C1752 H1746 0.930 . S
C1752 C1753 1.367 . S
C1752 C1760 1.378 . S
C1753 C1752 1.367 . S
C1753 C1761 1.433 . S
C1754 H1750 0.929 . S
C1754 C1756 1.378 . S
C1754 C1758 1.350 . S
C1755 C1758 1.463 1_455 S
C1755 C1760 1.350 . S
C1755 N1763 1.427 . S
C1756 H1747 0.930 . S
C1756 C1754 1.378 . S
C1756 C1757 1.367 . S
C1757 C1756 1.367 . S
C1757 C1759 1.433 . S
C1758 C1754 1.350 . S
C1758 C1755 1.463 1_655 S
C1758 N1762 1.427 . S
C1759 H1749 0.929 . S
C1759 C1757 1.433 . S
C1759 N1762 1.384 . S
C1760 H1751 0.929 . S
C1760 C1752 1.378 . S
C1760 C1755 1.350 . S
C1761 H1748 0.929 . S
C1761 C1753 1.433 . S
C1761 N1763 1.384 . S
N1762 C1758 1.427 . S
N1762 C1759 1.384 . S
N1763 C1755 1.427 . S
N1763 C1761 1.384 . S
H1764 C1770 0.930 . S
H1765 C1774 0.930 . S
H1766 C1779 0.929 1_655 S
H1767 C1777 0.929 1_455 S
H1768 C1772 0.929 . S
H1769 C1778 0.929 . S
C1770 H1764 0.930 . S
C1770 C1771 1.367 . S
C1770 C1778 1.378 . S
C1771 C1770 1.367 . S
C1771 C1779 1.433 . S
C1772 H1768 0.929 . S
C1772 C1774 1.378 . S
C1772 C1776 1.350 . S
C1773 C1776 1.463 1_455 S
C1773 C1778 1.350 . S
C1773 N1781 1.427 1_455 S
C1774 H1765 0.930 . S
C1774 C1772 1.378 . S
C1774 C1775 1.367 . S
C1775 C1774 1.367 . S
C1775 C1777 1.433 . S
C1776 C1772 1.350 . S
C1776 C1773 1.463 1_655 S
C1776 N1780 1.427 1_655 S
C1777 H1767 0.929 1_655 S
C1777 C1775 1.433 . S
C1777 N1780 1.384 1_655 S
C1778 H1769 0.929 . S
C1778 C1770 1.378 . S
C1778 C1773 1.350 . S
C1779 H1766 0.929 1_455 S
C1779 C1771 1.433 . S
C1779 N1781 1.384 1_455 S
N1780 C1776 1.427 1_455 S
N1780 C1777 1.384 1_455 S
N1781 C1773 1.427 1_655 S
N1781 C1779 1.384 1_655 S
H1782 C1788 0.930 . S
H1783 C1792 0.930 . S
H1784 C1797 0.929 . S
H1785 C1795 0.929 . S
H1786 C1790 0.929 . S
H1787 C1796 0.929 . S
C1788 H1782 0.930 . S
C1788 C1789 1.367 . S
C1788 C1796 1.378 . S
C1789 C1788 1.367 . S
C1789 C1797 1.433 . S
C1790 H1786 0.929 . S
C1790 C1792 1.378 . S
C1790 C1794 1.350 . S
C1791 C1794 1.463 . S
C1791 C1796 1.350 . S
C1791 N1799 1.427 . S
C1792 H1783 0.930 . S
C1792 C1790 1.378 . S
C1792 C1793 1.367 . S
C1793 C1792 1.367 . S
C1793 C1795 1.433 . S
C1794 C1790 1.350 . S
C1794 C1791 1.463 . S
C1794 N1798 1.427 . S
C1795 H1785 0.929 . S
C1795 C1793 1.433 . S
C1795 N1798 1.384 . S
C1796 H1787 0.929 . S
C1796 C1788 1.378 . S
C1796 C1791 1.350 . S
C1797 H1784 0.929 . S
C1797 C1789 1.433 . S
C1797 N1799 1.384 . S
N1798 C1794 1.427 . S
N1798 C1795 1.384 . S
N1799 C1791 1.427 . S
N1799 C1797 1.384 . S
H1800 C1806 0.930 . S
H1801 C1810 0.930 . S
H1802 C1815 0.929 . S
H1803 C1813 0.929 . S
H1804 C1808 0.929 . S
H1805 C1814 0.929 . S
C1806 H1800 0.930 . S
C1806 C1807 1.367 . S
C1806 C1814 1.378 . S
C1807 C1806 1.367 . S
C1807 C1815 1.433 . S
C1808 H1804 0.929 . S
C1808 C1810 1.378 . S
C1808 C1812 1.350 . S
C1809 C1812 1.463 1_565 S
C1809 C1814 1.350 . S
C1809 N1817 1.395 1_565 S
C1810 H1801 0.930 . S
C1810 C1808 1.378 . S
C1810 C1811 1.367 . S
C1811 C1810 1.367 . S
C1811 C1813 1.433 . S
C1812 C1808 1.350 . S
C1812 C1809 1.463 1_545 S
C1812 N1816 1.399 1_545 S
C1813 H1803 0.929 . S
C1813 C1811 1.433 . S
C1813 N1816 1.364 1_545 S
C1814 H1805 0.929 . S
C1814 C1806 1.378 . S
C1814 C1809 1.350 . S
C1815 H1802 0.929 . S
C1815 C1807 1.433 . S
C1815 N1817 1.361 1_565 S
N1816 C1812 1.399 1_565 S
N1816 C1813 1.364 1_565 S
N1817 C1809 1.395 1_545 S
N1817 C1815 1.361 1_545 S
H1818 C1824 0.930 . S
H1819 C1828 0.930 . S
H1820 C1833 0.929 . S
H1821 C1831 0.929 . S
H1822 C1826 0.929 . S
H1823 C1832 0.929 . S
C1824 H1818 0.930 . S
C1824 C1825 1.367 . S
C1824 C1832 1.378 . S
C1825 C1824 1.367 . S
C1825 C1833 1.433 . S
C1826 H1822 0.929 . S
C1826 C1828 1.378 . S
C1826 C1830 1.350 . S
C1827 C1830 1.463 1_655 S
C1827 C1832 1.350 . S
C1827 N1835 1.427 1_655 S
C1828 H1819 0.930 . S
C1828 C1826 1.378 . S
C1828 C1829 1.367 . S
C1829 C1828 1.367 . S
C1829 C1831 1.433 . S
C1830 C1826 1.350 . S
C1830 C1827 1.463 1_455 S
C1830 N1834 1.427 1_455 S
C1831 H1821 0.929 . S
C1831 C1829 1.433 . S
C1831 N1834 1.384 1_455 S
C1832 H1823 0.929 . S
C1832 C1824 1.378 . S
C1832 C1827 1.350 . S
C1833 H1820 0.929 . S
C1833 C1825 1.433 . S
C1833 N1835 1.384 1_655 S
N1834 C1830 1.427 1_655 S
N1834 C1831 1.384 1_655 S
N1835 C1827 1.427 1_455 S
N1835 C1833 1.384 1_455 S
H1836 C1842 0.930 . S
H1837 C1846 0.930 . S
H1838 C1851 0.929 . S
H1839 C1849 0.929 . S
H1840 C1844 0.929 . S
H1841 C1850 0.929 . S
C1842 H1836 0.930 . S
C1842 C1843 1.367 . S
C1842 C1850 1.378 . S
C1843 C1842 1.367 . S
C1843 C1851 1.433 . S
C1844 H1840 0.929 . S
C1844 C1846 1.378 . S
C1844 C1848 1.350 . S
C1845 C1848 1.463 . S
C1845 C1850 1.350 . S
C1845 N1853 1.427 . S
C1846 H1837 0.930 . S
C1846 C1844 1.378 . S
C1846 C1847 1.367 . S
C1847 C1846 1.367 . S
C1847 C1849 1.433 . S
C1848 C1844 1.350 . S
C1848 C1845 1.463 . S
C1848 N1852 1.427 . S
C1849 H1839 0.929 . S
C1849 C1847 1.433 . S
C1849 N1852 1.384 . S
C1850 H1841 0.929 . S
C1850 C1842 1.378 . S
C1850 C1845 1.350 . S
C1851 H1838 0.929 . S
C1851 C1843 1.433 . S
C1851 N1853 1.384 . S
N1852 C1848 1.427 . S
N1852 C1849 1.384 . S
N1853 C1845 1.427 . S
N1853 C1851 1.384 . S
H1854 C1860 0.930 . S
H1855 C1864 0.930 . S
H1856 C1869 0.929 1_565 S
H1857 C1867 0.929 1_545 S
H1858 C1862 0.929 . S
H1859 C1868 0.929 . S
C1860 H1854 0.930 . S
C1860 C1861 1.367 . S
C1860 C1868 1.378 . S
C1861 C1860 1.367 . S
C1861 C1869 1.433 . S
C1862 H1858 0.929 . S
C1862 C1864 1.378 . S
C1862 C1866 1.350 . S
C1863 C1866 1.463 1_545 S
C1863 C1868 1.350 . S
C1863 N1871 1.427 1_545 S
C1864 H1855 0.930 . S
C1864 C1862 1.378 . S
C1864 C1865 1.367 . S
C1865 C1864 1.367 . S
C1865 C1867 1.433 . S
C1866 C1862 1.350 . S
C1866 C1863 1.463 1_565 S
C1866 N1870 1.427 1_565 S
C1867 H1857 0.929 1_565 S
C1867 C1865 1.433 . S
C1867 N1870 1.384 1_565 S
C1868 H1859 0.929 . S
C1868 C1860 1.378 . S
C1868 C1863 1.350 . S
C1869 H1856 0.929 1_545 S
C1869 C1861 1.433 . S
C1869 N1871 1.384 1_545 S
N1870 C1866 1.427 1_545 S
N1870 C1867 1.384 1_545 S
N1871 C1863 1.427 1_565 S
N1871 C1869 1.384 1_565 S
H1872 C1878 0.930 . S
H1873 C1882 0.930 . S
H1874 C1887 0.929 . S
H1875 C1885 0.929 . S
H1876 C1880 0.929 . S
H1877 C1886 0.929 . S
C1878 H1872 0.930 . S
C1878 C1879 1.367 . S
C1878 C1886 1.378 . S
C1879 C1878 1.367 . S
C1879 C1887 1.433 . S
C1880 H1876 0.929 . S
C1880 C1882 1.378 . S
C1880 C1884 1.350 . S
C1881 C1884 1.463 . S
C1881 C1886 1.350 . S
C1881 N1889 1.427 . S
C1882 H1873 0.930 . S
C1882 C1880 1.378 . S
C1882 C1883 1.367 . S
C1883 C1882 1.367 . S
C1883 C1885 1.433 . S
C1884 C1880 1.350 . S
C1884 C1881 1.463 . S
C1884 N1888 1.427 . S
C1885 H1875 0.929 . S
C1885 C1883 1.433 . S
C1885 N1888 1.384 . S
C1886 H1877 0.929 . S
C1886 C1878 1.378 . S
C1886 C1881 1.350 . S
C1887 H1874 0.929 . S
C1887 C1879 1.433 . S
C1887 N1889 1.384 . S
N1888 C1884 1.427 . S
N1888 C1885 1.384 . S
N1889 C1881 1.427 . S
N1889 C1887 1.384 . S
H1890 C1896 0.930 . S
H1891 C1900 0.930 . S
H1892 C1905 0.929 . S
H1893 C1903 0.929 . S
H1894 C1898 0.929 . S
H1895 C1904 0.929 . S
C1896 H1890 0.930 . S
C1896 C1897 1.367 . S
C1896 C1904 1.378 . S
C1897 C1896 1.367 . S
C1897 C1905 1.433 . S
C1898 H1894 0.929 . S
C1898 C1900 1.378 . S
C1898 C1902 1.350 . S
C1899 C1902 1.463 . S
C1899 C1904 1.350 . S
C1899 N1907 1.427 . S
C1900 H1891 0.930 . S
C1900 C1898 1.378 . S
C1900 C1901 1.367 . S
C1901 C1900 1.367 . S
C1901 C1903 1.433 . S
C1902 C1898 1.350 . S
C1902 C1899 1.463 . S
C1902 N1906 1.427 . S
C1903 H1893 0.929 . S
C1903 C1901 1.433 . S
C1903 N1906 1.384 . S
C1904 H1895 0.929 . S
C1904 C1896 1.378 . S
C1904 C1899 1.350 . S
C1905 H1892 0.929 . S
C1905 C1897 1.433 . S
C1905 N1907 1.384 . S
N1906 C1902 1.427 . S
N1906 C1903 1.384 . S
N1907 C1899 1.427 . S
N1907 C1905 1.384 . S
H1908 C1914 0.930 . S
H1909 C1918 0.930 . S
H1910 C1923 0.929 . S
H1911 C1921 0.929 . S
H1912 C1916 0.929 . S
H1913 C1922 0.929 . S
C1914 H1908 0.930 . S
C1914 C1915 1.367 . S
C1914 C1922 1.378 . S
C1915 C1914 1.367 . S
C1915 C1923 1.433 . S
C1916 H1912 0.929 . S
C1916 C1918 1.378 . S
C1916 C1920 1.350 . S
C1917 C1920 1.463 . S
C1917 C1922 1.350 . S
C1917 N1925 1.427 . S
C1918 H1909 0.930 . S
C1918 C1916 1.378 . S
C1918 C1919 1.367 . S
C1919 C1918 1.367 . S
C1919 C1921 1.433 . S
C1920 C1916 1.350 . S
C1920 C1917 1.463 . S
C1920 N1924 1.427 . S
C1921 H1911 0.929 . S
C1921 C1919 1.433 . S
C1921 N1924 1.384 . S
C1922 H1913 0.929 . S
C1922 C1914 1.378 . S
C1922 C1917 1.350 . S
C1923 H1910 0.929 . S
C1923 C1915 1.433 . S
C1923 N1925 1.384 . S
N1924 C1920 1.427 . S
N1924 C1921 1.384 . S
N1925 C1917 1.427 . S
N1925 C1923 1.384 . S
H1926 C1932 0.930 . S
H1927 C1936 0.930 . S
H1928 C1941 0.929 . S
H1929 C1939 0.929 . S
H1930 C1934 0.929 . S
H1931 C1940 0.929 . S
C1932 H1926 0.930 . S
C1932 C1933 1.367 . S
C1932 C1940 1.378 . S
C1933 C1932 1.367 . S
C1933 C1941 1.433 . S
C1934 H1930 0.929 . S
C1934 C1936 1.378 . S
C1934 C1938 1.350 . S
C1935 C1938 1.463 . S
C1935 C1940 1.350 . S
C1935 N1943 1.427 . S
C1936 H1927 0.930 . S
C1936 C1934 1.378 . S
C1936 C1937 1.367 . S
C1937 C1936 1.367 . S
C1937 C1939 1.433 . S
C1938 C1934 1.350 . S
C1938 C1935 1.463 . S
C1938 N1942 1.427 . S
C1939 H1929 0.929 . S
C1939 C1937 1.433 . S
C1939 N1942 1.384 . S
C1940 H1931 0.929 . S
C1940 C1932 1.378 . S
C1940 C1935 1.350 . S
C1941 H1928 0.929 . S
C1941 C1933 1.433 . S
C1941 N1943 1.384 . S
N1942 C1938 1.427 . S
N1942 C1939 1.384 . S
N1943 C1935 1.427 . S
N1943 C1941 1.384 . S
H1944 C1950 0.930 . S
H1945 C1954 0.930 . S
H1946 C1959 0.929 . S
H1947 C1957 0.929 . S
H1948 C1952 0.929 . S
H1949 C1958 0.929 . S
C1950 H1944 0.930 . S
C1950 C1951 1.367 . S
C1950 C1958 1.378 . S
C1951 C1950 1.367 . S
C1951 C1959 1.433 . S
C1952 H1948 0.929 . S
C1952 C1954 1.378 . S
C1952 C1956 1.350 . S
C1953 C1956 1.463 . S
C1953 C1958 1.350 . S
C1953 N1961 1.427 . S
C1954 H1945 0.930 . S
C1954 C1952 1.378 . S
C1954 C1955 1.367 . S
C1955 C1954 1.367 . S
C1955 C1957 1.433 . S
C1956 C1952 1.350 . S
C1956 C1953 1.463 . S
C1956 N1960 1.427 . S
C1957 H1947 0.929 . S
C1957 C1955 1.433 . S
C1957 N1960 1.384 . S
C1958 H1949 0.929 . S
C1958 C1950 1.378 . S
C1958 C1953 1.350 . S
C1959 H1946 0.929 . S
C1959 C1951 1.433 . S
C1959 N1961 1.384 . S
N1960 C1956 1.427 . S
N1960 C1957 1.384 . S
N1961 C1953 1.427 . S
N1961 C1959 1.384 . S
H1962 C1968 0.930 . S
H1963 C1972 0.930 . S
H1964 C1977 0.929 . S
H1965 C1975 0.929 . S
H1966 C1970 0.929 . S
H1967 C1976 0.929 . S
C1968 H1962 0.930 . S
C1968 C1969 1.367 . S
C1968 C1976 1.378 . S
C1969 C1968 1.367 . S
C1969 C1977 1.433 . S
C1970 H1966 0.929 . S
C1970 C1972 1.378 . S
C1970 C1974 1.350 . S
C1971 C1974 1.463 . S
C1971 C1976 1.350 . S
C1971 N1979 1.427 . S
C1972 H1963 0.930 . S
C1972 C1970 1.378 . S
C1972 C1973 1.367 . S
C1973 C1972 1.367 . S
C1973 C1975 1.433 . S
C1974 C1970 1.350 . S
C1974 C1971 1.463 . S
C1974 N1978 1.427 . S
C1975 H1965 0.929 . S
C1975 C1973 1.433 . S
C1975 N1978 1.384 . S
C1976 H1967 0.929 . S
C1976 C1968 1.378 . S
C1976 C1971 1.350 . S
C1977 H1964 0.929 . S
C1977 C1969 1.433 . S
C1977 N1979 1.384 . S
N1978 C1974 1.427 . S
N1978 C1975 1.384 . S
N1979 C1971 1.427 . S
N1979 C1977 1.384 . S
H1980 C1986 0.930 . S
H1981 C1990 0.930 . S
H1982 C1995 0.929 . S
H1983 C1993 0.929 . S
H1984 C1988 0.929 . S
H1985 C1994 0.929 . S
C1986 H1980 0.930 . S
C1986 C1987 1.367 . S
C1986 C1994 1.378 . S
C1987 C1986 1.367 . S
C1987 C1995 1.433 . S
C1988 H1984 0.929 . S
C1988 C1990 1.378 . S
C1988 C1992 1.350 . S
C1989 C1992 1.463 . S
C1989 C1994 1.350 . S
C1989 N1997 1.427 . S
C1990 H1981 0.930 . S
C1990 C1988 1.378 . S
C1990 C1991 1.367 . S
C1991 C1990 1.367 . S
C1991 C1993 1.433 . S
C1992 C1988 1.350 . S
C1992 C1989 1.463 . S
C1992 N1996 1.427 . S
C1993 H1983 0.929 . S
C1993 C1991 1.433 . S
C1993 N1996 1.384 . S
C1994 H1985 0.929 . S
C1994 C1986 1.378 . S
C1994 C1989 1.350 . S
C1995 H1982 0.929 . S
C1995 C1987 1.433 . S
C1995 N1997 1.384 . S
N1996 C1992 1.427 . S
N1996 C1993 1.384 . S
N1997 C1989 1.427 . S
N1997 C1995 1.384 . S
H1998 C2004 0.930 . S
H1999 C2008 0.930 . S
H2000 C2013 0.929 . S
H2001 C2011 0.929 . S
H2002 C2006 0.929 . S
H2003 C2012 0.929 . S
C2004 H1998 0.930 . S
C2004 C2005 1.367 . S
C2004 C2012 1.378 . S
C2005 C2004 1.367 . S
C2005 C2013 1.433 . S
C2006 H2002 0.929 . S
C2006 C2008 1.378 . S
C2006 C2010 1.350 . S
C2007 C2010 1.463 . S
C2007 C2012 1.350 . S
C2007 N2015 1.427 . S
C2008 H1999 0.930 . S
C2008 C2006 1.378 . S
C2008 C2009 1.367 . S
C2009 C2008 1.367 . S
C2009 C2011 1.433 . S
C2010 C2006 1.350 . S
C2010 C2007 1.463 . S
C2010 N2014 1.427 . S
C2011 H2001 0.929 . S
C2011 C2009 1.433 . S
C2011 N2014 1.384 . S
C2012 H2003 0.929 . S
C2012 C2004 1.378 . S
C2012 C2007 1.350 . S
C2013 H2000 0.929 . S
C2013 C2005 1.433 . S
C2013 N2015 1.384 . S
N2014 C2010 1.427 . S
N2014 C2011 1.384 . S
N2015 C2007 1.427 . S
N2015 C2013 1.384 . S
H2016 C2022 0.930 . S
H2017 C2026 0.930 . S
H2018 C2031 0.929 . S
H2019 C2029 0.929 . S
H2020 C2024 0.929 . S
H2021 C2030 0.929 . S
C2022 H2016 0.930 . S
C2022 C2023 1.367 . S
C2022 C2030 1.378 . S
C2023 C2022 1.367 . S
C2023 C2031 1.433 . S
C2024 H2020 0.929 . S
C2024 C2026 1.378 . S
C2024 C2028 1.350 . S
C2025 C2028 1.463 . S
C2025 C2030 1.350 . S
C2025 N2033 1.427 . S
C2026 H2017 0.930 . S
C2026 C2024 1.378 . S
C2026 C2027 1.367 . S
C2027 C2026 1.367 . S
C2027 C2029 1.433 . S
C2028 C2024 1.350 . S
C2028 C2025 1.463 . S
C2028 N2032 1.427 . S
C2029 H2019 0.929 . S
C2029 C2027 1.433 . S
C2029 N2032 1.384 . S
C2030 H2021 0.929 . S
C2030 C2022 1.378 . S
C2030 C2025 1.350 . S
C2031 H2018 0.929 . S
C2031 C2023 1.433 . S
C2031 N2033 1.384 . S
N2032 C2028 1.427 . S
N2032 C2029 1.384 . S
N2033 C2025 1.427 . S
N2033 C2031 1.384 . S
H2034 C2040 0.930 . S
H2035 C2044 0.930 . S
H2036 C2049 0.929 . S
H2037 C2047 0.929 . S
H2038 C2042 0.929 . S
H2039 C2048 0.929 . S
C2040 H2034 0.930 . S
C2040 C2041 1.367 . S
C2040 C2048 1.378 1_556 S
C2041 C2040 1.367 . S
C2041 C2049 1.433 . S
C2042 H2038 0.929 . S
C2042 C2044 1.378 . S
C2042 C2046 1.350 . S
C2043 C2046 1.463 . S
C2043 C2048 1.350 . S
C2043 N2051 1.427 1_554 S
C2044 H2035 0.930 . S
C2044 C2042 1.378 . S
C2044 C2045 1.367 . S
C2045 C2044 1.367 . S
C2045 C2047 1.433 . S
C2046 C2042 1.350 . S
C2046 C2043 1.463 . S
C2046 N2050 1.427 . S
C2047 H2037 0.929 . S
C2047 C2045 1.433 . S
C2047 N2050 1.384 . S
C2048 H2039 0.929 . S
C2048 C2040 1.378 1_554 S
C2048 C2043 1.350 . S
C2049 H2036 0.929 . S
C2049 C2041 1.433 . S
C2049 N2051 1.384 . S
N2050 C2046 1.427 . S
N2050 C2047 1.384 . S
N2051 C2043 1.427 1_556 S
N2051 C2049 1.384 . S
H2052 C2058 0.930 . S
H2053 C2062 0.930 . S
H2054 C2067 0.929 . S
H2055 C2065 0.929 . S
H2056 C2060 0.929 . S
H2057 C2066 0.929 . S
C2058 H2052 0.930 . S
C2058 C2059 1.367 . S
C2058 C2066 1.378 1_556 S
C2059 C2058 1.367 . S
C2059 C2067 1.433 . S
C2060 H2056 0.929 . S
C2060 C2062 1.378 . S
C2060 C2064 1.350 . S
C2061 C2064 1.463 . S
C2061 C2066 1.350 . S
C2061 N2069 1.427 1_554 S
C2062 H2053 0.930 . S
C2062 C2060 1.378 . S
C2062 C2063 1.367 . S
C2063 C2062 1.367 . S
C2063 C2065 1.433 . S
C2064 C2060 1.350 . S
C2064 C2061 1.463 . S
C2064 N2068 1.427 . S
C2065 H2055 0.929 . S
C2065 C2063 1.433 . S
C2065 N2068 1.384 . S
C2066 H2057 0.929 . S
C2066 C2058 1.378 1_554 S
C2066 C2061 1.350 . S
C2067 H2054 0.929 . S
C2067 C2059 1.433 . S
C2067 N2069 1.384 . S
N2068 C2064 1.427 . S
N2068 C2065 1.384 . S
N2069 C2061 1.427 1_556 S
N2069 C2067 1.384 . S
H2070 C2076 0.930 . S
H2071 C2080 0.930 . S
H2072 C2085 0.929 . S
H2073 C2083 0.929 . S
H2074 C2078 0.929 . S
H2075 C2084 0.929 . S
C2076 H2070 0.930 . S
C2076 C2077 1.367 . S
C2076 C2084 1.378 1_556 S
C2077 C2076 1.367 . S
C2077 C2085 1.433 . S
C2078 H2074 0.929 . S
C2078 C2080 1.378 . S
C2078 C2082 1.350 . S
C2079 C2082 1.463 . S
C2079 C2084 1.350 . S
C2079 N2087 1.427 1_554 S
C2080 H2071 0.930 . S
C2080 C2078 1.378 . S
C2080 C2081 1.367 . S
C2081 C2080 1.367 . S
C2081 C2083 1.433 . S
C2082 C2078 1.350 . S
C2082 C2079 1.463 . S
C2082 N2086 1.427 . S
C2083 H2073 0.929 . S
C2083 C2081 1.433 . S
C2083 N2086 1.384 . S
C2084 H2075 0.929 . S
C2084 C2076 1.378 1_554 S
C2084 C2079 1.350 . S
C2085 H2072 0.929 . S
C2085 C2077 1.433 . S
C2085 N2087 1.384 . S
N2086 C2082 1.427 . S
N2086 C2083 1.384 . S
N2087 C2079 1.427 1_556 S
N2087 C2085 1.384 . S
H2088 C2094 0.930 . S
H2089 C2098 0.930 . S
H2090 C2103 0.929 . S
H2091 C2101 0.929 . S
H2092 C2096 0.929 . S
H2093 C2102 0.929 . S
C2094 H2088 0.930 . S
C2094 C2095 1.367 . S
C2094 C2102 1.378 . S
C2095 C2094 1.367 . S
C2095 C2103 1.433 . S
C2096 H2092 0.929 . S
C2096 C2098 1.378 . S
C2096 C2100 1.350 1_554 S
C2097 C2100 1.463 . S
C2097 C2102 1.350 . S
C2097 N2105 1.427 . S
C2098 H2089 0.930 . S
C2098 C2096 1.378 . S
C2098 C2099 1.367 . S
C2099 C2098 1.367 . S
C2099 C2101 1.433 . S
C2100 C2096 1.350 1_556 S
C2100 C2097 1.463 . S
C2100 N2104 1.427 . S
C2101 H2091 0.929 . S
C2101 C2099 1.433 . S
C2101 N2104 1.384 1_554 S
C2102 H2093 0.929 . S
C2102 C2094 1.378 . S
C2102 C2097 1.350 . S
C2103 H2090 0.929 . S
C2103 C2095 1.433 . S
C2103 N2105 1.384 . S
N2104 C2100 1.427 . S
N2104 C2101 1.384 1_556 S
N2105 C2097 1.427 . S
N2105 C2103 1.384 . S
H2106 C2112 0.930 . S
H2107 C2116 0.930 . S
H2108 C2121 0.929 . S
H2109 C2119 0.929 . S
H2110 C2114 0.929 . S
H2111 C2120 0.929 . S
C2112 H2106 0.930 . S
C2112 C2113 1.367 . S
C2112 C2120 1.378 1_554 S
C2113 C2112 1.367 . S
C2113 C2121 1.433 . S
C2114 H2110 0.929 . S
C2114 C2116 1.378 . S
C2114 C2118 1.350 . S
C2115 C2118 1.463 . S
C2115 C2120 1.350 . S
C2115 N2123 1.427 1_556 S
C2116 H2107 0.930 . S
C2116 C2114 1.378 . S
C2116 C2117 1.367 . S
C2117 C2116 1.367 . S
C2117 C2119 1.433 . S
C2118 C2114 1.350 . S
C2118 C2115 1.463 . S
C2118 N2122 1.427 . S
C2119 H2109 0.929 . S
C2119 C2117 1.433 . S
C2119 N2122 1.384 . S
C2120 H2111 0.929 . S
C2120 C2112 1.378 1_556 S
C2120 C2115 1.350 . S
C2121 H2108 0.929 . S
C2121 C2113 1.433 . S
C2121 N2123 1.384 . S
N2122 C2118 1.427 . S
N2122 C2119 1.384 . S
N2123 C2115 1.427 1_554 S
N2123 C2121 1.384 . S
H2124 C2130 0.930 . S
H2125 C2134 0.930 . S
H2126 C2139 0.929 . S
H2127 C2137 0.929 . S
H2128 C2132 0.929 . S
H2129 C2138 0.929 . S
C2130 H2124 0.930 . S
C2130 C2131 1.367 . S
C2130 C2138 1.378 1_554 S
C2131 C2130 1.367 . S
C2131 C2139 1.433 . S
C2132 H2128 0.929 . S
C2132 C2134 1.378 . S
C2132 C2136 1.350 . S
C2133 C2136 1.463 . S
C2133 C2138 1.350 . S
C2133 N2141 1.427 1_556 S
C2134 H2125 0.930 . S
C2134 C2132 1.378 . S
C2134 C2135 1.367 . S
C2135 C2134 1.367 . S
C2135 C2137 1.433 . S
C2136 C2132 1.350 . S
C2136 C2133 1.463 . S
C2136 N2140 1.427 . S
C2137 H2127 0.929 . S
C2137 C2135 1.433 . S
C2137 N2140 1.384 . S
C2138 H2129 0.929 . S
C2138 C2130 1.378 1_556 S
C2138 C2133 1.350 . S
C2139 H2126 0.929 . S
C2139 C2131 1.433 . S
C2139 N2141 1.384 . S
N2140 C2136 1.427 . S
N2140 C2137 1.384 . S
N2141 C2133 1.427 1_554 S
N2141 C2139 1.384 . S
H2142 C2148 0.930 . S
H2143 C2152 0.930 . S
H2144 C2157 0.929 . S
H2145 C2155 0.929 . S
H2146 C2150 0.929 . S
H2147 C2156 0.929 . S
C2148 H2142 0.930 . S
C2148 C2149 1.367 . S
C2148 C2156 1.378 . S
C2149 C2148 1.367 . S
C2149 C2157 1.433 . S
C2150 H2146 0.929 . S
C2150 C2152 1.378 . S
C2150 C2154 1.350 . S
C2151 C2154 1.463 . S
C2151 C2156 1.350 . S
C2151 N2159 1.427 . S
C2152 H2143 0.930 . S
C2152 C2150 1.378 . S
C2152 C2153 1.367 . S
C2153 C2152 1.367 . S
C2153 C2155 1.433 . S
C2154 C2150 1.350 . S
C2154 C2151 1.463 . S
C2154 N2158 1.427 . S
C2155 H2145 0.929 . S
C2155 C2153 1.433 . S
C2155 N2158 1.384 . S
C2156 H2147 0.929 . S
C2156 C2148 1.378 . S
C2156 C2151 1.350 . S
C2157 H2144 0.929 . S
C2157 C2149 1.433 . S
C2157 N2159 1.384 . S
N2158 C2154 1.427 . S
N2158 C2155 1.384 . S
N2159 C2151 1.427 . S
N2159 C2157 1.384 . S
H2160 C2166 0.930 . S
H2161 C2170 0.930 . S
H2162 C2175 0.929 . S
H2163 C2173 0.929 . S
H2164 C2168 0.929 . S
H2165 C2174 0.929 . S
C2166 H2160 0.930 . S
C2166 C2167 1.367 . S
C2166 C2174 1.378 . S
C2167 C2166 1.367 . S
C2167 C2175 1.433 . S
C2168 H2164 0.929 . S
C2168 C2170 1.378 . S
C2168 C2172 1.350 . S
C2169 C2172 1.463 . S
C2169 C2174 1.350 . S
C2169 N2177 1.427 . S
C2170 H2161 0.930 . S
C2170 C2168 1.378 . S
C2170 C2171 1.367 . S
C2171 C2170 1.367 . S
C2171 C2173 1.433 . S
C2172 C2168 1.350 . S
C2172 C2169 1.463 . S
C2172 N2176 1.427 . S
C2173 H2163 0.929 . S
C2173 C2171 1.433 . S
C2173 N2176 1.384 . S
C2174 H2165 0.929 . S
C2174 C2166 1.378 . S
C2174 C2169 1.350 . S
C2175 H2162 0.929 . S
C2175 C2167 1.433 . S
C2175 N2177 1.384 . S
N2176 C2172 1.427 . S
N2176 C2173 1.384 . S
N2177 C2169 1.427 . S
N2177 C2175 1.384 . S
H2178 C2184 0.930 . S
H2179 C2188 0.930 . S
H2180 C2193 0.929 . S
H2181 C2191 0.929 . S
H2182 C2186 0.929 . S
H2183 C2192 0.929 . S
C2184 H2178 0.930 . S
C2184 C2185 1.367 . S
C2184 C2192 1.378 . S
C2185 C2184 1.367 . S
C2185 C2193 1.433 . S
C2186 H2182 0.929 . S
C2186 C2188 1.378 . S
C2186 C2190 1.350 . S
C2187 C2190 1.463 . S
C2187 C2192 1.350 . S
C2187 N2195 1.427 . S
C2188 H2179 0.930 . S
C2188 C2186 1.378 . S
C2188 C2189 1.367 . S
C2189 C2188 1.367 . S
C2189 C2191 1.433 . S
C2190 C2186 1.350 . S
C2190 C2187 1.463 . S
C2190 N2194 1.427 . S
C2191 H2181 0.929 . S
C2191 C2189 1.433 . S
C2191 N2194 1.384 . S
C2192 H2183 0.929 . S
C2192 C2184 1.378 . S
C2192 C2187 1.350 . S
C2193 H2180 0.929 . S
C2193 C2185 1.433 . S
C2193 N2195 1.384 . S
N2194 C2190 1.427 . S
N2194 C2191 1.384 . S
N2195 C2187 1.427 . S
N2195 C2193 1.384 . S
H2196 C2202 0.930 . S
H2197 C2206 0.930 . S
H2198 C2211 0.929 . S
H2199 C2209 0.929 . S
H2200 C2204 0.929 . S
H2201 C2210 0.929 . S
C2202 H2196 0.930 . S
C2202 C2203 1.367 . S
C2202 C2210 1.378 . S
C2203 C2202 1.367 . S
C2203 C2211 1.433 . S
C2204 H2200 0.929 . S
C2204 C2206 1.378 . S
C2204 C2208 1.350 . S
C2205 C2208 1.463 . S
C2205 C2210 1.350 . S
C2205 N2213 1.427 . S
C2206 H2197 0.930 . S
C2206 C2204 1.378 . S
C2206 C2207 1.367 . S
C2207 C2206 1.367 . S
C2207 C2209 1.433 . S
C2208 C2204 1.350 . S
C2208 C2205 1.463 . S
C2208 N2212 1.427 . S
C2209 H2199 0.929 . S
C2209 C2207 1.433 . S
C2209 N2212 1.384 . S
C2210 H2201 0.929 . S
C2210 C2202 1.378 . S
C2210 C2205 1.350 . S
C2211 H2198 0.929 . S
C2211 C2203 1.433 . S
C2211 N2213 1.384 . S
N2212 C2208 1.427 . S
N2212 C2209 1.384 . S
N2213 C2205 1.427 . S
N2213 C2211 1.384 . S
H2214 C2220 0.930 . S
H2215 C2224 0.930 . S
H2216 C2229 0.929 . S
H2217 C2227 0.929 . S
H2218 C2222 0.929 . S
H2219 C2228 0.929 . S
C2220 H2214 0.930 . S
C2220 C2221 1.367 . S
C2220 C2228 1.378 . S
C2221 C2220 1.367 . S
C2221 C2229 1.433 . S
C2222 H2218 0.929 . S
C2222 C2224 1.378 . S
C2222 C2226 1.350 . S
C2223 C2226 1.463 . S
C2223 C2228 1.350 . S
C2223 N2231 1.427 . S
C2224 H2215 0.930 . S
C2224 C2222 1.378 . S
C2224 C2225 1.367 . S
C2225 C2224 1.367 . S
C2225 C2227 1.433 . S
C2226 C2222 1.350 . S
C2226 C2223 1.463 . S
C2226 N2230 1.427 . S
C2227 H2217 0.929 . S
C2227 C2225 1.433 . S
C2227 N2230 1.384 . S
C2228 H2219 0.929 . S
C2228 C2220 1.378 . S
C2228 C2223 1.350 . S
C2229 H2216 0.929 . S
C2229 C2221 1.433 . S
C2229 N2231 1.384 . S
N2230 C2226 1.427 . S
N2230 C2227 1.384 . S
N2231 C2223 1.427 . S
N2231 C2229 1.384 . S
H2232 C2238 0.930 . S
H2233 C2242 0.930 . S
H2234 C2247 0.929 . S
H2235 C2245 0.929 . S
H2236 C2240 0.929 . S
H2237 C2246 0.929 . S
C2238 H2232 0.930 . S
C2238 C2239 1.367 . S
C2238 C2246 1.378 . S
C2239 C2238 1.367 . S
C2239 C2247 1.433 . S
C2240 H2236 0.929 . S
C2240 C2242 1.378 . S
C2240 C2244 1.350 . S
C2241 C2244 1.463 . S
C2241 C2246 1.350 . S
C2241 N2249 1.427 . S
C2242 H2233 0.930 . S
C2242 C2240 1.378 . S
C2242 C2243 1.367 . S
C2243 C2242 1.367 . S
C2243 C2245 1.433 . S
C2244 C2240 1.350 . S
C2244 C2241 1.463 . S
C2244 N2248 1.427 . S
C2245 H2235 0.929 . S
C2245 C2243 1.433 . S
C2245 N2248 1.384 . S
C2246 H2237 0.929 . S
C2246 C2238 1.378 . S
C2246 C2241 1.350 . S
C2247 H2234 0.929 . S
C2247 C2239 1.433 . S
C2247 N2249 1.384 . S
N2248 C2244 1.427 . S
N2248 C2245 1.384 . S
N2249 C2241 1.427 . S
N2249 C2247 1.384 . S
H2250 C2256 0.930 . S
H2251 C2260 0.930 . S
H2252 C2265 0.929 . S
H2253 C2263 0.929 . S
H2254 C2258 0.929 . S
H2255 C2264 0.929 . S
C2256 H2250 0.930 . S
C2256 C2257 1.367 . S
C2256 C2264 1.378 . S
C2257 C2256 1.367 . S
C2257 C2265 1.433 . S
C2258 H2254 0.929 . S
C2258 C2260 1.378 . S
C2258 C2262 1.350 . S
C2259 C2262 1.463 . S
C2259 C2264 1.350 . S
C2259 N2267 1.427 . S
C2260 H2251 0.930 . S
C2260 C2258 1.378 . S
C2260 C2261 1.367 . S
C2261 C2260 1.367 . S
C2261 C2263 1.433 . S
C2262 C2258 1.350 . S
C2262 C2259 1.463 . S
C2262 N2266 1.427 . S
C2263 H2253 0.929 . S
C2263 C2261 1.433 . S
C2263 N2266 1.384 . S
C2264 H2255 0.929 . S
C2264 C2256 1.378 . S
C2264 C2259 1.350 . S
C2265 H2252 0.929 . S
C2265 C2257 1.433 . S
C2265 N2267 1.384 . S
N2266 C2262 1.427 . S
N2266 C2263 1.384 . S
N2267 C2259 1.427 . S
N2267 C2265 1.384 . S
H2268 C2274 0.930 . S
H2269 C2278 0.930 . S
H2270 C2283 0.929 . S
H2271 C2281 0.929 . S
H2272 C2276 0.929 . S
H2273 C2282 0.929 . S
C2274 H2268 0.930 . S
C2274 C2275 1.367 . S
C2274 C2282 1.378 . S
C2275 C2274 1.367 . S
C2275 C2283 1.433 . S
C2276 H2272 0.929 . S
C2276 C2278 1.378 . S
C2276 C2280 1.350 . S
C2277 C2280 1.463 . S
C2277 C2282 1.350 . S
C2277 N2285 1.427 . S
C2278 H2269 0.930 . S
C2278 C2276 1.378 . S
C2278 C2279 1.367 . S
C2279 C2278 1.367 . S
C2279 C2281 1.433 . S
C2280 C2276 1.350 . S
C2280 C2277 1.463 . S
C2280 N2284 1.427 . S
C2281 H2271 0.929 . S
C2281 C2279 1.433 . S
C2281 N2284 1.384 . S
C2282 H2273 0.929 . S
C2282 C2274 1.378 . S
C2282 C2277 1.350 . S
C2283 H2270 0.929 . S
C2283 C2275 1.433 . S
C2283 N2285 1.384 . S
N2284 C2280 1.427 . S
N2284 C2281 1.384 . S
N2285 C2277 1.427 . S
N2285 C2283 1.384 . S
H2286 C2292 0.930 . S
H2287 C2296 0.930 . S
H2288 C2301 0.929 . S
H2289 C2299 0.929 . S
H2290 C2294 0.929 . S
H2291 C2300 0.929 . S
C2292 H2286 0.930 . S
C2292 C2293 1.367 . S
C2292 C2300 1.378 . S
C2293 C2292 1.367 . S
C2293 C2301 1.433 . S
C2294 H2290 0.929 . S
C2294 C2296 1.378 . S
C2294 C2298 1.350 . S
C2295 C2298 1.463 . S
C2295 C2300 1.350 . S
C2295 N2303 1.427 . S
C2296 H2287 0.930 . S
C2296 C2294 1.378 . S
C2296 C2297 1.367 . S
C2297 C2296 1.367 . S
C2297 C2299 1.433 . S
C2298 C2294 1.350 . S
C2298 C2295 1.463 . S
C2298 N2302 1.427 . S
C2299 H2289 0.929 . S
C2299 C2297 1.433 . S
C2299 N2302 1.384 . S
C2300 H2291 0.929 . S
C2300 C2292 1.378 . S
C2300 C2295 1.350 . S
C2301 H2288 0.929 . S
C2301 C2293 1.433 . S
C2301 N2303 1.384 . S
N2302 C2298 1.427 . S
N2302 C2299 1.384 . S
N2303 C2295 1.427 . S
N2303 C2301 1.384 . S
H2304 C2310 0.930 . S
H2305 C2314 0.930 . S
H2306 C2319 0.929 . S
H2307 C2317 0.929 . S
H2308 C2312 0.929 . S
H2309 C2318 0.929 . S
C2310 H2304 0.930 . S
C2310 C2311 1.367 . S
C2310 C2318 1.378 . S
C2311 C2310 1.367 . S
C2311 C2319 1.433 . S
C2312 H2308 0.929 . S
C2312 C2314 1.378 . S
C2312 C2316 1.350 . S
C2313 C2316 1.463 . S
C2313 C2318 1.350 . S
C2313 N2321 1.427 . S
C2314 H2305 0.930 . S
C2314 C2312 1.378 . S
C2314 C2315 1.367 . S
C2315 C2314 1.367 . S
C2315 C2317 1.433 . S
C2316 C2312 1.350 . S
C2316 C2313 1.463 . S
C2316 N2320 1.427 . S
C2317 H2307 0.929 . S
C2317 C2315 1.433 . S
C2317 N2320 1.384 . S
C2318 H2309 0.929 . S
C2318 C2310 1.378 . S
C2318 C2313 1.350 . S
C2319 H2306 0.929 . S
C2319 C2311 1.433 . S
C2319 N2321 1.384 . S
N2320 C2316 1.427 . S
N2320 C2317 1.384 . S
N2321 C2313 1.427 . S
N2321 C2319 1.384 . S
H2322 C2328 0.930 . S
H2323 C2332 0.930 . S
H2324 C2337 0.929 . S
H2325 C2335 0.929 . S
H2326 C2330 0.929 . S
H2327 C2336 0.929 . S
C2328 H2322 0.930 . S
C2328 C2329 1.367 . S
C2328 C2336 1.378 . S
C2329 C2328 1.367 . S
C2329 C2337 1.433 . S
C2330 H2326 0.929 . S
C2330 C2332 1.378 . S
C2330 C2334 1.350 . S
C2331 C2334 1.463 . S
C2331 C2336 1.350 . S
C2331 N2339 1.427 . S
C2332 H2323 0.930 . S
C2332 C2330 1.378 . S
C2332 C2333 1.367 . S
C2333 C2332 1.367 . S
C2333 C2335 1.433 . S
C2334 C2330 1.350 . S
C2334 C2331 1.463 . S
C2334 N2338 1.427 . S
C2335 H2325 0.929 . S
C2335 C2333 1.433 . S
C2335 N2338 1.384 . S
C2336 H2327 0.929 . S
C2336 C2328 1.378 . S
C2336 C2331 1.350 . S
C2337 H2324 0.929 . S
C2337 C2329 1.433 . S
C2337 N2339 1.384 . S
N2338 C2334 1.427 . S
N2338 C2335 1.384 . S
N2339 C2331 1.427 . S
N2339 C2337 1.384 . S
H2340 C2346 0.930 . S
H2341 C2350 0.930 . S
H2342 C2355 0.929 . S
H2343 C2353 0.929 . S
H2344 C2348 0.929 . S
H2345 C2354 0.929 . S
C2346 H2340 0.930 . S
C2346 C2347 1.367 . S
C2346 C2354 1.378 . S
C2347 C2346 1.367 . S
C2347 C2355 1.433 . S
C2348 H2344 0.929 . S
C2348 C2350 1.378 . S
C2348 C2352 1.350 . S
C2349 C2352 1.463 . S
C2349 C2354 1.350 . S
C2349 N2357 1.427 . S
C2350 H2341 0.930 . S
C2350 C2348 1.378 . S
C2350 C2351 1.367 . S
C2351 C2350 1.367 . S
C2351 C2353 1.433 . S
C2352 C2348 1.350 . S
C2352 C2349 1.463 . S
C2352 N2356 1.427 . S
C2353 H2343 0.929 . S
C2353 C2351 1.433 . S
C2353 N2356 1.384 . S
C2354 H2345 0.929 . S
C2354 C2346 1.378 . S
C2354 C2349 1.350 . S
C2355 H2342 0.929 . S
C2355 C2347 1.433 . S
C2355 N2357 1.384 . S
N2356 C2352 1.427 . S
N2356 C2353 1.384 . S
N2357 C2349 1.427 . S
N2357 C2355 1.384 . S
H2358 C2364 0.930 . S
H2359 C2368 0.930 . S
H2360 C2373 0.929 . S
H2361 C2371 0.929 . S
H2362 C2366 0.929 . S
H2363 C2372 0.929 . S
C2364 H2358 0.930 . S
C2364 C2365 1.367 . S
C2364 C2372 1.378 . S
C2365 C2364 1.367 . S
C2365 C2373 1.433 . S
C2366 H2362 0.929 . S
C2366 C2368 1.378 . S
C2366 C2370 1.350 . S
C2367 C2370 1.463 . S
C2367 C2372 1.350 . S
C2367 N2375 1.427 . S
C2368 H2359 0.930 . S
C2368 C2366 1.378 . S
C2368 C2369 1.367 . S
C2369 C2368 1.367 . S
C2369 C2371 1.433 . S
C2370 C2366 1.350 . S
C2370 C2367 1.463 . S
C2370 N2374 1.427 . S
C2371 H2361 0.929 . S
C2371 C2369 1.433 . S
C2371 N2374 1.384 . S
C2372 H2363 0.929 . S
C2372 C2364 1.378 . S
C2372 C2367 1.350 . S
C2373 H2360 0.929 . S
C2373 C2365 1.433 . S
C2373 N2375 1.384 . S
N2374 C2370 1.427 . S
N2374 C2371 1.384 . S
N2375 C2367 1.427 . S
N2375 C2373 1.384 . S
H2376 C2382 0.930 . S
H2377 C2386 0.930 . S
H2378 C2391 0.929 . S
H2379 C2389 0.929 . S
H2380 C2384 0.929 . S
H2381 C2390 0.929 . S
C2382 H2376 0.930 . S
C2382 C2383 1.367 . S
C2382 C2390 1.378 . S
C2383 C2382 1.367 . S
C2383 C2391 1.433 . S
C2384 H2380 0.929 . S
C2384 C2386 1.378 . S
C2384 C2388 1.350 . S
C2385 C2388 1.463 . S
C2385 C2390 1.350 . S
C2385 N2393 1.427 . S
C2386 H2377 0.930 . S
C2386 C2384 1.378 . S
C2386 C2387 1.367 . S
C2387 C2386 1.367 . S
C2387 C2389 1.433 . S
C2388 C2384 1.350 . S
C2388 C2385 1.463 . S
C2388 N2392 1.427 . S
C2389 H2379 0.929 . S
C2389 C2387 1.433 . S
C2389 N2392 1.384 . S
C2390 H2381 0.929 . S
C2390 C2382 1.378 . S
C2390 C2385 1.350 . S
C2391 H2378 0.929 . S
C2391 C2383 1.433 . S
C2391 N2393 1.384 . S
N2392 C2388 1.427 . S
N2392 C2389 1.384 . S
N2393 C2385 1.427 . S
N2393 C2391 1.384 . S
H2394 C2400 0.930 . S
H2395 C2404 0.930 1_556 S
H2396 C2409 0.929 . S
H2397 C2407 0.929 . S
H2398 C2402 0.929 . S
H2399 C2408 0.929 . S
C2400 H2394 0.930 . S
C2400 C2401 1.367 . S
C2400 C2408 1.378 . S
C2401 C2400 1.367 . S
C2401 C2409 1.433 . S
C2402 H2398 0.929 . S
C2402 C2404 1.378 . S
C2402 C2406 1.350 . S
C2403 C2406 1.463 . S
C2403 C2408 1.350 . S
C2403 N2411 1.427 . S
C2404 H2395 0.930 1_554 S
C2404 C2402 1.378 . S
C2404 C2405 1.367 . S
C2405 C2404 1.367 . S
C2405 C2407 1.433 . S
C2406 C2402 1.350 . S
C2406 C2403 1.463 . S
C2406 N2410 1.427 . S
C2407 H2397 0.929 . S
C2407 C2405 1.433 . S
C2407 N2410 1.384 . S
C2408 H2399 0.929 . S
C2408 C2400 1.378 . S
C2408 C2403 1.350 . S
C2409 H2396 0.929 . S
C2409 C2401 1.433 . S
C2409 N2411 1.384 . S
N2410 C2406 1.427 . S
N2410 C2407 1.384 . S
N2411 C2403 1.427 . S
N2411 C2409 1.384 . S
H2412 C2418 0.930 . S
H2413 C2422 0.930 . S
H2414 C2427 0.929 . S
H2415 C2425 0.929 . S
H2416 C2420 0.929 . S
H2417 C2426 0.929 . S
C2418 H2412 0.930 . S
C2418 C2419 1.367 . S
C2418 C2426 1.378 . S
C2419 C2418 1.367 . S
C2419 C2427 1.433 . S
C2420 H2416 0.929 . S
C2420 C2422 1.378 . S
C2420 C2424 1.350 . S
C2421 C2424 1.463 . S
C2421 C2426 1.350 . S
C2421 N2429 1.427 . S
C2422 H2413 0.930 . S
C2422 C2420 1.378 . S
C2422 C2423 1.367 . S
C2423 C2422 1.367 . S
C2423 C2425 1.433 . S
C2424 C2420 1.350 . S
C2424 C2421 1.463 . S
C2424 N2428 1.427 . S
C2425 H2415 0.929 . S
C2425 C2423 1.433 . S
C2425 N2428 1.384 . S
C2426 H2417 0.929 . S
C2426 C2418 1.378 . S
C2426 C2421 1.350 . S
C2427 H2414 0.929 . S
C2427 C2419 1.433 . S
C2427 N2429 1.384 . S
N2428 C2424 1.427 . S
N2428 C2425 1.384 . S
N2429 C2421 1.427 . S
N2429 C2427 1.384 . S
H2430 C2436 0.930 . S
H2431 C2440 0.930 . S
H2432 C2445 0.929 . S
H2433 C2443 0.929 . S
H2434 C2438 0.929 . S
H2435 C2444 0.929 . S
C2436 H2430 0.930 . S
C2436 C2437 1.367 . S
C2436 C2444 1.378 . S
C2437 C2436 1.367 . S
C2437 C2445 1.433 . S
C2438 H2434 0.929 . S
C2438 C2440 1.378 . S
C2438 C2442 1.350 . S
C2439 C2442 1.463 . S
C2439 C2444 1.350 . S
C2439 N2447 1.427 . S
C2440 H2431 0.930 . S
C2440 C2438 1.378 . S
C2440 C2441 1.367 . S
C2441 C2440 1.367 . S
C2441 C2443 1.433 . S
C2442 C2438 1.350 . S
C2442 C2439 1.463 . S
C2442 N2446 1.427 . S
C2443 H2433 0.929 . S
C2443 C2441 1.433 . S
C2443 N2446 1.384 . S
C2444 H2435 0.929 . S
C2444 C2436 1.378 . S
C2444 C2439 1.350 . S
C2445 H2432 0.929 . S
C2445 C2437 1.433 . S
C2445 N2447 1.384 . S
N2446 C2442 1.427 . S
N2446 C2443 1.384 . S
N2447 C2439 1.427 . S
N2447 C2445 1.384 . S
H2448 C2454 0.930 . S
H2449 C2458 0.930 . S
H2450 C2463 0.929 . S
H2451 C2461 0.929 . S
H2452 C2456 0.929 . S
H2453 C2462 0.929 . S
C2454 H2448 0.930 . S
C2454 C2455 1.367 . S
C2454 C2462 1.378 . S
C2455 C2454 1.367 . S
C2455 C2463 1.433 . S
C2456 H2452 0.929 . S
C2456 C2458 1.378 . S
C2456 C2460 1.350 . S
C2457 C2460 1.463 . S
C2457 C2462 1.350 . S
C2457 N2465 1.427 . S
C2458 H2449 0.930 . S
C2458 C2456 1.378 . S
C2458 C2459 1.367 . S
C2459 C2458 1.367 . S
C2459 C2461 1.433 . S
C2460 C2456 1.350 . S
C2460 C2457 1.463 . S
C2460 N2464 1.427 . S
C2461 H2451 0.929 . S
C2461 C2459 1.433 . S
C2461 N2464 1.384 . S
C2462 H2453 0.929 . S
C2462 C2454 1.378 . S
C2462 C2457 1.350 . S
C2463 H2450 0.929 . S
C2463 C2455 1.433 . S
C2463 N2465 1.384 . S
N2464 C2460 1.427 . S
N2464 C2461 1.384 . S
N2465 C2457 1.427 . S
N2465 C2463 1.384 . S
H2466 C2472 0.930 . S
H2467 C2476 0.930 . S
H2468 C2481 0.929 . S
H2469 C2479 0.929 . S
H2470 C2474 0.929 . S
H2471 C2480 0.929 . S
C2472 H2466 0.930 . S
C2472 C2473 1.367 . S
C2472 C2480 1.378 . S
C2473 C2472 1.367 . S
C2473 C2481 1.433 . S
C2474 H2470 0.929 . S
C2474 C2476 1.378 . S
C2474 C2478 1.350 . S
C2475 C2478 1.463 . S
C2475 C2480 1.350 . S
C2475 N2483 1.427 . S
C2476 H2467 0.930 . S
C2476 C2474 1.378 . S
C2476 C2477 1.367 . S
C2477 C2476 1.367 . S
C2477 C2479 1.433 . S
C2478 C2474 1.350 . S
C2478 C2475 1.463 . S
C2478 N2482 1.427 . S
C2479 H2469 0.929 . S
C2479 C2477 1.433 . S
C2479 N2482 1.384 . S
C2480 H2471 0.929 . S
C2480 C2472 1.378 . S
C2480 C2475 1.350 . S
C2481 H2468 0.929 . S
C2481 C2473 1.433 . S
C2481 N2483 1.384 . S
N2482 C2478 1.427 . S
N2482 C2479 1.384 . S
N2483 C2475 1.427 . S
N2483 C2481 1.384 . S
H2484 C2490 0.930 . S
H2485 C2494 0.930 . S
H2486 C2499 0.929 . S
H2487 C2497 0.929 . S
H2488 C2492 0.929 . S
H2489 C2498 0.929 . S
C2490 H2484 0.930 . S
C2490 C2491 1.367 . S
C2490 C2498 1.378 . S
C2491 C2490 1.367 . S
C2491 C2499 1.433 . S
C2492 H2488 0.929 . S
C2492 C2494 1.378 . S
C2492 C2496 1.350 . S
C2493 C2496 1.463 . S
C2493 C2498 1.350 . S
C2493 N2501 1.427 . S
C2494 H2485 0.930 . S
C2494 C2492 1.378 . S
C2494 C2495 1.367 . S
C2495 C2494 1.367 . S
C2495 C2497 1.433 . S
C2496 C2492 1.350 . S
C2496 C2493 1.463 . S
C2496 N2500 1.427 . S
C2497 H2487 0.929 . S
C2497 C2495 1.433 . S
C2497 N2500 1.384 . S
C2498 H2489 0.929 . S
C2498 C2490 1.378 . S
C2498 C2493 1.350 . S
C2499 H2486 0.929 . S
C2499 C2491 1.433 . S
C2499 N2501 1.384 . S
N2500 C2496 1.427 . S
N2500 C2497 1.384 . S
N2501 C2493 1.427 . S
N2501 C2499 1.384 . S
H2502 C2508 0.930 . S
H2503 C2512 0.930 . S
H2504 C2517 0.929 . S
H2505 C2515 0.929 . S
H2506 C2510 0.929 . S
H2507 C2516 0.929 . S
C2508 H2502 0.930 . S
C2508 C2509 1.367 . S
C2508 C2516 1.378 . S
C2509 C2508 1.367 . S
C2509 C2517 1.433 . S
C2510 H2506 0.929 . S
C2510 C2512 1.378 . S
C2510 C2514 1.350 . S
C2511 C2514 1.463 . S
C2511 C2516 1.350 . S
C2511 N2519 1.427 . S
C2512 H2503 0.930 . S
C2512 C2510 1.378 . S
C2512 C2513 1.367 . S
C2513 C2512 1.367 . S
C2513 C2515 1.433 . S
C2514 C2510 1.350 . S
C2514 C2511 1.463 . S
C2514 N2518 1.427 . S
C2515 H2505 0.929 . S
C2515 C2513 1.433 . S
C2515 N2518 1.384 . S
C2516 H2507 0.929 . S
C2516 C2508 1.378 . S
C2516 C2511 1.350 . S
C2517 H2504 0.929 . S
C2517 C2509 1.433 . S
C2517 N2519 1.384 . S
N2518 C2514 1.427 . S
N2518 C2515 1.384 . S
N2519 C2511 1.427 . S
N2519 C2517 1.384 . S
H2520 C2526 0.930 . S
H2521 C2530 0.930 . S
H2522 C2535 0.929 . S
H2523 C2533 0.929 . S
H2524 C2528 0.929 . S
H2525 C2534 0.929 . S
C2526 H2520 0.930 . S
C2526 C2527 1.367 . S
C2526 C2534 1.378 . S
C2527 C2526 1.367 . S
C2527 C2535 1.433 . S
C2528 H2524 0.929 . S
C2528 C2530 1.378 . S
C2528 C2532 1.350 . S
C2529 C2532 1.463 . S
C2529 C2534 1.350 . S
C2529 N2537 1.427 . S
C2530 H2521 0.930 . S
C2530 C2528 1.378 . S
C2530 C2531 1.367 . S
C2531 C2530 1.367 . S
C2531 C2533 1.433 . S
C2532 C2528 1.350 . S
C2532 C2529 1.463 . S
C2532 N2536 1.427 . S
C2533 H2523 0.929 . S
C2533 C2531 1.433 . S
C2533 N2536 1.384 . S
C2534 H2525 0.929 . S
C2534 C2526 1.378 . S
C2534 C2529 1.350 . S
C2535 H2522 0.929 . S
C2535 C2527 1.433 . S
C2535 N2537 1.384 . S
N2536 C2532 1.427 . S
N2536 C2533 1.384 . S
N2537 C2529 1.427 . S
N2537 C2535 1.384 . S
H2538 C2544 0.930 . S
H2539 C2548 0.930 . S
H2540 C2553 0.929 . S
H2541 C2551 0.929 . S
H2542 C2546 0.929 . S
H2543 C2552 0.929 . S
C2544 H2538 0.930 . S
C2544 C2545 1.367 . S
C2544 C2552 1.378 . S
C2545 C2544 1.367 . S
C2545 C2553 1.433 . S
C2546 H2542 0.929 . S
C2546 C2548 1.378 . S
C2546 C2550 1.350 . S
C2547 C2550 1.463 . S
C2547 C2552 1.350 . S
C2547 N2555 1.427 . S
C2548 H2539 0.930 . S
C2548 C2546 1.378 . S
C2548 C2549 1.367 . S
C2549 C2548 1.367 . S
C2549 C2551 1.433 . S
C2550 C2546 1.350 . S
C2550 C2547 1.463 . S
C2550 N2554 1.427 . S
C2551 H2541 0.929 . S
C2551 C2549 1.433 . S
C2551 N2554 1.384 . S
C2552 H2543 0.929 . S
C2552 C2544 1.378 . S
C2552 C2547 1.350 . S
C2553 H2540 0.929 . S
C2553 C2545 1.433 . S
C2553 N2555 1.384 . S
N2554 C2550 1.427 . S
N2554 C2551 1.384 . S
N2555 C2547 1.427 . S
N2555 C2553 1.384 . S
H2556 C2562 0.930 . S
H2557 C2566 0.930 . S
H2558 C2571 0.929 . S
H2559 C2569 0.929 . S
H2560 C2564 0.929 . S
H2561 C2570 0.929 . S
C2562 H2556 0.930 . S
C2562 C2563 1.367 . S
C2562 C2570 1.378 . S
C2563 C2562 1.367 . S
C2563 C2571 1.433 . S
C2564 H2560 0.929 . S
C2564 C2566 1.378 . S
C2564 C2568 1.350 . S
C2565 C2568 1.463 . S
C2565 C2570 1.350 . S
C2565 N2573 1.427 . S
C2566 H2557 0.930 . S
C2566 C2564 1.378 . S
C2566 C2567 1.367 . S
C2567 C2566 1.367 . S
C2567 C2569 1.433 . S
C2568 C2564 1.350 . S
C2568 C2565 1.463 . S
C2568 N2572 1.427 . S
C2569 H2559 0.929 . S
C2569 C2567 1.433 . S
C2569 N2572 1.384 . S
C2570 H2561 0.929 . S
C2570 C2562 1.378 . S
C2570 C2565 1.350 . S
C2571 H2558 0.929 . S
C2571 C2563 1.433 . S
C2571 N2573 1.384 . S
N2572 C2568 1.427 . S
N2572 C2569 1.384 . S
N2573 C2565 1.427 . S
N2573 C2571 1.384 . S
H2574 C2580 0.930 . S
H2575 C2584 0.930 . S
H2576 C2589 0.929 . S
H2577 C2587 0.929 . S
H2578 C2582 0.929 . S
H2579 C2588 0.929 . S
C2580 H2574 0.930 . S
C2580 C2581 1.367 . S
C2580 C2588 1.378 . S
C2581 C2580 1.367 . S
C2581 C2589 1.433 . S
C2582 H2578 0.929 . S
C2582 C2584 1.378 . S
C2582 C2586 1.350 . S
C2583 C2586 1.463 . S
C2583 C2588 1.350 . S
C2583 N2591 1.427 . S
C2584 H2575 0.930 . S
C2584 C2582 1.378 . S
C2584 C2585 1.367 . S
C2585 C2584 1.367 . S
C2585 C2587 1.433 . S
C2586 C2582 1.350 . S
C2586 C2583 1.463 . S
C2586 N2590 1.427 . S
C2587 H2577 0.929 . S
C2587 C2585 1.433 . S
C2587 N2590 1.384 . S
C2588 H2579 0.929 . S
C2588 C2580 1.378 . S
C2588 C2583 1.350 . S
C2589 H2576 0.929 . S
C2589 C2581 1.433 . S
C2589 N2591 1.384 . S
N2590 C2586 1.427 . S
N2590 C2587 1.384 . S
N2591 C2583 1.427 . S
N2591 C2589 1.384 . S
H2592 C2598 0.930 . S
H2593 C2602 0.930 . S
H2594 C2607 0.929 . S
H2595 C2605 0.929 . S
H2596 C2600 0.929 . S
H2597 C2606 0.929 . S
C2598 H2592 0.930 . S
C2598 C2599 1.367 . S
C2598 C2606 1.378 . S
C2599 C2598 1.367 . S
C2599 C2607 1.433 . S
C2600 H2596 0.929 . S
C2600 C2602 1.378 . S
C2600 C2604 1.350 . S
C2601 C2604 1.463 . S
C2601 C2606 1.350 . S
C2601 N2609 1.427 . S
C2602 H2593 0.930 . S
C2602 C2600 1.378 . S
C2602 C2603 1.367 . S
C2603 C2602 1.367 . S
C2603 C2605 1.433 . S
C2604 C2600 1.350 . S
C2604 C2601 1.463 . S
C2604 N2608 1.427 . S
C2605 H2595 0.929 . S
C2605 C2603 1.433 . S
C2605 N2608 1.384 . S
C2606 H2597 0.929 . S
C2606 C2598 1.378 . S
C2606 C2601 1.350 . S
C2607 H2594 0.929 . S
C2607 C2599 1.433 . S
C2607 N2609 1.384 . S
N2608 C2604 1.427 . S
N2608 C2605 1.384 . S
N2609 C2601 1.427 . S
N2609 C2607 1.384 . S
H2610 C2616 0.930 . S
H2611 C2620 0.930 . S
H2612 C2625 0.929 . S
H2613 C2623 0.929 . S
H2614 C2618 0.929 . S
H2615 C2624 0.929 . S
C2616 H2610 0.930 . S
C2616 C2617 1.367 . S
C2616 C2624 1.378 . S
C2617 C2616 1.367 . S
C2617 C2625 1.433 . S
C2618 H2614 0.929 . S
C2618 C2620 1.378 . S
C2618 C2622 1.350 . S
C2619 C2622 1.463 . S
C2619 C2624 1.350 . S
C2619 N2627 1.427 . S
C2620 H2611 0.930 . S
C2620 C2618 1.378 . S
C2620 C2621 1.367 . S
C2621 C2620 1.367 . S
C2621 C2623 1.433 . S
C2622 C2618 1.350 . S
C2622 C2619 1.463 . S
C2622 N2626 1.427 . S
C2623 H2613 0.929 . S
C2623 C2621 1.433 . S
C2623 N2626 1.384 . S
C2624 H2615 0.929 . S
C2624 C2616 1.378 . S
C2624 C2619 1.350 . S
C2625 H2612 0.929 . S
C2625 C2617 1.433 . S
C2625 N2627 1.384 . S
N2626 C2622 1.427 . S
N2626 C2623 1.384 . S
N2627 C2619 1.427 . S
N2627 C2625 1.384 . S
H2628 C2634 0.930 . S
H2629 C2638 0.930 . S
H2630 C2643 0.929 . S
H2631 C2641 0.929 . S
H2632 C2636 0.929 . S
H2633 C2642 0.929 . S
C2634 H2628 0.930 . S
C2634 C2635 1.367 . S
C2634 C2642 1.378 . S
C2635 C2634 1.367 . S
C2635 C2643 1.433 . S
C2636 H2632 0.929 . S
C2636 C2638 1.378 1_556 S
C2636 C2640 1.350 . S
C2637 C2640 1.463 . S
C2637 C2642 1.350 . S
C2637 N2645 1.427 . S
C2638 H2629 0.930 . S
C2638 C2636 1.378 1_554 S
C2638 C2639 1.367 . S
C2639 C2638 1.367 . S
C2639 C2641 1.433 1_554 S
C2640 C2636 1.350 . S
C2640 C2637 1.463 . S
C2640 N2644 1.427 . S
C2641 H2631 0.929 . S
C2641 C2639 1.433 1_556 S
C2641 N2644 1.384 . S
C2642 H2633 0.929 . S
C2642 C2634 1.378 . S
C2642 C2637 1.350 . S
C2643 H2630 0.929 . S
C2643 C2635 1.433 . S
C2643 N2645 1.384 . S
N2644 C2640 1.427 . S
N2644 C2641 1.384 . S
N2645 C2637 1.427 . S
N2645 C2643 1.384 . S
H2646 C2652 0.930 . S
H2647 C2656 0.930 . S
H2648 C2661 0.929 . S
H2649 C2659 0.929 . S
H2650 C2654 0.929 . S
H2651 C2660 0.929 . S
C2652 H2646 0.930 . S
C2652 C2653 1.367 1_556 S
C2652 C2660 1.378 . S
C2653 C2652 1.367 1_554 S
C2653 C2661 1.433 . S
C2654 H2650 0.929 . S
C2654 C2656 1.378 . S
C2654 C2658 1.350 . S
C2655 C2658 1.463 . S
C2655 C2660 1.350 . S
C2655 N2663 1.427 . S
C2656 H2647 0.930 . S
C2656 C2654 1.378 . S
C2656 C2657 1.367 . S
C2657 C2656 1.367 . S
C2657 C2659 1.433 . S
C2658 C2654 1.350 . S
C2658 C2655 1.463 . S
C2658 N2662 1.427 . S
C2659 H2649 0.929 . S
C2659 C2657 1.433 . S
C2659 N2662 1.384 . S
C2660 H2651 0.929 . S
C2660 C2652 1.378 . S
C2660 C2655 1.350 . S
C2661 H2648 0.929 . S
C2661 C2653 1.433 . S
C2661 N2663 1.384 1_554 S
N2662 C2658 1.427 . S
N2662 C2659 1.384 . S
N2663 C2655 1.427 . S
N2663 C2661 1.384 1_556 S
H2664 C2670 0.930 . S
H2665 C2674 0.930 1_554 S
H2666 C2679 0.929 . S
H2667 C2677 0.929 . S
H2668 C2672 0.929 . S
H2669 C2678 0.929 . S
C2670 H2664 0.930 . S
C2670 C2671 1.367 . S
C2670 C2678 1.378 . S
C2671 C2670 1.367 . S
C2671 C2679 1.433 . S
C2672 H2668 0.929 . S
C2672 C2674 1.378 . S
C2672 C2676 1.350 . S
C2673 C2676 1.463 . S
C2673 C2678 1.350 . S
C2673 N2681 1.427 . S
C2674 H2665 0.930 1_556 S
C2674 C2672 1.378 . S
C2674 C2675 1.367 1_556 S
C2675 C2674 1.367 1_554 S
C2675 C2677 1.433 1_554 S
C2676 C2672 1.350 . S
C2676 C2673 1.463 . S
C2676 N2680 1.427 . S
C2677 H2667 0.929 . S
C2677 C2675 1.433 1_556 S
C2677 N2680 1.384 . S
C2678 H2669 0.929 . S
C2678 C2670 1.378 . S
C2678 C2673 1.350 . S
C2679 H2666 0.929 . S
C2679 C2671 1.433 . S
C2679 N2681 1.384 . S
N2680 C2676 1.427 . S
N2680 C2677 1.384 . S
N2681 C2673 1.427 . S
N2681 C2679 1.384 . S
H2682 C2688 0.930 . S
H2683 C2692 0.930 . S
H2684 C2697 0.929 . S
H2685 C2695 0.929 . S
H2686 C2690 0.929 . S
H2687 C2696 0.929 . S
C2688 H2682 0.930 . S
C2688 C2689 1.367 . S
C2688 C2696 1.378 . S
C2689 C2688 1.367 . S
C2689 C2697 1.433 . S
C2690 H2686 0.929 . S
C2690 C2692 1.378 . S
C2690 C2694 1.350 . S
C2691 C2694 1.463 . S
C2691 C2696 1.350 . S
C2691 N2699 1.427 . S
C2692 H2683 0.930 . S
C2692 C2690 1.378 . S
C2692 C2693 1.367 . S
C2693 C2692 1.367 . S
C2693 C2695 1.433 . S
C2694 C2690 1.350 . S
C2694 C2691 1.463 . S
C2694 N2698 1.427 . S
C2695 H2685 0.929 . S
C2695 C2693 1.433 . S
C2695 N2698 1.384 . S
C2696 H2687 0.929 . S
C2696 C2688 1.378 . S
C2696 C2691 1.350 . S
C2697 H2684 0.929 . S
C2697 C2689 1.433 . S
C2697 N2699 1.384 . S
N2698 C2694 1.427 . S
N2698 C2695 1.384 . S
N2699 C2691 1.427 . S
N2699 C2697 1.384 . S
H2700 C2706 0.930 . S
H2701 C2710 0.930 . S
H2702 C2715 0.929 . S
H2703 C2713 0.929 . S
H2704 C2708 0.929 . S
H2705 C2714 0.929 . S
C2706 H2700 0.930 . S
C2706 C2707 1.367 . S
C2706 C2714 1.378 . S
C2707 C2706 1.367 . S
C2707 C2715 1.433 . S
C2708 H2704 0.929 . S
C2708 C2710 1.378 . S
C2708 C2712 1.350 . S
C2709 C2712 1.463 . S
C2709 C2714 1.350 . S
C2709 N2717 1.427 . S
C2710 H2701 0.930 . S
C2710 C2708 1.378 . S
C2710 C2711 1.367 . S
C2711 C2710 1.367 . S
C2711 C2713 1.433 . S
C2712 C2708 1.350 . S
C2712 C2709 1.463 . S
C2712 N2716 1.427 . S
C2713 H2703 0.929 . S
C2713 C2711 1.433 . S
C2713 N2716 1.384 . S
C2714 H2705 0.929 . S
C2714 C2706 1.378 . S
C2714 C2709 1.350 . S
C2715 H2702 0.929 . S
C2715 C2707 1.433 . S
C2715 N2717 1.384 . S
N2716 C2712 1.427 . S
N2716 C2713 1.384 . S
N2717 C2709 1.427 . S
N2717 C2715 1.384 . S
H2718 C2724 0.930 . S
H2719 C2728 0.930 . S
H2720 C2733 0.929 . S
H2721 C2731 0.929 . S
H2722 C2726 0.929 . S
H2723 C2732 0.929 . S
C2724 H2718 0.930 . S
C2724 C2725 1.367 . S
C2724 C2732 1.378 . S
C2725 C2724 1.367 . S
C2725 C2733 1.433 . S
C2726 H2722 0.929 . S
C2726 C2728 1.378 . S
C2726 C2730 1.350 . S
C2727 C2730 1.463 . S
C2727 C2732 1.350 . S
C2727 N2735 1.427 . S
C2728 H2719 0.930 . S
C2728 C2726 1.378 . S
C2728 C2729 1.367 . S
C2729 C2728 1.367 . S
C2729 C2731 1.433 . S
C2730 C2726 1.350 . S
C2730 C2727 1.463 . S
C2730 N2734 1.427 . S
C2731 H2721 0.929 . S
C2731 C2729 1.433 . S
C2731 N2734 1.384 . S
C2732 H2723 0.929 . S
C2732 C2724 1.378 . S
C2732 C2727 1.350 . S
C2733 H2720 0.929 . S
C2733 C2725 1.433 . S
C2733 N2735 1.384 . S
N2734 C2730 1.427 . S
N2734 C2731 1.384 . S
N2735 C2727 1.427 . S
N2735 C2733 1.384 . S
H2736 C2742 0.930 . S
H2737 C2746 0.930 . S
H2738 C2751 0.929 . S
H2739 C2749 0.929 . S
H2740 C2744 0.929 . S
H2741 C2750 0.929 . S
C2742 H2736 0.930 . S
C2742 C2743 1.367 . S
C2742 C2750 1.378 . S
C2743 C2742 1.367 . S
C2743 C2751 1.433 . S
C2744 H2740 0.929 . S
C2744 C2746 1.378 . S
C2744 C2748 1.350 . S
C2745 C2748 1.463 1_455 S
C2745 C2750 1.350 . S
C2745 N2753 1.427 1_455 S
C2746 H2737 0.930 . S
C2746 C2744 1.378 . S
C2746 C2747 1.367 . S
C2747 C2746 1.367 . S
C2747 C2749 1.433 . S
C2748 C2744 1.350 . S
C2748 C2745 1.463 1_655 S
C2748 N2752 1.427 1_655 S
C2749 H2739 0.929 . S
C2749 C2747 1.433 . S
C2749 N2752 1.384 1_655 S
C2750 H2741 0.929 . S
C2750 C2742 1.378 . S
C2750 C2745 1.350 . S
C2751 H2738 0.929 . S
C2751 C2743 1.433 . S
C2751 N2753 1.384 1_455 S
N2752 C2748 1.427 1_455 S
N2752 C2749 1.384 1_455 S
N2753 C2745 1.427 1_655 S
N2753 C2751 1.384 1_655 S
H2754 C2760 0.930 . S
H2755 C2764 0.930 . S
H2756 C2769 0.929 . S
H2757 C2767 0.929 . S
H2758 C2762 0.929 . S
H2759 C2768 0.929 . S
C2760 H2754 0.930 . S
C2760 C2761 1.367 . S
C2760 C2768 1.378 . S
C2761 C2760 1.367 . S
C2761 C2769 1.433 . S
C2762 H2758 0.929 . S
C2762 C2764 1.378 . S
C2762 C2766 1.350 . S
C2763 C2766 1.463 . S
C2763 C2768 1.350 . S
C2763 N2771 1.427 . S
C2764 H2755 0.930 . S
C2764 C2762 1.378 . S
C2764 C2765 1.367 . S
C2765 C2764 1.367 . S
C2765 C2767 1.433 . S
C2766 C2762 1.350 . S
C2766 C2763 1.463 . S
C2766 N2770 1.427 . S
C2767 H2757 0.929 . S
C2767 C2765 1.433 . S
C2767 N2770 1.384 . S
C2768 H2759 0.929 . S
C2768 C2760 1.378 . S
C2768 C2763 1.350 . S
C2769 H2756 0.929 . S
C2769 C2761 1.433 . S
C2769 N2771 1.384 . S
N2770 C2766 1.427 . S
N2770 C2767 1.384 . S
N2771 C2763 1.427 . S
N2771 C2769 1.384 . S
H2772 C2778 0.930 . S
H2773 C2782 0.930 . S
H2774 C2787 0.929 . S
H2775 C2785 0.929 . S
H2776 C2780 0.929 . S
H2777 C2786 0.929 . S
C2778 H2772 0.930 . S
C2778 C2779 1.367 . S
C2778 C2786 1.378 . S
C2779 C2778 1.367 . S
C2779 C2787 1.433 . S
C2780 H2776 0.929 . S
C2780 C2782 1.378 . S
C2780 C2784 1.350 . S
C2781 C2784 1.463 1_565 S
C2781 C2786 1.350 . S
C2781 N2789 1.413 1_565 S
C2782 H2773 0.930 . S
C2782 C2780 1.378 . S
C2782 C2783 1.367 . S
C2783 C2782 1.367 . S
C2783 C2785 1.433 . S
C2784 C2780 1.350 . S
C2784 C2781 1.463 1_545 S
C2784 N2788 1.417 1_545 S
C2785 H2775 0.929 . S
C2785 C2783 1.433 . S
C2785 N2788 1.375 1_545 S
C2786 H2777 0.929 . S
C2786 C2778 1.378 . S
C2786 C2781 1.350 . S
C2787 H2774 0.929 . S
C2787 C2779 1.433 . S
C2787 N2789 1.371 1_565 S
N2788 C2784 1.417 1_565 S
N2788 C2785 1.375 1_565 S
N2789 C2781 1.413 1_545 S
N2789 C2787 1.371 1_545 S
H2790 C2796 0.930 . S
H2791 C2800 0.930 . S
H2792 C2805 0.929 . S
H2793 C2803 0.929 . S
H2794 C2798 0.929 . S
H2795 C2804 0.929 . S
C2796 H2790 0.930 . S
C2796 C2797 1.367 . S
C2796 C2804 1.378 . S
C2797 C2796 1.367 . S
C2797 C2805 1.433 . S
C2798 H2794 0.929 . S
C2798 C2800 1.378 . S
C2798 C2802 1.350 . S
C2799 C2802 1.463 1_655 S
C2799 C2804 1.350 . S
C2799 N2807 1.427 1_655 S
C2800 H2791 0.930 . S
C2800 C2798 1.378 . S
C2800 C2801 1.367 . S
C2801 C2800 1.367 . S
C2801 C2803 1.433 . S
C2802 C2798 1.350 . S
C2802 C2799 1.463 1_455 S
C2802 N2806 1.427 1_455 S
C2803 H2793 0.929 . S
C2803 C2801 1.433 . S
C2803 N2806 1.384 1_455 S
C2804 H2795 0.929 . S
C2804 C2796 1.378 . S
C2804 C2799 1.350 . S
C2805 H2792 0.929 . S
C2805 C2797 1.433 . S
C2805 N2807 1.384 1_655 S
N2806 C2802 1.427 1_655 S
N2806 C2803 1.384 1_655 S
N2807 C2799 1.427 1_455 S
N2807 C2805 1.384 1_455 S
H2808 C2814 0.930 . S
H2809 C2818 0.930 . S
H2810 C2823 0.929 . S
H2811 C2821 0.929 . S
H2812 C2816 0.929 . S
H2813 C2822 0.929 . S
C2814 H2808 0.930 . S
C2814 C2815 1.367 . S
C2814 C2822 1.378 . S
C2815 C2814 1.367 . S
C2815 C2823 1.433 . S
C2816 H2812 0.929 . S
C2816 C2818 1.378 . S
C2816 C2820 1.350 . S
C2817 C2820 1.463 . S
C2817 C2822 1.350 . S
C2817 N2825 1.427 . S
C2818 H2809 0.930 . S
C2818 C2816 1.378 . S
C2818 C2819 1.367 . S
C2819 C2818 1.367 . S
C2819 C2821 1.433 . S
C2820 C2816 1.350 . S
C2820 C2817 1.463 . S
C2820 N2824 1.427 . S
C2821 H2811 0.929 . S
C2821 C2819 1.433 . S
C2821 N2824 1.384 . S
C2822 H2813 0.929 . S
C2822 C2814 1.378 . S
C2822 C2817 1.350 . S
C2823 H2810 0.929 . S
C2823 C2815 1.433 . S
C2823 N2825 1.384 . S
N2824 C2820 1.427 . S
N2824 C2821 1.384 . S
N2825 C2817 1.427 . S
N2825 C2823 1.384 . S
H2826 C2832 0.930 . S
H2827 C2836 0.930 . S
H2828 C2841 0.929 . S
H2829 C2839 0.929 . S
H2830 C2834 0.929 1_545 S
H2831 C2840 0.929 1_565 S
C2832 H2826 0.930 . S
C2832 C2833 1.367 . S
C2832 C2840 1.378 . S
C2833 C2832 1.367 . S
C2833 C2841 1.433 . S
C2834 H2830 0.929 1_565 S
C2834 C2836 1.378 . S
C2834 C2838 1.350 . S
C2835 C2838 1.463 1_545 S
C2835 C2840 1.350 . S
C2835 N2843 1.427 . S
C2836 H2827 0.930 . S
C2836 C2834 1.378 . S
C2836 C2837 1.367 . S
C2837 C2836 1.367 . S
C2837 C2839 1.433 . S
C2838 C2834 1.350 . S
C2838 C2835 1.463 1_565 S
C2838 N2842 1.427 . S
C2839 H2829 0.929 . S
C2839 C2837 1.433 . S
C2839 N2842 1.384 . S
C2840 H2831 0.929 1_545 S
C2840 C2832 1.378 . S
C2840 C2835 1.350 . S
C2841 H2828 0.929 . S
C2841 C2833 1.433 . S
C2841 N2843 1.384 . S
N2842 C2838 1.427 . S
N2842 C2839 1.384 . S
N2843 C2835 1.427 . S
N2843 C2841 1.384 . S
H2844 C2850 0.930 . S
H2845 C2854 0.930 . S
H2846 C2859 0.929 . S
H2847 C2857 0.929 . S
H2848 C2852 0.929 . S
H2849 C2858 0.929 . S
C2850 H2844 0.930 . S
C2850 C2851 1.367 . S
C2850 C2858 1.378 . S
C2851 C2850 1.367 . S
C2851 C2859 1.433 . S
C2852 H2848 0.929 . S
C2852 C2854 1.378 . S
C2852 C2856 1.350 . S
C2853 C2856 1.463 . S
C2853 C2858 1.350 . S
C2853 N2861 1.427 . S
C2854 H2845 0.930 . S
C2854 C2852 1.378 . S
C2854 C2855 1.367 . S
C2855 C2854 1.367 . S
C2855 C2857 1.433 . S
C2856 C2852 1.350 . S
C2856 C2853 1.463 . S
C2856 N2860 1.427 . S
C2857 H2847 0.929 . S
C2857 C2855 1.433 . S
C2857 N2860 1.384 . S
C2858 H2849 0.929 . S
C2858 C2850 1.378 . S
C2858 C2853 1.350 . S
C2859 H2846 0.929 . S
C2859 C2851 1.433 . S
C2859 N2861 1.384 . S
N2860 C2856 1.427 . S
N2860 C2857 1.384 . S
N2861 C2853 1.427 . S
N2861 C2859 1.384 . S
H2862 C2868 0.930 . S
H2863 C2872 0.930 . S
H2864 C2877 0.929 . S
H2865 C2875 0.929 . S
H2866 C2870 0.929 . S
H2867 C2876 0.929 . S
C2868 H2862 0.930 . S
C2868 C2869 1.367 . S
C2868 C2876 1.378 . S
C2869 C2868 1.367 . S
C2869 C2877 1.433 . S
C2870 H2866 0.929 . S
C2870 C2872 1.378 . S
C2870 C2874 1.350 . S
C2871 C2874 1.463 . S
C2871 C2876 1.350 . S
C2871 N2879 1.427 . S
C2872 H2863 0.930 . S
C2872 C2870 1.378 . S
C2872 C2873 1.367 . S
C2873 C2872 1.367 . S
C2873 C2875 1.433 . S
C2874 C2870 1.350 . S
C2874 C2871 1.463 . S
C2874 N2878 1.427 . S
C2875 H2865 0.929 . S
C2875 C2873 1.433 . S
C2875 N2878 1.384 . S
C2876 H2867 0.929 . S
C2876 C2868 1.378 . S
C2876 C2871 1.350 . S
C2877 H2864 0.929 . S
C2877 C2869 1.433 . S
C2877 N2879 1.384 . S
N2878 C2874 1.427 . S
N2878 C2875 1.384 . S
N2879 C2871 1.427 . S
N2879 C2877 1.384 . S
H2880 C2886 0.930 . S
H2881 C2890 0.930 . S
H2882 C2895 0.929 . S
H2883 C2893 0.929 . S
H2884 C2888 0.929 . S
H2885 C2894 0.929 . S
C2886 H2880 0.930 . S
C2886 C2887 1.367 . S
C2886 C2894 1.378 . S
C2887 C2886 1.367 . S
C2887 C2895 1.433 . S
C2888 H2884 0.929 . S
C2888 C2890 1.378 . S
C2888 C2892 1.350 . S
C2889 C2892 1.463 . S
C2889 C2894 1.350 . S
C2889 N2897 1.427 . S
C2890 H2881 0.930 . S
C2890 C2888 1.378 . S
C2890 C2891 1.367 . S
C2891 C2890 1.367 . S
C2891 C2893 1.433 . S
C2892 C2888 1.350 . S
C2892 C2889 1.463 . S
C2892 N2896 1.427 . S
C2893 H2883 0.929 . S
C2893 C2891 1.433 . S
C2893 N2896 1.384 . S
C2894 H2885 0.929 . S
C2894 C2886 1.378 . S
C2894 C2889 1.350 . S
C2895 H2882 0.929 . S
C2895 C2887 1.433 . S
C2895 N2897 1.384 . S
N2896 C2892 1.427 . S
N2896 C2893 1.384 . S
N2897 C2889 1.427 . S
N2897 C2895 1.384 . S
H2898 C2904 0.930 . S
H2899 C2908 0.930 . S
H2900 C2913 0.929 . S
H2901 C2911 0.929 . S
H2902 C2906 0.929 . S
H2903 C2912 0.929 . S
C2904 H2898 0.930 . S
C2904 C2905 1.367 . S
C2904 C2912 1.378 . S
C2905 C2904 1.367 . S
C2905 C2913 1.433 . S
C2906 H2902 0.929 . S
C2906 C2908 1.378 . S
C2906 C2910 1.350 . S
C2907 C2910 1.463 . S
C2907 C2912 1.350 . S
C2907 N2915 1.427 . S
C2908 H2899 0.930 . S
C2908 C2906 1.378 . S
C2908 C2909 1.367 . S
C2909 C2908 1.367 . S
C2909 C2911 1.433 . S
C2910 C2906 1.350 . S
C2910 C2907 1.463 . S
C2910 N2914 1.427 . S
C2911 H2901 0.929 . S
C2911 C2909 1.433 . S
C2911 N2914 1.384 . S
C2912 H2903 0.929 . S
C2912 C2904 1.378 . S
C2912 C2907 1.350 . S
C2913 H2900 0.929 . S
C2913 C2905 1.433 . S
C2913 N2915 1.384 . S
N2914 C2910 1.427 . S
N2914 C2911 1.384 . S
N2915 C2907 1.427 . S
N2915 C2913 1.384 . S
H2916 C2922 0.930 . S
H2917 C2926 0.930 . S
H2918 C2931 0.929 . S
H2919 C2929 0.929 . S
H2920 C2924 0.929 . S
H2921 C2930 0.929 . S
C2922 H2916 0.930 . S
C2922 C2923 1.367 . S
C2922 C2930 1.378 . S
C2923 C2922 1.367 . S
C2923 C2931 1.433 . S
C2924 H2920 0.929 . S
C2924 C2926 1.378 . S
C2924 C2928 1.350 . S
C2925 C2928 1.463 . S
C2925 C2930 1.350 . S
C2925 N2933 1.427 . S
C2926 H2917 0.930 . S
C2926 C2924 1.378 . S
C2926 C2927 1.367 . S
C2927 C2926 1.367 . S
C2927 C2929 1.433 . S
C2928 C2924 1.350 . S
C2928 C2925 1.463 . S
C2928 N2932 1.427 . S
C2929 H2919 0.929 . S
C2929 C2927 1.433 . S
C2929 N2932 1.384 . S
C2930 H2921 0.929 . S
C2930 C2922 1.378 . S
C2930 C2925 1.350 . S
C2931 H2918 0.929 . S
C2931 C2923 1.433 . S
C2931 N2933 1.384 . S
N2932 C2928 1.427 . S
N2932 C2929 1.384 . S
N2933 C2925 1.427 . S
N2933 C2931 1.384 . S
H2934 C2940 0.930 . S
H2935 C2944 0.930 . S
H2936 C2949 0.929 . S
H2937 C2947 0.929 . S
H2938 C2942 0.929 . S
H2939 C2948 0.929 . S
C2940 H2934 0.930 . S
C2940 C2941 1.367 . S
C2940 C2948 1.378 . S
C2941 C2940 1.367 . S
C2941 C2949 1.433 . S
C2942 H2938 0.929 . S
C2942 C2944 1.378 . S
C2942 C2946 1.350 . S
C2943 C2946 1.463 . S
C2943 C2948 1.350 . S
C2943 N2951 1.427 . S
C2944 H2935 0.930 . S
C2944 C2942 1.378 . S
C2944 C2945 1.367 . S
C2945 C2944 1.367 . S
C2945 C2947 1.433 . S
C2946 C2942 1.350 . S
C2946 C2943 1.463 . S
C2946 N2950 1.427 . S
C2947 H2937 0.929 . S
C2947 C2945 1.433 . S
C2947 N2950 1.384 . S
C2948 H2939 0.929 . S
C2948 C2940 1.378 . S
C2948 C2943 1.350 . S
C2949 H2936 0.929 . S
C2949 C2941 1.433 . S
C2949 N2951 1.384 . S
N2950 C2946 1.427 . S
N2950 C2947 1.384 . S
N2951 C2943 1.427 . S
N2951 C2949 1.384 . S
H2952 C2958 0.930 . S
H2953 C2962 0.930 . S
H2954 C2967 0.929 . S
H2955 C2965 0.929 . S
H2956 C2960 0.925 1_554 S
H2957 C2966 0.929 . S
C2958 H2952 0.930 . S
C2958 C2959 1.367 . S
C2958 C2966 1.378 . S
C2959 C2958 1.367 . S
C2959 C2967 1.433 . S
C2960 H2956 0.925 1_556 S
C2960 C2962 1.378 . S
C2960 C2964 1.350 1_556 S
C2961 C2964 1.463 . S
C2961 C2966 1.350 . S
C2961 N2969 1.427 . S
C2962 H2953 0.930 . S
C2962 C2960 1.378 . S
C2962 C2963 1.367 . S
C2963 C2962 1.367 . S
C2963 C2965 1.433 . S
C2964 C2960 1.350 1_554 S
C2964 C2961 1.463 . S
C2964 N2968 1.427 . S
C2965 H2955 0.929 . S
C2965 C2963 1.433 . S
C2965 N2968 1.384 1_556 S
C2966 H2957 0.929 . S
C2966 C2958 1.378 . S
C2966 C2961 1.350 . S
C2967 H2954 0.929 . S
C2967 C2959 1.433 . S
C2967 N2969 1.384 . S
N2968 C2964 1.427 . S
N2968 C2965 1.384 1_554 S
N2969 C2961 1.427 . S
N2969 C2967 1.384 . S
H2970 C2976 0.930 . S
H2971 C2980 0.930 . S
H2972 C2985 0.929 . S
H2973 C2983 0.929 . S
H2974 C2978 0.929 . S
H2975 C2984 0.929 . S
C2976 H2970 0.930 . S
C2976 C2977 1.367 . S
C2976 C2984 1.378 . S
C2977 C2976 1.367 . S
C2977 C2985 1.433 . S
C2978 H2974 0.929 . S
C2978 C2980 1.378 . S
C2978 C2982 1.350 . S
C2979 C2982 1.463 . S
C2979 C2984 1.350 1_554 S
C2979 N2987 1.427 . S
C2980 H2971 0.930 . S
C2980 C2978 1.378 . S
C2980 C2981 1.367 . S
C2981 C2980 1.367 . S
C2981 C2983 1.433 . S
C2982 C2978 1.350 . S
C2982 C2979 1.463 . S
C2982 N2986 1.427 . S
C2983 H2973 0.929 . S
C2983 C2981 1.433 . S
C2983 N2986 1.384 . S
C2984 H2975 0.929 . S
C2984 C2976 1.378 . S
C2984 C2979 1.350 1_556 S
C2985 H2972 0.929 . S
C2985 C2977 1.433 . S
C2985 N2987 1.384 1_556 S
N2986 C2982 1.427 . S
N2986 C2983 1.384 . S
N2987 C2979 1.427 . S
N2987 C2985 1.384 1_554 S
H2988 C2994 0.930 . S
H2989 C2998 0.930 . S
H2990 C3003 0.929 . S
H2991 C3001 0.929 . S
H2992 C2996 0.929 . S
H2993 C3002 0.929 . S
C2994 H2988 0.930 . S
C2994 C2995 1.367 . S
C2994 C3002 1.378 . S
C2995 C2994 1.367 . S
C2995 C3003 1.433 . S
C2996 H2992 0.929 . S
C2996 C2998 1.378 . S
C2996 C3000 1.350 . S
C2997 C3000 1.463 . S
C2997 C3002 1.350 1_554 S
C2997 N3005 1.427 . S
C2998 H2989 0.930 . S
C2998 C2996 1.378 . S
C2998 C2999 1.367 . S
C2999 C2998 1.367 . S
C2999 C3001 1.433 . S
C3000 C2996 1.350 . S
C3000 C2997 1.463 . S
C3000 N3004 1.427 . S
C3001 H2991 0.929 . S
C3001 C2999 1.433 . S
C3001 N3004 1.384 . S
C3002 H2993 0.929 . S
C3002 C2994 1.378 . S
C3002 C2997 1.350 1_556 S
C3003 H2990 0.929 . S
C3003 C2995 1.433 . S
C3003 N3005 1.384 1_556 S
N3004 C3000 1.427 . S
N3004 C3001 1.384 . S
N3005 C2997 1.427 . S
N3005 C3003 1.384 1_554 S
H3006 C3012 0.930 . S
H3007 C3016 0.930 . S
H3008 C3021 0.929 . S
H3009 C3019 0.929 . S
H3010 C3014 0.929 . S
H3011 C3020 0.929 . S
C3012 H3006 0.930 . S
C3012 C3013 1.367 . S
C3012 C3020 1.378 . S
C3013 C3012 1.367 . S
C3013 C3021 1.433 . S
C3014 H3010 0.929 . S
C3014 C3016 1.378 . S
C3014 C3018 1.350 . S
C3015 C3018 1.463 . S
C3015 C3020 1.350 . S
C3015 N3023 1.427 . S
C3016 H3007 0.930 . S
C3016 C3014 1.378 . S
C3016 C3017 1.367 . S
C3017 C3016 1.367 . S
C3017 C3019 1.433 . S
C3018 C3014 1.350 . S
C3018 C3015 1.463 . S
C3018 N3022 1.427 . S
C3019 H3009 0.929 . S
C3019 C3017 1.433 . S
C3019 N3022 1.384 . S
C3020 H3011 0.929 . S
C3020 C3012 1.378 . S
C3020 C3015 1.350 . S
C3021 H3008 0.929 . S
C3021 C3013 1.433 . S
C3021 N3023 1.384 . S
N3022 C3018 1.427 . S
N3022 C3019 1.384 . S
N3023 C3015 1.427 . S
N3023 C3021 1.384 . S
H3024 C3030 0.930 . S
H3025 C3034 0.930 . S
H3026 C3039 0.929 . S
H3027 C3037 0.929 . S
H3028 C3032 0.929 . S
H3029 C3038 0.929 . S
C3030 H3024 0.930 . S
C3030 C3031 1.367 . S
C3030 C3038 1.378 . S
C3031 C3030 1.367 . S
C3031 C3039 1.433 . S
C3032 H3028 0.929 . S
C3032 C3034 1.378 . S
C3032 C3036 1.350 . S
C3033 C3036 1.463 . S
C3033 C3038 1.350 . S
C3033 N3041 1.427 . S
C3034 H3025 0.930 . S
C3034 C3032 1.378 . S
C3034 C3035 1.367 . S
C3035 C3034 1.367 . S
C3035 C3037 1.433 . S
C3036 C3032 1.350 . S
C3036 C3033 1.463 . S
C3036 N3040 1.427 . S
C3037 H3027 0.929 . S
C3037 C3035 1.433 . S
C3037 N3040 1.384 . S
C3038 H3029 0.929 . S
C3038 C3030 1.378 . S
C3038 C3033 1.350 . S
C3039 H3026 0.929 . S
C3039 C3031 1.433 . S
C3039 N3041 1.384 . S
N3040 C3036 1.427 . S
N3040 C3037 1.384 . S
N3041 C3033 1.427 . S
N3041 C3039 1.384 . S
H3042 C3048 0.930 . S
H3043 C3052 0.930 . S
H3044 C3057 0.929 . S
H3045 C3055 0.929 . S
H3046 C3050 0.929 . S
H3047 C3056 0.929 . S
C3048 H3042 0.930 . S
C3048 C3049 1.367 . S
C3048 C3056 1.378 . S
C3049 C3048 1.367 . S
C3049 C3057 1.433 . S
C3050 H3046 0.929 . S
C3050 C3052 1.378 . S
C3050 C3054 1.350 . S
C3051 C3054 1.463 . S
C3051 C3056 1.350 . S
C3051 N3059 1.427 . S
C3052 H3043 0.930 . S
C3052 C3050 1.378 . S
C3052 C3053 1.367 . S
C3053 C3052 1.367 . S
C3053 C3055 1.433 . S
C3054 C3050 1.350 . S
C3054 C3051 1.463 . S
C3054 N3058 1.427 . S
C3055 H3045 0.929 . S
C3055 C3053 1.433 . S
C3055 N3058 1.384 . S
C3056 H3047 0.929 . S
C3056 C3048 1.378 . S
C3056 C3051 1.350 . S
C3057 H3044 0.929 . S
C3057 C3049 1.433 . S
C3057 N3059 1.384 . S
N3058 C3054 1.427 . S
N3058 C3055 1.384 . S
N3059 C3051 1.427 . S
N3059 C3057 1.384 . S
H3060 C3066 0.930 . S
H3061 C3070 0.930 . S
H3062 C3075 0.929 . S
H3063 C3073 0.929 . S
H3064 C3068 0.929 . S
H3065 C3074 0.929 . S
C3066 H3060 0.930 . S
C3066 C3067 1.367 . S
C3066 C3074 1.378 . S
C3067 C3066 1.367 . S
C3067 C3075 1.433 . S
C3068 H3064 0.929 . S
C3068 C3070 1.378 . S
C3068 C3072 1.350 . S
C3069 C3072 1.463 1_455 S
C3069 C3074 1.350 . S
C3069 N3077 1.427 . S
C3070 H3061 0.930 . S
C3070 C3068 1.378 . S
C3070 C3071 1.367 . S
C3071 C3070 1.367 . S
C3071 C3073 1.433 . S
C3072 C3068 1.350 . S
C3072 C3069 1.463 1_655 S
C3072 N3076 1.427 . S
C3073 H3063 0.929 . S
C3073 C3071 1.433 . S
C3073 N3076 1.384 . S
C3074 H3065 0.929 . S
C3074 C3066 1.378 . S
C3074 C3069 1.350 . S
C3075 H3062 0.929 . S
C3075 C3067 1.433 . S
C3075 N3077 1.384 . S
N3076 C3072 1.427 . S
N3076 C3073 1.384 . S
N3077 C3069 1.427 . S
N3077 C3075 1.384 . S
H3078 C3084 0.930 . S
H3079 C3088 0.930 . S
H3080 C3093 0.929 . S
H3081 C3091 0.929 . S
H3082 C3086 0.929 . S
H3083 C3092 0.929 . S
C3084 H3078 0.930 . S
C3084 C3085 1.367 . S
C3084 C3092 1.378 . S
C3085 C3084 1.367 . S
C3085 C3093 1.433 . S
C3086 H3082 0.929 . S
C3086 C3088 1.378 . S
C3086 C3090 1.350 . S
C3087 C3090 1.463 . S
C3087 C3092 1.350 . S
C3087 N3095 1.427 . S
C3088 H3079 0.930 . S
C3088 C3086 1.378 . S
C3088 C3089 1.367 . S
C3089 C3088 1.367 . S
C3089 C3091 1.433 . S
C3090 C3086 1.350 . S
C3090 C3087 1.463 . S
C3090 N3094 1.427 . S
C3091 H3081 0.929 . S
C3091 C3089 1.433 . S
C3091 N3094 1.384 . S
C3092 H3083 0.929 . S
C3092 C3084 1.378 . S
C3092 C3087 1.350 . S
C3093 H3080 0.929 . S
C3093 C3085 1.433 . S
C3093 N3095 1.384 . S
N3094 C3090 1.427 . S
N3094 C3091 1.384 . S
N3095 C3087 1.427 . S
N3095 C3093 1.384 . S
H3096 C3102 0.930 . S
H3097 C3106 0.930 . S
H3098 C3111 0.929 . S
H3099 C3109 0.929 . S
H3100 C3104 0.929 1_545 S
H3101 C3110 0.929 1_565 S
C3102 H3096 0.930 . S
C3102 C3103 1.367 . S
C3102 C3110 1.378 . S
C3103 C3102 1.367 . S
C3103 C3111 1.433 . S
C3104 H3100 0.929 1_565 S
C3104 C3106 1.378 . S
C3104 C3108 1.350 . S
C3105 C3108 1.463 1_545 S
C3105 C3110 1.350 . S
C3105 N3113 1.427 . S
C3106 H3097 0.930 . S
C3106 C3104 1.378 . S
C3106 C3107 1.367 . S
C3107 C3106 1.367 . S
C3107 C3109 1.433 . S
C3108 C3104 1.350 . S
C3108 C3105 1.463 1_565 S
C3108 N3112 1.427 . S
C3109 H3099 0.929 . S
C3109 C3107 1.433 . S
C3109 N3112 1.384 . S
C3110 H3101 0.929 1_545 S
C3110 C3102 1.378 . S
C3110 C3105 1.350 . S
C3111 H3098 0.929 . S
C3111 C3103 1.433 . S
C3111 N3113 1.384 . S
N3112 C3108 1.427 . S
N3112 C3109 1.384 . S
N3113 C3105 1.427 . S
N3113 C3111 1.384 . S
H3114 C3120 0.930 . S
H3115 C3124 0.930 . S
H3116 C3129 0.929 . S
H3117 C3127 0.929 . S
H3118 C3122 0.929 1_565 S
H3119 C3128 0.929 1_545 S
C3120 H3114 0.930 . S
C3120 C3121 1.367 . S
C3120 C3128 1.378 . S
C3121 C3120 1.367 . S
C3121 C3129 1.433 . S
C3122 H3118 0.929 1_545 S
C3122 C3124 1.378 . S
C3122 C3126 1.350 . S
C3123 C3126 1.463 1_565 S
C3123 C3128 1.350 . S
C3123 N3131 1.427 . S
C3124 H3115 0.930 . S
C3124 C3122 1.378 . S
C3124 C3125 1.367 . S
C3125 C3124 1.367 . S
C3125 C3127 1.433 . S
C3126 C3122 1.350 . S
C3126 C3123 1.463 1_545 S
C3126 N3130 1.427 . S
C3127 H3117 0.929 . S
C3127 C3125 1.433 . S
C3127 N3130 1.384 . S
C3128 H3119 0.929 1_565 S
C3128 C3120 1.378 . S
C3128 C3123 1.350 . S
C3129 H3116 0.929 . S
C3129 C3121 1.433 . S
C3129 N3131 1.384 . S
N3130 C3126 1.427 . S
N3130 C3127 1.384 . S
N3131 C3123 1.427 . S
N3131 C3129 1.384 . S
H3132 C3138 0.930 . S
H3133 C3142 0.930 . S
H3134 C3147 0.929 . S
H3135 C3145 0.929 . S
H3136 C3140 0.929 1_655 S
H3137 C3146 0.929 1_455 S
C3138 H3132 0.930 . S
C3138 C3139 1.367 . S
C3138 C3146 1.378 . S
C3139 C3138 1.367 . S
C3139 C3147 1.433 . S
C3140 H3136 0.929 1_455 S
C3140 C3142 1.378 . S
C3140 C3144 1.350 . S
C3141 C3144 1.463 1_655 S
C3141 C3146 1.350 . S
C3141 N3149 1.427 . S
C3142 H3133 0.930 . S
C3142 C3140 1.378 . S
C3142 C3143 1.367 . S
C3143 C3142 1.367 . S
C3143 C3145 1.433 . S
C3144 C3140 1.350 . S
C3144 C3141 1.463 1_455 S
C3144 N3148 1.427 . S
C3145 H3135 0.929 . S
C3145 C3143 1.433 . S
C3145 N3148 1.384 . S
C3146 H3137 0.929 1_655 S
C3146 C3138 1.378 . S
C3146 C3141 1.350 . S
C3147 H3134 0.929 . S
C3147 C3139 1.433 . S
C3147 N3149 1.384 . S
N3148 C3144 1.427 . S
N3148 C3145 1.384 . S
N3149 C3141 1.427 . S
N3149 C3147 1.384 . S
H3150 C3156 0.930 . S
H3151 C3160 0.930 . S
H3152 C3165 0.929 . S
H3153 C3163 0.929 . S
H3154 C3158 0.929 . S
H3155 C3164 0.929 . S
C3156 H3150 0.930 . S
C3156 C3157 1.367 . S
C3156 C3164 1.378 . S
C3157 C3156 1.367 . S
C3157 C3165 1.433 . S
C3158 H3154 0.929 . S
C3158 C3160 1.378 . S
C3158 C3162 1.350 . S
C3159 C3162 1.463 . S
C3159 C3164 1.350 . S
C3159 N3167 1.427 . S
C3160 H3151 0.930 . S
C3160 C3158 1.378 . S
C3160 C3161 1.367 . S
C3161 C3160 1.367 . S
C3161 C3163 1.433 . S
C3162 C3158 1.350 . S
C3162 C3159 1.463 . S
C3162 N3166 1.427 . S
C3163 H3153 0.929 . S
C3163 C3161 1.433 . S
C3163 N3166 1.384 . S
C3164 H3155 0.929 . S
C3164 C3156 1.378 . S
C3164 C3159 1.350 . S
C3165 H3152 0.929 . S
C3165 C3157 1.433 . S
C3165 N3167 1.384 . S
N3166 C3162 1.427 . S
N3166 C3163 1.384 . S
N3167 C3159 1.427 . S
N3167 C3165 1.384 . S
H3168 C3174 0.930 . S
H3169 C3178 0.930 . S
H3170 C3183 0.929 . S
H3171 C3181 0.929 . S
H3172 C3176 0.929 . S
H3173 C3182 0.929 . S
C3174 H3168 0.930 . S
C3174 C3175 1.367 . S
C3174 C3182 1.378 . S
C3175 C3174 1.367 . S
C3175 C3183 1.433 . S
C3176 H3172 0.929 . S
C3176 C3178 1.378 . S
C3176 C3180 1.350 . S
C3177 C3180 1.463 . S
C3177 C3182 1.350 . S
C3177 N3185 1.427 . S
C3178 H3169 0.930 . S
C3178 C3176 1.378 . S
C3178 C3179 1.367 . S
C3179 C3178 1.367 . S
C3179 C3181 1.433 . S
C3180 C3176 1.350 . S
C3180 C3177 1.463 . S
C3180 N3184 1.427 . S
C3181 H3171 0.929 . S
C3181 C3179 1.433 . S
C3181 N3184 1.384 . S
C3182 H3173 0.929 . S
C3182 C3174 1.378 . S
C3182 C3177 1.350 . S
C3183 H3170 0.929 . S
C3183 C3175 1.433 . S
C3183 N3185 1.384 . S
N3184 C3180 1.427 . S
N3184 C3181 1.384 . S
N3185 C3177 1.427 . S
N3185 C3183 1.384 . S
H3186 C3192 0.930 . S
H3187 C3196 0.930 . S
H3188 C3201 0.929 . S
H3189 C3199 0.929 . S
H3190 C3194 0.929 . S
H3191 C3200 0.929 . S
C3192 H3186 0.930 . S
C3192 C3193 1.367 . S
C3192 C3200 1.378 . S
C3193 C3192 1.367 . S
C3193 C3201 1.433 . S
C3194 H3190 0.929 . S
C3194 C3196 1.378 . S
C3194 C3198 1.350 . S
C3195 C3198 1.463 . S
C3195 C3200 1.350 . S
C3195 N3203 1.427 . S
C3196 H3187 0.930 . S
C3196 C3194 1.378 . S
C3196 C3197 1.367 . S
C3197 C3196 1.367 . S
C3197 C3199 1.433 . S
C3198 C3194 1.350 . S
C3198 C3195 1.463 . S
C3198 N3202 1.427 . S
C3199 H3189 0.929 . S
C3199 C3197 1.433 . S
C3199 N3202 1.384 . S
C3200 H3191 0.929 . S
C3200 C3192 1.378 . S
C3200 C3195 1.350 . S
C3201 H3188 0.929 . S
C3201 C3193 1.433 . S
C3201 N3203 1.384 . S
N3202 C3198 1.427 . S
N3202 C3199 1.384 . S
N3203 C3195 1.427 . S
N3203 C3201 1.384 . S
H3204 C3210 0.930 . S
H3205 C3214 0.930 . S
H3206 C3219 0.929 . S
H3207 C3217 0.929 . S
H3208 C3212 0.929 . S
H3209 C3218 0.929 . S
C3210 H3204 0.930 . S
C3210 C3211 1.367 . S
C3210 C3218 1.378 . S
C3211 C3210 1.367 . S
C3211 C3219 1.433 . S
C3212 H3208 0.929 . S
C3212 C3214 1.378 . S
C3212 C3216 1.350 . S
C3213 C3216 1.463 . S
C3213 C3218 1.350 . S
C3213 N3221 1.427 . S
C3214 H3205 0.930 . S
C3214 C3212 1.378 . S
C3214 C3215 1.367 . S
C3215 C3214 1.367 . S
C3215 C3217 1.433 . S
C3216 C3212 1.350 . S
C3216 C3213 1.463 . S
C3216 N3220 1.427 . S
C3217 H3207 0.929 . S
C3217 C3215 1.433 . S
C3217 N3220 1.384 . S
C3218 H3209 0.929 . S
C3218 C3210 1.378 . S
C3218 C3213 1.350 . S
C3219 H3206 0.929 . S
C3219 C3211 1.433 . S
C3219 N3221 1.384 . S
N3220 C3216 1.427 . S
N3220 C3217 1.384 . S
N3221 C3213 1.427 . S
N3221 C3219 1.384 . S
H3222 C3228 0.930 . S
H3223 C3232 0.930 . S
H3224 C3237 0.929 . S
H3225 C3235 0.929 . S
H3226 C3230 0.929 . S
H3227 C3236 0.929 . S
C3228 H3222 0.930 . S
C3228 C3229 1.367 1_554 S
C3228 C3236 1.378 1_554 S
C3229 C3228 1.367 1_556 S
C3229 C3237 1.433 . S
C3230 H3226 0.929 . S
C3230 C3232 1.378 . S
C3230 C3234 1.350 . S
C3231 C3234 1.463 . S
C3231 C3236 1.350 . S
C3231 N3239 1.427 . S
C3232 H3223 0.930 . S
C3232 C3230 1.378 . S
C3232 C3233 1.367 . S
C3233 C3232 1.367 . S
C3233 C3235 1.433 . S
C3234 C3230 1.350 . S
C3234 C3231 1.463 . S
C3234 N3238 1.427 . S
C3235 H3225 0.929 . S
C3235 C3233 1.433 . S
C3235 N3238 1.384 . S
C3236 H3227 0.929 . S
C3236 C3228 1.378 1_556 S
C3236 C3231 1.350 . S
C3237 H3224 0.929 . S
C3237 C3229 1.433 . S
C3237 N3239 1.384 . S
N3238 C3234 1.427 . S
N3238 C3235 1.384 . S
N3239 C3231 1.427 . S
N3239 C3237 1.384 . S
H3240 C3246 0.930 . S
H3241 C3250 0.930 . S
H3242 C3255 0.929 . S
H3243 C3253 0.929 . S
H3244 C3248 0.929 . S
H3245 C3254 0.929 . S
C3246 H3240 0.930 . S
C3246 C3247 1.367 . S
C3246 C3254 1.378 . S
C3247 C3246 1.367 . S
C3247 C3255 1.433 1_556 S
C3248 H3244 0.929 . S
C3248 C3250 1.378 . S
C3248 C3252 1.350 . S
C3249 C3252 1.463 . S
C3249 C3254 1.350 . S
C3249 N3257 1.427 . S
C3250 H3241 0.930 . S
C3250 C3248 1.378 . S
C3250 C3251 1.367 . S
C3251 C3250 1.367 . S
C3251 C3253 1.433 . S
C3252 C3248 1.350 . S
C3252 C3249 1.463 . S
C3252 N3256 1.427 . S
C3253 H3243 0.929 . S
C3253 C3251 1.433 . S
C3253 N3256 1.384 . S
C3254 H3245 0.929 . S
C3254 C3246 1.378 . S
C3254 C3249 1.350 . S
C3255 H3242 0.929 . S
C3255 C3247 1.433 1_554 S
C3255 N3257 1.384 1_554 S
N3256 C3252 1.427 . S
N3256 C3253 1.384 . S
N3257 C3249 1.427 . S
N3257 C3255 1.384 1_556 S
H3258 C3264 0.930 . S
H3259 C3268 0.930 . S
H3260 C3273 0.929 . S
H3261 C3271 0.929 . S
H3262 C3266 0.929 . S
H3263 C3272 0.929 . S
C3264 H3258 0.930 . S
C3264 C3265 1.367 . S
C3264 C3272 1.378 . S
C3265 C3264 1.367 . S
C3265 C3273 1.433 1_556 S
C3266 H3262 0.929 . S
C3266 C3268 1.378 . S
C3266 C3270 1.350 . S
C3267 C3270 1.463 . S
C3267 C3272 1.350 . S
C3267 N3275 1.427 . S
C3268 H3259 0.930 . S
C3268 C3266 1.378 . S
C3268 C3269 1.367 . S
C3269 C3268 1.367 . S
C3269 C3271 1.433 . S
C3270 C3266 1.350 . S
C3270 C3267 1.463 . S
C3270 N3274 1.427 . S
C3271 H3261 0.929 . S
C3271 C3269 1.433 . S
C3271 N3274 1.384 . S
C3272 H3263 0.929 . S
C3272 C3264 1.378 . S
C3272 C3267 1.350 . S
C3273 H3260 0.929 . S
C3273 C3265 1.433 1_554 S
C3273 N3275 1.384 1_554 S
N3274 C3270 1.427 . S
N3274 C3271 1.384 . S
N3275 C3267 1.427 . S
N3275 C3273 1.384 1_556 S
H3276 C3282 0.930 . S
H3277 C3286 0.930 . S
H3278 C3291 0.929 . S
H3279 C3289 0.929 . S
H3280 C3284 0.929 . S
H3281 C3290 0.929 . S
C3282 H3276 0.930 . S
C3282 C3283 1.367 . S
C3282 C3290 1.378 . S
C3283 C3282 1.367 . S
C3283 C3291 1.433 . S
C3284 H3280 0.929 . S
C3284 C3286 1.378 . S
C3284 C3288 1.350 . S
C3285 C3288 1.463 . S
C3285 C3290 1.350 . S
C3285 N3293 1.427 . S
C3286 H3277 0.930 . S
C3286 C3284 1.378 . S
C3286 C3287 1.367 . S
C3287 C3286 1.367 . S
C3287 C3289 1.433 . S
C3288 C3284 1.350 . S
C3288 C3285 1.463 . S
C3288 N3292 1.427 . S
C3289 H3279 0.929 . S
C3289 C3287 1.433 . S
C3289 N3292 1.384 . S
C3290 H3281 0.929 . S
C3290 C3282 1.378 . S
C3290 C3285 1.350 . S
C3291 H3278 0.929 . S
C3291 C3283 1.433 . S
C3291 N3293 1.384 . S
N3292 C3288 1.427 . S
N3292 C3289 1.384 . S
N3293 C3285 1.427 . S
N3293 C3291 1.384 . S
H3294 C3300 0.930 . S
H3295 C3304 0.930 . S
H3296 C3309 0.929 . S
H3297 C3307 0.929 . S
H3298 C3302 0.929 . S
H3299 C3308 0.929 . S
C3300 H3294 0.930 . S
C3300 C3301 1.367 . S
C3300 C3308 1.378 . S
C3301 C3300 1.367 . S
C3301 C3309 1.433 . S
C3302 H3298 0.929 . S
C3302 C3304 1.378 . S
C3302 C3306 1.350 . S
C3303 C3306 1.463 . S
C3303 C3308 1.350 . S
C3303 N3311 1.427 . S
C3304 H3295 0.930 . S
C3304 C3302 1.378 . S
C3304 C3305 1.367 . S
C3305 C3304 1.367 . S
C3305 C3307 1.433 . S
C3306 C3302 1.350 . S
C3306 C3303 1.463 . S
C3306 N3310 1.427 . S
C3307 H3297 0.929 . S
C3307 C3305 1.433 . S
C3307 N3310 1.384 . S
C3308 H3299 0.929 . S
C3308 C3300 1.378 . S
C3308 C3303 1.350 . S
C3309 H3296 0.929 . S
C3309 C3301 1.433 . S
C3309 N3311 1.384 . S
N3310 C3306 1.427 . S
N3310 C3307 1.384 . S
N3311 C3303 1.427 . S
N3311 C3309 1.384 . S
H3312 C3318 0.930 . S
H3313 C3322 0.930 . S
H3314 C3327 0.929 . S
H3315 C3325 0.929 . S
H3316 C3320 0.929 . S
H3317 C3326 0.929 . S
C3318 H3312 0.930 . S
C3318 C3319 1.367 . S
C3318 C3326 1.378 . S
C3319 C3318 1.367 . S
C3319 C3327 1.433 . S
C3320 H3316 0.929 . S
C3320 C3322 1.378 . S
C3320 C3324 1.350 . S
C3321 C3324 1.463 . S
C3321 C3326 1.350 . S
C3321 N3329 1.427 . S
C3322 H3313 0.930 . S
C3322 C3320 1.378 . S
C3322 C3323 1.367 . S
C3323 C3322 1.367 . S
C3323 C3325 1.433 . S
C3324 C3320 1.350 . S
C3324 C3321 1.463 . S
C3324 N3328 1.427 . S
C3325 H3315 0.929 . S
C3325 C3323 1.433 . S
C3325 N3328 1.384 . S
C3326 H3317 0.929 . S
C3326 C3318 1.378 . S
C3326 C3321 1.350 . S
C3327 H3314 0.929 . S
C3327 C3319 1.433 . S
C3327 N3329 1.384 . S
N3328 C3324 1.427 . S
N3328 C3325 1.384 . S
N3329 C3321 1.427 . S
N3329 C3327 1.384 . S
H3330 C3336 0.930 . S
H3331 C3340 0.930 . S
H3332 C3345 0.929 . S
H3333 C3343 0.929 . S
H3334 C3338 0.929 . S
H3335 C3344 0.929 . S
C3336 H3330 0.930 . S
C3336 C3337 1.367 . S
C3336 C3344 1.378 . S
C3337 C3336 1.367 . S
C3337 C3345 1.433 . S
C3338 H3334 0.929 . S
C3338 C3340 1.378 . S
C3338 C3342 1.350 . S
C3339 C3342 1.463 . S
C3339 C3344 1.350 . S
C3339 N3347 1.427 . S
C3340 H3331 0.930 . S
C3340 C3338 1.378 . S
C3340 C3341 1.367 . S
C3341 C3340 1.367 . S
C3341 C3343 1.433 . S
C3342 C3338 1.350 . S
C3342 C3339 1.463 . S
C3342 N3346 1.427 . S
C3343 H3333 0.929 . S
C3343 C3341 1.433 . S
C3343 N3346 1.384 . S
C3344 H3335 0.929 . S
C3344 C3336 1.378 . S
C3344 C3339 1.350 . S
C3345 H3332 0.929 . S
C3345 C3337 1.433 . S
C3345 N3347 1.384 . S
N3346 C3342 1.427 . S
N3346 C3343 1.384 . S
N3347 C3339 1.427 . S
N3347 C3345 1.384 . S
H3348 C3354 0.930 . S
H3349 C3358 0.930 . S
H3350 C3363 0.929 . S
H3351 C3361 0.929 . S
H3352 C3356 0.929 . S
H3353 C3362 0.929 . S
C3354 H3348 0.930 . S
C3354 C3355 1.367 . S
C3354 C3362 1.378 . S
C3355 C3354 1.367 . S
C3355 C3363 1.433 . S
C3356 H3352 0.929 . S
C3356 C3358 1.378 . S
C3356 C3360 1.350 . S
C3357 C3360 1.463 . S
C3357 C3362 1.350 . S
C3357 N3365 1.427 . S
C3358 H3349 0.930 . S
C3358 C3356 1.378 . S
C3358 C3359 1.367 . S
C3359 C3358 1.367 . S
C3359 C3361 1.433 . S
C3360 C3356 1.350 . S
C3360 C3357 1.463 . S
C3360 N3364 1.427 . S
C3361 H3351 0.929 . S
C3361 C3359 1.433 . S
C3361 N3364 1.384 . S
C3362 H3353 0.929 . S
C3362 C3354 1.378 . S
C3362 C3357 1.350 . S
C3363 H3350 0.929 . S
C3363 C3355 1.433 . S
C3363 N3365 1.384 . S
N3364 C3360 1.427 . S
N3364 C3361 1.384 . S
N3365 C3357 1.427 . S
N3365 C3363 1.384 . S
H3366 C3372 0.930 . S
H3367 C3376 0.930 . S
H3368 C3381 0.929 . S
H3369 C3379 0.929 . S
H3370 C3374 0.929 . S
H3371 C3380 0.929 . S
C3372 H3366 0.930 . S
C3372 C3373 1.367 . S
C3372 C3380 1.378 . S
C3373 C3372 1.367 . S
C3373 C3381 1.433 . S
C3374 H3370 0.929 . S
C3374 C3376 1.378 . S
C3374 C3378 1.350 . S
C3375 C3378 1.463 . S
C3375 C3380 1.350 . S
C3375 N3383 1.427 . S
C3376 H3367 0.930 . S
C3376 C3374 1.378 . S
C3376 C3377 1.367 . S
C3377 C3376 1.367 . S
C3377 C3379 1.433 . S
C3378 C3374 1.350 . S
C3378 C3375 1.463 . S
C3378 N3382 1.427 . S
C3379 H3369 0.929 . S
C3379 C3377 1.433 . S
C3379 N3382 1.384 . S
C3380 H3371 0.929 . S
C3380 C3372 1.378 . S
C3380 C3375 1.350 . S
C3381 H3368 0.929 . S
C3381 C3373 1.433 . S
C3381 N3383 1.384 . S
N3382 C3378 1.427 . S
N3382 C3379 1.384 . S
N3383 C3375 1.427 . S
N3383 C3381 1.384 . S
C1447 C609 1.957 . S
C1451 C9 1.961 . S
C1465 C649 1.961 . S
C1469 C49 1.958 . S
C1483 C89 1.957 . S
C1487 C689 1.961 . S
C1501 C129 1.953 . S
C1505 C969 1.959 . S
C1519 C169 1.958 . S
C1523 C1009 1.961 . S
C1537 C209 1.954 . S
C1541 C1049 1.948 . S
C1555 C1338 1.957 . S
C1559 C258 1.951 . S
C1573 C1378 1.957 . S
C1577 C298 1.961 . S
C1591 C338 1.956 . S
C1595 C1418 1.950 . S
C1609 C738 1.948 . S
C1613 C378 1.948 . S
C1627 C418 1.958 . S
C1631 C778 1.961 . S
C1645 C458 1.948 . S
C1649 C818 1.949 . S
C1663 C1089 1.953 . S
C1667 C489 1.948 . S
C1681 C529 1.951 . S
C1685 C1129 1.947 . S
C1699 C1169 1.960 . S
C1703 C569 1.960 . S
C1717 C1218 1.959 . S
C1721 C858 1.954 . S
C1735 C1258 1.952 . S
C1739 C898 1.948 . S
C1753 C938 1.951 . S
C1757 C1298 1.957 . S
C1771 C15 0.391 . S
C1775 C175 0.387 . S
C1789 C55 0.361 . S
C1793 C215 0.382 . S
C1807 C95 0.376 . S
C1811 C135 0.396 . S
C1825 C246 0.395 . S
C1829 C406 0.380 . S
C1843 C286 0.384 . S
C1847 C446 0.393 . S
C1861 C326 0.386 . S
C1865 C366 0.392 . S
C1879 C495 0.381 . S
C1883 C655 0.361 . S
C1897 C695 0.384 . S
C1901 C535 0.361 . S
C1915 C575 0.362 . S
C1919 C615 0.383 . S
C1933 C726 0.393 . S
C1937 C886 0.366 . S
C1951 C766 0.393 . S
C1955 C926 0.384 . S
C1969 C846 0.392 . S
C1973 C806 0.365 . S
C1987 C975 0.367 . S
C1991 C1135 0.394 . S
C2005 C1175 0.388 . S
C2009 C1015 0.391 . S
C2023 C1055 0.395 . S
C2027 C1095 0.379 . S
C2041 C1206 0.391 . S
C2045 C1366 0.388 . S
C2059 C1246 0.392 . S
C2063 C1406 0.386 . S
C2077 C1286 0.369 . S
C2081 C1326 0.395 . S
C2095 C415 1.604 . S
C2099 C19 1.644 . S
C2113 C59 1.648 . S
C2117 C455 1.612 . S
C2131 C99 1.651 . S
C2135 C375 1.612 . S
C2149 C139 1.652 . S
C2153 C335 1.598 . S
C2167 C179 1.654 . S
C2171 C255 1.611 . S
C2185 C295 1.612 . S
C2189 C219 1.652 . S
C2203 C250 1.655 . S
C2207 C166 1.607 . S
C2221 C206 1.602 . S
C2225 C290 1.644 . S
C2239 C330 1.647 . S
C2243 C126 1.598 . S
C2257 C370 1.650 . S
C2261 C86 1.597 . S
C2275 C6 1.607 . S
C2279 C410 1.654 . S
C2293 C46 1.598 . S
C2297 C450 1.651 . S
C2311 C895 1.611 . S
C2315 C499 1.654 . S
C2329 C935 1.602 . S
C2333 C539 1.644 . S
C2347 C855 1.602 . S
C2351 C579 1.654 . S
C2365 C815 1.605 . S
C2369 C619 1.655 1_554 S
C2383 C659 1.644 1_554 S
C2387 C735 1.606 . S
C2401 C775 1.597 . S
C2405 C699 1.649 1_554 S
C2419 C646 1.612 . S
C2423 C730 1.652 . S
C2437 C770 1.644 . S
C2441 C686 1.603 . S
C2455 C810 1.646 . S
C2459 C606 1.597 . S
C2473 C566 1.610 . S
C2477 C850 1.647 . S
C2491 C890 1.645 . S
C2495 C486 1.606 . S
C2509 C930 1.652 . S
C2513 C526 1.611 . S
C2527 C979 1.644 . S
C2531 C1375 1.606 . S
C2545 C1019 1.645 . S
C2549 C1415 1.608 . S
C2563 C1335 1.612 . S
C2567 C1059 1.651 . S
C2581 C1295 1.597 . S
C2585 C1099 1.649 . S
C2599 C1139 1.644 . S
C2603 C1215 1.604 . S
C2617 C1255 1.597 . S
C2621 C1179 1.648 . S
C2635 C1210 1.644 . S
C2639 C1126 1.602 . S
C2653 C1166 1.607 . S
C2657 C1250 1.655 . S
C2671 C1290 1.651 . S
C2675 C1086 1.598 . S
C2689 C1330 1.649 . S
C2693 C1046 1.597 . S
C2707 C966 1.597 . S
C2711 C1370 1.651 . S
C2725 C1006 1.612 . S
C2729 C1410 1.652 . S
C2743 C10 3.334 . S
C2747 C170 3.334 . S
C2761 C210 3.334 . S
C2765 C50 3.332 . S
C2779 C90 3.334 . S
C2783 C130 3.335 . S
C2797 C259 3.334 1_556 S
C2801 C419 3.335 . S
C2815 C459 3.335 . S
C2819 C299 3.334 1_556 S
C2833 C339 3.332 1_556 S
C2837 C379 3.333 . S
C2851 C650 3.335 . S
C2855 C490 3.334 . S
C2869 C690 3.333 . S
C2873 C530 3.332 . S
C2887 C610 3.331 . S
C2891 C570 3.332 . S
C2905 C899 3.332 . S
C2909 C739 3.332 . S
C2923 C779 3.334 . S
C2927 C939 3.332 . S
C2941 C859 3.332 . S
C2945 C819 3.332 . S
C2959 C1130 3.332 . S
C2963 C970 3.333 . S
C2977 C1010 3.331 . S
C2981 C1170 3.332 . S
C2995 C1050 3.332 . S
C2999 C1090 3.332 . S
C3013 C1379 3.334 . S
C3017 C1219 3.332 . S
C3031 C1259 3.332 . S
C3035 C1419 3.333 . S
C3049 C1299 3.332 . S
C3053 C1339 3.331 . S
C3067 C18 0.734 . S
C3071 C249 0.734 . S
C3085 C58 0.747 . S
C3089 C289 0.747 . S
C3103 C329 0.744 . S
C3107 C98 0.744 . S
C3121 C369 0.702 . S
C3125 C138 0.702 . S
C3139 C178 0.711 . S
C3143 C409 0.711 . S
C3157 C218 0.712 . S
C3161 C449 0.712 . S
C3175 C729 0.700 . S
C3179 C498 0.700 . S
C3193 C538 0.750 . S
C3197 C769 0.750 . S
C3211 C809 0.730 . S
C3215 C578 0.730 . S
C3229 C849 0.728 . S
C3233 C618 0.728 . S
C3247 C889 0.711 . S
C3251 C658 0.711 . S
C3265 C929 0.717 . S
C3269 C698 0.717 . S
C3283 C1209 0.746 . S
C3287 C978 0.746 . S
C3301 C1018 0.703 . S
C3305 C1249 0.703 . S
C3319 C1289 0.739 . S
C3323 C1058 0.739 . S
C3337 C1329 0.712 . S
C3341 C1098 0.712 . S
C3355 C1369 0.746 . S
C3359 C1138 0.746 . S
C3373 C1178 0.730 . S
C3377 C1409 0.730 . S
