# Generated by pormake.
# Topology vbm, (6)-cn, num edge types: 1
# Building blocks:
#     Node 0, Type 0, BuildingBlock: BETDEL_clean_sbu_0, # of connection points: 6
#     Node 1, Type 0, BuildingBlock: BETDEL_clean_sbu_0, # of connection points: 6
#     Node 2, Type 0, BuildingBlock: BETDEL_clean_sbu_0, # of connection points: 6
#     Node 3, Type 0, BuildingBlock: BETDEL_clean_sbu_0, # of connection points: 6
#     Node 4, Type 0, BuildingBlock: BETDEL_clean_sbu_0, # of connection points: 6
#     Node 5, Type 0, BuildingBlock: BETDEL_clean_sbu_0, # of connection points: 6
#     Node 6, Type 0, BuildingBlock: BETDEL_clean_sbu_0, # of connection points: 6
#     Node 7, Type 0, BuildingBlock: BETDEL_clean_sbu_0, # of connection points: 6
#     Node 8, Type 0, BuildingBlock: BETDEL_clean_sbu_0, # of connection points: 6
#     Node 9, Type 0, BuildingBlock: BETDEL_clean_sbu_0, # of connection points: 6
#     Node 10, Type 0, BuildingBlock: BETDEL_clean_sbu_0, # of connection points: 6
#     Node 11, Type 0, BuildingBlock: BETDEL_clean_sbu_0, # of connection points: 6
#     Node 12, Type 0, BuildingBlock: BETDEL_clean_sbu_0, # of connection points: 6
#     Node 13, Type 0, BuildingBlock: BETDEL_clean_sbu_0, # of connection points: 6
#     Node 14, Type 0, BuildingBlock: BETDEL_clean_sbu_0, # of connection points: 6
#     Node 15, Type 0, BuildingBlock: BETDEL_clean_sbu_0, # of connection points: 6
#     Edge 16, Type (0, 0), BuildingBlock: UVAHIK_clean_linker_0, # of connection points: 2
#     Edge 17, Type (0, 0), BuildingBlock: UVAHIK_clean_linker_0, # of connection points: 2
#     Edge 18, Type (0, 0), BuildingBlock: UVAHIK_clean_linker_0, # of connection points: 2
#     Edge 19, Type (0, 0), BuildingBlock: UVAHIK_clean_linker_0, # of connection points: 2
#     Edge 20, Type (0, 0), BuildingBlock: UVAHIK_clean_linker_0, # of connection points: 2
#     Edge 21, Type (0, 0), BuildingBlock: UVAHIK_clean_linker_0, # of connection points: 2
#     Edge 22, Type (0, 0), BuildingBlock: UVAHIK_clean_linker_0, # of connection points: 2
#     Edge 23, Type (0, 0), BuildingBlock: UVAHIK_clean_linker_0, # of connection points: 2
#     Edge 24, Type (0, 0), BuildingBlock: UVAHIK_clean_linker_0, # of connection points: 2
#     Edge 25, Type (0, 0), BuildingBlock: UVAHIK_clean_linker_0, # of connection points: 2
#     Edge 26, Type (0, 0), BuildingBlock: UVAHIK_clean_linker_0, # of connection points: 2
#     Edge 27, Type (0, 0), BuildingBlock: UVAHIK_clean_linker_0, # of connection points: 2
#     Edge 28, Type (0, 0), BuildingBlock: UVAHIK_clean_linker_0, # of connection points: 2
#     Edge 29, Type (0, 0), BuildingBlock: UVAHIK_clean_linker_0, # of connection points: 2
#     Edge 30, Type (0, 0), BuildingBlock: UVAHIK_clean_linker_0, # of connection points: 2
#     Edge 31, Type (0, 0), BuildingBlock: UVAHIK_clean_linker_0, # of connection points: 2
#     Edge 32, Type (0, 0), BuildingBlock: UVAHIK_clean_linker_0, # of connection points: 2
#     Edge 33, Type (0, 0), BuildingBlock: UVAHIK_clean_linker_0, # of connection points: 2
#     Edge 34, Type (0, 0), BuildingBlock: UVAHIK_clean_linker_0, # of connection points: 2
#     Edge 35, Type (0, 0), BuildingBlock: UVAHIK_clean_linker_0, # of connection points: 2
#     Edge 36, Type (0, 0), BuildingBlock: UVAHIK_clean_linker_0, # of connection points: 2
#     Edge 37, Type (0, 0), BuildingBlock: UVAHIK_clean_linker_0, # of connection points: 2
#     Edge 38, Type (0, 0), BuildingBlock: UVAHIK_clean_linker_0, # of connection points: 2
#     Edge 39, Type (0, 0), BuildingBlock: UVAHIK_clean_linker_0, # of connection points: 2
#     Edge 40, Type (0, 0), BuildingBlock: UVAHIK_clean_linker_0, # of connection points: 2
#     Edge 41, Type (0, 0), BuildingBlock: UVAHIK_clean_linker_0, # of connection points: 2
#     Edge 42, Type (0, 0), BuildingBlock: UVAHIK_clean_linker_0, # of connection points: 2
#     Edge 43, Type (0, 0), BuildingBlock: UVAHIK_clean_linker_0, # of connection points: 2
#     Edge 44, Type (0, 0), BuildingBlock: UVAHIK_clean_linker_0, # of connection points: 2
#     Edge 45, Type (0, 0), BuildingBlock: UVAHIK_clean_linker_0, # of connection points: 2
#     Edge 46, Type (0, 0), BuildingBlock: UVAHIK_clean_linker_0, # of connection points: 2
#     Edge 47, Type (0, 0), BuildingBlock: UVAHIK_clean_linker_0, # of connection points: 2
#     Edge 48, Type (0, 0), BuildingBlock: UVAHIK_clean_linker_0, # of connection points: 2
#     Edge 49, Type (0, 0), BuildingBlock: UVAHIK_clean_linker_0, # of connection points: 2
#     Edge 50, Type (0, 0), BuildingBlock: UVAHIK_clean_linker_0, # of connection points: 2
#     Edge 51, Type (0, 0), BuildingBlock: UVAHIK_clean_linker_0, # of connection points: 2
#     Edge 52, Type (0, 0), BuildingBlock: UVAHIK_clean_linker_0, # of connection points: 2
#     Edge 53, Type (0, 0), BuildingBlock: UVAHIK_clean_linker_0, # of connection points: 2
#     Edge 54, Type (0, 0), BuildingBlock: UVAHIK_clean_linker_0, # of connection points: 2
#     Edge 55, Type (0, 0), BuildingBlock: UVAHIK_clean_linker_0, # of connection points: 2
#     Edge 56, Type (0, 0), BuildingBlock: UVAHIK_clean_linker_0, # of connection points: 2
#     Edge 57, Type (0, 0), BuildingBlock: UVAHIK_clean_linker_0, # of connection points: 2
#     Edge 58, Type (0, 0), BuildingBlock: UVAHIK_clean_linker_0, # of connection points: 2
#     Edge 59, Type (0, 0), BuildingBlock: UVAHIK_clean_linker_0, # of connection points: 2
#     Edge 60, Type (0, 0), BuildingBlock: UVAHIK_clean_linker_0, # of connection points: 2
#     Edge 61, Type (0, 0), BuildingBlock: UVAHIK_clean_linker_0, # of connection points: 2
#     Edge 62, Type (0, 0), BuildingBlock: UVAHIK_clean_linker_0, # of connection points: 2
#     Edge 63, Type (0, 0), BuildingBlock: UVAHIK_clean_linker_0, # of connection points: 2
# Relax obj value: 0.066
# Max RMSD: 0.121
# Mean RMSD: 0.121
data_MOF--net-vbm--node1-BETDEL_clean_sbu_0--edge1-UVAHIK_clean_linker_0
_symmetry_space_group_name_H-M    P1
_symmetry_Int_Tables_number       1
_symmetry_cell_setting            triclinic
loop_
_symmetry_equiv_pos_as_xyz
'x, y, z'
_cell_length_a     75.701953
_cell_length_b     22.62925
_cell_length_c     74.185834
_cell_angle_alpha  89.995699
_cell_angle_beta   89.984374
_cell_angle_gamma 90.012956
loop_
_atom_site_label
_atom_site_type_symbol
_atom_site_fract_x
_atom_site_fract_y
_atom_site_fract_z
_atom_type_partial_charge
Dy0 Dy 0.12393 0.06904 0.13432 0.0
C1 C 0.10963 0.31545 0.13302 0.0
C2 C 0.12669 0.949 0.13801 0.0
Dy3 Dy 0.11239 0.1953 0.13632 0.0
O4 O 0.13357 0.9799 0.12506 0.0
O5 O 0.11858 0.98383 0.14918 0.0
O6 O 0.1393 0.08864 0.10939 0.0
O7 O 0.11542 0.13346 0.11382 0.0
C8 C 0.12861 0.12903 0.10345 0.0
C9 C 0.10812 0.13378 0.16705 0.0
O10 O 0.08776 0.15967 0.12429 0.0
O11 O 0.09432 0.06246 0.13133 0.0
O12 O 0.10258 0.28407 0.14577 0.0
O13 O 0.11788 0.28103 0.12184 0.0
O14 O 0.09722 0.17431 0.16162 0.0
O15 O 0.12112 0.13094 0.1565 0.0
O16 O 0.14872 0.10583 0.14617 0.0
O17 O 0.14184 0.20274 0.13909 0.0
C18 C 0.083 0.10374 0.12604 0.0
C19 C 0.15328 0.16208 0.14445 0.0
Dy20 Dy 0.86073 0.96508 0.13894 0.0
C21 C 0.87597 0.71877 0.13795 0.0
C22 C 0.85772 0.08512 0.14266 0.0
Dy23 Dy 0.87289 0.83899 0.14103 0.0
O24 O 0.85152 0.05436 0.12932 0.0
O25 O 0.86524 0.0501 0.1542 0.0
O26 O 0.84527 0.94449 0.11419 0.0
O27 O 0.86936 0.90059 0.11852 0.0
C28 C 0.85605 0.90431 0.10827 0.0
C29 C 0.87697 0.9014 0.17159 0.0
O30 O 0.89748 0.87559 0.12911 0.0
O31 O 0.89024 0.97284 0.13552 0.0
O32 O 0.88222 0.75031 0.15108 0.0
O33 O 0.86837 0.75308 0.12627 0.0
O34 O 0.88806 0.86138 0.1662 0.0
O35 O 0.86392 0.90333 0.16108 0.0
O36 O 0.83591 0.92717 0.15035 0.0
O37 O 0.84346 0.8304 0.14366 0.0
C38 C 0.9018 0.93206 0.13043 0.0
C39 C 0.83172 0.87058 0.14868 0.0
Dy40 Dy 0.12409 0.96714 0.38146 0.0
C41 C 0.10929 0.72055 0.3821 0.0
C42 C 0.12692 0.08715 0.37774 0.0
Dy43 Dy 0.11217 0.84067 0.37894 0.0
O44 O 0.13344 0.05643 0.39093 0.0
O45 O 0.11914 0.05214 0.36638 0.0
O46 O 0.13909 0.94675 0.40662 0.0
O47 O 0.11535 0.90185 0.40152 0.0
C48 C 0.12838 0.90567 0.41211 0.0
C49 C 0.10807 0.90381 0.34854 0.0
O50 O 0.08766 0.87659 0.39112 0.0
O51 O 0.09448 0.97412 0.38465 0.0
O52 O 0.1024 0.75206 0.36929 0.0
O53 O 0.11744 0.75483 0.3934 0.0
O54 O 0.09711 0.86308 0.35372 0.0
O55 O 0.12107 0.90592 0.35912 0.0
O56 O 0.1491 0.93005 0.37014 0.0
O57 O 0.14154 0.83262 0.37596 0.0
C58 C 0.08307 0.93279 0.38973 0.0
C59 C 0.15325 0.87328 0.37125 0.0
Dy60 Dy 0.86086 0.07235 0.38518 0.0
C61 C 0.8762 0.31862 0.38617 0.0
C62 C 0.85784 0.95227 0.38157 0.0
Dy63 Dy 0.87307 0.19842 0.38307 0.0
O64 O 0.85159 0.98318 0.39485 0.0
O65 O 0.86541 0.98716 0.37001 0.0
O66 O 0.84546 0.09305 0.40997 0.0
O67 O 0.86957 0.13681 0.40558 0.0
C68 C 0.85627 0.13315 0.41587 0.0
C69 C 0.87709 0.136 0.3525 0.0
O70 O 0.89769 0.16179 0.39484 0.0
O71 O 0.89039 0.06459 0.38842 0.0
O72 O 0.88242 0.28708 0.37302 0.0
O73 O 0.86859 0.28431 0.39785 0.0
O74 O 0.88819 0.17606 0.35786 0.0
O75 O 0.86406 0.13408 0.36303 0.0
O76 O 0.8361 0.11032 0.37369 0.0
O77 O 0.84364 0.20704 0.38044 0.0
C78 C 0.902 0.10535 0.39344 0.0
C79 C 0.83191 0.16691 0.37536 0.0
Dy80 Dy 0.87102 0.84054 0.88325 0.0
C81 C 0.85602 0.08679 0.88189 0.0
C82 C 0.87394 0.72038 0.88654 0.0
Dy83 Dy 0.85903 0.96672 0.88542 0.0
O84 O 0.88034 0.75163 0.8734 0.0
O85 O 0.86627 0.75494 0.8981 0.0
O86 O 0.88605 0.86199 0.85795 0.0
O87 O 0.86208 0.90509 0.86321 0.0
C88 C 0.87507 0.90243 0.85263 0.0
C89 C 0.8546 0.90558 0.91613 0.0
O90 O 0.83428 0.92929 0.87376 0.0
O91 O 0.84155 0.83244 0.88056 0.0
O92 O 0.84965 0.05575 0.89508 0.0
O93 O 0.86373 0.05205 0.8704 0.0
O94 O 0.84373 0.94565 0.91031 0.0
O95 O 0.86781 0.90227 0.90574 0.0
O96 O 0.89579 0.87693 0.89482 0.0
O97 O 0.88859 0.97421 0.8884 0.0
C98 C 0.82994 0.87283 0.8754 0.0
C99 C 0.90017 0.93329 0.89333 0.0
Dy100 Dy 0.11085 0.19589 0.87832 0.0
C101 C 0.12535 0.94971 0.87674 0.0
C102 C 0.10799 0.31609 0.88146 0.0
Dy103 Dy 0.1225 0.06977 0.88039 0.0
O104 O 0.10117 0.28455 0.86863 0.0
O105 O 0.11607 0.28182 0.89281 0.0
O106 O 0.09574 0.17471 0.85304 0.0
O107 O 0.1197 0.13147 0.85817 0.0
C108 C 0.10671 0.13442 0.8476 0.0
C109 C 0.12731 0.13028 0.91113 0.0
O110 O 0.1475 0.10677 0.86906 0.0
O111 O 0.14028 0.20375 0.87575 0.0
O112 O 0.13158 0.98045 0.89006 0.0
O113 O 0.11785 0.98472 0.86518 0.0
O114 O 0.13801 0.08998 0.90517 0.0
O115 O 0.11401 0.1342 0.90087 0.0
O116 O 0.08629 0.16025 0.89047 0.0
O117 O 0.09289 0.06303 0.88351 0.0
C118 C 0.15189 0.1632 0.87074 0.0
C119 C 0.08157 0.10426 0.88883 0.0
Dy120 Dy 0.87111 0.19825 0.64102 0.0
C121 C 0.85682 0.95192 0.64225 0.0
C122 C 0.87387 0.31842 0.63788 0.0
Dy123 Dy 0.85964 0.07199 0.63876 0.0
O124 O 0.88073 0.28696 0.65072 0.0
O125 O 0.8658 0.28408 0.62654 0.0
O126 O 0.88614 0.17716 0.66635 0.0
O127 O 0.86229 0.13342 0.66106 0.0
C128 C 0.87523 0.1365 0.67168 0.0
C129 C 0.85504 0.13287 0.60802 0.0
O130 O 0.83463 0.1084 0.65022 0.0
O131 O 0.84164 0.20556 0.64355 0.0
O132 O 0.85036 0.98289 0.62909 0.0
O133 O 0.86455 0.9867 0.65371 0.0
O134 O 0.84431 0.09237 0.61384 0.0
O135 O 0.86821 0.13676 0.61842 0.0
O136 O 0.89581 0.16303 0.62903 0.0
O137 O 0.88927 0.06559 0.6358 0.0
C138 C 0.83011 0.16471 0.64857 0.0
C139 C 0.90058 0.10708 0.63063 0.0
Dy140 Dy 0.11068 0.84092 0.6357 0.0
C141 C 0.12641 0.08715 0.63698 0.0
C142 C 0.10753 0.7208 0.63232 0.0
Dy143 Dy 0.12324 0.96705 0.63344 0.0
O144 O 0.10113 0.7521 0.64544 0.0
O145 O 0.1153 0.75535 0.6208 0.0
O146 O 0.09572 0.86308 0.66097 0.0
O147 O 0.11981 0.9055 0.65565 0.0
C148 C 0.10678 0.90338 0.66623 0.0
C149 C 0.12737 0.90541 0.60279 0.0
O150 O 0.14793 0.92849 0.64503 0.0
O151 O 0.14004 0.83171 0.6387 0.0
O152 O 0.13275 0.05602 0.62379 0.0
O153 O 0.11869 0.05246 0.64849 0.0
O154 O 0.1383 0.9456 0.6084 0.0
O155 O 0.11422 0.9026 0.61328 0.0
O156 O 0.08608 0.87837 0.6241 0.0
O157 O 0.09368 0.97543 0.63043 0.0
C158 C 0.15187 0.87158 0.64372 0.0
C159 C 0.08193 0.93494 0.62556 0.0
Dy160 Dy 0.62379 0.56943 0.13527 0.0
C161 C 0.60932 0.81606 0.13422 0.0
C162 C 0.62686 0.44936 0.13862 0.0
Dy163 Dy 0.61229 0.69605 0.13769 0.0
O164 O 0.63302 0.48056 0.12537 0.0
O165 O 0.6193 0.48391 0.15027 0.0
O166 O 0.63798 0.58889 0.10957 0.0
O167 O 0.61437 0.63388 0.11521 0.0
C168 C 0.62708 0.62948 0.10423 0.0
C169 C 0.60927 0.63553 0.16875 0.0
O170 O 0.58712 0.65983 0.127 0.0
O171 O 0.5941 0.56263 0.13367 0.0
O172 O 0.60269 0.78488 0.14724 0.0
O173 O 0.61727 0.78151 0.12285 0.0
O174 O 0.59855 0.67729 0.16387 0.0
O175 O 0.62175 0.63143 0.15754 0.0
O176 O 0.64914 0.60662 0.14582 0.0
O177 O 0.64175 0.70359 0.13927 0.0
C178 C 0.58251 0.60383 0.12897 0.0
C179 C 0.65347 0.66309 0.14404 0.0
Dy180 Dy 0.3598 0.46385 0.14233 0.0
C181 C 0.37466 0.21728 0.14051 0.0
C182 C 0.3568 0.58387 0.14604 0.0
Dy183 Dy 0.37181 0.33729 0.14425 0.0
O184 O 0.35001 0.55286 0.13307 0.0
O185 O 0.36492 0.54914 0.15723 0.0
O186 O 0.34463 0.44388 0.11733 0.0
O187 O 0.3686 0.39961 0.12188 0.0
C188 C 0.35542 0.40366 0.11147 0.0
C189 C 0.37573 0.39811 0.17512 0.0
O190 O 0.39652 0.3743 0.13265 0.0
O191 O 0.38933 0.47147 0.13924 0.0
O192 O 0.382 0.24839 0.15314 0.0
O193 O 0.36608 0.25192 0.12965 0.0
O194 O 0.38636 0.35639 0.16998 0.0
O195 O 0.3629 0.40167 0.16436 0.0
O196 O 0.33492 0.42599 0.15376 0.0
O197 O 0.34243 0.329 0.14723 0.0
C198 C 0.40091 0.43066 0.13421 0.0
C199 C 0.33075 0.36931 0.15227 0.0
Dy200 Dy 0.62423 0.47027 0.38356 0.0
C201 C 0.60958 0.2236 0.3841 0.0
C202 C 0.62739 0.59037 0.3804 0.0
Dy203 Dy 0.61262 0.34368 0.3809 0.0
O204 O 0.63292 0.55916 0.39392 0.0
O205 O 0.62041 0.55582 0.36838 0.0
O206 O 0.63849 0.45001 0.40915 0.0
O207 O 0.61482 0.40538 0.40347 0.0
C208 C 0.62755 0.4094 0.41444 0.0
C209 C 0.60952 0.40506 0.35003 0.0
O210 O 0.5875 0.3798 0.3917 0.0
O211 O 0.59454 0.47719 0.3853 0.0
O212 O 0.60353 0.25488 0.37081 0.0
O213 O 0.61698 0.25809 0.39587 0.0
O214 O 0.59873 0.36344 0.3549 0.0
O215 O 0.62207 0.40874 0.36117 0.0
O216 O 0.64965 0.43315 0.37318 0.0
O217 O 0.64207 0.33603 0.37937 0.0
C218 C 0.58294 0.43594 0.38996 0.0
C219 C 0.65387 0.37655 0.3748 0.0
Dy220 Dy 0.36011 0.57361 0.38769 0.0
C221 C 0.3744 0.82031 0.38969 0.0
C222 C 0.35715 0.4536 0.38407 0.0
Dy223 Dy 0.37166 0.70031 0.38589 0.0
O224 O 0.34995 0.48488 0.39675 0.0
O225 O 0.3657 0.48804 0.37313 0.0
O226 O 0.34502 0.5928 0.4128 0.0
O227 O 0.36889 0.63766 0.40823 0.0
C228 C 0.35577 0.63303 0.41871 0.0
C229 C 0.3756 0.64034 0.35485 0.0
O230 O 0.39662 0.66392 0.39711 0.0
O231 O 0.38967 0.56676 0.39029 0.0
O232 O 0.38175 0.78934 0.37703 0.0
O233 O 0.36584 0.78554 0.40054 0.0
O234 O 0.38611 0.68238 0.36 0.0
O235 O 0.36284 0.63607 0.36568 0.0
O236 O 0.33537 0.61088 0.37586 0.0
O237 O 0.34219 0.70757 0.3833 0.0
C238 C 0.40118 0.60781 0.39527 0.0
C239 C 0.33077 0.66702 0.37781 0.0
Dy240 Dy 0.37063 0.34034 0.88631 0.0
C241 C 0.35567 0.58691 0.88521 0.0
C242 C 0.37356 0.2203 0.88987 0.0
Dy243 Dy 0.35883 0.46677 0.88841 0.0
O244 O 0.3803 0.25141 0.87689 0.0
O245 O 0.36554 0.25495 0.90116 0.0
O246 O 0.38504 0.35919 0.8605 0.0
O247 O 0.36162 0.40491 0.86623 0.0
C248 C 0.37438 0.40086 0.85538 0.0
C249 C 0.35471 0.40606 0.91924 0.0
O250 O 0.33382 0.42917 0.87713 0.0
O251 O 0.34124 0.33235 0.88387 0.0
O252 O 0.34971 0.55553 0.89852 0.0
O253 O 0.36307 0.5525 0.87342 0.0
O254 O 0.34377 0.44593 0.91346 0.0
O255 O 0.36781 0.40256 0.90873 0.0
O256 O 0.39547 0.37693 0.89758 0.0
O257 O 0.38848 0.47394 0.89066 0.0
C258 C 0.32958 0.37258 0.87875 0.0
C259 C 0.40003 0.433 0.89566 0.0
Dy260 Dy 0.61094 0.69864 0.88035 0.0
C261 C 0.62582 0.45197 0.87905 0.0
C262 C 0.60811 0.8186 0.88413 0.0
Dy263 Dy 0.62281 0.57198 0.88264 0.0
O264 O 0.60075 0.78755 0.87149 0.0
O265 O 0.61671 0.78392 0.89496 0.0
O266 O 0.59681 0.68 0.8544 0.0
O267 O 0.62006 0.63377 0.86041 0.0
C268 C 0.60739 0.63792 0.84944 0.0
C269 C 0.62657 0.63279 0.91353 0.0
O270 O 0.64782 0.60953 0.87141 0.0
O271 O 0.64035 0.70666 0.87775 0.0
O272 O 0.63277 0.48319 0.89189 0.0
O273 O 0.61751 0.48648 0.86795 0.0
O274 O 0.63741 0.59214 0.90807 0.0
O275 O 0.61367 0.63648 0.90277 0.0
O276 O 0.58604 0.66189 0.89161 0.0
O277 O 0.59323 0.56454 0.88528 0.0
C278 C 0.65204 0.66618 0.87286 0.0
C279 C 0.58162 0.60555 0.89007 0.0
Dy280 Dy 0.37058 0.69911 0.644 0.0
C281 C 0.35665 0.45238 0.64565 0.0
C282 C 0.37322 0.81912 0.64032 0.0
Dy283 Dy 0.35944 0.57239 0.64204 0.0
O284 O 0.38078 0.78803 0.65281 0.0
O285 O 0.36448 0.78451 0.62959 0.0
O286 O 0.38485 0.68169 0.66998 0.0
O287 O 0.36173 0.63455 0.66418 0.0
C288 C 0.37439 0.63953 0.67512 0.0
C289 C 0.35514 0.63207 0.61102 0.0
O290 O 0.3343 0.6088 0.65325 0.0
O291 O 0.3411 0.70582 0.6462 0.0
O292 O 0.34976 0.48338 0.63273 0.0
O293 O 0.36481 0.48708 0.65682 0.0
O294 O 0.34445 0.59149 0.61683 0.0
O295 O 0.36817 0.63667 0.62158 0.0
O296 O 0.39552 0.66359 0.63249 0.0
O297 O 0.38907 0.56629 0.6395 0.0
C298 C 0.32965 0.66488 0.65131 0.0
C299 C 0.40037 0.60778 0.63435 0.0
Dy300 Dy 0.61084 0.33894 0.63815 0.0
C301 C 0.62615 0.58555 0.63965 0.0
C302 C 0.60784 0.21899 0.63427 0.0
Dy303 Dy 0.62299 0.46551 0.63604 0.0
O304 O 0.60068 0.24998 0.64704 0.0
O305 O 0.61631 0.25374 0.62334 0.0
O306 O 0.5968 0.35743 0.66416 0.0
O307 O 0.62013 0.40332 0.65816 0.0
C308 C 0.60747 0.39924 0.66916 0.0
C309 C 0.62655 0.40506 0.60507 0.0
O310 O 0.6479 0.42717 0.64725 0.0
O311 O 0.64025 0.3304 0.64062 0.0
O312 O 0.633 0.55428 0.62677 0.0
O313 O 0.61788 0.55104 0.65081 0.0
O314 O 0.63751 0.44533 0.61056 0.0
O315 O 0.61366 0.40152 0.61585 0.0
O316 O 0.58592 0.37652 0.62719 0.0
O317 O 0.59342 0.47353 0.63367 0.0
C318 C 0.65202 0.37047 0.64564 0.0
C319 C 0.58166 0.43295 0.62891 0.0
C320 C 0.18456 0.13996 0.15342 0.0
C321 C 0.1714 0.18123 0.14898 0.0
C322 C 0.20182 0.15873 0.15696 0.0
C323 C 0.22858 0.29073 0.16836 0.0
H324 H 0.26598 0.20643 0.14365 0.0
C325 C 0.2983 0.3883 0.15606 0.0
C326 C 0.31265 0.34904 0.15632 0.0
C327 C 0.28104 0.36699 0.15798 0.0
C328 C 0.25577 0.22994 0.15092 0.0
H329 H 0.16595 0.27475 0.14528 0.0
H330 H 0.19594 0.30704 0.15127 0.0
H331 H 0.2359 0.16927 0.14217 0.0
H332 H 0.32033 0.2574 0.16006 0.0
H333 H 0.29042 0.22072 0.16379 0.0
H334 H 0.24848 0.35202 0.17686 0.0
C335 C 0.19294 0.26033 0.15219 0.0
C336 C 0.23851 0.20856 0.15007 0.0
C337 C 0.17576 0.24165 0.14859 0.0
C338 C 0.30952 0.28871 0.15948 0.0
C339 C 0.29236 0.26758 0.16155 0.0
C340 C 0.24588 0.31209 0.16926 0.0
C341 C 0.2062 0.2191 0.15622 0.0
C342 C 0.2247 0.23909 0.15858 0.0
C343 C 0.27789 0.30615 0.16035 0.0
C344 C 0.25964 0.28223 0.16039 0.0
H345 H 0.18162 0.09315 0.1539 0.0
H346 H 0.21177 0.12599 0.16019 0.0
H347 H 0.21821 0.31482 0.17523 0.0
H348 H 0.30033 0.43501 0.15363 0.0
H349 H 0.27015 0.39782 0.15688 0.0
C350 C 0.79969 0.89174 0.15452 0.0
C351 C 0.81345 0.85078 0.15224 0.0
C352 C 0.78224 0.87231 0.15632 0.0
C353 C 0.75468 0.7408 0.16611 0.0
H354 H 0.72054 0.81965 0.13551 0.0
C355 C 0.68575 0.64301 0.14914 0.0
C356 C 0.67166 0.68314 0.14785 0.0
C357 C 0.70303 0.66358 0.15163 0.0
C358 C 0.72982 0.79763 0.14436 0.0
H359 H 0.81977 0.75722 0.15087 0.0
H360 H 0.78945 0.72369 0.15388 0.0
H361 H 0.75059 0.85702 0.13712 0.0
H362 H 0.66451 0.77606 0.14907 0.0
H363 H 0.69437 0.81141 0.15369 0.0
H364 H 0.73386 0.68095 0.17318 0.0
C365 C 0.7921 0.7707 0.15438 0.0
C366 C 0.74705 0.81917 0.14529 0.0
C367 C 0.80949 0.79006 0.1525 0.0
C368 C 0.67508 0.74389 0.14972 0.0
C369 C 0.69224 0.76429 0.1523 0.0
C370 C 0.73739 0.71929 0.16522 0.0
C371 C 0.77826 0.81159 0.15598 0.0
C372 C 0.75969 0.79083 0.15609 0.0
C373 C 0.70646 0.72458 0.15295 0.0
C374 C 0.72479 0.74739 0.15427 0.0
H375 H 0.80231 0.93879 0.15443 0.0
H376 H 0.77183 0.90481 0.15774 0.0
H377 H 0.76413 0.71833 0.17466 0.0
H378 H 0.68351 0.59595 0.14775 0.0
H379 H 0.71374 0.63189 0.15196 0.0
C380 C 0.30823 0.74654 0.37407 0.0
C381 C 0.31263 0.68621 0.37337 0.0
C382 C 0.29104 0.76524 0.37055 0.0
C383 C 0.24552 0.71285 0.37237 0.0
H384 H 0.23545 0.85787 0.34641 0.0
C385 C 0.17448 0.79322 0.36355 0.0
C386 C 0.17134 0.85331 0.36709 0.0
C387 C 0.19163 0.7723 0.36131 0.0
C388 C 0.23808 0.81749 0.35377 0.0
H389 H 0.3025 0.5983 0.36798 0.0
H390 H 0.27233 0.63116 0.36183 0.0
H391 H 0.26574 0.82079 0.34779 0.0
H392 H 0.18366 0.93913 0.3703 0.0
H393 H 0.21383 0.90226 0.36677 0.0
H394 H 0.21805 0.71012 0.3788 0.0
C395 C 0.28225 0.66382 0.36524 0.0
C396 C 0.25539 0.7962 0.35453 0.0
C397 C 0.29951 0.64505 0.36871 0.0
C398 C 0.18569 0.89259 0.36759 0.0
C399 C 0.20295 0.87148 0.36548 0.0
C400 C 0.22825 0.73415 0.37165 0.0
C401 C 0.27782 0.72409 0.36629 0.0
C402 C 0.25931 0.74401 0.36403 0.0
C403 C 0.2061 0.81084 0.36273 0.0
C404 C 0.22435 0.787 0.3625 0.0
H405 H 0.31801 0.77957 0.37757 0.0
H406 H 0.288 0.81186 0.37172 0.0
H407 H 0.24815 0.67311 0.38005 0.0
H408 H 0.16367 0.76192 0.36278 0.0
H409 H 0.19358 0.72562 0.35877 0.0
C410 C 0.8098 0.24766 0.37138 0.0
C411 C 0.81371 0.18691 0.37155 0.0
C412 C 0.7925 0.26722 0.36902 0.0
C413 C 0.74705 0.21898 0.37615 0.0
H414 H 0.7352 0.35831 0.34816 0.0
C415 C 0.67546 0.29574 0.36913 0.0
C416 C 0.6721 0.35643 0.37126 0.0
C417 C 0.69265 0.27511 0.36703 0.0
C418 C 0.73835 0.31964 0.35614 0.0
H419 H 0.80258 0.09905 0.36876 0.0
H420 H 0.77224 0.13339 0.36459 0.0
H421 H 0.76545 0.32049 0.34782 0.0
H422 H 0.68411 0.44333 0.37225 0.0
H423 H 0.71439 0.40698 0.36887 0.0
H424 H 0.72016 0.21858 0.3848 0.0
C425 C 0.78263 0.16576 0.36646 0.0
C426 C 0.75563 0.29789 0.3559 0.0
C427 C 0.79999 0.14612 0.36876 0.0
C428 C 0.6863 0.39633 0.37064 0.0
C429 C 0.70361 0.37552 0.36863 0.0
C430 C 0.72983 0.24073 0.37642 0.0
C431 C 0.77869 0.22651 0.36681 0.0
C432 C 0.76016 0.2475 0.36599 0.0
C433 C 0.70696 0.31453 0.36713 0.0
C434 C 0.72528 0.29139 0.36646 0.0
H435 H 0.82005 0.28039 0.37341 0.0
H436 H 0.78987 0.31424 0.36955 0.0
H437 H 0.75021 0.18082 0.38435 0.0
H438 H 0.66481 0.26377 0.36925 0.0
H439 H 0.69474 0.22802 0.36548 0.0
C440 C 0.67335 0.74665 0.86576 0.0
C441 C 0.67015 0.68628 0.86875 0.0
C442 C 0.6905 0.76742 0.86334 0.0
C443 C 0.73657 0.72207 0.85392 0.0
H444 H 0.74772 0.86433 0.88081 0.0
C445 C 0.80753 0.79279 0.87162 0.0
C446 C 0.81176 0.8533 0.87124 0.0
C447 C 0.79025 0.77386 0.86866 0.0
C448 C 0.74478 0.82519 0.87296 0.0
H449 H 0.68234 0.59991 0.87087 0.0
H450 H 0.71252 0.63648 0.86702 0.0
H451 H 0.71759 0.82737 0.88055 0.0
H452 H 0.80122 0.9413 0.86691 0.0
H453 H 0.77093 0.90806 0.86172 0.0
H454 H 0.76397 0.71934 0.84676 0.0
C455 C 0.70168 0.66762 0.86631 0.0
C456 C 0.72749 0.80391 0.87281 0.0
C457 C 0.68442 0.64667 0.86859 0.0
C458 C 0.79838 0.89442 0.86738 0.0
C459 C 0.78104 0.87542 0.86447 0.0
C460 C 0.75391 0.74333 0.85411 0.0
C461 C 0.70491 0.72843 0.86403 0.0
C462 C 0.7232 0.75189 0.86341 0.0
C463 C 0.77678 0.81497 0.86529 0.0
C464 C 0.75821 0.79483 0.86378 0.0
H465 H 0.66261 0.77827 0.8655 0.0
H466 H 0.6925 0.81429 0.86119 0.0
H467 H 0.73364 0.68233 0.84636 0.0
H468 H 0.81751 0.75982 0.8745 0.0
H469 H 0.78736 0.72709 0.86961 0.0
C470 C 0.2974 0.3917 0.87263 0.0
C471 C 0.31156 0.352 0.8744 0.0
C472 C 0.28026 0.37056 0.86963 0.0
C473 C 0.25363 0.23596 0.87637 0.0
H474 H 0.21996 0.31369 0.84496 0.0
C475 C 0.18395 0.14129 0.8653 0.0
C476 C 0.17021 0.1825 0.8672 0.0
C477 C 0.20144 0.16048 0.86363 0.0
C478 C 0.22923 0.29163 0.85381 0.0
H479 H 0.31898 0.25927 0.87348 0.0
H480 H 0.28937 0.22298 0.86801 0.0
H481 H 0.25012 0.35172 0.84713 0.0
H482 H 0.16394 0.27618 0.86796 0.0
H483 H 0.19431 0.30928 0.86519 0.0
H484 H 0.23278 0.17645 0.88327 0.0
C485 C 0.29133 0.27018 0.86939 0.0
C486 C 0.24646 0.31352 0.8551 0.0
C487 C 0.30835 0.29113 0.87248 0.0
C488 C 0.17422 0.24316 0.86664 0.0
C489 C 0.19163 0.26227 0.86489 0.0
C490 C 0.23647 0.21407 0.87506 0.0
C491 C 0.27703 0.30945 0.86828 0.0
C492 C 0.25881 0.28606 0.86647 0.0
C493 C 0.20547 0.22119 0.86372 0.0
C494 C 0.22404 0.24188 0.86387 0.0
H495 H 0.29948 0.43883 0.87404 0.0
H496 H 0.26947 0.40192 0.86894 0.0
H497 H 0.26273 0.21441 0.88552 0.0
H498 H 0.18128 0.09428 0.86563 0.0
H499 H 0.21184 0.12782 0.86255 0.0
C500 C 0.68431 0.38933 0.651 0.0
C501 C 0.67005 0.34978 0.64986 0.0
C502 C 0.70148 0.36813 0.65369 0.0
C503 C 0.72772 0.2327 0.64703 0.0
H504 H 0.76271 0.3142 0.67597 0.0
C505 C 0.79832 0.14186 0.65523 0.0
C506 C 0.8118 0.18352 0.65239 0.0
C507 C 0.78084 0.16037 0.65753 0.0
C508 C 0.75306 0.29106 0.66781 0.0
H509 H 0.66248 0.25734 0.65165 0.0
H510 H 0.69219 0.22088 0.65665 0.0
H511 H 0.73238 0.35118 0.67506 0.0
H512 H 0.81759 0.27737 0.65046 0.0
H513 H 0.78722 0.30926 0.65432 0.0
H514 H 0.74838 0.17317 0.63955 0.0
C515 C 0.69026 0.268 0.65497 0.0
C516 C 0.73574 0.31234 0.66725 0.0
C517 C 0.6732 0.28903 0.65217 0.0
C518 C 0.80753 0.244 0.65252 0.0
C519 C 0.79012 0.26243 0.6549 0.0
C520 C 0.745 0.21141 0.64763 0.0
C521 C 0.70465 0.30708 0.6554 0.0
C522 C 0.72291 0.28364 0.65672 0.0
C523 C 0.77654 0.22084 0.65714 0.0
C524 C 0.7579 0.24068 0.65787 0.0
H525 H 0.68228 0.43637 0.64927 0.0
H526 H 0.71232 0.39937 0.65382 0.0
H527 H 0.71826 0.21014 0.63852 0.0
H528 H 0.80119 0.09497 0.65526 0.0
H529 H 0.77064 0.12735 0.65942 0.0
C530 C 0.17277 0.78958 0.65061 0.0
C531 C 0.16977 0.85043 0.64831 0.0
C532 C 0.18971 0.76822 0.65389 0.0
C533 C 0.2348 0.81174 0.66776 0.0
H534 H 0.24824 0.67288 0.64031 0.0
C535 C 0.30694 0.74384 0.65501 0.0
C536 C 0.31125 0.6834 0.65485 0.0
C537 C 0.28947 0.76208 0.65699 0.0
C538 C 0.24462 0.71101 0.64833 0.0
H539 H 0.18215 0.93681 0.6482 0.0
H540 H 0.21198 0.89923 0.6536 0.0
H541 H 0.21818 0.7101 0.63832 0.0
H542 H 0.30065 0.59471 0.65728 0.0
H543 H 0.26999 0.62675 0.66075 0.0
H544 H 0.26148 0.81327 0.67738 0.0
C545 C 0.20111 0.86818 0.65309 0.0
C546 C 0.22739 0.73246 0.64718 0.0
C547 C 0.18405 0.8897 0.6499 0.0
C548 C 0.29775 0.64157 0.65729 0.0
C549 C 0.2802 0.65989 0.6592 0.0
C550 C 0.25208 0.79031 0.66888 0.0
C551 C 0.20413 0.80706 0.65483 0.0
C552 C 0.22231 0.78334 0.65676 0.0
C553 C 0.27587 0.72034 0.65881 0.0
C554 C 0.2572 0.74007 0.65902 0.0
H555 H 0.16202 0.75808 0.64974 0.0
H556 H 0.19152 0.72105 0.65556 0.0
H557 H 0.23123 0.85051 0.67551 0.0
H558 H 0.31702 0.77734 0.65325 0.0
H559 H 0.28655 0.8089 0.65643 0.0
C560 C 0.09188 0.93346 0.3206 0.0
C561 C 0.10766 0.93154 0.33049 0.0
C562 C 0.09161 0.95689 0.30314 0.0
C563 C 0.11886 0.04487 0.27031 0.0
H564 H 0.08618 0.97774 0.23565 0.0
C565 C 0.12322 0.0847 0.19309 0.0
C566 C 0.10771 0.10715 0.18525 0.0
C567 C 0.12306 0.06319 0.21079 0.0
C568 C 0.09532 0.99698 0.24523 0.0
H569 H 0.13554 0.95282 0.32998 0.0
H570 H 0.13536 0.99095 0.2993 0.0
H571 H 0.08638 0.94103 0.26654 0.0
H572 H 0.0798 0.12296 0.18947 0.0
H573 H 0.0794 0.0833 0.22025 0.0
H574 H 0.12823 0.09897 0.24854 0.0
C575 C 0.12297 0.97636 0.30507 0.0
C576 C 0.09538 0.97637 0.26302 0.0
C577 C 0.12315 0.95407 0.32268 0.0
C578 C 0.09194 0.10604 0.19522 0.0
C579 C 0.0917 0.08328 0.21278 0.0
C580 C 0.11904 0.0645 0.25241 0.0
C581 C 0.10721 0.97787 0.29495 0.0
C582 C 0.1071 1.00014 0.2759 0.0
C583 C 0.10731 0.06243 0.22082 0.0
C584 C 0.10724 0.04092 0.23972 0.0
H585 H 0.07971 0.91683 0.32639 0.0
H586 H 0.07909 0.95854 0.29611 0.0
H587 H 0.12784 0.06543 0.27976 0.0
H588 H 0.13557 0.08507 0.18571 0.0
H589 H 0.13524 0.04698 0.21664 0.0
C590 C 0.86203 0.08576 0.32667 0.0
C591 C 0.87752 0.10834 0.33445 0.0
C592 C 0.8622 0.06323 0.30909 0.0
C593 C 0.88977 0.06226 0.26703 0.0
H594 H 0.85697 0.93905 0.25293 0.0
C595 C 0.89319 0.93076 0.19957 0.0
C596 C 0.87739 0.92885 0.18967 0.0
C597 C 0.89344 0.95419 0.21704 0.0
C598 C 0.86614 0.97369 0.25669 0.0
H599 H 0.90547 0.12297 0.33032 0.0
H600 H 0.90609 0.08087 0.30008 0.0
H601 H 0.85739 0.9734 0.28406 0.0
H602 H 0.84949 0.9503 0.19016 0.0
H603 H 0.84984 0.98961 0.22095 0.0
H604 H 0.89893 0.06024 0.23964 0.0
C605 C 0.89357 0.08264 0.30712 0.0
C606 C 0.86634 0.99379 0.27453 0.0
C607 C 0.8933 0.10631 0.32456 0.0
C608 C 0.86186 0.95126 0.19749 0.0
C609 C 0.86204 0.97347 0.2151 0.0
C610 C 0.88981 0.04119 0.24928 0.0
C611 C 0.87797 0.0615 0.29898 0.0
C612 C 0.87807 0.03875 0.27999 0.0
C613 C 0.87782 0.97497 0.22507 0.0
C614 C 0.87791 0.99703 0.24391 0.0
H615 H 0.84964 0.08708 0.33397 0.0
H616 H 0.84982 0.04854 0.30334 0.0
H617 H 0.89875 0.09772 0.27044 0.0
H618 H 0.90534 0.91389 0.19383 0.0
H619 H 0.90577 0.95473 0.22446 0.0
C620 C 0.86017 0.08627 0.69753 0.0
C621 C 0.87566 0.1093 0.68979 0.0
C622 C 0.86033 0.06416 0.71516 0.0
C623 C 0.888 0.99714 0.74942 0.0
H624 H 0.85555 0.06496 0.78415 0.0
C625 C 0.89133 0.9318 0.82469 0.0
C626 C 0.87554 0.92998 0.83457 0.0
C627 C 0.89164 0.95546 0.80725 0.0
C628 C 0.86451 0.04456 0.77464 0.0
H629 H 0.90353 0.1255 0.6941 0.0
H630 H 0.90394 0.08478 0.72475 0.0
H631 H 0.85519 0.09933 0.75302 0.0
H632 H 0.84768 0.95152 0.83406 0.0
H633 H 0.84792 0.98998 0.80343 0.0
H634 H 0.89689 0.94052 0.77059 0.0
C635 C 0.89165 0.08478 0.71726 0.0
C636 C 0.86434 0.06468 0.75679 0.0
C637 C 0.89141 0.10814 0.69978 0.0
C638 C 0.86008 0.9527 0.82677 0.0
C639 C 0.86029 0.9752 0.80919 0.0
C640 C 0.88792 0.97603 0.76717 0.0
C641 C 0.87606 0.06337 0.7252 0.0
C642 C 0.87613 0.04133 0.74404 0.0
C643 C 0.87607 0.97677 0.79909 0.0
C644 C 0.87621 0.99955 0.78011 0.0
H645 H 0.84783 0.08665 0.69013 0.0
H646 H 0.84817 0.04753 0.72095 0.0
H647 H 0.89713 0.9781 0.73979 0.0
H648 H 0.90347 0.91502 0.83046 0.0
H649 H 0.90416 0.9571 0.80023 0.0
C650 C 0.12179 0.0849 0.82163 0.0
C651 C 0.1063 0.10764 0.82942 0.0
C652 C 0.12164 0.06321 0.80395 0.0
C653 C 0.09388 0.99716 0.76949 0.0
H654 H 0.12664 0.06465 0.735 0.0
C655 C 0.09056 0.93328 0.69413 0.0
C656 C 0.10637 0.93103 0.68428 0.0
C657 C 0.09028 0.95674 0.71159 0.0
C658 C 0.11759 0.04434 0.74445 0.0
H659 H 0.07841 0.12376 0.82514 0.0
H660 H 0.07803 0.08381 0.7944 0.0
H661 H 0.12699 0.09842 0.76619 0.0
H662 H 0.13429 0.9517 0.68487 0.0
H663 H 0.13408 0.98987 0.71555 0.0
H664 H 0.0849 0.94124 0.7482 0.0
C665 C 0.09031 0.08369 0.80189 0.0
C666 C 0.11775 0.06412 0.76233 0.0
C667 C 0.09054 0.10662 0.81942 0.0
C668 C 0.12188 0.95321 0.69213 0.0
C669 C 0.12169 0.97553 0.70974 0.0
C670 C 0.09395 0.97641 0.75171 0.0
C671 C 0.10591 0.06256 0.79389 0.0
C672 C 0.10586 0.04089 0.775 0.0
C673 C 0.10589 0.97742 0.71982 0.0
C674 C 0.10577 0.99982 0.73885 0.0
H675 H 0.13412 0.08517 0.82903 0.0
H676 H 0.13381 0.04677 0.79813 0.0
H677 H 0.08466 0.97819 0.77906 0.0
H678 H 0.07838 0.91692 0.68831 0.0
H679 H 0.07774 0.95868 0.71858 0.0
C680 C 0.59796 0.41044 0.31852 0.0
C681 C 0.60977 0.43104 0.33171 0.0
C682 C 0.59863 0.43243 0.30091 0.0
C683 C 0.61195 0.56009 0.27393 0.0
H684 H 0.6114 0.4498 0.23387 0.0
C685 C 0.59799 0.63119 0.20039 0.0
C686 C 0.60957 0.60985 0.1871 0.0
C687 C 0.59871 0.60935 0.21802 0.0
C688 C 0.61165 0.48109 0.24491 0.0
H689 H 0.63133 0.49164 0.33691 0.0
H690 H 0.63219 0.53138 0.30614 0.0
H691 H 0.6114 0.41244 0.26485 0.0
H692 H 0.6308 0.54812 0.18175 0.0
H693 H 0.63176 0.50865 0.21254 0.0
H694 H 0.61186 0.62875 0.25399 0.0
C695 C 0.62252 0.49779 0.30944 0.0
C696 C 0.61152 0.45975 0.26263 0.0
C697 C 0.62204 0.47505 0.32702 0.0
C698 C 0.62169 0.5653 0.19171 0.0
C699 C 0.62222 0.54271 0.20931 0.0
C700 C 0.61178 0.58144 0.25621 0.0
C701 C 0.61094 0.47621 0.29614 0.0
C702 C 0.61161 0.49901 0.27734 0.0
C703 C 0.61086 0.56498 0.2227 0.0
C704 C 0.61157 0.54218 0.2415 0.0
H705 H 0.58833 0.3766 0.32172 0.0
H706 H 0.5894 0.41546 0.29103 0.0
H707 H 0.61194 0.59138 0.28498 0.0
H708 H 0.58849 0.66548 0.19725 0.0
H709 H 0.58965 0.62687 0.22798 0.0
C710 C 0.36407 0.5683 0.33201 0.0
C711 C 0.37594 0.61354 0.33666 0.0
C712 C 0.36409 0.54446 0.31458 0.0
C713 C 0.37536 0.58049 0.26781 0.0
H714 H 0.37585 0.41095 0.26017 0.0
C715 C 0.36394 0.46956 0.19801 0.0
C716 C 0.37606 0.42515 0.19328 0.0
C717 C 0.36394 0.49351 0.21543 0.0
C718 C 0.37573 0.45839 0.26211 0.0
H719 H 0.39716 0.66913 0.3268 0.0
H720 H 0.39695 0.62829 0.29629 0.0
H721 H 0.37577 0.45027 0.29092 0.0
H722 H 0.3977 0.37118 0.203 0.0
H723 H 0.39746 0.41217 0.23349 0.0
H724 H 0.37517 0.58861 0.23899 0.0
C725 C 0.38768 0.61119 0.30611 0.0
C726 C 0.37556 0.48085 0.27969 0.0
C727 C 0.38785 0.63432 0.3236 0.0
C728 C 0.3882 0.40534 0.20625 0.0
C729 C 0.38801 0.42856 0.22373 0.0
C730 C 0.37523 0.55802 0.25023 0.0
C731 C 0.37577 0.56611 0.30139 0.0
C732 C 0.37551 0.54214 0.28273 0.0
C733 C 0.37585 0.47278 0.22853 0.0
C734 C 0.37555 0.49674 0.24719 0.0
H735 H 0.35471 0.55157 0.3418 0.0
H736 H 0.35471 0.50994 0.3113 0.0
H737 H 0.37518 0.62793 0.26975 0.0
H738 H 0.35439 0.48551 0.18829 0.0
H739 H 0.35436 0.52735 0.21877 0.0
C740 C 0.36253 0.47194 0.83241 0.0
C741 C 0.37466 0.42762 0.83717 0.0
C742 C 0.36247 0.49559 0.81494 0.0
C743 C 0.37429 0.45967 0.76827 0.0
H744 H 0.37347 0.62903 0.76031 0.0
C745 C 0.36286 0.56771 0.69805 0.0
C746 C 0.37464 0.61321 0.69338 0.0
C747 C 0.3628 0.5443 0.71554 0.0
C748 C 0.37372 0.58163 0.76234 0.0
H749 H 0.39629 0.37354 0.82747 0.0
H750 H 0.39597 0.41403 0.79692 0.0
H751 H 0.37345 0.5903 0.79114 0.0
H752 H 0.39561 0.66971 0.70329 0.0
H753 H 0.39527 0.62961 0.73389 0.0
H754 H 0.37444 0.45098 0.73947 0.0
C755 C 0.38653 0.43055 0.80667 0.0
C756 C 0.37359 0.5595 0.77997 0.0
C757 C 0.38677 0.40762 0.82419 0.0
C758 C 0.38638 0.63469 0.7065 0.0
C759 C 0.38612 0.61198 0.72404 0.0
C760 C 0.37414 0.48178 0.75064 0.0
C761 C 0.37436 0.47465 0.80183 0.0
C762 C 0.37402 0.49828 0.78312 0.0
C763 C 0.37431 0.56663 0.72877 0.0
C764 C 0.37399 0.54301 0.74748 0.0
H765 H 0.353 0.48806 0.84213 0.0
H766 H 0.35288 0.52934 0.81157 0.0
H767 H 0.37449 0.41226 0.77029 0.0
H768 H 0.35363 0.55043 0.68822 0.0
H769 H 0.35349 0.50955 0.71882 0.0
C770 C 0.59546 0.63203 0.81806 0.0
C771 C 0.60728 0.61129 0.83121 0.0
C772 C 0.59584 0.60923 0.80053 0.0
C773 C 0.60844 0.47966 0.77397 0.0
H774 H 0.60852 0.58822 0.73346 0.0
C775 C 0.59548 0.40528 0.70051 0.0
C776 C 0.60738 0.42582 0.68739 0.0
C777 C 0.59585 0.42807 0.71804 0.0
C778 C 0.60856 0.55741 0.74464 0.0
H779 H 0.62856 0.54964 0.83644 0.0
H780 H 0.62893 0.50857 0.80585 0.0
H781 H 0.60844 0.62693 0.76429 0.0
H782 H 0.62879 0.48706 0.68221 0.0
H783 H 0.62913 0.52811 0.71281 0.0
H784 H 0.60829 0.41015 0.75431 0.0
C785 C 0.61946 0.54284 0.80911 0.0
C786 C 0.6084 0.57952 0.76227 0.0
C787 C 0.61927 0.56636 0.82659 0.0
C788 C 0.61944 0.47051 0.69205 0.0
C789 C 0.61961 0.49401 0.70953 0.0
C790 C 0.60831 0.45755 0.75634 0.0
C791 C 0.60787 0.56451 0.79584 0.0
C792 C 0.60832 0.54089 0.77712 0.0
C793 C 0.60794 0.47257 0.72276 0.0
C794 C 0.60836 0.49618 0.74148 0.0
H795 H 0.58606 0.66659 0.82122 0.0
H796 H 0.58662 0.62633 0.79066 0.0
H797 H 0.60829 0.44885 0.78514 0.0
H798 H 0.58602 0.37091 0.69732 0.0
H799 H 0.58656 0.41115 0.72788 0.0
C800 C 0.14326 0.14225 0.94018 0.0
C801 C 0.12763 0.14906 0.93024 0.0
C802 C 0.14334 0.15076 0.95882 0.0
C803 C 0.11829 0.20988 0.99795 0.0
H804 H 0.14376 0.08685 0.02338 0.0
C805 C 0.11334 0.16736 0.07566 0.0
C806 C 0.12876 0.14762 0.08433 0.0
C807 C 0.11314 0.1758 0.0569 0.0
C808 C 0.1368 0.12218 0.01655 0.0
H809 H 0.1 0.1735 0.93181 0.0
H810 H 0.10006 0.1878 0.96461 0.0
H811 H 0.1435 0.0873 0.99072 0.0
H812 H 0.15633 0.12551 0.08047 0.0
H813 H 0.15614 0.1415 0.04803 0.0
H814 H 0.11146 0.24418 0.02405 0.0
C815 C 0.1123 0.17619 0.95794 0.0
C816 C 0.13664 0.12242 0.99775 0.0
C817 C 0.11225 0.16794 0.93917 0.0
C818 C 0.14419 0.14003 0.07412 0.0
C819 C 0.14404 0.14879 0.05549 0.0
C820 C 0.11845 0.20967 0.01689 0.0
C821 C 0.12775 0.16587 0.96804 0.0
C822 C 0.12754 0.16649 0.98816 0.0
C823 C 0.12838 0.16487 0.04653 0.0
C824 C 0.12787 0.16603 0.02642 0.0
H825 H 0.15536 0.12841 0.93363 0.0
H826 H 0.15558 0.14394 0.96608 0.0
H827 H 0.11117 0.24453 0.99098 0.0
H828 H 0.10123 0.17355 0.08322 0.0
H829 H 0.10085 0.18812 0.05046 0.0
C830 C 0.87006 0.86762 0.94386 0.0
C831 C 0.85453 0.8864 0.93519 0.0
C832 C 0.87027 0.85888 0.9626 0.0
C833 C 0.84626 0.91071 1.00291 0.0
H834 H 0.87252 0.78992 0.02851 0.0
C835 C 0.84004 0.89115 0.0793 0.0
C836 C 0.85572 0.88514 0.08921 0.0
C837 C 0.83994 0.88233 0.06068 0.0
C838 C 0.86522 0.82413 0.02154 0.0
H839 H 0.82681 0.90636 0.93901 0.0
H840 H 0.82703 0.88985 0.97143 0.0
H841 H 0.87224 0.79021 0.99544 0.0
H842 H 0.88343 0.86181 0.08759 0.0
H843 H 0.88335 0.84707 0.05482 0.0
H844 H 0.83939 0.94528 0.02873 0.0
C845 C 0.83919 0.88355 0.96398 0.0
C846 C 0.86506 0.8243 1.0026 0.0
C847 C 0.83902 0.89261 0.94537 0.0
C848 C 0.87115 0.86674 0.08026 0.0
C849 C 0.87108 0.85823 0.06151 0.0
C850 C 0.84642 0.91052 0.02171 0.0
C851 C 0.85493 0.86855 0.97295 0.0
C852 C 0.85543 0.86738 0.99306 0.0
C853 C 0.85557 0.86777 0.05143 0.0
C854 C 0.85575 0.86701 0.03131 0.0
H855 H 0.88222 0.86251 0.93632 0.0
H856 H 0.88262 0.84739 0.96906 0.0
H857 H 0.83913 0.94561 0.99608 0.0
H858 H 0.82791 0.90459 0.08587 0.0
H859 H 0.82766 0.88852 0.05344 0.0
C860 C 0.1131 0.85921 0.43868 0.0
C861 C 0.12826 0.88479 0.43102 0.0
C862 C 0.11247 0.84665 0.45719 0.0
C863 C 0.14067 0.83032 0.49809 0.0
H864 H 0.09929 0.88637 0.5237 0.0
C865 C 0.14232 0.89393 0.57307 0.0
C866 C 0.12736 0.88447 0.58389 0.0
C867 C 0.14194 0.88114 0.55465 0.0
C868 C 0.11082 0.86935 0.51678 0.0
H869 H 0.15492 0.91463 0.4365 0.0
H870 H 0.15388 0.89281 0.46862 0.0
H871 H 0.09951 0.88647 0.49083 0.0
H872 H 0.10046 0.85177 0.58406 0.0
H873 H 0.09977 0.82909 0.55174 0.0
H874 H 0.15217 0.81472 0.52402 0.0
C875 C 0.14247 0.88214 0.46044 0.0
C876 C 0.11094 0.86943 0.49789 0.0
C877 C 0.14304 0.895 0.44203 0.0
C878 C 0.11219 0.85962 0.57604 0.0
C879 C 0.11176 0.84705 0.55751 0.0
C880 C 0.14054 0.83018 0.51695 0.0
C881 C 0.12707 0.85889 0.46836 0.0
C882 C 0.12604 0.85131 0.48831 0.0
C883 C 0.12656 0.8586 0.54653 0.0
C884 C 0.12578 0.8511 0.52656 0.0
H885 H 0.10151 0.85079 0.4305 0.0
H886 H 0.10048 0.82817 0.46281 0.0
H887 H 0.1524 0.81499 0.49115 0.0
H888 H 0.15421 0.91299 0.57875 0.0
H889 H 0.15351 0.89134 0.54665 0.0
C890 C 0.83946 0.1452 0.57877 0.0
C891 C 0.85495 0.15188 0.58895 0.0
C892 C 0.83963 0.15409 0.56015 0.0
C893 C 0.86541 0.21359 0.52149 0.0
H894 H 0.83992 0.09197 0.49545 0.0
C895 C 0.87143 0.17086 0.44382 0.0
C896 C 0.85599 0.15232 0.43493 0.0
C897 C 0.8714 0.1794 0.46257 0.0
C898 C 0.8469 0.12689 0.50245 0.0
H899 H 0.88259 0.17638 0.5878 0.0
H900 H 0.88299 0.19118 0.55505 0.0
H901 H 0.83968 0.09179 0.52811 0.0
H902 H 0.8282 0.13263 0.43835 0.0
H903 H 0.82802 0.14872 0.47078 0.0
H904 H 0.87279 0.24798 0.49555 0.0
C905 C 0.87066 0.17948 0.56152 0.0
C906 C 0.84676 0.1268 0.52125 0.0
C907 C 0.87045 0.17092 0.58027 0.0
C908 C 0.84034 0.14618 0.44489 0.0
C909 C 0.84028 0.15501 0.4635 0.0
C910 C 0.86556 0.21366 0.50255 0.0
C911 C 0.85535 0.16937 0.55117 0.0
C912 C 0.85585 0.17039 0.53106 0.0
C913 C 0.85592 0.16973 0.4727 0.0
C914 C 0.85614 0.17055 0.49281 0.0
H915 H 0.82727 0.13124 0.58514 0.0
H916 H 0.82748 0.14746 0.55271 0.0
H917 H 0.87253 0.24787 0.52863 0.0
H918 H 0.88369 0.17589 0.43645 0.0
H919 H 0.88367 0.19069 0.46922 0.0
C920 C 0.61132 0.67506 0.07776 0.0
C921 C 0.62666 0.65034 0.08531 0.0
C922 C 0.61056 0.68788 0.05926 0.0
C923 C 0.63869 0.70717 0.0184 0.0
H924 H 0.59774 0.64908 0.99251 0.0
C925 C 0.64114 0.64409 0.94343 0.0
C926 C 0.62628 0.65334 0.93247 0.0
C927 C 0.64054 0.6566 0.96186 0.0
C928 C 0.60913 0.66665 0.99951 0.0
H929 H 0.65344 0.62219 0.07965 0.0
H930 H 0.65218 0.64449 0.0476 0.0
H931 H 0.59781 0.64838 0.0254 0.0
H932 H 0.5993 0.68518 0.93207 0.0
H933 H 0.59821 0.70722 0.96444 0.0
H934 H 0.65023 0.72383 0.99254 0.0
C935 C 0.64073 0.65429 0.05583 0.0
C936 C 0.60917 0.66624 0.01841 0.0
C937 C 0.64143 0.64114 0.07421 0.0
C938 C 0.61096 0.67757 0.94021 0.0
C939 C 0.6103 0.68977 0.95875 0.0
C940 C 0.63865 0.7076 0.99954 0.0
C941 C 0.6252 0.67684 0.04802 0.0
C942 C 0.62414 0.68504 0.02808 0.0
C943 C 0.62502 0.67856 0.96986 0.0
C944 C 0.62406 0.68589 0.98984 0.0
H945 H 0.59973 0.68264 0.08601 0.0
H946 H 0.59846 0.70573 0.05372 0.0
H947 H 0.6503 0.72307 0.0254 0.0
H948 H 0.65315 0.62549 0.93785 0.0
H949 H 0.65206 0.64668 0.96998 0.0
C950 C 0.37031 0.36853 0.94697 0.0
C951 C 0.35473 0.38694 0.93832 0.0
C952 C 0.37055 0.35985 0.96572 0.0
C953 C 0.34649 0.41141 1.00602 0.0
H954 H 0.37266 0.29054 0.03169 0.0
C955 C 0.3397 0.39096 0.08232 0.0
C956 C 0.35529 0.3848 0.09238 0.0
C957 C 0.33977 0.38243 0.06369 0.0
C958 C 0.36539 0.32478 0.0247 0.0
H959 H 0.32697 0.40632 0.94217 0.0
H960 H 0.32727 0.38995 0.97458 0.0
H961 H 0.37254 0.29106 0.99861 0.0
H962 H 0.38301 0.36152 0.091 0.0
H963 H 0.38323 0.34729 0.0582 0.0
H964 H 0.33948 0.44579 0.03183 0.0
C965 C 0.33943 0.38388 0.96713 0.0
C966 C 0.36532 0.32508 1.00575 0.0
C967 C 0.33922 0.39286 0.94852 0.0
C968 C 0.37079 0.36656 0.08356 0.0
C969 C 0.3709 0.35835 0.06478 0.0
C970 C 0.34656 0.41111 0.02482 0.0
C971 C 0.35521 0.36924 0.97609 0.0
C972 C 0.3557 0.36814 0.9962 0.0
C973 C 0.35548 0.36803 0.05457 0.0
C974 C 0.35583 0.36753 0.03445 0.0
H975 H 0.38247 0.36365 0.93941 0.0
H976 H 0.38293 0.34863 0.97218 0.0
H977 H 0.33936 0.4463 0.99917 0.0
H978 H 0.3275 0.40429 0.0888 0.0
H979 H 0.32755 0.3887 0.05635 0.0
C980 C 0.61169 0.36366 0.44081 0.0
C981 C 0.62708 0.38826 0.43332 0.0
C982 C 0.61087 0.35066 0.4593 0.0
C983 C 0.63882 0.33062 0.50023 0.0
H984 H 0.59789 0.3894 0.52602 0.0
C985 C 0.64117 0.39342 0.5752 0.0
C986 C 0.62626 0.38453 0.58612 0.0
C987 C 0.64059 0.38092 0.55677 0.0
C988 C 0.60928 0.37163 0.51904 0.0
H989 H 0.65389 0.41598 0.43906 0.0
H990 H 0.65251 0.39335 0.47109 0.0
H991 H 0.59808 0.39027 0.49313 0.0
H992 H 0.59921 0.35334 0.58646 0.0
H993 H 0.59815 0.3313 0.55409 0.0
H994 H 0.65024 0.31357 0.52611 0.0
C995 C 0.64107 0.38379 0.46283 0.0
C996 C 0.60938 0.37214 0.50015 0.0
C997 C 0.64184 0.39713 0.44446 0.0
C998 C 0.6109 0.36067 0.57835 0.0
C999 C 0.61027 0.34847 0.55981 0.0
C1000 C 0.63871 0.33008 0.51909 0.0
C1001 C 0.62549 0.3614 0.47058 0.0
C1002 C 0.62435 0.3531 0.49051 0.0
C1003 C 0.62505 0.35932 0.54874 0.0
C1004 C 0.62413 0.35205 0.52876 0.0
H1005 H 0.60011 0.35633 0.43253 0.0
H1006 H 0.59872 0.33293 0.4648 0.0
H1007 H 0.65043 0.31453 0.49324 0.0
H1008 H 0.6532 0.41172 0.58081 0.0
H1009 H 0.65215 0.39057 0.54869 0.0
C1010 C 0.3397 0.6437 0.58168 0.0
C1011 C 0.35514 0.65079 0.59191 0.0
C1012 C 0.33992 0.65235 0.56306 0.0
C1013 C 0.36557 0.71223 0.52441 0.0
H1014 H 0.34042 0.58959 0.49846 0.0
C1015 C 0.37111 0.67064 0.44659 0.0
C1016 C 0.35565 0.65162 0.43783 0.0
C1017 C 0.37125 0.67882 0.46536 0.0
C1018 C 0.3473 0.62478 0.50543 0.0
H1019 H 0.38274 0.67578 0.59085 0.0
H1020 H 0.38323 0.69026 0.55807 0.0
H1021 H 0.34031 0.58939 0.53111 0.0
H1022 H 0.32798 0.63064 0.44153 0.0
H1023 H 0.32808 0.6461 0.47398 0.0
H1024 H 0.3727 0.74699 0.49843 0.0
C1025 C 0.3709 0.67836 0.56451 0.0
C1026 C 0.34724 0.62466 0.52423 0.0
C1027 C 0.37064 0.67001 0.58327 0.0
C1028 C 0.34014 0.64457 0.44795 0.0
C1029 C 0.34024 0.65304 0.46658 0.0
C1030 C 0.36563 0.71234 0.50546 0.0
C1031 C 0.35564 0.66783 0.55412 0.0
C1032 C 0.35618 0.66866 0.53401 0.0
C1033 C 0.35591 0.66829 0.47564 0.0
C1034 C 0.35632 0.66889 0.49575 0.0
H1035 H 0.3275 0.6296 0.58802 0.0
H1036 H 0.32781 0.64539 0.55558 0.0
H1037 H 0.37258 0.74681 0.53152 0.0
H1038 H 0.38327 0.67638 0.43909 0.0
H1039 H 0.38355 0.69055 0.4719 0.0
C1040 C 0.92412 1.01076 0.12414 0.0
C1041 C 0.92003 0.95057 0.12614 0.0
C1042 C 0.9415 0.02869 0.12109 0.0
C1043 C 0.98605 0.97416 0.10812 0.0
H1044 H 0.00176 0.1106 0.13539 0.0
C1045 C 0.05925 0.02737 0.12301 0.0
C1046 C 0.06451 0.08691 0.12228 0.0
C1047 C 0.04153 1.01195 0.12078 0.0
C1048 C -0.00248 0.07297 0.12747 0.0
H1049 H 0.93087 0.86184 0.12611 0.0
H1050 H 0.96127 0.89321 0.12127 0.0
H1051 H 0.97089 0.08135 0.13655 0.0
H1052 H 0.05536 0.17675 0.11796 0.0
H1053 H 0.02443 0.14968 0.11414 0.0
H1054 H 0.01296 0.96494 0.09956 0.0
C1055 C 0.95102 0.92654 0.12169 0.0
C1056 C 0.97981 0.05621 0.1281 0.0
C1057 C 0.9336 0.90856 0.12458 0.0
C1058 C 0.05176 0.1305 0.1187 0.0
C1059 C 0.03403 0.11508 0.11657 0.0
C1060 C 0.00382 0.99073 0.10759 0.0
C1061 C 0.95521 0.98689 0.12015 0.0
C1062 C 0.97387 1.00635 0.11855 0.0
C1063 C 0.02871 0.05578 0.11787 0.0
C1064 C 0.00974 0.04006 0.11738 0.0
H1065 H 0.91393 0.04422 0.12506 0.0
H1066 H 0.94421 0.07544 0.11961 0.0
H1067 H 0.98186 0.93605 0.10039 0.0
H1068 H 0.06875 0.99268 0.12569 0.0
H1069 H 0.03777 0.96593 0.122 0.0
C1070 C 0.92447 0.02675 0.39914 0.0
C1071 C 0.92031 0.08693 0.3973 0.0
C1072 C 0.94196 1.00885 0.40145 0.0
C1073 C 0.98711 0.06317 0.41212 0.0
H1074 H 0.00133 0.92755 0.38365 0.0
C1075 C 0.05953 1.00955 0.39352 0.0
C1076 C 0.0647 0.94991 0.39397 0.0
C1077 C 0.04193 0.02523 0.39651 0.0
C1078 C -0.00247 0.96496 0.39189 0.0
H1079 H 0.93113 0.1757 0.39696 0.0
H1080 H 0.9617 0.14438 0.40051 0.0
H1081 H 0.97046 0.95678 0.38428 0.0
H1082 H 0.05556 0.86014 0.39849 0.0
H1083 H 0.02487 0.88767 0.40363 0.0
H1084 H 0.01444 0.07215 0.4192 0.0
C1085 C 0.95144 0.11102 0.40052 0.0
C1086 C 0.97982 0.98169 0.3923 0.0
C1087 C 0.93392 0.12898 0.39838 0.0
C1088 C 0.05201 0.90647 0.39794 0.0
C1089 C 0.03442 0.92215 0.40083 0.0
C1090 C 0.00489 0.04661 0.41161 0.0
C1091 C 0.95569 0.05067 0.40177 0.0
C1092 C 0.9744 0.03122 0.40232 0.0
C1093 C 0.02916 0.98157 0.3999 0.0
C1094 C 0.01026 0.99757 0.40138 0.0
H1095 H 0.91426 0.99328 0.39859 0.0
H1096 H 0.94473 0.96209 0.40275 0.0
H1097 H 0.98334 0.10104 0.42017 0.0
H1098 H 0.06898 0.04412 0.39055 0.0
H1099 H 0.0382 0.07134 0.39555 0.0
C1100 C 0.0505 0.13072 0.89697 0.0
C1101 C 0.06317 0.08725 0.893 0.0
C1102 C 0.03288 0.11512 0.8998 0.0
C1103 C 0.00332 0.99071 0.91058 0.0
H1104 H 0.96883 0.08086 0.88343 0.0
C1105 C 0.93211 0.90919 0.89795 0.0
C1106 C 0.91855 0.95144 0.89699 0.0
C1107 C 0.94969 0.92689 0.89989 0.0
C1108 C 0.97821 0.05585 0.8914 0.0
H1109 H 0.0674 0.99304 0.88951 0.0
H1110 H 0.03659 0.96594 0.89444 0.0
H1111 H -0.00027 0.10987 0.88266 0.0
H1112 H 0.91266 0.0452 0.89826 0.0
H1113 H 0.94323 0.07594 0.90207 0.0
H1114 H 0.98176 0.93644 0.91925 0.0
C1115 C 0.04034 1.01203 0.89542 0.0
C1116 C -0.00407 0.07245 0.8909 0.0
C1117 C 0.05795 0.02765 0.89248 0.0
C1118 C 0.92283 1.01157 0.89873 0.0
C1119 C 0.94037 0.02922 0.90083 0.0
C1120 C 0.98553 0.97429 0.91118 0.0
C1121 C 0.02759 0.05572 0.89883 0.0
C1122 C 0.00869 0.03976 0.90034 0.0
C1123 C 0.95404 0.98719 0.90105 0.0
C1124 C 0.97279 1.00637 0.90144 0.0
H1125 H 0.05407 0.17703 0.89755 0.0
H1126 H 0.02335 0.14962 0.90261 0.0
H1127 H 0.01288 0.9651 0.91813 0.0
H1128 H 0.92924 0.8625 0.89661 0.0
H1129 H 0.95989 0.89338 0.89981 0.0
C1130 C 0.93172 0.13411 0.62289 0.0
C1131 C 0.91902 0.09038 0.62654 0.0
C1132 C 0.94935 0.1187 0.62007 0.0
C1133 C 0.97888 0.99494 0.60861 0.0
H1134 H 0.01343 0.08318 0.63626 0.0
C1135 C 0.04994 0.9118 0.62081 0.0
C1136 C 0.06358 0.95372 0.622 0.0
C1137 C 0.0324 0.92993 0.61898 0.0
C1138 C 0.00403 0.05874 0.62816 0.0
H1139 H 0.91479 0.99598 0.62952 0.0
H1140 H 0.94562 0.96923 0.6246 0.0
H1141 H 0.98254 0.11234 0.6372 0.0
H1142 H 0.06962 0.04745 0.62127 0.0
H1143 H 0.0391 0.07896 0.61765 0.0
H1144 H 0.0004 0.94109 0.59963 0.0
C1145 C 0.94188 1.01536 0.62386 0.0
C1146 C 0.98632 0.07541 0.62874 0.0
C1147 C 0.92424 0.03078 0.62679 0.0
C1148 C 0.0594 1.01403 0.62061 0.0
C1149 C 0.04189 0.03212 0.61862 0.0
C1150 C -0.00334 0.97846 0.60792 0.0
C1151 C 0.95464 0.05926 0.62073 0.0
C1152 C 0.97354 0.04335 0.61913 0.0
C1153 C 0.02814 0.99036 0.61815 0.0
C1154 C 0.00941 1.00982 0.61784 0.0
H1155 H 0.92814 0.18043 0.62254 0.0
H1156 H 0.95889 0.15337 0.6175 0.0
H1157 H 0.96931 0.96985 0.60091 0.0
H1158 H 0.05272 0.86498 0.62189 0.0
H1159 H 0.02213 0.89659 0.61888 0.0
C1160 C 0.42348 0.50929 0.12882 0.0
C1161 C 0.41922 0.44905 0.13028 0.0
C1162 C 0.44093 0.52706 0.12615 0.0
C1163 C 0.4854 0.47286 0.11298 0.0
H1164 H 0.50121 0.60727 0.14112 0.0
C1165 C 0.55882 0.52698 0.12666 0.0
C1166 C 0.5639 0.58671 0.12602 0.0
C1167 C 0.54107 0.51112 0.12499 0.0
C1168 C 0.49694 0.57018 0.13298 0.0
H1169 H 0.42989 0.36009 0.12971 0.0
H1170 H 0.46042 0.39115 0.12548 0.0
H1171 H 0.47035 0.57769 0.14228 0.0
H1172 H 0.55436 0.6765 0.1226 0.0
H1173 H 0.52339 0.64866 0.11974 0.0
H1174 H 0.51225 0.46461 0.10414 0.0
C1175 C 0.45023 0.42467 0.12606 0.0
C1176 C 0.47925 0.55324 0.13361 0.0
C1177 C 0.43273 0.40686 0.12859 0.0
C1178 C 0.5509 0.6301 0.12322 0.0
C1179 C 0.53315 0.61424 0.12166 0.0
C1180 C 0.50317 0.48961 0.11246 0.0
C1181 C 0.45456 0.48503 0.12505 0.0
C1182 C 0.47327 0.50422 0.12369 0.0
C1183 C 0.52804 0.55468 0.12275 0.0
C1184 C 0.50911 0.53828 0.12252 0.0
H1185 H 0.41335 0.54292 0.12987 0.0
H1186 H 0.44375 0.57384 0.12506 0.0
H1187 H 0.48118 0.43541 0.10498 0.0
H1188 H 0.5685 0.49242 0.12876 0.0
H1189 H 0.53748 0.4649 0.12604 0.0
C1190 C 0.43314 0.63264 0.39951 0.0
C1191 C 0.41967 0.59006 0.39848 0.0
C1192 C 0.4508 0.6153 0.40091 0.0
C1193 C 0.47945 0.48794 0.39074 0.0
H1194 H 0.51428 0.57538 0.41827 0.0
C1195 C 0.55147 0.41002 0.39657 0.0
C1196 C 0.56443 0.45327 0.3934 0.0
C1197 C 0.53384 0.42615 0.39899 0.0
C1198 C 0.50468 0.55075 0.41047 0.0
H1199 H 0.41406 0.49601 0.39908 0.0
H1200 H 0.44476 0.46592 0.40194 0.0
H1201 H 0.48321 0.60435 0.41972 0.0
H1202 H 0.5691 0.54757 0.39076 0.0
H1203 H 0.53827 0.57557 0.39497 0.0
H1204 H 0.50089 0.43449 0.38147 0.0
C1205 C 0.44176 0.51264 0.40116 0.0
C1206 C 0.48692 0.56736 0.41126 0.0
C1207 C 0.42415 0.52993 0.39962 0.0
C1208 C 0.55944 0.51311 0.39313 0.0
C1209 C 0.54181 0.52924 0.39566 0.0
C1210 C 0.49715 0.47117 0.39004 0.0
C1211 C 0.45533 0.55505 0.40144 0.0
C1212 C 0.47411 0.5363 0.40132 0.0
C1213 C 0.52881 0.48585 0.39839 0.0
C1214 C 0.50996 0.50258 0.39981 0.0
H1215 H 0.43012 0.67934 0.39862 0.0
H1216 H 0.46094 0.64909 0.40091 0.0
H1217 H 0.47001 0.46381 0.38261 0.0
H1218 H 0.55487 0.36354 0.39692 0.0
H1219 H 0.52411 0.39184 0.40127 0.0
C1220 C 0.43157 0.40712 0.90187 0.0
C1221 C 0.41859 0.45036 0.89882 0.0
C1222 C 0.44931 0.42308 0.90345 0.0
C1223 C 0.47935 0.54799 0.91207 0.0
H1224 H 0.512 0.45866 0.88241 0.0
C1225 C 0.54978 0.62972 0.89546 0.0
C1226 C 0.56326 0.58738 0.89391 0.0
C1227 C 0.53227 0.61212 0.89804 0.0
C1228 C 0.50316 0.48347 0.89103 0.0
H1229 H 0.41397 0.54452 0.89574 0.0
H1230 H 0.44498 0.57222 0.89849 0.0
H1231 H 0.48114 0.42923 0.88382 0.0
H1232 H 0.56908 0.49348 0.89459 0.0
H1233 H 0.53866 0.46294 0.89948 0.0
H1234 H 0.50139 0.60239 0.91925 0.0
C1235 C 0.44139 0.52604 0.89971 0.0
C1236 C 0.48546 0.46662 0.8918 0.0
C1237 C 0.42365 0.51008 0.89802 0.0
C1238 C 0.55897 0.52722 0.89552 0.0
C1239 C 0.54151 0.50967 0.89825 0.0
C1240 C 0.49712 0.56466 0.9114 0.0
C1241 C 0.45442 0.48259 0.90212 0.0
C1242 C 0.47335 0.49894 0.90221 0.0
C1243 C 0.52791 0.55184 0.89925 0.0
C1244 C 0.5092 0.53283 0.90075 0.0
H1245 H 0.42813 0.36073 0.90263 0.0
H1246 H 0.45908 0.38875 0.90551 0.0
H1247 H 0.47031 0.57335 0.92033 0.0
H1248 H 0.55266 0.67643 0.89423 0.0
H1249 H 0.52211 0.64574 0.89853 0.0
C1250 C 0.42398 0.53128 0.6307 0.0
C1251 C 0.41884 0.59098 0.63046 0.0
C1252 C 0.44159 0.51557 0.62787 0.0
C1253 C 0.48616 0.5745 0.6329 0.0
H1254 H 0.49993 0.43983 0.60378 0.0
C1255 C 0.5591 0.51203 0.62431 0.0
C1256 C 0.56326 0.45169 0.62564 0.0
C1257 C 0.54158 0.53025 0.62252 0.0
C1258 C 0.49628 0.47727 0.61207 0.0
H1259 H 0.42811 0.6809 0.62663 0.0
H1260 H 0.45888 0.65332 0.62176 0.0
H1261 H 0.46892 0.46947 0.60504 0.0
H1262 H 0.55237 0.36302 0.62566 0.0
H1263 H 0.52174 0.39487 0.62297 0.0
H1264 H 0.51329 0.58153 0.64042 0.0
C1265 C 0.44926 0.61881 0.62424 0.0
C1266 C 0.47854 0.49427 0.61275 0.0
C1267 C 0.43163 0.63453 0.62696 0.0
C1268 C 0.54959 0.40984 0.62462 0.0
C1269 C 0.53203 0.42811 0.62298 0.0
C1270 C 0.50384 0.55733 0.63232 0.0
C1271 C 0.45444 0.55923 0.62485 0.0
C1272 C 0.47331 0.54284 0.62327 0.0
C1273 C 0.52781 0.48859 0.62219 0.0
C1274 C 0.50911 0.5083 0.62199 0.0
H1275 H 0.41445 0.4966 0.63331 0.0
H1276 H 0.44524 0.46934 0.62859 0.0
H1277 H 0.48247 0.61153 0.64136 0.0
H1278 H 0.56934 0.5454 0.62484 0.0
H1279 H 0.53883 0.57711 0.62157 0.0
C1280 C 0.11681 0.85427 0.15218 0.0
C1281 C 0.12634 0.8838 0.13867 0.0
C1282 C 0.11521 0.79266 0.15185 0.0
C1283 C 0.13477 0.65696 0.13217 0.0
H1284 H 0.08876 0.58928 0.14232 0.0
C1285 C 0.11963 0.4105 0.11919 0.0
C1286 C 0.11003 0.38065 0.13257 0.0
C1287 C 0.12129 0.47206 0.11969 0.0
C1288 C 0.10174 0.60738 0.13962 0.0
H1289 H 0.14197 0.87229 0.11446 0.0
H1290 H 0.13915 0.76488 0.11383 0.0
H1291 H 0.09294 0.69591 0.14436 0.0
H1292 H 0.09432 0.39155 0.15676 0.0
H1293 H 0.09723 0.49893 0.15771 0.0
H1294 H 0.14358 0.56844 0.12742 0.0
C1295 C 0.13304 0.78904 0.12477 0.0
C1296 C 0.10415 0.66854 0.14083 0.0
C1297 C 0.13461 0.8506 0.12509 0.0
C1298 C 0.10174 0.4135 0.14622 0.0
C1299 C 0.10337 0.47505 0.14672 0.0
C1300 C 0.13237 0.59581 0.13096 0.0
C1301 C 0.12313 0.75934 0.13802 0.0
C1302 C 0.12069 0.6941 0.13711 0.0
C1303 C 0.11335 0.50505 0.13359 0.0
C1304 C 0.11582 0.57025 0.13465 0.0
H1305 H 0.11031 0.87884 0.16281 0.0
H1306 H 0.10771 0.77114 0.16241 0.0
H1307 H 0.14775 0.67507 0.12945 0.0
H1308 H 0.12615 0.38621 0.10851 0.0
H1309 H 0.12883 0.49382 0.10921 0.0
C1310 C 0.85066 0.18368 0.12932 0.0
C1311 C 0.85812 0.15036 0.14334 0.0
C1312 C 0.85235 0.24522 0.12905 0.0
C1313 C 0.8805 0.36548 0.14671 0.0
H1314 H 0.84211 0.46601 0.13072 0.0
C1315 C 0.883 0.62079 0.15174 0.0
C1316 C 0.87555 0.6535 0.13757 0.0
C1317 C 0.88127 0.55925 0.15226 0.0
C1318 C 0.85305 0.43853 0.135 0.0
H1319 H 0.87285 0.15516 0.16833 0.0
H1320 H 0.87565 0.26283 0.16803 0.0
H1321 H 0.83766 0.35952 0.13266 0.0
H1322 H 0.86084 0.64765 0.1126 0.0
H1323 H 0.85799 0.54008 0.11334 0.0
H1324 H 0.89589 0.44453 0.14904 0.0
C1325 C 0.86869 0.2414 0.15708 0.0
C1326 C 0.85047 0.37743 0.13615 0.0
C1327 C 0.86696 0.1798 0.15734 0.0
C1328 C 0.8667 0.62349 0.1237 0.0
C1329 C 0.86495 0.56194 0.12421 0.0
C1330 C 0.88307 0.4266 0.14556 0.0
C1331 C 0.86158 0.27484 0.14282 0.0
C1332 C 0.86417 0.34009 0.142 0.0
C1333 C 0.87202 0.5291 0.13862 0.0
C1334 C 0.86938 0.46391 0.13966 0.0
H1335 H 0.84384 0.16209 0.1183 0.0
H1336 H 0.84688 0.26941 0.11777 0.0
H1337 H 0.89143 0.33799 0.15097 0.0
H1338 H 0.88983 0.64285 0.16267 0.0
H1339 H 0.88673 0.53551 0.16364 0.0
C1340 C 0.11735 0.1816 0.36321 0.0
C1341 C 0.12656 0.15233 0.37699 0.0
C1342 C 0.11571 0.2432 0.36341 0.0
C1343 C 0.13471 0.37933 0.38337 0.0
H1344 H 0.08888 0.44644 0.37217 0.0
C1345 C 0.11909 0.6255 0.39605 0.0
C1346 C 0.10972 0.65534 0.3825 0.0
C1347 C 0.12081 0.56397 0.39554 0.0
C1348 C 0.10181 0.4285 0.37516 0.0
H1349 H 0.14159 0.16431 0.40157 0.0
H1350 H 0.1387 0.27171 0.40198 0.0
H1351 H 0.09318 0.33984 0.37028 0.0
H1352 H 0.09449 0.64444 0.358 0.0
H1353 H 0.09752 0.53707 0.35704 0.0
H1354 H 0.14334 0.46797 0.38826 0.0
C1355 C 0.13286 0.24735 0.39092 0.0
C1356 C 0.10429 0.36736 0.37404 0.0
C1357 C 0.13447 0.18579 0.39073 0.0
C1358 C 0.10172 0.62249 0.36867 0.0
C1359 C 0.10342 0.56096 0.36816 0.0
C1360 C 0.13223 0.44047 0.38448 0.0
C1361 C 0.12327 0.27677 0.37739 0.0
C1362 C 0.12077 0.342 0.37816 0.0
C1363 C 0.11318 0.53099 0.38147 0.0
C1364 C 0.11574 0.46582 0.38042 0.0
H1365 H 0.11113 0.15683 0.35245 0.0
H1366 H 0.10845 0.26452 0.35264 0.0
H1367 H 0.14764 0.36138 0.38639 0.0
H1368 H 0.12538 0.64978 0.40687 0.0
H1369 H 0.12817 0.54224 0.40616 0.0
C1370 C 0.88337 0.41657 0.37243 0.0
C1371 C 0.87584 0.38388 0.38656 0.0
C1372 C 0.8817 0.47812 0.37193 0.0
C1373 C 0.87107 0.60871 0.40015 0.0
H1374 H 0.86029 0.68196 0.35419 0.0
C1375 C 0.85077 0.85386 0.39502 0.0
C1376 C 0.85828 0.88702 0.38098 0.0
C1377 C 0.85255 0.79236 0.39541 0.0
C1378 C 0.86347 0.66233 0.3671 0.0
H1379 H 0.86096 0.38976 0.41144 0.0
H1380 H 0.85795 0.49721 0.41057 0.0
H1381 H 0.8648 0.57541 0.35579 0.0
H1382 H 0.87321 0.88197 0.35612 0.0
H1383 H 0.87642 0.7745 0.35678 0.0
H1384 H 0.86973 0.6956 0.41146 0.0
C1385 C 0.8653 0.47552 0.39994 0.0
C1386 C 0.86609 0.60119 0.36802 0.0
C1387 C 0.86698 0.41394 0.40043 0.0
C1388 C 0.86722 0.85743 0.36706 0.0
C1389 C 0.869 0.79585 0.36744 0.0
C1390 C 0.86845 0.66983 0.39923 0.0
C1391 C 0.87245 0.50834 0.38556 0.0
C1392 C 0.86992 0.57358 0.38456 0.0
C1393 C 0.8619 0.76261 0.38175 0.0
C1394 C 0.86458 0.69743 0.38269 0.0
H1395 H 0.8903 0.39451 0.36157 0.0
H1396 H 0.88763 0.50203 0.36082 0.0
H1397 H 0.87425 0.58909 0.41306 0.0
H1398 H 0.84378 0.87553 0.40591 0.0
H1399 H 0.84665 0.7681 0.40646 0.0
C1400 C 0.86535 0.18165 0.86741 0.0
C1401 C 0.85637 0.15202 0.88128 0.0
C1402 C 0.86703 0.24325 0.86773 0.0
C1403 C 0.84849 0.379 0.88847 0.0
H1404 H 0.89406 0.44623 0.8762 0.0
C1405 C 0.86447 0.62537 0.90082 0.0
C1406 C 0.8735 0.65514 0.88701 0.0
C1407 C 0.86273 0.56381 0.90039 0.0
C1408 C 0.8812 0.42827 0.8795 0.0
H1409 H 0.84177 0.16339 0.90616 0.0
H1410 H 0.84472 0.27076 0.9068 0.0
H1411 H 0.88968 0.33968 0.87426 0.0
H1412 H 0.88809 0.64408 0.86211 0.0
H1413 H 0.88502 0.53674 0.86128 0.0
H1414 H 0.84002 0.46759 0.89372 0.0
C1415 C 0.85035 0.2467 0.89556 0.0
C1416 C 0.87867 0.36714 0.87835 0.0
C1417 C 0.84871 0.18514 0.89524 0.0
C1418 C 0.88113 0.6222 0.87299 0.0
C1419 C 0.87941 0.56067 0.87255 0.0
C1420 C 0.85102 0.44013 0.88962 0.0
C1421 C 0.85973 0.27649 0.88194 0.0
C1422 C 0.86229 0.34172 0.88283 0.0
C1423 C 0.87 0.53074 0.88613 0.0
C1424 C 0.86741 0.46555 0.88516 0.0
H1425 H 0.87139 0.15716 0.85647 0.0
H1426 H 0.8741 0.26482 0.85688 0.0
H1427 H 0.83563 0.36103 0.89178 0.0
H1428 H 0.85847 0.64972 0.9118 0.0
H1429 H 0.85563 0.54212 0.9112 0.0
C1430 C 0.1176 0.41133 0.89546 0.0
C1431 C 0.10838 0.38132 0.88184 0.0
C1432 C 0.11927 0.47289 0.89493 0.0
C1433 C 0.10039 0.60806 0.87418 0.0
H1434 H 0.14601 0.67576 0.88597 0.0
C1435 C 0.11599 0.85504 0.86215 0.0
C1436 C 0.12498 0.8845 0.87604 0.0
C1437 C 0.11435 0.79343 0.8624 0.0
C1438 C 0.13314 0.65765 0.88279 0.0
H1439 H 0.09336 0.39193 0.8572 0.0
H1440 H 0.09633 0.4993 0.85619 0.0
H1441 H 0.14176 0.56917 0.88791 0.0
H1442 H 0.13964 0.87285 0.90087 0.0
H1443 H 0.13677 0.76546 0.90136 0.0
H1444 H 0.09177 0.69659 0.86906 0.0
C1445 C 0.10214 0.47556 0.86739 0.0
C1446 C 0.13068 0.59651 0.88395 0.0
C1447 C 0.10048 0.41402 0.86792 0.0
C1448 C 0.13269 0.85122 0.88994 0.0
C1449 C 0.13109 0.78967 0.89018 0.0
C1450 C 0.10284 0.66922 0.87301 0.0
C1451 C 0.11175 0.50572 0.88077 0.0
C1452 C 0.11427 0.57093 0.8797 0.0
C1453 C 0.12171 0.76004 0.87653 0.0
C1454 C 0.11924 0.69479 0.87733 0.0
H1455 H 0.12381 0.38717 0.90636 0.0
H1456 H 0.12651 0.49476 0.90561 0.0
H1457 H 0.08751 0.58997 0.87104 0.0
H1458 H 0.10992 0.87967 0.85127 0.0
H1459 H 0.10726 0.77195 0.85154 0.0
C1460 C 0.86633 0.85707 0.65658 0.0
C1461 C 0.85716 0.88674 0.64286 0.0
C1462 C 0.86794 0.79547 0.65624 0.0
C1463 C 0.8663 0.66923 0.62463 0.0
H1464 H 0.86344 0.57546 0.66826 0.0
C1465 C 0.86419 0.41354 0.62388 0.0
C1466 C 0.8735 0.38361 0.63746 0.0
C1467 C 0.8626 0.47512 0.62434 0.0
C1468 C 0.8645 0.60108 0.65598 0.0
H1469 H 0.84204 0.87547 0.61831 0.0
H1470 H 0.84459 0.76796 0.61782 0.0
H1471 H 0.85919 0.68215 0.66985 0.0
H1472 H 0.88881 0.39437 0.66191 0.0
H1473 H 0.88625 0.50193 0.66261 0.0
H1474 H 0.87159 0.58818 0.61076 0.0
C1475 C 0.85082 0.79216 0.62869 0.0
C1476 C 0.86203 0.66226 0.65689 0.0
C1477 C 0.84923 0.85369 0.62904 0.0
C1478 C 0.88154 0.41637 0.65128 0.0
C1479 C 0.87994 0.47791 0.65175 0.0
C1480 C 0.86875 0.60807 0.62372 0.0
C1481 C 0.8604 0.76232 0.64215 0.0
C1482 C 0.86288 0.69711 0.64122 0.0
C1483 C 0.87028 0.508 0.63841 0.0
C1484 C 0.86788 0.57322 0.63938 0.0
H1485 H 0.87264 0.88155 0.66736 0.0
H1486 H 0.87554 0.77401 0.66673 0.0
H1487 H 0.86736 0.69482 0.61234 0.0
H1488 H 0.8578 0.38928 0.61312 0.0
H1489 H 0.85493 0.49678 0.61395 0.0
C1490 C 0.13365 0.18551 0.62354 0.0
C1491 C 0.12601 0.15243 0.63753 0.0
C1492 C 0.13188 0.24704 0.62311 0.0
C1493 C 0.12063 0.37718 0.65131 0.0
H1494 H 0.11033 0.45042 0.60522 0.0
C1495 C 0.10034 0.62254 0.64585 0.0
C1496 C 0.10797 0.65553 0.63185 0.0
C1497 C 0.10212 0.56102 0.64633 0.0
C1498 C 0.11338 0.43081 0.61817 0.0
H1499 H 0.11085 0.15765 0.66224 0.0
H1500 H 0.10767 0.26509 0.6615 0.0
H1501 H 0.11497 0.34397 0.60686 0.0
H1502 H 0.12316 0.65017 0.60715 0.0
H1503 H 0.12637 0.54278 0.60797 0.0
H1504 H 0.11903 0.46404 0.66262 0.0
C1505 C 0.11518 0.2437 0.65092 0.0
C1506 C 0.11607 0.36971 0.61911 0.0
C1507 C 0.11695 0.18212 0.65134 0.0
C1508 C 0.11706 0.62577 0.61807 0.0
C1509 C 0.11885 0.56422 0.61853 0.0
C1510 C 0.11794 0.43828 0.65037 0.0
C1511 C 0.12242 0.27688 0.63667 0.0
C1512 C 0.11975 0.34209 0.63569 0.0
C1513 C 0.1116 0.53111 0.63279 0.0
C1514 C 0.11426 0.4659 0.63379 0.0
H1515 H 0.14072 0.16375 0.61272 0.0
H1516 H 0.13789 0.27122 0.6121 0.0
H1517 H 0.12367 0.35756 0.66425 0.0
H1518 H 0.09324 0.64436 0.65665 0.0
H1519 H 0.09612 0.53688 0.65735 0.0
C1520 C 0.61858 0.9111 0.11982 0.0
C1521 C 0.60969 0.88125 0.13371 0.0
C1522 C 0.62024 0.97267 0.12023 0.0
C1523 C 0.61971 0.09827 0.15203 0.0
H1524 H 0.6152 0.19284 0.1087 0.0
C1525 C 0.61793 0.3542 0.15317 0.0
C1526 C 0.62658 0.38416 0.13915 0.0
C1527 C 0.61632 0.29259 0.15278 0.0
C1528 C 0.61673 0.16701 0.12089 0.0
H1529 H 0.5952 0.89216 0.15868 0.0
H1530 H 0.59792 0.99965 0.15932 0.0
H1531 H 0.61084 0.08621 0.10712 0.0
H1532 H 0.64076 0.37342 0.11399 0.0
H1533 H 0.63819 0.26592 0.1134 0.0
H1534 H 0.62562 0.17904 0.1658 0.0
C1535 C 0.60383 0.97559 0.14824 0.0
C1536 C 0.6142 0.10586 0.11998 0.0
C1537 C 0.60214 0.91409 0.1478 0.0
C1538 C 0.63399 0.35141 0.12497 0.0
C1539 C 0.63238 0.28988 0.12456 0.0
C1540 C 0.62225 0.15941 0.15294 0.0
C1541 C 0.61309 1.00559 0.13458 0.0
C1542 C 0.61564 0.07074 0.13554 0.0
C1543 C 0.62332 0.25975 0.13833 0.0
C1544 C 0.6208 0.19455 0.13738 0.0
H1545 H 0.62459 0.88678 0.10884 0.0
H1546 H 0.62759 0.9943 0.10958 0.0
H1547 H 0.62122 0.07241 0.16421 0.0
H1548 H 0.61204 0.37845 0.16423 0.0
H1549 H 0.60913 0.2709 0.16353 0.0
C1550 C 0.3667 0.67871 0.16012 0.0
C1551 C 0.35713 0.64909 0.14666 0.0
C1552 C 0.36837 0.7403 0.15971 0.0
C1553 C 0.34896 0.8761 0.13994 0.0
H1554 H 0.39517 0.94291 0.14963 0.0
C1555 C 0.36433 0.12241 0.12678 0.0
C1556 C 0.3742 0.15205 0.14 0.0
C1557 C 0.36258 0.06086 0.12729 0.0
C1558 C 0.38213 0.92508 0.14706 0.0
H1559 H 0.34145 0.66047 0.12249 0.0
H1560 H 0.34435 0.76787 0.12173 0.0
H1561 H 0.3908 0.83642 0.15186 0.0
H1562 H 0.39028 0.14077 0.1639 0.0
H1563 H 0.38718 0.03348 0.1649 0.0
H1564 H 0.34028 0.96474 0.13516 0.0
C1565 C 0.35047 0.74378 0.13269 0.0
C1566 C 0.37962 0.86399 0.14838 0.0
C1567 C 0.34885 0.68222 0.13308 0.0
C1568 C 0.38265 0.11899 0.15348 0.0
C1569 C 0.38092 0.05747 0.15401 0.0
C1570 C 0.35147 0.9372 0.13864 0.0
C1571 C 0.36046 0.77353 0.14586 0.0
C1572 C 0.363 0.83872 0.14483 0.0
C1573 C 0.37068 0.02767 0.14105 0.0
C1574 C 0.3681 0.96249 0.14217 0.0
H1575 H 0.37322 0.65421 0.17076 0.0
H1576 H 0.37593 0.76188 0.17021 0.0
H1577 H 0.33594 0.85822 0.13734 0.0
H1578 H 0.35767 0.14686 0.11622 0.0
H1579 H 0.35483 0.03929 0.11694 0.0
C1580 C 0.60329 0.12569 0.36999 0.0
C1581 C 0.60995 0.15841 0.38456 0.0
C1582 C 0.60502 0.0642 0.3696 0.0
C1583 C 0.61355 0.93372 0.39836 0.0
H1584 H 0.62788 0.86087 0.35335 0.0
C1585 C 0.63364 0.68827 0.39452 0.0
C1586 C 0.62711 0.65557 0.37988 0.0
C1587 C 0.632 0.74979 0.39485 0.0
C1588 C 0.6237 0.88041 0.36597 0.0
H1589 H 0.6233 0.15269 0.41032 0.0
H1590 H 0.62634 0.04517 0.40968 0.0
H1591 H 0.62342 0.96751 0.35472 0.0
H1592 H 0.61413 0.66138 0.35393 0.0
H1593 H 0.6112 0.76895 0.3545 0.0
H1594 H 0.6138 0.84665 0.40961 0.0
C1595 C 0.61968 0.06689 0.3986 0.0
C1596 C 0.62112 0.94155 0.36676 0.0
C1597 C 0.61798 0.12846 0.39896 0.0
C1598 C 0.61934 0.68559 0.36535 0.0
C1599 C 0.61771 0.74719 0.36567 0.0
C1600 C 0.61612 0.87258 0.39757 0.0
C1601 C 0.61343 0.0341 0.3838 0.0
C1602 C 0.61601 0.96895 0.38296 0.0
C1603 C 0.6238 0.77997 0.38055 0.0
C1604 C 0.62124 0.84515 0.38137 0.0
H1605 H 0.59703 0.1477 0.35871 0.0
H1606 H 0.59982 0.04023 0.35813 0.0
H1607 H 0.60938 0.95328 0.41099 0.0
H1608 H 0.63972 0.66622 0.40589 0.0
H1609 H 0.63711 0.77371 0.40638 0.0
C1610 C 0.36391 0.91511 0.40333 0.0
C1611 C 0.37395 0.88549 0.39023 0.0
C1612 C 0.3622 0.97666 0.40281 0.0
C1613 C 0.36537 0.10259 0.37123 0.0
H1614 H 0.36583 0.19684 0.41485 0.0
C1615 C 0.36727 0.35844 0.37039 0.0
C1616 C 0.3574 0.3884 0.38355 0.0
C1617 C 0.36879 0.29683 0.37091 0.0
C1618 C 0.36544 0.17109 0.40255 0.0
H1619 H 0.39045 0.89681 0.36662 0.0
H1620 H 0.3877 1.00427 0.36583 0.0
H1621 H 0.37011 0.09025 0.41678 0.0
H1622 H 0.34098 0.37765 0.40725 0.0
H1623 H 0.3434 0.27009 0.40802 0.0
H1624 H 0.3607 0.18342 0.357 0.0
C1625 C 0.3809 0.98004 0.37634 0.0
C1626 C 0.36793 0.10996 0.40366 0.0
C1627 C 0.38261 0.91855 0.37687 0.0
C1628 C 0.34871 0.35564 0.39695 0.0
C1629 C 0.35022 0.29408 0.39748 0.0
C1630 C 0.36288 0.16371 0.37012 0.0
C1631 C 0.37049 1.00981 0.38915 0.0
C1632 C 0.36795 0.07495 0.38801 0.0
C1633 C 0.36049 0.26396 0.38461 0.0
C1634 C 0.36289 0.19875 0.38577 0.0
H1635 H 0.35702 0.89061 0.41372 0.0
H1636 H 0.35396 0.99808 0.41279 0.0
H1637 H 0.365 0.07683 0.35893 0.0
H1638 H 0.37417 0.3827 0.35995 0.0
H1639 H 0.37693 0.27515 0.36088 0.0
C1640 C 0.34871 0.68474 0.89906 0.0
C1641 C 0.35594 0.65214 0.88475 0.0
C1642 C 0.35032 0.74628 0.89951 0.0
C1643 C 0.3602 0.87708 0.87112 0.0
H1644 H 0.37193 0.94997 0.9169 0.0
C1645 C 0.38061 0.12218 0.87626 0.0
C1646 C 0.37313 0.15509 0.89037 0.0
C1647 C 0.37884 0.0607 0.8758 0.0
C1648 C 0.36849 0.9304 0.90405 0.0
H1649 H 0.37019 0.65815 0.8595 0.0
H1650 H 0.37312 0.76568 0.86028 0.0
H1651 H 0.36753 0.84336 0.91528 0.0
H1652 H 0.3583 0.14967 0.91529 0.0
H1653 H 0.35519 0.04215 0.91454 0.0
H1654 H 0.36122 0.96415 0.85988 0.0
C1655 C 0.36605 0.74388 0.8711 0.0
C1656 C 0.36593 0.86926 0.90312 0.0
C1657 C 0.36443 0.68227 0.87066 0.0
C1658 C 0.36425 0.1253 0.90428 0.0
C1659 C 0.36252 0.06373 0.90387 0.0
C1660 C 0.36278 0.93821 0.87204 0.0
C1661 C 0.35922 0.77659 0.88566 0.0
C1662 C 0.36174 0.84181 0.88664 0.0
C1663 C 0.36959 0.03076 0.88948 0.0
C1664 C 0.36698 0.96562 0.88852 0.0
H1665 H 0.34207 0.66261 0.9101 0.0
H1666 H 0.34464 0.77011 0.91077 0.0
H1667 H 0.35674 0.85756 0.85826 0.0
H1668 H 0.38754 0.14405 0.86536 0.0
H1669 H 0.38468 0.03659 0.86469 0.0
C1670 C 0.61582 0.35696 0.86518 0.0
C1671 C 0.62552 0.38676 0.87849 0.0
C1672 C 0.61422 0.29536 0.86564 0.0
C1673 C 0.61706 0.16931 0.89725 0.0
H1674 H 0.61782 0.0754 0.85356 0.0
C1675 C 0.6185 0.91336 0.89786 0.0
C1676 C 0.60856 0.8838 0.88468 0.0
C1677 C 0.62022 0.97491 0.89738 0.0
C1678 C 0.61736 0.10106 0.86587 0.0
H1679 H 0.64158 0.3757 0.90242 0.0
H1680 H 0.63905 0.26816 0.9031 0.0
H1681 H 0.62225 0.18195 0.85176 0.0
H1682 H 0.59223 0.89523 0.86095 0.0
H1683 H 0.59502 1.00273 0.86023 0.0
H1684 H 0.61219 0.08838 0.91137 0.0
C1685 C 0.6324 0.29227 0.89247 0.0
C1686 C 0.61993 0.16217 0.86484 0.0
C1687 C 0.63398 0.35382 0.892 0.0
C1688 C 0.6 0.91693 0.87127 0.0
C1689 C 0.60173 0.97844 0.87078 0.0
C1690 C 0.61451 0.10819 0.89829 0.0
C1691 C 0.62229 0.26231 0.87944 0.0
C1692 C 0.61981 0.19709 0.88051 0.0
C1693 C 0.61204 1.00814 0.88369 0.0
C1694 C 0.6146 0.0733 0.88261 0.0
H1695 H 0.60909 0.38134 0.85465 0.0
H1696 H 0.6062 0.27384 0.85548 0.0
H1697 H 0.61658 0.19494 0.90957 0.0
H1698 H 0.62531 0.88882 0.90829 0.0
H1699 H 0.62839 0.99627 0.90744 0.0
C1700 C 0.38152 0.91725 0.65313 0.0
C1701 C 0.37283 0.88429 0.63978 0.0
C1702 C 0.37992 0.97878 0.65362 0.0
C1703 C 0.35057 0.09944 0.63855 0.0
H1704 H 0.3903 0.19942 0.65111 0.0
C1705 C 0.34849 0.35422 0.63277 0.0
C1706 C 0.35693 0.38722 0.64627 0.0
C1707 C 0.34999 0.29266 0.63239 0.0
C1708 C 0.37901 0.17206 0.64781 0.0
H1709 H 0.35605 0.88958 0.6162 0.0
H1710 H 0.35346 0.99723 0.61684 0.0
H1711 H 0.39441 0.09281 0.64889 0.0
H1712 H 0.37319 0.38196 0.67024 0.0
H1713 H 0.37571 0.27422 0.66972 0.0
H1714 H 0.33519 0.17876 0.63742 0.0
C1715 C 0.36127 0.97556 0.62713 0.0
C1716 C 0.38138 0.11093 0.6465 0.0
C1717 C 0.36287 0.91399 0.62665 0.0
C1718 C 0.36656 0.35752 0.65966 0.0
C1719 C 0.36811 0.29592 0.65927 0.0
C1720 C 0.34821 0.16058 0.63984 0.0
C1721 C 0.3696 1.00866 0.64076 0.0
C1722 C 0.36719 0.07385 0.64185 0.0
C1723 C 0.36001 0.26282 0.6455 0.0
C1724 C 0.3624 0.19764 0.64449 0.0
H1725 H 0.38922 0.8954 0.66348 0.0
H1726 H 0.38636 1.00274 0.66442 0.0
H1727 H 0.33927 0.07212 0.63526 0.0
H1728 H 0.34103 0.37606 0.62224 0.0
H1729 H 0.34373 0.26863 0.6215 0.0
C1730 C 0.61618 0.68062 0.65354 0.0
C1731 C 0.62582 0.6508 0.64017 0.0
C1732 C 0.61451 0.74221 0.65303 0.0
C1733 C 0.61702 0.86808 0.62127 0.0
H1734 H 0.61789 0.96238 0.66488 0.0
C1735 C 0.61813 0.12419 0.62044 0.0
C1736 C 0.60829 0.15375 0.63371 0.0
C1737 C 0.6199 0.06263 0.62094 0.0
C1738 C 0.61739 0.93663 0.65259 0.0
H1739 H 0.64169 0.66184 0.61611 0.0
H1740 H 0.63903 0.76935 0.61535 0.0
H1741 H 0.62245 0.85591 0.66674 0.0
H1742 H 0.5922 0.14227 0.65761 0.0
H1743 H 0.59506 0.03481 0.65836 0.0
H1744 H 0.61198 0.94883 0.60712 0.0
C1745 C 0.63249 0.74527 0.62606 0.0
C1746 C 0.62003 0.87554 0.65366 0.0
C1747 C 0.63415 0.68372 0.62657 0.0
C1748 C 0.59988 0.12059 0.64721 0.0
C1749 C 0.60165 0.05909 0.64773 0.0
C1750 C 0.61439 0.92918 0.6202 0.0
C1751 C 0.62244 0.77525 0.63913 0.0
C1752 C 0.61988 0.84046 0.63802 0.0
C1753 C 0.61188 0.02938 0.63474 0.0
C1754 C 0.61452 0.96423 0.63585 0.0
H1755 H 0.60955 0.65626 0.66414 0.0
H1756 H 0.60654 0.76371 0.66323 0.0
H1757 H 0.6165 0.84234 0.60898 0.0
H1758 H 0.62482 0.14873 0.60993 0.0
H1759 H 0.62799 0.0413 0.61081 0.0
loop_
_geom_bond_atom_site_label_1
_geom_bond_atom_site_label_2
_geom_bond_distance
_geom_bond_site_symmetry_2
_ccdc_geom_bond_type
Dy0 O4 2.398 1_545 S
Dy0 O5 2.491 1_545 S
Dy0 O6 2.403 . S
Dy0 O7 2.664 . S
Dy0 O11 2.326 . S
Dy0 O15 2.310 . S
Dy0 O16 2.351 . S
C1 O12 1.185 . S
C1 O13 1.355 . S
C2 O4 1.185 . S
C2 O5 1.355 . S
Dy3 O7 2.310 . S
Dy3 O10 2.351 . S
Dy3 O12 2.398 . S
Dy3 O13 2.491 . S
Dy3 O14 2.403 . S
Dy3 O15 2.664 . S
Dy3 O17 2.326 . S
O4 Dy0 2.398 1_565 S
O4 C2 1.185 . S
O5 Dy0 2.491 1_565 S
O5 C2 1.355 . S
O6 Dy0 2.403 . S
O6 C8 1.254 . S
O7 Dy0 2.664 . S
O7 Dy3 2.310 . S
O7 C8 1.268 . S
C8 O6 1.254 . S
C8 O7 1.268 . S
C9 O14 1.254 . S
C9 O15 1.268 . S
O10 Dy3 2.351 . S
O10 C18 1.249 . S
O11 Dy0 2.326 . S
O11 C18 1.267 . S
O12 C1 1.185 . S
O12 Dy3 2.398 . S
O13 C1 1.355 . S
O13 Dy3 2.491 . S
O14 Dy3 2.403 . S
O14 C9 1.254 . S
O15 Dy0 2.310 . S
O15 Dy3 2.664 . S
O15 C9 1.268 . S
O16 Dy0 2.351 . S
O16 C19 1.249 . S
O17 Dy3 2.326 . S
O17 C19 1.267 . S
C18 O10 1.249 . S
C18 O11 1.267 . S
C19 O16 1.249 . S
C19 O17 1.267 . S
Dy20 O24 2.398 1_565 S
Dy20 O25 2.491 1_565 S
Dy20 O26 2.403 . S
Dy20 O27 2.664 . S
Dy20 O31 2.326 . S
Dy20 O35 2.310 . S
Dy20 O36 2.351 . S
C21 O32 1.185 . S
C21 O33 1.355 . S
C22 O24 1.185 . S
C22 O25 1.355 . S
Dy23 O27 2.310 . S
Dy23 O30 2.351 . S
Dy23 O32 2.398 . S
Dy23 O33 2.491 . S
Dy23 O34 2.403 . S
Dy23 O35 2.664 . S
Dy23 O37 2.326 . S
O24 Dy20 2.398 1_545 S
O24 C22 1.185 . S
O25 Dy20 2.491 1_545 S
O25 C22 1.355 . S
O26 Dy20 2.403 . S
O26 C28 1.254 . S
O27 Dy20 2.664 . S
O27 Dy23 2.310 . S
O27 C28 1.268 . S
C28 O26 1.254 . S
C28 O27 1.268 . S
C29 O34 1.254 . S
C29 O35 1.268 . S
O30 Dy23 2.351 . S
O30 C38 1.249 . S
O31 Dy20 2.326 . S
O31 C38 1.267 . S
O32 C21 1.185 . S
O32 Dy23 2.398 . S
O33 C21 1.355 . S
O33 Dy23 2.491 . S
O34 Dy23 2.403 . S
O34 C29 1.254 . S
O35 Dy20 2.310 . S
O35 Dy23 2.664 . S
O35 C29 1.268 . S
O36 Dy20 2.351 . S
O36 C39 1.249 . S
O37 Dy23 2.326 . S
O37 C39 1.267 . S
C38 O30 1.249 . S
C38 O31 1.267 . S
C39 O36 1.249 . S
C39 O37 1.267 . S
Dy40 O44 2.398 1_565 S
Dy40 O45 2.491 1_565 S
Dy40 O46 2.403 . S
Dy40 O47 2.664 . S
Dy40 O51 2.326 . S
Dy40 O55 2.310 . S
Dy40 O56 2.351 . S
C41 O52 1.185 . S
C41 O53 1.355 . S
C42 O44 1.185 . S
C42 O45 1.355 . S
Dy43 O47 2.310 . S
Dy43 O50 2.351 . S
Dy43 O52 2.398 . S
Dy43 O53 2.491 . S
Dy43 O54 2.403 . S
Dy43 O55 2.664 . S
Dy43 O57 2.326 . S
O44 Dy40 2.398 1_545 S
O44 C42 1.185 . S
O45 Dy40 2.491 1_545 S
O45 C42 1.355 . S
O46 Dy40 2.403 . S
O46 C48 1.254 . S
O47 Dy40 2.664 . S
O47 Dy43 2.310 . S
O47 C48 1.268 . S
C48 O46 1.254 . S
C48 O47 1.268 . S
C49 O54 1.254 . S
C49 O55 1.268 . S
O50 Dy43 2.351 . S
O50 C58 1.249 . S
O51 Dy40 2.326 . S
O51 C58 1.267 . S
O52 C41 1.185 . S
O52 Dy43 2.398 . S
O53 C41 1.355 . S
O53 Dy43 2.491 . S
O54 Dy43 2.403 . S
O54 C49 1.254 . S
O55 Dy40 2.310 . S
O55 Dy43 2.664 . S
O55 C49 1.268 . S
O56 Dy40 2.351 . S
O56 C59 1.249 . S
O57 Dy43 2.326 . S
O57 C59 1.267 . S
C58 O50 1.249 . S
C58 O51 1.267 . S
C59 O56 1.249 . S
C59 O57 1.267 . S
Dy60 O64 2.398 1_545 S
Dy60 O65 2.491 1_545 S
Dy60 O66 2.403 . S
Dy60 O67 2.664 . S
Dy60 O71 2.326 . S
Dy60 O75 2.310 . S
Dy60 O76 2.351 . S
C61 O72 1.185 . S
C61 O73 1.355 . S
C62 O64 1.185 . S
C62 O65 1.355 . S
Dy63 O67 2.310 . S
Dy63 O70 2.351 . S
Dy63 O72 2.398 . S
Dy63 O73 2.491 . S
Dy63 O74 2.403 . S
Dy63 O75 2.664 . S
Dy63 O77 2.326 . S
O64 Dy60 2.398 1_565 S
O64 C62 1.185 . S
O65 Dy60 2.491 1_565 S
O65 C62 1.355 . S
O66 Dy60 2.403 . S
O66 C68 1.254 . S
O67 Dy60 2.664 . S
O67 Dy63 2.310 . S
O67 C68 1.268 . S
C68 O66 1.254 . S
C68 O67 1.268 . S
C69 O74 1.254 . S
C69 O75 1.268 . S
O70 Dy63 2.351 . S
O70 C78 1.249 . S
O71 Dy60 2.326 . S
O71 C78 1.267 . S
O72 C61 1.185 . S
O72 Dy63 2.398 . S
O73 C61 1.355 . S
O73 Dy63 2.491 . S
O74 Dy63 2.403 . S
O74 C69 1.254 . S
O75 Dy60 2.310 . S
O75 Dy63 2.664 . S
O75 C69 1.268 . S
O76 Dy60 2.351 . S
O76 C79 1.249 . S
O77 Dy63 2.326 . S
O77 C79 1.267 . S
C78 O70 1.249 . S
C78 O71 1.267 . S
C79 O76 1.249 . S
C79 O77 1.267 . S
Dy80 O84 2.398 . S
Dy80 O85 2.491 . S
Dy80 O86 2.403 . S
Dy80 O87 2.664 . S
Dy80 O91 2.326 . S
Dy80 O95 2.310 . S
Dy80 O96 2.351 . S
C81 O92 1.185 . S
C81 O93 1.355 . S
C82 O84 1.185 . S
C82 O85 1.355 . S
Dy83 O87 2.310 . S
Dy83 O90 2.351 . S
Dy83 O92 2.398 1_565 S
Dy83 O93 2.491 1_565 S
Dy83 O94 2.403 . S
Dy83 O95 2.664 . S
Dy83 O97 2.326 . S
O84 Dy80 2.398 . S
O84 C82 1.185 . S
O85 Dy80 2.491 . S
O85 C82 1.355 . S
O86 Dy80 2.403 . S
O86 C88 1.254 . S
O87 Dy80 2.664 . S
O87 Dy83 2.310 . S
O87 C88 1.268 . S
C88 O86 1.254 . S
C88 O87 1.268 . S
C89 O94 1.254 . S
C89 O95 1.268 . S
O90 Dy83 2.351 . S
O90 C98 1.249 . S
O91 Dy80 2.326 . S
O91 C98 1.267 . S
O92 C81 1.185 . S
O92 Dy83 2.398 1_545 S
O93 C81 1.355 . S
O93 Dy83 2.491 1_545 S
O94 Dy83 2.403 . S
O94 C89 1.254 . S
O95 Dy80 2.310 . S
O95 Dy83 2.664 . S
O95 C89 1.268 . S
O96 Dy80 2.351 . S
O96 C99 1.249 . S
O97 Dy83 2.326 . S
O97 C99 1.267 . S
C98 O90 1.249 . S
C98 O91 1.267 . S
C99 O96 1.249 . S
C99 O97 1.267 . S
Dy100 O104 2.398 . S
Dy100 O105 2.491 . S
Dy100 O106 2.403 . S
Dy100 O107 2.664 . S
Dy100 O111 2.326 . S
Dy100 O115 2.310 . S
Dy100 O116 2.351 . S
C101 O112 1.185 . S
C101 O113 1.355 . S
C102 O104 1.185 . S
C102 O105 1.355 . S
Dy103 O107 2.310 . S
Dy103 O110 2.351 . S
Dy103 O112 2.398 1_545 S
Dy103 O113 2.491 1_545 S
Dy103 O114 2.403 . S
Dy103 O115 2.664 . S
Dy103 O117 2.326 . S
O104 Dy100 2.398 . S
O104 C102 1.185 . S
O105 Dy100 2.491 . S
O105 C102 1.355 . S
O106 Dy100 2.403 . S
O106 C108 1.254 . S
O107 Dy100 2.664 . S
O107 Dy103 2.310 . S
O107 C108 1.268 . S
C108 O106 1.254 . S
C108 O107 1.268 . S
C109 O114 1.254 . S
C109 O115 1.268 . S
O110 Dy103 2.351 . S
O110 C118 1.249 . S
O111 Dy100 2.326 . S
O111 C118 1.267 . S
O112 C101 1.185 . S
O112 Dy103 2.398 1_565 S
O113 C101 1.355 . S
O113 Dy103 2.491 1_565 S
O114 Dy103 2.403 . S
O114 C109 1.254 . S
O115 Dy100 2.310 . S
O115 Dy103 2.664 . S
O115 C109 1.268 . S
O116 Dy100 2.351 . S
O116 C119 1.249 . S
O117 Dy103 2.326 . S
O117 C119 1.267 . S
C118 O110 1.249 . S
C118 O111 1.267 . S
C119 O116 1.249 . S
C119 O117 1.267 . S
Dy120 O124 2.398 . S
Dy120 O125 2.491 . S
Dy120 O126 2.403 . S
Dy120 O127 2.664 . S
Dy120 O131 2.326 . S
Dy120 O135 2.310 . S
Dy120 O136 2.351 . S
C121 O132 1.185 . S
C121 O133 1.355 . S
C122 O124 1.185 . S
C122 O125 1.355 . S
Dy123 O127 2.310 . S
Dy123 O130 2.351 . S
Dy123 O132 2.398 1_545 S
Dy123 O133 2.491 1_545 S
Dy123 O134 2.403 . S
Dy123 O135 2.664 . S
Dy123 O137 2.326 . S
O124 Dy120 2.398 . S
O124 C122 1.185 . S
O125 Dy120 2.491 . S
O125 C122 1.355 . S
O126 Dy120 2.403 . S
O126 C128 1.254 . S
O127 Dy120 2.664 . S
O127 Dy123 2.310 . S
O127 C128 1.268 . S
C128 O126 1.254 . S
C128 O127 1.268 . S
C129 O134 1.254 . S
C129 O135 1.268 . S
O130 Dy123 2.351 . S
O130 C138 1.249 . S
O131 Dy120 2.326 . S
O131 C138 1.267 . S
O132 C121 1.185 . S
O132 Dy123 2.398 1_565 S
O133 C121 1.355 . S
O133 Dy123 2.491 1_565 S
O134 Dy123 2.403 . S
O134 C129 1.254 . S
O135 Dy120 2.310 . S
O135 Dy123 2.664 . S
O135 C129 1.268 . S
O136 Dy120 2.351 . S
O136 C139 1.249 . S
O137 Dy123 2.326 . S
O137 C139 1.267 . S
C138 O130 1.249 . S
C138 O131 1.267 . S
C139 O136 1.249 . S
C139 O137 1.267 . S
Dy140 O144 2.398 . S
Dy140 O145 2.491 . S
Dy140 O146 2.403 . S
Dy140 O147 2.664 . S
Dy140 O151 2.326 . S
Dy140 O155 2.310 . S
Dy140 O156 2.351 . S
C141 O152 1.185 . S
C141 O153 1.355 . S
C142 O144 1.185 . S
C142 O145 1.355 . S
Dy143 O147 2.310 . S
Dy143 O150 2.351 . S
Dy143 O152 2.398 1_565 S
Dy143 O153 2.491 1_565 S
Dy143 O154 2.403 . S
Dy143 O155 2.664 . S
Dy143 O157 2.326 . S
O144 Dy140 2.398 . S
O144 C142 1.185 . S
O145 Dy140 2.491 . S
O145 C142 1.355 . S
O146 Dy140 2.403 . S
O146 C148 1.254 . S
O147 Dy140 2.664 . S
O147 Dy143 2.310 . S
O147 C148 1.268 . S
C148 O146 1.254 . S
C148 O147 1.268 . S
C149 O154 1.254 . S
C149 O155 1.268 . S
O150 Dy143 2.351 . S
O150 C158 1.249 . S
O151 Dy140 2.326 . S
O151 C158 1.267 . S
O152 C141 1.185 . S
O152 Dy143 2.398 1_545 S
O153 C141 1.355 . S
O153 Dy143 2.491 1_545 S
O154 Dy143 2.403 . S
O154 C149 1.254 . S
O155 Dy140 2.310 . S
O155 Dy143 2.664 . S
O155 C149 1.268 . S
O156 Dy140 2.351 . S
O156 C159 1.249 . S
O157 Dy143 2.326 . S
O157 C159 1.267 . S
C158 O150 1.249 . S
C158 O151 1.267 . S
C159 O156 1.249 . S
C159 O157 1.267 . S
Dy160 O164 2.398 . S
Dy160 O165 2.491 . S
Dy160 O166 2.403 . S
Dy160 O167 2.664 . S
Dy160 O171 2.326 . S
Dy160 O175 2.310 . S
Dy160 O176 2.351 . S
C161 O172 1.185 . S
C161 O173 1.355 . S
C162 O164 1.185 . S
C162 O165 1.355 . S
Dy163 O167 2.310 . S
Dy163 O170 2.351 . S
Dy163 O172 2.398 . S
Dy163 O173 2.491 . S
Dy163 O174 2.403 . S
Dy163 O175 2.664 . S
Dy163 O177 2.326 . S
O164 Dy160 2.398 . S
O164 C162 1.185 . S
O165 Dy160 2.491 . S
O165 C162 1.355 . S
O166 Dy160 2.403 . S
O166 C168 1.254 . S
O167 Dy160 2.664 . S
O167 Dy163 2.310 . S
O167 C168 1.268 . S
C168 O166 1.254 . S
C168 O167 1.268 . S
C169 O174 1.254 . S
C169 O175 1.268 . S
O170 Dy163 2.351 . S
O170 C178 1.249 . S
O171 Dy160 2.326 . S
O171 C178 1.267 . S
O172 C161 1.185 . S
O172 Dy163 2.398 . S
O173 C161 1.355 . S
O173 Dy163 2.491 . S
O174 Dy163 2.403 . S
O174 C169 1.254 . S
O175 Dy160 2.310 . S
O175 Dy163 2.664 . S
O175 C169 1.268 . S
O176 Dy160 2.351 . S
O176 C179 1.249 . S
O177 Dy163 2.326 . S
O177 C179 1.267 . S
C178 O170 1.249 . S
C178 O171 1.267 . S
C179 O176 1.249 . S
C179 O177 1.267 . S
Dy180 O184 2.398 . S
Dy180 O185 2.491 . S
Dy180 O186 2.403 . S
Dy180 O187 2.664 . S
Dy180 O191 2.326 . S
Dy180 O195 2.310 . S
Dy180 O196 2.351 . S
C181 O192 1.185 . S
C181 O193 1.355 . S
C182 O184 1.185 . S
C182 O185 1.355 . S
Dy183 O187 2.310 . S
Dy183 O190 2.351 . S
Dy183 O192 2.398 . S
Dy183 O193 2.491 . S
Dy183 O194 2.403 . S
Dy183 O195 2.664 . S
Dy183 O197 2.326 . S
O184 Dy180 2.398 . S
O184 C182 1.185 . S
O185 Dy180 2.491 . S
O185 C182 1.355 . S
O186 Dy180 2.403 . S
O186 C188 1.254 . S
O187 Dy180 2.664 . S
O187 Dy183 2.310 . S
O187 C188 1.268 . S
C188 O186 1.254 . S
C188 O187 1.268 . S
C189 O194 1.254 . S
C189 O195 1.268 . S
O190 Dy183 2.351 . S
O190 C198 1.249 . S
O191 Dy180 2.326 . S
O191 C198 1.267 . S
O192 C181 1.185 . S
O192 Dy183 2.398 . S
O193 C181 1.355 . S
O193 Dy183 2.491 . S
O194 Dy183 2.403 . S
O194 C189 1.254 . S
O195 Dy180 2.310 . S
O195 Dy183 2.664 . S
O195 C189 1.268 . S
O196 Dy180 2.351 . S
O196 C199 1.249 . S
O197 Dy183 2.326 . S
O197 C199 1.267 . S
C198 O190 1.249 . S
C198 O191 1.267 . S
C199 O196 1.249 . S
C199 O197 1.267 . S
Dy200 O204 2.398 . S
Dy200 O205 2.491 . S
Dy200 O206 2.403 . S
Dy200 O207 2.664 . S
Dy200 O211 2.326 . S
Dy200 O215 2.310 . S
Dy200 O216 2.351 . S
C201 O212 1.185 . S
C201 O213 1.355 . S
C202 O204 1.185 . S
C202 O205 1.355 . S
Dy203 O207 2.310 . S
Dy203 O210 2.351 . S
Dy203 O212 2.398 . S
Dy203 O213 2.491 . S
Dy203 O214 2.403 . S
Dy203 O215 2.664 . S
Dy203 O217 2.326 . S
O204 Dy200 2.398 . S
O204 C202 1.185 . S
O205 Dy200 2.491 . S
O205 C202 1.355 . S
O206 Dy200 2.403 . S
O206 C208 1.254 . S
O207 Dy200 2.664 . S
O207 Dy203 2.310 . S
O207 C208 1.268 . S
C208 O206 1.254 . S
C208 O207 1.268 . S
C209 O214 1.254 . S
C209 O215 1.268 . S
O210 Dy203 2.351 . S
O210 C218 1.249 . S
O211 Dy200 2.326 . S
O211 C218 1.267 . S
O212 C201 1.185 . S
O212 Dy203 2.398 . S
O213 C201 1.355 . S
O213 Dy203 2.491 . S
O214 Dy203 2.403 . S
O214 C209 1.254 . S
O215 Dy200 2.310 . S
O215 Dy203 2.664 . S
O215 C209 1.268 . S
O216 Dy200 2.351 . S
O216 C219 1.249 . S
O217 Dy203 2.326 . S
O217 C219 1.267 . S
C218 O210 1.249 . S
C218 O211 1.267 . S
C219 O216 1.249 . S
C219 O217 1.267 . S
Dy220 O224 2.398 . S
Dy220 O225 2.491 . S
Dy220 O226 2.403 . S
Dy220 O227 2.664 . S
Dy220 O231 2.326 . S
Dy220 O235 2.310 . S
Dy220 O236 2.351 . S
C221 O232 1.185 . S
C221 O233 1.355 . S
C222 O224 1.185 . S
C222 O225 1.355 . S
Dy223 O227 2.310 . S
Dy223 O230 2.351 . S
Dy223 O232 2.398 . S
Dy223 O233 2.491 . S
Dy223 O234 2.403 . S
Dy223 O235 2.664 . S
Dy223 O237 2.326 . S
O224 Dy220 2.398 . S
O224 C222 1.185 . S
O225 Dy220 2.491 . S
O225 C222 1.355 . S
O226 Dy220 2.403 . S
O226 C228 1.254 . S
O227 Dy220 2.664 . S
O227 Dy223 2.310 . S
O227 C228 1.268 . S
C228 O226 1.254 . S
C228 O227 1.268 . S
C229 O234 1.254 . S
C229 O235 1.268 . S
O230 Dy223 2.351 . S
O230 C238 1.249 . S
O231 Dy220 2.326 . S
O231 C238 1.267 . S
O232 C221 1.185 . S
O232 Dy223 2.398 . S
O233 C221 1.355 . S
O233 Dy223 2.491 . S
O234 Dy223 2.403 . S
O234 C229 1.254 . S
O235 Dy220 2.310 . S
O235 Dy223 2.664 . S
O235 C229 1.268 . S
O236 Dy220 2.351 . S
O236 C239 1.249 . S
O237 Dy223 2.326 . S
O237 C239 1.267 . S
C238 O230 1.249 . S
C238 O231 1.267 . S
C239 O236 1.249 . S
C239 O237 1.267 . S
Dy240 O244 2.398 . S
Dy240 O245 2.491 . S
Dy240 O246 2.403 . S
Dy240 O247 2.664 . S
Dy240 O251 2.326 . S
Dy240 O255 2.310 . S
Dy240 O256 2.351 . S
C241 O252 1.185 . S
C241 O253 1.355 . S
C242 O244 1.185 . S
C242 O245 1.355 . S
Dy243 O247 2.310 . S
Dy243 O250 2.351 . S
Dy243 O252 2.398 . S
Dy243 O253 2.491 . S
Dy243 O254 2.403 . S
Dy243 O255 2.664 . S
Dy243 O257 2.326 . S
O244 Dy240 2.398 . S
O244 C242 1.185 . S
O245 Dy240 2.491 . S
O245 C242 1.355 . S
O246 Dy240 2.403 . S
O246 C248 1.254 . S
O247 Dy240 2.664 . S
O247 Dy243 2.310 . S
O247 C248 1.268 . S
C248 O246 1.254 . S
C248 O247 1.268 . S
C249 O254 1.254 . S
C249 O255 1.268 . S
O250 Dy243 2.351 . S
O250 C258 1.249 . S
O251 Dy240 2.326 . S
O251 C258 1.267 . S
O252 C241 1.185 . S
O252 Dy243 2.398 . S
O253 C241 1.355 . S
O253 Dy243 2.491 . S
O254 Dy243 2.403 . S
O254 C249 1.254 . S
O255 Dy240 2.310 . S
O255 Dy243 2.664 . S
O255 C249 1.268 . S
O256 Dy240 2.351 . S
O256 C259 1.249 . S
O257 Dy243 2.326 . S
O257 C259 1.267 . S
C258 O250 1.249 . S
C258 O251 1.267 . S
C259 O256 1.249 . S
C259 O257 1.267 . S
Dy260 O264 2.398 . S
Dy260 O265 2.491 . S
Dy260 O266 2.403 . S
Dy260 O267 2.664 . S
Dy260 O271 2.326 . S
Dy260 O275 2.310 . S
Dy260 O276 2.351 . S
C261 O272 1.185 . S
C261 O273 1.355 . S
C262 O264 1.185 . S
C262 O265 1.355 . S
Dy263 O267 2.310 . S
Dy263 O270 2.351 . S
Dy263 O272 2.398 . S
Dy263 O273 2.491 . S
Dy263 O274 2.403 . S
Dy263 O275 2.664 . S
Dy263 O277 2.326 . S
O264 Dy260 2.398 . S
O264 C262 1.185 . S
O265 Dy260 2.491 . S
O265 C262 1.355 . S
O266 Dy260 2.403 . S
O266 C268 1.254 . S
O267 Dy260 2.664 . S
O267 Dy263 2.310 . S
O267 C268 1.268 . S
C268 O266 1.254 . S
C268 O267 1.268 . S
C269 O274 1.254 . S
C269 O275 1.268 . S
O270 Dy263 2.351 . S
O270 C278 1.249 . S
O271 Dy260 2.326 . S
O271 C278 1.267 . S
O272 C261 1.185 . S
O272 Dy263 2.398 . S
O273 C261 1.355 . S
O273 Dy263 2.491 . S
O274 Dy263 2.403 . S
O274 C269 1.254 . S
O275 Dy260 2.310 . S
O275 Dy263 2.664 . S
O275 C269 1.268 . S
O276 Dy260 2.351 . S
O276 C279 1.249 . S
O277 Dy263 2.326 . S
O277 C279 1.267 . S
C278 O270 1.249 . S
C278 O271 1.267 . S
C279 O276 1.249 . S
C279 O277 1.267 . S
Dy280 O284 2.398 . S
Dy280 O285 2.491 . S
Dy280 O286 2.403 . S
Dy280 O287 2.664 . S
Dy280 O291 2.326 . S
Dy280 O295 2.310 . S
Dy280 O296 2.351 . S
C281 O292 1.185 . S
C281 O293 1.355 . S
C282 O284 1.185 . S
C282 O285 1.355 . S
Dy283 O287 2.310 . S
Dy283 O290 2.351 . S
Dy283 O292 2.398 . S
Dy283 O293 2.491 . S
Dy283 O294 2.403 . S
Dy283 O295 2.664 . S
Dy283 O297 2.326 . S
O284 Dy280 2.398 . S
O284 C282 1.185 . S
O285 Dy280 2.491 . S
O285 C282 1.355 . S
O286 Dy280 2.403 . S
O286 C288 1.254 . S
O287 Dy280 2.664 . S
O287 Dy283 2.310 . S
O287 C288 1.268 . S
C288 O286 1.254 . S
C288 O287 1.268 . S
C289 O294 1.254 . S
C289 O295 1.268 . S
O290 Dy283 2.351 . S
O290 C298 1.249 . S
O291 Dy280 2.326 . S
O291 C298 1.267 . S
O292 C281 1.185 . S
O292 Dy283 2.398 . S
O293 C281 1.355 . S
O293 Dy283 2.491 . S
O294 Dy283 2.403 . S
O294 C289 1.254 . S
O295 Dy280 2.310 . S
O295 Dy283 2.664 . S
O295 C289 1.268 . S
O296 Dy280 2.351 . S
O296 C299 1.249 . S
O297 Dy283 2.326 . S
O297 C299 1.267 . S
C298 O290 1.249 . S
C298 O291 1.267 . S
C299 O296 1.249 . S
C299 O297 1.267 . S
Dy300 O304 2.398 . S
Dy300 O305 2.491 . S
Dy300 O306 2.403 . S
Dy300 O307 2.664 . S
Dy300 O311 2.326 . S
Dy300 O315 2.310 . S
Dy300 O316 2.351 . S
C301 O312 1.185 . S
C301 O313 1.355 . S
C302 O304 1.185 . S
C302 O305 1.355 . S
Dy303 O307 2.310 . S
Dy303 O310 2.351 . S
Dy303 O312 2.398 . S
Dy303 O313 2.491 . S
Dy303 O314 2.403 . S
Dy303 O315 2.664 . S
Dy303 O317 2.326 . S
O304 Dy300 2.398 . S
O304 C302 1.185 . S
O305 Dy300 2.491 . S
O305 C302 1.355 . S
O306 Dy300 2.403 . S
O306 C308 1.254 . S
O307 Dy300 2.664 . S
O307 Dy303 2.310 . S
O307 C308 1.268 . S
C308 O306 1.254 . S
C308 O307 1.268 . S
C309 O314 1.254 . S
C309 O315 1.268 . S
O310 Dy303 2.351 . S
O310 C318 1.249 . S
O311 Dy300 2.326 . S
O311 C318 1.267 . S
O312 C301 1.185 . S
O312 Dy303 2.398 . S
O313 C301 1.355 . S
O313 Dy303 2.491 . S
O314 Dy303 2.403 . S
O314 C309 1.254 . S
O315 Dy300 2.310 . S
O315 Dy303 2.664 . S
O315 C309 1.268 . S
O316 Dy300 2.351 . S
O316 C319 1.249 . S
O317 Dy303 2.326 . S
O317 C319 1.267 . S
C318 O310 1.249 . S
C318 O311 1.267 . S
C319 O316 1.249 . S
C319 O317 1.267 . S
C320 C321 1.349 . S
C320 C322 1.327 . S
C320 H345 0.950 . S
C321 C320 1.349 . S
C321 C337 1.349 . S
C322 C320 1.327 . S
C322 C341 1.429 . S
C322 H346 0.950 . S
C323 C340 1.574 . S
C323 C342 1.368 . S
C323 H347 0.949 . S
H324 C328 0.949 . S
C325 C326 1.349 . S
C325 C327 1.327 . S
C325 H348 0.950 . S
C326 C325 1.349 . S
C326 C338 1.349 . S
C327 C325 1.327 . S
C327 C343 1.429 . S
C327 H349 0.950 . S
C328 H324 0.949 . S
C328 C336 1.574 . S
C328 C344 1.368 . S
H329 C337 0.950 . S
H330 C335 0.950 . S
H331 C336 0.949 . S
H332 C338 0.950 . S
H333 C339 0.950 . S
H334 C340 0.949 . S
C335 H330 0.950 . S
C335 C337 1.327 . S
C335 C341 1.429 . S
C336 C328 1.574 . S
C336 H331 0.949 . S
C336 C342 1.368 . S
C337 C321 1.349 . S
C337 H329 0.950 . S
C337 C335 1.327 . S
C338 C326 1.349 . S
C338 H332 0.950 . S
C338 C339 1.327 . S
C339 H333 0.950 . S
C339 C338 1.327 . S
C339 C343 1.429 . S
C340 C323 1.574 . S
C340 H334 0.949 . S
C340 C344 1.368 . S
C341 C322 1.429 . S
C341 C335 1.429 . S
C341 C342 1.523 . S
C342 C323 1.368 . S
C342 C336 1.368 . S
C342 C341 1.523 . S
C343 C327 1.429 . S
C343 C339 1.429 . S
C343 C344 1.523 . S
C344 C328 1.368 . S
C344 C340 1.368 . S
C344 C343 1.523 . S
H345 C320 0.950 . S
H346 C322 0.950 . S
H347 C323 0.949 . S
H348 C325 0.950 . S
H349 C327 0.950 . S
C350 C351 1.349 . S
C350 C352 1.327 . S
C350 H375 0.950 . S
C351 C350 1.349 . S
C351 C367 1.349 . S
C352 C350 1.327 . S
C352 C371 1.429 . S
C352 H376 0.950 . S
C353 C370 1.574 . S
C353 C372 1.368 . S
C353 H377 0.949 . S
H354 C358 0.949 . S
C355 C356 1.349 . S
C355 C357 1.327 . S
C355 H378 0.950 . S
C356 C355 1.349 . S
C356 C368 1.349 . S
C357 C355 1.327 . S
C357 C373 1.429 . S
C357 H379 0.950 . S
C358 H354 0.949 . S
C358 C366 1.574 . S
C358 C374 1.368 . S
H359 C367 0.950 . S
H360 C365 0.950 . S
H361 C366 0.949 . S
H362 C368 0.950 . S
H363 C369 0.950 . S
H364 C370 0.949 . S
C365 H360 0.950 . S
C365 C367 1.327 . S
C365 C371 1.429 . S
C366 C358 1.574 . S
C366 H361 0.949 . S
C366 C372 1.368 . S
C367 C351 1.349 . S
C367 H359 0.950 . S
C367 C365 1.327 . S
C368 C356 1.349 . S
C368 H362 0.950 . S
C368 C369 1.327 . S
C369 H363 0.950 . S
C369 C368 1.327 . S
C369 C373 1.429 . S
C370 C353 1.574 . S
C370 H364 0.949 . S
C370 C374 1.368 . S
C371 C352 1.429 . S
C371 C365 1.429 . S
C371 C372 1.523 . S
C372 C353 1.368 . S
C372 C366 1.368 . S
C372 C371 1.523 . S
C373 C357 1.429 . S
C373 C369 1.429 . S
C373 C374 1.523 . S
C374 C358 1.368 . S
C374 C370 1.368 . S
C374 C373 1.523 . S
H375 C350 0.950 . S
H376 C352 0.950 . S
H377 C353 0.949 . S
H378 C355 0.950 . S
H379 C357 0.950 . S
C380 C381 1.349 . S
C380 C382 1.327 . S
C380 H405 0.950 . S
C381 C380 1.349 . S
C381 C397 1.349 . S
C382 C380 1.327 . S
C382 C401 1.429 . S
C382 H406 0.950 . S
C383 C400 1.574 . S
C383 C402 1.368 . S
C383 H407 0.949 . S
H384 C388 0.949 . S
C385 C386 1.349 . S
C385 C387 1.327 . S
C385 H408 0.950 . S
C386 C385 1.349 . S
C386 C398 1.349 . S
C387 C385 1.327 . S
C387 C403 1.429 . S
C387 H409 0.950 . S
C388 H384 0.949 . S
C388 C396 1.574 . S
C388 C404 1.368 . S
H389 C397 0.950 . S
H390 C395 0.950 . S
H391 C396 0.949 . S
H392 C398 0.950 . S
H393 C399 0.950 . S
H394 C400 0.949 . S
C395 H390 0.950 . S
C395 C397 1.327 . S
C395 C401 1.429 . S
C396 C388 1.574 . S
C396 H391 0.949 . S
C396 C402 1.368 . S
C397 C381 1.349 . S
C397 H389 0.950 . S
C397 C395 1.327 . S
C398 C386 1.349 . S
C398 H392 0.950 . S
C398 C399 1.327 . S
C399 H393 0.950 . S
C399 C398 1.327 . S
C399 C403 1.429 . S
C400 C383 1.574 . S
C400 H394 0.949 . S
C400 C404 1.368 . S
C401 C382 1.429 . S
C401 C395 1.429 . S
C401 C402 1.523 . S
C402 C383 1.368 . S
C402 C396 1.368 . S
C402 C401 1.523 . S
C403 C387 1.429 . S
C403 C399 1.429 . S
C403 C404 1.523 . S
C404 C388 1.368 . S
C404 C400 1.368 . S
C404 C403 1.523 . S
H405 C380 0.950 . S
H406 C382 0.950 . S
H407 C383 0.949 . S
H408 C385 0.950 . S
H409 C387 0.950 . S
C410 C411 1.349 . S
C410 C412 1.327 . S
C410 H435 0.950 . S
C411 C410 1.349 . S
C411 C427 1.349 . S
C412 C410 1.327 . S
C412 C431 1.429 . S
C412 H436 0.950 . S
C413 C430 1.574 . S
C413 C432 1.368 . S
C413 H437 0.949 . S
H414 C418 0.949 . S
C415 C416 1.349 . S
C415 C417 1.327 . S
C415 H438 0.950 . S
C416 C415 1.349 . S
C416 C428 1.349 . S
C417 C415 1.327 . S
C417 C433 1.429 . S
C417 H439 0.950 . S
C418 H414 0.949 . S
C418 C426 1.574 . S
C418 C434 1.368 . S
H419 C427 0.950 . S
H420 C425 0.950 . S
H421 C426 0.949 . S
H422 C428 0.950 . S
H423 C429 0.950 . S
H424 C430 0.949 . S
C425 H420 0.950 . S
C425 C427 1.327 . S
C425 C431 1.429 . S
C426 C418 1.574 . S
C426 H421 0.949 . S
C426 C432 1.368 . S
C427 C411 1.349 . S
C427 H419 0.950 . S
C427 C425 1.327 . S
C428 C416 1.349 . S
C428 H422 0.950 . S
C428 C429 1.327 . S
C429 H423 0.950 . S
C429 C428 1.327 . S
C429 C433 1.429 . S
C430 C413 1.574 . S
C430 H424 0.949 . S
C430 C434 1.368 . S
C431 C412 1.429 . S
C431 C425 1.429 . S
C431 C432 1.523 . S
C432 C413 1.368 . S
C432 C426 1.368 . S
C432 C431 1.523 . S
C433 C417 1.429 . S
C433 C429 1.429 . S
C433 C434 1.523 . S
C434 C418 1.368 . S
C434 C430 1.368 . S
C434 C433 1.523 . S
H435 C410 0.950 . S
H436 C412 0.950 . S
H437 C413 0.949 . S
H438 C415 0.950 . S
H439 C417 0.950 . S
C440 C441 1.349 . S
C440 C442 1.327 . S
C440 H465 0.950 . S
C441 C440 1.349 . S
C441 C457 1.349 . S
C442 C440 1.327 . S
C442 C461 1.429 . S
C442 H466 0.950 . S
C443 C460 1.574 . S
C443 C462 1.368 . S
C443 H467 0.949 . S
H444 C448 0.949 . S
C445 C446 1.349 . S
C445 C447 1.327 . S
C445 H468 0.950 . S
C446 C445 1.349 . S
C446 C458 1.349 . S
C447 C445 1.327 . S
C447 C463 1.429 . S
C447 H469 0.950 . S
C448 H444 0.949 . S
C448 C456 1.574 . S
C448 C464 1.368 . S
H449 C457 0.950 . S
H450 C455 0.950 . S
H451 C456 0.949 . S
H452 C458 0.950 . S
H453 C459 0.950 . S
H454 C460 0.949 . S
C455 H450 0.950 . S
C455 C457 1.327 . S
C455 C461 1.429 . S
C456 C448 1.574 . S
C456 H451 0.949 . S
C456 C462 1.368 . S
C457 C441 1.349 . S
C457 H449 0.950 . S
C457 C455 1.327 . S
C458 C446 1.349 . S
C458 H452 0.950 . S
C458 C459 1.327 . S
C459 H453 0.950 . S
C459 C458 1.327 . S
C459 C463 1.429 . S
C460 C443 1.574 . S
C460 H454 0.949 . S
C460 C464 1.368 . S
C461 C442 1.429 . S
C461 C455 1.429 . S
C461 C462 1.523 . S
C462 C443 1.368 . S
C462 C456 1.368 . S
C462 C461 1.523 . S
C463 C447 1.429 . S
C463 C459 1.429 . S
C463 C464 1.523 . S
C464 C448 1.368 . S
C464 C460 1.368 . S
C464 C463 1.523 . S
H465 C440 0.950 . S
H466 C442 0.950 . S
H467 C443 0.949 . S
H468 C445 0.950 . S
H469 C447 0.950 . S
C470 C471 1.349 . S
C470 C472 1.327 . S
C470 H495 0.950 . S
C471 C470 1.349 . S
C471 C487 1.349 . S
C472 C470 1.327 . S
C472 C491 1.429 . S
C472 H496 0.950 . S
C473 C490 1.574 . S
C473 C492 1.368 . S
C473 H497 0.949 . S
H474 C478 0.949 . S
C475 C476 1.349 . S
C475 C477 1.327 . S
C475 H498 0.950 . S
C476 C475 1.349 . S
C476 C488 1.349 . S
C477 C475 1.327 . S
C477 C493 1.429 . S
C477 H499 0.950 . S
C478 H474 0.949 . S
C478 C486 1.574 . S
C478 C494 1.368 . S
H479 C487 0.950 . S
H480 C485 0.950 . S
H481 C486 0.949 . S
H482 C488 0.950 . S
H483 C489 0.950 . S
H484 C490 0.949 . S
C485 H480 0.950 . S
C485 C487 1.327 . S
C485 C491 1.429 . S
C486 C478 1.574 . S
C486 H481 0.949 . S
C486 C492 1.368 . S
C487 C471 1.349 . S
C487 H479 0.950 . S
C487 C485 1.327 . S
C488 C476 1.349 . S
C488 H482 0.950 . S
C488 C489 1.327 . S
C489 H483 0.950 . S
C489 C488 1.327 . S
C489 C493 1.429 . S
C490 C473 1.574 . S
C490 H484 0.949 . S
C490 C494 1.368 . S
C491 C472 1.429 . S
C491 C485 1.429 . S
C491 C492 1.523 . S
C492 C473 1.368 . S
C492 C486 1.368 . S
C492 C491 1.523 . S
C493 C477 1.429 . S
C493 C489 1.429 . S
C493 C494 1.523 . S
C494 C478 1.368 . S
C494 C490 1.368 . S
C494 C493 1.523 . S
H495 C470 0.950 . S
H496 C472 0.950 . S
H497 C473 0.949 . S
H498 C475 0.950 . S
H499 C477 0.950 . S
C500 C501 1.349 . S
C500 C502 1.327 . S
C500 H525 0.950 . S
C501 C500 1.349 . S
C501 C517 1.349 . S
C502 C500 1.327 . S
C502 C521 1.429 . S
C502 H526 0.950 . S
C503 C520 1.574 . S
C503 C522 1.368 . S
C503 H527 0.949 . S
H504 C508 0.949 . S
C505 C506 1.349 . S
C505 C507 1.327 . S
C505 H528 0.950 . S
C506 C505 1.349 . S
C506 C518 1.349 . S
C507 C505 1.327 . S
C507 C523 1.429 . S
C507 H529 0.950 . S
C508 H504 0.949 . S
C508 C516 1.574 . S
C508 C524 1.368 . S
H509 C517 0.950 . S
H510 C515 0.950 . S
H511 C516 0.949 . S
H512 C518 0.950 . S
H513 C519 0.950 . S
H514 C520 0.949 . S
C515 H510 0.950 . S
C515 C517 1.327 . S
C515 C521 1.429 . S
C516 C508 1.574 . S
C516 H511 0.949 . S
C516 C522 1.368 . S
C517 C501 1.349 . S
C517 H509 0.950 . S
C517 C515 1.327 . S
C518 C506 1.349 . S
C518 H512 0.950 . S
C518 C519 1.327 . S
C519 H513 0.950 . S
C519 C518 1.327 . S
C519 C523 1.429 . S
C520 C503 1.574 . S
C520 H514 0.949 . S
C520 C524 1.368 . S
C521 C502 1.429 . S
C521 C515 1.429 . S
C521 C522 1.523 . S
C522 C503 1.368 . S
C522 C516 1.368 . S
C522 C521 1.523 . S
C523 C507 1.429 . S
C523 C519 1.429 . S
C523 C524 1.523 . S
C524 C508 1.368 . S
C524 C520 1.368 . S
C524 C523 1.523 . S
H525 C500 0.950 . S
H526 C502 0.950 . S
H527 C503 0.949 . S
H528 C505 0.950 . S
H529 C507 0.950 . S
C530 C531 1.349 . S
C530 C532 1.327 . S
C530 H555 0.950 . S
C531 C530 1.349 . S
C531 C547 1.349 . S
C532 C530 1.327 . S
C532 C551 1.429 . S
C532 H556 0.950 . S
C533 C550 1.574 . S
C533 C552 1.368 . S
C533 H557 0.949 . S
H534 C538 0.949 . S
C535 C536 1.349 . S
C535 C537 1.327 . S
C535 H558 0.950 . S
C536 C535 1.349 . S
C536 C548 1.349 . S
C537 C535 1.327 . S
C537 C553 1.429 . S
C537 H559 0.950 . S
C538 H534 0.949 . S
C538 C546 1.574 . S
C538 C554 1.368 . S
H539 C547 0.950 . S
H540 C545 0.950 . S
H541 C546 0.949 . S
H542 C548 0.950 . S
H543 C549 0.950 . S
H544 C550 0.949 . S
C545 H540 0.950 . S
C545 C547 1.327 . S
C545 C551 1.429 . S
C546 C538 1.574 . S
C546 H541 0.949 . S
C546 C552 1.368 . S
C547 C531 1.349 . S
C547 H539 0.950 . S
C547 C545 1.327 . S
C548 C536 1.349 . S
C548 H542 0.950 . S
C548 C549 1.327 . S
C549 H543 0.950 . S
C549 C548 1.327 . S
C549 C553 1.429 . S
C550 C533 1.574 . S
C550 H544 0.949 . S
C550 C554 1.368 . S
C551 C532 1.429 . S
C551 C545 1.429 . S
C551 C552 1.523 . S
C552 C533 1.368 . S
C552 C546 1.368 . S
C552 C551 1.523 . S
C553 C537 1.429 . S
C553 C549 1.429 . S
C553 C554 1.523 . S
C554 C538 1.368 . S
C554 C550 1.368 . S
C554 C553 1.523 . S
H555 C530 0.950 . S
H556 C532 0.950 . S
H557 C533 0.949 . S
H558 C535 0.950 . S
H559 C537 0.950 . S
C560 C561 1.349 . S
C560 C562 1.327 . S
C560 H585 0.950 . S
C561 C560 1.349 . S
C561 C577 1.349 . S
C562 C560 1.327 . S
C562 C581 1.429 . S
C562 H586 0.950 . S
C563 C580 1.574 . S
C563 C582 1.368 1_545 S
C563 H587 0.949 . S
H564 C568 0.949 . S
C565 C566 1.349 . S
C565 C567 1.327 . S
C565 H588 0.950 . S
C566 C565 1.349 . S
C566 C578 1.349 . S
C567 C565 1.327 . S
C567 C583 1.429 . S
C567 H589 0.950 . S
C568 H564 0.949 . S
C568 C576 1.574 . S
C568 C584 1.368 1_565 S
H569 C577 0.950 . S
H570 C575 0.950 1_545 S
H571 C576 0.949 . S
H572 C578 0.950 . S
H573 C579 0.950 1_565 S
H574 C580 0.949 . S
C575 H570 0.950 1_565 S
C575 C577 1.327 . S
C575 C581 1.429 . S
C576 C568 1.574 . S
C576 H571 0.949 . S
C576 C582 1.368 . S
C577 C561 1.349 . S
C577 H569 0.950 . S
C577 C575 1.327 . S
C578 C566 1.349 . S
C578 H572 0.950 . S
C578 C579 1.327 . S
C579 H573 0.950 1_545 S
C579 C578 1.327 . S
C579 C583 1.429 . S
C580 C563 1.574 . S
C580 H574 0.949 . S
C580 C584 1.368 . S
C581 C562 1.429 . S
C581 C575 1.429 . S
C581 C582 1.523 . S
C582 C563 1.368 1_565 S
C582 C576 1.368 . S
C582 C581 1.523 . S
C583 C567 1.429 . S
C583 C579 1.429 . S
C583 C584 1.523 . S
C584 C568 1.368 1_545 S
C584 C580 1.368 . S
C584 C583 1.523 . S
H585 C560 0.950 . S
H586 C562 0.950 . S
H587 C563 0.949 . S
H588 C565 0.950 . S
H589 C567 0.950 . S
C590 C591 1.349 . S
C590 C592 1.327 . S
C590 H615 0.950 . S
C591 C590 1.349 . S
C591 C607 1.349 . S
C592 C590 1.327 . S
C592 C611 1.429 . S
C592 H616 0.950 . S
C593 C610 1.574 1_545 S
C593 C612 1.368 . S
C593 H617 0.949 . S
H594 C598 0.949 . S
C595 C596 1.349 . S
C595 C597 1.327 . S
C595 H618 0.950 . S
C596 C595 1.349 . S
C596 C608 1.349 . S
C597 C595 1.327 . S
C597 C613 1.429 . S
C597 H619 0.950 . S
C598 H594 0.949 . S
C598 C606 1.574 1_565 S
C598 C614 1.368 . S
H599 C607 0.950 . S
H600 C605 0.950 . S
H601 C606 0.949 . S
H602 C608 0.950 . S
H603 C609 0.950 . S
H604 C610 0.949 . S
C605 H600 0.950 . S
C605 C607 1.327 . S
C605 C611 1.429 . S
C606 C598 1.574 1_545 S
C606 H601 0.949 . S
C606 C612 1.368 . S
C607 C591 1.349 . S
C607 H599 0.950 . S
C607 C605 1.327 . S
C608 C596 1.349 . S
C608 H602 0.950 . S
C608 C609 1.327 . S
C609 H603 0.950 . S
C609 C608 1.327 . S
C609 C613 1.429 . S
C610 C593 1.574 1_565 S
C610 H604 0.949 . S
C610 C614 1.368 . S
C611 C592 1.429 . S
C611 C605 1.429 . S
C611 C612 1.523 . S
C612 C593 1.368 . S
C612 C606 1.368 . S
C612 C611 1.523 . S
C613 C597 1.429 . S
C613 C609 1.429 . S
C613 C614 1.523 . S
C614 C598 1.368 . S
C614 C610 1.368 . S
C614 C613 1.523 . S
H615 C590 0.950 . S
H616 C592 0.950 . S
H617 C593 0.949 . S
H618 C595 0.950 . S
H619 C597 0.950 . S
C620 C621 1.349 . S
C620 C622 1.327 . S
C620 H645 0.950 . S
C621 C620 1.349 . S
C621 C637 1.349 . S
C622 C620 1.327 . S
C622 C641 1.429 . S
C622 H646 0.950 . S
C623 C640 1.574 . S
C623 C642 1.368 1_565 S
C623 H647 0.949 . S
H624 C628 0.949 . S
C625 C626 1.349 . S
C625 C627 1.327 . S
C625 H648 0.950 . S
C626 C625 1.349 . S
C626 C638 1.349 . S
C627 C625 1.327 . S
C627 C643 1.429 . S
C627 H649 0.950 . S
C628 H624 0.949 . S
C628 C636 1.574 . S
C628 C644 1.368 1_545 S
H629 C637 0.950 . S
H630 C635 0.939 1_565 S
H631 C636 0.949 . S
H632 C638 0.950 . S
H633 C639 0.939 1_545 S
H634 C640 0.949 . S
C635 H630 0.939 1_545 S
C635 C637 1.327 . S
C635 C641 1.429 . S
C636 C628 1.574 . S
C636 H631 0.949 . S
C636 C642 1.368 . S
C637 C621 1.349 . S
C637 H629 0.950 . S
C637 C635 1.327 . S
C638 C626 1.349 . S
C638 H632 0.950 . S
C638 C639 1.327 . S
C639 H633 0.939 1_565 S
C639 C638 1.327 . S
C639 C643 1.429 . S
C640 C623 1.574 . S
C640 H634 0.949 . S
C640 C644 1.368 . S
C641 C622 1.429 . S
C641 C635 1.429 . S
C641 C642 1.523 . S
C642 C623 1.368 1_545 S
C642 C636 1.368 . S
C642 C641 1.523 . S
C643 C627 1.429 . S
C643 C639 1.429 . S
C643 C644 1.523 . S
C644 C628 1.368 1_565 S
C644 C640 1.368 . S
C644 C643 1.523 . S
H645 C620 0.950 . S
H646 C622 0.950 . S
H647 C623 0.949 . S
H648 C625 0.950 . S
H649 C627 0.950 . S
C650 C651 1.349 . S
C650 C652 1.327 . S
C650 H675 0.950 . S
C651 C650 1.349 . S
C651 C667 1.349 . S
C652 C650 1.327 . S
C652 C671 1.429 . S
C652 H676 0.950 . S
C653 C670 1.574 . S
C653 C672 1.368 1_565 S
C653 H677 0.949 . S
H654 C658 0.949 . S
C655 C656 1.349 . S
C655 C657 1.327 . S
C655 H678 0.950 . S
C656 C655 1.349 . S
C656 C668 1.349 . S
C657 C655 1.327 . S
C657 C673 1.429 . S
C657 H679 0.950 . S
C658 H654 0.949 . S
C658 C666 1.574 . S
C658 C674 1.368 1_545 S
H659 C667 0.950 . S
H660 C665 0.950 1_565 S
H661 C666 0.949 . S
H662 C668 0.950 . S
H663 C669 0.950 1_545 S
H664 C670 0.949 . S
C665 H660 0.950 1_545 S
C665 C667 1.327 . S
C665 C671 1.429 . S
C666 C658 1.574 . S
C666 H661 0.949 . S
C666 C672 1.368 . S
C667 C651 1.349 . S
C667 H659 0.950 . S
C667 C665 1.327 . S
C668 C656 1.349 . S
C668 H662 0.950 . S
C668 C669 1.327 . S
C669 H663 0.950 1_565 S
C669 C668 1.327 . S
C669 C673 1.429 . S
C670 C653 1.574 . S
C670 H664 0.949 . S
C670 C674 1.368 . S
C671 C652 1.429 . S
C671 C665 1.429 . S
C671 C672 1.523 . S
C672 C653 1.368 1_545 S
C672 C666 1.368 . S
C672 C671 1.523 . S
C673 C657 1.429 . S
C673 C669 1.429 . S
C673 C674 1.523 . S
C674 C658 1.368 1_565 S
C674 C670 1.368 . S
C674 C673 1.523 . S
H675 C650 0.950 . S
H676 C652 0.950 . S
H677 C653 0.949 . S
H678 C655 0.950 . S
H679 C657 0.950 . S
C680 C681 1.349 . S
C680 C682 1.327 . S
C680 H705 0.950 . S
C681 C680 1.349 . S
C681 C697 1.349 . S
C682 C680 1.327 . S
C682 C701 1.429 . S
C682 H706 0.950 . S
C683 C700 1.574 . S
C683 C702 1.368 . S
C683 H707 0.949 . S
H684 C688 0.949 . S
C685 C686 1.349 . S
C685 C687 1.327 . S
C685 H708 0.950 . S
C686 C685 1.349 . S
C686 C698 1.349 . S
C687 C685 1.327 . S
C687 C703 1.429 . S
C687 H709 0.950 . S
C688 H684 0.949 . S
C688 C696 1.574 . S
C688 C704 1.368 . S
H689 C697 0.950 . S
H690 C695 0.950 . S
H691 C696 0.949 . S
H692 C698 0.950 . S
H693 C699 0.950 . S
H694 C700 0.949 . S
C695 H690 0.950 . S
C695 C697 1.327 . S
C695 C701 1.429 . S
C696 C688 1.574 . S
C696 H691 0.949 . S
C696 C702 1.368 . S
C697 C681 1.349 . S
C697 H689 0.950 . S
C697 C695 1.327 . S
C698 C686 1.349 . S
C698 H692 0.950 . S
C698 C699 1.327 . S
C699 H693 0.950 . S
C699 C698 1.327 . S
C699 C703 1.429 . S
C700 C683 1.574 . S
C700 H694 0.949 . S
C700 C704 1.368 . S
C701 C682 1.429 . S
C701 C695 1.429 . S
C701 C702 1.523 . S
C702 C683 1.368 . S
C702 C696 1.368 . S
C702 C701 1.523 . S
C703 C687 1.429 . S
C703 C699 1.429 . S
C703 C704 1.523 . S
C704 C688 1.368 . S
C704 C700 1.368 . S
C704 C703 1.523 . S
H705 C680 0.950 . S
H706 C682 0.950 . S
H707 C683 0.949 . S
H708 C685 0.950 . S
H709 C687 0.950 . S
C710 C711 1.349 . S
C710 C712 1.327 . S
C710 H735 0.950 . S
C711 C710 1.349 . S
C711 C727 1.349 . S
C712 C710 1.327 . S
C712 C731 1.429 . S
C712 H736 0.950 . S
C713 C730 1.574 . S
C713 C732 1.368 . S
C713 H737 0.949 . S
H714 C718 0.949 . S
C715 C716 1.349 . S
C715 C717 1.327 . S
C715 H738 0.950 . S
C716 C715 1.349 . S
C716 C728 1.349 . S
C717 C715 1.327 . S
C717 C733 1.429 . S
C717 H739 0.950 . S
C718 H714 0.949 . S
C718 C726 1.574 . S
C718 C734 1.368 . S
H719 C727 0.950 . S
H720 C725 0.950 . S
H721 C726 0.949 . S
H722 C728 0.950 . S
H723 C729 0.950 . S
H724 C730 0.949 . S
C725 H720 0.950 . S
C725 C727 1.327 . S
C725 C731 1.429 . S
C726 C718 1.574 . S
C726 H721 0.949 . S
C726 C732 1.368 . S
C727 C711 1.349 . S
C727 H719 0.950 . S
C727 C725 1.327 . S
C728 C716 1.349 . S
C728 H722 0.950 . S
C728 C729 1.327 . S
C729 H723 0.950 . S
C729 C728 1.327 . S
C729 C733 1.429 . S
C730 C713 1.574 . S
C730 H724 0.949 . S
C730 C734 1.368 . S
C731 C712 1.429 . S
C731 C725 1.429 . S
C731 C732 1.523 . S
C732 C713 1.368 . S
C732 C726 1.368 . S
C732 C731 1.523 . S
C733 C717 1.429 . S
C733 C729 1.429 . S
C733 C734 1.523 . S
C734 C718 1.368 . S
C734 C730 1.368 . S
C734 C733 1.523 . S
H735 C710 0.950 . S
H736 C712 0.950 . S
H737 C713 0.949 . S
H738 C715 0.950 . S
H739 C717 0.950 . S
C740 C741 1.349 . S
C740 C742 1.327 . S
C740 H765 0.950 . S
C741 C740 1.349 . S
C741 C757 1.349 . S
C742 C740 1.327 . S
C742 C761 1.429 . S
C742 H766 0.950 . S
C743 C760 1.574 . S
C743 C762 1.368 . S
C743 H767 0.949 . S
H744 C748 0.949 . S
C745 C746 1.349 . S
C745 C747 1.327 . S
C745 H768 0.950 . S
C746 C745 1.349 . S
C746 C758 1.349 . S
C747 C745 1.327 . S
C747 C763 1.429 . S
C747 H769 0.950 . S
C748 H744 0.949 . S
C748 C756 1.574 . S
C748 C764 1.368 . S
H749 C757 0.950 . S
H750 C755 0.950 . S
H751 C756 0.949 . S
H752 C758 0.950 . S
H753 C759 0.950 . S
H754 C760 0.949 . S
C755 H750 0.950 . S
C755 C757 1.327 . S
C755 C761 1.429 . S
C756 C748 1.574 . S
C756 H751 0.949 . S
C756 C762 1.368 . S
C757 C741 1.349 . S
C757 H749 0.950 . S
C757 C755 1.327 . S
C758 C746 1.349 . S
C758 H752 0.950 . S
C758 C759 1.327 . S
C759 H753 0.950 . S
C759 C758 1.327 . S
C759 C763 1.429 . S
C760 C743 1.574 . S
C760 H754 0.949 . S
C760 C764 1.368 . S
C761 C742 1.429 . S
C761 C755 1.429 . S
C761 C762 1.523 . S
C762 C743 1.368 . S
C762 C756 1.368 . S
C762 C761 1.523 . S
C763 C747 1.429 . S
C763 C759 1.429 . S
C763 C764 1.523 . S
C764 C748 1.368 . S
C764 C760 1.368 . S
C764 C763 1.523 . S
H765 C740 0.950 . S
H766 C742 0.950 . S
H767 C743 0.949 . S
H768 C745 0.950 . S
H769 C747 0.950 . S
C770 C771 1.349 . S
C770 C772 1.327 . S
C770 H795 0.950 . S
C771 C770 1.349 . S
C771 C787 1.349 . S
C772 C770 1.327 . S
C772 C791 1.429 . S
C772 H796 0.950 . S
C773 C790 1.574 . S
C773 C792 1.368 . S
C773 H797 0.949 . S
H774 C778 0.949 . S
C775 C776 1.349 . S
C775 C777 1.327 . S
C775 H798 0.950 . S
C776 C775 1.349 . S
C776 C788 1.349 . S
C777 C775 1.327 . S
C777 C793 1.429 . S
C777 H799 0.950 . S
C778 H774 0.949 . S
C778 C786 1.574 . S
C778 C794 1.368 . S
H779 C787 0.950 . S
H780 C785 0.950 . S
H781 C786 0.949 . S
H782 C788 0.950 . S
H783 C789 0.950 . S
H784 C790 0.949 . S
C785 H780 0.950 . S
C785 C787 1.327 . S
C785 C791 1.429 . S
C786 C778 1.574 . S
C786 H781 0.949 . S
C786 C792 1.368 . S
C787 C771 1.349 . S
C787 H779 0.950 . S
C787 C785 1.327 . S
C788 C776 1.349 . S
C788 H782 0.950 . S
C788 C789 1.327 . S
C789 H783 0.950 . S
C789 C788 1.327 . S
C789 C793 1.429 . S
C790 C773 1.574 . S
C790 H784 0.949 . S
C790 C794 1.368 . S
C791 C772 1.429 . S
C791 C785 1.429 . S
C791 C792 1.523 . S
C792 C773 1.368 . S
C792 C786 1.368 . S
C792 C791 1.523 . S
C793 C777 1.429 . S
C793 C789 1.429 . S
C793 C794 1.523 . S
C794 C778 1.368 . S
C794 C790 1.368 . S
C794 C793 1.523 . S
H795 C770 0.950 . S
H796 C772 0.950 . S
H797 C773 0.949 . S
H798 C775 0.950 . S
H799 C777 0.950 . S
C800 C801 1.349 . S
C800 C802 1.327 . S
C800 H825 0.950 . S
C801 C800 1.349 . S
C801 C817 1.349 . S
C802 C800 1.327 . S
C802 C821 1.429 . S
C802 H826 0.950 . S
C803 C820 1.574 1_556 S
C803 C822 1.368 . S
C803 H827 0.949 . S
H804 C808 0.949 . S
C805 C806 1.349 . S
C805 C807 1.327 . S
C805 H828 0.950 . S
C806 C805 1.349 . S
C806 C818 1.349 . S
C807 C805 1.327 . S
C807 C823 1.429 . S
C807 H829 0.950 . S
C808 H804 0.949 . S
C808 C816 1.574 1_554 S
C808 C824 1.368 . S
H809 C817 0.950 . S
H810 C815 0.950 . S
H811 C816 0.949 . S
H812 C818 0.950 . S
H813 C819 0.950 . S
H814 C820 0.949 . S
C815 H810 0.950 . S
C815 C817 1.327 . S
C815 C821 1.429 . S
C816 C808 1.574 1_556 S
C816 H811 0.949 . S
C816 C822 1.368 . S
C817 C801 1.349 . S
C817 H809 0.950 . S
C817 C815 1.327 . S
C818 C806 1.349 . S
C818 H812 0.950 . S
C818 C819 1.327 . S
C819 H813 0.950 . S
C819 C818 1.327 . S
C819 C823 1.429 . S
C820 C803 1.574 1_554 S
C820 H814 0.949 . S
C820 C824 1.368 . S
C821 C802 1.429 . S
C821 C815 1.429 . S
C821 C822 1.523 . S
C822 C803 1.368 . S
C822 C816 1.368 . S
C822 C821 1.523 . S
C823 C807 1.429 . S
C823 C819 1.429 . S
C823 C824 1.523 . S
C824 C808 1.368 . S
C824 C820 1.368 . S
C824 C823 1.523 . S
H825 C800 0.950 . S
H826 C802 0.950 . S
H827 C803 0.949 . S
H828 C805 0.950 . S
H829 C807 0.950 . S
C830 C831 1.349 . S
C830 C832 1.327 . S
C830 H855 0.950 . S
C831 C830 1.349 . S
C831 C847 1.349 . S
C832 C830 1.327 . S
C832 C851 1.429 . S
C832 H856 0.950 . S
C833 C850 1.574 1_556 S
C833 C852 1.368 . S
C833 H857 0.949 . S
H834 C838 0.949 . S
C835 C836 1.349 . S
C835 C837 1.327 . S
C835 H858 0.950 . S
C836 C835 1.349 . S
C836 C848 1.349 . S
C837 C835 1.327 . S
C837 C853 1.429 . S
C837 H859 0.950 . S
C838 H834 0.949 . S
C838 C846 1.574 1_554 S
C838 C854 1.368 . S
H839 C847 0.950 . S
H840 C845 0.950 . S
H841 C846 0.949 . S
H842 C848 0.950 . S
H843 C849 0.950 . S
H844 C850 0.949 . S
C845 H840 0.950 . S
C845 C847 1.327 . S
C845 C851 1.429 . S
C846 C838 1.574 1_556 S
C846 H841 0.949 . S
C846 C852 1.368 . S
C847 C831 1.349 . S
C847 H839 0.950 . S
C847 C845 1.327 . S
C848 C836 1.349 . S
C848 H842 0.950 . S
C848 C849 1.327 . S
C849 H843 0.950 . S
C849 C848 1.327 . S
C849 C853 1.429 . S
C850 C833 1.574 1_554 S
C850 H844 0.949 . S
C850 C854 1.368 . S
C851 C832 1.429 . S
C851 C845 1.429 . S
C851 C852 1.523 . S
C852 C833 1.368 . S
C852 C846 1.368 . S
C852 C851 1.523 . S
C853 C837 1.429 . S
C853 C849 1.429 . S
C853 C854 1.523 . S
C854 C838 1.368 . S
C854 C850 1.368 . S
C854 C853 1.523 . S
H855 C830 0.950 . S
H856 C832 0.950 . S
H857 C833 0.949 . S
H858 C835 0.950 . S
H859 C837 0.950 . S
C860 C861 1.349 . S
C860 C862 1.327 . S
C860 H885 0.950 . S
C861 C860 1.349 . S
C861 C877 1.349 . S
C862 C860 1.327 . S
C862 C881 1.429 . S
C862 H886 0.950 . S
C863 C880 1.574 . S
C863 C882 1.368 . S
C863 H887 0.949 . S
H864 C868 0.949 . S
C865 C866 1.349 . S
C865 C867 1.327 . S
C865 H888 0.950 . S
C866 C865 1.349 . S
C866 C878 1.349 . S
C867 C865 1.327 . S
C867 C883 1.429 . S
C867 H889 0.950 . S
C868 H864 0.949 . S
C868 C876 1.574 . S
C868 C884 1.368 . S
H869 C877 0.950 . S
H870 C875 0.950 . S
H871 C876 0.949 . S
H872 C878 0.950 . S
H873 C879 0.950 . S
H874 C880 0.949 . S
C875 H870 0.950 . S
C875 C877 1.327 . S
C875 C881 1.429 . S
C876 C868 1.574 . S
C876 H871 0.949 . S
C876 C882 1.368 . S
C877 C861 1.349 . S
C877 H869 0.950 . S
C877 C875 1.327 . S
C878 C866 1.349 . S
C878 H872 0.950 . S
C878 C879 1.327 . S
C879 H873 0.950 . S
C879 C878 1.327 . S
C879 C883 1.429 . S
C880 C863 1.574 . S
C880 H874 0.949 . S
C880 C884 1.368 . S
C881 C862 1.429 . S
C881 C875 1.429 . S
C881 C882 1.523 . S
C882 C863 1.368 . S
C882 C876 1.368 . S
C882 C881 1.523 . S
C883 C867 1.429 . S
C883 C879 1.429 . S
C883 C884 1.523 . S
C884 C868 1.368 . S
C884 C880 1.368 . S
C884 C883 1.523 . S
H885 C860 0.950 . S
H886 C862 0.950 . S
H887 C863 0.949 . S
H888 C865 0.950 . S
H889 C867 0.950 . S
C890 C891 1.349 . S
C890 C892 1.327 . S
C890 H915 0.950 . S
C891 C890 1.349 . S
C891 C907 1.349 . S
C892 C890 1.327 . S
C892 C911 1.429 . S
C892 H916 0.950 . S
C893 C910 1.574 . S
C893 C912 1.368 . S
C893 H917 0.949 . S
H894 C898 0.949 . S
C895 C896 1.349 . S
C895 C897 1.327 . S
C895 H918 0.950 . S
C896 C895 1.349 . S
C896 C908 1.349 . S
C897 C895 1.327 . S
C897 C913 1.429 . S
C897 H919 0.950 . S
C898 H894 0.949 . S
C898 C906 1.574 . S
C898 C914 1.368 . S
H899 C907 0.950 . S
H900 C905 0.950 . S
H901 C906 0.949 . S
H902 C908 0.950 . S
H903 C909 0.950 . S
H904 C910 0.949 . S
C905 H900 0.950 . S
C905 C907 1.327 . S
C905 C911 1.429 . S
C906 C898 1.574 . S
C906 H901 0.949 . S
C906 C912 1.368 . S
C907 C891 1.349 . S
C907 H899 0.950 . S
C907 C905 1.327 . S
C908 C896 1.349 . S
C908 H902 0.950 . S
C908 C909 1.327 . S
C909 H903 0.950 . S
C909 C908 1.327 . S
C909 C913 1.429 . S
C910 C893 1.574 . S
C910 H904 0.949 . S
C910 C914 1.368 . S
C911 C892 1.429 . S
C911 C905 1.429 . S
C911 C912 1.523 . S
C912 C893 1.368 . S
C912 C906 1.368 . S
C912 C911 1.523 . S
C913 C897 1.429 . S
C913 C909 1.429 . S
C913 C914 1.523 . S
C914 C898 1.368 . S
C914 C910 1.368 . S
C914 C913 1.523 . S
H915 C890 0.950 . S
H916 C892 0.950 . S
H917 C893 0.949 . S
H918 C895 0.950 . S
H919 C897 0.950 . S
C920 C921 1.349 . S
C920 C922 1.327 . S
C920 H945 0.950 . S
C921 C920 1.349 . S
C921 C937 1.349 . S
C922 C920 1.327 . S
C922 C941 1.429 . S
C922 H946 0.950 . S
C923 C940 1.574 1_554 S
C923 C942 1.368 . S
C923 H947 0.949 . S
H924 C928 0.949 . S
C925 C926 1.349 . S
C925 C927 1.327 . S
C925 H948 0.950 . S
C926 C925 1.349 . S
C926 C938 1.349 . S
C927 C925 1.327 . S
C927 C943 1.429 . S
C927 H949 0.950 . S
C928 H924 0.949 . S
C928 C936 1.574 1_556 S
C928 C944 1.368 . S
H929 C937 0.950 . S
H930 C935 0.950 . S
H931 C936 0.949 . S
H932 C938 0.950 . S
H933 C939 0.950 . S
H934 C940 0.949 . S
C935 H930 0.950 . S
C935 C937 1.327 . S
C935 C941 1.429 . S
C936 C928 1.574 1_554 S
C936 H931 0.949 . S
C936 C942 1.368 . S
C937 C921 1.349 . S
C937 H929 0.950 . S
C937 C935 1.327 . S
C938 C926 1.349 . S
C938 H932 0.950 . S
C938 C939 1.327 . S
C939 H933 0.950 . S
C939 C938 1.327 . S
C939 C943 1.429 . S
C940 C923 1.574 1_556 S
C940 H934 0.949 . S
C940 C944 1.368 . S
C941 C922 1.429 . S
C941 C935 1.429 . S
C941 C942 1.523 . S
C942 C923 1.368 . S
C942 C936 1.368 . S
C942 C941 1.523 . S
C943 C927 1.429 . S
C943 C939 1.429 . S
C943 C944 1.523 . S
C944 C928 1.368 . S
C944 C940 1.368 . S
C944 C943 1.523 . S
H945 C920 0.950 . S
H946 C922 0.950 . S
H947 C923 0.949 . S
H948 C925 0.950 . S
H949 C927 0.950 . S
C950 C951 1.349 . S
C950 C952 1.327 . S
C950 H975 0.950 . S
C951 C950 1.349 . S
C951 C967 1.349 . S
C952 C950 1.327 . S
C952 C971 1.429 . S
C952 H976 0.950 . S
C953 C970 1.574 1_556 S
C953 C972 1.368 . S
C953 H977 0.949 . S
H954 C958 0.949 . S
C955 C956 1.349 . S
C955 C957 1.327 . S
C955 H978 0.950 . S
C956 C955 1.349 . S
C956 C968 1.349 . S
C957 C955 1.327 . S
C957 C973 1.429 . S
C957 H979 0.950 . S
C958 H954 0.949 . S
C958 C966 1.574 1_554 S
C958 C974 1.368 . S
H959 C967 0.950 . S
H960 C965 0.950 . S
H961 C966 0.949 . S
H962 C968 0.950 . S
H963 C969 0.950 . S
H964 C970 0.949 . S
C965 H960 0.950 . S
C965 C967 1.327 . S
C965 C971 1.429 . S
C966 C958 1.574 1_556 S
C966 H961 0.949 . S
C966 C972 1.368 . S
C967 C951 1.349 . S
C967 H959 0.950 . S
C967 C965 1.327 . S
C968 C956 1.349 . S
C968 H962 0.950 . S
C968 C969 1.327 . S
C969 H963 0.950 . S
C969 C968 1.327 . S
C969 C973 1.429 . S
C970 C953 1.574 1_554 S
C970 H964 0.949 . S
C970 C974 1.368 . S
C971 C952 1.429 . S
C971 C965 1.429 . S
C971 C972 1.523 . S
C972 C953 1.368 . S
C972 C966 1.368 . S
C972 C971 1.523 . S
C973 C957 1.429 . S
C973 C969 1.429 . S
C973 C974 1.523 . S
C974 C958 1.368 . S
C974 C970 1.368 . S
C974 C973 1.523 . S
H975 C950 0.950 . S
H976 C952 0.950 . S
H977 C953 0.949 . S
H978 C955 0.950 . S
H979 C957 0.950 . S
C980 C981 1.349 . S
C980 C982 1.327 . S
C980 H1005 0.950 . S
C981 C980 1.349 . S
C981 C997 1.349 . S
C982 C980 1.327 . S
C982 C1001 1.429 . S
C982 H1006 0.950 . S
C983 C1000 1.574 . S
C983 C1002 1.368 . S
C983 H1007 0.949 . S
H984 C988 0.949 . S
C985 C986 1.349 . S
C985 C987 1.327 . S
C985 H1008 0.950 . S
C986 C985 1.349 . S
C986 C998 1.349 . S
C987 C985 1.327 . S
C987 C1003 1.429 . S
C987 H1009 0.950 . S
C988 H984 0.949 . S
C988 C996 1.574 . S
C988 C1004 1.368 . S
H989 C997 0.950 . S
H990 C995 0.950 . S
H991 C996 0.949 . S
H992 C998 0.950 . S
H993 C999 0.950 . S
H994 C1000 0.949 . S
C995 H990 0.950 . S
C995 C997 1.327 . S
C995 C1001 1.429 . S
C996 C988 1.574 . S
C996 H991 0.949 . S
C996 C1002 1.368 . S
C997 C981 1.349 . S
C997 H989 0.950 . S
C997 C995 1.327 . S
C998 C986 1.349 . S
C998 H992 0.950 . S
C998 C999 1.327 . S
C999 H993 0.950 . S
C999 C998 1.327 . S
C999 C1003 1.429 . S
C1000 C983 1.574 . S
C1000 H994 0.949 . S
C1000 C1004 1.368 . S
C1001 C982 1.429 . S
C1001 C995 1.429 . S
C1001 C1002 1.523 . S
C1002 C983 1.368 . S
C1002 C996 1.368 . S
C1002 C1001 1.523 . S
C1003 C987 1.429 . S
C1003 C999 1.429 . S
C1003 C1004 1.523 . S
C1004 C988 1.368 . S
C1004 C1000 1.368 . S
C1004 C1003 1.523 . S
H1005 C980 0.950 . S
H1006 C982 0.950 . S
H1007 C983 0.949 . S
H1008 C985 0.950 . S
H1009 C987 0.950 . S
C1010 C1011 1.349 . S
C1010 C1012 1.327 . S
C1010 H1035 0.950 . S
C1011 C1010 1.349 . S
C1011 C1027 1.349 . S
C1012 C1010 1.327 . S
C1012 C1031 1.429 . S
C1012 H1036 0.950 . S
C1013 C1030 1.574 . S
C1013 C1032 1.368 . S
C1013 H1037 0.949 . S
H1014 C1018 0.949 . S
C1015 C1016 1.349 . S
C1015 C1017 1.327 . S
C1015 H1038 0.950 . S
C1016 C1015 1.349 . S
C1016 C1028 1.349 . S
C1017 C1015 1.327 . S
C1017 C1033 1.429 . S
C1017 H1039 0.950 . S
C1018 H1014 0.949 . S
C1018 C1026 1.574 . S
C1018 C1034 1.368 . S
H1019 C1027 0.950 . S
H1020 C1025 0.950 . S
H1021 C1026 0.949 . S
H1022 C1028 0.950 . S
H1023 C1029 0.950 . S
H1024 C1030 0.949 . S
C1025 H1020 0.950 . S
C1025 C1027 1.327 . S
C1025 C1031 1.429 . S
C1026 C1018 1.574 . S
C1026 H1021 0.949 . S
C1026 C1032 1.368 . S
C1027 C1011 1.349 . S
C1027 H1019 0.950 . S
C1027 C1025 1.327 . S
C1028 C1016 1.349 . S
C1028 H1022 0.950 . S
C1028 C1029 1.327 . S
C1029 H1023 0.950 . S
C1029 C1028 1.327 . S
C1029 C1033 1.429 . S
C1030 C1013 1.574 . S
C1030 H1024 0.949 . S
C1030 C1034 1.368 . S
C1031 C1012 1.429 . S
C1031 C1025 1.429 . S
C1031 C1032 1.523 . S
C1032 C1013 1.368 . S
C1032 C1026 1.368 . S
C1032 C1031 1.523 . S
C1033 C1017 1.429 . S
C1033 C1029 1.429 . S
C1033 C1034 1.523 . S
C1034 C1018 1.368 . S
C1034 C1030 1.368 . S
C1034 C1033 1.523 . S
H1035 C1010 0.950 . S
H1036 C1012 0.950 . S
H1037 C1013 0.949 . S
H1038 C1015 0.950 . S
H1039 C1017 0.950 . S
C1040 C1041 1.349 1_545 S
C1040 C1042 1.327 . S
C1040 H1065 0.950 . S
C1041 C1040 1.349 1_565 S
C1041 C1057 1.349 . S
C1042 C1040 1.327 . S
C1042 C1061 1.429 1_545 S
C1042 H1066 0.950 . S
C1043 C1060 1.574 1_655 S
C1043 C1062 1.368 . S
C1043 H1067 0.949 . S
H1044 C1048 0.949 . S
C1045 C1046 1.349 1_565 S
C1045 C1047 1.327 . S
C1045 H1068 0.950 . S
C1046 C1045 1.349 1_545 S
C1046 C1058 1.349 . S
C1047 C1045 1.327 . S
C1047 C1063 1.429 1_565 S
C1047 H1069 0.950 . S
C1048 H1044 0.949 . S
C1048 C1056 1.574 1_455 S
C1048 C1064 1.368 . S
H1049 C1057 0.950 . S
H1050 C1055 0.950 . S
H1051 C1056 0.949 . S
H1052 C1058 0.950 . S
H1053 C1059 0.950 . S
H1054 C1060 0.949 . S
C1055 H1050 0.950 . S
C1055 C1057 1.327 . S
C1055 C1061 1.429 . S
C1056 C1048 1.574 1_655 S
C1056 H1051 0.949 . S
C1056 C1062 1.368 1_545 S
C1057 C1041 1.349 . S
C1057 H1049 0.950 . S
C1057 C1055 1.327 . S
C1058 C1046 1.349 . S
C1058 H1052 0.950 . S
C1058 C1059 1.327 . S
C1059 H1053 0.950 . S
C1059 C1058 1.327 . S
C1059 C1063 1.429 . S
C1060 C1043 1.574 1_455 S
C1060 H1054 0.949 . S
C1060 C1064 1.368 1_565 S
C1061 C1042 1.429 1_565 S
C1061 C1055 1.429 . S
C1061 C1062 1.523 . S
C1062 C1043 1.368 . S
C1062 C1056 1.368 1_565 S
C1062 C1061 1.523 . S
C1063 C1047 1.429 1_545 S
C1063 C1059 1.429 . S
C1063 C1064 1.523 . S
C1064 C1048 1.368 . S
C1064 C1060 1.368 1_545 S
C1064 C1063 1.523 . S
H1065 C1040 0.950 . S
H1066 C1042 0.950 . S
H1067 C1043 0.949 . S
H1068 C1045 0.950 . S
H1069 C1047 0.950 . S
C1070 C1071 1.349 1_565 S
C1070 C1072 1.327 . S
C1070 H1095 0.950 . S
C1071 C1070 1.349 1_545 S
C1071 C1087 1.349 . S
C1072 C1070 1.327 . S
C1072 C1091 1.429 1_565 S
C1072 H1096 0.950 . S
C1073 C1090 1.574 1_655 S
C1073 C1092 1.368 . S
C1073 H1097 0.949 . S
H1074 C1078 0.949 . S
C1075 C1076 1.349 1_545 S
C1075 C1077 1.327 . S
C1075 H1098 0.950 . S
C1076 C1075 1.349 1_565 S
C1076 C1088 1.349 . S
C1077 C1075 1.327 . S
C1077 C1093 1.429 1_545 S
C1077 H1099 0.950 . S
C1078 H1074 0.949 . S
C1078 C1086 1.574 1_455 S
C1078 C1094 1.368 . S
H1079 C1087 0.950 . S
H1080 C1085 0.950 . S
H1081 C1086 0.949 . S
H1082 C1088 0.950 . S
H1083 C1089 0.950 . S
H1084 C1090 0.949 . S
C1085 H1080 0.950 . S
C1085 C1087 1.327 . S
C1085 C1091 1.429 . S
C1086 C1078 1.574 1_655 S
C1086 H1081 0.949 . S
C1086 C1092 1.368 1_565 S
C1087 C1071 1.349 . S
C1087 H1079 0.950 . S
C1087 C1085 1.327 . S
C1088 C1076 1.349 . S
C1088 H1082 0.950 . S
C1088 C1089 1.327 . S
C1089 H1083 0.950 . S
C1089 C1088 1.327 . S
C1089 C1093 1.429 . S
C1090 C1073 1.574 1_455 S
C1090 H1084 0.949 . S
C1090 C1094 1.368 1_545 S
C1091 C1072 1.429 1_545 S
C1091 C1085 1.429 . S
C1091 C1092 1.523 . S
C1092 C1073 1.368 . S
C1092 C1086 1.368 1_545 S
C1092 C1091 1.523 . S
C1093 C1077 1.429 1_565 S
C1093 C1089 1.429 . S
C1093 C1094 1.523 . S
C1094 C1078 1.368 . S
C1094 C1090 1.368 1_565 S
C1094 C1093 1.523 . S
H1095 C1070 0.950 . S
H1096 C1072 0.950 . S
H1097 C1073 0.949 . S
H1098 C1075 0.950 . S
H1099 C1077 0.950 . S
C1100 C1101 1.349 . S
C1100 C1102 1.327 . S
C1100 H1125 0.950 . S
C1101 C1100 1.349 . S
C1101 C1117 1.349 1_545 S
C1102 C1100 1.327 . S
C1102 C1121 1.429 . S
C1102 H1126 0.950 . S
C1103 C1120 1.574 1_455 S
C1103 C1122 1.368 1_565 S
C1103 H1127 0.949 . S
H1104 C1108 0.949 . S
C1105 C1106 1.349 . S
C1105 C1107 1.327 . S
C1105 H1128 0.950 . S
C1106 C1105 1.349 . S
C1106 C1118 1.349 1_565 S
C1107 C1105 1.327 . S
C1107 C1123 1.429 . S
C1107 H1129 0.950 . S
C1108 H1104 0.949 . S
C1108 C1116 1.574 1_655 S
C1108 C1124 1.368 1_545 S
H1109 C1117 0.950 . S
H1110 C1115 0.950 . S
H1111 C1116 0.949 . S
H1112 C1118 0.950 . S
H1113 C1119 0.950 . S
H1114 C1120 0.949 . S
C1115 H1110 0.950 . S
C1115 C1117 1.327 . S
C1115 C1121 1.429 1_565 S
C1116 C1108 1.574 1_455 S
C1116 H1111 0.949 . S
C1116 C1122 1.368 . S
C1117 C1101 1.349 1_565 S
C1117 H1109 0.950 . S
C1117 C1115 1.327 . S
C1118 C1106 1.349 1_545 S
C1118 H1112 0.950 . S
C1118 C1119 1.327 . S
C1119 H1113 0.950 . S
C1119 C1118 1.327 . S
C1119 C1123 1.429 1_545 S
C1120 C1103 1.574 1_655 S
C1120 H1114 0.949 . S
C1120 C1124 1.368 . S
C1121 C1102 1.429 . S
C1121 C1115 1.429 1_545 S
C1121 C1122 1.523 . S
C1122 C1103 1.368 1_545 S
C1122 C1116 1.368 . S
C1122 C1121 1.523 . S
C1123 C1107 1.429 . S
C1123 C1119 1.429 1_565 S
C1123 C1124 1.523 . S
C1124 C1108 1.368 1_565 S
C1124 C1120 1.368 . S
C1124 C1123 1.523 . S
H1125 C1100 0.950 . S
H1126 C1102 0.950 . S
H1127 C1103 0.949 . S
H1128 C1105 0.950 . S
H1129 C1107 0.950 . S
C1130 C1131 1.349 . S
C1130 C1132 1.327 . S
C1130 H1155 0.950 . S
C1131 C1130 1.349 . S
C1131 C1147 1.349 1_545 S
C1132 C1130 1.327 . S
C1132 C1151 1.429 . S
C1132 H1156 0.950 . S
C1133 C1150 1.574 1_655 S
C1133 C1152 1.368 1_565 S
C1133 H1157 0.949 . S
H1134 C1138 0.949 . S
C1135 C1136 1.349 . S
C1135 C1137 1.327 . S
C1135 H1158 0.950 . S
C1136 C1135 1.349 . S
C1136 C1148 1.349 1_565 S
C1137 C1135 1.327 . S
C1137 C1153 1.429 . S
C1137 H1159 0.950 . S
C1138 H1134 0.949 . S
C1138 C1146 1.574 1_455 S
C1138 C1154 1.368 1_545 S
H1139 C1147 0.950 . S
H1140 C1145 0.950 . S
H1141 C1146 0.949 . S
H1142 C1148 0.950 . S
H1143 C1149 0.950 . S
H1144 C1150 0.949 . S
C1145 H1140 0.950 . S
C1145 C1147 1.327 . S
C1145 C1151 1.429 1_565 S
C1146 C1138 1.574 1_655 S
C1146 H1141 0.949 . S
C1146 C1152 1.368 . S
C1147 C1131 1.349 1_565 S
C1147 H1139 0.950 . S
C1147 C1145 1.327 . S
C1148 C1136 1.349 1_545 S
C1148 H1142 0.950 . S
C1148 C1149 1.327 . S
C1149 H1143 0.950 . S
C1149 C1148 1.327 . S
C1149 C1153 1.429 1_545 S
C1150 C1133 1.574 1_455 S
C1150 H1144 0.949 . S
C1150 C1154 1.368 . S
C1151 C1132 1.429 . S
C1151 C1145 1.429 1_545 S
C1151 C1152 1.523 . S
C1152 C1133 1.368 1_545 S
C1152 C1146 1.368 . S
C1152 C1151 1.523 . S
C1153 C1137 1.429 . S
C1153 C1149 1.429 1_565 S
C1153 C1154 1.523 . S
C1154 C1138 1.368 1_565 S
C1154 C1150 1.368 . S
C1154 C1153 1.523 . S
H1155 C1130 0.950 . S
H1156 C1132 0.950 . S
H1157 C1133 0.949 . S
H1158 C1135 0.950 . S
H1159 C1137 0.950 . S
C1160 C1161 1.349 . S
C1160 C1162 1.327 . S
C1160 H1185 0.950 . S
C1161 C1160 1.349 . S
C1161 C1177 1.349 . S
C1162 C1160 1.327 . S
C1162 C1181 1.429 . S
C1162 H1186 0.950 . S
C1163 C1180 1.574 . S
C1163 C1182 1.368 . S
C1163 H1187 0.949 . S
H1164 C1168 0.949 . S
C1165 C1166 1.349 . S
C1165 C1167 1.327 . S
C1165 H1188 0.950 . S
C1166 C1165 1.349 . S
C1166 C1178 1.349 . S
C1167 C1165 1.327 . S
C1167 C1183 1.429 . S
C1167 H1189 0.950 . S
C1168 H1164 0.949 . S
C1168 C1176 1.574 . S
C1168 C1184 1.368 . S
H1169 C1177 0.950 . S
H1170 C1175 0.950 . S
H1171 C1176 0.949 . S
H1172 C1178 0.950 . S
H1173 C1179 0.950 . S
H1174 C1180 0.949 . S
C1175 H1170 0.950 . S
C1175 C1177 1.327 . S
C1175 C1181 1.429 . S
C1176 C1168 1.574 . S
C1176 H1171 0.949 . S
C1176 C1182 1.368 . S
C1177 C1161 1.349 . S
C1177 H1169 0.950 . S
C1177 C1175 1.327 . S
C1178 C1166 1.349 . S
C1178 H1172 0.950 . S
C1178 C1179 1.327 . S
C1179 H1173 0.950 . S
C1179 C1178 1.327 . S
C1179 C1183 1.429 . S
C1180 C1163 1.574 . S
C1180 H1174 0.949 . S
C1180 C1184 1.368 . S
C1181 C1162 1.429 . S
C1181 C1175 1.429 . S
C1181 C1182 1.523 . S
C1182 C1163 1.368 . S
C1182 C1176 1.368 . S
C1182 C1181 1.523 . S
C1183 C1167 1.429 . S
C1183 C1179 1.429 . S
C1183 C1184 1.523 . S
C1184 C1168 1.368 . S
C1184 C1180 1.368 . S
C1184 C1183 1.523 . S
H1185 C1160 0.950 . S
H1186 C1162 0.950 . S
H1187 C1163 0.949 . S
H1188 C1165 0.950 . S
H1189 C1167 0.950 . S
C1190 C1191 1.349 . S
C1190 C1192 1.327 . S
C1190 H1215 0.950 . S
C1191 C1190 1.349 . S
C1191 C1207 1.349 . S
C1192 C1190 1.327 . S
C1192 C1211 1.429 . S
C1192 H1216 0.950 . S
C1193 C1210 1.574 . S
C1193 C1212 1.368 . S
C1193 H1217 0.949 . S
H1194 C1198 0.949 . S
C1195 C1196 1.349 . S
C1195 C1197 1.327 . S
C1195 H1218 0.950 . S
C1196 C1195 1.349 . S
C1196 C1208 1.349 . S
C1197 C1195 1.327 . S
C1197 C1213 1.429 . S
C1197 H1219 0.950 . S
C1198 H1194 0.949 . S
C1198 C1206 1.574 . S
C1198 C1214 1.368 . S
H1199 C1207 0.950 . S
H1200 C1205 0.950 . S
H1201 C1206 0.949 . S
H1202 C1208 0.950 . S
H1203 C1209 0.950 . S
H1204 C1210 0.949 . S
C1205 H1200 0.950 . S
C1205 C1207 1.327 . S
C1205 C1211 1.429 . S
C1206 C1198 1.574 . S
C1206 H1201 0.949 . S
C1206 C1212 1.368 . S
C1207 C1191 1.349 . S
C1207 H1199 0.950 . S
C1207 C1205 1.327 . S
C1208 C1196 1.349 . S
C1208 H1202 0.950 . S
C1208 C1209 1.327 . S
C1209 H1203 0.950 . S
C1209 C1208 1.327 . S
C1209 C1213 1.429 . S
C1210 C1193 1.574 . S
C1210 H1204 0.949 . S
C1210 C1214 1.368 . S
C1211 C1192 1.429 . S
C1211 C1205 1.429 . S
C1211 C1212 1.523 . S
C1212 C1193 1.368 . S
C1212 C1206 1.368 . S
C1212 C1211 1.523 . S
C1213 C1197 1.429 . S
C1213 C1209 1.429 . S
C1213 C1214 1.523 . S
C1214 C1198 1.368 . S
C1214 C1210 1.368 . S
C1214 C1213 1.523 . S
H1215 C1190 0.950 . S
H1216 C1192 0.950 . S
H1217 C1193 0.949 . S
H1218 C1195 0.950 . S
H1219 C1197 0.950 . S
C1220 C1221 1.349 . S
C1220 C1222 1.327 . S
C1220 H1245 0.950 . S
C1221 C1220 1.349 . S
C1221 C1237 1.349 . S
C1222 C1220 1.327 . S
C1222 C1241 1.429 . S
C1222 H1246 0.950 . S
C1223 C1240 1.574 . S
C1223 C1242 1.368 . S
C1223 H1247 0.949 . S
H1224 C1228 0.949 . S
C1225 C1226 1.349 . S
C1225 C1227 1.327 . S
C1225 H1248 0.950 . S
C1226 C1225 1.349 . S
C1226 C1238 1.349 . S
C1227 C1225 1.327 . S
C1227 C1243 1.429 . S
C1227 H1249 0.950 . S
C1228 H1224 0.949 . S
C1228 C1236 1.574 . S
C1228 C1244 1.368 . S
H1229 C1237 0.950 . S
H1230 C1235 0.950 . S
H1231 C1236 0.949 . S
H1232 C1238 0.950 . S
H1233 C1239 0.950 . S
H1234 C1240 0.949 . S
C1235 H1230 0.950 . S
C1235 C1237 1.327 . S
C1235 C1241 1.429 . S
C1236 C1228 1.574 . S
C1236 H1231 0.949 . S
C1236 C1242 1.368 . S
C1237 C1221 1.349 . S
C1237 H1229 0.950 . S
C1237 C1235 1.327 . S
C1238 C1226 1.349 . S
C1238 H1232 0.950 . S
C1238 C1239 1.327 . S
C1239 H1233 0.950 . S
C1239 C1238 1.327 . S
C1239 C1243 1.429 . S
C1240 C1223 1.574 . S
C1240 H1234 0.949 . S
C1240 C1244 1.368 . S
C1241 C1222 1.429 . S
C1241 C1235 1.429 . S
C1241 C1242 1.523 . S
C1242 C1223 1.368 . S
C1242 C1236 1.368 . S
C1242 C1241 1.523 . S
C1243 C1227 1.429 . S
C1243 C1239 1.429 . S
C1243 C1244 1.523 . S
C1244 C1228 1.368 . S
C1244 C1240 1.368 . S
C1244 C1243 1.523 . S
H1245 C1220 0.950 . S
H1246 C1222 0.950 . S
H1247 C1223 0.949 . S
H1248 C1225 0.950 . S
H1249 C1227 0.950 . S
C1250 C1251 1.349 . S
C1250 C1252 1.327 . S
C1250 H1275 0.950 . S
C1251 C1250 1.349 . S
C1251 C1267 1.349 . S
C1252 C1250 1.327 . S
C1252 C1271 1.429 . S
C1252 H1276 0.950 . S
C1253 C1270 1.574 . S
C1253 C1272 1.368 . S
C1253 H1277 0.949 . S
H1254 C1258 0.949 . S
C1255 C1256 1.349 . S
C1255 C1257 1.327 . S
C1255 H1278 0.950 . S
C1256 C1255 1.349 . S
C1256 C1268 1.349 . S
C1257 C1255 1.327 . S
C1257 C1273 1.429 . S
C1257 H1279 0.950 . S
C1258 H1254 0.949 . S
C1258 C1266 1.574 . S
C1258 C1274 1.368 . S
H1259 C1267 0.950 . S
H1260 C1265 0.950 . S
H1261 C1266 0.949 . S
H1262 C1268 0.950 . S
H1263 C1269 0.950 . S
H1264 C1270 0.949 . S
C1265 H1260 0.950 . S
C1265 C1267 1.327 . S
C1265 C1271 1.429 . S
C1266 C1258 1.574 . S
C1266 H1261 0.949 . S
C1266 C1272 1.368 . S
C1267 C1251 1.349 . S
C1267 H1259 0.950 . S
C1267 C1265 1.327 . S
C1268 C1256 1.349 . S
C1268 H1262 0.950 . S
C1268 C1269 1.327 . S
C1269 H1263 0.950 . S
C1269 C1268 1.327 . S
C1269 C1273 1.429 . S
C1270 C1253 1.574 . S
C1270 H1264 0.949 . S
C1270 C1274 1.368 . S
C1271 C1252 1.429 . S
C1271 C1265 1.429 . S
C1271 C1272 1.523 . S
C1272 C1253 1.368 . S
C1272 C1266 1.368 . S
C1272 C1271 1.523 . S
C1273 C1257 1.429 . S
C1273 C1269 1.429 . S
C1273 C1274 1.523 . S
C1274 C1258 1.368 . S
C1274 C1270 1.368 . S
C1274 C1273 1.523 . S
H1275 C1250 0.950 . S
H1276 C1252 0.950 . S
H1277 C1253 0.949 . S
H1278 C1255 0.950 . S
H1279 C1257 0.950 . S
C1280 C1281 1.349 . S
C1280 C1282 1.327 . S
C1280 H1305 0.950 . S
C1281 C1280 1.349 . S
C1281 C1297 1.349 . S
C1282 C1280 1.327 . S
C1282 C1301 1.429 . S
C1282 H1306 0.950 . S
C1283 C1300 1.574 . S
C1283 C1302 1.368 . S
C1283 H1307 0.949 . S
H1284 C1288 0.949 . S
C1285 C1286 1.349 . S
C1285 C1287 1.327 . S
C1285 H1308 0.950 . S
C1286 C1285 1.349 . S
C1286 C1298 1.349 . S
C1287 C1285 1.327 . S
C1287 C1303 1.429 . S
C1287 H1309 0.950 . S
C1288 H1284 0.949 . S
C1288 C1296 1.574 . S
C1288 C1304 1.368 . S
H1289 C1297 0.950 . S
H1290 C1295 0.950 . S
H1291 C1296 0.949 . S
H1292 C1298 0.950 . S
H1293 C1299 0.950 . S
H1294 C1300 0.949 . S
C1295 H1290 0.950 . S
C1295 C1297 1.327 . S
C1295 C1301 1.429 . S
C1296 C1288 1.574 . S
C1296 H1291 0.949 . S
C1296 C1302 1.368 . S
C1297 C1281 1.349 . S
C1297 H1289 0.950 . S
C1297 C1295 1.327 . S
C1298 C1286 1.349 . S
C1298 H1292 0.950 . S
C1298 C1299 1.327 . S
C1299 H1293 0.950 . S
C1299 C1298 1.327 . S
C1299 C1303 1.429 . S
C1300 C1283 1.574 . S
C1300 H1294 0.949 . S
C1300 C1304 1.368 . S
C1301 C1282 1.429 . S
C1301 C1295 1.429 . S
C1301 C1302 1.523 . S
C1302 C1283 1.368 . S
C1302 C1296 1.368 . S
C1302 C1301 1.523 . S
C1303 C1287 1.429 . S
C1303 C1299 1.429 . S
C1303 C1304 1.523 . S
C1304 C1288 1.368 . S
C1304 C1300 1.368 . S
C1304 C1303 1.523 . S
H1305 C1280 0.950 . S
H1306 C1282 0.950 . S
H1307 C1283 0.949 . S
H1308 C1285 0.950 . S
H1309 C1287 0.950 . S
C1310 C1311 1.349 . S
C1310 C1312 1.327 . S
C1310 H1335 0.950 . S
C1311 C1310 1.349 . S
C1311 C1327 1.349 . S
C1312 C1310 1.327 . S
C1312 C1331 1.429 . S
C1312 H1336 0.950 . S
C1313 C1330 1.574 . S
C1313 C1332 1.368 . S
C1313 H1337 0.949 . S
H1314 C1318 0.949 . S
C1315 C1316 1.349 . S
C1315 C1317 1.327 . S
C1315 H1338 0.950 . S
C1316 C1315 1.349 . S
C1316 C1328 1.349 . S
C1317 C1315 1.327 . S
C1317 C1333 1.429 . S
C1317 H1339 0.950 . S
C1318 H1314 0.949 . S
C1318 C1326 1.574 . S
C1318 C1334 1.368 . S
H1319 C1327 0.950 . S
H1320 C1325 0.950 . S
H1321 C1326 0.949 . S
H1322 C1328 0.950 . S
H1323 C1329 0.950 . S
H1324 C1330 0.949 . S
C1325 H1320 0.950 . S
C1325 C1327 1.327 . S
C1325 C1331 1.429 . S
C1326 C1318 1.574 . S
C1326 H1321 0.949 . S
C1326 C1332 1.368 . S
C1327 C1311 1.349 . S
C1327 H1319 0.950 . S
C1327 C1325 1.327 . S
C1328 C1316 1.349 . S
C1328 H1322 0.950 . S
C1328 C1329 1.327 . S
C1329 H1323 0.950 . S
C1329 C1328 1.327 . S
C1329 C1333 1.429 . S
C1330 C1313 1.574 . S
C1330 H1324 0.949 . S
C1330 C1334 1.368 . S
C1331 C1312 1.429 . S
C1331 C1325 1.429 . S
C1331 C1332 1.523 . S
C1332 C1313 1.368 . S
C1332 C1326 1.368 . S
C1332 C1331 1.523 . S
C1333 C1317 1.429 . S
C1333 C1329 1.429 . S
C1333 C1334 1.523 . S
C1334 C1318 1.368 . S
C1334 C1330 1.368 . S
C1334 C1333 1.523 . S
H1335 C1310 0.950 . S
H1336 C1312 0.950 . S
H1337 C1313 0.949 . S
H1338 C1315 0.950 . S
H1339 C1317 0.950 . S
C1340 C1341 1.349 . S
C1340 C1342 1.327 . S
C1340 H1365 0.950 . S
C1341 C1340 1.349 . S
C1341 C1357 1.349 . S
C1342 C1340 1.327 . S
C1342 C1361 1.429 . S
C1342 H1366 0.950 . S
C1343 C1360 1.574 . S
C1343 C1362 1.368 . S
C1343 H1367 0.949 . S
H1344 C1348 0.949 . S
C1345 C1346 1.349 . S
C1345 C1347 1.327 . S
C1345 H1368 0.950 . S
C1346 C1345 1.349 . S
C1346 C1358 1.349 . S
C1347 C1345 1.327 . S
C1347 C1363 1.429 . S
C1347 H1369 0.950 . S
C1348 H1344 0.949 . S
C1348 C1356 1.574 . S
C1348 C1364 1.368 . S
H1349 C1357 0.950 . S
H1350 C1355 0.950 . S
H1351 C1356 0.949 . S
H1352 C1358 0.950 . S
H1353 C1359 0.950 . S
H1354 C1360 0.949 . S
C1355 H1350 0.950 . S
C1355 C1357 1.327 . S
C1355 C1361 1.429 . S
C1356 C1348 1.574 . S
C1356 H1351 0.949 . S
C1356 C1362 1.368 . S
C1357 C1341 1.349 . S
C1357 H1349 0.950 . S
C1357 C1355 1.327 . S
C1358 C1346 1.349 . S
C1358 H1352 0.950 . S
C1358 C1359 1.327 . S
C1359 H1353 0.950 . S
C1359 C1358 1.327 . S
C1359 C1363 1.429 . S
C1360 C1343 1.574 . S
C1360 H1354 0.949 . S
C1360 C1364 1.368 . S
C1361 C1342 1.429 . S
C1361 C1355 1.429 . S
C1361 C1362 1.523 . S
C1362 C1343 1.368 . S
C1362 C1356 1.368 . S
C1362 C1361 1.523 . S
C1363 C1347 1.429 . S
C1363 C1359 1.429 . S
C1363 C1364 1.523 . S
C1364 C1348 1.368 . S
C1364 C1360 1.368 . S
C1364 C1363 1.523 . S
H1365 C1340 0.950 . S
H1366 C1342 0.950 . S
H1367 C1343 0.949 . S
H1368 C1345 0.950 . S
H1369 C1347 0.950 . S
C1370 C1371 1.349 . S
C1370 C1372 1.327 . S
C1370 H1395 0.950 . S
C1371 C1370 1.349 . S
C1371 C1387 1.349 . S
C1372 C1370 1.327 . S
C1372 C1391 1.429 . S
C1372 H1396 0.950 . S
C1373 C1390 1.574 . S
C1373 C1392 1.368 . S
C1373 H1397 0.949 . S
H1374 C1378 0.949 . S
C1375 C1376 1.349 . S
C1375 C1377 1.327 . S
C1375 H1398 0.950 . S
C1376 C1375 1.349 . S
C1376 C1388 1.349 . S
C1377 C1375 1.327 . S
C1377 C1393 1.429 . S
C1377 H1399 0.950 . S
C1378 H1374 0.949 . S
C1378 C1386 1.574 . S
C1378 C1394 1.368 . S
H1379 C1387 0.950 . S
H1380 C1385 0.950 . S
H1381 C1386 0.949 . S
H1382 C1388 0.950 . S
H1383 C1389 0.950 . S
H1384 C1390 0.949 . S
C1385 H1380 0.950 . S
C1385 C1387 1.327 . S
C1385 C1391 1.429 . S
C1386 C1378 1.574 . S
C1386 H1381 0.949 . S
C1386 C1392 1.368 . S
C1387 C1371 1.349 . S
C1387 H1379 0.950 . S
C1387 C1385 1.327 . S
C1388 C1376 1.349 . S
C1388 H1382 0.950 . S
C1388 C1389 1.327 . S
C1389 H1383 0.950 . S
C1389 C1388 1.327 . S
C1389 C1393 1.429 . S
C1390 C1373 1.574 . S
C1390 H1384 0.949 . S
C1390 C1394 1.368 . S
C1391 C1372 1.429 . S
C1391 C1385 1.429 . S
C1391 C1392 1.523 . S
C1392 C1373 1.368 . S
C1392 C1386 1.368 . S
C1392 C1391 1.523 . S
C1393 C1377 1.429 . S
C1393 C1389 1.429 . S
C1393 C1394 1.523 . S
C1394 C1378 1.368 . S
C1394 C1390 1.368 . S
C1394 C1393 1.523 . S
H1395 C1370 0.950 . S
H1396 C1372 0.950 . S
H1397 C1373 0.949 . S
H1398 C1375 0.950 . S
H1399 C1377 0.950 . S
C1400 C1401 1.349 . S
C1400 C1402 1.327 . S
C1400 H1425 0.950 . S
C1401 C1400 1.349 . S
C1401 C1417 1.349 . S
C1402 C1400 1.327 . S
C1402 C1421 1.429 . S
C1402 H1426 0.950 . S
C1403 C1420 1.574 . S
C1403 C1422 1.368 . S
C1403 H1427 0.949 . S
H1404 C1408 0.949 . S
C1405 C1406 1.349 . S
C1405 C1407 1.327 . S
C1405 H1428 0.950 . S
C1406 C1405 1.349 . S
C1406 C1418 1.349 . S
C1407 C1405 1.327 . S
C1407 C1423 1.429 . S
C1407 H1429 0.950 . S
C1408 H1404 0.949 . S
C1408 C1416 1.574 . S
C1408 C1424 1.368 . S
H1409 C1417 0.950 . S
H1410 C1415 0.950 . S
H1411 C1416 0.949 . S
H1412 C1418 0.950 . S
H1413 C1419 0.950 . S
H1414 C1420 0.949 . S
C1415 H1410 0.950 . S
C1415 C1417 1.327 . S
C1415 C1421 1.429 . S
C1416 C1408 1.574 . S
C1416 H1411 0.949 . S
C1416 C1422 1.368 . S
C1417 C1401 1.349 . S
C1417 H1409 0.950 . S
C1417 C1415 1.327 . S
C1418 C1406 1.349 . S
C1418 H1412 0.950 . S
C1418 C1419 1.327 . S
C1419 H1413 0.950 . S
C1419 C1418 1.327 . S
C1419 C1423 1.429 . S
C1420 C1403 1.574 . S
C1420 H1414 0.949 . S
C1420 C1424 1.368 . S
C1421 C1402 1.429 . S
C1421 C1415 1.429 . S
C1421 C1422 1.523 . S
C1422 C1403 1.368 . S
C1422 C1416 1.368 . S
C1422 C1421 1.523 . S
C1423 C1407 1.429 . S
C1423 C1419 1.429 . S
C1423 C1424 1.523 . S
C1424 C1408 1.368 . S
C1424 C1420 1.368 . S
C1424 C1423 1.523 . S
H1425 C1400 0.950 . S
H1426 C1402 0.950 . S
H1427 C1403 0.949 . S
H1428 C1405 0.950 . S
H1429 C1407 0.950 . S
C1430 C1431 1.349 . S
C1430 C1432 1.327 . S
C1430 H1455 0.950 . S
C1431 C1430 1.349 . S
C1431 C1447 1.349 . S
C1432 C1430 1.327 . S
C1432 C1451 1.429 . S
C1432 H1456 0.950 . S
C1433 C1450 1.574 . S
C1433 C1452 1.368 . S
C1433 H1457 0.949 . S
H1434 C1438 0.949 . S
C1435 C1436 1.349 . S
C1435 C1437 1.327 . S
C1435 H1458 0.950 . S
C1436 C1435 1.349 . S
C1436 C1448 1.349 . S
C1437 C1435 1.327 . S
C1437 C1453 1.429 . S
C1437 H1459 0.950 . S
C1438 H1434 0.949 . S
C1438 C1446 1.574 . S
C1438 C1454 1.368 . S
H1439 C1447 0.950 . S
H1440 C1445 0.950 . S
H1441 C1446 0.949 . S
H1442 C1448 0.950 . S
H1443 C1449 0.950 . S
H1444 C1450 0.949 . S
C1445 H1440 0.950 . S
C1445 C1447 1.327 . S
C1445 C1451 1.429 . S
C1446 C1438 1.574 . S
C1446 H1441 0.949 . S
C1446 C1452 1.368 . S
C1447 C1431 1.349 . S
C1447 H1439 0.950 . S
C1447 C1445 1.327 . S
C1448 C1436 1.349 . S
C1448 H1442 0.950 . S
C1448 C1449 1.327 . S
C1449 H1443 0.950 . S
C1449 C1448 1.327 . S
C1449 C1453 1.429 . S
C1450 C1433 1.574 . S
C1450 H1444 0.949 . S
C1450 C1454 1.368 . S
C1451 C1432 1.429 . S
C1451 C1445 1.429 . S
C1451 C1452 1.523 . S
C1452 C1433 1.368 . S
C1452 C1446 1.368 . S
C1452 C1451 1.523 . S
C1453 C1437 1.429 . S
C1453 C1449 1.429 . S
C1453 C1454 1.523 . S
C1454 C1438 1.368 . S
C1454 C1450 1.368 . S
C1454 C1453 1.523 . S
H1455 C1430 0.950 . S
H1456 C1432 0.950 . S
H1457 C1433 0.949 . S
H1458 C1435 0.950 . S
H1459 C1437 0.950 . S
C1460 C1461 1.349 . S
C1460 C1462 1.327 . S
C1460 H1485 0.950 . S
C1461 C1460 1.349 . S
C1461 C1477 1.349 . S
C1462 C1460 1.327 . S
C1462 C1481 1.429 . S
C1462 H1486 0.950 . S
C1463 C1480 1.574 . S
C1463 C1482 1.368 . S
C1463 H1487 0.949 . S
H1464 C1468 0.949 . S
C1465 C1466 1.349 . S
C1465 C1467 1.327 . S
C1465 H1488 0.950 . S
C1466 C1465 1.349 . S
C1466 C1478 1.349 . S
C1467 C1465 1.327 . S
C1467 C1483 1.429 . S
C1467 H1489 0.950 . S
C1468 H1464 0.949 . S
C1468 C1476 1.574 . S
C1468 C1484 1.368 . S
H1469 C1477 0.950 . S
H1470 C1475 0.950 . S
H1471 C1476 0.949 . S
H1472 C1478 0.950 . S
H1473 C1479 0.950 . S
H1474 C1480 0.949 . S
C1475 H1470 0.950 . S
C1475 C1477 1.327 . S
C1475 C1481 1.429 . S
C1476 C1468 1.574 . S
C1476 H1471 0.949 . S
C1476 C1482 1.368 . S
C1477 C1461 1.349 . S
C1477 H1469 0.950 . S
C1477 C1475 1.327 . S
C1478 C1466 1.349 . S
C1478 H1472 0.950 . S
C1478 C1479 1.327 . S
C1479 H1473 0.950 . S
C1479 C1478 1.327 . S
C1479 C1483 1.429 . S
C1480 C1463 1.574 . S
C1480 H1474 0.949 . S
C1480 C1484 1.368 . S
C1481 C1462 1.429 . S
C1481 C1475 1.429 . S
C1481 C1482 1.523 . S
C1482 C1463 1.368 . S
C1482 C1476 1.368 . S
C1482 C1481 1.523 . S
C1483 C1467 1.429 . S
C1483 C1479 1.429 . S
C1483 C1484 1.523 . S
C1484 C1468 1.368 . S
C1484 C1480 1.368 . S
C1484 C1483 1.523 . S
H1485 C1460 0.950 . S
H1486 C1462 0.950 . S
H1487 C1463 0.949 . S
H1488 C1465 0.950 . S
H1489 C1467 0.950 . S
C1490 C1491 1.349 . S
C1490 C1492 1.327 . S
C1490 H1515 0.950 . S
C1491 C1490 1.349 . S
C1491 C1507 1.349 . S
C1492 C1490 1.327 . S
C1492 C1511 1.429 . S
C1492 H1516 0.950 . S
C1493 C1510 1.574 . S
C1493 C1512 1.368 . S
C1493 H1517 0.949 . S
H1494 C1498 0.949 . S
C1495 C1496 1.349 . S
C1495 C1497 1.327 . S
C1495 H1518 0.950 . S
C1496 C1495 1.349 . S
C1496 C1508 1.349 . S
C1497 C1495 1.327 . S
C1497 C1513 1.429 . S
C1497 H1519 0.950 . S
C1498 H1494 0.949 . S
C1498 C1506 1.574 . S
C1498 C1514 1.368 . S
H1499 C1507 0.950 . S
H1500 C1505 0.950 . S
H1501 C1506 0.949 . S
H1502 C1508 0.950 . S
H1503 C1509 0.950 . S
H1504 C1510 0.949 . S
C1505 H1500 0.950 . S
C1505 C1507 1.327 . S
C1505 C1511 1.429 . S
C1506 C1498 1.574 . S
C1506 H1501 0.949 . S
C1506 C1512 1.368 . S
C1507 C1491 1.349 . S
C1507 H1499 0.950 . S
C1507 C1505 1.327 . S
C1508 C1496 1.349 . S
C1508 H1502 0.950 . S
C1508 C1509 1.327 . S
C1509 H1503 0.950 . S
C1509 C1508 1.327 . S
C1509 C1513 1.429 . S
C1510 C1493 1.574 . S
C1510 H1504 0.949 . S
C1510 C1514 1.368 . S
C1511 C1492 1.429 . S
C1511 C1505 1.429 . S
C1511 C1512 1.523 . S
C1512 C1493 1.368 . S
C1512 C1506 1.368 . S
C1512 C1511 1.523 . S
C1513 C1497 1.429 . S
C1513 C1509 1.429 . S
C1513 C1514 1.523 . S
C1514 C1498 1.368 . S
C1514 C1510 1.368 . S
C1514 C1513 1.523 . S
H1515 C1490 0.950 . S
H1516 C1492 0.950 . S
H1517 C1493 0.949 . S
H1518 C1495 0.950 . S
H1519 C1497 0.950 . S
C1520 C1521 1.349 . S
C1520 C1522 1.327 . S
C1520 H1545 0.950 . S
C1521 C1520 1.349 . S
C1521 C1537 1.349 . S
C1522 C1520 1.327 . S
C1522 C1541 1.429 . S
C1522 H1546 0.950 . S
C1523 C1540 1.574 . S
C1523 C1542 1.368 . S
C1523 H1547 0.949 . S
H1524 C1528 0.949 . S
C1525 C1526 1.349 . S
C1525 C1527 1.327 . S
C1525 H1548 0.950 . S
C1526 C1525 1.349 . S
C1526 C1538 1.349 . S
C1527 C1525 1.327 . S
C1527 C1543 1.429 . S
C1527 H1549 0.950 . S
C1528 H1524 0.949 . S
C1528 C1536 1.574 . S
C1528 C1544 1.368 . S
H1529 C1537 0.950 . S
H1530 C1535 0.950 . S
H1531 C1536 0.949 . S
H1532 C1538 0.950 . S
H1533 C1539 0.950 . S
H1534 C1540 0.949 . S
C1535 H1530 0.950 . S
C1535 C1537 1.327 . S
C1535 C1541 1.429 . S
C1536 C1528 1.574 . S
C1536 H1531 0.949 . S
C1536 C1542 1.368 . S
C1537 C1521 1.349 . S
C1537 H1529 0.950 . S
C1537 C1535 1.327 . S
C1538 C1526 1.349 . S
C1538 H1532 0.950 . S
C1538 C1539 1.327 . S
C1539 H1533 0.950 . S
C1539 C1538 1.327 . S
C1539 C1543 1.429 . S
C1540 C1523 1.574 . S
C1540 H1534 0.949 . S
C1540 C1544 1.368 . S
C1541 C1522 1.429 . S
C1541 C1535 1.429 . S
C1541 C1542 1.523 1_565 S
C1542 C1523 1.368 . S
C1542 C1536 1.368 . S
C1542 C1541 1.523 1_545 S
C1543 C1527 1.429 . S
C1543 C1539 1.429 . S
C1543 C1544 1.523 . S
C1544 C1528 1.368 . S
C1544 C1540 1.368 . S
C1544 C1543 1.523 . S
H1545 C1520 0.950 . S
H1546 C1522 0.950 . S
H1547 C1523 0.949 . S
H1548 C1525 0.950 . S
H1549 C1527 0.950 . S
C1550 C1551 1.349 . S
C1550 C1552 1.327 . S
C1550 H1575 0.950 . S
C1551 C1550 1.349 . S
C1551 C1567 1.349 . S
C1552 C1550 1.327 . S
C1552 C1571 1.429 . S
C1552 H1576 0.950 . S
C1553 C1570 1.574 . S
C1553 C1572 1.368 . S
C1553 H1577 0.949 . S
H1554 C1558 0.949 . S
C1555 C1556 1.349 . S
C1555 C1557 1.327 . S
C1555 H1578 0.950 . S
C1556 C1555 1.349 . S
C1556 C1568 1.349 . S
C1557 C1555 1.327 . S
C1557 C1573 1.429 . S
C1557 H1579 0.950 . S
C1558 H1554 0.949 . S
C1558 C1566 1.574 . S
C1558 C1574 1.368 . S
H1559 C1567 0.950 . S
H1560 C1565 0.950 . S
H1561 C1566 0.949 . S
H1562 C1568 0.950 . S
H1563 C1569 0.950 . S
H1564 C1570 0.949 . S
C1565 H1560 0.950 . S
C1565 C1567 1.327 . S
C1565 C1571 1.429 . S
C1566 C1558 1.574 . S
C1566 H1561 0.949 . S
C1566 C1572 1.368 . S
C1567 C1551 1.349 . S
C1567 H1559 0.950 . S
C1567 C1565 1.327 . S
C1568 C1556 1.349 . S
C1568 H1562 0.950 . S
C1568 C1569 1.327 . S
C1569 H1563 0.950 . S
C1569 C1568 1.327 . S
C1569 C1573 1.429 . S
C1570 C1553 1.574 . S
C1570 H1564 0.949 . S
C1570 C1574 1.368 . S
C1571 C1552 1.429 . S
C1571 C1565 1.429 . S
C1571 C1572 1.523 . S
C1572 C1553 1.368 . S
C1572 C1566 1.368 . S
C1572 C1571 1.523 . S
C1573 C1557 1.429 . S
C1573 C1569 1.429 . S
C1573 C1574 1.523 1_545 S
C1574 C1558 1.368 . S
C1574 C1570 1.368 . S
C1574 C1573 1.523 1_565 S
H1575 C1550 0.950 . S
H1576 C1552 0.950 . S
H1577 C1553 0.949 . S
H1578 C1555 0.950 . S
H1579 C1557 0.950 . S
C1580 C1581 1.349 . S
C1580 C1582 1.327 . S
C1580 H1605 0.950 . S
C1581 C1580 1.349 . S
C1581 C1597 1.349 . S
C1582 C1580 1.327 . S
C1582 C1601 1.429 . S
C1582 H1606 0.950 . S
C1583 C1600 1.574 . S
C1583 C1602 1.368 . S
C1583 H1607 0.949 . S
H1584 C1588 0.949 . S
C1585 C1586 1.349 . S
C1585 C1587 1.327 . S
C1585 H1608 0.950 . S
C1586 C1585 1.349 . S
C1586 C1598 1.349 . S
C1587 C1585 1.327 . S
C1587 C1603 1.429 . S
C1587 H1609 0.950 . S
C1588 H1584 0.949 . S
C1588 C1596 1.574 . S
C1588 C1604 1.368 . S
H1589 C1597 0.950 . S
H1590 C1595 0.950 . S
H1591 C1596 0.949 . S
H1592 C1598 0.950 . S
H1593 C1599 0.950 . S
H1594 C1600 0.949 . S
C1595 H1590 0.950 . S
C1595 C1597 1.327 . S
C1595 C1601 1.429 . S
C1596 C1588 1.574 . S
C1596 H1591 0.949 . S
C1596 C1602 1.368 . S
C1597 C1581 1.349 . S
C1597 H1589 0.950 . S
C1597 C1595 1.327 . S
C1598 C1586 1.349 . S
C1598 H1592 0.950 . S
C1598 C1599 1.327 . S
C1599 H1593 0.950 . S
C1599 C1598 1.327 . S
C1599 C1603 1.429 . S
C1600 C1583 1.574 . S
C1600 H1594 0.949 . S
C1600 C1604 1.368 . S
C1601 C1582 1.429 . S
C1601 C1595 1.429 . S
C1601 C1602 1.523 1_545 S
C1602 C1583 1.368 . S
C1602 C1596 1.368 . S
C1602 C1601 1.523 1_565 S
C1603 C1587 1.429 . S
C1603 C1599 1.429 . S
C1603 C1604 1.523 . S
C1604 C1588 1.368 . S
C1604 C1600 1.368 . S
C1604 C1603 1.523 . S
H1605 C1580 0.950 . S
H1606 C1582 0.950 . S
H1607 C1583 0.949 . S
H1608 C1585 0.950 . S
H1609 C1587 0.950 . S
C1610 C1611 1.349 . S
C1610 C1612 1.327 . S
C1610 H1635 0.950 . S
C1611 C1610 1.349 . S
C1611 C1627 1.349 . S
C1612 C1610 1.327 . S
C1612 C1631 1.429 . S
C1612 H1636 0.950 . S
C1613 C1630 1.574 . S
C1613 C1632 1.368 . S
C1613 H1637 0.949 . S
H1614 C1618 0.949 . S
C1615 C1616 1.349 . S
C1615 C1617 1.327 . S
C1615 H1638 0.950 . S
C1616 C1615 1.349 . S
C1616 C1628 1.349 . S
C1617 C1615 1.327 . S
C1617 C1633 1.429 . S
C1617 H1639 0.950 . S
C1618 H1614 0.949 . S
C1618 C1626 1.574 . S
C1618 C1634 1.368 . S
H1619 C1627 0.950 . S
H1620 C1625 0.950 . S
H1621 C1626 0.949 . S
H1622 C1628 0.950 . S
H1623 C1629 0.950 . S
H1624 C1630 0.949 . S
C1625 H1620 0.950 . S
C1625 C1627 1.327 . S
C1625 C1631 1.429 . S
C1626 C1618 1.574 . S
C1626 H1621 0.949 . S
C1626 C1632 1.368 . S
C1627 C1611 1.349 . S
C1627 H1619 0.950 . S
C1627 C1625 1.327 . S
C1628 C1616 1.349 . S
C1628 H1622 0.950 . S
C1628 C1629 1.327 . S
C1629 H1623 0.950 . S
C1629 C1628 1.327 . S
C1629 C1633 1.429 . S
C1630 C1613 1.574 . S
C1630 H1624 0.949 . S
C1630 C1634 1.368 . S
C1631 C1612 1.429 . S
C1631 C1625 1.429 . S
C1631 C1632 1.523 1_565 S
C1632 C1613 1.368 . S
C1632 C1626 1.368 . S
C1632 C1631 1.523 1_545 S
C1633 C1617 1.429 . S
C1633 C1629 1.429 . S
C1633 C1634 1.523 . S
C1634 C1618 1.368 . S
C1634 C1630 1.368 . S
C1634 C1633 1.523 . S
H1635 C1610 0.950 . S
H1636 C1612 0.950 . S
H1637 C1613 0.949 . S
H1638 C1615 0.950 . S
H1639 C1617 0.950 . S
C1640 C1641 1.349 . S
C1640 C1642 1.327 . S
C1640 H1665 0.950 . S
C1641 C1640 1.349 . S
C1641 C1657 1.349 . S
C1642 C1640 1.327 . S
C1642 C1661 1.429 . S
C1642 H1666 0.950 . S
C1643 C1660 1.574 . S
C1643 C1662 1.368 . S
C1643 H1667 0.949 . S
H1644 C1648 0.949 . S
C1645 C1646 1.349 . S
C1645 C1647 1.327 . S
C1645 H1668 0.950 . S
C1646 C1645 1.349 . S
C1646 C1658 1.349 . S
C1647 C1645 1.327 . S
C1647 C1663 1.429 . S
C1647 H1669 0.950 . S
C1648 H1644 0.949 . S
C1648 C1656 1.574 . S
C1648 C1664 1.368 . S
H1649 C1657 0.950 . S
H1650 C1655 0.950 . S
H1651 C1656 0.949 . S
H1652 C1658 0.950 . S
H1653 C1659 0.950 . S
H1654 C1660 0.949 . S
C1655 H1650 0.950 . S
C1655 C1657 1.327 . S
C1655 C1661 1.429 . S
C1656 C1648 1.574 . S
C1656 H1651 0.949 . S
C1656 C1662 1.368 . S
C1657 C1641 1.349 . S
C1657 H1649 0.950 . S
C1657 C1655 1.327 . S
C1658 C1646 1.349 . S
C1658 H1652 0.950 . S
C1658 C1659 1.327 . S
C1659 H1653 0.950 . S
C1659 C1658 1.327 . S
C1659 C1663 1.429 . S
C1660 C1643 1.574 . S
C1660 H1654 0.949 . S
C1660 C1664 1.368 . S
C1661 C1642 1.429 . S
C1661 C1655 1.429 . S
C1661 C1662 1.523 . S
C1662 C1643 1.368 . S
C1662 C1656 1.368 . S
C1662 C1661 1.523 . S
C1663 C1647 1.429 . S
C1663 C1659 1.429 . S
C1663 C1664 1.523 1_545 S
C1664 C1648 1.368 . S
C1664 C1660 1.368 . S
C1664 C1663 1.523 1_565 S
H1665 C1640 0.950 . S
H1666 C1642 0.950 . S
H1667 C1643 0.949 . S
H1668 C1645 0.950 . S
H1669 C1647 0.950 . S
C1670 C1671 1.349 . S
C1670 C1672 1.327 . S
C1670 H1695 0.950 . S
C1671 C1670 1.349 . S
C1671 C1687 1.349 . S
C1672 C1670 1.327 . S
C1672 C1691 1.429 . S
C1672 H1696 0.950 . S
C1673 C1690 1.574 . S
C1673 C1692 1.368 . S
C1673 H1697 0.949 . S
H1674 C1678 0.949 . S
C1675 C1676 1.349 . S
C1675 C1677 1.327 . S
C1675 H1698 0.950 . S
C1676 C1675 1.349 . S
C1676 C1688 1.349 . S
C1677 C1675 1.327 . S
C1677 C1693 1.429 . S
C1677 H1699 0.950 . S
C1678 H1674 0.949 . S
C1678 C1686 1.574 . S
C1678 C1694 1.368 . S
H1679 C1687 0.950 . S
H1680 C1685 0.950 . S
H1681 C1686 0.949 . S
H1682 C1688 0.950 . S
H1683 C1689 0.950 . S
H1684 C1690 0.949 . S
C1685 H1680 0.950 . S
C1685 C1687 1.327 . S
C1685 C1691 1.429 . S
C1686 C1678 1.574 . S
C1686 H1681 0.949 . S
C1686 C1692 1.368 . S
C1687 C1671 1.349 . S
C1687 H1679 0.950 . S
C1687 C1685 1.327 . S
C1688 C1676 1.349 . S
C1688 H1682 0.950 . S
C1688 C1689 1.327 . S
C1689 H1683 0.950 . S
C1689 C1688 1.327 . S
C1689 C1693 1.429 . S
C1690 C1673 1.574 . S
C1690 H1684 0.949 . S
C1690 C1694 1.368 . S
C1691 C1672 1.429 . S
C1691 C1685 1.429 . S
C1691 C1692 1.523 . S
C1692 C1673 1.368 . S
C1692 C1686 1.368 . S
C1692 C1691 1.523 . S
C1693 C1677 1.429 . S
C1693 C1689 1.429 . S
C1693 C1694 1.523 1_565 S
C1694 C1678 1.368 . S
C1694 C1690 1.368 . S
C1694 C1693 1.523 1_545 S
H1695 C1670 0.950 . S
H1696 C1672 0.950 . S
H1697 C1673 0.949 . S
H1698 C1675 0.950 . S
H1699 C1677 0.950 . S
C1700 C1701 1.349 . S
C1700 C1702 1.327 . S
C1700 H1725 0.950 . S
C1701 C1700 1.349 . S
C1701 C1717 1.349 . S
C1702 C1700 1.327 . S
C1702 C1721 1.429 . S
C1702 H1726 0.950 . S
C1703 C1720 1.574 . S
C1703 C1722 1.368 . S
C1703 H1727 0.949 . S
H1704 C1708 0.949 . S
C1705 C1706 1.349 . S
C1705 C1707 1.327 . S
C1705 H1728 0.950 . S
C1706 C1705 1.349 . S
C1706 C1718 1.349 . S
C1707 C1705 1.327 . S
C1707 C1723 1.429 . S
C1707 H1729 0.950 . S
C1708 H1704 0.949 . S
C1708 C1716 1.574 . S
C1708 C1724 1.368 . S
H1709 C1717 0.950 . S
H1710 C1715 0.950 . S
H1711 C1716 0.949 . S
H1712 C1718 0.950 . S
H1713 C1719 0.950 . S
H1714 C1720 0.949 . S
C1715 H1710 0.950 . S
C1715 C1717 1.327 . S
C1715 C1721 1.429 . S
C1716 C1708 1.574 . S
C1716 H1711 0.949 . S
C1716 C1722 1.368 . S
C1717 C1701 1.349 . S
C1717 H1709 0.950 . S
C1717 C1715 1.327 . S
C1718 C1706 1.349 . S
C1718 H1712 0.950 . S
C1718 C1719 1.327 . S
C1719 H1713 0.950 . S
C1719 C1718 1.327 . S
C1719 C1723 1.429 . S
C1720 C1703 1.574 . S
C1720 H1714 0.949 . S
C1720 C1724 1.368 . S
C1721 C1702 1.429 . S
C1721 C1715 1.429 . S
C1721 C1722 1.523 1_565 S
C1722 C1703 1.368 . S
C1722 C1716 1.368 . S
C1722 C1721 1.523 1_545 S
C1723 C1707 1.429 . S
C1723 C1719 1.429 . S
C1723 C1724 1.523 . S
C1724 C1708 1.368 . S
C1724 C1720 1.368 . S
C1724 C1723 1.523 . S
H1725 C1700 0.950 . S
H1726 C1702 0.950 . S
H1727 C1703 0.949 . S
H1728 C1705 0.950 . S
H1729 C1707 0.950 . S
C1730 C1731 1.349 . S
C1730 C1732 1.327 . S
C1730 H1755 0.950 . S
C1731 C1730 1.349 . S
C1731 C1747 1.349 . S
C1732 C1730 1.327 . S
C1732 C1751 1.429 . S
C1732 H1756 0.950 . S
C1733 C1750 1.574 . S
C1733 C1752 1.368 . S
C1733 H1757 0.949 . S
H1734 C1738 0.949 . S
C1735 C1736 1.349 . S
C1735 C1737 1.327 . S
C1735 H1758 0.950 . S
C1736 C1735 1.349 . S
C1736 C1748 1.349 . S
C1737 C1735 1.327 . S
C1737 C1753 1.429 . S
C1737 H1759 0.950 . S
C1738 H1734 0.949 . S
C1738 C1746 1.574 . S
C1738 C1754 1.368 . S
H1739 C1747 0.950 . S
H1740 C1745 0.950 . S
H1741 C1746 0.949 . S
H1742 C1748 0.950 . S
H1743 C1749 0.950 . S
H1744 C1750 0.949 . S
C1745 H1740 0.950 . S
C1745 C1747 1.327 . S
C1745 C1751 1.429 . S
C1746 C1738 1.574 . S
C1746 H1741 0.949 . S
C1746 C1752 1.368 . S
C1747 C1731 1.349 . S
C1747 H1739 0.950 . S
C1747 C1745 1.327 . S
C1748 C1736 1.349 . S
C1748 H1742 0.950 . S
C1748 C1749 1.327 . S
C1749 H1743 0.950 . S
C1749 C1748 1.327 . S
C1749 C1753 1.429 . S
C1750 C1733 1.574 . S
C1750 H1744 0.949 . S
C1750 C1754 1.368 . S
C1751 C1732 1.429 . S
C1751 C1745 1.429 . S
C1751 C1752 1.523 . S
C1752 C1733 1.368 . S
C1752 C1746 1.368 . S
C1752 C1751 1.523 . S
C1753 C1737 1.429 . S
C1753 C1749 1.429 . S
C1753 C1754 1.523 1_545 S
C1754 C1738 1.368 . S
C1754 C1750 1.368 . S
C1754 C1753 1.523 1_565 S
H1755 C1730 0.950 . S
H1756 C1732 0.950 . S
H1757 C1733 0.949 . S
H1758 C1735 0.950 . S
H1759 C1737 0.950 . S
C321 C19 1.513 . S
C326 C199 1.513 . S
C351 C39 1.513 . S
C356 C179 1.513 . S
C381 C239 1.513 . S
C386 C59 1.513 . S
C411 C79 1.513 . S
C416 C219 1.513 . S
C441 C278 1.513 . S
C446 C98 1.513 . S
C471 C258 1.513 . S
C476 C118 1.513 . S
C501 C318 1.513 . S
C506 C138 1.513 . S
C531 C158 1.513 . S
C536 C298 1.513 . S
C561 C49 1.567 . S
C566 C9 1.567 . S
C591 C69 1.567 . S
C596 C29 1.567 . S
C621 C128 1.567 . S
C626 C88 1.567 . S
C651 C108 1.567 . S
C656 C148 1.567 . S
C681 C209 1.567 . S
C686 C169 1.567 . S
C711 C229 1.567 . S
C716 C189 1.567 . S
C741 C248 1.567 . S
C746 C288 1.567 . S
C771 C268 1.567 . S
C776 C308 1.567 . S
C801 C109 1.495 . S
C806 C8 1.495 . S
C831 C89 1.495 . S
C836 C28 1.495 . S
C861 C48 1.495 . S
C866 C149 1.495 . S
C891 C129 1.495 . S
C896 C68 1.495 . S
C921 C168 1.495 . S
C926 C269 1.495 . S
C951 C249 1.495 . S
C956 C188 1.495 . S
C981 C208 1.495 . S
C986 C309 1.495 . S
C1011 C289 1.495 . S
C1016 C228 1.495 . S
C1041 C38 1.576 . S
C1046 C18 1.576 . S
C1071 C78 1.576 . S
C1076 C58 1.576 . S
C1101 C119 1.576 . S
C1106 C99 1.576 . S
C1131 C139 1.576 . S
C1136 C159 1.576 . S
C1161 C198 1.576 . S
C1166 C178 1.576 . S
C1191 C238 1.576 . S
C1196 C218 1.576 . S
C1221 C259 1.576 . S
C1226 C279 1.576 . S
C1251 C299 1.576 . S
C1256 C319 1.576 . S
C1281 C2 1.692 . S
C1286 C1 1.692 . S
C1311 C22 1.692 . S
C1316 C21 1.692 . S
C1341 C42 1.692 . S
C1346 C41 1.692 . S
C1371 C61 1.692 . S
C1376 C62 1.692 . S
C1401 C81 1.692 . S
C1406 C82 1.692 . S
C1431 C102 1.692 . S
C1436 C101 1.692 . S
C1461 C121 1.692 . S
C1466 C122 1.692 . S
C1491 C141 1.692 . S
C1496 C142 1.692 . S
C1521 C161 1.692 . S
C1526 C162 1.692 . S
C1551 C182 1.692 . S
C1556 C181 1.692 . S
C1581 C201 1.692 . S
C1586 C202 1.692 . S
C1611 C221 1.692 . S
C1616 C222 1.692 . S
C1641 C241 1.692 . S
C1646 C242 1.692 . S
C1671 C261 1.692 . S
C1676 C262 1.692 . S
C1701 C282 1.692 . S
C1706 C281 1.692 . S
C1731 C301 1.692 . S
C1736 C302 1.692 . S
