# Generated by pormake.
# Topology uoy, (4)-cn, num edge types: 1
# Building blocks:
#     Node 0, Type 0, BuildingBlock: QUQFOY_clean_sbu_3, # of connection points: 4
#     Node 1, Type 0, BuildingBlock: QUQFOY_clean_sbu_3, # of connection points: 4
#     Node 2, Type 0, BuildingBlock: QUQFOY_clean_sbu_3, # of connection points: 4
#     Node 3, Type 0, BuildingBlock: QUQFOY_clean_sbu_3, # of connection points: 4
#     Node 4, Type 0, BuildingBlock: QUQFOY_clean_sbu_3, # of connection points: 4
#     Node 5, Type 0, BuildingBlock: QUQFOY_clean_sbu_3, # of connection points: 4
#     Node 6, Type 0, BuildingBlock: QUQFOY_clean_sbu_3, # of connection points: 4
#     Node 7, Type 0, BuildingBlock: QUQFOY_clean_sbu_3, # of connection points: 4
#     Node 8, Type 0, BuildingBlock: QUQFOY_clean_sbu_3, # of connection points: 4
#     Node 9, Type 0, BuildingBlock: QUQFOY_clean_sbu_3, # of connection points: 4
#     Node 10, Type 0, BuildingBlock: QUQFOY_clean_sbu_3, # of connection points: 4
#     Node 11, Type 0, BuildingBlock: QUQFOY_clean_sbu_3, # of connection points: 4
#     Node 12, Type 0, BuildingBlock: QUQFOY_clean_sbu_3, # of connection points: 4
#     Node 13, Type 0, BuildingBlock: QUQFOY_clean_sbu_3, # of connection points: 4
#     Node 14, Type 0, BuildingBlock: QUQFOY_clean_sbu_3, # of connection points: 4
#     Node 15, Type 0, BuildingBlock: QUQFOY_clean_sbu_3, # of connection points: 4
#     Edge 16, Type (0, 0), BuildingBlock: MIFKUJ_clean_linker_0, # of connection points: 2
#     Edge 17, Type (0, 0), BuildingBlock: MIFKUJ_clean_linker_0, # of connection points: 2
#     Edge 18, Type (0, 0), BuildingBlock: MIFKUJ_clean_linker_0, # of connection points: 2
#     Edge 19, Type (0, 0), BuildingBlock: MIFKUJ_clean_linker_0, # of connection points: 2
#     Edge 20, Type (0, 0), BuildingBlock: MIFKUJ_clean_linker_0, # of connection points: 2
#     Edge 21, Type (0, 0), BuildingBlock: MIFKUJ_clean_linker_0, # of connection points: 2
#     Edge 22, Type (0, 0), BuildingBlock: MIFKUJ_clean_linker_0, # of connection points: 2
#     Edge 23, Type (0, 0), BuildingBlock: MIFKUJ_clean_linker_0, # of connection points: 2
#     Edge 24, Type (0, 0), BuildingBlock: MIFKUJ_clean_linker_0, # of connection points: 2
#     Edge 25, Type (0, 0), BuildingBlock: MIFKUJ_clean_linker_0, # of connection points: 2
#     Edge 26, Type (0, 0), BuildingBlock: MIFKUJ_clean_linker_0, # of connection points: 2
#     Edge 27, Type (0, 0), BuildingBlock: MIFKUJ_clean_linker_0, # of connection points: 2
#     Edge 28, Type (0, 0), BuildingBlock: MIFKUJ_clean_linker_0, # of connection points: 2
#     Edge 29, Type (0, 0), BuildingBlock: MIFKUJ_clean_linker_0, # of connection points: 2
#     Edge 30, Type (0, 0), BuildingBlock: MIFKUJ_clean_linker_0, # of connection points: 2
#     Edge 31, Type (0, 0), BuildingBlock: MIFKUJ_clean_linker_0, # of connection points: 2
#     Edge 32, Type (0, 0), BuildingBlock: MIFKUJ_clean_linker_0, # of connection points: 2
#     Edge 33, Type (0, 0), BuildingBlock: MIFKUJ_clean_linker_0, # of connection points: 2
#     Edge 34, Type (0, 0), BuildingBlock: MIFKUJ_clean_linker_0, # of connection points: 2
#     Edge 35, Type (0, 0), BuildingBlock: MIFKUJ_clean_linker_0, # of connection points: 2
#     Edge 36, Type (0, 0), BuildingBlock: MIFKUJ_clean_linker_0, # of connection points: 2
#     Edge 37, Type (0, 0), BuildingBlock: MIFKUJ_clean_linker_0, # of connection points: 2
#     Edge 38, Type (0, 0), BuildingBlock: MIFKUJ_clean_linker_0, # of connection points: 2
#     Edge 39, Type (0, 0), BuildingBlock: MIFKUJ_clean_linker_0, # of connection points: 2
#     Edge 40, Type (0, 0), BuildingBlock: MIFKUJ_clean_linker_0, # of connection points: 2
#     Edge 41, Type (0, 0), BuildingBlock: MIFKUJ_clean_linker_0, # of connection points: 2
#     Edge 42, Type (0, 0), BuildingBlock: MIFKUJ_clean_linker_0, # of connection points: 2
#     Edge 43, Type (0, 0), BuildingBlock: MIFKUJ_clean_linker_0, # of connection points: 2
#     Edge 44, Type (0, 0), BuildingBlock: MIFKUJ_clean_linker_0, # of connection points: 2
#     Edge 45, Type (0, 0), BuildingBlock: MIFKUJ_clean_linker_0, # of connection points: 2
#     Edge 46, Type (0, 0), BuildingBlock: MIFKUJ_clean_linker_0, # of connection points: 2
#     Edge 47, Type (0, 0), BuildingBlock: MIFKUJ_clean_linker_0, # of connection points: 2
# Relax obj value: 0.037
# Max RMSD: 0.063
# Mean RMSD: 0.063
data_MOF--net-uoy--node1-QUQFOY_clean_sbu_3--edge1-MIFKUJ_clean_linker_0
_symmetry_space_group_name_H-M    P1
_symmetry_Int_Tables_number       1
_symmetry_cell_setting            triclinic
loop_
_symmetry_equiv_pos_as_xyz
'x, y, z'
_cell_length_a     36.172096
_cell_length_b     36.182865
_cell_length_c     142.93367
_cell_angle_alpha  89.954872
_cell_angle_beta   90.045023
_cell_angle_gamma 90.037218
loop_
_atom_site_label
_atom_site_type_symbol
_atom_site_fract_x
_atom_site_fract_y
_atom_site_fract_z
_atom_type_partial_charge
C0 C 0.27028 0.19299 0.19144 0.0
O1 O 0.28742 0.21197 0.18536 0.0
Cd2 Cd 0.29535 0.18831 0.16989 0.0
O3 O 0.25627 0.16183 0.18931 0.0
Cd4 Cd 0.24594 0.11945 0.17616 0.0
C5 C 0.33793 0.10478 0.17443 0.0
O6 O 0.23451 0.16873 0.16538 0.0
O7 O 0.2382 0.11469 0.15906 0.0
O8 O 0.18454 0.11597 0.18257 0.0
C9 C 0.23127 0.14887 0.15815 0.0
O10 O 0.33996 0.13795 0.17148 0.0
C11 C 0.18221 0.08103 0.18264 0.0
O12 O 0.30704 0.09093 0.17688 0.0
O13 O 0.21028 0.06313 0.17979 0.0
C14 C 0.82484 0.78186 0.44079 0.0
O15 O 0.80212 0.79607 0.43504 0.0
Cd16 Cd 0.81305 0.79339 0.41854 0.0
O17 O 0.85378 0.76544 0.43791 0.0
Cd18 Cd 0.88753 0.74635 0.42388 0.0
C19 C 0.89882 0.83603 0.41774 0.0
O20 O 0.83086 0.73048 0.41608 0.0
O21 O 0.88004 0.72544 0.4077 0.0
O22 O 0.89874 0.69451 0.43415 0.0
C23 C 0.84531 0.72159 0.40835 0.0
O24 O 0.86415 0.83653 0.41617 0.0
C25 C 0.93106 0.68767 0.43121 0.0
O26 O 0.91463 0.80707 0.42086 0.0
O27 O 0.94402 0.70906 0.42496 0.0
C28 C 0.22614 0.31265 0.69182 0.0
O29 O 0.21077 0.29201 0.68578 0.0
Cd30 Cd 0.20936 0.30946 0.66964 0.0
O31 O 0.24149 0.34286 0.68941 0.0
Cd32 Cd 0.25657 0.38173 0.67588 0.0
C33 C 0.16532 0.39387 0.67159 0.0
O34 O 0.2715 0.32897 0.66655 0.0
O35 O 0.27256 0.38087 0.65915 0.0
O36 O 0.31276 0.38944 0.68475 0.0
C37 C 0.27802 0.34626 0.65904 0.0
O38 O 0.16463 0.35998 0.66919 0.0
C39 C 0.3162 0.42382 0.68328 0.0
O40 O 0.195 0.40879 0.67457 0.0
O41 O 0.29109 0.43934 0.67844 0.0
C42 C 0.68431 0.72136 0.94351 0.0
O43 O 0.70735 0.70635 0.938 0.0
Cd44 Cd 0.69469 0.70377 0.92156 0.0
O45 O 0.6547 0.73575 0.94038 0.0
Cd46 Cd 0.6204 0.74946 0.92605 0.0
C47 C 0.61089 0.65797 0.92188 0.0
O48 O 0.67533 0.76509 0.91741 0.0
O49 O 0.62489 0.76321 0.90934 0.0
O50 O 0.61027 0.80686 0.93416 0.0
C51 C 0.65924 0.7701 0.90964 0.0
O52 O 0.64545 0.65795 0.92018 0.0
C53 C 0.57612 0.80952 0.93229 0.0
O54 O 0.59451 0.6874 0.92447 0.0
O55 O 0.56175 0.78338 0.92758 0.0
C56 C 0.26658 0.32487 0.04021 0.0
O57 O 0.28023 0.30265 0.04616 0.0
Cd58 Cd 0.27687 0.3138 0.06263 0.0
O59 O 0.24964 0.35391 0.04282 0.0
Cd60 Cd 0.2293 0.38747 0.05683 0.0
C61 C 0.31892 0.39991 0.06302 0.0
O62 O 0.21407 0.33145 0.06502 0.0
O63 O 0.20973 0.38124 0.07317 0.0
O64 O 0.17556 0.39763 0.04708 0.0
C65 C 0.20585 0.34648 0.07273 0.0
O66 O 0.31941 0.36544 0.06485 0.0
C67 C 0.16974 0.43052 0.04976 0.0
O68 O 0.29001 0.41524 0.05969 0.0
O69 O 0.19263 0.4442 0.05556 0.0
C70 C 0.68665 0.76062 0.29007 0.0
O71 O 0.70528 0.7777 0.29623 0.0
Cd72 Cd 0.68295 0.78529 0.31182 0.0
O73 O 0.65555 0.74612 0.29209 0.0
Cd74 Cd 0.61325 0.7355 0.30529 0.0
C75 C 0.59919 0.82768 0.30732 0.0
O76 O 0.66275 0.72457 0.31597 0.0
O77 O 0.609 0.72739 0.32242 0.0
O78 O 0.60831 0.67418 0.29885 0.0
C79 C 0.64337 0.72134 0.32327 0.0
O80 O 0.63225 0.82956 0.31037 0.0
C81 C 0.57334 0.67229 0.29912 0.0
O82 O 0.58547 0.79696 0.30469 0.0
O83 O 0.55623 0.70066 0.30208 0.0
C84 C 0.23089 0.17828 0.54023 0.0
O85 O 0.21768 0.20034 0.54626 0.0
Cd86 Cd 0.21847 0.18438 0.56252 0.0
O87 O 0.24696 0.14865 0.54277 0.0
Cd88 Cd 0.26708 0.11366 0.55653 0.0
C89 C 0.17691 0.09829 0.56103 0.0
O90 O 0.28057 0.16664 0.56616 0.0
O91 O 0.2797 0.11397 0.57329 0.0
O92 O 0.32575 0.11068 0.54864 0.0
C93 C 0.28572 0.14845 0.57363 0.0
O94 O 0.17558 0.13237 0.56324 0.0
C95 C 0.33042 0.07615 0.54958 0.0
O96 O 0.20679 0.08375 0.55808 0.0
O97 O 0.30464 0.05816 0.55357 0.0
C98 C 0.81058 0.73323 0.78942 0.0
O99 O 0.78952 0.71735 0.79527 0.0
Cd100 Cd 0.8086 0.71296 0.81135 0.0
O101 O 0.84068 0.74805 0.79207 0.0
Cd102 Cd 0.87932 0.7627 0.80553 0.0
C103 C 0.89419 0.67138 0.80858 0.0
O104 O 0.82792 0.77377 0.81587 0.0
O105 O 0.88207 0.77309 0.8223 0.0
O106 O 0.88052 0.8222 0.79813 0.0
C107 C 0.84753 0.77806 0.82314 0.0
O108 O 0.86038 0.66972 0.81105 0.0
C109 C 0.91518 0.82698 0.7986 0.0
O110 O 0.90854 0.70178 0.8059 0.0
O111 O 0.93414 0.80096 0.8022 0.0
C112 C 0.76576 0.68441 0.69161 0.0
O113 O 0.78016 0.70393 0.68519 0.0
Cd114 Cd 0.77976 0.68275 0.66935 0.0
O115 O 0.75065 0.6535 0.68974 0.0
Cd116 Cd 0.73472 0.6113 0.67693 0.0
C117 C 0.82548 0.59949 0.67221 0.0
O118 O 0.71759 0.66164 0.66697 0.0
O119 O 0.71787 0.60835 0.66026 0.0
O120 O 0.68023 0.605 0.6865 0.0
C121 C 0.71107 0.64266 0.65973 0.0
O122 O 0.82517 0.63277 0.66929 0.0
C123 C 0.67572 0.5707 0.68511 0.0
O124 O 0.79652 0.58476 0.67566 0.0
O125 O 0.6997 0.55448 0.68008 0.0
C126 C 0.32116 0.26876 0.94211 0.0
O127 O 0.3001 0.28312 0.936 0.0
Cd128 Cd 0.31531 0.28032 0.9197 0.0
O129 O 0.35024 0.25147 0.9397 0.0
Cd130 Cd 0.3854 0.23108 0.92603 0.0
C131 C 0.40199 0.32047 0.9206 0.0
O132 O 0.33125 0.21707 0.91682 0.0
O133 O 0.38336 0.21427 0.90951 0.0
O134 O 0.39078 0.17511 0.93514 0.0
C135 C 0.34863 0.20953 0.90937 0.0
O136 O 0.36799 0.32211 0.91831 0.0
C137 C 0.4245 0.16917 0.93326 0.0
O138 O 0.41575 0.29088 0.92396 0.0
O139 O 0.44089 0.19308 0.92822 0.0
C140 C 0.73968 0.80396 0.19331 0.0
O141 O 0.72218 0.78517 0.18726 0.0
Cd142 Cd 0.71682 0.80834 0.17165 0.0
O143 O 0.75425 0.83483 0.19115 0.0
Cd144 Cd 0.76502 0.87774 0.17816 0.0
C145 C 0.67311 0.89154 0.17578 0.0
O146 O 0.77827 0.82807 0.16762 0.0
O147 O 0.77488 0.88188 0.16115 0.0
O148 O 0.82417 0.88163 0.18579 0.0
C149 C 0.78228 0.84776 0.16038 0.0
O150 O 0.67187 0.85845 0.17277 0.0
C151 C 0.82787 0.91635 0.18511 0.0
O152 O 0.70348 0.90564 0.17855 0.0
O153 O 0.80142 0.93404 0.18132 0.0
C154 C 0.17328 0.22806 0.44202 0.0
O155 O 0.19554 0.21527 0.43597 0.0
Cd156 Cd 0.18391 0.22133 0.41951 0.0
O157 O 0.14402 0.24493 0.43953 0.0
Cd158 Cd 0.10965 0.26587 0.42575 0.0
C159 C 0.09922 0.17715 0.41862 0.0
O160 O 0.16473 0.28406 0.4174 0.0
O161 O 0.11388 0.28729 0.4096 0.0
O162 O 0.09869 0.3181 0.43588 0.0
C163 C 0.14851 0.2925 0.40985 0.0
O164 O 0.1336 0.17788 0.41669 0.0
C165 C 0.06548 0.32335 0.43336 0.0
O166 O 0.0834 0.20492 0.42237 0.0
O167 O 0.05199 0.30074 0.42747 0.0
C168 C 0.78158 0.80816 0.53984 0.0
O169 O 0.79765 0.78641 0.5455 0.0
Cd170 Cd 0.79997 0.80058 0.5619 0.0
O171 O 0.76547 0.83713 0.54278 0.0
Cd172 Cd 0.7496 0.8715 0.55689 0.0
C173 C 0.84059 0.887 0.56078 0.0
O174 O 0.73834 0.81736 0.56632 0.0
O175 O 0.73884 0.86965 0.57366 0.0
O176 O 0.68845 0.87561 0.5503 0.0
C177 C 0.73341 0.83501 0.57387 0.0
O178 O 0.84252 0.85278 0.56281 0.0
C179 C 0.6856 0.91046 0.55084 0.0
O180 O 0.81023 0.90133 0.55806 0.0
O181 O 0.71331 0.92801 0.55406 0.0
C182 C 0.1868 0.27241 0.79025 0.0
O183 O 0.2083 0.28813 0.79603 0.0
Cd184 Cd 0.19101 0.29202 0.81219 0.0
O185 O 0.15675 0.25773 0.79299 0.0
Cd186 Cd 0.11936 0.24395 0.80678 0.0
C187 C 0.10634 0.33548 0.81005 0.0
O188 O 0.17187 0.23062 0.81644 0.0
O189 O 0.11951 0.23316 0.82368 0.0
O190 O 0.11426 0.18358 0.7999 0.0
C191 C 0.15385 0.22615 0.82394 0.0
O192 O 0.14038 0.3367 0.81233 0.0
C193 C 0.07934 0.18135 0.80029 0.0
O194 O 0.09141 0.30527 0.80746 0.0
O195 O 0.06215 0.20904 0.80361 0.0
C196 C 0.71578 0.68272 0.0424 0.0
O197 O 0.70136 0.70431 0.04837 0.0
Cd198 Cd 0.70285 0.68996 0.06472 0.0
O199 O 0.73165 0.65299 0.04497 0.0
Cd200 Cd 0.74893 0.6163 0.05871 0.0
C201 C 0.65854 0.60527 0.06435 0.0
O202 O 0.76568 0.67135 0.06717 0.0
O203 O 0.77024 0.6205 0.07494 0.0
O204 O 0.80103 0.60457 0.04851 0.0
C205 C 0.77469 0.65522 0.07468 0.0
O206 O 0.65831 0.6396 0.06631 0.0
C207 C 0.80666 0.57176 0.05128 0.0
O208 O 0.6876 0.58974 0.06121 0.0
O209 O 0.78446 0.55888 0.05735 0.0
C210 C 0.29579 0.23124 0.28855 0.0
O211 O 0.2762 0.21124 0.2939 0.0
Cd212 Cd 0.29628 0.19965 0.30964 0.0
O213 O 0.32591 0.24534 0.29144 0.0
Cd214 Cd 0.36616 0.25209 0.30508 0.0
C215 C 0.38178 0.15997 0.30572 0.0
O216 O 0.3147 0.25891 0.31559 0.0
O217 O 0.36866 0.25679 0.3221 0.0
O218 O 0.36889 0.31446 0.29936 0.0
C219 C 0.33405 0.26123 0.32295 0.0
O220 O 0.34804 0.15689 0.30815 0.0
C221 C 0.40368 0.31801 0.29983 0.0
O222 O 0.39571 0.19147 0.30386 0.0
O223 O 0.42195 0.29016 0.30268 0.0
H224 H 0.20631 0.27136 0.07422 0.0
H225 H 0.20167 0.23485 0.08854 0.0
H226 H 0.1833 0.33446 0.10446 0.0
H227 H 0.18853 0.37126 0.09018 0.0
H228 H 0.2393 0.29473 0.1113 0.0
H229 H 0.11471 0.27057 0.10148 0.0
H230 H 0.06575 0.25072 0.09057 0.0
H231 H 0.11291 0.14195 0.08945 0.0
H232 H 0.16248 0.16128 0.10026 0.0
H233 H 0.20721 0.21876 0.15512 0.0
H234 H 0.19497 0.24856 0.14016 0.0
H235 H 0.22101 0.14722 0.12572 0.0
H236 H 0.23282 0.11672 0.14078 0.0
H237 H 0.16057 0.1854 0.1179 0.0
H238 H 0.28569 0.20974 0.12722 0.0
H239 H 0.33503 0.22907 0.13808 0.0
H240 H 0.28733 0.33748 0.13983 0.0
H241 H 0.23736 0.31861 0.12909 0.0
C242 C 0.20068 0.28543 0.08075 0.0
C243 C 0.1982 0.32417 0.08112 0.0
C244 C 0.19781 0.26451 0.08891 0.0
C245 C 0.19205 0.282 0.09754 0.0
C246 C 0.18781 0.32052 0.09785 0.0
C247 C 0.19082 0.34147 0.0897 0.0
C248 C 0.19448 0.26071 0.10633 0.0
C249 C 0.22162 0.27123 0.11281 0.0
C250 C 0.17236 0.2292 0.1081 0.0
C251 C 0.14253 0.21749 0.10161 0.0
C252 C 0.11484 0.2425 0.09885 0.0
C253 C 0.08693 0.23133 0.09269 0.0
C254 C 0.08627 0.19513 0.0893 0.0
C255 C 0.11348 0.16999 0.09208 0.0
C256 C 0.14146 0.18104 0.09822 0.0
C257 C 0.2101 0.20265 0.14878 0.0
C258 C 0.22151 0.16557 0.14909 0.0
C259 C 0.20301 0.21971 0.14025 0.0
C260 C 0.20767 0.20018 0.13187 0.0
C261 C 0.2174 0.16267 0.13214 0.0
C262 C 0.2243 0.14541 0.14072 0.0
C263 C 0.20486 0.21999 0.12289 0.0
C264 C 0.17802 0.20904 0.11637 0.0
C265 C 0.22735 0.2511 0.12102 0.0
C266 C 0.2576 0.26265 0.12741 0.0
C267 C 0.28557 0.23762 0.12998 0.0
C268 C 0.31367 0.2485 0.1361 0.0
C269 C 0.31427 0.28446 0.13966 0.0
C270 C 0.28681 0.30963 0.13708 0.0
C271 C 0.25861 0.29887 0.13096 0.0
H272 H 0.33605 0.29283 0.1444 0.0
H273 H 0.06464 0.18653 0.08454 0.0
H274 H 0.86883 0.7035 0.39085 0.0
H275 H 0.83069 0.69555 0.37688 0.0
H276 H 0.73214 0.71116 0.39339 0.0
H277 H 0.77005 0.71873 0.40744 0.0
H278 H 0.72347 0.65767 0.37942 0.0
H279 H 0.76537 0.78284 0.3827 0.0
H280 H 0.81159 0.83204 0.3851 0.0
H281 H 0.86811 0.79893 0.36007 0.0
H282 H 0.82251 0.74911 0.35759 0.0
H283 H 0.61081 0.7198 0.34059 0.0
H284 H 0.64207 0.71224 0.35572 0.0
H285 H 0.74637 0.69868 0.3415 0.0
H286 H 0.71569 0.70646 0.32647 0.0
H287 H 0.74872 0.75165 0.35493 0.0
H288 H 0.70543 0.62617 0.35167 0.0
H289 H 0.65841 0.57761 0.34944 0.0
H290 H 0.60278 0.61262 0.37443 0.0
H291 H 0.64923 0.66176 0.37674 0.0
C292 C 0.83903 0.70471 0.39153 0.0
C293 C 0.82239 0.71233 0.40018 0.0
C294 C 0.81732 0.70011 0.38356 0.0
C295 C 0.77874 0.70336 0.38413 0.0
C296 C 0.76191 0.70866 0.39285 0.0
C297 C 0.78361 0.71317 0.40083 0.0
C298 C 0.75645 0.70481 0.37551 0.0
C299 C 0.72862 0.67839 0.37409 0.0
C300 C 0.76344 0.73185 0.36859 0.0
C301 C 0.79072 0.76202 0.37001 0.0
C302 C 0.78781 0.78587 0.37774 0.0
C303 C 0.81387 0.81389 0.37911 0.0
C304 C 0.84282 0.81855 0.37275 0.0
C305 C 0.8457 0.79525 0.36499 0.0
C306 C 0.81974 0.76713 0.3636 0.0
C307 C 0.64034 0.71484 0.34071 0.0
C308 C 0.6609 0.71408 0.33238 0.0
C309 C 0.65807 0.71037 0.34933 0.0
C310 C 0.69645 0.7049 0.34968 0.0
C311 C 0.71673 0.703 0.34135 0.0
C312 C 0.69914 0.70748 0.33278 0.0
C313 C 0.71628 0.70392 0.35869 0.0
C314 C 0.74351 0.73081 0.36023 0.0
C315 C 0.70848 0.67746 0.3657 0.0
C316 C 0.68058 0.64791 0.36432 0.0
C317 C 0.68298 0.62374 0.35664 0.0
C318 C 0.65648 0.59606 0.35537 0.0
C319 C 0.62756 0.5921 0.36177 0.0
C320 C 0.62516 0.61576 0.36947 0.0
C321 C 0.65158 0.64351 0.37077 0.0
H322 H 0.60707 0.57064 0.36078 0.0
H323 H 0.86297 0.84027 0.37382 0.0
H324 H 0.29849 0.22193 0.57629 0.0
H325 H 0.30748 0.25386 0.59116 0.0
H326 H 0.30189 0.14968 0.60581 0.0
H327 H 0.29253 0.1175 0.59095 0.0
H328 H 0.25459 0.20006 0.61281 0.0
H329 H 0.3825 0.19605 0.60461 0.0
H330 H 0.43707 0.20458 0.59451 0.0
H331 H 0.41721 0.32151 0.59364 0.0
H332 H 0.36217 0.31364 0.60362 0.0
H333 H 0.29028 0.27257 0.65719 0.0
H334 H 0.30125 0.23832 0.64278 0.0
H335 H 0.29914 0.34008 0.62704 0.0
H336 H 0.28839 0.37483 0.6415 0.0
H337 H 0.35376 0.28939 0.62092 0.0
H338 H 0.22362 0.29271 0.62789 0.0
H339 H 0.16867 0.28481 0.6379 0.0
H340 H 0.19259 0.16913 0.64077 0.0
H341 H 0.24806 0.17648 0.63089 0.0
C342 C 0.29962 0.20576 0.58267 0.0
C343 C 0.29449 0.16727 0.58249 0.0
C344 C 0.30503 0.22402 0.59114 0.0
C345 C 0.30557 0.20405 0.59955 0.0
C346 C 0.30161 0.16549 0.59936 0.0
C347 C 0.29625 0.14719 0.59089 0.0
C348 C 0.30663 0.22379 0.60857 0.0
C349 C 0.27667 0.21902 0.61466 0.0
C350 C 0.3349 0.24933 0.61081 0.0
C351 C 0.368 0.2542 0.6048 0.0
C352 C 0.38957 0.22355 0.6022 0.0
C353 C 0.42063 0.22827 0.59651 0.0
C354 C 0.43055 0.26355 0.59342 0.0
C355 C 0.40947 0.29419 0.59603 0.0
C356 C 0.37836 0.28962 0.60172 0.0
C357 C 0.29253 0.28777 0.65069 0.0
C358 C 0.28796 0.32631 0.65044 0.0
C359 C 0.29887 0.26815 0.64247 0.0
C360 C 0.30053 0.28673 0.63388 0.0
C361 C 0.29789 0.32538 0.63364 0.0
C362 C 0.29155 0.3451 0.64188 0.0
C363 C 0.30186 0.26541 0.62511 0.0
C364 C 0.332 0.27007 0.61907 0.0
C365 C 0.27371 0.23979 0.62286 0.0
C366 C 0.2402 0.23523 0.62874 0.0
C367 C 0.21733 0.26565 0.63072 0.0
C368 C 0.18607 0.26127 0.63636 0.0
C369 C 0.1772 0.22651 0.63999 0.0
C370 C 0.19953 0.19605 0.63797 0.0
C371 C 0.23087 0.2003 0.63235 0.0
H372 H 0.15298 0.22317 0.64435 0.0
H373 H 0.45462 0.26715 0.58901 0.0
H374 H 0.88253 0.79022 0.83978 0.0
H375 H 0.85385 0.79994 0.85507 0.0
H376 H 0.74579 0.79391 0.84235 0.0
H377 H 0.77418 0.78483 0.82704 0.0
H378 H 0.74884 0.84717 0.8558 0.0
H379 H 0.78276 0.7187 0.85232 0.0
H380 H 0.82577 0.66719 0.84933 0.0
H381 H 0.89246 0.70083 0.87269 0.0
H382 H 0.85006 0.75288 0.87574 0.0
H383 H 0.63274 0.77979 0.89193 0.0
H384 H 0.66857 0.79261 0.87781 0.0
H385 H 0.76855 0.79751 0.89426 0.0
H386 H 0.733 0.78425 0.9084 0.0
H387 H 0.77489 0.75119 0.87972 0.0
H388 H 0.73428 0.87522 0.88443 0.0
H389 H 0.68932 0.92508 0.88733 0.0
H390 H 0.63312 0.8987 0.86172 0.0
H391 H 0.67742 0.8483 0.85873 0.0
C392 C 0.85271 0.7913 0.84024 0.0
C393 C 0.83057 0.78633 0.83226 0.0
C394 C 0.83638 0.79689 0.84896 0.0
C395 C 0.79775 0.79721 0.84982 0.0
C396 C 0.77565 0.79379 0.84181 0.0
C397 C 0.79194 0.78836 0.83309 0.0
C398 C 0.78019 0.79831 0.85912 0.0
C399 C 0.75434 0.82617 0.86104 0.0
C400 C 0.78808 0.77126 0.86598 0.0
C401 C 0.81351 0.73992 0.86418 0.0
C402 C 0.80676 0.71528 0.85677 0.0
C403 C 0.83099 0.68596 0.85508 0.0
C404 C 0.86189 0.68081 0.8608 0.0
C405 C 0.86856 0.7049 0.86825 0.0
C406 C 0.84444 0.73431 0.86997 0.0
C407 C 0.66229 0.784 0.89255 0.0
C408 C 0.68015 0.78072 0.90124 0.0
C409 C 0.68266 0.7916 0.8845 0.0
C410 C 0.72112 0.79627 0.88503 0.0
C411 C 0.73885 0.79406 0.89373 0.0
C412 C 0.71853 0.78645 0.90178 0.0
C413 C 0.74315 0.79988 0.8764 0.0
C414 C 0.7698 0.7727 0.87458 0.0
C415 C 0.73573 0.82741 0.86963 0.0
C416 C 0.70905 0.85778 0.87139 0.0
C417 C 0.71216 0.87985 0.87945 0.0
C418 C 0.68682 0.90825 0.8811 0.0
C419 C 0.65834 0.91501 0.87472 0.0
C420 C 0.65519 0.89342 0.86666 0.0
C421 C 0.68044 0.86496 0.86497 0.0
H422 H 0.63874 0.93701 0.87602 0.0
H423 H 0.88062 0.65809 0.85948 0.0
H424 H 0.72555 0.76085 0.57651 0.0
H425 H 0.71106 0.7288 0.59108 0.0
H426 H 0.7026 0.83352 0.60535 0.0
H427 H 0.71778 0.86582 0.59082 0.0
H428 H 0.74618 0.78698 0.61452 0.0
H429 H 0.62567 0.78124 0.60079 0.0
H430 H 0.57969 0.76812 0.58849 0.0
H431 H 0.60819 0.65299 0.58932 0.0
H432 H 0.65474 0.66549 0.60154 0.0
H433 H 0.69046 0.71409 0.6572 0.0
H434 H 0.6829 0.74659 0.64237 0.0
H435 H 0.70239 0.64503 0.62738 0.0
H436 H 0.7095 0.61201 0.64224 0.0
H437 H 0.6492 0.69129 0.61878 0.0
H438 H 0.77293 0.69798 0.63131 0.0
H439 H 0.8191 0.71037 0.64361 0.0
H440 H 0.78466 0.82384 0.64476 0.0
H441 H 0.73782 0.81193 0.63256 0.0
C442 C 0.72033 0.77708 0.58273 0.0
C443 C 0.723 0.81582 0.58256 0.0
C444 C 0.71177 0.75873 0.59103 0.0
C445 C 0.70536 0.77884 0.59925 0.0
C446 C 0.70736 0.81756 0.59906 0.0
C447 C 0.71608 0.83593 0.59077 0.0
C448 C 0.69961 0.75936 0.60821 0.0
C449 C 0.72449 0.76661 0.6155 0.0
C450 C 0.67198 0.73201 0.60937 0.0
C451 C 0.64393 0.72437 0.60203 0.0
C452 C 0.62236 0.75317 0.5983 0.0
C453 C 0.59614 0.74583 0.59135 0.0
C454 C 0.59108 0.70976 0.58811 0.0
C455 C 0.61216 0.68092 0.59183 0.0
C456 C 0.63844 0.68811 0.59878 0.0
C457 C 0.69253 0.69851 0.65076 0.0
C458 C 0.70128 0.6607 0.65085 0.0
C459 C 0.68809 0.71709 0.6423 0.0
C460 C 0.69273 0.69823 0.63383 0.0
C461 C 0.69881 0.65996 0.63388 0.0
C462 C 0.70306 0.64124 0.64236 0.0
C463 C 0.6956 0.71923 0.62502 0.0
C464 C 0.6705 0.71204 0.61778 0.0
C465 C 0.7231 0.74663 0.62386 0.0
C466 C 0.75163 0.75397 0.63109 0.0
C467 C 0.77502 0.7255 0.63423 0.0
C468 C 0.80133 0.73244 0.64118 0.0
C469 C 0.80474 0.76785 0.64499 0.0
C470 C 0.78194 0.79641 0.64182 0.0
C471 C 0.75552 0.78959 0.63489 0.0
H472 H 0.82512 0.77317 0.65037 0.0
H473 H 0.57077 0.70414 0.58273 0.0
H474 H 0.27417 0.20582 0.90666 0.0
H475 H 0.24168 0.19628 0.8919 0.0
H476 H 0.34603 0.18111 0.87779 0.0
H477 H 0.37883 0.19129 0.89253 0.0
H478 H 0.30526 0.23248 0.86953 0.0
H479 H 0.28527 0.1093 0.88033 0.0
H480 H 0.26663 0.06062 0.89144 0.0
H481 H 0.15528 0.10163 0.89124 0.0
H482 H 0.17334 0.15092 0.88022 0.0
H483 H 0.22469 0.20248 0.82577 0.0
H484 H 0.25754 0.18796 0.84021 0.0
H485 H 0.15865 0.20981 0.85613 0.0
H486 H 0.1252 0.22378 0.84163 0.0
H487 H 0.1987 0.14989 0.86303 0.0
H488 H 0.22027 0.27635 0.85379 0.0
H489 H 0.23835 0.32582 0.84283 0.0
H490 H 0.3469 0.27876 0.84047 0.0
H491 H 0.32926 0.22868 0.85132 0.0
C492 C 0.29016 0.19991 0.90045 0.0
C493 C 0.329 0.19972 0.90071 0.0
C494 C 0.27157 0.19417 0.89203 0.0
C495 C 0.29149 0.18776 0.88378 0.0
C496 C 0.33022 0.18599 0.8841 0.0
C497 C 0.34884 0.19188 0.89251 0.0
C498 C 0.27218 0.18726 0.87468 0.0
C499 C 0.2825 0.21382 0.86803 0.0
C500 C 0.24177 0.16368 0.87288 0.0
C501 C 0.23075 0.13401 0.8795 0.0
C502 C 0.25687 0.10814 0.88271 0.0
C503 C 0.24639 0.08039 0.88898 0.0
C504 C 0.20981 0.07808 0.89206 0.0
C505 C 0.18361 0.10347 0.88885 0.0
C506 C 0.19394 0.13129 0.88258 0.0
C507 C 0.20981 0.20388 0.83233 0.0
C508 C 0.17257 0.21483 0.83262 0.0
C509 C 0.22858 0.19548 0.84056 0.0
C510 C 0.21059 0.19835 0.84921 0.0
C511 C 0.17293 0.20749 0.8495 0.0
C512 C 0.15399 0.21568 0.84124 0.0
C513 C 0.23195 0.195 0.85795 0.0
C514 C 0.22185 0.16803 0.86452 0.0
C515 C 0.26256 0.21828 0.85974 0.0
C516 C 0.27332 0.24857 0.85328 0.0
C517 C 0.2479 0.27641 0.85088 0.0
C518 C 0.25808 0.30457 0.84469 0.0
C519 C 0.29372 0.30537 0.84093 0.0
C520 C 0.31929 0.27807 0.84337 0.0
C521 C 0.30922 0.2498 0.84954 0.0
H522 H 0.30155 0.3272 0.83614 0.0
H523 H 0.20175 0.05658 0.89692 0.0
H524 H 0.80435 0.62807 0.09081 0.0
H525 H 0.81812 0.66247 0.10511 0.0
H526 H 0.78431 0.76375 0.09163 0.0
H527 H 0.77156 0.72972 0.07723 0.0
H528 H 0.8421 0.77567 0.10324 0.0
H529 H 0.7234 0.71485 0.10463 0.0
H530 H 0.68102 0.66154 0.10373 0.0
H531 H 0.74023 0.60786 0.12596 0.0
H532 H 0.78328 0.66068 0.1269 0.0
H533 H 0.7776 0.87816 0.14288 0.0
H534 H 0.78839 0.84669 0.12796 0.0
H535 H 0.82151 0.74819 0.14281 0.0
H536 H 0.81 0.77904 0.15767 0.0
H537 H 0.7687 0.73391 0.13059 0.0
H538 H 0.88383 0.79964 0.13023 0.0
H539 H 0.92405 0.85457 0.13111 0.0
H540 H 0.86978 0.90109 0.10711 0.0
H541 H 0.82884 0.84667 0.10616 0.0
C542 C 0.80032 0.65773 0.09087 0.0
C543 C 0.78634 0.67619 0.08298 0.0
C544 C 0.80823 0.67732 0.09902 0.0
C545 C 0.80157 0.7155 0.09945 0.0
C546 C 0.78957 0.73428 0.09143 0.0
C547 C 0.78209 0.71478 0.08323 0.0
C548 C 0.8036 0.73518 0.10847 0.0
C549 C 0.82598 0.76674 0.10923 0.0
C550 C 0.78281 0.72316 0.11628 0.0
C551 C 0.75678 0.69152 0.11577 0.0
C552 C 0.72752 0.69156 0.10928 0.0
C553 C 0.70337 0.66145 0.10877 0.0
C554 C 0.708 0.63128 0.11476 0.0
C555 C 0.73673 0.63121 0.12131 0.0
C556 C 0.761 0.66123 0.12184 0.0
C557 C 0.78768 0.84998 0.14294 0.0
C558 C 0.79249 0.83083 0.1514 0.0
C559 C 0.79407 0.83213 0.13443 0.0
C560 C 0.80585 0.79516 0.13431 0.0
C561 C 0.81233 0.77669 0.14277 0.0
C562 C 0.80564 0.79433 0.15125 0.0
C563 C 0.80748 0.77436 0.12544 0.0
C564 C 0.78539 0.74265 0.12468 0.0
C565 C 0.82831 0.78651 0.11765 0.0
C566 C 0.85305 0.81918 0.11817 0.0
C567 C 0.88027 0.82171 0.12518 0.0
C568 C 0.90324 0.85273 0.12568 0.0
C569 C 0.89942 0.88134 0.11918 0.0
C570 C 0.87268 0.87893 0.11215 0.0
C571 C 0.84962 0.84797 0.11162 0.0
H572 H 0.91722 0.90533 0.11958 0.0
H573 H 0.68927 0.608 0.11435 0.0
H574 H 0.12085 0.3067 0.39249 0.0
H575 H 0.15557 0.31043 0.37789 0.0
H576 H 0.25796 0.30124 0.3932 0.0
H577 H 0.22344 0.29761 0.40789 0.0
H578 H 0.26089 0.34974 0.37705 0.0
H579 H 0.22517 0.22614 0.38587 0.0
H580 H 0.1809 0.17846 0.39103 0.0
H581 H 0.11613 0.19588 0.36622 0.0
H582 H 0.1597 0.24419 0.361 0.0
H583 H 0.36832 0.27103 0.33984 0.0
H584 H 0.33884 0.284 0.35491 0.0
H585 H 0.23178 0.28292 0.34158 0.0
H586 H 0.26082 0.26967 0.32657 0.0
H587 H 0.23356 0.24064 0.35715 0.0
H588 H 0.27045 0.36309 0.348 0.0
H589 H 0.31457 0.41098 0.34289 0.0
H590 H 0.37753 0.39584 0.36808 0.0
H591 H 0.33408 0.3474 0.37328 0.0
C592 C 0.15077 0.30623 0.39278 0.0
C593 C 0.16945 0.30113 0.4013 0.0
C594 C 0.17052 0.30848 0.38444 0.0
C595 C 0.20917 0.30558 0.38451 0.0
C596 C 0.22809 0.30349 0.39305 0.0
C597 C 0.20833 0.30119 0.40141 0.0
C598 C 0.22913 0.29969 0.37567 0.0
C599 C 0.25532 0.32578 0.37271 0.0
C600 C 0.22142 0.26849 0.37005 0.0
C601 C 0.19549 0.23903 0.37309 0.0
C602 C 0.20133 0.22001 0.38155 0.0
C603 C 0.17639 0.19285 0.38448 0.0
C604 C 0.14567 0.18421 0.37897 0.0
C605 C 0.13991 0.20264 0.3705 0.0
C606 C 0.16472 0.22991 0.36755 0.0
C607 C 0.33851 0.27362 0.34014 0.0
C608 C 0.31682 0.26923 0.33205 0.0
C609 C 0.32178 0.28125 0.34872 0.0
C610 C 0.28322 0.28467 0.34931 0.0
C611 C 0.2616 0.2804 0.34124 0.0
C612 C 0.27825 0.27283 0.33268 0.0
C613 C 0.265 0.29103 0.35838 0.0
C614 C 0.23922 0.26474 0.36144 0.0
C615 C 0.27322 0.322 0.36406 0.0
C616 C 0.29922 0.35132 0.36098 0.0
C617 C 0.29387 0.36974 0.35242 0.0
C618 C 0.31873 0.39703 0.34951 0.0
C619 C 0.34889 0.40637 0.35514 0.0
C620 C 0.35418 0.38852 0.36371 0.0
C621 C 0.32944 0.36117 0.36665 0.0
H622 H 0.36811 0.42749 0.35288 0.0
H623 H 0.12639 0.16317 0.38125 0.0
H624 H 0.29749 0.25737 0.19886 0.0
H625 H 0.29368 0.2777 0.21517 0.0
H626 H 0.23059 0.18019 0.22206 0.0
H627 H 0.2337 0.15996 0.20585 0.0
H628 H 0.20488 0.2411 0.23129 0.0
H629 H 0.32282 0.18107 0.22506 0.0
H630 H 0.38221 0.17379 0.21679 0.0
H631 H 0.41417 0.28348 0.22494 0.0
H632 H 0.35471 0.29154 0.23316 0.0
H633 H 0.2466 0.19167 0.278 0.0
H634 H 0.23409 0.19922 0.26129 0.0
H635 H 0.30592 0.2945 0.26054 0.0
H636 H 0.31935 0.28648 0.27713 0.0
H637 H 0.32533 0.2475 0.24782 0.0
H638 H 0.21137 0.30222 0.25682 0.0
H639 H 0.15237 0.30803 0.26531 0.0
H640 H 0.11251 0.20873 0.25232 0.0
H641 H 0.17148 0.20198 0.24385 0.0
C642 C 0.2825 0.24046 0.20384 0.0
C643 C 0.26636 0.2068 0.2011 0.0
C644 C 0.28028 0.25216 0.21312 0.0
C645 C 0.26212 0.23024 0.2198 0.0
C646 C 0.24463 0.19752 0.217 0.0
C647 C 0.24675 0.18586 0.20774 0.0
C648 C 0.26411 0.23922 0.22985 0.0
C649 C 0.23113 0.24257 0.23494 0.0
C650 C 0.29843 0.24198 0.23452 0.0
C651 C 0.33419 0.23707 0.22962 0.0
C652 C 0.34241 0.20372 0.22503 0.0
C653 C 0.37609 0.19944 0.22036 0.0
C654 C 0.40189 0.2282 0.22032 0.0
C655 C 0.39411 0.26126 0.22496 0.0
C656 C 0.36044 0.2657 0.22963 0.0
C657 C 0.2592 0.21457 0.2743 0.0
C658 C 0.28434 0.23815 0.27881 0.0
C659 C 0.25182 0.21905 0.26477 0.0
C660 C 0.26894 0.24757 0.25969 0.0
C661 C 0.2925 0.27228 0.26433 0.0
C662 C 0.30023 0.26756 0.2738 0.0
C663 C 0.26601 0.24876 0.24938 0.0
C664 C 0.29893 0.24712 0.24421 0.0
C665 C 0.23161 0.24753 0.24468 0.0
C666 C 0.196 0.25149 0.24974 0.0
C667 C 0.19014 0.28146 0.25582 0.0
C668 C 0.15667 0.28495 0.26062 0.0
C669 C 0.12873 0.25874 0.25937 0.0
C670 C 0.13418 0.22901 0.25329 0.0
C671 C 0.16761 0.22537 0.24848 0.0
H672 H 0.10284 0.26149 0.26309 0.0
H673 H 0.42796 0.22483 0.2167 0.0
H674 H 0.86052 0.74373 0.4545 0.0
H675 H 0.8487 0.74555 0.47128 0.0
H676 H 0.76095 0.82433 0.46685 0.0
H677 H 0.77252 0.82274 0.44997 0.0
H678 H 0.81123 0.84418 0.48093 0.0
H679 H 0.73809 0.73927 0.47193 0.0
H680 H 0.7265 0.67929 0.4643 0.0
H681 H 0.80917 0.62832 0.48159 0.0
H682 H 0.82164 0.68815 0.48924 0.0
H683 H 0.74078 0.8425 0.52643 0.0
H684 H 0.745 0.83468 0.50955 0.0
H685 H 0.82791 0.75027 0.51331 0.0
H686 H 0.82347 0.75749 0.53032 0.0
H687 H 0.77871 0.7327 0.49947 0.0
H688 H 0.85424 0.83597 0.508 0.0
H689 H 0.86864 0.8955 0.51556 0.0
H690 H 0.78513 0.94905 0.49905 0.0
H691 H 0.76984 0.88968 0.49149 0.0
C692 C 0.83866 0.76147 0.45707 0.0
C693 C 0.81745 0.78317 0.45092 0.0
C694 C 0.83184 0.76226 0.46665 0.0
C695 C 0.80376 0.78477 0.47024 0.0
C696 C 0.78264 0.80667 0.46416 0.0
C697 C 0.78925 0.8057 0.45454 0.0
C698 C 0.7975 0.78631 0.48041 0.0
C699 C 0.80346 0.82001 0.48498 0.0
C700 C 0.78863 0.75436 0.48565 0.0
C701 C 0.78103 0.71828 0.4811 0.0
C702 C 0.75402 0.71534 0.47405 0.0
C703 C 0.74725 0.68135 0.46973 0.0
C704 C 0.76715 0.65003 0.47244 0.0
C705 C 0.7938 0.65262 0.47949 0.0
C706 C 0.8007 0.68655 0.48383 0.0
C707 C 0.75978 0.82207 0.52369 0.0
C708 C 0.78217 0.80091 0.52969 0.0
C709 C 0.76216 0.81769 0.51404 0.0
C710 C 0.78725 0.79242 0.51022 0.0
C711 C 0.8085 0.77005 0.51617 0.0
C712 C 0.80599 0.77426 0.52586 0.0
C713 C 0.79225 0.79064 0.49999 0.0
C714 C 0.78623 0.75692 0.49541 0.0
C715 C 0.80146 0.82251 0.49473 0.0
C716 C 0.81064 0.85829 0.49925 0.0
C717 C 0.83873 0.86038 0.50604 0.0
C718 C 0.84709 0.8941 0.51031 0.0
C719 C 0.82774 0.92602 0.5078 0.0
C720 C 0.80006 0.92429 0.501 0.0
C721 C 0.79155 0.89061 0.49671 0.0
H722 H 0.83426 0.9521 0.51112 0.0
H723 H 0.76187 0.62374 0.46908 0.0
H724 H 0.26926 0.34109 0.70566 0.0
H725 H 0.26708 0.32655 0.72232 0.0
H726 H 0.18145 0.24602 0.71719 0.0
H727 H 0.18349 0.26029 0.70044 0.0
H728 H 0.16421 0.29811 0.73095 0.0
H729 H 0.26327 0.21587 0.72322 0.0
H730 H 0.32312 0.19814 0.71632 0.0
H731 H 0.37896 0.27607 0.73404 0.0
H732 H 0.31935 0.29467 0.74096 0.0
H733 H 0.1521 0.23248 0.77674 0.0
H734 H 0.16371 0.23358 0.75997 0.0
H735 H 0.25333 0.31058 0.76414 0.0
H736 H 0.24225 0.30931 0.78106 0.0
H737 H 0.26936 0.25756 0.75079 0.0
H738 H 0.17223 0.3431 0.75771 0.0
H739 H 0.11319 0.36357 0.76457 0.0
H740 H 0.05471 0.28305 0.74819 0.0
H741 H 0.11352 0.26172 0.74133 0.0
C742 C 0.25015 0.32005 0.70806 0.0
C743 C 0.22633 0.30198 0.70177 0.0
C744 C 0.24917 0.31161 0.71756 0.0
C745 C 0.2243 0.28509 0.72093 0.0
C746 C 0.20094 0.26647 0.71467 0.0
C747 C 0.20215 0.27463 0.70513 0.0
C748 C 0.22065 0.2792 0.73108 0.0
C749 C 0.18694 0.28853 0.73527 0.0
C750 C 0.25086 0.26803 0.73669 0.0
C751 C 0.28677 0.2569 0.73255 0.0
C752 C 0.28826 0.22947 0.72559 0.0
C753 C 0.32216 0.21921 0.72169 0.0
C754 C 0.35481 0.23603 0.72472 0.0
C755 C 0.35364 0.26309 0.73169 0.0
C756 C 0.31981 0.27347 0.73561 0.0
C757 C 0.17447 0.24952 0.77412 0.0
C758 C 0.19596 0.27125 0.78021 0.0
C759 C 0.18105 0.25006 0.76454 0.0
C760 C 0.20894 0.2726 0.76085 0.0
C761 C 0.23159 0.29309 0.7669 0.0
C762 C 0.22513 0.29244 0.77654 0.0
C763 C 0.21284 0.27625 0.75062 0.0
C764 C 0.24657 0.26679 0.74644 0.0
C765 C 0.18278 0.28771 0.74499 0.0
C766 C 0.14733 0.30055 0.74908 0.0
C767 C 0.14682 0.32955 0.75563 0.0
C768 C 0.11339 0.34135 0.75951 0.0
C769 C 0.08023 0.32455 0.75684 0.0
C770 C 0.08043 0.29599 0.75026 0.0
C771 C 0.1138 0.28405 0.74637 0.0
H772 H 0.05437 0.33373 0.75985 0.0
H773 H 0.38102 0.22804 0.72169 0.0
H774 H 0.75412 0.64944 0.02837 0.0
H775 H 0.75168 0.66336 0.0117 0.0
H776 H 0.67333 0.75073 0.01696 0.0
H777 H 0.67551 0.73698 0.03375 0.0
H778 H 0.65173 0.70209 0.00294 0.0
H779 H 0.75831 0.77366 0.01109 0.0
H780 H 0.81928 0.78503 0.01825 0.0
H781 H 0.86774 0.7021 0.00064 0.0
H782 H 0.80693 0.68984 -0.00654 0.0
H783 H 0.64936 0.76379 0.95646 0.0
H784 H 0.65813 0.76329 0.97335 0.0
H785 H 0.74331 0.68063 0.97049 0.0
H786 H 0.73533 0.68158 0.95347 0.0
H787 H 0.76154 0.73159 0.9835 0.0
H788 H 0.65617 0.6558 0.97638 0.0
H789 H 0.59562 0.64147 0.96932 0.0
H790 H 0.54543 0.72881 0.98517 0.0
H791 H 0.60583 0.74399 -0.00777 0.0
C792 C 0.73644 0.67174 0.02601 0.0
C793 C 0.71487 0.69205 0.03236 0.0
C794 C 0.73532 0.6798 0.01649 0.0
C795 C 0.71263 0.70827 0.01316 0.0
C796 C 0.69115 0.72876 0.01946 0.0
C797 C 0.69244 0.72089 0.02902 0.0
C798 C 0.70985 0.71497 0.00301 0.0
C799 C 0.67554 0.7093 -0.0013 0.0
C800 C 0.74129 0.72319 -0.00248 0.0
C801 C 0.77797 0.73063 0.00179 0.0
C802 C 0.7819 0.75764 0.00879 0.0
C803 C 0.81645 0.76428 0.01285 0.0
C804 C 0.84735 0.74425 0.00992 0.0
C805 C 0.84378 0.71759 0.00291 0.0
C806 C 0.80928 0.71081 -0.00116 0.0
C807 C 0.67011 0.74558 0.9594 0.0
C808 C 0.69137 0.72234 0.95366 0.0
C809 C 0.67505 0.74535 0.96906 0.0
C810 C 0.70087 0.72144 0.97315 0.0
C811 C 0.72315 0.69919 0.96743 0.0
C812 C 0.71848 0.69966 0.95773 0.0
C813 C 0.70341 0.71858 0.98343 0.0
C814 C 0.73765 0.7248 0.98776 0.0
C815 C 0.67198 0.71048 0.98896 0.0
C816 C 0.63559 0.70128 0.98476 0.0
C817 C 0.63228 0.67213 0.97831 0.0
C818 C 0.59798 0.66382 0.97432 0.0
C819 C 0.56672 0.68428 0.97678 0.0
C820 C 0.56968 0.71302 0.98326 0.0
C821 C 0.60393 0.72147 0.98727 0.0
H822 H 0.54018 0.67781 0.97368 0.0
H823 H 0.87408 0.74943 0.01307 0.0
H824 H 0.30938 0.27221 0.0318 0.0
H825 H 0.31624 0.26098 0.01501 0.0
H826 H 0.23885 0.34859 0.00909 0.0
H827 H 0.23171 0.36007 0.02582 0.0
H828 H 0.22641 0.28474 -0.00144 0.0
H829 H 0.32655 0.36628 0.00675 0.0
H830 H 0.38104 0.38617 0.01582 0.0
H831 H 0.43941 0.28841 0.0074 0.0
H832 H 0.38503 0.26767 -0.00162 0.0
H833 H 0.26826 0.3121 0.95031 0.0
H834 H 0.25645 0.31949 0.96705 0.0
H835 H 0.34208 0.24014 0.97325 0.0
H836 H 0.35457 0.23315 0.95661 0.0
H837 H 0.34955 0.29968 0.98375 0.0
H838 H 0.25038 0.21799 0.97539 0.0
H839 H 0.19599 0.19724 0.96641 0.0
H840 H 0.13593 0.29354 0.97514 0.0
H841 H 0.19018 0.31513 0.98407 0.0
C842 C 0.29371 0.28899 0.02693 0.0
C843 C 0.27018 0.31717 0.03012 0.0
C844 C 0.29772 0.28258 0.01736 0.0
C845 C 0.27822 0.30417 0.01087 0.0
C846 C 0.25409 0.3317 0.01403 0.0
C847 C 0.25024 0.33831 0.02358 0.0
C848 C 0.28365 0.29867 0.00075 0.0
C849 C 0.2532 0.28835 -0.00473 0.0
C850 C 0.3188 0.30276 -0.00342 0.0
C851 C 0.35157 0.31524 0.00197 0.0
C852 C 0.35088 0.34887 0.0069 0.0
C853 C 0.38177 0.36033 0.01202 0.0
C854 C 0.41363 0.33852 0.01221 0.0
C855 C 0.41469 0.30525 0.00726 0.0
C856 C 0.38385 0.29364 0.00214 0.0
C857 C 0.28438 0.29607 0.95524 0.0
C858 C 0.31242 0.27216 0.95214 0.0
C859 C 0.27751 0.3002 0.96479 0.0
C860 C 0.29825 0.28015 0.97137 0.0
C861 C 0.32585 0.25592 0.96828 0.0
C862 C 0.33291 0.25196 0.95876 0.0
C863 C 0.29234 0.28543 0.9815 0.0
C864 C 0.32273 0.29588 0.987 0.0
C865 C 0.25715 0.28129 0.98568 0.0
C866 C 0.22448 0.26836 0.98032 0.0
C867 C 0.22569 0.2349 0.97533 0.0
C868 C 0.19486 0.22295 0.97026 0.0
C869 C 0.16256 0.24411 0.97018 0.0
C870 C 0.16099 0.27721 0.97519 0.0
C871 C 0.19176 0.2893 0.98027 0.0
H872 H 0.13872 0.23481 0.96625 0.0
H873 H 0.43752 0.34744 0.01618 0.0
H874 H 0.65513 0.72399 0.27542 0.0
H875 H 0.67576 0.72313 0.25921 0.0
H876 H 0.77062 0.78935 0.2666 0.0
H877 H 0.74995 0.79081 0.28288 0.0
H878 H 0.73218 0.81847 0.25234 0.0
H879 H 0.78192 0.70004 0.25988 0.0
H880 H 0.78142 0.6368 0.26631 0.0
H881 H 0.69593 0.6061 0.24696 0.0
H882 H 0.69553 0.66931 0.24049 0.0
H883 H 0.79181 0.82353 0.20605 0.0
H884 H 0.79378 0.80723 0.2226 0.0
H885 H 0.69691 0.73892 0.21909 0.0
H886 H 0.69546 0.75422 0.20239 0.0
H887 H 0.74485 0.70899 0.23168 0.0
H888 H 0.68805 0.82767 0.22599 0.0
H889 H 0.68531 0.89104 0.21965 0.0
H890 H 0.78084 0.92102 0.23582 0.0
H891 H 0.78441 0.85764 0.24216 0.0
C892 C 0.68061 0.73808 0.27364 0.0
C893 C 0.70073 0.75779 0.28042 0.0
C894 C 0.69254 0.73723 0.26438 0.0
C895 C 0.7249 0.75585 0.26174 0.0
C896 C 0.74565 0.77466 0.26853 0.0
C897 C 0.73375 0.77553 0.27781 0.0
C898 C 0.73462 0.75901 0.25175 0.0
C899 C 0.73589 0.79453 0.24786 0.0
C900 C 0.73826 0.72769 0.24591 0.0
C901 C 0.73855 0.68954 0.24974 0.0
C902 C 0.76282 0.67989 0.25704 0.0
C903 C 0.76273 0.64402 0.26068 0.0
C904 C 0.73862 0.61746 0.25705 0.0
C905 C 0.7146 0.6267 0.24976 0.0
C906 C 0.71456 0.66254 0.24609 0.0
C907 C 0.7712 0.80465 0.20877 0.0
C908 C 0.74304 0.79065 0.203 0.0
C909 C 0.77243 0.79531 0.21821 0.0
C910 C 0.74504 0.77253 0.22207 0.0
C911 C 0.71823 0.75665 0.21622 0.0
C912 C 0.71731 0.76555 0.20671 0.0
C913 C 0.74216 0.76839 0.23232 0.0
C914 C 0.74191 0.73283 0.23622 0.0
C915 C 0.73905 0.79965 0.23821 0.0
C916 C 0.73674 0.83784 0.23447 0.0
C917 C 0.70862 0.84772 0.22814 0.0
C918 C 0.70689 0.88364 0.22456 0.0
C919 C 0.73295 0.91001 0.22731 0.0
C920 C 0.76072 0.90054 0.23368 0.0
C921 C 0.7626 0.86464 0.23727 0.0
H922 H 0.73158 0.9378 0.22452 0.0
H923 H 0.73858 0.58971 0.25989 0.0
H924 H 0.1436 0.26749 0.45635 0.0
H925 H 0.15576 0.26035 0.47305 0.0
H926 H 0.23232 0.17203 0.4672 0.0
H927 H 0.22068 0.17924 0.45038 0.0
H928 H 0.17699 0.15725 0.48154 0.0
H929 H 0.26828 0.24831 0.47288 0.0
H930 H 0.28959 0.3065 0.46569 0.0
H931 H 0.21882 0.36839 0.48399 0.0
H932 H 0.19667 0.31049 0.4912 0.0
H933 H 0.25843 0.13806 0.52573 0.0
H934 H 0.24929 0.14862 0.50908 0.0
H935 H 0.18516 0.24619 0.51513 0.0
H936 H 0.19446 0.23608 0.53192 0.0
H937 H 0.23331 0.25702 0.50066 0.0
H938 H 0.1413 0.16945 0.50937 0.0
H939 H 0.11645 0.11286 0.51665 0.0
H940 H 0.18315 0.04628 0.49843 0.0
H941 H 0.20885 0.10252 0.49113 0.0
C942 C 0.16308 0.24656 0.4586 0.0
C943 C 0.18122 0.22388 0.45207 0.0
C944 C 0.17005 0.24264 0.46813 0.0
C945 C 0.195 0.21581 0.47129 0.0
C946 C 0.21301 0.19293 0.46483 0.0
C947 C 0.20645 0.19716 0.45526 0.0
C948 C 0.20168 0.2114 0.48139 0.0
C949 C 0.18985 0.17874 0.48572 0.0
C950 C 0.21714 0.24018 0.48681 0.0
C951 C 0.23055 0.27503 0.48251 0.0
C952 C 0.25701 0.2743 0.47531 0.0
C953 C 0.2693 0.30724 0.47124 0.0
C954 C 0.2555 0.34111 0.47436 0.0
C955 C 0.22945 0.34212 0.48157 0.0
C956 C 0.21705 0.30926 0.48566 0.0
C957 C 0.24248 0.16189 0.52355 0.0
C958 C 0.22691 0.18611 0.53015 0.0
C959 C 0.23722 0.16778 0.51403 0.0
C960 C 0.2161 0.19782 0.51092 0.0
C961 C 0.20143 0.22275 0.51744 0.0
C962 C 0.20672 0.2169 0.527 0.0
C963 C 0.209 0.20265 0.50083 0.0
C964 C 0.22056 0.23544 0.4965 0.0
C965 C 0.19276 0.17419 0.49542 0.0
C966 C 0.17728 0.14024 0.49976 0.0
C967 C 0.15091 0.14275 0.50697 0.0
C968 C 0.13662 0.11074 0.51109 0.0
C969 C 0.14828 0.076 0.50802 0.0
C970 C 0.17418 0.07322 0.50081 0.0
C971 C 0.1886 0.10515 0.49667 0.0
H972 H 0.13718 0.05126 0.51122 0.0
H973 H 0.26504 0.36659 0.47121 0.0
H974 H 0.72258 0.66021 0.70591 0.0
H975 H 0.72617 0.67791 0.72234 0.0
H976 H 0.81381 0.75474 0.71592 0.0
H977 H 0.81028 0.73733 0.69937 0.0
H978 H 0.83034 0.70427 0.73024 0.0
H979 H 0.73457 0.78912 0.72207 0.0
H980 H 0.67537 0.80885 0.71514 0.0
H981 H 0.61661 0.73579 0.73357 0.0
H982 H 0.67553 0.71518 0.74053 0.0
H983 H 0.84536 0.77245 0.77579 0.0
H984 H 0.83323 0.77127 0.75906 0.0
H985 H 0.7423 0.69607 0.76348 0.0
H986 H 0.75401 0.69729 0.78038 0.0
H987 H 0.72738 0.75025 0.75 0.0
H988 H 0.82179 0.66144 0.75715 0.0
H989 H 0.88034 0.63957 0.76404 0.0
H990 H 0.94084 0.71754 0.74734 0.0
H991 H 0.88254 0.74026 0.74044 0.0
C992 C 0.74241 0.68113 0.70797 0.0
C993 C 0.76637 0.69721 0.70138 0.0
C994 C 0.7442 0.6914 0.71734 0.0
C995 C 0.77007 0.71775 0.72029 0.0
C996 C 0.79355 0.73446 0.71372 0.0
C997 C 0.79149 0.72452 0.7043 0.0
C998 C 0.77461 0.72518 0.73035 0.0
C999 C 0.80814 0.71508 0.73454 0.0
C1000 C 0.74507 0.73807 0.73594 0.0
C1001 C 0.70954 0.75037 0.73177 0.0
C1002 C 0.70907 0.777 0.72459 0.0
C1003 C 0.67555 0.7884 0.72067 0.0
C1004 C 0.64226 0.77353 0.7239 0.0
C1005 C 0.64243 0.74727 0.73107 0.0
C1006 C 0.67588 0.73575 0.73502 0.0
C1007 C 0.82258 0.75579 0.77325 0.0
C1008 C 0.80093 0.7345 0.7794 0.0
C1009 C 0.8157 0.75524 0.76368 0.0
C1010 C 0.78728 0.73318 0.76006 0.0
C1011 C 0.76445 0.71319 0.76618 0.0
C1012 C 0.77125 0.71381 0.77581 0.0
C1013 C 0.7831 0.72934 0.74986 0.0
C1014 C 0.74968 0.73987 0.74567 0.0
C1015 C 0.81263 0.71652 0.74425 0.0
C1016 C 0.84776 0.70283 0.74836 0.0
C1017 C 0.84754 0.67414 0.75501 0.0
C1018 C 0.88069 0.66155 0.7589 0.0
C1019 C 0.91428 0.67723 0.75615 0.0
C1020 C 0.91479 0.70547 0.74948 0.0
C1021 C 0.88171 0.7182 0.74557 0.0
H1022 H 0.93991 0.66744 0.75918 0.0
H1023 H 0.61633 0.7824 0.72085 0.0
H1024 H 0.11581 0.11352 0.18587 0.0
H1025 H 0.05706 0.08356 0.18911 0.0
H1026 H 0.11101 0.97716 0.18925 0.0
H1027 H 0.17008 0.00713 0.18561 0.0
H1028 H 0.05277 0.97355 0.17906 0.0
H1029 H 0.07508 0.01875 0.20973 0.0
H1030 H 0.09139 0.06404 0.22193 0.0
H1031 H 0.99742 0.1302 0.21444 0.0
H1032 H 0.9808 0.08559 0.2021 0.0
H1033 H 0.88899 0.88321 0.19235 0.0
H1034 H 0.94983 0.91066 0.19475 0.0
H1035 H 0.90725 0.01723 0.18662 0.0
H1036 H 0.84595 0.98989 0.1841 0.0
H1037 H 0.96085 0.01649 0.20241 0.0
H1038 H 0.94465 0.97272 0.1705 0.0
H1039 H 0.92861 0.92553 0.15873 0.0
H1040 H 0.01313 0.85398 0.16956 0.0
H1041 H 0.02927 0.90058 0.18149 0.0
C1042 C 0.11534 0.08376 0.1867 0.0
C1043 C 0.14755 0.06263 0.18546 0.0
C1044 C 0.08169 0.06667 0.18864 0.0
C1045 C 0.07962 0.02813 0.18958 0.0
C1046 C 0.11197 0.00698 0.18858 0.0
C1047 C 0.14568 0.02408 0.18651 0.0
C1048 C 0.04314 0.00996 0.19075 0.0
C1049 C 0.03309 0.98245 0.18432 0.0
C1050 C 0.01703 0.02199 0.19749 0.0
C1051 C 0.02684 0.0489 0.20493 0.0
C1052 C 0.05803 0.04309 0.21063 0.0
C1053 C 0.06731 0.06863 0.21759 0.0
C1054 C 0.04549 0.10001 0.21895 0.0
C1055 C 0.0143 0.10588 0.21337 0.0
C1056 C 0.0049 0.08044 0.20641 0.0
C1057 C 0.89229 0.91264 0.19122 0.0
C1058 C 0.86279 0.93435 0.18791 0.0
C1059 C 0.92708 0.92822 0.19261 0.0
C1060 C 0.93294 0.96579 0.19078 0.0
C1061 C 0.90308 0.98814 0.18808 0.0
C1062 C 0.8682 0.97248 0.18661 0.0
C1063 C 0.97092 0.98068 0.1907 0.0
C1064 C 0.98101 0.00746 0.19729 0.0
C1065 C 0.9973 0.96777 0.18418 0.0
C1066 C 0.98788 0.93994 0.17695 0.0
C1067 C 0.95959 0.94679 0.17042 0.0
C1068 C 0.95052 0.92018 0.16371 0.0
C1069 C 0.96976 0.88673 0.16342 0.0
C1070 C 0.9982 0.87987 0.16981 0.0
C1071 C 0.00733 0.90638 0.17654 0.0
H1072 H 0.9627 0.86616 0.15822 0.0
H1073 H 0.05273 0.11975 0.22433 0.0
H1074 H 0.00531 0.35464 0.42505 0.0
H1075 H 0.98154 0.41687 0.42775 0.0
H1076 H 0.05636 0.42988 0.45106 0.0
H1077 H 0.08123 0.36814 0.44816 0.0
H1078 H 0.94982 0.45689 0.44067 0.0
H1079 H 0.09248 0.51605 0.45064 0.0
H1080 H 0.15862 0.50101 0.44876 0.0
H1081 H 0.13437 0.44173 0.42347 0.0
H1082 H 0.06821 0.45684 0.42514 0.0
H1083 H 0.91823 0.64671 0.44687 0.0
H1084 H 0.94277 0.58534 0.45041 0.0
H1085 H 0.01064 0.59033 0.42561 0.0
H1086 H 0.98734 0.65229 0.42226 0.0
H1087 H 0.04598 0.55449 0.43854 0.0
H1088 H 0.92265 0.54983 0.42568 0.0
H1089 H 0.85609 0.5645 0.42513 0.0
H1090 H 0.84089 0.51397 0.45205 0.0
H1091 H 0.9075 0.49939 0.45281 0.0
C1092 C 0.01611 0.37044 0.43088 0.0
C1093 C 0.04551 0.35687 0.4363 0.0
C1094 C 0.00248 0.40601 0.43243 0.0
C1095 C 0.01782 0.42833 0.43947 0.0
C1096 C 0.04477 0.41344 0.44545 0.0
C1097 C 0.05883 0.37813 0.4438 0.0
C1098 C 0.00821 0.4681 0.43989 0.0
C1099 C 0.97085 0.47824 0.44031 0.0
C1100 C 0.03563 0.49598 0.43924 0.0
C1101 C 0.0754 0.4872 0.43809 0.0
C1102 C 0.10132 0.4999 0.44467 0.0
C1103 C 0.13879 0.49136 0.44364 0.0
C1104 C 0.15066 0.47031 0.43602 0.0
C1105 C 0.12512 0.45791 0.42939 0.0
C1106 C 0.08764 0.46644 0.43037 0.0
C1107 C 0.939 0.635 0.44229 0.0
C1108 C 0.9506 0.654 0.43423 0.0
C1109 C 0.95285 0.59989 0.4443 0.0
C1110 C 0.97779 0.58286 0.43815 0.0
C1111 C 0.99128 0.60286 0.43044 0.0
C1112 C 0.97793 0.63826 0.42852 0.0
C1113 C 0.98756 0.54331 0.43924 0.0
C1114 C 0.02496 0.53319 0.4391 0.0
C1115 C 0.96012 0.51541 0.43982 0.0
C1116 C 0.92007 0.5239 0.43935 0.0
C1117 C 0.90513 0.54206 0.43151 0.0
C1118 C 0.86741 0.55033 0.43115 0.0
C1119 C 0.8443 0.54027 0.43856 0.0
C1120 C 0.85884 0.52181 0.44632 0.0
C1121 C 0.89656 0.51352 0.44672 0.0
H1122 H 0.8151 0.5467 0.43827 0.0
H1123 H 0.17967 0.46368 0.43524 0.0
H1124 H 0.37211 0.39706 0.69408 0.0
H1125 H 0.43154 0.42624 0.69725 0.0
H1126 H 0.39554 0.52461 0.6828 0.0
H1127 H 0.33596 0.49528 0.67946 0.0
H1128 H 0.45904 0.50038 0.67601 0.0
H1129 H 0.41155 0.52574 0.70637 0.0
H1130 H 0.38117 0.51219 0.72143 0.0
H1131 H 0.46717 0.43509 0.72832 0.0
H1132 H 0.49783 0.44776 0.71325 0.0
H1133 H 0.62401 0.59729 0.6972 0.0
H1134 H 0.56186 0.57283 0.69974 0.0
H1135 H 0.58801 0.47808 0.68271 0.0
H1136 H 0.65028 0.50242 0.68008 0.0
H1137 H 0.5277 0.5073 0.70605 0.0
H1138 H 0.518 0.47088 0.66688 0.0
H1139 H 0.5475 0.48852 0.65196 0.0
H1140 H 0.57207 0.59609 0.66302 0.0
H1141 H 0.54221 0.57928 0.67794 0.0
C1142 C 0.37654 0.42517 0.69172 0.0
C1143 C 0.34953 0.44377 0.68644 0.0
C1144 C 0.41047 0.4419 0.6936 0.0
C1145 C 0.41791 0.47761 0.69028 0.0
C1146 C 0.39029 0.49699 0.68541 0.0
C1147 C 0.35628 0.48024 0.68353 0.0
C1148 C 0.45581 0.4928 0.69095 0.0
C1149 C 0.47387 0.50209 0.6826 0.0
C1150 C 0.47515 0.49519 0.69955 0.0
C1151 C 0.45684 0.48752 0.70864 0.0
C1152 C 0.42384 0.50567 0.71106 0.0
C1153 C 0.4066 0.49819 0.71961 0.0
C1154 C 0.42219 0.47274 0.72582 0.0
C1155 C 0.45512 0.45478 0.7235 0.0
C1156 C 0.47247 0.46215 0.71496 0.0
C1157 C 0.61684 0.57079 0.69418 0.0
C1158 C 0.64174 0.55203 0.6883 0.0
C1159 C 0.5814 0.5568 0.69568 0.0
C1160 C 0.57031 0.52404 0.69129 0.0
C1161 C 0.5961 0.50365 0.68608 0.0
C1162 C 0.63163 0.51754 0.6846 0.0
C1163 C 0.53078 0.51388 0.6911 0.0
C1164 C 0.51258 0.50561 0.6995 0.0
C1165 C 0.51096 0.51297 0.68257 0.0
C1166 C 0.52822 0.52366 0.67355 0.0
C1167 C 0.52955 0.49834 0.66611 0.0
C1168 C 0.54635 0.50819 0.65766 0.0
C1169 C 0.56176 0.54336 0.65656 0.0
C1170 C 0.56024 0.56882 0.66389 0.0
C1171 C 0.54341 0.55913 0.67235 0.0
H1172 H 0.57481 0.5509 0.65002 0.0
H1173 H 0.4088 0.46699 0.73243 0.0
H1174 H 0.49073 0.14177 0.92726 0.0
H1175 H 0.51392 0.07886 0.92949 0.0
H1176 H 0.42119 0.05404 0.94738 0.0
H1177 H 0.39783 0.11685 0.94522 0.0
H1178 H 0.48696 0.02063 0.95338 0.0
H1179 H 0.41285 0.03203 0.9257 0.0
H1180 H 0.39395 0.05994 0.9107 0.0
H1181 H 0.50033 0.03504 0.89898 0.0
H1182 H 0.52007 0.00749 0.91397 0.0
H1183 H 0.50433 0.82679 0.928 0.0
H1184 H 0.47302 0.8858 0.93077 0.0
H1185 H 0.56999 0.92691 0.94497 0.0
H1186 H 0.601 0.86811 0.94241 0.0
H1187 H 0.49352 0.9497 0.92371 0.0
H1188 H 0.54751 0.99331 0.96049 0.0
H1189 H 0.56223 0.96431 0.97566 0.0
H1190 H 0.48756 0.87521 0.96957 0.0
H1191 H 0.47198 0.90391 0.95443 0.0
C1192 C 0.47574 0.12321 0.93184 0.0
C1193 C 0.44223 0.13405 0.93597 0.0
C1194 C 0.48895 0.08729 0.93308 0.0
C1195 C 0.46889 0.06179 0.93848 0.0
C1196 C 0.43695 0.07335 0.94317 0.0
C1197 C 0.42361 0.10918 0.94189 0.0
C1198 C 0.47919 0.02229 0.93845 0.0
C1199 C 0.48849 0.00501 0.94691 0.0
C1200 C 0.47992 0.00179 0.93004 0.0
C1201 C 0.46804 0.018 0.92098 0.0
C1202 C 0.4323 0.03276 0.91994 0.0
C1203 C 0.42142 0.04848 0.91144 0.0
C1204 C 0.44595 0.04934 0.9039 0.0
C1205 C 0.48137 0.03439 0.90483 0.0
C1206 C 0.49241 0.0187 0.91333 0.0
C1207 C 0.51865 0.84817 0.93188 0.0
C1208 C 0.55519 0.84292 0.93493 0.0
C1209 C 0.50079 0.88186 0.93343 0.0
C1210 C 0.51912 0.91069 0.93811 0.0
C1211 C 0.55506 0.9049 0.94148 0.0
C1212 C 0.57285 0.8713 0.93995 0.0
C1213 C 0.50242 0.94798 0.93862 0.0
C1214 C 0.49186 0.96502 0.93022 0.0
C1215 C 0.49996 0.96793 0.94712 0.0
C1216 C 0.50881 0.95066 0.95628 0.0
C1217 C 0.53408 0.96763 0.9624 0.0
C1218 C 0.54261 0.95122 0.971 0.0
C1219 C 0.52592 0.91789 0.97357 0.0
C1220 C 0.50058 0.90096 0.96756 0.0
C1221 C 0.49193 0.91726 0.95896 0.0
H1222 H 0.53258 0.90522 0.98022 0.0
H1223 H 0.43748 0.06152 0.89732 0.0
H1224 H 0.13851 0.49031 0.05824 0.0
H1225 H 0.07633 0.51449 0.05562 0.0
H1226 H 0.06197 0.43951 0.03243 0.0
H1227 H 0.12365 0.41425 0.03524 0.0
H1228 H 0.03749 0.54693 0.04269 0.0
H1229 H 0.97466 0.40588 0.03257 0.0
H1230 H 0.98761 0.33936 0.03457 0.0
H1231 H 0.04675 0.36214 0.05998 0.0
H1232 H 0.03374 0.42868 0.05819 0.0
H1233 H 0.84905 0.58433 0.03585 0.0
H1234 H 0.90992 0.55814 0.0325 0.0
H1235 H 0.9013 0.48917 0.05706 0.0
H1236 H 0.83981 0.51402 0.06018 0.0
H1237 H 0.93717 0.4535 0.04439 0.0
H1238 H 0.94449 0.57647 0.05731 0.0
H1239 H 0.9317 0.6434 0.05785 0.0
H1240 H 0.98425 0.65751 0.03115 0.0
H1241 H 0.99695 0.59054 0.03041 0.0
C1242 C 0.12237 0.47948 0.05247 0.0
C1243 C 0.13564 0.45005 0.04703 0.0
C1244 C 0.08683 0.49333 0.05097 0.0
C1245 C 0.06419 0.47822 0.04396 0.0
C1246 C 0.07863 0.45095 0.03802 0.0
C1247 C 0.11392 0.43668 0.03961 0.0
C1248 C 0.02467 0.48887 0.04343 0.0
C1249 C 0.01556 0.52649 0.04297 0.0
C1250 C 0.996 0.46224 0.04397 0.0
C1251 C 0.00361 0.42225 0.04517 0.0
C1252 C 0.99034 0.39664 0.03859 0.0
C1253 C 0.9977 0.35895 0.03969 0.0
C1254 C 0.01811 0.34655 0.04738 0.0
C1255 C 0.03107 0.37179 0.05401 0.0
C1256 C 0.02374 0.40949 0.05295 0.0
C1257 C 0.85985 0.56296 0.04041 0.0
C1258 C 0.83997 0.55147 0.04834 0.0
C1259 C 0.89469 0.54818 0.03852 0.0
C1260 C 0.91061 0.52244 0.04467 0.0
C1261 C 0.88968 0.50913 0.05223 0.0
C1262 C 0.85453 0.52337 0.05402 0.0
C1263 C 0.94997 0.51159 0.04374 0.0
C1264 C 0.95907 0.47392 0.04392 0.0
C1265 C 0.97867 0.53824 0.0433 0.0
C1266 C 0.97129 0.5785 0.04376 0.0
C1267 C 0.95311 0.59384 0.05153 0.0
C1268 C 0.9459 0.63176 0.05188 0.0
C1269 C 0.95705 0.65467 0.04452 0.0
C1270 C 0.97555 0.63971 0.03683 0.0
C1271 C 0.98278 0.60179 0.03645 0.0
H1272 H 0.95144 0.68403 0.0448 0.0
H1273 H 0.02381 0.31737 0.04821 0.0
H1274 H 0.60453 0.60575 0.29524 0.0
H1275 H 0.5734 0.5468 0.29309 0.0
H1276 H 0.46748 0.601 0.29527 0.0
H1277 H 0.49871 0.66027 0.29779 0.0
H1278 H 0.46859 0.54378 0.30609 0.0
H1279 H 0.5004 0.56326 0.27416 0.0
H1280 H 0.5406 0.5782 0.26076 0.0
H1281 H 0.60893 0.48438 0.26701 0.0
H1282 H 0.56944 0.46915 0.28054 0.0
H1283 H 0.36936 0.38204 0.295 0.0
H1284 H 0.39732 0.44271 0.29274 0.0
H1285 H 0.50552 0.39606 0.2973 0.0
H1286 H 0.47767 0.33485 0.29966 0.0
H1287 H 0.49988 0.45002 0.28204 0.0
H1288 H 0.46928 0.43492 0.3148 0.0
H1289 H 0.42741 0.42025 0.32789 0.0
H1290 H 0.35431 0.50744 0.31934 0.0
H1291 H 0.39551 0.52226 0.3061 0.0
C1292 C 0.57459 0.60529 0.29513 0.0
C1293 C 0.55403 0.63764 0.29672 0.0
C1294 C 0.5568 0.57152 0.29383 0.0
C1295 C 0.51807 0.56946 0.2939 0.0
C1296 C 0.49741 0.60195 0.29518 0.0
C1297 C 0.51525 0.63579 0.2966 0.0
C1298 C 0.49948 0.53297 0.29348 0.0
C1299 C 0.4749 0.52364 0.3007 0.0
C1300 C 0.50831 0.50628 0.28658 0.0
C1301 C 0.53207 0.51523 0.27841 0.0
C1302 C 0.52414 0.54596 0.27272 0.0
C1303 C 0.54679 0.55446 0.2651 0.0
C1304 C 0.57734 0.5323 0.26305 0.0
C1305 C 0.58526 0.50153 0.26861 0.0
C1306 C 0.56272 0.49292 0.27625 0.0
C1307 C 0.39916 0.38449 0.29543 0.0
C1308 C 0.42134 0.35373 0.2976 0.0
C1309 C 0.41503 0.41919 0.29413 0.0
C1310 C 0.45335 0.42376 0.29494 0.0
C1311 C 0.47584 0.39291 0.29666 0.0
C1312 C 0.45992 0.35808 0.29804 0.0
C1313 C 0.46943 0.46122 0.29464 0.0
C1314 C 0.49346 0.47053 0.28732 0.0
C1315 C 0.45989 0.48809 0.30139 0.0
C1316 C 0.43527 0.47943 0.3094 0.0
C1317 C 0.44412 0.45075 0.31566 0.0
C1318 C 0.42054 0.44245 0.32312 0.0
C1319 C 0.38816 0.46283 0.32444 0.0
C1320 C 0.37936 0.49164 0.31831 0.0
C1321 C 0.40283 0.50002 0.31083 0.0
H1322 H 0.36994 0.45635 0.33022 0.0
H1323 H 0.59485 0.53893 0.25714 0.0
H1324 H 0.67347 0.98438 0.54799 0.0
H1325 H 0.61404 0.01463 0.54498 0.0
H1326 H 0.55945 0.90851 0.5456 0.0
H1327 H 0.61867 0.87821 0.54814 0.0
H1328 H 0.52824 0.94808 0.53299 0.0
H1329 H 0.56322 0.96853 0.56508 0.0
H1330 H 0.60349 0.98949 0.57796 0.0
H1331 H 0.59943 0.10053 0.56738 0.0
H1332 H 0.55947 0.0801 0.55437 0.0
H1333 H 0.34898 0.00268 0.55017 0.0
H1334 H 0.41037 0.97592 0.54751 0.0
H1335 H 0.45291 0.08371 0.54042 0.0
H1336 H 0.39189 0.11057 0.54294 0.0
H1337 H 0.49103 0.04713 0.55502 0.0
H1338 H 0.44765 0.02406 0.52379 0.0
H1339 H 0.40442 -0.0 0.51192 0.0
H1340 H 0.42074 0.8897 0.52221 0.0
H1341 H 0.46367 0.91316 0.53424 0.0
C1342 C 0.6488 0.96757 0.54737 0.0
C1343 C 0.65062 0.92901 0.54837 0.0
C1344 C 0.61486 0.98484 0.54569 0.0
C1345 C 0.58212 0.9639 0.54525 0.0
C1346 C 0.58424 0.92529 0.54591 0.0
C1347 C 0.61815 0.908 0.5474 0.0
C1348 C 0.5454 0.982 0.54462 0.0
C1349 C 0.52006 0.96959 0.53785 0.0
C1350 C 0.53475 0.01038 0.55088 0.0
C1351 C 0.55874 0.02271 0.55869 0.0
C1352 C 0.57114 0.99736 0.56547 0.0
C1353 C 0.59387 0.00915 0.57279 0.0
C1354 C 0.60411 0.0463 0.57347 0.0
C1355 C 0.59155 0.07175 0.56684 0.0
C1356 C 0.56885 0.06009 0.55949 0.0
C1357 C 0.37126 0.02052 0.54788 0.0
C1358 C 0.36569 0.05874 0.54683 0.0
C1359 C 0.40623 0.00521 0.54634 0.0
C1360 C 0.43603 0.02794 0.54379 0.0
C1361 C 0.43018 0.06579 0.54239 0.0
C1362 C 0.39527 0.08103 0.54383 0.0
C1363 C 0.47399 0.01298 0.54347 0.0
C1364 C 0.49946 0.02594 0.55009 0.0
C1365 C 0.48437 0.98462 0.53722 0.0
C1366 C 0.45864 0.97043 0.52997 0.0
C1367 C 0.44177 0.99471 0.52358 0.0
C1368 C 0.41737 0.98117 0.51681 0.0
C1369 C 0.40977 0.94335 0.51632 0.0
C1370 C 0.42663 0.91899 0.5226 0.0
C1371 C 0.45103 0.93239 0.52939 0.0
H1372 H 0.39088 0.93293 0.51108 0.0
H1373 H 0.62171 0.05538 0.57915 0.0
H1374 H 0.0052 0.17053 0.79734 0.0
H1375 H 0.97417 0.11184 0.79391 0.0
H1376 H 0.07966 0.05608 0.79402 0.0
H1377 H 0.11072 0.11456 0.79698 0.0
H1378 H 0.0391 0.02658 0.78128 0.0
H1379 H 0.02066 0.05929 0.81369 0.0
H1380 H 0.00037 0.09891 0.82675 0.0
H1381 H 0.88893 0.09601 0.8164 0.0
H1382 H 0.90868 0.05671 0.80321 0.0
H1383 H 0.98846 0.84663 0.79859 0.0
H1384 H 0.01397 0.90842 0.79568 0.0
H1385 H 0.90468 0.94923 0.78948 0.0
H1386 H 0.87905 0.88787 0.79226 0.0
H1387 H 0.94201 0.98776 0.80372 0.0
H1388 H 0.96258 0.9455 0.77237 0.0
H1389 H 0.98577 0.903 0.76026 0.0
H1390 H 0.09704 0.92039 0.76978 0.0
H1391 H 0.07446 0.9626 0.78205 0.0
C1392 C 0.0217 0.14578 0.79651 0.0
C1393 C 0.0603 0.14702 0.79752 0.0
C1394 C 0.00399 0.11227 0.79458 0.0
C1395 C 0.02454 0.0794 0.79389 0.0
C1396 C 0.06319 0.081 0.79452 0.0
C1397 C 0.0809 0.11448 0.79627 0.0
C1398 C 0.00606 0.04293 0.79313 0.0
C1399 C 0.01798 0.01804 0.78621 0.0
C1400 C 0.97813 0.03189 0.79948 0.0
C1401 C 0.96622 0.05546 0.80741 0.0
C1402 C 0.99188 0.06733 0.81416 0.0
C1403 C 0.98048 0.08969 0.82159 0.0
C1404 C 0.94341 0.10007 0.82238 0.0
C1405 C 0.91764 0.08802 0.81576 0.0
C1406 C 0.92892 0.06569 0.80831 0.0
C1407 C 0.97001 0.86863 0.79644 0.0
C1408 C 0.93175 0.8625 0.79573 0.0
C1409 C 0.98461 0.9038 0.79475 0.0
C1410 C 0.96111 0.93323 0.79238 0.0
C1411 C 0.92317 0.9268 0.79131 0.0
C1412 C 0.90864 0.8917 0.7929 0.0
C1413 C 0.97542 0.97142 0.79197 0.0
C1414 C 0.96273 0.99654 0.7987 0.0
C1415 C 0.0031 0.9823 0.78558 0.0
C1416 C 0.01677 0.95699 0.77819 0.0
C1417 C 0.99196 0.94002 0.77194 0.0
C1418 C 0.00501 0.91603 0.76503 0.0
C1419 C 0.04285 0.90893 0.76426 0.0
C1420 C 0.06773 0.92589 0.77039 0.0
C1421 C 0.05483 0.94989 0.77731 0.0
H1422 H 0.05289 0.89035 0.75891 0.0
H1423 H 0.93463 0.11737 0.82814 0.0
H1424 H 0.66573 0.96641 0.17799 0.0
H1425 H 0.60839 0.00217 0.17825 0.0
H1426 H 0.54525 0.90175 0.17495 0.0
H1427 H 0.60235 0.86609 0.17435 0.0
H1428 H 0.51837 0.95144 0.16401 0.0
H1429 H 0.55215 0.94889 0.19633 0.0
H1430 H 0.59274 0.95705 0.21004 0.0
H1431 H 0.60033 0.07335 0.20436 0.0
H1432 H 0.56019 0.0658 0.19052 0.0
H1433 H 0.34386 0.02973 0.17648 0.0
H1434 H 0.4007 0.99304 0.17721 0.0
H1435 H 0.46577 0.09242 0.17465 0.0
H1436 H 0.40926 0.12928 0.17383 0.0
H1437 H 0.49041 0.04279 0.18889 0.0
H1438 H 0.45613 0.04258 0.15617 0.0
H1439 H 0.41362 0.03235 0.14293 0.0
H1440 H 0.40462 0.91759 0.15026 0.0
H1441 H 0.44669 0.92727 0.16364 0.0
C1442 C 0.63961 0.95196 0.17734 0.0
C1443 C 0.6386 0.91342 0.17614 0.0
C1444 C 0.60683 0.97241 0.17754 0.0
C1445 C 0.57242 0.95461 0.17674 0.0
C1446 C 0.57142 0.91613 0.17557 0.0
C1447 C 0.60414 0.89576 0.17524 0.0
C1448 C 0.53743 0.97608 0.17688 0.0
C1449 C 0.5121 0.97098 0.16954 0.0
C1450 C 0.52935 0.00204 0.18401 0.0
C1451 C 0.55345 0.00671 0.19233 0.0
C1452 C 0.56271 0.97616 0.19796 0.0
C1453 C 0.58559 0.98068 0.20576 0.0
C1454 C 0.59918 0.01568 0.20805 0.0
C1455 C 0.58982 0.04625 0.20256 0.0
C1456 C 0.56698 0.04187 0.19475 0.0
C1457 C 0.37026 0.04378 0.1761 0.0
C1458 C 0.37205 0.08239 0.17505 0.0
C1459 C 0.40266 0.02279 0.1765 0.0
C1460 C 0.43732 0.04009 0.17594 0.0
C1461 C 0.43923 0.07863 0.17509 0.0
C1462 C 0.40691 0.09958 0.17458 0.0
C1463 C 0.4717 0.01799 0.17605 0.0
C1464 C 0.49682 0.02305 0.18341 0.0
C1465 C 0.47937 0.99161 0.16903 0.0
C1466 C 0.45423 0.98574 0.16096 0.0
C1467 C 0.44483 0.01523 0.15501 0.0
C1468 C 0.42087 0.00952 0.14747 0.0
C1469 C 0.40634 0.97437 0.14577 0.0
C1470 C 0.41584 0.94482 0.1516 0.0
C1471 C 0.43976 0.9504 0.15915 0.0
H1472 H 0.3878 0.97 0.13993 0.0
H1473 H 0.61689 0.01912 0.2141 0.0
H1474 H 0.87238 0.90609 0.4157 0.0
H1475 H 0.90765 0.96313 0.41433 0.0
H1476 H 0.00938 0.90086 0.41491 0.0
H1477 H 0.9741 0.84353 0.41668 0.0
H1478 H 0.01551 0.95649 0.42594 0.0
H1479 H 0.97485 0.9434 0.39443 0.0
H1480 H 0.9305 0.93348 0.38157 0.0
H1481 H 0.87204 0.03196 0.38938 0.0
H1482 H 0.91573 0.04221 0.40238 0.0
H1483 H 0.12662 0.10991 0.41348 0.0
H1484 H 0.09291 0.05186 0.41185 0.0
H1485 H 0.99075 0.10776 0.4182 0.0
H1486 H 0.02431 0.16624 0.41993 0.0
H1487 H 0.98735 0.05494 0.40281 0.0
H1488 H 0.02846 0.06423 0.435 0.0
H1489 H 0.07526 0.07337 0.44734 0.0
H1490 H 0.13626 0.97988 0.43719 0.0
H1491 H 0.09007 0.97053 0.4247 0.0
C1492 C 0.90226 0.90442 0.41545 0.0
C1493 C 0.92046 0.87026 0.4163 0.0
C1494 C 0.92242 0.93712 0.4146 0.0
C1495 C 0.9612 0.93633 0.41436 0.0
C1496 C 0.97947 0.90217 0.41507 0.0
C1497 C 0.95929 0.86943 0.41606 0.0
C1498 C 0.98258 0.97133 0.41392 0.0
C1499 C 0.00975 0.97765 0.42076 0.0
C1500 C 0.9747 -0.00064 0.40728 0.0
C1501 C 0.94842 0.9934 0.39943 0.0
C1502 C 0.95238 0.9628 0.39345 0.0
C1503 C 0.92738 0.95714 0.38613 0.0
C1504 C 0.89843 0.98203 0.38467 0.0
C1505 C 0.89446 0.01269 0.39052 0.0
C1506 C 0.91937 0.01846 0.39786 0.0
C1507 C 0.09693 0.11006 0.41445 0.0
C1508 C 0.07817 0.14271 0.41691 0.0
C1509 C 0.07776 0.07682 0.41352 0.0
C1510 C 0.03948 0.07559 0.41497 0.0
C1511 C 0.02035 0.10828 0.41706 0.0
C1512 C 0.03958 0.14158 0.41808 0.0
C1513 C 0.01984 0.03978 0.41482 0.0
C1514 C 0.9931 0.03346 0.40791 0.0
C1515 C 0.02843 0.01151 0.4213 0.0
C1516 C 0.05603 0.01693 0.42886 0.0
C1517 C 0.05202 0.04582 0.43535 0.0
C1518 C 0.0784 0.051 0.44238 0.0
C1519 C 0.10877 0.02728 0.44303 0.0
C1520 C 0.11276 0.99826 0.43667 0.0
C1521 C 0.08647 0.99299 0.42962 0.0
H1522 H 0.12916 0.03134 0.44848 0.0
H1523 H 0.8791 0.9776 0.37899 0.0
H1524 H 0.15755 0.46911 0.67229 0.0
H1525 H 0.10001 0.50451 0.67199 0.0
H1526 H 0.03751 0.4031 0.67015 0.0
H1527 H 0.09485 0.36772 0.67007 0.0
H1528 H 0.00864 0.45084 0.65898 0.0
H1529 H 0.04697 0.4535 0.69105 0.0
H1530 H 0.0894 0.46442 0.70428 0.0
H1531 H 0.09469 0.57974 0.69729 0.0
H1532 H 0.05265 0.56942 0.68394 0.0
H1533 H 0.83473 0.52467 0.67399 0.0
H1534 H 0.89293 0.49009 0.67348 0.0
H1535 H 0.95306 0.59162 0.66917 0.0
H1536 H 0.89517 0.62636 0.66957 0.0
H1537 H 0.98261 0.54461 0.68341 0.0
H1538 H 0.94173 0.53952 0.65128 0.0
H1539 H 0.89713 0.52645 0.63865 0.0
H1540 H 0.8941 0.41214 0.64672 0.0
H1541 H 0.9383 0.42466 0.65949 0.0
C1542 C 0.13154 0.45439 0.6718 0.0
C1543 C 0.13076 0.41562 0.67123 0.0
C1544 C 0.09865 0.47464 0.67168 0.0
C1545 C 0.06436 0.45645 0.67121 0.0
C1546 C 0.0636 0.41777 0.67052 0.0
C1547 C 0.09644 0.39757 0.67049 0.0
C1548 C 0.0292 0.47758 0.67142 0.0
C1549 C 0.00283 0.47099 0.6644 0.0
C1550 C 0.02171 0.5043 0.67841 0.0
C1551 C 0.04697 0.51061 0.68644 0.0
C1552 C 0.0574 0.48114 0.69229 0.0
C1553 C 0.08134 0.48722 0.69982 0.0
C1554 C 0.09481 0.52273 0.70161 0.0
C1555 C 0.08428 0.55224 0.69589 0.0
C1556 C 0.06038 0.54629 0.68834 0.0
C1557 C 0.86033 0.53962 0.67292 0.0
C1558 C 0.86034 0.57823 0.6718 0.0
C1559 C 0.89349 0.51983 0.67261 0.0
C1560 C 0.92715 0.53839 0.67126 0.0
C1561 C 0.9273 0.57689 0.67022 0.0
C1562 C 0.89418 0.59662 0.67041 0.0
C1563 C 0.96234 0.51769 0.671 0.0
C1564 C 0.98861 0.52441 0.67801 0.0
C1565 C 0.96949 0.4907 0.6641 0.0
C1566 C 0.94303 0.48312 0.6564 0.0
C1567 C 0.9313 0.51167 0.65042 0.0
C1568 C 0.90614 0.50434 0.64322 0.0
C1569 C 0.89271 0.46851 0.6419 0.0
C1570 C 0.90448 0.4399 0.64776 0.0
C1571 C 0.92961 0.44709 0.65497 0.0
H1572 H 0.87324 0.46289 0.63633 0.0
H1573 H 0.11334 0.52738 0.70744 0.0
H1574 H 0.47721 0.32657 0.92252 0.0
H1575 H 0.51431 0.38305 0.92187 0.0
H1576 H 0.41584 0.44693 0.91649 0.0
H1577 H 0.37884 0.39067 0.91683 0.0
H1578 H 0.4693 0.47167 0.90606 0.0
H1579 H 0.45603 0.44182 0.93858 0.0
H1580 H 0.45983 0.40259 0.95266 0.0
H1581 H 0.57744 0.39382 0.94926 0.0
H1582 H 0.57426 0.43262 0.93508 0.0
H1583 H 0.53578 0.64862 0.92106 0.0
H1584 H 0.50174 0.59018 0.91998 0.0
H1585 H 0.6046 0.53001 0.91997 0.0
H1586 H 0.63885 0.5881 0.92094 0.0
H1587 H 0.5508 0.50316 0.93284 0.0
H1588 H 0.5621 0.53687 0.90035 0.0
H1589 H 0.55589 0.57838 0.88676 0.0
H1590 H 0.43837 0.58267 0.89083 0.0
H1591 H 0.44394 0.54158 0.90454 0.0
C1592 C 0.46351 0.35262 0.92114 0.0
C1593 C 0.42504 0.35412 0.91977 0.0
C1594 C 0.48472 0.38491 0.92082 0.0
C1595 C 0.46777 0.41933 0.91929 0.0
C1596 C 0.42953 0.42072 0.91769 0.0
C1597 C 0.4084 0.38848 0.91791 0.0
C1598 C 0.48958 0.45406 0.91953 0.0
C1599 C 0.48681 0.47868 0.91196 0.0
C1600 C 0.51284 0.46307 0.92718 0.0
C1601 C 0.51485 0.43978 0.93571 0.0
C1602 C 0.48266 0.43128 0.94079 0.0
C1603 C 0.48471 0.40917 0.9488 0.0
C1604 C 0.51884 0.39563 0.95184 0.0
C1605 C 0.55101 0.40427 0.94689 0.0
C1606 C 0.54911 0.42634 0.93887 0.0
C1607 C 0.55114 0.62295 0.9208 0.0
C1608 C 0.59 0.62298 0.92107 0.0
C1609 C 0.53168 0.58966 0.92015 0.0
C1610 C 0.55076 0.55592 0.91986 0.0
C1611 C 0.58946 0.55583 0.92018 0.0
C1612 C 0.60894 0.58906 0.9207 0.0
C1613 C 0.53033 0.52058 0.91939 0.0
C1614 C 0.53336 0.49594 0.92693 0.0
C1615 C 0.50692 0.51184 0.91179 0.0
C1616 C 0.50349 0.53645 0.90353 0.0
C1617 C 0.53497 0.54693 0.8984 0.0
C1618 C 0.53156 0.57033 0.89066 0.0
C1619 C 0.49677 0.58324 0.88794 0.0
C1620 C 0.4653 0.57269 0.89295 0.0
C1621 C 0.46857 0.54932 0.9007 0.0
H1622 H 0.49418 0.60135 0.88195 0.0
H1623 H 0.52037 0.37852 0.95804 0.0
H1624 H 0.65044 0.53004 0.06486 0.0
H1625 H 0.59273 0.49499 0.06577 0.0
H1626 H 0.53084 0.59691 0.0665 0.0
H1627 H 0.58838 0.632 0.06599 0.0
H1628 H 0.50078 0.55078 0.07796 0.0
H1629 H 0.54106 0.54378 0.04606 0.0
H1630 H 0.58434 0.53095 0.03314 0.0
H1631 H 0.58879 0.41668 0.0412 0.0
H1632 H 0.54588 0.42894 0.05424 0.0
H1633 H 0.32755 0.47523 0.06214 0.0
H1634 H 0.38535 0.51025 0.0635 0.0
H1635 H 0.44538 0.4089 0.06807 0.0
H1636 H 0.38805 0.37375 0.06679 0.0
H1637 H 0.4758 0.45426 0.05414 0.0
H1638 H 0.43201 0.46341 0.08591 0.0
H1639 H 0.38663 0.47841 0.0982 0.0
H1640 H 0.38611 0.59189 0.08939 0.0
H1641 H 0.43112 0.57746 0.07696 0.0
C1642 C 0.62453 0.54495 0.06527 0.0
C1643 C 0.62396 0.58378 0.0653 0.0
C1644 C 0.59155 0.5249 0.06574 0.0
C1645 C 0.55735 0.54331 0.06602 0.0
C1646 C 0.55683 0.58207 0.06628 0.0
C1647 C 0.58979 0.6021 0.06597 0.0
C1648 C 0.52206 0.52233 0.06585 0.0
C1649 C 0.4952 0.52999 0.07268 0.0
C1650 C 0.51483 0.49484 0.05904 0.0
C1651 C 0.54056 0.48736 0.05119 0.0
C1652 C 0.55148 0.51597 0.04512 0.0
C1653 C 0.57591 0.50879 0.03777 0.0
C1654 C 0.58939 0.47304 0.03637 0.0
C1655 C 0.57837 0.44437 0.0423 0.0
C1656 C 0.55398 0.45141 0.04967 0.0
C1657 C 0.35301 0.46043 0.0635 0.0
C1658 C 0.35317 0.4217 0.06434 0.0
C1659 C 0.38595 0.48048 0.06431 0.0
C1660 C 0.41952 0.46208 0.0659 0.0
C1661 C 0.41971 0.42354 0.06683 0.0
C1662 C 0.38686 0.40355 0.06613 0.0
C1663 C 0.45479 0.48275 0.06623 0.0
C1664 C 0.48154 0.47504 0.05942 0.0
C1665 C 0.46163 0.51055 0.07295 0.0
C1666 C 0.43464 0.51927 0.08044 0.0
C1667 C 0.42197 0.4915 0.08654 0.0
C1668 C 0.39637 0.49991 0.09354 0.0
C1669 C 0.38342 0.53606 0.09456 0.0
C1670 C 0.39613 0.56389 0.08859 0.0
C1671 C 0.4217 0.55562 0.08157 0.0
H1672 H 0.36361 0.54252 0.09999 0.0
H1673 H 0.6083 0.46754 0.03067 0.0
H1674 H 0.3582 0.08859 0.30463 0.0
H1675 H 0.39573 0.03271 0.30434 0.0
H1676 H 0.49493 0.09886 0.30558 0.0
H1677 H 0.4574 0.15518 0.30554 0.0
H1678 H 0.50458 0.04403 0.29389 0.0
H1679 H 0.45947 0.05397 0.32522 0.0
H1680 H 0.41275 0.06124 0.33763 0.0
H1681 H 0.35931 0.96121 0.32876 0.0
H1682 H 0.40545 0.9536 0.3162 0.0
H1683 H 0.62287 0.8989 0.30944 0.0
H1684 H 0.58606 0.95533 0.30853 0.0
H1685 H 0.48825 0.89064 0.30307 0.0
H1686 H 0.52488 0.83384 0.30393 0.0
H1687 H 0.47874 0.94461 0.31692 0.0
H1688 H 0.52677 0.93541 0.28559 0.0
H1689 H 0.57579 0.92894 0.27372 0.0
H1690 H 0.62683 0.02895 0.28347 0.0
H1691 H 0.57839 0.03575 0.29548 0.0
C1692 C 0.38801 0.09131 0.30483 0.0
C1693 C 0.40484 0.12631 0.30519 0.0
C1694 C 0.40944 0.05929 0.3047 0.0
C1695 C 0.44814 0.06153 0.30515 0.0
C1696 C 0.4651 0.09646 0.30527 0.0
C1697 C 0.44364 0.12861 0.30526 0.0
C1698 C 0.47076 0.02735 0.30556 0.0
C1699 C 0.49924 0.02254 0.29901 0.0
C1700 C 0.46345 -0.00101 0.31215 0.0
C1701 C 0.43572 0.00341 0.31971 0.0
C1702 C 0.4376 0.03367 0.32587 0.0
C1703 C 0.41125 0.03783 0.33294 0.0
C1704 C 0.38302 0.01176 0.33397 0.0
C1705 C 0.38116 0.98141 0.32795 0.0
C1706 C 0.40742 0.97714 0.32086 0.0
C1707 C 0.59353 0.89658 0.30804 0.0
C1708 C 0.5768 0.86183 0.30675 0.0
C1709 C 0.5726 0.9289 0.30748 0.0
C1710 C 0.53455 0.9271 0.30566 0.0
C1711 C 0.51765 0.89253 0.30445 0.0
C1712 C 0.53863 0.86015 0.30493 0.0
C1713 C 0.51229 0.96134 0.30523 0.0
C1714 C 0.48397 0.96616 0.3118 0.0
C1715 C 0.52008 0.98985 0.29875 0.0
C1716 C 0.54914 0.98589 0.2915 0.0
C1717 C 0.54862 0.95586 0.28525 0.0
C1718 C 0.57627 0.95216 0.27849 0.0
C1719 C 0.60446 0.97846 0.27786 0.0
C1720 C 0.605 0.00857 0.28397 0.0
C1721 C 0.57744 0.01238 0.29075 0.0
H1722 H 0.62584 0.97555 0.27262 0.0
H1723 H 0.36265 0.01503 0.33945 0.0
H1724 H 0.91104 0.86332 0.564 0.0
H1725 H 0.96738 0.90005 0.56444 0.0
H1726 H 0.90397 -0.00099 0.55934 0.0
H1727 H 0.84721 0.96216 0.55865 0.0
H1728 H 0.96388 -0.00134 0.5488 0.0
H1729 H 0.93937 0.97903 0.58122 0.0
H1730 H 0.92516 0.94337 0.59547 0.0
H1731 H 0.02641 0.8827 0.59243 0.0
H1732 H 0.041 0.91766 0.57807 0.0
H1733 H 0.10618 0.12366 0.56221 0.0
H1734 H 0.0492 0.08748 0.56241 0.0
H1735 H 0.1126 0.98672 0.56125 0.0
H1736 H 0.17007 0.02279 0.5609 0.0
H1737 H 0.05282 0.98923 0.57516 0.0
H1738 H 0.07588 0.01041 0.54238 0.0
H1739 H 0.08958 0.04901 0.52858 0.0
H1740 H 0.9895 0.11029 0.533 0.0
H1741 H 0.9755 0.07243 0.54692 0.0
C1742 C 0.90891 0.89292 0.56302 0.0
C1743 C 0.87453 0.90981 0.56133 0.0
C1744 C 0.94122 0.91393 0.56331 0.0
C1745 C 0.93987 0.95236 0.56207 0.0
C1746 C 0.90563 0.96938 0.56035 0.0
C1747 C 0.87322 0.9483 0.55998 0.0
C1748 C 0.9744 0.97449 0.56234 0.0
C1749 C 0.98302 0.997 0.55463 0.0
C1750 C -0.00025 0.97183 0.56987 0.0
C1751 C 0.9911 0.95074 0.57851 0.0
C1752 C 0.95847 0.95788 0.58354 0.0
C1753 C 0.95037 0.93783 0.59165 0.0
C1754 C 0.97482 0.91072 0.59484 0.0
C1755 C 0.00747 0.90368 0.58994 0.0
C1756 C 0.01569 0.92363 0.58182 0.0
C1757 C 0.10812 0.09379 0.56204 0.0
C1758 C 0.14266 0.07605 0.56153 0.0
C1759 C 0.07552 0.07322 0.56213 0.0
C1760 C 0.07683 0.03456 0.56179 0.0
C1761 C 0.11117 0.01662 0.5615 0.0
C1762 C 0.14389 0.03722 0.56127 0.0
C1763 C 0.04213 0.01304 0.56163 0.0
C1764 C 0.03354 0.99078 0.56935 0.0
C1765 C 0.01664 0.01624 0.55417 0.0
C1766 C 0.02484 0.03882 0.54575 0.0
C1767 C 0.05696 0.03233 0.54046 0.0
C1768 C 0.06475 0.05403 0.5326 0.0
C1769 C 0.04048 0.08215 0.52993 0.0
C1770 C 0.00831 0.08854 0.53508 0.0
C1771 C 0.00041 0.06694 0.54295 0.0
H1772 H 0.04656 0.09892 0.52385 0.0
H1773 H 0.96851 0.89523 0.60112 0.0
H1774 H 0.96955 0.66485 0.80737 0.0
H1775 H 0.006 0.60794 0.80776 0.0
H1776 H 0.90581 0.54384 0.81025 0.0
H1777 H 0.86941 0.60048 0.81018 0.0
H1778 H 0.95464 0.51785 0.82173 0.0
H1779 H 0.95497 0.55118 0.78931 0.0
H1780 H 0.9644 0.59191 0.77567 0.0
H1781 H 0.08004 0.60005 0.78218 0.0
H1782 H 0.07119 0.55978 0.79594 0.0
H1783 H 0.0311 0.34291 0.80878 0.0
H1784 H 0.99539 0.40041 0.8087 0.0
H1785 H 0.09613 0.46335 0.81135 0.0
H1786 H 0.13202 0.4062 0.81149 0.0
H1787 H 0.04769 0.48952 0.79728 0.0
H1788 H 0.04507 0.45407 0.82983 0.0
H1789 H 0.03353 0.41155 0.843 0.0
H1790 H 0.91884 0.40502 0.83541 0.0
H1791 H 0.92981 0.44711 0.82211 0.0
C1792 C 0.95532 0.63862 0.80799 0.0
C1793 C 0.9166 0.63719 0.80873 0.0
C1794 C 0.97616 0.60609 0.80817 0.0
C1795 C 0.95861 0.57154 0.80892 0.0
C1796 C 0.91998 0.57014 0.80969 0.0
C1797 C 0.8992 0.60259 0.80962 0.0
C1798 C 0.98037 0.53678 0.80899 0.0
C1799 C 0.97463 0.5115 0.81631 0.0
C1800 C 0.00688 0.52866 0.802 0.0
C1801 C 0.01234 0.55277 0.79371 0.0
C1802 C 0.98236 0.56188 0.78787 0.0
C1803 C 0.98761 0.58485 0.78012 0.0
C1804 C 0.02278 0.59864 0.77808 0.0
C1805 C 0.0528 0.5894 0.78378 0.0
C1806 C 0.04769 0.56648 0.79155 0.0
C1807 C 0.04565 0.36897 0.80936 0.0
C1808 C 0.08439 0.36997 0.81017 0.0
C1809 C 0.02521 0.40175 0.80934 0.0
C1810 C 0.0432 0.43602 0.81005 0.0
C1811 C 0.08181 0.43713 0.81079 0.0
C1812 C 0.10221 0.40442 0.81091 0.0
C1813 C 0.02179 0.47082 0.80999 0.0
C1814 C 0.02764 0.49602 0.80268 0.0
C1815 C 0.99501 0.47864 0.8169 0.0
C1816 C 0.98835 0.45344 0.82492 0.0
C1817 C 0.01746 0.44331 0.83092 0.0
C1818 C 0.011 0.41934 0.83842 0.0
C1819 C 0.97549 0.40551 0.84003 0.0
C1820 C 0.94634 0.41571 0.83415 0.0
C1821 C 0.95265 0.43965 0.82664 0.0
H1822 H 0.97055 0.38696 0.84584 0.0
H1823 H 0.02679 0.61642 0.77207 0.0
loop_
_geom_bond_atom_site_label_1
_geom_bond_atom_site_label_2
_geom_bond_distance
_geom_bond_site_symmetry_2
_ccdc_geom_bond_type
C0 O1 1.306 . S
C0 O3 1.160 . S
O1 C0 1.306 . S
O1 Cd2 2.228 . S
Cd2 O1 2.228 . S
Cd2 O6 2.273 . S
Cd2 O10 2.277 . S
O3 C0 1.160 . S
O3 Cd4 2.203 . S
Cd4 O3 2.203 . S
Cd4 O6 2.411 . S
Cd4 O7 2.333 . S
Cd4 O8 2.352 . S
Cd4 O12 2.277 . S
Cd4 O13 2.356 . S
C5 O10 1.209 . S
C5 O12 1.226 . S
O6 Cd2 2.273 . S
O6 Cd4 2.411 . S
O6 C9 1.320 . S
O7 Cd4 2.333 . S
O7 C9 1.214 . S
O8 Cd4 2.352 . S
O8 C11 1.258 . S
C9 O6 1.320 . S
C9 O7 1.214 . S
O10 Cd2 2.277 . S
O10 C5 1.209 . S
C11 O8 1.258 . S
C11 O13 1.282 . S
O12 Cd4 2.277 . S
O12 C5 1.226 . S
O13 Cd4 2.356 . S
O13 C11 1.282 . S
C14 O15 1.306 . S
C14 O17 1.160 . S
O15 C14 1.306 . S
O15 Cd16 2.228 . S
Cd16 O15 2.228 . S
Cd16 O20 2.273 . S
Cd16 O24 2.277 . S
O17 C14 1.160 . S
O17 Cd18 2.203 . S
Cd18 O17 2.203 . S
Cd18 O20 2.411 . S
Cd18 O21 2.333 . S
Cd18 O22 2.352 . S
Cd18 O26 2.277 . S
Cd18 O27 2.356 . S
C19 O24 1.209 . S
C19 O26 1.226 . S
O20 Cd16 2.273 . S
O20 Cd18 2.411 . S
O20 C23 1.320 . S
O21 Cd18 2.333 . S
O21 C23 1.214 . S
O22 Cd18 2.352 . S
O22 C25 1.258 . S
C23 O20 1.320 . S
C23 O21 1.214 . S
O24 Cd16 2.277 . S
O24 C19 1.209 . S
C25 O22 1.258 . S
C25 O27 1.282 . S
O26 Cd18 2.277 . S
O26 C19 1.226 . S
O27 Cd18 2.356 . S
O27 C25 1.282 . S
C28 O29 1.306 . S
C28 O31 1.160 . S
O29 C28 1.306 . S
O29 Cd30 2.228 . S
Cd30 O29 2.228 . S
Cd30 O34 2.273 . S
Cd30 O38 2.277 . S
O31 C28 1.160 . S
O31 Cd32 2.203 . S
Cd32 O31 2.203 . S
Cd32 O34 2.411 . S
Cd32 O35 2.333 . S
Cd32 O36 2.352 . S
Cd32 O40 2.277 . S
Cd32 O41 2.356 . S
C33 O38 1.209 . S
C33 O40 1.226 . S
O34 Cd30 2.273 . S
O34 Cd32 2.411 . S
O34 C37 1.320 . S
O35 Cd32 2.333 . S
O35 C37 1.214 . S
O36 Cd32 2.352 . S
O36 C39 1.258 . S
C37 O34 1.320 . S
C37 O35 1.214 . S
O38 Cd30 2.277 . S
O38 C33 1.209 . S
C39 O36 1.258 . S
C39 O41 1.282 . S
O40 Cd32 2.277 . S
O40 C33 1.226 . S
O41 Cd32 2.356 . S
O41 C39 1.282 . S
C42 O43 1.306 . S
C42 O45 1.160 . S
O43 C42 1.306 . S
O43 Cd44 2.228 . S
Cd44 O43 2.228 . S
Cd44 O48 2.273 . S
Cd44 O52 2.277 . S
O45 C42 1.160 . S
O45 Cd46 2.203 . S
Cd46 O45 2.203 . S
Cd46 O48 2.411 . S
Cd46 O49 2.333 . S
Cd46 O50 2.352 . S
Cd46 O54 2.277 . S
Cd46 O55 2.356 . S
C47 O52 1.209 . S
C47 O54 1.226 . S
O48 Cd44 2.273 . S
O48 Cd46 2.411 . S
O48 C51 1.320 . S
O49 Cd46 2.333 . S
O49 C51 1.214 . S
O50 Cd46 2.352 . S
O50 C53 1.258 . S
C51 O48 1.320 . S
C51 O49 1.214 . S
O52 Cd44 2.277 . S
O52 C47 1.209 . S
C53 O50 1.258 . S
C53 O55 1.282 . S
O54 Cd46 2.277 . S
O54 C47 1.226 . S
O55 Cd46 2.356 . S
O55 C53 1.282 . S
C56 O57 1.306 . S
C56 O59 1.160 . S
O57 C56 1.306 . S
O57 Cd58 2.228 . S
Cd58 O57 2.228 . S
Cd58 O62 2.273 . S
Cd58 O66 2.277 . S
O59 C56 1.160 . S
O59 Cd60 2.203 . S
Cd60 O59 2.203 . S
Cd60 O62 2.411 . S
Cd60 O63 2.333 . S
Cd60 O64 2.352 . S
Cd60 O68 2.277 . S
Cd60 O69 2.356 . S
C61 O66 1.209 . S
C61 O68 1.226 . S
O62 Cd58 2.273 . S
O62 Cd60 2.411 . S
O62 C65 1.320 . S
O63 Cd60 2.333 . S
O63 C65 1.214 . S
O64 Cd60 2.352 . S
O64 C67 1.258 . S
C65 O62 1.320 . S
C65 O63 1.214 . S
O66 Cd58 2.277 . S
O66 C61 1.209 . S
C67 O64 1.258 . S
C67 O69 1.282 . S
O68 Cd60 2.277 . S
O68 C61 1.226 . S
O69 Cd60 2.356 . S
O69 C67 1.282 . S
C70 O71 1.306 . S
C70 O73 1.160 . S
O71 C70 1.306 . S
O71 Cd72 2.228 . S
Cd72 O71 2.228 . S
Cd72 O76 2.273 . S
Cd72 O80 2.277 . S
O73 C70 1.160 . S
O73 Cd74 2.203 . S
Cd74 O73 2.203 . S
Cd74 O76 2.411 . S
Cd74 O77 2.333 . S
Cd74 O78 2.352 . S
Cd74 O82 2.277 . S
Cd74 O83 2.356 . S
C75 O80 1.209 . S
C75 O82 1.226 . S
O76 Cd72 2.273 . S
O76 Cd74 2.411 . S
O76 C79 1.320 . S
O77 Cd74 2.333 . S
O77 C79 1.214 . S
O78 Cd74 2.352 . S
O78 C81 1.258 . S
C79 O76 1.320 . S
C79 O77 1.214 . S
O80 Cd72 2.277 . S
O80 C75 1.209 . S
C81 O78 1.258 . S
C81 O83 1.282 . S
O82 Cd74 2.277 . S
O82 C75 1.226 . S
O83 Cd74 2.356 . S
O83 C81 1.282 . S
C84 O85 1.306 . S
C84 O87 1.160 . S
O85 C84 1.306 . S
O85 Cd86 2.228 . S
Cd86 O85 2.228 . S
Cd86 O90 2.273 . S
Cd86 O94 2.277 . S
O87 C84 1.160 . S
O87 Cd88 2.203 . S
Cd88 O87 2.203 . S
Cd88 O90 2.411 . S
Cd88 O91 2.333 . S
Cd88 O92 2.352 . S
Cd88 O96 2.277 . S
Cd88 O97 2.356 . S
C89 O94 1.209 . S
C89 O96 1.226 . S
O90 Cd86 2.273 . S
O90 Cd88 2.411 . S
O90 C93 1.320 . S
O91 Cd88 2.333 . S
O91 C93 1.214 . S
O92 Cd88 2.352 . S
O92 C95 1.258 . S
C93 O90 1.320 . S
C93 O91 1.214 . S
O94 Cd86 2.277 . S
O94 C89 1.209 . S
C95 O92 1.258 . S
C95 O97 1.282 . S
O96 Cd88 2.277 . S
O96 C89 1.226 . S
O97 Cd88 2.356 . S
O97 C95 1.282 . S
C98 O99 1.306 . S
C98 O101 1.160 . S
O99 C98 1.306 . S
O99 Cd100 2.228 . S
Cd100 O99 2.228 . S
Cd100 O104 2.273 . S
Cd100 O108 2.277 . S
O101 C98 1.160 . S
O101 Cd102 2.203 . S
Cd102 O101 2.203 . S
Cd102 O104 2.411 . S
Cd102 O105 2.333 . S
Cd102 O106 2.352 . S
Cd102 O110 2.277 . S
Cd102 O111 2.356 . S
C103 O108 1.209 . S
C103 O110 1.226 . S
O104 Cd100 2.273 . S
O104 Cd102 2.411 . S
O104 C107 1.320 . S
O105 Cd102 2.333 . S
O105 C107 1.214 . S
O106 Cd102 2.352 . S
O106 C109 1.258 . S
C107 O104 1.320 . S
C107 O105 1.214 . S
O108 Cd100 2.277 . S
O108 C103 1.209 . S
C109 O106 1.258 . S
C109 O111 1.282 . S
O110 Cd102 2.277 . S
O110 C103 1.226 . S
O111 Cd102 2.356 . S
O111 C109 1.282 . S
C112 O113 1.306 . S
C112 O115 1.160 . S
O113 C112 1.306 . S
O113 Cd114 2.228 . S
Cd114 O113 2.228 . S
Cd114 O118 2.273 . S
Cd114 O122 2.277 . S
O115 C112 1.160 . S
O115 Cd116 2.203 . S
Cd116 O115 2.203 . S
Cd116 O118 2.411 . S
Cd116 O119 2.333 . S
Cd116 O120 2.352 . S
Cd116 O124 2.277 . S
Cd116 O125 2.356 . S
C117 O122 1.209 . S
C117 O124 1.226 . S
O118 Cd114 2.273 . S
O118 Cd116 2.411 . S
O118 C121 1.320 . S
O119 Cd116 2.333 . S
O119 C121 1.214 . S
O120 Cd116 2.352 . S
O120 C123 1.258 . S
C121 O118 1.320 . S
C121 O119 1.214 . S
O122 Cd114 2.277 . S
O122 C117 1.209 . S
C123 O120 1.258 . S
C123 O125 1.282 . S
O124 Cd116 2.277 . S
O124 C117 1.226 . S
O125 Cd116 2.356 . S
O125 C123 1.282 . S
C126 O127 1.306 . S
C126 O129 1.160 . S
O127 C126 1.306 . S
O127 Cd128 2.228 . S
Cd128 O127 2.228 . S
Cd128 O132 2.273 . S
Cd128 O136 2.277 . S
O129 C126 1.160 . S
O129 Cd130 2.203 . S
Cd130 O129 2.203 . S
Cd130 O132 2.411 . S
Cd130 O133 2.333 . S
Cd130 O134 2.352 . S
Cd130 O138 2.277 . S
Cd130 O139 2.356 . S
C131 O136 1.209 . S
C131 O138 1.226 . S
O132 Cd128 2.273 . S
O132 Cd130 2.411 . S
O132 C135 1.320 . S
O133 Cd130 2.333 . S
O133 C135 1.214 . S
O134 Cd130 2.352 . S
O134 C137 1.258 . S
C135 O132 1.320 . S
C135 O133 1.214 . S
O136 Cd128 2.277 . S
O136 C131 1.209 . S
C137 O134 1.258 . S
C137 O139 1.282 . S
O138 Cd130 2.277 . S
O138 C131 1.226 . S
O139 Cd130 2.356 . S
O139 C137 1.282 . S
C140 O141 1.306 . S
C140 O143 1.160 . S
O141 C140 1.306 . S
O141 Cd142 2.228 . S
Cd142 O141 2.228 . S
Cd142 O146 2.273 . S
Cd142 O150 2.277 . S
O143 C140 1.160 . S
O143 Cd144 2.203 . S
Cd144 O143 2.203 . S
Cd144 O146 2.411 . S
Cd144 O147 2.333 . S
Cd144 O148 2.352 . S
Cd144 O152 2.277 . S
Cd144 O153 2.356 . S
C145 O150 1.209 . S
C145 O152 1.226 . S
O146 Cd142 2.273 . S
O146 Cd144 2.411 . S
O146 C149 1.320 . S
O147 Cd144 2.333 . S
O147 C149 1.214 . S
O148 Cd144 2.352 . S
O148 C151 1.258 . S
C149 O146 1.320 . S
C149 O147 1.214 . S
O150 Cd142 2.277 . S
O150 C145 1.209 . S
C151 O148 1.258 . S
C151 O153 1.282 . S
O152 Cd144 2.277 . S
O152 C145 1.226 . S
O153 Cd144 2.356 . S
O153 C151 1.282 . S
C154 O155 1.306 . S
C154 O157 1.160 . S
O155 C154 1.306 . S
O155 Cd156 2.228 . S
Cd156 O155 2.228 . S
Cd156 O160 2.273 . S
Cd156 O164 2.277 . S
O157 C154 1.160 . S
O157 Cd158 2.203 . S
Cd158 O157 2.203 . S
Cd158 O160 2.411 . S
Cd158 O161 2.333 . S
Cd158 O162 2.352 . S
Cd158 O166 2.277 . S
Cd158 O167 2.356 . S
C159 O164 1.209 . S
C159 O166 1.226 . S
O160 Cd156 2.273 . S
O160 Cd158 2.411 . S
O160 C163 1.320 . S
O161 Cd158 2.333 . S
O161 C163 1.214 . S
O162 Cd158 2.352 . S
O162 C165 1.258 . S
C163 O160 1.320 . S
C163 O161 1.214 . S
O164 Cd156 2.277 . S
O164 C159 1.209 . S
C165 O162 1.258 . S
C165 O167 1.282 . S
O166 Cd158 2.277 . S
O166 C159 1.226 . S
O167 Cd158 2.356 . S
O167 C165 1.282 . S
C168 O169 1.306 . S
C168 O171 1.160 . S
O169 C168 1.306 . S
O169 Cd170 2.228 . S
Cd170 O169 2.228 . S
Cd170 O174 2.273 . S
Cd170 O178 2.277 . S
O171 C168 1.160 . S
O171 Cd172 2.203 . S
Cd172 O171 2.203 . S
Cd172 O174 2.411 . S
Cd172 O175 2.333 . S
Cd172 O176 2.352 . S
Cd172 O180 2.277 . S
Cd172 O181 2.356 . S
C173 O178 1.209 . S
C173 O180 1.226 . S
O174 Cd170 2.273 . S
O174 Cd172 2.411 . S
O174 C177 1.320 . S
O175 Cd172 2.333 . S
O175 C177 1.214 . S
O176 Cd172 2.352 . S
O176 C179 1.258 . S
C177 O174 1.320 . S
C177 O175 1.214 . S
O178 Cd170 2.277 . S
O178 C173 1.209 . S
C179 O176 1.258 . S
C179 O181 1.282 . S
O180 Cd172 2.277 . S
O180 C173 1.226 . S
O181 Cd172 2.356 . S
O181 C179 1.282 . S
C182 O183 1.306 . S
C182 O185 1.160 . S
O183 C182 1.306 . S
O183 Cd184 2.228 . S
Cd184 O183 2.228 . S
Cd184 O188 2.273 . S
Cd184 O192 2.277 . S
O185 C182 1.160 . S
O185 Cd186 2.203 . S
Cd186 O185 2.203 . S
Cd186 O188 2.411 . S
Cd186 O189 2.333 . S
Cd186 O190 2.352 . S
Cd186 O194 2.277 . S
Cd186 O195 2.356 . S
C187 O192 1.209 . S
C187 O194 1.226 . S
O188 Cd184 2.273 . S
O188 Cd186 2.411 . S
O188 C191 1.320 . S
O189 Cd186 2.333 . S
O189 C191 1.214 . S
O190 Cd186 2.352 . S
O190 C193 1.258 . S
C191 O188 1.320 . S
C191 O189 1.214 . S
O192 Cd184 2.277 . S
O192 C187 1.209 . S
C193 O190 1.258 . S
C193 O195 1.282 . S
O194 Cd186 2.277 . S
O194 C187 1.226 . S
O195 Cd186 2.356 . S
O195 C193 1.282 . S
C196 O197 1.306 . S
C196 O199 1.160 . S
O197 C196 1.306 . S
O197 Cd198 2.228 . S
Cd198 O197 2.228 . S
Cd198 O202 2.273 . S
Cd198 O206 2.277 . S
O199 C196 1.160 . S
O199 Cd200 2.203 . S
Cd200 O199 2.203 . S
Cd200 O202 2.411 . S
Cd200 O203 2.333 . S
Cd200 O204 2.352 . S
Cd200 O208 2.277 . S
Cd200 O209 2.356 . S
C201 O206 1.209 . S
C201 O208 1.226 . S
O202 Cd198 2.273 . S
O202 Cd200 2.411 . S
O202 C205 1.320 . S
O203 Cd200 2.333 . S
O203 C205 1.214 . S
O204 Cd200 2.352 . S
O204 C207 1.258 . S
C205 O202 1.320 . S
C205 O203 1.214 . S
O206 Cd198 2.277 . S
O206 C201 1.209 . S
C207 O204 1.258 . S
C207 O209 1.282 . S
O208 Cd200 2.277 . S
O208 C201 1.226 . S
O209 Cd200 2.356 . S
O209 C207 1.282 . S
C210 O211 1.306 . S
C210 O213 1.160 . S
O211 C210 1.306 . S
O211 Cd212 2.228 . S
Cd212 O211 2.228 . S
Cd212 O216 2.273 . S
Cd212 O220 2.277 . S
O213 C210 1.160 . S
O213 Cd214 2.203 . S
Cd214 O213 2.203 . S
Cd214 O216 2.411 . S
Cd214 O217 2.333 . S
Cd214 O218 2.352 . S
Cd214 O222 2.277 . S
Cd214 O223 2.356 . S
C215 O220 1.209 . S
C215 O222 1.226 . S
O216 Cd212 2.273 . S
O216 Cd214 2.411 . S
O216 C219 1.320 . S
O217 Cd214 2.333 . S
O217 C219 1.214 . S
O218 Cd214 2.352 . S
O218 C221 1.258 . S
C219 O216 1.320 . S
C219 O217 1.214 . S
O220 Cd212 2.277 . S
O220 C215 1.209 . S
C221 O218 1.258 . S
C221 O223 1.282 . S
O222 Cd214 2.277 . S
O222 C215 1.226 . S
O223 Cd214 2.356 . S
O223 C221 1.282 . S
H224 C242 0.951 . S
H225 C244 0.951 . S
H226 C246 0.950 . S
H227 C247 0.950 . S
H228 C249 0.950 . S
H229 C252 0.950 . S
H230 C253 0.950 . S
H231 C255 0.950 . S
H232 C256 0.950 . S
H233 C257 0.951 . S
H234 C259 0.951 . S
H235 C261 0.950 . S
H236 C262 0.950 . S
H237 C264 0.950 . S
H238 C267 0.950 . S
H239 C268 0.950 . S
H240 C270 0.950 . S
H241 C271 0.950 . S
C242 H224 0.951 . S
C242 C243 1.366 . S
C242 C244 1.388 . S
C243 C242 1.366 . S
C243 C247 1.385 . S
C244 H225 0.951 . S
C244 C242 1.388 . S
C244 C245 1.366 . S
C245 C244 1.366 . S
C245 C246 1.414 . S
C245 C248 1.499 . S
C246 H226 0.950 . S
C246 C245 1.414 . S
C246 C247 1.374 . S
C247 H227 0.950 . S
C247 C243 1.385 . S
C247 C246 1.374 . S
C248 C245 1.499 . S
C248 C249 1.373 . S
C248 C250 1.389 . S
C249 H228 0.950 . S
C249 C248 1.373 . S
C249 C265 1.377 . S
C250 C248 1.389 . S
C250 C251 1.524 . S
C250 C264 1.377 . S
C251 C250 1.524 . S
C251 C252 1.397 . S
C251 C256 1.363 . S
C252 H229 0.950 . S
C252 C251 1.397 . S
C252 C253 1.334 . S
C253 H230 0.950 . S
C253 C252 1.334 . S
C253 C254 1.287 . S
C254 C253 1.287 . S
C254 C255 1.524 . S
C254 H273 0.913 . S
C255 H231 0.950 . S
C255 C254 1.524 . S
C255 C256 1.415 . S
C256 H232 0.950 . S
C256 C251 1.363 . S
C256 C255 1.415 . S
C257 H233 0.951 . S
C257 C258 1.366 . S
C257 C259 1.388 . S
C258 C257 1.366 . S
C258 C262 1.385 . S
C259 H234 0.951 . S
C259 C257 1.388 . S
C259 C260 1.366 . S
C260 C259 1.366 . S
C260 C261 1.414 . S
C260 C263 1.499 . S
C261 H235 0.950 . S
C261 C260 1.414 . S
C261 C262 1.374 . S
C262 H236 0.950 . S
C262 C258 1.385 . S
C262 C261 1.374 . S
C263 C260 1.499 . S
C263 C264 1.373 . S
C263 C265 1.389 . S
C264 H237 0.950 . S
C264 C250 1.377 . S
C264 C263 1.373 . S
C265 C249 1.377 . S
C265 C263 1.389 . S
C265 C266 1.524 . S
C266 C265 1.524 . S
C266 C267 1.397 . S
C266 C271 1.363 . S
C267 H238 0.950 . S
C267 C266 1.397 . S
C267 C268 1.334 . S
C268 H239 0.950 . S
C268 C267 1.334 . S
C268 C269 1.287 . S
C269 C268 1.287 . S
C269 C270 1.524 . S
C269 H272 0.999 . S
C270 H240 0.950 . S
C270 C269 1.524 . S
C270 C271 1.415 . S
C271 H241 0.950 . S
C271 C266 1.363 . S
C271 C270 1.415 . S
H272 C269 0.999 . S
H273 C254 0.913 . S
H274 C292 0.951 . S
H275 C294 0.951 . S
H276 C296 0.950 . S
H277 C297 0.950 . S
H278 C299 0.950 . S
H279 C302 0.950 . S
H280 C303 0.950 . S
H281 C305 0.950 . S
H282 C306 0.950 . S
H283 C307 0.951 . S
H284 C309 0.951 . S
H285 C311 0.950 . S
H286 C312 0.950 . S
H287 C314 0.950 . S
H288 C317 0.950 . S
H289 C318 0.950 . S
H290 C320 0.950 . S
H291 C321 0.950 . S
C292 H274 0.951 . S
C292 C293 1.366 . S
C292 C294 1.388 . S
C293 C292 1.366 . S
C293 C297 1.385 . S
C294 H275 0.951 . S
C294 C292 1.388 . S
C294 C295 1.366 . S
C295 C294 1.366 . S
C295 C296 1.414 . S
C295 C298 1.499 . S
C296 H276 0.950 . S
C296 C295 1.414 . S
C296 C297 1.374 . S
C297 H277 0.950 . S
C297 C293 1.385 . S
C297 C296 1.374 . S
C298 C295 1.499 . S
C298 C299 1.373 . S
C298 C300 1.389 . S
C299 H278 0.950 . S
C299 C298 1.373 . S
C299 C315 1.377 . S
C300 C298 1.389 . S
C300 C301 1.524 . S
C300 C314 1.377 . S
C301 C300 1.524 . S
C301 C302 1.397 . S
C301 C306 1.363 . S
C302 H279 0.950 . S
C302 C301 1.397 . S
C302 C303 1.334 . S
C303 H280 0.950 . S
C303 C302 1.334 . S
C303 C304 1.287 . S
C304 C303 1.287 . S
C304 C305 1.524 . S
C304 H323 0.913 . S
C305 H281 0.950 . S
C305 C304 1.524 . S
C305 C306 1.415 . S
C306 H282 0.950 . S
C306 C301 1.363 . S
C306 C305 1.415 . S
C307 H283 0.951 . S
C307 C308 1.366 . S
C307 C309 1.388 . S
C308 C307 1.366 . S
C308 C312 1.385 . S
C309 H284 0.951 . S
C309 C307 1.388 . S
C309 C310 1.366 . S
C310 C309 1.366 . S
C310 C311 1.414 . S
C310 C313 1.499 . S
C311 H285 0.950 . S
C311 C310 1.414 . S
C311 C312 1.374 . S
C312 H286 0.950 . S
C312 C308 1.385 . S
C312 C311 1.374 . S
C313 C310 1.499 . S
C313 C314 1.373 . S
C313 C315 1.389 . S
C314 H287 0.950 . S
C314 C300 1.377 . S
C314 C313 1.373 . S
C315 C299 1.377 . S
C315 C313 1.389 . S
C315 C316 1.524 . S
C316 C315 1.524 . S
C316 C317 1.397 . S
C316 C321 1.363 . S
C317 H288 0.950 . S
C317 C316 1.397 . S
C317 C318 1.334 . S
C318 H289 0.950 . S
C318 C317 1.334 . S
C318 C319 1.287 . S
C319 C318 1.287 . S
C319 C320 1.524 . S
C319 H322 0.999 . S
C320 H290 0.950 . S
C320 C319 1.524 . S
C320 C321 1.415 . S
C321 H291 0.950 . S
C321 C316 1.363 . S
C321 C320 1.415 . S
H322 C319 0.999 . S
H323 C304 0.913 . S
H324 C342 0.951 . S
H325 C344 0.951 . S
H326 C346 0.950 . S
H327 C347 0.950 . S
H328 C349 0.950 . S
H329 C352 0.950 . S
H330 C353 0.950 . S
H331 C355 0.950 . S
H332 C356 0.950 . S
H333 C357 0.951 . S
H334 C359 0.951 . S
H335 C361 0.950 . S
H336 C362 0.950 . S
H337 C364 0.950 . S
H338 C367 0.950 . S
H339 C368 0.950 . S
H340 C370 0.950 . S
H341 C371 0.950 . S
C342 H324 0.951 . S
C342 C343 1.366 . S
C342 C344 1.388 . S
C343 C342 1.366 . S
C343 C347 1.385 . S
C344 H325 0.951 . S
C344 C342 1.388 . S
C344 C345 1.366 . S
C345 C344 1.366 . S
C345 C346 1.414 . S
C345 C348 1.499 . S
C346 H326 0.950 . S
C346 C345 1.414 . S
C346 C347 1.374 . S
C347 H327 0.950 . S
C347 C343 1.385 . S
C347 C346 1.374 . S
C348 C345 1.499 . S
C348 C349 1.373 . S
C348 C350 1.389 . S
C349 H328 0.950 . S
C349 C348 1.373 . S
C349 C365 1.377 . S
C350 C348 1.389 . S
C350 C351 1.524 . S
C350 C364 1.377 . S
C351 C350 1.524 . S
C351 C352 1.397 . S
C351 C356 1.363 . S
C352 H329 0.950 . S
C352 C351 1.397 . S
C352 C353 1.334 . S
C353 H330 0.950 . S
C353 C352 1.334 . S
C353 C354 1.287 . S
C354 C353 1.287 . S
C354 C355 1.524 . S
C354 H373 0.913 . S
C355 H331 0.950 . S
C355 C354 1.524 . S
C355 C356 1.415 . S
C356 H332 0.950 . S
C356 C351 1.363 . S
C356 C355 1.415 . S
C357 H333 0.951 . S
C357 C358 1.366 . S
C357 C359 1.388 . S
C358 C357 1.366 . S
C358 C362 1.385 . S
C359 H334 0.951 . S
C359 C357 1.388 . S
C359 C360 1.366 . S
C360 C359 1.366 . S
C360 C361 1.414 . S
C360 C363 1.499 . S
C361 H335 0.950 . S
C361 C360 1.414 . S
C361 C362 1.374 . S
C362 H336 0.950 . S
C362 C358 1.385 . S
C362 C361 1.374 . S
C363 C360 1.499 . S
C363 C364 1.373 . S
C363 C365 1.389 . S
C364 H337 0.950 . S
C364 C350 1.377 . S
C364 C363 1.373 . S
C365 C349 1.377 . S
C365 C363 1.389 . S
C365 C366 1.524 . S
C366 C365 1.524 . S
C366 C367 1.397 . S
C366 C371 1.363 . S
C367 H338 0.950 . S
C367 C366 1.397 . S
C367 C368 1.334 . S
C368 H339 0.950 . S
C368 C367 1.334 . S
C368 C369 1.287 . S
C369 C368 1.287 . S
C369 C370 1.524 . S
C369 H372 0.999 . S
C370 H340 0.950 . S
C370 C369 1.524 . S
C370 C371 1.415 . S
C371 H341 0.950 . S
C371 C366 1.363 . S
C371 C370 1.415 . S
H372 C369 0.999 . S
H373 C354 0.913 . S
H374 C392 0.951 . S
H375 C394 0.951 . S
H376 C396 0.950 . S
H377 C397 0.950 . S
H378 C399 0.950 . S
H379 C402 0.950 . S
H380 C403 0.950 . S
H381 C405 0.950 . S
H382 C406 0.950 . S
H383 C407 0.951 . S
H384 C409 0.951 . S
H385 C411 0.950 . S
H386 C412 0.950 . S
H387 C414 0.950 . S
H388 C417 0.950 . S
H389 C418 0.950 . S
H390 C420 0.950 . S
H391 C421 0.950 . S
C392 H374 0.951 . S
C392 C393 1.366 . S
C392 C394 1.388 . S
C393 C392 1.366 . S
C393 C397 1.385 . S
C394 H375 0.951 . S
C394 C392 1.388 . S
C394 C395 1.366 . S
C395 C394 1.366 . S
C395 C396 1.414 . S
C395 C398 1.499 . S
C396 H376 0.950 . S
C396 C395 1.414 . S
C396 C397 1.374 . S
C397 H377 0.950 . S
C397 C393 1.385 . S
C397 C396 1.374 . S
C398 C395 1.499 . S
C398 C399 1.373 . S
C398 C400 1.389 . S
C399 H378 0.950 . S
C399 C398 1.373 . S
C399 C415 1.377 . S
C400 C398 1.389 . S
C400 C401 1.524 . S
C400 C414 1.377 . S
C401 C400 1.524 . S
C401 C402 1.397 . S
C401 C406 1.363 . S
C402 H379 0.950 . S
C402 C401 1.397 . S
C402 C403 1.334 . S
C403 H380 0.950 . S
C403 C402 1.334 . S
C403 C404 1.287 . S
C404 C403 1.287 . S
C404 C405 1.524 . S
C404 H423 0.913 . S
C405 H381 0.950 . S
C405 C404 1.524 . S
C405 C406 1.415 . S
C406 H382 0.950 . S
C406 C401 1.363 . S
C406 C405 1.415 . S
C407 H383 0.951 . S
C407 C408 1.366 . S
C407 C409 1.388 . S
C408 C407 1.366 . S
C408 C412 1.385 . S
C409 H384 0.951 . S
C409 C407 1.388 . S
C409 C410 1.366 . S
C410 C409 1.366 . S
C410 C411 1.414 . S
C410 C413 1.499 . S
C411 H385 0.950 . S
C411 C410 1.414 . S
C411 C412 1.374 . S
C412 H386 0.950 . S
C412 C408 1.385 . S
C412 C411 1.374 . S
C413 C410 1.499 . S
C413 C414 1.373 . S
C413 C415 1.389 . S
C414 H387 0.950 . S
C414 C400 1.377 . S
C414 C413 1.373 . S
C415 C399 1.377 . S
C415 C413 1.389 . S
C415 C416 1.524 . S
C416 C415 1.524 . S
C416 C417 1.397 . S
C416 C421 1.363 . S
C417 H388 0.950 . S
C417 C416 1.397 . S
C417 C418 1.334 . S
C418 H389 0.950 . S
C418 C417 1.334 . S
C418 C419 1.287 . S
C419 C418 1.287 . S
C419 C420 1.524 . S
C419 H422 0.999 . S
C420 H390 0.950 . S
C420 C419 1.524 . S
C420 C421 1.415 . S
C421 H391 0.950 . S
C421 C416 1.363 . S
C421 C420 1.415 . S
H422 C419 0.999 . S
H423 C404 0.913 . S
H424 C442 0.951 . S
H425 C444 0.951 . S
H426 C446 0.950 . S
H427 C447 0.950 . S
H428 C449 0.950 . S
H429 C452 0.950 . S
H430 C453 0.950 . S
H431 C455 0.950 . S
H432 C456 0.950 . S
H433 C457 0.951 . S
H434 C459 0.951 . S
H435 C461 0.950 . S
H436 C462 0.950 . S
H437 C464 0.950 . S
H438 C467 0.950 . S
H439 C468 0.950 . S
H440 C470 0.950 . S
H441 C471 0.950 . S
C442 H424 0.951 . S
C442 C443 1.366 . S
C442 C444 1.388 . S
C443 C442 1.366 . S
C443 C447 1.385 . S
C444 H425 0.951 . S
C444 C442 1.388 . S
C444 C445 1.366 . S
C445 C444 1.366 . S
C445 C446 1.414 . S
C445 C448 1.499 . S
C446 H426 0.950 . S
C446 C445 1.414 . S
C446 C447 1.374 . S
C447 H427 0.950 . S
C447 C443 1.385 . S
C447 C446 1.374 . S
C448 C445 1.499 . S
C448 C449 1.373 . S
C448 C450 1.389 . S
C449 H428 0.950 . S
C449 C448 1.373 . S
C449 C465 1.377 . S
C450 C448 1.389 . S
C450 C451 1.524 . S
C450 C464 1.377 . S
C451 C450 1.524 . S
C451 C452 1.397 . S
C451 C456 1.363 . S
C452 H429 0.950 . S
C452 C451 1.397 . S
C452 C453 1.334 . S
C453 H430 0.950 . S
C453 C452 1.334 . S
C453 C454 1.287 . S
C454 C453 1.287 . S
C454 C455 1.524 . S
C454 H473 0.913 . S
C455 H431 0.950 . S
C455 C454 1.524 . S
C455 C456 1.415 . S
C456 H432 0.950 . S
C456 C451 1.363 . S
C456 C455 1.415 . S
C457 H433 0.951 . S
C457 C458 1.366 . S
C457 C459 1.388 . S
C458 C457 1.366 . S
C458 C462 1.385 . S
C459 H434 0.951 . S
C459 C457 1.388 . S
C459 C460 1.366 . S
C460 C459 1.366 . S
C460 C461 1.414 . S
C460 C463 1.499 . S
C461 H435 0.950 . S
C461 C460 1.414 . S
C461 C462 1.374 . S
C462 H436 0.950 . S
C462 C458 1.385 . S
C462 C461 1.374 . S
C463 C460 1.499 . S
C463 C464 1.373 . S
C463 C465 1.389 . S
C464 H437 0.950 . S
C464 C450 1.377 . S
C464 C463 1.373 . S
C465 C449 1.377 . S
C465 C463 1.389 . S
C465 C466 1.524 . S
C466 C465 1.524 . S
C466 C467 1.397 . S
C466 C471 1.363 . S
C467 H438 0.950 . S
C467 C466 1.397 . S
C467 C468 1.334 . S
C468 H439 0.950 . S
C468 C467 1.334 . S
C468 C469 1.287 . S
C469 C468 1.287 . S
C469 C470 1.524 . S
C469 H472 0.999 . S
C470 H440 0.950 . S
C470 C469 1.524 . S
C470 C471 1.415 . S
C471 H441 0.950 . S
C471 C466 1.363 . S
C471 C470 1.415 . S
H472 C469 0.999 . S
H473 C454 0.913 . S
H474 C492 0.951 . S
H475 C494 0.951 . S
H476 C496 0.950 . S
H477 C497 0.950 . S
H478 C499 0.950 . S
H479 C502 0.950 . S
H480 C503 0.950 . S
H481 C505 0.950 . S
H482 C506 0.950 . S
H483 C507 0.951 . S
H484 C509 0.951 . S
H485 C511 0.950 . S
H486 C512 0.950 . S
H487 C514 0.950 . S
H488 C517 0.950 . S
H489 C518 0.950 . S
H490 C520 0.950 . S
H491 C521 0.950 . S
C492 H474 0.951 . S
C492 C493 1.366 . S
C492 C494 1.388 . S
C493 C492 1.366 . S
C493 C497 1.385 . S
C494 H475 0.951 . S
C494 C492 1.388 . S
C494 C495 1.366 . S
C495 C494 1.366 . S
C495 C496 1.414 . S
C495 C498 1.499 . S
C496 H476 0.950 . S
C496 C495 1.414 . S
C496 C497 1.374 . S
C497 H477 0.950 . S
C497 C493 1.385 . S
C497 C496 1.374 . S
C498 C495 1.499 . S
C498 C499 1.373 . S
C498 C500 1.389 . S
C499 H478 0.950 . S
C499 C498 1.373 . S
C499 C515 1.377 . S
C500 C498 1.389 . S
C500 C501 1.524 . S
C500 C514 1.377 . S
C501 C500 1.524 . S
C501 C502 1.397 . S
C501 C506 1.363 . S
C502 H479 0.950 . S
C502 C501 1.397 . S
C502 C503 1.334 . S
C503 H480 0.950 . S
C503 C502 1.334 . S
C503 C504 1.287 . S
C504 C503 1.287 . S
C504 C505 1.524 . S
C504 H523 0.913 . S
C505 H481 0.950 . S
C505 C504 1.524 . S
C505 C506 1.415 . S
C506 H482 0.950 . S
C506 C501 1.363 . S
C506 C505 1.415 . S
C507 H483 0.951 . S
C507 C508 1.366 . S
C507 C509 1.388 . S
C508 C507 1.366 . S
C508 C512 1.385 . S
C509 H484 0.951 . S
C509 C507 1.388 . S
C509 C510 1.366 . S
C510 C509 1.366 . S
C510 C511 1.414 . S
C510 C513 1.499 . S
C511 H485 0.950 . S
C511 C510 1.414 . S
C511 C512 1.374 . S
C512 H486 0.950 . S
C512 C508 1.385 . S
C512 C511 1.374 . S
C513 C510 1.499 . S
C513 C514 1.373 . S
C513 C515 1.389 . S
C514 H487 0.950 . S
C514 C500 1.377 . S
C514 C513 1.373 . S
C515 C499 1.377 . S
C515 C513 1.389 . S
C515 C516 1.524 . S
C516 C515 1.524 . S
C516 C517 1.397 . S
C516 C521 1.363 . S
C517 H488 0.950 . S
C517 C516 1.397 . S
C517 C518 1.334 . S
C518 H489 0.950 . S
C518 C517 1.334 . S
C518 C519 1.287 . S
C519 C518 1.287 . S
C519 C520 1.524 . S
C519 H522 0.999 . S
C520 H490 0.950 . S
C520 C519 1.524 . S
C520 C521 1.415 . S
C521 H491 0.950 . S
C521 C516 1.363 . S
C521 C520 1.415 . S
H522 C519 0.999 . S
H523 C504 0.913 . S
H524 C542 0.951 . S
H525 C544 0.951 . S
H526 C546 0.950 . S
H527 C547 0.950 . S
H528 C549 0.950 . S
H529 C552 0.950 . S
H530 C553 0.950 . S
H531 C555 0.950 . S
H532 C556 0.950 . S
H533 C557 0.951 . S
H534 C559 0.951 . S
H535 C561 0.950 . S
H536 C562 0.950 . S
H537 C564 0.950 . S
H538 C567 0.950 . S
H539 C568 0.950 . S
H540 C570 0.950 . S
H541 C571 0.950 . S
C542 H524 0.951 . S
C542 C543 1.366 . S
C542 C544 1.388 . S
C543 C542 1.366 . S
C543 C547 1.385 . S
C544 H525 0.951 . S
C544 C542 1.388 . S
C544 C545 1.366 . S
C545 C544 1.366 . S
C545 C546 1.414 . S
C545 C548 1.499 . S
C546 H526 0.950 . S
C546 C545 1.414 . S
C546 C547 1.374 . S
C547 H527 0.950 . S
C547 C543 1.385 . S
C547 C546 1.374 . S
C548 C545 1.499 . S
C548 C549 1.373 . S
C548 C550 1.389 . S
C549 H528 0.950 . S
C549 C548 1.373 . S
C549 C565 1.377 . S
C550 C548 1.389 . S
C550 C551 1.524 . S
C550 C564 1.377 . S
C551 C550 1.524 . S
C551 C552 1.397 . S
C551 C556 1.363 . S
C552 H529 0.950 . S
C552 C551 1.397 . S
C552 C553 1.334 . S
C553 H530 0.950 . S
C553 C552 1.334 . S
C553 C554 1.287 . S
C554 C553 1.287 . S
C554 C555 1.524 . S
C554 H573 0.913 . S
C555 H531 0.950 . S
C555 C554 1.524 . S
C555 C556 1.415 . S
C556 H532 0.950 . S
C556 C551 1.363 . S
C556 C555 1.415 . S
C557 H533 0.951 . S
C557 C558 1.366 . S
C557 C559 1.388 . S
C558 C557 1.366 . S
C558 C562 1.385 . S
C559 H534 0.951 . S
C559 C557 1.388 . S
C559 C560 1.366 . S
C560 C559 1.366 . S
C560 C561 1.414 . S
C560 C563 1.499 . S
C561 H535 0.950 . S
C561 C560 1.414 . S
C561 C562 1.374 . S
C562 H536 0.950 . S
C562 C558 1.385 . S
C562 C561 1.374 . S
C563 C560 1.499 . S
C563 C564 1.373 . S
C563 C565 1.389 . S
C564 H537 0.950 . S
C564 C550 1.377 . S
C564 C563 1.373 . S
C565 C549 1.377 . S
C565 C563 1.389 . S
C565 C566 1.524 . S
C566 C565 1.524 . S
C566 C567 1.397 . S
C566 C571 1.363 . S
C567 H538 0.950 . S
C567 C566 1.397 . S
C567 C568 1.334 . S
C568 H539 0.950 . S
C568 C567 1.334 . S
C568 C569 1.287 . S
C569 C568 1.287 . S
C569 C570 1.524 . S
C569 H572 0.999 . S
C570 H540 0.950 . S
C570 C569 1.524 . S
C570 C571 1.415 . S
C571 H541 0.950 . S
C571 C566 1.363 . S
C571 C570 1.415 . S
H572 C569 0.999 . S
H573 C554 0.913 . S
H574 C592 0.951 . S
H575 C594 0.951 . S
H576 C596 0.950 . S
H577 C597 0.950 . S
H578 C599 0.950 . S
H579 C602 0.950 . S
H580 C603 0.950 . S
H581 C605 0.950 . S
H582 C606 0.950 . S
H583 C607 0.951 . S
H584 C609 0.951 . S
H585 C611 0.950 . S
H586 C612 0.950 . S
H587 C614 0.950 . S
H588 C617 0.950 . S
H589 C618 0.950 . S
H590 C620 0.950 . S
H591 C621 0.950 . S
C592 H574 0.951 . S
C592 C593 1.366 . S
C592 C594 1.388 . S
C593 C592 1.366 . S
C593 C597 1.385 . S
C594 H575 0.951 . S
C594 C592 1.388 . S
C594 C595 1.366 . S
C595 C594 1.366 . S
C595 C596 1.414 . S
C595 C598 1.499 . S
C596 H576 0.950 . S
C596 C595 1.414 . S
C596 C597 1.374 . S
C597 H577 0.950 . S
C597 C593 1.385 . S
C597 C596 1.374 . S
C598 C595 1.499 . S
C598 C599 1.373 . S
C598 C600 1.389 . S
C599 H578 0.950 . S
C599 C598 1.373 . S
C599 C615 1.377 . S
C600 C598 1.389 . S
C600 C601 1.524 . S
C600 C614 1.377 . S
C601 C600 1.524 . S
C601 C602 1.397 . S
C601 C606 1.363 . S
C602 H579 0.950 . S
C602 C601 1.397 . S
C602 C603 1.334 . S
C603 H580 0.950 . S
C603 C602 1.334 . S
C603 C604 1.287 . S
C604 C603 1.287 . S
C604 C605 1.524 . S
C604 H623 0.913 . S
C605 H581 0.950 . S
C605 C604 1.524 . S
C605 C606 1.415 . S
C606 H582 0.950 . S
C606 C601 1.363 . S
C606 C605 1.415 . S
C607 H583 0.951 . S
C607 C608 1.366 . S
C607 C609 1.388 . S
C608 C607 1.366 . S
C608 C612 1.385 . S
C609 H584 0.951 . S
C609 C607 1.388 . S
C609 C610 1.366 . S
C610 C609 1.366 . S
C610 C611 1.414 . S
C610 C613 1.499 . S
C611 H585 0.950 . S
C611 C610 1.414 . S
C611 C612 1.374 . S
C612 H586 0.950 . S
C612 C608 1.385 . S
C612 C611 1.374 . S
C613 C610 1.499 . S
C613 C614 1.373 . S
C613 C615 1.389 . S
C614 H587 0.950 . S
C614 C600 1.377 . S
C614 C613 1.373 . S
C615 C599 1.377 . S
C615 C613 1.389 . S
C615 C616 1.524 . S
C616 C615 1.524 . S
C616 C617 1.397 . S
C616 C621 1.363 . S
C617 H588 0.950 . S
C617 C616 1.397 . S
C617 C618 1.334 . S
C618 H589 0.950 . S
C618 C617 1.334 . S
C618 C619 1.287 . S
C619 C618 1.287 . S
C619 C620 1.524 . S
C619 H622 0.999 . S
C620 H590 0.950 . S
C620 C619 1.524 . S
C620 C621 1.415 . S
C621 H591 0.950 . S
C621 C616 1.363 . S
C621 C620 1.415 . S
H622 C619 0.999 . S
H623 C604 0.913 . S
H624 C642 0.951 . S
H625 C644 0.951 . S
H626 C646 0.950 . S
H627 C647 0.950 . S
H628 C649 0.950 . S
H629 C652 0.950 . S
H630 C653 0.950 . S
H631 C655 0.950 . S
H632 C656 0.950 . S
H633 C657 0.951 . S
H634 C659 0.951 . S
H635 C661 0.950 . S
H636 C662 0.950 . S
H637 C664 0.950 . S
H638 C667 0.950 . S
H639 C668 0.950 . S
H640 C670 0.950 . S
H641 C671 0.950 . S
C642 H624 0.951 . S
C642 C643 1.366 . S
C642 C644 1.388 . S
C643 C642 1.366 . S
C643 C647 1.385 . S
C644 H625 0.951 . S
C644 C642 1.388 . S
C644 C645 1.366 . S
C645 C644 1.366 . S
C645 C646 1.414 . S
C645 C648 1.499 . S
C646 H626 0.950 . S
C646 C645 1.414 . S
C646 C647 1.374 . S
C647 H627 0.950 . S
C647 C643 1.385 . S
C647 C646 1.374 . S
C648 C645 1.499 . S
C648 C649 1.373 . S
C648 C650 1.389 . S
C649 H628 0.950 . S
C649 C648 1.373 . S
C649 C665 1.377 . S
C650 C648 1.389 . S
C650 C651 1.524 . S
C650 C664 1.377 . S
C651 C650 1.524 . S
C651 C652 1.397 . S
C651 C656 1.363 . S
C652 H629 0.950 . S
C652 C651 1.397 . S
C652 C653 1.334 . S
C653 H630 0.950 . S
C653 C652 1.334 . S
C653 C654 1.287 . S
C654 C653 1.287 . S
C654 C655 1.524 . S
C654 H673 0.913 . S
C655 H631 0.950 . S
C655 C654 1.524 . S
C655 C656 1.415 . S
C656 H632 0.950 . S
C656 C651 1.363 . S
C656 C655 1.415 . S
C657 H633 0.951 . S
C657 C658 1.366 . S
C657 C659 1.388 . S
C658 C657 1.366 . S
C658 C662 1.385 . S
C659 H634 0.951 . S
C659 C657 1.388 . S
C659 C660 1.366 . S
C660 C659 1.366 . S
C660 C661 1.414 . S
C660 C663 1.499 . S
C661 H635 0.950 . S
C661 C660 1.414 . S
C661 C662 1.374 . S
C662 H636 0.950 . S
C662 C658 1.385 . S
C662 C661 1.374 . S
C663 C660 1.499 . S
C663 C664 1.373 . S
C663 C665 1.389 . S
C664 H637 0.950 . S
C664 C650 1.377 . S
C664 C663 1.373 . S
C665 C649 1.377 . S
C665 C663 1.389 . S
C665 C666 1.524 . S
C666 C665 1.524 . S
C666 C667 1.397 . S
C666 C671 1.363 . S
C667 H638 0.950 . S
C667 C666 1.397 . S
C667 C668 1.334 . S
C668 H639 0.950 . S
C668 C667 1.334 . S
C668 C669 1.287 . S
C669 C668 1.287 . S
C669 C670 1.524 . S
C669 H672 0.999 . S
C670 H640 0.950 . S
C670 C669 1.524 . S
C670 C671 1.415 . S
C671 H641 0.950 . S
C671 C666 1.363 . S
C671 C670 1.415 . S
H672 C669 0.999 . S
H673 C654 0.913 . S
H674 C692 0.951 . S
H675 C694 0.951 . S
H676 C696 0.950 . S
H677 C697 0.950 . S
H678 C699 0.950 . S
H679 C702 0.950 . S
H680 C703 0.950 . S
H681 C705 0.950 . S
H682 C706 0.950 . S
H683 C707 0.951 . S
H684 C709 0.951 . S
H685 C711 0.950 . S
H686 C712 0.950 . S
H687 C714 0.950 . S
H688 C717 0.950 . S
H689 C718 0.950 . S
H690 C720 0.950 . S
H691 C721 0.950 . S
C692 H674 0.951 . S
C692 C693 1.366 . S
C692 C694 1.388 . S
C693 C692 1.366 . S
C693 C697 1.385 . S
C694 H675 0.951 . S
C694 C692 1.388 . S
C694 C695 1.366 . S
C695 C694 1.366 . S
C695 C696 1.414 . S
C695 C698 1.499 . S
C696 H676 0.950 . S
C696 C695 1.414 . S
C696 C697 1.374 . S
C697 H677 0.950 . S
C697 C693 1.385 . S
C697 C696 1.374 . S
C698 C695 1.499 . S
C698 C699 1.373 . S
C698 C700 1.389 . S
C699 H678 0.950 . S
C699 C698 1.373 . S
C699 C715 1.377 . S
C700 C698 1.389 . S
C700 C701 1.524 . S
C700 C714 1.377 . S
C701 C700 1.524 . S
C701 C702 1.397 . S
C701 C706 1.363 . S
C702 H679 0.950 . S
C702 C701 1.397 . S
C702 C703 1.334 . S
C703 H680 0.950 . S
C703 C702 1.334 . S
C703 C704 1.287 . S
C704 C703 1.287 . S
C704 C705 1.524 . S
C704 H723 0.913 . S
C705 H681 0.950 . S
C705 C704 1.524 . S
C705 C706 1.415 . S
C706 H682 0.950 . S
C706 C701 1.363 . S
C706 C705 1.415 . S
C707 H683 0.951 . S
C707 C708 1.366 . S
C707 C709 1.388 . S
C708 C707 1.366 . S
C708 C712 1.385 . S
C709 H684 0.951 . S
C709 C707 1.388 . S
C709 C710 1.366 . S
C710 C709 1.366 . S
C710 C711 1.414 . S
C710 C713 1.499 . S
C711 H685 0.950 . S
C711 C710 1.414 . S
C711 C712 1.374 . S
C712 H686 0.950 . S
C712 C708 1.385 . S
C712 C711 1.374 . S
C713 C710 1.499 . S
C713 C714 1.373 . S
C713 C715 1.389 . S
C714 H687 0.950 . S
C714 C700 1.377 . S
C714 C713 1.373 . S
C715 C699 1.377 . S
C715 C713 1.389 . S
C715 C716 1.524 . S
C716 C715 1.524 . S
C716 C717 1.397 . S
C716 C721 1.363 . S
C717 H688 0.950 . S
C717 C716 1.397 . S
C717 C718 1.334 . S
C718 H689 0.950 . S
C718 C717 1.334 . S
C718 C719 1.287 . S
C719 C718 1.287 . S
C719 C720 1.524 . S
C719 H722 0.999 . S
C720 H690 0.950 . S
C720 C719 1.524 . S
C720 C721 1.415 . S
C721 H691 0.950 . S
C721 C716 1.363 . S
C721 C720 1.415 . S
H722 C719 0.999 . S
H723 C704 0.913 . S
H724 C742 0.951 . S
H725 C744 0.951 . S
H726 C746 0.950 . S
H727 C747 0.950 . S
H728 C749 0.950 . S
H729 C752 0.950 . S
H730 C753 0.950 . S
H731 C755 0.950 . S
H732 C756 0.950 . S
H733 C757 0.951 . S
H734 C759 0.951 . S
H735 C761 0.950 . S
H736 C762 0.950 . S
H737 C764 0.950 . S
H738 C767 0.950 . S
H739 C768 0.950 . S
H740 C770 0.950 . S
H741 C771 0.950 . S
C742 H724 0.951 . S
C742 C743 1.366 . S
C742 C744 1.388 . S
C743 C742 1.366 . S
C743 C747 1.385 . S
C744 H725 0.951 . S
C744 C742 1.388 . S
C744 C745 1.366 . S
C745 C744 1.366 . S
C745 C746 1.414 . S
C745 C748 1.499 . S
C746 H726 0.950 . S
C746 C745 1.414 . S
C746 C747 1.374 . S
C747 H727 0.950 . S
C747 C743 1.385 . S
C747 C746 1.374 . S
C748 C745 1.499 . S
C748 C749 1.373 . S
C748 C750 1.389 . S
C749 H728 0.950 . S
C749 C748 1.373 . S
C749 C765 1.377 . S
C750 C748 1.389 . S
C750 C751 1.524 . S
C750 C764 1.377 . S
C751 C750 1.524 . S
C751 C752 1.397 . S
C751 C756 1.363 . S
C752 H729 0.950 . S
C752 C751 1.397 . S
C752 C753 1.334 . S
C753 H730 0.950 . S
C753 C752 1.334 . S
C753 C754 1.287 . S
C754 C753 1.287 . S
C754 C755 1.524 . S
C754 H773 0.913 . S
C755 H731 0.950 . S
C755 C754 1.524 . S
C755 C756 1.415 . S
C756 H732 0.950 . S
C756 C751 1.363 . S
C756 C755 1.415 . S
C757 H733 0.951 . S
C757 C758 1.366 . S
C757 C759 1.388 . S
C758 C757 1.366 . S
C758 C762 1.385 . S
C759 H734 0.951 . S
C759 C757 1.388 . S
C759 C760 1.366 . S
C760 C759 1.366 . S
C760 C761 1.414 . S
C760 C763 1.499 . S
C761 H735 0.950 . S
C761 C760 1.414 . S
C761 C762 1.374 . S
C762 H736 0.950 . S
C762 C758 1.385 . S
C762 C761 1.374 . S
C763 C760 1.499 . S
C763 C764 1.373 . S
C763 C765 1.389 . S
C764 H737 0.950 . S
C764 C750 1.377 . S
C764 C763 1.373 . S
C765 C749 1.377 . S
C765 C763 1.389 . S
C765 C766 1.524 . S
C766 C765 1.524 . S
C766 C767 1.397 . S
C766 C771 1.363 . S
C767 H738 0.950 . S
C767 C766 1.397 . S
C767 C768 1.334 . S
C768 H739 0.950 . S
C768 C767 1.334 . S
C768 C769 1.287 . S
C769 C768 1.287 . S
C769 C770 1.524 . S
C769 H772 0.999 . S
C770 H740 0.950 . S
C770 C769 1.524 . S
C770 C771 1.415 . S
C771 H741 0.950 . S
C771 C766 1.363 . S
C771 C770 1.415 . S
H772 C769 0.999 . S
H773 C754 0.913 . S
H774 C792 0.951 . S
H775 C794 0.951 . S
H776 C796 0.950 . S
H777 C797 0.950 . S
H778 C799 0.950 . S
H779 C802 0.950 . S
H780 C803 0.950 . S
H781 C805 0.950 . S
H782 C806 0.940 1_556 S
H783 C807 0.951 . S
H784 C809 0.951 . S
H785 C811 0.950 . S
H786 C812 0.950 . S
H787 C814 0.950 . S
H788 C817 0.950 . S
H789 C818 0.950 . S
H790 C820 0.950 . S
H791 C821 0.940 1_554 S
C792 H774 0.951 . S
C792 C793 1.366 . S
C792 C794 1.388 . S
C793 C792 1.366 . S
C793 C797 1.385 . S
C794 H775 0.951 . S
C794 C792 1.388 . S
C794 C795 1.366 . S
C795 C794 1.366 . S
C795 C796 1.414 . S
C795 C798 1.499 . S
C796 H776 0.950 . S
C796 C795 1.414 . S
C796 C797 1.374 . S
C797 H777 0.950 . S
C797 C793 1.385 . S
C797 C796 1.374 . S
C798 C795 1.499 . S
C798 C799 1.373 . S
C798 C800 1.389 . S
C799 H778 0.950 . S
C799 C798 1.373 . S
C799 C815 1.377 1_554 S
C800 C798 1.389 . S
C800 C801 1.524 . S
C800 C814 1.377 1_554 S
C801 C800 1.524 . S
C801 C802 1.397 . S
C801 C806 1.363 . S
C802 H779 0.950 . S
C802 C801 1.397 . S
C802 C803 1.334 . S
C803 H780 0.950 . S
C803 C802 1.334 . S
C803 C804 1.287 . S
C804 C803 1.287 . S
C804 C805 1.524 . S
C804 H823 0.913 . S
C805 H781 0.950 . S
C805 C804 1.524 . S
C805 C806 1.415 . S
C806 H782 0.940 1_554 S
C806 C801 1.363 . S
C806 C805 1.415 . S
C807 H783 0.951 . S
C807 C808 1.366 . S
C807 C809 1.388 . S
C808 C807 1.366 . S
C808 C812 1.385 . S
C809 H784 0.951 . S
C809 C807 1.388 . S
C809 C810 1.366 . S
C810 C809 1.366 . S
C810 C811 1.414 . S
C810 C813 1.499 . S
C811 H785 0.950 . S
C811 C810 1.414 . S
C811 C812 1.374 . S
C812 H786 0.950 . S
C812 C808 1.385 . S
C812 C811 1.374 . S
C813 C810 1.499 . S
C813 C814 1.373 . S
C813 C815 1.389 . S
C814 H787 0.950 . S
C814 C800 1.377 1_556 S
C814 C813 1.373 . S
C815 C799 1.377 1_556 S
C815 C813 1.389 . S
C815 C816 1.524 . S
C816 C815 1.524 . S
C816 C817 1.397 . S
C816 C821 1.363 . S
C817 H788 0.950 . S
C817 C816 1.397 . S
C817 C818 1.334 . S
C818 H789 0.950 . S
C818 C817 1.334 . S
C818 C819 1.287 . S
C819 C818 1.287 . S
C819 C820 1.524 . S
C819 H822 0.999 . S
C820 H790 0.950 . S
C820 C819 1.524 . S
C820 C821 1.415 . S
C821 H791 0.940 1_556 S
C821 C816 1.363 . S
C821 C820 1.415 . S
H822 C819 0.999 . S
H823 C804 0.913 . S
H824 C842 0.951 . S
H825 C844 0.951 . S
H826 C846 0.950 . S
H827 C847 0.950 . S
H828 C849 0.950 . S
H829 C852 0.950 . S
H830 C853 0.950 . S
H831 C855 0.950 . S
H832 C856 0.950 . S
H833 C857 0.951 . S
H834 C859 0.951 . S
H835 C861 0.950 . S
H836 C862 0.950 . S
H837 C864 0.950 . S
H838 C867 0.950 . S
H839 C868 0.950 . S
H840 C870 0.950 . S
H841 C871 0.950 . S
C842 H824 0.951 . S
C842 C843 1.366 . S
C842 C844 1.388 . S
C843 C842 1.366 . S
C843 C847 1.385 . S
C844 H825 0.951 . S
C844 C842 1.388 . S
C844 C845 1.366 . S
C845 C844 1.366 . S
C845 C846 1.414 . S
C845 C848 1.499 . S
C846 H826 0.950 . S
C846 C845 1.414 . S
C846 C847 1.374 . S
C847 H827 0.950 . S
C847 C843 1.385 . S
C847 C846 1.374 . S
C848 C845 1.499 . S
C848 C849 1.373 . S
C848 C850 1.389 . S
C849 H828 0.950 . S
C849 C848 1.373 . S
C849 C865 1.377 1_554 S
C850 C848 1.389 . S
C850 C851 1.524 . S
C850 C864 1.377 1_554 S
C851 C850 1.524 . S
C851 C852 1.397 . S
C851 C856 1.363 . S
C852 H829 0.950 . S
C852 C851 1.397 . S
C852 C853 1.334 . S
C853 H830 0.950 . S
C853 C852 1.334 . S
C853 C854 1.287 . S
C854 C853 1.287 . S
C854 C855 1.524 . S
C854 H873 0.913 . S
C855 H831 0.950 . S
C855 C854 1.524 . S
C855 C856 1.415 . S
C856 H832 0.950 . S
C856 C851 1.363 . S
C856 C855 1.415 . S
C857 H833 0.951 . S
C857 C858 1.366 . S
C857 C859 1.388 . S
C858 C857 1.366 . S
C858 C862 1.385 . S
C859 H834 0.951 . S
C859 C857 1.388 . S
C859 C860 1.366 . S
C860 C859 1.366 . S
C860 C861 1.414 . S
C860 C863 1.499 . S
C861 H835 0.950 . S
C861 C860 1.414 . S
C861 C862 1.374 . S
C862 H836 0.950 . S
C862 C858 1.385 . S
C862 C861 1.374 . S
C863 C860 1.499 . S
C863 C864 1.373 . S
C863 C865 1.389 . S
C864 H837 0.950 . S
C864 C850 1.377 1_556 S
C864 C863 1.373 . S
C865 C849 1.377 1_556 S
C865 C863 1.389 . S
C865 C866 1.524 . S
C866 C865 1.524 . S
C866 C867 1.397 . S
C866 C871 1.363 . S
C867 H838 0.950 . S
C867 C866 1.397 . S
C867 C868 1.334 . S
C868 H839 0.950 . S
C868 C867 1.334 . S
C868 C869 1.287 . S
C869 C868 1.287 . S
C869 C870 1.524 . S
C869 H872 0.999 . S
C870 H840 0.950 . S
C870 C869 1.524 . S
C870 C871 1.415 . S
C871 H841 0.950 . S
C871 C866 1.363 . S
C871 C870 1.415 . S
H872 C869 0.999 . S
H873 C854 0.913 . S
H874 C892 0.951 . S
H875 C894 0.951 . S
H876 C896 0.950 . S
H877 C897 0.950 . S
H878 C899 0.950 . S
H879 C902 0.950 . S
H880 C903 0.950 . S
H881 C905 0.950 . S
H882 C906 0.950 . S
H883 C907 0.951 . S
H884 C909 0.951 . S
H885 C911 0.950 . S
H886 C912 0.950 . S
H887 C914 0.950 . S
H888 C917 0.950 . S
H889 C918 0.950 . S
H890 C920 0.950 . S
H891 C921 0.950 . S
C892 H874 0.951 . S
C892 C893 1.366 . S
C892 C894 1.388 . S
C893 C892 1.366 . S
C893 C897 1.385 . S
C894 H875 0.951 . S
C894 C892 1.388 . S
C894 C895 1.366 . S
C895 C894 1.366 . S
C895 C896 1.414 . S
C895 C898 1.499 . S
C896 H876 0.950 . S
C896 C895 1.414 . S
C896 C897 1.374 . S
C897 H877 0.950 . S
C897 C893 1.385 . S
C897 C896 1.374 . S
C898 C895 1.499 . S
C898 C899 1.373 . S
C898 C900 1.389 . S
C899 H878 0.950 . S
C899 C898 1.373 . S
C899 C915 1.377 . S
C900 C898 1.389 . S
C900 C901 1.524 . S
C900 C914 1.377 . S
C901 C900 1.524 . S
C901 C902 1.397 . S
C901 C906 1.363 . S
C902 H879 0.950 . S
C902 C901 1.397 . S
C902 C903 1.334 . S
C903 H880 0.950 . S
C903 C902 1.334 . S
C903 C904 1.287 . S
C904 C903 1.287 . S
C904 C905 1.524 . S
C904 H923 0.913 . S
C905 H881 0.950 . S
C905 C904 1.524 . S
C905 C906 1.415 . S
C906 H882 0.950 . S
C906 C901 1.363 . S
C906 C905 1.415 . S
C907 H883 0.951 . S
C907 C908 1.366 . S
C907 C909 1.388 . S
C908 C907 1.366 . S
C908 C912 1.385 . S
C909 H884 0.951 . S
C909 C907 1.388 . S
C909 C910 1.366 . S
C910 C909 1.366 . S
C910 C911 1.414 . S
C910 C913 1.499 . S
C911 H885 0.950 . S
C911 C910 1.414 . S
C911 C912 1.374 . S
C912 H886 0.950 . S
C912 C908 1.385 . S
C912 C911 1.374 . S
C913 C910 1.499 . S
C913 C914 1.373 . S
C913 C915 1.389 . S
C914 H887 0.950 . S
C914 C900 1.377 . S
C914 C913 1.373 . S
C915 C899 1.377 . S
C915 C913 1.389 . S
C915 C916 1.524 . S
C916 C915 1.524 . S
C916 C917 1.397 . S
C916 C921 1.363 . S
C917 H888 0.950 . S
C917 C916 1.397 . S
C917 C918 1.334 . S
C918 H889 0.950 . S
C918 C917 1.334 . S
C918 C919 1.287 . S
C919 C918 1.287 . S
C919 C920 1.524 . S
C919 H922 0.999 . S
C920 H890 0.950 . S
C920 C919 1.524 . S
C920 C921 1.415 . S
C921 H891 0.950 . S
C921 C916 1.363 . S
C921 C920 1.415 . S
H922 C919 0.999 . S
H923 C904 0.913 . S
H924 C942 0.951 . S
H925 C944 0.951 . S
H926 C946 0.950 . S
H927 C947 0.950 . S
H928 C949 0.950 . S
H929 C952 0.950 . S
H930 C953 0.950 . S
H931 C955 0.950 . S
H932 C956 0.950 . S
H933 C957 0.951 . S
H934 C959 0.951 . S
H935 C961 0.950 . S
H936 C962 0.950 . S
H937 C964 0.950 . S
H938 C967 0.950 . S
H939 C968 0.950 . S
H940 C970 0.950 . S
H941 C971 0.950 . S
C942 H924 0.951 . S
C942 C943 1.366 . S
C942 C944 1.388 . S
C943 C942 1.366 . S
C943 C947 1.385 . S
C944 H925 0.951 . S
C944 C942 1.388 . S
C944 C945 1.366 . S
C945 C944 1.366 . S
C945 C946 1.414 . S
C945 C948 1.499 . S
C946 H926 0.950 . S
C946 C945 1.414 . S
C946 C947 1.374 . S
C947 H927 0.950 . S
C947 C943 1.385 . S
C947 C946 1.374 . S
C948 C945 1.499 . S
C948 C949 1.373 . S
C948 C950 1.389 . S
C949 H928 0.950 . S
C949 C948 1.373 . S
C949 C965 1.377 . S
C950 C948 1.389 . S
C950 C951 1.524 . S
C950 C964 1.377 . S
C951 C950 1.524 . S
C951 C952 1.397 . S
C951 C956 1.363 . S
C952 H929 0.950 . S
C952 C951 1.397 . S
C952 C953 1.334 . S
C953 H930 0.950 . S
C953 C952 1.334 . S
C953 C954 1.287 . S
C954 C953 1.287 . S
C954 C955 1.524 . S
C954 H973 0.913 . S
C955 H931 0.950 . S
C955 C954 1.524 . S
C955 C956 1.415 . S
C956 H932 0.950 . S
C956 C951 1.363 . S
C956 C955 1.415 . S
C957 H933 0.951 . S
C957 C958 1.366 . S
C957 C959 1.388 . S
C958 C957 1.366 . S
C958 C962 1.385 . S
C959 H934 0.951 . S
C959 C957 1.388 . S
C959 C960 1.366 . S
C960 C959 1.366 . S
C960 C961 1.414 . S
C960 C963 1.499 . S
C961 H935 0.950 . S
C961 C960 1.414 . S
C961 C962 1.374 . S
C962 H936 0.950 . S
C962 C958 1.385 . S
C962 C961 1.374 . S
C963 C960 1.499 . S
C963 C964 1.373 . S
C963 C965 1.389 . S
C964 H937 0.950 . S
C964 C950 1.377 . S
C964 C963 1.373 . S
C965 C949 1.377 . S
C965 C963 1.389 . S
C965 C966 1.524 . S
C966 C965 1.524 . S
C966 C967 1.397 . S
C966 C971 1.363 . S
C967 H938 0.950 . S
C967 C966 1.397 . S
C967 C968 1.334 . S
C968 H939 0.950 . S
C968 C967 1.334 . S
C968 C969 1.287 . S
C969 C968 1.287 . S
C969 C970 1.524 . S
C969 H972 0.999 . S
C970 H940 0.950 . S
C970 C969 1.524 . S
C970 C971 1.415 . S
C971 H941 0.950 . S
C971 C966 1.363 . S
C971 C970 1.415 . S
H972 C969 0.999 . S
H973 C954 0.913 . S
H974 C992 0.951 . S
H975 C994 0.951 . S
H976 C996 0.950 . S
H977 C997 0.950 . S
H978 C999 0.950 . S
H979 C1002 0.950 . S
H980 C1003 0.950 . S
H981 C1005 0.950 . S
H982 C1006 0.950 . S
H983 C1007 0.951 . S
H984 C1009 0.951 . S
H985 C1011 0.950 . S
H986 C1012 0.950 . S
H987 C1014 0.950 . S
H988 C1017 0.950 . S
H989 C1018 0.950 . S
H990 C1020 0.950 . S
H991 C1021 0.950 . S
C992 H974 0.951 . S
C992 C993 1.366 . S
C992 C994 1.388 . S
C993 C992 1.366 . S
C993 C997 1.385 . S
C994 H975 0.951 . S
C994 C992 1.388 . S
C994 C995 1.366 . S
C995 C994 1.366 . S
C995 C996 1.414 . S
C995 C998 1.499 . S
C996 H976 0.950 . S
C996 C995 1.414 . S
C996 C997 1.374 . S
C997 H977 0.950 . S
C997 C993 1.385 . S
C997 C996 1.374 . S
C998 C995 1.499 . S
C998 C999 1.373 . S
C998 C1000 1.389 . S
C999 H978 0.950 . S
C999 C998 1.373 . S
C999 C1015 1.377 . S
C1000 C998 1.389 . S
C1000 C1001 1.524 . S
C1000 C1014 1.377 . S
C1001 C1000 1.524 . S
C1001 C1002 1.397 . S
C1001 C1006 1.363 . S
C1002 H979 0.950 . S
C1002 C1001 1.397 . S
C1002 C1003 1.334 . S
C1003 H980 0.950 . S
C1003 C1002 1.334 . S
C1003 C1004 1.287 . S
C1004 C1003 1.287 . S
C1004 C1005 1.524 . S
C1004 H1023 0.913 . S
C1005 H981 0.950 . S
C1005 C1004 1.524 . S
C1005 C1006 1.415 . S
C1006 H982 0.950 . S
C1006 C1001 1.363 . S
C1006 C1005 1.415 . S
C1007 H983 0.951 . S
C1007 C1008 1.366 . S
C1007 C1009 1.388 . S
C1008 C1007 1.366 . S
C1008 C1012 1.385 . S
C1009 H984 0.951 . S
C1009 C1007 1.388 . S
C1009 C1010 1.366 . S
C1010 C1009 1.366 . S
C1010 C1011 1.414 . S
C1010 C1013 1.499 . S
C1011 H985 0.950 . S
C1011 C1010 1.414 . S
C1011 C1012 1.374 . S
C1012 H986 0.950 . S
C1012 C1008 1.385 . S
C1012 C1011 1.374 . S
C1013 C1010 1.499 . S
C1013 C1014 1.373 . S
C1013 C1015 1.389 . S
C1014 H987 0.950 . S
C1014 C1000 1.377 . S
C1014 C1013 1.373 . S
C1015 C999 1.377 . S
C1015 C1013 1.389 . S
C1015 C1016 1.524 . S
C1016 C1015 1.524 . S
C1016 C1017 1.397 . S
C1016 C1021 1.363 . S
C1017 H988 0.950 . S
C1017 C1016 1.397 . S
C1017 C1018 1.334 . S
C1018 H989 0.950 . S
C1018 C1017 1.334 . S
C1018 C1019 1.287 . S
C1019 C1018 1.287 . S
C1019 C1020 1.524 . S
C1019 H1022 0.999 . S
C1020 H990 0.950 . S
C1020 C1019 1.524 . S
C1020 C1021 1.415 . S
C1021 H991 0.950 . S
C1021 C1016 1.363 . S
C1021 C1020 1.415 . S
H1022 C1019 0.999 . S
H1023 C1004 0.913 . S
H1024 C1042 0.951 . S
H1025 C1044 0.951 . S
H1026 C1046 0.950 1_565 S
H1027 C1047 0.950 . S
H1028 C1049 0.950 . S
H1029 C1052 0.950 . S
H1030 C1053 0.950 . S
H1031 C1055 0.950 . S
H1032 C1056 0.950 . S
H1033 C1057 0.951 . S
H1034 C1059 0.951 . S
H1035 C1061 0.950 1_545 S
H1036 C1062 0.950 . S
H1037 C1064 0.950 . S
H1038 C1067 0.950 . S
H1039 C1068 0.950 . S
H1040 C1070 0.950 . S
H1041 C1071 0.950 . S
C1042 H1024 0.951 . S
C1042 C1043 1.366 . S
C1042 C1044 1.388 . S
C1043 C1042 1.366 . S
C1043 C1047 1.385 . S
C1044 H1025 0.951 . S
C1044 C1042 1.388 . S
C1044 C1045 1.366 . S
C1045 C1044 1.366 . S
C1045 C1046 1.414 . S
C1045 C1048 1.499 . S
C1046 H1026 0.950 1_545 S
C1046 C1045 1.414 . S
C1046 C1047 1.374 . S
C1047 H1027 0.950 . S
C1047 C1043 1.385 . S
C1047 C1046 1.374 . S
C1048 C1045 1.499 . S
C1048 C1049 1.373 1_545 S
C1048 C1050 1.389 . S
C1049 H1028 0.950 . S
C1049 C1048 1.373 1_565 S
C1049 C1065 1.377 1_455 S
C1050 C1048 1.389 . S
C1050 C1051 1.524 . S
C1050 C1064 1.377 1_455 S
C1051 C1050 1.524 . S
C1051 C1052 1.397 . S
C1051 C1056 1.363 1_455 S
C1052 H1029 0.950 . S
C1052 C1051 1.397 . S
C1052 C1053 1.334 . S
C1053 H1030 0.950 . S
C1053 C1052 1.334 . S
C1053 C1054 1.287 . S
C1054 C1053 1.287 . S
C1054 C1055 1.524 1_455 S
C1054 H1073 0.913 . S
C1055 H1031 0.950 . S
C1055 C1054 1.524 1_655 S
C1055 C1056 1.415 . S
C1056 H1032 0.950 . S
C1056 C1051 1.363 1_655 S
C1056 C1055 1.415 . S
C1057 H1033 0.951 . S
C1057 C1058 1.366 . S
C1057 C1059 1.388 . S
C1058 C1057 1.366 . S
C1058 C1062 1.385 . S
C1059 H1034 0.951 . S
C1059 C1057 1.388 . S
C1059 C1060 1.366 . S
C1060 C1059 1.366 . S
C1060 C1061 1.414 . S
C1060 C1063 1.499 . S
C1061 H1035 0.950 1_565 S
C1061 C1060 1.414 . S
C1061 C1062 1.374 . S
C1062 H1036 0.950 . S
C1062 C1058 1.385 . S
C1062 C1061 1.374 . S
C1063 C1060 1.499 . S
C1063 C1064 1.373 1_565 S
C1063 C1065 1.389 . S
C1064 H1037 0.950 . S
C1064 C1050 1.377 1_655 S
C1064 C1063 1.373 1_545 S
C1065 C1049 1.377 1_655 S
C1065 C1063 1.389 . S
C1065 C1066 1.524 . S
C1066 C1065 1.524 . S
C1066 C1067 1.397 . S
C1066 C1071 1.363 1_655 S
C1067 H1038 0.950 . S
C1067 C1066 1.397 . S
C1067 C1068 1.334 . S
C1068 H1039 0.950 . S
C1068 C1067 1.334 . S
C1068 C1069 1.287 . S
C1069 C1068 1.287 . S
C1069 C1070 1.524 1_655 S
C1069 H1072 0.999 . S
C1070 H1040 0.950 . S
C1070 C1069 1.524 1_455 S
C1070 C1071 1.415 . S
C1071 H1041 0.950 . S
C1071 C1066 1.363 1_455 S
C1071 C1070 1.415 . S
H1072 C1069 0.999 . S
H1073 C1054 0.913 . S
H1074 C1092 0.951 . S
H1075 C1094 0.951 . S
H1076 C1096 0.950 . S
H1077 C1097 0.950 . S
H1078 C1099 0.950 . S
H1079 C1102 0.950 . S
H1080 C1103 0.950 . S
H1081 C1105 0.950 . S
H1082 C1106 0.950 . S
H1083 C1107 0.951 . S
H1084 C1109 0.951 . S
H1085 C1111 0.950 . S
H1086 C1112 0.950 . S
H1087 C1114 0.950 . S
H1088 C1117 0.950 . S
H1089 C1118 0.950 . S
H1090 C1120 0.950 . S
H1091 C1121 0.950 . S
C1092 H1074 0.951 . S
C1092 C1093 1.366 . S
C1092 C1094 1.388 . S
C1093 C1092 1.366 . S
C1093 C1097 1.385 . S
C1094 H1075 0.951 . S
C1094 C1092 1.388 . S
C1094 C1095 1.366 . S
C1095 C1094 1.366 . S
C1095 C1096 1.414 . S
C1095 C1098 1.499 . S
C1096 H1076 0.950 . S
C1096 C1095 1.414 . S
C1096 C1097 1.374 . S
C1097 H1077 0.950 . S
C1097 C1093 1.385 . S
C1097 C1096 1.374 . S
C1098 C1095 1.499 . S
C1098 C1099 1.373 1_455 S
C1098 C1100 1.389 . S
C1099 H1078 0.950 . S
C1099 C1098 1.373 1_655 S
C1099 C1115 1.377 . S
C1100 C1098 1.389 . S
C1100 C1101 1.524 . S
C1100 C1114 1.377 . S
C1101 C1100 1.524 . S
C1101 C1102 1.397 . S
C1101 C1106 1.363 . S
C1102 H1079 0.950 . S
C1102 C1101 1.397 . S
C1102 C1103 1.334 . S
C1103 H1080 0.950 . S
C1103 C1102 1.334 . S
C1103 C1104 1.287 . S
C1104 C1103 1.287 . S
C1104 C1105 1.524 . S
C1104 H1123 0.913 . S
C1105 H1081 0.950 . S
C1105 C1104 1.524 . S
C1105 C1106 1.415 . S
C1106 H1082 0.950 . S
C1106 C1101 1.363 . S
C1106 C1105 1.415 . S
C1107 H1083 0.951 . S
C1107 C1108 1.366 . S
C1107 C1109 1.388 . S
C1108 C1107 1.366 . S
C1108 C1112 1.385 . S
C1109 H1084 0.951 . S
C1109 C1107 1.388 . S
C1109 C1110 1.366 . S
C1110 C1109 1.366 . S
C1110 C1111 1.414 . S
C1110 C1113 1.499 . S
C1111 H1085 0.950 . S
C1111 C1110 1.414 . S
C1111 C1112 1.374 . S
C1112 H1086 0.950 . S
C1112 C1108 1.385 . S
C1112 C1111 1.374 . S
C1113 C1110 1.499 . S
C1113 C1114 1.373 1_655 S
C1113 C1115 1.389 . S
C1114 H1087 0.950 . S
C1114 C1100 1.377 . S
C1114 C1113 1.373 1_455 S
C1115 C1099 1.377 . S
C1115 C1113 1.389 . S
C1115 C1116 1.524 . S
C1116 C1115 1.524 . S
C1116 C1117 1.397 . S
C1116 C1121 1.363 . S
C1117 H1088 0.950 . S
C1117 C1116 1.397 . S
C1117 C1118 1.334 . S
C1118 H1089 0.950 . S
C1118 C1117 1.334 . S
C1118 C1119 1.287 . S
C1119 C1118 1.287 . S
C1119 C1120 1.524 . S
C1119 H1122 0.999 . S
C1120 H1090 0.950 . S
C1120 C1119 1.524 . S
C1120 C1121 1.415 . S
C1121 H1091 0.950 . S
C1121 C1116 1.363 . S
C1121 C1120 1.415 . S
H1122 C1119 0.999 . S
H1123 C1104 0.913 . S
H1124 C1142 0.951 . S
H1125 C1144 0.951 . S
H1126 C1146 0.950 . S
H1127 C1147 0.950 . S
H1128 C1149 0.950 . S
H1129 C1152 0.950 . S
H1130 C1153 0.950 . S
H1131 C1155 0.950 . S
H1132 C1156 0.950 . S
H1133 C1157 0.951 . S
H1134 C1159 0.951 . S
H1135 C1161 0.950 . S
H1136 C1162 0.950 . S
H1137 C1164 0.950 . S
H1138 C1167 0.950 . S
H1139 C1168 0.950 . S
H1140 C1170 0.950 . S
H1141 C1171 0.950 . S
C1142 H1124 0.951 . S
C1142 C1143 1.366 . S
C1142 C1144 1.388 . S
C1143 C1142 1.366 . S
C1143 C1147 1.385 . S
C1144 H1125 0.951 . S
C1144 C1142 1.388 . S
C1144 C1145 1.366 . S
C1145 C1144 1.366 . S
C1145 C1146 1.414 . S
C1145 C1148 1.499 . S
C1146 H1126 0.950 . S
C1146 C1145 1.414 . S
C1146 C1147 1.374 . S
C1147 H1127 0.950 . S
C1147 C1143 1.385 . S
C1147 C1146 1.374 . S
C1148 C1145 1.499 . S
C1148 C1149 1.373 . S
C1148 C1150 1.389 . S
C1149 H1128 0.950 . S
C1149 C1148 1.373 . S
C1149 C1165 1.377 . S
C1150 C1148 1.389 . S
C1150 C1151 1.524 . S
C1150 C1164 1.377 . S
C1151 C1150 1.524 . S
C1151 C1152 1.397 . S
C1151 C1156 1.363 . S
C1152 H1129 0.950 . S
C1152 C1151 1.397 . S
C1152 C1153 1.334 . S
C1153 H1130 0.950 . S
C1153 C1152 1.334 . S
C1153 C1154 1.287 . S
C1154 C1153 1.287 . S
C1154 C1155 1.524 . S
C1154 H1173 0.913 . S
C1155 H1131 0.950 . S
C1155 C1154 1.524 . S
C1155 C1156 1.415 . S
C1156 H1132 0.950 . S
C1156 C1151 1.363 . S
C1156 C1155 1.415 . S
C1157 H1133 0.951 . S
C1157 C1158 1.366 . S
C1157 C1159 1.388 . S
C1158 C1157 1.366 . S
C1158 C1162 1.385 . S
C1159 H1134 0.951 . S
C1159 C1157 1.388 . S
C1159 C1160 1.366 . S
C1160 C1159 1.366 . S
C1160 C1161 1.414 . S
C1160 C1163 1.499 . S
C1161 H1135 0.950 . S
C1161 C1160 1.414 . S
C1161 C1162 1.374 . S
C1162 H1136 0.950 . S
C1162 C1158 1.385 . S
C1162 C1161 1.374 . S
C1163 C1160 1.499 . S
C1163 C1164 1.373 . S
C1163 C1165 1.389 . S
C1164 H1137 0.950 . S
C1164 C1150 1.377 . S
C1164 C1163 1.373 . S
C1165 C1149 1.377 . S
C1165 C1163 1.389 . S
C1165 C1166 1.524 . S
C1166 C1165 1.524 . S
C1166 C1167 1.397 . S
C1166 C1171 1.363 . S
C1167 H1138 0.950 . S
C1167 C1166 1.397 . S
C1167 C1168 1.334 . S
C1168 H1139 0.950 . S
C1168 C1167 1.334 . S
C1168 C1169 1.287 . S
C1169 C1168 1.287 . S
C1169 C1170 1.524 . S
C1169 H1172 0.999 . S
C1170 H1140 0.950 . S
C1170 C1169 1.524 . S
C1170 C1171 1.415 . S
C1171 H1141 0.950 . S
C1171 C1166 1.363 . S
C1171 C1170 1.415 . S
H1172 C1169 0.999 . S
H1173 C1154 0.913 . S
H1174 C1192 0.951 . S
H1175 C1194 0.951 . S
H1176 C1196 0.950 . S
H1177 C1197 0.950 . S
H1178 C1199 0.950 . S
H1179 C1202 0.950 . S
H1180 C1203 0.950 . S
H1181 C1205 0.950 . S
H1182 C1206 0.950 . S
H1183 C1207 0.951 . S
H1184 C1209 0.951 . S
H1185 C1211 0.950 . S
H1186 C1212 0.950 . S
H1187 C1214 0.950 . S
H1188 C1217 0.950 . S
H1189 C1218 0.950 . S
H1190 C1220 0.950 . S
H1191 C1221 0.950 . S
C1192 H1174 0.951 . S
C1192 C1193 1.366 . S
C1192 C1194 1.388 . S
C1193 C1192 1.366 . S
C1193 C1197 1.385 . S
C1194 H1175 0.951 . S
C1194 C1192 1.388 . S
C1194 C1195 1.366 . S
C1195 C1194 1.366 . S
C1195 C1196 1.414 . S
C1195 C1198 1.499 . S
C1196 H1176 0.950 . S
C1196 C1195 1.414 . S
C1196 C1197 1.374 . S
C1197 H1177 0.950 . S
C1197 C1193 1.385 . S
C1197 C1196 1.374 . S
C1198 C1195 1.499 . S
C1198 C1199 1.373 . S
C1198 C1200 1.389 . S
C1199 H1178 0.950 . S
C1199 C1198 1.373 . S
C1199 C1215 1.377 1_545 S
C1200 C1198 1.389 . S
C1200 C1201 1.524 . S
C1200 C1214 1.377 1_545 S
C1201 C1200 1.524 . S
C1201 C1202 1.397 . S
C1201 C1206 1.363 . S
C1202 H1179 0.950 . S
C1202 C1201 1.397 . S
C1202 C1203 1.334 . S
C1203 H1180 0.950 . S
C1203 C1202 1.334 . S
C1203 C1204 1.287 . S
C1204 C1203 1.287 . S
C1204 C1205 1.524 . S
C1204 H1223 0.913 . S
C1205 H1181 0.950 . S
C1205 C1204 1.524 . S
C1205 C1206 1.415 . S
C1206 H1182 0.950 . S
C1206 C1201 1.363 . S
C1206 C1205 1.415 . S
C1207 H1183 0.951 . S
C1207 C1208 1.366 . S
C1207 C1209 1.388 . S
C1208 C1207 1.366 . S
C1208 C1212 1.385 . S
C1209 H1184 0.951 . S
C1209 C1207 1.388 . S
C1209 C1210 1.366 . S
C1210 C1209 1.366 . S
C1210 C1211 1.414 . S
C1210 C1213 1.499 . S
C1211 H1185 0.950 . S
C1211 C1210 1.414 . S
C1211 C1212 1.374 . S
C1212 H1186 0.950 . S
C1212 C1208 1.385 . S
C1212 C1211 1.374 . S
C1213 C1210 1.499 . S
C1213 C1214 1.373 . S
C1213 C1215 1.389 . S
C1214 H1187 0.950 . S
C1214 C1200 1.377 1_565 S
C1214 C1213 1.373 . S
C1215 C1199 1.377 1_565 S
C1215 C1213 1.389 . S
C1215 C1216 1.524 . S
C1216 C1215 1.524 . S
C1216 C1217 1.397 . S
C1216 C1221 1.363 . S
C1217 H1188 0.950 . S
C1217 C1216 1.397 . S
C1217 C1218 1.334 . S
C1218 H1189 0.950 . S
C1218 C1217 1.334 . S
C1218 C1219 1.287 . S
C1219 C1218 1.287 . S
C1219 C1220 1.524 . S
C1219 H1222 0.999 . S
C1220 H1190 0.950 . S
C1220 C1219 1.524 . S
C1220 C1221 1.415 . S
C1221 H1191 0.950 . S
C1221 C1216 1.363 . S
C1221 C1220 1.415 . S
H1222 C1219 0.999 . S
H1223 C1204 0.913 . S
H1224 C1242 0.951 . S
H1225 C1244 0.951 . S
H1226 C1246 0.950 . S
H1227 C1247 0.950 . S
H1228 C1249 0.950 . S
H1229 C1252 0.950 . S
H1230 C1253 0.950 . S
H1231 C1255 0.950 . S
H1232 C1256 0.950 1_655 S
H1233 C1257 0.951 . S
H1234 C1259 0.951 . S
H1235 C1261 0.950 . S
H1236 C1262 0.950 . S
H1237 C1264 0.950 . S
H1238 C1267 0.950 . S
H1239 C1268 0.950 . S
H1240 C1270 0.950 . S
H1241 C1271 0.950 1_455 S
C1242 H1224 0.951 . S
C1242 C1243 1.366 . S
C1242 C1244 1.388 . S
C1243 C1242 1.366 . S
C1243 C1247 1.385 . S
C1244 H1225 0.951 . S
C1244 C1242 1.388 . S
C1244 C1245 1.366 . S
C1245 C1244 1.366 . S
C1245 C1246 1.414 . S
C1245 C1248 1.499 . S
C1246 H1226 0.950 . S
C1246 C1245 1.414 . S
C1246 C1247 1.374 . S
C1247 H1227 0.950 . S
C1247 C1243 1.385 . S
C1247 C1246 1.374 . S
C1248 C1245 1.499 . S
C1248 C1249 1.373 . S
C1248 C1250 1.389 . S
C1249 H1228 0.950 . S
C1249 C1248 1.373 . S
C1249 C1265 1.377 1_455 S
C1250 C1248 1.389 . S
C1250 C1251 1.524 . S
C1250 C1264 1.377 1_455 S
C1251 C1250 1.524 . S
C1251 C1252 1.397 . S
C1251 C1256 1.363 . S
C1252 H1229 0.950 . S
C1252 C1251 1.397 . S
C1252 C1253 1.334 . S
C1253 H1230 0.950 . S
C1253 C1252 1.334 . S
C1253 C1254 1.287 . S
C1254 C1253 1.287 . S
C1254 C1255 1.524 . S
C1254 H1273 0.913 . S
C1255 H1231 0.950 . S
C1255 C1254 1.524 . S
C1255 C1256 1.415 . S
C1256 H1232 0.950 1_455 S
C1256 C1251 1.363 . S
C1256 C1255 1.415 . S
C1257 H1233 0.951 . S
C1257 C1258 1.366 . S
C1257 C1259 1.388 . S
C1258 C1257 1.366 . S
C1258 C1262 1.385 . S
C1259 H1234 0.951 . S
C1259 C1257 1.388 . S
C1259 C1260 1.366 . S
C1260 C1259 1.366 . S
C1260 C1261 1.414 . S
C1260 C1263 1.499 . S
C1261 H1235 0.950 . S
C1261 C1260 1.414 . S
C1261 C1262 1.374 . S
C1262 H1236 0.950 . S
C1262 C1258 1.385 . S
C1262 C1261 1.374 . S
C1263 C1260 1.499 . S
C1263 C1264 1.373 . S
C1263 C1265 1.389 . S
C1264 H1237 0.950 . S
C1264 C1250 1.377 1_655 S
C1264 C1263 1.373 . S
C1265 C1249 1.377 1_655 S
C1265 C1263 1.389 . S
C1265 C1266 1.524 . S
C1266 C1265 1.524 . S
C1266 C1267 1.397 . S
C1266 C1271 1.363 . S
C1267 H1238 0.950 . S
C1267 C1266 1.397 . S
C1267 C1268 1.334 . S
C1268 H1239 0.950 . S
C1268 C1267 1.334 . S
C1268 C1269 1.287 . S
C1269 C1268 1.287 . S
C1269 C1270 1.524 . S
C1269 H1272 0.999 . S
C1270 H1240 0.950 . S
C1270 C1269 1.524 . S
C1270 C1271 1.415 . S
C1271 H1241 0.950 1_655 S
C1271 C1266 1.363 . S
C1271 C1270 1.415 . S
H1272 C1269 0.999 . S
H1273 C1254 0.913 . S
H1274 C1292 0.951 . S
H1275 C1294 0.951 . S
H1276 C1296 0.950 . S
H1277 C1297 0.950 . S
H1278 C1299 0.950 . S
H1279 C1302 0.950 . S
H1280 C1303 0.950 . S
H1281 C1305 0.950 . S
H1282 C1306 0.950 . S
H1283 C1307 0.951 . S
H1284 C1309 0.951 . S
H1285 C1311 0.950 . S
H1286 C1312 0.950 . S
H1287 C1314 0.950 . S
H1288 C1317 0.950 . S
H1289 C1318 0.950 . S
H1290 C1320 0.950 . S
H1291 C1321 0.950 . S
C1292 H1274 0.951 . S
C1292 C1293 1.366 . S
C1292 C1294 1.388 . S
C1293 C1292 1.366 . S
C1293 C1297 1.385 . S
C1294 H1275 0.951 . S
C1294 C1292 1.388 . S
C1294 C1295 1.366 . S
C1295 C1294 1.366 . S
C1295 C1296 1.414 . S
C1295 C1298 1.499 . S
C1296 H1276 0.950 . S
C1296 C1295 1.414 . S
C1296 C1297 1.374 . S
C1297 H1277 0.950 . S
C1297 C1293 1.385 . S
C1297 C1296 1.374 . S
C1298 C1295 1.499 . S
C1298 C1299 1.373 . S
C1298 C1300 1.389 . S
C1299 H1278 0.950 . S
C1299 C1298 1.373 . S
C1299 C1315 1.377 . S
C1300 C1298 1.389 . S
C1300 C1301 1.524 . S
C1300 C1314 1.377 . S
C1301 C1300 1.524 . S
C1301 C1302 1.397 . S
C1301 C1306 1.363 . S
C1302 H1279 0.950 . S
C1302 C1301 1.397 . S
C1302 C1303 1.334 . S
C1303 H1280 0.950 . S
C1303 C1302 1.334 . S
C1303 C1304 1.287 . S
C1304 C1303 1.287 . S
C1304 C1305 1.524 . S
C1304 H1323 0.913 . S
C1305 H1281 0.950 . S
C1305 C1304 1.524 . S
C1305 C1306 1.415 . S
C1306 H1282 0.950 . S
C1306 C1301 1.363 . S
C1306 C1305 1.415 . S
C1307 H1283 0.951 . S
C1307 C1308 1.366 . S
C1307 C1309 1.388 . S
C1308 C1307 1.366 . S
C1308 C1312 1.385 . S
C1309 H1284 0.951 . S
C1309 C1307 1.388 . S
C1309 C1310 1.366 . S
C1310 C1309 1.366 . S
C1310 C1311 1.414 . S
C1310 C1313 1.499 . S
C1311 H1285 0.950 . S
C1311 C1310 1.414 . S
C1311 C1312 1.374 . S
C1312 H1286 0.950 . S
C1312 C1308 1.385 . S
C1312 C1311 1.374 . S
C1313 C1310 1.499 . S
C1313 C1314 1.373 . S
C1313 C1315 1.389 . S
C1314 H1287 0.950 . S
C1314 C1300 1.377 . S
C1314 C1313 1.373 . S
C1315 C1299 1.377 . S
C1315 C1313 1.389 . S
C1315 C1316 1.524 . S
C1316 C1315 1.524 . S
C1316 C1317 1.397 . S
C1316 C1321 1.363 . S
C1317 H1288 0.950 . S
C1317 C1316 1.397 . S
C1317 C1318 1.334 . S
C1318 H1289 0.950 . S
C1318 C1317 1.334 . S
C1318 C1319 1.287 . S
C1319 C1318 1.287 . S
C1319 C1320 1.524 . S
C1319 H1322 0.999 . S
C1320 H1290 0.950 . S
C1320 C1319 1.524 . S
C1320 C1321 1.415 . S
C1321 H1291 0.950 . S
C1321 C1316 1.363 . S
C1321 C1320 1.415 . S
H1322 C1319 0.999 . S
H1323 C1304 0.913 . S
H1324 C1342 0.951 . S
H1325 C1344 0.951 1_545 S
H1326 C1346 0.950 . S
H1327 C1347 0.950 . S
H1328 C1349 0.950 . S
H1329 C1352 0.950 1_565 S
H1330 C1353 0.950 . S
H1331 C1355 0.950 . S
H1332 C1356 0.950 . S
H1333 C1357 0.951 . S
H1334 C1359 0.951 1_565 S
H1335 C1361 0.950 . S
H1336 C1362 0.950 . S
H1337 C1364 0.950 . S
H1338 C1367 0.950 1_545 S
H1339 C1368 0.950 . S
H1340 C1370 0.950 . S
H1341 C1371 0.950 . S
C1342 H1324 0.951 . S
C1342 C1343 1.366 . S
C1342 C1344 1.388 . S
C1343 C1342 1.366 . S
C1343 C1347 1.385 . S
C1344 H1325 0.951 1_565 S
C1344 C1342 1.388 . S
C1344 C1345 1.366 . S
C1345 C1344 1.366 . S
C1345 C1346 1.414 . S
C1345 C1348 1.499 . S
C1346 H1326 0.950 . S
C1346 C1345 1.414 . S
C1346 C1347 1.374 . S
C1347 H1327 0.950 . S
C1347 C1343 1.385 . S
C1347 C1346 1.374 . S
C1348 C1345 1.499 . S
C1348 C1349 1.373 . S
C1348 C1350 1.389 1_565 S
C1349 H1328 0.950 . S
C1349 C1348 1.373 . S
C1349 C1365 1.377 . S
C1350 C1348 1.389 1_545 S
C1350 C1351 1.524 . S
C1350 C1364 1.377 . S
C1351 C1350 1.524 . S
C1351 C1352 1.397 . S
C1351 C1356 1.363 . S
C1352 H1329 0.950 1_545 S
C1352 C1351 1.397 . S
C1352 C1353 1.334 . S
C1353 H1330 0.950 . S
C1353 C1352 1.334 . S
C1353 C1354 1.287 . S
C1354 C1353 1.287 . S
C1354 C1355 1.524 . S
C1354 H1373 0.913 . S
C1355 H1331 0.950 . S
C1355 C1354 1.524 . S
C1355 C1356 1.415 . S
C1356 H1332 0.950 . S
C1356 C1351 1.363 . S
C1356 C1355 1.415 . S
C1357 H1333 0.951 . S
C1357 C1358 1.366 . S
C1357 C1359 1.388 . S
C1358 C1357 1.366 . S
C1358 C1362 1.385 . S
C1359 H1334 0.951 1_545 S
C1359 C1357 1.388 . S
C1359 C1360 1.366 . S
C1360 C1359 1.366 . S
C1360 C1361 1.414 . S
C1360 C1363 1.499 . S
C1361 H1335 0.950 . S
C1361 C1360 1.414 . S
C1361 C1362 1.374 . S
C1362 H1336 0.950 . S
C1362 C1358 1.385 . S
C1362 C1361 1.374 . S
C1363 C1360 1.499 . S
C1363 C1364 1.373 . S
C1363 C1365 1.389 1_545 S
C1364 H1337 0.950 . S
C1364 C1350 1.377 . S
C1364 C1363 1.373 . S
C1365 C1349 1.377 . S
C1365 C1363 1.389 1_565 S
C1365 C1366 1.524 . S
C1366 C1365 1.524 . S
C1366 C1367 1.397 . S
C1366 C1371 1.363 . S
C1367 H1338 0.950 1_565 S
C1367 C1366 1.397 . S
C1367 C1368 1.334 . S
C1368 H1339 0.950 . S
C1368 C1367 1.334 . S
C1368 C1369 1.287 . S
C1369 C1368 1.287 . S
C1369 C1370 1.524 . S
C1369 H1372 0.999 . S
C1370 H1340 0.950 . S
C1370 C1369 1.524 . S
C1370 C1371 1.415 . S
C1371 H1341 0.950 . S
C1371 C1366 1.363 . S
C1371 C1370 1.415 . S
H1372 C1369 0.999 . S
H1373 C1354 0.913 . S
H1374 C1392 0.951 . S
H1375 C1394 0.951 1_655 S
H1376 C1396 0.950 . S
H1377 C1397 0.950 . S
H1378 C1399 0.950 . S
H1379 C1402 0.950 1_455 S
H1380 C1403 0.950 1_455 S
H1381 C1405 0.950 . S
H1382 C1406 0.950 . S
H1383 C1407 0.951 . S
H1384 C1409 0.951 1_455 S
H1385 C1411 0.950 . S
H1386 C1412 0.950 . S
H1387 C1414 0.950 . S
H1388 C1417 0.950 1_655 S
H1389 C1418 0.950 1_655 S
H1390 C1420 0.950 . S
H1391 C1421 0.950 . S
C1392 H1374 0.951 . S
C1392 C1393 1.366 . S
C1392 C1394 1.388 . S
C1393 C1392 1.366 . S
C1393 C1397 1.385 . S
C1394 H1375 0.951 1_455 S
C1394 C1392 1.388 . S
C1394 C1395 1.366 . S
C1395 C1394 1.366 . S
C1395 C1396 1.414 . S
C1395 C1398 1.499 . S
C1396 H1376 0.950 . S
C1396 C1395 1.414 . S
C1396 C1397 1.374 . S
C1397 H1377 0.950 . S
C1397 C1393 1.385 . S
C1397 C1396 1.374 . S
C1398 C1395 1.499 . S
C1398 C1399 1.373 . S
C1398 C1400 1.389 1_455 S
C1399 H1378 0.950 . S
C1399 C1398 1.373 . S
C1399 C1415 1.377 1_545 S
C1400 C1398 1.389 1_655 S
C1400 C1401 1.524 . S
C1400 C1414 1.377 1_545 S
C1401 C1400 1.524 . S
C1401 C1402 1.397 . S
C1401 C1406 1.363 . S
C1402 H1379 0.950 1_655 S
C1402 C1401 1.397 . S
C1402 C1403 1.334 . S
C1403 H1380 0.950 1_655 S
C1403 C1402 1.334 . S
C1403 C1404 1.287 . S
C1404 C1403 1.287 . S
C1404 C1405 1.524 . S
C1404 H1423 0.913 . S
C1405 H1381 0.950 . S
C1405 C1404 1.524 . S
C1405 C1406 1.415 . S
C1406 H1382 0.950 . S
C1406 C1401 1.363 . S
C1406 C1405 1.415 . S
C1407 H1383 0.951 . S
C1407 C1408 1.366 . S
C1407 C1409 1.388 . S
C1408 C1407 1.366 . S
C1408 C1412 1.385 . S
C1409 H1384 0.951 1_655 S
C1409 C1407 1.388 . S
C1409 C1410 1.366 . S
C1410 C1409 1.366 . S
C1410 C1411 1.414 . S
C1410 C1413 1.499 . S
C1411 H1385 0.950 . S
C1411 C1410 1.414 . S
C1411 C1412 1.374 . S
C1412 H1386 0.950 . S
C1412 C1408 1.385 . S
C1412 C1411 1.374 . S
C1413 C1410 1.499 . S
C1413 C1414 1.373 . S
C1413 C1415 1.389 1_655 S
C1414 H1387 0.950 . S
C1414 C1400 1.377 1_565 S
C1414 C1413 1.373 . S
C1415 C1399 1.377 1_565 S
C1415 C1413 1.389 1_455 S
C1415 C1416 1.524 . S
C1416 C1415 1.524 . S
C1416 C1417 1.397 . S
C1416 C1421 1.363 . S
C1417 H1388 0.950 1_455 S
C1417 C1416 1.397 . S
C1417 C1418 1.334 . S
C1418 H1389 0.950 1_455 S
C1418 C1417 1.334 . S
C1418 C1419 1.287 . S
C1419 C1418 1.287 . S
C1419 C1420 1.524 . S
C1419 H1422 0.999 . S
C1420 H1390 0.950 . S
C1420 C1419 1.524 . S
C1420 C1421 1.415 . S
C1421 H1391 0.950 . S
C1421 C1416 1.363 . S
C1421 C1420 1.415 . S
H1422 C1419 0.999 . S
H1423 C1404 0.913 . S
H1424 C1442 0.951 . S
H1425 C1444 0.951 1_545 S
H1426 C1446 0.950 . S
H1427 C1447 0.950 . S
H1428 C1449 0.950 . S
H1429 C1452 0.950 1_565 S
H1430 C1453 0.946 1_565 S
H1431 C1455 0.950 . S
H1432 C1456 0.950 . S
H1433 C1457 0.951 . S
H1434 C1459 0.951 1_565 S
H1435 C1461 0.950 . S
H1436 C1462 0.950 . S
H1437 C1464 0.950 . S
H1438 C1467 0.950 1_545 S
H1439 C1468 0.945 1_545 S
H1440 C1470 0.950 . S
H1441 C1471 0.950 . S
C1442 H1424 0.951 . S
C1442 C1443 1.366 . S
C1442 C1444 1.388 . S
C1443 C1442 1.366 . S
C1443 C1447 1.385 . S
C1444 H1425 0.951 1_565 S
C1444 C1442 1.388 . S
C1444 C1445 1.366 . S
C1445 C1444 1.366 . S
C1445 C1446 1.414 . S
C1445 C1448 1.499 . S
C1446 H1426 0.950 . S
C1446 C1445 1.414 . S
C1446 C1447 1.374 . S
C1447 H1427 0.950 . S
C1447 C1443 1.385 . S
C1447 C1446 1.374 . S
C1448 C1445 1.499 . S
C1448 C1449 1.373 . S
C1448 C1450 1.389 1_565 S
C1449 H1428 0.950 . S
C1449 C1448 1.373 . S
C1449 C1465 1.377 . S
C1450 C1448 1.389 1_545 S
C1450 C1451 1.524 . S
C1450 C1464 1.377 . S
C1451 C1450 1.524 . S
C1451 C1452 1.397 . S
C1451 C1456 1.363 . S
C1452 H1429 0.950 1_545 S
C1452 C1451 1.397 . S
C1452 C1453 1.334 . S
C1453 H1430 0.946 1_545 S
C1453 C1452 1.334 . S
C1453 C1454 1.287 . S
C1454 C1453 1.287 . S
C1454 C1455 1.524 . S
C1454 H1473 0.913 . S
C1455 H1431 0.950 . S
C1455 C1454 1.524 . S
C1455 C1456 1.415 . S
C1456 H1432 0.950 . S
C1456 C1451 1.363 . S
C1456 C1455 1.415 . S
C1457 H1433 0.951 . S
C1457 C1458 1.366 . S
C1457 C1459 1.388 . S
C1458 C1457 1.366 . S
C1458 C1462 1.385 . S
C1459 H1434 0.951 1_545 S
C1459 C1457 1.388 . S
C1459 C1460 1.366 . S
C1460 C1459 1.366 . S
C1460 C1461 1.414 . S
C1460 C1463 1.499 . S
C1461 H1435 0.950 . S
C1461 C1460 1.414 . S
C1461 C1462 1.374 . S
C1462 H1436 0.950 . S
C1462 C1458 1.385 . S
C1462 C1461 1.374 . S
C1463 C1460 1.499 . S
C1463 C1464 1.373 . S
C1463 C1465 1.389 1_545 S
C1464 H1437 0.950 . S
C1464 C1450 1.377 . S
C1464 C1463 1.373 . S
C1465 C1449 1.377 . S
C1465 C1463 1.389 1_565 S
C1465 C1466 1.524 . S
C1466 C1465 1.524 . S
C1466 C1467 1.397 . S
C1466 C1471 1.363 . S
C1467 H1438 0.950 1_565 S
C1467 C1466 1.397 . S
C1467 C1468 1.334 . S
C1468 H1439 0.945 1_565 S
C1468 C1467 1.334 . S
C1468 C1469 1.287 . S
C1469 C1468 1.287 . S
C1469 C1470 1.524 . S
C1469 H1472 0.999 . S
C1470 H1440 0.950 . S
C1470 C1469 1.524 . S
C1470 C1471 1.415 . S
C1471 H1441 0.950 . S
C1471 C1466 1.363 . S
C1471 C1470 1.415 . S
H1472 C1469 0.999 . S
H1473 C1454 0.913 . S
H1474 C1492 0.951 . S
H1475 C1494 0.951 . S
H1476 C1496 0.950 . S
H1477 C1497 0.950 . S
H1478 C1499 0.950 . S
H1479 C1502 0.950 . S
H1480 C1503 0.950 . S
H1481 C1505 0.950 . S
H1482 C1506 0.950 . S
H1483 C1507 0.951 . S
H1484 C1509 0.951 . S
H1485 C1511 0.950 . S
H1486 C1512 0.950 . S
H1487 C1514 0.950 . S
H1488 C1517 0.950 . S
H1489 C1518 0.950 . S
H1490 C1520 0.950 . S
H1491 C1521 0.950 . S
C1492 H1474 0.951 . S
C1492 C1493 1.366 . S
C1492 C1494 1.388 . S
C1493 C1492 1.366 . S
C1493 C1497 1.385 . S
C1494 H1475 0.951 . S
C1494 C1492 1.388 . S
C1494 C1495 1.366 . S
C1495 C1494 1.366 . S
C1495 C1496 1.414 . S
C1495 C1498 1.499 . S
C1496 H1476 0.950 . S
C1496 C1495 1.414 . S
C1496 C1497 1.374 . S
C1497 H1477 0.950 . S
C1497 C1493 1.385 . S
C1497 C1496 1.374 . S
C1498 C1495 1.499 . S
C1498 C1499 1.373 1_655 S
C1498 C1500 1.412 . S
C1499 H1478 0.950 . S
C1499 C1498 1.373 1_455 S
C1499 C1515 1.354 1_565 S
C1500 C1498 1.412 . S
C1500 C1501 1.523 1_565 S
C1500 C1514 1.354 1_565 S
C1501 C1500 1.523 1_545 S
C1501 C1502 1.397 1_545 S
C1501 C1506 1.363 . S
C1502 H1479 0.950 . S
C1502 C1501 1.397 1_565 S
C1502 C1503 1.334 . S
C1503 H1480 0.950 . S
C1503 C1502 1.334 . S
C1503 C1504 1.287 1_565 S
C1504 C1503 1.287 1_545 S
C1504 C1505 1.524 . S
C1504 H1523 0.913 . S
C1505 H1481 0.950 . S
C1505 C1504 1.524 . S
C1505 C1506 1.415 . S
C1506 H1482 0.950 . S
C1506 C1501 1.363 . S
C1506 C1505 1.415 . S
C1507 H1483 0.951 . S
C1507 C1508 1.366 . S
C1507 C1509 1.388 . S
C1508 C1507 1.366 . S
C1508 C1512 1.385 . S
C1509 H1484 0.951 . S
C1509 C1507 1.388 . S
C1509 C1510 1.366 . S
C1510 C1509 1.366 . S
C1510 C1511 1.414 . S
C1510 C1513 1.499 . S
C1511 H1485 0.950 . S
C1511 C1510 1.414 . S
C1511 C1512 1.374 . S
C1512 H1486 0.950 . S
C1512 C1508 1.385 . S
C1512 C1511 1.374 . S
C1513 C1510 1.499 . S
C1513 C1514 1.373 1_455 S
C1513 C1515 1.411 . S
C1514 H1487 0.950 . S
C1514 C1500 1.354 1_545 S
C1514 C1513 1.373 1_655 S
C1515 C1499 1.354 1_545 S
C1515 C1513 1.411 . S
C1515 C1516 1.523 1_545 S
C1516 C1515 1.523 1_565 S
C1516 C1517 1.397 1_565 S
C1516 C1521 1.363 . S
C1517 H1488 0.950 . S
C1517 C1516 1.397 1_545 S
C1517 C1518 1.334 . S
C1518 H1489 0.950 . S
C1518 C1517 1.334 . S
C1518 C1519 1.287 1_545 S
C1519 C1518 1.287 1_565 S
C1519 C1520 1.524 . S
C1519 H1522 0.999 . S
C1520 H1490 0.950 . S
C1520 C1519 1.524 . S
C1520 C1521 1.415 . S
C1521 H1491 0.950 . S
C1521 C1516 1.363 . S
C1521 C1520 1.415 . S
H1522 C1519 0.999 . S
H1523 C1504 0.913 . S
H1524 C1542 0.951 . S
H1525 C1544 0.951 . S
H1526 C1546 0.950 . S
H1527 C1547 0.950 . S
H1528 C1549 0.950 . S
H1529 C1552 0.950 . S
H1530 C1553 0.950 . S
H1531 C1555 0.950 . S
H1532 C1556 0.950 . S
H1533 C1557 0.951 . S
H1534 C1559 0.951 . S
H1535 C1561 0.950 . S
H1536 C1562 0.950 . S
H1537 C1564 0.950 . S
H1538 C1567 0.950 . S
H1539 C1568 0.950 . S
H1540 C1570 0.950 . S
H1541 C1571 0.950 . S
C1542 H1524 0.951 . S
C1542 C1543 1.366 . S
C1542 C1544 1.388 . S
C1543 C1542 1.366 . S
C1543 C1547 1.385 . S
C1544 H1525 0.951 . S
C1544 C1542 1.388 . S
C1544 C1545 1.366 . S
C1545 C1544 1.366 . S
C1545 C1546 1.414 . S
C1545 C1548 1.499 . S
C1546 H1526 0.950 . S
C1546 C1545 1.414 . S
C1546 C1547 1.374 . S
C1547 H1527 0.950 . S
C1547 C1543 1.385 . S
C1547 C1546 1.374 . S
C1548 C1545 1.499 . S
C1548 C1549 1.373 . S
C1548 C1550 1.389 . S
C1549 H1528 0.950 . S
C1549 C1548 1.373 . S
C1549 C1565 1.377 1_455 S
C1550 C1548 1.389 . S
C1550 C1551 1.524 . S
C1550 C1564 1.377 1_455 S
C1551 C1550 1.524 . S
C1551 C1552 1.397 . S
C1551 C1556 1.363 . S
C1552 H1529 0.950 . S
C1552 C1551 1.397 . S
C1552 C1553 1.334 . S
C1553 H1530 0.950 . S
C1553 C1552 1.334 . S
C1553 C1554 1.287 . S
C1554 C1553 1.287 . S
C1554 C1555 1.524 . S
C1554 H1573 0.913 . S
C1555 H1531 0.950 . S
C1555 C1554 1.524 . S
C1555 C1556 1.415 . S
C1556 H1532 0.950 . S
C1556 C1551 1.363 . S
C1556 C1555 1.415 . S
C1557 H1533 0.951 . S
C1557 C1558 1.366 . S
C1557 C1559 1.388 . S
C1558 C1557 1.366 . S
C1558 C1562 1.385 . S
C1559 H1534 0.951 . S
C1559 C1557 1.388 . S
C1559 C1560 1.366 . S
C1560 C1559 1.366 . S
C1560 C1561 1.414 . S
C1560 C1563 1.499 . S
C1561 H1535 0.950 . S
C1561 C1560 1.414 . S
C1561 C1562 1.374 . S
C1562 H1536 0.950 . S
C1562 C1558 1.385 . S
C1562 C1561 1.374 . S
C1563 C1560 1.499 . S
C1563 C1564 1.373 . S
C1563 C1565 1.389 . S
C1564 H1537 0.950 . S
C1564 C1550 1.377 1_655 S
C1564 C1563 1.373 . S
C1565 C1549 1.377 1_655 S
C1565 C1563 1.389 . S
C1565 C1566 1.524 . S
C1566 C1565 1.524 . S
C1566 C1567 1.397 . S
C1566 C1571 1.363 . S
C1567 H1538 0.950 . S
C1567 C1566 1.397 . S
C1567 C1568 1.334 . S
C1568 H1539 0.950 . S
C1568 C1567 1.334 . S
C1568 C1569 1.287 . S
C1569 C1568 1.287 . S
C1569 C1570 1.524 . S
C1569 H1572 0.999 . S
C1570 H1540 0.950 . S
C1570 C1569 1.524 . S
C1570 C1571 1.415 . S
C1571 H1541 0.950 . S
C1571 C1566 1.363 . S
C1571 C1570 1.415 . S
H1572 C1569 0.999 . S
H1573 C1554 0.913 . S
H1574 C1592 0.951 . S
H1575 C1594 0.951 . S
H1576 C1596 0.950 . S
H1577 C1597 0.950 . S
H1578 C1599 0.950 . S
H1579 C1602 0.950 . S
H1580 C1603 0.950 . S
H1581 C1605 0.950 . S
H1582 C1606 0.950 . S
H1583 C1607 0.951 . S
H1584 C1609 0.951 . S
H1585 C1611 0.950 . S
H1586 C1612 0.950 . S
H1587 C1614 0.950 . S
H1588 C1617 0.950 . S
H1589 C1618 0.950 . S
H1590 C1620 0.950 . S
H1591 C1621 0.950 . S
C1592 H1574 0.951 . S
C1592 C1593 1.366 . S
C1592 C1594 1.388 . S
C1593 C1592 1.366 . S
C1593 C1597 1.385 . S
C1594 H1575 0.951 . S
C1594 C1592 1.388 . S
C1594 C1595 1.366 . S
C1595 C1594 1.366 . S
C1595 C1596 1.414 . S
C1595 C1598 1.499 . S
C1596 H1576 0.950 . S
C1596 C1595 1.414 . S
C1596 C1597 1.374 . S
C1597 H1577 0.950 . S
C1597 C1593 1.385 . S
C1597 C1596 1.374 . S
C1598 C1595 1.499 . S
C1598 C1599 1.373 . S
C1598 C1600 1.389 . S
C1599 H1578 0.950 . S
C1599 C1598 1.373 . S
C1599 C1615 1.377 . S
C1600 C1598 1.389 . S
C1600 C1601 1.524 . S
C1600 C1614 1.377 . S
C1601 C1600 1.524 . S
C1601 C1602 1.397 . S
C1601 C1606 1.363 . S
C1602 H1579 0.950 . S
C1602 C1601 1.397 . S
C1602 C1603 1.334 . S
C1603 H1580 0.950 . S
C1603 C1602 1.334 . S
C1603 C1604 1.287 . S
C1604 C1603 1.287 . S
C1604 C1605 1.524 . S
C1604 H1623 0.913 . S
C1605 H1581 0.950 . S
C1605 C1604 1.524 . S
C1605 C1606 1.415 . S
C1606 H1582 0.950 . S
C1606 C1601 1.363 . S
C1606 C1605 1.415 . S
C1607 H1583 0.951 . S
C1607 C1608 1.366 . S
C1607 C1609 1.388 . S
C1608 C1607 1.366 . S
C1608 C1612 1.385 . S
C1609 H1584 0.951 . S
C1609 C1607 1.388 . S
C1609 C1610 1.366 . S
C1610 C1609 1.366 . S
C1610 C1611 1.414 . S
C1610 C1613 1.499 . S
C1611 H1585 0.950 . S
C1611 C1610 1.414 . S
C1611 C1612 1.374 . S
C1612 H1586 0.950 . S
C1612 C1608 1.385 . S
C1612 C1611 1.374 . S
C1613 C1610 1.499 . S
C1613 C1614 1.373 . S
C1613 C1615 1.389 . S
C1614 H1587 0.950 . S
C1614 C1600 1.377 . S
C1614 C1613 1.373 . S
C1615 C1599 1.377 . S
C1615 C1613 1.389 . S
C1615 C1616 1.524 . S
C1616 C1615 1.524 . S
C1616 C1617 1.397 . S
C1616 C1621 1.363 . S
C1617 H1588 0.950 . S
C1617 C1616 1.397 . S
C1617 C1618 1.334 . S
C1618 H1589 0.950 . S
C1618 C1617 1.334 . S
C1618 C1619 1.287 . S
C1619 C1618 1.287 . S
C1619 C1620 1.524 . S
C1619 H1622 0.999 . S
C1620 H1590 0.950 . S
C1620 C1619 1.524 . S
C1620 C1621 1.415 . S
C1621 H1591 0.950 . S
C1621 C1616 1.363 . S
C1621 C1620 1.415 . S
H1622 C1619 0.999 . S
H1623 C1604 0.913 . S
H1624 C1642 0.951 . S
H1625 C1644 0.951 . S
H1626 C1646 0.950 . S
H1627 C1647 0.950 . S
H1628 C1649 0.950 . S
H1629 C1652 0.950 . S
H1630 C1653 0.950 . S
H1631 C1655 0.950 . S
H1632 C1656 0.950 . S
H1633 C1657 0.951 . S
H1634 C1659 0.951 . S
H1635 C1661 0.950 . S
H1636 C1662 0.950 . S
H1637 C1664 0.950 . S
H1638 C1667 0.950 . S
H1639 C1668 0.950 . S
H1640 C1670 0.950 . S
H1641 C1671 0.950 . S
C1642 H1624 0.951 . S
C1642 C1643 1.366 . S
C1642 C1644 1.388 . S
C1643 C1642 1.366 . S
C1643 C1647 1.385 . S
C1644 H1625 0.951 . S
C1644 C1642 1.388 . S
C1644 C1645 1.366 . S
C1645 C1644 1.366 . S
C1645 C1646 1.414 . S
C1645 C1648 1.499 . S
C1646 H1626 0.950 . S
C1646 C1645 1.414 . S
C1646 C1647 1.374 . S
C1647 H1627 0.950 . S
C1647 C1643 1.385 . S
C1647 C1646 1.374 . S
C1648 C1645 1.499 . S
C1648 C1649 1.373 . S
C1648 C1650 1.389 . S
C1649 H1628 0.950 . S
C1649 C1648 1.373 . S
C1649 C1665 1.377 . S
C1650 C1648 1.389 . S
C1650 C1651 1.524 . S
C1650 C1664 1.377 . S
C1651 C1650 1.524 . S
C1651 C1652 1.397 . S
C1651 C1656 1.363 . S
C1652 H1629 0.950 . S
C1652 C1651 1.397 . S
C1652 C1653 1.334 . S
C1653 H1630 0.950 . S
C1653 C1652 1.334 . S
C1653 C1654 1.287 . S
C1654 C1653 1.287 . S
C1654 C1655 1.524 . S
C1654 H1673 0.913 . S
C1655 H1631 0.950 . S
C1655 C1654 1.524 . S
C1655 C1656 1.415 . S
C1656 H1632 0.950 . S
C1656 C1651 1.363 . S
C1656 C1655 1.415 . S
C1657 H1633 0.951 . S
C1657 C1658 1.366 . S
C1657 C1659 1.388 . S
C1658 C1657 1.366 . S
C1658 C1662 1.385 . S
C1659 H1634 0.951 . S
C1659 C1657 1.388 . S
C1659 C1660 1.366 . S
C1660 C1659 1.366 . S
C1660 C1661 1.414 . S
C1660 C1663 1.499 . S
C1661 H1635 0.950 . S
C1661 C1660 1.414 . S
C1661 C1662 1.374 . S
C1662 H1636 0.950 . S
C1662 C1658 1.385 . S
C1662 C1661 1.374 . S
C1663 C1660 1.499 . S
C1663 C1664 1.373 . S
C1663 C1665 1.389 . S
C1664 H1637 0.950 . S
C1664 C1650 1.377 . S
C1664 C1663 1.373 . S
C1665 C1649 1.377 . S
C1665 C1663 1.389 . S
C1665 C1666 1.524 . S
C1666 C1665 1.524 . S
C1666 C1667 1.397 . S
C1666 C1671 1.363 . S
C1667 H1638 0.950 . S
C1667 C1666 1.397 . S
C1667 C1668 1.334 . S
C1668 H1639 0.950 . S
C1668 C1667 1.334 . S
C1668 C1669 1.287 . S
C1669 C1668 1.287 . S
C1669 C1670 1.524 . S
C1669 H1672 0.999 . S
C1670 H1640 0.950 . S
C1670 C1669 1.524 . S
C1670 C1671 1.415 . S
C1671 H1641 0.950 . S
C1671 C1666 1.363 . S
C1671 C1670 1.415 . S
H1672 C1669 0.999 . S
H1673 C1654 0.913 . S
H1674 C1692 0.951 . S
H1675 C1694 0.951 . S
H1676 C1696 0.950 . S
H1677 C1697 0.950 . S
H1678 C1699 0.950 . S
H1679 C1702 0.950 . S
H1680 C1703 0.950 . S
H1681 C1705 0.950 . S
H1682 C1706 0.950 . S
H1683 C1707 0.951 . S
H1684 C1709 0.951 . S
H1685 C1711 0.950 . S
H1686 C1712 0.950 . S
H1687 C1714 0.950 . S
H1688 C1717 0.950 . S
H1689 C1718 0.950 . S
H1690 C1720 0.950 . S
H1691 C1721 0.950 . S
C1692 H1674 0.951 . S
C1692 C1693 1.366 . S
C1692 C1694 1.388 . S
C1693 C1692 1.366 . S
C1693 C1697 1.385 . S
C1694 H1675 0.951 . S
C1694 C1692 1.388 . S
C1694 C1695 1.366 . S
C1695 C1694 1.366 . S
C1695 C1696 1.414 . S
C1695 C1698 1.499 . S
C1696 H1676 0.950 . S
C1696 C1695 1.414 . S
C1696 C1697 1.374 . S
C1697 H1677 0.950 . S
C1697 C1693 1.385 . S
C1697 C1696 1.374 . S
C1698 C1695 1.499 . S
C1698 C1699 1.373 . S
C1698 C1700 1.409 . S
C1699 H1678 0.950 . S
C1699 C1698 1.373 . S
C1699 C1715 1.354 1_545 S
C1700 C1698 1.409 . S
C1700 C1701 1.523 1_545 S
C1700 C1714 1.356 1_545 S
C1701 C1700 1.523 1_565 S
C1701 C1702 1.397 1_565 S
C1701 C1706 1.363 . S
C1702 H1679 0.950 . S
C1702 C1701 1.397 1_545 S
C1702 C1703 1.334 . S
C1703 H1680 0.950 . S
C1703 C1702 1.334 . S
C1703 C1704 1.287 1_545 S
C1704 C1703 1.287 1_565 S
C1704 C1705 1.524 . S
C1704 H1723 0.913 . S
C1705 H1681 0.950 . S
C1705 C1704 1.524 . S
C1705 C1706 1.415 . S
C1706 H1682 0.950 . S
C1706 C1701 1.363 . S
C1706 C1705 1.415 . S
C1707 H1683 0.951 . S
C1707 C1708 1.366 . S
C1707 C1709 1.388 . S
C1708 C1707 1.366 . S
C1708 C1712 1.385 . S
C1709 H1684 0.951 . S
C1709 C1707 1.388 . S
C1709 C1710 1.366 . S
C1710 C1709 1.366 . S
C1710 C1711 1.414 . S
C1710 C1713 1.499 . S
C1711 H1685 0.950 . S
C1711 C1710 1.414 . S
C1711 C1712 1.374 . S
C1712 H1686 0.950 . S
C1712 C1708 1.385 . S
C1712 C1711 1.374 . S
C1713 C1710 1.499 . S
C1713 C1714 1.373 . S
C1713 C1715 1.412 . S
C1714 H1687 0.950 . S
C1714 C1700 1.356 1_565 S
C1714 C1713 1.373 . S
C1715 C1699 1.354 1_565 S
C1715 C1713 1.412 . S
C1715 C1716 1.523 1_565 S
C1716 C1715 1.523 1_545 S
C1716 C1717 1.397 1_545 S
C1716 C1721 1.363 . S
C1717 H1688 0.950 . S
C1717 C1716 1.397 1_565 S
C1717 C1718 1.334 . S
C1718 H1689 0.950 . S
C1718 C1717 1.334 . S
C1718 C1719 1.287 1_565 S
C1719 C1718 1.287 1_545 S
C1719 C1720 1.524 . S
C1719 H1722 0.999 . S
C1720 H1690 0.950 . S
C1720 C1719 1.524 . S
C1720 C1721 1.415 . S
C1721 H1691 0.950 . S
C1721 C1716 1.363 . S
C1721 C1720 1.415 . S
H1722 C1719 0.999 . S
H1723 C1704 0.913 . S
H1724 C1742 0.951 . S
H1725 C1744 0.951 . S
H1726 C1746 0.950 1_545 S
H1727 C1747 0.950 . S
H1728 C1749 0.950 . S
H1729 C1752 0.950 . S
H1730 C1753 0.950 . S
H1731 C1755 0.950 . S
H1732 C1756 0.950 . S
H1733 C1757 0.951 . S
H1734 C1759 0.951 . S
H1735 C1761 0.950 1_565 S
H1736 C1762 0.950 . S
H1737 C1764 0.950 . S
H1738 C1767 0.950 . S
H1739 C1768 0.950 . S
H1740 C1770 0.950 . S
H1741 C1771 0.950 . S
C1742 H1724 0.951 . S
C1742 C1743 1.366 . S
C1742 C1744 1.388 . S
C1743 C1742 1.366 . S
C1743 C1747 1.385 . S
C1744 H1725 0.951 . S
C1744 C1742 1.388 . S
C1744 C1745 1.366 . S
C1745 C1744 1.366 . S
C1745 C1746 1.414 . S
C1745 C1748 1.499 . S
C1746 H1726 0.950 1_565 S
C1746 C1745 1.414 . S
C1746 C1747 1.374 . S
C1747 H1727 0.950 . S
C1747 C1743 1.385 . S
C1747 C1746 1.374 . S
C1748 C1745 1.499 . S
C1748 C1749 1.373 1_565 S
C1748 C1750 1.389 . S
C1749 H1728 0.950 . S
C1749 C1748 1.373 1_545 S
C1749 C1765 1.377 1_655 S
C1750 C1748 1.389 . S
C1750 C1751 1.524 . S
C1750 C1764 1.377 1_655 S
C1751 C1750 1.524 . S
C1751 C1752 1.397 . S
C1751 C1756 1.363 1_655 S
C1752 H1729 0.950 . S
C1752 C1751 1.397 . S
C1752 C1753 1.334 . S
C1753 H1730 0.950 . S
C1753 C1752 1.334 . S
C1753 C1754 1.287 . S
C1754 C1753 1.287 . S
C1754 C1755 1.524 1_655 S
C1754 H1773 0.913 . S
C1755 H1731 0.950 . S
C1755 C1754 1.524 1_455 S
C1755 C1756 1.415 . S
C1756 H1732 0.950 . S
C1756 C1751 1.363 1_455 S
C1756 C1755 1.415 . S
C1757 H1733 0.951 . S
C1757 C1758 1.366 . S
C1757 C1759 1.388 . S
C1758 C1757 1.366 . S
C1758 C1762 1.385 . S
C1759 H1734 0.951 . S
C1759 C1757 1.388 . S
C1759 C1760 1.366 . S
C1760 C1759 1.366 . S
C1760 C1761 1.414 . S
C1760 C1763 1.499 . S
C1761 H1735 0.950 1_545 S
C1761 C1760 1.414 . S
C1761 C1762 1.374 . S
C1762 H1736 0.950 . S
C1762 C1758 1.385 . S
C1762 C1761 1.374 . S
C1763 C1760 1.499 . S
C1763 C1764 1.373 1_545 S
C1763 C1765 1.389 . S
C1764 H1737 0.950 . S
C1764 C1750 1.377 1_455 S
C1764 C1763 1.373 1_565 S
C1765 C1749 1.377 1_455 S
C1765 C1763 1.389 . S
C1765 C1766 1.524 . S
C1766 C1765 1.524 . S
C1766 C1767 1.397 . S
C1766 C1771 1.363 1_455 S
C1767 H1738 0.950 . S
C1767 C1766 1.397 . S
C1767 C1768 1.334 . S
C1768 H1739 0.950 . S
C1768 C1767 1.334 . S
C1768 C1769 1.287 . S
C1769 C1768 1.287 . S
C1769 C1770 1.524 1_455 S
C1769 H1772 0.999 . S
C1770 H1740 0.950 . S
C1770 C1769 1.524 1_655 S
C1770 C1771 1.415 . S
C1771 H1741 0.950 . S
C1771 C1766 1.363 1_655 S
C1771 C1770 1.415 . S
H1772 C1769 0.999 . S
H1773 C1754 0.913 . S
H1774 C1792 0.951 . S
H1775 C1794 0.951 1_455 S
H1776 C1796 0.950 . S
H1777 C1797 0.950 . S
H1778 C1799 0.950 . S
H1779 C1802 0.950 1_655 S
H1780 C1803 0.950 . S
H1781 C1805 0.950 . S
H1782 C1806 0.950 . S
H1783 C1807 0.951 . S
H1784 C1809 0.951 1_655 S
H1785 C1811 0.950 . S
H1786 C1812 0.950 . S
H1787 C1814 0.950 . S
H1788 C1817 0.950 1_455 S
H1789 C1818 0.950 . S
H1790 C1820 0.950 . S
H1791 C1821 0.950 . S
C1792 H1774 0.951 . S
C1792 C1793 1.366 . S
C1792 C1794 1.388 . S
C1793 C1792 1.366 . S
C1793 C1797 1.385 . S
C1794 H1775 0.951 1_655 S
C1794 C1792 1.388 . S
C1794 C1795 1.366 . S
C1795 C1794 1.366 . S
C1795 C1796 1.414 . S
C1795 C1798 1.499 . S
C1796 H1776 0.950 . S
C1796 C1795 1.414 . S
C1796 C1797 1.374 . S
C1797 H1777 0.950 . S
C1797 C1793 1.385 . S
C1797 C1796 1.374 . S
C1798 C1795 1.499 . S
C1798 C1799 1.373 . S
C1798 C1800 1.389 1_655 S
C1799 H1778 0.950 . S
C1799 C1798 1.373 . S
C1799 C1815 1.377 . S
C1800 C1798 1.389 1_455 S
C1800 C1801 1.524 . S
C1800 C1814 1.377 . S
C1801 C1800 1.524 . S
C1801 C1802 1.397 . S
C1801 C1806 1.363 . S
C1802 H1779 0.950 1_455 S
C1802 C1801 1.397 . S
C1802 C1803 1.334 . S
C1803 H1780 0.950 . S
C1803 C1802 1.334 . S
C1803 C1804 1.287 . S
C1804 C1803 1.287 . S
C1804 C1805 1.524 . S
C1804 H1823 0.913 . S
C1805 H1781 0.950 . S
C1805 C1804 1.524 . S
C1805 C1806 1.415 . S
C1806 H1782 0.950 . S
C1806 C1801 1.363 . S
C1806 C1805 1.415 . S
C1807 H1783 0.951 . S
C1807 C1808 1.366 . S
C1807 C1809 1.388 . S
C1808 C1807 1.366 . S
C1808 C1812 1.385 . S
C1809 H1784 0.951 1_455 S
C1809 C1807 1.388 . S
C1809 C1810 1.366 . S
C1810 C1809 1.366 . S
C1810 C1811 1.414 . S
C1810 C1813 1.499 . S
C1811 H1785 0.950 . S
C1811 C1810 1.414 . S
C1811 C1812 1.374 . S
C1812 H1786 0.950 . S
C1812 C1808 1.385 . S
C1812 C1811 1.374 . S
C1813 C1810 1.499 . S
C1813 C1814 1.373 . S
C1813 C1815 1.389 1_455 S
C1814 H1787 0.950 . S
C1814 C1800 1.377 . S
C1814 C1813 1.373 . S
C1815 C1799 1.377 . S
C1815 C1813 1.389 1_655 S
C1815 C1816 1.524 . S
C1816 C1815 1.524 . S
C1816 C1817 1.397 . S
C1816 C1821 1.363 . S
C1817 H1788 0.950 1_655 S
C1817 C1816 1.397 . S
C1817 C1818 1.334 . S
C1818 H1789 0.950 . S
C1818 C1817 1.334 . S
C1818 C1819 1.287 . S
C1819 C1818 1.287 . S
C1819 C1820 1.524 . S
C1819 H1822 0.999 . S
C1820 H1790 0.950 . S
C1820 C1819 1.524 . S
C1820 C1821 1.415 . S
C1821 H1791 0.950 . S
C1821 C1816 1.363 . S
C1821 C1820 1.415 . S
H1822 C1819 0.999 . S
H1823 C1804 0.913 . S
C243 C65 1.298 . S
C258 C9 1.297 . S
C293 C23 1.297 . S
C308 C79 1.297 . S
C343 C93 1.297 . S
C358 C37 1.297 . S
C393 C107 1.298 . S
C408 C51 1.298 . S
C443 C177 1.298 . S
C458 C121 1.298 . S
C493 C135 1.297 . S
C508 C191 1.297 . S
C543 C205 1.297 . S
C558 C149 1.297 . S
C593 C163 1.298 . S
C608 C219 1.298 . S
C643 C0 1.360 . S
C658 C210 1.360 . S
C693 C14 1.360 . S
C708 C168 1.361 . S
C743 C28 1.361 . S
C758 C182 1.361 . S
C793 C196 1.360 . S
C808 C42 1.361 . S
C843 C56 1.361 . S
C858 C126 1.360 . S
C893 C70 1.361 . S
C908 C140 1.361 . S
C943 C154 1.360 . S
C958 C84 1.361 . S
C993 C112 1.360 . S
C1008 C98 1.360 . S
C1043 C11 1.619 . S
C1058 C151 1.619 . S
C1093 C165 1.619 . S
C1108 C25 1.619 . S
C1143 C39 1.619 . S
C1158 C123 1.619 . S
C1193 C137 1.619 . S
C1208 C53 1.619 . S
C1243 C67 1.619 . S
C1258 C207 1.619 . S
C1293 C81 1.619 . S
C1308 C221 1.619 . S
C1343 C179 1.619 . S
C1358 C95 1.619 . S
C1393 C193 1.619 . S
C1408 C109 1.619 . S
C1443 C145 1.370 . S
C1458 C5 1.370 . S
C1493 C19 1.370 . S
C1508 C159 1.370 . S
C1543 C33 1.370 . S
C1558 C117 1.370 . S
C1593 C131 1.370 . S
C1608 C47 1.370 . S
C1643 C201 1.370 . S
C1658 C61 1.370 . S
C1693 C215 1.370 . S
C1708 C75 1.370 . S
C1743 C173 1.370 . S
C1758 C89 1.370 . S
C1793 C103 1.370 . S
C1808 C187 1.370 . S
