# Generated by pormake.
# Topology une, (4)-cn, num edge types: 1
# Building blocks:
#     Node 0, Type 0, BuildingBlock: NAHDIM_clean_sbu_0, # of connection points: 4
#     Node 1, Type 0, BuildingBlock: NAHDIM_clean_sbu_0, # of connection points: 4
#     Node 2, Type 0, BuildingBlock: NAHDIM_clean_sbu_0, # of connection points: 4
#     Node 3, Type 0, BuildingBlock: NAHDIM_clean_sbu_0, # of connection points: 4
#     Node 4, Type 0, BuildingBlock: NAHDIM_clean_sbu_0, # of connection points: 4
#     Node 5, Type 0, BuildingBlock: NAHDIM_clean_sbu_0, # of connection points: 4
#     Node 6, Type 0, BuildingBlock: NAHDIM_clean_sbu_0, # of connection points: 4
#     Node 7, Type 0, BuildingBlock: NAHDIM_clean_sbu_0, # of connection points: 4
#     Node 8, Type 0, BuildingBlock: NAHDIM_clean_sbu_0, # of connection points: 4
#     Node 9, Type 0, BuildingBlock: NAHDIM_clean_sbu_0, # of connection points: 4
#     Node 10, Type 0, BuildingBlock: NAHDIM_clean_sbu_0, # of connection points: 4
#     Node 11, Type 0, BuildingBlock: NAHDIM_clean_sbu_0, # of connection points: 4
#     Node 12, Type 0, BuildingBlock: NAHDIM_clean_sbu_0, # of connection points: 4
#     Node 13, Type 0, BuildingBlock: NAHDIM_clean_sbu_0, # of connection points: 4
#     Node 14, Type 0, BuildingBlock: NAHDIM_clean_sbu_0, # of connection points: 4
#     Node 15, Type 0, BuildingBlock: NAHDIM_clean_sbu_0, # of connection points: 4
#     Node 16, Type 0, BuildingBlock: NAHDIM_clean_sbu_0, # of connection points: 4
#     Node 17, Type 0, BuildingBlock: NAHDIM_clean_sbu_0, # of connection points: 4
#     Edge 18, Type (0, 0), BuildingBlock: XIVTED_clean_linker_0, # of connection points: 2
#     Edge 19, Type (0, 0), BuildingBlock: XIVTED_clean_linker_0, # of connection points: 2
#     Edge 20, Type (0, 0), BuildingBlock: XIVTED_clean_linker_0, # of connection points: 2
#     Edge 21, Type (0, 0), BuildingBlock: XIVTED_clean_linker_0, # of connection points: 2
#     Edge 22, Type (0, 0), BuildingBlock: XIVTED_clean_linker_0, # of connection points: 2
#     Edge 23, Type (0, 0), BuildingBlock: XIVTED_clean_linker_0, # of connection points: 2
#     Edge 24, Type (0, 0), BuildingBlock: XIVTED_clean_linker_0, # of connection points: 2
#     Edge 25, Type (0, 0), BuildingBlock: XIVTED_clean_linker_0, # of connection points: 2
#     Edge 26, Type (0, 0), BuildingBlock: XIVTED_clean_linker_0, # of connection points: 2
#     Edge 27, Type (0, 0), BuildingBlock: XIVTED_clean_linker_0, # of connection points: 2
#     Edge 28, Type (0, 0), BuildingBlock: XIVTED_clean_linker_0, # of connection points: 2
#     Edge 29, Type (0, 0), BuildingBlock: XIVTED_clean_linker_0, # of connection points: 2
#     Edge 30, Type (0, 0), BuildingBlock: XIVTED_clean_linker_0, # of connection points: 2
#     Edge 31, Type (0, 0), BuildingBlock: XIVTED_clean_linker_0, # of connection points: 2
#     Edge 32, Type (0, 0), BuildingBlock: XIVTED_clean_linker_0, # of connection points: 2
#     Edge 33, Type (0, 0), BuildingBlock: XIVTED_clean_linker_0, # of connection points: 2
#     Edge 34, Type (0, 0), BuildingBlock: XIVTED_clean_linker_0, # of connection points: 2
#     Edge 35, Type (0, 0), BuildingBlock: XIVTED_clean_linker_0, # of connection points: 2
#     Edge 36, Type (0, 0), BuildingBlock: XIVTED_clean_linker_0, # of connection points: 2
#     Edge 37, Type (0, 0), BuildingBlock: XIVTED_clean_linker_0, # of connection points: 2
#     Edge 38, Type (0, 0), BuildingBlock: XIVTED_clean_linker_0, # of connection points: 2
#     Edge 39, Type (0, 0), BuildingBlock: XIVTED_clean_linker_0, # of connection points: 2
#     Edge 40, Type (0, 0), BuildingBlock: XIVTED_clean_linker_0, # of connection points: 2
#     Edge 41, Type (0, 0), BuildingBlock: XIVTED_clean_linker_0, # of connection points: 2
#     Edge 42, Type (0, 0), BuildingBlock: XIVTED_clean_linker_0, # of connection points: 2
#     Edge 43, Type (0, 0), BuildingBlock: XIVTED_clean_linker_0, # of connection points: 2
#     Edge 44, Type (0, 0), BuildingBlock: XIVTED_clean_linker_0, # of connection points: 2
#     Edge 45, Type (0, 0), BuildingBlock: XIVTED_clean_linker_0, # of connection points: 2
#     Edge 46, Type (0, 0), BuildingBlock: XIVTED_clean_linker_0, # of connection points: 2
#     Edge 47, Type (0, 0), BuildingBlock: XIVTED_clean_linker_0, # of connection points: 2
#     Edge 48, Type (0, 0), BuildingBlock: XIVTED_clean_linker_0, # of connection points: 2
#     Edge 49, Type (0, 0), BuildingBlock: XIVTED_clean_linker_0, # of connection points: 2
#     Edge 50, Type (0, 0), BuildingBlock: XIVTED_clean_linker_0, # of connection points: 2
#     Edge 51, Type (0, 0), BuildingBlock: XIVTED_clean_linker_0, # of connection points: 2
#     Edge 52, Type (0, 0), BuildingBlock: XIVTED_clean_linker_0, # of connection points: 2
#     Edge 53, Type (0, 0), BuildingBlock: XIVTED_clean_linker_0, # of connection points: 2
# Relax obj value: 0.230
# Max RMSD: 0.185
# Mean RMSD: 0.173
data_MOF--net-une--node1-NAHDIM_clean_sbu_0--edge1-XIVTED_clean_linker_0
_symmetry_space_group_name_H-M    P1
_symmetry_Int_Tables_number       1
_symmetry_cell_setting            triclinic
loop_
_symmetry_equiv_pos_as_xyz
'x, y, z'
_cell_length_a     37.763805
_cell_length_b     37.467692
_cell_length_c     55.991566
_cell_angle_alpha  90.467574
_cell_angle_beta   89.92047
_cell_angle_gamma 120.47417
loop_
_atom_site_label
_atom_site_type_symbol
_atom_site_fract_x
_atom_site_fract_y
_atom_site_fract_z
_atom_type_partial_charge
C0 C 0.41925 0.98652 0.04626 0.0
O1 O 0.38235 0.9562 0.05169 0.0
O2 O 0.39269 0.08257 0.03302 0.0
Zn3 Zn 0.38421 0.03839 0.05612 0.0
O4 O 0.32801 0.99 0.0492 0.0
C5 C 0.35417 0.06486 0.09312 0.0
O6 O 0.32574 0.05308 0.07653 0.0
O7 O 0.42763 0.02377 0.0488 0.0
C8 C 0.30431 0.96111 0.06317 0.0
O9 O 0.31659 0.95988 0.08493 0.0
C10 C 0.37774 0.07297 0.01205 0.0
O11 O 0.35757 0.03384 0.00545 0.0
O12 O 0.38526 0.061 0.0891 0.0
C13 C 0.87259 0.25037 0.09158 0.0
O14 O 0.8601 0.23174 0.07075 0.0
O15 O 0.98332 0.29884 0.06149 0.0
Zn16 Zn 0.93703 0.31049 0.06233 0.0
O17 O 0.90178 0.28267 0.03356 0.0
C18 C -0.00495 0.39554 0.05121 0.0
O19 O 0.02071 0.38164 0.05027 0.0
O20 O 0.90466 0.28617 0.0926 0.0
C21 C 0.91812 0.28445 0.01342 0.0
O22 O 0.95834 0.30526 0.01149 0.0
C23 C 0.97645 0.26261 0.05685 0.0
O24 O 0.93837 0.23225 0.05399 0.0
O25 O 0.95828 0.37141 0.05797 0.0
C26 C 0.71859 0.66346 0.11536 0.0
O27 O 0.70691 0.69091 0.11351 0.0
O28 O 0.69823 0.69975 0.06221 0.0
Zn29 Zn 0.68739 0.64204 0.06696 0.0
O30 O 0.71616 0.62973 0.04076 0.0
C31 C 0.6068 0.60891 0.04842 0.0
O32 O 0.62532 0.64477 0.03754 0.0
O33 O 0.71148 0.63827 0.09819 0.0
C34 C 0.7194 0.64365 0.01974 0.0
O35 O 0.70326 0.66657 0.0147 0.0
C36 C 0.73434 0.72954 0.05822 0.0
O37 O 0.76525 0.72281 0.05887 0.0
O38 O 0.62692 0.60081 0.06346 0.0
C39 C 0.64827 0.89935 0.88402 0.0
O40 O 0.61306 0.88866 0.89437 0.0
O41 O 0.63142 0.95873 0.93167 0.0
Zn42 Zn 0.68392 0.96041 0.92259 0.0
O43 O 0.69705 0.93449 0.94963 0.0
C44 C 0.72109 0.04864 0.91784 0.0
O45 O 0.68299 0.0391 0.91385 0.0
O46 O 0.68116 0.92949 0.89248 0.0
C47 C 0.73199 0.93841 0.95339 0.0
O48 O 0.76244 0.96065 0.93874 0.0
C49 C 0.60548 0.93075 0.94538 0.0
O50 O 0.61024 0.89942 0.9509 0.0
O51 O 0.72898 0.01981 0.92088 0.0
C52 C 0.10449 0.74486 0.90306 0.0
O53 O 0.12276 0.74829 0.9236 0.0
O54 O 0.03455 0.64587 0.94341 0.0
Zn55 Zn 0.03521 0.69731 0.93241 0.0
O56 O 0.06359 0.74127 0.95748 0.0
C57 C 0.94662 0.64897 0.93147 0.0
O58 O 0.95298 0.61761 0.9317 0.0
O59 O 0.06567 0.7215 0.90165 0.0
C60 C 0.06226 0.73536 0.97985 0.0
O61 O 0.03976 0.69775 0.98828 0.0
C62 C 0.06396 0.64565 0.95429 0.0
O63 O 0.09941 0.68024 0.95646 0.0
O64 O 0.9772 0.68563 0.93048 0.0
C65 C 0.23894 0.34746 0.91962 0.0
O66 O 0.23746 0.36444 0.93995 0.0
O67 O 0.33452 0.37756 0.96026 0.0
Zn68 Zn 0.28577 0.32444 0.94853 0.0
O69 O 0.24312 0.30649 0.97403 0.0
C70 C 0.33823 0.28973 0.94197 0.0
O71 O 0.36729 0.3287 0.94002 0.0
O72 O 0.2604 0.33013 0.91838 0.0
C73 C 0.20966 0.27202 0.97331 0.0
O74 O 0.20273 0.2463 0.95545 0.0
C75 C 0.34658 0.37485 0.98102 0.0
O76 O 0.32709 0.33919 0.9921 0.0
O77 O 0.30123 0.28078 0.9448 0.0
C78 C 0.06867 0.3155 0.3589 0.0
O79 O 0.03883 0.31203 0.34525 0.0
O80 O 0.0315 0.38477 0.36235 0.0
Zn81 Zn 0.03052 0.34675 0.38806 0.0
O82 O 0.97439 0.29621 0.38905 0.0
C83 C 0.0632 0.41644 0.42 0.0
O84 O 0.08524 0.43547 0.40113 0.0
O85 O 0.07237 0.3301 0.37995 0.0
C86 C 0.94358 0.30051 0.39288 0.0
O87 O 0.94949 0.33778 0.39678 0.0
C88 C 0.00549 0.37403 0.34545 0.0
O89 O 0.97594 0.33521 0.34344 0.0
O90 O 0.03983 0.37732 0.41929 0.0
C91 C 0.58305 0.62271 0.44743 0.0
O92 O 0.6229 0.63774 0.44648 0.0
O93 O 0.64332 0.6445 0.39669 0.0
Zn94 Zn 0.59569 0.65395 0.3995 0.0
O95 O 0.55757 0.62268 0.37244 0.0
C96 C 0.65009 0.73945 0.38754 0.0
O97 O 0.67732 0.72753 0.38675 0.0
O98 O 0.56524 0.62884 0.43004 0.0
C99 C 0.57181 0.62404 0.35168 0.0
O100 O 0.61157 0.64693 0.34806 0.0
C101 C 0.6369 0.6082 0.39291 0.0
O102 O 0.59893 0.57692 0.39213 0.0
O103 O 0.61377 0.71404 0.39449 0.0
C104 C 0.36028 0.98541 0.4586 0.0
O105 O 0.34437 0.0095 0.4589 0.0
O106 O 0.33654 0.02443 0.40826 0.0
Zn107 Zn 0.32745 0.96687 0.41059 0.0
O108 O 0.3562 0.95828 0.3828 0.0
C109 C 0.24699 0.93051 0.39195 0.0
O110 O 0.26421 0.96683 0.38161 0.0
O111 O 0.35448 0.96246 0.44045 0.0
C112 C 0.35941 0.97479 0.36256 0.0
O113 O 0.34348 -0.00155 0.35934 0.0
C114 C 0.3733 0.05407 0.406 0.0
O115 O 0.40339 0.04608 0.40661 0.0
O116 O 0.26762 0.9235 0.4072 0.0
C117 C 0.32618 0.22102 0.23066 0.0
O118 O 0.29369 0.20429 0.24452 0.0
O119 O 0.29946 0.27787 0.27374 0.0
Zn120 Zn 0.35564 0.28678 0.26555 0.0
O121 O 0.37533 0.26561 0.29212 0.0
C122 C 0.38338 0.37386 0.26197 0.0
O123 O 0.34389 0.36039 0.26023 0.0
O124 O 0.35583 0.25704 0.23559 0.0
C125 C 0.37619 0.27606 0.31386 0.0
O126 O 0.36393 0.30212 0.31965 0.0
C127 C 0.27628 0.25341 0.28986 0.0
O128 O 0.2866 0.22891 0.30053 0.0
O129 O 0.39549 0.34787 0.26321 0.0
C130 C 0.73748 0.08546 0.23845 0.0
O131 O 0.75762 0.09692 0.25881 0.0
O132 O 0.67275 0.98367 0.28054 0.0
Zn133 Zn 0.67188 0.03442 0.26997 0.0
O134 O 0.70047 0.07848 0.2951 0.0
C135 C 0.58339 0.98429 0.26927 0.0
O136 O 0.59063 0.95353 0.26814 0.0
O137 O 0.69985 0.05704 0.23841 0.0
C138 C 0.69975 0.07047 0.31717 0.0
O139 O 0.67851 0.03194 0.32439 0.0
C140 C 0.70386 0.98405 0.28947 0.0
O141 O 0.73951 0.01872 0.2897 0.0
O142 O 0.6134 0.02131 0.26901 0.0
C143 C 0.89864 0.67608 0.2506 0.0
O144 O 0.89886 0.69489 0.27056 0.0
O145 O 0.9887 0.69745 0.29286 0.0
Zn146 Zn 0.93765 0.64641 0.28121 0.0
O147 O 0.8949 0.63394 0.30602 0.0
C148 C 0.98224 0.60267 0.27622 0.0
O149 O 0.01415 0.63997 0.27337 0.0
O150 O 0.9159 0.65447 0.25024 0.0
C151 C 0.86142 0.5996 0.30734 0.0
O152 O 0.85405 0.56984 0.29203 0.0
C153 C 0.00015 0.69436 0.31371 0.0
O154 O 0.97936 0.65898 0.32496 0.0
O155 O 0.94687 0.59826 0.27906 0.0
C156 C 0.72611 0.65944 0.68853 0.0
O157 O 0.69379 0.64987 0.67525 0.0
O158 O 0.70439 0.74468 0.68683 0.0
Zn159 Zn 0.69267 0.70192 0.71186 0.0
O160 O 0.63494 0.65527 0.7069 0.0
C161 C 0.66621 0.73566 0.74681 0.0
O162 O 0.63836 0.7245 0.72991 0.0
O163 O 0.73258 0.68169 0.70713 0.0
C164 C 0.61467 0.62457 0.72053 0.0
O165 O 0.63214 0.62055 0.73979 0.0
C166 C 0.68342 0.73608 0.6677 0.0
O167 O 0.65365 0.69789 0.66372 0.0
O168 O 0.69558 0.72866 0.74378 0.0
C169 C 0.26824 0.94842 0.77523 0.0
O170 O 0.30853 0.96684 0.77547 0.0
O171 O 0.33121 0.96607 0.72591 0.0
Zn172 Zn 0.28106 0.97152 0.72556 0.0
O173 O 0.24335 0.93593 0.69892 0.0
C174 C 0.31883 0.04323 0.69888 0.0
O175 O 0.32677 0.01776 0.68701 0.0
O176 O 0.25018 0.94943 0.75633 0.0
C177 C 0.25474 0.92298 0.6811 0.0
O178 O 0.29333 0.93286 0.6793 0.0
C179 C 0.3295 0.93138 0.72715 0.0
O180 O 0.29358 0.8973 0.72906 0.0
O181 O 0.29876 0.03105 0.7183 0.0
C182 C 0.0415 0.30934 0.78872 0.0
O183 O 0.02962 0.33643 0.78564 0.0
O184 O 0.01949 0.34073 0.73428 0.0
Zn185 Zn 0.0105 0.28416 0.74063 0.0
O186 O 0.04071 0.27237 0.71528 0.0
C187 C 0.92385 0.25285 0.73426 0.0
O188 O 0.93399 0.29093 0.74004 0.0
O189 O 0.03412 0.28254 0.77248 0.0
C190 C 0.03746 0.2801 0.6936 0.0
O191 O 0.01415 0.29559 0.68815 0.0
C192 C 0.05425 0.37072 0.72815 0.0
O193 O 0.08612 0.36552 0.72748 0.0
O194 O 0.95081 0.24216 0.73561 0.0
C195 C 0.02569 0.58206 0.54865 0.0
O196 O 0.05856 0.61574 0.55639 0.0
O197 O 0.94147 0.59488 0.60079 0.0
Zn198 Zn -0.00612 0.59632 0.59149 0.0
O199 O 0.00493 0.56611 0.61702 0.0
C200 C 0.03579 0.68662 0.59124 0.0
O201 O -0.00103 0.68121 0.58779 0.0
O202 O 0.99222 0.56835 0.56014 0.0
C203 C 0.04088 0.57363 0.62202 0.0
O204 O 0.07232 0.60165 0.6098 0.0
C205 C 0.94255 0.60741 0.62213 0.0
O206 O 0.97578 0.61893 0.63499 0.0
O207 O 0.04031 0.65533 0.59245 0.0
C208 C 0.42004 0.40489 0.56887 0.0
O209 O 0.43819 0.40313 0.58846 0.0
O210 O 0.36086 0.30857 0.60717 0.0
Zn211 Zn 0.35215 0.35569 0.59795 0.0
O212 O 0.37602 0.39996 0.62318 0.0
C213 C 0.26498 0.29775 0.60021 0.0
O214 O 0.27696 0.27058 0.60238 0.0
O215 O 0.38104 0.38384 0.56762 0.0
C216 C 0.36875 0.39565 0.64545 0.0
O217 O 0.3428 0.35892 0.65403 0.0
C218 C 0.385 0.31113 0.6238 0.0
O219 O 0.40934 0.34708 0.63406 0.0
O220 O 0.29169 0.33552 0.59666 0.0
C221 C 0.57349 0.03059 0.58068 0.0
O222 O 0.57207 0.0442 0.60214 0.0
O223 O 0.67809 0.06193 0.61556 0.0
Zn224 Zn 0.62695 0.00993 0.60491 0.0
O225 O 0.58846 0.99144 0.63269 0.0
C226 C 0.67671 0.9718 0.59914 0.0
O227 O 0.70745 0.00976 0.60236 0.0
O228 O 0.59735 0.01646 0.57692 0.0
C229 C 0.56024 0.95422 0.63604 0.0
O230 O 0.5556 0.9253 0.6208 0.0
C231 C 0.67645 0.08592 0.63115 0.0
O232 O 0.64046 0.07992 0.63777 0.0
O233 O 0.64024 0.96522 0.59844 0.0
H234 H 0.41338 0.91121 0.03918 0.0
H235 H 0.59824 -0.00016 0.94566 0.0
H236 H 0.49017 0.04113 0.02327 0.0
H237 H 0.54393 0.87695 0.97503 0.0
H238 H 0.55344 0.01315 0.97097 0.0
H239 H 0.45712 0.89626 0.01373 0.0
C240 C 0.43965 0.93664 0.03055 0.0
C241 C 0.4481 0.9775 0.03337 0.0
C242 C 0.55122 0.98321 0.97181 0.0
C243 C 0.49774 0.96048 0.0039 0.0
C244 C 0.57655 0.97544 0.95721 0.0
C245 C 0.57495 0.93723 0.95827 0.0
C246 C 0.52383 0.95249 0.98749 0.0
C247 C 0.5463 0.90689 0.97368 0.0
C248 C 0.4645 0.92805 0.01596 0.0
C249 C 0.48252 0.00918 0.02169 0.0
N250 N 0.5219 0.91519 0.98772 0.0
N251 N 0.50585 -4e-05 0.00734 0.0
H252 H 0.94464 0.42564 0.03987 0.0
H253 H 0.11937 0.63116 0.97753 0.0
H254 H 0.07132 0.45648 0.03688 0.0
H255 H 0.98974 0.57628 0.96277 0.0
H256 H 0.1038 0.57221 0.00315 0.0
H257 H 0.96242 0.4872 0.0165 0.0
C258 C 0.97632 0.44565 0.0346 0.0
C259 C 0.0065 0.43573 0.04022 0.0
C260 C 0.07888 0.57309 0.99418 0.0
C261 C 0.02695 0.50606 0.01326 0.0
C262 C 0.08772 0.60661 0.97952 0.0
C263 C 0.05584 0.60862 0.96793 0.0
C264 C 0.03784 0.54174 0.99753 0.0
C265 C 0.01536 0.576 0.97123 0.0
C266 C 0.98637 0.4806 0.02108 0.0
C267 C 0.04704 0.46282 0.03283 0.0
N268 N 0.00753 0.5441 0.98583 0.0
N269 N 0.05608 0.49672 0.01965 0.0
H270 H 0.38238 0.37638 0.02361 0.0
H271 H 0.55915 0.61397 0.01344 0.0
H272 H 0.39265 0.45441 0.96453 0.0
H273 H 0.55948 0.53029 0.06589 0.0
H274 H 0.49354 0.55827 0.99821 0.0
H275 H 0.44286 0.43466 0.04189 0.0
C276 C 0.39727 0.40583 0.01449 0.0
C277 C 0.38254 0.41047 0.99242 0.0
C278 C 0.50784 0.55216 0.01314 0.0
C279 C 0.45186 0.47741 0.01335 0.0
C280 C 0.54525 0.584 0.02193 0.0
C281 C 0.56503 0.57671 0.04088 0.0
C282 C 0.48995 0.51274 0.0234 0.0
C283 C 0.54546 0.53726 0.05118 0.0
C284 C 0.43185 0.4391 0.02497 0.0
C285 C 0.40307 0.4494 0.9815 0.0
N286 N 0.50909 0.50669 0.04222 0.0
N287 N 0.43677 0.48138 0.99206 0.0
H288 H 0.12321 0.30117 0.3835 0.0
H289 H 0.23521 0.28591 0.26705 0.0
H290 H 0.08051 0.30319 0.31232 0.0
H291 H 0.23973 0.23123 0.33369 0.0
H292 H 0.18286 0.29871 0.284 0.0
H293 H 0.17139 0.28213 0.36638 0.0
C294 C 0.12398 0.29763 0.36432 0.0
C295 C 0.09786 0.30377 0.34931 0.0
C296 C 0.19505 0.28356 0.29482 0.0
C297 C 0.15286 0.28245 0.32971 0.0
C298 C 0.22489 0.27625 0.28517 0.0
C299 C 0.2417 0.25737 0.29896 0.0
C300 C 0.18258 0.2727 0.3186 0.0
C301 C 0.22732 0.24559 0.32237 0.0
C302 C 0.15126 0.28657 0.3546 0.0
C303 C 0.1 0.29864 0.32458 0.0
N304 N 0.19889 0.25389 0.33158 0.0
N305 N 0.12723 0.28861 0.31555 0.0
H306 H 0.59667 0.76632 0.37715 0.0
H307 H 0.76257 0.97195 0.31058 0.0
H308 H 0.72448 0.80185 0.37166 0.0
H309 H 0.63145 0.91419 0.30032 0.0
H310 H 0.7508 0.91441 0.33641 0.0
H311 H 0.6108 0.82653 0.3535 0.0
C312 C 0.62784 0.78707 0.37126 0.0
C313 C 0.65939 0.77885 0.37628 0.0
C314 C 0.7247 0.91435 0.32838 0.0
C315 C 0.67567 0.84767 0.34896 0.0
C316 C 0.73138 0.94707 0.31359 0.0
C317 C 0.69797 0.94788 0.30321 0.0
C318 C 0.68432 0.88257 0.33305 0.0
C319 C 0.65819 0.91487 0.30782 0.0
C320 C 0.63581 0.82127 0.35758 0.0
C321 C 0.69917 0.80687 0.3681 0.0
N322 N 0.6525 0.88376 0.3225 0.0
N323 N 0.70617 0.83998 0.35476 0.0
H324 H 0.04508 0.77452 0.29814 0.0
H325 H 0.203 0.85039 0.40779 0.0
H326 H 0.03553 0.69534 0.35641 0.0
H327 H 0.2004 0.93304 0.35546 0.0
H328 H 0.14136 0.79313 0.38946 0.0
H329 H 0.10273 0.83292 0.31866 0.0
C330 C 0.05514 0.76939 0.31522 0.0
C331 C 0.03551 0.72998 0.32555 0.0
C332 C 0.1541 0.82388 0.38212 0.0
C333 C 0.10135 0.79664 0.34916 0.0
C334 C 0.18923 0.8566 0.39262 0.0
C335 C 0.20703 0.89655 0.38308 0.0
C336 C 0.13684 0.8311 0.36182 0.0
C337 C 0.18784 0.90276 0.36339 0.0
C338 C 0.08793 0.80278 0.32698 0.0
C339 C 0.04974 0.72518 0.34777 0.0
N340 N 0.15401 0.87034 0.3533 0.0
N341 N 0.08187 0.75807 0.35878 0.0
H342 H 0.86872 0.58707 0.60118 0.0
H343 H 0.79785 0.67555 0.71045 0.0
H344 H 0.93859 0.6364 0.6663 0.0
H345 H 0.7228 0.61646 0.64814 0.0
H346 H 0.84904 0.65975 0.69499 0.0
H347 H 0.8141 0.59619 0.61835 0.0
C348 C 0.87252 0.59966 0.61909 0.0
C349 C 0.90834 0.61111 0.63227 0.0
C350 C 0.82125 0.65003 0.68477 0.0
C351 C 0.84612 0.62174 0.65201 0.0
C352 C 0.79199 0.65901 0.69361 0.0
C353 C 0.75607 0.64751 0.68053 0.0
C354 C 0.81463 0.62957 0.66263 0.0
C355 C 0.7501 0.62608 0.65882 0.0
C356 C 0.84133 0.60484 0.6289 0.0
C357 C 0.91158 0.62722 0.65543 0.0
N358 N 0.77917 0.61804 0.65049 0.0
N359 N 0.88099 0.63221 0.6645 0.0
H360 H 0.35498 0.23568 0.60204 0.0
H361 H 0.3265 0.11231 0.72155 0.0
H362 H 0.40331 0.29945 0.66919 0.0
H363 H 0.33902 0.06693 0.6528 0.0
H364 H 0.34655 0.17936 0.70317 0.0
H365 H 0.3411 0.17099 0.62074 0.0
C366 C 0.36302 0.2361 0.62065 0.0
C367 C 0.38049 0.27292 0.63407 0.0
C368 C 0.34506 0.15466 0.69223 0.0
C369 C 0.36382 0.1991 0.65565 0.0
C370 C 0.33345 0.11646 0.70265 0.0
C371 C 0.33114 0.08411 0.68867 0.0
C372 C 0.35347 0.16001 0.66765 0.0
C373 C 0.34058 0.09109 0.66427 0.0
C374 C 0.3551 0.19926 0.6313 0.0
C375 C 0.39016 0.27177 0.65816 0.0
N376 N 0.35095 0.12812 0.65449 0.0
N377 N 0.38122 0.23529 0.6683 0.0
H378 H 0.68603 0.14493 0.66396 0.0
H379 H 0.90083 0.18002 0.71075 0.0
H380 H 0.75123 0.09093 0.6305 0.0
H381 H 0.85825 0.26442 0.72829 0.0
H382 H 0.84081 0.14099 0.68515 0.0
H383 H 0.74507 0.18503 0.69047 0.0
C384 C 0.71289 0.14184 0.662 0.0
C385 C 0.71365 0.11448 0.64501 0.0
C386 C 0.84451 0.16796 0.69468 0.0
C387 C 0.78072 0.15947 0.67556 0.0
C388 C 0.87859 0.19006 0.7095 0.0
C389 C 0.88471 0.2257 0.72162 0.0
C390 C 0.81607 0.18128 0.69209 0.0
C391 C 0.85483 0.23722 0.71921 0.0
C392 C 0.74647 0.16461 0.67718 0.0
C393 C 0.74925 0.11167 0.64329 0.0
N394 N 0.82178 0.2151 0.70466 0.0
N395 N 0.78117 0.13356 0.65853 0.0
H396 H 0.41526 0.11585 0.12452 0.0
H397 H 0.265 0.14993 0.21001 0.0
H398 H 0.28497 0.05929 0.11166 0.0
H399 H 0.39534 0.23697 0.20607 0.0
H400 H 0.27191 0.1094 0.17777 0.0
H401 H 0.40858 0.15316 0.15887 0.0
C402 C 0.38523 0.11094 0.12909 0.0
C403 C 0.35065 0.08466 0.11518 0.0
C404 C 0.29896 0.13742 0.18396 0.0
C405 C 0.34282 0.12699 0.15427 0.0
C406 C 0.29505 0.16054 0.20235 0.0
C407 C 0.3296 0.19699 0.21064 0.0
C408 C 0.33779 0.1505 0.17404 0.0
C409 C 0.36782 0.20924 0.20009 0.0
C410 C 0.38149 0.13241 0.14855 0.0
C411 C 0.31248 0.07952 0.1218 0.0
N412 N 0.37094 0.18594 0.1824 0.0
N413 N 0.30958 0.10047 0.14087 0.0
H414 H 0.89721 0.27283 0.1381 0.0
H415 H 0.70641 0.06896 0.19283 0.0
H416 H 0.80055 0.17661 0.09514 0.0
H417 H 0.81354 0.15439 0.23379 0.0
H418 H 0.73846 0.10994 0.15711 0.0
H419 H 0.86434 0.23237 0.17387 0.0
C420 C 0.86892 0.24338 0.1362 0.0
C421 C 0.85166 0.22805 0.11359 0.0
C422 C 0.75499 0.11962 0.17391 0.0
C423 C 0.81403 0.1815 0.15441 0.0
C424 C 0.73673 0.0962 0.1943 0.0
C425 C 0.75731 0.10824 0.21634 0.0
C426 C 0.79397 0.15551 0.1756 0.0
C427 C 0.79655 0.14386 0.21718 0.0
C428 C 0.85029 0.22018 0.15661 0.0
C429 C 0.81504 0.18959 0.1122 0.0
N430 N 0.81351 0.16632 0.19713 0.0
N431 N 0.79747 0.16765 0.13231 0.0
H432 H 0.88394 0.63317 0.2084 0.0
H433 H 0.73986 0.7131 0.15524 0.0
H434 H 0.85815 0.7189 0.24551 0.0
H435 H 0.75482 0.61692 0.12237 0.0
H436 H 0.78501 0.71761 0.18781 0.0
H437 H 0.8397 0.6298 0.17562 0.0
C438 C 0.86924 0.65154 0.20959 0.0
C439 C 0.87471 0.67629 0.22977 0.0
C440 C 0.77829 0.69542 0.17351 0.0
C441 C 0.82374 0.67232 0.19236 0.0
C442 C 0.75243 0.69276 0.15493 0.0
C443 C 0.74351 0.66459 0.13603 0.0
C444 C 0.79556 0.66988 0.17315 0.0
C445 C 0.76076 0.63906 0.13657 0.0
C446 C 0.8438 0.64943 0.19091 0.0
C447 C 0.85477 0.69934 0.23033 0.0
N448 N 0.78605 0.64243 0.15477 0.0
N449 N 0.83012 0.69673 0.21193 0.0
H450 H 0.58442 0.83924 0.85769 0.0
H451 H 0.7259 0.77951 0.78059 0.0
H452 H 0.71654 0.90316 0.86445 0.0
H453 H 0.60089 0.74193 0.7617 0.0
H454 H 0.72149 0.81895 0.81449 0.0
H455 H 0.58847 0.7976 0.82509 0.0
C456 C 0.61427 0.84458 0.85229 0.0
C457 C 0.65019 0.87483 0.86375 0.0
C458 C 0.69505 0.80197 0.80292 0.0
C459 C 0.65502 0.82702 0.82666 0.0
C460 C 0.69748 0.77931 0.78367 0.0
C461 C 0.66379 0.75758 0.76825 0.0
C462 C 0.65852 0.80246 0.80688 0.0
C463 C 0.62773 0.75846 0.77304 0.0
C464 C 0.61657 0.82082 0.83369 0.0
C465 C 0.68806 0.88035 0.85603 0.0
N466 N 0.62604 0.78049 0.79192 0.0
N467 N 0.68947 0.85656 0.83802 0.0
H468 H 0.07564 0.75491 0.86011 0.0
H469 H 0.29672 0.93624 0.81752 0.0
H470 H 0.18734 0.79812 0.9008 0.0
H471 H 0.18463 0.89786 0.77815 0.0
H472 H 0.25693 0.88574 0.84823 0.0
H473 H 0.11512 0.80571 0.8293 0.0
C474 C 0.1085 0.77478 0.86247 0.0
C475 C 0.12818 0.77229 0.8831 0.0
C476 C 0.24099 0.88848 0.83293 0.0
C477 C 0.17346 0.83078 0.84806 0.0
C478 C 0.26369 0.91748 0.81543 0.0
C479 C 0.24403 0.92129 0.79518 0.0
C480 C 0.19827 0.86293 0.83018 0.0
C481 C 0.20112 0.89604 0.79345 0.0
C482 C 0.13099 0.80395 0.84494 0.0
C483 C 0.17082 0.79896 0.88523 0.0
N484 N 0.17972 0.8678 0.81065 0.0
N485 N 0.19196 0.82712 0.86798 0.0
H486 H 0.22509 0.30393 0.87776 0.0
H487 H 0.06284 0.36213 0.82719 0.0
H488 H 0.19073 0.38242 0.91587 0.0
H489 H 0.08138 0.26661 0.79672 0.0
H490 H 0.11181 0.37268 0.85889 0.0
H491 H 0.17595 0.29385 0.84638 0.0
C492 C 0.20747 0.31934 0.87945 0.0
C493 C 0.212 0.34402 0.89951 0.0
C494 C 0.10497 0.34927 0.84533 0.0
C495 C 0.15542 0.33233 0.86369 0.0
C496 C 0.07694 0.34315 0.82725 0.0
C497 C 0.068 0.31347 0.80924 0.0
C498 C 0.12445 0.32578 0.84529 0.0
C499 C 0.08726 0.28982 0.81024 0.0
C500 C 0.17922 0.31335 0.86158 0.0
C501 C 0.18821 0.36308 0.90074 0.0
N502 N 0.11473 0.29666 0.82786 0.0
N503 N 0.16092 0.3568 0.88309 0.0
H504 H 0.1119 0.49952 0.42887 0.0
H505 H 0.97038 0.50246 0.53442 0.0
H506 H 0.00739 0.38901 0.45657 0.0
H507 H 0.08964 0.60674 0.51761 0.0
H508 H 0.98037 0.46165 0.50362 0.0
H509 H 0.10215 0.54031 0.45967 0.0
C510 C 0.08713 0.48376 0.44156 0.0
C511 C 0.06046 0.44076 0.44013 0.0
C512 C 0.00429 0.4935 0.50666 0.0
C513 C 0.04871 0.48739 0.47521 0.0
C514 C -0.00153 0.51691 0.5241 0.0
C515 C 0.02926 0.55806 0.52863 0.0
C516 C 0.041 0.51149 0.49352 0.0
C517 C 0.06514 0.57509 0.51479 0.0
C518 C 0.08151 0.5071 0.45911 0.0
C519 C 0.02882 0.42205 0.45705 0.0
N520 N 0.07001 0.55175 0.49788 0.0
N521 N 0.02365 0.44551 0.47377 0.0
H522 H 0.49918 0.57845 0.45198 0.0
H523 H 0.50356 0.45343 0.56614 0.0
H524 H 0.61073 0.5995 0.4861 0.0
H525 H 0.39209 0.4261 0.52929 0.0
H526 H 0.54316 0.50787 0.53735 0.0
H527 H 0.45923 0.52467 0.48116 0.0
C528 C 0.5153 0.5721 0.46575 0.0
C529 C 0.55843 0.5935 0.46654 0.0
C530 C 0.51005 0.48989 0.53548 0.0
C531 C 0.51281 0.53159 0.49985 0.0
C532 C 0.48739 0.45865 0.55188 0.0
C533 C 0.44439 0.43515 0.55015 0.0
C534 C 0.48963 0.49789 0.51722 0.0
C535 C 0.42518 0.44338 0.53129 0.0
C536 C 0.49244 0.54118 0.48232 0.0
C537 C 0.57757 0.5838 0.48476 0.0
N538 N 0.44793 0.4742 0.51562 0.0
N539 N 0.55465 0.55348 0.50062 0.0
H540 H 0.52049 0.06013 0.5823 0.0
H541 H 0.40666 0.94819 0.46037 0.0
H542 H 0.55826 0.99157 0.53708 0.0
H543 H 0.38102 0.03219 0.49964 0.0
H544 H 0.45936 0.96022 0.48975 0.0
H545 H 0.46743 0.04811 0.55314 0.0
C546 C 0.51785 0.04281 0.56616 0.0
C547 C 0.54387 0.02681 0.56215 0.0
C548 C 0.44214 0.97594 0.49198 0.0
C549 C 0.48281 0.01251 0.52882 0.0
C550 C 0.41182 0.96889 0.47529 0.0
C551 C 0.38939 0.98928 0.47751 0.0
C552 C 0.45003 0.00345 0.51113 0.0
C553 C 0.39758 0.01584 0.49719 0.0
C554 C 0.48745 0.03587 0.54954 0.0
C555 C 0.53896 0.00457 0.54091 0.0
N556 N 0.42728 0.02221 0.51321 0.0
N557 N 0.50887 -0.00211 0.52511 0.0
H558 H 0.2506 0.88554 0.08301 0.0
H559 H 0.10052 0.81753 0.97001 0.0
H560 H 0.26497 0.96396 0.02329 0.0
H561 H 0.08801 0.73224 0.02526 0.0
H562 H 0.15423 0.87411 0.99328 0.0
H563 H 0.18523 0.83143 0.06577 0.0
C564 C 0.23986 0.8915 0.06642 0.0
C565 C 0.26349 0.92903 0.05438 0.0
C566 C 0.13959 0.84313 0.00049 0.0
C567 C 0.18904 0.86771 0.03475 0.0
C568 C 0.10884 0.81078 0.9872 0.0
C569 C 0.09021 0.77008 0.99558 0.0
C570 C 0.15227 0.83477 0.02225 0.0
C571 C 0.1018 0.7632 0.01811 0.0
C572 C 0.20262 0.86066 0.05661 0.0
C573 C 0.2481 0.93527 0.03302 0.0
N574 N 0.13259 0.79523 0.03057 0.0
N575 N 0.21204 0.90488 0.02387 0.0
H576 H 0.97352 0.19546 0.035 0.0
H577 H 0.21551 0.31766 0.01293 0.0
H578 H 0.05824 0.31622 0.06448 0.0
H579 H 0.12992 0.20742 0.97376 0.0
H580 H 0.15961 0.30906 0.03858 0.0
H581 H 0.03178 0.19128 0.01925 0.0
C582 C 0.00438 0.22077 0.03854 0.0
C583 C 0.01106 0.25654 0.05075 0.0
C584 C 0.1531 0.28649 0.02454 0.0
C585 C 0.07765 0.25198 0.03273 0.0
C586 C 0.18501 0.29135 0.00987 0.0
C587 C 0.17721 0.26362 0.99088 0.0
C588 C 0.113 0.25375 0.02017 0.0
C589 C 0.13721 0.2298 0.98801 0.0
C590 C 0.03759 0.21841 0.02946 0.0
C591 C 0.05167 0.28831 0.05487 0.0
N592 N 0.10642 0.2261 0.00232 0.0
N593 N 0.0834 0.28546 0.04567 0.0
H594 H 0.8027 0.79257 0.03691 0.0
H595 H 0.67758 0.89663 0.98904 0.0
H596 H 0.6785 0.75532 0.05746 0.0
H597 H 0.79772 0.92839 0.96307 0.0
H598 H 0.68284 0.85338 0.01936 0.0
H599 H 0.80678 0.85101 0.01527 0.0
C600 C 0.77656 0.79709 0.03724 0.0
C601 C 0.73997 0.76869 0.0487 0.0
C602 C 0.70824 0.87004 0.00718 0.0
C603 C 0.74436 0.83518 0.02388 0.0
C604 C 0.70524 0.89473 0.98981 0.0
C605 C 0.73701 0.91564 0.97324 0.0
C606 C 0.74313 0.86589 0.00795 0.0
C607 C 0.77234 0.91247 0.97535 0.0
C608 C 0.77886 0.83035 0.0248 0.0
C609 C 0.70712 0.77612 0.04859 0.0
N610 N 0.77426 0.8876 0.99222 0.0
N611 N 0.70996 0.80837 0.03615 0.0
H612 H 0.70988 0.11329 0.92931 0.0
H613 H 0.94107 0.25664 0.97444 0.0
H614 H 0.8043 0.08169 0.92022 0.0
H615 H 0.83625 0.25462 0.00677 0.0
H616 H 0.89536 0.20654 0.94435 0.0
H617 H 0.76093 0.17957 0.94708 0.0
C618 C 0.74152 0.12068 0.93052 0.0
C619 C 0.75278 0.09168 0.9237 0.0
C620 C 0.8826 0.21767 0.95782 0.0
C621 C 0.81105 0.16723 0.94393 0.0
C622 C 0.90858 0.24628 0.97493 0.0
C623 C 0.89222 0.25923 0.99328 0.0
C624 C 0.84019 0.20253 0.95896 0.0
C625 C 0.84996 0.24489 0.9931 0.0
C626 C 0.77052 0.15839 0.94076 0.0
C627 C 0.79423 0.10294 0.92562 0.0
N628 N 0.82531 0.21706 0.97629 0.0
N629 N 0.82185 0.13972 0.93581 0.0
H630 H 0.74273 0.5856 0.01998 0.0
H631 H 0.91991 0.70421 0.92721 0.0
H632 H 0.75368 0.68787 0.97909 0.0
H633 H 0.88036 0.57936 0.94924 0.0
H634 H 0.857 0.69735 0.94399 0.0
H635 H 0.79093 0.58096 0.99283 0.0
C636 C 0.75499 0.60681 0.00513 0.0
C637 C 0.74463 0.63748 0.00193 0.0
C638 C 0.86173 0.67119 0.94475 0.0
C639 C 0.80001 0.63262 0.97094 0.0
C640 C 0.89765 0.67511 0.93521 0.0
C641 C 0.90564 0.64253 0.93717 0.0
C642 C 0.83404 0.63473 0.9567 0.0
C643 C 0.8756 0.60539 0.94751 0.0
C644 C 0.78232 0.60401 0.98957 0.0
C645 C 0.76104 0.66389 0.98227 0.0
N646 N 0.84146 0.60277 0.95732 0.0
N647 N 0.7885 0.66132 0.96773 0.0
H648 H 0.28778 0.20611 0.93704 0.0
H649 H 0.42915 0.15671 0.01522 0.0
H650 H 0.41254 0.29943 0.95451 0.0
H651 H 0.32893 0.06215 0.97346 0.0
H652 H 0.42489 0.20965 0.9923 0.0
H653 H 0.30288 0.15258 0.94892 0.0
C654 C 0.31854 0.21527 0.94302 0.0
C655 C 0.34884 0.25723 0.94507 0.0
C656 C 0.40428 0.17733 0.98789 0.0
C657 C 0.36608 0.19632 0.95904 0.0
C658 C 0.40657 0.14712 0.00104 0.0
C659 C 0.37903 0.10504 0.9964 0.0
C660 C 0.3737 0.16531 0.97034 0.0
C661 C 0.35062 0.09429 0.97769 0.0
C662 C 0.32716 0.18473 0.94974 0.0
C663 C 0.38825 0.26743 0.95276 0.0
N664 N 0.34818 0.12426 0.9656 0.0
N665 N 0.39554 0.23718 0.95992 0.0
H666 H 0.91764 0.21808 0.39532 0.0
H667 H 0.72784 0.15303 0.31357 0.0
H668 H 0.87497 0.30286 0.38037 0.0
H669 H 0.73505 0.0634 0.35804 0.0
H670 H 0.78153 0.20868 0.33785 0.0
H671 H 0.85108 0.16053 0.38215 0.0
C672 C 0.89401 0.22446 0.38961 0.0
C673 C 0.90184 0.26523 0.3887 0.0
C674 C 0.77081 0.17682 0.34257 0.0
C675 C 0.82622 0.19989 0.3733 0.0
C676 C 0.74035 0.14512 0.32868 0.0
C677 C 0.72732 0.10369 0.33375 0.0
C678 C 0.78907 0.16698 0.36123 0.0
C679 C 0.74431 0.09501 0.35356 0.0
C680 C 0.85605 0.19165 0.38221 0.0
C681 C 0.87018 0.27186 0.38129 0.0
N682 N 0.775 0.12647 0.36633 0.0
N683 N 0.83396 0.23956 0.3734 0.0
H684 H 0.78255 0.53437 0.31216 0.0
H685 H 0.71897 0.66387 0.39718 0.0
H686 H 0.86817 0.65486 0.34165 0.0
H687 H 0.63337 0.53956 0.37282 0.0
H688 H 0.77525 0.6574 0.38072 0.0
H689 H 0.72875 0.53188 0.33774 0.0
C690 C 0.79016 0.56007 0.32419 0.0
C691 C 0.82974 0.59514 0.32451 0.0
C692 C 0.74423 0.63131 0.37919 0.0
C693 C 0.76843 0.59258 0.3537 0.0
C694 C 0.71207 0.63501 0.38859 0.0
C695 C 0.6714 0.6024 0.38609 0.0
C696 C 0.73566 0.59491 0.36693 0.0
C697 C 0.66428 0.56558 0.37501 0.0
C698 C 0.75945 0.55864 0.33879 0.0
C699 C 0.83795 0.62742 0.34056 0.0
N700 N 0.69607 0.56302 0.36553 0.0
N701 N 0.80747 0.62553 0.35431 0.0
H702 H 0.34429 0.25674 0.35889 0.0
H703 H 0.44226 0.11555 0.38479 0.0
H704 H 0.42652 0.24403 0.31068 0.0
H705 H 0.32242 0.08594 0.41013 0.0
H706 H 0.45044 0.17855 0.36678 0.0
H707 H 0.35011 0.2096 0.38672 0.0
C708 C 0.36431 0.24481 0.35445 0.0
C709 C 0.38467 0.25381 0.33243 0.0
C710 C 0.42269 0.15855 0.37664 0.0
C711 C 0.39163 0.20058 0.36404 0.0
C712 C 0.41802 0.12271 0.387 0.0
C713 C 0.38133 0.09522 0.39866 0.0
C714 C 0.39069 0.16716 0.37826 0.0
C715 C 0.35096 0.10607 0.40099 0.0
C716 C 0.36741 0.21784 0.37023 0.0
C717 C 0.41 0.23741 0.3274 0.0
N718 N 0.35618 0.14113 0.3907 0.0
N719 N 0.41264 0.2114 0.34305 0.0
H720 H 0.48841 0.5872 0.34871 0.0
H721 H 0.46734 0.41454 0.26051 0.0
H722 H 0.59326 0.59648 0.31196 0.0
H723 H 0.36585 0.43323 0.27603 0.0
H724 H 0.5146 0.48333 0.27691 0.0
H725 H 0.44308 0.53313 0.32052 0.0
C726 C 0.50187 0.5782 0.3345 0.0
C727 C 0.54457 0.59591 0.33281 0.0
C728 C 0.48207 0.47272 0.27628 0.0
C729 C 0.49298 0.53379 0.30072 0.0
C730 C 0.45508 0.43343 0.26697 0.0
C731 C 0.41258 0.41793 0.26727 0.0
C732 C 0.46631 0.49623 0.28636 0.0
C733 C 0.39837 0.44383 0.27564 0.0
C734 C 0.47601 0.54749 0.31834 0.0
C735 C 0.56046 0.58344 0.31394 0.0
N736 N 0.42513 0.48141 0.28532 0.0
N737 N 0.53461 0.55253 0.29887 0.0
H738 H 0.51799 0.9124 0.28565 0.0
H739 H 0.39136 0.02205 0.32262 0.0
H740 H 0.55511 0.03851 0.2678 0.0
H741 H 0.38345 0.91736 0.35932 0.0
H742 H 0.43859 0.01882 0.29387 0.0
H743 H 0.45534 0.90445 0.30359 0.0
C744 C 0.51258 0.93814 0.28503 0.0
C745 C 0.54213 0.97644 0.27562 0.0
C746 C 0.42605 -0.00373 0.30805 0.0
C747 C 0.47074 0.96751 0.29612 0.0
C748 C 0.39908 -0.00198 0.32443 0.0
C749 C 0.38401 0.97031 0.34358 0.0
C750 C 0.43759 0.96633 0.31074 0.0
C751 C 0.39489 0.93972 0.34502 0.0
C752 C 0.47694 0.93362 0.29539 0.0
C753 C 0.53341 0.00866 0.27522 0.0
N754 N 0.42125 0.93871 0.3289 0.0
N755 N 0.49866 0.00361 0.28559 0.0
H756 H 0.92333 0.5206 0.27597 0.0
H757 H 0.067 0.45456 0.34054 0.0
H758 H 0.05387 0.60325 0.28481 0.0
H759 H 0.94545 0.36608 0.31482 0.0
H760 H 0.06422 0.50873 0.31815 0.0
H761 H 0.93178 0.46276 0.28774 0.0
C762 C 0.95387 0.52649 0.28009 0.0
C763 C 0.98789 0.56686 0.27971 0.0
C764 C 0.03837 0.47736 0.31714 0.0
C765 C -0.00231 0.50091 0.29348 0.0
C766 C 0.03989 0.44644 0.32998 0.0
C767 C 0.0062 0.40585 0.32977 0.0
C768 C 0.00268 0.46776 0.30428 0.0
C769 C 0.97203 0.39701 0.31561 0.0
C770 C 0.95868 0.49344 0.28677 0.0
C771 C 0.02677 0.57265 0.28501 0.0
N772 N 0.9709 0.42786 0.30369 0.0
N773 N 0.03054 0.54011 0.29205 0.0
H774 H 0.39163 0.39319 0.69164 0.0
H775 H 0.56627 0.63167 0.68728 0.0
H776 H 0.40655 0.47744 0.63523 0.0
H777 H 0.56603 0.54647 0.73883 0.0
H778 H 0.49892 0.57813 0.67342 0.0
H779 H 0.44621 0.45148 0.71437 0.0
C780 C 0.4057 0.42408 0.68432 0.0
C781 C 0.39508 0.43058 0.66143 0.0
C782 C 0.51335 0.5711 0.68788 0.0
C783 C 0.45726 0.4969 0.68709 0.0
C784 C 0.55193 0.60168 0.69578 0.0
C785 C 0.57213 0.59324 0.71393 0.0
C786 C 0.49483 0.53152 0.69799 0.0
C787 C 0.55167 0.55408 0.7246 0.0
C788 C 0.43697 0.45721 0.6972 0.0
C789 C 0.41427 0.47106 0.65268 0.0
N790 N 0.51426 0.52436 0.71623 0.0
N791 N 0.44466 0.50259 0.66542 0.0
H792 H 0.4886 0.88125 0.6447 0.0
H793 H 0.40908 0.99333 0.73173 0.0
H794 H 0.56376 0.00616 0.67157 0.0
H795 H 0.33444 0.86545 0.70985 0.0
H796 H 0.46934 0.99422 0.7154 0.0
H797 H 0.43525 0.87053 0.67343 0.0
C798 C 0.49415 0.9062 0.65686 0.0
C799 C 0.53032 0.94492 0.65542 0.0
C800 C 0.43995 0.9657 0.71446 0.0
C801 C 0.4695 0.93294 0.6882 0.0
C802 C 0.40554 0.96521 0.72381 0.0
C803 C 0.36669 0.92948 0.72176 0.0
C804 C 0.43537 0.93043 0.70258 0.0
C805 C 0.36385 0.89375 0.71162 0.0
C806 C 0.46369 0.90006 0.67326 0.0
C807 C 0.53604 0.97602 0.67175 0.0
N808 N 0.39767 0.89534 0.70196 0.0
N809 N 0.50574 0.96952 0.68723 0.0
H810 H -0.00463 0.39246 0.72884 0.0
H811 H 0.11114 0.57299 0.63361 0.0
H812 H 0.11835 0.43373 0.7039 0.0
H813 H 0.98406 0.52081 0.65388 0.0
H814 H 0.1184 0.53 0.66368 0.0
H815 H -0.00468 0.44788 0.70644 0.0
C816 C 0.0226 0.41353 0.71889 0.0
C817 C 0.0567 0.4081 0.71795 0.0
C818 C 0.08905 0.52825 0.66164 0.0
C819 C 0.05666 0.4714 0.69201 0.0
C820 C 0.08487 0.55274 0.64449 0.0
C821 C 0.0468 0.55007 0.64103 0.0
C822 C 0.05493 0.50108 0.67545 0.0
C823 C 0.01386 0.5235 0.65571 0.0
C824 C 0.02251 0.44513 0.70604 0.0
C825 C 0.09128 0.43661 0.70496 0.0
N826 N 0.01864 0.4999 0.67216 0.0
N827 N 0.09019 0.46677 0.69223 0.0
H828 H 0.17471 0.90329 0.67607 0.0
H829 H 0.11732 0.71156 0.5914 0.0
H830 H 0.26534 0.87841 0.64583 0.0
H831 H 0.0332 0.75479 0.6066 0.0
H832 H 0.17302 0.77519 0.60892 0.0
H833 H 0.12322 0.85168 0.64898 0.0
C834 C 0.18385 0.8872 0.6636 0.0
C835 C 0.22424 0.89475 0.66341 0.0
C836 C 0.14253 0.77111 0.6081 0.0
C837 C 0.16548 0.8356 0.63246 0.0
C838 C 0.11072 0.73477 0.59811 0.0
C839 C 0.07053 0.72773 0.59783 0.0
C840 C 0.13395 0.80029 0.61824 0.0
C841 C 0.06372 0.75893 0.60657 0.0
C842 C 0.15449 0.85788 0.64807 0.0
C843 C 0.23449 0.87334 0.64672 0.0
N844 N 0.09502 0.79361 0.61681 0.0
N845 N 0.20515 0.84434 0.63212 0.0
H846 H 0.05934 0.31692 0.64984 0.0
H847 H 0.20663 0.22678 0.62167 0.0
H848 H 0.07254 0.23199 0.69541 0.0
H849 H 0.22755 0.3435 0.59459 0.0
H850 H 0.14306 0.2153 0.64013 0.0
H851 H 0.10735 0.314 0.62148 0.0
C852 C 0.07183 0.29717 0.65369 0.0
C853 C 0.06246 0.27508 0.67513 0.0
C854 C 0.16128 0.24308 0.6298 0.0
C855 C 0.11678 0.27134 0.64278 0.0
C856 C 0.19745 0.24959 0.61915 0.0
C857 C 0.2228 0.28654 0.60696 0.0
C858 C 0.15027 0.27354 0.62805 0.0
C859 C 0.20921 0.31488 0.60417 0.0
C860 C 0.09922 0.29561 0.63755 0.0
C861 C 0.07944 0.24995 0.67924 0.0
N862 N 0.17402 0.308 0.61489 0.0
N863 N 0.10596 0.24891 0.66326 0.0
H864 H 0.74625 0.81671 0.6679 0.0
H865 H 0.62193 0.89016 0.58963 0.0
H866 H 0.634 0.73185 0.63079 0.0
H867 H 0.74634 0.97265 0.61353 0.0
H868 H 0.62905 0.83117 0.6005 0.0
H869 H 0.75041 0.87353 0.64466 0.0
C870 C 0.72272 0.80996 0.65466 0.0
C871 C 0.68935 0.76961 0.65156 0.0
C872 C 0.65507 0.86215 0.60299 0.0
C873 C 0.69374 0.83452 0.62503 0.0
C874 C 0.651 0.89585 0.59679 0.0
C875 C 0.68335 0.93637 0.60109 0.0
C876 C 0.6915 0.86904 0.6139 0.0
C877 C 0.72046 0.94193 0.61015 0.0
C878 C 0.72519 0.8424 0.64133 0.0
C879 C 0.66004 0.76256 0.63395 0.0
N880 N 0.72327 0.90862 0.61668 0.0
N881 N 0.66256 0.79482 0.62161 0.0
loop_
_geom_bond_atom_site_label_1
_geom_bond_atom_site_label_2
_geom_bond_distance
_geom_bond_site_symmetry_2
_ccdc_geom_bond_type
C0 O1 1.160 . S
C0 O7 1.185 . S
O1 C0 1.160 . S
O2 Zn3 1.899 . S
O2 C10 1.284 . S
Zn3 O2 1.899 . S
Zn3 O4 2.032 1_545 S
Zn3 O7 2.086 . S
Zn3 O12 1.977 . S
O4 Zn3 2.032 1_565 S
O4 C8 1.278 . S
C5 O6 1.203 . S
C5 O12 1.267 . S
O6 C5 1.203 . S
O7 C0 1.185 . S
O7 Zn3 2.086 . S
C8 O4 1.278 . S
C8 O9 1.211 . S
O9 C8 1.211 . S
C10 O2 1.284 . S
C10 O11 1.273 . S
O11 C10 1.273 . S
O12 Zn3 1.977 . S
O12 C5 1.267 . S
C13 O14 1.160 . S
C13 O20 1.185 . S
O14 C13 1.160 . S
O15 Zn16 1.899 1_455 S
O15 C23 1.284 . S
Zn16 O15 1.899 1_655 S
Zn16 O17 2.032 . S
Zn16 O20 2.086 . S
Zn16 O25 1.977 . S
O17 Zn16 2.032 . S
O17 C21 1.278 . S
C18 O19 1.203 1_655 S
C18 O25 1.267 . S
O19 C18 1.203 1_455 S
O20 C13 1.185 . S
O20 Zn16 2.086 . S
C21 O17 1.278 . S
C21 O22 1.211 . S
O22 C21 1.211 . S
C23 O15 1.284 . S
C23 O24 1.273 . S
O24 C23 1.273 . S
O25 Zn16 1.977 . S
O25 C18 1.267 . S
C26 O27 1.160 . S
C26 O33 1.185 . S
O27 C26 1.160 . S
O28 Zn29 1.899 . S
O28 C36 1.284 . S
Zn29 O28 1.899 . S
Zn29 O30 2.032 . S
Zn29 O33 2.086 . S
Zn29 O38 1.977 . S
O30 Zn29 2.032 . S
O30 C34 1.278 . S
C31 O32 1.203 . S
C31 O38 1.267 . S
O32 C31 1.203 . S
O33 C26 1.185 . S
O33 Zn29 2.086 . S
C34 O30 1.278 . S
C34 O35 1.211 . S
O35 C34 1.211 . S
C36 O28 1.284 . S
C36 O37 1.273 . S
O37 C36 1.273 . S
O38 Zn29 1.977 . S
O38 C31 1.267 . S
C39 O40 1.160 . S
C39 O46 1.185 . S
O40 C39 1.160 . S
O41 Zn42 1.899 . S
O41 C49 1.284 . S
Zn42 O41 1.899 . S
Zn42 O43 2.032 . S
Zn42 O46 2.086 . S
Zn42 O51 1.977 1_565 S
O43 Zn42 2.032 . S
O43 C47 1.278 . S
C44 O45 1.203 . S
C44 O51 1.267 . S
O45 C44 1.203 . S
O46 C39 1.185 . S
O46 Zn42 2.086 . S
C47 O43 1.278 . S
C47 O48 1.211 . S
O48 C47 1.211 . S
C49 O41 1.284 . S
C49 O50 1.273 . S
O50 C49 1.273 . S
O51 Zn42 1.977 1_545 S
O51 C44 1.267 . S
C52 O53 1.160 . S
C52 O59 1.185 . S
O53 C52 1.160 . S
O54 Zn55 1.899 . S
O54 C62 1.284 . S
Zn55 O54 1.899 . S
Zn55 O56 2.032 . S
Zn55 O59 2.086 . S
Zn55 O64 1.977 1_455 S
O56 Zn55 2.032 . S
O56 C60 1.278 . S
C57 O58 1.203 . S
C57 O64 1.267 . S
O58 C57 1.203 . S
O59 C52 1.185 . S
O59 Zn55 2.086 . S
C60 O56 1.278 . S
C60 O61 1.211 . S
O61 C60 1.211 . S
C62 O54 1.284 . S
C62 O63 1.273 . S
O63 C62 1.273 . S
O64 Zn55 1.977 1_655 S
O64 C57 1.267 . S
C65 O66 1.160 . S
C65 O72 1.185 . S
O66 C65 1.160 . S
O67 Zn68 1.899 . S
O67 C75 1.284 . S
Zn68 O67 1.899 . S
Zn68 O69 2.032 . S
Zn68 O72 2.086 . S
Zn68 O77 1.977 . S
O69 Zn68 2.032 . S
O69 C73 1.278 . S
C70 O71 1.203 . S
C70 O77 1.267 . S
O71 C70 1.203 . S
O72 C65 1.185 . S
O72 Zn68 2.086 . S
C73 O69 1.278 . S
C73 O74 1.211 . S
O74 C73 1.211 . S
C75 O67 1.284 . S
C75 O76 1.273 . S
O76 C75 1.273 . S
O77 Zn68 1.977 . S
O77 C70 1.267 . S
C78 O79 1.160 . S
C78 O85 1.185 . S
O79 C78 1.160 . S
O80 Zn81 1.899 . S
O80 C88 1.284 1_455 S
Zn81 O80 1.899 . S
Zn81 O82 2.032 1_455 S
Zn81 O85 2.086 . S
Zn81 O90 1.977 . S
O82 Zn81 2.032 1_655 S
O82 C86 1.278 . S
C83 O84 1.203 . S
C83 O90 1.267 1_655 S
O84 C83 1.203 . S
O85 C78 1.185 . S
O85 Zn81 2.086 . S
C86 O82 1.278 . S
C86 O87 1.211 . S
O87 C86 1.211 . S
C88 O80 1.284 1_655 S
C88 O89 1.273 . S
O89 C88 1.273 . S
O90 Zn81 1.977 . S
O90 C83 1.267 1_455 S
C91 O92 1.160 . S
C91 O98 1.185 . S
O92 C91 1.160 . S
O93 Zn94 1.899 . S
O93 C101 1.284 . S
Zn94 O93 1.899 . S
Zn94 O95 2.032 . S
Zn94 O98 2.086 . S
Zn94 O103 1.977 . S
O95 Zn94 2.032 . S
O95 C99 1.278 . S
C96 O97 1.203 . S
C96 O103 1.267 . S
O97 C96 1.203 . S
O98 C91 1.185 . S
O98 Zn94 2.086 . S
C99 O95 1.278 . S
C99 O100 1.211 . S
O100 C99 1.211 . S
C101 O93 1.284 . S
C101 O102 1.273 . S
O102 C101 1.273 . S
O103 Zn94 1.977 . S
O103 C96 1.267 . S
C104 O105 1.160 . S
C104 O111 1.185 1_545 S
O105 C104 1.160 . S
O106 Zn107 1.899 1_545 S
O106 C114 1.284 . S
Zn107 O106 1.899 1_565 S
Zn107 O108 2.032 1_565 S
Zn107 O111 2.086 . S
Zn107 O116 1.977 . S
O108 Zn107 2.032 1_545 S
O108 C112 1.278 1_545 S
C109 O110 1.203 . S
C109 O116 1.267 . S
O110 C109 1.203 . S
O111 C104 1.185 1_565 S
O111 Zn107 2.086 . S
C112 O108 1.278 1_565 S
C112 O113 1.211 . S
O113 C112 1.211 . S
C114 O106 1.284 . S
C114 O115 1.273 . S
O115 C114 1.273 . S
O116 Zn107 1.977 . S
O116 C109 1.267 . S
C117 O118 1.160 . S
C117 O124 1.185 . S
O118 C117 1.160 . S
O119 Zn120 1.899 . S
O119 C127 1.284 . S
Zn120 O119 1.899 . S
Zn120 O121 2.032 . S
Zn120 O124 2.086 . S
Zn120 O129 1.977 . S
O121 Zn120 2.032 . S
O121 C125 1.278 . S
C122 O123 1.203 . S
C122 O129 1.267 . S
O123 C122 1.203 . S
O124 C117 1.185 . S
O124 Zn120 2.086 . S
C125 O121 1.278 . S
C125 O126 1.211 . S
O126 C125 1.211 . S
C127 O119 1.284 . S
C127 O128 1.273 . S
O128 C127 1.273 . S
O129 Zn120 1.977 . S
O129 C122 1.267 . S
C130 O131 1.160 . S
C130 O137 1.185 . S
O131 C130 1.160 . S
O132 Zn133 1.899 1_565 S
O132 C140 1.284 . S
Zn133 O132 1.899 1_545 S
Zn133 O134 2.032 . S
Zn133 O137 2.086 . S
Zn133 O142 1.977 . S
O134 Zn133 2.032 . S
O134 C138 1.278 . S
C135 O136 1.203 1_545 S
C135 O142 1.267 . S
O136 C135 1.203 1_565 S
O137 C130 1.185 . S
O137 Zn133 2.086 . S
C138 O134 1.278 . S
C138 O139 1.211 . S
O139 C138 1.211 . S
C140 O132 1.284 . S
C140 O141 1.273 . S
O141 C140 1.273 . S
O142 Zn133 1.977 . S
O142 C135 1.267 . S
C143 O144 1.160 . S
C143 O150 1.185 . S
O144 C143 1.160 . S
O145 Zn146 1.899 1_455 S
O145 C153 1.284 . S
Zn146 O145 1.899 1_655 S
Zn146 O147 2.032 . S
Zn146 O150 2.086 . S
Zn146 O155 1.977 . S
O147 Zn146 2.032 . S
O147 C151 1.278 . S
C148 O149 1.203 . S
C148 O155 1.267 . S
O149 C148 1.203 . S
O150 C143 1.185 . S
O150 Zn146 2.086 . S
C151 O147 1.278 . S
C151 O152 1.211 . S
O152 C151 1.211 . S
C153 O145 1.284 . S
C153 O154 1.273 . S
O154 C153 1.273 . S
O155 Zn146 1.977 . S
O155 C148 1.267 . S
C156 O157 1.160 . S
C156 O163 1.185 . S
O157 C156 1.160 . S
O158 Zn159 1.899 . S
O158 C166 1.284 . S
Zn159 O158 1.899 . S
Zn159 O160 2.032 . S
Zn159 O163 2.086 . S
Zn159 O168 1.977 . S
O160 Zn159 2.032 . S
O160 C164 1.278 . S
C161 O162 1.203 . S
C161 O168 1.267 . S
O162 C161 1.203 . S
O163 C156 1.185 . S
O163 Zn159 2.086 . S
C164 O160 1.278 . S
C164 O165 1.211 . S
O165 C164 1.211 . S
C166 O158 1.284 . S
C166 O167 1.273 . S
O167 C166 1.273 . S
O168 Zn159 1.977 . S
O168 C161 1.267 . S
C169 O170 1.160 . S
C169 O176 1.185 . S
O170 C169 1.160 . S
O171 Zn172 1.899 . S
O171 C179 1.284 . S
Zn172 O171 1.899 . S
Zn172 O173 2.032 . S
Zn172 O176 2.086 . S
Zn172 O181 1.977 1_565 S
O173 Zn172 2.032 . S
O173 C177 1.278 . S
C174 O175 1.203 . S
C174 O181 1.267 . S
O175 C174 1.203 . S
O176 C169 1.185 . S
O176 Zn172 2.086 . S
C177 O173 1.278 . S
C177 O178 1.211 . S
O178 C177 1.211 . S
C179 O171 1.284 . S
C179 O180 1.273 . S
O180 C179 1.273 . S
O181 Zn172 1.977 1_545 S
O181 C174 1.267 . S
C182 O183 1.160 . S
C182 O189 1.185 . S
O183 C182 1.160 . S
O184 Zn185 1.899 . S
O184 C192 1.284 . S
Zn185 O184 1.899 . S
Zn185 O186 2.032 . S
Zn185 O189 2.086 . S
Zn185 O194 1.977 1_455 S
O186 Zn185 2.032 . S
O186 C190 1.278 . S
C187 O188 1.203 . S
C187 O194 1.267 . S
O188 C187 1.203 . S
O189 C182 1.185 . S
O189 Zn185 2.086 . S
C190 O186 1.278 . S
C190 O191 1.211 . S
O191 C190 1.211 . S
C192 O184 1.284 . S
C192 O193 1.273 . S
O193 C192 1.273 . S
O194 Zn185 1.977 1_655 S
O194 C187 1.267 . S
C195 O196 1.160 . S
C195 O202 1.185 1_655 S
O196 C195 1.160 . S
O197 Zn198 1.899 1_655 S
O197 C205 1.284 . S
Zn198 O197 1.899 1_455 S
Zn198 O199 2.032 1_455 S
Zn198 O202 2.086 . S
Zn198 O207 1.977 . S
O199 Zn198 2.032 1_655 S
O199 C203 1.278 1_655 S
C200 O201 1.203 . S
C200 O207 1.267 . S
O201 C200 1.203 . S
O202 C195 1.185 1_455 S
O202 Zn198 2.086 . S
C203 O199 1.278 1_455 S
C203 O204 1.211 . S
O204 C203 1.211 . S
C205 O197 1.284 . S
C205 O206 1.273 . S
O206 C205 1.273 . S
O207 Zn198 1.977 . S
O207 C200 1.267 . S
C208 O209 1.160 . S
C208 O215 1.185 . S
O209 C208 1.160 . S
O210 Zn211 1.899 . S
O210 C218 1.284 . S
Zn211 O210 1.899 . S
Zn211 O212 2.032 . S
Zn211 O215 2.086 . S
Zn211 O220 1.977 . S
O212 Zn211 2.032 . S
O212 C216 1.278 . S
C213 O214 1.203 . S
C213 O220 1.267 . S
O214 C213 1.203 . S
O215 C208 1.185 . S
O215 Zn211 2.086 . S
C216 O212 1.278 . S
C216 O217 1.211 . S
O217 C216 1.211 . S
C218 O210 1.284 . S
C218 O219 1.273 . S
O219 C218 1.273 . S
O220 Zn211 1.977 . S
O220 C213 1.267 . S
C221 O222 1.160 . S
C221 O228 1.185 1_545 S
O222 C221 1.160 . S
O223 Zn224 1.899 1_545 S
O223 C231 1.284 . S
Zn224 O223 1.899 1_565 S
Zn224 O225 2.032 1_565 S
Zn224 O228 2.086 . S
Zn224 O233 1.977 . S
O225 Zn224 2.032 1_545 S
O225 C229 1.278 1_545 S
C226 O227 1.203 . S
C226 O233 1.267 . S
O227 C226 1.203 . S
O228 C221 1.185 1_565 S
O228 Zn224 2.086 . S
C229 O225 1.278 1_565 S
C229 O230 1.211 . S
O230 C229 1.211 . S
C231 O223 1.284 . S
C231 O232 1.273 . S
O232 C231 1.273 . S
O233 Zn224 1.977 . S
O233 C226 1.267 . S
H234 C240 0.930 . S
H235 C244 0.930 1_545 S
H236 C249 0.929 . S
H237 C247 0.929 . S
H238 C242 0.929 1_554 S
H239 C248 0.929 . S
C240 H234 0.930 . S
C240 C241 1.367 1_565 S
C240 C248 1.378 1_554 S
C241 C240 1.367 1_545 S
C241 C249 1.433 . S
C242 H238 0.929 1_556 S
C242 C244 1.378 1_545 S
C242 C246 1.350 1_545 S
C243 C246 1.447 1_554 S
C243 C248 1.343 1_554 S
C243 N251 1.451 1_565 S
C244 H235 0.930 1_565 S
C244 C242 1.378 1_565 S
C244 C245 1.367 . S
C245 C244 1.367 . S
C245 C247 1.433 . S
C246 C242 1.350 1_565 S
C246 C243 1.447 1_556 S
C246 N250 1.427 . S
C247 H237 0.929 . S
C247 C245 1.433 . S
C247 N250 1.384 . S
C248 H239 0.929 . S
C248 C240 1.378 1_556 S
C248 C243 1.343 1_556 S
C249 H236 0.929 . S
C249 C241 1.433 . S
C249 N251 1.384 . S
N250 C246 1.427 . S
N250 C247 1.384 . S
N251 C243 1.451 1_545 S
N251 C249 1.384 . S
H252 C258 0.930 . S
H253 C262 0.930 . S
H254 C267 0.929 . S
H255 C265 0.929 . S
H256 C260 0.929 . S
H257 C266 0.929 . S
C258 H252 0.930 . S
C258 C259 1.367 . S
C258 C266 1.378 . S
C259 C258 1.367 . S
C259 C267 1.433 1_655 S
C260 H256 0.929 . S
C260 C262 1.378 . S
C260 C264 1.350 . S
C261 C264 1.463 1_654 S
C261 C266 1.350 . S
C261 N269 1.427 1_655 S
C262 H253 0.930 . S
C262 C260 1.378 . S
C262 C263 1.367 . S
C263 C262 1.367 . S
C263 C265 1.433 1_455 S
C264 C260 1.350 . S
C264 C261 1.463 1_456 S
C264 N268 1.427 1_455 S
C265 H255 0.929 . S
C265 C263 1.433 1_655 S
C265 N268 1.384 . S
C266 H257 0.929 . S
C266 C258 1.378 . S
C266 C261 1.350 . S
C267 H254 0.929 . S
C267 C259 1.433 1_455 S
C267 N269 1.384 . S
N268 C264 1.427 1_655 S
N268 C265 1.384 . S
N269 C261 1.427 1_455 S
N269 C267 1.384 . S
H270 C276 0.951 . S
H271 C280 0.930 . S
H272 C285 0.929 . S
H273 C283 0.929 . S
H274 C278 0.929 . S
H275 C284 0.929 . S
C276 H270 0.951 . S
C276 C277 1.367 . S
C276 C284 1.378 1_556 S
C277 C276 1.367 . S
C277 C285 1.433 . S
C278 H274 0.929 . S
C278 C280 1.378 1_556 S
C278 C282 1.350 1_556 S
C279 C282 1.463 1_556 S
C279 C284 1.350 1_556 S
C279 N287 1.427 . S
C280 H271 0.930 . S
C280 C278 1.378 1_554 S
C280 C281 1.367 . S
C281 C280 1.367 . S
C281 C283 1.433 . S
C282 C278 1.350 1_554 S
C282 C279 1.463 1_554 S
C282 N286 1.427 . S
C283 H273 0.929 . S
C283 C281 1.433 . S
C283 N286 1.384 . S
C284 H275 0.929 . S
C284 C276 1.378 1_554 S
C284 C279 1.350 1_554 S
C285 H272 0.929 . S
C285 C277 1.433 . S
C285 N287 1.384 . S
N286 C282 1.427 . S
N286 C283 1.384 . S
N287 C279 1.427 . S
N287 C285 1.384 . S
H288 C294 0.930 . S
H289 C298 0.930 . S
H290 C303 0.929 . S
H291 C301 0.929 . S
H292 C296 0.929 . S
H293 C302 0.929 . S
C294 H288 0.930 . S
C294 C295 1.367 . S
C294 C302 1.378 . S
C295 C294 1.367 . S
C295 C303 1.433 . S
C296 H292 0.929 . S
C296 C298 1.378 . S
C296 C300 1.350 . S
C297 C300 1.463 . S
C297 C302 1.350 . S
C297 N305 1.427 . S
C298 H289 0.930 . S
C298 C296 1.378 . S
C298 C299 1.367 . S
C299 C298 1.367 . S
C299 C301 1.433 . S
C300 C296 1.350 . S
C300 C297 1.463 . S
C300 N304 1.427 . S
C301 H291 0.929 . S
C301 C299 1.433 . S
C301 N304 1.384 . S
C302 H293 0.929 . S
C302 C294 1.378 . S
C302 C297 1.350 . S
C303 H290 0.929 . S
C303 C295 1.433 . S
C303 N305 1.384 . S
N304 C300 1.427 . S
N304 C301 1.384 . S
N305 C297 1.427 . S
N305 C303 1.384 . S
H306 C312 0.930 . S
H307 C316 0.930 . S
H308 C321 0.929 . S
H309 C319 0.929 . S
H310 C314 0.929 . S
H311 C320 0.929 . S
C312 H306 0.930 . S
C312 C313 1.367 . S
C312 C320 1.378 . S
C313 C312 1.367 . S
C313 C321 1.433 . S
C314 H310 0.929 . S
C314 C316 1.378 . S
C314 C318 1.350 . S
C315 C318 1.463 . S
C315 C320 1.350 . S
C315 N323 1.427 . S
C316 H307 0.930 . S
C316 C314 1.378 . S
C316 C317 1.367 . S
C317 C316 1.367 . S
C317 C319 1.433 . S
C318 C314 1.350 . S
C318 C315 1.463 . S
C318 N322 1.427 . S
C319 H309 0.929 . S
C319 C317 1.433 . S
C319 N322 1.384 . S
C320 H311 0.929 . S
C320 C312 1.378 . S
C320 C315 1.350 . S
C321 H308 0.929 . S
C321 C313 1.433 . S
C321 N323 1.384 . S
N322 C318 1.427 . S
N322 C319 1.384 . S
N323 C315 1.427 . S
N323 C321 1.384 . S
H324 C330 0.930 . S
H325 C334 0.930 . S
H326 C339 0.929 . S
H327 C337 0.929 . S
H328 C332 0.929 . S
H329 C338 0.929 . S
C330 H324 0.930 . S
C330 C331 1.367 . S
C330 C338 1.378 . S
C331 C330 1.367 . S
C331 C339 1.433 . S
C332 H328 0.929 . S
C332 C334 1.378 . S
C332 C336 1.350 . S
C333 C336 1.463 . S
C333 C338 1.350 . S
C333 N341 1.427 . S
C334 H325 0.930 . S
C334 C332 1.378 . S
C334 C335 1.367 . S
C335 C334 1.367 . S
C335 C337 1.433 . S
C336 C332 1.350 . S
C336 C333 1.463 . S
C336 N340 1.427 . S
C337 H327 0.929 . S
C337 C335 1.433 . S
C337 N340 1.384 . S
C338 H329 0.929 . S
C338 C330 1.378 . S
C338 C333 1.350 . S
C339 H326 0.929 . S
C339 C331 1.433 . S
C339 N341 1.384 . S
N340 C336 1.427 . S
N340 C337 1.384 . S
N341 C333 1.427 . S
N341 C339 1.384 . S
H342 C348 0.930 . S
H343 C352 0.930 . S
H344 C357 0.929 . S
H345 C355 0.929 . S
H346 C350 0.929 . S
H347 C356 0.929 . S
C348 H342 0.930 . S
C348 C349 1.367 . S
C348 C356 1.378 . S
C349 C348 1.367 . S
C349 C357 1.433 . S
C350 H346 0.929 . S
C350 C352 1.378 . S
C350 C354 1.350 . S
C351 C354 1.463 . S
C351 C356 1.350 . S
C351 N359 1.427 . S
C352 H343 0.930 . S
C352 C350 1.378 . S
C352 C353 1.367 . S
C353 C352 1.367 . S
C353 C355 1.433 . S
C354 C350 1.350 . S
C354 C351 1.463 . S
C354 N358 1.427 . S
C355 H345 0.929 . S
C355 C353 1.433 . S
C355 N358 1.384 . S
C356 H347 0.929 . S
C356 C348 1.378 . S
C356 C351 1.350 . S
C357 H344 0.929 . S
C357 C349 1.433 . S
C357 N359 1.384 . S
N358 C354 1.427 . S
N358 C355 1.384 . S
N359 C351 1.427 . S
N359 C357 1.384 . S
H360 C366 0.930 . S
H361 C370 0.930 . S
H362 C375 0.929 . S
H363 C373 0.929 . S
H364 C368 0.929 . S
H365 C374 0.929 . S
C366 H360 0.930 . S
C366 C367 1.367 . S
C366 C374 1.378 . S
C367 C366 1.367 . S
C367 C375 1.433 . S
C368 H364 0.929 . S
C368 C370 1.378 . S
C368 C372 1.350 . S
C369 C372 1.463 . S
C369 C374 1.350 . S
C369 N377 1.427 . S
C370 H361 0.930 . S
C370 C368 1.378 . S
C370 C371 1.367 . S
C371 C370 1.367 . S
C371 C373 1.433 . S
C372 C368 1.350 . S
C372 C369 1.463 . S
C372 N376 1.427 . S
C373 H363 0.929 . S
C373 C371 1.433 . S
C373 N376 1.384 . S
C374 H365 0.929 . S
C374 C366 1.378 . S
C374 C369 1.350 . S
C375 H362 0.929 . S
C375 C367 1.433 . S
C375 N377 1.384 . S
N376 C372 1.427 . S
N376 C373 1.384 . S
N377 C369 1.427 . S
N377 C375 1.384 . S
H378 C384 0.930 . S
H379 C388 0.930 . S
H380 C393 0.929 . S
H381 C391 0.929 . S
H382 C386 0.929 . S
H383 C392 0.929 . S
C384 H378 0.930 . S
C384 C385 1.367 . S
C384 C392 1.378 . S
C385 C384 1.367 . S
C385 C393 1.433 . S
C386 H382 0.929 . S
C386 C388 1.378 . S
C386 C390 1.350 . S
C387 C390 1.463 . S
C387 C392 1.350 . S
C387 N395 1.427 . S
C388 H379 0.930 . S
C388 C386 1.378 . S
C388 C389 1.367 . S
C389 C388 1.367 . S
C389 C391 1.433 . S
C390 C386 1.350 . S
C390 C387 1.463 . S
C390 N394 1.427 . S
C391 H381 0.929 . S
C391 C389 1.433 . S
C391 N394 1.384 . S
C392 H383 0.929 . S
C392 C384 1.378 . S
C392 C387 1.350 . S
C393 H380 0.929 . S
C393 C385 1.433 . S
C393 N395 1.384 . S
N394 C390 1.427 . S
N394 C391 1.384 . S
N395 C387 1.427 . S
N395 C393 1.384 . S
H396 C402 0.930 . S
H397 C406 0.930 . S
H398 C411 0.929 . S
H399 C409 0.929 . S
H400 C404 0.929 . S
H401 C410 0.929 . S
C402 H396 0.930 . S
C402 C403 1.367 . S
C402 C410 1.378 . S
C403 C402 1.367 . S
C403 C411 1.433 . S
C404 H400 0.929 . S
C404 C406 1.378 . S
C404 C408 1.350 . S
C405 C408 1.463 . S
C405 C410 1.350 . S
C405 N413 1.427 . S
C406 H397 0.930 . S
C406 C404 1.378 . S
C406 C407 1.367 . S
C407 C406 1.367 . S
C407 C409 1.433 . S
C408 C404 1.350 . S
C408 C405 1.463 . S
C408 N412 1.427 . S
C409 H399 0.929 . S
C409 C407 1.433 . S
C409 N412 1.384 . S
C410 H401 0.929 . S
C410 C402 1.378 . S
C410 C405 1.350 . S
C411 H398 0.929 . S
C411 C403 1.433 . S
C411 N413 1.384 . S
N412 C408 1.427 . S
N412 C409 1.384 . S
N413 C405 1.427 . S
N413 C411 1.384 . S
H414 C420 0.930 . S
H415 C424 0.930 . S
H416 C429 0.929 . S
H417 C427 0.929 . S
H418 C422 0.929 . S
H419 C428 0.929 . S
C420 H414 0.930 . S
C420 C421 1.367 . S
C420 C428 1.378 . S
C421 C420 1.367 . S
C421 C429 1.433 . S
C422 H418 0.929 . S
C422 C424 1.378 . S
C422 C426 1.350 . S
C423 C426 1.463 . S
C423 C428 1.350 . S
C423 N431 1.427 . S
C424 H415 0.930 . S
C424 C422 1.378 . S
C424 C425 1.367 . S
C425 C424 1.367 . S
C425 C427 1.433 . S
C426 C422 1.350 . S
C426 C423 1.463 . S
C426 N430 1.427 . S
C427 H417 0.929 . S
C427 C425 1.433 . S
C427 N430 1.384 . S
C428 H419 0.929 . S
C428 C420 1.378 . S
C428 C423 1.350 . S
C429 H416 0.929 . S
C429 C421 1.433 . S
C429 N431 1.384 . S
N430 C426 1.427 . S
N430 C427 1.384 . S
N431 C423 1.427 . S
N431 C429 1.384 . S
H432 C438 0.930 . S
H433 C442 0.930 . S
H434 C447 0.929 . S
H435 C445 0.929 . S
H436 C440 0.929 . S
H437 C446 0.929 . S
C438 H432 0.930 . S
C438 C439 1.367 . S
C438 C446 1.378 . S
C439 C438 1.367 . S
C439 C447 1.433 . S
C440 H436 0.929 . S
C440 C442 1.378 . S
C440 C444 1.350 . S
C441 C444 1.463 . S
C441 C446 1.350 . S
C441 N449 1.427 . S
C442 H433 0.930 . S
C442 C440 1.378 . S
C442 C443 1.367 . S
C443 C442 1.367 . S
C443 C445 1.433 . S
C444 C440 1.350 . S
C444 C441 1.463 . S
C444 N448 1.427 . S
C445 H435 0.929 . S
C445 C443 1.433 . S
C445 N448 1.384 . S
C446 H437 0.929 . S
C446 C438 1.378 . S
C446 C441 1.350 . S
C447 H434 0.929 . S
C447 C439 1.433 . S
C447 N449 1.384 . S
N448 C444 1.427 . S
N448 C445 1.384 . S
N449 C441 1.427 . S
N449 C447 1.384 . S
H450 C456 0.930 . S
H451 C460 0.930 . S
H452 C465 0.929 . S
H453 C463 0.929 . S
H454 C458 0.929 . S
H455 C464 0.929 . S
C456 H450 0.930 . S
C456 C457 1.367 . S
C456 C464 1.378 . S
C457 C456 1.367 . S
C457 C465 1.433 . S
C458 H454 0.929 . S
C458 C460 1.378 . S
C458 C462 1.350 . S
C459 C462 1.463 . S
C459 C464 1.350 . S
C459 N467 1.427 . S
C460 H451 0.930 . S
C460 C458 1.378 . S
C460 C461 1.367 . S
C461 C460 1.367 . S
C461 C463 1.433 . S
C462 C458 1.350 . S
C462 C459 1.463 . S
C462 N466 1.427 . S
C463 H453 0.929 . S
C463 C461 1.433 . S
C463 N466 1.384 . S
C464 H455 0.929 . S
C464 C456 1.378 . S
C464 C459 1.350 . S
C465 H452 0.929 . S
C465 C457 1.433 . S
C465 N467 1.384 . S
N466 C462 1.427 . S
N466 C463 1.384 . S
N467 C459 1.427 . S
N467 C465 1.384 . S
H468 C474 0.930 . S
H469 C478 0.930 . S
H470 C483 0.929 . S
H471 C481 0.929 . S
H472 C476 0.929 . S
H473 C482 0.929 . S
C474 H468 0.930 . S
C474 C475 1.367 . S
C474 C482 1.378 . S
C475 C474 1.367 . S
C475 C483 1.433 . S
C476 H472 0.929 . S
C476 C478 1.378 . S
C476 C480 1.350 . S
C477 C480 1.463 . S
C477 C482 1.350 . S
C477 N485 1.427 . S
C478 H469 0.930 . S
C478 C476 1.378 . S
C478 C479 1.367 . S
C479 C478 1.367 . S
C479 C481 1.433 . S
C480 C476 1.350 . S
C480 C477 1.463 . S
C480 N484 1.427 . S
C481 H471 0.929 . S
C481 C479 1.433 . S
C481 N484 1.384 . S
C482 H473 0.929 . S
C482 C474 1.378 . S
C482 C477 1.350 . S
C483 H470 0.929 . S
C483 C475 1.433 . S
C483 N485 1.384 . S
N484 C480 1.427 . S
N484 C481 1.384 . S
N485 C477 1.427 . S
N485 C483 1.384 . S
H486 C492 0.930 . S
H487 C496 0.930 . S
H488 C501 0.929 . S
H489 C499 0.929 . S
H490 C494 0.929 . S
H491 C500 0.929 . S
C492 H486 0.930 . S
C492 C493 1.367 . S
C492 C500 1.378 . S
C493 C492 1.367 . S
C493 C501 1.433 . S
C494 H490 0.929 . S
C494 C496 1.378 . S
C494 C498 1.350 . S
C495 C498 1.463 . S
C495 C500 1.350 . S
C495 N503 1.427 . S
C496 H487 0.930 . S
C496 C494 1.378 . S
C496 C497 1.367 . S
C497 C496 1.367 . S
C497 C499 1.433 . S
C498 C494 1.350 . S
C498 C495 1.463 . S
C498 N502 1.427 . S
C499 H489 0.929 . S
C499 C497 1.433 . S
C499 N502 1.384 . S
C500 H491 0.929 . S
C500 C492 1.378 . S
C500 C495 1.350 . S
C501 H488 0.929 . S
C501 C493 1.433 . S
C501 N503 1.384 . S
N502 C498 1.427 . S
N502 C499 1.384 . S
N503 C495 1.427 . S
N503 C501 1.384 . S
H504 C510 0.930 . S
H505 C514 0.930 . S
H506 C519 0.929 . S
H507 C517 0.929 . S
H508 C512 0.929 . S
H509 C518 0.929 . S
C510 H504 0.930 . S
C510 C511 1.367 . S
C510 C518 1.378 . S
C511 C510 1.367 . S
C511 C519 1.433 1_655 S
C512 H508 0.929 . S
C512 C514 1.378 . S
C512 C516 1.350 1_455 S
C513 C516 1.463 . S
C513 C518 1.350 . S
C513 N521 1.427 1_655 S
C514 H505 0.930 . S
C514 C512 1.378 . S
C514 C515 1.367 1_455 S
C515 C514 1.367 1_655 S
C515 C517 1.433 . S
C516 C512 1.350 1_655 S
C516 C513 1.463 . S
C516 N520 1.427 . S
C517 H507 0.929 . S
C517 C515 1.433 . S
C517 N520 1.384 . S
C518 H509 0.929 . S
C518 C510 1.378 . S
C518 C513 1.350 . S
C519 H506 0.929 . S
C519 C511 1.433 1_455 S
C519 N521 1.384 . S
N520 C516 1.427 . S
N520 C517 1.384 . S
N521 C513 1.427 1_455 S
N521 C519 1.384 . S
H522 C528 0.930 . S
H523 C532 0.930 . S
H524 C537 0.929 . S
H525 C535 0.929 . S
H526 C530 0.929 . S
H527 C536 0.929 . S
C528 H522 0.930 . S
C528 C529 1.367 . S
C528 C536 1.378 . S
C529 C528 1.367 . S
C529 C537 1.433 . S
C530 H526 0.929 . S
C530 C532 1.378 . S
C530 C534 1.350 . S
C531 C534 1.463 . S
C531 C536 1.350 . S
C531 N539 1.427 . S
C532 H523 0.930 . S
C532 C530 1.378 . S
C532 C533 1.367 . S
C533 C532 1.367 . S
C533 C535 1.433 . S
C534 C530 1.350 . S
C534 C531 1.463 . S
C534 N538 1.427 . S
C535 H525 0.929 . S
C535 C533 1.433 . S
C535 N538 1.384 . S
C536 H527 0.929 . S
C536 C528 1.378 . S
C536 C531 1.350 . S
C537 H524 0.929 . S
C537 C529 1.433 . S
C537 N539 1.384 . S
N538 C534 1.427 . S
N538 C535 1.384 . S
N539 C531 1.427 . S
N539 C537 1.384 . S
H540 C546 0.930 . S
H541 C550 0.930 . S
H542 C555 0.929 . S
H543 C553 0.929 . S
H544 C548 0.929 . S
H545 C554 0.929 . S
C546 H540 0.930 . S
C546 C547 1.367 . S
C546 C554 1.378 . S
C547 C546 1.367 . S
C547 C555 1.433 1_545 S
C548 H544 0.929 . S
C548 C550 1.378 . S
C548 C552 1.350 1_565 S
C549 C552 1.463 . S
C549 C554 1.350 . S
C549 N557 1.427 1_545 S
C550 H541 0.930 . S
C550 C548 1.378 . S
C550 C551 1.367 1_565 S
C551 C550 1.367 1_545 S
C551 C553 1.433 . S
C552 C548 1.350 1_545 S
C552 C549 1.463 . S
C552 N556 1.427 . S
C553 H543 0.929 . S
C553 C551 1.433 . S
C553 N556 1.384 . S
C554 H545 0.929 . S
C554 C546 1.378 . S
C554 C549 1.350 . S
C555 H542 0.929 . S
C555 C547 1.433 1_565 S
C555 N557 1.384 . S
N556 C552 1.427 . S
N556 C553 1.384 . S
N557 C549 1.427 1_565 S
N557 C555 1.384 . S
H558 C564 0.930 . S
H559 C568 0.930 . S
H560 C573 0.929 . S
H561 C571 0.929 . S
H562 C566 0.929 . S
H563 C572 0.929 . S
C564 H558 0.930 . S
C564 C565 1.367 . S
C564 C572 1.378 . S
C565 C564 1.367 . S
C565 C573 1.433 . S
C566 H562 0.929 . S
C566 C568 1.378 . S
C566 C570 1.350 1_556 S
C567 C570 1.463 . S
C567 C572 1.350 . S
C567 N575 1.427 . S
C568 H559 0.930 . S
C568 C566 1.378 . S
C568 C569 1.367 . S
C569 C568 1.367 . S
C569 C571 1.433 1_556 S
C570 C566 1.350 1_554 S
C570 C567 1.463 . S
C570 N574 1.427 . S
C571 H561 0.929 . S
C571 C569 1.433 1_554 S
C571 N574 1.384 . S
C572 H563 0.929 . S
C572 C564 1.378 . S
C572 C567 1.350 . S
C573 H560 0.929 . S
C573 C565 1.433 . S
C573 N575 1.384 . S
N574 C570 1.427 . S
N574 C571 1.384 . S
N575 C567 1.427 . S
N575 C573 1.384 . S
H576 C582 0.930 . S
H577 C586 0.930 . S
H578 C591 0.929 . S
H579 C589 0.929 . S
H580 C584 0.929 . S
H581 C590 0.929 . S
C582 H576 0.930 . S
C582 C583 1.367 . S
C582 C590 1.378 . S
C583 C582 1.367 . S
C583 C591 1.433 . S
C584 H580 0.929 . S
C584 C586 1.378 . S
C584 C588 1.350 1_556 S
C585 C588 1.463 . S
C585 C590 1.350 . S
C585 N593 1.427 . S
C586 H577 0.930 . S
C586 C584 1.378 . S
C586 C587 1.367 . S
C587 C586 1.367 . S
C587 C589 1.433 . S
C588 C584 1.350 1_554 S
C588 C585 1.463 . S
C588 N592 1.427 . S
C589 H579 0.929 . S
C589 C587 1.433 . S
C589 N592 1.384 1_556 S
C590 H581 0.929 . S
C590 C582 1.378 . S
C590 C585 1.350 . S
C591 H578 0.929 . S
C591 C583 1.433 . S
C591 N593 1.384 . S
N592 C588 1.427 . S
N592 C589 1.384 1_554 S
N593 C585 1.427 . S
N593 C591 1.384 . S
H594 C600 0.930 . S
H595 C604 0.930 . S
H596 C609 0.929 . S
H597 C607 0.929 . S
H598 C602 0.929 . S
H599 C608 0.929 . S
C600 H594 0.930 . S
C600 C601 1.367 . S
C600 C608 1.378 . S
C601 C600 1.367 . S
C601 C609 1.433 . S
C602 H598 0.929 . S
C602 C604 1.378 . S
C602 C606 1.321 1_556 S
C603 C606 1.487 . S
C603 C608 1.350 . S
C603 N611 1.427 . S
C604 H595 0.930 . S
C604 C602 1.378 . S
C604 C605 1.367 . S
C605 C604 1.367 . S
C605 C607 1.433 . S
C606 C602 1.321 1_554 S
C606 C603 1.487 . S
C606 N610 1.436 . S
C607 H597 0.929 . S
C607 C605 1.433 . S
C607 N610 1.384 1_556 S
C608 H599 0.929 . S
C608 C600 1.378 . S
C608 C603 1.350 . S
C609 H596 0.929 . S
C609 C601 1.433 . S
C609 N611 1.384 . S
N610 C606 1.436 . S
N610 C607 1.384 1_554 S
N611 C603 1.427 . S
N611 C609 1.384 . S
H612 C618 0.930 . S
H613 C622 0.922 1_556 S
H614 C627 0.929 . S
H615 C625 0.929 . S
H616 C620 0.929 . S
H617 C626 0.929 1_554 S
C618 H612 0.930 . S
C618 C619 1.367 . S
C618 C626 1.378 . S
C619 C618 1.367 . S
C619 C627 1.433 . S
C620 H616 0.929 . S
C620 C622 1.367 1_556 S
C620 C624 1.350 . S
C621 C624 1.463 . S
C621 C626 1.350 . S
C621 N629 1.427 . S
C622 H613 0.922 1_554 S
C622 C620 1.367 1_554 S
C622 C623 1.386 . S
C623 C622 1.386 . S
C623 C625 1.433 . S
C624 C620 1.350 . S
C624 C621 1.463 . S
C624 N628 1.427 1_556 S
C625 H615 0.929 . S
C625 C623 1.433 . S
C625 N628 1.384 . S
C626 H617 0.929 1_556 S
C626 C618 1.378 . S
C626 C621 1.350 . S
C627 H614 0.929 . S
C627 C619 1.433 . S
C627 N629 1.384 . S
N628 C624 1.427 1_554 S
N628 C625 1.384 . S
N629 C621 1.427 . S
N629 C627 1.384 . S
H630 C636 0.930 . S
H631 C640 0.930 . S
H632 C645 0.933 . S
H633 C643 0.929 . S
H634 C638 0.929 . S
H635 C644 0.929 . S
C636 H630 0.930 . S
C636 C637 1.367 . S
C636 C644 1.378 . S
C637 C636 1.367 . S
C637 C645 1.426 1_554 S
C638 H634 0.929 . S
C638 C640 1.378 . S
C638 C642 1.350 . S
C639 C642 1.437 1_554 S
C639 C644 1.397 . S
C639 N647 1.403 1_554 S
C640 H631 0.930 . S
C640 C638 1.378 . S
C640 C641 1.367 . S
C641 C640 1.367 . S
C641 C643 1.433 . S
C642 C638 1.350 . S
C642 C639 1.437 1_556 S
C642 N646 1.428 . S
C643 H633 0.929 . S
C643 C641 1.433 . S
C643 N646 1.384 . S
C644 H635 0.929 . S
C644 C636 1.378 . S
C644 C639 1.397 . S
C645 H632 0.933 . S
C645 C637 1.426 1_556 S
C645 N647 1.387 . S
N646 C642 1.428 . S
N646 C643 1.384 . S
N647 C639 1.403 1_556 S
N647 C645 1.387 . S
H648 C654 0.930 . S
H649 C658 0.930 . S
H650 C663 0.929 . S
H651 C661 0.929 . S
H652 C656 0.929 . S
H653 C662 0.929 . S
C654 H648 0.930 . S
C654 C655 1.367 . S
C654 C662 1.378 . S
C655 C654 1.367 . S
C655 C663 1.433 . S
C656 H652 0.929 . S
C656 C658 1.378 . S
C656 C660 1.318 1_554 S
C657 C660 1.481 . S
C657 C662 1.350 . S
C657 N665 1.427 . S
C658 H649 0.930 . S
C658 C656 1.378 . S
C658 C659 1.367 . S
C659 C658 1.367 . S
C659 C661 1.433 1_554 S
C660 C656 1.318 1_556 S
C660 C657 1.481 . S
C660 N664 1.444 . S
C661 H651 0.929 . S
C661 C659 1.433 1_556 S
C661 N664 1.384 . S
C662 H653 0.929 . S
C662 C654 1.378 . S
C662 C657 1.350 . S
C663 H650 0.929 . S
C663 C655 1.433 . S
C663 N665 1.384 . S
N664 C660 1.444 . S
N664 C661 1.384 . S
N665 C657 1.427 . S
N665 C663 1.384 . S
H666 C672 0.930 . S
H667 C676 0.930 . S
H668 C681 0.929 . S
H669 C679 0.929 . S
H670 C674 0.929 . S
H671 C680 0.929 . S
C672 H666 0.930 . S
C672 C673 1.367 . S
C672 C680 1.378 . S
C673 C672 1.367 . S
C673 C681 1.433 . S
C674 H670 0.929 . S
C674 C676 1.378 . S
C674 C678 1.350 . S
C675 C678 1.463 . S
C675 C680 1.350 . S
C675 N683 1.427 . S
C676 H667 0.930 . S
C676 C674 1.378 . S
C676 C677 1.367 . S
C677 C676 1.367 . S
C677 C679 1.433 . S
C678 C674 1.350 . S
C678 C675 1.463 . S
C678 N682 1.427 . S
C679 H669 0.929 . S
C679 C677 1.433 . S
C679 N682 1.384 . S
C680 H671 0.929 . S
C680 C672 1.378 . S
C680 C675 1.350 . S
C681 H668 0.929 . S
C681 C673 1.433 . S
C681 N683 1.384 . S
N682 C678 1.427 . S
N682 C679 1.384 . S
N683 C675 1.427 . S
N683 C681 1.384 . S
H684 C690 0.930 . S
H685 C694 0.930 . S
H686 C699 0.929 . S
H687 C697 0.929 . S
H688 C692 0.929 . S
H689 C698 0.929 . S
C690 H684 0.930 . S
C690 C691 1.367 . S
C690 C698 1.378 . S
C691 C690 1.367 . S
C691 C699 1.433 . S
C692 H688 0.929 . S
C692 C694 1.378 . S
C692 C696 1.350 . S
C693 C696 1.463 . S
C693 C698 1.350 . S
C693 N701 1.427 . S
C694 H685 0.930 . S
C694 C692 1.378 . S
C694 C695 1.367 . S
C695 C694 1.367 . S
C695 C697 1.433 . S
C696 C692 1.350 . S
C696 C693 1.463 . S
C696 N700 1.427 . S
C697 H687 0.929 . S
C697 C695 1.433 . S
C697 N700 1.384 . S
C698 H689 0.929 . S
C698 C690 1.378 . S
C698 C693 1.350 . S
C699 H686 0.929 . S
C699 C691 1.433 . S
C699 N701 1.384 . S
N700 C696 1.427 . S
N700 C697 1.384 . S
N701 C693 1.427 . S
N701 C699 1.384 . S
H702 C708 0.930 . S
H703 C712 0.930 . S
H704 C717 0.929 . S
H705 C715 0.929 . S
H706 C710 0.929 . S
H707 C716 0.929 . S
C708 H702 0.930 . S
C708 C709 1.367 . S
C708 C716 1.378 . S
C709 C708 1.367 . S
C709 C717 1.433 . S
C710 H706 0.929 . S
C710 C712 1.378 . S
C710 C714 1.350 . S
C711 C714 1.463 . S
C711 C716 1.350 . S
C711 N719 1.427 . S
C712 H703 0.930 . S
C712 C710 1.378 . S
C712 C713 1.367 . S
C713 C712 1.367 . S
C713 C715 1.433 . S
C714 C710 1.350 . S
C714 C711 1.463 . S
C714 N718 1.427 . S
C715 H705 0.929 . S
C715 C713 1.433 . S
C715 N718 1.384 . S
C716 H707 0.929 . S
C716 C708 1.378 . S
C716 C711 1.350 . S
C717 H704 0.929 . S
C717 C709 1.433 . S
C717 N719 1.384 . S
N718 C714 1.427 . S
N718 C715 1.384 . S
N719 C711 1.427 . S
N719 C717 1.384 . S
H720 C726 0.930 . S
H721 C730 0.930 . S
H722 C735 0.929 . S
H723 C733 0.929 . S
H724 C728 0.929 . S
H725 C734 0.929 . S
C726 H720 0.930 . S
C726 C727 1.367 . S
C726 C734 1.378 . S
C727 C726 1.367 . S
C727 C735 1.433 . S
C728 H724 0.929 . S
C728 C730 1.378 . S
C728 C732 1.350 . S
C729 C732 1.463 . S
C729 C734 1.350 . S
C729 N737 1.427 . S
C730 H721 0.930 . S
C730 C728 1.378 . S
C730 C731 1.367 . S
C731 C730 1.367 . S
C731 C733 1.433 . S
C732 C728 1.350 . S
C732 C729 1.463 . S
C732 N736 1.427 . S
C733 H723 0.929 . S
C733 C731 1.433 . S
C733 N736 1.384 . S
C734 H725 0.929 . S
C734 C726 1.378 . S
C734 C729 1.350 . S
C735 H722 0.929 . S
C735 C727 1.433 . S
C735 N737 1.384 . S
N736 C732 1.427 . S
N736 C733 1.384 . S
N737 C729 1.427 . S
N737 C735 1.384 . S
H738 C744 0.930 . S
H739 C748 0.930 . S
H740 C753 0.929 . S
H741 C751 0.929 . S
H742 C746 0.929 . S
H743 C752 0.929 . S
C744 H738 0.930 . S
C744 C745 1.367 1_565 S
C744 C752 1.378 . S
C745 C744 1.367 1_545 S
C745 C753 1.433 . S
C746 H742 0.929 . S
C746 C748 1.378 . S
C746 C750 1.350 . S
C747 C750 1.463 . S
C747 C752 1.350 1_545 S
C747 N755 1.427 . S
C748 H739 0.930 . S
C748 C746 1.378 . S
C748 C749 1.359 1_545 S
C749 C748 1.359 1_565 S
C749 C751 1.445 . S
C750 C746 1.350 . S
C750 C747 1.463 . S
C750 N754 1.427 1_545 S
C751 H741 0.929 . S
C751 C749 1.445 . S
C751 N754 1.384 . S
C752 H743 0.929 . S
C752 C744 1.378 . S
C752 C747 1.350 1_565 S
C753 H740 0.929 . S
C753 C745 1.433 . S
C753 N755 1.384 . S
N754 C750 1.427 1_565 S
N754 C751 1.384 . S
N755 C747 1.427 . S
N755 C753 1.384 . S
H756 C762 0.930 . S
H757 C766 0.930 . S
H758 C771 0.929 . S
H759 C769 0.929 . S
H760 C764 0.929 . S
H761 C770 0.929 . S
C762 H756 0.930 . S
C762 C763 1.367 . S
C762 C770 1.378 . S
C763 C762 1.367 . S
C763 C771 1.433 1_655 S
C764 H760 0.929 . S
C764 C766 1.378 . S
C764 C768 1.350 1_455 S
C765 C768 1.463 . S
C765 C770 1.350 . S
C765 N773 1.427 1_655 S
C766 H757 0.930 . S
C766 C764 1.378 . S
C766 C767 1.367 1_455 S
C767 C766 1.367 1_655 S
C767 C769 1.433 . S
C768 C764 1.350 1_655 S
C768 C765 1.463 . S
C768 N772 1.427 . S
C769 H759 0.929 . S
C769 C767 1.433 . S
C769 N772 1.384 . S
C770 H761 0.929 . S
C770 C762 1.378 . S
C770 C765 1.350 . S
C771 H758 0.929 . S
C771 C763 1.433 1_455 S
C771 N773 1.384 . S
N772 C768 1.427 . S
N772 C769 1.384 . S
N773 C765 1.427 1_455 S
N773 C771 1.384 . S
H774 C780 0.930 . S
H775 C784 0.930 . S
H776 C789 0.929 . S
H777 C787 0.929 . S
H778 C782 0.929 . S
H779 C788 0.929 . S
C780 H774 0.930 . S
C780 C781 1.367 . S
C780 C788 1.378 . S
C781 C780 1.367 . S
C781 C789 1.433 . S
C782 H778 0.929 . S
C782 C784 1.378 . S
C782 C786 1.350 . S
C783 C786 1.463 . S
C783 C788 1.350 . S
C783 N791 1.427 . S
C784 H775 0.930 . S
C784 C782 1.378 . S
C784 C785 1.367 . S
C785 C784 1.367 . S
C785 C787 1.433 . S
C786 C782 1.350 . S
C786 C783 1.463 . S
C786 N790 1.427 . S
C787 H777 0.929 . S
C787 C785 1.433 . S
C787 N790 1.384 . S
C788 H779 0.929 . S
C788 C780 1.378 . S
C788 C783 1.350 . S
C789 H776 0.929 . S
C789 C781 1.433 . S
C789 N791 1.384 . S
N790 C786 1.427 . S
N790 C787 1.384 . S
N791 C783 1.427 . S
N791 C789 1.384 . S
H792 C798 0.930 . S
H793 C802 0.930 . S
H794 C807 0.929 . S
H795 C805 0.929 . S
H796 C800 0.929 . S
H797 C806 0.929 . S
C798 H792 0.930 . S
C798 C799 1.367 . S
C798 C806 1.378 . S
C799 C798 1.367 . S
C799 C807 1.433 1_565 S
C800 H796 0.929 . S
C800 C802 1.378 . S
C800 C804 1.350 1_545 S
C801 C804 1.463 . S
C801 C806 1.350 . S
C801 N809 1.427 1_565 S
C802 H793 0.930 . S
C802 C800 1.378 . S
C802 C803 1.367 1_545 S
C803 C802 1.367 1_565 S
C803 C805 1.433 . S
C804 C800 1.350 1_565 S
C804 C801 1.463 . S
C804 N808 1.427 . S
C805 H795 0.929 . S
C805 C803 1.433 . S
C805 N808 1.384 . S
C806 H797 0.929 . S
C806 C798 1.378 . S
C806 C801 1.350 . S
C807 H794 0.929 . S
C807 C799 1.433 1_545 S
C807 N809 1.384 . S
N808 C804 1.427 . S
N808 C805 1.384 . S
N809 C801 1.427 1_545 S
N809 C807 1.384 . S
H810 C816 0.930 . S
H811 C820 0.930 . S
H812 C825 0.929 . S
H813 C823 0.929 . S
H814 C818 0.929 . S
H815 C824 0.929 . S
C816 H810 0.930 . S
C816 C817 1.367 1_655 S
C816 C824 1.378 . S
C817 C816 1.367 1_455 S
C817 C825 1.433 . S
C818 H814 0.929 . S
C818 C820 1.378 . S
C818 C822 1.350 . S
C819 C822 1.463 . S
C819 C824 1.350 1_455 S
C819 N827 1.427 . S
C820 H811 0.930 . S
C820 C818 1.378 . S
C820 C821 1.367 . S
C821 C820 1.367 . S
C821 C823 1.433 1_455 S
C822 C818 1.350 . S
C822 C819 1.463 . S
C822 N826 1.427 1_455 S
C823 H813 0.929 . S
C823 C821 1.433 1_655 S
C823 N826 1.384 . S
C824 H815 0.929 . S
C824 C816 1.378 . S
C824 C819 1.350 1_655 S
C825 H812 0.929 . S
C825 C817 1.433 . S
C825 N827 1.384 . S
N826 C822 1.427 1_655 S
N826 C823 1.384 . S
N827 C819 1.427 . S
N827 C825 1.384 . S
H828 C834 0.930 . S
H829 C838 0.930 . S
H830 C843 0.929 . S
H831 C841 0.929 . S
H832 C836 0.929 . S
H833 C842 0.929 . S
C834 H828 0.930 . S
C834 C835 1.367 . S
C834 C842 1.378 . S
C835 C834 1.367 . S
C835 C843 1.433 . S
C836 H832 0.929 . S
C836 C838 1.378 . S
C836 C840 1.350 . S
C837 C840 1.463 . S
C837 C842 1.350 . S
C837 N845 1.427 . S
C838 H829 0.930 . S
C838 C836 1.378 . S
C838 C839 1.367 . S
C839 C838 1.367 . S
C839 C841 1.433 . S
C840 C836 1.350 . S
C840 C837 1.463 . S
C840 N844 1.427 . S
C841 H831 0.929 . S
C841 C839 1.433 . S
C841 N844 1.384 . S
C842 H833 0.929 . S
C842 C834 1.378 . S
C842 C837 1.350 . S
C843 H830 0.929 . S
C843 C835 1.433 . S
C843 N845 1.384 . S
N844 C840 1.427 . S
N844 C841 1.384 . S
N845 C837 1.427 . S
N845 C843 1.384 . S
H846 C852 0.930 . S
H847 C856 0.930 . S
H848 C861 0.929 . S
H849 C859 0.929 . S
H850 C854 0.929 . S
H851 C860 0.929 . S
C852 H846 0.930 . S
C852 C853 1.367 . S
C852 C860 1.378 . S
C853 C852 1.367 . S
C853 C861 1.433 . S
C854 H850 0.929 . S
C854 C856 1.378 . S
C854 C858 1.350 . S
C855 C858 1.463 . S
C855 C860 1.350 . S
C855 N863 1.427 . S
C856 H847 0.930 . S
C856 C854 1.378 . S
C856 C857 1.367 . S
C857 C856 1.367 . S
C857 C859 1.433 . S
C858 C854 1.350 . S
C858 C855 1.463 . S
C858 N862 1.427 . S
C859 H849 0.929 . S
C859 C857 1.433 . S
C859 N862 1.384 . S
C860 H851 0.929 . S
C860 C852 1.378 . S
C860 C855 1.350 . S
C861 H848 0.929 . S
C861 C853 1.433 . S
C861 N863 1.384 . S
N862 C858 1.427 . S
N862 C859 1.384 . S
N863 C855 1.427 . S
N863 C861 1.384 . S
H864 C870 0.930 . S
H865 C874 0.930 . S
H866 C879 0.929 . S
H867 C877 0.929 . S
H868 C872 0.929 . S
H869 C878 0.929 . S
C870 H864 0.930 . S
C870 C871 1.367 . S
C870 C878 1.378 . S
C871 C870 1.367 . S
C871 C879 1.433 . S
C872 H868 0.929 . S
C872 C874 1.378 . S
C872 C876 1.350 . S
C873 C876 1.463 . S
C873 C878 1.350 . S
C873 N881 1.427 . S
C874 H865 0.930 . S
C874 C872 1.378 . S
C874 C875 1.367 . S
C875 C874 1.367 . S
C875 C877 1.433 . S
C876 C872 1.350 . S
C876 C873 1.463 . S
C876 N880 1.427 . S
C877 H867 0.929 . S
C877 C875 1.433 . S
C877 N880 1.384 . S
C878 H869 0.929 . S
C878 C870 1.378 . S
C878 C873 1.350 . S
C879 H866 0.929 . S
C879 C871 1.433 . S
C879 N881 1.384 . S
N880 C876 1.427 . S
N880 C877 1.384 . S
N881 C873 1.427 . S
N881 C879 1.384 . S
C241 C0 1.598 . S
C245 C49 1.605 . S
C259 C18 1.606 . S
C263 C62 1.635 . S
C277 C75 1.590 . S
C281 C31 1.548 . S
C295 C78 1.596 . S
C299 C127 1.599 . S
C313 C96 1.596 . S
C317 C140 1.625 . S
C331 C153 1.591 . S
C335 C109 1.553 . S
C349 C205 1.607 . S
C353 C156 1.597 . S
C367 C218 1.635 . S
C371 C174 1.604 . S
C385 C231 1.585 . S
C389 C187 1.549 . S
C403 C5 1.629 . S
C407 C117 1.761 . S
C421 C13 1.777 . S
C425 C130 1.770 . S
C439 C143 1.748 . S
C443 C26 1.747 . S
C457 C39 1.762 . S
C461 C161 1.638 . S
C475 C52 1.765 . S
C479 C169 1.767 . S
C493 C65 1.746 . S
C497 C182 1.741 . S
C511 C83 1.632 . S
C515 C195 1.775 . S
C529 C91 1.785 . S
C533 C208 1.774 . S
C547 C221 1.729 . S
C551 C104 1.730 . S
C565 C8 0.610 . S
C569 C60 0.629 . S
C583 C23 0.643 . S
C587 C73 0.643 . S
C601 C36 0.650 . S
C605 C47 0.646 . S
C619 C44 0.647 . S
C623 C21 0.633 . S
C637 C34 0.652 . S
C641 C57 0.677 . S
C655 C70 0.695 . S
C659 C10 0.673 . S
C673 C86 0.628 . S
C677 C138 0.636 . S
C691 C151 0.618 . S
C695 C101 0.640 . S
C709 C125 0.629 . S
C713 C114 0.630 . S
C727 C99 0.650 . S
C731 C122 0.665 . S
C745 C135 0.653 . S
C749 C112 0.650 . S
C763 C148 0.672 . S
C767 C88 0.671 . S
C781 C216 0.611 . S
C785 C164 0.609 . S
C799 C229 0.622 . S
C803 C179 0.647 . S
C817 C192 0.631 . S
C821 C203 0.614 . S
C835 C177 0.663 . S
C839 C200 0.692 . S
C853 C190 0.640 . S
C857 C213 0.649 . S
C871 C166 0.682 . S
C875 C226 0.703 . S
