# Generated by pormake.
# Topology irl, (4)-cn, num edge types: 1
# Building blocks:
#     Node 0, Type 0, BuildingBlock: KUFVIS_clean_sbu_0, # of connection points: 4
#     Node 1, Type 0, BuildingBlock: KUFVIS_clean_sbu_0, # of connection points: 4
#     Node 2, Type 0, BuildingBlock: KUFVIS_clean_sbu_0, # of connection points: 4
#     Node 3, Type 0, BuildingBlock: KUFVIS_clean_sbu_0, # of connection points: 4
#     Node 4, Type 0, BuildingBlock: KUFVIS_clean_sbu_0, # of connection points: 4
#     Node 5, Type 0, BuildingBlock: KUFVIS_clean_sbu_0, # of connection points: 4
#     Node 6, Type 0, BuildingBlock: KUFVIS_clean_sbu_0, # of connection points: 4
#     Node 7, Type 0, BuildingBlock: KUFVIS_clean_sbu_0, # of connection points: 4
#     Edge 8, Type (0, 0), BuildingBlock: KIFKEQ_clean_linker_1, # of connection points: 2
#     Edge 9, Type (0, 0), BuildingBlock: KIFKEQ_clean_linker_1, # of connection points: 2
#     Edge 10, Type (0, 0), BuildingBlock: KIFKEQ_clean_linker_1, # of connection points: 2
#     Edge 11, Type (0, 0), BuildingBlock: KIFKEQ_clean_linker_1, # of connection points: 2
#     Edge 12, Type (0, 0), BuildingBlock: KIFKEQ_clean_linker_1, # of connection points: 2
#     Edge 13, Type (0, 0), BuildingBlock: KIFKEQ_clean_linker_1, # of connection points: 2
#     Edge 14, Type (0, 0), BuildingBlock: KIFKEQ_clean_linker_1, # of connection points: 2
#     Edge 15, Type (0, 0), BuildingBlock: KIFKEQ_clean_linker_1, # of connection points: 2
#     Edge 16, Type (0, 0), BuildingBlock: KIFKEQ_clean_linker_1, # of connection points: 2
#     Edge 17, Type (0, 0), BuildingBlock: KIFKEQ_clean_linker_1, # of connection points: 2
#     Edge 18, Type (0, 0), BuildingBlock: KIFKEQ_clean_linker_1, # of connection points: 2
#     Edge 19, Type (0, 0), BuildingBlock: KIFKEQ_clean_linker_1, # of connection points: 2
#     Edge 20, Type (0, 0), BuildingBlock: KIFKEQ_clean_linker_1, # of connection points: 2
#     Edge 21, Type (0, 0), BuildingBlock: KIFKEQ_clean_linker_1, # of connection points: 2
#     Edge 22, Type (0, 0), BuildingBlock: KIFKEQ_clean_linker_1, # of connection points: 2
#     Edge 23, Type (0, 0), BuildingBlock: KIFKEQ_clean_linker_1, # of connection points: 2
# Relax obj value: 0.101
# Max RMSD: 0.151
# Mean RMSD: 0.151
data_MOF--net-irl--node1-KUFVIS_clean_sbu_0--edge1-KIFKEQ_clean_linker_1
_symmetry_space_group_name_H-M    P1
_symmetry_Int_Tables_number       1
_symmetry_cell_setting            triclinic
loop_
_symmetry_equiv_pos_as_xyz
'x, y, z'
_cell_length_a     34.900148
_cell_length_b     45.376814
_cell_length_c     28.005829
_cell_angle_alpha  90.006083
_cell_angle_beta   90.011503
_cell_angle_gamma 90.001501
loop_
_atom_site_label
_atom_site_type_symbol
_atom_site_fract_x
_atom_site_fract_y
_atom_site_fract_z
_atom_type_partial_charge
Mn0 Mn 0.06 0.16196 0.01693 0.0
Mn1 Mn 0.03034 0.23247 0.02521 0.0
C2 C 0.04848 0.18215 0.09069 0.0
C3 C 0.04219 0.11274 0.0051 0.0
C4 C 0.11321 0.21526 0.00698 0.0
O5 O 0.04458 0.17217 0.94953 0.0
O6 O 0.0204 0.21776 0.95915 0.0
C7 C 0.94714 0.22148 0.01515 0.0
N8 N 0.97704 0.23237 0.04095 0.0
C9 C 0.93514 0.24642 0.10529 0.0
C10 C 0.90386 0.23558 0.07923 0.0
C11 C 0.90991 0.22304 0.03398 0.0
C12 C 0.97156 0.24442 0.08457 0.0
H13 H 0.95172 0.21154 0.98057 0.0
C14 C 0.02811 0.19514 0.93342 0.0
O15 O 0.07689 0.12163 -0.00405 0.0
O16 O 0.01844 0.13234 0.02082 0.0
N17 N 0.03787 0.24952 0.08706 0.0
C18 C 0.07116 0.25862 0.10784 0.0
C19 C 0.07011 0.27162 0.15335 0.0
C20 C 0.03489 0.27523 0.17691 0.0
C21 C 0.00096 0.26617 0.15446 0.0
C22 C 0.00373 0.25379 0.10877 0.0
H23 H 0.09832 0.25582 0.08998 0.0
O24 O 0.06892 0.15838 0.08691 0.0
O25 O 0.03446 0.19267 0.05123 0.0
O26 O 0.10865 0.18728 0.00977 0.0
O27 O 0.08572 0.23382 0.01065 0.0
C28 C 0.96457 0.26863 0.17584 0.0
C29 C 0.93169 0.25869 0.15133 0.0
H30 H 0.87513 0.23658 0.09374 0.0
H31 H 0.88594 0.21447 0.01378 0.0
H32 H 0.09641 0.27863 0.17038 0.0
H33 H 0.03424 0.28491 0.21227 0.0
H34 H 0.96156 0.27791 0.21128 0.0
H35 H 0.90391 0.26044 0.16833 0.0
Mn36 Mn 0.93794 0.85143 0.01676 0.0
Mn37 Mn 0.96847 0.78127 0.02671 0.0
C38 C 0.95049 0.83225 0.09116 0.0
C39 C 0.95564 0.90051 0.00319 0.0
C40 C 0.88519 0.79794 0.00871 0.0
O41 O 0.95191 0.84018 0.9491 0.0
O42 O 0.9788 0.79559 0.96053 0.0
C43 C 0.05162 0.79266 0.01739 0.0
N44 N 0.02166 0.78168 0.04296 0.0
C45 C 0.0633 0.76797 0.10776 0.0
C46 C 0.09465 0.77887 0.08191 0.0
C47 C 0.08876 0.7913 0.03655 0.0
C48 C 0.02698 0.76979 0.08672 0.0
H49 H 0.04715 0.80256 0.98276 0.0
C50 C 0.96946 0.81743 0.93393 0.0
O51 O 0.92079 0.89158 -0.00496 0.0
O52 O 0.97961 0.88099 0.0186 0.0
N53 N 0.96067 0.76459 0.08876 0.0
C54 C 0.92733 0.75547 0.10936 0.0
C55 C 0.92822 0.7426 0.15496 0.0
C56 C 0.96335 0.7391 0.1788 0.0
C57 C 0.99734 0.74818 0.15654 0.0
C58 C 0.99473 0.76043 0.11075 0.0
H59 H 0.90023 0.75813 0.09128 0.0
O60 O 0.93016 0.85602 0.08691 0.0
O61 O 0.96398 0.82122 0.05178 0.0
O62 O 0.88934 0.82596 0.01172 0.0
O63 O 0.91305 0.77962 0.01168 0.0
C64 C 0.03365 0.74587 0.17821 0.0
C65 C 0.06659 0.75584 0.15391 0.0
H66 H 0.12332 0.77802 0.09669 0.0
H67 H 0.11278 0.79995 0.01653 0.0
H68 H 0.90187 0.73556 0.17184 0.0
H69 H 0.96388 0.72949 0.21419 0.0
H70 H 0.03653 0.73669 0.21372 0.0
H71 H 0.09429 0.75422 0.17115 0.0
Mn72 Mn 0.05926 0.8507 0.49929 0.0
Mn73 Mn 0.02743 0.78083 0.49004 0.0
C74 C 0.04387 0.83206 0.42535 0.0
C75 C 0.04308 0.89978 0.51483 0.0
C76 C 0.11142 0.79683 0.5043 0.0
O77 O 0.04769 0.83905 0.56758 0.0
O78 O 0.01879 0.79515 0.55657 0.0
C79 C 0.94464 0.7927 0.50241 0.0
N80 N 0.97388 0.78159 0.47572 0.0
C81 C 0.93061 0.76818 0.41242 0.0
C82 C 0.89998 0.77922 0.43945 0.0
C83 C 0.90705 0.79157 0.4846 0.0
C84 C 0.96742 0.7698 0.43212 0.0
H85 H 0.95002 0.80253 0.53689 0.0
C86 C 0.02967 0.8166 0.58311 0.0
O87 O 0.0781 0.89049 0.52016 0.0
O88 O 0.01795 0.88067 0.50093 0.0
N89 N 0.0336 0.76418 0.42767 0.0
C90 C 0.06633 0.75473 0.40597 0.0
C91 C 0.06422 0.74181 0.36046 0.0
C92 C 0.02853 0.73859 0.33788 0.0
C93 C 0.99519 0.74798 0.36127 0.0
C94 C -0.001 0.76026 0.40692 0.0
H95 H 0.09385 0.75714 0.42311 0.0
O96 O 0.06445 0.85574 0.42889 0.0
O97 O 0.0316 0.82086 0.46522 0.0
O98 O 0.10761 0.82485 0.50102 0.0
O99 O 0.08319 0.77877 0.50306 0.0
C100 C 0.95837 0.7459 0.34092 0.0
C101 C 0.92611 0.75608 0.3664 0.0
H102 H 0.87097 0.77853 0.42573 0.0
H103 H 0.8836 0.80032 0.50553 0.0
H104 H 0.09008 0.7345 0.34271 0.0
H105 H 0.02705 0.72889 0.30259 0.0
H106 H 0.95457 0.73672 0.30553 0.0
H107 H 0.898 0.75462 0.35019 0.0
Mn108 Mn 0.9381 0.16049 0.4965 0.0
Mn109 Mn 0.96905 0.23073 0.48876 0.0
C110 C 0.9529 0.17994 0.42313 0.0
C111 C 0.95463 0.11135 0.51095 0.0
C112 C 0.88533 0.21418 0.50245 0.0
O113 O 0.95037 0.17135 0.56475 0.0
O114 O 0.97682 0.21621 0.5553 0.0
C115 C 0.05174 0.21915 0.50269 0.0
N116 N 0.02277 0.23023 0.4755 0.0
C117 C 0.06673 0.24396 0.41315 0.0
C118 C 0.09708 0.23292 0.44066 0.0
C119 C 0.08953 0.22044 0.4856 0.0
C120 C 0.02969 0.24218 0.43213 0.0
H121 H 0.046 0.20927 0.53704 0.0
C122 C 0.96717 0.19412 0.58118 0.0
O123 O 0.91959 0.12048 0.51672 0.0
O124 O 0.97953 0.1306 0.4969 0.0
N125 N 0.96356 0.24771 0.42653 0.0
C126 C 0.93107 0.25729 0.40442 0.0
C127 C 0.93366 0.27044 0.35912 0.0
C128 C 0.96959 0.27376 0.33718 0.0
C129 C 0.00269 0.26427 0.36104 0.0
C130 C 0.99839 0.25177 0.40645 0.0
H131 H 0.90337 0.25478 0.42107 0.0
O132 O 0.93239 0.15619 0.42612 0.0
O133 O 0.96538 0.1908 0.46317 0.0
O134 O 0.88951 0.18617 0.49952 0.0
O135 O 0.91326 0.23247 0.50073 0.0
C136 C 0.03973 0.26648 0.34137 0.0
C137 C 0.07171 0.25625 0.36734 0.0
H138 H 0.12625 0.23373 0.42751 0.0
H139 H 0.11278 0.21171 0.50692 0.0
H140 H 0.908 0.27783 0.34103 0.0
H141 H 0.97144 0.2836 0.30202 0.0
H142 H 0.0439 0.2758 0.30614 0.0
H143 H 0.10001 0.25782 0.35167 0.0
Mn144 Mn 0.56121 0.66113 0.01478 0.0
Mn145 Mn 0.53615 0.73264 0.02531 0.0
C146 C 0.54845 0.68 0.08934 0.0
C147 C 0.54199 0.61256 6e-05 0.0
C148 C 0.61795 0.71219 0.00814 0.0
O149 O 0.54796 0.67326 0.94737 0.0
O150 O 0.52563 0.71932 0.95848 0.0
C151 C 0.45221 0.72758 0.01292 0.0
N152 N 0.48284 0.73621 0.0396 0.0
C153 C 0.4417 0.75545 0.10111 0.0
C154 C 0.4097 0.74698 0.07411 0.0
C155 C 0.41499 0.73295 0.02987 0.0
C156 C 0.4781 0.74987 0.08212 0.0
H157 H 0.4562 0.71665 0.97902 0.0
C158 C 0.53274 0.69693 0.93189 0.0
O159 O 0.57711 0.62097 0.99252 0.0
O160 O 0.51834 0.63239 0.01546 0.0
N161 N 0.54457 0.74823 0.08795 0.0
C162 C 0.57832 0.75249 0.11144 0.0
C163 C 0.57799 0.76492 0.15736 0.0
C164 C 0.54305 0.77297 0.17853 0.0
C165 C 0.50871 0.76854 0.15355 0.0
C166 C 0.51082 0.75626 0.10773 0.0
H167 H 0.60525 0.74621 0.09546 0.0
O168 O 0.56807 0.65589 0.08459 0.0
O169 O 0.53608 0.6921 0.05 0.0
O170 O 0.61174 0.68445 0.0107 0.0
O171 O 0.59153 0.73154 0.0116 0.0
C172 C 0.4724 0.77498 0.17289 0.0
C173 C 0.43892 0.76846 0.14669 0.0
H174 H 0.38094 0.7508 0.08727 0.0
H175 H 0.39043 0.72618 0.00898 0.0
H176 H 0.60461 0.76816 0.1765 0.0
H177 H 0.54289 0.78226 0.21416 0.0
H178 H 0.46988 0.78445 0.20826 0.0
H179 H 0.41116 0.77302 0.16231 0.0
Mn180 Mn 0.43716 0.35163 0.0141 0.0
Mn181 Mn 0.46233 0.28012 0.02462 0.0
C182 C 0.44966 0.33268 0.08863 0.0
C183 C 0.45632 0.40024 -0.00033 0.0
C184 C 0.38056 0.30048 0.0071 0.0
O185 O 0.4507 0.3396 0.94677 0.0
O186 O 0.47285 0.29348 0.95787 0.0
C187 C 0.54626 0.28535 0.0124 0.0
N188 N 0.51564 0.27663 0.03898 0.0
C189 C 0.55679 0.2573 0.10042 0.0
C190 C 0.58879 0.26588 0.07351 0.0
C191 C 0.58349 0.28001 0.02935 0.0
C192 C 0.52039 0.26288 0.08142 0.0
H193 H 0.54226 0.29636 0.97855 0.0
C194 C 0.46588 0.31591 0.93132 0.0
O195 O 0.42126 0.3918 0.99187 0.0
O196 O 0.47995 0.38043 0.01517 0.0
N197 N 0.45392 0.26444 0.0872 0.0
C198 C 0.42017 0.2601 0.11063 0.0
C199 C 0.4205 0.24757 0.15648 0.0
C200 C 0.45545 0.23951 0.17763 0.0
C201 C 0.48979 0.24402 0.15271 0.0
C202 C 0.48767 0.2564 0.10696 0.0
H203 H 0.39323 0.26638 0.09465 0.0
O204 O 0.43 0.35678 0.08385 0.0
O205 O 0.46222 0.32065 0.04935 0.0
O206 O 0.38672 0.32822 0.00959 0.0
O207 O 0.40698 0.28114 0.01082 0.0
C208 C 0.52611 0.23757 0.17204 0.0
C209 C 0.55958 0.2442 0.14591 0.0
H210 H 0.61755 0.26206 0.08668 0.0
H211 H 0.60804 0.28686 0.00854 0.0
H212 H 0.39389 0.24427 0.17557 0.0
H213 H 0.45562 0.23015 0.21321 0.0
H214 H 0.52864 0.22802 0.20734 0.0
H215 H 0.58735 0.23963 0.16153 0.0
Mn216 Mn 0.56164 0.35154 0.49772 0.0
Mn217 Mn 0.53621 0.28008 0.48728 0.0
C218 C 0.54846 0.33273 0.42329 0.0
C219 C 0.54257 0.40011 0.5127 0.0
C220 C 0.61821 0.30032 0.50352 0.0
O221 O 0.54883 0.3394 0.56521 0.0
O222 O 0.52636 0.29337 0.55424 0.0
C223 C 0.45243 0.28546 0.50076 0.0
N224 N 0.48276 0.2767 0.4737 0.0
C225 C 0.44096 0.25753 0.41281 0.0
C226 C 0.40925 0.26614 0.44021 0.0
C227 C 0.41502 0.28021 0.48434 0.0
C228 C 0.47756 0.26303 0.43129 0.0
H229 H 0.45678 0.29642 0.53458 0.0
C230 C 0.53371 0.31573 0.58078 0.0
O231 O 0.57773 0.39169 0.51991 0.0
O232 O 0.51883 0.38029 0.49748 0.0
N233 N 0.54398 0.26444 0.42455 0.0
C234 C 0.5775 0.25999 0.40065 0.0
C235 C 0.57669 0.24748 0.35479 0.0
C236 C 0.54151 0.23952 0.33413 0.0
C237 C 0.50742 0.24413 0.35953 0.0
C238 C 0.51001 0.25648 0.40526 0.0
H239 H 0.6046 0.26619 0.41626 0.0
O240 O 0.56812 0.35684 0.42792 0.0
O241 O 0.53622 0.32063 0.46267 0.0
O242 O 0.6121 0.32808 0.50127 0.0
O243 O 0.59169 0.28102 0.50023 0.0
C244 C 0.4709 0.23777 0.34071 0.0
C245 C 0.4377 0.24447 0.36733 0.0
H246 H 0.38035 0.2624 0.42746 0.0
H247 H 0.39069 0.28709 0.50554 0.0
H248 H 0.60311 0.2441 0.33533 0.0
H249 H 0.54098 0.23017 0.29855 0.0
H250 H 0.468 0.22825 0.30542 0.0
H251 H 0.40977 0.23997 0.35211 0.0
Mn252 Mn 0.4362 0.66055 0.4984 0.0
Mn253 Mn 0.46056 0.73219 0.48785 0.0
C254 C 0.44902 0.67942 0.42387 0.0
C255 C 0.45588 0.61212 0.51337 0.0
C256 C 0.37891 0.71124 0.5046 0.0
O257 O 0.44906 0.67284 0.56587 0.0
O258 O 0.47103 0.719 0.55475 0.0
C259 C 0.54451 0.72769 0.50061 0.0
N260 N 0.51386 0.7361 0.47379 0.0
C261 C 0.55497 0.7556 0.41246 0.0
C262 C 0.58699 0.74735 0.43961 0.0
C263 C 0.58172 0.7333 0.48384 0.0
C264 C 0.51858 0.74977 0.43129 0.0
H265 H 0.54055 0.71674 0.53451 0.0
C266 C 0.46403 0.69661 0.58136 0.0
O267 O 0.42066 0.62032 0.52069 0.0
O268 O 0.47938 0.63208 0.49806 0.0
N269 N 0.45215 0.7477 0.42515 0.0
C270 C 0.41842 0.75174 0.40151 0.0
C271 C 0.41874 0.76416 0.35559 0.0
C272 C 0.45366 0.77243 0.33458 0.0
C273 C 0.48798 0.76823 0.35971 0.0
C274 C 0.48586 0.75595 0.40552 0.0
H275 H 0.39152 0.74529 0.41738 0.0
O276 O 0.42967 0.65518 0.42857 0.0
O277 O 0.46112 0.69164 0.46325 0.0
O278 O 0.3854 0.68355 0.5021 0.0
O279 O 0.40516 0.73075 0.50131 0.0
C280 C 0.52427 0.77491 0.34053 0.0
C281 C 0.55774 0.76861 0.36689 0.0
H282 H 0.61574 0.75136 0.42658 0.0
H283 H 0.6063 0.7267 0.50484 0.0
H284 H 0.39215 0.76722 0.33634 0.0
H285 H 0.45382 0.78171 0.29895 0.0
H286 H 0.52679 0.78438 0.30517 0.0
H287 H 0.58549 0.77335 0.3514 0.0
H288 H 0.9132 0.9481 0.97272 0.0
H289 H 0.02653 0.9231 0.01968 0.0
H290 H 0.93432 0.99943 0.96661 0.0
H291 H 0.04719 0.97403 0.01492 0.0
H292 H 0.9721 0.08978 0.0254 0.0
H293 H 0.95119 0.03891 0.01939 0.0
H294 H 0.0621 0.01446 0.96339 0.0
H295 H 0.08348 0.06563 0.97073 0.0
C296 C 0.94258 0.95353 0.98158 0.0
C297 C 0.96807 0.93153 -0.00313 0.0
C298 C 0.95468 0.98294 0.97833 0.0
C299 C 0.99252 0.99097 0.99038 0.0
C300 C 0.01809 0.96874 0.00463 0.0
C301 C 0.00606 0.93946 0.00775 0.0
C302 C 0.99207 0.07362 0.01158 0.0
C303 C 0.02961 0.08176 -0.00115 0.0
C304 C 0.97989 0.04441 0.00772 0.0
C305 C 0.00486 0.02246 0.99087 0.0
C306 C 0.04222 0.03071 0.97712 0.0
C307 C 0.05448 0.06004 0.98113 0.0
H308 H 0.97372 0.91997 0.54362 0.0
H309 H 0.08636 0.94943 0.50214 0.0
H310 H 0.95223 0.97078 0.54967 0.0
H311 H 0.06446 1.00041 0.50463 0.0
H312 H 0.02453 0.09173 0.53875 0.0
H313 H 0.04622 0.04109 0.54693 0.0
H314 H 0.93357 0.01049 0.50525 0.0
H315 H 0.91152 0.06138 0.50062 0.0
C316 C 0.99389 0.93746 0.53572 0.0
C317 C 0.0317 0.93081 0.52243 0.0
C318 C 0.98146 0.96669 0.53864 0.0
C319 C 0.00625 0.9901 0.52705 0.0
C320 C 0.04448 0.98327 0.51468 0.0
C321 C 0.05715 0.95398 0.51298 0.0
C322 C 0.00434 0.07408 0.53194 0.0
C323 C 0.96635 0.08044 0.51902 0.0
C324 C 0.01687 0.04493 0.53613 0.0
C325 C 0.99199 0.02128 0.52624 0.0
C326 C 0.95364 0.02783 0.51406 0.0
C327 C 0.94087 0.05707 0.51108 0.0
H328 H 0.58383 0.56544 0.96733 0.0
H329 H 0.47123 0.58976 0.01772 0.0
H330 H 0.56296 0.51418 0.96051 0.0
H331 H 0.45075 0.53871 0.01228 0.0
H332 H 0.41455 0.44735 0.96675 0.0
H333 H 0.43541 0.49863 0.96012 0.0
H334 H 0.54742 0.47414 0.01261 0.0
H335 H 0.52697 0.42308 0.01788 0.0
C336 C 0.55463 0.55987 0.97681 0.0
C337 C 0.52928 0.58167 -0.00674 0.0
C338 C 0.54268 0.53047 0.97316 0.0
C339 C 0.50515 0.5222 0.98601 0.0
C340 C 0.47965 0.54422 0.00139 0.0
C341 C 0.49153 0.57354 0.00487 0.0
C342 C 0.4437 0.45294 0.97644 0.0
C343 C 0.46901 0.43115 -0.00698 0.0
C344 C 0.45564 0.48235 0.97289 0.0
C345 C 0.49312 0.49063 0.98599 0.0
C346 C 0.51858 0.46862 0.00153 0.0
C347 C 0.5067 0.43929 0.00491 0.0
H348 H 0.5845 0.44727 0.54523 0.0
H349 H 0.47172 0.42282 0.49557 0.0
H350 H 0.5635 0.4985 0.55232 0.0
H351 H 0.45113 0.47381 0.50125 0.0
H352 H 0.52675 0.58961 0.49532 0.0
H353 H 0.54758 0.53864 0.50067 0.0
H354 H 0.43581 0.51373 0.55343 0.0
H355 H 0.41457 0.5649 0.54665 0.0
C356 C 0.55524 0.45281 0.53596 0.0
C357 C 0.52987 0.43099 0.51965 0.0
C358 C 0.54322 0.48219 0.53977 0.0
C359 C 0.50559 0.49041 0.52721 0.0
C360 C 0.48009 0.46835 0.51194 0.0
C361 C 0.49204 0.43906 0.50832 0.0
C362 C 0.50662 0.57332 0.50837 0.0
C363 C 0.46887 0.5813 0.52024 0.0
C364 C 0.51871 0.54405 0.51181 0.0
C365 C 0.49343 0.52194 0.5274 0.0
C366 C 0.45592 0.53008 0.54058 0.0
C367 C 0.44376 0.55943 0.53695 0.0
H368 H 0.08979 0.20177 0.16637 0.0
H369 H 0.97557 0.17943 0.12078 0.0
H370 H 0.06651 0.21023 0.24739 0.0
H371 H 0.95245 0.18477 0.2019 0.0
H372 H 0.91193 0.20041 0.34803 0.0
H373 H 0.93537 0.21007 0.26753 0.0
H374 H 0.04937 0.18403 0.31233 0.0
H375 H 0.02606 0.17753 0.39328 0.0
C376 C 0.05959 0.19888 0.17398 0.0
C377 C 0.03417 0.19068 0.13772 0.0
C378 C 0.04621 0.20328 0.22044 0.0
C379 C 0.00751 0.19786 0.23196 0.0
C380 C 0.98218 0.18991 0.1949 0.0
C381 C 0.99538 0.18657 0.14826 0.0
C382 C 0.94216 0.19763 0.34044 0.0
C383 C 0.9675 0.18899 0.3765 0.0
C384 C 0.95563 0.20272 0.29424 0.0
C385 C 0.99435 0.19749 0.28264 0.0
C386 C 0.01962 0.18902 0.31947 0.0
C387 C 0.00632 0.18501 0.36596 0.0
H388 H 0.97082 0.83491 0.39488 0.0
H389 H 0.08501 0.8119 0.35019 0.0
H390 H 0.94796 0.82936 0.3135 0.0
H391 H 0.06202 0.80323 0.26917 0.0
H392 H 0.0232 0.83495 0.12247 0.0
H393 H 0.04559 0.82925 0.20392 0.0
H394 H 0.93102 0.80401 0.24756 0.0
H395 H 0.90851 0.81276 0.16629 0.0
C396 C 0.99066 0.82759 0.36758 0.0
C397 C 0.02938 0.82332 0.37844 0.0
C398 C 0.97762 0.82415 0.32081 0.0
C399 C 0.00306 0.81598 0.28397 0.0
C400 C 0.04164 0.81039 0.29587 0.0
C401 C 0.05485 0.81489 0.34238 0.0
C402 C 0.00312 0.8278 0.14963 0.0
C403 C 0.96442 0.82375 0.13845 0.0
C404 C 0.0159 0.82425 0.19645 0.0
C405 C 0.99024 0.81618 0.2331 0.0
C406 C 0.9516 0.811 0.22097 0.0
C407 C 0.93865 0.81557 0.17434 0.0
H408 H 0.96896 0.78985 0.62691 0.0
H409 H 0.07143 0.84031 0.65567 0.0
H410 H 0.95447 0.78899 0.71265 0.0
H411 H 0.05737 0.83856 0.74129 0.0
H412 H 0.02993 0.78957 0.89117 0.0
H413 H 0.04514 0.78826 0.80557 0.0
H414 H 0.94431 0.83996 0.77543 0.0
H415 H 0.92959 0.84215 0.86079 0.0
C416 C 0.98849 0.8005 0.65153 0.0
C417 C 0.02121 0.81526 0.6347 0.0
C418 C 0.98018 0.80002 0.70036 0.0
C419 C 0.00497 0.81361 0.73309 0.0
C420 C 0.03803 0.82783 0.7165 0.0
C421 C 0.04588 0.82895 0.66764 0.0
C422 C 0.01106 0.80063 0.86624 0.0
C423 C 0.9787 0.81607 0.88255 0.0
C424 C 0.01978 0.79991 0.8175 0.0
C425 C 0.99571 0.81392 0.78439 0.0
C426 C 0.96309 0.82891 0.80051 0.0
C427 C 0.95487 0.83027 0.84923 0.0
H428 H 0.03626 0.15053 0.86878 0.0
H429 H 0.99715 0.24068 0.88143 0.0
H430 H 0.0215 0.15121 0.78416 0.0
H431 H 0.98179 0.24105 0.79631 0.0
H432 H 0.00144 0.23851 0.63242 0.0
H433 H 0.01519 0.23936 0.71789 0.0
H434 H 0.9651 0.15281 0.73267 0.0
H435 H 0.95188 0.1516 0.6476 0.0
C436 C 0.02434 0.17049 0.85365 0.0
C437 C 0.01792 0.19558 0.88207 0.0
C438 C 0.01569 0.17079 0.80508 0.0
C439 C 0.0004 0.19615 0.78362 0.0
C440 C 0.9939 0.22127 0.81184 0.0
C441 C 0.00247 0.22097 0.86064 0.0
C442 C 0.99337 0.21965 0.65388 0.0
C443 C 0.97567 0.19495 0.63299 0.0
C444 C 0.00103 0.22025 0.70288 0.0
C445 C 0.99128 0.19613 0.73192 0.0
C446 C 0.97341 0.17156 0.71111 0.0
C447 C 0.96571 0.17096 0.66228 0.0
H448 H 0.47575 0.69341 0.11592 0.0
H449 H 0.58968 0.68093 0.17083 0.0
H450 H 0.45209 0.70274 0.1956 0.0
H451 H 0.56591 0.68495 0.25136 0.0
H452 H 0.5216 0.69332 0.3974 0.0
H453 H 0.5452 0.70292 0.31776 0.0
H454 H 0.43161 0.68444 0.26185 0.0
H455 H 0.40785 0.68012 0.34234 0.0
C456 C 0.49586 0.69335 0.14536 0.0
C457 C 0.53481 0.68818 0.1372 0.0
C458 C 0.48213 0.69759 0.1917 0.0
C459 C 0.50654 0.69433 0.23162 0.0
C460 C 0.54574 0.68869 0.22278 0.0
C461 C 0.55963 0.68596 0.17625 0.0
C462 C 0.50152 0.69315 0.36794 0.0
C463 C 0.46262 0.68771 0.37604 0.0
C464 C 0.51521 0.69756 0.32162 0.0
C465 C 0.49086 0.69421 0.28168 0.0
C466 C 0.45173 0.68827 0.29046 0.0
C467 C 0.43784 0.68536 0.33697 0.0
H468 H 0.58979 0.33162 0.342 0.0
H469 H 0.47578 0.31929 0.39666 0.0
H470 H 0.56617 0.32744 0.26148 0.0
H471 H 0.45224 0.30974 0.317 0.0
H472 H 0.40821 0.3317 0.16992 0.0
H473 H 0.43176 0.3275 0.2505 0.0
H474 H 0.54567 0.30963 0.19508 0.0
H475 H 0.52224 0.31924 0.11543 0.0
C476 C 0.55975 0.32659 0.33652 0.0
C477 C 0.53486 0.32446 0.37549 0.0
C478 C 0.54593 0.32375 0.28998 0.0
C479 C 0.50675 0.31807 0.28107 0.0
C480 C 0.48228 0.31491 0.32093 0.0
C481 C 0.49592 0.31928 0.36727 0.0
C482 C 0.43823 0.32664 0.17544 0.0
C483 C 0.46316 0.32447 0.1365 0.0
C484 C 0.45201 0.32379 0.22201 0.0
C485 C 0.49117 0.31807 0.23096 0.0
C486 C 0.51566 0.31486 0.19113 0.0
C487 C 0.50207 0.31925 0.14478 0.0
H488 H 0.45616 0.35901 0.86441 0.0
H489 H 0.49789 0.26983 0.88132 0.0
H490 H 0.47214 0.35742 0.78026 0.0
H491 H 0.51448 0.26855 0.79648 0.0
H492 H 0.50008 0.27026 0.63063 0.0
H493 H 0.48387 0.2691 0.71558 0.0
H494 H 0.5305 0.35665 0.73244 0.0
H495 H 0.54612 0.35814 0.64817 0.0
C496 C 0.46886 0.33904 0.85032 0.0
C497 C 0.47585 0.31456 0.87989 0.0
C498 C 0.47819 0.33822 0.80197 0.0
C499 C 0.49481 0.31294 0.78179 0.0
C500 C 0.50144 0.28827 0.81101 0.0
C501 C 0.49215 0.28909 0.85964 0.0
C502 C 0.50689 0.28925 0.65248 0.0
C503 C 0.52421 0.31435 0.63236 0.0
C504 C 0.4978 0.28849 0.70117 0.0
C505 C 0.5057 0.31286 0.73059 0.0
C506 C 0.52346 0.33771 0.71056 0.0
C507 C 0.53256 0.33848 0.66215 0.0
H508 H 0.49977 0.74269 0.88198 0.0
H509 H 0.54355 0.65412 0.86472 0.0
H510 H 0.48309 0.74384 0.79715 0.0
H511 H 0.52747 0.65559 0.78058 0.0
H512 H 0.49671 0.74251 0.63121 0.0
H513 H 0.51326 0.74382 0.71607 0.0
H514 H 0.46912 0.65552 0.73285 0.0
H515 H 0.45317 0.6539 0.64867 0.0
C516 C 0.50596 0.72354 0.86022 0.0
C517 C 0.52283 0.69826 0.8804 0.0
C518 C 0.49661 0.72429 0.81159 0.0
C519 C 0.50376 0.69974 0.78227 0.0
C520 C 0.521 0.67468 0.80236 0.0
C521 C 0.53038 0.67393 0.85071 0.0
C522 C 0.49053 0.72339 0.65302 0.0
C523 C 0.47379 0.69805 0.63289 0.0
C524 C 0.49982 0.72422 0.70168 0.0
C525 C 0.49271 0.6997 0.73106 0.0
C526 C 0.47556 0.67459 0.71102 0.0
C527 C 0.46625 0.67375 0.66265 0.0
H528 H 0.35847 0.2469 0.97315 0.0
H529 H 0.31294 0.32876 0.02776 0.0
H530 H 0.29419 0.22669 0.96844 0.0
H531 H 0.24837 0.30809 0.02478 0.0
H532 H 0.13349 0.27095 0.97969 0.0
H533 H 0.19741 0.29205 0.97514 0.0
H534 H 0.24573 0.20867 0.01927 0.0
H535 H 0.1818 0.18727 0.0221 0.0
C536 C 0.33467 0.26061 0.98425 0.0
C537 C 0.34088 0.28943 0.00108 0.0
C538 C 0.29774 0.2489 0.98186 0.0
C539 C 0.26596 0.26554 -0.00324 0.0
C540 C 0.27206 0.29468 0.01249 0.0
C541 C 0.3091 0.30656 0.01436 0.0
C542 C 0.15777 0.25702 0.98808 0.0
C543 C 0.15245 0.22736 0.00128 0.0
C544 C 0.19448 0.26923 0.98581 0.0
C545 C 0.22688 0.2522 -0.00291 0.0
C546 C 0.22158 0.2224 0.00959 0.0
C547 C 0.18484 0.21009 0.0114 0.0
H548 H 0.64027 0.7656 0.97379 0.0
H549 H 0.68546 0.68399 0.02975 0.0
H550 H 0.70457 0.7858 0.96955 0.0
H551 H 0.75005 0.70466 0.02724 0.0
H552 H 0.86528 0.74188 0.98271 0.0
H553 H 0.80146 0.72056 0.97818 0.0
H554 H 0.7526 0.80407 0.02069 0.0
H555 H 0.81639 0.82567 0.02349 0.0
C556 C 0.66401 0.75194 0.9853 0.0
C557 C 0.65769 0.72319 0.00236 0.0
C558 C 0.70094 0.76365 0.98317 0.0
C559 C 0.73264 0.74709 -0.00139 0.0
C560 C 0.72644 0.718 0.01456 0.0
C561 C 0.68939 0.70613 0.01616 0.0
C562 C 0.84091 0.75579 0.99077 0.0
C563 C 0.84604 0.78555 0.00344 0.0
C564 C 0.80424 0.74345 0.9885 0.0
C565 C 0.77171 0.76046 -0.00076 0.0
C566 C 0.77685 0.79035 0.01138 0.0
C567 C 0.81352 0.80277 0.01319 0.0
H568 H 0.13126 0.74043 0.52867 0.0
H569 H 0.18024 0.8243 0.48842 0.0
H570 H 0.19507 0.71901 0.53266 0.0
H571 H 0.24396 0.80261 0.49072 0.0
H572 H 0.35599 0.76444 0.53909 0.0
H573 H 0.29157 0.78443 0.54263 0.0
H574 H 0.24696 0.70326 0.48395 0.0
H575 H 0.31172 0.6828 0.48211 0.0
C576 C 0.15563 0.75433 0.52054 0.0
C577 C 0.15053 0.78417 0.50832 0.0
C578 C 0.19229 0.74193 0.52252 0.0
C579 C 0.22483 0.75898 0.51196 0.0
C580 C 0.2197 0.78887 0.49995 0.0
C581 C 0.18306 0.80134 0.4984 0.0
C582 C 0.33243 0.75073 0.52721 0.0
C583 C 0.33905 0.72205 0.51005 0.0
C584 C 0.29542 0.76232 0.52892 0.0
C585 C 0.26395 0.7457 0.51296 0.0
C586 C 0.27041 0.71665 0.49697 0.0
C587 C 0.30756 0.7049 0.49578 0.0
H588 H 0.64054 0.24657 0.53643 0.0
H589 H 0.68568 0.32855 0.48185 0.0
H590 H 0.70478 0.22621 0.5397 0.0
H591 H 0.75022 0.30775 0.48342 0.0
H592 H 0.86527 0.27016 0.52847 0.0
H593 H 0.80149 0.2915 0.53252 0.0
H594 H 0.75282 0.20833 0.48795 0.0
H595 H 0.81663 0.18667 0.48558 0.0
C596 C 0.66425 0.26028 0.52502 0.0
C597 C 0.65794 0.28918 0.50866 0.0
C598 C 0.70115 0.24848 0.52656 0.0
C599 C 0.7328 0.26512 0.51127 0.0
C600 C 0.72662 0.29434 0.49596 0.0
C601 C 0.6896 0.30629 0.49492 0.0
C602 C 0.84096 0.25633 0.51976 0.0
C603 C 0.84615 0.22663 0.50673 0.0
C604 C 0.80432 0.26868 0.52177 0.0
C605 C 0.77185 0.25176 0.51041 0.0
C606 C 0.77703 0.22197 0.49773 0.0
C607 C 0.8137 0.20952 0.49616 0.0
loop_
_geom_bond_atom_site_label_1
_geom_bond_atom_site_label_2
_geom_bond_distance
_geom_bond_site_symmetry_2
_ccdc_geom_bond_type
Mn0 O5 2.095 1_554 S
Mn0 O15 2.162 . S
Mn0 O16 2.297 . S
Mn0 O24 2.385 . S
Mn0 O25 2.209 . S
Mn0 O26 2.094 . S
Mn1 O6 2.121 1_554 S
Mn1 N8 2.257 1_455 S
Mn1 N17 2.282 . S
Mn1 O25 2.215 . S
Mn1 O27 2.117 . S
C2 O24 1.234 . S
C2 O25 1.283 . S
C3 O15 1.281 . S
C3 O16 1.236 . S
C4 O26 1.240 . S
C4 O27 1.264 . S
O5 Mn0 2.095 1_556 S
O5 C14 1.250 . S
O6 Mn1 2.121 1_556 S
O6 C14 1.258 . S
C7 N8 1.326 . S
C7 C11 1.460 . S
C7 H13 0.929 1_554 S
N8 Mn1 2.257 1_655 S
N8 C7 1.326 . S
N8 C12 1.362 . S
C9 C10 1.258 . S
C9 C12 1.431 . S
C9 C29 1.449 . S
C10 C9 1.258 . S
C10 C11 1.477 . S
C10 H30 0.931 . S
C11 C7 1.460 . S
C11 C10 1.477 . S
C11 H31 0.930 . S
C12 N8 1.362 . S
C12 C9 1.431 . S
C12 C22 1.476 1_655 S
H13 C7 0.929 1_556 S
C14 O5 1.250 . S
C14 O6 1.258 . S
O15 Mn0 2.162 . S
O15 C3 1.281 . S
O16 Mn0 2.297 . S
O16 C3 1.236 . S
N17 Mn1 2.282 . S
N17 C18 1.328 . S
N17 C22 1.318 . S
C18 N17 1.328 . S
C18 C19 1.457 . S
C18 H23 0.929 . S
C19 C18 1.457 . S
C19 C20 1.291 . S
C19 H32 0.931 . S
C20 C19 1.291 . S
C20 C21 1.373 . S
C20 H33 0.929 . S
C21 C20 1.373 . S
C21 C22 1.396 . S
C21 C28 1.403 1_455 S
C22 C12 1.476 1_455 S
C22 N17 1.318 . S
C22 C21 1.396 . S
H23 C18 0.929 . S
O24 Mn0 2.385 . S
O24 C2 1.234 . S
O25 Mn0 2.209 . S
O25 Mn1 2.215 . S
O25 C2 1.283 . S
O26 Mn0 2.094 . S
O26 C4 1.240 . S
O27 Mn1 2.117 . S
O27 C4 1.264 . S
C28 C21 1.403 1_655 S
C28 C29 1.399 . S
C28 H34 0.929 . S
C29 C9 1.449 . S
C29 C28 1.399 . S
C29 H35 0.930 . S
H30 C10 0.931 . S
H31 C11 0.930 . S
H32 C19 0.931 . S
H33 C20 0.929 . S
H34 C28 0.929 . S
H35 C29 0.930 . S
Mn36 O41 2.095 1_554 S
Mn36 O51 2.162 . S
Mn36 O52 2.297 . S
Mn36 O60 2.385 . S
Mn36 O61 2.209 . S
Mn36 O62 2.094 . S
Mn37 O42 2.121 1_554 S
Mn37 N44 2.257 1_655 S
Mn37 N53 2.282 . S
Mn37 O61 2.215 . S
Mn37 O63 2.117 . S
C38 O60 1.234 . S
C38 O61 1.283 . S
C39 O51 1.281 . S
C39 O52 1.236 . S
C40 O62 1.240 . S
C40 O63 1.264 . S
O41 Mn36 2.095 1_556 S
O41 C50 1.250 . S
O42 Mn37 2.121 1_556 S
O42 C50 1.258 . S
C43 N44 1.326 . S
C43 C47 1.460 . S
C43 H49 0.929 1_554 S
N44 Mn37 2.257 1_455 S
N44 C43 1.326 . S
N44 C48 1.362 . S
C45 C46 1.258 . S
C45 C48 1.431 . S
C45 C65 1.449 . S
C46 C45 1.258 . S
C46 C47 1.477 . S
C46 H66 0.931 . S
C47 C43 1.460 . S
C47 C46 1.477 . S
C47 H67 0.930 . S
C48 N44 1.362 . S
C48 C45 1.431 . S
C48 C58 1.476 1_455 S
H49 C43 0.929 1_556 S
C50 O41 1.250 . S
C50 O42 1.258 . S
O51 Mn36 2.162 . S
O51 C39 1.281 . S
O52 Mn36 2.297 . S
O52 C39 1.236 . S
N53 Mn37 2.282 . S
N53 C54 1.328 . S
N53 C58 1.318 . S
C54 N53 1.328 . S
C54 C55 1.457 . S
C54 H59 0.929 . S
C55 C54 1.457 . S
C55 C56 1.291 . S
C55 H68 0.931 . S
C56 C55 1.291 . S
C56 C57 1.373 . S
C56 H69 0.929 . S
C57 C56 1.373 . S
C57 C58 1.396 . S
C57 C64 1.403 1_655 S
C58 C48 1.476 1_655 S
C58 N53 1.318 . S
C58 C57 1.396 . S
H59 C54 0.929 . S
O60 Mn36 2.385 . S
O60 C38 1.234 . S
O61 Mn36 2.209 . S
O61 Mn37 2.215 . S
O61 C38 1.283 . S
O62 Mn36 2.094 . S
O62 C40 1.240 . S
O63 Mn37 2.117 . S
O63 C40 1.264 . S
C64 C57 1.403 1_455 S
C64 C65 1.399 . S
C64 H70 0.929 . S
C65 C45 1.449 . S
C65 C64 1.399 . S
C65 H71 0.930 . S
H66 C46 0.931 . S
H67 C47 0.930 . S
H68 C55 0.931 . S
H69 C56 0.929 . S
H70 C64 0.929 . S
H71 C65 0.930 . S
Mn72 O77 2.095 . S
Mn72 O87 2.162 . S
Mn72 O88 2.297 . S
Mn72 O96 2.385 . S
Mn72 O97 2.209 . S
Mn72 O98 2.094 . S
Mn73 O78 2.121 . S
Mn73 N80 2.257 1_455 S
Mn73 N89 2.282 . S
Mn73 O97 2.215 . S
Mn73 O99 2.117 . S
C74 O96 1.234 . S
C74 O97 1.283 . S
C75 O87 1.281 . S
C75 O88 1.236 . S
C76 O98 1.240 . S
C76 O99 1.264 . S
O77 Mn72 2.095 . S
O77 C86 1.250 . S
O78 Mn73 2.121 . S
O78 C86 1.258 . S
C79 N80 1.326 . S
C79 C83 1.460 . S
C79 H85 0.929 . S
N80 Mn73 2.257 1_655 S
N80 C79 1.326 . S
N80 C84 1.362 . S
C81 C82 1.258 . S
C81 C84 1.431 . S
C81 C101 1.449 . S
C82 C81 1.258 . S
C82 C83 1.477 . S
C82 H102 0.931 . S
C83 C79 1.460 . S
C83 C82 1.477 . S
C83 H103 0.930 . S
C84 N80 1.362 . S
C84 C81 1.431 . S
C84 C94 1.476 1_655 S
H85 C79 0.929 . S
C86 O77 1.250 . S
C86 O78 1.258 . S
O87 Mn72 2.162 . S
O87 C75 1.281 . S
O88 Mn72 2.297 . S
O88 C75 1.236 . S
N89 Mn73 2.282 . S
N89 C90 1.328 . S
N89 C94 1.318 . S
C90 N89 1.328 . S
C90 C91 1.457 . S
C90 H95 0.929 . S
C91 C90 1.457 . S
C91 C92 1.291 . S
C91 H104 0.931 . S
C92 C91 1.291 . S
C92 C93 1.373 . S
C92 H105 0.929 . S
C93 C92 1.373 . S
C93 C94 1.396 . S
C93 C100 1.403 1_455 S
C94 C84 1.476 1_455 S
C94 N89 1.318 . S
C94 C93 1.396 . S
H95 C90 0.929 . S
O96 Mn72 2.385 . S
O96 C74 1.234 . S
O97 Mn72 2.209 . S
O97 Mn73 2.215 . S
O97 C74 1.283 . S
O98 Mn72 2.094 . S
O98 C76 1.240 . S
O99 Mn73 2.117 . S
O99 C76 1.264 . S
C100 C93 1.403 1_655 S
C100 C101 1.399 . S
C100 H106 0.929 . S
C101 C81 1.449 . S
C101 C100 1.399 . S
C101 H107 0.930 . S
H102 C82 0.931 . S
H103 C83 0.930 . S
H104 C91 0.931 . S
H105 C92 0.929 . S
H106 C100 0.929 . S
H107 C101 0.930 . S
Mn108 O113 2.095 . S
Mn108 O123 2.162 . S
Mn108 O124 2.297 . S
Mn108 O132 2.385 . S
Mn108 O133 2.209 . S
Mn108 O134 2.094 . S
Mn109 O114 2.121 . S
Mn109 N116 2.257 1_655 S
Mn109 N125 2.282 . S
Mn109 O133 2.215 . S
Mn109 O135 2.117 . S
C110 O132 1.234 . S
C110 O133 1.283 . S
C111 O123 1.281 . S
C111 O124 1.236 . S
C112 O134 1.240 . S
C112 O135 1.264 . S
O113 Mn108 2.095 . S
O113 C122 1.250 . S
O114 Mn109 2.121 . S
O114 C122 1.258 . S
C115 N116 1.326 . S
C115 C119 1.460 . S
C115 H121 0.929 . S
N116 Mn109 2.257 1_455 S
N116 C115 1.326 . S
N116 C120 1.362 . S
C117 C118 1.258 . S
C117 C120 1.431 . S
C117 C137 1.449 . S
C118 C117 1.258 . S
C118 C119 1.477 . S
C118 H138 0.931 . S
C119 C115 1.460 . S
C119 C118 1.477 . S
C119 H139 0.930 . S
C120 N116 1.362 . S
C120 C117 1.431 . S
C120 C130 1.476 1_455 S
H121 C115 0.929 . S
C122 O113 1.250 . S
C122 O114 1.258 . S
O123 Mn108 2.162 . S
O123 C111 1.281 . S
O124 Mn108 2.297 . S
O124 C111 1.236 . S
N125 Mn109 2.282 . S
N125 C126 1.328 . S
N125 C130 1.318 . S
C126 N125 1.328 . S
C126 C127 1.457 . S
C126 H131 0.929 . S
C127 C126 1.457 . S
C127 C128 1.291 . S
C127 H140 0.931 . S
C128 C127 1.291 . S
C128 C129 1.373 . S
C128 H141 0.929 . S
C129 C128 1.373 . S
C129 C130 1.396 . S
C129 C136 1.403 1_655 S
C130 C120 1.476 1_655 S
C130 N125 1.318 . S
C130 C129 1.396 . S
H131 C126 0.929 . S
O132 Mn108 2.385 . S
O132 C110 1.234 . S
O133 Mn108 2.209 . S
O133 Mn109 2.215 . S
O133 C110 1.283 . S
O134 Mn108 2.094 . S
O134 C112 1.240 . S
O135 Mn109 2.117 . S
O135 C112 1.264 . S
C136 C129 1.403 1_455 S
C136 C137 1.399 . S
C136 H142 0.929 . S
C137 C117 1.449 . S
C137 C136 1.399 . S
C137 H143 0.930 . S
H138 C118 0.931 . S
H139 C119 0.930 . S
H140 C127 0.931 . S
H141 C128 0.929 . S
H142 C136 0.929 . S
H143 C137 0.930 . S
Mn144 O149 2.095 1_554 S
Mn144 O159 2.162 . S
Mn144 O160 2.297 . S
Mn144 O168 2.385 . S
Mn144 O169 2.209 . S
Mn144 O170 2.094 . S
Mn145 O150 2.121 1_554 S
Mn145 N152 2.257 . S
Mn145 N161 2.282 . S
Mn145 O169 2.215 . S
Mn145 O171 2.117 . S
C146 O168 1.234 . S
C146 O169 1.283 . S
C147 O159 1.281 . S
C147 O160 1.236 . S
C148 O170 1.240 . S
C148 O171 1.264 . S
O149 Mn144 2.095 1_556 S
O149 C158 1.250 . S
O150 Mn145 2.121 1_556 S
O150 C158 1.258 . S
C151 N152 1.326 . S
C151 C155 1.460 . S
C151 H157 0.929 1_554 S
N152 Mn145 2.257 . S
N152 C151 1.326 . S
N152 C156 1.362 . S
C153 C154 1.258 . S
C153 C156 1.431 . S
C153 C173 1.449 . S
C154 C153 1.258 . S
C154 C155 1.477 . S
C154 H174 0.931 . S
C155 C151 1.460 . S
C155 C154 1.477 . S
C155 H175 0.930 . S
C156 N152 1.362 . S
C156 C153 1.431 . S
C156 C166 1.476 . S
H157 C151 0.929 1_556 S
C158 O149 1.250 . S
C158 O150 1.258 . S
O159 Mn144 2.162 . S
O159 C147 1.281 . S
O160 Mn144 2.297 . S
O160 C147 1.236 . S
N161 Mn145 2.282 . S
N161 C162 1.328 . S
N161 C166 1.318 . S
C162 N161 1.328 . S
C162 C163 1.457 . S
C162 H167 0.929 . S
C163 C162 1.457 . S
C163 C164 1.291 . S
C163 H176 0.931 . S
C164 C163 1.291 . S
C164 C165 1.373 . S
C164 H177 0.929 . S
C165 C164 1.373 . S
C165 C166 1.396 . S
C165 C172 1.403 . S
C166 C156 1.476 . S
C166 N161 1.318 . S
C166 C165 1.396 . S
H167 C162 0.929 . S
O168 Mn144 2.385 . S
O168 C146 1.234 . S
O169 Mn144 2.209 . S
O169 Mn145 2.215 . S
O169 C146 1.283 . S
O170 Mn144 2.094 . S
O170 C148 1.240 . S
O171 Mn145 2.117 . S
O171 C148 1.264 . S
C172 C165 1.403 . S
C172 C173 1.399 . S
C172 H178 0.929 . S
C173 C153 1.449 . S
C173 C172 1.399 . S
C173 H179 0.930 . S
H174 C154 0.931 . S
H175 C155 0.930 . S
H176 C163 0.931 . S
H177 C164 0.929 . S
H178 C172 0.929 . S
H179 C173 0.930 . S
Mn180 O185 2.095 1_554 S
Mn180 O195 2.162 . S
Mn180 O196 2.297 . S
Mn180 O204 2.385 . S
Mn180 O205 2.209 . S
Mn180 O206 2.094 . S
Mn181 O186 2.121 1_554 S
Mn181 N188 2.257 . S
Mn181 N197 2.282 . S
Mn181 O205 2.215 . S
Mn181 O207 2.117 . S
C182 O204 1.234 . S
C182 O205 1.283 . S
C183 O195 1.281 . S
C183 O196 1.236 . S
C184 O206 1.240 . S
C184 O207 1.264 . S
O185 Mn180 2.095 1_556 S
O185 C194 1.250 . S
O186 Mn181 2.121 1_556 S
O186 C194 1.258 . S
C187 N188 1.326 . S
C187 C191 1.460 . S
C187 H193 0.929 1_554 S
N188 Mn181 2.257 . S
N188 C187 1.326 . S
N188 C192 1.362 . S
C189 C190 1.258 . S
C189 C192 1.431 . S
C189 C209 1.449 . S
C190 C189 1.258 . S
C190 C191 1.477 . S
C190 H210 0.931 . S
C191 C187 1.460 . S
C191 C190 1.477 . S
C191 H211 0.930 . S
C192 N188 1.362 . S
C192 C189 1.431 . S
C192 C202 1.476 . S
H193 C187 0.929 1_556 S
C194 O185 1.250 . S
C194 O186 1.258 . S
O195 Mn180 2.162 . S
O195 C183 1.281 . S
O196 Mn180 2.297 . S
O196 C183 1.236 . S
N197 Mn181 2.282 . S
N197 C198 1.328 . S
N197 C202 1.318 . S
C198 N197 1.328 . S
C198 C199 1.457 . S
C198 H203 0.929 . S
C199 C198 1.457 . S
C199 C200 1.291 . S
C199 H212 0.931 . S
C200 C199 1.291 . S
C200 C201 1.373 . S
C200 H213 0.929 . S
C201 C200 1.373 . S
C201 C202 1.396 . S
C201 C208 1.403 . S
C202 C192 1.476 . S
C202 N197 1.318 . S
C202 C201 1.396 . S
H203 C198 0.929 . S
O204 Mn180 2.385 . S
O204 C182 1.234 . S
O205 Mn180 2.209 . S
O205 Mn181 2.215 . S
O205 C182 1.283 . S
O206 Mn180 2.094 . S
O206 C184 1.240 . S
O207 Mn181 2.117 . S
O207 C184 1.264 . S
C208 C201 1.403 . S
C208 C209 1.399 . S
C208 H214 0.929 . S
C209 C189 1.449 . S
C209 C208 1.399 . S
C209 H215 0.930 . S
H210 C190 0.931 . S
H211 C191 0.930 . S
H212 C199 0.931 . S
H213 C200 0.929 . S
H214 C208 0.929 . S
H215 C209 0.930 . S
Mn216 O221 2.095 . S
Mn216 O231 2.162 . S
Mn216 O232 2.297 . S
Mn216 O240 2.385 . S
Mn216 O241 2.209 . S
Mn216 O242 2.094 . S
Mn217 O222 2.121 . S
Mn217 N224 2.257 . S
Mn217 N233 2.282 . S
Mn217 O241 2.215 . S
Mn217 O243 2.117 . S
C218 O240 1.234 . S
C218 O241 1.283 . S
C219 O231 1.281 . S
C219 O232 1.236 . S
C220 O242 1.240 . S
C220 O243 1.264 . S
O221 Mn216 2.095 . S
O221 C230 1.250 . S
O222 Mn217 2.121 . S
O222 C230 1.258 . S
C223 N224 1.326 . S
C223 C227 1.460 . S
C223 H229 0.929 . S
N224 Mn217 2.257 . S
N224 C223 1.326 . S
N224 C228 1.362 . S
C225 C226 1.258 . S
C225 C228 1.431 . S
C225 C245 1.449 . S
C226 C225 1.258 . S
C226 C227 1.477 . S
C226 H246 0.931 . S
C227 C223 1.460 . S
C227 C226 1.477 . S
C227 H247 0.930 . S
C228 N224 1.362 . S
C228 C225 1.431 . S
C228 C238 1.476 . S
H229 C223 0.929 . S
C230 O221 1.250 . S
C230 O222 1.258 . S
O231 Mn216 2.162 . S
O231 C219 1.281 . S
O232 Mn216 2.297 . S
O232 C219 1.236 . S
N233 Mn217 2.282 . S
N233 C234 1.328 . S
N233 C238 1.318 . S
C234 N233 1.328 . S
C234 C235 1.457 . S
C234 H239 0.929 . S
C235 C234 1.457 . S
C235 C236 1.291 . S
C235 H248 0.931 . S
C236 C235 1.291 . S
C236 C237 1.373 . S
C236 H249 0.929 . S
C237 C236 1.373 . S
C237 C238 1.396 . S
C237 C244 1.403 . S
C238 C228 1.476 . S
C238 N233 1.318 . S
C238 C237 1.396 . S
H239 C234 0.929 . S
O240 Mn216 2.385 . S
O240 C218 1.234 . S
O241 Mn216 2.209 . S
O241 Mn217 2.215 . S
O241 C218 1.283 . S
O242 Mn216 2.094 . S
O242 C220 1.240 . S
O243 Mn217 2.117 . S
O243 C220 1.264 . S
C244 C237 1.403 . S
C244 C245 1.399 . S
C244 H250 0.929 . S
C245 C225 1.449 . S
C245 C244 1.399 . S
C245 H251 0.930 . S
H246 C226 0.931 . S
H247 C227 0.930 . S
H248 C235 0.931 . S
H249 C236 0.929 . S
H250 C244 0.929 . S
H251 C245 0.930 . S
Mn252 O257 2.095 . S
Mn252 O267 2.162 . S
Mn252 O268 2.297 . S
Mn252 O276 2.385 . S
Mn252 O277 2.209 . S
Mn252 O278 2.094 . S
Mn253 O258 2.121 . S
Mn253 N260 2.257 . S
Mn253 N269 2.282 . S
Mn253 O277 2.215 . S
Mn253 O279 2.117 . S
C254 O276 1.234 . S
C254 O277 1.283 . S
C255 O267 1.281 . S
C255 O268 1.236 . S
C256 O278 1.240 . S
C256 O279 1.264 . S
O257 Mn252 2.095 . S
O257 C266 1.250 . S
O258 Mn253 2.121 . S
O258 C266 1.258 . S
C259 N260 1.326 . S
C259 C263 1.460 . S
C259 H265 0.929 . S
N260 Mn253 2.257 . S
N260 C259 1.326 . S
N260 C264 1.362 . S
C261 C262 1.258 . S
C261 C264 1.431 . S
C261 C281 1.449 . S
C262 C261 1.258 . S
C262 C263 1.477 . S
C262 H282 0.931 . S
C263 C259 1.460 . S
C263 C262 1.477 . S
C263 H283 0.930 . S
C264 N260 1.362 . S
C264 C261 1.431 . S
C264 C274 1.476 . S
H265 C259 0.929 . S
C266 O257 1.250 . S
C266 O258 1.258 . S
O267 Mn252 2.162 . S
O267 C255 1.281 . S
O268 Mn252 2.297 . S
O268 C255 1.236 . S
N269 Mn253 2.282 . S
N269 C270 1.328 . S
N269 C274 1.318 . S
C270 N269 1.328 . S
C270 C271 1.457 . S
C270 H275 0.929 . S
C271 C270 1.457 . S
C271 C272 1.291 . S
C271 H284 0.931 . S
C272 C271 1.291 . S
C272 C273 1.373 . S
C272 H285 0.929 . S
C273 C272 1.373 . S
C273 C274 1.396 . S
C273 C280 1.403 . S
C274 C264 1.476 . S
C274 N269 1.318 . S
C274 C273 1.396 . S
H275 C270 0.929 . S
O276 Mn252 2.385 . S
O276 C254 1.234 . S
O277 Mn252 2.209 . S
O277 Mn253 2.215 . S
O277 C254 1.283 . S
O278 Mn252 2.094 . S
O278 C256 1.240 . S
O279 Mn253 2.117 . S
O279 C256 1.264 . S
C280 C273 1.403 . S
C280 C281 1.399 . S
C280 H286 0.929 . S
C281 C261 1.449 . S
C281 C280 1.399 . S
C281 H287 0.930 . S
H282 C262 0.931 . S
H283 C263 0.930 . S
H284 C271 0.931 . S
H285 C272 0.929 . S
H286 C280 0.929 . S
H287 C281 0.930 . S
H288 C296 0.950 . S
H289 C301 0.950 . S
H290 C298 0.950 . S
H291 C300 0.950 . S
H292 C302 0.950 . S
H293 C304 0.950 . S
H294 C306 0.950 . S
H295 C307 0.950 . S
C296 H288 0.950 . S
C296 C297 1.386 1_556 S
C296 C298 1.391 . S
C297 C296 1.386 1_554 S
C297 C301 1.393 . S
C298 H290 0.950 . S
C298 C296 1.391 . S
C298 C299 1.400 1_556 S
C299 C298 1.400 1_554 S
C299 C300 1.398 . S
C299 C305 1.491 1_665 S
C300 H291 0.950 . S
C300 C299 1.398 . S
C300 C301 1.391 . S
C301 H289 0.950 . S
C301 C297 1.393 . S
C301 C300 1.391 . S
C302 H292 0.950 . S
C302 C303 1.386 . S
C302 C304 1.391 . S
C303 C302 1.386 . S
C303 C307 1.393 1_554 S
C304 H293 0.950 . S
C304 C302 1.391 . S
C304 C305 1.400 . S
C305 C299 1.491 1_445 S
C305 C304 1.400 . S
C305 C306 1.398 1_554 S
C306 H294 0.950 . S
C306 C305 1.398 1_556 S
C306 C307 1.391 . S
C307 H295 0.950 . S
C307 C303 1.393 1_556 S
C307 C306 1.391 . S
H308 C316 0.950 1_655 S
H309 C321 0.950 . S
H310 C318 0.950 . S
H311 C320 0.950 . S
H312 C322 0.950 1_455 S
H313 C324 0.950 . S
H314 C326 0.950 . S
H315 C327 0.950 . S
C316 H308 0.950 1_455 S
C316 C317 1.386 . S
C316 C318 1.391 1_455 S
C317 C316 1.386 . S
C317 C321 1.393 . S
C318 H310 0.950 . S
C318 C316 1.391 1_655 S
C318 C319 1.400 1_655 S
C319 C318 1.400 1_455 S
C319 C320 1.398 . S
C319 C325 1.491 1_465 S
C320 H311 0.950 . S
C320 C319 1.398 . S
C320 C321 1.391 . S
C321 H309 0.950 . S
C321 C317 1.393 . S
C321 C320 1.391 . S
C322 H312 0.950 1_655 S
C322 C323 1.386 . S
C322 C324 1.391 1_655 S
C323 C322 1.386 . S
C323 C327 1.393 . S
C324 H313 0.950 . S
C324 C322 1.391 1_455 S
C324 C325 1.400 1_455 S
C325 C319 1.491 1_645 S
C325 C324 1.400 1_655 S
C325 C326 1.398 . S
C326 H314 0.950 . S
C326 C325 1.398 . S
C326 C327 1.391 . S
C327 H315 0.950 . S
C327 C323 1.393 . S
C327 C326 1.391 . S
H328 C336 0.950 . S
H329 C341 0.950 1_556 S
H330 C338 0.950 . S
H331 C340 0.950 1_556 S
H332 C342 0.950 1_556 S
H333 C344 0.950 1_556 S
H334 C346 0.950 . S
H335 C347 0.950 . S
C336 H328 0.950 . S
C336 C337 1.386 . S
C336 C338 1.391 . S
C337 C336 1.386 . S
C337 C341 1.393 . S
C338 H330 0.950 . S
C338 C336 1.391 . S
C338 C339 1.400 . S
C339 C338 1.400 . S
C339 C340 1.398 . S
C339 C345 1.491 . S
C340 H331 0.950 1_554 S
C340 C339 1.398 . S
C340 C341 1.391 . S
C341 H329 0.950 1_554 S
C341 C337 1.393 . S
C341 C340 1.391 . S
C342 H332 0.950 1_554 S
C342 C343 1.386 . S
C342 C344 1.391 . S
C343 C342 1.386 . S
C343 C347 1.393 . S
C344 H333 0.950 1_554 S
C344 C342 1.391 . S
C344 C345 1.400 . S
C345 C339 1.491 . S
C345 C344 1.400 . S
C345 C346 1.398 . S
C346 H334 0.950 . S
C346 C345 1.398 . S
C346 C347 1.391 . S
C347 H335 0.950 . S
C347 C343 1.393 . S
C347 C346 1.391 . S
H348 C356 0.950 . S
H349 C361 0.950 . S
H350 C358 0.950 . S
H351 C360 0.950 . S
H352 C362 0.950 . S
H353 C364 0.950 . S
H354 C366 0.950 . S
H355 C367 0.950 . S
C356 H348 0.950 . S
C356 C357 1.386 . S
C356 C358 1.391 . S
C357 C356 1.386 . S
C357 C361 1.393 . S
C358 H350 0.950 . S
C358 C356 1.391 . S
C358 C359 1.400 . S
C359 C358 1.400 . S
C359 C360 1.398 . S
C359 C365 1.491 . S
C360 H351 0.950 . S
C360 C359 1.398 . S
C360 C361 1.391 . S
C361 H349 0.950 . S
C361 C357 1.393 . S
C361 C360 1.391 . S
C362 H352 0.950 . S
C362 C363 1.386 . S
C362 C364 1.391 . S
C363 C362 1.386 . S
C363 C367 1.393 . S
C364 H353 0.950 . S
C364 C362 1.391 . S
C364 C365 1.400 . S
C365 C359 1.491 . S
C365 C364 1.400 . S
C365 C366 1.398 . S
C366 H354 0.950 . S
C366 C365 1.398 . S
C366 C367 1.391 . S
C367 H355 0.950 . S
C367 C363 1.393 . S
C367 C366 1.391 . S
H368 C376 0.950 . S
H369 C381 0.950 . S
H370 C378 0.950 . S
H371 C380 0.950 . S
H372 C382 0.950 . S
H373 C384 0.950 . S
H374 C386 0.950 . S
H375 C387 0.950 . S
C376 H368 0.950 . S
C376 C377 1.386 . S
C376 C378 1.391 . S
C377 C376 1.386 . S
C377 C381 1.393 1_455 S
C378 H370 0.950 . S
C378 C376 1.391 . S
C378 C379 1.400 . S
C379 C378 1.400 . S
C379 C380 1.398 1_455 S
C379 C385 1.491 1_455 S
C380 H371 0.950 . S
C380 C379 1.398 1_655 S
C380 C381 1.391 . S
C381 H369 0.950 . S
C381 C377 1.393 1_655 S
C381 C380 1.391 . S
C382 H372 0.950 . S
C382 C383 1.386 . S
C382 C384 1.391 . S
C383 C382 1.386 . S
C383 C387 1.393 1_655 S
C384 H373 0.950 . S
C384 C382 1.391 . S
C384 C385 1.400 . S
C385 C379 1.491 1_655 S
C385 C384 1.400 . S
C385 C386 1.398 1_655 S
C386 H374 0.950 . S
C386 C385 1.398 1_455 S
C386 C387 1.391 . S
C387 H375 0.950 . S
C387 C383 1.393 1_455 S
C387 C386 1.391 . S
H388 C396 0.949 1_655 S
H389 C401 0.950 . S
H390 C398 0.950 . S
H391 C400 0.950 . S
H392 C402 0.949 1_455 S
H393 C404 0.950 . S
H394 C406 0.950 . S
H395 C407 0.950 . S
C396 H388 0.949 1_455 S
C396 C397 1.386 . S
C396 C398 1.391 1_455 S
C397 C396 1.386 . S
C397 C401 1.393 . S
C398 H390 0.950 . S
C398 C396 1.391 1_655 S
C398 C399 1.400 1_655 S
C399 C398 1.400 1_455 S
C399 C400 1.398 . S
C399 C405 1.491 1_455 S
C400 H391 0.950 . S
C400 C399 1.398 . S
C400 C401 1.391 . S
C401 H389 0.950 . S
C401 C397 1.393 . S
C401 C400 1.391 . S
C402 H392 0.949 1_655 S
C402 C403 1.386 . S
C402 C404 1.391 1_655 S
C403 C402 1.386 . S
C403 C407 1.393 . S
C404 H393 0.950 . S
C404 C402 1.391 1_455 S
C404 C405 1.400 1_455 S
C405 C399 1.491 1_655 S
C405 C404 1.400 1_655 S
C405 C406 1.398 . S
C406 H394 0.950 . S
C406 C405 1.398 . S
C406 C407 1.391 . S
C407 H395 0.950 . S
C407 C403 1.393 . S
C407 C406 1.391 . S
H408 C416 0.950 . S
H409 C421 0.950 . S
H410 C418 0.950 . S
H411 C420 0.950 . S
H412 C422 0.950 . S
H413 C424 0.950 . S
H414 C426 0.950 . S
H415 C427 0.950 . S
C416 H408 0.950 . S
C416 C417 1.386 1_655 S
C416 C418 1.391 . S
C417 C416 1.386 1_455 S
C417 C421 1.393 . S
C418 H410 0.950 . S
C418 C416 1.391 . S
C418 C419 1.400 1_655 S
C419 C418 1.400 1_455 S
C419 C420 1.398 . S
C419 C425 1.491 1_455 S
C420 H411 0.950 . S
C420 C419 1.398 . S
C420 C421 1.391 . S
C421 H409 0.950 . S
C421 C417 1.393 . S
C421 C420 1.391 . S
C422 H412 0.950 . S
C422 C423 1.386 1_455 S
C422 C424 1.391 . S
C423 C422 1.386 1_655 S
C423 C427 1.393 . S
C424 H413 0.950 . S
C424 C422 1.391 . S
C424 C425 1.400 1_455 S
C425 C419 1.491 1_655 S
C425 C424 1.400 1_655 S
C425 C426 1.398 . S
C426 H414 0.950 . S
C426 C425 1.398 . S
C426 C427 1.391 . S
C427 H415 0.950 . S
C427 C423 1.393 . S
C427 C426 1.391 . S
H428 C436 0.950 . S
H429 C441 0.950 . S
H430 C438 0.950 . S
H431 C440 0.950 . S
H432 C442 0.950 . S
H433 C444 0.950 . S
H434 C446 0.950 . S
H435 C447 0.950 . S
C436 H428 0.950 . S
C436 C437 1.386 1_655 S
C436 C438 1.391 . S
C437 C436 1.386 1_455 S
C437 C441 1.393 . S
C438 H430 0.950 . S
C438 C436 1.391 . S
C438 C439 1.400 1_655 S
C439 C438 1.400 1_455 S
C439 C440 1.398 . S
C439 C445 1.491 1_455 S
C440 H431 0.950 . S
C440 C439 1.398 . S
C440 C441 1.391 . S
C441 H429 0.950 . S
C441 C437 1.393 . S
C441 C440 1.391 . S
C442 H432 0.950 . S
C442 C443 1.386 1_455 S
C442 C444 1.391 . S
C443 C442 1.386 1_655 S
C443 C447 1.393 . S
C444 H433 0.950 . S
C444 C442 1.391 . S
C444 C445 1.400 1_455 S
C445 C439 1.491 1_655 S
C445 C444 1.400 1_655 S
C445 C446 1.398 . S
C446 H434 0.950 . S
C446 C445 1.398 . S
C446 C447 1.391 . S
C447 H435 0.950 . S
C447 C443 1.393 . S
C447 C446 1.391 . S
H448 C456 0.950 . S
H449 C461 0.950 . S
H450 C458 0.950 . S
H451 C460 0.950 . S
H452 C462 0.950 . S
H453 C464 0.950 . S
H454 C466 0.950 . S
H455 C467 0.950 . S
C456 H448 0.950 . S
C456 C457 1.386 . S
C456 C458 1.391 . S
C457 C456 1.386 . S
C457 C461 1.393 . S
C458 H450 0.950 . S
C458 C456 1.391 . S
C458 C459 1.400 . S
C459 C458 1.400 . S
C459 C460 1.398 . S
C459 C465 1.491 . S
C460 H451 0.950 . S
C460 C459 1.398 . S
C460 C461 1.391 . S
C461 H449 0.950 . S
C461 C457 1.393 . S
C461 C460 1.391 . S
C462 H452 0.950 . S
C462 C463 1.386 . S
C462 C464 1.391 . S
C463 C462 1.386 . S
C463 C467 1.393 . S
C464 H453 0.950 . S
C464 C462 1.391 . S
C464 C465 1.400 . S
C465 C459 1.491 . S
C465 C464 1.400 . S
C465 C466 1.398 . S
C466 H454 0.950 . S
C466 C465 1.398 . S
C466 C467 1.391 . S
C467 H455 0.950 . S
C467 C463 1.393 . S
C467 C466 1.391 . S
H468 C476 0.950 . S
H469 C481 0.950 . S
H470 C478 0.950 . S
H471 C480 0.950 . S
H472 C482 0.950 . S
H473 C484 0.950 . S
H474 C486 0.950 . S
H475 C487 0.950 . S
C476 H468 0.950 . S
C476 C477 1.386 . S
C476 C478 1.391 . S
C477 C476 1.386 . S
C477 C481 1.393 . S
C478 H470 0.950 . S
C478 C476 1.391 . S
C478 C479 1.400 . S
C479 C478 1.400 . S
C479 C480 1.398 . S
C479 C485 1.491 . S
C480 H471 0.950 . S
C480 C479 1.398 . S
C480 C481 1.391 . S
C481 H469 0.950 . S
C481 C477 1.393 . S
C481 C480 1.391 . S
C482 H472 0.950 . S
C482 C483 1.386 . S
C482 C484 1.391 . S
C483 C482 1.386 . S
C483 C487 1.393 . S
C484 H473 0.950 . S
C484 C482 1.391 . S
C484 C485 1.400 . S
C485 C479 1.491 . S
C485 C484 1.400 . S
C485 C486 1.398 . S
C486 H474 0.950 . S
C486 C485 1.398 . S
C486 C487 1.391 . S
C487 H475 0.950 . S
C487 C483 1.393 . S
C487 C486 1.391 . S
H488 C496 0.950 . S
H489 C501 0.950 . S
H490 C498 0.950 . S
H491 C500 0.950 . S
H492 C502 0.950 . S
H493 C504 0.950 . S
H494 C506 0.950 . S
H495 C507 0.950 . S
C496 H488 0.950 . S
C496 C497 1.386 . S
C496 C498 1.391 . S
C497 C496 1.386 . S
C497 C501 1.393 . S
C498 H490 0.950 . S
C498 C496 1.391 . S
C498 C499 1.400 . S
C499 C498 1.400 . S
C499 C500 1.398 . S
C499 C505 1.491 . S
C500 H491 0.950 . S
C500 C499 1.398 . S
C500 C501 1.391 . S
C501 H489 0.950 . S
C501 C497 1.393 . S
C501 C500 1.391 . S
C502 H492 0.950 . S
C502 C503 1.386 . S
C502 C504 1.391 . S
C503 C502 1.386 . S
C503 C507 1.393 . S
C504 H493 0.950 . S
C504 C502 1.391 . S
C504 C505 1.400 . S
C505 C499 1.491 . S
C505 C504 1.400 . S
C505 C506 1.398 . S
C506 H494 0.950 . S
C506 C505 1.398 . S
C506 C507 1.391 . S
C507 H495 0.950 . S
C507 C503 1.393 . S
C507 C506 1.391 . S
H508 C516 0.950 . S
H509 C521 0.950 . S
H510 C518 0.950 . S
H511 C520 0.950 . S
H512 C522 0.950 . S
H513 C524 0.950 . S
H514 C526 0.950 . S
H515 C527 0.950 . S
C516 H508 0.950 . S
C516 C517 1.386 . S
C516 C518 1.391 . S
C517 C516 1.386 . S
C517 C521 1.393 . S
C518 H510 0.950 . S
C518 C516 1.391 . S
C518 C519 1.400 . S
C519 C518 1.400 . S
C519 C520 1.398 . S
C519 C525 1.491 . S
C520 H511 0.950 . S
C520 C519 1.398 . S
C520 C521 1.391 . S
C521 H509 0.950 . S
C521 C517 1.393 . S
C521 C520 1.391 . S
C522 H512 0.950 . S
C522 C523 1.386 . S
C522 C524 1.391 . S
C523 C522 1.386 . S
C523 C527 1.393 . S
C524 H513 0.950 . S
C524 C522 1.391 . S
C524 C525 1.400 . S
C525 C519 1.491 . S
C525 C524 1.400 . S
C525 C526 1.398 . S
C526 H514 0.950 . S
C526 C525 1.398 . S
C526 C527 1.391 . S
C527 H515 0.950 . S
C527 C523 1.393 . S
C527 C526 1.391 . S
H528 C536 0.950 . S
H529 C541 0.950 . S
H530 C538 0.950 . S
H531 C540 0.950 . S
H532 C542 0.950 . S
H533 C544 0.950 . S
H534 C546 0.950 . S
H535 C547 0.950 . S
C536 H528 0.950 . S
C536 C537 1.386 . S
C536 C538 1.391 . S
C537 C536 1.386 . S
C537 C541 1.393 1_554 S
C538 H530 0.950 . S
C538 C536 1.391 . S
C538 C539 1.400 . S
C539 C538 1.400 . S
C539 C540 1.398 1_554 S
C539 C545 1.491 . S
C540 H531 0.950 . S
C540 C539 1.398 1_556 S
C540 C541 1.391 . S
C541 H529 0.950 . S
C541 C537 1.393 1_556 S
C541 C540 1.391 . S
C542 H532 0.950 . S
C542 C543 1.386 1_556 S
C542 C544 1.391 . S
C543 C542 1.386 1_554 S
C543 C547 1.393 . S
C544 H533 0.950 . S
C544 C542 1.391 . S
C544 C545 1.400 1_556 S
C545 C539 1.491 . S
C545 C544 1.400 1_554 S
C545 C546 1.398 . S
C546 H534 0.950 . S
C546 C545 1.398 . S
C546 C547 1.391 . S
C547 H535 0.950 . S
C547 C543 1.393 . S
C547 C546 1.391 . S
H548 C556 0.950 . S
H549 C561 0.950 . S
H550 C558 0.950 . S
H551 C560 0.950 . S
H552 C562 0.950 . S
H553 C564 0.950 . S
H554 C566 0.950 1_556 S
H555 C567 0.949 1_556 S
C556 H548 0.950 . S
C556 C557 1.386 . S
C556 C558 1.391 . S
C557 C556 1.386 . S
C557 C561 1.393 . S
C558 H550 0.950 . S
C558 C556 1.391 . S
C558 C559 1.400 . S
C559 C558 1.400 . S
C559 C560 1.398 . S
C559 C565 1.491 . S
C560 H551 0.950 . S
C560 C559 1.398 . S
C560 C561 1.391 . S
C561 H549 0.950 . S
C561 C557 1.393 . S
C561 C560 1.391 . S
C562 H552 0.950 . S
C562 C563 1.386 . S
C562 C564 1.391 . S
C563 C562 1.386 . S
C563 C567 1.393 . S
C564 H553 0.950 . S
C564 C562 1.391 . S
C564 C565 1.400 . S
C565 C559 1.491 . S
C565 C564 1.400 . S
C565 C566 1.398 . S
C566 H554 0.950 1_554 S
C566 C565 1.398 . S
C566 C567 1.391 . S
C567 H555 0.949 1_554 S
C567 C563 1.393 . S
C567 C566 1.391 . S
H568 C576 0.950 . S
H569 C581 0.950 . S
H570 C578 0.950 . S
H571 C580 0.950 . S
H572 C582 0.950 . S
H573 C584 0.950 . S
H574 C586 0.950 . S
H575 C587 0.950 . S
C576 H568 0.950 . S
C576 C577 1.386 . S
C576 C578 1.391 . S
C577 C576 1.386 . S
C577 C581 1.393 . S
C578 H570 0.950 . S
C578 C576 1.391 . S
C578 C579 1.400 . S
C579 C578 1.400 . S
C579 C580 1.398 . S
C579 C585 1.491 . S
C580 H571 0.950 . S
C580 C579 1.398 . S
C580 C581 1.391 . S
C581 H569 0.950 . S
C581 C577 1.393 . S
C581 C580 1.391 . S
C582 H572 0.950 . S
C582 C583 1.386 . S
C582 C584 1.391 . S
C583 C582 1.386 . S
C583 C587 1.393 . S
C584 H573 0.950 . S
C584 C582 1.391 . S
C584 C585 1.400 . S
C585 C579 1.491 . S
C585 C584 1.400 . S
C585 C586 1.398 . S
C586 H574 0.950 . S
C586 C585 1.398 . S
C586 C587 1.391 . S
C587 H575 0.950 . S
C587 C583 1.393 . S
C587 C586 1.391 . S
H588 C596 0.950 . S
H589 C601 0.950 . S
H590 C598 0.950 . S
H591 C600 0.950 . S
H592 C602 0.950 . S
H593 C604 0.950 . S
H594 C606 0.950 . S
H595 C607 0.950 . S
C596 H588 0.950 . S
C596 C597 1.386 . S
C596 C598 1.391 . S
C597 C596 1.386 . S
C597 C601 1.393 . S
C598 H590 0.950 . S
C598 C596 1.391 . S
C598 C599 1.400 . S
C599 C598 1.400 . S
C599 C600 1.398 . S
C599 C605 1.491 . S
C600 H591 0.950 . S
C600 C599 1.398 . S
C600 C601 1.391 . S
C601 H589 0.950 . S
C601 C597 1.393 . S
C601 C600 1.391 . S
C602 H592 0.950 . S
C602 C603 1.386 . S
C602 C604 1.391 . S
C603 C602 1.386 . S
C603 C607 1.393 . S
C604 H593 0.950 . S
C604 C602 1.391 . S
C604 C605 1.400 . S
C605 C599 1.491 . S
C605 C604 1.400 . S
C605 C606 1.398 . S
C606 H594 0.950 . S
C606 C605 1.398 . S
C606 C607 1.391 . S
C607 H595 0.950 . S
C607 C603 1.393 . S
C607 C606 1.391 . S
C297 C39 1.509 . S
C303 C3 1.508 . S
C317 C75 1.506 . S
C323 C111 1.508 . S
C337 C147 1.509 . S
C343 C183 1.505 . S
C357 C219 1.509 . S
C363 C255 1.508 . S
C377 C2 1.172 . S
C383 C110 1.149 . S
C397 C74 1.143 . S
C403 C38 1.147 . S
C417 C86 1.241 . S
C423 C50 1.254 . S
C437 C14 1.250 . S
C443 C122 1.261 . S
C457 C146 1.159 . S
C463 C254 1.178 . S
C477 C218 1.179 . S
C483 C182 1.168 . S
C497 C194 1.253 . S
C503 C230 1.262 . S
C517 C158 1.240 . S
C523 C266 1.252 . S
C537 C184 1.514 . S
C543 C4 1.516 . S
C557 C148 1.512 . S
C563 C40 1.514 . S
C577 C76 1.514 . S
C583 C256 1.516 . S
C597 C220 1.512 . S
C603 C112 1.515 . S
