# Generated by pormake.
# Topology rob, (6)-cn, num edge types: 1
# Building blocks:
#     Node 0, Type 0, BuildingBlock: KUMBUR_clean_sbu_1, # of connection points: 6
#     Node 1, Type 0, BuildingBlock: KUMBUR_clean_sbu_1, # of connection points: 6
#     Node 2, Type 0, BuildingBlock: KUMBUR_clean_sbu_1, # of connection points: 6
#     Node 3, Type 0, BuildingBlock: KUMBUR_clean_sbu_1, # of connection points: 6
#     Edge 4, Type (0, 0), BuildingBlock: XIVTED_clean_linker_0, # of connection points: 2
#     Edge 5, Type (0, 0), BuildingBlock: XIVTED_clean_linker_0, # of connection points: 2
#     Edge 6, Type (0, 0), BuildingBlock: XIVTED_clean_linker_0, # of connection points: 2
#     Edge 7, Type (0, 0), BuildingBlock: XIVTED_clean_linker_0, # of connection points: 2
#     Edge 8, Type (0, 0), BuildingBlock: XIVTED_clean_linker_0, # of connection points: 2
#     Edge 9, Type (0, 0), BuildingBlock: XIVTED_clean_linker_0, # of connection points: 2
#     Edge 10, Type (0, 0), BuildingBlock: XIVTED_clean_linker_0, # of connection points: 2
#     Edge 11, Type (0, 0), BuildingBlock: XIVTED_clean_linker_0, # of connection points: 2
#     Edge 12, Type (0, 0), BuildingBlock: XIVTED_clean_linker_0, # of connection points: 2
#     Edge 13, Type (0, 0), BuildingBlock: XIVTED_clean_linker_0, # of connection points: 2
#     Edge 14, Type (0, 0), BuildingBlock: XIVTED_clean_linker_0, # of connection points: 2
#     Edge 15, Type (0, 0), BuildingBlock: XIVTED_clean_linker_0, # of connection points: 2
# Relax obj value: 0.020
# Max RMSD: 0.112
# Mean RMSD: 0.112
data_MOF--net-rob--node1-KUMBUR_clean_sbu_1--edge1-XIVTED_clean_linker_0
_symmetry_space_group_name_H-M    P1
_symmetry_Int_Tables_number       1
_symmetry_cell_setting            triclinic
loop_
_symmetry_equiv_pos_as_xyz
'x, y, z'
_cell_length_a     18.860539
_cell_length_b     23.199184
_cell_length_c     34.114562
_cell_angle_alpha  109.56444
_cell_angle_beta   89.80026
_cell_angle_gamma 89.955212
loop_
_atom_site_label
_atom_site_type_symbol
_atom_site_fract_x
_atom_site_fract_y
_atom_site_fract_z
_atom_type_partial_charge
Tb0 Tb 0.30739 0.20533 0.97294 0.0
C1 C 0.11496 0.4336 0.06669 0.0
N2 N 0.18212 0.42027 0.07529 0.0
C3 C 0.21514 0.52557 0.09153 0.0
C4 C 0.09514 0.49387 0.07055 0.0
C5 C 0.23187 0.46542 0.08833 0.0
C6 C 0.14659 0.53982 0.08239 0.0
C7 C 0.99524 0.3988 0.04584 0.0
C8 C 0.06579 0.38647 0.05406 0.0
C9 C 0.97477 0.4591 0.05093 0.0
C10 C 0.02467 0.50643 0.06294 0.0
Tb11 Tb 0.20127 0.3208 0.07016 0.0
N12 N 0.08735 0.32859 0.0498 0.0
C13 C 0.94708 0.3503 0.0334 0.0
C14 C 0.03958 0.28181 0.03972 0.0
C15 C 0.96932 0.29162 0.03052 0.0
H16 H 0.28377 0.4557 0.09765 0.0
H17 H 0.93195 0.25411 0.0221 0.0
H18 H 0.22376 0.07088 0.94171 0.0
H19 H 0.57263 0.27052 0.03049 0.0
H20 H 0.05423 0.2373 0.03988 0.0
H21 H 0.89241 0.35785 0.02672 0.0
H22 H 0.45189 0.28877 1.0108 0.0
H23 H 0.25484 0.5611 0.10168 0.0
H24 H 0.92039 0.4696 0.0457 0.0
H25 H 0.00813 0.55264 0.06643 0.0
H26 H 0.25218 0.96399 0.93416 0.0
H27 H 0.13377 0.58644 0.08491 0.0
H28 H 0.61166 0.16534 0.02242 0.0
N29 N 0.32507 0.10502 0.96575 0.0
C30 C 0.39165 0.09087 0.97474 0.0
C31 C 0.29176 0.99931 0.94583 0.0
C32 C 0.41117 0.02991 0.96895 0.0
C33 C 0.27533 0.06022 0.95098 0.0
C34 C 0.35993 0.98407 0.9549 0.0
N35 N 0.41931 0.19629 0.99567 0.0
C36 C 0.46648 0.24334 1.00897 0.0
C37 C 0.51022 0.12484 0.99914 0.0
C38 C 0.44053 0.13783 0.98978 0.0
C39 C 0.55772 0.17338 0.01467 0.0
C40 C 0.53577 0.23284 0.01946 0.0
H41 H 0.37262 0.93678 0.95063 0.0
H42 H 0.49735 0.96997 0.97213 0.0
H43 H 0.58405 0.05297 0.99869 0.0
O44 O 0.3625 0.2339 0.92867 0.0
O45 O 0.32505 0.19791 0.03521 0.0
O46 O 0.30833 0.29497 0.08238 0.0
O47 O 0.31879 0.14357 0.9121 0.0
O48 O 0.32214 0.3045 0.98889 0.0
O49 O 0.30897 0.34751 0.06015 0.0
O50 O 0.15466 0.29225 0.11704 0.0
O51 O 0.18154 0.32766 1.00813 0.0
O52 O 0.20085 0.23164 0.95949 0.0
O53 O 0.18853 0.38508 0.1299 0.0
O54 O 0.18341 0.22155 0.05317 0.0
O55 O 0.19944 0.17847 0.98192 0.0
C56 C 0.33353 0.23903 0.07244 0.0
C57 C 0.3273 0.18647 0.85865 0.0
C58 C 0.35482 0.19023 0.78936 0.0
C59 C 0.28176 0.18793 0.78075 0.0
C60 C 0.25487 0.18378 0.84919 0.0
C61 C 0.23227 0.185 0.81057 0.0
C62 C 0.37714 0.19007 0.82876 0.0
C63 C 0.33457 0.34828 0.02438 0.0
C64 C 0.3517 0.18248 0.89868 0.0
C65 C 0.4811 0.01664 0.97707 0.0
C66 C 0.53046 0.06396 0.99223 0.0
C67 C 0.17267 0.28683 0.97089 0.0
C68 C 0.19073 0.34756 0.18603 0.0
C69 C 0.16792 0.3469 0.25676 0.0
C70 C 0.23961 0.36277 0.26638 0.0
C71 C 0.26166 0.36292 0.19646 0.0
C72 C 0.14462 0.33845 0.21585 0.0
C73 C 0.28601 0.36983 0.2363 0.0
C74 C 0.17212 0.17786 0.01734 0.0
C75 C 0.16233 0.34574 0.14545 0.0
H76 H 0.26284 0.18889 0.75103 0.0
H77 H 0.21609 0.17972 0.87147 0.0
H78 H 0.17619 0.18313 0.80359 0.0
H79 H 0.43323 0.19112 0.83581 0.0
H80 H 0.26003 0.3716 0.29741 0.0
H81 H 0.29767 0.37108 0.17412 0.0
H82 H 0.09042 0.32534 0.20687 0.0
H83 H 0.34068 0.38242 0.24429 0.0
Tb84 Tb 0.80397 0.70555 0.96761 0.0
C85 C 0.60132 0.92968 0.06514 0.0
N86 N 0.6709 0.91934 0.0708 0.0
C87 C 0.69604 0.02616 0.08727 0.0
C88 C 0.57615 0.98923 0.07116 0.0
C89 C 0.71851 0.96637 0.08147 0.0
C90 C 0.62446 0.03776 0.08245 0.0
C91 C 0.48329 0.8889 0.04521 0.0
C92 C 0.55534 0.87999 0.05251 0.0
C93 C 0.45765 0.9484 0.0523 0.0
C94 C 0.50384 0.9984 0.06558 0.0
Tb95 Tb 0.6966 0.82181 0.06726 0.0
N96 N 0.58191 0.82287 0.04616 0.0
C97 C 0.43913 0.83775 0.03107 0.0
C98 C 0.53839 0.77312 0.0336 0.0
C99 C 0.46686 0.77966 0.02521 0.0
H100 H 0.7731 0.9584 0.08745 0.0
H101 H 0.43282 0.7399 0.01493 0.0
H102 H 0.74978 0.56884 0.96628 0.0
H103 H 0.06626 0.80237 0.97167 0.0
H104 H 0.55751 0.72844 0.03063 0.0
H105 H 0.38353 0.84265 0.0249 0.0
H106 H 0.93734 0.79884 0.96315 0.0
H107 H 0.73371 0.06344 0.09622 0.0
H108 H 0.40232 0.95622 0.04719 0.0
H109 H 0.48341 0.04387 0.07046 0.0
H110 H 0.80453 0.4728 0.96722 0.0
H111 H 0.6071 0.08421 0.08736 0.0
H112 H 0.12953 0.71442 0.98086 0.0
N113 N 0.84755 0.61652 0.97255 0.0
C114 C 0.91925 0.61315 0.97485 0.0
C115 C 0.83734 0.51218 0.96986 0.0
C116 C 0.95286 0.55917 0.97545 0.0
C117 C 0.80632 0.567 0.96994 0.0
C118 C 0.91094 0.50811 0.97236 0.0
N119 N 0.92453 0.71506 0.97498 0.0
C120 C 0.96271 0.76274 0.97091 0.0
C121 C 0.03353 0.66256 0.97911 0.0
C122 C 0.95891 0.66428 0.97661 0.0
C123 C 0.07219 0.71386 0.97894 0.0
C124 C 0.03663 0.76378 0.97413 0.0
H125 H 0.93489 0.46523 0.97144 0.0
H126 H 0.05375 0.51696 0.97975 0.0
H127 H 0.12437 0.60739 0.983 0.0
O128 O 0.83334 0.71763 0.90994 0.0
O129 O 0.83114 0.69927 0.029 0.0
O130 O 0.80354 0.7937 0.07826 0.0
O131 O 0.79226 0.63159 0.91283 0.0
O132 O 0.81527 0.80553 0.98338 0.0
O133 O 0.80375 0.84732 0.05515 0.0
O134 O 0.64564 0.8011 0.11629 0.0
O135 O 0.67454 0.82928 1.00549 0.0
O136 O 0.69373 0.731 0.96349 0.0
O137 O 0.69333 0.88883 0.12648 0.0
O138 O 0.68357 0.72319 0.05477 0.0
O139 O 0.70111 0.67616 0.98391 0.0
C140 C 0.83229 0.73869 0.06729 0.0
C141 C 0.81859 0.6315 0.84366 0.0
C142 C 0.86132 0.62463 0.77428 0.0
C143 C 0.81836 0.57281 0.75705 0.0
C144 C 0.77694 0.57917 0.82536 0.0
C145 C 0.77702 0.55013 0.78243 0.0
C146 C 0.86138 0.65395 0.81793 0.0
C147 C 0.82887 0.84845 0.01933 0.0
C148 C 0.81613 0.66119 0.88944 0.0
C149 C 0.02697 0.55774 0.97874 0.0
C150 C 0.06718 0.60937 0.98077 0.0
C151 C 0.67069 0.78629 0.96882 0.0
C152 C 0.68576 0.85584 0.18481 0.0
C153 C 0.65861 0.85058 0.25377 0.0
C154 C 0.72881 0.86778 0.26589 0.0
C155 C 0.75548 0.87338 0.19775 0.0
C156 C 0.6377 0.84422 0.2129 0.0
C157 C 0.77689 0.87864 0.23793 0.0
C158 C 0.679 0.67545 0.02047 0.0
C159 C 0.66041 0.85422 0.14355 0.0
H160 H 0.81734 0.54917 0.72379 0.0
H161 H 0.74368 0.56074 0.84424 0.0
H162 H 0.7447 0.5099 0.76874 0.0
H163 H 0.89385 0.69413 0.83169 0.0
H164 H 0.74673 0.87236 0.29692 0.0
H165 H 0.7934 0.88299 0.17684 0.0
H166 H 0.58342 0.83208 0.2033 0.0
H167 H 0.83081 0.8918 0.24759 0.0
Tb168 Tb 0.30316 0.80964 0.56346 0.0
C169 C 0.08362 0.60151 0.47781 0.0
N170 N 0.15489 0.60583 0.47337 0.0
C171 C 0.16974 0.50261 0.47243 0.0
C172 C 0.05266 0.54753 0.48031 0.0
C173 C 0.19804 0.55708 0.47008 0.0
C174 C 0.09675 0.49776 0.47754 0.0
C175 C 0.96757 0.64896 0.48461 0.0
C176 C 0.04179 0.65181 0.48012 0.0
C177 C 0.93652 0.59548 0.48752 0.0
C178 C 0.97891 0.54481 0.48516 0.0
Tb179 Tb 0.19346 0.69486 0.46589 0.0
N180 N 0.07369 0.70313 0.47754 0.0
C181 C 0.92668 0.6997 0.48552 0.0
C182 C 0.0332 0.75061 0.4751 0.0
C183 C 0.9596 0.75041 0.48019 0.0
H184 H 0.25394 0.55925 0.46426 0.0
H185 H 0.92812 0.78874 0.47888 0.0
H186 H 0.22671 0.94668 0.58646 0.0
H187 H 0.56871 0.72923 0.51281 0.0
H188 H 0.05641 0.78756 0.46729 0.0
H189 H 0.86957 0.69942 0.489 0.0
H190 H 0.44558 0.71875 0.53207 0.0
H191 H 0.20412 0.46405 0.46965 0.0
H192 H 0.87967 0.5926 0.49115 0.0
H193 H 0.9541 0.50364 0.48695 0.0
H194 H 0.26308 0.05067 0.59065 0.0
H195 H 0.07495 0.45526 0.47887 0.0
H196 H 0.61465 0.83062 0.51635 0.0
N197 N 0.32796 0.90717 0.56641 0.0
C198 C 0.39653 0.91732 0.55817 0.0
C199 C 0.30102 0.01348 0.58122 0.0
C200 C 0.42013 0.97635 0.56137 0.0
C201 C 0.28021 0.95422 0.5781 0.0
C202 C 0.37131 0.02465 0.5729 0.0
N203 N 0.41778 0.8112 0.54173 0.0
C204 C 0.46274 0.76225 0.53138 0.0
C205 C 0.51433 0.8766 0.53649 0.0
C206 C 0.44299 0.86788 0.54565 0.0
C207 C 0.55952 0.82585 0.52374 0.0
C208 C 0.53365 0.76849 0.52141 0.0
H209 H 0.38736 0.07067 0.5756 0.0
H210 H 0.51083 0.03022 0.55553 0.0
H211 H 0.59329 0.94323 0.53433 0.0
O212 O 0.35597 0.78632 0.61058 0.0
O213 O 0.32183 0.81761 0.50155 0.0
O214 O 0.30155 0.72088 0.45543 0.0
O215 O 0.30909 0.8751 0.62329 0.0
O216 O 0.31594 0.71031 0.54846 0.0
O217 O 0.29914 0.66621 0.47748 0.0
O218 O 0.15459 0.70571 0.40976 0.0
O219 O 0.17152 0.68867 0.52809 0.0
O220 O 0.19702 0.7835 0.57709 0.0
O221 O 0.2007 0.62036 0.41089 0.0
O222 O 0.18191 0.79468 0.48176 0.0
O223 O 0.19562 0.83699 0.55333 0.0
C224 C 0.3282 0.77605 0.46436 0.0
C225 C 0.31731 0.83799 0.67971 0.0
C226 C 0.34505 0.83704 0.74955 0.0
C227 C 0.27244 0.84406 0.75955 0.0
C228 C 0.24511 0.84489 0.69038 0.0
C229 C 0.22291 0.8475 0.73002 0.0
C230 C 0.367 0.83351 0.70926 0.0
C231 C 0.32474 0.66517 0.51304 0.0
C232 C 0.34237 0.83887 0.63891 0.0
C233 C 0.49147 0.98523 0.55298 0.0
C234 C 0.53842 0.93556 0.54064 0.0
C235 C 0.16799 0.72885 0.56603 0.0
C236 C 0.16081 0.61887 0.34328 0.0
C237 C 0.11622 0.61674 0.27536 0.0
C238 C 0.14462 0.55759 0.25749 0.0
C239 C 0.18849 0.55965 0.32427 0.0
C240 C 0.12399 0.64726 0.31862 0.0
C241 C 0.18031 0.52945 0.2818 0.0
C242 C 0.16911 0.83783 0.51781 0.0
C243 C 0.17127 0.64929 0.38863 0.0
H244 H 0.25388 0.84626 0.7901 0.0
H245 H 0.20599 0.84855 0.66815 0.0
H246 H 0.16712 0.85259 0.738 0.0
H247 H 0.4229 0.82894 0.70125 0.0
H248 H 0.13855 0.53262 0.22458 0.0
H249 H 0.21679 0.53639 0.34221 0.0
H250 H 0.10239 0.69286 0.33278 0.0
H251 H 0.20179 0.48399 0.26758 0.0
Tb252 Tb 0.80497 0.31933 0.57021 0.0
C253 C 0.59617 0.10397 0.47195 0.0
N254 N 0.66745 0.10959 0.46868 0.0
C255 C 0.68329 1.00409 0.46196 0.0
C256 C 0.56555 0.0479 0.47054 0.0
C257 C 0.71127 0.06078 0.46383 0.0
C258 C 0.61009 0.9975 0.46504 0.0
C259 C 0.47989 0.15135 0.4817 0.0
C260 C 0.55405 0.15519 0.4775 0.0
C261 C 0.44914 0.09574 0.48068 0.0
C262 C 0.49177 0.04403 0.47469 0.0
Tb263 Tb 0.7059 0.2017 0.46667 0.0
N264 N 0.5856 0.20819 0.47781 0.0
C265 C 0.43858 0.20302 0.48559 0.0
C266 C 0.54448 0.25665 0.47777 0.0
C267 C 0.47098 0.25561 0.48297 0.0
H268 H 0.76756 0.0649 0.45995 0.0
H269 H 0.43912 0.29475 0.48362 0.0
H270 H 0.72822 0.45428 0.58705 0.0
H271 H 0.0781 0.24458 0.54143 0.0
H272 H 0.56674 0.29508 0.47155 0.0
H273 H 0.38148 0.202 0.48891 0.0
H274 H 0.95114 0.23152 0.55079 0.0
H275 H 0.71812 0.96532 0.45759 0.0
H276 H 0.3923 0.09198 0.48386 0.0
H277 H 0.46709 1.0014 0.47357 0.0
H278 H 0.76505 0.55845 0.59183 0.0
H279 H 0.58855 0.95334 0.46304 0.0
H280 H 0.12542 0.34639 0.54701 0.0
N281 N 0.83186 0.41679 0.57382 0.0
C282 C 0.90175 0.42827 0.57012 0.0
C283 C 0.80399 0.52214 0.58544 0.0
C284 C 0.9256 0.48752 0.57404 0.0
C285 C 0.78303 0.46279 0.58197 0.0
C286 C 0.87556 0.53454 0.58131 0.0
N287 N 0.92387 0.32335 0.55764 0.0
C288 C 0.96954 0.27539 0.55127 0.0
C289 C 0.02247 0.39028 0.55853 0.0
C290 C 0.94944 0.38019 0.56238 0.0
C291 C 0.06894 0.34061 0.55026 0.0
C292 C 0.04235 0.28301 0.54681 0.0
H293 H 0.8917 0.58051 0.58402 0.0
H294 H 0.0178 0.54326 0.57405 0.0
H295 H 0.10262 0.45808 0.56036 0.0
O296 O 0.84456 0.29984 0.62235 0.0
O297 O 0.83525 0.32887 0.51015 0.0
O298 O 0.81495 0.23241 0.46413 0.0
O299 O 0.78597 0.38217 0.63 0.0
O300 O 0.82267 0.2203 0.5552 0.0
O301 O 0.81041 0.17615 0.48356 0.0
O302 O 0.66935 0.21247 0.40996 0.0
O303 O 0.67991 0.19046 0.52705 0.0
O304 O 0.6958 0.28837 0.57048 0.0
O305 O 0.72511 0.13097 0.41079 0.0
O306 O 0.69239 0.30126 0.48056 0.0
O307 O 0.70027 0.34236 0.55233 0.0
C308 C 0.83838 0.28847 0.47236 0.0
C309 C 0.87637 0.38779 0.67922 0.0
C310 C 0.94534 0.40264 0.74266 0.0
C311 C 0.97343 0.45671 0.73883 0.0
C312 C 0.90439 0.44262 0.67681 0.0
C313 C 0.95317 0.47629 0.7061 0.0
C314 C 0.89713 0.36798 0.71228 0.0
C315 C 0.83229 0.17471 0.51994 0.0
C316 C 0.82376 0.35217 0.64849 0.0
C317 C 0.99837 0.49793 0.57079 0.0
C318 C 0.04667 0.44942 0.56304 0.0
C319 C 0.67524 0.23213 0.56427 0.0
C320 C 0.69159 0.13044 0.34242 0.0
C321 C 0.64076 0.11987 0.27416 0.0
C322 C 0.68862 0.07167 0.25577 0.0
C323 C 0.73815 0.08185 0.3229 0.0
C324 C 0.64313 0.14976 0.31781 0.0
C325 C 0.73674 0.053 0.27997 0.0
C326 C 0.68157 0.34619 0.51605 0.0
C327 C 0.69404 0.15873 0.38838 0.0
H328 H 0.01168 0.48379 0.76098 0.0
H329 H 0.88787 0.4603 0.65282 0.0
H330 H 0.97474 0.5182 0.70368 0.0
H331 H 0.87455 0.3264 0.71478 0.0
H332 H 0.68955 0.04863 0.22242 0.0
H333 H 0.77611 0.06607 0.34083 0.0
H334 H 0.60642 0.18664 0.33262 0.0
H335 H 0.77328 0.01599 0.26534 0.0
H336 H 0.63557 0.64743 0.08868 0.0
H337 H 0.3743 0.38131 0.95788 0.0
H338 H 0.6147 0.58891 0.95505 0.0
H339 H 0.41 0.42537 0.08961 0.0
H340 H 0.4603 0.45925 0.95686 0.0
H341 H 0.55166 0.56789 0.09023 0.0
C342 C 0.61369 0.61765 0.05965 0.0
C343 C 0.63236 0.62479 0.02167 0.0
C344 C 0.44923 0.45205 0.98604 0.0
C345 C 0.53597 0.53401 0.02326 0.0
C346 C 0.40003 0.40758 0.98666 0.0
C347 C 0.38439 0.39724 0.02398 0.0
C348 C 0.48329 0.48648 0.023 0.0
C349 C 0.4195 0.43257 0.06028 0.0
C350 C 0.56577 0.57228 0.06057 0.0
C351 C 0.60233 0.58488 0.98503 0.0
N352 N 0.46728 0.47569 0.0589 0.0
N353 N 0.55547 0.54141 0.98678 0.0
H354 H 0.39234 0.58435 0.44567 0.0
H355 H 0.60053 0.41701 0.58077 0.0
H356 H 0.37168 0.63379 0.57899 0.0
H357 H 0.64832 0.3872 0.4516 0.0
H358 H 0.51329 0.49377 0.5798 0.0
H359 H 0.48095 0.50765 0.4461 0.0
C360 C 0.40594 0.57871 0.475 0.0
C361 C 0.37445 0.61549 0.51238 0.0
C362 C 0.54309 0.47081 0.5517 0.0
C363 C 0.47633 0.52823 0.51307 0.0
C364 C 0.59336 0.42716 0.55227 0.0
C365 C 0.63224 0.3959 0.51624 0.0
C366 C 0.5309 0.48312 0.51474 0.0
C367 C 0.61957 0.41031 0.48007 0.0
C368 C 0.45691 0.53521 0.47522 0.0
C369 C 0.39465 0.60653 0.54946 0.0
N370 N 0.5697 0.45275 0.48017 0.0
N371 N 0.44429 0.56382 0.54885 0.0
H372 H 0.09683 0.10326 0.9512 0.0
H373 H 0.90881 0.91958 0.08407 0.0
H374 H 0.13209 0.14114 0.08238 0.0
H375 H 0.85879 0.89221 0.95577 0.0
H376 H 0.99191 1.00003 0.08372 0.0
H377 H 0.01206 0.02379 0.95158 0.0
C378 C 0.08729 0.09444 0.98 0.0
C379 C 0.1222 0.12841 0.01673 0.0
C380 C 0.96267 0.97659 0.05564 0.0
C381 C 0.02428 0.03824 0.01754 0.0
C382 C 0.91498 0.9308 0.05588 0.0
C383 C 0.87695 0.89906 0.01985 0.0
C384 C 0.97267 0.99075 0.01907 0.0
C385 C 0.88739 0.91531 0.98415 0.0
C386 C 0.03845 0.04938 0.98027 0.0
C387 C 0.10652 0.11595 0.05333 0.0
N388 N 0.93449 0.95986 0.9846 0.0
N389 N 0.05885 0.07181 0.05278 0.0
H390 H 0.87263 0.14213 0.58686 0.0
H391 H 0.13775 0.87869 0.4534 0.0
H392 H 0.90243 0.09293 0.45413 0.0
H393 H 0.09257 0.91355 0.5834 0.0
H394 H 0.05535 0.96027 0.45399 0.0
H395 H 0.95605 0.06137 0.58708 0.0
C396 C 0.89647 0.11423 0.55774 0.0
C397 C 0.88021 0.12423 0.5204 0.0
C398 C 0.0635 0.95022 0.48244 0.0
C399 C 0.97606 0.03193 0.52047 0.0
C400 C 0.11062 0.90367 0.48212 0.0
C401 C 0.12196 0.88921 0.51839 0.0
C402 C 0.02751 0.98286 0.51935 0.0
C403 C 0.08567 0.92335 0.55477 0.0
C404 C 0.9441 0.06814 0.5579 0.0
C405 C 0.91283 0.08667 0.48363 0.0
N406 N 0.04 0.96853 0.55432 0.0
N407 N 0.95922 0.04236 0.48463 0.0
H408 H 0.56546 0.04478 0.20816 0.0
H409 H 0.40023 0.3164 0.14143 0.0
H410 H 0.5988 0.23568 0.27788 0.0
H411 H 0.36933 0.12479 0.07309 0.0
H412 H 0.47008 0.28865 0.19277 0.0
H413 H 0.49066 0.07399 0.15984 0.0
C414 C 0.55706 0.09298 0.21339 0.0
C415 C 0.58932 0.13784 0.24708 0.0
C416 C 0.44782 0.25267 0.16664 0.0
C417 C 0.50254 0.17176 0.1916 0.0
C418 C 0.40745 0.26849 0.13743 0.0
C419 C 0.37785 0.22291 0.10316 0.0
C420 C 0.4591 0.19071 0.16153 0.0
C421 C 0.39091 0.16156 0.09899 0.0
C422 C 0.51401 0.10962 0.18574 0.0
C423 C 0.5749 0.1995 0.25257 0.0
N424 N 0.4303 0.14735 0.12784 0.0
N425 N 0.53296 0.21463 0.225 0.0
H426 H 0.56348 0.7567 0.24084 0.0
H427 H 0.39555 0.88386 0.46962 0.0
H428 H 0.63692 0.9206 0.33546 0.0
H429 H 0.36582 0.69861 0.38683 0.0
H430 H 0.47537 0.90224 0.41852 0.0
H431 H 0.48115 0.73935 0.29148 0.0
C432 C 0.56198 0.7892 0.2722 0.0
C433 C 0.60733 0.84004 0.28395 0.0
C434 C 0.45151 0.85757 0.4117 0.0
C435 C 0.51327 0.82047 0.34209 0.0
C436 C 0.40611 0.84683 0.44098 0.0
C437 C 0.37476 0.78913 0.43308 0.0
C438 C 0.46483 0.81074 0.37381 0.0
C439 C 0.38908 0.74368 0.3946 0.0
C440 C 0.51531 0.77908 0.30115 0.0
C441 C 0.60354 0.8804 0.32516 0.0
N442 N 0.43292 0.75547 0.36646 0.0
N443 N 0.55726 0.86985 0.35268 0.0
H444 H 0.6529 0.70875 0.88908 0.0
H445 H 0.35584 0.91182 0.83081 0.0
H446 H 0.59099 0.88748 0.9716 0.0
H447 H 0.45329 0.75453 0.74056 0.0
H448 H 0.43948 0.90286 0.88328 0.0
H449 H 0.57811 0.72354 0.83499 0.0
C450 C 0.62353 0.75115 0.89595 0.0
C451 C 0.6276 0.79658 0.93535 0.0
C452 C 0.44254 0.87032 0.85204 0.0
C453 C 0.54136 0.81372 0.87321 0.0
C454 C 0.39476 0.8753 0.82209 0.0
C455 C 0.3974 0.83364 0.78127 0.0
C456 C 0.49259 0.82265 0.84144 0.0
C457 C 0.44956 0.78774 0.77158 0.0
C458 C 0.58091 0.7596 0.8649 0.0
C459 C 0.58883 0.85081 0.94203 0.0
N460 N 0.49458 0.78312 0.80151 0.0
N461 N 0.54692 0.85763 0.91143 0.0
H462 H 0.58767 0.13401 0.55884 0.0
H463 H 0.47234 0.26331 0.79912 0.0
H464 H 0.66614 0.30298 0.64597 0.0
H465 H 0.35638 0.12275 0.70612 0.0
H466 H 0.5545 0.26974 0.74498 0.0
H467 H 0.51249 0.12118 0.61413 0.0
C468 C 0.58941 0.16826 0.58945 0.0
C469 C 0.63267 0.22016 0.59746 0.0
C470 C 0.51117 0.23738 0.73643 0.0
C471 C 0.54771 0.20491 0.661 0.0
C472 C 0.46452 0.23344 0.76738 0.0
C473 C 0.40713 0.1927 0.75714 0.0
C474 C 0.50091 0.19989 0.69492 0.0
C475 C 0.3993 0.15543 0.71535 0.0
C476 C 0.54647 0.16082 0.62099 0.0
C477 C 0.63311 0.26259 0.6381 0.0
N478 N 0.44559 0.15989 0.68581 0.0
N479 N 0.59139 0.25405 0.66825 0.0
H480 H 0.7968 0.75948 0.14809 0.0
H481 H 0.15995 0.62121 0.20016 0.0
H482 H 0.96209 0.6819 0.05887 0.0
H483 H 0.98647 0.67508 0.28764 0.0
H484 H 0.09197 0.65452 0.15095 0.0
H485 H 0.86779 0.73805 0.20188 0.0
C486 C 0.8485 0.73869 0.14002 0.0
C487 C 0.87404 0.72334 0.09914 0.0
C488 C 0.06856 0.65902 0.18081 0.0
C489 C 0.95518 0.69748 0.15999 0.0
C490 C 0.10751 0.64033 0.20906 0.0
C491 C 0.07856 0.64483 0.24796 0.0
C492 C 0.99964 0.68208 0.19112 0.0
C493 C 0.01082 0.67092 0.25803 0.0
C494 C 0.88868 0.72588 0.17054 0.0
C495 C 0.94008 0.6942 0.08975 0.0
N496 N 0.9733 0.68805 0.22961 0.0
N497 N 0.97843 0.68248 0.11992 0.0
H498 H 0.83549 0.23059 0.38835 0.0
H499 H 0.19771 0.31536 0.32666 0.0
H500 H 0.94106 0.3772 0.48274 0.0
H501 H 0.02185 0.36421 0.26263 0.0
H502 H 0.11522 0.30836 0.38006 0.0
H503 H 0.91332 0.24852 0.3357 0.0
C504 C 0.87509 0.26632 0.39813 0.0
C505 C 0.88256 0.30169 0.44032 0.0
C506 C 0.09537 0.32051 0.35409 0.0
C507 C 0.972 0.32115 0.38046 0.0
C508 C 0.14236 0.32513 0.32357 0.0
C509 C 0.11771 0.34067 0.28941 0.0
C510 C 0.02284 0.32928 0.34992 0.0
C511 C 0.04414 0.35052 0.2873 0.0
C512 C 0.91904 0.27652 0.36808 0.0
C513 C 0.93419 0.34798 0.45098 0.0
N514 N 0.99926 0.34382 0.31679 0.0
N515 N 0.97798 0.35564 0.42133 0.0
H516 H 0.97555 0.28631 0.74247 0.0
H517 H 0.13758 0.40176 0.97143 0.0
H518 H 0.9656 0.47407 0.82412 0.0
H519 H 0.10499 0.21081 0.90176 0.0
H520 H 0.07332 0.42869 0.91788 0.0
H521 H 0.02147 0.25698 0.8002 0.0
C522 C 0.98214 0.32128 0.77261 0.0
C523 C 0.96742 0.38291 0.77819 0.0
C524 C 0.07992 0.38091 0.91442 0.0
C525 C 0.0209 0.34969 0.84433 0.0
C526 C 0.11665 0.36544 0.94499 0.0
C527 C 0.1285 0.3038 0.94051 0.0
C528 C 0.05479 0.33455 0.87902 0.0
C529 C 0.0995 0.25884 0.9057 0.0
C530 C 0.00868 0.30452 0.80553 0.0
C531 C 0.97773 0.42622 0.81798 0.0
N532 N 0.0647 0.27504 0.87607 0.0
N533 N 1.00429 0.40888 0.84932 0.0
H534 H 0.21066 0.7213 0.64028 0.0
H535 H 0.82161 0.63923 0.70128 0.0
H536 H 0.02627 0.70511 0.56358 0.0
H537 H 1.00183 0.65903 0.78219 0.0
H538 H 0.89635 0.66564 0.65148 0.0
H539 H 0.13645 0.70037 0.69341 0.0
C540 C 0.15448 0.7131 0.63465 0.0
C541 C 0.12443 0.71399 0.59734 0.0
C542 C 0.91984 0.66423 0.68004 0.0
C543 C 0.03937 0.68977 0.65749 0.0
C544 C 0.87705 0.64929 0.70861 0.0
C545 C 0.90551 0.64673 0.74597 0.0
C546 C 0.99217 0.67634 0.68847 0.0
C547 C 0.97758 0.66098 0.75395 0.0
C548 C 0.11224 0.70096 0.66482 0.0
C549 C 0.05175 0.70276 0.59123 0.0
N550 N 0.01859 0.67475 0.72529 0.0
N551 N 0.01172 0.69111 0.62093 0.0
loop_
_geom_bond_atom_site_label_1
_geom_bond_atom_site_label_2
_geom_bond_distance
_geom_bond_site_symmetry_2
_ccdc_geom_bond_type
Tb0 N29 2.617 . S
Tb0 N35 2.572 . S
Tb0 O44 2.465 . S
Tb0 O45 2.387 1_556 S
Tb0 O47 2.428 . S
Tb0 O48 2.308 . S
Tb0 O52 2.349 . S
Tb0 O55 2.393 . S
Tb0 C64 2.802 . S
C1 N2 1.379 . S
C1 C4 1.416 . S
C1 C8 1.424 . S
N2 C1 1.379 . S
N2 C5 1.334 . S
N2 Tb11 2.617 . S
C3 C5 1.390 . S
C3 C6 1.339 . S
C3 H23 0.930 . S
C4 C1 1.416 . S
C4 C6 1.416 . S
C4 C10 1.448 1_455 S
C5 N2 1.334 . S
C5 C3 1.390 . S
C5 H16 0.930 . S
C6 C3 1.339 . S
C6 C4 1.416 . S
C6 H27 0.930 . S
C7 C8 1.413 1_655 S
C7 C9 1.427 . S
C7 C13 1.416 1_554 S
C8 C1 1.424 . S
C8 C7 1.413 1_455 S
C8 N12 1.361 . S
C9 C7 1.427 . S
C9 C10 1.328 . S
C9 H24 0.929 1_554 S
C10 C4 1.448 1_655 S
C10 C9 1.328 . S
C10 H25 0.930 . S
Tb11 N2 2.617 . S
Tb11 N12 2.572 . S
Tb11 O46 2.349 . S
Tb11 O49 2.393 . S
Tb11 O50 2.465 . S
Tb11 O51 2.387 1_554 S
Tb11 O53 2.428 . S
Tb11 O54 2.308 . S
Tb11 C75 2.802 . S
N12 C8 1.361 . S
N12 Tb11 2.572 . S
N12 C14 1.340 . S
C13 C7 1.416 1_556 S
C13 C15 1.332 1_556 S
C13 H21 0.931 . S
C14 N12 1.340 . S
C14 C15 1.407 1_455 S
C14 H20 0.930 . S
C15 C13 1.332 1_554 S
C15 C14 1.407 1_655 S
C15 H17 0.929 1_554 S
H16 C5 0.930 . S
H17 C15 0.929 1_556 S
H18 C33 0.930 . S
H19 C40 0.929 . S
H20 C14 0.930 . S
H21 C13 0.931 . S
H22 C36 0.930 . S
H23 C3 0.930 . S
H24 C9 0.929 1_556 S
H25 C10 0.930 . S
H26 C31 0.930 . S
H27 C6 0.930 . S
H28 C39 0.931 . S
N29 Tb0 2.617 . S
N29 C30 1.379 . S
N29 C33 1.334 . S
C30 N29 1.379 . S
C30 C32 1.416 . S
C30 C38 1.424 . S
C31 H26 0.930 . S
C31 C33 1.390 1_565 S
C31 C34 1.339 . S
C32 C30 1.416 . S
C32 C34 1.416 1_545 S
C32 C65 1.448 . S
C33 H18 0.930 . S
C33 N29 1.334 . S
C33 C31 1.390 1_545 S
C34 C31 1.339 . S
C34 C32 1.416 1_565 S
C34 H41 0.930 . S
N35 Tb0 2.572 . S
N35 C36 1.340 . S
N35 C38 1.361 . S
C36 H22 0.930 . S
C36 N35 1.340 . S
C36 C40 1.407 1_556 S
C37 C38 1.414 . S
C37 C39 1.417 1_556 S
C37 C66 1.425 1_556 S
C38 C30 1.424 . S
C38 N35 1.361 . S
C38 C37 1.414 . S
C39 H28 0.931 . S
C39 C37 1.417 1_554 S
C39 C40 1.332 . S
C40 H19 0.929 . S
C40 C36 1.407 1_554 S
C40 C39 1.332 . S
H41 C34 0.930 . S
H42 C65 0.930 1_565 S
H43 C66 0.929 . S
O44 Tb0 2.465 . S
O44 C64 1.264 . S
O45 Tb0 2.387 1_554 S
O45 C56 1.264 . S
O46 Tb11 2.349 . S
O46 C56 1.243 . S
O47 Tb0 2.428 . S
O47 C64 1.256 . S
O48 Tb0 2.308 . S
O48 C63 1.266 1_556 S
O49 Tb11 2.393 . S
O49 C63 1.248 . S
O50 Tb11 2.465 . S
O50 C75 1.264 . S
O51 Tb11 2.387 1_556 S
O51 C67 1.264 . S
O52 Tb0 2.349 . S
O52 C67 1.243 . S
O53 Tb11 2.428 . S
O53 C75 1.256 . S
O54 Tb11 2.308 . S
O54 C74 1.266 1_554 S
O55 Tb0 2.393 . S
O55 C74 1.248 . S
C56 O45 1.264 . S
C56 O46 1.243 . S
C57 C60 1.399 . S
C57 C62 1.383 . S
C57 C64 1.496 . S
C58 C59 1.399 . S
C58 C62 1.389 . S
C59 C58 1.399 . S
C59 C61 1.380 . S
C59 H76 0.929 . S
C60 C57 1.399 . S
C60 C61 1.392 . S
C60 H77 0.929 . S
C61 C59 1.380 . S
C61 C60 1.392 . S
C61 H78 0.929 . S
C62 C57 1.383 . S
C62 C58 1.389 . S
C62 H79 0.931 . S
C63 O48 1.266 1_554 S
C63 O49 1.248 . S
C64 Tb0 2.802 . S
C64 O44 1.264 . S
C64 O47 1.256 . S
C64 C57 1.496 . S
C65 C32 1.448 . S
C65 H42 0.930 1_545 S
C65 C66 1.328 1_556 S
C66 C37 1.425 1_554 S
C66 H43 0.929 . S
C66 C65 1.328 1_554 S
C67 O51 1.264 . S
C67 O52 1.243 . S
C68 C71 1.399 . S
C68 C72 1.383 . S
C68 C75 1.496 . S
C69 C70 1.399 . S
C69 C72 1.389 . S
C70 C69 1.399 . S
C70 C73 1.380 . S
C70 H80 0.929 . S
C71 C68 1.399 . S
C71 C73 1.392 . S
C71 H81 0.929 . S
C72 C68 1.383 . S
C72 C69 1.389 . S
C72 H82 0.931 . S
C73 C70 1.380 . S
C73 C71 1.392 . S
C73 H83 0.929 . S
C74 O54 1.266 1_556 S
C74 O55 1.248 . S
C75 Tb11 2.802 . S
C75 O50 1.264 . S
C75 O53 1.256 . S
C75 C68 1.496 . S
H76 C59 0.929 . S
H77 C60 0.929 . S
H78 C61 0.929 . S
H79 C62 0.931 . S
H80 C70 0.929 . S
H81 C71 0.929 . S
H82 C72 0.931 . S
H83 C73 0.929 . S
Tb84 N113 2.617 . S
Tb84 N119 2.572 . S
Tb84 O128 2.465 . S
Tb84 O129 2.387 1_556 S
Tb84 O131 2.428 . S
Tb84 O132 2.308 . S
Tb84 O136 2.349 . S
Tb84 O139 2.393 . S
Tb84 C148 2.802 . S
C85 N86 1.379 . S
C85 C88 1.416 . S
C85 C92 1.424 . S
N86 C85 1.379 . S
N86 C89 1.334 . S
N86 Tb95 2.617 . S
C87 C89 1.390 1_545 S
C87 C90 1.339 . S
C87 H107 0.930 . S
C88 C85 1.416 . S
C88 C90 1.416 1_565 S
C88 C94 1.448 . S
C89 N86 1.334 . S
C89 C87 1.390 1_565 S
C89 H100 0.930 . S
C90 C87 1.339 . S
C90 C88 1.416 1_545 S
C90 H111 0.930 . S
C91 C92 1.413 . S
C91 C93 1.427 . S
C91 C97 1.416 1_554 S
C92 C85 1.424 . S
C92 C91 1.413 . S
C92 N96 1.361 . S
C93 C91 1.427 . S
C93 C94 1.328 . S
C93 H108 0.929 1_554 S
C94 C88 1.448 . S
C94 C93 1.328 . S
C94 H109 0.930 1_565 S
Tb95 N86 2.617 . S
Tb95 N96 2.572 . S
Tb95 O130 2.349 . S
Tb95 O133 2.393 . S
Tb95 O134 2.465 . S
Tb95 O135 2.387 1_554 S
Tb95 O137 2.428 . S
Tb95 O138 2.308 . S
Tb95 C159 2.802 . S
N96 C92 1.361 . S
N96 Tb95 2.572 . S
N96 C98 1.340 . S
C97 C91 1.416 1_556 S
C97 C99 1.332 1_556 S
C97 H105 0.931 . S
C98 N96 1.340 . S
C98 C99 1.407 . S
C98 H104 0.930 . S
C99 C97 1.332 1_554 S
C99 C98 1.407 . S
C99 H101 0.929 1_554 S
H100 C89 0.930 . S
H101 C99 0.929 1_556 S
H102 C117 0.930 . S
H103 C124 0.929 . S
H104 C98 0.930 . S
H105 C97 0.931 . S
H106 C120 0.930 . S
H107 C87 0.930 . S
H108 C93 0.929 1_556 S
H109 C94 0.930 1_545 S
H110 C115 0.930 . S
H111 C90 0.930 . S
H112 C123 0.931 . S
N113 Tb84 2.617 . S
N113 C114 1.379 . S
N113 C117 1.334 . S
C114 N113 1.379 . S
C114 C116 1.416 . S
C114 C122 1.424 . S
C115 H110 0.930 . S
C115 C117 1.390 . S
C115 C118 1.339 . S
C116 C114 1.416 . S
C116 C118 1.416 . S
C116 C149 1.448 1_655 S
C117 H102 0.930 . S
C117 N113 1.334 . S
C117 C115 1.390 . S
C118 C115 1.339 . S
C118 C116 1.416 . S
C118 H125 0.930 . S
N119 Tb84 2.572 . S
N119 C120 1.340 . S
N119 C122 1.361 . S
C120 H106 0.930 . S
C120 N119 1.340 . S
C120 C124 1.407 1_656 S
C121 C122 1.414 1_455 S
C121 C123 1.417 1_556 S
C121 C150 1.425 1_556 S
C122 C114 1.424 . S
C122 N119 1.361 . S
C122 C121 1.414 1_655 S
C123 H112 0.931 . S
C123 C121 1.417 1_554 S
C123 C124 1.332 . S
C124 H103 0.929 . S
C124 C120 1.407 1_454 S
C124 C123 1.332 . S
H125 C118 0.930 . S
H126 C149 0.930 . S
H127 C150 0.929 . S
O128 Tb84 2.465 . S
O128 C148 1.264 . S
O129 Tb84 2.387 1_554 S
O129 C140 1.264 . S
O130 Tb95 2.349 . S
O130 C140 1.243 . S
O131 Tb84 2.428 . S
O131 C148 1.256 . S
O132 Tb84 2.308 . S
O132 C147 1.266 1_556 S
O133 Tb95 2.393 . S
O133 C147 1.248 . S
O134 Tb95 2.465 . S
O134 C159 1.264 . S
O135 Tb95 2.387 1_556 S
O135 C151 1.264 . S
O136 Tb84 2.349 . S
O136 C151 1.243 . S
O137 Tb95 2.428 . S
O137 C159 1.256 . S
O138 Tb95 2.308 . S
O138 C158 1.266 1_554 S
O139 Tb84 2.393 . S
O139 C158 1.248 . S
C140 O129 1.264 . S
C140 O130 1.243 . S
C141 C144 1.399 . S
C141 C146 1.383 . S
C141 C148 1.496 . S
C142 C143 1.399 . S
C142 C146 1.389 . S
C143 C142 1.399 . S
C143 C145 1.380 . S
C143 H160 0.929 . S
C144 C141 1.399 . S
C144 C145 1.392 . S
C144 H161 0.929 . S
C145 C143 1.380 . S
C145 C144 1.392 . S
C145 H162 0.929 . S
C146 C141 1.383 . S
C146 C142 1.389 . S
C146 H163 0.931 . S
C147 O132 1.266 1_554 S
C147 O133 1.248 . S
C148 Tb84 2.802 . S
C148 O128 1.264 . S
C148 O131 1.256 . S
C148 C141 1.496 . S
C149 C116 1.448 1_455 S
C149 H126 0.930 . S
C149 C150 1.328 1_556 S
C150 C121 1.425 1_554 S
C150 H127 0.929 . S
C150 C149 1.328 1_554 S
C151 O135 1.264 . S
C151 O136 1.243 . S
C152 C155 1.399 . S
C152 C156 1.383 . S
C152 C159 1.496 . S
C153 C154 1.399 . S
C153 C156 1.389 . S
C154 C153 1.399 . S
C154 C157 1.380 . S
C154 H164 0.929 . S
C155 C152 1.399 . S
C155 C157 1.392 . S
C155 H165 0.929 . S
C156 C152 1.383 . S
C156 C153 1.389 . S
C156 H166 0.931 . S
C157 C154 1.380 . S
C157 C155 1.392 . S
C157 H167 0.929 . S
C158 O138 1.266 1_556 S
C158 O139 1.248 . S
C159 Tb95 2.802 . S
C159 O134 1.264 . S
C159 O137 1.256 . S
C159 C152 1.496 . S
H160 C143 0.929 . S
H161 C144 0.929 . S
H162 C145 0.929 . S
H163 C146 0.931 . S
H164 C154 0.929 . S
H165 C155 0.929 . S
H166 C156 0.931 . S
H167 C157 0.929 . S
Tb168 N197 2.617 . S
Tb168 N203 2.572 . S
Tb168 O212 2.465 . S
Tb168 O213 2.387 . S
Tb168 O215 2.428 . S
Tb168 O216 2.308 . S
Tb168 O220 2.349 . S
Tb168 O223 2.393 . S
Tb168 C232 2.802 . S
C169 N170 1.379 . S
C169 C172 1.416 . S
C169 C176 1.424 . S
N170 C169 1.379 . S
N170 C173 1.334 . S
N170 Tb179 2.617 . S
C171 C173 1.390 . S
C171 C174 1.339 . S
C171 H191 0.930 . S
C172 C169 1.416 . S
C172 C174 1.416 . S
C172 C178 1.448 1_455 S
C173 N170 1.334 . S
C173 C171 1.390 . S
C173 H184 0.930 . S
C174 C171 1.339 . S
C174 C172 1.416 . S
C174 H195 0.930 . S
C175 C176 1.413 1_655 S
C175 C177 1.427 . S
C175 C181 1.416 . S
C176 C169 1.424 . S
C176 C175 1.413 1_455 S
C176 N180 1.361 . S
C177 C175 1.427 . S
C177 C178 1.328 . S
C177 H192 0.929 . S
C178 C172 1.448 1_655 S
C178 C177 1.328 . S
C178 H193 0.930 . S
Tb179 N170 2.617 . S
Tb179 N180 2.572 . S
Tb179 O214 2.349 . S
Tb179 O217 2.393 . S
Tb179 O218 2.465 . S
Tb179 O219 2.387 . S
Tb179 O221 2.428 . S
Tb179 O222 2.308 . S
Tb179 C243 2.802 . S
N180 C176 1.361 . S
N180 Tb179 2.572 . S
N180 C182 1.340 . S
C181 C175 1.416 . S
C181 C183 1.332 . S
C181 H189 0.931 . S
C182 N180 1.340 . S
C182 C183 1.407 1_455 S
C182 H188 0.930 . S
C183 C181 1.332 . S
C183 C182 1.407 1_655 S
C183 H185 0.929 . S
H184 C173 0.930 . S
H185 C183 0.929 . S
H186 C201 0.930 . S
H187 C208 0.929 . S
H188 C182 0.930 . S
H189 C181 0.931 . S
H190 C204 0.930 . S
H191 C171 0.930 . S
H192 C177 0.929 . S
H193 C178 0.930 . S
H194 C199 0.930 . S
H195 C174 0.930 . S
H196 C207 0.931 . S
N197 Tb168 2.617 . S
N197 C198 1.379 . S
N197 C201 1.334 . S
C198 N197 1.379 . S
C198 C200 1.416 . S
C198 C206 1.424 . S
C199 H194 0.930 . S
C199 C201 1.390 1_545 S
C199 C202 1.339 . S
C200 C198 1.416 . S
C200 C202 1.416 1_565 S
C200 C233 1.448 . S
C201 H186 0.930 . S
C201 N197 1.334 . S
C201 C199 1.390 1_565 S
C202 C199 1.339 . S
C202 C200 1.416 1_545 S
C202 H209 0.930 . S
N203 Tb168 2.572 . S
N203 C204 1.340 . S
N203 C206 1.361 . S
C204 H190 0.930 . S
C204 N203 1.340 . S
C204 C208 1.407 . S
C205 C206 1.413 . S
C205 C207 1.416 . S
C205 C234 1.427 . S
C206 C198 1.424 . S
C206 N203 1.361 . S
C206 C205 1.413 . S
C207 H196 0.931 . S
C207 C205 1.416 . S
C207 C208 1.332 . S
C208 H187 0.929 . S
C208 C204 1.407 . S
C208 C207 1.332 . S
H209 C202 0.930 . S
H210 C233 0.930 1_545 S
H211 C234 0.929 . S
O212 Tb168 2.465 . S
O212 C232 1.264 . S
O213 Tb168 2.387 . S
O213 C224 1.264 . S
O214 Tb179 2.349 . S
O214 C224 1.243 . S
O215 Tb168 2.428 . S
O215 C232 1.256 . S
O216 Tb168 2.308 . S
O216 C231 1.266 . S
O217 Tb179 2.393 . S
O217 C231 1.248 . S
O218 Tb179 2.465 . S
O218 C243 1.264 . S
O219 Tb179 2.387 . S
O219 C235 1.264 . S
O220 Tb168 2.349 . S
O220 C235 1.243 . S
O221 Tb179 2.428 . S
O221 C243 1.256 . S
O222 Tb179 2.308 . S
O222 C242 1.266 . S
O223 Tb168 2.393 . S
O223 C242 1.248 . S
C224 O213 1.264 . S
C224 O214 1.243 . S
C225 C228 1.399 . S
C225 C230 1.383 . S
C225 C232 1.496 . S
C226 C227 1.399 . S
C226 C230 1.389 . S
C227 C226 1.399 . S
C227 C229 1.380 . S
C227 H244 0.929 . S
C228 C225 1.399 . S
C228 C229 1.392 . S
C228 H245 0.929 . S
C229 C227 1.380 . S
C229 C228 1.392 . S
C229 H246 0.929 . S
C230 C225 1.383 . S
C230 C226 1.389 . S
C230 H247 0.931 . S
C231 O216 1.266 . S
C231 O217 1.248 . S
C232 Tb168 2.802 . S
C232 O212 1.264 . S
C232 O215 1.256 . S
C232 C225 1.496 . S
C233 C200 1.448 . S
C233 H210 0.930 1_565 S
C233 C234 1.328 . S
C234 C205 1.427 . S
C234 H211 0.929 . S
C234 C233 1.328 . S
C235 O219 1.264 . S
C235 O220 1.243 . S
C236 C239 1.399 . S
C236 C240 1.383 . S
C236 C243 1.496 . S
C237 C238 1.399 . S
C237 C240 1.389 . S
C238 C237 1.399 . S
C238 C241 1.380 . S
C238 H248 0.929 . S
C239 C236 1.399 . S
C239 C241 1.392 . S
C239 H249 0.929 . S
C240 C236 1.383 . S
C240 C237 1.389 . S
C240 H250 0.931 . S
C241 C238 1.380 . S
C241 C239 1.392 . S
C241 H251 0.929 . S
C242 O222 1.266 . S
C242 O223 1.248 . S
C243 Tb179 2.802 . S
C243 O218 1.264 . S
C243 O221 1.256 . S
C243 C236 1.496 . S
H244 C227 0.929 . S
H245 C228 0.929 . S
H246 C229 0.929 . S
H247 C230 0.931 . S
H248 C238 0.929 . S
H249 C239 0.929 . S
H250 C240 0.931 . S
H251 C241 0.929 . S
Tb252 N281 2.617 . S
Tb252 N287 2.572 . S
Tb252 O296 2.465 . S
Tb252 O297 2.387 . S
Tb252 O299 2.428 . S
Tb252 O300 2.308 . S
Tb252 O304 2.349 . S
Tb252 O307 2.393 . S
Tb252 C316 2.802 . S
C253 N254 1.379 . S
C253 C256 1.416 . S
C253 C260 1.424 . S
N254 C253 1.379 . S
N254 C257 1.334 . S
N254 Tb263 2.617 . S
C255 C257 1.390 1_565 S
C255 C258 1.339 . S
C255 H275 0.930 . S
C256 C253 1.416 . S
C256 C258 1.416 1_545 S
C256 C262 1.448 . S
C257 N254 1.334 . S
C257 C255 1.390 1_545 S
C257 H268 0.930 . S
C258 C255 1.339 . S
C258 C256 1.416 1_565 S
C258 H279 0.930 . S
C259 C260 1.413 . S
C259 C261 1.427 . S
C259 C265 1.416 . S
C260 C253 1.424 . S
C260 C259 1.413 . S
C260 N264 1.361 . S
C261 C259 1.427 . S
C261 C262 1.328 . S
C261 H276 0.929 . S
C262 C256 1.448 . S
C262 C261 1.328 . S
C262 H277 0.930 1_545 S
Tb263 N254 2.617 . S
Tb263 N264 2.572 . S
Tb263 O298 2.349 . S
Tb263 O301 2.393 . S
Tb263 O302 2.465 . S
Tb263 O303 2.387 . S
Tb263 O305 2.428 . S
Tb263 O306 2.308 . S
Tb263 C327 2.802 . S
N264 C260 1.361 . S
N264 Tb263 2.572 . S
N264 C266 1.340 . S
C265 C259 1.416 . S
C265 C267 1.332 . S
C265 H273 0.931 . S
C266 N264 1.340 . S
C266 C267 1.407 . S
C266 H272 0.930 . S
C267 C265 1.332 . S
C267 C266 1.407 . S
C267 H269 0.929 . S
H268 C257 0.930 . S
H269 C267 0.929 . S
H270 C285 0.930 . S
H271 C292 0.929 . S
H272 C266 0.930 . S
H273 C265 0.931 . S
H274 C288 0.930 . S
H275 C255 0.930 . S
H276 C261 0.929 . S
H277 C262 0.930 1_565 S
H278 C283 0.930 . S
H279 C258 0.930 . S
H280 C291 0.931 . S
N281 Tb252 2.617 . S
N281 C282 1.379 . S
N281 C285 1.334 . S
C282 N281 1.379 . S
C282 C284 1.416 . S
C282 C290 1.424 . S
C283 H278 0.930 . S
C283 C285 1.390 . S
C283 C286 1.339 . S
C284 C282 1.416 . S
C284 C286 1.416 . S
C284 C317 1.448 1_655 S
C285 H270 0.930 . S
C285 N281 1.334 . S
C285 C283 1.390 . S
C286 C283 1.339 . S
C286 C284 1.416 . S
C286 H293 0.930 . S
N287 Tb252 2.572 . S
N287 C288 1.340 . S
N287 C290 1.361 . S
C288 H274 0.930 . S
C288 N287 1.340 . S
C288 C292 1.407 1_655 S
C289 C290 1.413 1_455 S
C289 C291 1.416 . S
C289 C318 1.427 . S
C290 C282 1.424 . S
C290 N287 1.361 . S
C290 C289 1.413 1_655 S
C291 H280 0.931 . S
C291 C289 1.416 . S
C291 C292 1.332 . S
C292 H271 0.929 . S
C292 C288 1.407 1_455 S
C292 C291 1.332 . S
H293 C286 0.930 . S
H294 C317 0.930 . S
H295 C318 0.929 . S
O296 Tb252 2.465 . S
O296 C316 1.264 . S
O297 Tb252 2.387 . S
O297 C308 1.264 . S
O298 Tb263 2.349 . S
O298 C308 1.243 . S
O299 Tb252 2.428 . S
O299 C316 1.256 . S
O300 Tb252 2.308 . S
O300 C315 1.266 . S
O301 Tb263 2.393 . S
O301 C315 1.248 . S
O302 Tb263 2.465 . S
O302 C327 1.264 . S
O303 Tb263 2.387 . S
O303 C319 1.264 . S
O304 Tb252 2.349 . S
O304 C319 1.243 . S
O305 Tb263 2.428 . S
O305 C327 1.256 . S
O306 Tb263 2.308 . S
O306 C326 1.266 . S
O307 Tb252 2.393 . S
O307 C326 1.248 . S
C308 O297 1.264 . S
C308 O298 1.243 . S
C309 C312 1.399 . S
C309 C314 1.383 . S
C309 C316 1.496 . S
C310 C311 1.399 . S
C310 C314 1.389 . S
C311 C310 1.399 . S
C311 C313 1.380 . S
C311 H328 0.929 . S
C312 C309 1.399 . S
C312 C313 1.392 . S
C312 H329 0.929 . S
C313 C311 1.380 . S
C313 C312 1.392 . S
C313 H330 0.929 . S
C314 C309 1.383 . S
C314 C310 1.389 . S
C314 H331 0.931 . S
C315 O300 1.266 . S
C315 O301 1.248 . S
C316 Tb252 2.802 . S
C316 O296 1.264 . S
C316 O299 1.256 . S
C316 C309 1.496 . S
C317 C284 1.448 1_455 S
C317 H294 0.930 . S
C317 C318 1.328 . S
C318 C289 1.427 . S
C318 H295 0.929 . S
C318 C317 1.328 . S
C319 O303 1.264 . S
C319 O304 1.243 . S
C320 C323 1.399 . S
C320 C324 1.383 . S
C320 C327 1.496 . S
C321 C322 1.399 . S
C321 C324 1.389 . S
C322 C321 1.399 . S
C322 C325 1.380 . S
C322 H332 0.929 . S
C323 C320 1.399 . S
C323 C325 1.392 . S
C323 H333 0.929 . S
C324 C320 1.383 . S
C324 C321 1.389 . S
C324 H334 0.931 . S
C325 C322 1.380 . S
C325 C323 1.392 . S
C325 H335 0.929 . S
C326 O306 1.266 . S
C326 O307 1.248 . S
C327 Tb263 2.802 . S
C327 O302 1.264 . S
C327 O305 1.256 . S
C327 C320 1.496 . S
H328 C311 0.929 . S
H329 C312 0.929 . S
H330 C313 0.929 . S
H331 C314 0.931 . S
H332 C322 0.929 . S
H333 C323 0.929 . S
H334 C324 0.931 . S
H335 C325 0.929 . S
H336 C342 0.930 . S
H337 C346 0.930 . S
H338 C351 0.929 . S
H339 C349 0.929 . S
H340 C344 0.929 . S
H341 C350 0.929 . S
C342 H336 0.930 . S
C342 C343 1.367 . S
C342 C350 1.378 . S
C343 C342 1.367 . S
C343 C351 1.433 1_554 S
C344 H340 0.929 . S
C344 C346 1.378 . S
C344 C348 1.350 1_556 S
C345 C348 1.463 . S
C345 C350 1.350 . S
C345 N353 1.427 1_554 S
C346 H337 0.930 . S
C346 C344 1.378 . S
C346 C347 1.367 1_556 S
C347 C346 1.367 1_554 S
C347 C349 1.433 . S
C348 C344 1.350 1_554 S
C348 C345 1.463 . S
C348 N352 1.427 . S
C349 H339 0.929 . S
C349 C347 1.433 . S
C349 N352 1.384 . S
C350 H341 0.929 . S
C350 C342 1.378 . S
C350 C345 1.350 . S
C351 H338 0.929 . S
C351 C343 1.433 1_556 S
C351 N353 1.384 . S
N352 C348 1.427 . S
N352 C349 1.384 . S
N353 C345 1.427 1_556 S
N353 C351 1.384 . S
H354 C360 0.930 . S
H355 C364 0.930 . S
H356 C369 0.929 . S
H357 C367 0.929 . S
H358 C362 0.929 . S
H359 C368 0.929 . S
C360 H354 0.930 . S
C360 C361 1.367 . S
C360 C368 1.378 . S
C361 C360 1.367 . S
C361 C369 1.433 . S
C362 H358 0.929 . S
C362 C364 1.378 . S
C362 C366 1.350 . S
C363 C366 1.463 . S
C363 C368 1.350 . S
C363 N371 1.427 . S
C364 H355 0.930 . S
C364 C362 1.378 . S
C364 C365 1.367 . S
C365 C364 1.367 . S
C365 C367 1.433 . S
C366 C362 1.350 . S
C366 C363 1.463 . S
C366 N370 1.427 . S
C367 H357 0.929 . S
C367 C365 1.433 . S
C367 N370 1.384 . S
C368 H359 0.929 . S
C368 C360 1.378 . S
C368 C363 1.350 . S
C369 H356 0.929 . S
C369 C361 1.433 . S
C369 N371 1.384 . S
N370 C366 1.427 . S
N370 C367 1.384 . S
N371 C363 1.427 . S
N371 C369 1.384 . S
H372 C378 0.930 . S
H373 C382 0.930 . S
H374 C387 0.929 . S
H375 C385 0.929 . S
H376 C380 0.929 . S
H377 C386 0.929 . S
C378 H372 0.930 . S
C378 C379 1.367 1_556 S
C378 C386 1.378 . S
C379 C378 1.367 1_554 S
C379 C387 1.433 . S
C380 H376 0.929 . S
C380 C382 1.378 . S
C380 C384 1.350 . S
C381 C384 1.463 1_445 S
C381 C386 1.350 1_554 S
C381 N389 1.427 . S
C382 H373 0.930 . S
C382 C380 1.378 . S
C382 C383 1.367 . S
C383 C382 1.367 . S
C383 C385 1.433 1_554 S
C384 C380 1.350 . S
C384 C381 1.463 1_665 S
C384 N388 1.427 1_554 S
C385 H375 0.929 . S
C385 C383 1.433 1_556 S
C385 N388 1.384 . S
C386 H377 0.929 . S
C386 C378 1.378 . S
C386 C381 1.350 1_556 S
C387 H374 0.929 . S
C387 C379 1.433 . S
C387 N389 1.384 . S
N388 C384 1.427 1_556 S
N388 C385 1.384 . S
N389 C381 1.427 . S
N389 C387 1.384 . S
H390 C396 0.930 . S
H391 C400 0.930 . S
H392 C405 0.929 . S
H393 C403 0.929 . S
H394 C398 0.929 . S
H395 C404 0.929 . S
C396 H390 0.930 . S
C396 C397 1.367 . S
C396 C404 1.378 . S
C397 C396 1.367 . S
C397 C405 1.433 . S
C398 H394 0.929 . S
C398 C400 1.378 . S
C398 C402 1.350 . S
C399 C402 1.463 1_645 S
C399 C404 1.350 . S
C399 N407 1.427 . S
C400 H391 0.930 . S
C400 C398 1.378 . S
C400 C401 1.367 . S
C401 C400 1.367 . S
C401 C403 1.433 . S
C402 C398 1.350 . S
C402 C399 1.463 1_465 S
C402 N406 1.427 . S
C403 H393 0.929 . S
C403 C401 1.433 . S
C403 N406 1.384 . S
C404 H395 0.929 . S
C404 C396 1.378 . S
C404 C399 1.350 . S
C405 H392 0.929 . S
C405 C397 1.433 . S
C405 N407 1.384 . S
N406 C402 1.427 . S
N406 C403 1.384 . S
N407 C399 1.427 . S
N407 C405 1.384 . S
H408 C414 0.930 . S
H409 C418 0.930 . S
H410 C423 0.929 . S
H411 C421 0.929 . S
H412 C416 0.929 . S
H413 C422 0.929 . S
C414 H408 0.930 . S
C414 C415 1.367 . S
C414 C422 1.378 . S
C415 C414 1.367 . S
C415 C423 1.433 . S
C416 H412 0.929 . S
C416 C418 1.378 . S
C416 C420 1.350 . S
C417 C420 1.463 . S
C417 C422 1.350 . S
C417 N425 1.427 . S
C418 H409 0.930 . S
C418 C416 1.378 . S
C418 C419 1.367 . S
C419 C418 1.367 . S
C419 C421 1.433 . S
C420 C416 1.350 . S
C420 C417 1.463 . S
C420 N424 1.427 . S
C421 H411 0.929 . S
C421 C419 1.433 . S
C421 N424 1.384 . S
C422 H413 0.929 . S
C422 C414 1.378 . S
C422 C417 1.350 . S
C423 H410 0.929 . S
C423 C415 1.433 . S
C423 N425 1.384 . S
N424 C420 1.427 . S
N424 C421 1.384 . S
N425 C417 1.427 . S
N425 C423 1.384 . S
H426 C432 0.930 . S
H427 C436 0.930 . S
H428 C441 0.929 . S
H429 C439 0.929 . S
H430 C434 0.929 . S
H431 C440 0.929 . S
C432 H426 0.930 . S
C432 C433 1.367 . S
C432 C440 1.378 . S
C433 C432 1.367 . S
C433 C441 1.433 . S
C434 H430 0.929 . S
C434 C436 1.378 . S
C434 C438 1.350 . S
C435 C438 1.463 . S
C435 C440 1.350 . S
C435 N443 1.427 . S
C436 H427 0.930 . S
C436 C434 1.378 . S
C436 C437 1.367 . S
C437 C436 1.367 . S
C437 C439 1.433 . S
C438 C434 1.350 . S
C438 C435 1.463 . S
C438 N442 1.427 . S
C439 H429 0.929 . S
C439 C437 1.433 . S
C439 N442 1.384 . S
C440 H431 0.929 . S
C440 C432 1.378 . S
C440 C435 1.350 . S
C441 H428 0.929 . S
C441 C433 1.433 . S
C441 N443 1.384 . S
N442 C438 1.427 . S
N442 C439 1.384 . S
N443 C435 1.427 . S
N443 C441 1.384 . S
H444 C450 0.930 . S
H445 C454 0.930 . S
H446 C459 0.929 . S
H447 C457 0.929 . S
H448 C452 0.929 . S
H449 C458 0.929 . S
C450 H444 0.930 . S
C450 C451 1.367 . S
C450 C458 1.378 . S
C451 C450 1.367 . S
C451 C459 1.433 . S
C452 H448 0.929 . S
C452 C454 1.378 . S
C452 C456 1.350 . S
C453 C456 1.463 . S
C453 C458 1.350 . S
C453 N461 1.427 . S
C454 H445 0.930 . S
C454 C452 1.378 . S
C454 C455 1.367 . S
C455 C454 1.367 . S
C455 C457 1.433 . S
C456 C452 1.350 . S
C456 C453 1.463 . S
C456 N460 1.427 . S
C457 H447 0.929 . S
C457 C455 1.433 . S
C457 N460 1.384 . S
C458 H449 0.929 . S
C458 C450 1.378 . S
C458 C453 1.350 . S
C459 H446 0.929 . S
C459 C451 1.433 . S
C459 N461 1.384 . S
N460 C456 1.427 . S
N460 C457 1.384 . S
N461 C453 1.427 . S
N461 C459 1.384 . S
H462 C468 0.930 . S
H463 C472 0.930 . S
H464 C477 0.929 . S
H465 C475 0.929 . S
H466 C470 0.929 . S
H467 C476 0.929 . S
C468 H462 0.930 . S
C468 C469 1.367 . S
C468 C476 1.378 . S
C469 C468 1.367 . S
C469 C477 1.433 . S
C470 H466 0.929 . S
C470 C472 1.378 . S
C470 C474 1.350 . S
C471 C474 1.463 . S
C471 C476 1.350 . S
C471 N479 1.427 . S
C472 H463 0.930 . S
C472 C470 1.378 . S
C472 C473 1.367 . S
C473 C472 1.367 . S
C473 C475 1.433 . S
C474 C470 1.350 . S
C474 C471 1.463 . S
C474 N478 1.427 . S
C475 H465 0.929 . S
C475 C473 1.433 . S
C475 N478 1.384 . S
C476 H467 0.929 . S
C476 C468 1.378 . S
C476 C471 1.350 . S
C477 H464 0.929 . S
C477 C469 1.433 . S
C477 N479 1.384 . S
N478 C474 1.427 . S
N478 C475 1.384 . S
N479 C471 1.427 . S
N479 C477 1.384 . S
H480 C486 0.930 . S
H481 C490 0.930 . S
H482 C495 0.929 . S
H483 C493 0.929 . S
H484 C488 0.929 . S
H485 C494 0.929 . S
C486 H480 0.930 . S
C486 C487 1.367 . S
C486 C494 1.378 . S
C487 C486 1.367 . S
C487 C495 1.433 . S
C488 H484 0.929 . S
C488 C490 1.378 . S
C488 C492 1.350 1_455 S
C489 C492 1.463 . S
C489 C494 1.350 . S
C489 N497 1.427 . S
C490 H481 0.930 . S
C490 C488 1.378 . S
C490 C491 1.367 . S
C491 C490 1.367 . S
C491 C493 1.433 1_455 S
C492 C488 1.350 1_655 S
C492 C489 1.463 . S
C492 N496 1.427 . S
C493 H483 0.929 . S
C493 C491 1.433 1_655 S
C493 N496 1.384 . S
C494 H485 0.929 . S
C494 C486 1.378 . S
C494 C489 1.350 . S
C495 H482 0.929 . S
C495 C487 1.433 . S
C495 N497 1.384 . S
N496 C492 1.427 . S
N496 C493 1.384 . S
N497 C489 1.427 . S
N497 C495 1.384 . S
H498 C504 0.930 . S
H499 C508 0.930 . S
H500 C513 0.929 . S
H501 C511 0.929 . S
H502 C506 0.929 . S
H503 C512 0.929 . S
C504 H498 0.930 . S
C504 C505 1.367 . S
C504 C512 1.378 . S
C505 C504 1.367 . S
C505 C513 1.433 . S
C506 H502 0.929 . S
C506 C508 1.378 . S
C506 C510 1.350 1_455 S
C507 C510 1.463 . S
C507 C512 1.350 . S
C507 N515 1.427 . S
C508 H499 0.930 . S
C508 C506 1.378 . S
C508 C509 1.367 . S
C509 C508 1.367 . S
C509 C511 1.433 1_455 S
C510 C506 1.350 1_655 S
C510 C507 1.463 . S
C510 N514 1.427 . S
C511 H501 0.929 . S
C511 C509 1.433 1_655 S
C511 N514 1.384 . S
C512 H503 0.929 . S
C512 C504 1.378 . S
C512 C507 1.350 . S
C513 H500 0.929 . S
C513 C505 1.433 . S
C513 N515 1.384 . S
N514 C510 1.427 . S
N514 C511 1.384 . S
N515 C507 1.427 . S
N515 C513 1.384 . S
H516 C522 0.930 . S
H517 C526 0.930 . S
H518 C531 0.929 . S
H519 C529 0.929 . S
H520 C524 0.929 . S
H521 C530 0.929 . S
C522 H516 0.930 . S
C522 C523 1.367 1_455 S
C522 C530 1.378 . S
C523 C522 1.367 1_655 S
C523 C531 1.433 . S
C524 H520 0.929 . S
C524 C526 1.378 . S
C524 C528 1.350 . S
C525 C528 1.463 . S
C525 C530 1.350 . S
C525 N533 1.427 . S
C526 H517 0.930 . S
C526 C524 1.378 . S
C526 C527 1.367 . S
C527 C526 1.367 . S
C527 C529 1.433 . S
C528 C524 1.350 . S
C528 C525 1.463 . S
C528 N532 1.427 . S
C529 H519 0.929 . S
C529 C527 1.433 . S
C529 N532 1.384 . S
C530 H521 0.929 . S
C530 C522 1.378 . S
C530 C525 1.350 . S
C531 H518 0.929 . S
C531 C523 1.433 . S
C531 N533 1.384 1_655 S
N532 C528 1.427 . S
N532 C529 1.384 . S
N533 C525 1.427 . S
N533 C531 1.384 1_455 S
H534 C540 0.930 . S
H535 C544 0.930 . S
H536 C549 0.929 . S
H537 C547 0.929 . S
H538 C542 0.929 . S
H539 C548 0.929 . S
C540 H534 0.930 . S
C540 C541 1.367 . S
C540 C548 1.378 . S
C541 C540 1.367 . S
C541 C549 1.433 . S
C542 H538 0.929 . S
C542 C544 1.378 . S
C542 C546 1.350 1_655 S
C543 C546 1.463 . S
C543 C548 1.350 . S
C543 N551 1.427 . S
C544 H535 0.930 . S
C544 C542 1.378 . S
C544 C545 1.367 . S
C545 C544 1.367 . S
C545 C547 1.433 1_655 S
C546 C542 1.350 1_455 S
C546 C543 1.463 . S
C546 N550 1.427 . S
C547 H537 0.929 . S
C547 C545 1.433 1_455 S
C547 N550 1.384 . S
C548 H539 0.929 . S
C548 C540 1.378 . S
C548 C543 1.350 . S
C549 H536 0.929 . S
C549 C541 1.433 . S
C549 N551 1.384 . S
N550 C546 1.427 . S
N550 C547 1.384 . S
N551 C543 1.427 . S
N551 C549 1.384 . S
C343 C158 1.516 1_554 S
C347 C63 1.516 . S
C361 C231 1.512 . S
C365 C326 1.512 . S
C379 C74 1.507 1_554 S
C383 C147 1.507 . S
C397 C315 1.516 . S
C401 C242 1.516 . S
C415 C321 1.228 . S
C419 C56 1.317 . S
C433 C153 1.248 . S
C437 C224 1.313 . S
C451 C151 1.317 . S
C455 C226 1.228 . S
C469 C319 1.311 . S
C473 C58 1.246 . S
C487 C140 1.311 . S
C491 C237 1.231 . S
C505 C308 1.311 . S
C509 C69 1.232 . S
C523 C310 1.249 . S
C527 C67 1.314 . S
C541 C235 1.311 . S
C545 C142 1.229 . S
