# Generated by pormake.
# Topology sml, (6)-cn, num edge types: 1
# Building blocks:
#     Node 0, Type 0, BuildingBlock: INOVEN_clean_sbu_0, # of connection points: 6
#     Node 1, Type 0, BuildingBlock: INOVEN_clean_sbu_0, # of connection points: 6
#     Node 2, Type 0, BuildingBlock: INOVEN_clean_sbu_0, # of connection points: 6
#     Node 3, Type 0, BuildingBlock: INOVEN_clean_sbu_0, # of connection points: 6
#     Node 4, Type 0, BuildingBlock: INOVEN_clean_sbu_0, # of connection points: 6
#     Node 5, Type 0, BuildingBlock: INOVEN_clean_sbu_0, # of connection points: 6
#     Edge 6, Type (0, 0), BuildingBlock: UVAHIK_clean_linker_0, # of connection points: 2
#     Edge 7, Type (0, 0), BuildingBlock: UVAHIK_clean_linker_0, # of connection points: 2
#     Edge 8, Type (0, 0), BuildingBlock: UVAHIK_clean_linker_0, # of connection points: 2
#     Edge 9, Type (0, 0), BuildingBlock: UVAHIK_clean_linker_0, # of connection points: 2
#     Edge 10, Type (0, 0), BuildingBlock: UVAHIK_clean_linker_0, # of connection points: 2
#     Edge 11, Type (0, 0), BuildingBlock: UVAHIK_clean_linker_0, # of connection points: 2
#     Edge 12, Type (0, 0), BuildingBlock: UVAHIK_clean_linker_0, # of connection points: 2
#     Edge 13, Type (0, 0), BuildingBlock: UVAHIK_clean_linker_0, # of connection points: 2
#     Edge 14, Type (0, 0), BuildingBlock: UVAHIK_clean_linker_0, # of connection points: 2
#     Edge 15, Type (0, 0), BuildingBlock: UVAHIK_clean_linker_0, # of connection points: 2
#     Edge 16, Type (0, 0), BuildingBlock: UVAHIK_clean_linker_0, # of connection points: 2
#     Edge 17, Type (0, 0), BuildingBlock: UVAHIK_clean_linker_0, # of connection points: 2
#     Edge 18, Type (0, 0), BuildingBlock: UVAHIK_clean_linker_0, # of connection points: 2
#     Edge 19, Type (0, 0), BuildingBlock: UVAHIK_clean_linker_0, # of connection points: 2
#     Edge 20, Type (0, 0), BuildingBlock: UVAHIK_clean_linker_0, # of connection points: 2
#     Edge 21, Type (0, 0), BuildingBlock: UVAHIK_clean_linker_0, # of connection points: 2
#     Edge 22, Type (0, 0), BuildingBlock: UVAHIK_clean_linker_0, # of connection points: 2
#     Edge 23, Type (0, 0), BuildingBlock: UVAHIK_clean_linker_0, # of connection points: 2
# Relax obj value: 0.181
# Max RMSD: 0.223
# Mean RMSD: 0.223
data_MOF--net-sml--node1-INOVEN_clean_sbu_0--edge1-UVAHIK_clean_linker_0
_symmetry_space_group_name_H-M    P1
_symmetry_Int_Tables_number       1
_symmetry_cell_setting            triclinic
loop_
_symmetry_equiv_pos_as_xyz
'x, y, z'
_cell_length_a     44.251308
_cell_length_b     44.228561
_cell_length_c     29.841501
_cell_angle_alpha  90.019257
_cell_angle_beta   90.019995
_cell_angle_gamma 120.04013
loop_
_atom_site_label
_atom_site_type_symbol
_atom_site_fract_x
_atom_site_fract_y
_atom_site_fract_z
_atom_type_partial_charge
Gd0 Gd 0.18278 0.43303 0.95766 0.0
Gd1 Gd 0.20082 0.40378 0.04106 0.0
C2 C 0.19957 0.36903 0.9481 0.0
C3 C 0.18062 0.45799 0.87992 0.0
C4 C 0.18237 0.45108 0.83189 0.0
C5 C 0.16295 0.45848 0.80124 0.0
C6 C 0.20312 0.43757 0.81607 0.0
C7 C 0.185 0.43916 0.73918 0.0
C8 C 0.20445 0.43169 0.77011 0.0
C9 C 0.16424 0.45262 0.75543 0.0
C10 C 0.12822 0.3863 0.00624 0.0
C11 C 0.18644 0.46944 0.05048 0.0
C12 C 0.20216 0.37828 0.11872 0.0
C13 C 0.20099 0.38538 0.16683 0.0
C14 C 0.22024 0.37745 0.19711 0.0
C15 C 0.18091 0.39953 0.18309 0.0
C16 C 0.19922 0.39733 0.25968 0.0
C17 C 0.17999 0.4054 0.22912 0.0
C18 C 0.21939 0.38335 0.24301 0.0
C19 C 0.25546 0.45175 0.99315 0.0
O20 O 0.19852 0.39557 0.92912 0.0
O21 O 0.19611 0.36358 0.99181 0.0
O22 O 0.15273 0.43513 0.90148 0.0
O23 O 0.2093 0.46926 0.90338 0.0
O24 O 0.12932 0.41312 0.98691 0.0
O25 O 0.15511 0.38454 0.99719 0.0
O26 O 0.18666 0.44259 0.06996 0.0
O27 O 0.18941 0.47413 0.00659 0.0
O28 O 0.23032 0.40039 0.097 0.0
O29 O 0.17352 0.36802 0.09548 0.0
O30 O 0.25518 0.42534 0.01256 0.0
O31 O 0.22802 0.45237 1.00212 0.0
H32 H 0.14689 0.46905 0.81275 0.0
H33 H 0.21832 0.43163 0.83916 0.0
H34 H 0.22042 0.42096 0.75887 0.0
H35 H 0.14936 0.45921 0.73263 0.0
H36 H 0.23581 0.36642 0.18526 0.0
H37 H 0.1659 0.40594 0.16029 0.0
H38 H 0.16448 0.41655 0.24072 0.0
H39 H 0.2341 0.37634 0.26552 0.0
Gd40 Gd 0.75597 0.18869 0.29997 0.0
Gd41 Gd 0.80355 0.21174 0.38297 0.0
C42 C 0.8371 0.20719 0.2921 0.0
C43 C 0.72701 0.17816 0.22175 0.0
C44 C 0.73684 0.18359 0.17375 0.0
C45 C 0.72827 0.15446 0.14658 0.0
C46 C 0.75333 0.21698 0.15411 0.0
C47 C 0.75283 0.19184 0.08114 0.0
C48 C 0.76137 0.22106 0.10833 0.0
C49 C 0.73618 0.1585 0.10091 0.0
C50 C 0.74643 0.13736 0.35645 0.0
C51 C 0.72394 0.19802 0.39019 0.0
C52 C 0.83032 0.21686 0.46166 0.0
C53 C 0.8202 0.21395 0.50945 0.0
C54 C 0.83371 0.24425 0.53592 0.0
C55 C 0.79865 0.18132 0.52969 0.0
C56 C 0.80486 0.20949 0.60203 0.0
C57 C 0.79112 0.17914 0.57552 0.0
C58 C 0.826 0.24208 0.5816 0.0
C59 C 0.81303 0.26397 0.32799 0.0
O60 O 0.80972 0.20579 0.27199 0.0
O61 O 0.8387 0.20477 0.33601 0.0
O62 O 0.73181 0.15496 0.24283 0.0
O63 O 0.73466 0.20562 0.24638 0.0
O64 O 0.72123 0.13831 0.33566 0.0
O65 O 0.77558 0.16272 0.34513 0.0
O66 O 0.75106 0.19926 0.41075 0.0
O67 O 0.72162 0.19807 0.34603 0.0
O68 O 0.83276 0.24356 0.43962 0.0
O69 O 0.81662 0.18817 0.43772 0.0
O70 O 0.83788 0.26472 0.35189 0.0
O71 O 0.78409 0.23762 0.33765 0.0
H72 H 0.71503 0.12836 0.1606 0.0
H73 H 0.75981 0.23995 0.17385 0.0
H74 H 0.7744 0.24714 0.09431 0.0
H75 H 0.72853 0.13534 0.08091 0.0
H76 H 0.85073 0.2697 0.52139 0.0
H77 H 0.78788 0.15742 0.51033 0.0
H78 H 0.7745 0.15368 0.59024 0.0
H79 H 0.83738 0.26589 0.6012 0.0
Gd80 Gd 0.56184 0.75012 0.62568 0.0
Gd81 Gd 0.58978 0.79608 0.71008 0.0
C82 C 0.62512 0.83134 0.61841 0.0
C83 C 0.53688 0.72269 0.54806 0.0
C84 C 0.54215 0.73129 0.50001 0.0
C85 C 0.53223 0.70417 0.46898 0.0
C86 C 0.55669 0.76579 0.4846 0.0
C87 C 0.55077 0.74566 0.40718 0.0
C88 C 0.56099 0.77292 0.43853 0.0
C89 C 0.53649 0.71123 0.42308 0.0
C90 C 0.60831 0.74191 0.67433 0.0
C91 C 0.52528 0.71567 0.71818 0.0
C92 C 0.61513 0.82302 0.78774 0.0
C93 C 0.60826 0.81506 0.83584 0.0
C94 C 0.61724 0.84259 0.86594 0.0
C95 C 0.59348 0.78081 0.85228 0.0
C96 C 0.59757 0.80204 0.92881 0.0
C97 C 0.58813 0.77434 0.8984 0.0
C98 C 0.61195 0.83619 0.91191 0.0
C99 C 0.54169 0.80267 0.66217 0.0
O100 O 0.59868 0.8043 0.59826 0.0
O101 O 0.63037 0.83182 0.66199 0.0
O102 O 0.56151 0.71981 0.56837 0.0
O103 O 0.52442 0.73862 0.57235 0.0
O104 O 0.58176 0.71641 0.65429 0.0
O105 O 0.60999 0.77065 0.66596 0.0
O106 O 0.55161 0.74285 0.7382 0.0
O107 O 0.52095 0.71426 0.67421 0.0
O108 O 0.59295 0.82893 0.76597 0.0
O109 O 0.62531 0.8045 0.76474 0.0
O110 O 0.56791 0.82877 0.68195 0.0
O111 O 0.54141 0.7747 0.67059 0.0
H112 H 0.52114 0.67741 0.48028 0.0
H113 H 0.56452 0.78711 0.50809 0.0
H114 H 0.57181 0.79968 0.42746 0.0
H115 H 0.52894 0.68968 0.40004 0.0
H116 H 0.62853 0.86918 0.85385 0.0
H117 H 0.58639 0.75915 0.82958 0.0
H118 H 0.57725 0.74777 0.91028 0.0
H119 H 0.61894 0.85805 0.93421 0.0
Gd120 Gd 0.80111 0.56235 0.96813 0.0
Gd121 Gd 0.78461 0.5908 0.05271 0.0
C122 C 0.7849 0.62681 0.96099 0.0
C123 C 0.80032 0.53584 0.89044 0.0
C124 C 0.80026 0.5435 0.84242 0.0
C125 C 0.81692 0.53235 0.81225 0.0
C126 C 0.78356 0.56118 0.82612 0.0
C127 C 0.79953 0.55555 0.74957 0.0
C128 C 0.78322 0.56718 0.78007 0.0
C129 C 0.81661 0.53831 0.76634 0.0
C130 C 0.85741 0.6088 0.01447 0.0
C131 C 0.80134 0.52723 0.06038 0.0
C132 C 0.78144 0.61536 0.13038 0.0
C133 C 0.78535 0.61087 0.17846 0.0
C134 C 0.76979 0.62267 0.20943 0.0
C135 C 0.80405 0.59503 0.19395 0.0
C136 C 0.79171 0.60319 0.27134 0.0
C137 C 0.80717 0.59117 0.24006 0.0
C138 C 0.77291 0.61889 0.25538 0.0
C139 C 0.72929 0.54237 0.00564 0.0
O140 O 0.7866 0.60109 0.94061 0.0
O141 O 0.78794 0.63109 1.00487 0.0
O142 O 0.82904 0.55601 0.91252 0.0
O143 O 0.77207 0.52808 0.91321 0.0
O144 O 0.85557 0.58248 0.99287 0.0
O145 O 0.83026 0.6109 0.00812 0.0
O146 O 0.80266 0.5547 0.08012 0.0
O147 O 0.79529 0.5214 0.01696 0.0
O148 O 0.75443 0.58976 0.11049 0.0
O149 O 0.80974 0.62867 0.10589 0.0
O150 O 0.73006 0.56925 0.02425 0.0
O151 O 0.7569 0.54202 0.0141 0.0
H152 H 0.83009 0.51882 0.82423 0.0
H153 H 0.77052 0.57002 0.84888 0.0
H154 H 0.7696 0.58029 0.7683 0.0
H155 H 0.82997 0.52958 0.74398 0.0
H156 H 0.75509 0.63478 0.19804 0.0
H157 H 0.81627 0.58578 0.17046 0.0
H158 H 0.82205 0.57922 0.25121 0.0
H159 H 0.76016 0.62788 0.2784 0.0
Gd160 Gd 0.24419 0.8093 0.29246 0.0
Gd161 Gd 0.19734 0.79213 0.37601 0.0
C162 C 0.16295 0.79093 0.28306 0.0
C163 C 0.2716 0.81159 0.21487 0.0
C164 C 0.26304 0.80899 0.16674 0.0
C165 C 0.28973 0.82897 0.13619 0.0
C166 C 0.22901 0.78711 0.15073 0.0
C167 C 0.24865 0.80548 0.0739 0.0
C168 C 0.22188 0.78534 0.1047 0.0
C169 C 0.28267 0.82724 0.09031 0.0
C170 C 0.2522 0.86448 0.33998 0.0
C171 C 0.27755 0.80702 0.38559 0.0
C172 C 0.17106 0.79178 0.45372 0.0
C173 C 0.1793 0.79226 0.50175 0.0
C174 C 0.15216 0.77231 0.53178 0.0
C175 C 0.21348 0.81247 0.51823 0.0
C176 C 0.19298 0.793 0.59449 0.0
C177 C 0.22024 0.81288 0.56419 0.0
C178 C 0.15888 0.77263 0.57762 0.0
C179 C 0.19109 0.73686 0.32985 0.0
O180 O 0.19027 0.79127 0.26434 0.0
O181 O 0.1618 0.79636 0.3264 0.0
O182 O 0.27542 0.8393 0.23571 0.0
O183 O 0.25506 0.78307 0.23885 0.0
O184 O 0.27775 0.86309 0.32071 0.0
O185 O 0.22346 0.83743 0.3314 0.0
O186 O 0.25029 0.80648 0.40491 0.0
O187 O 0.27934 0.80392 0.34171 0.0
O188 O 0.16351 0.76331 0.43161 0.0
O189 O 0.19045 0.82029 0.43071 0.0
O190 O 0.16489 0.73709 0.34911 0.0
O191 O 0.21899 0.76473 0.33804 0.0
H192 H 0.31619 0.8459 0.14785 0.0
H193 H 0.20799 0.77147 0.17376 0.0
H194 H 0.19533 0.76855 0.09331 0.0
H195 H 0.30404 0.84266 0.06763 0.0
H196 H 0.12559 0.75662 0.51978 0.0
H197 H 0.23491 0.82801 0.49566 0.0
H198 H 0.24686 0.82854 0.57595 0.0
H199 H 0.13719 0.7574 0.59996 0.0
Gd200 Gd 0.42936 0.2381 0.63743 0.0
Gd201 Gd 0.40594 0.19182 0.72131 0.0
C202 C 0.36887 0.15556 0.63012 0.0
C203 C 0.45307 0.26542 0.55935 0.0
C204 C 0.44569 0.25732 0.51129 0.0
C205 C 0.45413 0.28472 0.4812 0.0
C206 C 0.43114 0.22307 0.49481 0.0
C207 C 0.43462 0.24411 0.41825 0.0
C208 C 0.42563 0.21652 0.44868 0.0
C209 C 0.44865 0.27823 0.43522 0.0
C210 C 0.38211 0.24395 0.6873 0.0
C211 C 0.46432 0.27398 0.72966 0.0
C212 C 0.38618 0.16207 0.79907 0.0
C213 C 0.38744 0.17066 0.84691 0.0
C214 C 0.37816 0.14409 0.87859 0.0
C215 C 0.39864 0.20482 0.86154 0.0
C216 C 0.39174 0.18566 0.93951 0.0
C217 C 0.40087 0.2123 0.9075 0.0
C218 C 0.38023 0.15146 0.92438 0.0
C219 C 0.45479 0.18924 0.66995 0.0
O220 O 0.39252 0.18427 0.60955 0.0
O221 O 0.36617 0.15332 0.67419 0.0
O222 O 0.43071 0.27052 0.58195 0.0
O223 O 0.46432 0.24756 0.58174 0.0
O224 O 0.40627 0.26925 0.66401 0.0
O225 O 0.38185 0.2156 0.68022 0.0
O226 O 0.43806 0.24649 0.74917 0.0
O227 O 0.4697 0.27493 0.68595 0.0
O228 O 0.41595 0.16984 0.78048 0.0
O229 O 0.36644 0.16884 0.77317 0.0
O230 O 0.42948 0.16194 0.68894 0.0
O231 O 0.45346 0.21607 0.68017 0.0
H232 H 0.46523 0.3113 0.49328 0.0
H233 H 0.42443 0.2015 0.51747 0.0
H234 H 0.41503 0.18997 0.4368 0.0
H235 H 0.45528 0.30002 0.41297 0.0
H236 H 0.36964 0.1176 0.86788 0.0
H237 H 0.40578 0.22564 0.83747 0.0
H238 H 0.40953 0.23885 0.91798 0.0
H239 H 0.37353 0.13043 0.94797 0.0
C240 C 0.34319 0.26897 0.69171 0.0
C241 C 0.3545 0.24722 0.71023 0.0
C242 C 0.32032 0.27614 0.71525 0.0
C243 C 0.26187 0.25149 0.81481 0.0
H244 H 0.28581 0.3485 0.80667 0.0
C245 C 0.21606 0.32268 0.9385 0.0
C246 C 0.20771 0.34669 0.91949 0.0
C247 C 0.22866 0.30546 0.91161 0.0
C248 C 0.27844 0.3212 0.80887 0.0
H249 H 0.35066 0.21558 0.76741 0.0
H250 H 0.31126 0.22875 0.80959 0.0
H251 H 0.31795 0.32804 0.76251 0.0
H252 H 0.20348 0.36933 0.85689 0.0
H253 H 0.22545 0.33945 0.81035 0.0
H254 H 0.223 0.24541 0.86276 0.0
C255 C 0.3192 0.23948 0.77624 0.0
C256 C 0.29681 0.30938 0.7834 0.0
C257 C 0.34172 0.23181 0.75214 0.0
C258 C 0.21018 0.35146 0.8728 0.0
C259 C 0.22282 0.33438 0.84606 0.0
C260 C 0.24361 0.26349 0.84075 0.0
C261 C 0.30893 0.26246 0.75846 0.0
C262 C 0.28867 0.27434 0.78572 0.0
C263 C 0.2332 0.31205 0.86534 0.0
C264 C 0.25163 0.29845 0.83774 0.0
H265 H 0.35255 0.28098 0.65921 0.0
H266 H 0.31224 0.29316 0.69995 0.0
H267 H 0.25481 0.2243 0.81724 0.0
H268 H 0.21437 0.31832 0.97435 0.0
H269 H 0.23656 0.28843 0.92735 0.0
C270 C 0.09632 0.33078 0.05003 0.0
C271 C 0.10115 0.36369 0.03846 0.0
C272 C 0.07009 0.30941 0.08031 0.0
C273 C 0.99515 0.26462 0.11916 0.0
H274 H 0.98632 0.30446 0.23085 0.0
C275 C 0.86673 0.21546 0.21793 0.0
C276 C 0.8683 0.21551 0.26499 0.0
C277 C 0.89714 0.22792 0.19243 0.0
C278 C 0.98869 0.29277 0.20012 0.0
H279 H 0.08317 0.4005 0.04981 0.0
H280 H 0.0379 0.36354 0.10327 0.0
H281 H 0.03692 0.33843 0.18281 0.0
H282 H 0.90284 0.22699 0.32207 0.0
H283 H 0.9559 0.24913 0.27741 0.0
H284 H 0.94606 0.21949 0.13565 0.0
C285 C 0.05414 0.35414 0.08882 0.0
C286 C 0.01748 0.31229 0.17254 0.0
C287 C 0.07983 0.37515 0.05804 0.0
C288 C 0.90068 0.22665 0.28589 0.0
C289 C 0.93112 0.23946 0.26039 0.0
C290 C 0.96601 0.24523 0.14649 0.0
C291 C 0.0489 0.32103 0.10005 0.0
C292 C 0.02064 0.29866 0.13147 0.0
C293 C 0.92973 0.24099 0.21349 0.0
C294 C 0.96227 0.25938 0.18689 0.0
H295 H 0.1125 0.32144 0.03527 0.0
H296 H 0.06651 0.28397 0.08857 0.0
H297 H -0.00302 0.25365 0.0875 0.0
H298 H 0.84218 0.20692 0.20077 0.0
H299 H 0.89535 0.22903 0.15632 0.0
C300 C 0.70779 0.08818 0.40626 0.0
C301 C 0.74109 0.1096 0.38805 0.0
C302 C 0.7016 0.0606 0.43455 0.0
C303 C 0.72782 0.99722 0.45639 0.0
H304 H 0.67831 0.98315 0.56865 0.0
C305 C 0.67016 0.89471 0.61475 0.0
C306 C 0.64757 0.86337 0.59235 0.0
C307 C 0.68777 0.92609 0.59118 0.0
C308 C 0.6925 0.98691 0.53765 0.0
H309 H 0.79423 0.11957 0.38535 0.0
H310 H 0.78305 0.07029 0.43432 0.0
H311 H 0.69762 0.0371 0.52651 0.0
H312 H 0.62753 0.84012 0.52719 0.0
H313 H 0.65878 0.89513 0.48593 0.0
H314 H 0.72128 0.94623 0.4667 0.0
C315 C 0.76194 0.0752 0.42681 0.0
C316 C 0.70337 0.01765 0.51351 0.0
C317 C 0.76833 0.10333 0.39906 0.0
C318 C 0.64459 0.86381 0.54547 0.0
C319 C 0.6626 0.89524 0.52181 0.0
C320 C 0.7164 0.96612 0.48023 0.0
C321 C 0.72846 0.05358 0.44462 0.0
C322 C 0.72071 0.02289 0.47242 0.0
C323 C 0.68357 0.92678 0.54467 0.0
C324 C 0.69832 0.96058 0.52084 0.0
H325 H 0.68639 0.09259 0.39841 0.0
H326 H 0.67551 0.04414 0.44762 0.0
H327 H 0.74092 0.00062 0.42457 0.0
H328 H 0.67317 0.89537 0.65081 0.0
H329 H 0.70402 0.95003 0.60951 0.0
C330 C 0.61896 0.70384 0.72524 0.0
C331 C 0.63058 0.737 0.70667 0.0
C332 C 0.63958 0.69864 0.75609 0.0
C333 C 0.68013 0.70238 0.84051 0.0
H334 H 0.77359 0.72485 0.80579 0.0
C335 C 0.76449 0.67021 0.95506 0.0
C336 C 0.77646 0.6497 0.93406 0.0
C337 C 0.75171 0.68788 0.92956 0.0
C338 C 0.74765 0.71873 0.81602 0.0
H339 H 0.67275 0.79073 0.70532 0.0
H340 H 0.70957 0.78133 0.75879 0.0
H341 H 0.74009 0.74226 0.75737 0.0
H342 H 0.78657 0.63357 0.86976 0.0
H343 H 0.76446 0.66463 0.82534 0.0
H344 H 0.68712 0.6781 0.89846 0.0
C345 C 0.68429 0.75956 0.74967 0.0
C346 C 0.72863 0.72885 0.78854 0.0
C347 C 0.66328 0.76493 0.7193 0.0
C348 C 0.77732 0.64894 0.88699 0.0
C349 C 0.76488 0.66693 0.8615 0.0
C350 C 0.69927 0.69272 0.86824 0.0
C351 C 0.67247 0.72637 0.76843 0.0
C352 C 0.69439 0.71997 0.80006 0.0
C353 C 0.75105 0.68576 0.88258 0.0
C354 C 0.73291 0.7001 0.8558 0.0
H355 H 0.59376 0.68191 0.71617 0.0
H356 H 0.63005 0.67273 0.76976 0.0
H357 H 0.65382 0.69539 0.85016 0.0
H358 H 0.76349 0.6714 0.99124 0.0
H359 H 0.74145 0.70246 0.94662 0.0
C360 C 0.12914 0.76645 0.21231 0.0
C361 C 0.13155 0.78068 0.25521 0.0
C362 C 0.09799 0.75218 0.18819 0.0
C363 C 0.02002 0.74974 0.16026 0.0
H364 H 0.97619 0.64878 0.156 0.0
C365 C 0.8889 0.66046 0.06619 0.0
C366 C 0.88729 0.63197 0.04323 0.0
C367 C 0.91705 0.68088 0.09485 0.0
C368 C 0.98815 0.67696 0.15647 0.0
H369 H 0.10363 0.79289 0.30521 0.0
H370 H 0.04905 0.76821 0.26218 0.0
H371 H 0.02949 0.68254 0.19931 0.0
H372 H 0.9144 0.60336 0.03061 0.0
H373 H 0.96357 0.63926 0.07874 0.0
H374 H 0.97962 0.74435 0.11556 0.0
C375 C 0.07146 0.7681 0.24779 0.0
C376 C 0.01847 0.69616 0.18158 0.0
C377 C 0.10261 0.78205 0.27233 0.0
C378 C 0.91467 0.6249 0.04827 0.0
C379 C 0.94276 0.64534 0.07631 0.0
C380 C 0.98976 0.73048 0.13448 0.0
C381 C 0.0688 0.75234 0.20608 0.0
C382 C 0.03491 0.73265 0.18306 0.0
C383 C 0.94412 0.67323 0.1006 0.0
C384 C 0.97395 0.69387 0.13149 0.0
H385 H 0.15078 0.76485 0.19804 0.0
H386 H 0.09631 0.74 0.15606 0.0
H387 H 0.03251 0.77796 0.16104 0.0
H388 H 0.86843 0.66685 0.06221 0.0
H389 H 0.9173 0.70221 0.11298 0.0
C390 C 0.34669 0.12603 0.55588 0.0
C391 C 0.34647 0.12412 0.60293 0.0
C392 C 0.32877 0.09569 0.5301 0.0
C393 C 0.30296 0.00389 0.53546 0.0
H394 H 0.25304 0.99616 0.42523 0.0
C395 C 0.22962 0.8968 0.38514 0.0
C396 C 0.25726 0.89156 0.37266 0.0
C397 C 0.23524 0.92308 0.41588 0.0
C398 C 0.26654 0.99782 0.45623 0.0
H399 H 0.32581 0.08892 0.65977 0.0
H400 H 0.29482 0.03605 0.61468 0.0
H401 H 0.2711 0.04691 0.47424 0.0
H402 H 0.31207 0.90892 0.3828 0.0
H403 H 0.32167 0.9542 0.43688 0.0
H404 H 0.29961 0.95556 0.51671 0.0
C405 C 0.30899 0.06104 0.59784 0.0
C406 C 0.27707 0.0269 0.48404 0.0
C407 C 0.32665 0.09137 0.62362 0.0
C408 C 0.29035 0.91254 0.39173 0.0
C409 C 0.29579 0.93826 0.42289 0.0
C410 C 0.29285 0.97513 0.50744 0.0
C411 C 0.31049 0.06282 0.55083 0.0
C412 C 0.29587 0.03046 0.52358 0.0
C413 C 0.26839 0.9439 0.43513 0.0
C414 C 0.27513 0.97214 0.46719 0.0
H415 H 0.36152 0.15084 0.53884 0.0
H416 H 0.33062 0.09785 0.49393 0.0
H417 H 0.31769 0.00605 0.56548 0.0
H418 H 0.20387 0.88089 0.37079 0.0
H419 H 0.2137 0.92695 0.42491 0.0
C420 C 0.21824 0.44193 0.66918 0.0
C421 C 0.18647 0.43339 0.69014 0.0
C422 C 0.21973 0.43784 0.62282 0.0
C423 C 0.17176 0.43063 0.51776 0.0
H424 H 0.22939 0.39575 0.46803 0.0
C425 C 0.16644 0.39471 0.33002 0.0
C426 C 0.19804 0.40298 0.30881 0.0
C427 C 0.16517 0.39877 0.37641 0.0
C428 C 0.21347 0.40594 0.48129 0.0
H429 H 0.13112 0.41263 0.67871 0.0
H430 H 0.13373 0.40551 0.59811 0.0
H431 H 0.22693 0.40159 0.54901 0.0
H432 H 0.25331 0.42307 0.31984 0.0
H433 H 0.25113 0.43023 0.40053 0.0
H434 H 0.15833 0.43503 0.45008 0.0
C435 C 0.15765 0.41605 0.61734 0.0
C436 C 0.21206 0.40926 0.52779 0.0
C437 C 0.15616 0.42011 0.66363 0.0
C438 C 0.22841 0.41586 0.33512 0.0
C439 C 0.22715 0.41993 0.38147 0.0
C440 C 0.17319 0.42733 0.47127 0.0
C441 C 0.18949 0.4251 0.59623 0.0
C442 C 0.19113 0.42161 0.54667 0.0
C443 C 0.19548 0.41124 0.40281 0.0
C444 C 0.19405 0.41491 0.45238 0.0
H445 H 0.24217 0.45263 0.68842 0.0
H446 H 0.24478 0.44547 0.60766 0.0
H447 H 0.15583 0.44079 0.53103 0.0
H448 H 0.14245 0.38428 0.31093 0.0
H449 H 0.14023 0.39136 0.39173 0.0
C450 C 0.75547 0.21961 0.00646 0.0
C451 C 0.7604 0.19576 0.03218 0.0
C452 C 0.76087 0.22191 0.96008 0.0
C453 C 0.76233 0.17052 0.86394 0.0
H454 H 0.81047 0.2599 0.80319 0.0
C455 C 0.80051 0.18205 0.67715 0.0
C456 C 0.79816 0.20725 0.65107 0.0
C457 C 0.79567 0.18083 0.72355 0.0
C458 C 0.79654 0.2347 0.81951 0.0
H459 H 0.77629 0.15667 0.0293 0.0
H460 H 0.78532 0.16046 0.94848 0.0
H461 H 0.80317 0.25806 0.88437 0.0
H462 H 0.78802 0.25036 0.65311 0.0
H463 H 0.77901 0.24792 0.73397 0.0
H464 H 0.75528 0.14706 0.79927 0.0
C465 C 0.77675 0.17698 0.96413 0.0
C466 C 0.79245 0.23367 0.86608 0.0
C467 C 0.77154 0.17481 0.01047 0.0
C468 C 0.79043 0.23092 0.67237 0.0
C469 C 0.78538 0.22957 0.71876 0.0
C470 C 0.76623 0.17152 0.8174 0.0
C471 C 0.77117 0.20032 0.93834 0.0
C472 C 0.77543 0.20157 0.88883 0.0
C473 C 0.78815 0.20464 0.74501 0.0
C474 C 0.7835 0.20362 0.79456 0.0
H475 H 0.74647 0.23583 0.02192 0.0
H476 H 0.75603 0.23993 0.94108 0.0
H477 H 0.74857 0.14535 0.88041 0.0
H478 H 0.80697 0.1638 0.66183 0.0
H479 H 0.79858 0.16165 0.7427 0.0
C480 C 0.58516 0.78177 0.34087 0.0
C481 C 0.55496 0.75281 0.3581 0.0
C482 C 0.58957 0.78755 0.2946 0.0
C483 C 0.54088 0.76402 0.18698 0.0
H484 H 0.63178 0.79324 0.13529 0.0
C485 C 0.56251 0.76679 0.99528 0.0
C486 C 0.59279 0.79562 0.97801 0.0
C487 C 0.55782 0.76144 0.04161 0.0
C488 C 0.6063 0.78543 0.1492 0.0
H489 H 0.50524 0.70783 0.33999 0.0
H490 H 0.51322 0.71748 0.2595 0.0
H491 H 0.62367 0.78507 0.21605 0.0
H492 H 0.64227 0.84095 0.99607 0.0
H493 H 0.63383 0.83199 0.07661 0.0
H494 H 0.52351 0.76432 0.12007 0.0
C495 C 0.53343 0.73591 0.28171 0.0
C496 C 0.60167 0.7808 0.19557 0.0
C497 C 0.52904 0.73013 0.32791 0.0
C498 C 0.61842 0.81872 0.00818 0.0
C499 C 0.61377 0.81335 0.05441 0.0
C500 C 0.54551 0.76864 0.14059 0.0
C501 C 0.56385 0.76455 0.26441 0.0
C502 C 0.56889 0.77003 0.21507 0.0
C503 C 0.58336 0.78473 0.07176 0.0
C504 C 0.57829 0.77941 0.1211 0.0
H505 H 0.60576 0.79963 0.36309 0.0
H506 H 0.61313 0.81012 0.28248 0.0
H507 H 0.5154 0.75619 0.20089 0.0
H508 H 0.54213 0.74863 0.97304 0.0
H509 H 0.53426 0.7389 0.05379 0.0
C510 C 0.80284 0.59252 0.68339 0.0
C511 C 0.79856 0.56096 0.70042 0.0
C512 C 0.80269 0.59767 0.63711 0.0
C513 C 0.81548 0.56506 0.52848 0.0
H514 H 0.76746 0.61073 0.47951 0.0
C515 C 0.79157 0.56837 0.33819 0.0
C516 C 0.79481 0.5993 0.32044 0.0
C517 C 0.79298 0.56427 0.38453 0.0
C518 C 0.78137 0.59831 0.49265 0.0
H519 H 0.78964 0.50967 0.68197 0.0
H520 H 0.78943 0.51866 0.60152 0.0
H521 H 0.76777 0.60261 0.56029 0.0
H522 H 0.80337 0.65068 0.33756 0.0
H523 H 0.80588 0.64357 0.41817 0.0
H524 H 0.82903 0.56071 0.46086 0.0
C525 C 0.7936 0.53972 0.62386 0.0
C526 C 0.78154 0.59365 0.539 0.0
C527 C 0.79372 0.53456 0.67005 0.0
C528 C 0.80011 0.62626 0.35011 0.0
C529 C 0.80153 0.62217 0.39638 0.0
C530 C 0.81533 0.56974 0.48214 0.0
C531 C 0.79825 0.57138 0.60677 0.0
C532 C 0.7985 0.57687 0.55749 0.0
C533 C 0.7977 0.59103 0.41422 0.0
C534 C 0.79821 0.58636 0.46361 0.0
H535 H 0.80704 0.61355 0.70578 0.0
H536 H 0.80673 0.62252 0.62509 0.0
H537 H 0.82929 0.55255 0.54163 0.0
H538 H 0.78703 0.54693 0.31636 0.0
H539 H 0.78951 0.53978 0.39713 0.0
C540 C 0.22262 0.82534 0.6653 0.0
C541 C 0.19977 0.79378 0.64356 0.0
C542 C 0.22791 0.82624 0.71167 0.0
C543 C 0.18737 0.77636 0.81579 0.0
H544 H 0.27945 0.83572 0.86601 0.0
C545 C 0.21905 0.77185 1.00365 0.0
C546 C 0.24146 0.80385 0.02483 0.0
C547 C 0.21352 0.77031 0.95726 0.0
C548 C 0.25347 0.81928 0.85261 0.0
H549 H 0.16539 0.73819 0.65358 0.0
H550 H 0.17475 0.73971 0.73424 0.0
H551 H 0.27126 0.83355 0.78508 0.0
H552 H 0.2746 0.85951 0.01377 0.0
H553 H 0.26498 0.85682 0.93316 0.0
H554 H 0.16962 0.76207 0.88339 0.0
C555 C 0.18806 0.76394 0.71562 0.0
C556 C 0.24877 0.81804 0.80613 0.0
C557 C 0.18273 0.76306 0.6693 0.0
C558 C 0.25771 0.83431 0.99852 0.0
C559 C 0.25221 0.83277 0.95222 0.0
C560 C 0.19208 0.77757 0.86229 0.0
C561 C 0.21055 0.79557 0.7375 0.0
C562 C 0.21564 0.79662 0.78706 0.0
C563 C 0.23026 0.80073 0.93089 0.0
C564 C 0.22518 0.79913 0.88133 0.0
H565 H 0.2358 0.84957 0.64666 0.0
H566 H 0.24505 0.85116 0.7274 0.0
H567 H 0.16137 0.75998 0.80241 0.0
H568 H 0.20643 0.74781 0.02273 0.0
H569 H 0.19674 0.74513 0.94192 0.0
C570 C 0.45525 0.2611 0.33882 0.0
C571 C 0.42992 0.23764 0.36898 0.0
C572 C 0.45075 0.2556 0.29257 0.0
C573 C 0.38304 0.2088 0.2059 0.0
H574 H 0.46246 0.22845 0.13111 0.0
C575 C 0.36921 0.16995 0.01845 0.0
C576 C 0.3948 0.19333 0.98849 0.0
C577 C 0.37298 0.17599 0.06467 0.0
C578 C 0.44008 0.22326 0.15141 0.0
H579 H 0.3799 0.18986 0.37379 0.0
H580 H 0.37235 0.17989 0.29305 0.0
H581 H 0.47008 0.23683 0.2119 0.0
H582 H 0.44427 0.24171 0.98387 0.0
H583 H 0.45059 0.25257 0.06449 0.0
H584 H 0.35303 0.19508 0.14533 0.0
C585 C 0.39554 0.20283 0.30525 0.0
C586 C 0.44444 0.22803 0.19781 0.0
C587 C 0.40007 0.20833 0.35161 0.0
C588 C 0.42394 0.2233 0.00592 0.0
C589 C 0.42776 0.2293 0.0522 0.0
C590 C 0.37867 0.20399 0.15947 0.0
C591 C 0.42081 0.22645 0.27511 0.0
C592 C 0.41599 0.22091 0.22569 0.0
C593 C 0.40247 0.20556 0.08221 0.0
C594 C 0.40715 0.21118 0.13161 0.0
H595 H 0.47879 0.2837 0.35095 0.0
H596 H 0.47059 0.27454 0.27044 0.0
H597 H 0.36066 0.20357 0.2262 0.0
H598 H 0.34623 0.14681 0.00618 0.0
H599 H 0.35312 0.15702 0.08674 0.0
C600 C 0.1857 0.5254 0.05949 0.0
C601 C 0.18397 0.4956 0.07886 0.0
C602 C 0.18446 0.55065 0.08631 0.0
C603 C 0.15863 0.56548 0.19823 0.0
H604 H 0.22436 0.66277 0.17242 0.0
C605 C 0.21936 0.70919 0.28733 0.0
C606 C 0.18879 0.70831 0.3019 0.0
C607 C 0.21749 0.68275 0.25989 0.0
C608 C 0.20595 0.63572 0.18019 0.0
H609 H 0.17897 0.46874 0.14168 0.0
H610 H 0.17703 0.51294 0.18842 0.0
H611 H 0.22331 0.6173 0.1252 0.0
H612 H 0.13228 0.679 0.29995 0.0
H613 H 0.12892 0.63253 0.25185 0.0
H614 H 0.14175 0.584 0.25381 0.0
C615 C 0.17907 0.5166 0.15243 0.0
C616 C 0.20508 0.60968 0.15284 0.0
C617 C 0.1804 0.49137 0.12562 0.0
C618 C 0.15624 0.68023 0.28917 0.0
C619 C 0.15434 0.65363 0.2618 0.0
C620 C 0.1594 0.59157 0.22553 0.0
C621 C 0.18138 0.54667 0.13309 0.0
C622 C 0.18154 0.57426 0.16166 0.0
C623 C 0.18498 0.65475 0.24663 0.0
C624 C 0.18325 0.62697 0.21697 0.0
H625 H 0.18829 0.52946 0.02359 0.0
H626 H 0.18583 0.5733 0.07034 0.0
H627 H 0.13998 0.53843 0.20565 0.0
H628 H 0.2448 0.73031 0.29721 0.0
H629 H 0.24155 0.68406 0.24941 0.0
C630 C 0.66556 0.19415 0.39809 0.0
C631 C 0.69538 0.19628 0.41796 0.0
C632 C 0.63878 0.19257 0.4247 0.0
C633 C 0.62206 0.21417 0.5379 0.0
H634 H 0.52478 0.15104 0.50883 0.0
C635 C 0.47811 0.1578 0.62474 0.0
C636 C 0.48149 0.18924 0.6405 0.0
C637 C 0.50359 0.15814 0.59665 0.0
C638 C 0.55184 0.16864 0.5175 0.0
H639 H 0.72021 0.19805 0.48151 0.0
H640 H 0.67358 0.19516 0.5276 0.0
H641 H 0.5705 0.15225 0.46157 0.0
H642 H 0.51399 0.24563 0.63966 0.0
H643 H 0.55826 0.24629 0.59043 0.0
H644 H 0.60357 0.23025 0.5941 0.0
C645 C 0.67105 0.19513 0.49149 0.0
C646 C 0.57799 0.1696 0.49019 0.0
C647 C 0.69773 0.19662 0.46498 0.0
C648 C 0.51071 0.22099 0.62785 0.0
C649 C 0.53617 0.22135 0.59992 0.0
C650 C 0.59597 0.2133 0.56505 0.0
C651 C 0.64134 0.19322 0.4717 0.0
C652 C 0.6134 0.19234 0.50018 0.0
C653 C 0.53298 0.18995 0.58411 0.0
C654 C 0.56057 0.19054 0.55519 0.0
H655 H 0.6629 0.19381 0.36199 0.0
H656 H 0.61634 0.19144 0.40847 0.0
H657 H 0.64909 0.23224 0.54624 0.0
H658 H 0.45577 0.13297 0.63405 0.0
H659 H 0.50058 0.1335 0.58535 0.0
C660 C 0.31111 0.4724 0.9508 0.0
C661 C 0.28395 0.4778 0.96503 0.0
C662 C 0.338 0.49721 0.92391 0.0
C663 C 0.37952 0.54493 0.84587 0.0
H664 H 0.41873 0.64294 0.87542 0.0
C665 C 0.47084 0.65733 0.72678 0.0
C666 C 0.49926 0.68677 0.74633 0.0
C667 C 0.44563 0.63078 0.75366 0.0
C668 C 0.40827 0.61567 0.86691 0.0
H669 H 0.26349 0.5132 0.96272 0.0
H670 H 0.31022 0.55639 0.91566 0.0
H671 H 0.37291 0.59867 0.92235 0.0
H672 H 0.52384 0.71092 0.80956 0.0
H673 H 0.48005 0.66464 0.85618 0.0
H674 H 0.41513 0.56206 0.79051 0.0
C675 C 0.31098 0.53319 0.92542 0.0
C676 C 0.38176 0.59033 0.89352 0.0
C677 C 0.2841 0.50836 0.95208 0.0
C678 C 0.50224 0.68874 0.7933 0.0
C679 C 0.47702 0.66228 0.8201 0.0
C680 C 0.40597 0.57033 0.81908 0.0
C681 C 0.33827 0.52795 0.9111 0.0
C682 C 0.36699 0.55469 0.88322 0.0
C683 C 0.44826 0.63317 0.80062 0.0
C684 C 0.42059 0.60599 0.82929 0.0
H685 H 0.31154 0.44899 0.96034 0.0
H686 H 0.35883 0.4926 0.91371 0.0
H687 H 0.36847 0.51767 0.83692 0.0
H688 H 0.46776 0.65494 0.69073 0.0
H689 H 0.42361 0.60881 0.73766 0.0
C690 C 0.80376 0.28677 0.2565 0.0
C691 C 0.81695 0.29307 0.30021 0.0
C692 C 0.80592 0.31399 0.23043 0.0
C693 C 0.8112 0.39875 0.24045 0.0
H694 H 0.83672 0.40849 0.11481 0.0
C695 C 0.81867 0.51044 0.13201 0.0
C696 C 0.80611 0.50209 0.08786 0.0
C697 C 0.82292 0.48656 0.15806 0.0
C698 C 0.82915 0.40592 0.14972 0.0
H699 H 0.84402 0.33255 0.35095 0.0
H700 H 0.84755 0.38051 0.30556 0.0
H701 H 0.83925 0.36383 0.15991 0.0
H702 H 0.78806 0.46207 0.03645 0.0
H703 H 0.7946 0.42016 0.08213 0.0
H704 H 0.80005 0.44002 0.23018 0.0
C705 C 0.83523 0.35444 0.29147 0.0
C706 C 0.83075 0.38042 0.17556 0.0
C707 C 0.83341 0.32717 0.31729 0.0
C708 C 0.79799 0.46941 0.07027 0.0
C709 C 0.80197 0.44544 0.09641 0.0
C710 C 0.80929 0.42405 0.21453 0.0
C711 C 0.82123 0.34803 0.24789 0.0
C712 C 0.82154 0.37641 0.22109 0.0
C713 C 0.81446 0.45368 0.14067 0.0
C714 C 0.81796 0.42777 0.16873 0.0
H715 H 0.79224 0.26087 0.24239 0.0
H716 H 0.79494 0.30825 0.19697 0.0
H717 H 0.80351 0.39595 0.27535 0.0
H718 H 0.82549 0.53552 0.14646 0.0
H719 H 0.83312 0.49403 0.19173 0.0
C720 C 0.33586 0.81117 0.39536 0.0
C721 C 0.30611 0.80977 0.41437 0.0
C722 C 0.36224 0.81264 0.42268 0.0
C723 C 0.37699 0.79034 0.53616 0.0
H724 H 0.47496 0.8497 0.50709 0.0
C725 C 0.52044 0.83754 0.6206 0.0
C726 C 0.51543 0.805 0.63433 0.0
C727 C 0.49544 0.83948 0.59393 0.0
C728 C 0.44771 0.83318 0.51581 0.0
H729 H 0.28115 0.80946 0.47716 0.0
H730 H 0.32717 0.81212 0.52462 0.0
H731 H 0.43048 0.85153 0.46041 0.0
H732 H 0.48048 0.74901 0.63139 0.0
H733 H 0.43696 0.75232 0.58475 0.0
H734 H 0.39413 0.77207 0.59159 0.0
C735 C 0.32991 0.81172 0.48858 0.0
C736 C 0.42226 0.83398 0.48885 0.0
C737 C 0.30361 0.81038 0.46131 0.0
C738 C 0.48503 0.77445 0.62114 0.0
C739 C 0.46 0.77637 0.59472 0.0
C740 C 0.4024 0.78941 0.56293 0.0
C741 C 0.35941 0.8126 0.4696 0.0
C742 C 0.38661 0.81249 0.49867 0.0
C743 C 0.46488 0.80889 0.58085 0.0
C744 C 0.43804 0.81069 0.55296 0.0
H745 H 0.33867 0.81078 0.35935 0.0
H746 H 0.38449 0.81296 0.40705 0.0
H747 H 0.34975 0.77322 0.54438 0.0
H748 H 0.54371 0.86148 0.63033 0.0
H749 H 0.49979 0.86492 0.58406 0.0
C750 C 0.70029 0.48514 0.96594 0.0
C751 C 0.70055 0.51594 0.97802 0.0
C752 C 0.67338 0.45999 0.93956 0.0
C753 C 0.60542 0.44738 0.85855 0.0
H754 H 0.56627 0.3497 0.88975 0.0
C755 C 0.51739 0.33338 0.73893 0.0
C756 C 0.48896 0.30371 0.75803 0.0
C757 C 0.5416 0.3605 0.76615 0.0
C758 C 0.57669 0.37686 0.88077 0.0
H759 H 0.67308 0.54478 0.97207 0.0
H760 H 0.62574 0.50061 0.92577 0.0
H761 H 0.61126 0.39452 0.93709 0.0
H762 H 0.46325 0.27983 0.82078 0.0
H763 H 0.5053 0.32706 0.86798 0.0
H764 H 0.5707 0.42956 0.80216 0.0
C765 C 0.64651 0.49606 0.93654 0.0
C766 C 0.60273 0.40253 0.90764 0.0
C767 C 0.67341 0.5212 0.96323 0.0
C768 C 0.48489 0.30216 0.80486 0.0
C769 C 0.50912 0.32918 0.83201 0.0
C770 C 0.57945 0.42163 0.83146 0.0
C771 C 0.64615 0.46511 0.92458 0.0
C772 C 0.61755 0.43806 0.89672 0.0
C773 C 0.53798 0.35847 0.81304 0.0
C774 C 0.56488 0.38607 0.84222 0.0
H775 H 0.7209 0.48041 0.97694 0.0
H776 H 0.67411 0.43665 0.93045 0.0
H777 H 0.61652 0.47454 0.84911 0.0
H778 H 0.52132 0.33546 0.703 0.0
H779 H 0.56372 0.38259 0.75053 0.0
loop_
_geom_bond_atom_site_label_1
_geom_bond_atom_site_label_2
_geom_bond_distance
_geom_bond_site_symmetry_2
_ccdc_geom_bond_type
Gd0 C3 2.818 . S
Gd0 O20 2.377 . S
Gd0 O22 2.448 . S
Gd0 O23 2.506 . S
Gd0 O24 2.435 . S
Gd0 O25 2.717 1_556 S
Gd0 O27 2.395 1_556 S
Gd0 O31 2.327 . S
Gd1 C12 2.818 . S
Gd1 O21 2.395 1_554 S
Gd1 O25 2.327 . S
Gd1 O26 2.377 . S
Gd1 O28 2.448 . S
Gd1 O29 2.506 . S
Gd1 O30 2.435 . S
Gd1 O31 2.717 1_554 S
C2 O20 1.240 . S
C2 O21 1.240 . S
C3 Gd0 2.818 . S
C3 C4 1.510 . S
C3 O22 1.249 . S
C3 O23 1.252 . S
C4 C3 1.510 . S
C4 C5 1.404 . S
C4 C6 1.352 . S
C5 C4 1.404 . S
C5 C9 1.389 . S
C5 H32 0.930 . S
C6 C4 1.352 . S
C6 C8 1.374 . S
C6 H33 0.931 . S
C7 C8 1.359 . S
C7 C9 1.364 . S
C8 C6 1.374 . S
C8 C7 1.359 . S
C8 H34 0.931 . S
C9 C5 1.389 . S
C9 C7 1.364 . S
C9 H35 0.931 . S
C10 O24 1.256 1_554 S
C10 O25 1.257 . S
C11 O26 1.240 . S
C11 O27 1.240 . S
C12 Gd1 2.818 . S
C12 C13 1.510 . S
C12 O28 1.249 . S
C12 O29 1.252 . S
C13 C12 1.510 . S
C13 C14 1.404 . S
C13 C15 1.352 . S
C14 C13 1.404 . S
C14 C18 1.389 . S
C14 H36 0.930 . S
C15 C13 1.352 . S
C15 C17 1.374 . S
C15 H37 0.931 . S
C16 C17 1.359 . S
C16 C18 1.364 . S
C17 C15 1.374 . S
C17 C16 1.359 . S
C17 H38 0.931 . S
C18 C14 1.389 . S
C18 C16 1.364 . S
C18 H39 0.931 . S
C19 O30 1.256 1_556 S
C19 O31 1.257 . S
O20 Gd0 2.377 . S
O20 C2 1.240 . S
O21 Gd1 2.395 1_556 S
O21 C2 1.240 . S
O22 Gd0 2.448 . S
O22 C3 1.249 . S
O23 Gd0 2.506 . S
O23 C3 1.252 . S
O24 Gd0 2.435 . S
O24 C10 1.256 1_556 S
O25 Gd0 2.717 1_554 S
O25 Gd1 2.327 . S
O25 C10 1.257 . S
O26 Gd1 2.377 . S
O26 C11 1.240 . S
O27 Gd0 2.395 1_554 S
O27 C11 1.240 . S
O28 Gd1 2.448 . S
O28 C12 1.249 . S
O29 Gd1 2.506 . S
O29 C12 1.252 . S
O30 Gd1 2.435 . S
O30 C19 1.256 1_554 S
O31 Gd0 2.327 . S
O31 Gd1 2.717 1_556 S
O31 C19 1.257 . S
H32 C5 0.930 . S
H33 C6 0.931 . S
H34 C8 0.931 . S
H35 C9 0.931 . S
H36 C14 0.930 . S
H37 C15 0.931 . S
H38 C17 0.931 . S
H39 C18 0.931 . S
Gd40 C43 2.818 . S
Gd40 O60 2.377 . S
Gd40 O62 2.448 . S
Gd40 O63 2.506 . S
Gd40 O64 2.435 . S
Gd40 O65 2.717 . S
Gd40 O67 2.395 . S
Gd40 O71 2.327 . S
Gd41 C52 2.818 . S
Gd41 O61 2.395 . S
Gd41 O65 2.327 . S
Gd41 O66 2.377 . S
Gd41 O68 2.448 . S
Gd41 O69 2.506 . S
Gd41 O70 2.435 . S
Gd41 O71 2.717 . S
C42 O60 1.240 . S
C42 O61 1.240 . S
C43 Gd40 2.818 . S
C43 C44 1.510 . S
C43 O62 1.249 . S
C43 O63 1.252 . S
C44 C43 1.510 . S
C44 C45 1.404 . S
C44 C46 1.352 . S
C45 C44 1.404 . S
C45 C49 1.389 . S
C45 H72 0.930 . S
C46 C44 1.352 . S
C46 C48 1.374 . S
C46 H73 0.931 . S
C47 C48 1.359 . S
C47 C49 1.364 . S
C48 C46 1.374 . S
C48 C47 1.359 . S
C48 H74 0.931 . S
C49 C45 1.389 . S
C49 C47 1.364 . S
C49 H75 0.931 . S
C50 O64 1.256 . S
C50 O65 1.257 . S
C51 O66 1.240 . S
C51 O67 1.240 . S
C52 Gd41 2.818 . S
C52 C53 1.510 . S
C52 O68 1.249 . S
C52 O69 1.252 . S
C53 C52 1.510 . S
C53 C54 1.404 . S
C53 C55 1.352 . S
C54 C53 1.404 . S
C54 C58 1.389 . S
C54 H76 0.930 . S
C55 C53 1.352 . S
C55 C57 1.374 . S
C55 H77 0.931 . S
C56 C57 1.359 . S
C56 C58 1.364 . S
C57 C55 1.374 . S
C57 C56 1.359 . S
C57 H78 0.931 . S
C58 C54 1.389 . S
C58 C56 1.364 . S
C58 H79 0.931 . S
C59 O70 1.256 . S
C59 O71 1.257 . S
O60 Gd40 2.377 . S
O60 C42 1.240 . S
O61 Gd41 2.395 . S
O61 C42 1.240 . S
O62 Gd40 2.448 . S
O62 C43 1.249 . S
O63 Gd40 2.506 . S
O63 C43 1.252 . S
O64 Gd40 2.435 . S
O64 C50 1.256 . S
O65 Gd40 2.717 . S
O65 Gd41 2.327 . S
O65 C50 1.257 . S
O66 Gd41 2.377 . S
O66 C51 1.240 . S
O67 Gd40 2.395 . S
O67 C51 1.240 . S
O68 Gd41 2.448 . S
O68 C52 1.249 . S
O69 Gd41 2.506 . S
O69 C52 1.252 . S
O70 Gd41 2.435 . S
O70 C59 1.256 . S
O71 Gd40 2.327 . S
O71 Gd41 2.717 . S
O71 C59 1.257 . S
H72 C45 0.930 . S
H73 C46 0.931 . S
H74 C48 0.931 . S
H75 C49 0.931 . S
H76 C54 0.930 . S
H77 C55 0.931 . S
H78 C57 0.931 . S
H79 C58 0.931 . S
Gd80 C83 2.818 . S
Gd80 O100 2.377 . S
Gd80 O102 2.448 . S
Gd80 O103 2.506 . S
Gd80 O104 2.435 . S
Gd80 O105 2.717 . S
Gd80 O107 2.395 . S
Gd80 O111 2.327 . S
Gd81 C92 2.818 . S
Gd81 O101 2.395 . S
Gd81 O105 2.327 . S
Gd81 O106 2.377 . S
Gd81 O108 2.448 . S
Gd81 O109 2.506 . S
Gd81 O110 2.435 . S
Gd81 O111 2.717 . S
C82 O100 1.240 . S
C82 O101 1.240 . S
C83 Gd80 2.818 . S
C83 C84 1.510 . S
C83 O102 1.249 . S
C83 O103 1.252 . S
C84 C83 1.510 . S
C84 C85 1.404 . S
C84 C86 1.352 . S
C85 C84 1.404 . S
C85 C89 1.389 . S
C85 H112 0.930 . S
C86 C84 1.352 . S
C86 C88 1.374 . S
C86 H113 0.931 . S
C87 C88 1.359 . S
C87 C89 1.364 . S
C88 C86 1.374 . S
C88 C87 1.359 . S
C88 H114 0.931 . S
C89 C85 1.389 . S
C89 C87 1.364 . S
C89 H115 0.931 . S
C90 O104 1.256 . S
C90 O105 1.257 . S
C91 O106 1.240 . S
C91 O107 1.240 . S
C92 Gd81 2.818 . S
C92 C93 1.510 . S
C92 O108 1.249 . S
C92 O109 1.252 . S
C93 C92 1.510 . S
C93 C94 1.404 . S
C93 C95 1.352 . S
C94 C93 1.404 . S
C94 C98 1.389 . S
C94 H116 0.930 . S
C95 C93 1.352 . S
C95 C97 1.374 . S
C95 H117 0.931 . S
C96 C97 1.359 . S
C96 C98 1.364 . S
C97 C95 1.374 . S
C97 C96 1.359 . S
C97 H118 0.931 . S
C98 C94 1.389 . S
C98 C96 1.364 . S
C98 H119 0.931 . S
C99 O110 1.256 . S
C99 O111 1.257 . S
O100 Gd80 2.377 . S
O100 C82 1.240 . S
O101 Gd81 2.395 . S
O101 C82 1.240 . S
O102 Gd80 2.448 . S
O102 C83 1.249 . S
O103 Gd80 2.506 . S
O103 C83 1.252 . S
O104 Gd80 2.435 . S
O104 C90 1.256 . S
O105 Gd80 2.717 . S
O105 Gd81 2.327 . S
O105 C90 1.257 . S
O106 Gd81 2.377 . S
O106 C91 1.240 . S
O107 Gd80 2.395 . S
O107 C91 1.240 . S
O108 Gd81 2.448 . S
O108 C92 1.249 . S
O109 Gd81 2.506 . S
O109 C92 1.252 . S
O110 Gd81 2.435 . S
O110 C99 1.256 . S
O111 Gd80 2.327 . S
O111 Gd81 2.717 . S
O111 C99 1.257 . S
H112 C85 0.930 . S
H113 C86 0.931 . S
H114 C88 0.931 . S
H115 C89 0.931 . S
H116 C94 0.930 . S
H117 C95 0.931 . S
H118 C97 0.931 . S
H119 C98 0.931 . S
Gd120 C123 2.818 . S
Gd120 O140 2.377 . S
Gd120 O142 2.448 . S
Gd120 O143 2.506 . S
Gd120 O144 2.435 . S
Gd120 O145 2.717 1_556 S
Gd120 O147 2.395 1_556 S
Gd120 O151 2.327 . S
Gd121 C132 2.818 . S
Gd121 O141 2.395 1_554 S
Gd121 O145 2.327 . S
Gd121 O146 2.377 . S
Gd121 O148 2.448 . S
Gd121 O149 2.506 . S
Gd121 O150 2.435 . S
Gd121 O151 2.717 1_554 S
C122 O140 1.240 . S
C122 O141 1.240 . S
C123 Gd120 2.818 . S
C123 C124 1.510 . S
C123 O142 1.249 . S
C123 O143 1.252 . S
C124 C123 1.510 . S
C124 C125 1.404 . S
C124 C126 1.352 . S
C125 C124 1.404 . S
C125 C129 1.389 . S
C125 H152 0.930 . S
C126 C124 1.352 . S
C126 C128 1.374 . S
C126 H153 0.931 . S
C127 C128 1.359 . S
C127 C129 1.364 . S
C128 C126 1.374 . S
C128 C127 1.359 . S
C128 H154 0.931 . S
C129 C125 1.389 . S
C129 C127 1.364 . S
C129 H155 0.931 . S
C130 O144 1.256 1_554 S
C130 O145 1.257 . S
C131 O146 1.240 . S
C131 O147 1.240 . S
C132 Gd121 2.818 . S
C132 C133 1.510 . S
C132 O148 1.249 . S
C132 O149 1.252 . S
C133 C132 1.510 . S
C133 C134 1.404 . S
C133 C135 1.352 . S
C134 C133 1.404 . S
C134 C138 1.389 . S
C134 H156 0.930 . S
C135 C133 1.352 . S
C135 C137 1.374 . S
C135 H157 0.931 . S
C136 C137 1.359 . S
C136 C138 1.364 . S
C137 C135 1.374 . S
C137 C136 1.359 . S
C137 H158 0.931 . S
C138 C134 1.389 . S
C138 C136 1.364 . S
C138 H159 0.931 . S
C139 O150 1.256 1_556 S
C139 O151 1.257 . S
O140 Gd120 2.377 . S
O140 C122 1.240 . S
O141 Gd121 2.395 1_556 S
O141 C122 1.240 . S
O142 Gd120 2.448 . S
O142 C123 1.249 . S
O143 Gd120 2.506 . S
O143 C123 1.252 . S
O144 Gd120 2.435 . S
O144 C130 1.256 1_556 S
O145 Gd120 2.717 1_554 S
O145 Gd121 2.327 . S
O145 C130 1.257 . S
O146 Gd121 2.377 . S
O146 C131 1.240 . S
O147 Gd120 2.395 1_554 S
O147 C131 1.240 . S
O148 Gd121 2.448 . S
O148 C132 1.249 . S
O149 Gd121 2.506 . S
O149 C132 1.252 . S
O150 Gd121 2.435 . S
O150 C139 1.256 1_554 S
O151 Gd120 2.327 . S
O151 Gd121 2.717 1_556 S
O151 C139 1.257 . S
H152 C125 0.930 . S
H153 C126 0.931 . S
H154 C128 0.931 . S
H155 C129 0.931 . S
H156 C134 0.930 . S
H157 C135 0.931 . S
H158 C137 0.931 . S
H159 C138 0.931 . S
Gd160 C163 2.818 . S
Gd160 O180 2.377 . S
Gd160 O182 2.448 . S
Gd160 O183 2.506 . S
Gd160 O184 2.435 . S
Gd160 O185 2.717 . S
Gd160 O187 2.395 . S
Gd160 O191 2.327 . S
Gd161 C172 2.818 . S
Gd161 O181 2.395 . S
Gd161 O185 2.327 . S
Gd161 O186 2.377 . S
Gd161 O188 2.448 . S
Gd161 O189 2.506 . S
Gd161 O190 2.435 . S
Gd161 O191 2.717 . S
C162 O180 1.240 . S
C162 O181 1.240 . S
C163 Gd160 2.818 . S
C163 C164 1.510 . S
C163 O182 1.249 . S
C163 O183 1.252 . S
C164 C163 1.510 . S
C164 C165 1.404 . S
C164 C166 1.352 . S
C165 C164 1.404 . S
C165 C169 1.389 . S
C165 H192 0.930 . S
C166 C164 1.352 . S
C166 C168 1.374 . S
C166 H193 0.931 . S
C167 C168 1.359 . S
C167 C169 1.364 . S
C168 C166 1.374 . S
C168 C167 1.359 . S
C168 H194 0.931 . S
C169 C165 1.389 . S
C169 C167 1.364 . S
C169 H195 0.931 . S
C170 O184 1.256 . S
C170 O185 1.257 . S
C171 O186 1.240 . S
C171 O187 1.240 . S
C172 Gd161 2.818 . S
C172 C173 1.510 . S
C172 O188 1.249 . S
C172 O189 1.252 . S
C173 C172 1.510 . S
C173 C174 1.404 . S
C173 C175 1.352 . S
C174 C173 1.404 . S
C174 C178 1.389 . S
C174 H196 0.930 . S
C175 C173 1.352 . S
C175 C177 1.374 . S
C175 H197 0.931 . S
C176 C177 1.359 . S
C176 C178 1.364 . S
C177 C175 1.374 . S
C177 C176 1.359 . S
C177 H198 0.931 . S
C178 C174 1.389 . S
C178 C176 1.364 . S
C178 H199 0.931 . S
C179 O190 1.256 . S
C179 O191 1.257 . S
O180 Gd160 2.377 . S
O180 C162 1.240 . S
O181 Gd161 2.395 . S
O181 C162 1.240 . S
O182 Gd160 2.448 . S
O182 C163 1.249 . S
O183 Gd160 2.506 . S
O183 C163 1.252 . S
O184 Gd160 2.435 . S
O184 C170 1.256 . S
O185 Gd160 2.717 . S
O185 Gd161 2.327 . S
O185 C170 1.257 . S
O186 Gd161 2.377 . S
O186 C171 1.240 . S
O187 Gd160 2.395 . S
O187 C171 1.240 . S
O188 Gd161 2.448 . S
O188 C172 1.249 . S
O189 Gd161 2.506 . S
O189 C172 1.252 . S
O190 Gd161 2.435 . S
O190 C179 1.256 . S
O191 Gd160 2.327 . S
O191 Gd161 2.717 . S
O191 C179 1.257 . S
H192 C165 0.930 . S
H193 C166 0.931 . S
H194 C168 0.931 . S
H195 C169 0.931 . S
H196 C174 0.930 . S
H197 C175 0.931 . S
H198 C177 0.931 . S
H199 C178 0.931 . S
Gd200 C203 2.818 . S
Gd200 O220 2.377 . S
Gd200 O222 2.448 . S
Gd200 O223 2.506 . S
Gd200 O224 2.435 . S
Gd200 O225 2.717 . S
Gd200 O227 2.395 . S
Gd200 O231 2.327 . S
Gd201 C212 2.818 . S
Gd201 O221 2.395 . S
Gd201 O225 2.327 . S
Gd201 O226 2.377 . S
Gd201 O228 2.448 . S
Gd201 O229 2.506 . S
Gd201 O230 2.435 . S
Gd201 O231 2.717 . S
C202 O220 1.240 . S
C202 O221 1.240 . S
C203 Gd200 2.818 . S
C203 C204 1.510 . S
C203 O222 1.249 . S
C203 O223 1.252 . S
C204 C203 1.510 . S
C204 C205 1.404 . S
C204 C206 1.352 . S
C205 C204 1.404 . S
C205 C209 1.389 . S
C205 H232 0.930 . S
C206 C204 1.352 . S
C206 C208 1.374 . S
C206 H233 0.931 . S
C207 C208 1.359 . S
C207 C209 1.364 . S
C208 C206 1.374 . S
C208 C207 1.359 . S
C208 H234 0.931 . S
C209 C205 1.389 . S
C209 C207 1.364 . S
C209 H235 0.931 . S
C210 O224 1.256 . S
C210 O225 1.257 . S
C211 O226 1.240 . S
C211 O227 1.240 . S
C212 Gd201 2.818 . S
C212 C213 1.510 . S
C212 O228 1.249 . S
C212 O229 1.252 . S
C213 C212 1.510 . S
C213 C214 1.404 . S
C213 C215 1.352 . S
C214 C213 1.404 . S
C214 C218 1.389 . S
C214 H236 0.930 . S
C215 C213 1.352 . S
C215 C217 1.374 . S
C215 H237 0.931 . S
C216 C217 1.359 . S
C216 C218 1.364 . S
C217 C215 1.374 . S
C217 C216 1.359 . S
C217 H238 0.931 . S
C218 C214 1.389 . S
C218 C216 1.364 . S
C218 H239 0.931 . S
C219 O230 1.256 . S
C219 O231 1.257 . S
O220 Gd200 2.377 . S
O220 C202 1.240 . S
O221 Gd201 2.395 . S
O221 C202 1.240 . S
O222 Gd200 2.448 . S
O222 C203 1.249 . S
O223 Gd200 2.506 . S
O223 C203 1.252 . S
O224 Gd200 2.435 . S
O224 C210 1.256 . S
O225 Gd200 2.717 . S
O225 Gd201 2.327 . S
O225 C210 1.257 . S
O226 Gd201 2.377 . S
O226 C211 1.240 . S
O227 Gd200 2.395 . S
O227 C211 1.240 . S
O228 Gd201 2.448 . S
O228 C212 1.249 . S
O229 Gd201 2.506 . S
O229 C212 1.252 . S
O230 Gd201 2.435 . S
O230 C219 1.256 . S
O231 Gd200 2.327 . S
O231 Gd201 2.717 . S
O231 C219 1.257 . S
H232 C205 0.930 . S
H233 C206 0.931 . S
H234 C208 0.931 . S
H235 C209 0.931 . S
H236 C214 0.930 . S
H237 C215 0.931 . S
H238 C217 0.931 . S
H239 C218 0.931 . S
C240 C241 1.349 . S
C240 C242 1.327 . S
C240 H265 0.950 . S
C241 C240 1.349 . S
C241 C257 1.349 . S
C242 C240 1.327 . S
C242 C261 1.429 . S
C242 H266 0.950 . S
C243 C260 1.574 . S
C243 C262 1.368 . S
C243 H267 0.949 . S
H244 C248 0.949 . S
C245 C246 1.349 . S
C245 C247 1.327 . S
C245 H268 0.950 . S
C246 C245 1.349 . S
C246 C258 1.349 . S
C247 C245 1.327 . S
C247 C263 1.429 . S
C247 H269 0.950 . S
C248 H244 0.949 . S
C248 C256 1.574 . S
C248 C264 1.368 . S
H249 C257 0.950 . S
H250 C255 0.950 . S
H251 C256 0.949 . S
H252 C258 0.950 . S
H253 C259 0.950 . S
H254 C260 0.949 . S
C255 H250 0.950 . S
C255 C257 1.327 . S
C255 C261 1.429 . S
C256 C248 1.574 . S
C256 H251 0.949 . S
C256 C262 1.368 . S
C257 C241 1.349 . S
C257 H249 0.950 . S
C257 C255 1.327 . S
C258 C246 1.349 . S
C258 H252 0.950 . S
C258 C259 1.327 . S
C259 H253 0.950 . S
C259 C258 1.327 . S
C259 C263 1.429 . S
C260 C243 1.574 . S
C260 H254 0.949 . S
C260 C264 1.368 . S
C261 C242 1.429 . S
C261 C255 1.429 . S
C261 C262 1.523 . S
C262 C243 1.368 . S
C262 C256 1.368 . S
C262 C261 1.523 . S
C263 C247 1.429 . S
C263 C259 1.429 . S
C263 C264 1.523 . S
C264 C248 1.368 . S
C264 C260 1.368 . S
C264 C263 1.523 . S
H265 C240 0.950 . S
H266 C242 0.950 . S
H267 C243 0.949 . S
H268 C245 0.950 . S
H269 C247 0.950 . S
C270 C271 1.349 . S
C270 C272 1.327 . S
C270 H295 0.950 . S
C271 C270 1.349 . S
C271 C287 1.349 . S
C272 C270 1.327 . S
C272 C291 1.429 . S
C272 H296 0.950 . S
C273 C290 1.574 1_455 S
C273 C292 1.368 . S
C273 H297 0.949 . S
H274 C278 0.949 . S
C275 C276 1.349 . S
C275 C277 1.327 . S
C275 H298 0.950 . S
C276 C275 1.349 . S
C276 C288 1.349 . S
C277 C275 1.327 . S
C277 C293 1.429 . S
C277 H299 0.950 . S
C278 H274 0.949 . S
C278 C286 1.574 1_655 S
C278 C294 1.368 . S
H279 C287 0.950 . S
H280 C285 0.950 . S
H281 C286 0.949 . S
H282 C288 0.950 . S
H283 C289 0.950 . S
H284 C290 0.949 . S
C285 H280 0.950 . S
C285 C287 1.327 . S
C285 C291 1.429 . S
C286 C278 1.574 1_455 S
C286 H281 0.949 . S
C286 C292 1.368 . S
C287 C271 1.349 . S
C287 H279 0.950 . S
C287 C285 1.327 . S
C288 C276 1.349 . S
C288 H282 0.950 . S
C288 C289 1.327 . S
C289 H283 0.950 . S
C289 C288 1.327 . S
C289 C293 1.429 . S
C290 C273 1.574 1_655 S
C290 H284 0.949 . S
C290 C294 1.368 . S
C291 C272 1.429 . S
C291 C285 1.429 . S
C291 C292 1.523 . S
C292 C273 1.368 . S
C292 C286 1.368 . S
C292 C291 1.523 . S
C293 C277 1.429 . S
C293 C289 1.429 . S
C293 C294 1.523 . S
C294 C278 1.368 . S
C294 C290 1.368 . S
C294 C293 1.523 . S
H295 C270 0.950 . S
H296 C272 0.950 . S
H297 C273 0.949 . S
H298 C275 0.950 . S
H299 C277 0.950 . S
C300 C301 1.349 . S
C300 C302 1.327 . S
C300 H325 0.950 . S
C301 C300 1.349 . S
C301 C317 1.349 . S
C302 C300 1.327 . S
C302 C321 1.429 . S
C302 H326 0.950 . S
C303 C320 1.574 1_545 S
C303 C322 1.368 . S
C303 H327 0.949 . S
H304 C308 0.949 . S
C305 C306 1.349 . S
C305 C307 1.327 . S
C305 H328 0.950 . S
C306 C305 1.349 . S
C306 C318 1.349 . S
C307 C305 1.327 . S
C307 C323 1.429 . S
C307 H329 0.950 . S
C308 H304 0.949 . S
C308 C316 1.574 . S
C308 C324 1.368 . S
H309 C317 0.950 . S
H310 C315 0.950 . S
H311 C316 0.949 . S
H312 C318 0.950 . S
H313 C319 0.950 . S
H314 C320 0.949 . S
C315 H310 0.950 . S
C315 C317 1.327 . S
C315 C321 1.429 . S
C316 C308 1.574 . S
C316 H311 0.949 . S
C316 C322 1.368 1_565 S
C317 C301 1.349 . S
C317 H309 0.950 . S
C317 C315 1.327 . S
C318 C306 1.349 . S
C318 H312 0.950 . S
C318 C319 1.327 . S
C319 H313 0.950 . S
C319 C318 1.327 . S
C319 C323 1.429 . S
C320 C303 1.574 1_565 S
C320 H314 0.949 . S
C320 C324 1.368 . S
C321 C302 1.429 . S
C321 C315 1.429 . S
C321 C322 1.523 . S
C322 C303 1.368 . S
C322 C316 1.368 1_545 S
C322 C321 1.523 . S
C323 C307 1.429 . S
C323 C319 1.429 . S
C323 C324 1.523 . S
C324 C308 1.368 . S
C324 C320 1.368 . S
C324 C323 1.523 . S
H325 C300 0.950 . S
H326 C302 0.950 . S
H327 C303 0.949 . S
H328 C305 0.950 . S
H329 C307 0.950 . S
C330 C331 1.349 . S
C330 C332 1.327 . S
C330 H355 0.950 . S
C331 C330 1.349 . S
C331 C347 1.349 . S
C332 C330 1.327 . S
C332 C351 1.429 . S
C332 H356 0.950 . S
C333 C350 1.574 . S
C333 C352 1.368 . S
C333 H357 0.949 . S
H334 C338 0.949 . S
C335 C336 1.349 . S
C335 C337 1.327 . S
C335 H358 0.950 . S
C336 C335 1.349 . S
C336 C348 1.349 . S
C337 C335 1.327 . S
C337 C353 1.429 . S
C337 H359 0.950 . S
C338 H334 0.949 . S
C338 C346 1.574 . S
C338 C354 1.368 . S
H339 C347 0.950 . S
H340 C345 0.950 . S
H341 C346 0.949 . S
H342 C348 0.950 . S
H343 C349 0.950 . S
H344 C350 0.949 . S
C345 H340 0.950 . S
C345 C347 1.327 . S
C345 C351 1.429 . S
C346 C338 1.574 . S
C346 H341 0.949 . S
C346 C352 1.368 . S
C347 C331 1.349 . S
C347 H339 0.950 . S
C347 C345 1.327 . S
C348 C336 1.349 . S
C348 H342 0.950 . S
C348 C349 1.327 . S
C349 H343 0.950 . S
C349 C348 1.327 . S
C349 C353 1.429 . S
C350 C333 1.574 . S
C350 H344 0.949 . S
C350 C354 1.368 . S
C351 C332 1.429 . S
C351 C345 1.429 . S
C351 C352 1.523 . S
C352 C333 1.368 . S
C352 C346 1.368 . S
C352 C351 1.523 . S
C353 C337 1.429 . S
C353 C349 1.429 . S
C353 C354 1.523 . S
C354 C338 1.368 . S
C354 C350 1.368 . S
C354 C353 1.523 . S
H355 C330 0.950 . S
H356 C332 0.950 . S
H357 C333 0.949 . S
H358 C335 0.950 . S
H359 C337 0.950 . S
C360 C361 1.349 . S
C360 C362 1.327 . S
C360 H385 0.950 . S
C361 C360 1.349 . S
C361 C377 1.349 . S
C362 C360 1.327 . S
C362 C381 1.429 . S
C362 H386 0.950 . S
C363 C380 1.566 1_455 S
C363 C382 1.375 . S
C363 H387 0.950 . S
H364 C368 0.949 . S
C365 C366 1.349 . S
C365 C367 1.327 . S
C365 H388 0.950 . S
C366 C365 1.349 . S
C366 C378 1.349 . S
C367 C365 1.327 . S
C367 C383 1.429 . S
C367 H389 0.950 . S
C368 H364 0.949 . S
C368 C376 1.574 . S
C368 C384 1.368 1_455 S
H369 C377 0.950 . S
H370 C375 0.950 . S
H371 C376 0.949 . S
H372 C378 0.950 1_556 S
H373 C379 0.950 . S
H374 C380 0.949 . S
C375 H370 0.950 . S
C375 C377 1.327 . S
C375 C381 1.429 . S
C376 C368 1.574 . S
C376 H371 0.949 . S
C376 C382 1.368 . S
C377 C361 1.349 . S
C377 H369 0.950 . S
C377 C375 1.327 . S
C378 C366 1.349 . S
C378 H372 0.950 1_554 S
C378 C379 1.327 . S
C379 H373 0.950 . S
C379 C378 1.327 . S
C379 C383 1.429 . S
C380 C363 1.566 1_655 S
C380 H374 0.949 . S
C380 C384 1.368 . S
C381 C362 1.429 . S
C381 C375 1.429 . S
C381 C382 1.523 . S
C382 C363 1.375 . S
C382 C376 1.368 . S
C382 C381 1.523 . S
C383 C367 1.429 . S
C383 C379 1.429 . S
C383 C384 1.523 . S
C384 C368 1.368 1_655 S
C384 C380 1.368 . S
C384 C383 1.523 . S
H385 C360 0.950 . S
H386 C362 0.950 . S
H387 C363 0.950 . S
H388 C365 0.950 . S
H389 C367 0.950 . S
C390 C391 1.349 . S
C390 C392 1.327 . S
C390 H415 0.950 . S
C391 C390 1.349 . S
C391 C407 1.349 . S
C392 C390 1.327 . S
C392 C411 1.429 . S
C392 H416 0.950 . S
C393 C410 1.574 1_545 S
C393 C412 1.368 . S
C393 H417 0.949 . S
H394 C398 0.949 . S
C395 C396 1.349 . S
C395 C397 1.327 . S
C395 H418 0.950 . S
C396 C395 1.349 . S
C396 C408 1.349 . S
C397 C395 1.327 . S
C397 C413 1.429 . S
C397 H419 0.950 . S
C398 H394 0.949 . S
C398 C406 1.574 1_565 S
C398 C414 1.368 . S
H399 C407 0.950 . S
H400 C405 0.950 . S
H401 C406 0.949 . S
H402 C408 0.950 . S
H403 C409 0.950 . S
H404 C410 0.949 . S
C405 H400 0.950 . S
C405 C407 1.327 . S
C405 C411 1.429 . S
C406 C398 1.574 1_545 S
C406 H401 0.949 . S
C406 C412 1.368 . S
C407 C391 1.349 . S
C407 H399 0.950 . S
C407 C405 1.327 . S
C408 C396 1.349 . S
C408 H402 0.950 . S
C408 C409 1.327 . S
C409 H403 0.950 . S
C409 C408 1.327 . S
C409 C413 1.429 . S
C410 C393 1.574 1_565 S
C410 H404 0.949 . S
C410 C414 1.368 . S
C411 C392 1.429 . S
C411 C405 1.429 . S
C411 C412 1.523 . S
C412 C393 1.368 . S
C412 C406 1.368 . S
C412 C411 1.523 . S
C413 C397 1.429 . S
C413 C409 1.429 . S
C413 C414 1.523 . S
C414 C398 1.368 . S
C414 C410 1.368 . S
C414 C413 1.523 . S
H415 C390 0.950 . S
H416 C392 0.950 . S
H417 C393 0.949 . S
H418 C395 0.950 . S
H419 C397 0.950 . S
C420 C421 1.349 . S
C420 C422 1.327 . S
C420 H445 0.950 . S
C421 C420 1.349 . S
C421 C437 1.349 . S
C422 C420 1.327 . S
C422 C441 1.429 . S
C422 H446 0.950 . S
C423 C440 1.574 . S
C423 C442 1.368 . S
C423 H447 0.949 . S
H424 C428 0.949 . S
C425 C426 1.349 . S
C425 C427 1.327 . S
C425 H448 0.950 . S
C426 C425 1.349 . S
C426 C438 1.349 . S
C427 C425 1.327 . S
C427 C443 1.429 . S
C427 H449 0.950 . S
C428 H424 0.949 . S
C428 C436 1.574 . S
C428 C444 1.368 . S
H429 C437 0.950 . S
H430 C435 0.950 . S
H431 C436 0.949 . S
H432 C438 0.950 . S
H433 C439 0.950 . S
H434 C440 0.949 . S
C435 H430 0.950 . S
C435 C437 1.327 . S
C435 C441 1.429 . S
C436 C428 1.574 . S
C436 H431 0.949 . S
C436 C442 1.368 . S
C437 C421 1.349 . S
C437 H429 0.950 . S
C437 C435 1.327 . S
C438 C426 1.349 . S
C438 H432 0.950 . S
C438 C439 1.327 . S
C439 H433 0.950 . S
C439 C438 1.327 . S
C439 C443 1.429 . S
C440 C423 1.574 . S
C440 H434 0.949 . S
C440 C444 1.368 . S
C441 C422 1.429 . S
C441 C435 1.429 . S
C441 C442 1.523 . S
C442 C423 1.368 . S
C442 C436 1.368 . S
C442 C441 1.523 . S
C443 C427 1.429 . S
C443 C439 1.429 . S
C443 C444 1.523 . S
C444 C428 1.368 . S
C444 C440 1.368 . S
C444 C443 1.523 . S
H445 C420 0.950 . S
H446 C422 0.950 . S
H447 C423 0.949 . S
H448 C425 0.950 . S
H449 C427 0.950 . S
C450 C451 1.349 . S
C450 C452 1.327 1_554 S
C450 H475 0.950 . S
C451 C450 1.349 . S
C451 C467 1.349 1_554 S
C452 C450 1.327 1_556 S
C452 C471 1.429 . S
C452 H476 0.950 . S
C453 C470 1.574 . S
C453 C472 1.368 . S
C453 H477 0.949 . S
H454 C458 0.949 . S
C455 C456 1.349 . S
C455 C457 1.327 . S
C455 H478 0.950 . S
C456 C455 1.349 . S
C456 C468 1.349 . S
C457 C455 1.327 . S
C457 C473 1.429 . S
C457 H479 0.950 . S
C458 H454 0.949 . S
C458 C466 1.574 . S
C458 C474 1.368 . S
H459 C467 0.950 . S
H460 C465 0.950 . S
H461 C466 0.949 . S
H462 C468 0.950 . S
H463 C469 0.950 . S
H464 C470 0.949 . S
C465 H460 0.950 . S
C465 C467 1.327 . S
C465 C471 1.429 . S
C466 C458 1.574 . S
C466 H461 0.949 . S
C466 C472 1.368 . S
C467 C451 1.349 1_556 S
C467 H459 0.950 . S
C467 C465 1.327 . S
C468 C456 1.349 . S
C468 H462 0.950 . S
C468 C469 1.327 . S
C469 H463 0.950 . S
C469 C468 1.327 . S
C469 C473 1.429 . S
C470 C453 1.574 . S
C470 H464 0.949 . S
C470 C474 1.368 . S
C471 C452 1.429 . S
C471 C465 1.429 . S
C471 C472 1.523 . S
C472 C453 1.368 . S
C472 C466 1.368 . S
C472 C471 1.523 . S
C473 C457 1.429 . S
C473 C469 1.429 . S
C473 C474 1.523 . S
C474 C458 1.368 . S
C474 C470 1.368 . S
C474 C473 1.523 . S
H475 C450 0.950 . S
H476 C452 0.950 . S
H477 C453 0.949 . S
H478 C455 0.950 . S
H479 C457 0.950 . S
C480 C481 1.349 . S
C480 C482 1.327 . S
C480 H505 0.950 . S
C481 C480 1.349 . S
C481 C497 1.349 . S
C482 C480 1.327 . S
C482 C501 1.429 . S
C482 H506 0.950 . S
C483 C500 1.574 . S
C483 C502 1.368 . S
C483 H507 0.949 . S
H484 C488 0.949 . S
C485 C486 1.349 1_554 S
C485 C487 1.327 . S
C485 H508 0.950 . S
C486 C485 1.349 1_556 S
C486 C498 1.349 1_556 S
C487 C485 1.327 . S
C487 C503 1.429 . S
C487 H509 0.950 . S
C488 H484 0.949 . S
C488 C496 1.574 . S
C488 C504 1.368 . S
H489 C497 0.950 . S
H490 C495 0.950 . S
H491 C496 0.949 . S
H492 C498 0.950 1_556 S
H493 C499 0.950 . S
H494 C500 0.949 . S
C495 H490 0.950 . S
C495 C497 1.327 . S
C495 C501 1.429 . S
C496 C488 1.574 . S
C496 H491 0.949 . S
C496 C502 1.368 . S
C497 C481 1.349 . S
C497 H489 0.950 . S
C497 C495 1.327 . S
C498 C486 1.349 1_554 S
C498 H492 0.950 1_554 S
C498 C499 1.327 . S
C499 H493 0.950 . S
C499 C498 1.327 . S
C499 C503 1.429 . S
C500 C483 1.574 . S
C500 H494 0.949 . S
C500 C504 1.368 . S
C501 C482 1.429 . S
C501 C495 1.429 . S
C501 C502 1.523 . S
C502 C483 1.368 . S
C502 C496 1.368 . S
C502 C501 1.523 . S
C503 C487 1.429 . S
C503 C499 1.429 . S
C503 C504 1.523 . S
C504 C488 1.368 . S
C504 C500 1.368 . S
C504 C503 1.523 . S
H505 C480 0.950 . S
H506 C482 0.950 . S
H507 C483 0.949 . S
H508 C485 0.950 . S
H509 C487 0.950 . S
C510 C511 1.349 . S
C510 C512 1.327 . S
C510 H535 0.950 . S
C511 C510 1.349 . S
C511 C527 1.349 . S
C512 C510 1.327 . S
C512 C531 1.429 . S
C512 H536 0.950 . S
C513 C530 1.574 . S
C513 C532 1.368 . S
C513 H537 0.949 . S
H514 C518 0.949 . S
C515 C516 1.349 . S
C515 C517 1.327 . S
C515 H538 0.950 . S
C516 C515 1.349 . S
C516 C528 1.349 . S
C517 C515 1.327 . S
C517 C533 1.429 . S
C517 H539 0.950 . S
C518 H514 0.949 . S
C518 C526 1.574 . S
C518 C534 1.368 . S
H519 C527 0.950 . S
H520 C525 0.950 . S
H521 C526 0.949 . S
H522 C528 0.950 . S
H523 C529 0.950 . S
H524 C530 0.949 . S
C525 H520 0.950 . S
C525 C527 1.327 . S
C525 C531 1.429 . S
C526 C518 1.574 . S
C526 H521 0.949 . S
C526 C532 1.368 . S
C527 C511 1.349 . S
C527 H519 0.950 . S
C527 C525 1.327 . S
C528 C516 1.349 . S
C528 H522 0.950 . S
C528 C529 1.327 . S
C529 H523 0.950 . S
C529 C528 1.327 . S
C529 C533 1.429 . S
C530 C513 1.574 . S
C530 H524 0.949 . S
C530 C534 1.368 . S
C531 C512 1.429 . S
C531 C525 1.429 . S
C531 C532 1.523 . S
C532 C513 1.368 . S
C532 C526 1.368 . S
C532 C531 1.523 . S
C533 C517 1.429 . S
C533 C529 1.429 . S
C533 C534 1.523 . S
C534 C518 1.368 . S
C534 C530 1.368 . S
C534 C533 1.523 . S
H535 C510 0.950 . S
H536 C512 0.950 . S
H537 C513 0.949 . S
H538 C515 0.950 . S
H539 C517 0.950 . S
C540 C541 1.349 . S
C540 C542 1.327 . S
C540 H565 0.950 . S
C541 C540 1.349 . S
C541 C557 1.349 . S
C542 C540 1.327 . S
C542 C561 1.429 . S
C542 H566 0.950 . S
C543 C560 1.574 . S
C543 C562 1.368 . S
C543 H567 0.949 . S
H544 C548 0.949 . S
C545 C546 1.349 . S
C545 C547 1.327 1_554 S
C545 H568 0.950 . S
C546 C545 1.349 . S
C546 C558 1.349 1_554 S
C547 C545 1.327 1_556 S
C547 C563 1.429 . S
C547 H569 0.950 . S
C548 H544 0.949 . S
C548 C556 1.574 . S
C548 C564 1.368 . S
H549 C557 0.950 . S
H550 C555 0.950 . S
H551 C556 0.949 . S
H552 C558 0.950 . S
H553 C559 0.950 . S
H554 C560 0.949 . S
C555 H550 0.950 . S
C555 C557 1.327 . S
C555 C561 1.429 . S
C556 C548 1.574 . S
C556 H551 0.949 . S
C556 C562 1.368 . S
C557 C541 1.349 . S
C557 H549 0.950 . S
C557 C555 1.327 . S
C558 C546 1.349 1_556 S
C558 H552 0.950 . S
C558 C559 1.327 . S
C559 H553 0.950 . S
C559 C558 1.327 . S
C559 C563 1.429 . S
C560 C543 1.574 . S
C560 H554 0.949 . S
C560 C564 1.368 . S
C561 C542 1.429 . S
C561 C555 1.429 . S
C561 C562 1.523 . S
C562 C543 1.368 . S
C562 C556 1.368 . S
C562 C561 1.523 . S
C563 C547 1.429 . S
C563 C559 1.429 . S
C563 C564 1.523 . S
C564 C548 1.368 . S
C564 C560 1.368 . S
C564 C563 1.523 . S
H565 C540 0.950 . S
H566 C542 0.950 . S
H567 C543 0.949 . S
H568 C545 0.950 . S
H569 C547 0.950 . S
C570 C571 1.349 . S
C570 C572 1.327 . S
C570 H595 0.950 . S
C571 C570 1.349 . S
C571 C587 1.349 . S
C572 C570 1.327 . S
C572 C591 1.429 . S
C572 H596 0.950 . S
C573 C590 1.574 . S
C573 C592 1.368 . S
C573 H597 0.949 . S
H574 C578 0.949 . S
C575 C576 1.349 1_554 S
C575 C577 1.327 . S
C575 H598 0.950 1_554 S
C576 C575 1.349 1_556 S
C576 C588 1.349 1_556 S
C577 C575 1.327 . S
C577 C593 1.429 . S
C577 H599 0.950 . S
C578 H574 0.949 . S
C578 C586 1.574 . S
C578 C594 1.368 . S
H579 C587 0.950 . S
H580 C585 0.950 . S
H581 C586 0.949 . S
H582 C588 0.950 . S
H583 C589 0.950 . S
H584 C590 0.949 . S
C585 H580 0.950 . S
C585 C587 1.327 . S
C585 C591 1.429 . S
C586 C578 1.574 . S
C586 H581 0.949 . S
C586 C592 1.368 . S
C587 C571 1.349 . S
C587 H579 0.950 . S
C587 C585 1.327 . S
C588 C576 1.349 1_554 S
C588 H582 0.950 . S
C588 C589 1.327 . S
C589 H583 0.950 . S
C589 C588 1.327 . S
C589 C593 1.429 . S
C590 C573 1.574 . S
C590 H584 0.949 . S
C590 C594 1.368 . S
C591 C572 1.429 . S
C591 C585 1.429 . S
C591 C592 1.523 . S
C592 C573 1.368 . S
C592 C586 1.368 . S
C592 C591 1.523 . S
C593 C577 1.429 . S
C593 C589 1.429 . S
C593 C594 1.523 . S
C594 C578 1.368 . S
C594 C590 1.368 . S
C594 C593 1.523 . S
H595 C570 0.950 . S
H596 C572 0.950 . S
H597 C573 0.949 . S
H598 C575 0.950 1_556 S
H599 C577 0.950 . S
C600 C601 1.349 . S
C600 C602 1.327 . S
C600 H625 0.950 . S
C601 C600 1.349 . S
C601 C617 1.349 . S
C602 C600 1.327 . S
C602 C621 1.429 . S
C602 H626 0.950 . S
C603 C620 1.574 . S
C603 C622 1.368 . S
C603 H627 0.949 . S
H604 C608 0.949 . S
C605 C606 1.349 . S
C605 C607 1.327 . S
C605 H628 0.950 . S
C606 C605 1.349 . S
C606 C618 1.349 . S
C607 C605 1.327 . S
C607 C623 1.429 . S
C607 H629 0.950 . S
C608 H604 0.949 . S
C608 C616 1.574 . S
C608 C624 1.368 . S
H609 C617 0.950 . S
H610 C615 0.950 . S
H611 C616 0.949 . S
H612 C618 0.950 . S
H613 C619 0.950 . S
H614 C620 0.949 . S
C615 H610 0.950 . S
C615 C617 1.327 . S
C615 C621 1.429 . S
C616 C608 1.574 . S
C616 H611 0.949 . S
C616 C622 1.368 . S
C617 C601 1.349 . S
C617 H609 0.950 . S
C617 C615 1.327 . S
C618 C606 1.349 . S
C618 H612 0.950 . S
C618 C619 1.327 . S
C619 H613 0.950 . S
C619 C618 1.327 . S
C619 C623 1.429 . S
C620 C603 1.574 . S
C620 H614 0.949 . S
C620 C624 1.368 . S
C621 C602 1.429 . S
C621 C615 1.429 . S
C621 C622 1.523 . S
C622 C603 1.368 . S
C622 C616 1.368 . S
C622 C621 1.523 . S
C623 C607 1.429 . S
C623 C619 1.429 . S
C623 C624 1.523 . S
C624 C608 1.368 . S
C624 C620 1.368 . S
C624 C623 1.523 . S
H625 C600 0.950 . S
H626 C602 0.950 . S
H627 C603 0.949 . S
H628 C605 0.950 . S
H629 C607 0.950 . S
C630 C631 1.349 . S
C630 C632 1.327 . S
C630 H655 0.950 . S
C631 C630 1.349 . S
C631 C647 1.349 . S
C632 C630 1.327 . S
C632 C651 1.429 . S
C632 H656 0.950 . S
C633 C650 1.574 . S
C633 C652 1.368 . S
C633 H657 0.949 . S
H634 C638 0.949 . S
C635 C636 1.349 . S
C635 C637 1.327 . S
C635 H658 0.950 . S
C636 C635 1.349 . S
C636 C648 1.349 . S
C637 C635 1.327 . S
C637 C653 1.429 . S
C637 H659 0.950 . S
C638 H634 0.949 . S
C638 C646 1.574 . S
C638 C654 1.368 . S
H639 C647 0.950 . S
H640 C645 0.950 . S
H641 C646 0.949 . S
H642 C648 0.950 . S
H643 C649 0.950 . S
H644 C650 0.949 . S
C645 H640 0.950 . S
C645 C647 1.327 . S
C645 C651 1.429 . S
C646 C638 1.574 . S
C646 H641 0.949 . S
C646 C652 1.368 . S
C647 C631 1.349 . S
C647 H639 0.950 . S
C647 C645 1.327 . S
C648 C636 1.349 . S
C648 H642 0.950 . S
C648 C649 1.327 . S
C649 H643 0.950 . S
C649 C648 1.327 . S
C649 C653 1.429 . S
C650 C633 1.574 . S
C650 H644 0.949 . S
C650 C654 1.368 . S
C651 C632 1.429 . S
C651 C645 1.429 . S
C651 C652 1.523 . S
C652 C633 1.368 . S
C652 C646 1.368 . S
C652 C651 1.523 . S
C653 C637 1.429 . S
C653 C649 1.429 . S
C653 C654 1.523 . S
C654 C638 1.368 . S
C654 C650 1.368 . S
C654 C653 1.523 . S
H655 C630 0.950 . S
H656 C632 0.950 . S
H657 C633 0.949 . S
H658 C635 0.950 . S
H659 C637 0.950 . S
C660 C661 1.349 . S
C660 C662 1.327 . S
C660 H685 0.928 1_556 S
C661 C660 1.349 . S
C661 C677 1.349 . S
C662 C660 1.327 . S
C662 C681 1.429 . S
C662 H686 0.950 . S
C663 C680 1.574 . S
C663 C682 1.368 . S
C663 H687 0.949 . S
H664 C668 0.949 . S
C665 C666 1.349 . S
C665 C667 1.327 . S
C665 H688 0.950 . S
C666 C665 1.349 . S
C666 C678 1.349 . S
C667 C665 1.327 . S
C667 C683 1.429 . S
C667 H689 0.950 . S
C668 H664 0.949 . S
C668 C676 1.574 . S
C668 C684 1.368 . S
H669 C677 0.950 . S
H670 C675 0.950 . S
H671 C676 0.949 . S
H672 C678 0.950 . S
H673 C679 0.950 . S
H674 C680 0.949 . S
C675 H670 0.950 . S
C675 C677 1.327 . S
C675 C681 1.429 . S
C676 C668 1.574 . S
C676 H671 0.949 . S
C676 C682 1.368 . S
C677 C661 1.349 . S
C677 H669 0.950 . S
C677 C675 1.327 . S
C678 C666 1.349 . S
C678 H672 0.950 . S
C678 C679 1.327 . S
C679 H673 0.950 . S
C679 C678 1.327 . S
C679 C683 1.429 . S
C680 C663 1.574 . S
C680 H674 0.949 . S
C680 C684 1.368 . S
C681 C662 1.429 . S
C681 C675 1.429 . S
C681 C682 1.523 . S
C682 C663 1.368 . S
C682 C676 1.368 . S
C682 C681 1.523 . S
C683 C667 1.429 . S
C683 C679 1.429 . S
C683 C684 1.523 . S
C684 C668 1.368 . S
C684 C680 1.368 . S
C684 C683 1.523 . S
H685 C660 0.928 1_554 S
H686 C662 0.950 . S
H687 C663 0.949 . S
H688 C665 0.950 . S
H689 C667 0.950 . S
C690 C691 1.349 . S
C690 C692 1.327 . S
C690 H715 0.950 . S
C691 C690 1.349 . S
C691 C707 1.349 . S
C692 C690 1.327 . S
C692 C711 1.429 . S
C692 H716 0.950 . S
C693 C710 1.574 . S
C693 C712 1.368 . S
C693 H717 0.949 . S
H694 C698 0.949 . S
C695 C696 1.349 . S
C695 C697 1.327 . S
C695 H718 0.950 . S
C696 C695 1.349 . S
C696 C708 1.349 . S
C697 C695 1.327 . S
C697 C713 1.429 . S
C697 H719 0.950 . S
C698 H694 0.949 . S
C698 C706 1.574 . S
C698 C714 1.368 . S
H699 C707 0.950 . S
H700 C705 0.950 . S
H701 C706 0.949 . S
H702 C708 0.950 . S
H703 C709 0.950 . S
H704 C710 0.949 . S
C705 H700 0.950 . S
C705 C707 1.327 . S
C705 C711 1.429 . S
C706 C698 1.574 . S
C706 H701 0.949 . S
C706 C712 1.368 . S
C707 C691 1.349 . S
C707 H699 0.950 . S
C707 C705 1.327 . S
C708 C696 1.349 . S
C708 H702 0.950 . S
C708 C709 1.327 . S
C709 H703 0.950 . S
C709 C708 1.327 . S
C709 C713 1.429 . S
C710 C693 1.574 . S
C710 H704 0.949 . S
C710 C714 1.368 . S
C711 C692 1.429 . S
C711 C705 1.429 . S
C711 C712 1.523 . S
C712 C693 1.368 . S
C712 C706 1.368 . S
C712 C711 1.523 . S
C713 C697 1.429 . S
C713 C709 1.429 . S
C713 C714 1.523 . S
C714 C698 1.368 . S
C714 C710 1.368 . S
C714 C713 1.523 . S
H715 C690 0.950 . S
H716 C692 0.950 . S
H717 C693 0.949 . S
H718 C695 0.950 . S
H719 C697 0.950 . S
C720 C721 1.349 . S
C720 C722 1.327 . S
C720 H745 0.950 . S
C721 C720 1.349 . S
C721 C737 1.349 . S
C722 C720 1.327 . S
C722 C741 1.429 . S
C722 H746 0.950 . S
C723 C740 1.574 . S
C723 C742 1.368 . S
C723 H747 0.949 . S
H724 C728 0.949 . S
C725 C726 1.349 . S
C725 C727 1.327 . S
C725 H748 0.950 . S
C726 C725 1.349 . S
C726 C738 1.349 . S
C727 C725 1.327 . S
C727 C743 1.429 . S
C727 H749 0.950 . S
C728 H724 0.949 . S
C728 C736 1.574 . S
C728 C744 1.368 . S
H729 C737 0.950 . S
H730 C735 0.950 . S
H731 C736 0.949 . S
H732 C738 0.950 . S
H733 C739 0.950 . S
H734 C740 0.949 . S
C735 H730 0.950 . S
C735 C737 1.327 . S
C735 C741 1.429 . S
C736 C728 1.574 . S
C736 H731 0.949 . S
C736 C742 1.368 . S
C737 C721 1.349 . S
C737 H729 0.950 . S
C737 C735 1.327 . S
C738 C726 1.349 . S
C738 H732 0.950 . S
C738 C739 1.327 . S
C739 H733 0.950 . S
C739 C738 1.327 . S
C739 C743 1.429 . S
C740 C723 1.574 . S
C740 H734 0.949 . S
C740 C744 1.368 . S
C741 C722 1.429 . S
C741 C735 1.429 . S
C741 C742 1.523 . S
C742 C723 1.368 . S
C742 C736 1.368 . S
C742 C741 1.523 . S
C743 C727 1.429 . S
C743 C739 1.429 . S
C743 C744 1.523 . S
C744 C728 1.368 . S
C744 C740 1.368 . S
C744 C743 1.523 . S
H745 C720 0.950 . S
H746 C722 0.950 . S
H747 C723 0.949 . S
H748 C725 0.950 . S
H749 C727 0.950 . S
C750 C751 1.349 . S
C750 C752 1.327 . S
C750 H775 0.950 1_556 S
C751 C750 1.349 . S
C751 C767 1.349 . S
C752 C750 1.327 . S
C752 C771 1.429 . S
C752 H776 0.950 . S
C753 C770 1.574 . S
C753 C772 1.368 . S
C753 H777 0.949 . S
H754 C758 0.949 . S
C755 C756 1.349 . S
C755 C757 1.327 . S
C755 H778 0.950 . S
C756 C755 1.349 . S
C756 C768 1.349 . S
C757 C755 1.327 . S
C757 C773 1.429 . S
C757 H779 0.950 . S
C758 H754 0.949 . S
C758 C766 1.574 . S
C758 C774 1.368 . S
H759 C767 0.950 . S
H760 C765 0.950 . S
H761 C766 0.949 . S
H762 C768 0.950 . S
H763 C769 0.950 . S
H764 C770 0.949 . S
C765 H760 0.950 . S
C765 C767 1.327 . S
C765 C771 1.429 . S
C766 C758 1.574 . S
C766 H761 0.949 . S
C766 C772 1.368 . S
C767 C751 1.349 . S
C767 H759 0.950 . S
C767 C765 1.327 . S
C768 C756 1.349 . S
C768 H762 0.950 . S
C768 C769 1.327 . S
C769 H763 0.950 . S
C769 C768 1.327 . S
C769 C773 1.429 . S
C770 C753 1.574 . S
C770 H764 0.949 . S
C770 C774 1.368 . S
C771 C752 1.429 . S
C771 C765 1.429 . S
C771 C772 1.523 . S
C772 C753 1.368 . S
C772 C766 1.368 . S
C772 C771 1.523 . S
C773 C757 1.429 . S
C773 C769 1.429 . S
C773 C774 1.523 . S
C774 C758 1.368 . S
C774 C770 1.368 . S
C774 C773 1.523 . S
H775 C750 0.950 1_554 S
H776 C752 0.950 . S
H777 C753 0.949 . S
H778 C755 0.950 . S
H779 C757 0.950 . S
C241 C210 1.292 . S
C246 C2 1.326 . S
C271 C10 1.292 . S
C276 C42 1.327 . S
C301 C50 1.292 . S
C306 C82 1.326 . S
C331 C90 1.292 . S
C336 C122 1.326 . S
C361 C162 1.327 . S
C366 C130 1.292 . S
C391 C202 1.326 . S
C396 C170 1.292 . S
C421 C7 1.335 . S
C426 C16 1.335 . S
C451 C47 1.335 . S
C456 C56 1.335 . S
C481 C87 1.335 . S
C486 C96 1.335 . S
C511 C127 1.335 . S
C516 C136 1.335 . S
C541 C176 1.335 . S
C546 C167 1.335 . S
C571 C207 1.335 . S
C576 C216 1.335 . S
C601 C11 1.597 . S
C606 C179 1.607 . S
C631 C51 1.597 . S
C636 C219 1.607 . S
C661 C19 1.607 . S
C666 C91 1.596 . S
C691 C59 1.607 . S
C696 C131 1.596 . S
C721 C171 1.597 . S
C726 C99 1.608 . S
C751 C139 1.607 . S
C756 C211 1.596 . S
