# Generated by pormake.
# Topology uog, (4)-cn, num edge types: 1
# Building blocks:
#     Node 0, Type 0, BuildingBlock: GALJAG_clean_sbu_0, # of connection points: 4
#     Node 1, Type 0, BuildingBlock: GALJAG_clean_sbu_0, # of connection points: 4
#     Node 2, Type 0, BuildingBlock: GALJAG_clean_sbu_0, # of connection points: 4
#     Node 3, Type 0, BuildingBlock: GALJAG_clean_sbu_0, # of connection points: 4
#     Node 4, Type 0, BuildingBlock: GALJAG_clean_sbu_0, # of connection points: 4
#     Node 5, Type 0, BuildingBlock: GALJAG_clean_sbu_0, # of connection points: 4
#     Edge 6, Type (0, 0), BuildingBlock: UVAHIK_clean_linker_0, # of connection points: 2
#     Edge 7, Type (0, 0), BuildingBlock: UVAHIK_clean_linker_0, # of connection points: 2
#     Edge 8, Type (0, 0), BuildingBlock: UVAHIK_clean_linker_0, # of connection points: 2
#     Edge 9, Type (0, 0), BuildingBlock: UVAHIK_clean_linker_0, # of connection points: 2
#     Edge 10, Type (0, 0), BuildingBlock: UVAHIK_clean_linker_0, # of connection points: 2
#     Edge 11, Type (0, 0), BuildingBlock: UVAHIK_clean_linker_0, # of connection points: 2
#     Edge 12, Type (0, 0), BuildingBlock: UVAHIK_clean_linker_0, # of connection points: 2
#     Edge 13, Type (0, 0), BuildingBlock: UVAHIK_clean_linker_0, # of connection points: 2
#     Edge 14, Type (0, 0), BuildingBlock: UVAHIK_clean_linker_0, # of connection points: 2
#     Edge 15, Type (0, 0), BuildingBlock: UVAHIK_clean_linker_0, # of connection points: 2
#     Edge 16, Type (0, 0), BuildingBlock: UVAHIK_clean_linker_0, # of connection points: 2
#     Edge 17, Type (0, 0), BuildingBlock: UVAHIK_clean_linker_0, # of connection points: 2
# Relax obj value: 0.035
# Max RMSD: 0.144
# Mean RMSD: 0.144
data_MOF--net-uog--node1-GALJAG_clean_sbu_0--edge1-UVAHIK_clean_linker_0
_symmetry_space_group_name_H-M    P1
_symmetry_Int_Tables_number       1
_symmetry_cell_setting            triclinic
loop_
_symmetry_equiv_pos_as_xyz
'x, y, z'
_cell_length_a     37.484722
_cell_length_b     37.416925
_cell_length_c     55.262293
_cell_angle_alpha  90.038505
_cell_angle_beta   89.925794
_cell_angle_gamma 120.12518
loop_
_atom_site_label
_atom_site_type_symbol
_atom_site_fract_x
_atom_site_fract_y
_atom_site_fract_z
_atom_type_partial_charge
In0 In 0.59136 0.29949 0.15441 0.0
O1 O 0.5386 0.31383 0.15765 0.0
O2 O 0.60015 0.36161 0.16494 0.0
C3 C 0.55974 0.21868 0.14464 0.0
C4 C 0.62056 0.2978 0.19831 0.0
C5 C 0.62687 0.3306 0.11158 0.0
O6 O 0.53672 0.2335 0.14967 0.0
O7 O 0.5978 0.24478 0.14395 0.0
O8 O 0.64772 0.33165 0.12984 0.0
O9 O 0.58847 0.31377 0.11507 0.0
C10 C 0.56261 0.35127 0.1634 0.0
O11 O 0.64413 0.31995 0.18143 0.0
O12 O 0.58275 0.27736 0.193 0.0
In13 In 0.29946 0.58908 0.49999 0.0
O14 O 0.33363 0.64504 0.52464 0.0
O15 O 0.31359 0.58499 0.53917 0.0
C16 C 0.29678 0.61783 0.45614 0.0
C17 C 0.2194 0.55934 0.5105 0.0
C18 C 0.35058 0.56015 0.48985 0.0
O19 O 0.31915 0.6417 0.47287 0.0
O20 O 0.27657 0.58 0.46162 0.0
O21 O 0.31316 0.53599 0.49551 0.0
O22 O 0.3612 0.5979 0.48903 0.0
C23 C 0.33189 0.62352 0.54276 0.0
O24 O 0.23334 0.53543 0.50578 0.0
O25 O 0.24602 0.59733 0.51055 0.0
In26 In 0.70012 0.29187 0.82089 0.0
O27 O 0.6823 0.32561 0.84849 0.0
O28 O 0.72317 0.30434 0.8593 0.0
C29 C 0.669 0.29633 0.77823 0.0
C30 C 0.6463 0.21185 0.83017 0.0
C31 C 0.78028 0.34052 0.80978 0.0
O32 O 0.66838 0.3165 0.79648 0.0
O33 O 0.68533 0.27432 0.78167 0.0
O34 O 0.76529 0.30235 0.81425 0.0
O35 O 0.75467 0.35302 0.81047 0.0
C36 C 0.70416 0.32298 0.86506 0.0
O37 O 0.68375 0.22414 0.82517 0.0
O38 O 0.63701 0.23991 0.83082 0.0
In39 In 0.40399 0.70587 0.16416 0.0
O40 O 0.45823 0.69374 0.1676 0.0
O41 O 0.39674 0.64329 0.17115 0.0
C42 C 0.43229 0.78676 0.15642 0.0
C43 C 0.37252 0.70076 0.20838 0.0
C44 C 0.37052 0.67739 0.12061 0.0
O45 O 0.45677 0.77297 0.15931 0.0
O46 O 0.39452 0.75978 0.1572 0.0
O47 O 0.34861 0.67339 0.13898 0.0
O48 O 0.40892 0.69595 0.12434 0.0
C49 C 0.43475 0.65525 0.17087 0.0
O50 O 0.34991 0.68205 0.19039 0.0
O51 O 0.4107 0.72154 0.20395 0.0
In52 In 0.71081 0.41212 0.48767 0.0
O53 O 0.7781 0.46454 0.49189 0.0
O54 O 0.76321 0.40218 0.49781 0.0
C55 C 0.65956 0.44072 0.47757 0.0
C56 C 0.68035 0.38447 0.53184 0.0
C57 C 0.70779 0.37797 0.44466 0.0
O58 O 0.69751 0.46521 0.48188 0.0
O59 O 0.64867 0.40286 0.47776 0.0
O60 O 0.68838 0.3563 0.46286 0.0
O61 O 0.72832 0.41648 0.44833 0.0
C62 C 0.79082 0.4398 0.49711 0.0
O63 O 0.67784 0.3601 0.51514 0.0
O64 O 0.69862 0.42227 0.52619 0.0
In65 In 0.28782 0.7015 0.82934 0.0
O66 O 0.29882 0.76743 0.83342 0.0
O67 O 0.34775 0.7558 0.84155 0.0
C68 C 0.20926 0.64846 0.81678 0.0
C69 C 0.28539 0.6708 0.87338 0.0
C70 C 0.32422 0.70448 0.78716 0.0
O71 O 0.22114 0.6858 0.82205 0.0
O72 O 0.23711 0.63892 0.81742 0.0
O73 O 0.32348 0.68176 0.80437 0.0
O74 O 0.30622 0.72472 0.7913 0.0
C75 C 0.33609 0.78202 0.83985 0.0
O76 O 0.30885 0.67061 0.85692 0.0
O77 O 0.26371 0.68655 0.8675 0.0
C78 C 0.5025 0.14454 0.14466 0.0
C79 C 0.54443 0.17397 0.14173 0.0
C80 C 0.48929 0.10225 0.14411 0.0
C81 C 0.52262 0.02692 0.12675 0.0
H82 H 0.44158 0.9575 0.17456 0.0
C83 C 0.48775 0.86102 0.15069 0.0
C84 C 0.44586 0.83102 0.15311 0.0
C85 C 0.4997 0.90285 0.14805 0.0
C86 C 0.46399 0.97641 0.16097 0.0
H87 H 0.60521 0.18217 0.13526 0.0
H88 H 0.58245 0.10896 0.1347 0.0
H89 H 0.46119 0.03 0.17134 0.0
H90 H 0.38371 0.82126 0.15448 0.0
H91 H 0.40454 0.89378 0.14998 0.0
H92 H 0.52587 0.97322 0.11678 0.0
C93 C 0.55952 0.11818 0.13706 0.0
C94 C 0.47509 0.01796 0.15902 0.0
C95 C 0.57263 0.16029 0.13753 0.0
C96 C 0.41627 0.8436 0.1527 0.0
C97 C 0.42818 0.88522 0.15027 0.0
C98 C 0.5117 0.98538 0.12883 0.0
C99 C 0.51778 0.08856 0.14067 0.0
C100 C 0.5046 0.04381 0.14192 0.0
C101 C 0.47 0.91537 0.14802 0.0
C102 C 0.48225 0.95967 0.14595 0.0
H103 H 0.48005 0.15416 0.14789 0.0
H104 H 0.4568 0.08028 0.14657 0.0
H105 H 0.54503 0.04573 0.11314 0.0
H106 H 0.51122 0.85223 0.15095 0.0
H107 H 0.53221 0.92546 0.1465 0.0
C108 C 0.36886 0.50434 0.48524 0.0
C109 C 0.38078 0.54639 0.48549 0.0
C110 C 0.39839 0.49224 0.48198 0.0
C111 C 0.50709 0.53185 0.46171 0.0
H112 H 0.49712 0.44047 0.49994 0.0
C113 C 0.64 0.49598 0.47581 0.0
C114 C 0.62883 0.45414 0.47446 0.0
C115 C 0.60965 0.5074 0.47502 0.0
C116 C 0.50014 0.46584 0.48897 0.0
H117 H 0.43287 0.60872 0.48239 0.0
H118 H 0.48409 0.58784 0.47737 0.0
H119 H 0.44359 0.45905 0.50246 0.0
H120 H 0.57731 0.39165 0.47038 0.0
H121 H 0.5248 0.41157 0.46912 0.0
H122 H 0.56437 0.53913 0.44878 0.0
C123 C 0.45204 0.564 0.4791 0.0
C124 C 0.46933 0.47638 0.49032 0.0
C125 C 0.4226 0.57601 0.48217 0.0
C126 C 0.58699 0.42417 0.47159 0.0
C127 C 0.5568 0.4355 0.47101 0.0
C128 C 0.53813 0.52153 0.46056 0.0
C129 C 0.44044 0.52198 0.47906 0.0
C130 C 0.47241 0.50961 0.47676 0.0
C131 C 0.56767 0.47713 0.4731 0.0
C132 C 0.53495 0.4884 0.47418 0.0
H133 H 0.33683 0.48083 0.48768 0.0
H134 H 0.38821 0.45956 0.48171 0.0
H135 H 0.51023 0.55719 0.45069 0.0
H136 H 0.67199 0.51973 0.47804 0.0
H137 H 0.61888 0.53975 0.47675 0.0
C138 C 0.83847 0.41187 0.8024 0.0
C139 C 0.82468 0.36965 0.80563 0.0
C140 C 0.88045 0.44056 0.80046 0.0
C141 C 0.98239 0.45475 0.81634 0.0
H142 H 0.02207 0.5533 0.77689 0.0
C143 C 0.15507 0.57555 0.80851 0.0
C144 C 0.16584 0.61706 0.81171 0.0
C145 C 0.11396 0.54486 0.80544 0.0
C146 C 0.01136 0.52604 0.78809 0.0
H147 H 0.84408 0.32418 0.80854 0.0
H148 H 0.91778 0.37436 0.80461 0.0
H149 H 0.9497 0.49923 0.77467 0.0
H150 H 0.14202 0.65913 0.81352 0.0
H151 H 0.06978 0.60524 0.80792 0.0
H152 H 0.04418 0.48158 0.82964 0.0
C153 C 0.89602 0.38535 0.80405 0.0
C154 C 0.9699 0.49503 0.78686 0.0
C155 C 0.85381 0.35653 0.80613 0.0
C156 C 0.13465 0.62741 0.81108 0.0
C157 C 0.09337 0.59661 0.8078 0.0
C158 C 0.0239 0.48557 0.81739 0.0
C159 C 0.90988 0.42784 0.80152 0.0
C160 C 0.95472 0.4592 0.80122 0.0
C161 C 0.08259 0.55493 0.80533 0.0
C162 C 0.03874 0.52174 0.80348 0.0
H163 H 0.81685 0.42306 0.80199 0.0
H164 H 0.8898 0.47296 0.79894 0.0
H165 H 0.97178 0.42803 0.82798 0.0
H166 H 0.17837 0.56652 0.80883 0.0
H167 H 0.10669 0.51312 0.80326 0.0
C168 C 0.14502 0.50299 0.51207 0.0
C169 C 0.17502 0.54501 0.5137 0.0
C170 C 0.10299 0.49057 0.51283 0.0
C171 C 0.02984 0.52785 0.52793 0.0
H172 H 0.95824 0.4423 0.48291 0.0
C173 C 0.86548 0.49461 0.50189 0.0
C174 C 0.83468 0.45274 0.50118 0.0
C175 C 0.90694 0.50584 0.50504 0.0
C176 C 0.97778 0.46602 0.49572 0.0
H177 H 0.18457 0.60686 0.51808 0.0
H178 H 0.11187 0.58547 0.51887 0.0
H179 H 0.03021 0.46063 0.48632 0.0
H180 H 0.82311 0.38986 0.50346 0.0
H181 H 0.89502 0.40943 0.50873 0.0
H182 H 0.97729 0.53375 0.53681 0.0
C183 C 0.1204 0.56186 0.51744 0.0
C184 C 0.01902 0.47638 0.4978 0.0
C185 C 0.16222 0.57418 0.51682 0.0
C186 C 0.84608 0.42243 0.50387 0.0
C187 C 0.88733 0.43359 0.50677 0.0
C188 C 0.98863 0.51771 0.52568 0.0
C189 C 0.09016 0.51996 0.51511 0.0
C190 C 0.04567 0.5075 0.51389 0.0
C191 C 0.91827 0.47536 0.50723 0.0
C192 C 0.96218 0.48668 0.50955 0.0
H193 H 0.15396 0.47981 0.50972 0.0
H194 H 0.08057 0.45795 0.5114 0.0
H195 H 0.04924 0.55154 0.54078 0.0
H196 H 0.85759 0.51861 0.49987 0.0
H197 H 0.93022 0.5383 0.5052 0.0
C198 C 0.4072 0.84005 0.84783 0.0
C199 C 0.36549 0.82664 0.8432 0.0
C200 C 0.43636 0.88207 0.84877 0.0
C201 C 0.45338 0.98343 0.82804 0.0
H202 H 0.54913 0.02535 0.86989 0.0
C203 C 0.57292 0.15686 0.83567 0.0
C204 C 0.61467 0.168 0.83392 0.0
C205 C 0.54226 0.11557 0.8382 0.0
C206 C 0.52269 0.01398 0.858 0.0
H207 H 0.32134 0.84683 0.8368 0.0
H208 H 0.37222 0.92062 0.83911 0.0
H209 H 0.49459 0.95322 0.87312 0.0
H210 H 0.65711 0.14461 0.83392 0.0
H211 H 0.6032 0.07197 0.83869 0.0
H212 H 0.4814 0.04447 0.81319 0.0
C213 C 0.38254 0.89851 0.84146 0.0
C214 C 0.4914 0.97264 0.8598 0.0
C215 C 0.35329 0.85625 0.84033 0.0
C216 C 0.6252 0.13693 0.83521 0.0
C217 C 0.59441 0.09546 0.83803 0.0
C218 C 0.48444 0.02484 0.82644 0.0
C219 C 0.42459 0.91194 0.84533 0.0
C220 C 0.4565 0.95668 0.84467 0.0
C221 C 0.55259 0.08439 0.83929 0.0
C222 C 0.51956 0.04047 0.84127 0.0
H223 H 0.41769 0.81804 0.85004 0.0
H224 H 0.4684 0.89102 0.85138 0.0
H225 H 0.42746 0.97219 0.81577 0.0
H226 H 0.56375 0.18005 0.83476 0.0
H227 H 0.51038 0.10803 0.8394 0.0
C228 C 0.42087 0.58292 0.17393 0.0
C229 C 0.44961 0.62546 0.17302 0.0
C230 C 0.43395 0.55401 0.17475 0.0
C231 C 0.52379 0.54175 0.16086 0.0
H232 H 0.46137 0.43976 0.19699 0.0
C233 C 0.57844 0.4235 0.17095 0.0
C234 C 0.54893 0.38177 0.16691 0.0
C235 C 0.56658 0.45325 0.17302 0.0
C236 C 0.4789 0.46796 0.18667 0.0
H237 H 0.51472 0.67112 0.17277 0.0
H238 H 0.53783 0.62051 0.17478 0.0
H239 H 0.44165 0.49269 0.19911 0.0
H240 H 0.4837 0.33838 0.16237 0.0
H241 H 0.46279 0.39061 0.1662 0.0
H242 H 0.56126 0.51703 0.14864 0.0
C243 C 0.50504 0.60949 0.17438 0.0
C244 C 0.46762 0.49833 0.18785 0.0
C245 C 0.49187 0.63854 0.17339 0.0
C246 C 0.5071 0.37028 0.1655 0.0
C247 C 0.49516 0.40014 0.16777 0.0
C248 C 0.53526 0.51152 0.15986 0.0
C249 C 0.47618 0.5668 0.17488 0.0
C250 C 0.4897 0.5355 0.17478 0.0
C251 C 0.52489 0.44202 0.17127 0.0
C252 C 0.51279 0.47419 0.17263 0.0
H253 H 0.38804 0.57176 0.17354 0.0
H254 H 0.41079 0.52151 0.17466 0.0
H255 H 0.54108 0.56957 0.15022 0.0
H256 H 0.61094 0.43339 0.17218 0.0
H257 H 0.59013 0.48514 0.17604 0.0
C258 C 0.73856 0.34428 0.90516 0.0
C259 C 0.70667 0.33913 0.88967 0.0
C260 C 0.73924 0.35586 0.92921 0.0
C261 C 0.68991 0.39313 0.97346 0.0
H262 H 0.71303 0.32772 0.01837 0.0
C263 C 0.62117 0.34825 0.06888 0.0
C264 C 0.64527 0.34587 0.08755 0.0
C265 C 0.6368 0.35856 0.04543 0.0
C266 C 0.70734 0.34693 0.00615 0.0
H267 H 0.6515 0.34371 0.8867 0.0
H268 H 0.65164 0.36239 0.92904 0.0
H269 H 0.7252 0.32497 0.97549 0.0
H270 H 0.70527 0.35441 0.0967 0.0
H271 H 0.73256 0.37203 0.05546 0.0
H272 H 0.66985 0.41316 0.00432 0.0
C273 C 0.67672 0.35846 0.92254 0.0
C274 C 0.71435 0.34541 0.98149 0.0
C275 C 0.67641 0.34746 0.89833 0.0
C276 C 0.68599 0.35584 0.0826 0.0
C277 C 0.70154 0.36583 0.05904 0.0
C278 C 0.68258 0.39436 -0.00183 0.0
C279 C 0.70765 0.36184 0.9384 0.0
C280 C 0.70489 0.36778 0.96478 0.0
C281 C 0.67675 0.36641 0.04015 0.0
C282 C 0.69039 0.37054 0.01466 0.0
H283 H 0.76267 0.33868 0.8988 0.0
H284 H 0.76405 0.35914 0.94075 0.0
H285 H 0.683 0.41131 0.96112 0.0
H286 H 0.58973 0.34096 0.07222 0.0
H287 H 0.61682 0.35832 0.03121 0.0
C288 C 0.38207 0.7232 0.25146 0.0
C289 C 0.35605 0.69773 0.23297 0.0
C290 C 0.36772 0.71848 0.27519 0.0
C291 C 0.32417 0.71179 0.32294 0.0
H292 H 0.27516 0.59902 0.34597 0.0
C293 C 0.32704 0.67014 0.42298 0.0
C294 C 0.29515 0.63224 0.43163 0.0
C295 C 0.32756 0.68109 0.39874 0.0
C296 C 0.28786 0.6306 0.33987 0.0
H297 H 0.29422 0.64852 0.22451 0.0
H298 H 0.26919 0.63987 0.26623 0.0
H299 H 0.28759 0.61314 0.30302 0.0
H300 H 0.23723 0.57753 0.42252 0.0
H301 H 0.23733 0.59718 0.38055 0.0
H302 H 0.32517 0.72933 0.35992 0.0
C303 C 0.30068 0.66345 0.26229 0.0
C304 C 0.29504 0.63866 0.31519 0.0
C305 C 0.31495 0.66843 0.23846 0.0
C306 C 0.26255 0.60666 0.41615 0.0
C307 C 0.26272 0.61785 0.39209 0.0
C308 C 0.31665 0.7037 0.34767 0.0
C309 C 0.32716 0.688 0.28092 0.0
C310 C 0.31415 0.67938 0.30654 0.0
C311 C 0.29589 0.65453 0.38287 0.0
C312 C 0.29929 0.66308 0.35648 0.0
H313 H 0.41385 0.7462 0.24771 0.0
H314 H 0.38895 0.73749 0.28923 0.0
H315 H 0.3386 0.74346 0.31667 0.0
H316 H 0.35252 0.69038 0.4346 0.0
H317 H 0.35381 0.70938 0.39223 0.0
C318 C 0.64479 0.33097 0.74923 0.0
C319 C 0.65401 0.29969 0.75419 0.0
C320 C 0.63536 0.33688 0.72564 0.0
C321 C 0.60749 0.28981 0.66454 0.0
H322 H 0.67827 0.40222 0.64244 0.0
C323 C 0.65589 0.33177 0.56491 0.0
C324 C 0.66432 0.37057 0.55644 0.0
C325 C 0.64476 0.32079 0.58908 0.0
C326 C 0.65748 0.37083 0.64828 0.0
H327 H 0.65806 0.24845 0.73888 0.0
H328 H 0.64169 0.25879 0.6978 0.0
H329 H 0.67459 0.38673 0.68527 0.0
H330 H 0.66492 0.42712 0.56589 0.0
H331 H 0.64432 0.40755 0.60776 0.0
H332 H 0.59116 0.27378 0.62738 0.0
C333 C 0.6416 0.27867 0.71203 0.0
C334 C 0.65541 0.36198 0.6729 0.0
C335 C 0.65135 0.273 0.73552 0.0
C336 C 0.65923 0.39724 0.57209 0.0
C337 C 0.64758 0.38608 0.5961 0.0
C338 C 0.60931 0.29872 0.63986 0.0
C339 C 0.6346 0.31133 0.70673 0.0
C340 C 0.63122 0.32125 0.68122 0.0
C341 C 0.64139 0.34826 0.60509 0.0
C342 C 0.63513 0.33919 0.6314 0.0
H343 H 0.64646 0.35186 0.76334 0.0
H344 H 0.62977 0.36211 0.72204 0.0
H345 H 0.58827 0.25818 0.67054 0.0
H346 H 0.65958 0.31066 0.55316 0.0
H347 H 0.64066 0.29159 0.59544 0.0
C348 C 0.31722 0.65139 0.90683 0.0
C349 C 0.28457 0.65591 0.89813 0.0
C350 C 0.3186 0.64225 0.93121 0.0
C351 C 0.27986 0.6545 0.99004 0.0
H352 H 0.33316 0.59551 0.01383 0.0
C353 C 0.3116 0.64982 0.09143 0.0
C354 C 0.35306 0.66267 0.09636 0.0
C355 C 0.29636 0.63917 0.06787 0.0
C356 C 0.31802 0.61188 0.00741 0.0
H357 H 0.22627 0.65146 0.90744 0.0
H358 H 0.22794 0.63423 0.94972 0.0
H359 H 0.31811 0.5937 0.97068 0.0
H360 H 0.41055 0.67253 0.08091 0.0
H361 H 0.38397 0.65396 0.03988 0.0
H362 H 0.28055 0.67338 0.02663 0.0
C363 C 0.2532 0.63905 0.93804 0.0
C364 C 0.30957 0.61102 0.98273 0.0
C365 C 0.25213 0.64874 0.91379 0.0
C366 C 0.3785 0.66296 0.07759 0.0
C367 C 0.36319 0.65196 0.05414 0.0
C368 C 0.28799 0.65507 0.01469 0.0
C369 C 0.28706 0.63699 0.94723 0.0
C370 C 0.29131 0.63318 0.97368 0.0
C371 C 0.32223 0.64075 0.04895 0.0
C372 C 0.30807 0.63465 0.02352 0.0
H373 H 0.34262 0.65681 0.89509 0.0
H374 H 0.34537 0.64134 0.93769 0.0
H375 H 0.26644 0.67254 0.98372 0.0
H376 H 0.29131 0.64919 0.10561 0.0
H377 H 0.26458 0.63042 0.06434 0.0
C378 C 0.73091 0.38544 0.40178 0.0
C379 C 0.70524 0.36024 0.42049 0.0
C380 C 0.72597 0.37025 0.37824 0.0
C381 C 0.64484 0.29717 0.33916 0.0
H382 H 0.73396 0.32633 0.29348 0.0
C383 C 0.61001 0.26405 0.23847 0.0
C384 C 0.63532 0.29647 0.22277 0.0
C385 C 0.62175 0.26433 0.26242 0.0
C386 C 0.70875 0.31807 0.306 0.0
H387 H 0.65569 0.29882 0.4296 0.0
H388 H 0.64671 0.27228 0.38822 0.0
H389 H 0.74931 0.34002 0.3366 0.0
H390 H 0.6935 0.35368 0.2193 0.0
H391 H 0.71347 0.35519 0.26149 0.0
H392 H 0.60444 0.27733 0.30878 0.0
C393 C 0.67058 0.30383 0.39183 0.0
C394 C 0.71754 0.32572 0.33067 0.0
C395 C 0.67576 0.31895 0.41547 0.0
C396 C 0.67345 0.32834 0.2311 0.0
C397 C 0.68496 0.32898 0.25522 0.0
C398 C 0.6361 0.28984 0.31456 0.0
C399 C 0.69507 0.32964 0.37292 0.0
C400 C 0.68571 0.3161 0.3474 0.0
C401 C 0.65874 0.29745 0.27131 0.0
C402 C 0.668 0.30095 0.29761 0.0
H403 H 0.75407 0.41734 0.40517 0.0
H404 H 0.74499 0.391 0.364 0.0
H405 H 0.61975 0.29007 0.35158 0.0
H406 H 0.58071 0.23873 0.23236 0.0
H407 H 0.6013 0.23904 0.27412 0.0
C408 C 0.34797 0.67374 0.75523 0.0
C409 C 0.34301 0.70643 0.76346 0.0
C410 C 0.36034 0.67344 0.73137 0.0
C411 C 0.35546 0.71565 0.67226 0.0
H412 H 0.41325 0.65994 0.65034 0.0
C413 C 0.36193 0.68324 0.57153 0.0
C414 C 0.34819 0.64146 0.56675 0.0
C415 C 0.37321 0.6988 0.595 0.0
C416 C 0.39727 0.6758 0.65623 0.0
H417 H 0.35045 0.76609 0.75422 0.0
H418 H 0.3734 0.76636 0.71298 0.0
H419 H 0.41213 0.67404 0.69347 0.0
H420 H 0.33784 0.5838 0.58232 0.0
H421 H 0.35717 0.61081 0.6232 0.0
H422 H 0.33954 0.71638 0.63526 0.0
C423 C 0.36634 0.7402 0.72449 0.0
C424 C 0.39648 0.68372 0.6809 0.0
C425 C 0.35336 0.74014 0.74813 0.0
C426 C 0.34804 0.61609 0.58552 0.0
C427 C 0.35952 0.63166 0.6089 0.0
C428 C 0.35648 0.70799 0.64767 0.0
C429 C 0.36847 0.70615 0.71552 0.0
C430 C 0.37463 0.70278 0.68925 0.0
C431 C 0.37118 0.67287 0.61401 0.0
C432 C 0.37643 0.68701 0.63946 0.0
H433 H 0.34019 0.64742 0.76677 0.0
H434 H 0.3613 0.64655 0.72504 0.0
H435 H 0.33767 0.72969 0.67799 0.0
H436 H 0.36259 0.70353 0.55734 0.0
H437 H 0.38242 0.7308 0.59842 0.0
loop_
_geom_bond_atom_site_label_1
_geom_bond_atom_site_label_2
_geom_bond_distance
_geom_bond_site_symmetry_2
_ccdc_geom_bond_type
In0 O1 2.294 . S
In0 O2 2.326 . S
In0 O6 2.266 . S
In0 O7 2.326 . S
In0 O8 2.266 . S
In0 O9 2.326 . S
In0 O11 2.294 . S
In0 O12 2.326 . S
O1 In0 2.294 . S
O1 C10 1.240 . S
O2 In0 2.326 . S
O2 C10 1.252 . S
C3 O6 1.252 . S
C3 O7 1.260 . S
C4 O11 1.240 . S
C4 O12 1.252 . S
C5 O8 1.252 . S
C5 O9 1.260 . S
O6 In0 2.266 . S
O6 C3 1.252 . S
O7 In0 2.326 . S
O7 C3 1.260 . S
O8 In0 2.266 . S
O8 C5 1.252 . S
O9 In0 2.326 . S
O9 C5 1.260 . S
C10 O1 1.240 . S
C10 O2 1.252 . S
O11 In0 2.294 . S
O11 C4 1.240 . S
O12 In0 2.326 . S
O12 C4 1.252 . S
In13 O14 2.294 . S
In13 O15 2.326 . S
In13 O19 2.266 . S
In13 O20 2.326 . S
In13 O21 2.266 . S
In13 O22 2.326 . S
In13 O24 2.294 . S
In13 O25 2.326 . S
O14 In13 2.294 . S
O14 C23 1.240 . S
O15 In13 2.326 . S
O15 C23 1.252 . S
C16 O19 1.252 . S
C16 O20 1.260 . S
C17 O24 1.240 . S
C17 O25 1.252 . S
C18 O21 1.252 . S
C18 O22 1.260 . S
O19 In13 2.266 . S
O19 C16 1.252 . S
O20 In13 2.326 . S
O20 C16 1.260 . S
O21 In13 2.266 . S
O21 C18 1.252 . S
O22 In13 2.326 . S
O22 C18 1.260 . S
C23 O14 1.240 . S
C23 O15 1.252 . S
O24 In13 2.294 . S
O24 C17 1.240 . S
O25 In13 2.326 . S
O25 C17 1.252 . S
In26 O27 2.294 . S
In26 O28 2.326 . S
In26 O32 2.266 . S
In26 O33 2.326 . S
In26 O34 2.266 . S
In26 O35 2.326 . S
In26 O37 2.294 . S
In26 O38 2.326 . S
O27 In26 2.294 . S
O27 C36 1.240 . S
O28 In26 2.326 . S
O28 C36 1.252 . S
C29 O32 1.252 . S
C29 O33 1.260 . S
C30 O37 1.240 . S
C30 O38 1.252 . S
C31 O34 1.252 . S
C31 O35 1.260 . S
O32 In26 2.266 . S
O32 C29 1.252 . S
O33 In26 2.326 . S
O33 C29 1.260 . S
O34 In26 2.266 . S
O34 C31 1.252 . S
O35 In26 2.326 . S
O35 C31 1.260 . S
C36 O27 1.240 . S
C36 O28 1.252 . S
O37 In26 2.294 . S
O37 C30 1.240 . S
O38 In26 2.326 . S
O38 C30 1.252 . S
In39 O40 2.294 . S
In39 O41 2.326 . S
In39 O45 2.266 . S
In39 O46 2.326 . S
In39 O47 2.266 . S
In39 O48 2.326 . S
In39 O50 2.294 . S
In39 O51 2.326 . S
O40 In39 2.294 . S
O40 C49 1.240 . S
O41 In39 2.326 . S
O41 C49 1.252 . S
C42 O45 1.252 . S
C42 O46 1.260 . S
C43 O50 1.240 . S
C43 O51 1.252 . S
C44 O47 1.252 . S
C44 O48 1.260 . S
O45 In39 2.266 . S
O45 C42 1.252 . S
O46 In39 2.326 . S
O46 C42 1.260 . S
O47 In39 2.266 . S
O47 C44 1.252 . S
O48 In39 2.326 . S
O48 C44 1.260 . S
C49 O40 1.240 . S
C49 O41 1.252 . S
O50 In39 2.294 . S
O50 C43 1.240 . S
O51 In39 2.326 . S
O51 C43 1.252 . S
In52 O53 2.294 . S
In52 O54 2.326 . S
In52 O58 2.266 . S
In52 O59 2.326 . S
In52 O60 2.266 . S
In52 O61 2.326 . S
In52 O63 2.294 . S
In52 O64 2.326 . S
O53 In52 2.294 . S
O53 C62 1.240 . S
O54 In52 2.326 . S
O54 C62 1.252 . S
C55 O58 1.252 . S
C55 O59 1.260 . S
C56 O63 1.240 . S
C56 O64 1.252 . S
C57 O60 1.252 . S
C57 O61 1.260 . S
O58 In52 2.266 . S
O58 C55 1.252 . S
O59 In52 2.326 . S
O59 C55 1.260 . S
O60 In52 2.266 . S
O60 C57 1.252 . S
O61 In52 2.326 . S
O61 C57 1.260 . S
C62 O53 1.240 . S
C62 O54 1.252 . S
O63 In52 2.294 . S
O63 C56 1.240 . S
O64 In52 2.326 . S
O64 C56 1.252 . S
In65 O66 2.294 . S
In65 O67 2.326 . S
In65 O71 2.266 . S
In65 O72 2.326 . S
In65 O73 2.266 . S
In65 O74 2.326 . S
In65 O76 2.294 . S
In65 O77 2.326 . S
O66 In65 2.294 . S
O66 C75 1.240 . S
O67 In65 2.326 . S
O67 C75 1.252 . S
C68 O71 1.252 . S
C68 O72 1.260 . S
C69 O76 1.240 . S
C69 O77 1.252 . S
C70 O73 1.252 . S
C70 O74 1.260 . S
O71 In65 2.266 . S
O71 C68 1.252 . S
O72 In65 2.326 . S
O72 C68 1.260 . S
O73 In65 2.266 . S
O73 C70 1.252 . S
O74 In65 2.326 . S
O74 C70 1.260 . S
C75 O66 1.240 . S
C75 O67 1.252 . S
O76 In65 2.294 . S
O76 C69 1.240 . S
O77 In65 2.326 . S
O77 C69 1.252 . S
C78 C79 1.349 . S
C78 C80 1.327 . S
C78 H103 0.950 . S
C79 C78 1.349 . S
C79 C95 1.349 . S
C80 C78 1.327 . S
C80 C99 1.429 . S
C80 H104 0.950 . S
C81 C98 1.574 1_545 S
C81 C100 1.368 . S
C81 H105 0.949 . S
H82 C86 0.949 . S
C83 C84 1.349 . S
C83 C85 1.327 . S
C83 H106 0.950 . S
C84 C83 1.349 . S
C84 C96 1.349 . S
C85 C83 1.327 . S
C85 C101 1.429 . S
C85 H107 0.950 . S
C86 H82 0.949 . S
C86 C94 1.574 1_565 S
C86 C102 1.368 . S
H87 C95 0.950 . S
H88 C93 0.950 . S
H89 C94 0.949 . S
H90 C96 0.950 . S
H91 C97 0.950 . S
H92 C98 0.949 . S
C93 H88 0.950 . S
C93 C95 1.327 . S
C93 C99 1.429 . S
C94 C86 1.574 1_545 S
C94 H89 0.949 . S
C94 C100 1.368 . S
C95 C79 1.349 . S
C95 H87 0.950 . S
C95 C93 1.327 . S
C96 C84 1.349 . S
C96 H90 0.950 . S
C96 C97 1.327 . S
C97 H91 0.950 . S
C97 C96 1.327 . S
C97 C101 1.429 . S
C98 C81 1.574 1_565 S
C98 H92 0.949 . S
C98 C102 1.368 . S
C99 C80 1.429 . S
C99 C93 1.429 . S
C99 C100 1.523 . S
C100 C81 1.368 . S
C100 C94 1.368 . S
C100 C99 1.523 . S
C101 C85 1.429 . S
C101 C97 1.429 . S
C101 C102 1.523 . S
C102 C86 1.368 . S
C102 C98 1.368 . S
C102 C101 1.523 . S
H103 C78 0.950 . S
H104 C80 0.950 . S
H105 C81 0.949 . S
H106 C83 0.950 . S
H107 C85 0.950 . S
C108 C109 1.349 . S
C108 C110 1.327 . S
C108 H133 0.950 . S
C109 C108 1.349 . S
C109 C125 1.349 . S
C110 C108 1.327 . S
C110 C129 1.429 . S
C110 H134 0.950 . S
C111 C128 1.574 . S
C111 C130 1.368 . S
C111 H135 0.949 . S
H112 C116 0.949 . S
C113 C114 1.349 . S
C113 C115 1.327 . S
C113 H136 0.950 . S
C114 C113 1.349 . S
C114 C126 1.349 . S
C115 C113 1.327 . S
C115 C131 1.429 . S
C115 H137 0.950 . S
C116 H112 0.949 . S
C116 C124 1.574 . S
C116 C132 1.368 . S
H117 C125 0.950 . S
H118 C123 0.950 . S
H119 C124 0.949 . S
H120 C126 0.950 . S
H121 C127 0.950 . S
H122 C128 0.949 . S
C123 H118 0.950 . S
C123 C125 1.327 . S
C123 C129 1.429 . S
C124 C116 1.574 . S
C124 H119 0.949 . S
C124 C130 1.368 . S
C125 C109 1.349 . S
C125 H117 0.950 . S
C125 C123 1.327 . S
C126 C114 1.349 . S
C126 H120 0.950 . S
C126 C127 1.327 . S
C127 H121 0.950 . S
C127 C126 1.327 . S
C127 C131 1.429 . S
C128 C111 1.574 . S
C128 H122 0.949 . S
C128 C132 1.368 . S
C129 C110 1.429 . S
C129 C123 1.429 . S
C129 C130 1.523 . S
C130 C111 1.368 . S
C130 C124 1.368 . S
C130 C129 1.523 . S
C131 C115 1.429 . S
C131 C127 1.429 . S
C131 C132 1.523 . S
C132 C116 1.368 . S
C132 C128 1.368 . S
C132 C131 1.523 . S
H133 C108 0.950 . S
H134 C110 0.950 . S
H135 C111 0.949 . S
H136 C113 0.950 . S
H137 C115 0.950 . S
C138 C139 1.349 . S
C138 C140 1.327 . S
C138 H163 0.950 . S
C139 C138 1.349 . S
C139 C155 1.349 . S
C140 C138 1.327 . S
C140 C159 1.429 . S
C140 H164 0.950 . S
C141 C158 1.574 1_655 S
C141 C160 1.368 . S
C141 H165 0.949 . S
H142 C146 0.949 . S
C143 C144 1.349 . S
C143 C145 1.327 . S
C143 H166 0.950 . S
C144 C143 1.349 . S
C144 C156 1.349 . S
C145 C143 1.327 . S
C145 C161 1.429 . S
C145 H167 0.950 . S
C146 H142 0.949 . S
C146 C154 1.574 1_455 S
C146 C162 1.368 . S
H147 C155 0.950 . S
H148 C153 0.950 . S
H149 C154 0.949 . S
H150 C156 0.950 . S
H151 C157 0.950 . S
H152 C158 0.949 . S
C153 H148 0.950 . S
C153 C155 1.327 . S
C153 C159 1.429 . S
C154 C146 1.574 1_655 S
C154 H149 0.949 . S
C154 C160 1.368 . S
C155 C139 1.349 . S
C155 H147 0.950 . S
C155 C153 1.327 . S
C156 C144 1.349 . S
C156 H150 0.950 . S
C156 C157 1.327 . S
C157 H151 0.950 . S
C157 C156 1.327 . S
C157 C161 1.429 . S
C158 C141 1.574 1_455 S
C158 H152 0.949 . S
C158 C162 1.368 . S
C159 C140 1.429 . S
C159 C153 1.429 . S
C159 C160 1.523 . S
C160 C141 1.368 . S
C160 C154 1.368 . S
C160 C159 1.523 . S
C161 C145 1.429 . S
C161 C157 1.429 . S
C161 C162 1.523 . S
C162 C146 1.368 . S
C162 C158 1.368 . S
C162 C161 1.523 . S
H163 C138 0.950 . S
H164 C140 0.950 . S
H165 C141 0.949 . S
H166 C143 0.950 . S
H167 C145 0.950 . S
C168 C169 1.349 . S
C168 C170 1.327 . S
C168 H193 0.950 . S
C169 C168 1.349 . S
C169 C185 1.349 . S
C170 C168 1.327 . S
C170 C189 1.429 . S
C170 H194 0.950 . S
C171 C188 1.574 1_455 S
C171 C190 1.368 . S
C171 H195 0.949 . S
H172 C176 0.949 . S
C173 C174 1.349 . S
C173 C175 1.327 . S
C173 H196 0.950 . S
C174 C173 1.349 . S
C174 C186 1.349 . S
C175 C173 1.327 . S
C175 C191 1.429 . S
C175 H197 0.950 . S
C176 H172 0.949 . S
C176 C184 1.574 1_655 S
C176 C192 1.368 . S
H177 C185 0.950 . S
H178 C183 0.950 . S
H179 C184 0.949 . S
H180 C186 0.950 . S
H181 C187 0.950 . S
H182 C188 0.949 . S
C183 H178 0.950 . S
C183 C185 1.327 . S
C183 C189 1.429 . S
C184 C176 1.574 1_455 S
C184 H179 0.949 . S
C184 C190 1.368 . S
C185 C169 1.349 . S
C185 H177 0.950 . S
C185 C183 1.327 . S
C186 C174 1.349 . S
C186 H180 0.950 . S
C186 C187 1.327 . S
C187 H181 0.950 . S
C187 C186 1.327 . S
C187 C191 1.429 . S
C188 C171 1.574 1_655 S
C188 H182 0.949 . S
C188 C192 1.368 . S
C189 C170 1.429 . S
C189 C183 1.429 . S
C189 C190 1.523 . S
C190 C171 1.368 . S
C190 C184 1.368 . S
C190 C189 1.523 . S
C191 C175 1.429 . S
C191 C187 1.429 . S
C191 C192 1.523 . S
C192 C176 1.368 . S
C192 C188 1.368 . S
C192 C191 1.523 . S
H193 C168 0.950 . S
H194 C170 0.950 . S
H195 C171 0.949 . S
H196 C173 0.950 . S
H197 C175 0.950 . S
C198 C199 1.349 . S
C198 C200 1.327 . S
C198 H223 0.950 . S
C199 C198 1.349 . S
C199 C215 1.349 . S
C200 C198 1.327 . S
C200 C219 1.429 . S
C200 H224 0.950 . S
C201 C218 1.574 1_565 S
C201 C220 1.368 . S
C201 H225 0.949 . S
H202 C206 0.949 . S
C203 C204 1.349 . S
C203 C205 1.327 . S
C203 H226 0.950 . S
C204 C203 1.349 . S
C204 C216 1.349 . S
C205 C203 1.327 . S
C205 C221 1.429 . S
C205 H227 0.950 . S
C206 H202 0.949 . S
C206 C214 1.574 1_545 S
C206 C222 1.368 . S
H207 C215 0.950 . S
H208 C213 0.950 . S
H209 C214 0.949 . S
H210 C216 0.950 . S
H211 C217 0.950 . S
H212 C218 0.949 . S
C213 H208 0.950 . S
C213 C215 1.327 . S
C213 C219 1.429 . S
C214 C206 1.574 1_565 S
C214 H209 0.949 . S
C214 C220 1.368 . S
C215 C199 1.349 . S
C215 H207 0.950 . S
C215 C213 1.327 . S
C216 C204 1.349 . S
C216 H210 0.950 . S
C216 C217 1.327 . S
C217 H211 0.950 . S
C217 C216 1.327 . S
C217 C221 1.429 . S
C218 C201 1.574 1_545 S
C218 H212 0.949 . S
C218 C222 1.368 . S
C219 C200 1.429 . S
C219 C213 1.429 . S
C219 C220 1.523 . S
C220 C201 1.368 . S
C220 C214 1.368 . S
C220 C219 1.523 . S
C221 C205 1.429 . S
C221 C217 1.429 . S
C221 C222 1.523 . S
C222 C206 1.368 . S
C222 C218 1.368 . S
C222 C221 1.523 . S
H223 C198 0.950 . S
H224 C200 0.950 . S
H225 C201 0.949 . S
H226 C203 0.950 . S
H227 C205 0.950 . S
C228 C229 1.349 . S
C228 C230 1.327 . S
C228 H253 0.950 . S
C229 C228 1.349 . S
C229 C245 1.349 . S
C230 C228 1.327 . S
C230 C249 1.429 . S
C230 H254 0.950 . S
C231 C248 1.574 . S
C231 C250 1.368 . S
C231 H255 0.949 . S
H232 C236 0.949 . S
C233 C234 1.349 . S
C233 C235 1.327 . S
C233 H256 0.950 . S
C234 C233 1.349 . S
C234 C246 1.349 . S
C235 C233 1.327 . S
C235 C251 1.429 . S
C235 H257 0.950 . S
C236 H232 0.949 . S
C236 C244 1.574 . S
C236 C252 1.368 . S
H237 C245 0.950 . S
H238 C243 0.950 . S
H239 C244 0.949 . S
H240 C246 0.950 . S
H241 C247 0.950 . S
H242 C248 0.949 . S
C243 H238 0.950 . S
C243 C245 1.327 . S
C243 C249 1.429 . S
C244 C236 1.574 . S
C244 H239 0.949 . S
C244 C250 1.368 . S
C245 C229 1.349 . S
C245 H237 0.950 . S
C245 C243 1.327 . S
C246 C234 1.349 . S
C246 H240 0.950 . S
C246 C247 1.327 . S
C247 H241 0.950 . S
C247 C246 1.327 . S
C247 C251 1.429 . S
C248 C231 1.574 . S
C248 H242 0.949 . S
C248 C252 1.368 . S
C249 C230 1.429 . S
C249 C243 1.429 . S
C249 C250 1.523 . S
C250 C231 1.368 . S
C250 C244 1.368 . S
C250 C249 1.523 . S
C251 C235 1.429 . S
C251 C247 1.429 . S
C251 C252 1.523 . S
C252 C236 1.368 . S
C252 C248 1.368 . S
C252 C251 1.523 . S
H253 C228 0.950 . S
H254 C230 0.950 . S
H255 C231 0.949 . S
H256 C233 0.950 . S
H257 C235 0.950 . S
C258 C259 1.349 . S
C258 C260 1.327 . S
C258 H283 0.950 . S
C259 C258 1.349 . S
C259 C275 1.349 . S
C260 C258 1.327 . S
C260 C279 1.429 . S
C260 H284 0.950 . S
C261 C278 1.574 1_556 S
C261 C280 1.368 . S
C261 H285 0.949 . S
H262 C266 0.949 . S
C263 C264 1.349 . S
C263 C265 1.327 . S
C263 H286 0.950 . S
C264 C263 1.349 . S
C264 C276 1.349 . S
C265 C263 1.327 . S
C265 C281 1.429 . S
C265 H287 0.950 . S
C266 H262 0.949 . S
C266 C274 1.574 1_554 S
C266 C282 1.368 . S
H267 C275 0.950 . S
H268 C273 0.950 . S
H269 C274 0.949 . S
H270 C276 0.950 . S
H271 C277 0.950 . S
H272 C278 0.949 . S
C273 H268 0.950 . S
C273 C275 1.327 . S
C273 C279 1.429 . S
C274 C266 1.574 1_556 S
C274 H269 0.949 . S
C274 C280 1.368 . S
C275 C259 1.349 . S
C275 H267 0.950 . S
C275 C273 1.327 . S
C276 C264 1.349 . S
C276 H270 0.950 . S
C276 C277 1.327 . S
C277 H271 0.950 . S
C277 C276 1.327 . S
C277 C281 1.429 . S
C278 C261 1.574 1_554 S
C278 H272 0.949 . S
C278 C282 1.368 . S
C279 C260 1.429 . S
C279 C273 1.429 . S
C279 C280 1.523 . S
C280 C261 1.368 . S
C280 C274 1.368 . S
C280 C279 1.523 . S
C281 C265 1.429 . S
C281 C277 1.429 . S
C281 C282 1.523 . S
C282 C266 1.368 . S
C282 C278 1.368 . S
C282 C281 1.523 . S
H283 C258 0.950 . S
H284 C260 0.950 . S
H285 C261 0.949 . S
H286 C263 0.950 . S
H287 C265 0.950 . S
C288 C289 1.349 . S
C288 C290 1.327 . S
C288 H313 0.950 . S
C289 C288 1.349 . S
C289 C305 1.349 . S
C290 C288 1.327 . S
C290 C309 1.429 . S
C290 H314 0.950 . S
C291 C308 1.574 . S
C291 C310 1.368 . S
C291 H315 0.949 . S
H292 C296 0.949 . S
C293 C294 1.349 . S
C293 C295 1.327 . S
C293 H316 0.950 . S
C294 C293 1.349 . S
C294 C306 1.349 . S
C295 C293 1.327 . S
C295 C311 1.429 . S
C295 H317 0.950 . S
C296 H292 0.949 . S
C296 C304 1.574 . S
C296 C312 1.368 . S
H297 C305 0.950 . S
H298 C303 0.950 . S
H299 C304 0.949 . S
H300 C306 0.950 . S
H301 C307 0.950 . S
H302 C308 0.949 . S
C303 H298 0.950 . S
C303 C305 1.327 . S
C303 C309 1.429 . S
C304 C296 1.574 . S
C304 H299 0.949 . S
C304 C310 1.368 . S
C305 C289 1.349 . S
C305 H297 0.950 . S
C305 C303 1.327 . S
C306 C294 1.349 . S
C306 H300 0.950 . S
C306 C307 1.327 . S
C307 H301 0.950 . S
C307 C306 1.327 . S
C307 C311 1.429 . S
C308 C291 1.574 . S
C308 H302 0.949 . S
C308 C312 1.368 . S
C309 C290 1.429 . S
C309 C303 1.429 . S
C309 C310 1.523 . S
C310 C291 1.368 . S
C310 C304 1.368 . S
C310 C309 1.523 . S
C311 C295 1.429 . S
C311 C307 1.429 . S
C311 C312 1.523 . S
C312 C296 1.368 . S
C312 C308 1.368 . S
C312 C311 1.523 . S
H313 C288 0.950 . S
H314 C290 0.950 . S
H315 C291 0.949 . S
H316 C293 0.950 . S
H317 C295 0.950 . S
C318 C319 1.349 . S
C318 C320 1.327 . S
C318 H343 0.950 . S
C319 C318 1.349 . S
C319 C335 1.349 . S
C320 C318 1.327 . S
C320 C339 1.429 . S
C320 H344 0.950 . S
C321 C338 1.574 . S
C321 C340 1.368 . S
C321 H345 0.949 . S
H322 C326 0.949 . S
C323 C324 1.349 . S
C323 C325 1.327 . S
C323 H346 0.950 . S
C324 C323 1.349 . S
C324 C336 1.349 . S
C325 C323 1.327 . S
C325 C341 1.429 . S
C325 H347 0.950 . S
C326 H322 0.949 . S
C326 C334 1.574 . S
C326 C342 1.368 . S
H327 C335 0.950 . S
H328 C333 0.950 . S
H329 C334 0.949 . S
H330 C336 0.950 . S
H331 C337 0.950 . S
H332 C338 0.949 . S
C333 H328 0.950 . S
C333 C335 1.327 . S
C333 C339 1.429 . S
C334 C326 1.574 . S
C334 H329 0.949 . S
C334 C340 1.368 . S
C335 C319 1.349 . S
C335 H327 0.950 . S
C335 C333 1.327 . S
C336 C324 1.349 . S
C336 H330 0.950 . S
C336 C337 1.327 . S
C337 H331 0.950 . S
C337 C336 1.327 . S
C337 C341 1.429 . S
C338 C321 1.574 . S
C338 H332 0.949 . S
C338 C342 1.368 . S
C339 C320 1.429 . S
C339 C333 1.429 . S
C339 C340 1.523 . S
C340 C321 1.368 . S
C340 C334 1.368 . S
C340 C339 1.523 . S
C341 C325 1.429 . S
C341 C337 1.429 . S
C341 C342 1.523 . S
C342 C326 1.368 . S
C342 C338 1.368 . S
C342 C341 1.523 . S
H343 C318 0.950 . S
H344 C320 0.950 . S
H345 C321 0.949 . S
H346 C323 0.950 . S
H347 C325 0.950 . S
C348 C349 1.349 . S
C348 C350 1.327 . S
C348 H373 0.950 . S
C349 C348 1.349 . S
C349 C365 1.349 . S
C350 C348 1.327 . S
C350 C369 1.429 . S
C350 H374 0.950 . S
C351 C368 1.574 1_556 S
C351 C370 1.368 . S
C351 H375 0.949 . S
H352 C356 0.949 . S
C353 C354 1.349 . S
C353 C355 1.327 . S
C353 H376 0.950 . S
C354 C353 1.349 . S
C354 C366 1.349 . S
C355 C353 1.327 . S
C355 C371 1.429 . S
C355 H377 0.950 . S
C356 H352 0.949 . S
C356 C364 1.574 1_554 S
C356 C372 1.368 . S
H357 C365 0.950 . S
H358 C363 0.950 . S
H359 C364 0.949 . S
H360 C366 0.950 . S
H361 C367 0.950 . S
H362 C368 0.949 . S
C363 H358 0.950 . S
C363 C365 1.327 . S
C363 C369 1.429 . S
C364 C356 1.574 1_556 S
C364 H359 0.949 . S
C364 C370 1.368 . S
C365 C349 1.349 . S
C365 H357 0.950 . S
C365 C363 1.327 . S
C366 C354 1.349 . S
C366 H360 0.950 . S
C366 C367 1.327 . S
C367 H361 0.950 . S
C367 C366 1.327 . S
C367 C371 1.429 . S
C368 C351 1.574 1_554 S
C368 H362 0.949 . S
C368 C372 1.368 . S
C369 C350 1.429 . S
C369 C363 1.429 . S
C369 C370 1.523 . S
C370 C351 1.368 . S
C370 C364 1.368 . S
C370 C369 1.523 . S
C371 C355 1.429 . S
C371 C367 1.429 . S
C371 C372 1.523 . S
C372 C356 1.368 . S
C372 C368 1.368 . S
C372 C371 1.523 . S
H373 C348 0.950 . S
H374 C350 0.950 . S
H375 C351 0.949 . S
H376 C353 0.950 . S
H377 C355 0.950 . S
C378 C379 1.349 . S
C378 C380 1.327 . S
C378 H403 0.950 . S
C379 C378 1.349 . S
C379 C395 1.349 . S
C380 C378 1.327 . S
C380 C399 1.429 . S
C380 H404 0.950 . S
C381 C398 1.574 . S
C381 C400 1.368 . S
C381 H405 0.949 . S
H382 C386 0.949 . S
C383 C384 1.349 . S
C383 C385 1.327 . S
C383 H406 0.950 . S
C384 C383 1.349 . S
C384 C396 1.349 . S
C385 C383 1.327 . S
C385 C401 1.429 . S
C385 H407 0.950 . S
C386 H382 0.949 . S
C386 C394 1.574 . S
C386 C402 1.368 . S
H387 C395 0.950 . S
H388 C393 0.950 . S
H389 C394 0.949 . S
H390 C396 0.950 . S
H391 C397 0.950 . S
H392 C398 0.949 . S
C393 H388 0.950 . S
C393 C395 1.327 . S
C393 C399 1.429 . S
C394 C386 1.574 . S
C394 H389 0.949 . S
C394 C400 1.368 . S
C395 C379 1.349 . S
C395 H387 0.950 . S
C395 C393 1.327 . S
C396 C384 1.349 . S
C396 H390 0.950 . S
C396 C397 1.327 . S
C397 H391 0.950 . S
C397 C396 1.327 . S
C397 C401 1.429 . S
C398 C381 1.574 . S
C398 H392 0.949 . S
C398 C402 1.368 . S
C399 C380 1.429 . S
C399 C393 1.429 . S
C399 C400 1.523 . S
C400 C381 1.368 . S
C400 C394 1.368 . S
C400 C399 1.523 . S
C401 C385 1.429 . S
C401 C397 1.429 . S
C401 C402 1.523 . S
C402 C386 1.368 . S
C402 C398 1.368 . S
C402 C401 1.523 . S
H403 C378 0.950 . S
H404 C380 0.950 . S
H405 C381 0.949 . S
H406 C383 0.950 . S
H407 C385 0.950 . S
C408 C409 1.349 . S
C408 C410 1.327 . S
C408 H433 0.950 . S
C409 C408 1.349 . S
C409 C425 1.349 . S
C410 C408 1.327 . S
C410 C429 1.429 . S
C410 H434 0.950 . S
C411 C428 1.574 . S
C411 C430 1.368 . S
C411 H435 0.949 . S
H412 C416 0.949 . S
C413 C414 1.349 . S
C413 C415 1.327 . S
C413 H436 0.950 . S
C414 C413 1.349 . S
C414 C426 1.349 . S
C415 C413 1.327 . S
C415 C431 1.429 . S
C415 H437 0.950 . S
C416 H412 0.949 . S
C416 C424 1.574 . S
C416 C432 1.368 . S
H417 C425 0.950 . S
H418 C423 0.950 . S
H419 C424 0.949 . S
H420 C426 0.950 . S
H421 C427 0.950 . S
H422 C428 0.949 . S
C423 H418 0.950 . S
C423 C425 1.327 . S
C423 C429 1.429 . S
C424 C416 1.574 . S
C424 H419 0.949 . S
C424 C430 1.368 . S
C425 C409 1.349 . S
C425 H417 0.950 . S
C425 C423 1.327 . S
C426 C414 1.349 . S
C426 H420 0.950 . S
C426 C427 1.327 . S
C427 H421 0.950 . S
C427 C426 1.327 . S
C427 C431 1.429 . S
C428 C411 1.574 . S
C428 H422 0.949 . S
C428 C432 1.368 . S
C429 C410 1.429 . S
C429 C423 1.429 . S
C429 C430 1.523 . S
C430 C411 1.368 . S
C430 C424 1.368 . S
C430 C429 1.523 . S
C431 C415 1.429 . S
C431 C427 1.429 . S
C431 C432 1.523 . S
C432 C416 1.368 . S
C432 C428 1.368 . S
C432 C431 1.523 . S
H433 C408 0.950 . S
H434 C410 0.950 . S
H435 C411 0.949 . S
H436 C413 0.950 . S
H437 C415 0.950 . S
C79 C3 1.367 . S
C84 C42 1.367 . S
C109 C18 1.367 . S
C114 C55 1.367 . S
C139 C31 1.367 . S
C144 C68 1.367 . S
C169 C17 1.342 . S
C174 C62 1.342 . S
C199 C75 1.342 . S
C204 C30 1.342 . S
C229 C49 1.342 . S
C234 C10 1.342 . S
C259 C36 1.287 . S
C264 C5 1.286 . S
C289 C43 1.287 . S
C294 C16 1.286 . S
C319 C29 1.286 . S
C324 C56 1.287 . S
C349 C69 1.287 . S
C354 C44 1.286 . S
C379 C57 1.286 . S
C384 C4 1.287 . S
C409 C70 1.286 . S
C414 C23 1.287 . S
