# Generated by pormake.
# Topology smu, (6)-cn, num edge types: 1
# Building blocks:
#     Node 0, Type 0, BuildingBlock: UKALOJ_clean_sbu_0, # of connection points: 6
#     Node 1, Type 0, BuildingBlock: UKALOJ_clean_sbu_0, # of connection points: 6
#     Node 2, Type 0, BuildingBlock: UKALOJ_clean_sbu_0, # of connection points: 6
#     Node 3, Type 0, BuildingBlock: UKALOJ_clean_sbu_0, # of connection points: 6
#     Node 4, Type 0, BuildingBlock: UKALOJ_clean_sbu_0, # of connection points: 6
#     Node 5, Type 0, BuildingBlock: UKALOJ_clean_sbu_0, # of connection points: 6
#     Edge 6, Type (0, 0), BuildingBlock: CIFDUS_clean_linker_0, # of connection points: 2
#     Edge 7, Type (0, 0), BuildingBlock: CIFDUS_clean_linker_0, # of connection points: 2
#     Edge 8, Type (0, 0), BuildingBlock: CIFDUS_clean_linker_0, # of connection points: 2
#     Edge 9, Type (0, 0), BuildingBlock: CIFDUS_clean_linker_0, # of connection points: 2
#     Edge 10, Type (0, 0), BuildingBlock: CIFDUS_clean_linker_0, # of connection points: 2
#     Edge 11, Type (0, 0), BuildingBlock: CIFDUS_clean_linker_0, # of connection points: 2
#     Edge 12, Type (0, 0), BuildingBlock: CIFDUS_clean_linker_0, # of connection points: 2
#     Edge 13, Type (0, 0), BuildingBlock: CIFDUS_clean_linker_0, # of connection points: 2
#     Edge 14, Type (0, 0), BuildingBlock: CIFDUS_clean_linker_0, # of connection points: 2
#     Edge 15, Type (0, 0), BuildingBlock: CIFDUS_clean_linker_0, # of connection points: 2
#     Edge 16, Type (0, 0), BuildingBlock: CIFDUS_clean_linker_0, # of connection points: 2
#     Edge 17, Type (0, 0), BuildingBlock: CIFDUS_clean_linker_0, # of connection points: 2
#     Edge 18, Type (0, 0), BuildingBlock: CIFDUS_clean_linker_0, # of connection points: 2
#     Edge 19, Type (0, 0), BuildingBlock: CIFDUS_clean_linker_0, # of connection points: 2
#     Edge 20, Type (0, 0), BuildingBlock: CIFDUS_clean_linker_0, # of connection points: 2
#     Edge 21, Type (0, 0), BuildingBlock: CIFDUS_clean_linker_0, # of connection points: 2
#     Edge 22, Type (0, 0), BuildingBlock: CIFDUS_clean_linker_0, # of connection points: 2
#     Edge 23, Type (0, 0), BuildingBlock: CIFDUS_clean_linker_0, # of connection points: 2
# Relax obj value: 0.172
# Max RMSD: 0.226
# Mean RMSD: 0.226
data_MOF--net-smu--node1-UKALOJ_clean_sbu_0--edge1-CIFDUS_clean_linker_0
_symmetry_space_group_name_H-M    P1
_symmetry_Int_Tables_number       1
_symmetry_cell_setting            triclinic
loop_
_symmetry_equiv_pos_as_xyz
'x, y, z'
_cell_length_a     24.300525
_cell_length_b     24.128918
_cell_length_c     36.111233
_cell_angle_alpha  90.205742
_cell_angle_beta   89.634555
_cell_angle_gamma 119.82161
loop_
_atom_site_label
_atom_site_type_symbol
_atom_site_fract_x
_atom_site_fract_y
_atom_site_fract_z
_atom_type_partial_charge
Zn0 Zn 0.31928 0.06469 0.31137 0.0
O1 O 0.24918 0.08917 0.31765 0.0
C2 C 0.22172 0.93728 0.29066 0.0
Zn3 Zn 0.30972 0.05797 0.2498 0.0
C4 C 0.22617 0.0989 0.28857 0.0
O5 O 0.2417 0.08746 0.25694 0.0
C6 C 0.41111 0.03537 0.27234 0.0
O7 O 0.37687 0.15312 0.24087 0.0
O8 O 0.38459 0.16318 0.30156 0.0
N9 N 0.28748 0.04155 0.19476 0.0
C10 C 0.32139 0.05739 0.16294 0.0
C11 C 0.22503 0.99243 0.14908 0.0
N12 N 0.22769 0.0015 0.18593 0.0
N13 N 0.28317 0.02677 0.13394 0.0
C14 C 0.30281 0.04743 0.39761 0.0
C15 C 0.39612 0.11195 0.41657 0.0
N16 N 0.33865 0.07662 0.36741 0.0
N17 N 0.39654 0.11683 0.37937 0.0
N18 N 0.33793 0.06836 0.42877 0.0
H19 H 0.20984 0.00446 0.42264 0.0
H20 H 0.22527 0.95203 0.3945 0.0
H21 H 0.21058 0.01041 0.37272 0.0
C22 C 0.23296 0.0012 0.39676 0.0
C23 C 0.39185 0.10007 0.16058 0.0
H24 H 0.41478 0.10297 0.18744 0.0
H25 H 0.40237 0.14891 0.15301 0.0
H26 H 0.41221 0.08286 0.13882 0.0
O27 O 0.38003 0.03255 0.2436 0.0
O28 O 0.39254 0.04374 0.3038 0.0
C29 C 0.3993 0.18812 0.26938 0.0
O30 O 0.25112 0.96751 0.31947 0.0
O31 O 0.24051 0.9637 0.25932 0.0
Zn32 Zn 0.71835 0.66341 0.25124 0.0
O33 O 0.74679 0.5972 0.23861 0.0
C34 C 0.60029 0.5626 0.28273 0.0
Zn35 Zn 0.72847 0.6563 0.31247 0.0
C36 C 0.76309 0.57451 0.26537 0.0
O37 O 0.75724 0.58885 0.29863 0.0
C38 C 0.69386 0.75331 0.29697 0.0
O39 O 0.82403 0.72553 0.31155 0.0
O40 O 0.81513 0.73423 0.25157 0.0
N41 N 0.73196 0.64034 0.36831 0.0
C42 C 0.74377 0.67878 0.398 0.0
C43 C 0.7131 0.58521 0.4185 0.0
N44 N 0.71333 0.58229 0.38119 0.0
N45 N 0.73157 0.64522 0.42981 0.0
C46 C 0.69721 0.649 0.1643 0.0
C47 C 0.71554 0.74266 0.15094 0.0
N48 N 0.71268 0.6829 0.19616 0.0
N49 N 0.72406 0.74099 0.18759 0.0
N50 N 0.69853 0.68555 0.13548 0.0
H51 H 0.72058 0.57522 0.15752 0.0
H52 H 0.64464 0.55627 0.13867 0.0
H53 H 0.65497 0.55506 0.18828 0.0
C54 C 0.67774 0.57968 0.16203 0.0
C55 C 0.7701 0.74954 0.39596 0.0
H56 H 0.79859 0.76952 0.3704 0.0
H57 H 0.80003 0.77344 0.42047 0.0
H58 H 0.73037 0.75965 0.39587 0.0
O59 O 0.70355 0.72677 0.32444 0.0
O60 O 0.69286 0.73185 0.26472 0.0
C61 C 0.84937 0.74919 0.28045 0.0
O62 O 0.62359 0.59003 0.25198 0.0
O63 O 0.63281 0.58369 0.31211 0.0
Zn64 Zn 0.91213 0.25749 0.30092 0.0
O65 O 0.87849 0.15823 0.30704 0.0
C66 C 0.03301 0.27939 0.27106 0.0
Zn67 Zn 0.90867 0.2524 0.23923 0.0
C68 C 0.86825 0.1272 0.27692 0.0
O69 O 0.88097 0.15673 0.2463 0.0
C70 C 0.94257 0.38025 0.26296 0.0
O71 O 0.81103 0.22488 0.23833 0.0
O72 O 0.81846 0.2362 0.29891 0.0
N73 N 0.91282 0.24007 0.18323 0.0
C74 C 0.90921 0.26935 0.15229 0.0
C75 C 0.93972 0.20391 0.13579 0.0
N76 N 0.93143 0.19927 0.17271 0.0
N77 N 0.9262 0.24758 0.1223 0.0
C78 C 0.94574 0.26496 0.38504 0.0
C79 C 0.89231 0.3049 0.40813 0.0
N80 N 0.91199 0.27051 0.35724 0.0
N81 N 0.87852 0.29497 0.37177 0.0
N82 N 0.93479 0.28686 0.41712 0.0
H83 H 0.97026 0.20022 0.35834 0.0
H84 H -0.01258 0.21182 0.40739 0.0
H85 H 0.03617 0.27388 0.37521 0.0
C86 C -0.01297 0.23557 0.38121 0.0
C87 C 0.89278 0.32137 0.15181 0.0
H88 H 0.87459 0.32462 0.12427 0.0
H89 H 0.93606 0.36762 0.15774 0.0
H90 H 0.85678 0.31254 0.1735 0.0
O91 O 0.93326 0.34805 0.23343 0.0
O92 O 0.94162 0.35504 0.29399 0.0
C93 C 0.78528 0.22151 0.26971 0.0
O94 O 0.00562 0.27638 0.30162 0.0
O95 O 0.00471 0.27599 0.24101 0.0
Zn96 Zn 0.06568 0.32351 0.8011 0.0
O97 O 0.15884 0.3913 0.80806 0.0
C98 C 0.03789 0.42379 0.78027 0.0
Zn99 Zn 0.06822 0.33399 0.73963 0.0
C100 C 0.1926 0.41537 0.77931 0.0
O101 O 0.16713 0.40126 0.74731 0.0
C102 C 0.94337 0.23454 0.76348 0.0
O103 O 0.09285 0.26451 0.73098 0.0
O104 O 0.09636 0.2554 0.79137 0.0
N105 N 0.07502 0.35283 0.68377 0.0
C106 C 0.04222 0.31521 0.65503 0.0
C107 C 0.09953 0.40926 0.63375 0.0
N108 N 0.11101 0.4112 0.67039 0.0
N109 N 0.05624 0.34952 0.62352 0.0
C110 C 0.05972 0.33358 0.88771 0.0
C111 C 0.01473 0.23494 0.90223 0.0
N112 N 0.05361 0.30053 0.85628 0.0
N113 N 0.02604 0.23937 0.86553 0.0
N114 N 0.03525 0.29334 0.91676 0.0
H115 H 0.12006 0.42874 0.86699 0.0
H116 H 0.10691 0.42355 0.91666 0.0
H117 H 0.04493 0.41354 0.88582 0.0
C118 C 0.08485 0.4041 0.8894 0.0
C119 C -0.002 0.24455 0.65729 0.0
H120 H 0.0109 0.22304 0.68027 0.0
H121 H -0.00136 0.22118 0.63088 0.0
H122 H 0.9491 0.23543 0.66189 0.0
O123 O 0.97123 0.26434 0.73414 0.0
O124 O 0.97198 0.25308 0.79409 0.0
C125 C 0.10475 0.24047 0.75878 0.0
O126 O 0.03994 0.39444 0.80894 0.0
O127 O 0.0456 0.40593 0.7485 0.0
Zn128 Zn 0.25556 0.93086 0.80444 0.0
O129 O 0.22403 0.83495 0.81617 0.0
C130 C 0.37427 0.94705 0.77585 0.0
Zn131 Zn 0.24819 0.91505 0.74315 0.0
C132 C 0.20959 0.79687 0.7889 0.0
O133 O 0.21795 0.81824 0.75588 0.0
C134 C 0.28506 0.04737 0.76035 0.0
O135 O 0.15291 0.88949 0.74169 0.0
O136 O 0.15981 0.90746 0.80167 0.0
N137 N 0.24883 0.89726 0.6871 0.0
C138 C 0.24059 0.92514 0.65687 0.0
C139 C 0.26787 0.85869 0.63771 0.0
N140 N 0.26548 0.85576 0.67501 0.0
N141 N 0.25289 0.90225 0.62555 0.0
C142 C 0.27113 0.93646 0.89143 0.0
C143 C 0.25132 0.01138 0.90356 0.0
N144 N 0.25703 0.95438 0.85912 0.0
N145 N 0.24458 0.00072 0.8669 0.0
N146 N 0.26816 0.97189 0.91971 0.0
H147 H 0.24763 0.83959 0.89952 0.0
H148 H 0.32317 0.89741 0.91848 0.0
H149 H 0.31372 0.88382 0.86889 0.0
C150 C 0.29056 0.88676 0.89477 0.0
C151 C 0.217 0.97183 0.65796 0.0
H152 H 0.18509 0.9622 0.68209 0.0
H153 H 0.1911 0.96903 0.63219 0.0
H154 H 0.25801 0.02091 0.66042 0.0
O155 O 0.27424 0.01099 0.73261 0.0
O156 O 0.28481 0.02632 0.79244 0.0
C157 C 0.1267 0.8888 0.77235 0.0
O158 O 0.34932 0.94999 0.80629 0.0
O159 O 0.34373 0.93754 0.74584 0.0
Zn160 Zn 0.65797 0.73741 0.7416 0.0
O161 O 0.72637 0.8342 0.74258 0.0
C162 C 0.75413 0.7044 0.75998 0.0
Zn163 Zn 0.66186 0.72806 0.80315 0.0
C164 C 0.74822 0.85961 0.77388 0.0
O165 O 0.73158 0.82518 0.80289 0.0
C166 C 0.5645 0.60852 0.77109 0.0
O167 O 0.59458 0.75627 0.8137 0.0
O168 O 0.58974 0.76513 0.75325 0.0
N169 N 0.67881 0.72307 0.85869 0.0
C170 C 0.64403 0.70654 0.89024 0.0
C171 C 0.73739 0.72755 0.90462 0.0
N172 N 0.73671 0.73619 0.86792 0.0
N173 N 0.67983 0.70876 0.91949 0.0
C174 C 0.68217 0.74953 0.65589 0.0
C175 C 0.5904 0.72284 0.63522 0.0
N176 N 0.64426 0.74028 0.68549 0.0
N177 N 0.58738 0.72408 0.67248 0.0
N178 N 0.6493 0.73817 0.62404 0.0
H179 H 0.77254 0.8035 0.6829 0.0
H180 H 0.77661 0.80065 0.63292 0.0
H181 H 0.75949 0.73149 0.65999 0.0
C182 C 0.75187 0.77301 0.6581 0.0
C183 C 0.57478 0.68533 0.8918 0.0
H184 H 0.55176 0.66347 0.86514 0.0
H185 H 0.56901 0.72758 0.89678 0.0
H186 H 0.55114 0.65072 0.91467 0.0
O187 O 0.58977 0.63241 0.80213 0.0
O188 O 0.58689 0.6411 0.74171 0.0
C189 C 0.57331 0.77162 0.78583 0.0
O190 O 0.72858 0.71316 0.7318 0.0
O191 O 0.73128 0.70325 0.7918 0.0
H192 H 0.33342 0.0723 0.96387 0.0
H193 H 0.22087 0.86708 0.96333 0.0
H194 H 0.22106 0.86575 0.03117 0.0
H195 H 0.24327 0.92437 0.09037 0.0
H196 H 0.35324 0.12977 0.09072 0.0
H197 H 0.36486 0.13024 1.02326 0.0
C198 C 0.31008 0.02736 0.97877 0.0
C199 C 0.27756 0.96985 0.95883 0.0
C200 C 0.3096 0.02728 1.01763 0.0
C201 C 0.24721 0.91173 0.97814 0.0
C202 C 0.24672 0.91112 1.01688 0.0
C203 C 0.27059 0.96901 0.07555 0.0
C204 C 0.2977 0.02695 0.09528 0.0
C205 C 0.27629 0.96871 0.03685 0.0
C206 C 0.33303 0.08469 0.0761 0.0
C207 C 0.33908 0.08489 0.03756 0.0
H208 H 0.71495 0.68131 0.60086 0.0
H209 H 0.62062 0.78139 0.56288 0.0
H210 H 0.64114 0.76473 0.49842 0.0
H211 H 0.67955 0.7152 0.45318 0.0
H212 H 0.77275 0.61391 0.4909 0.0
H213 H 0.75937 0.63747 0.5554 0.0
C214 C 0.70072 0.70118 0.5785 0.0
C215 C 0.66758 0.73386 0.58656 0.0
C216 C 0.71202 0.69062 0.54158 0.0
C217 C 0.64673 0.75671 0.55723 0.0
C218 C 0.65836 0.74706 0.52047 0.0
C219 C 0.69879 0.70017 0.47544 0.0
C220 C 0.7286 0.66427 0.46732 0.0
C221 C 0.69029 0.7134 0.51231 0.0
C222 C 0.75031 0.64218 0.4966 0.0
C223 C 0.74258 0.6556 0.53338 0.0
H224 H 0.03763 0.31707 0.08857 0.0
H225 H 0.8361 0.22063 0.07164 0.0
H226 H 0.85246 0.23288 1.00427 0.0
H227 H 0.92473 0.25785 0.95049 0.0
H228 H 0.1263 0.35391 0.96747 0.0
H229 H 0.1104 0.35623 0.03461 0.0
C230 C -0.00231 0.30073 0.06993 0.0
C231 C 0.93584 0.26846 0.08453 0.0
C232 C 0.00778 0.30732 0.03147 0.0
C233 C 0.88394 0.24633 0.06064 0.0
C234 C 0.8934 0.25282 1.02228 0.0
C235 C 0.9649 0.28064 0.96904 0.0
C236 C 0.02653 0.30585 0.95456 0.0
C237 C 0.95507 0.28126 1.00739 0.0
C238 C 0.07867 0.33495 0.97837 0.0
C239 C 0.06944 0.33579 1.0166 0.0
H240 H 0.27099 0.94699 0.45367 0.0
H241 H 0.3706 0.14335 0.4891 0.0
H242 H 0.34999 0.10947 0.55402 0.0
H243 H 0.30846 0.02356 0.60059 0.0
H244 H 0.21042 0.82713 0.56528 0.0
H245 H 0.22501 0.86104 0.50032 0.0
C246 C 0.28659 0.98228 0.47558 0.0
C247 C 0.3211 0.04768 0.46664 0.0
C248 C 0.27511 0.96228 0.5128 0.0
C249 C 0.34352 0.09284 0.49541 0.0
C250 C 0.33176 0.07346 0.53245 0.0
C251 C 0.28875 0.98829 0.5787 0.0
C252 C 0.25709 0.92288 0.58768 0.0
C253 C 0.29809 0.00828 0.5415 0.0
C254 C 0.23436 0.87767 0.55894 0.0
C255 C 0.24279 0.89708 0.52187 0.0
H256 H 0.71633 0.6463 0.96524 0.0
H257 H 0.61372 0.74907 0.96159 0.0
H258 H 0.60447 0.74467 0.02921 0.0
H259 H 0.63591 0.72162 0.08963 0.0
H260 H 0.74226 0.62262 0.09314 0.0
H261 H 0.73933 0.61468 0.02554 0.0
C262 C 0.69096 0.66665 0.97934 0.0
C263 C 0.66516 0.69738 0.95845 0.0
C264 C 0.68695 0.66487 1.01823 0.0
C265 C 0.63265 0.72389 0.97691 0.0
C266 C 0.62808 0.72204 1.01563 0.0
C267 C 0.6574 0.69734 0.0755 0.0
C268 C 0.68861 0.67206 0.09637 0.0
C269 C 0.65641 0.69404 0.03658 0.0
C270 C 0.71664 0.64101 0.07784 0.0
C271 C 0.7156 0.63719 0.03914 0.0
H272 H 0.88004 0.26068 0.48404 0.0
H273 H 0.06095 0.34155 0.42862 0.0
H274 H 0.11536 0.36681 0.48822 0.0
H275 H 0.11142 0.36943 0.55667 0.0
H276 H 0.93042 0.29024 0.61182 0.0
H277 H 0.8759 0.2608 0.55225 0.0
C278 C 0.9313 0.28326 0.48524 0.0
C279 C 0.96639 0.29787 0.45216 0.0
C280 C 0.96215 0.29813 0.51962 0.0
C281 C 0.03287 0.32786 0.45376 0.0
C282 C 0.06401 0.34303 0.48783 0.0
C283 C 0.06008 0.34538 0.55538 0.0
C284 C 0.02477 0.3308 0.58836 0.0
C285 C 0.02917 0.32877 0.52096 0.0
C286 C 0.9583 0.30017 0.58671 0.0
C287 C 0.92721 0.28389 0.55268 0.0
H288 H 0.50322 0.09356 0.32259 0.0
H289 H 0.46892 0.01609 0.21181 0.0
H290 H 0.58357 0.06954 0.2002 0.0
H291 H 0.69324 0.14549 0.22048 0.0
H292 H 0.72239 0.2296 0.32953 0.0
H293 H 0.60938 0.16823 0.34221 0.0
C294 C 0.52048 0.08688 0.29611 0.0
C295 C 0.47755 0.05048 0.2682 0.0
C296 C 0.5855 0.12098 0.28885 0.0
C297 C 0.5011 0.04331 0.23392 0.0
C298 C 0.56653 0.07472 0.22708 0.0
C299 C 0.67458 0.15107 0.24672 0.0
C300 C 0.7161 0.19221 0.27395 0.0
C301 C 0.60909 0.11538 0.25399 0.0
C302 C 0.69144 0.19837 0.30805 0.0
C303 C 0.62689 0.16285 0.31552 0.0
H304 H 0.55815 0.47837 0.22621 0.0
H305 H 0.52284 0.49973 0.34119 0.0
H306 H 0.4563 0.38391 0.3471 0.0
H307 H 0.41903 0.2769 0.3215 0.0
H308 H 0.45877 0.25581 0.20723 0.0
H309 H 0.51443 0.3717 0.19938 0.0
C310 C 0.53433 0.45791 0.25227 0.0
C311 C 0.54536 0.49746 0.28325 0.0
C312 C 0.49898 0.39138 0.25592 0.0
C313 C 0.51478 0.47014 0.31694 0.0
C314 C 0.47754 0.40396 0.32045 0.0
C315 C 0.44027 0.29769 0.29495 0.0
C316 C 0.43593 0.25804 0.26519 0.0
C317 C 0.47154 0.36414 0.29054 0.0
C318 C 0.46227 0.28549 0.23069 0.0
C319 C 0.49363 0.35164 0.22611 0.0
H320 H 0.88546 0.41289 0.21028 0.0
H321 H 0.97644 0.47092 0.31677 0.0
H322 H 0.92821 0.53768 0.32673 0.0
H323 H 0.84895 0.56715 0.30894 0.0
H324 H 0.75484 0.50578 0.20351 0.0
H325 H 0.81438 0.45089 0.18975 0.0
C326 C 0.89651 0.44172 0.23514 0.0
C327 C 0.93407 0.43658 0.26289 0.0
C328 C 0.86603 0.4772 0.24149 0.0
C329 C 0.94762 0.4741 0.29501 0.0
C330 C 0.91928 0.51144 0.30097 0.0
C331 C 0.84113 0.54131 0.28308 0.0
C332 C 0.79648 0.53893 0.25766 0.0
C333 C 0.87608 0.51082 0.27519 0.0
C334 C 0.78825 0.50719 0.22374 0.0
C335 C 0.8226 0.47633 0.21576 0.0
H336 H 0.09477 0.50933 0.83537 0.0
H337 H 0.00072 0.48254 0.73049 0.0
H338 H 0.04542 0.59783 0.72447 0.0
H339 H 0.12297 0.70576 0.74465 0.0
H340 H 0.21943 0.73358 0.84873 0.0
H341 H 0.16293 0.61791 0.85922 0.0
C342 C 0.08212 0.52856 0.81191 0.0
C343 C 0.04468 0.48767 0.78335 0.0
C344 C 0.11038 0.59497 0.80784 0.0
C345 C 0.02936 0.51326 0.75284 0.0
C346 C 0.05565 0.57913 0.74913 0.0
C347 C 0.13179 0.6864 0.76955 0.0
C348 C 0.17645 0.72757 0.79541 0.0
C349 C 0.09856 0.62037 0.77558 0.0
C350 C 0.18599 0.70238 0.82816 0.0
C351 C 0.15344 0.63646 0.83425 0.0
H352 H 0.40997 0.89753 0.83144 0.0
H353 H 0.45723 0.96812 0.71944 0.0
H354 H 0.52429 0.9196 0.71296 0.0
H355 H 0.55883 0.8471 0.73656 0.0
H356 H 0.50834 0.77261 0.84768 0.0
H357 H 0.45156 0.83168 0.85684 0.0
C358 C 0.43656 0.90408 0.80603 0.0
C359 C 0.42884 0.93641 0.77594 0.0
C360 C 0.4724 0.87348 0.80193 0.0
C361 C 0.46278 0.94366 0.743 0.0
C362 C 0.50034 0.91522 0.73913 0.0
C363 C 0.53504 0.84339 0.76272 0.0
C364 C 0.53652 0.80451 0.79115 0.0
C365 C 0.50333 0.87791 0.76788 0.0
C366 C 0.50699 0.80155 0.82522 0.0
C367 C 0.47499 0.83564 0.83054 0.0
H368 H 0.28198 0.43239 0.72822 0.0
H369 H 0.25772 0.47817 0.84067 0.0
H370 H 0.37189 0.53043 0.85042 0.0
H371 H 0.47816 0.56869 0.82604 0.0
H372 H 0.50443 0.52976 0.71258 0.0
H373 H 0.38943 0.46609 0.70473 0.0
C374 C 0.30189 0.45452 0.75467 0.0
C375 C 0.26182 0.45251 0.78347 0.0
C376 C 0.36753 0.48391 0.76024 0.0
C377 C 0.28786 0.47985 0.81795 0.0
C378 C 0.35298 0.50917 0.82367 0.0
C379 C 0.45891 0.54466 0.79992 0.0
C380 C 0.4996 0.55384 0.76993 0.0
C381 C 0.39319 0.51165 0.79499 0.0
C382 C 0.47385 0.523 0.73613 0.0
C383 C 0.40821 0.48755 0.73145 0.0
H384 H 0.20543 0.16324 0.23418 0.0
H385 H 0.16838 0.11246 0.34989 0.0
H386 H 0.11648 0.17641 0.35613 0.0
H387 H 0.07671 0.24049 0.32803 0.0
H388 H 0.1072 0.28672 0.21174 0.0
H389 H 0.17011 0.23334 0.20681 0.0
C390 C 0.18537 0.16561 0.26067 0.0
C391 C 0.18963 0.13231 0.29139 0.0
C392 C 0.15623 0.20292 0.26416 0.0
C393 C 0.16488 0.13704 0.32574 0.0
C394 C 0.1358 0.17402 0.32942 0.0
C395 C 0.09825 0.24052 0.3018 0.0
C396 C 0.08673 0.26716 0.27032 0.0
C397 C 0.131 0.20682 0.29877 0.0
C398 C 0.11533 0.26655 0.23646 0.0
C399 C 0.15044 0.23519 0.2335 0.0
H400 H 0.93649 0.77219 0.33403 0.0
H401 H 0.91834 0.80346 0.21802 0.0
H402 H 0.03246 0.85127 0.20977 0.0
H403 H 0.13648 0.8887 0.23559 0.0
H404 H 0.15803 0.86763 0.35243 0.0
H405 H 0.04254 0.8074 0.35978 0.0
C406 C 0.95756 0.79005 0.30702 0.0
C407 C 0.91898 0.78497 0.27677 0.0
C408 C 0.02334 0.81749 0.3024 0.0
C409 C 0.94695 0.80748 0.24186 0.0
C410 C 0.01211 0.83417 0.237 0.0
C411 C 0.11632 0.86998 0.26267 0.0
C412 C 0.156 0.88368 0.29359 0.0
C413 C 0.05059 0.83951 0.26707 0.0
C414 C 0.12862 0.85828 0.32825 0.0
C415 C 0.06262 0.82465 0.33253 0.0
H416 H 0.81574 0.0437 0.33513 0.0
H417 H 0.84148 0.05243 0.21623 0.0
H418 H 0.77577 0.93763 0.212 0.0
H419 H 0.71691 0.83525 0.24122 0.0
H420 H 0.69907 0.82062 0.36022 0.0
H421 H 0.75274 0.93737 0.36504 0.0
C422 C 0.80738 0.02029 0.30841 0.0
C423 C 0.83398 0.05678 0.27614 0.0
C424 C 0.76972 0.95341 0.30602 0.0
C425 C 0.82212 0.02577 0.24162 0.0
C426 C 0.78397 0.96001 0.23903 0.0
C427 C 0.72341 0.85711 0.26834 0.0
C428 C 0.70504 0.81915 0.30037 0.0
C429 C 0.75788 0.9235 0.27097 0.0
C430 C 0.71352 0.84876 0.33512 0.0
C431 C 0.7449 0.91553 0.33789 0.0
H432 H 0.19581 0.23992 0.80085 0.0
H433 H 0.08661 0.16016 0.70155 0.0
H434 H 0.14445 0.10328 0.68858 0.0
H435 H 0.21945 0.06999 0.70831 0.0
H436 H 0.32724 0.14755 0.80831 0.0
H437 H 0.27901 0.21459 0.81718 0.0
C438 C 0.18435 0.20946 0.77663 0.0
C439 C 0.13603 0.20252 0.75271 0.0
C440 C 0.21874 0.17824 0.76894 0.0
C441 C 0.12292 0.16497 0.72068 0.0
C442 C 0.15634 0.13308 0.71308 0.0
C443 C 0.23426 0.10321 0.73128 0.0
C444 C 0.27666 0.1036 0.75767 0.0
C445 C 0.20396 0.13897 0.73719 0.0
C446 C 0.29478 0.14658 0.78754 0.0
C447 C 0.26639 0.18403 0.79299 0.0
H448 H 0.04052 0.82364 0.71838 0.0
H449 H 0.0568 0.87934 0.83347 0.0
H450 H 0.94244 0.81474 0.84108 0.0
H451 H 0.83884 0.74687 0.81505 0.0
H452 H 0.81891 0.6975 0.69901 0.0
H453 H 0.93462 0.75274 0.69221 0.0
C454 C 0.01897 0.82221 0.74501 0.0
C455 C 0.05711 0.85672 0.77524 0.0
C456 C 0.95302 0.78478 0.74928 0.0
C457 C 0.02854 0.85375 0.80967 0.0
C458 C 0.96322 0.81628 0.81418 0.0
C459 C 0.85945 0.7466 0.78836 0.0
C460 C 0.8203 0.71828 0.7575 0.0
C461 C 0.92521 0.78164 0.78423 0.0
C462 C 0.84811 0.71902 0.72315 0.0
C463 C 0.91415 0.75132 0.71919 0.0
H464 H 0.89881 0.14821 0.81858 0.0
H465 H 0.86728 0.17228 0.70369 0.0
H466 H 0.80391 0.05619 0.69648 0.0
H467 H 0.76819 0.94843 0.72139 0.0
H468 H 0.8082 0.92756 0.83534 0.0
H469 H 0.86001 0.0427 0.84388 0.0
C470 C 0.87717 0.1285 0.79201 0.0
C471 C 0.88898 0.16894 0.76144 0.0
C472 C 0.8443 0.06231 0.78761 0.0
C473 C 0.85977 0.1422 0.72749 0.0
C474 C 0.82415 0.07585 0.72328 0.0
C475 C 0.78883 0.96916 0.74797 0.0
C476 C 0.78513 0.92957 0.77755 0.0
C477 C 0.8185 0.03553 0.75278 0.0
C478 C 0.81103 0.957 0.81201 0.0
C479 C 0.84011 0.02275 0.81705 0.0
loop_
_geom_bond_atom_site_label_1
_geom_bond_atom_site_label_2
_geom_bond_distance
_geom_bond_site_symmetry_2
_ccdc_geom_bond_type
Zn0 O1 2.055 . S
Zn0 O8 2.046 . S
Zn0 N16 2.036 . S
Zn0 O28 2.053 . S
Zn0 O30 2.066 . S
O1 Zn0 2.055 . S
O1 C4 1.259 . S
C2 O30 1.256 1_565 S
C2 O31 1.244 1_565 S
Zn3 O5 2.046 . S
Zn3 O7 2.055 . S
Zn3 N9 2.036 . S
Zn3 O27 2.066 . S
Zn3 O31 2.053 . S
C4 O1 1.259 . S
C4 O5 1.254 . S
O5 Zn3 2.046 . S
O5 C4 1.254 . S
C6 O27 1.256 . S
C6 O28 1.244 . S
O7 Zn3 2.055 . S
O7 C29 1.259 . S
O8 Zn0 2.046 . S
O8 C29 1.254 . S
N9 Zn3 2.036 . S
N9 C10 1.298 . S
N9 N12 1.398 . S
C10 N9 1.298 . S
C10 N13 1.367 . S
C10 C23 1.481 . S
C11 N12 1.299 . S
C11 N13 1.379 . S
N12 N9 1.398 . S
N12 C11 1.299 . S
N13 C10 1.367 . S
N13 C11 1.379 . S
C14 N16 1.298 . S
C14 N18 1.367 . S
C14 C22 1.481 . S
C15 N17 1.299 . S
C15 N18 1.379 . S
N16 Zn0 2.036 . S
N16 C14 1.298 . S
N16 N17 1.398 . S
N17 C15 1.299 . S
N17 N16 1.398 . S
N18 C14 1.367 . S
N18 C15 1.379 . S
H19 C22 0.980 . S
H20 C22 0.981 . S
H21 C22 0.981 . S
C22 C14 1.481 . S
C22 H19 0.980 . S
C22 H20 0.981 . S
C22 H21 0.981 . S
C23 C10 1.481 . S
C23 H24 0.980 . S
C23 H25 0.981 . S
C23 H26 0.981 . S
H24 C23 0.980 . S
H25 C23 0.981 . S
H26 C23 0.981 . S
O27 Zn3 2.066 . S
O27 C6 1.256 . S
O28 Zn0 2.053 . S
O28 C6 1.244 . S
C29 O7 1.259 . S
C29 O8 1.254 . S
O30 Zn0 2.066 . S
O30 C2 1.256 1_545 S
O31 C2 1.244 1_545 S
O31 Zn3 2.053 . S
Zn32 O33 2.055 . S
Zn32 O40 2.046 . S
Zn32 N48 2.036 . S
Zn32 O60 2.053 . S
Zn32 O62 2.066 . S
O33 Zn32 2.055 . S
O33 C36 1.259 . S
C34 O62 1.256 . S
C34 O63 1.244 . S
Zn35 O37 2.046 . S
Zn35 O39 2.055 . S
Zn35 N41 2.036 . S
Zn35 O59 2.066 . S
Zn35 O63 2.053 . S
C36 O33 1.259 . S
C36 O37 1.254 . S
O37 Zn35 2.046 . S
O37 C36 1.254 . S
C38 O59 1.256 . S
C38 O60 1.244 . S
O39 Zn35 2.055 . S
O39 C61 1.259 . S
O40 Zn32 2.046 . S
O40 C61 1.254 . S
N41 Zn35 2.036 . S
N41 C42 1.298 . S
N41 N44 1.398 . S
C42 N41 1.298 . S
C42 N45 1.367 . S
C42 C55 1.481 . S
C43 N44 1.299 . S
C43 N45 1.379 . S
N44 N41 1.398 . S
N44 C43 1.299 . S
N45 C42 1.367 . S
N45 C43 1.379 . S
C46 N48 1.298 . S
C46 N50 1.367 . S
C46 C54 1.481 . S
C47 N49 1.299 . S
C47 N50 1.379 . S
N48 Zn32 2.036 . S
N48 C46 1.298 . S
N48 N49 1.398 . S
N49 C47 1.299 . S
N49 N48 1.398 . S
N50 C46 1.367 . S
N50 C47 1.379 . S
H51 C54 0.980 . S
H52 C54 0.981 . S
H53 C54 0.981 . S
C54 C46 1.481 . S
C54 H51 0.980 . S
C54 H52 0.981 . S
C54 H53 0.981 . S
C55 C42 1.481 . S
C55 H56 0.980 . S
C55 H57 0.981 . S
C55 H58 0.981 . S
H56 C55 0.980 . S
H57 C55 0.981 . S
H58 C55 0.981 . S
O59 Zn35 2.066 . S
O59 C38 1.256 . S
O60 Zn32 2.053 . S
O60 C38 1.244 . S
C61 O39 1.259 . S
C61 O40 1.254 . S
O62 Zn32 2.066 . S
O62 C34 1.256 . S
O63 C34 1.244 . S
O63 Zn35 2.053 . S
Zn64 O65 2.055 . S
Zn64 O72 2.046 . S
Zn64 N80 2.036 . S
Zn64 O92 2.053 . S
Zn64 O94 2.066 . S
O65 Zn64 2.055 . S
O65 C68 1.259 . S
C66 O94 1.256 1_455 S
C66 O95 1.244 1_455 S
Zn67 O69 2.046 . S
Zn67 O71 2.055 . S
Zn67 N73 2.036 . S
Zn67 O91 2.066 . S
Zn67 O95 2.053 . S
C68 O65 1.259 . S
C68 O69 1.254 . S
O69 Zn67 2.046 . S
O69 C68 1.254 . S
C70 O91 1.256 . S
C70 O92 1.244 . S
O71 Zn67 2.055 . S
O71 C93 1.259 . S
O72 Zn64 2.046 . S
O72 C93 1.254 . S
N73 Zn67 2.036 . S
N73 C74 1.298 . S
N73 N76 1.398 . S
C74 N73 1.298 . S
C74 N77 1.367 . S
C74 C87 1.481 . S
C75 N76 1.299 . S
C75 N77 1.379 . S
N76 N73 1.398 . S
N76 C75 1.299 . S
N77 C74 1.367 . S
N77 C75 1.379 . S
C78 N80 1.298 . S
C78 N82 1.367 . S
C78 C86 1.481 . S
C79 N81 1.299 . S
C79 N82 1.379 . S
N80 Zn64 2.036 . S
N80 C78 1.298 . S
N80 N81 1.398 . S
N81 C79 1.299 . S
N81 N80 1.398 . S
N82 C78 1.367 . S
N82 C79 1.379 . S
H83 C86 0.980 . S
H84 C86 0.981 . S
H85 C86 0.981 . S
C86 C78 1.481 . S
C86 H83 0.980 . S
C86 H84 0.981 . S
C86 H85 0.981 . S
C87 C74 1.481 . S
C87 H88 0.980 . S
C87 H89 0.981 . S
C87 H90 0.981 . S
H88 C87 0.980 . S
H89 C87 0.981 . S
H90 C87 0.981 . S
O91 Zn67 2.066 . S
O91 C70 1.256 . S
O92 Zn64 2.053 . S
O92 C70 1.244 . S
C93 O71 1.259 . S
C93 O72 1.254 . S
O94 Zn64 2.066 . S
O94 C66 1.256 1_655 S
O95 C66 1.244 1_655 S
O95 Zn67 2.053 . S
Zn96 O97 2.055 . S
Zn96 O104 2.046 . S
Zn96 N112 2.036 . S
Zn96 O124 2.053 . S
Zn96 O126 2.066 . S
O97 Zn96 2.055 . S
O97 C100 1.259 . S
C98 O126 1.256 . S
C98 O127 1.244 . S
Zn99 O101 2.046 . S
Zn99 O103 2.055 . S
Zn99 N105 2.036 . S
Zn99 O123 2.066 . S
Zn99 O127 2.053 . S
C100 O97 1.259 . S
C100 O101 1.254 . S
O101 Zn99 2.046 . S
O101 C100 1.254 . S
C102 O123 1.256 1_655 S
C102 O124 1.244 1_655 S
O103 Zn99 2.055 . S
O103 C125 1.259 . S
O104 Zn96 2.046 . S
O104 C125 1.254 . S
N105 Zn99 2.036 . S
N105 C106 1.298 . S
N105 N108 1.398 . S
C106 N105 1.298 . S
C106 N109 1.367 . S
C106 C119 1.481 . S
C107 N108 1.299 . S
C107 N109 1.379 . S
N108 N105 1.398 . S
N108 C107 1.299 . S
N109 C106 1.367 . S
N109 C107 1.379 . S
C110 N112 1.298 . S
C110 N114 1.367 . S
C110 C118 1.481 . S
C111 N113 1.299 . S
C111 N114 1.379 . S
N112 Zn96 2.036 . S
N112 C110 1.298 . S
N112 N113 1.398 . S
N113 C111 1.299 . S
N113 N112 1.398 . S
N114 C110 1.367 . S
N114 C111 1.379 . S
H115 C118 0.980 . S
H116 C118 0.981 . S
H117 C118 0.981 . S
C118 C110 1.481 . S
C118 H115 0.980 . S
C118 H116 0.981 . S
C118 H117 0.981 . S
C119 C106 1.481 . S
C119 H120 0.980 . S
C119 H121 0.981 . S
C119 H122 0.981 . S
H120 C119 0.980 . S
H121 C119 0.981 . S
H122 C119 0.981 . S
O123 Zn99 2.066 . S
O123 C102 1.256 1_455 S
O124 Zn96 2.053 . S
O124 C102 1.244 1_455 S
C125 O103 1.259 . S
C125 O104 1.254 . S
O126 Zn96 2.066 . S
O126 C98 1.256 . S
O127 C98 1.244 . S
O127 Zn99 2.053 . S
Zn128 O129 2.055 . S
Zn128 O136 2.046 . S
Zn128 N144 2.036 . S
Zn128 O156 2.053 . S
Zn128 O158 2.066 . S
O129 Zn128 2.055 . S
O129 C132 1.259 . S
C130 O158 1.256 . S
C130 O159 1.244 . S
Zn131 O133 2.046 . S
Zn131 O135 2.055 . S
Zn131 N137 2.036 . S
Zn131 O155 2.066 . S
Zn131 O159 2.053 . S
C132 O129 1.259 . S
C132 O133 1.254 . S
O133 Zn131 2.046 . S
O133 C132 1.254 . S
C134 O155 1.256 1_545 S
C134 O156 1.244 1_545 S
O135 Zn131 2.055 . S
O135 C157 1.259 . S
O136 Zn128 2.046 . S
O136 C157 1.254 . S
N137 Zn131 2.036 . S
N137 C138 1.298 . S
N137 N140 1.398 . S
C138 N137 1.298 . S
C138 N141 1.367 . S
C138 C151 1.481 . S
C139 N140 1.299 . S
C139 N141 1.379 . S
N140 N137 1.398 . S
N140 C139 1.299 . S
N141 C138 1.367 . S
N141 C139 1.379 . S
C142 N144 1.298 . S
C142 N146 1.367 . S
C142 C150 1.481 . S
C143 N145 1.299 . S
C143 N146 1.379 . S
N144 Zn128 2.036 . S
N144 C142 1.298 . S
N144 N145 1.398 . S
N145 C143 1.299 . S
N145 N144 1.398 . S
N146 C142 1.367 . S
N146 C143 1.379 . S
H147 C150 0.980 . S
H148 C150 0.981 . S
H149 C150 0.981 . S
C150 C142 1.481 . S
C150 H147 0.980 . S
C150 H148 0.981 . S
C150 H149 0.981 . S
C151 C138 1.481 . S
C151 H152 0.980 . S
C151 H153 0.981 . S
C151 H154 0.981 . S
H152 C151 0.980 . S
H153 C151 0.981 . S
H154 C151 0.981 . S
O155 Zn131 2.066 . S
O155 C134 1.256 1_565 S
O156 Zn128 2.053 . S
O156 C134 1.244 1_565 S
C157 O135 1.259 . S
C157 O136 1.254 . S
O158 Zn128 2.066 . S
O158 C130 1.256 . S
O159 C130 1.244 . S
O159 Zn131 2.053 . S
Zn160 O161 2.055 . S
Zn160 O168 2.046 . S
Zn160 N176 2.036 . S
Zn160 O188 2.053 . S
Zn160 O190 2.066 . S
O161 Zn160 2.055 . S
O161 C164 1.259 . S
C162 O190 1.256 . S
C162 O191 1.244 . S
Zn163 O165 2.046 . S
Zn163 O167 2.055 . S
Zn163 N169 2.036 . S
Zn163 O187 2.066 . S
Zn163 O191 2.053 . S
C164 O161 1.259 . S
C164 O165 1.254 . S
O165 Zn163 2.046 . S
O165 C164 1.254 . S
C166 O187 1.256 . S
C166 O188 1.244 . S
O167 Zn163 2.055 . S
O167 C189 1.259 . S
O168 Zn160 2.046 . S
O168 C189 1.254 . S
N169 Zn163 2.036 . S
N169 C170 1.298 . S
N169 N172 1.398 . S
C170 N169 1.298 . S
C170 N173 1.367 . S
C170 C183 1.481 . S
C171 N172 1.299 . S
C171 N173 1.379 . S
N172 N169 1.398 . S
N172 C171 1.299 . S
N173 C170 1.367 . S
N173 C171 1.379 . S
C174 N176 1.298 . S
C174 N178 1.367 . S
C174 C182 1.481 . S
C175 N177 1.299 . S
C175 N178 1.379 . S
N176 Zn160 2.036 . S
N176 C174 1.298 . S
N176 N177 1.398 . S
N177 C175 1.299 . S
N177 N176 1.398 . S
N178 C174 1.367 . S
N178 C175 1.379 . S
H179 C182 0.980 . S
H180 C182 0.981 . S
H181 C182 0.981 . S
C182 C174 1.481 . S
C182 H179 0.980 . S
C182 H180 0.981 . S
C182 H181 0.981 . S
C183 C170 1.481 . S
C183 H184 0.980 . S
C183 H185 0.981 . S
C183 H186 0.981 . S
H184 C183 0.980 . S
H185 C183 0.981 . S
H186 C183 0.981 . S
O187 Zn163 2.066 . S
O187 C166 1.256 . S
O188 Zn160 2.053 . S
O188 C166 1.244 . S
C189 O167 1.259 . S
C189 O168 1.254 . S
O190 Zn160 2.066 . S
O190 C162 1.256 . S
O191 C162 1.244 . S
O191 Zn163 2.053 . S
H192 C198 0.930 1_545 S
H193 C201 0.930 . S
H194 C202 0.930 . S
H195 C203 0.930 1_565 S
H196 C206 0.930 . S
H197 C207 0.930 . S
C198 H192 0.930 1_565 S
C198 C199 1.355 . S
C198 C200 1.415 1_565 S
C199 C198 1.355 . S
C199 C201 1.419 . S
C200 C198 1.415 1_545 S
C200 C205 1.425 1_546 S
C200 C207 1.409 . S
C201 H193 0.930 . S
C201 C199 1.419 . S
C201 C202 1.362 1_556 S
C202 H194 0.930 . S
C202 C201 1.362 1_554 S
C202 C205 1.409 . S
C203 H195 0.930 1_545 S
C203 C204 1.355 . S
C203 C205 1.415 1_545 S
C204 C203 1.355 . S
C204 C206 1.419 . S
C205 C200 1.425 1_564 S
C205 C202 1.409 . S
C205 C203 1.415 1_565 S
C206 H196 0.930 . S
C206 C204 1.419 . S
C206 C207 1.362 1_554 S
C207 H197 0.930 . S
C207 C200 1.409 . S
C207 C206 1.362 1_556 S
H208 C214 0.930 . S
H209 C217 0.930 . S
H210 C218 0.930 . S
H211 C219 0.930 . S
H212 C222 0.930 . S
H213 C223 0.930 . S
C214 H208 0.930 . S
C214 C215 1.355 . S
C214 C216 1.415 . S
C215 C214 1.355 . S
C215 C217 1.419 . S
C216 C214 1.415 . S
C216 C221 1.425 . S
C216 C223 1.409 . S
C217 H209 0.930 . S
C217 C215 1.419 . S
C217 C218 1.362 . S
C218 H210 0.930 . S
C218 C217 1.362 . S
C218 C221 1.409 . S
C219 H211 0.930 . S
C219 C220 1.355 . S
C219 C221 1.415 . S
C220 C219 1.355 . S
C220 C222 1.419 . S
C221 C216 1.425 . S
C221 C218 1.409 . S
C221 C219 1.415 . S
C222 H212 0.930 . S
C222 C220 1.419 . S
C222 C223 1.362 . S
C223 H213 0.930 . S
C223 C216 1.409 . S
C223 C222 1.362 . S
H224 C230 0.930 1_455 S
H225 C233 0.930 . S
H226 C234 0.930 . S
H227 C235 0.930 1_655 S
H228 C238 0.930 . S
H229 C239 0.930 . S
C230 H224 0.930 1_655 S
C230 C231 1.355 . S
C230 C232 1.415 1_655 S
C231 C230 1.355 . S
C231 C233 1.419 . S
C232 C230 1.415 1_455 S
C232 C237 1.425 1_454 S
C232 C239 1.409 . S
C233 H225 0.930 . S
C233 C231 1.419 . S
C233 C234 1.362 1_554 S
C234 H226 0.930 . S
C234 C233 1.362 1_556 S
C234 C237 1.409 . S
C235 H227 0.930 1_455 S
C235 C236 1.355 . S
C235 C237 1.415 1_455 S
C236 C235 1.355 . S
C236 C238 1.419 . S
C237 C232 1.425 1_656 S
C237 C234 1.409 . S
C237 C235 1.415 1_655 S
C238 H228 0.930 . S
C238 C236 1.419 . S
C238 C239 1.362 1_556 S
C239 H229 0.930 . S
C239 C232 1.409 . S
C239 C238 1.362 1_554 S
H240 C246 0.930 1_565 S
H241 C249 0.930 . S
H242 C250 0.930 . S
H243 C251 0.922 1_545 S
H244 C254 0.930 . S
H245 C255 0.930 . S
C246 H240 0.930 1_545 S
C246 C247 1.355 . S
C246 C248 1.415 1_545 S
C247 C246 1.355 . S
C247 C249 1.419 . S
C248 C246 1.415 1_565 S
C248 C253 1.425 1_565 S
C248 C255 1.409 . S
C249 H241 0.930 . S
C249 C247 1.419 . S
C249 C250 1.362 . S
C250 H242 0.930 . S
C250 C249 1.362 . S
C250 C253 1.409 . S
C251 H243 0.922 1_565 S
C251 C252 1.364 . S
C251 C253 1.413 1_565 S
C252 C251 1.364 . S
C252 C254 1.419 . S
C253 C248 1.425 1_545 S
C253 C250 1.409 . S
C253 C251 1.413 1_545 S
C254 H244 0.930 . S
C254 C252 1.419 . S
C254 C255 1.362 . S
C255 H245 0.930 . S
C255 C248 1.409 . S
C255 C254 1.362 . S
H256 C262 0.930 . S
H257 C265 0.930 . S
H258 C266 0.930 . S
H259 C267 0.930 . S
H260 C270 0.930 . S
H261 C271 0.930 . S
C262 H256 0.930 . S
C262 C263 1.355 . S
C262 C264 1.415 . S
C263 C262 1.355 . S
C263 C265 1.419 . S
C264 C262 1.415 . S
C264 C269 1.425 1_556 S
C264 C271 1.409 . S
C265 H257 0.930 . S
C265 C263 1.419 . S
C265 C266 1.362 1_556 S
C266 H258 0.930 . S
C266 C265 1.362 1_554 S
C266 C269 1.409 . S
C267 H259 0.930 . S
C267 C268 1.355 . S
C267 C269 1.415 . S
C268 C267 1.355 . S
C268 C270 1.419 . S
C269 C264 1.425 1_554 S
C269 C266 1.409 . S
C269 C267 1.415 . S
C270 H260 0.930 . S
C270 C268 1.419 . S
C270 C271 1.362 1_554 S
C271 H261 0.930 . S
C271 C264 1.409 . S
C271 C270 1.362 1_556 S
H272 C278 0.930 . S
H273 C281 0.930 . S
H274 C282 0.930 . S
H275 C283 0.930 . S
H276 C286 0.930 . S
H277 C287 0.930 . S
C278 H272 0.930 . S
C278 C279 1.355 . S
C278 C280 1.415 . S
C279 C278 1.355 . S
C279 C281 1.419 1_655 S
C280 C278 1.415 . S
C280 C285 1.425 1_655 S
C280 C287 1.409 . S
C281 H273 0.930 . S
C281 C279 1.419 1_455 S
C281 C282 1.362 . S
C282 H274 0.930 . S
C282 C281 1.362 . S
C282 C285 1.409 . S
C283 H275 0.930 . S
C283 C284 1.355 . S
C283 C285 1.415 . S
C284 C283 1.355 . S
C284 C286 1.419 1_455 S
C285 C280 1.425 1_455 S
C285 C282 1.409 . S
C285 C283 1.415 . S
C286 H276 0.930 . S
C286 C284 1.419 1_655 S
C286 C287 1.362 . S
C287 H277 0.930 . S
C287 C280 1.409 . S
C287 C286 1.362 . S
H288 C294 0.930 . S
H289 C297 0.941 . S
H290 C298 0.930 . S
H291 C299 0.930 . S
H292 C302 0.930 . S
H293 C303 0.930 . S
C294 H288 0.930 . S
C294 C295 1.355 . S
C294 C296 1.415 . S
C295 C294 1.355 . S
C295 C297 1.419 . S
C296 C294 1.415 . S
C296 C301 1.425 . S
C296 C303 1.409 . S
C297 H289 0.941 . S
C297 C295 1.419 . S
C297 C298 1.362 . S
C298 H290 0.930 . S
C298 C297 1.362 . S
C298 C301 1.409 . S
C299 H291 0.930 . S
C299 C300 1.355 . S
C299 C301 1.415 . S
C300 C299 1.355 . S
C300 C302 1.419 . S
C301 C296 1.425 . S
C301 C298 1.409 . S
C301 C299 1.415 . S
C302 H292 0.930 . S
C302 C300 1.419 . S
C302 C303 1.362 . S
C303 H293 0.930 . S
C303 C296 1.409 . S
C303 C302 1.362 . S
H304 C310 0.930 . S
H305 C313 0.930 . S
H306 C314 0.930 . S
H307 C315 0.930 . S
H308 C318 0.930 . S
H309 C319 0.930 . S
C310 H304 0.930 . S
C310 C311 1.355 . S
C310 C312 1.415 . S
C311 C310 1.355 . S
C311 C313 1.419 . S
C312 C310 1.415 . S
C312 C317 1.425 . S
C312 C319 1.409 . S
C313 H305 0.930 . S
C313 C311 1.419 . S
C313 C314 1.362 . S
C314 H306 0.930 . S
C314 C313 1.362 . S
C314 C317 1.409 . S
C315 H307 0.930 . S
C315 C316 1.355 . S
C315 C317 1.415 . S
C316 C315 1.355 . S
C316 C318 1.419 . S
C317 C312 1.425 . S
C317 C314 1.409 . S
C317 C315 1.415 . S
C318 H308 0.930 . S
C318 C316 1.419 . S
C318 C319 1.362 . S
C319 H309 0.930 . S
C319 C312 1.409 . S
C319 C318 1.362 . S
H320 C326 0.930 . S
H321 C329 0.930 . S
H322 C330 0.930 . S
H323 C331 0.930 . S
H324 C334 0.930 . S
H325 C335 0.930 . S
C326 H320 0.930 . S
C326 C327 1.355 . S
C326 C328 1.415 . S
C327 C326 1.355 . S
C327 C329 1.419 . S
C328 C326 1.415 . S
C328 C333 1.425 . S
C328 C335 1.409 . S
C329 H321 0.930 . S
C329 C327 1.419 . S
C329 C330 1.362 . S
C330 H322 0.930 . S
C330 C329 1.362 . S
C330 C333 1.409 . S
C331 H323 0.930 . S
C331 C332 1.355 . S
C331 C333 1.415 . S
C332 C331 1.355 . S
C332 C334 1.419 . S
C333 C328 1.425 . S
C333 C330 1.409 . S
C333 C331 1.415 . S
C334 H324 0.930 . S
C334 C332 1.419 . S
C334 C335 1.362 . S
C335 H325 0.930 . S
C335 C328 1.409 . S
C335 C334 1.362 . S
H336 C342 0.930 . S
H337 C345 0.930 . S
H338 C346 0.930 . S
H339 C347 0.930 . S
H340 C350 0.930 . S
H341 C351 0.930 . S
C342 H336 0.930 . S
C342 C343 1.355 . S
C342 C344 1.415 . S
C343 C342 1.355 . S
C343 C345 1.419 . S
C344 C342 1.415 . S
C344 C349 1.425 . S
C344 C351 1.409 . S
C345 H337 0.930 . S
C345 C343 1.419 . S
C345 C346 1.362 . S
C346 H338 0.930 . S
C346 C345 1.362 . S
C346 C349 1.409 . S
C347 H339 0.930 . S
C347 C348 1.355 . S
C347 C349 1.415 . S
C348 C347 1.355 . S
C348 C350 1.419 . S
C349 C344 1.425 . S
C349 C346 1.409 . S
C349 C347 1.415 . S
C350 H340 0.930 . S
C350 C348 1.419 . S
C350 C351 1.362 . S
C351 H341 0.930 . S
C351 C344 1.409 . S
C351 C350 1.362 . S
H352 C358 0.930 . S
H353 C361 0.930 1_545 S
H354 C362 0.930 . S
H355 C363 0.930 . S
H356 C366 0.930 . S
H357 C367 0.930 . S
C358 H352 0.930 . S
C358 C359 1.355 . S
C358 C360 1.415 . S
C359 C358 1.355 . S
C359 C361 1.419 . S
C360 C358 1.415 . S
C360 C365 1.425 . S
C360 C367 1.409 . S
C361 H353 0.930 1_565 S
C361 C359 1.419 . S
C361 C362 1.362 . S
C362 H354 0.930 . S
C362 C361 1.362 . S
C362 C365 1.409 . S
C363 H355 0.930 . S
C363 C364 1.355 . S
C363 C365 1.415 . S
C364 C363 1.355 . S
C364 C366 1.419 . S
C365 C360 1.425 . S
C365 C362 1.409 . S
C365 C363 1.415 . S
C366 H356 0.930 . S
C366 C364 1.419 . S
C366 C367 1.362 . S
C367 H357 0.930 . S
C367 C360 1.409 . S
C367 C366 1.362 . S
H368 C374 0.930 . S
H369 C377 0.930 . S
H370 C378 0.930 . S
H371 C379 0.930 . S
H372 C382 0.930 . S
H373 C383 0.930 . S
C374 H368 0.930 . S
C374 C375 1.355 . S
C374 C376 1.415 . S
C375 C374 1.355 . S
C375 C377 1.419 . S
C376 C374 1.415 . S
C376 C381 1.425 . S
C376 C383 1.409 . S
C377 H369 0.930 . S
C377 C375 1.419 . S
C377 C378 1.362 . S
C378 H370 0.930 . S
C378 C377 1.362 . S
C378 C381 1.409 . S
C379 H371 0.930 . S
C379 C380 1.355 . S
C379 C381 1.415 . S
C380 C379 1.355 . S
C380 C382 1.419 . S
C381 C376 1.425 . S
C381 C378 1.409 . S
C381 C379 1.415 . S
C382 H372 0.930 . S
C382 C380 1.419 . S
C382 C383 1.362 . S
C383 H373 0.930 . S
C383 C376 1.409 . S
C383 C382 1.362 . S
H384 C390 0.930 . S
H385 C393 0.930 . S
H386 C394 0.930 . S
H387 C395 0.930 . S
H388 C398 0.930 1_655 S
H389 C399 0.930 . S
C390 H384 0.930 . S
C390 C391 1.355 . S
C390 C392 1.415 . S
C391 C390 1.355 . S
C391 C393 1.419 . S
C392 C390 1.415 . S
C392 C397 1.425 . S
C392 C399 1.409 . S
C393 H385 0.930 . S
C393 C391 1.419 . S
C393 C394 1.362 . S
C394 H386 0.930 . S
C394 C393 1.362 . S
C394 C397 1.409 . S
C395 H387 0.930 . S
C395 C396 1.355 . S
C395 C397 1.415 . S
C396 C395 1.355 . S
C396 C398 1.419 . S
C397 C392 1.425 . S
C397 C394 1.409 . S
C397 C395 1.415 . S
C398 H388 0.930 1_455 S
C398 C396 1.419 . S
C398 C399 1.362 . S
C399 H389 0.930 . S
C399 C392 1.409 . S
C399 C398 1.362 . S
H400 C406 0.930 . S
H401 C409 0.930 . S
H402 C410 0.930 . S
H403 C411 0.930 . S
H404 C414 0.930 1_545 S
H405 C415 0.930 . S
C406 H400 0.930 . S
C406 C407 1.355 . S
C406 C408 1.415 1_655 S
C407 C406 1.355 . S
C407 C409 1.419 . S
C408 C406 1.415 1_455 S
C408 C413 1.425 . S
C408 C415 1.409 . S
C409 H401 0.930 . S
C409 C407 1.419 . S
C409 C410 1.362 1_655 S
C410 H402 0.930 . S
C410 C409 1.362 1_455 S
C410 C413 1.409 . S
C411 H403 0.930 . S
C411 C412 1.355 . S
C411 C413 1.415 . S
C412 C411 1.355 . S
C412 C414 1.419 . S
C413 C408 1.425 . S
C413 C410 1.409 . S
C413 C411 1.415 . S
C414 H404 0.930 1_565 S
C414 C412 1.419 . S
C414 C415 1.362 . S
C415 H405 0.930 . S
C415 C408 1.409 . S
C415 C414 1.362 . S
H416 C422 0.930 . S
H417 C425 0.930 . S
H418 C426 0.930 . S
H419 C427 0.930 . S
H420 C430 0.930 . S
H421 C431 0.930 . S
C422 H416 0.930 . S
C422 C423 1.355 . S
C422 C424 1.415 1_545 S
C423 C422 1.355 . S
C423 C425 1.419 . S
C424 C422 1.415 1_565 S
C424 C429 1.425 . S
C424 C431 1.409 . S
C425 H417 0.930 . S
C425 C423 1.419 . S
C425 C426 1.362 1_545 S
C426 H418 0.930 . S
C426 C425 1.362 1_565 S
C426 C429 1.409 . S
C427 H419 0.930 . S
C427 C428 1.355 . S
C427 C429 1.415 . S
C428 C427 1.355 . S
C428 C430 1.419 . S
C429 C424 1.425 . S
C429 C426 1.409 . S
C429 C427 1.415 . S
C430 H420 0.930 . S
C430 C428 1.419 . S
C430 C431 1.362 . S
C431 H421 0.930 . S
C431 C424 1.409 . S
C431 C430 1.362 . S
H432 C438 0.930 . S
H433 C441 0.930 . S
H434 C442 0.930 . S
H435 C443 0.930 . S
H436 C446 0.930 . S
H437 C447 0.930 . S
C438 H432 0.930 . S
C438 C439 1.355 . S
C438 C440 1.415 . S
C439 C438 1.355 . S
C439 C441 1.419 . S
C440 C438 1.415 . S
C440 C445 1.425 . S
C440 C447 1.409 . S
C441 H433 0.930 . S
C441 C439 1.419 . S
C441 C442 1.362 . S
C442 H434 0.930 . S
C442 C441 1.362 . S
C442 C445 1.409 . S
C443 H435 0.930 . S
C443 C444 1.355 . S
C443 C445 1.415 . S
C444 C443 1.355 . S
C444 C446 1.419 . S
C445 C440 1.425 . S
C445 C442 1.409 . S
C445 C443 1.415 . S
C446 H436 0.930 . S
C446 C444 1.419 . S
C446 C447 1.362 . S
C447 H437 0.930 . S
C447 C440 1.409 . S
C447 C446 1.362 . S
H448 C454 0.930 . S
H449 C457 0.930 . S
H450 C458 0.930 . S
H451 C459 0.930 . S
H452 C462 0.930 . S
H453 C463 0.930 . S
C454 H448 0.930 . S
C454 C455 1.355 . S
C454 C456 1.415 1_455 S
C455 C454 1.355 . S
C455 C457 1.419 . S
C456 C454 1.415 1_655 S
C456 C461 1.425 . S
C456 C463 1.409 . S
C457 H449 0.930 . S
C457 C455 1.419 . S
C457 C458 1.362 1_455 S
C458 H450 0.930 . S
C458 C457 1.362 1_655 S
C458 C461 1.409 . S
C459 H451 0.930 . S
C459 C460 1.355 . S
C459 C461 1.415 . S
C460 C459 1.355 . S
C460 C462 1.419 . S
C461 C456 1.425 . S
C461 C458 1.409 . S
C461 C459 1.415 . S
C462 H452 0.930 . S
C462 C460 1.419 . S
C462 C463 1.362 . S
C463 H453 0.930 . S
C463 C456 1.409 . S
C463 C462 1.362 . S
H464 C470 0.930 . S
H465 C473 0.930 . S
H466 C474 0.930 . S
H467 C475 0.930 . S
H468 C478 0.930 . S
H469 C479 0.930 . S
C470 H464 0.930 . S
C470 C471 1.355 . S
C470 C472 1.415 . S
C471 C470 1.355 . S
C471 C473 1.419 . S
C472 C470 1.415 . S
C472 C477 1.425 . S
C472 C479 1.409 . S
C473 H465 0.930 . S
C473 C471 1.419 . S
C473 C474 1.362 . S
C474 H466 0.930 . S
C474 C473 1.362 . S
C474 C477 1.409 . S
C475 H467 0.930 . S
C475 C476 1.355 . S
C475 C477 1.415 1_565 S
C476 C475 1.355 . S
C476 C478 1.419 . S
C477 C472 1.425 . S
C477 C474 1.409 . S
C477 C475 1.415 1_545 S
C478 H468 0.930 . S
C478 C476 1.419 . S
C478 C479 1.362 1_565 S
C479 H469 0.930 . S
C479 C472 1.409 . S
C479 C478 1.362 1_545 S
C199 N146 1.865 . S
C204 N13 1.879 . S
C215 N178 1.694 . S
C220 N45 1.719 . S
C231 N77 1.875 . S
C236 N114 1.870 . S
C247 N18 1.727 . S
C252 N141 1.684 . S
C263 N173 1.883 . S
C268 N50 1.845 . S
C279 N82 1.693 . S
C284 N109 1.713 . S
C295 C6 1.356 . S
C300 C93 1.370 . S
C311 C34 1.290 . S
C316 C29 1.328 . S
C327 C70 1.308 . S
C332 C36 1.343 . S
C343 C98 1.291 . S
C348 C132 1.329 . S
C359 C130 1.365 . S
C364 C189 1.379 . S
C375 C100 1.376 . S
C380 C166 1.357 . S
C391 C4 0.949 . S
C396 C66 0.918 . S
C407 C61 0.969 . S
C412 C2 0.956 . S
C423 C68 0.964 . S
C428 C38 0.948 . S
C439 C125 0.966 . S
C444 C134 0.938 . S
C455 C157 0.962 . S
C460 C162 0.946 . S
C471 C102 0.997 . S
C476 C164 0.997 . S
