# Generated by pormake.
# Topology umx, (4)-cn, num edge types: 1
# Building blocks:
#     Node 0, Type 0, BuildingBlock: GALJAG_clean_sbu_0, # of connection points: 4
#     Node 1, Type 0, BuildingBlock: GALJAG_clean_sbu_0, # of connection points: 4
#     Node 2, Type 0, BuildingBlock: GALJAG_clean_sbu_0, # of connection points: 4
#     Node 3, Type 0, BuildingBlock: GALJAG_clean_sbu_0, # of connection points: 4
#     Node 4, Type 0, BuildingBlock: GALJAG_clean_sbu_0, # of connection points: 4
#     Node 5, Type 0, BuildingBlock: GALJAG_clean_sbu_0, # of connection points: 4
#     Node 6, Type 0, BuildingBlock: GALJAG_clean_sbu_0, # of connection points: 4
#     Node 7, Type 0, BuildingBlock: GALJAG_clean_sbu_0, # of connection points: 4
#     Edge 8, Type (0, 0), BuildingBlock: UVAHIK_clean_linker_0, # of connection points: 2
#     Edge 9, Type (0, 0), BuildingBlock: UVAHIK_clean_linker_0, # of connection points: 2
#     Edge 10, Type (0, 0), BuildingBlock: UVAHIK_clean_linker_0, # of connection points: 2
#     Edge 11, Type (0, 0), BuildingBlock: UVAHIK_clean_linker_0, # of connection points: 2
#     Edge 12, Type (0, 0), BuildingBlock: UVAHIK_clean_linker_0, # of connection points: 2
#     Edge 13, Type (0, 0), BuildingBlock: UVAHIK_clean_linker_0, # of connection points: 2
#     Edge 14, Type (0, 0), BuildingBlock: UVAHIK_clean_linker_0, # of connection points: 2
#     Edge 15, Type (0, 0), BuildingBlock: UVAHIK_clean_linker_0, # of connection points: 2
#     Edge 16, Type (0, 0), BuildingBlock: UVAHIK_clean_linker_0, # of connection points: 2
#     Edge 17, Type (0, 0), BuildingBlock: UVAHIK_clean_linker_0, # of connection points: 2
#     Edge 18, Type (0, 0), BuildingBlock: UVAHIK_clean_linker_0, # of connection points: 2
#     Edge 19, Type (0, 0), BuildingBlock: UVAHIK_clean_linker_0, # of connection points: 2
#     Edge 20, Type (0, 0), BuildingBlock: UVAHIK_clean_linker_0, # of connection points: 2
#     Edge 21, Type (0, 0), BuildingBlock: UVAHIK_clean_linker_0, # of connection points: 2
#     Edge 22, Type (0, 0), BuildingBlock: UVAHIK_clean_linker_0, # of connection points: 2
#     Edge 23, Type (0, 0), BuildingBlock: UVAHIK_clean_linker_0, # of connection points: 2
# Relax obj value: 0.096
# Max RMSD: 0.176
# Mean RMSD: 0.176
data_MOF--net-umx--node1-GALJAG_clean_sbu_0--edge1-UVAHIK_clean_linker_0
_symmetry_space_group_name_H-M    P1
_symmetry_Int_Tables_number       1
_symmetry_cell_setting            triclinic
loop_
_symmetry_equiv_pos_as_xyz
'x, y, z'
_cell_length_a     49.86104
_cell_length_b     49.874475
_cell_length_c     37.098772
_cell_angle_alpha  89.946525
_cell_angle_beta   89.975749
_cell_angle_gamma 89.847824
loop_
_atom_site_label
_atom_site_type_symbol
_atom_site_fract_x
_atom_site_fract_y
_atom_site_fract_z
_atom_type_partial_charge
In0 In 0.18061 0.44346 0.01938 0.0
O1 O 0.20045 0.47485 0.0558 0.0
O2 O 0.19121 0.43677 0.07818 0.0
C3 C 0.19291 0.45942 0.95208 0.0
C4 C 0.20214 0.3945 0.01296 0.0
C5 C 0.12834 0.45629 0.02654 0.0
O6 O 0.20406 0.46948 0.97952 0.0
O7 O 0.17528 0.44202 0.95883 0.0
O8 O 0.13655 0.43234 0.02751 0.0
O9 O 0.14642 0.47353 0.02176 0.0
C10 C 0.20071 0.45983 0.08322 0.0
O11 O 0.17766 0.39781 0.02078 0.0
O12 O 0.21549 0.41578 0.00898 0.0
In13 In 0.5498 0.18724 0.53934 0.0
O14 O 0.59515 0.18537 0.53335 0.0
O15 O 0.57745 0.22094 0.55513 0.0
C16 C 0.53892 0.13531 0.52595 0.0
C17 C 0.53513 0.19332 0.60878 0.0
C18 C 0.53271 0.21203 0.4787 0.0
O19 O 0.56257 0.14395 0.52884 0.0
O20 O 0.52091 0.15285 0.52966 0.0
O21 O 0.51734 0.20832 0.50531 0.0
O22 O 0.55634 0.20376 0.48314 0.0
C23 C 0.59863 0.20854 0.54638 0.0
O24 O 0.52331 0.20581 0.58366 0.0
O25 O 0.55351 0.17769 0.59863 0.0
In26 In 0.79879 0.54341 0.04463 0.0
O27 O 0.77777 0.51685 0.08677 0.0
O28 O 0.78386 0.55779 0.09926 0.0
C29 C 0.78552 0.51608 0.98447 0.0
C30 C 0.78702 0.59364 0.02326 0.0
C31 C 0.85111 0.53201 0.0541 0.0
O32 O 0.76801 0.52415 0.0066 0.0
O33 O 0.80937 0.52104 0.99338 0.0
O34 O 0.84304 0.55412 0.04149 0.0
O35 O 0.83274 0.51578 0.06245 0.0
C36 C 0.77514 0.53543 0.10955 0.0
O37 O 0.80669 0.58858 0.0436 0.0
O38 O 0.77348 0.57348 0.014 0.0
In39 In 0.44822 0.8068 0.51484 0.0
O40 O 0.47402 0.78298 0.55517 0.0
O41 O 0.44118 0.80582 0.57506 0.0
C42 C 0.46496 0.78981 0.44973 0.0
C43 C 0.39812 0.78797 0.51026 0.0
C44 C 0.46421 0.85829 0.51308 0.0
O45 O 0.47609 0.78192 0.47852 0.0
O46 O 0.4461 0.80638 0.45408 0.0
O47 O 0.43989 0.8516 0.511 0.0
O48 O 0.48045 0.83901 0.51624 0.0
C49 C 0.46047 0.79036 0.58222 0.0
O50 O 0.40282 0.8123 0.5172 0.0
O51 O 0.4186 0.77331 0.50636 0.0
In52 In 0.18674 0.54685 0.52142 0.0
O53 O 0.2092 0.52104 0.47971 0.0
O54 O 0.18095 0.55003 0.46128 0.0
C55 C 0.20872 0.52937 0.5838 0.0
C56 C 0.20652 0.59639 0.51582 0.0
C57 C 0.1341 0.53588 0.52861 0.0
O58 O 0.20444 0.51378 0.55766 0.0
O59 O 0.20238 0.55343 0.57814 0.0
O60 O 0.14305 0.55949 0.5289 0.0
O61 O 0.1517 0.51791 0.52514 0.0
C62 C 0.19792 0.53229 0.45315 0.0
O63 O 0.18307 0.59209 0.52748 0.0
O64 O 0.21998 0.57568 0.50792 0.0
In65 In 0.44598 0.17868 0.04934 0.0
O66 O 0.40031 0.17699 0.04833 0.0
O67 O 0.41954 0.21444 0.03806 0.0
C68 C 0.45807 0.12621 0.05556 0.0
C69 C 0.46455 0.18884 0.98252 0.0
C70 C 0.45872 0.19936 0.11431 0.0
O71 O 0.43424 0.13458 0.05312 0.0
O72 O 0.47568 0.14429 0.05501 0.0
O73 O 0.47218 0.20467 0.08633 0.0
O74 O 0.43925 0.18377 0.10931 0.0
C75 C 0.39783 0.20157 0.04055 0.0
O76 O 0.47767 0.19538 0.01033 0.0
O77 O 0.44271 0.17703 0.98864 0.0
In78 In 0.8022 0.45721 0.54026 0.0
O79 O 0.78025 0.48859 0.5054 0.0
O80 O 0.78865 0.4504 0.48281 0.0
C81 C 0.79314 0.47238 0.6089 0.0
C82 C 0.78521 0.40661 0.54821 0.0
C83 C 0.85385 0.47065 0.53036 0.0
O84 O 0.77683 0.47807 0.58389 0.0
O85 O 0.81393 0.46007 0.59882 0.0
O86 O 0.84614 0.44661 0.53236 0.0
O87 O 0.83541 0.48794 0.53283 0.0
C88 C 0.77876 0.47339 0.47825 0.0
O89 O 0.80785 0.41197 0.53472 0.0
O90 O 0.77124 0.42671 0.55698 0.0
In91 In 0.54655 0.79783 0.02123 0.0
O92 O 0.59174 0.80458 0.02341 0.0
O93 O 0.57721 0.76819 0.00048 0.0
C94 C 0.53251 0.84881 0.03603 0.0
C95 C 0.52746 0.78965 0.95416 0.0
C96 C 0.53339 0.77256 0.0833 0.0
O97 O 0.55657 0.84183 0.03101 0.0
O98 O 0.51567 0.83009 0.0337 0.0
O99 O 0.51647 0.77668 0.05859 0.0
O100 O 0.55676 0.78041 0.07616 0.0
C101 C 0.59723 0.78247 0.00845 0.0
O102 O 0.52328 0.77313 0.97941 0.0
O103 O 0.5405 0.81019 0.96319 0.0
C104 C 0.21072 0.49636 0.12729 0.0
C105 C 0.2092 0.46891 0.11925 0.0
C106 C 0.21488 0.5048 0.16278 0.0
C107 C 0.23716 0.48406 0.25323 0.0
H108 H 0.18061 0.53131 0.28675 0.0
C109 C 0.21487 0.50124 0.40501 0.0
C110 C 0.20434 0.5262 0.41526 0.0
C111 C 0.21908 0.49541 0.36849 0.0
C112 C 0.19697 0.5186 0.2779 0.0
H113 H 0.21259 0.42877 0.14132 0.0
H114 H 0.22029 0.44355 0.20318 0.0
H115 H 0.18338 0.52005 0.22327 0.0
H116 H 0.19155 0.56522 0.396 0.0
H117 H 0.20002 0.55567 0.33291 0.0
H118 H 0.2509 0.48272 0.30789 0.0
C119 C 0.21811 0.45851 0.18217 0.0
C120 C 0.19847 0.51211 0.24142 0.0
C121 C 0.21355 0.45007 0.14684 0.0
C122 C 0.19923 0.54561 0.38874 0.0
C123 C 0.20394 0.54004 0.3525 0.0
C124 C 0.23594 0.4909 0.28979 0.0
C125 C 0.21802 0.48593 0.19064 0.0
C126 C 0.21838 0.49458 0.22878 0.0
C127 C 0.21328 0.51465 0.34172 0.0
C128 C 0.21564 0.50808 0.30266 0.0
H129 H 0.20744 0.51129 0.10652 0.0
H130 H 0.21488 0.52608 0.16865 0.0
H131 H 0.25275 0.47051 0.24406 0.0
H132 H 0.21898 0.48596 0.42504 0.0
H133 H 0.22605 0.47555 0.36127 0.0
C134 C 0.54858 0.19086 0.67318 0.0
C135 C 0.52899 0.1971 0.64734 0.0
C136 C 0.54312 0.19359 0.70986 0.0
C137 C 0.49366 0.22235 0.77517 0.0
H138 H 0.52539 0.16945 0.83908 0.0
C139 C 0.45455 0.19576 0.91749 0.0
C140 C 0.47353 0.19451 0.94542 0.0
C141 C 0.46268 0.19972 0.88191 0.0
C142 C 0.51669 0.18456 0.8216 0.0
H143 H 0.4884 0.21136 0.63937 0.0
H144 H 0.47819 0.21486 0.70365 0.0
H145 H 0.53615 0.16855 0.77517 0.0
H146 H 0.51583 0.19679 0.9583 0.0
H147 H 0.53024 0.20278 0.89544 0.0
H148 H 0.47299 0.23717 0.82188 0.0
C149 C 0.49814 0.20864 0.69569 0.0
C150 C 0.5229 0.18417 0.78491 0.0
C151 C 0.50386 0.20646 0.65882 0.0
C152 C 0.50083 0.19772 0.93722 0.0
C153 C 0.50904 0.20108 0.90139 0.0
C154 C 0.48706 0.22237 0.81183 0.0
C155 C 0.51767 0.20202 0.72175 0.0
C156 C 0.51143 0.20302 0.76108 0.0
C157 C 0.49 0.20195 0.87346 0.0
C158 C 0.49847 0.20342 0.83529 0.0
H159 H 0.56831 0.184 0.66504 0.0
H160 H 0.55897 0.18905 0.72885 0.0
H161 H 0.4848 0.2375 0.75795 0.0
H162 H 0.43335 0.19349 0.92313 0.0
H163 H 0.44766 0.2001 0.86081 0.0
C164 C 0.76316 0.50913 0.43537 0.0
C165 C 0.7682 0.48198 0.44288 0.0
C166 C 0.75644 0.51725 0.40035 0.0
C167 C 0.7349 0.49201 0.31046 0.0
H168 H 0.77853 0.55027 0.27409 0.0
C169 C 0.76129 0.5051 0.16006 0.0
C170 C 0.76511 0.53112 0.14657 0.0
C171 C 0.75541 0.5011 0.19654 0.0
C172 C 0.76572 0.53432 0.28383 0.0
H173 H 0.76874 0.44189 0.42026 0.0
H174 H 0.75717 0.45597 0.35951 0.0
H175 H 0.77879 0.5401 0.33814 0.0
H176 H 0.76405 0.57341 0.16001 0.0
H177 H 0.75328 0.56647 0.22339 0.0
H178 H 0.72248 0.48574 0.25584 0.0
C179 C 0.75821 0.47105 0.38046 0.0
C180 C 0.76587 0.52851 0.32065 0.0
C181 C 0.76506 0.46299 0.41527 0.0
C182 C 0.76147 0.5531 0.16974 0.0
C183 C 0.75545 0.54911 0.2061 0.0
C184 C 0.7347 0.49786 0.27358 0.0
C185 C 0.75444 0.49832 0.37236 0.0
C186 C 0.75097 0.50688 0.33428 0.0
C187 C 0.7531 0.52305 0.22019 0.0
C188 C 0.75059 0.51871 0.25972 0.0
H189 H 0.76539 0.52419 0.45617 0.0
H190 H 0.7534 0.53839 0.395 0.0
H191 H 0.72291 0.47544 0.32023 0.0
H192 H 0.76402 0.48779 0.14282 0.0
H193 H 0.75398 0.48074 0.20652 0.0
C194 C 0.50577 0.76152 0.90615 0.0
C195 C 0.51949 0.7849 0.91636 0.0
C196 C 0.49968 0.75682 0.86982 0.0
C197 C 0.52064 0.77657 0.77799 0.0
H198 H 0.44895 0.75556 0.74941 0.0
C199 C 0.4907 0.7689 0.62813 0.0
C200 C 0.46681 0.78248 0.61966 0.0
C201 C 0.49729 0.76348 0.66411 0.0
C202 C 0.46911 0.76131 0.757 0.0
H203 H 0.53725 0.82179 0.89669 0.0
H204 H 0.52655 0.8137 0.83378 0.0
H205 H 0.46043 0.75773 0.81339 0.0
H206 H 0.43059 0.80006 0.64196 0.0
H207 H 0.44211 0.79082 0.70439 0.0
H208 H 0.52905 0.78131 0.72183 0.0
C209 C 0.52081 0.7988 0.85358 0.0
C210 C 0.47573 0.76233 0.79361 0.0
C211 C 0.52673 0.80355 0.88971 0.0
C212 C 0.44921 0.78964 0.64764 0.0
C213 C 0.4557 0.78412 0.68345 0.0
C214 C 0.51407 0.77546 0.74145 0.0
C215 C 0.50744 0.77531 0.84314 0.0
C216 C 0.50134 0.77072 0.80448 0.0
C217 C 0.48 0.77139 0.69219 0.0
C218 C 0.48802 0.76852 0.73056 0.0
H219 H 0.50001 0.74677 0.92613 0.0
H220 H 0.48936 0.73854 0.86253 0.0
H221 H 0.54068 0.7827 0.78557 0.0
H222 H 0.50459 0.76307 0.60707 0.0
H223 H 0.51608 0.75346 0.67 0.0
C224 C 0.80695 0.46975 0.67319 0.0
C225 C 0.78766 0.47724 0.64749 0.0
C226 C 0.80136 0.47161 0.70987 0.0
C227 C 0.7591 0.50487 0.77694 0.0
H228 H 0.78435 0.44653 0.83743 0.0
C229 C 0.75389 0.50954 0.93277 0.0
C230 C 0.77897 0.50477 0.94884 0.0
C231 C 0.74955 0.50279 0.89659 0.0
C232 C 0.77708 0.46292 0.8209 0.0
H233 H 0.74759 0.49328 0.64006 0.0
H234 H 0.73783 0.49678 0.70478 0.0
H235 H 0.78716 0.44254 0.77205 0.0
H236 H 0.81858 0.48788 0.94059 0.0
H237 H 0.81094 0.47575 0.87796 0.0
H238 H 0.74983 0.52558 0.82602 0.0
C239 C 0.75727 0.4894 0.69627 0.0
C240 C 0.77876 0.46069 0.78349 0.0
C241 C 0.76286 0.48743 0.6593 0.0
C242 C 0.79905 0.49177 0.92888 0.0
C243 C 0.79462 0.48472 0.89303 0.0
C244 C 0.75738 0.50709 0.81449 0.0
C245 C 0.77633 0.48101 0.72188 0.0
C246 C 0.77066 0.482 0.76114 0.0
C247 C 0.77009 0.49077 0.8762 0.0
C248 C 0.76719 0.48648 0.83683 0.0
H249 H 0.82631 0.46196 0.66499 0.0
H250 H 0.81672 0.46562 0.72892 0.0
H251 H 0.75274 0.52163 0.76041 0.0
H252 H 0.73812 0.51969 0.94755 0.0
H253 H 0.73041 0.50753 0.88433 0.0
C254 C 0.54631 0.75447 0.14353 0.0
C255 C 0.52613 0.7626 0.11947 0.0
C256 C 0.54029 0.74945 0.17967 0.0
C257 C 0.48368 0.74284 0.24541 0.0
H258 H 0.5349 0.77483 0.31116 0.0
C259 C 0.45544 0.78495 0.38423 0.0
C260 C 0.47266 0.78023 0.41354 0.0
C261 C 0.46254 0.7767 0.34962 0.0
C262 C 0.52062 0.76536 0.29326 0.0
H263 H 0.48362 0.77049 0.11376 0.0
H264 H 0.47313 0.76261 0.17701 0.0
H265 H 0.54607 0.77076 0.24761 0.0
H266 H 0.51062 0.76278 0.42979 0.0
H267 H 0.52342 0.74881 0.36868 0.0
H268 H 0.45768 0.73895 0.29114 0.0
C269 C 0.49356 0.75949 0.16802 0.0
C270 C 0.52701 0.76292 0.25675 0.0
C271 C 0.49955 0.76413 0.13171 0.0
C272 C 0.49701 0.76671 0.40764 0.0
C273 C 0.50432 0.75877 0.37276 0.0
C274 C 0.47718 0.74556 0.28189 0.0
C275 C 0.51401 0.75288 0.19271 0.0
C276 C 0.5084 0.75216 0.23217 0.0
C277 C 0.48716 0.76379 0.34342 0.0
C278 C 0.49537 0.75738 0.306 0.0
H279 H 0.56697 0.75287 0.13469 0.0
H280 H 0.55643 0.74371 0.19763 0.0
H281 H 0.46907 0.73396 0.22747 0.0
H282 H 0.43647 0.79521 0.38798 0.0
H283 H 0.44908 0.78117 0.32749 0.0
C284 C 0.21679 0.48872 0.90752 0.0
C285 C 0.2005 0.46643 0.91481 0.0
C286 C 0.22367 0.49515 0.87198 0.0
C287 C 0.2292 0.46697 0.78059 0.0
H288 H 0.21322 0.53915 0.74826 0.0
C289 C 0.21273 0.49385 0.63105 0.0
C290 C 0.21764 0.52019 0.61961 0.0
C291 C 0.21665 0.48668 0.66713 0.0
C292 C 0.21848 0.51906 0.7568 0.0
H293 H 0.17917 0.43304 0.89087 0.0
H294 H 0.19138 0.44414 0.82901 0.0
H295 H 0.20903 0.52805 0.81178 0.0
H296 H 0.23266 0.55907 0.63581 0.0
H297 H 0.24076 0.54631 0.69824 0.0
H298 H 0.23856 0.45785 0.72565 0.0
C299 C 0.19883 0.45662 0.85068 0.0
C300 C 0.21594 0.51271 0.79329 0.0
C301 C 0.19164 0.45043 0.88605 0.0
C302 C 0.2284 0.53868 0.64411 0.0
C303 C 0.23281 0.53141 0.67995 0.0
C304 C 0.2321 0.47339 0.7441 0.0
C305 C 0.21475 0.47913 0.84325 0.0
C306 C 0.22067 0.48648 0.8054 0.0
C307 C 0.22598 0.50564 0.6923 0.0
C308 C 0.22618 0.49938 0.73158 0.0
H309 H 0.22395 0.50134 0.92921 0.0
H310 H 0.23602 0.5126 0.86693 0.0
H311 H 0.23327 0.44664 0.78936 0.0
H312 H 0.20429 0.47926 0.61268 0.0
H313 H 0.21093 0.46672 0.67558 0.0
C314 C 0.49674 0.22008 0.43288 0.0
C315 C 0.52361 0.22249 0.44356 0.0
C316 C 0.48934 0.22525 0.39713 0.0
C317 C 0.5204 0.22481 0.30676 0.0
H318 H 0.44966 0.24762 0.27592 0.0
C319 C 0.48973 0.22297 0.157 0.0
C320 C 0.4654 0.2097 0.15051 0.0
C321 C 0.49668 0.2307 0.19204 0.0
C322 C 0.46953 0.24128 0.28417 0.0
H323 H 0.56337 0.23446 0.42644 0.0
H324 H 0.55036 0.24457 0.36465 0.0
H325 H 0.46204 0.25106 0.33949 0.0
H326 H 0.42877 0.19516 0.17521 0.0
H327 H 0.44087 0.20857 0.23611 0.0
H328 H 0.52771 0.21456 0.25168 0.0
C329 C 0.53511 0.23769 0.38326 0.0
C330 C 0.4766 0.24316 0.32059 0.0
C331 C 0.54255 0.23211 0.41874 0.0
C332 C 0.44772 0.20526 0.17939 0.0
C333 C 0.45455 0.21316 0.21427 0.0
C334 C 0.51341 0.22313 0.27042 0.0
C335 C 0.50866 0.23328 0.37158 0.0
C336 C 0.50195 0.23442 0.33247 0.0
C337 C 0.4793 0.22551 0.22111 0.0
C338 C 0.48771 0.23079 0.25882 0.0
H339 H 0.48178 0.21259 0.45149 0.0
H340 H 0.46883 0.22144 0.38914 0.0
H341 H 0.53991 0.21737 0.31484 0.0
H342 H 0.50369 0.22673 0.13521 0.0
H343 H 0.51582 0.24037 0.19649 0.0
C344 C 0.89943 0.54397 0.04746 0.0
C345 C 0.8798 0.52494 0.05624 0.0
C346 C 0.92649 0.53673 0.04658 0.0
C347 C 0.97477 0.48433 0.07553 0.0
H348 H 0.01675 0.5118 0.99564 0.0
C349 C 0.08051 0.44431 0.03907 0.0
C350 C 0.09989 0.46376 0.03083 0.0
C351 C 0.05362 0.45166 0.04335 0.0
C352 C 0.00535 0.50416 0.01829 0.0
H353 H 0.87301 0.4836 0.07185 0.0
H354 H 0.92023 0.47081 0.06974 0.0
H355 H 0.97 0.52517 0.00195 0.0
H356 H 0.10645 0.50608 0.02069 0.0
H357 H 0.05957 0.51885 0.02806 0.0
H358 H 0.01022 0.46303 0.09148 0.0
C359 C 0.91481 0.49143 0.06403 0.0
C360 C 0.97859 0.51188 0.02199 0.0
C361 C 0.88775 0.49871 0.06509 0.0
C362 C 0.09193 0.49064 0.02693 0.0
C363 C 0.06508 0.49794 0.03099 0.0
C364 C 0.00156 0.47649 0.07171 0.0
C365 C 0.93445 0.51026 0.05424 0.0
C366 C 0.963 0.50214 0.05072 0.0
C367 C 0.04564 0.47854 0.0392 0.0
C368 C 0.01713 0.48642 0.04311 0.0
H369 H 0.89388 0.56438 0.04073 0.0
H370 H 0.94116 0.55185 0.03962 0.0
H371 H 0.9634 0.4767 0.09819 0.0
H372 H 0.08611 0.42345 0.04226 0.0
H373 H 0.039 0.43626 0.04937 0.0
C374 C 0.50039 0.89282 0.51294 0.0
C375 C 0.47299 0.88646 0.51169 0.0
C376 C 0.5087 0.91952 0.51164 0.0
C377 C 0.48592 0.98734 0.48547 0.0
H378 H 0.54177 0.0109 0.55084 0.0
C379 C 0.50589 0.09854 0.5165 0.0
C380 C 0.53266 0.10681 0.51993 0.0
C381 C 0.49975 0.07145 0.51245 0.0
C382 C 0.52643 0.00454 0.53205 0.0
H383 H 0.43278 0.9029 0.50806 0.0
H384 H 0.44725 0.94953 0.50629 0.0
H385 H 0.52879 0.96382 0.5499 0.0
H386 H 0.57405 0.0934 0.52106 0.0
H387 H 0.56329 0.04593 0.51386 0.0
H388 H 0.48329 0.02818 0.46807 0.0
C389 C 0.46235 0.93392 0.50773 0.0
C390 C 0.51899 0.97759 0.53151 0.0
C391 C 0.45405 0.90723 0.50899 0.0
C392 C 0.55323 0.08755 0.51859 0.0
C393 C 0.54707 0.06041 0.51465 0.0
C394 C 0.49334 0.0143 0.48605 0.0
C395 C 0.48976 0.94036 0.50908 0.0
C396 C 0.49848 0.96875 0.50847 0.0
C397 C 0.52025 0.05207 0.51183 0.0
C398 C 0.51349 0.02322 0.50959 0.0
H399 H 0.51544 0.87719 0.51487 0.0
H400 H 0.52997 0.92383 0.51232 0.0
H401 H 0.47037 0.98105 0.46697 0.0
H402 H 0.48963 0.11296 0.51745 0.0
H403 H 0.47887 0.06561 0.51079 0.0
C404 C 0.09653 0.50298 0.52934 0.0
C405 C 0.10525 0.52971 0.5305 0.0
C406 C 0.06921 0.49707 0.52921 0.0
C407 C 0.00269 0.52511 0.55086 0.0
H408 H 0.97753 0.47015 0.48524 0.0
C409 C 0.89019 0.50498 0.52767 0.0
C410 C 0.88238 0.47795 0.52732 0.0
C411 C 0.91732 0.51182 0.52691 0.0
C412 C 0.98428 0.48538 0.50392 0.0
H413 H 0.09235 0.57121 0.53302 0.0
H414 H 0.0445 0.56088 0.53253 0.0
H415 H 0.02513 0.48105 0.48727 0.0
H416 H 0.8967 0.43689 0.52533 0.0
H417 H 0.94407 0.44881 0.52417 0.0
H418 H 0.96182 0.52938 0.56755 0.0
C419 C 0.0588 0.5445 0.53205 0.0
C420 C 0.01153 0.4916 0.50513 0.0
C421 C 0.08616 0.55042 0.53218 0.0
C422 C 0.90214 0.4579 0.52553 0.0
C423 C 0.92926 0.46473 0.52471 0.0
C424 C 0.97542 0.5189 0.54964 0.0
C425 C 0.05005 0.51776 0.5302 0.0
C426 C 0.02105 0.51144 0.52873 0.0
C427 C 0.93714 0.49175 0.52571 0.0
C428 C 0.96596 0.49889 0.52625 0.0
H429 H 0.11082 0.4866 0.52819 0.0
H430 H 0.06308 0.47626 0.52838 0.0
H431 H 0.00947 0.54027 0.56964 0.0
H432 H 0.87536 0.52086 0.52899 0.0
H433 H 0.92279 0.53282 0.52724 0.0
C434 C 0.54383 0.89719 0.04464 0.0
C435 C 0.52449 0.87682 0.04284 0.0
C436 C 0.53603 0.92387 0.04948 0.0
C437 C 0.47864 0.96885 0.03535 0.0
H438 H 0.51803 0.01698 0.09786 0.0
C439 C 0.44471 0.07799 0.05868 0.0
C440 C 0.46494 0.0975 0.05798 0.0
C441 C 0.45133 0.05077 0.05971 0.0
C442 C 0.50696 0.00382 0.08009 0.0
H443 H 0.48191 0.86823 0.04551 0.0
H444 H 0.46832 0.91479 0.05412 0.0
H445 H 0.53096 0.9698 0.09453 0.0
H446 H 0.50794 0.10395 0.05826 0.0
H447 H 0.51952 0.05647 0.05955 0.0
H448 H 0.45491 0.00285 0.02043 0.0
C449 C 0.48947 0.91019 0.05138 0.0
C450 C 0.51436 0.97683 0.0782 0.0
C451 C 0.49726 0.88354 0.04663 0.0
C452 C 0.49191 0.08934 0.05885 0.0
C453 C 0.49854 0.06214 0.05983 0.0
C454 C 0.47128 -0.00418 0.03717 0.0
C455 C 0.50875 0.93067 0.05252 0.0
C456 C 0.50037 0.9591 0.05566 0.0
C457 C 0.47833 0.04255 0.06001 0.0
C458 C 0.48546 0.01365 0.05938 0.0
H459 H 0.56497 0.89258 0.04178 0.0
H460 H 0.55133 0.93924 0.04989 0.0
H461 H 0.46773 0.95576 0.0173 0.0
H462 H 0.42374 0.08373 0.05819 0.0
H463 H 0.43531 0.03616 0.06031 0.0
C464 C 0.20215 0.3447 0.02224 0.0
C465 C 0.21461 0.36791 0.00889 0.0
C466 C 0.21529 0.31989 0.02027 0.0
C467 C 0.27176 0.2851 0.97528 0.0
H468 H 0.28345 0.25051 0.06765 0.0
C469 C 0.37095 0.23899 0.01519 0.0
C470 C 0.37174 0.21425 0.03315 0.0
C471 C 0.34651 0.25128 0.00765 0.0
C472 C 0.27985 0.25946 0.04147 0.0
H473 H 0.24983 0.38338 0.98168 0.0
H474 H 0.27256 0.34039 0.97811 0.0
H475 H 0.24827 0.28447 0.06167 0.0
H476 H 0.34773 0.18281 0.05729 0.0
H477 H 0.30459 0.20498 0.04495 0.0
H478 H 0.30458 0.26151 0.95577 0.0
C479 C 0.25271 0.34113 0.98996 0.0
C480 C 0.25972 0.27885 0.03802 0.0
C481 C 0.23982 0.36582 0.99235 0.0
C482 C 0.34759 0.20192 0.04341 0.0
C483 C 0.32301 0.21451 0.03635 0.0
C484 C 0.29188 0.26584 0.97876 0.0
C485 C 0.24079 0.31798 0.00432 0.0
C486 C 0.25647 0.29279 0.00536 0.0
C487 C 0.32234 0.23925 0.01826 0.0
C488 C 0.29694 0.25386 0.01233 0.0
H489 H 0.18268 0.34584 0.03511 0.0
H490 H 0.20573 0.30232 0.0316 0.0
H491 H 0.2693 0.29522 0.94963 0.0
H492 H 0.38925 0.24889 0.00684 0.0
H493 H 0.34657 0.27059 0.99425 0.0
C494 C 0.75345 0.37446 0.57595 0.0
C495 C 0.77545 0.37907 0.55325 0.0
C496 C 0.74285 0.34883 0.57946 0.0
C497 C 0.73249 0.28899 0.52776 0.0
H498 H 0.70151 0.26444 0.61783 0.0
C499 C 0.64787 0.20999 0.53323 0.0
C500 C 0.62534 0.22042 0.55122 0.0
C501 C 0.67283 0.22248 0.53663 0.0
C502 C 0.71035 0.27079 0.59254 0.0
H503 H 0.80423 0.36051 0.51719 0.0
H504 H 0.78508 0.31537 0.52269 0.0
H505 H 0.73533 0.29974 0.61848 0.0
H506 H 0.61129 0.25121 0.58792 0.0
H507 H 0.65468 0.27281 0.59404 0.0
H508 H 0.70618 0.26125 0.50168 0.0
C509 C 0.7763 0.33168 0.53797 0.0
C510 C 0.72965 0.29094 0.59291 0.0
C511 C 0.7872 0.35742 0.53484 0.0
C512 C 0.62831 0.24285 0.57361 0.0
C513 C 0.65322 0.25502 0.57742 0.0
C514 C 0.71316 0.26876 0.5274 0.0
C515 C 0.75386 0.32726 0.56008 0.0
C516 C 0.7398 0.30121 0.56041 0.0
C517 C 0.67564 0.24521 0.55863 0.0
C518 C 0.70092 0.26056 0.55967 0.0
H519 H 0.7441 0.39078 0.5906 0.0
H520 H 0.72525 0.34614 0.5962 0.0
H521 H 0.73993 0.2966 0.5023 0.0
H522 H 0.64604 0.19267 0.51582 0.0
H523 H 0.68983 0.21463 0.52179 0.0
C524 C 0.78965 0.64347 0.03071 0.0
C525 C 0.77914 0.62104 0.0128 0.0
C526 C 0.77919 0.66906 0.02398 0.0
C527 C 0.73331 0.70716 0.96318 0.0
H528 H 0.70729 0.73883 0.05201 0.0
C529 C 0.62946 0.75149 0.97875 0.0
C530 C 0.62488 0.77333 0.00176 0.0
C531 C 0.65519 0.74102 0.97463 0.0
C532 C 0.71495 0.73082 0.02689 0.0
H533 H 0.751 0.60784 0.97203 0.0
H534 H 0.73273 0.65214 0.96045 0.0
H535 H 0.74221 0.70474 0.05431 0.0
H536 H 0.64366 0.80218 0.03731 0.0
H537 H 0.68889 0.78334 0.03071 0.0
H538 H 0.70452 0.73189 0.93607 0.0
C539 C 0.74908 0.65025 0.9795 0.0
C540 C 0.73501 0.71126 0.02819 0.0
C541 C 0.75934 0.62477 0.98642 0.0
C542 C 0.64669 0.78526 0.01947 0.0
C543 C 0.6725 0.77452 0.01571 0.0
C544 C 0.7132 0.72665 0.9619 0.0
C545 C 0.75829 0.67257 0.99896 0.0
C546 C 0.74333 0.69822 0.99651 0.0
C547 C 0.67687 0.75201 0.99371 0.0
C548 C 0.70286 0.7376 0.99391 0.0
H549 H 0.80504 0.64112 0.05108 0.0
H550 H 0.78676 0.68593 0.03923 0.0
H551 H 0.73975 0.69782 0.93828 0.0
H552 H 0.61302 0.74202 0.96459 0.0
H553 H 0.65783 0.7234 0.95794 0.0
C554 C 0.36715 0.75345 0.48671 0.0
C555 C 0.37088 0.77727 0.50606 0.0
C556 C 0.34169 0.74244 0.48334 0.0
C557 C 0.2809 0.734 0.53193 0.0
H558 H 0.25874 0.70012 0.44273 0.0
C559 C 0.20556 0.64583 0.52776 0.0
C560 C 0.21745 0.62351 0.51099 0.0
C561 C 0.21691 0.67131 0.52388 0.0
C562 C 0.26437 0.7098 0.46774 0.0
H563 H 0.35108 0.80862 0.53663 0.0
H564 H 0.30619 0.78855 0.5318 0.0
H565 H 0.29321 0.73478 0.44148 0.0
H566 H 0.24976 0.61028 0.4761 0.0
H567 H 0.26938 0.6545 0.46917 0.0
H568 H 0.25356 0.70746 0.5585 0.0
C569 C 0.32305 0.77882 0.51878 0.0
C570 C 0.284 0.72961 0.46701 0.0
C571 C 0.34861 0.7902 0.52155 0.0
C572 C 0.24028 0.62712 0.48948 0.0
C573 C 0.25131 0.6525 0.48517 0.0
C574 C 0.26123 0.71409 0.53267 0.0
C575 C 0.31947 0.75479 0.49968 0.0
C576 C 0.29348 0.74073 0.4993 0.0
C577 C 0.23994 0.67479 0.50258 0.0
C578 C 0.25399 0.70079 0.50078 0.0
H579 H 0.38397 0.74318 0.47434 0.0
H580 H 0.33955 0.72363 0.46903 0.0
H581 H 0.28797 0.74227 0.55718 0.0
H582 H 0.1879 0.6435 0.54448 0.0
H583 H 0.2079 0.6882 0.53771 0.0
loop_
_geom_bond_atom_site_label_1
_geom_bond_atom_site_label_2
_geom_bond_distance
_geom_bond_site_symmetry_2
_ccdc_geom_bond_type
In0 O1 2.294 . S
In0 O2 2.326 . S
In0 O6 2.266 1_554 S
In0 O7 2.326 1_554 S
In0 O8 2.266 . S
In0 O9 2.326 . S
In0 O11 2.294 . S
In0 O12 2.326 . S
O1 In0 2.294 . S
O1 C10 1.240 . S
O2 In0 2.326 . S
O2 C10 1.252 . S
C3 O6 1.252 . S
C3 O7 1.260 . S
C4 O11 1.240 . S
C4 O12 1.252 . S
C5 O8 1.252 . S
C5 O9 1.260 . S
O6 In0 2.266 1_556 S
O6 C3 1.252 . S
O7 In0 2.326 1_556 S
O7 C3 1.260 . S
O8 In0 2.266 . S
O8 C5 1.252 . S
O9 In0 2.326 . S
O9 C5 1.260 . S
C10 O1 1.240 . S
C10 O2 1.252 . S
O11 In0 2.294 . S
O11 C4 1.240 . S
O12 In0 2.326 . S
O12 C4 1.252 . S
In13 O14 2.294 . S
In13 O15 2.326 . S
In13 O19 2.266 . S
In13 O20 2.326 . S
In13 O21 2.266 . S
In13 O22 2.326 . S
In13 O24 2.294 . S
In13 O25 2.326 . S
O14 In13 2.294 . S
O14 C23 1.240 . S
O15 In13 2.326 . S
O15 C23 1.252 . S
C16 O19 1.252 . S
C16 O20 1.260 . S
C17 O24 1.240 . S
C17 O25 1.252 . S
C18 O21 1.252 . S
C18 O22 1.260 . S
O19 In13 2.266 . S
O19 C16 1.252 . S
O20 In13 2.326 . S
O20 C16 1.260 . S
O21 In13 2.266 . S
O21 C18 1.252 . S
O22 In13 2.326 . S
O22 C18 1.260 . S
C23 O14 1.240 . S
C23 O15 1.252 . S
O24 In13 2.294 . S
O24 C17 1.240 . S
O25 In13 2.326 . S
O25 C17 1.252 . S
In26 O27 2.294 . S
In26 O28 2.326 . S
In26 O32 2.266 1_554 S
In26 O33 2.326 1_554 S
In26 O34 2.266 . S
In26 O35 2.326 . S
In26 O37 2.294 . S
In26 O38 2.326 . S
O27 In26 2.294 . S
O27 C36 1.240 . S
O28 In26 2.326 . S
O28 C36 1.252 . S
C29 O32 1.252 . S
C29 O33 1.260 . S
C30 O37 1.240 . S
C30 O38 1.252 . S
C31 O34 1.252 . S
C31 O35 1.260 . S
O32 In26 2.266 1_556 S
O32 C29 1.252 . S
O33 In26 2.326 1_556 S
O33 C29 1.260 . S
O34 In26 2.266 . S
O34 C31 1.252 . S
O35 In26 2.326 . S
O35 C31 1.260 . S
C36 O27 1.240 . S
C36 O28 1.252 . S
O37 In26 2.294 . S
O37 C30 1.240 . S
O38 In26 2.326 . S
O38 C30 1.252 . S
In39 O40 2.294 . S
In39 O41 2.326 . S
In39 O45 2.266 . S
In39 O46 2.326 . S
In39 O47 2.266 . S
In39 O48 2.326 . S
In39 O50 2.294 . S
In39 O51 2.326 . S
O40 In39 2.294 . S
O40 C49 1.240 . S
O41 In39 2.326 . S
O41 C49 1.252 . S
C42 O45 1.252 . S
C42 O46 1.260 . S
C43 O50 1.240 . S
C43 O51 1.252 . S
C44 O47 1.252 . S
C44 O48 1.260 . S
O45 In39 2.266 . S
O45 C42 1.252 . S
O46 In39 2.326 . S
O46 C42 1.260 . S
O47 In39 2.266 . S
O47 C44 1.252 . S
O48 In39 2.326 . S
O48 C44 1.260 . S
C49 O40 1.240 . S
C49 O41 1.252 . S
O50 In39 2.294 . S
O50 C43 1.240 . S
O51 In39 2.326 . S
O51 C43 1.252 . S
In52 O53 2.294 . S
In52 O54 2.326 . S
In52 O58 2.266 . S
In52 O59 2.326 . S
In52 O60 2.266 . S
In52 O61 2.326 . S
In52 O63 2.294 . S
In52 O64 2.326 . S
O53 In52 2.294 . S
O53 C62 1.240 . S
O54 In52 2.326 . S
O54 C62 1.252 . S
C55 O58 1.252 . S
C55 O59 1.260 . S
C56 O63 1.240 . S
C56 O64 1.252 . S
C57 O60 1.252 . S
C57 O61 1.260 . S
O58 In52 2.266 . S
O58 C55 1.252 . S
O59 In52 2.326 . S
O59 C55 1.260 . S
O60 In52 2.266 . S
O60 C57 1.252 . S
O61 In52 2.326 . S
O61 C57 1.260 . S
C62 O53 1.240 . S
C62 O54 1.252 . S
O63 In52 2.294 . S
O63 C56 1.240 . S
O64 In52 2.326 . S
O64 C56 1.252 . S
In65 O66 2.294 . S
In65 O67 2.326 . S
In65 O71 2.266 . S
In65 O72 2.326 . S
In65 O73 2.266 . S
In65 O74 2.326 . S
In65 O76 2.310 . S
In65 O77 2.326 1_554 S
O66 In65 2.294 . S
O66 C75 1.240 . S
O67 In65 2.326 . S
O67 C75 1.252 . S
C68 O71 1.252 . S
C68 O72 1.260 . S
C69 O76 1.220 1_556 S
C69 O77 1.252 . S
C70 O73 1.252 . S
C70 O74 1.260 . S
O71 In65 2.266 . S
O71 C68 1.252 . S
O72 In65 2.326 . S
O72 C68 1.260 . S
O73 In65 2.266 . S
O73 C70 1.252 . S
O74 In65 2.326 . S
O74 C70 1.260 . S
C75 O66 1.240 . S
C75 O67 1.252 . S
O76 In65 2.310 . S
O76 C69 1.220 1_554 S
O77 In65 2.326 1_556 S
O77 C69 1.252 . S
In78 O79 2.294 . S
In78 O80 2.326 . S
In78 O84 2.266 . S
In78 O85 2.326 . S
In78 O86 2.266 . S
In78 O87 2.326 . S
In78 O89 2.294 . S
In78 O90 2.326 . S
O79 In78 2.294 . S
O79 C88 1.240 . S
O80 In78 2.326 . S
O80 C88 1.252 . S
C81 O84 1.252 . S
C81 O85 1.260 . S
C82 O89 1.240 . S
C82 O90 1.252 . S
C83 O86 1.252 . S
C83 O87 1.260 . S
O84 In78 2.266 . S
O84 C81 1.252 . S
O85 In78 2.326 . S
O85 C81 1.260 . S
O86 In78 2.266 . S
O86 C83 1.252 . S
O87 In78 2.326 . S
O87 C83 1.260 . S
C88 O79 1.240 . S
C88 O80 1.252 . S
O89 In78 2.294 . S
O89 C82 1.240 . S
O90 In78 2.326 . S
O90 C82 1.252 . S
In91 O92 2.294 . S
In91 O93 2.326 . S
In91 O97 2.266 . S
In91 O98 2.326 . S
In91 O99 2.266 . S
In91 O100 2.326 . S
In91 O102 2.310 . S
In91 O103 2.326 1_554 S
O92 In91 2.294 . S
O92 C101 1.240 . S
O93 In91 2.326 . S
O93 C101 1.252 . S
C94 O97 1.252 . S
C94 O98 1.260 . S
C95 O102 1.220 1_556 S
C95 O103 1.252 . S
C96 O99 1.252 . S
C96 O100 1.260 . S
O97 In91 2.266 . S
O97 C94 1.252 . S
O98 In91 2.326 . S
O98 C94 1.260 . S
O99 In91 2.266 . S
O99 C96 1.252 . S
O100 In91 2.326 . S
O100 C96 1.260 . S
C101 O92 1.240 . S
C101 O93 1.252 . S
O102 In91 2.310 . S
O102 C95 1.220 1_554 S
O103 In91 2.326 1_556 S
O103 C95 1.252 . S
C104 C105 1.349 . S
C104 C106 1.327 . S
C104 H129 0.950 . S
C105 C104 1.349 . S
C105 C121 1.349 . S
C106 C104 1.327 . S
C106 C125 1.429 . S
C106 H130 0.950 . S
C107 C124 1.574 . S
C107 C126 1.368 . S
C107 H131 0.949 . S
H108 C112 0.949 . S
C109 C110 1.349 . S
C109 C111 1.327 . S
C109 H132 0.950 . S
C110 C109 1.349 . S
C110 C122 1.349 . S
C111 C109 1.327 . S
C111 C127 1.429 . S
C111 H133 0.950 . S
C112 H108 0.949 . S
C112 C120 1.574 . S
C112 C128 1.368 . S
H113 C121 0.950 . S
H114 C119 0.950 . S
H115 C120 0.949 . S
H116 C122 0.950 . S
H117 C123 0.950 . S
H118 C124 0.949 . S
C119 H114 0.950 . S
C119 C121 1.327 . S
C119 C125 1.429 . S
C120 C112 1.574 . S
C120 H115 0.949 . S
C120 C126 1.368 . S
C121 C105 1.349 . S
C121 H113 0.950 . S
C121 C119 1.327 . S
C122 C110 1.349 . S
C122 H116 0.950 . S
C122 C123 1.327 . S
C123 H117 0.950 . S
C123 C122 1.327 . S
C123 C127 1.429 . S
C124 C107 1.574 . S
C124 H118 0.949 . S
C124 C128 1.368 . S
C125 C106 1.429 . S
C125 C119 1.429 . S
C125 C126 1.523 . S
C126 C107 1.368 . S
C126 C120 1.368 . S
C126 C125 1.523 . S
C127 C111 1.429 . S
C127 C123 1.429 . S
C127 C128 1.523 . S
C128 C112 1.368 . S
C128 C124 1.368 . S
C128 C127 1.523 . S
H129 C104 0.950 . S
H130 C106 0.950 . S
H131 C107 0.949 . S
H132 C109 0.950 . S
H133 C111 0.950 . S
C134 C135 1.349 . S
C134 C136 1.327 . S
C134 H159 0.950 . S
C135 C134 1.349 . S
C135 C151 1.349 . S
C136 C134 1.327 . S
C136 C155 1.429 . S
C136 H160 0.950 . S
C137 C154 1.574 . S
C137 C156 1.368 . S
C137 H161 0.949 . S
H138 C142 0.949 . S
C139 C140 1.349 . S
C139 C141 1.327 . S
C139 H162 0.950 . S
C140 C139 1.349 . S
C140 C152 1.349 . S
C141 C139 1.327 . S
C141 C157 1.429 . S
C141 H163 0.950 . S
C142 H138 0.949 . S
C142 C150 1.574 . S
C142 C158 1.368 . S
H143 C151 0.950 . S
H144 C149 0.950 . S
H145 C150 0.949 . S
H146 C152 0.950 . S
H147 C153 0.950 . S
H148 C154 0.949 . S
C149 H144 0.950 . S
C149 C151 1.327 . S
C149 C155 1.429 . S
C150 C142 1.574 . S
C150 H145 0.949 . S
C150 C156 1.368 . S
C151 C135 1.349 . S
C151 H143 0.950 . S
C151 C149 1.327 . S
C152 C140 1.349 . S
C152 H146 0.950 . S
C152 C153 1.327 . S
C153 H147 0.950 . S
C153 C152 1.327 . S
C153 C157 1.429 . S
C154 C137 1.574 . S
C154 H148 0.949 . S
C154 C158 1.368 . S
C155 C136 1.429 . S
C155 C149 1.429 . S
C155 C156 1.523 . S
C156 C137 1.368 . S
C156 C150 1.368 . S
C156 C155 1.523 . S
C157 C141 1.429 . S
C157 C153 1.429 . S
C157 C158 1.523 . S
C158 C142 1.368 . S
C158 C154 1.368 . S
C158 C157 1.523 . S
H159 C134 0.950 . S
H160 C136 0.950 . S
H161 C137 0.949 . S
H162 C139 0.950 . S
H163 C141 0.950 . S
C164 C165 1.349 . S
C164 C166 1.327 . S
C164 H189 0.950 . S
C165 C164 1.349 . S
C165 C181 1.349 . S
C166 C164 1.327 . S
C166 C185 1.429 . S
C166 H190 0.950 . S
C167 C184 1.574 . S
C167 C186 1.368 . S
C167 H191 0.949 . S
H168 C172 0.949 . S
C169 C170 1.349 . S
C169 C171 1.327 . S
C169 H192 0.950 . S
C170 C169 1.349 . S
C170 C182 1.349 . S
C171 C169 1.327 . S
C171 C187 1.429 . S
C171 H193 0.950 . S
C172 H168 0.949 . S
C172 C180 1.574 . S
C172 C188 1.368 . S
H173 C181 0.950 . S
H174 C179 0.950 . S
H175 C180 0.949 . S
H176 C182 0.950 . S
H177 C183 0.950 . S
H178 C184 0.949 . S
C179 H174 0.950 . S
C179 C181 1.327 . S
C179 C185 1.429 . S
C180 C172 1.574 . S
C180 H175 0.949 . S
C180 C186 1.368 . S
C181 C165 1.349 . S
C181 H173 0.950 . S
C181 C179 1.327 . S
C182 C170 1.349 . S
C182 H176 0.950 . S
C182 C183 1.327 . S
C183 H177 0.950 . S
C183 C182 1.327 . S
C183 C187 1.429 . S
C184 C167 1.574 . S
C184 H178 0.949 . S
C184 C188 1.368 . S
C185 C166 1.429 . S
C185 C179 1.429 . S
C185 C186 1.523 . S
C186 C167 1.368 . S
C186 C180 1.368 . S
C186 C185 1.523 . S
C187 C171 1.429 . S
C187 C183 1.429 . S
C187 C188 1.523 . S
C188 C172 1.368 . S
C188 C184 1.368 . S
C188 C187 1.523 . S
H189 C164 0.950 . S
H190 C166 0.950 . S
H191 C167 0.949 . S
H192 C169 0.950 . S
H193 C171 0.950 . S
C194 C195 1.349 . S
C194 C196 1.327 . S
C194 H219 0.950 . S
C195 C194 1.349 . S
C195 C211 1.349 . S
C196 C194 1.327 . S
C196 C215 1.429 . S
C196 H220 0.950 . S
C197 C214 1.574 . S
C197 C216 1.368 . S
C197 H221 0.949 . S
H198 C202 0.949 . S
C199 C200 1.349 . S
C199 C201 1.327 . S
C199 H222 0.950 . S
C200 C199 1.349 . S
C200 C212 1.349 . S
C201 C199 1.327 . S
C201 C217 1.429 . S
C201 H223 0.950 . S
C202 H198 0.949 . S
C202 C210 1.574 . S
C202 C218 1.368 . S
H203 C211 0.950 . S
H204 C209 0.950 . S
H205 C210 0.949 . S
H206 C212 0.950 . S
H207 C213 0.950 . S
H208 C214 0.949 . S
C209 H204 0.950 . S
C209 C211 1.327 . S
C209 C215 1.429 . S
C210 C202 1.574 . S
C210 H205 0.949 . S
C210 C216 1.368 . S
C211 C195 1.349 . S
C211 H203 0.950 . S
C211 C209 1.327 . S
C212 C200 1.349 . S
C212 H206 0.950 . S
C212 C213 1.327 . S
C213 H207 0.950 . S
C213 C212 1.327 . S
C213 C217 1.429 . S
C214 C197 1.574 . S
C214 H208 0.949 . S
C214 C218 1.368 . S
C215 C196 1.429 . S
C215 C209 1.429 . S
C215 C216 1.523 . S
C216 C197 1.368 . S
C216 C210 1.368 . S
C216 C215 1.523 . S
C217 C201 1.429 . S
C217 C213 1.429 . S
C217 C218 1.523 . S
C218 C202 1.368 . S
C218 C214 1.368 . S
C218 C217 1.523 . S
H219 C194 0.950 . S
H220 C196 0.950 . S
H221 C197 0.949 . S
H222 C199 0.950 . S
H223 C201 0.950 . S
C224 C225 1.349 . S
C224 C226 1.327 . S
C224 H249 0.950 . S
C225 C224 1.349 . S
C225 C241 1.349 . S
C226 C224 1.327 . S
C226 C245 1.429 . S
C226 H250 0.950 . S
C227 C244 1.574 . S
C227 C246 1.368 . S
C227 H251 0.949 . S
H228 C232 0.949 . S
C229 C230 1.349 . S
C229 C231 1.327 . S
C229 H252 0.950 . S
C230 C229 1.349 . S
C230 C242 1.349 . S
C231 C229 1.327 . S
C231 C247 1.429 . S
C231 H253 0.950 . S
C232 H228 0.949 . S
C232 C240 1.574 . S
C232 C248 1.368 . S
H233 C241 0.950 . S
H234 C239 0.950 . S
H235 C240 0.949 . S
H236 C242 0.950 . S
H237 C243 0.950 . S
H238 C244 0.949 . S
C239 H234 0.950 . S
C239 C241 1.327 . S
C239 C245 1.429 . S
C240 C232 1.574 . S
C240 H235 0.949 . S
C240 C246 1.368 . S
C241 C225 1.349 . S
C241 H233 0.950 . S
C241 C239 1.327 . S
C242 C230 1.349 . S
C242 H236 0.950 . S
C242 C243 1.327 . S
C243 H237 0.950 . S
C243 C242 1.327 . S
C243 C247 1.429 . S
C244 C227 1.574 . S
C244 H238 0.949 . S
C244 C248 1.368 . S
C245 C226 1.429 . S
C245 C239 1.429 . S
C245 C246 1.523 . S
C246 C227 1.368 . S
C246 C240 1.368 . S
C246 C245 1.523 . S
C247 C231 1.429 . S
C247 C243 1.429 . S
C247 C248 1.523 . S
C248 C232 1.368 . S
C248 C244 1.368 . S
C248 C247 1.523 . S
H249 C224 0.950 . S
H250 C226 0.950 . S
H251 C227 0.949 . S
H252 C229 0.950 . S
H253 C231 0.950 . S
C254 C255 1.349 . S
C254 C256 1.327 . S
C254 H279 0.950 . S
C255 C254 1.349 . S
C255 C271 1.349 . S
C256 C254 1.327 . S
C256 C275 1.429 . S
C256 H280 0.950 . S
C257 C274 1.574 . S
C257 C276 1.368 . S
C257 H281 0.949 . S
H258 C262 0.949 . S
C259 C260 1.349 . S
C259 C261 1.327 . S
C259 H282 0.950 . S
C260 C259 1.349 . S
C260 C272 1.349 . S
C261 C259 1.327 . S
C261 C277 1.429 . S
C261 H283 0.950 . S
C262 H258 0.949 . S
C262 C270 1.574 . S
C262 C278 1.368 . S
H263 C271 0.950 . S
H264 C269 0.950 . S
H265 C270 0.949 . S
H266 C272 0.950 . S
H267 C273 0.950 . S
H268 C274 0.949 . S
C269 H264 0.950 . S
C269 C271 1.327 . S
C269 C275 1.429 . S
C270 C262 1.574 . S
C270 H265 0.949 . S
C270 C276 1.368 . S
C271 C255 1.349 . S
C271 H263 0.950 . S
C271 C269 1.327 . S
C272 C260 1.349 . S
C272 H266 0.950 . S
C272 C273 1.327 . S
C273 H267 0.950 . S
C273 C272 1.327 . S
C273 C277 1.429 . S
C274 C257 1.574 . S
C274 H268 0.949 . S
C274 C278 1.368 . S
C275 C256 1.429 . S
C275 C269 1.429 . S
C275 C276 1.523 . S
C276 C257 1.368 . S
C276 C270 1.368 . S
C276 C275 1.523 . S
C277 C261 1.429 . S
C277 C273 1.429 . S
C277 C278 1.523 . S
C278 C262 1.368 . S
C278 C274 1.368 . S
C278 C277 1.523 . S
H279 C254 0.950 . S
H280 C256 0.950 . S
H281 C257 0.949 . S
H282 C259 0.950 . S
H283 C261 0.950 . S
C284 C285 1.349 . S
C284 C286 1.327 . S
C284 H309 0.950 . S
C285 C284 1.349 . S
C285 C301 1.349 . S
C286 C284 1.327 . S
C286 C305 1.429 . S
C286 H310 0.950 . S
C287 C304 1.574 . S
C287 C306 1.368 . S
C287 H311 0.949 . S
H288 C292 0.949 . S
C289 C290 1.349 . S
C289 C291 1.327 . S
C289 H312 0.950 . S
C290 C289 1.349 . S
C290 C302 1.349 . S
C291 C289 1.327 . S
C291 C307 1.429 . S
C291 H313 0.950 . S
C292 H288 0.949 . S
C292 C300 1.574 . S
C292 C308 1.368 . S
H293 C301 0.950 . S
H294 C299 0.950 . S
H295 C300 0.949 . S
H296 C302 0.950 . S
H297 C303 0.950 . S
H298 C304 0.949 . S
C299 H294 0.950 . S
C299 C301 1.327 . S
C299 C305 1.429 . S
C300 C292 1.574 . S
C300 H295 0.949 . S
C300 C306 1.368 . S
C301 C285 1.349 . S
C301 H293 0.950 . S
C301 C299 1.327 . S
C302 C290 1.349 . S
C302 H296 0.950 . S
C302 C303 1.327 . S
C303 H297 0.950 . S
C303 C302 1.327 . S
C303 C307 1.429 . S
C304 C287 1.574 . S
C304 H298 0.949 . S
C304 C308 1.368 . S
C305 C286 1.429 . S
C305 C299 1.429 . S
C305 C306 1.523 . S
C306 C287 1.368 . S
C306 C300 1.368 . S
C306 C305 1.523 . S
C307 C291 1.429 . S
C307 C303 1.429 . S
C307 C308 1.523 . S
C308 C292 1.368 . S
C308 C304 1.368 . S
C308 C307 1.523 . S
H309 C284 0.950 . S
H310 C286 0.950 . S
H311 C287 0.949 . S
H312 C289 0.950 . S
H313 C291 0.950 . S
C314 C315 1.349 . S
C314 C316 1.327 . S
C314 H339 0.950 . S
C315 C314 1.349 . S
C315 C331 1.349 . S
C316 C314 1.327 . S
C316 C335 1.429 . S
C316 H340 0.950 . S
C317 C334 1.574 . S
C317 C336 1.368 . S
C317 H341 0.949 . S
H318 C322 0.949 . S
C319 C320 1.349 . S
C319 C321 1.327 . S
C319 H342 0.950 . S
C320 C319 1.349 . S
C320 C332 1.349 . S
C321 C319 1.327 . S
C321 C337 1.429 . S
C321 H343 0.950 . S
C322 H318 0.949 . S
C322 C330 1.574 . S
C322 C338 1.368 . S
H323 C331 0.950 . S
H324 C329 0.950 . S
H325 C330 0.949 . S
H326 C332 0.950 . S
H327 C333 0.950 . S
H328 C334 0.949 . S
C329 H324 0.950 . S
C329 C331 1.327 . S
C329 C335 1.429 . S
C330 C322 1.574 . S
C330 H325 0.949 . S
C330 C336 1.368 . S
C331 C315 1.349 . S
C331 H323 0.950 . S
C331 C329 1.327 . S
C332 C320 1.349 . S
C332 H326 0.950 . S
C332 C333 1.327 . S
C333 H327 0.950 . S
C333 C332 1.327 . S
C333 C337 1.429 . S
C334 C317 1.574 . S
C334 H328 0.949 . S
C334 C338 1.368 . S
C335 C316 1.429 . S
C335 C329 1.429 . S
C335 C336 1.523 . S
C336 C317 1.368 . S
C336 C330 1.368 . S
C336 C335 1.523 . S
C337 C321 1.429 . S
C337 C333 1.429 . S
C337 C338 1.523 . S
C338 C322 1.368 . S
C338 C334 1.368 . S
C338 C337 1.523 . S
H339 C314 0.950 . S
H340 C316 0.950 . S
H341 C317 0.949 . S
H342 C319 0.950 . S
H343 C321 0.950 . S
C344 C345 1.349 1_556 S
C344 C346 1.327 . S
C344 H369 0.950 . S
C345 C344 1.349 1_554 S
C345 C361 1.349 . S
C346 C344 1.327 . S
C346 C365 1.429 1_556 S
C346 H370 0.950 . S
C347 C364 1.574 1_655 S
C347 C366 1.368 . S
C347 H371 0.949 . S
H348 C352 0.949 . S
C349 C350 1.349 . S
C349 C351 1.327 . S
C349 H372 0.950 . S
C350 C349 1.349 . S
C350 C362 1.349 1_554 S
C351 C349 1.327 . S
C351 C367 1.429 . S
C351 H373 0.950 . S
C352 H348 0.949 . S
C352 C360 1.574 1_455 S
C352 C368 1.368 1_556 S
H353 C361 0.950 . S
H354 C359 0.950 . S
H355 C360 0.949 . S
H356 C362 0.950 . S
H357 C363 0.950 . S
H358 C364 0.949 . S
C359 H354 0.950 . S
C359 C361 1.327 . S
C359 C365 1.429 . S
C360 C352 1.574 1_655 S
C360 H355 0.949 . S
C360 C366 1.368 1_556 S
C361 C345 1.349 . S
C361 H353 0.950 . S
C361 C359 1.327 . S
C362 C350 1.349 1_556 S
C362 H356 0.950 . S
C362 C363 1.327 . S
C363 H357 0.950 . S
C363 C362 1.327 . S
C363 C367 1.429 1_556 S
C364 C347 1.574 1_455 S
C364 H358 0.949 . S
C364 C368 1.368 . S
C365 C346 1.429 1_554 S
C365 C359 1.429 . S
C365 C366 1.523 . S
C366 C347 1.368 . S
C366 C360 1.368 1_554 S
C366 C365 1.523 . S
C367 C351 1.429 . S
C367 C363 1.429 1_554 S
C367 C368 1.523 . S
C368 C352 1.368 1_554 S
C368 C364 1.368 . S
C368 C367 1.523 . S
H369 C344 0.950 . S
H370 C346 0.950 . S
H371 C347 0.949 . S
H372 C349 0.950 . S
H373 C351 0.950 . S
C374 C375 1.349 . S
C374 C376 1.327 . S
C374 H399 0.950 . S
C375 C374 1.349 . S
C375 C391 1.349 . S
C376 C374 1.327 . S
C376 C395 1.429 . S
C376 H400 0.950 . S
C377 C394 1.574 1_565 S
C377 C396 1.368 . S
C377 H401 0.949 . S
H378 C382 0.949 . S
C379 C380 1.349 . S
C379 C381 1.327 . S
C379 H402 0.950 . S
C380 C379 1.349 . S
C380 C392 1.349 . S
C381 C379 1.327 . S
C381 C397 1.429 . S
C381 H403 0.950 . S
C382 H378 0.949 . S
C382 C390 1.574 1_545 S
C382 C398 1.368 . S
H383 C391 0.950 . S
H384 C389 0.950 . S
H385 C390 0.949 . S
H386 C392 0.950 . S
H387 C393 0.950 . S
H388 C394 0.949 . S
C389 H384 0.950 . S
C389 C391 1.327 . S
C389 C395 1.429 . S
C390 C382 1.574 1_565 S
C390 H385 0.949 . S
C390 C396 1.368 . S
C391 C375 1.349 . S
C391 H383 0.950 . S
C391 C389 1.327 . S
C392 C380 1.349 . S
C392 H386 0.950 . S
C392 C393 1.327 . S
C393 H387 0.950 . S
C393 C392 1.327 . S
C393 C397 1.429 . S
C394 C377 1.574 1_545 S
C394 H388 0.949 . S
C394 C398 1.368 . S
C395 C376 1.429 . S
C395 C389 1.429 . S
C395 C396 1.523 . S
C396 C377 1.368 . S
C396 C390 1.368 . S
C396 C395 1.523 . S
C397 C381 1.429 . S
C397 C393 1.429 . S
C397 C398 1.523 . S
C398 C382 1.368 . S
C398 C394 1.368 . S
C398 C397 1.523 . S
H399 C374 0.950 . S
H400 C376 0.950 . S
H401 C377 0.949 . S
H402 C379 0.950 . S
H403 C381 0.950 . S
C404 C405 1.349 . S
C404 C406 1.327 . S
C404 H429 0.950 . S
C405 C404 1.349 . S
C405 C421 1.349 . S
C406 C404 1.327 . S
C406 C425 1.429 . S
C406 H430 0.950 . S
C407 C424 1.574 1_455 S
C407 C426 1.368 . S
C407 H431 0.949 . S
H408 C412 0.949 . S
C409 C410 1.349 . S
C409 C411 1.327 . S
C409 H432 0.950 . S
C410 C409 1.349 . S
C410 C422 1.349 . S
C411 C409 1.327 . S
C411 C427 1.429 . S
C411 H433 0.950 . S
C412 H408 0.949 . S
C412 C420 1.574 1_655 S
C412 C428 1.368 . S
H413 C421 0.950 . S
H414 C419 0.950 . S
H415 C420 0.949 . S
H416 C422 0.950 . S
H417 C423 0.950 . S
H418 C424 0.949 . S
C419 H414 0.950 . S
C419 C421 1.327 . S
C419 C425 1.429 . S
C420 C412 1.574 1_455 S
C420 H415 0.949 . S
C420 C426 1.368 . S
C421 C405 1.349 . S
C421 H413 0.950 . S
C421 C419 1.327 . S
C422 C410 1.349 . S
C422 H416 0.950 . S
C422 C423 1.327 . S
C423 H417 0.950 . S
C423 C422 1.327 . S
C423 C427 1.429 . S
C424 C407 1.574 1_655 S
C424 H418 0.949 . S
C424 C428 1.368 . S
C425 C406 1.429 . S
C425 C419 1.429 . S
C425 C426 1.523 . S
C426 C407 1.368 . S
C426 C420 1.368 . S
C426 C425 1.523 . S
C427 C411 1.429 . S
C427 C423 1.429 . S
C427 C428 1.523 . S
C428 C412 1.368 . S
C428 C424 1.368 . S
C428 C427 1.523 . S
H429 C404 0.950 . S
H430 C406 0.950 . S
H431 C407 0.949 . S
H432 C409 0.950 . S
H433 C411 0.950 . S
C434 C435 1.349 . S
C434 C436 1.327 . S
C434 H459 0.950 . S
C435 C434 1.349 . S
C435 C451 1.349 . S
C436 C434 1.327 . S
C436 C455 1.429 . S
C436 H460 0.950 . S
C437 C454 1.574 1_565 S
C437 C456 1.368 . S
C437 H461 0.949 . S
H438 C442 0.949 . S
C439 C440 1.349 . S
C439 C441 1.327 . S
C439 H462 0.950 . S
C440 C439 1.349 . S
C440 C452 1.349 . S
C441 C439 1.327 . S
C441 C457 1.429 . S
C441 H463 0.950 . S
C442 H438 0.949 . S
C442 C450 1.574 1_545 S
C442 C458 1.368 . S
H443 C451 0.950 . S
H444 C449 0.950 . S
H445 C450 0.949 . S
H446 C452 0.950 . S
H447 C453 0.950 . S
H448 C454 0.949 . S
C449 H444 0.950 . S
C449 C451 1.327 . S
C449 C455 1.429 . S
C450 C442 1.574 1_565 S
C450 H445 0.949 . S
C450 C456 1.368 . S
C451 C435 1.349 . S
C451 H443 0.950 . S
C451 C449 1.327 . S
C452 C440 1.349 . S
C452 H446 0.950 . S
C452 C453 1.327 . S
C453 H447 0.950 . S
C453 C452 1.327 . S
C453 C457 1.429 . S
C454 C437 1.574 1_545 S
C454 H448 0.949 . S
C454 C458 1.368 . S
C455 C436 1.429 . S
C455 C449 1.429 . S
C455 C456 1.523 . S
C456 C437 1.368 . S
C456 C450 1.368 . S
C456 C455 1.523 . S
C457 C441 1.429 . S
C457 C453 1.429 . S
C457 C458 1.523 . S
C458 C442 1.368 . S
C458 C454 1.368 . S
C458 C457 1.523 . S
H459 C434 0.950 . S
H460 C436 0.950 . S
H461 C437 0.949 . S
H462 C439 0.950 . S
H463 C441 0.950 . S
C464 C465 1.349 . S
C464 C466 1.327 . S
C464 H489 0.950 . S
C465 C464 1.349 . S
C465 C481 1.349 . S
C466 C464 1.327 . S
C466 C485 1.429 . S
C466 H490 0.950 . S
C467 C484 1.574 . S
C467 C486 1.368 . S
C467 H491 0.949 1_554 S
H468 C472 0.949 . S
C469 C470 1.349 . S
C469 C471 1.327 . S
C469 H492 0.950 1_554 S
C470 C469 1.349 . S
C470 C482 1.349 . S
C471 C469 1.327 . S
C471 C487 1.429 . S
C471 H493 0.950 1_554 S
C472 H468 0.949 . S
C472 C480 1.574 . S
C472 C488 1.368 . S
H473 C481 0.950 1_556 S
H474 C479 0.950 1_556 S
H475 C480 0.949 . S
H476 C482 0.950 . S
H477 C483 0.950 . S
H478 C484 0.949 1_556 S
C479 H474 0.950 1_554 S
C479 C481 1.327 . S
C479 C485 1.429 . S
C480 C472 1.574 . S
C480 H475 0.949 . S
C480 C486 1.368 . S
C481 C465 1.349 . S
C481 H473 0.950 1_554 S
C481 C479 1.327 . S
C482 C470 1.349 . S
C482 H476 0.950 . S
C482 C483 1.327 . S
C483 H477 0.950 . S
C483 C482 1.327 . S
C483 C487 1.429 . S
C484 C467 1.574 . S
C484 H478 0.949 1_554 S
C484 C488 1.368 . S
C485 C466 1.429 . S
C485 C479 1.429 . S
C485 C486 1.523 . S
C486 C467 1.368 . S
C486 C480 1.368 . S
C486 C485 1.523 . S
C487 C471 1.429 . S
C487 C483 1.429 . S
C487 C488 1.523 . S
C488 C472 1.368 . S
C488 C484 1.368 . S
C488 C487 1.523 . S
H489 C464 0.950 . S
H490 C466 0.950 . S
H491 C467 0.949 1_556 S
H492 C469 0.950 1_556 S
H493 C471 0.950 1_556 S
C494 C495 1.349 . S
C494 C496 1.327 . S
C494 H519 0.950 . S
C495 C494 1.349 . S
C495 C511 1.349 . S
C496 C494 1.327 . S
C496 C515 1.429 . S
C496 H520 0.950 . S
C497 C514 1.574 . S
C497 C516 1.368 . S
C497 H521 0.949 . S
H498 C502 0.949 . S
C499 C500 1.349 . S
C499 C501 1.327 . S
C499 H522 0.950 . S
C500 C499 1.349 . S
C500 C512 1.349 . S
C501 C499 1.327 . S
C501 C517 1.429 . S
C501 H523 0.950 . S
C502 H498 0.949 . S
C502 C510 1.574 . S
C502 C518 1.368 . S
H503 C511 0.950 . S
H504 C509 0.950 . S
H505 C510 0.949 . S
H506 C512 0.950 . S
H507 C513 0.950 . S
H508 C514 0.949 . S
C509 H504 0.950 . S
C509 C511 1.327 . S
C509 C515 1.429 . S
C510 C502 1.574 . S
C510 H505 0.949 . S
C510 C516 1.368 . S
C511 C495 1.349 . S
C511 H503 0.950 . S
C511 C509 1.327 . S
C512 C500 1.349 . S
C512 H506 0.950 . S
C512 C513 1.327 . S
C513 H507 0.950 . S
C513 C512 1.327 . S
C513 C517 1.429 . S
C514 C497 1.574 . S
C514 H508 0.949 . S
C514 C518 1.368 . S
C515 C496 1.429 . S
C515 C509 1.429 . S
C515 C516 1.523 . S
C516 C497 1.368 . S
C516 C510 1.368 . S
C516 C515 1.523 . S
C517 C501 1.429 . S
C517 C513 1.429 . S
C517 C518 1.523 . S
C518 C502 1.368 . S
C518 C514 1.368 . S
C518 C517 1.523 . S
H519 C494 0.950 . S
H520 C496 0.950 . S
H521 C497 0.949 . S
H522 C499 0.950 . S
H523 C501 0.950 . S
C524 C525 1.349 . S
C524 C526 1.327 . S
C524 H549 0.950 . S
C525 C524 1.349 . S
C525 C541 1.349 . S
C526 C524 1.327 . S
C526 C545 1.429 . S
C526 H550 0.950 . S
C527 C544 1.574 . S
C527 C546 1.368 . S
C527 H551 0.949 1_554 S
H528 C532 0.949 . S
C529 C530 1.349 . S
C529 C531 1.327 . S
C529 H552 0.950 1_554 S
C530 C529 1.349 . S
C530 C542 1.349 . S
C531 C529 1.327 . S
C531 C547 1.429 . S
C531 H553 0.950 1_554 S
C532 H528 0.949 . S
C532 C540 1.574 . S
C532 C548 1.368 . S
H533 C541 0.950 1_556 S
H534 C539 0.950 1_556 S
H535 C540 0.949 . S
H536 C542 0.950 . S
H537 C543 0.950 . S
H538 C544 0.949 1_556 S
C539 H534 0.950 1_554 S
C539 C541 1.327 . S
C539 C545 1.429 . S
C540 C532 1.574 . S
C540 H535 0.949 . S
C540 C546 1.368 . S
C541 C525 1.349 . S
C541 H533 0.950 1_554 S
C541 C539 1.327 . S
C542 C530 1.349 . S
C542 H536 0.950 . S
C542 C543 1.327 . S
C543 H537 0.950 . S
C543 C542 1.327 . S
C543 C547 1.429 . S
C544 C527 1.574 . S
C544 H538 0.949 1_554 S
C544 C548 1.368 . S
C545 C526 1.429 . S
C545 C539 1.429 . S
C545 C546 1.523 . S
C546 C527 1.368 . S
C546 C540 1.368 . S
C546 C545 1.523 . S
C547 C531 1.429 . S
C547 C543 1.429 . S
C547 C548 1.523 . S
C548 C532 1.368 . S
C548 C544 1.368 . S
C548 C547 1.523 . S
H549 C524 0.950 . S
H550 C526 0.950 . S
H551 C527 0.949 1_556 S
H552 C529 0.950 1_556 S
H553 C531 0.950 1_556 S
C554 C555 1.349 . S
C554 C556 1.327 . S
C554 H579 0.950 . S
C555 C554 1.349 . S
C555 C571 1.349 . S
C556 C554 1.327 . S
C556 C575 1.429 . S
C556 H580 0.950 . S
C557 C574 1.574 . S
C557 C576 1.368 . S
C557 H581 0.949 . S
H558 C562 0.949 . S
C559 C560 1.349 . S
C559 C561 1.327 . S
C559 H582 0.950 . S
C560 C559 1.349 . S
C560 C572 1.349 . S
C561 C559 1.327 . S
C561 C577 1.429 . S
C561 H583 0.950 . S
C562 H558 0.949 . S
C562 C570 1.574 . S
C562 C578 1.368 . S
H563 C571 0.950 . S
H564 C569 0.950 . S
H565 C570 0.949 . S
H566 C572 0.950 . S
H567 C573 0.950 . S
H568 C574 0.949 . S
C569 H564 0.950 . S
C569 C571 1.327 . S
C569 C575 1.429 . S
C570 C562 1.574 . S
C570 H565 0.949 . S
C570 C576 1.368 . S
C571 C555 1.349 . S
C571 H563 0.950 . S
C571 C569 1.327 . S
C572 C560 1.349 . S
C572 H566 0.950 . S
C572 C573 1.327 . S
C573 H567 0.950 . S
C573 C572 1.327 . S
C573 C577 1.429 . S
C574 C557 1.574 . S
C574 H568 0.949 . S
C574 C578 1.368 . S
C575 C556 1.429 . S
C575 C569 1.429 . S
C575 C576 1.523 . S
C576 C557 1.368 . S
C576 C570 1.368 . S
C576 C575 1.523 . S
C577 C561 1.429 . S
C577 C573 1.429 . S
C577 C578 1.523 . S
C578 C562 1.368 . S
C578 C574 1.368 . S
C578 C577 1.523 . S
H579 C554 0.950 . S
H580 C556 0.950 . S
H581 C557 0.949 . S
H582 C559 0.950 . S
H583 C561 0.950 . S
C105 C10 1.618 . S
C110 C62 1.618 . S
C135 C17 1.618 . S
C140 C69 1.618 . S
C165 C88 1.618 . S
C170 C36 1.618 . S
C195 C95 1.618 . S
C200 C49 1.618 . S
C225 C81 0.876 . S
C230 C29 0.876 . S
C255 C96 0.876 . S
C260 C42 0.876 . S
C285 C3 0.876 . S
C290 C55 0.876 . S
C315 C18 0.876 . S
C320 C70 0.876 . S
C345 C31 1.413 . S
C350 C5 1.413 . S
C375 C44 1.413 . S
C380 C16 1.413 . S
C405 C57 1.413 . S
C410 C83 1.413 . S
C435 C94 1.413 . S
C440 C68 1.413 . S
C465 C4 1.393 . S
C470 C75 1.393 . S
C495 C82 1.393 . S
C500 C23 1.393 . S
C525 C30 1.393 . S
C530 C101 1.393 . S
C555 C43 1.393 . S
C560 C56 1.393 . S
