# Generated by pormake.
# Topology uni, (4)-cn, num edge types: 1
# Building blocks:
#     Node 0, Type 0, BuildingBlock: GALJAG_clean_sbu_0, # of connection points: 4
#     Node 1, Type 0, BuildingBlock: GALJAG_clean_sbu_0, # of connection points: 4
#     Node 2, Type 0, BuildingBlock: GALJAG_clean_sbu_0, # of connection points: 4
#     Node 3, Type 0, BuildingBlock: GALJAG_clean_sbu_0, # of connection points: 4
#     Node 4, Type 0, BuildingBlock: GALJAG_clean_sbu_0, # of connection points: 4
#     Node 5, Type 0, BuildingBlock: GALJAG_clean_sbu_0, # of connection points: 4
#     Edge 6, Type (0, 0), BuildingBlock: KIFKEQ_clean_linker_1, # of connection points: 2
#     Edge 7, Type (0, 0), BuildingBlock: KIFKEQ_clean_linker_1, # of connection points: 2
#     Edge 8, Type (0, 0), BuildingBlock: KIFKEQ_clean_linker_1, # of connection points: 2
#     Edge 9, Type (0, 0), BuildingBlock: KIFKEQ_clean_linker_1, # of connection points: 2
#     Edge 10, Type (0, 0), BuildingBlock: KIFKEQ_clean_linker_1, # of connection points: 2
#     Edge 11, Type (0, 0), BuildingBlock: KIFKEQ_clean_linker_1, # of connection points: 2
#     Edge 12, Type (0, 0), BuildingBlock: KIFKEQ_clean_linker_1, # of connection points: 2
#     Edge 13, Type (0, 0), BuildingBlock: KIFKEQ_clean_linker_1, # of connection points: 2
#     Edge 14, Type (0, 0), BuildingBlock: KIFKEQ_clean_linker_1, # of connection points: 2
#     Edge 15, Type (0, 0), BuildingBlock: KIFKEQ_clean_linker_1, # of connection points: 2
#     Edge 16, Type (0, 0), BuildingBlock: KIFKEQ_clean_linker_1, # of connection points: 2
#     Edge 17, Type (0, 0), BuildingBlock: KIFKEQ_clean_linker_1, # of connection points: 2
# Relax obj value: 0.070
# Max RMSD: 0.134
# Mean RMSD: 0.134
data_MOF--net-uni--node1-GALJAG_clean_sbu_0--edge1-KIFKEQ_clean_linker_1
_symmetry_space_group_name_H-M    P1
_symmetry_Int_Tables_number       1
_symmetry_cell_setting            triclinic
loop_
_symmetry_equiv_pos_as_xyz
'x, y, z'
_cell_length_a     38.19463
_cell_length_b     38.264499
_cell_length_c     25.79166
_cell_angle_alpha  90.102362
_cell_angle_beta   89.914123
_cell_angle_gamma 120.12978
loop_
_atom_site_label
_atom_site_type_symbol
_atom_site_fract_x
_atom_site_fract_y
_atom_site_fract_z
_atom_type_partial_charge
In0 In 0.63152 0.0135 0.05475 0.0
O1 O 0.60861 0.99222 0.97289 0.0
O2 O 0.593 0.0328 0.00796 0.0
C3 C 0.63659 0.94794 0.08249 0.0
C4 C 0.70591 0.07437 0.02853 0.0
C5 C 0.59219 0.02089 0.13759 0.0
O6 O 0.60787 0.94576 0.05611 0.0
O7 O 0.66329 0.98338 0.09466 0.0
O8 O 0.62744 0.04799 0.12495 0.0
O9 O 0.57657 0.99059 0.10789 0.0
C10 C 0.59076 0.01222 0.96848 0.0
O11 O 0.68891 0.07408 0.07064 0.0
O12 O 0.68576 0.04375 1.00031 0.0
In13 In 0.63318 0.62567 0.22056 0.0
O14 O 0.63408 0.61176 0.13439 0.0
O15 O 0.57946 0.57632 0.17612 0.0
C16 C 0.70498 0.63251 0.2465 0.0
C17 C 0.63598 0.69583 0.19683 0.0
C18 C 0.59099 0.58869 0.307 0.0
O19 O 0.6825 0.60875 0.21158 0.0
O20 O 0.69142 0.65292 0.26789 0.0
O21 O 0.60731 0.62633 0.30014 0.0
O22 O 0.59582 0.56973 0.27021 0.0
C23 C 0.59769 0.58351 0.13324 0.0
O24 O 0.60423 0.66505 0.2126 0.0
O25 O 0.66643 0.69136 0.19342 0.0
In26 In 0.02235 0.62688 0.38481 0.0
O27 O 0.04873 0.62402 0.30673 0.0
O28 O 1.00194 0.56889 0.33782 0.0
C29 C 0.08579 0.70036 0.40885 0.0
C30 C 0.96049 0.63846 0.35834 0.0
C31 C 0.01694 0.58266 0.46958 0.0
O32 O 0.08947 0.6736 0.38506 0.0
O33 O 0.0498 0.69047 0.41997 0.0
O34 O 0.9865 0.5821 0.44973 0.0
O35 O 0.04973 0.60468 0.44604 0.0
C36 C 0.02615 0.58646 0.30081 0.0
O37 O 0.96465 0.62853 0.40357 0.0
O38 O 0.98801 0.64351 0.32701 0.0
In39 In 0.40871 0.0155 0.55525 0.0
O40 O 0.36256 0.94824 0.55601 0.0
O41 O 0.3441 0.98693 0.52262 0.0
C42 C 0.44801 0.0109 0.63958 0.0
C43 C 0.45367 0.02129 0.47095 0.0
C44 C 0.40046 0.07948 0.58132 0.0
O45 O 0.41 0.99449 0.63723 0.0
O46 O 0.46648 0.02927 0.59889 0.0
O47 O 0.40413 0.07148 0.53479 0.0
O48 O 0.40022 0.05495 0.614 0.0
C49 C 0.33497 0.95123 0.53349 0.0
O50 O 0.45315 0.05148 0.48985 0.0
O51 O 0.4323 0.98872 0.49513 0.0
In52 In 0.40772 0.40377 0.72022 0.0
O53 O 0.43248 0.36039 0.71922 0.0
O54 O 0.3765 0.34167 0.68148 0.0
C55 C 0.45014 0.4408 0.80655 0.0
C56 C 0.44471 0.44622 0.63381 0.0
C57 C 0.33603 0.397 0.74707 0.0
O58 O 0.43216 0.40295 0.80063 0.0
O59 O 0.44672 0.45995 0.76893 0.0
O60 O 0.36029 0.42342 0.71584 0.0
O61 O 0.3478 0.3739 0.76457 0.0
C62 C 0.40355 0.33343 0.69323 0.0
O63 O 0.40723 0.4213 0.63577 0.0
O64 O 0.46349 0.45002 0.67553 0.0
In65 In 0.01686 0.40053 0.88418 0.0
O66 O 0.07469 0.39892 0.90231 0.0
O67 O 0.05191 0.38486 0.82565 0.0
C68 C 0.02014 0.44544 0.9672 0.0
C69 C 0.01135 0.44157 0.80229 0.0
C70 C 0.95596 0.32589 0.90924 0.0
O71 O 0.05126 0.44743 0.94725 0.0
O72 O 0.98748 0.42164 0.94444 0.0
O73 O 0.95279 0.34721 0.87443 0.0
O74 O 0.99014 0.34184 0.93089 0.0
C75 C 0.07922 0.38955 0.85695 0.0
O76 O 0.98712 0.40444 0.8095 0.0
O77 O 0.03798 0.45835 0.837 0.0
H78 H 0.62079 0.08148 0.20982 0.0
H79 H 0.51704 0.96562 0.17233 0.0
H80 H 0.58828 0.08296 0.29086 0.0
H81 H 0.48428 0.9674 0.25261 0.0
H82 H 0.45918 0.96002 0.42548 0.0
H83 H 0.49297 0.96164 0.34468 0.0
H84 H 0.53142 0.08811 0.32636 0.0
H85 H 0.4981 0.08662 0.4081 0.0
C86 C 0.59089 0.05654 0.21866 0.0
C87 C 0.57154 0.02334 0.18485 0.0
C88 C 0.5722 0.05745 0.26497 0.0
C89 C 0.53382 0.02514 0.27844 0.0
C90 C 0.51416 0.99243 0.2439 0.0
C91 C 0.53281 0.99154 0.19769 0.0
C92 C 0.475 0.98824 0.40436 0.0
C93 C 0.47592 0.02318 0.42308 0.0
C94 C 0.49411 0.98909 0.35781 0.0
C95 C 0.51458 0.0249 0.32875 0.0
C96 C 0.51615 0.0601 0.34797 0.0
C97 C 0.49697 0.05924 0.39468 0.0
H98 H 0.5438 0.50776 0.32397 0.0
H99 H 0.58732 0.62392 0.39737 0.0
H100 H 0.50737 0.47412 0.40321 0.0
H101 H 0.55101 0.59018 0.47674 0.0
H102 H 0.52188 0.50934 0.62407 0.0
H103 H 0.55639 0.54464 0.54458 0.0
H104 H 0.44835 0.46813 0.45643 0.0
H105 H 0.41371 0.43295 0.53592 0.0
C106 C 0.5455 0.52608 0.35701 0.0
C107 C 0.5684 0.56844 0.35457 0.0
C108 C 0.5245 0.50684 0.40221 0.0
C109 C 0.5264 0.52957 0.44605 0.0
C110 C 0.54929 0.57194 0.44361 0.0
C111 C 0.56989 0.59121 0.39816 0.0
C112 C 0.50547 0.5002 0.58774 0.0
C113 C 0.46515 0.4684 0.58611 0.0
C114 C 0.52515 0.52052 0.54235 0.0
C115 C 0.50503 0.50904 0.49441 0.0
C116 C 0.46465 0.47735 0.49284 0.0
C117 C 0.4448 0.45739 0.53832 0.0
H118 H 0.95658 0.41141 0.72323 0.0
H119 H 0.06345 0.5199 0.7749 0.0
H120 H 0.95708 0.44519 0.64282 0.0
H121 H 0.06366 0.55389 0.69477 0.0
H122 H 0.07946 0.58342 0.52129 0.0
H123 H 0.07681 0.54969 0.60253 0.0
H124 H 0.94727 0.49971 0.60894 0.0
H125 H 0.94989 0.53313 0.52714 0.0
C126 C 0.97995 0.44261 0.71761 0.0
C127 C 0.01005 0.46299 0.7553 0.0
C128 C 0.98014 0.46201 0.67163 0.0
C129 C 0.01053 0.50216 0.66227 0.0
C130 C 0.04018 0.52275 0.70048 0.0
C131 C 0.0399 0.50339 0.74653 0.0
C132 C 0.05039 0.5651 0.53992 0.0
C133 C 0.01487 0.56088 0.51782 0.0
C134 C 0.04891 0.54604 0.58669 0.0
C135 C 0.01187 0.52222 0.61238 0.0
C136 C 0.97625 0.5176 0.58991 0.0
C137 C 0.97775 0.53682 0.54316 0.0
H138 H 0.5398 0.04208 0.95394 0.0
H139 H 0.59448 0.98194 0.87439 0.0
H140 H 0.50528 0.04156 0.87376 0.0
H141 H 0.56026 0.98173 0.79437 0.0
H142 H 0.52785 0.03381 0.65099 0.0
H143 H 0.56262 0.03426 0.73091 0.0
H144 H 0.45039 0.98766 0.81562 0.0
H145 H 0.41559 0.98688 0.73589 0.0
C146 C 0.54445 0.02881 0.91935 0.0
C147 C 0.56973 0.01199 0.92038 0.0
C148 C 0.5246 0.02837 0.8736 0.0
C149 C 0.53017 0.01163 0.82792 0.0
C150 C 0.55571 0.99512 0.82891 0.0
C151 C 0.57508 0.99505 0.87477 0.0
C152 C 0.51064 0.02354 0.68667 0.0
C153 C 0.46904 0.01024 0.68724 0.0
C154 C 0.53047 0.02369 0.73229 0.0
C155 C 0.50917 0.01112 0.77941 0.0
C156 C 0.46759 0.99788 0.77993 0.0
C157 C 0.44767 0.99719 0.73424 0.0
H158 H 0.62767 0.59929 0.03451 0.0
H159 H 0.52209 0.5178 0.12377 0.0
H160 H 0.59315 0.56403 0.95497 0.0
H161 H 0.48759 0.48272 0.04434 0.0
H162 H 0.4548 0.4057 0.89635 0.0
H163 H 0.49193 0.43942 0.97518 0.0
H164 H 0.53439 0.55549 0.90256 0.0
H165 H 0.49741 0.52181 0.8237 0.0
C166 C 0.59718 0.57376 0.03714 0.0
C167 C 0.57755 0.56132 0.08532 0.0
C168 C 0.57735 0.55373 0.99161 0.0
C169 C 0.53764 0.52066 0.99343 0.0
C170 C 0.51831 0.50784 0.04176 0.0
C171 C 0.538 0.52806 0.0872 0.0
C172 C 0.47215 0.43841 0.89721 0.0
C173 C 0.47315 0.46113 0.85393 0.0
C174 C 0.49325 0.4577 0.94239 0.0
C175 C 0.51606 0.5001 0.94504 0.0
C176 C 0.51743 0.52278 0.90149 0.0
C177 C 0.49606 0.5035 0.85647 0.0
H178 H 0.95658 0.44167 0.02056 0.0
H179 H 0.08696 0.49848 0.02226 0.0
H180 H 0.95875 0.4756 0.10175 0.0
H181 H 0.08911 0.53202 0.10378 0.0
H182 H 0.07751 0.61814 0.21859 0.0
H183 H 0.07627 0.58461 0.13754 0.0
H184 H 0.97477 0.47357 0.19388 0.0
H185 H 0.97573 0.50731 0.27485 0.0
C186 C 0.9857 0.4615 0.03821 0.0
C187 C 0.02161 0.46748 0.01502 0.0
C188 C 0.98692 0.48067 0.08492 0.0
C189 C 0.02409 0.50634 0.10934 0.0
C190 C 0.06003 0.51271 0.08572 0.0
C191 C 0.05879 0.49341 0.03911 0.0
C192 C 0.05507 0.58651 0.21378 0.0
C193 C 0.02669 0.56534 0.25304 0.0
C194 C 0.05446 0.56727 0.16742 0.0
C195 C 0.02534 0.52647 0.1592 0.0
C196 C 0.99724 0.50518 0.19877 0.0
C197 C 0.99797 0.52439 0.24527 0.0
H198 H 0.7009 0.76589 0.16229 0.0
H199 H 0.57356 0.71111 0.19811 0.0
H200 H 0.70197 0.82747 0.13474 0.0
H201 H 0.57475 0.77279 0.17136 0.0
H202 H 0.5811 0.86943 0.06209 0.0
H203 H 0.5819 0.8092 0.09062 0.0
H204 H 0.69545 0.88404 0.16933 0.0
H205 H 0.69492 0.94454 0.14002 0.0
C206 C 0.67322 0.76712 0.16458 0.0
C207 C 0.63711 0.73367 0.18217 0.0
C208 C 0.67388 0.80244 0.14906 0.0
C209 C 0.63841 0.80493 0.15066 0.0
C210 C 0.60244 0.7716 0.16893 0.0
C211 C 0.60181 0.73636 0.18455 0.0
C212 C 0.6063 0.87305 0.08537 0.0
C213 C 0.63794 0.91168 0.09889 0.0
C214 C 0.60662 0.83853 0.10201 0.0
C215 C 0.63861 0.84184 0.13251 0.0
C216 C 0.67054 0.88052 0.14553 0.0
C217 C 0.67017 0.91513 0.12894 0.0
H218 H 0.94135 0.6508 0.26092 0.0
H219 H 0.89928 0.63248 0.41951 0.0
H220 H 0.88054 0.65142 0.23335 0.0
H221 H 0.83833 0.63291 0.39184 0.0
H222 H 0.75359 0.67525 0.32746 0.0
H223 H 0.81683 0.67935 0.35444 0.0
H224 H 0.80681 0.60083 0.22782 0.0
H225 H 0.74363 0.59683 0.20069 0.0
C226 C 0.91924 0.64718 0.28993 0.0
C227 C 0.92501 0.64154 0.34237 0.0
C228 C 0.88432 0.64727 0.27408 0.0
C229 C 0.8546 0.64202 0.31039 0.0
C230 C 0.86086 0.63735 0.36303 0.0
C231 C 0.89566 0.63696 0.37884 0.0
C232 C 0.76498 0.65898 0.30529 0.0
C233 C 0.74369 0.63569 0.26198 0.0
C234 C 0.80106 0.66118 0.32091 0.0
C235 C 0.81675 0.64042 0.29326 0.0
C236 C 0.79567 0.61751 0.24956 0.0
C237 C 0.75942 0.61504 0.2342 0.0
H238 H 0.08635 0.764 0.4586 0.0
H239 H 0.1652 0.72392 0.39569 0.0
H240 H 0.14558 0.82598 0.49 0.0
H241 H 0.22398 0.78555 0.42679 0.0
H242 H 0.31337 0.87237 0.54507 0.0
H243 H 0.25201 0.81301 0.51452 0.0
H244 H 0.20777 0.88939 0.45611 0.0
H245 H 0.2695 0.9492 0.48693 0.0
C246 C 0.11629 0.76858 0.45116 0.0
C247 C 0.12117 0.73907 0.42492 0.0
C248 C 0.15012 0.80405 0.46897 0.0
C249 C 0.18932 0.81036 0.46127 0.0
C250 C 0.1941 0.7812 0.43402 0.0
C251 C 0.16043 0.74602 0.41594 0.0
C252 C 0.29048 0.87656 0.52605 0.0
C253 C 0.29631 0.91544 0.51817 0.0
C254 C 0.25545 0.84257 0.50827 0.0
C255 C 0.22532 0.84662 0.48247 0.0
C256 C 0.23047 0.8854 0.47601 0.0
C257 C 0.2658 0.91957 0.49349 0.0
H258 H 0.35083 0.27684 0.62514 0.0
H259 H 0.45276 0.3049 0.72421 0.0
H260 H 0.34883 0.21472 0.5972 0.0
H261 H 0.45066 0.24282 0.69637 0.0
H262 H 0.40324 0.10697 0.67932 0.0
H263 H 0.40301 0.16798 0.70608 0.0
H264 H 0.39324 0.19487 0.54602 0.0
H265 H 0.39355 0.1336 0.51902 0.0
C266 C 0.37272 0.26967 0.64101 0.0
C267 C 0.4019 0.29562 0.67694 0.0
C268 C 0.37171 0.23429 0.62478 0.0
C269 C 0.39954 0.22397 0.64467 0.0
C270 C 0.42858 0.24985 0.68079 0.0
C271 C 0.42988 0.28543 0.69656 0.0
C272 C 0.40086 0.12577 0.6498 0.0
C273 C 0.39847 0.11557 0.59705 0.0
C274 C 0.40097 0.16082 0.66515 0.0
C275 C 0.3983 0.18624 0.62812 0.0
C276 C 0.39509 0.17566 0.57538 0.0
C277 C 0.39541 0.14073 0.55995 0.0
H278 H 0.10105 0.38174 0.75883 0.0
H279 H 0.13807 0.39145 0.91888 0.0
H280 H 0.16226 0.38154 0.73173 0.0
H281 H 0.1993 0.39122 0.8917 0.0
H282 H 0.28417 0.34963 0.82306 0.0
H283 H 0.22054 0.34518 0.84951 0.0
H284 H 0.2368 0.43255 0.73228 0.0
H285 H 0.30038 0.43705 0.70585 0.0
C286 C 0.12211 0.3835 0.78823 0.0
C287 C 0.11485 0.38668 0.84097 0.0
C288 C 0.15724 0.38364 0.77268 0.0
C289 C 0.1856 0.38653 0.80959 0.0
C290 C 0.17782 0.38866 0.86244 0.0
C291 C 0.14287 0.38894 0.87796 0.0
C292 C 0.27407 0.36779 0.80287 0.0
C293 C 0.29721 0.39371 0.76242 0.0
C294 C 0.23778 0.36536 0.81817 0.0
C295 C 0.22372 0.38847 0.79291 0.0
C296 C 0.24668 0.41406 0.75208 0.0
C297 C 0.28317 0.4168 0.73715 0.0
H298 H 0.88328 0.28204 0.8607 0.0
H299 H 0.95089 0.28114 0.99431 0.0
H300 H 0.82475 0.21916 0.88998 0.0
H301 H 0.89211 0.21816 0.02372 0.0
H302 H 0.75902 0.13956 0.08622 0.0
H303 H 0.82176 0.19856 0.05674 0.0
H304 H 0.80378 0.14589 0.90398 0.0
H305 H 0.74123 0.08692 0.93339 0.0
C306 C 0.88572 0.26821 0.8961 0.0
C307 C 0.92161 0.28647 0.92525 0.0
C308 C 0.85228 0.23214 0.91273 0.0
C309 C 0.8539 0.21383 0.95914 0.0
C310 C 0.88997 0.23182 0.98799 0.0
C311 C 0.92362 0.26768 0.97101 0.0
C312 C 0.7687 0.14046 0.0465 0.0
C313 C 0.74521 0.10874 0.01205 0.0
C314 C 0.80466 0.1741 0.02971 0.0
C315 C 0.81752 0.17683 0.97803 0.0
C316 C 0.79438 0.14473 0.9439 0.0
C317 C 0.75871 0.11092 0.96082 0.0
loop_
_geom_bond_atom_site_label_1
_geom_bond_atom_site_label_2
_geom_bond_distance
_geom_bond_site_symmetry_2
_ccdc_geom_bond_type
In0 O1 2.294 1_544 S
In0 O2 2.326 1_554 S
In0 O6 2.266 1_545 S
In0 O7 2.326 1_545 S
In0 O8 2.266 . S
In0 O9 2.326 1_545 S
In0 O11 2.294 . S
In0 O12 2.326 1_554 S
O1 In0 2.294 1_566 S
O1 C10 1.240 1_565 S
O2 In0 2.326 1_556 S
O2 C10 1.252 . S
C3 O6 1.252 . S
C3 O7 1.260 . S
C4 O11 1.240 . S
C4 O12 1.252 1_554 S
C5 O8 1.252 . S
C5 O9 1.260 1_545 S
O6 In0 2.266 1_565 S
O6 C3 1.252 . S
O7 In0 2.326 1_565 S
O7 C3 1.260 . S
O8 In0 2.266 . S
O8 C5 1.252 . S
O9 In0 2.326 1_565 S
O9 C5 1.260 1_565 S
C10 O1 1.240 1_545 S
C10 O2 1.252 . S
O11 In0 2.294 . S
O11 C4 1.240 . S
O12 In0 2.326 1_556 S
O12 C4 1.252 1_556 S
In13 O14 2.294 . S
In13 O15 2.326 . S
In13 O19 2.266 . S
In13 O20 2.326 . S
In13 O21 2.266 . S
In13 O22 2.326 . S
In13 O24 2.294 . S
In13 O25 2.326 . S
O14 In13 2.294 . S
O14 C23 1.240 . S
O15 In13 2.326 . S
O15 C23 1.252 . S
C16 O19 1.252 . S
C16 O20 1.260 . S
C17 O24 1.240 . S
C17 O25 1.252 . S
C18 O21 1.252 . S
C18 O22 1.260 . S
O19 In13 2.266 . S
O19 C16 1.252 . S
O20 In13 2.326 . S
O20 C16 1.260 . S
O21 In13 2.266 . S
O21 C18 1.252 . S
O22 In13 2.326 . S
O22 C18 1.260 . S
C23 O14 1.240 . S
C23 O15 1.252 . S
O24 In13 2.294 . S
O24 C17 1.240 . S
O25 In13 2.326 . S
O25 C17 1.252 . S
In26 O27 2.294 . S
In26 O28 2.326 1_455 S
In26 O32 2.266 . S
In26 O33 2.326 . S
In26 O34 2.266 1_455 S
In26 O35 2.326 . S
In26 O37 2.294 1_455 S
In26 O38 2.326 1_455 S
O27 In26 2.294 . S
O27 C36 1.240 . S
O28 In26 2.326 1_655 S
O28 C36 1.252 1_655 S
C29 O32 1.252 . S
C29 O33 1.260 . S
C30 O37 1.240 . S
C30 O38 1.252 . S
C31 O34 1.252 1_455 S
C31 O35 1.260 . S
O32 In26 2.266 . S
O32 C29 1.252 . S
O33 In26 2.326 . S
O33 C29 1.260 . S
O34 In26 2.266 1_655 S
O34 C31 1.252 1_655 S
O35 In26 2.326 . S
O35 C31 1.260 . S
C36 O27 1.240 . S
C36 O28 1.252 1_455 S
O37 In26 2.294 1_655 S
O37 C30 1.240 . S
O38 In26 2.326 1_655 S
O38 C30 1.252 . S
In39 O40 2.294 1_545 S
In39 O41 2.326 1_545 S
In39 O45 2.266 1_545 S
In39 O46 2.326 . S
In39 O47 2.266 . S
In39 O48 2.326 . S
In39 O50 2.294 . S
In39 O51 2.326 1_545 S
O40 In39 2.294 1_565 S
O40 C49 1.240 . S
O41 In39 2.326 1_565 S
O41 C49 1.252 . S
C42 O45 1.252 1_545 S
C42 O46 1.260 . S
C43 O50 1.240 . S
C43 O51 1.252 1_545 S
C44 O47 1.252 . S
C44 O48 1.260 . S
O45 In39 2.266 1_565 S
O45 C42 1.252 1_565 S
O46 In39 2.326 . S
O46 C42 1.260 . S
O47 In39 2.266 . S
O47 C44 1.252 . S
O48 In39 2.326 . S
O48 C44 1.260 . S
C49 O40 1.240 . S
C49 O41 1.252 . S
O50 In39 2.294 . S
O50 C43 1.240 . S
O51 In39 2.326 1_565 S
O51 C43 1.252 1_565 S
In52 O53 2.294 . S
In52 O54 2.326 . S
In52 O58 2.266 . S
In52 O59 2.326 . S
In52 O60 2.266 . S
In52 O61 2.326 . S
In52 O63 2.294 . S
In52 O64 2.326 . S
O53 In52 2.294 . S
O53 C62 1.240 . S
O54 In52 2.326 . S
O54 C62 1.252 . S
C55 O58 1.252 . S
C55 O59 1.260 . S
C56 O63 1.240 . S
C56 O64 1.252 . S
C57 O60 1.252 . S
C57 O61 1.260 . S
O58 In52 2.266 . S
O58 C55 1.252 . S
O59 In52 2.326 . S
O59 C55 1.260 . S
O60 In52 2.266 . S
O60 C57 1.252 . S
O61 In52 2.326 . S
O61 C57 1.260 . S
C62 O53 1.240 . S
C62 O54 1.252 . S
O63 In52 2.294 . S
O63 C56 1.240 . S
O64 In52 2.326 . S
O64 C56 1.252 . S
In65 O66 2.294 . S
In65 O67 2.326 . S
In65 O71 2.266 . S
In65 O72 2.326 1_455 S
In65 O73 2.266 1_455 S
In65 O74 2.326 1_455 S
In65 O76 2.294 1_455 S
In65 O77 2.326 . S
O66 In65 2.294 . S
O66 C75 1.240 . S
O67 In65 2.326 . S
O67 C75 1.252 . S
C68 O71 1.252 . S
C68 O72 1.260 1_455 S
C69 O76 1.240 1_455 S
C69 O77 1.252 . S
C70 O73 1.252 . S
C70 O74 1.260 . S
O71 In65 2.266 . S
O71 C68 1.252 . S
O72 In65 2.326 1_655 S
O72 C68 1.260 1_655 S
O73 In65 2.266 1_655 S
O73 C70 1.252 . S
O74 In65 2.326 1_655 S
O74 C70 1.260 . S
C75 O66 1.240 . S
C75 O67 1.252 . S
O76 In65 2.294 1_655 S
O76 C69 1.240 1_655 S
O77 In65 2.326 . S
O77 C69 1.252 . S
H78 C86 0.950 . S
H79 C91 0.950 . S
H80 C88 0.950 . S
H81 C90 0.950 . S
H82 C92 0.950 . S
H83 C94 0.950 . S
H84 C96 0.950 . S
H85 C97 0.950 . S
C86 H78 0.950 . S
C86 C87 1.386 . S
C86 C88 1.391 . S
C87 C86 1.386 . S
C87 C91 1.393 1_545 S
C88 H80 0.950 . S
C88 C86 1.391 . S
C88 C89 1.400 . S
C89 C88 1.400 . S
C89 C90 1.398 1_545 S
C89 C95 1.491 . S
C90 H81 0.950 . S
C90 C89 1.398 1_565 S
C90 C91 1.391 . S
C91 H79 0.950 . S
C91 C87 1.393 1_565 S
C91 C90 1.391 . S
C92 H82 0.950 . S
C92 C93 1.364 1_565 S
C92 C94 1.391 . S
C93 C92 1.364 1_545 S
C93 C97 1.407 . S
C94 H83 0.950 . S
C94 C92 1.391 . S
C94 C95 1.400 1_565 S
C95 C89 1.491 . S
C95 C94 1.400 1_545 S
C95 C96 1.398 . S
C96 H84 0.950 . S
C96 C95 1.398 . S
C96 C97 1.391 . S
C97 H85 0.950 . S
C97 C93 1.407 . S
C97 C96 1.391 . S
H98 C106 0.950 . S
H99 C111 0.950 . S
H100 C108 0.950 . S
H101 C110 0.950 . S
H102 C112 0.950 . S
H103 C114 0.950 . S
H104 C116 0.950 . S
H105 C117 0.950 . S
C106 H98 0.950 . S
C106 C107 1.386 . S
C106 C108 1.391 . S
C107 C106 1.386 . S
C107 C111 1.393 . S
C108 H100 0.950 . S
C108 C106 1.391 . S
C108 C109 1.400 . S
C109 C108 1.400 . S
C109 C110 1.398 . S
C109 C115 1.491 . S
C110 H101 0.950 . S
C110 C109 1.398 . S
C110 C111 1.391 . S
C111 H99 0.950 . S
C111 C107 1.393 . S
C111 C110 1.391 . S
C112 H102 0.950 . S
C112 C113 1.386 . S
C112 C114 1.391 . S
C113 C112 1.386 . S
C113 C117 1.393 . S
C114 H103 0.950 . S
C114 C112 1.391 . S
C114 C115 1.400 . S
C115 C109 1.491 . S
C115 C114 1.400 . S
C115 C116 1.398 . S
C116 H104 0.950 . S
C116 C115 1.398 . S
C116 C117 1.391 . S
C117 H105 0.950 . S
C117 C113 1.393 . S
C117 C116 1.391 . S
H118 C126 0.950 . S
H119 C131 0.950 . S
H120 C128 0.950 . S
H121 C130 0.950 . S
H122 C132 0.950 . S
H123 C134 0.950 . S
H124 C136 0.950 . S
H125 C137 0.950 . S
C126 H118 0.950 . S
C126 C127 1.386 1_655 S
C126 C128 1.391 . S
C127 C126 1.386 1_455 S
C127 C131 1.393 . S
C128 H120 0.950 . S
C128 C126 1.391 . S
C128 C129 1.400 1_655 S
C129 C128 1.400 1_455 S
C129 C130 1.398 . S
C129 C135 1.491 . S
C130 H121 0.950 . S
C130 C129 1.398 . S
C130 C131 1.391 . S
C131 H119 0.950 . S
C131 C127 1.393 . S
C131 C130 1.391 . S
C132 H122 0.950 . S
C132 C133 1.386 . S
C132 C134 1.391 . S
C133 C132 1.386 . S
C133 C137 1.393 1_455 S
C134 H123 0.950 . S
C134 C132 1.391 . S
C134 C135 1.400 . S
C135 C129 1.491 . S
C135 C134 1.400 . S
C135 C136 1.398 1_455 S
C136 H124 0.950 . S
C136 C135 1.398 1_655 S
C136 C137 1.391 . S
C137 H125 0.950 . S
C137 C133 1.393 1_655 S
C137 C136 1.391 . S
H138 C146 0.950 . S
H139 C151 0.950 1_565 S
H140 C148 0.950 . S
H141 C150 0.950 1_565 S
H142 C152 0.950 1_565 S
H143 C154 0.950 1_565 S
H144 C156 0.950 . S
H145 C157 0.950 . S
C146 H138 0.950 . S
C146 C147 1.386 . S
C146 C148 1.391 . S
C147 C146 1.386 . S
C147 C151 1.393 . S
C148 H140 0.950 . S
C148 C146 1.391 . S
C148 C149 1.400 . S
C149 C148 1.400 . S
C149 C150 1.398 . S
C149 C155 1.491 . S
C150 H141 0.950 1_545 S
C150 C149 1.398 . S
C150 C151 1.391 . S
C151 H139 0.950 1_545 S
C151 C147 1.393 . S
C151 C150 1.391 . S
C152 H142 0.950 1_545 S
C152 C153 1.386 . S
C152 C154 1.391 . S
C153 C152 1.386 . S
C153 C157 1.393 . S
C154 H143 0.950 1_545 S
C154 C152 1.391 . S
C154 C155 1.400 . S
C155 C149 1.491 . S
C155 C154 1.400 . S
C155 C156 1.398 . S
C156 H144 0.950 . S
C156 C155 1.398 . S
C156 C157 1.391 . S
C157 H145 0.950 . S
C157 C153 1.393 . S
C157 C156 1.391 . S
H158 C166 0.950 . S
H159 C171 0.950 . S
H160 C168 0.950 . S
H161 C170 0.950 . S
H162 C172 0.950 . S
H163 C174 0.950 . S
H164 C176 0.950 . S
H165 C177 0.950 . S
C166 H158 0.950 . S
C166 C167 1.386 . S
C166 C168 1.391 1_554 S
C167 C166 1.386 . S
C167 C171 1.393 . S
C168 H160 0.950 . S
C168 C166 1.391 1_556 S
C168 C169 1.400 . S
C169 C168 1.400 . S
C169 C170 1.398 1_556 S
C169 C175 1.491 . S
C170 H161 0.950 . S
C170 C169 1.398 1_554 S
C170 C171 1.391 . S
C171 H159 0.950 . S
C171 C167 1.393 . S
C171 C170 1.391 . S
C172 H162 0.950 . S
C172 C173 1.386 . S
C172 C174 1.391 . S
C173 C172 1.386 . S
C173 C177 1.393 . S
C174 H163 0.950 . S
C174 C172 1.391 . S
C174 C175 1.400 . S
C175 C169 1.491 . S
C175 C174 1.400 . S
C175 C176 1.398 . S
C176 H164 0.950 . S
C176 C175 1.398 . S
C176 C177 1.391 . S
C177 H165 0.950 . S
C177 C173 1.393 . S
C177 C176 1.391 . S
H178 C186 0.950 . S
H179 C191 0.950 . S
H180 C188 0.950 . S
H181 C190 0.950 . S
H182 C192 0.950 . S
H183 C194 0.950 . S
H184 C196 0.950 . S
H185 C197 0.950 . S
C186 H178 0.950 . S
C186 C187 1.386 1_655 S
C186 C188 1.391 . S
C187 C186 1.386 1_455 S
C187 C191 1.393 . S
C188 H180 0.950 . S
C188 C186 1.391 . S
C188 C189 1.400 1_655 S
C189 C188 1.400 1_455 S
C189 C190 1.398 . S
C189 C195 1.491 . S
C190 H181 0.950 . S
C190 C189 1.398 . S
C190 C191 1.391 . S
C191 H179 0.950 . S
C191 C187 1.393 . S
C191 C190 1.391 . S
C192 H182 0.950 . S
C192 C193 1.386 . S
C192 C194 1.391 . S
C193 C192 1.386 . S
C193 C197 1.393 1_455 S
C194 H183 0.950 . S
C194 C192 1.391 . S
C194 C195 1.400 . S
C195 C189 1.491 . S
C195 C194 1.400 . S
C195 C196 1.398 1_455 S
C196 H184 0.950 . S
C196 C195 1.398 1_655 S
C196 C197 1.391 . S
C197 H185 0.950 . S
C197 C193 1.393 1_655 S
C197 C196 1.391 . S
H198 C206 0.950 . S
H199 C211 0.950 . S
H200 C208 0.950 . S
H201 C210 0.950 . S
H202 C212 0.950 . S
H203 C214 0.950 . S
H204 C216 0.950 . S
H205 C217 0.950 . S
C206 H198 0.950 . S
C206 C207 1.386 . S
C206 C208 1.391 . S
C207 C206 1.386 . S
C207 C211 1.393 . S
C208 H200 0.950 . S
C208 C206 1.391 . S
C208 C209 1.400 . S
C209 C208 1.400 . S
C209 C210 1.398 . S
C209 C215 1.491 . S
C210 H201 0.950 . S
C210 C209 1.398 . S
C210 C211 1.391 . S
C211 H199 0.950 . S
C211 C207 1.393 . S
C211 C210 1.391 . S
C212 H202 0.950 . S
C212 C213 1.386 . S
C212 C214 1.391 . S
C213 C212 1.386 . S
C213 C217 1.393 . S
C214 H203 0.950 . S
C214 C212 1.391 . S
C214 C215 1.400 . S
C215 C209 1.491 . S
C215 C214 1.400 . S
C215 C216 1.398 . S
C216 H204 0.950 . S
C216 C215 1.398 . S
C216 C217 1.391 . S
C217 H205 0.950 . S
C217 C213 1.393 . S
C217 C216 1.391 . S
H218 C226 0.950 . S
H219 C231 0.950 . S
H220 C228 0.950 . S
H221 C230 0.950 . S
H222 C232 0.950 . S
H223 C234 0.950 . S
H224 C236 0.950 . S
H225 C237 0.950 . S
C226 H218 0.950 . S
C226 C227 1.386 . S
C226 C228 1.391 . S
C227 C226 1.386 . S
C227 C231 1.393 . S
C228 H220 0.950 . S
C228 C226 1.391 . S
C228 C229 1.400 . S
C229 C228 1.400 . S
C229 C230 1.398 . S
C229 C235 1.491 . S
C230 H221 0.950 . S
C230 C229 1.398 . S
C230 C231 1.391 . S
C231 H219 0.950 . S
C231 C227 1.393 . S
C231 C230 1.391 . S
C232 H222 0.950 . S
C232 C233 1.386 . S
C232 C234 1.391 . S
C233 C232 1.386 . S
C233 C237 1.393 . S
C234 H223 0.950 . S
C234 C232 1.391 . S
C234 C235 1.400 . S
C235 C229 1.491 . S
C235 C234 1.400 . S
C235 C236 1.398 . S
C236 H224 0.950 . S
C236 C235 1.398 . S
C236 C237 1.391 . S
C237 H225 0.950 . S
C237 C233 1.393 . S
C237 C236 1.391 . S
H238 C246 0.950 . S
H239 C251 0.950 . S
H240 C248 0.950 . S
H241 C250 0.950 . S
H242 C252 0.950 . S
H243 C254 0.950 . S
H244 C256 0.950 . S
H245 C257 0.950 . S
C246 H238 0.950 . S
C246 C247 1.386 . S
C246 C248 1.391 . S
C247 C246 1.386 . S
C247 C251 1.393 . S
C248 H240 0.950 . S
C248 C246 1.391 . S
C248 C249 1.400 . S
C249 C248 1.400 . S
C249 C250 1.398 . S
C249 C255 1.491 . S
C250 H241 0.950 . S
C250 C249 1.398 . S
C250 C251 1.391 . S
C251 H239 0.950 . S
C251 C247 1.393 . S
C251 C250 1.391 . S
C252 H242 0.950 . S
C252 C253 1.386 . S
C252 C254 1.391 . S
C253 C252 1.386 . S
C253 C257 1.393 . S
C254 H243 0.950 . S
C254 C252 1.391 . S
C254 C255 1.400 . S
C255 C249 1.491 . S
C255 C254 1.400 . S
C255 C256 1.398 . S
C256 H244 0.950 . S
C256 C255 1.398 . S
C256 C257 1.391 . S
C257 H245 0.950 . S
C257 C253 1.393 . S
C257 C256 1.391 . S
H258 C266 0.950 . S
H259 C271 0.950 . S
H260 C268 0.950 . S
H261 C270 0.950 . S
H262 C272 0.950 . S
H263 C274 0.950 . S
H264 C276 0.950 . S
H265 C277 0.950 . S
C266 H258 0.950 . S
C266 C267 1.386 . S
C266 C268 1.391 . S
C267 C266 1.386 . S
C267 C271 1.393 . S
C268 H260 0.950 . S
C268 C266 1.391 . S
C268 C269 1.400 . S
C269 C268 1.400 . S
C269 C270 1.398 . S
C269 C275 1.491 . S
C270 H261 0.950 . S
C270 C269 1.398 . S
C270 C271 1.391 . S
C271 H259 0.950 . S
C271 C267 1.393 . S
C271 C270 1.391 . S
C272 H262 0.950 . S
C272 C273 1.386 . S
C272 C274 1.391 . S
C273 C272 1.386 . S
C273 C277 1.393 . S
C274 H263 0.950 . S
C274 C272 1.391 . S
C274 C275 1.400 . S
C275 C269 1.491 . S
C275 C274 1.400 . S
C275 C276 1.398 . S
C276 H264 0.950 . S
C276 C275 1.398 . S
C276 C277 1.391 . S
C277 H265 0.950 . S
C277 C273 1.393 . S
C277 C276 1.391 . S
H278 C286 0.950 . S
H279 C291 0.950 . S
H280 C288 0.950 . S
H281 C290 0.950 . S
H282 C292 0.950 . S
H283 C294 0.950 . S
H284 C296 0.950 . S
H285 C297 0.950 . S
C286 H278 0.950 . S
C286 C287 1.386 . S
C286 C288 1.391 . S
C287 C286 1.386 . S
C287 C291 1.393 . S
C288 H280 0.950 . S
C288 C286 1.391 . S
C288 C289 1.400 . S
C289 C288 1.400 . S
C289 C290 1.398 . S
C289 C295 1.491 . S
C290 H281 0.950 . S
C290 C289 1.398 . S
C290 C291 1.391 . S
C291 H279 0.950 . S
C291 C287 1.393 . S
C291 C290 1.391 . S
C292 H282 0.950 . S
C292 C293 1.386 . S
C292 C294 1.391 . S
C293 C292 1.386 . S
C293 C297 1.393 . S
C294 H283 0.950 . S
C294 C292 1.391 . S
C294 C295 1.400 . S
C295 C289 1.491 . S
C295 C294 1.400 . S
C295 C296 1.398 . S
C296 H284 0.950 . S
C296 C295 1.398 . S
C296 C297 1.391 . S
C297 H285 0.950 . S
C297 C293 1.393 . S
C297 C296 1.391 . S
H298 C306 0.950 . S
H299 C311 0.950 1_554 S
H300 C308 0.950 . S
H301 C310 0.950 1_554 S
H302 C312 0.950 . S
H303 C314 0.950 . S
H304 C316 0.950 . S
H305 C317 0.950 . S
C306 H298 0.950 . S
C306 C307 1.386 . S
C306 C308 1.391 . S
C307 C306 1.386 . S
C307 C311 1.393 . S
C308 H300 0.950 . S
C308 C306 1.391 . S
C308 C309 1.400 . S
C309 C308 1.400 . S
C309 C310 1.398 . S
C309 C315 1.491 . S
C310 H301 0.950 1_556 S
C310 C309 1.398 . S
C310 C311 1.391 . S
C311 H299 0.950 1_556 S
C311 C307 1.393 . S
C311 C310 1.391 . S
C312 H302 0.950 . S
C312 C313 1.386 1_554 S
C312 C314 1.391 . S
C313 C312 1.386 1_556 S
C313 C317 1.393 . S
C314 H303 0.950 . S
C314 C312 1.391 . S
C314 C315 1.400 1_554 S
C315 C309 1.491 . S
C315 C314 1.400 1_556 S
C315 C316 1.398 . S
C316 H304 0.950 . S
C316 C315 1.398 . S
C316 C317 1.391 . S
C317 H305 0.950 . S
C317 C313 1.393 . S
C317 C316 1.391 . S
C87 C5 1.776 . S
C93 C43 1.786 . S
C107 C18 1.777 . S
C113 C56 1.773 . S
C127 C69 1.776 . S
C133 C31 1.777 . S
C147 C10 1.775 . S
C153 C42 1.775 . S
C167 C23 1.774 . S
C173 C55 1.778 . S
C187 C68 1.776 1_554 S
C193 C36 1.773 . S
C207 C17 1.430 . S
C213 C3 1.430 . S
C227 C30 1.421 . S
C233 C16 1.431 . S
C247 C29 1.429 . S
C253 C49 1.431 . S
C267 C62 1.423 . S
C273 C44 1.433 . S
C287 C75 1.420 . S
C293 C57 1.427 . S
C307 C70 1.430 . S
C313 C4 1.420 1_556 S
