# Generated by pormake.
# Topology vby, (6)-cn, num edge types: 1
# Building blocks:
#     Node 0, Type 0, BuildingBlock: PAMTOO_clean_sbu_0, # of connection points: 6
#     Node 1, Type 0, BuildingBlock: PAMTOO_clean_sbu_0, # of connection points: 6
#     Node 2, Type 0, BuildingBlock: PAMTOO_clean_sbu_0, # of connection points: 6
#     Node 3, Type 0, BuildingBlock: PAMTOO_clean_sbu_0, # of connection points: 6
#     Node 4, Type 0, BuildingBlock: PAMTOO_clean_sbu_0, # of connection points: 6
#     Node 5, Type 0, BuildingBlock: PAMTOO_clean_sbu_0, # of connection points: 6
#     Node 6, Type 0, BuildingBlock: PAMTOO_clean_sbu_0, # of connection points: 6
#     Node 7, Type 0, BuildingBlock: PAMTOO_clean_sbu_0, # of connection points: 6
#     Edge 8, Type (0, 0), BuildingBlock: KIFKEQ_clean_linker_1, # of connection points: 2
#     Edge 9, Type (0, 0), BuildingBlock: KIFKEQ_clean_linker_1, # of connection points: 2
#     Edge 10, Type (0, 0), BuildingBlock: KIFKEQ_clean_linker_1, # of connection points: 2
#     Edge 11, Type (0, 0), BuildingBlock: KIFKEQ_clean_linker_1, # of connection points: 2
#     Edge 12, Type (0, 0), BuildingBlock: KIFKEQ_clean_linker_1, # of connection points: 2
#     Edge 13, Type (0, 0), BuildingBlock: KIFKEQ_clean_linker_1, # of connection points: 2
#     Edge 14, Type (0, 0), BuildingBlock: KIFKEQ_clean_linker_1, # of connection points: 2
#     Edge 15, Type (0, 0), BuildingBlock: KIFKEQ_clean_linker_1, # of connection points: 2
#     Edge 16, Type (0, 0), BuildingBlock: KIFKEQ_clean_linker_1, # of connection points: 2
#     Edge 17, Type (0, 0), BuildingBlock: KIFKEQ_clean_linker_1, # of connection points: 2
#     Edge 18, Type (0, 0), BuildingBlock: KIFKEQ_clean_linker_1, # of connection points: 2
#     Edge 19, Type (0, 0), BuildingBlock: KIFKEQ_clean_linker_1, # of connection points: 2
#     Edge 20, Type (0, 0), BuildingBlock: KIFKEQ_clean_linker_1, # of connection points: 2
#     Edge 21, Type (0, 0), BuildingBlock: KIFKEQ_clean_linker_1, # of connection points: 2
#     Edge 22, Type (0, 0), BuildingBlock: KIFKEQ_clean_linker_1, # of connection points: 2
#     Edge 23, Type (0, 0), BuildingBlock: KIFKEQ_clean_linker_1, # of connection points: 2
#     Edge 24, Type (0, 0), BuildingBlock: KIFKEQ_clean_linker_1, # of connection points: 2
#     Edge 25, Type (0, 0), BuildingBlock: KIFKEQ_clean_linker_1, # of connection points: 2
#     Edge 26, Type (0, 0), BuildingBlock: KIFKEQ_clean_linker_1, # of connection points: 2
#     Edge 27, Type (0, 0), BuildingBlock: KIFKEQ_clean_linker_1, # of connection points: 2
#     Edge 28, Type (0, 0), BuildingBlock: KIFKEQ_clean_linker_1, # of connection points: 2
#     Edge 29, Type (0, 0), BuildingBlock: KIFKEQ_clean_linker_1, # of connection points: 2
#     Edge 30, Type (0, 0), BuildingBlock: KIFKEQ_clean_linker_1, # of connection points: 2
#     Edge 31, Type (0, 0), BuildingBlock: KIFKEQ_clean_linker_1, # of connection points: 2
# Relax obj value: 0.141
# Max RMSD: 0.192
# Mean RMSD: 0.182
data_MOF--net-vby--node1-PAMTOO_clean_sbu_0--edge1-KIFKEQ_clean_linker_1
_symmetry_space_group_name_H-M    P1
_symmetry_Int_Tables_number       1
_symmetry_cell_setting            triclinic
loop_
_symmetry_equiv_pos_as_xyz
'x, y, z'
_cell_length_a     15.612103
_cell_length_b     105.81358
_cell_length_c     30.46706
_cell_angle_alpha  85.64118
_cell_angle_beta   94.142865
_cell_angle_gamma 89.921732
loop_
_atom_site_label
_atom_site_type_symbol
_atom_site_fract_x
_atom_site_fract_y
_atom_site_fract_z
_atom_type_partial_charge
Dy0 Dy 0.10123 0.4002 0.02264 0.0
Dy1 Dy 0.09593 0.36866 0.02312 0.0
C2 C 0.09095 0.3829 0.10957 0.0
O3 O 0.23183 0.39404 0.00834 0.0
O4 O 0.23429 0.37341 0.03776 0.0
O5 O 0.08154 0.41714 0.05617 0.0
O6 O 0.14253 0.41831 -0.00585 0.0
O7 O 0.12192 0.37637 0.95527 0.0
O8 O 0.05362 0.39562 0.95493 0.0
O9 O 0.95949 0.37488 0.00902 0.0
O10 O 0.9625 0.3956 0.02832 0.0
O11 O 0.05827 0.35157 0.99255 0.0
O12 O 0.12334 0.35042 0.05823 0.0
C13 C 0.27386 0.38367 0.02309 0.0
O14 O 0.13882 0.39152 0.09041 0.0
O15 O 0.05147 0.37447 0.08636 0.0
C16 C 0.0794 0.43746 0.01511 0.0
C17 C 0.04343 0.46379 0.00437 0.0
C18 C 1.01453 0.45629 0.04042 0.0
C19 C 0.03254 0.44329 0.0458 0.0
C20 C 0.10429 0.44482 0.97783 0.0
C21 C 0.08618 0.45782 0.97242 0.0
C22 C 0.11535 0.42453 0.02588 0.0
C23 C 0.08294 0.38629 0.93398 0.0
C24 C 0.92054 0.38533 0.01789 0.0
C25 C 0.13572 0.33237 0.01627 0.0
C26 C 0.19535 0.3078 0.00245 0.0
C27 C 0.15849 0.31577 0.96698 0.0
C28 C 0.12867 0.3279 0.97384 0.0
C29 C 0.17577 0.3246 0.0513 0.0
C30 C 0.20549 0.31249 0.04446 0.0
C31 C 0.09116 0.34413 0.0257 0.0
H32 H 0.98028 0.46055 0.06528 0.0
H33 H 1.01321 0.43795 0.07516 0.0
H34 H 0.14176 0.44068 0.95394 0.0
H35 H 0.11005 0.46332 0.94447 0.0
H36 H 0.14904 0.31242 0.93428 0.0
H37 H 0.09713 0.33356 0.9462 0.0
H38 H 0.18134 0.3277 0.08447 0.0
H39 H 0.23482 0.30669 0.07236 0.0
Dy40 Dy 0.95541 0.65393 -0.00043 0.0
Dy41 Dy 0.95127 0.62228 0.00873 0.0
C42 C 0.96683 0.63813 0.09178 0.0
O43 O 0.09054 0.64803 0.9932 0.0
O44 O 0.09136 0.62686 0.01862 0.0
O45 O 0.94675 0.67149 0.03046 0.0
O46 O 0.97441 0.6718 0.96163 0.0
O47 O 0.99761 0.62817 0.94301 0.0
O48 O 0.92614 0.6472 0.93215 0.0
O49 O 0.81785 0.62899 0.98769 0.0
O50 O 0.82029 0.64894 0.01241 0.0
O51 O 0.90401 0.60491 0.9835 0.0
O52 O 0.97826 0.60443 0.04683 0.0
C53 C 0.1314 0.63737 0.00627 0.0
O54 O 1.00387 0.64705 0.0678 0.0
O55 O 0.92207 0.62927 0.07316 0.0
C56 C 0.91329 0.69068 0.98583 0.0
C57 C 0.85024 0.71592 0.97768 0.0
C58 C 0.82396 0.70717 0.01113 0.0
C59 C 0.85524 0.6947 0.01523 0.0
C60 C 0.93613 0.69921 0.95113 0.0
C61 C 0.90479 0.71167 0.94698 0.0
C62 C 0.96071 0.67851 -0.00532 0.0
C63 C 0.9682 0.63788 0.91689 0.0
C64 C 0.77815 0.63896 -0.00021 0.0
C65 C 0.97331 0.58524 0.00961 0.0
C66 C 1.00989 0.55942 3e-05 0.0
C67 C 0.98096 0.56755 0.96323 0.0
C68 C 0.96268 0.58032 0.96796 0.0
C69 C 1.00579 0.57726 0.04595 0.0
C70 C 1.02411 0.56452 0.04123 0.0
C71 C 0.93825 0.59783 0.01723 0.0
H72 H 0.78263 0.71012 0.03558 0.0
H73 H 0.83686 0.6884 0.04261 0.0
H74 H 0.98131 0.69642 0.92823 0.0
H75 H 0.92517 0.71807 0.92036 0.0
H76 H 0.97043 0.56398 0.93091 0.0
H77 H 0.93707 0.58618 0.93931 0.0
H78 H 1.01317 0.58071 0.07859 0.0
H79 H 0.0452 0.55853 0.07041 0.0
Dy80 Dy 0.10013 0.65594 0.50028 0.0
Dy81 Dy 0.10537 0.62461 0.51869 0.0
C82 C 0.07642 0.63734 0.42227 0.0
O83 O 0.96468 0.64959 0.48648 0.0
O84 O 0.96935 0.63024 0.52665 0.0
O85 O 0.14467 0.6725 0.46309 0.0
O86 O 0.04746 0.67441 0.50944 0.0
O87 O 0.14474 0.6325 0.58281 0.0
O88 O 0.07893 0.65198 0.57162 0.0
O89 O 0.23523 0.63124 0.50061 0.0
O90 O 0.23562 0.65115 0.52499 0.0
O91 O 0.07653 0.60729 0.55755 0.0
O92 O 0.15744 0.60682 0.50262 0.0
C93 C 0.92605 0.64 0.50674 0.0
O94 O 0.11644 0.64727 0.43673 0.0
O95 O 0.0494 0.62827 0.44954 0.0
C96 C 0.13494 0.69253 0.49381 0.0
C97 C 0.19155 0.71758 0.50477 0.0
C98 C 0.23824 0.70941 0.4809 0.0
C99 C 0.21018 0.69704 0.47539 0.0
C100 C 0.08991 0.70055 0.51894 0.0
C101 C 0.11807 0.71291 0.52452 0.0
C102 C 0.09703 0.6803 0.48202 0.0
C103 C 0.1103 0.64245 0.59805 0.0
C104 C 0.277 0.64122 0.51364 0.0
C105 C 0.08713 0.58757 0.52449 0.0
C106 C 0.05453 0.56175 0.51206 0.0
C107 C 0.05073 0.5664 0.55392 0.0
C108 C 0.06708 0.57915 0.56005 0.0
C109 C 0.08664 0.58311 0.48213 0.0
C110 C 0.07026 0.57033 0.47597 0.0
C111 C 0.12037 0.60024 0.53376 0.0
H112 H 0.29577 0.71264 0.46577 0.0
H113 H 0.24602 0.69118 0.45545 0.0
H114 H 0.03094 0.69745 0.53293 0.0
H115 H 0.08003 0.71899 0.54269 0.0
H116 H 0.03725 0.5601 0.58226 0.0
H117 H 0.06761 0.58232 0.59306 0.0
H118 H 0.10242 0.58936 0.45408 0.0
H119 H 0.07411 0.56706 0.44334 0.0
Dy120 Dy 0.96314 0.37198 0.5191 0.0
Dy121 Dy 0.95516 0.40351 0.51324 0.0
C122 C 0.96302 0.38833 0.42763 0.0
O123 O 0.09618 0.37801 0.50644 0.0
O124 O 0.09605 0.39901 0.52267 0.0
O125 O 0.98939 0.35421 0.49177 0.0
O126 O 0.95047 0.35437 0.5587 0.0
O127 O 0.92813 0.39563 0.58087 0.0
O128 O 1.01867 0.37884 0.58218 0.0
O129 O 0.8221 0.39706 0.49612 0.0
O130 O 0.82735 0.37692 0.53001 0.0
O131 O 0.97788 0.42078 0.54549 0.0
O132 O 0.90944 0.42139 0.48064 0.0
C133 C 0.13647 0.38862 0.51415 0.0
O134 O 0.92702 0.3787 0.44898 0.0
O135 O 0.99282 0.3981 0.44798 0.0
C136 C 0.92229 0.33546 0.52236 0.0
C137 C 0.85503 0.31076 0.51643 0.0
C138 C 0.87401 0.31823 0.47815 0.0
C139 C 0.90748 0.33044 0.48108 0.0
C140 C 0.90086 0.32815 0.56039 0.0
C141 C 0.86745 0.31598 0.55748 0.0
C142 C 0.97007 0.34742 0.52724 0.0
C143 C 0.97927 0.38722 0.603 0.0
C144 C 0.78379 0.38694 0.51263 0.0
C145 C 0.97441 0.44074 0.50231 0.0
C146 C 1.01028 0.46697 0.4915 0.0
C147 C 0.04902 0.45937 0.52743 0.0
C148 C 0.0311 0.44642 0.53284 0.0
C149 C 0.93917 0.44819 0.46521 0.0
C150 C 0.95713 0.46114 0.45978 0.0
C151 C 0.9401 0.42791 0.51287 0.0
H152 H 0.86424 0.31456 0.44595 0.0
H153 H 0.92402 0.33577 0.45114 0.0
H154 H 0.91303 0.33166 0.59275 0.0
H155 H 0.85487 0.31046 0.58771 0.0
H156 H 0.08951 0.46354 0.55277 0.0
H157 H 0.05833 0.44101 0.56218 0.0
H158 H 0.89439 0.44415 0.44138 0.0
H159 H 0.92724 0.46667 0.43138 0.0
Dy160 Dy 0.60284 0.90045 0.02392 0.0
Dy161 Dy 0.59965 0.8688 0.02632 0.0
C162 C 0.59755 0.88339 0.11275 0.0
O163 O 0.73396 0.89427 0.01006 0.0
O164 O 0.73736 0.87376 0.04085 0.0
O165 O 0.58868 0.91763 0.05669 0.0
O166 O 0.63727 0.91847 0.99147 0.0
O167 O 0.62646 0.87657 0.9585 0.0
O168 O 0.55024 0.89508 0.95796 0.0
O169 O 0.46244 0.87494 0.01453 0.0
O170 O 0.4653 0.89579 0.03248 0.0
O171 O 0.55861 0.8518 -0.0039 0.0
O172 O 0.63148 0.85046 0.05975 0.0
C173 C 0.77646 0.884 0.02568 0.0
O174 O 0.6407 0.89239 0.09237 0.0
O175 O 0.56085 0.87439 0.09104 0.0
C176 C 0.57951 0.93779 0.01457 0.0
C177 C 0.54304 0.96412 0.00643 0.0
C178 C 0.51318 0.95628 0.04143 0.0
C179 C 0.53136 0.94328 0.04552 0.0
C180 C 0.60525 0.94549 0.97826 0.0
C181 C 0.58687 0.9585 0.97411 0.0
C182 C 0.61635 0.92486 0.02414 0.0
C183 C 0.58294 0.88603 0.93701 0.0
C184 C 0.42351 0.8854 0.02332 0.0
C185 C 0.63881 0.83263 0.01608 0.0
C186 C 0.69783 0.80824 -0.00066 0.0
C187 C 0.648 0.81567 0.96671 0.0
C188 C 0.61863 0.8277 0.97502 0.0
C189 C 0.69119 0.82539 0.04811 0.0
C190 C 0.72061 0.81337 0.03979 0.0
C191 C 0.5956 0.84427 0.02786 0.0
H192 H 0.47808 0.96028 0.06652 0.0
H193 H 0.51118 0.93767 0.07413 0.0
H194 H 0.64371 0.9416 0.95425 0.0
H195 H 0.61139 0.96425 0.94693 0.0
H196 H 0.63022 0.81208 0.93498 0.0
H197 H 0.57761 0.83294 0.94975 0.0
H198 H 0.70667 0.82879 0.08037 0.0
H199 H 0.75796 0.80787 0.06588 0.0
Dy200 Dy 0.46694 0.15486 0.98995 0.0
Dy201 Dy 0.4643 0.12336 0.00548 0.0
C202 C 0.47954 0.14064 0.08498 0.0
O203 O 0.60086 0.14873 0.98122 0.0
O204 O 0.60374 0.12836 0.01465 0.0
O205 O 0.47568 0.173 0.0174 0.0
O206 O 0.46875 0.17211 0.94641 0.0
O207 O 0.50761 0.12812 0.93823 0.0
O208 O 0.43287 0.1468 0.92512 0.0
O209 O 0.33013 0.12989 0.98497 0.0
O210 O 0.33312 0.15021 0.00649 0.0
O211 O 0.41536 0.1056 0.98424 0.0
O212 O 0.4943 0.10596 0.04595 0.0
C213 C 0.64291 0.13851 -0.00176 0.0
O214 O 0.51581 0.14918 0.05916 0.0
O215 O 0.43569 0.13135 0.06846 0.0
C216 C 0.42196 0.19138 0.97394 0.0
C217 C 0.3535 0.21623 0.97064 0.0
C218 C 0.3357 0.20719 0.00506 0.0
C219 C 0.36962 0.19489 0.00672 0.0
C220 C 0.43616 0.20018 0.93846 0.0
C221 C 0.40214 0.21246 0.93672 0.0
C222 C 0.47201 0.17941 0.97907 0.0
C223 C 0.47451 0.1373 0.91086 0.0
C224 C 0.29066 0.14004 -0.00413 0.0
C225 C 0.48439 0.08609 0.01261 0.0
C226 C 0.51373 0.05985 0.00756 0.0
C227 C 0.4853 0.06757 0.96965 0.0
C228 C 0.47041 0.08055 0.97217 0.0
C229 C 0.51723 0.07851 0.04986 0.0
C230 C 0.53196 0.06556 0.04736 0.0
C231 C 0.45174 0.09896 0.01844 0.0
H232 H 0.29906 0.20977 0.03192 0.0
H233 H 0.3578 0.18833 0.03465 0.0
H234 H 0.47664 0.19773 0.9129 0.0
H235 H 0.4158 0.21909 0.90931 0.0
H236 H 0.47015 0.06347 0.93854 0.0
H237 H 0.44416 0.08608 0.94292 0.0
H238 H 0.52776 0.08246 0.08156 0.0
H239 H 0.55527 0.05993 0.07701 0.0
Dy240 Dy 0.59417 0.15659 0.50216 0.0
Dy241 Dy 0.60037 0.12518 0.50205 0.0
C242 C 0.58248 0.14274 0.41462 0.0
O243 O 0.45985 0.15042 0.51107 0.0
O244 O 0.45999 0.12983 0.49058 0.0
O245 O 0.61092 0.17488 0.46775 0.0
O246 O 0.56487 0.17364 0.53352 0.0
O247 O 0.5563 0.12979 0.56687 0.0
O248 O 0.62901 0.1485 0.57125 0.0
O249 O 0.73359 0.13126 0.52162 0.0
O250 O 0.72993 0.15179 0.49118 0.0
O251 O 0.64009 0.1068 0.53283 0.0
O252 O 0.58234 0.10861 0.46548 0.0
C253 C 0.41943 0.14005 0.50064 0.0
O254 O 0.5441 0.15115 0.43588 0.0
O255 O 0.63089 0.13392 0.43631 0.0
C256 C 0.63189 0.19306 0.50942 0.0
C257 C 0.69211 0.21808 0.51662 0.0
C258 C 0.7273 0.21021 0.4872 0.0
C259 C 0.69733 0.19784 0.48353 0.0
C260 C 0.59986 0.20069 0.5403 0.0
C261 C 0.62976 0.21304 0.54398 0.0
C262 C 0.58724 0.18111 0.50025 0.0
C263 C 0.58846 0.13887 0.58997 0.0
C264 C 0.77272 0.14153 0.50687 0.0
C265 C 0.5779 0.08806 0.50388 0.0
C266 C 0.53956 0.06188 0.5101 0.0
C267 C 0.56809 0.06799 0.54791 0.0
C268 C 0.58739 0.08093 0.54481 0.0
C269 C 0.54572 0.08209 0.46655 0.0
C270 C 0.52664 0.06918 0.46961 0.0
C271 C 0.61463 0.10092 0.49805 0.0
H272 H 0.77499 0.21381 0.46544 0.0
H273 H 0.7229 0.19224 0.45911 0.0
H274 H 0.54891 0.1973 0.5604 0.0
H275 H 0.60238 0.21875 0.56753 0.0
H276 H 0.5776 0.06269 0.57974 0.0
H277 H 0.61299 0.0852 0.57413 0.0
H278 H 0.53931 0.08725 0.43436 0.0
H279 H 0.50602 0.0648 0.43967 0.0
Dy280 Dy 0.46109 0.87126 0.52042 0.0
Dy281 Dy 0.45456 0.90274 0.5172 0.0
C282 C 0.46704 0.88827 0.43087 0.0
O283 O 0.59535 0.87727 0.5104 0.0
O284 O 0.59517 0.89817 0.52784 0.0
O285 O 0.48313 0.85383 0.4898 0.0
O286 O 0.45105 0.8533 0.55799 0.0
O287 O 0.42708 0.89478 0.58445 0.0
O288 O 0.51194 0.87726 0.58572 0.0
O289 O 0.32157 0.89632 0.49892 0.0
O290 O 0.32585 0.87612 0.53208 0.0
O291 O 0.47754 0.91995 0.54975 0.0
O292 O 0.40736 0.92062 0.48517 0.0
C293 C 0.63569 0.88779 0.51918 0.0
O294 O 0.42677 0.87878 0.45067 0.0
O295 O 0.49814 0.89765 0.45282 0.0
C296 C 0.41728 0.83488 0.51968 0.0
C297 C 0.35004 0.81016 0.51478 0.0
C298 C 0.38267 0.81664 0.4776 0.0
C299 C 0.41633 0.82885 0.48009 0.0
C300 C 0.38123 0.8286 0.55624 0.0
C301 C 0.34782 0.81641 0.55377 0.0
C302 C 0.46663 0.84669 0.525 0.0
C303 C 0.47452 0.88589 0.60644 0.0
C304 C 0.28272 0.88622 0.5152 0.0
C305 C 0.46728 0.94017 0.50801 0.0
C306 C 0.49576 0.96659 0.50205 0.0
C307 C 0.54897 0.95845 0.53082 0.0
C308 C 0.53462 0.94536 0.53394 0.0
C309 C 0.41763 0.94823 0.47741 0.0
C310 C 0.43177 0.96129 0.47439 0.0
C311 C 0.43767 0.92706 0.5177 0.0
H312 H 0.38605 0.81206 0.44718 0.0
H313 H 0.44481 0.83333 0.45153 0.0
H314 H 0.38175 0.8329 0.58741 0.0
H315 H 0.32201 0.81176 0.58281 0.0
H316 H 0.59856 0.96225 0.55271 0.0
H317 H 0.57347 0.93941 0.5582 0.0
H318 H 0.36472 0.94453 0.45734 0.0
H319 H 0.39062 0.96729 0.45138 0.0
H320 H 0.38817 0.36441 0.0509 0.0
H321 H 0.37483 0.40312 -0.00616 0.0
H322 H 0.54452 0.36488 0.05 0.0
H323 H 0.52994 0.40346 0.99219 0.0
H324 H 0.81401 0.40418 0.0394 0.0
H325 H 0.65837 0.40356 0.0418 0.0
H326 H 0.65608 0.3657 -0.00226 0.0
H327 H 0.81156 0.36619 -0.00389 0.0
C328 C 0.41836 0.37299 0.03806 0.0
C329 C 0.36876 0.38372 0.02253 0.0
C330 C 0.50793 0.37324 0.03733 0.0
C331 C 0.54974 0.38422 0.0211 0.0
C332 C 0.5 0.39492 0.00554 0.0
C333 C 0.41077 0.39467 0.00625 0.0
C334 C 0.78039 0.39574 0.03007 0.0
C335 C 0.82553 0.38525 0.01754 0.0
C336 C 0.69106 0.39539 0.03133 0.0
C337 C 0.64478 0.38456 0.02006 0.0
C338 C 0.68986 0.37411 0.00728 0.0
C339 C 0.77909 0.37445 0.00602 0.0
H340 H 0.2446 0.61772 0.03108 0.0
H341 H 0.23382 0.65703 0.9804 0.0
H342 H 0.40101 0.61803 0.03006 0.0
H343 H 0.38876 0.65723 0.97859 0.0
H344 H 0.67221 0.6573 0.02512 0.0
H345 H 0.51685 0.65659 0.02815 0.0
H346 H 0.51327 0.61947 0.978 0.0
H347 H 0.66888 0.62004 0.97578 0.0
C348 C 0.27534 0.6264 0.01966 0.0
C349 C 0.2264 0.63734 0.00598 0.0
C350 C 0.36495 0.62657 0.01884 0.0
C351 C 0.40745 0.63768 0.00436 0.0
C352 C 0.35835 0.64858 0.99062 0.0
C353 C 0.26915 0.64842 0.99145 0.0
C354 C 0.63841 0.649 0.01461 0.0
C355 C 0.68321 0.63875 9e-05 0.0
C356 C 0.5492 0.6486 0.01622 0.0
C357 C 0.50255 0.63797 0.00331 0.0
C358 C 0.54732 0.62773 0.98874 0.0
C359 C 0.63656 0.62812 0.98713 0.0
H360 H 0.82187 0.62153 0.54131 0.0
H361 H 0.81394 0.65907 0.47443 0.0
H362 H 0.66649 0.62212 0.54436 0.0
H363 H 0.65809 0.65955 0.47699 0.0
H364 H 0.38861 0.66073 0.53016 0.0
H365 H 0.54518 0.66055 0.52896 0.0
H366 H 0.53728 0.62164 0.49527 0.0
H367 H 0.38196 0.62173 0.49707 0.0
C368 C 0.7871 0.62989 0.52703 0.0
C369 C 0.8308 0.64023 0.50748 0.0
C370 C 0.69774 0.63021 0.52865 0.0
C371 C 0.64952 0.64088 0.51089 0.0
C372 C 0.69318 0.65124 0.49145 0.0
C373 C 0.78262 0.65091 0.48967 0.0
C374 C 0.42034 0.65213 0.52266 0.0
C375 C 0.37238 0.64125 0.51377 0.0
C376 C 0.5101 0.65205 0.52169 0.0
C377 C 0.55403 0.64107 0.51206 0.0
C378 C 0.50592 0.63021 0.50339 0.0
C379 C 0.41649 0.6303 0.50418 0.0
H380 H 0.67852 0.36825 0.54495 0.0
H381 H 0.6736 0.40603 0.47977 0.0
H382 H 0.52252 0.3689 0.54603 0.0
H383 H 0.51793 0.40654 0.48018 0.0
H384 H 0.2484 0.40799 0.53102 0.0
H385 H 0.40486 0.40754 0.5312 0.0
H386 H 0.39524 0.36884 0.49519 0.0
H387 H 0.23993 0.36917 0.49573 0.0
C388 C 0.64429 0.37666 0.53063 0.0
C389 C 0.68878 0.38707 0.51226 0.0
C390 C 0.5548 0.37701 0.53111 0.0
C391 C 0.50776 0.38779 0.51324 0.0
C392 C 0.55226 0.39818 0.49478 0.0
C393 C 0.64161 0.39783 0.49427 0.0
C394 C 0.27966 0.39939 0.52312 0.0
C395 C 0.23136 0.38862 0.51347 0.0
C396 C 0.36932 0.39915 0.52305 0.0
C397 C 0.41257 0.38813 0.51336 0.0
C398 C 0.36415 0.3774 0.5035 0.0
C399 C 0.2748 0.37764 0.50355 0.0
H400 H 0.87787 0.90331 -0.0045 0.0
H401 H 0.89036 0.86493 0.05558 0.0
H402 H 0.03334 0.90361 -0.00515 0.0
H403 H 0.04668 0.86536 0.05569 0.0
H404 H 0.3146 0.86609 0.00338 0.0
H405 H 0.15903 0.86574 0.00421 0.0
H406 H 0.16116 0.90396 0.04505 0.0
H407 H 0.317 0.90444 0.04342 0.0
C408 C 0.91369 0.89494 0.00877 0.0
C409 C 0.87139 0.88408 0.02558 0.0
C410 C 1.00306 0.89516 0.00863 0.0
C411 C 0.05251 0.88453 0.02532 0.0
C412 C 1.01036 0.87366 0.04213 0.0
C413 C 0.92076 0.87343 0.04227 0.0
C414 C 0.28211 0.87445 0.01249 0.0
C415 C 0.32855 0.88532 0.02328 0.0
C416 C 0.1928 0.8742 0.01326 0.0
C417 C 0.14763 0.8848 0.02483 0.0
C418 C 0.19394 0.89568 0.0355 0.0
C419 C 0.28338 0.89594 0.03472 0.0
H420 H 0.18381 0.15899 0.0164 0.0
H421 H 0.18205 0.12064 0.97655 0.0
H422 H 1.02796 0.15843 0.01833 0.0
H423 H 1.02641 0.12019 0.97776 0.0
H424 H 0.75675 0.11944 0.02875 0.0
H425 H 0.91322 0.11985 0.02915 0.0
H426 H 0.90042 0.15803 0.96773 0.0
H427 H 0.74494 0.15775 0.96796 0.0
C428 C 0.15031 0.15047 0.00784 0.0
C429 C 0.19566 0.13988 -0.00377 0.0
C430 C 0.06086 0.15016 0.00879 0.0
C431 C 1.01465 0.13926 -0.00179 0.0
C432 C 0.06005 0.12867 0.98667 0.0
C433 C 0.14939 0.12898 0.98566 0.0
C434 C 0.7873 0.12793 0.01537 0.0
C435 C 0.738 0.13855 -0.00163 0.0
C436 C 0.877 0.12814 0.01541 0.0
C437 C 0.91939 0.13899 -0.00145 0.0
C438 C 0.87001 0.14959 0.98157 0.0
C439 C 0.78058 0.14938 0.98145 0.0
H440 H 0.30719 0.12087 0.48126 0.0
H441 H 0.31619 0.15919 0.52163 0.0
H442 H 0.15079 0.12118 0.48246 0.0
H443 H 0.16128 0.15936 0.52361 0.0
H444 H 0.87775 0.16047 0.4766 0.0
H445 H 0.03319 0.1598 0.47392 0.0
H446 H 0.03864 0.12152 0.5345 0.0
H447 H 0.88298 0.12206 0.53642 0.0
C448 C 0.27607 0.12933 0.49046 0.0
C449 C 0.32449 0.14001 0.50118 0.0
C450 C 0.18648 0.12949 0.49138 0.0
C451 C 0.14349 0.14031 0.50299 0.0
C452 C 0.19208 0.15094 0.51382 0.0
C453 C 0.28126 0.15079 0.51291 0.0
C454 C 0.91198 0.15191 0.48948 0.0
C455 C 0.86769 0.14134 0.50681 0.0
C456 C 1.00123 0.15155 0.48807 0.0
C457 C 0.0484 0.1406 0.50399 0.0
C458 C 1.00417 0.13004 0.52141 0.0
C459 C 0.91489 0.1304 0.52283 0.0
H460 H 0.74759 0.90715 0.53659 0.0
H461 H 0.73926 0.86842 0.50033 0.0
H462 H 0.90401 0.90679 0.53603 0.0
H463 H 0.89437 0.86818 0.499 0.0
H464 H 0.17773 0.8675 0.54725 0.0
H465 H 1.02204 0.86816 0.54917 0.0
H466 H 1.01669 0.90597 0.48459 0.0
H467 H 0.17241 0.90544 0.4834 0.0
C468 C 0.77887 0.89858 0.52839 0.0
C469 C 0.73062 0.88781 0.51866 0.0
C470 C 0.86849 0.8984 0.52785 0.0
C471 C 0.91172 0.88744 0.51761 0.0
C472 C 0.86333 0.87671 0.50773 0.0
C473 C 0.77407 0.87689 0.50826 0.0
C474 C 0.14344 0.87595 0.53337 0.0
C475 C 0.18775 0.8864 0.51512 0.0
C476 C 0.05408 0.87631 0.53433 0.0
C477 C 1.00687 0.88713 0.51704 0.0
C478 C 0.05117 0.89757 0.49873 0.0
C479 C 0.1405 0.89721 0.49774 0.0
H480 H 0.90467 0.54389 0.95261 0.0
H481 H 0.1357 0.54342 0.03981 0.0
H482 H 0.91282 0.5209 0.95184 0.0
H483 H 0.14351 0.52042 0.0392 0.0
H484 H 0.0695 0.47925 0.07181 0.0
H485 H 0.06288 0.50228 0.06827 0.0
H486 H 0.99728 0.50338 0.92785 0.0
H487 H 1.00133 0.48021 0.93163 0.0
C488 C 0.9581 0.53892 0.97099 0.0
C489 C 1.01941 0.54553 -0.0036 0.0
C490 C 0.9626 0.52572 0.97063 0.0
C491 C 0.02836 0.5188 -0.00423 0.0
C492 C 0.09102 0.52543 0.02016 0.0
C493 C 0.08664 0.53863 0.02046 0.0
C494 C 0.05235 0.48437 0.04026 0.0
C495 C 0.03544 0.47786 0.00204 0.0
C496 C 0.04982 0.4976 0.03812 0.0
C497 C 0.03023 0.50469 -0.00228 0.0
C498 C 1.01218 0.4982 0.95953 0.0
C499 C 1.01507 0.48493 0.96164 0.0
H500 H 0.15531 0.48075 0.51068 0.0
H501 H 0.8862 0.48502 0.46793 0.0
H502 H 0.16704 0.50369 0.51312 0.0
H503 H 0.89807 0.50791 0.47023 0.0
H504 H 0.96894 0.54979 0.44503 0.0
H505 H 0.96185 0.52703 0.43613 0.0
H506 H 0.11681 0.5197 0.55875 0.0
H507 H 0.12619 0.54236 0.56687 0.0
C508 C 0.09871 0.48657 0.5017 0.0
C509 C 1.01982 0.48101 0.48919 0.0
C510 C 0.10539 0.49972 0.50316 0.0
C511 C 0.03334 0.50764 0.49213 0.0
C512 C 0.95507 0.50211 0.4784 0.0
C513 C 0.94836 0.48897 0.477 0.0
C514 C 1.0019 0.54331 0.4699 0.0
C515 C 0.04771 0.5479 0.50678 0.0
C516 C 0.99733 0.53027 0.46498 0.0
C517 C 0.03897 0.52153 0.49667 0.0
C518 C 0.08491 0.52615 0.53342 0.0
C519 C 0.08922 0.53915 0.53841 0.0
H520 H 0.50132 0.98121 0.93544 0.0
H521 H 0.56903 0.97886 0.07578 0.0
H522 H 0.49376 1.00431 0.93476 0.0
H523 H 0.56262 1.00181 0.07511 0.0
H524 H 0.45888 0.04197 0.06829 0.0
H525 H 0.463 0.01904 0.0669 0.0
H526 H 0.58207 0.02288 0.94291 0.0
H527 H 0.57683 0.04595 0.94413 0.0
C528 C 0.51473 0.98562 0.96611 0.0
C529 C 0.53492 0.97816 0.00573 0.0
C530 C 0.51077 0.99886 0.96571 0.0
C531 C 0.52732 1.00496 0.00491 0.0
C532 C 0.54771 0.99747 0.04443 0.0
C533 C 0.55128 0.98427 0.04485 0.0
C534 C 0.4869 0.03794 0.04095 0.0
C535 C 0.51836 0.04581 0.00655 0.0
C536 C 0.48919 0.02476 0.04012 0.0
C537 C 0.52334 0.01906 0.00492 0.0
C538 C 0.55435 0.02693 0.97029 0.0
C539 C 0.55169 0.04016 0.97104 0.0
H540 H 0.41517 0.04826 0.46663 0.0
H541 H 0.64121 0.04369 0.5571 0.0
H542 H 0.40622 0.02537 0.46417 0.0
H543 H 0.62956 0.02076 0.55648 0.0
H544 H 0.64109 0.98117 0.50531 0.0
H545 H 0.65008 1.00414 0.50872 0.0
H546 H 0.37338 1.00642 0.5068 0.0
H547 H 0.36464 0.9836 0.50264 0.0
C548 C 0.46262 0.04238 0.48628 0.0
C549 C 0.52903 0.04786 0.51196 0.0
C550 C 0.45698 0.02922 0.48523 0.0
C551 C 0.51735 0.02118 0.51002 0.0
C552 C 0.5827 0.02665 0.53646 0.0
C553 C 0.58854 0.03982 0.53736 0.0
C554 C 0.58233 0.98661 0.50565 0.0
C555 C 0.50218 0.98058 0.50327 0.0
C556 C 0.58739 0.99976 0.50781 0.0
C557 C 0.5124 1.00717 0.50798 0.0
C558 C 0.43237 1.00109 0.50587 0.0
C559 C 0.42733 0.98798 0.50345 0.0
H560 H 0.16694 0.28672 0.0569 0.0
H561 H 0.27483 0.29854 0.93385 0.0
H562 H 0.20329 0.26478 0.04718 0.0
H563 H 0.30873 0.27646 0.92337 0.0
H564 H 0.44582 0.23752 0.94938 0.0
H565 H 0.40619 0.25955 0.95516 0.0
H566 H 0.16152 0.24765 0.00109 0.0
H567 H 0.201 0.22555 -0.0049 0.0
C568 C 0.19881 0.28465 0.02783 0.0
C569 C 0.21851 0.29442 -0.00369 0.0
C570 C 0.21855 0.27203 0.02195 0.0
C571 C 0.25861 0.26883 0.9844 0.0
C572 C 0.27845 0.2786 0.95285 0.0
C573 C 0.25841 0.29124 0.95867 0.0
C574 C 0.38289 0.23958 0.95995 0.0
C575 C 0.32657 0.22972 0.97172 0.0
C576 C 0.36025 0.25224 0.96335 0.0
C577 C 0.2808 0.25539 0.97872 0.0
C578 C 0.22382 0.24555 0.9898 0.0
C579 C 0.24641 0.23288 0.98633 0.0
H580 H 0.85062 0.79587 0.02348 0.0
H581 H 0.59848 0.79037 0.95991 0.0
H582 H 0.88575 0.77369 0.01635 0.0
H583 H 0.63476 0.76833 0.95128 0.0
H584 H 0.69462 0.72625 0.99325 0.0
H585 H 0.65887 0.7486 -0.00336 0.0
H586 H 0.91461 0.75889 0.96237 0.0
H587 H 0.95136 0.73658 0.96072 0.0
C588 C 0.80284 0.78995 0.00776 0.0
C589 C 0.72171 0.79493 0.99231 0.0
C590 C 0.82328 0.77726 0.00326 0.0
C591 C 0.76306 0.7692 0.98325 0.0
C592 C 0.68235 0.77422 0.96728 0.0
C593 C 0.66197 0.78692 0.97171 0.0
C594 C 0.74328 0.73328 0.98655 0.0
C595 C 0.82587 0.72958 0.9767 0.0
C596 C 0.72252 0.74611 0.98805 0.0
C597 C 0.78392 0.75557 0.97986 0.0
C598 C 0.86605 0.75187 0.96936 0.0
C599 C 0.88674 0.73906 0.96781 0.0
H600 H 0.24652 0.73381 0.43853 0.0
H601 H 0.19194 0.73202 0.57585 0.0
H602 H 0.28413 0.75608 0.44136 0.0
H603 H 0.22639 0.75445 0.57823 0.0
H604 H 0.38574 0.79086 0.57825 0.0
H605 H 0.3478 0.7686 0.57618 0.0
H606 H 0.21759 0.77655 0.447 0.0
H607 H 0.25614 0.79887 0.449 0.0
C608 C 0.24303 0.73814 0.46942 0.0
C609 C 0.21657 0.7311 0.50703 0.0
C610 C 0.26341 0.75097 0.47086 0.0
C611 C 0.25793 0.75709 0.50996 0.0
C612 C 0.23203 0.75002 0.54767 0.0
C613 C 0.21152 0.73719 0.54621 0.0
C614 C 0.34798 0.7879 0.54963 0.0
C615 C 0.32364 0.79667 0.51385 0.0
C616 C 0.32629 0.77512 0.54844 0.0
C617 C 0.27963 0.77076 0.51143 0.0
C618 C 0.25472 0.77954 0.47574 0.0
C619 C 0.2766 0.79234 0.47691 0.0
H620 H 0.91394 0.29293 0.46499 0.0
H621 H 0.73342 0.29816 0.56318 0.0
H622 H 0.8735 0.27069 0.46412 0.0
H623 H 0.69574 0.27582 0.56371 0.0
H624 H 0.58567 0.23839 0.5209 0.0
H625 H 0.62282 0.26074 0.51929 0.0
H626 H 0.88965 0.25106 0.51047 0.0
H627 H 0.85222 0.22863 0.51185 0.0
C628 C 0.86512 0.28937 0.48614 0.0
C629 C 0.8269 0.29736 0.51413 0.0
C630 C 0.84285 0.27657 0.48611 0.0
C631 C 0.78174 0.27142 0.51404 0.0
C632 C 0.74252 0.27947 0.54149 0.0
C633 C 0.76476 0.29226 0.54151 0.0
C634 C 0.65247 0.241 0.51918 0.0
C635 C 0.71605 0.23169 0.51681 0.0
C636 C 0.67377 0.25384 0.51818 0.0
C637 C 0.75926 0.25773 0.5148 0.0
C638 C 0.82295 0.24842 0.51242 0.0
C639 C 0.80158 0.23556 0.51335 0.0
H640 H 0.96825 0.37016 0.15386 0.0
H641 H 0.17483 0.39686 0.17129 0.0
H642 H 0.93386 0.37181 0.22963 0.0
H643 H 0.14262 0.39814 0.24802 0.0
H644 H 1.0082 0.40758 0.36897 0.0
H645 H 0.03875 0.40623 0.29217 0.0
H646 H 0.98329 0.36613 0.3034 0.0
H647 H 0.94958 0.36761 0.37948 0.0
C648 C 1.00723 0.37625 0.1741 0.0
C649 C 0.07443 0.38337 0.15658 0.0
C650 C 0.98764 0.37716 0.2177 0.0
C651 C 0.03539 0.3851 0.24509 0.0
C652 C 0.10349 0.39209 0.22769 0.0
C653 C 0.12252 0.39128 0.18382 0.0
C654 C 1.00184 0.3985 0.35488 0.0
C655 C 0.97617 0.38771 0.38028 0.0
C656 C 1.02014 0.3977 0.31095 0.0
C657 C 1.01405 0.38606 0.29155 0.0
C658 C 0.98746 0.3753 0.31694 0.0
C659 C 0.96828 0.37614 0.36069 0.0
H660 H 1.01489 0.65754 0.14168 0.0
H661 H 0.94547 0.61798 0.1515 0.0
H662 H 0.03863 0.65697 0.22153 0.0
H663 H 0.97317 0.6172 0.23144 0.0
H664 H 0.95518 0.6235 0.3779 0.0
H665 H 0.9249 0.62364 0.2981 0.0
H666 H 0.13716 0.6492 0.2787 0.0
H667 H 0.16434 0.6495 0.35805 0.0
C668 C 1.00527 0.64869 0.16096 0.0
C669 C 0.97859 0.6378 0.14036 0.0
C670 C 1.0195 0.64832 0.20678 0.0
C671 C 1.00886 0.63699 0.2331 0.0
C672 C 0.98108 0.62612 0.21239 0.0
C673 C 0.96556 0.62655 0.16652 0.0
C674 C 0.99542 0.62909 0.35644 0.0
C675 C 0.06166 0.63656 0.37416 0.0
C676 C 0.97834 0.62915 0.3107 0.0
C677 C 1.02798 0.63654 0.28179 0.0
C678 C 0.09599 0.64367 0.2998 0.0
C679 C 0.1121 0.64376 0.34538 0.0
H680 H 0.09249 0.62481 0.88126 0.0
H681 H 0.89386 0.65307 0.84739 0.0
H682 H 0.1336 0.62664 0.80587 0.0
H683 H 0.93231 0.65449 0.77087 0.0
H684 H 0.0688 0.66237 0.64516 0.0
H685 H 0.03725 0.66161 0.72258 0.0
H686 H 0.08863 0.62128 0.73524 0.0
H687 H 0.1238 0.62217 0.65888 0.0
C688 C 0.05659 0.63129 0.85748 0.0
C689 C 0.9894 0.63873 0.87024 0.0
C690 C 0.08008 0.63232 0.81406 0.0
C691 C 0.03612 0.64066 0.78197 0.0
C692 C 0.96859 0.6481 0.79475 0.0
C693 C 0.9459 0.64721 0.83852 0.0
C694 C 0.07449 0.65338 0.66475 0.0
C695 C 0.09924 0.64235 0.6459 0.0
C696 C 0.0555 0.65292 0.70903 0.0
C697 C 0.05982 0.64137 0.73531 0.0
C698 C 0.08598 0.63039 0.71645 0.0
C699 C 0.10605 0.6309 0.67246 0.0
H700 H 0.88922 0.40014 0.65932 0.0
H701 H 0.10463 0.37464 0.65588 0.0
H702 H 0.91447 0.40004 0.73931 0.0
H703 H 0.13199 0.37492 0.7353 0.0
H704 H 0.10103 0.36688 0.88139 0.0
H705 H 0.07449 0.36727 0.80177 0.0
H706 H 1.01066 0.40715 0.7966 0.0
H707 H 0.03418 0.40663 0.87671 0.0
C708 C 0.94229 0.39459 0.67562 0.0
C709 C 0.99458 0.38734 0.65136 0.0
C710 C 0.95718 0.39459 0.72143 0.0
C711 C 1.02519 0.38744 0.74385 0.0
C712 C 0.07799 0.38033 0.71933 0.0
C713 C 0.06257 0.38022 0.67369 0.0
C714 C 0.08165 0.37575 0.86329 0.0
C715 C 0.06983 0.38673 0.88537 0.0
C716 C 0.06678 0.37599 0.81753 0.0
C717 C 0.04066 0.38725 0.79263 0.0
C718 C 0.02944 0.39827 0.81475 0.0
C719 C 0.04349 0.398 0.86066 0.0
H720 H 0.61315 0.90395 0.16145 0.0
H721 H 0.54924 0.86419 0.17051 0.0
H722 H 0.57831 0.90539 0.23741 0.0
H723 H 0.51844 0.86542 0.2473 0.0
H724 H 0.38527 0.87416 0.369 0.0
H725 H 0.41749 0.87313 0.29222 0.0
H726 H 0.62314 0.89998 0.31101 0.0
H727 H 0.58793 0.90145 0.38675 0.0
C728 C 0.5932 0.89545 0.17999 0.0
C729 C 0.584 0.88396 0.16004 0.0
C730 C 0.57337 0.89626 0.22368 0.0
C731 C 0.5452 0.88553 0.24872 0.0
C732 C 0.53805 0.87395 0.2289 0.0
C733 C 0.55655 0.8732 0.18496 0.0
C734 C 0.43686 0.87991 0.3565 0.0
C735 C 0.48367 0.88794 0.38383 0.0
C736 C 0.45597 0.87924 0.31258 0.0
C737 C 0.5233 0.88643 0.29522 0.0
C738 C 0.56985 0.89447 0.32276 0.0
C739 C 0.54984 0.89529 0.36637 0.0
H740 H 0.44336 0.12231 0.149 0.0
H741 H 0.54205 0.16035 0.13031 0.0
H742 H 0.46755 0.12309 0.22881 0.0
H743 H 0.56618 0.16107 0.21014 0.0
H744 H 0.50685 0.16132 0.35726 0.0
H745 H 0.4794 0.16099 0.27734 0.0
H746 H 0.59786 0.12395 0.2827 0.0
H747 H 0.62536 0.12424 0.3624 0.0
C748 C 0.4698 0.13085 0.16189 0.0
C749 C 0.49101 0.14125 0.13334 0.0
C750 C 0.4841 0.13126 0.20755 0.0
C751 C 0.519 0.14213 0.22558 0.0
C752 C 0.53867 0.15261 0.19711 0.0
C753 C 0.52525 0.15216 0.15143 0.0
C754 C 0.52723 0.15313 0.34136 0.0
C755 C 0.56833 0.14281 0.36613 0.0
C756 C 0.51177 0.15296 0.29563 0.0
C757 C 0.53621 0.14242 0.27393 0.0
C758 C 0.57749 0.13213 0.29868 0.0
C759 C 0.59378 0.13235 0.34426 0.0
H760 H 0.37569 0.14837 0.84061 0.0
H761 H 0.60858 0.12661 0.87478 0.0
H762 H 0.40405 0.1488 0.76228 0.0
H763 H 0.63778 0.12741 0.79674 0.0
H764 H 0.68638 0.14941 0.65565 0.0
H765 H 0.65847 0.149 0.7341 0.0
H766 H 0.42655 0.12786 0.70857 0.0
H767 H 0.45529 0.12789 0.63068 0.0
C768 C 0.43283 0.14371 0.83138 0.0
C769 C 0.48963 0.13738 0.86362 0.0
C770 C 0.44892 0.14396 0.78675 0.0
C771 C 0.52317 0.13818 0.77392 0.0
C772 C 0.58037 0.13197 0.80609 0.0
C773 C 0.56325 0.13145 0.85055 0.0
C774 C 0.62971 0.14464 0.6669 0.0
C775 C 0.57331 0.13861 0.63725 0.0
C776 C 0.61391 0.1444 0.71158 0.0
C777 C 0.54035 0.13843 0.72692 0.0
C778 C 0.48348 0.13255 0.69727 0.0
C779 C 0.50031 0.13251 0.6529 0.0
H780 H 0.52883 0.86619 0.66479 0.0
H781 H 0.45212 0.90557 0.65732 0.0
H782 H 0.55354 0.86622 0.7446 0.0
H783 H 0.48086 0.90585 0.73677 0.0
H784 H 0.45945 0.89917 0.88436 0.0
H785 H 0.43096 0.89888 0.80491 0.0
H786 H 0.64734 0.87354 0.80047 0.0
H787 H 0.67283 0.87336 0.8803 0.0
C788 C 0.51785 0.87488 0.68024 0.0
C789 C 0.48833 0.88586 0.65488 0.0
C790 C 0.53264 0.87494 0.72599 0.0
C791 C 0.51962 0.88606 0.74734 0.0
C792 C 0.49015 0.89705 0.72174 0.0
C793 C 0.47403 0.89692 0.67609 0.0
C794 C 0.50103 0.89356 0.86635 0.0
C795 C 0.56831 0.88627 0.88854 0.0
C796 C 0.485 0.89345 0.82069 0.0
C797 C 0.53677 0.88619 0.79603 0.0
C798 C 0.60495 0.87904 0.81834 0.0
C799 C 0.62007 0.87901 0.86411 0.0
loop_
_geom_bond_atom_site_label_1
_geom_bond_atom_site_label_2
_geom_bond_distance
_geom_bond_site_symmetry_2
_ccdc_geom_bond_type
Dy0 O3 2.307 . S
Dy0 O5 2.395 . S
Dy0 O6 2.379 1_554 S
Dy0 O8 2.339 1_554 S
Dy0 O10 2.297 1_454 S
Dy0 O14 2.275 . S
Dy0 C22 2.735 1_455 S
Dy1 O4 2.298 . S
Dy1 O7 2.275 1_554 S
Dy1 O9 2.307 1_455 S
Dy1 O11 2.395 1_554 S
Dy1 O12 2.379 . S
Dy1 O15 2.339 . S
Dy1 C31 2.738 . S
C2 O14 1.254 . S
C2 O15 1.257 . S
O3 Dy0 2.307 . S
O3 C13 1.266 . S
O4 Dy1 2.298 . S
O4 C13 1.236 . S
O5 Dy0 2.395 . S
O5 C22 1.255 1_455 S
O6 Dy0 2.379 1_556 S
O6 C22 1.248 1_456 S
O7 Dy1 2.275 1_556 S
O7 C23 1.254 . S
O8 Dy0 2.339 1_556 S
O8 C23 1.257 . S
O9 Dy1 2.307 1_655 S
O9 C24 1.266 . S
O10 Dy0 2.297 1_656 S
O10 C24 1.227 1_556 S
O11 Dy1 2.395 1_556 S
O11 C31 1.255 1_556 S
O12 Dy1 2.379 . S
O12 C31 1.249 . S
C13 O3 1.266 . S
C13 O4 1.236 . S
O14 Dy0 2.275 . S
O14 C2 1.254 . S
O15 Dy1 2.339 . S
O15 C2 1.257 . S
C16 C19 1.344 . S
C16 C20 1.328 1_554 S
C16 C22 1.518 . S
C17 C18 1.304 . S
C17 C21 1.323 1_554 S
C18 C17 1.304 . S
C18 C19 1.371 . S
C18 H32 0.930 . S
C19 C16 1.344 . S
C19 C18 1.371 . S
C19 H33 0.931 . S
C20 C16 1.328 1_556 S
C20 C21 1.433 . S
C20 H34 0.931 . S
C21 C17 1.323 1_556 S
C21 C20 1.433 . S
C21 H35 0.933 . S
C22 Dy0 2.735 1_655 S
C22 O5 1.255 1_655 S
C22 O6 1.248 1_654 S
C22 C16 1.518 . S
C23 O7 1.254 . S
C23 O8 1.257 . S
C24 O9 1.266 . S
C24 O10 1.227 1_554 S
C25 C28 1.344 1_554 S
C25 C29 1.328 . S
C25 C31 1.516 . S
C26 C27 1.304 1_554 S
C26 C30 1.323 . S
C27 C26 1.304 1_556 S
C27 C28 1.371 . S
C27 H36 0.930 . S
C28 C25 1.344 1_556 S
C28 C27 1.371 . S
C28 H37 0.931 . S
C29 C25 1.328 . S
C29 C30 1.433 . S
C29 H38 0.931 . S
C30 C26 1.323 . S
C30 C29 1.433 . S
C30 H39 0.933 . S
C31 Dy1 2.738 . S
C31 O11 1.255 1_554 S
C31 O12 1.249 . S
C31 C25 1.516 . S
H32 C18 0.930 . S
H33 C19 0.931 . S
H34 C20 0.931 . S
H35 C21 0.933 . S
H36 C27 0.930 . S
H37 C28 0.931 . S
H38 C29 0.931 . S
H39 C30 0.933 . S
Dy40 O43 2.307 1_655 S
Dy40 O45 2.395 . S
Dy40 O46 2.379 1_554 S
Dy40 O48 2.339 1_554 S
Dy40 O50 2.298 1_554 S
Dy40 O54 2.275 . S
Dy40 C62 2.738 . S
Dy41 O44 2.298 1_655 S
Dy41 O47 2.275 1_554 S
Dy41 O49 2.307 . S
Dy41 O51 2.395 1_554 S
Dy41 O52 2.379 . S
Dy41 O55 2.339 . S
Dy41 C71 2.736 1_655 S
C42 O54 1.254 . S
C42 O55 1.257 . S
O43 Dy40 2.307 1_455 S
O43 C53 1.266 . S
O44 Dy41 2.298 1_455 S
O44 C53 1.236 . S
O45 Dy40 2.395 . S
O45 C62 1.255 . S
O46 Dy40 2.379 1_556 S
O46 C62 1.249 1_556 S
O47 Dy41 2.275 1_556 S
O47 C63 1.254 . S
O48 Dy40 2.339 1_556 S
O48 C63 1.257 . S
O49 Dy41 2.307 . S
O49 C64 1.266 . S
O50 Dy40 2.298 1_556 S
O50 C64 1.236 1_556 S
O51 Dy41 2.395 1_556 S
O51 C71 1.255 1_656 S
O52 Dy41 2.379 . S
O52 C71 1.248 1_655 S
C53 O43 1.266 . S
C53 O44 1.236 . S
O54 Dy40 2.275 . S
O54 C42 1.254 . S
O55 Dy41 2.339 . S
O55 C42 1.257 . S
C56 C59 1.344 . S
C56 C60 1.328 1_554 S
C56 C62 1.516 . S
C57 C58 1.304 . S
C57 C61 1.323 1_554 S
C58 C57 1.304 . S
C58 C59 1.371 . S
C58 H72 0.930 . S
C59 C56 1.344 . S
C59 C58 1.371 . S
C59 H73 0.931 . S
C60 C56 1.328 1_556 S
C60 C61 1.433 . S
C60 H74 0.931 . S
C61 C57 1.323 1_556 S
C61 C60 1.433 . S
C61 H75 0.933 . S
C62 Dy40 2.738 . S
C62 O45 1.255 . S
C62 O46 1.249 1_554 S
C62 C56 1.516 . S
C63 O47 1.254 . S
C63 O48 1.257 . S
C64 O49 1.266 . S
C64 O50 1.236 1_554 S
C65 C68 1.344 1_554 S
C65 C69 1.328 . S
C65 C71 1.518 . S
C66 C67 1.304 1_554 S
C66 C70 1.323 . S
C67 C66 1.304 1_556 S
C67 C68 1.371 . S
C67 H76 0.930 . S
C68 C65 1.344 1_556 S
C68 C67 1.371 . S
C68 H77 0.931 . S
C69 C65 1.328 . S
C69 C70 1.433 . S
C69 H78 0.931 . S
C70 C66 1.323 . S
C70 C69 1.433 . S
C70 H79 0.933 . S
C71 Dy41 2.736 1_455 S
C71 O51 1.255 1_454 S
C71 O52 1.248 1_455 S
C71 C65 1.518 . S
H72 C58 0.930 . S
H73 C59 0.931 . S
H74 C60 0.931 . S
H75 C61 0.933 . S
H76 C67 0.930 . S
H77 C68 0.931 . S
H78 C69 0.931 . S
H79 C70 0.933 . S
Dy80 O83 2.307 1_455 S
Dy80 O85 2.395 . S
Dy80 O86 2.379 . S
Dy80 O88 2.339 . S
Dy80 O90 2.298 . S
Dy80 O94 2.275 . S
Dy80 C102 2.738 . S
Dy81 O84 2.298 1_455 S
Dy81 O87 2.275 . S
Dy81 O89 2.307 . S
Dy81 O91 2.395 . S
Dy81 O92 2.379 . S
Dy81 O95 2.339 . S
Dy81 C111 2.742 . S
C82 O94 1.254 . S
C82 O95 1.257 . S
O83 Dy80 2.307 1_655 S
O83 C93 1.266 . S
O84 Dy81 2.298 1_655 S
O84 C93 1.236 . S
O85 Dy80 2.395 . S
O85 C102 1.255 . S
O86 Dy80 2.379 . S
O86 C102 1.249 . S
O87 Dy81 2.275 . S
O87 C103 1.254 . S
O88 Dy80 2.339 . S
O88 C103 1.257 . S
O89 Dy81 2.307 . S
O89 C104 1.266 . S
O90 Dy80 2.298 . S
O90 C104 1.236 . S
O91 Dy81 2.395 . S
O91 C111 1.256 . S
O92 Dy81 2.379 . S
O92 C111 1.252 . S
C93 O83 1.266 . S
C93 O84 1.236 . S
O94 Dy80 2.275 . S
O94 C82 1.254 . S
O95 Dy81 2.339 . S
O95 C82 1.257 . S
C96 C99 1.344 . S
C96 C100 1.328 . S
C96 C102 1.516 . S
C97 C98 1.304 . S
C97 C101 1.323 . S
C98 C97 1.304 . S
C98 C99 1.371 . S
C98 H112 0.930 . S
C99 C96 1.344 . S
C99 C98 1.371 . S
C99 H113 0.931 . S
C100 C96 1.328 . S
C100 C101 1.433 . S
C100 H114 0.931 . S
C101 C97 1.323 . S
C101 C100 1.433 . S
C101 H115 0.933 . S
C102 Dy80 2.738 . S
C102 O85 1.255 . S
C102 O86 1.249 . S
C102 C96 1.516 . S
C103 O87 1.254 . S
C103 O88 1.257 . S
C104 O89 1.266 . S
C104 O90 1.236 . S
C105 C108 1.344 . S
C105 C109 1.328 . S
C105 C111 1.512 1_655 S
C106 C107 1.304 . S
C106 C110 1.323 . S
C107 C106 1.304 . S
C107 C108 1.371 . S
C107 H116 0.930 . S
C108 C105 1.344 . S
C108 C107 1.371 . S
C108 H117 0.931 . S
C109 C105 1.328 . S
C109 C110 1.433 . S
C109 H118 0.931 . S
C110 C106 1.323 . S
C110 C109 1.433 . S
C110 H119 0.933 . S
C111 Dy81 2.742 . S
C111 O91 1.256 . S
C111 O92 1.252 . S
C111 C105 1.512 1_455 S
H112 C98 0.930 . S
H113 C99 0.931 . S
H114 C100 0.931 . S
H115 C101 0.933 . S
H116 C107 0.930 . S
H117 C108 0.931 . S
H118 C109 0.931 . S
H119 C110 0.933 . S
Dy120 O123 2.307 1_655 S
Dy120 O125 2.395 . S
Dy120 O126 2.379 . S
Dy120 O128 2.339 . S
Dy120 O130 2.298 . S
Dy120 O134 2.275 . S
Dy120 C142 2.738 . S
Dy121 O124 2.298 1_655 S
Dy121 O127 2.275 . S
Dy121 O129 2.307 . S
Dy121 O131 2.395 . S
Dy121 O132 2.379 . S
Dy121 O135 2.339 . S
Dy121 C151 2.738 . S
C122 O134 1.254 . S
C122 O135 1.257 . S
O123 Dy120 2.307 1_455 S
O123 C133 1.266 . S
O124 Dy121 2.298 1_455 S
O124 C133 1.236 . S
O125 Dy120 2.395 . S
O125 C142 1.255 . S
O126 Dy120 2.379 . S
O126 C142 1.249 . S
O127 Dy121 2.275 . S
O127 C143 1.254 . S
O128 Dy120 2.339 . S
O128 C143 1.257 . S
O129 Dy121 2.307 . S
O129 C144 1.266 . S
O130 Dy120 2.298 . S
O130 C144 1.236 . S
O131 Dy121 2.395 . S
O131 C151 1.255 . S
O132 Dy121 2.379 . S
O132 C151 1.249 . S
C133 O123 1.266 . S
C133 O124 1.236 . S
O134 Dy120 2.275 . S
O134 C122 1.254 . S
O135 Dy121 2.339 . S
O135 C122 1.257 . S
C136 C139 1.344 . S
C136 C140 1.328 . S
C136 C142 1.516 . S
C137 C138 1.304 . S
C137 C141 1.323 . S
C138 C137 1.304 . S
C138 C139 1.371 . S
C138 H152 0.930 . S
C139 C136 1.344 . S
C139 C138 1.371 . S
C139 H153 0.931 . S
C140 C136 1.328 . S
C140 C141 1.433 . S
C140 H154 0.931 . S
C141 C137 1.323 . S
C141 C140 1.433 . S
C141 H155 0.933 . S
C142 Dy120 2.738 . S
C142 O125 1.255 . S
C142 O126 1.249 . S
C142 C136 1.516 . S
C143 O127 1.254 . S
C143 O128 1.257 . S
C144 O129 1.266 . S
C144 O130 1.236 . S
C145 C148 1.344 . S
C145 C149 1.328 . S
C145 C151 1.516 1_455 S
C146 C147 1.304 . S
C146 C150 1.323 . S
C147 C146 1.304 . S
C147 C148 1.371 . S
C147 H156 0.930 . S
C148 C145 1.344 . S
C148 C147 1.371 . S
C148 H157 0.931 . S
C149 C145 1.328 . S
C149 C150 1.433 . S
C149 H158 0.931 . S
C150 C146 1.323 . S
C150 C149 1.433 . S
C150 H159 0.933 . S
C151 Dy121 2.738 . S
C151 O131 1.255 . S
C151 O132 1.249 . S
C151 C145 1.516 1_655 S
H152 C138 0.930 . S
H153 C139 0.931 . S
H154 C140 0.931 . S
H155 C141 0.933 . S
H156 C147 0.930 . S
H157 C148 0.931 . S
H158 C149 0.931 . S
H159 C150 0.933 . S
Dy160 O163 2.307 . S
Dy160 O165 2.395 . S
Dy160 O166 2.379 1_554 S
Dy160 O168 2.339 1_554 S
Dy160 O170 2.297 1_554 S
Dy160 O174 2.275 . S
Dy160 C182 2.738 . S
Dy161 O164 2.298 . S
Dy161 O167 2.275 1_554 S
Dy161 O169 2.307 . S
Dy161 O171 2.395 1_554 S
Dy161 O172 2.379 . S
Dy161 O175 2.339 . S
Dy161 C191 2.738 . S
C162 O174 1.254 . S
C162 O175 1.257 . S
O163 Dy160 2.307 . S
O163 C173 1.266 . S
O164 Dy161 2.298 . S
O164 C173 1.236 . S
O165 Dy160 2.395 . S
O165 C182 1.255 . S
O166 Dy160 2.379 1_556 S
O166 C182 1.249 1_556 S
O167 Dy161 2.275 1_556 S
O167 C183 1.254 . S
O168 Dy160 2.339 1_556 S
O168 C183 1.257 . S
O169 Dy161 2.307 . S
O169 C184 1.266 . S
O170 Dy160 2.297 1_556 S
O170 C184 1.228 1_556 S
O171 Dy161 2.395 1_556 S
O171 C191 1.255 1_556 S
O172 Dy161 2.379 . S
O172 C191 1.249 . S
C173 O163 1.266 . S
C173 O164 1.236 . S
O174 Dy160 2.275 . S
O174 C162 1.254 . S
O175 Dy161 2.339 . S
O175 C162 1.257 . S
C176 C179 1.344 . S
C176 C180 1.328 1_554 S
C176 C182 1.516 . S
C177 C178 1.304 . S
C177 C181 1.323 1_554 S
C178 C177 1.304 . S
C178 C179 1.371 . S
C178 H192 0.930 . S
C179 C176 1.344 . S
C179 C178 1.371 . S
C179 H193 0.931 . S
C180 C176 1.328 1_556 S
C180 C181 1.433 . S
C180 H194 0.931 . S
C181 C177 1.323 1_556 S
C181 C180 1.433 . S
C181 H195 0.933 . S
C182 Dy160 2.738 . S
C182 O165 1.255 . S
C182 O166 1.249 1_554 S
C182 C176 1.516 . S
C183 O167 1.254 . S
C183 O168 1.257 . S
C184 O169 1.266 . S
C184 O170 1.228 1_554 S
C185 C188 1.344 1_554 S
C185 C189 1.328 . S
C185 C191 1.516 . S
C186 C187 1.304 1_554 S
C186 C190 1.323 . S
C187 C186 1.304 1_556 S
C187 C188 1.371 . S
C187 H196 0.930 . S
C188 C185 1.344 1_556 S
C188 C187 1.371 . S
C188 H197 0.931 . S
C189 C185 1.328 . S
C189 C190 1.433 . S
C189 H198 0.931 . S
C190 C186 1.323 . S
C190 C189 1.433 . S
C190 H199 0.933 . S
C191 Dy161 2.738 . S
C191 O171 1.255 1_554 S
C191 O172 1.249 . S
C191 C185 1.516 . S
H192 C178 0.930 . S
H193 C179 0.931 . S
H194 C180 0.931 . S
H195 C181 0.933 . S
H196 C187 0.930 . S
H197 C188 0.931 . S
H198 C189 0.931 . S
H199 C190 0.933 . S
Dy200 O203 2.307 . S
Dy200 O205 2.395 . S
Dy200 O206 2.379 1_554 S
Dy200 O208 2.339 1_554 S
Dy200 O210 2.298 1_554 S
Dy200 O214 2.275 . S
Dy200 C222 2.738 . S
Dy201 O204 2.298 . S
Dy201 O207 2.275 1_554 S
Dy201 O209 2.307 . S
Dy201 O211 2.395 1_554 S
Dy201 O212 2.379 . S
Dy201 O215 2.339 . S
Dy201 C231 2.738 . S
C202 O214 1.254 . S
C202 O215 1.257 . S
O203 Dy200 2.307 . S
O203 C213 1.266 . S
O204 Dy201 2.298 . S
O204 C213 1.236 . S
O205 Dy200 2.395 . S
O205 C222 1.255 . S
O206 Dy200 2.379 1_556 S
O206 C222 1.249 1_556 S
O207 Dy201 2.275 1_556 S
O207 C223 1.254 . S
O208 Dy200 2.339 1_556 S
O208 C223 1.257 . S
O209 Dy201 2.307 . S
O209 C224 1.266 . S
O210 Dy200 2.298 1_556 S
O210 C224 1.236 1_556 S
O211 Dy201 2.395 1_556 S
O211 C231 1.255 1_556 S
O212 Dy201 2.379 . S
O212 C231 1.249 . S
C213 O203 1.266 . S
C213 O204 1.236 . S
O214 Dy200 2.275 . S
O214 C202 1.254 . S
O215 Dy201 2.339 . S
O215 C202 1.257 . S
C216 C219 1.344 . S
C216 C220 1.328 1_554 S
C216 C222 1.516 . S
C217 C218 1.304 . S
C217 C221 1.323 1_554 S
C218 C217 1.304 . S
C218 C219 1.371 . S
C218 H232 0.930 . S
C219 C216 1.344 . S
C219 C218 1.371 . S
C219 H233 0.931 . S
C220 C216 1.328 1_556 S
C220 C221 1.433 . S
C220 H234 0.931 . S
C221 C217 1.323 1_556 S
C221 C220 1.433 . S
C221 H235 0.933 . S
C222 Dy200 2.738 . S
C222 O205 1.255 . S
C222 O206 1.249 1_554 S
C222 C216 1.516 . S
C223 O207 1.254 . S
C223 O208 1.257 . S
C224 O209 1.266 . S
C224 O210 1.236 1_554 S
C225 C228 1.344 1_554 S
C225 C229 1.328 . S
C225 C231 1.516 . S
C226 C227 1.304 1_554 S
C226 C230 1.323 . S
C227 C226 1.304 1_556 S
C227 C228 1.371 . S
C227 H236 0.930 . S
C228 C225 1.344 1_556 S
C228 C227 1.371 . S
C228 H237 0.931 . S
C229 C225 1.328 . S
C229 C230 1.433 . S
C229 H238 0.931 . S
C230 C226 1.323 . S
C230 C229 1.433 . S
C230 H239 0.933 . S
C231 Dy201 2.738 . S
C231 O211 1.255 1_554 S
C231 O212 1.249 . S
C231 C225 1.516 . S
H232 C218 0.930 . S
H233 C219 0.931 . S
H234 C220 0.931 . S
H235 C221 0.933 . S
H236 C227 0.930 . S
H237 C228 0.931 . S
H238 C229 0.931 . S
H239 C230 0.933 . S
Dy240 O243 2.307 . S
Dy240 O245 2.395 . S
Dy240 O246 2.379 . S
Dy240 O248 2.339 . S
Dy240 O250 2.298 . S
Dy240 O254 2.275 . S
Dy240 C262 2.738 . S
Dy241 O244 2.298 . S
Dy241 O247 2.275 . S
Dy241 O249 2.307 . S
Dy241 O251 2.395 . S
Dy241 O252 2.379 . S
Dy241 O255 2.339 . S
Dy241 C271 2.738 . S
C242 O254 1.254 . S
C242 O255 1.257 . S
O243 Dy240 2.307 . S
O243 C253 1.266 . S
O244 Dy241 2.298 . S
O244 C253 1.236 . S
O245 Dy240 2.395 . S
O245 C262 1.255 . S
O246 Dy240 2.379 . S
O246 C262 1.249 . S
O247 Dy241 2.275 . S
O247 C263 1.254 . S
O248 Dy240 2.339 . S
O248 C263 1.257 . S
O249 Dy241 2.307 . S
O249 C264 1.266 . S
O250 Dy240 2.298 . S
O250 C264 1.236 . S
O251 Dy241 2.395 . S
O251 C271 1.255 . S
O252 Dy241 2.379 . S
O252 C271 1.249 . S
C253 O243 1.266 . S
C253 O244 1.236 . S
O254 Dy240 2.275 . S
O254 C242 1.254 . S
O255 Dy241 2.339 . S
O255 C242 1.257 . S
C256 C259 1.344 . S
C256 C260 1.328 . S
C256 C262 1.516 . S
C257 C258 1.304 . S
C257 C261 1.323 . S
C258 C257 1.304 . S
C258 C259 1.371 . S
C258 H272 0.930 . S
C259 C256 1.344 . S
C259 C258 1.371 . S
C259 H273 0.931 . S
C260 C256 1.328 . S
C260 C261 1.433 . S
C260 H274 0.931 . S
C261 C257 1.323 . S
C261 C260 1.433 . S
C261 H275 0.933 . S
C262 Dy240 2.738 . S
C262 O245 1.255 . S
C262 O246 1.249 . S
C262 C256 1.516 . S
C263 O247 1.254 . S
C263 O248 1.257 . S
C264 O249 1.266 . S
C264 O250 1.236 . S
C265 C268 1.344 . S
C265 C269 1.328 . S
C265 C271 1.516 . S
C266 C267 1.304 . S
C266 C270 1.323 . S
C267 C266 1.304 . S
C267 C268 1.371 . S
C267 H276 0.930 . S
C268 C265 1.344 . S
C268 C267 1.371 . S
C268 H277 0.931 . S
C269 C265 1.328 . S
C269 C270 1.433 . S
C269 H278 0.931 . S
C270 C266 1.323 . S
C270 C269 1.433 . S
C270 H279 0.933 . S
C271 Dy241 2.738 . S
C271 O251 1.255 . S
C271 O252 1.249 . S
C271 C265 1.516 . S
H272 C258 0.930 . S
H273 C259 0.931 . S
H274 C260 0.931 . S
H275 C261 0.933 . S
H276 C267 0.930 . S
H277 C268 0.931 . S
H278 C269 0.931 . S
H279 C270 0.933 . S
Dy280 O283 2.307 . S
Dy280 O285 2.395 . S
Dy280 O286 2.379 . S
Dy280 O288 2.339 . S
Dy280 O290 2.298 . S
Dy280 O294 2.275 . S
Dy280 C302 2.738 . S
Dy281 O284 2.298 . S
Dy281 O287 2.275 . S
Dy281 O289 2.307 . S
Dy281 O291 2.395 . S
Dy281 O292 2.379 . S
Dy281 O295 2.339 . S
Dy281 C311 2.738 . S
C282 O294 1.254 . S
C282 O295 1.257 . S
O283 Dy280 2.307 . S
O283 C293 1.266 . S
O284 Dy281 2.298 . S
O284 C293 1.236 . S
O285 Dy280 2.395 . S
O285 C302 1.255 . S
O286 Dy280 2.379 . S
O286 C302 1.249 . S
O287 Dy281 2.275 . S
O287 C303 1.254 . S
O288 Dy280 2.339 . S
O288 C303 1.257 . S
O289 Dy281 2.307 . S
O289 C304 1.266 . S
O290 Dy280 2.298 . S
O290 C304 1.236 . S
O291 Dy281 2.395 . S
O291 C311 1.255 . S
O292 Dy281 2.379 . S
O292 C311 1.249 . S
C293 O283 1.266 . S
C293 O284 1.236 . S
O294 Dy280 2.275 . S
O294 C282 1.254 . S
O295 Dy281 2.339 . S
O295 C282 1.257 . S
C296 C299 1.344 . S
C296 C300 1.328 . S
C296 C302 1.516 . S
C297 C298 1.304 . S
C297 C301 1.323 . S
C298 C297 1.304 . S
C298 C299 1.371 . S
C298 H312 0.930 . S
C299 C296 1.344 . S
C299 C298 1.371 . S
C299 H313 0.931 . S
C300 C296 1.328 . S
C300 C301 1.433 . S
C300 H314 0.931 . S
C301 C297 1.323 . S
C301 C300 1.433 . S
C301 H315 0.933 . S
C302 Dy280 2.738 . S
C302 O285 1.255 . S
C302 O286 1.249 . S
C302 C296 1.516 . S
C303 O287 1.254 . S
C303 O288 1.257 . S
C304 O289 1.266 . S
C304 O290 1.236 . S
C305 C308 1.344 . S
C305 C309 1.328 . S
C305 C311 1.516 . S
C306 C307 1.304 . S
C306 C310 1.323 . S
C307 C306 1.304 . S
C307 C308 1.371 . S
C307 H316 0.930 . S
C308 C305 1.344 . S
C308 C307 1.371 . S
C308 H317 0.931 . S
C309 C305 1.328 . S
C309 C310 1.433 . S
C309 H318 0.931 . S
C310 C306 1.323 . S
C310 C309 1.433 . S
C310 H319 0.933 . S
C311 Dy281 2.738 . S
C311 O291 1.255 . S
C311 O292 1.249 . S
C311 C305 1.516 . S
H312 C298 0.930 . S
H313 C299 0.931 . S
H314 C300 0.931 . S
H315 C301 0.933 . S
H316 C307 0.930 . S
H317 C308 0.931 . S
H318 C309 0.931 . S
H319 C310 0.933 . S
H320 C328 0.943 1_556 S
H321 C333 0.950 . S
H322 C330 0.950 1_556 S
H323 C332 0.950 . S
H324 C334 0.950 . S
H325 C336 0.950 . S
H326 C338 0.950 1_556 S
H327 C339 0.950 1_556 S
C328 H320 0.943 1_554 S
C328 C329 1.393 . S
C328 C330 1.390 . S
C329 C328 1.393 . S
C329 C333 1.393 . S
C330 H322 0.950 1_554 S
C330 C328 1.390 . S
C330 C331 1.400 . S
C331 C330 1.400 . S
C331 C332 1.398 . S
C331 C337 1.491 . S
C332 H323 0.950 . S
C332 C331 1.398 . S
C332 C333 1.391 . S
C333 H321 0.950 . S
C333 C329 1.393 . S
C333 C332 1.391 . S
C334 H324 0.950 . S
C334 C335 1.386 . S
C334 C336 1.391 . S
C335 C334 1.386 . S
C335 C339 1.393 . S
C336 H325 0.950 . S
C336 C334 1.391 . S
C336 C337 1.400 . S
C337 C331 1.491 . S
C337 C336 1.400 . S
C337 C338 1.398 . S
C338 H326 0.950 1_554 S
C338 C337 1.398 . S
C338 C339 1.391 . S
C339 H327 0.950 1_554 S
C339 C335 1.393 . S
C339 C338 1.391 . S
H340 C348 0.950 . S
H341 C353 0.950 . S
H342 C350 0.950 . S
H343 C352 0.950 . S
H344 C354 0.950 . S
H345 C356 0.950 . S
H346 C358 0.950 . S
H347 C359 0.950 . S
C348 H340 0.950 . S
C348 C349 1.386 . S
C348 C350 1.391 . S
C349 C348 1.386 . S
C349 C353 1.393 . S
C350 H342 0.950 . S
C350 C348 1.391 . S
C350 C351 1.400 . S
C351 C350 1.400 . S
C351 C352 1.398 . S
C351 C357 1.491 . S
C352 H343 0.950 . S
C352 C351 1.398 . S
C352 C353 1.391 . S
C353 H341 0.950 . S
C353 C349 1.393 . S
C353 C352 1.391 . S
C354 H344 0.950 . S
C354 C355 1.386 . S
C354 C356 1.391 . S
C355 C354 1.386 . S
C355 C359 1.393 . S
C356 H345 0.950 . S
C356 C354 1.391 . S
C356 C357 1.400 . S
C357 C351 1.491 . S
C357 C356 1.400 . S
C357 C358 1.398 . S
C358 H346 0.950 . S
C358 C357 1.398 . S
C358 C359 1.391 . S
C359 H347 0.950 . S
C359 C355 1.393 . S
C359 C358 1.391 . S
H360 C368 0.950 . S
H361 C373 0.950 . S
H362 C370 0.950 . S
H363 C372 0.950 . S
H364 C374 0.950 . S
H365 C376 0.950 . S
H366 C378 0.950 . S
H367 C379 0.950 . S
C368 H360 0.950 . S
C368 C369 1.386 . S
C368 C370 1.391 . S
C369 C368 1.386 . S
C369 C373 1.393 . S
C370 H362 0.950 . S
C370 C368 1.391 . S
C370 C371 1.400 . S
C371 C370 1.400 . S
C371 C372 1.398 . S
C371 C377 1.491 . S
C372 H363 0.950 . S
C372 C371 1.398 . S
C372 C373 1.391 . S
C373 H361 0.950 . S
C373 C369 1.393 . S
C373 C372 1.391 . S
C374 H364 0.950 . S
C374 C375 1.386 . S
C374 C376 1.391 . S
C375 C374 1.386 . S
C375 C379 1.393 . S
C376 H365 0.950 . S
C376 C374 1.391 . S
C376 C377 1.400 . S
C377 C371 1.491 . S
C377 C376 1.400 . S
C377 C378 1.398 . S
C378 H366 0.950 . S
C378 C377 1.398 . S
C378 C379 1.391 . S
C379 H367 0.950 . S
C379 C375 1.393 . S
C379 C378 1.391 . S
H380 C388 0.950 . S
H381 C393 0.950 . S
H382 C390 0.950 . S
H383 C392 0.950 . S
H384 C394 0.950 . S
H385 C396 0.950 . S
H386 C398 0.950 . S
H387 C399 0.950 . S
C388 H380 0.950 . S
C388 C389 1.386 . S
C388 C390 1.391 . S
C389 C388 1.386 . S
C389 C393 1.393 . S
C390 H382 0.950 . S
C390 C388 1.391 . S
C390 C391 1.400 . S
C391 C390 1.400 . S
C391 C392 1.398 . S
C391 C397 1.491 . S
C392 H383 0.950 . S
C392 C391 1.398 . S
C392 C393 1.391 . S
C393 H381 0.950 . S
C393 C389 1.393 . S
C393 C392 1.391 . S
C394 H384 0.950 . S
C394 C395 1.386 . S
C394 C396 1.391 . S
C395 C394 1.386 . S
C395 C399 1.393 . S
C396 H385 0.950 . S
C396 C394 1.391 . S
C396 C397 1.400 . S
C397 C391 1.491 . S
C397 C396 1.400 . S
C397 C398 1.398 . S
C398 H386 0.950 . S
C398 C397 1.398 . S
C398 C399 1.391 . S
C399 H387 0.950 . S
C399 C395 1.393 . S
C399 C398 1.391 . S
H400 C408 0.950 . S
H401 C413 0.950 . S
H402 C410 0.950 . S
H403 C412 0.950 1_455 S
H404 C414 0.950 . S
H405 C416 0.950 . S
H406 C418 0.950 1_556 S
H407 C419 0.953 . S
C408 H400 0.950 . S
C408 C409 1.386 . S
C408 C410 1.391 . S
C409 C408 1.386 . S
C409 C413 1.393 . S
C410 H402 0.950 . S
C410 C408 1.391 . S
C410 C411 1.400 1_655 S
C411 C410 1.400 1_455 S
C411 C412 1.398 1_455 S
C411 C417 1.491 . S
C412 H403 0.950 1_655 S
C412 C411 1.398 1_655 S
C412 C413 1.391 . S
C413 H401 0.950 . S
C413 C409 1.393 . S
C413 C412 1.391 . S
C414 H404 0.950 . S
C414 C415 1.386 . S
C414 C416 1.391 . S
C415 C414 1.386 . S
C415 C419 1.393 . S
C416 H405 0.950 . S
C416 C414 1.391 . S
C416 C417 1.400 . S
C417 C411 1.491 . S
C417 C416 1.400 . S
C417 C418 1.398 . S
C418 H406 0.950 1_554 S
C418 C417 1.398 . S
C418 C419 1.391 . S
C419 H407 0.953 . S
C419 C415 1.393 . S
C419 C418 1.391 . S
H420 C428 0.950 . S
H421 C433 0.950 . S
H422 C430 0.950 1_655 S
H423 C432 0.950 . S
H424 C434 0.950 . S
H425 C436 0.950 . S
H426 C438 0.950 . S
H427 C439 0.950 . S
C428 H420 0.950 . S
C428 C429 1.386 1_556 S
C428 C430 1.391 . S
C429 C428 1.386 1_554 S
C429 C433 1.393 . S
C430 H422 0.950 1_455 S
C430 C428 1.391 . S
C430 C431 1.400 1_456 S
C431 C430 1.400 1_654 S
C431 C432 1.398 1_655 S
C431 C437 1.491 . S
C432 H423 0.950 . S
C432 C431 1.398 1_455 S
C432 C433 1.391 . S
C433 H421 0.950 . S
C433 C429 1.393 . S
C433 C432 1.391 . S
C434 H424 0.950 . S
C434 C435 1.386 . S
C434 C436 1.391 . S
C435 C434 1.386 . S
C435 C439 1.393 1_554 S
C436 H425 0.950 . S
C436 C434 1.391 . S
C436 C437 1.400 . S
C437 C431 1.491 . S
C437 C436 1.400 . S
C437 C438 1.398 1_554 S
C438 H426 0.950 . S
C438 C437 1.398 1_556 S
C438 C439 1.391 . S
C439 H427 0.950 . S
C439 C435 1.393 1_556 S
C439 C438 1.391 . S
H440 C448 0.950 . S
H441 C453 0.950 . S
H442 C450 0.950 . S
H443 C452 0.950 . S
H444 C454 0.950 . S
H445 C456 0.950 1_455 S
H446 C458 0.950 . S
H447 C459 0.950 . S
C448 H440 0.950 . S
C448 C449 1.386 . S
C448 C450 1.391 . S
C449 C448 1.386 . S
C449 C453 1.393 . S
C450 H442 0.950 . S
C450 C448 1.391 . S
C450 C451 1.400 . S
C451 C450 1.400 . S
C451 C452 1.398 . S
C451 C457 1.491 . S
C452 H443 0.950 . S
C452 C451 1.398 . S
C452 C453 1.391 . S
C453 H441 0.950 . S
C453 C449 1.393 . S
C453 C452 1.391 . S
C454 H444 0.950 . S
C454 C455 1.386 . S
C454 C456 1.391 . S
C455 C454 1.386 . S
C455 C459 1.393 . S
C456 H445 0.950 1_655 S
C456 C454 1.391 . S
C456 C457 1.400 1_655 S
C457 C451 1.491 . S
C457 C456 1.400 1_455 S
C457 C458 1.398 1_455 S
C458 H446 0.950 . S
C458 C457 1.398 1_655 S
C458 C459 1.391 . S
C459 H447 0.950 . S
C459 C455 1.393 . S
C459 C458 1.391 . S
H460 C468 0.950 . S
H461 C473 0.950 . S
H462 C470 0.950 . S
H463 C472 0.950 . S
H464 C474 0.950 . S
H465 C476 0.950 1_655 S
H466 C478 0.950 . S
H467 C479 0.950 . S
C468 H460 0.950 . S
C468 C469 1.386 . S
C468 C470 1.391 . S
C469 C468 1.386 . S
C469 C473 1.393 . S
C470 H462 0.950 . S
C470 C468 1.391 . S
C470 C471 1.400 . S
C471 C470 1.400 . S
C471 C472 1.398 . S
C471 C477 1.491 . S
C472 H463 0.950 . S
C472 C471 1.398 . S
C472 C473 1.391 . S
C473 H461 0.950 . S
C473 C469 1.393 . S
C473 C472 1.391 . S
C474 H464 0.950 . S
C474 C475 1.386 . S
C474 C476 1.391 . S
C475 C474 1.386 . S
C475 C479 1.393 . S
C476 H465 0.950 1_455 S
C476 C474 1.391 . S
C476 C477 1.400 1_455 S
C477 C471 1.491 . S
C477 C476 1.400 1_655 S
C477 C478 1.398 1_655 S
C478 H466 0.950 . S
C478 C477 1.398 1_455 S
C478 C479 1.391 . S
C479 H467 0.950 . S
C479 C475 1.393 . S
C479 C478 1.391 . S
H480 C488 0.950 1_655 S
H481 C493 0.950 . S
H482 C490 0.950 . S
H483 C492 0.950 . S
H484 C494 0.950 1_455 S
H485 C496 0.950 . S
H486 C498 0.950 1_556 S
H487 C499 0.950 1_556 S
C488 H480 0.950 1_455 S
C488 C489 1.386 1_556 S
C488 C490 1.391 1_455 S
C489 C488 1.386 1_554 S
C489 C493 1.393 . S
C490 H482 0.950 . S
C490 C488 1.391 1_655 S
C490 C491 1.400 1_656 S
C491 C490 1.400 1_454 S
C491 C492 1.398 . S
C491 C497 1.491 1_455 S
C492 H483 0.950 . S
C492 C491 1.398 . S
C492 C493 1.391 . S
C493 H481 0.950 . S
C493 C489 1.393 . S
C493 C492 1.391 . S
C494 H484 0.950 1_655 S
C494 C495 1.386 . S
C494 C496 1.391 1_655 S
C495 C494 1.386 . S
C495 C499 1.393 . S
C496 H485 0.950 . S
C496 C494 1.391 1_455 S
C496 C497 1.400 1_455 S
C497 C491 1.491 1_655 S
C497 C496 1.400 1_655 S
C497 C498 1.398 . S
C498 H486 0.950 1_554 S
C498 C497 1.398 . S
C498 C499 1.391 . S
C499 H487 0.950 1_554 S
C499 C495 1.393 . S
C499 C498 1.391 . S
H500 C508 0.950 . S
H501 C513 0.950 . S
H502 C510 0.950 . S
H503 C512 0.950 . S
H504 C514 0.950 . S
H505 C516 0.950 . S
H506 C518 0.950 . S
H507 C519 0.950 . S
C508 H500 0.950 . S
C508 C509 1.386 . S
C508 C510 1.391 . S
C509 C508 1.386 . S
C509 C513 1.393 1_455 S
C510 H502 0.950 . S
C510 C508 1.391 . S
C510 C511 1.400 . S
C511 C510 1.400 . S
C511 C512 1.398 1_455 S
C511 C517 1.491 1_455 S
C512 H503 0.950 . S
C512 C511 1.398 1_655 S
C512 C513 1.391 . S
C513 H501 0.950 . S
C513 C509 1.393 1_655 S
C513 C512 1.391 . S
C514 H504 0.950 . S
C514 C515 1.386 . S
C514 C516 1.391 . S
C515 C514 1.386 . S
C515 C519 1.393 1_655 S
C516 H505 0.950 . S
C516 C514 1.391 . S
C516 C517 1.400 . S
C517 C511 1.491 1_655 S
C517 C516 1.400 . S
C517 C518 1.398 1_655 S
C518 H506 0.950 . S
C518 C517 1.398 1_455 S
C518 C519 1.391 . S
C519 H507 0.950 . S
C519 C515 1.393 1_455 S
C519 C518 1.391 . S
H520 C528 0.950 . S
H521 C533 0.950 . S
H522 C530 0.950 . S
H523 C532 0.950 . S
H524 C534 0.950 . S
H525 C536 0.950 . S
H526 C538 0.950 . S
H527 C539 0.950 . S
C528 H520 0.950 . S
C528 C529 1.386 1_556 S
C528 C530 1.391 . S
C529 C528 1.386 1_554 S
C529 C533 1.393 . S
C530 H522 0.950 . S
C530 C528 1.391 . S
C530 C531 1.400 1_556 S
C531 C530 1.400 1_554 S
C531 C532 1.398 . S
C531 C537 1.491 1_565 S
C532 H523 0.950 . S
C532 C531 1.398 . S
C532 C533 1.391 . S
C533 H521 0.950 . S
C533 C529 1.393 . S
C533 C532 1.391 . S
C534 H524 0.950 . S
C534 C535 1.386 . S
C534 C536 1.391 . S
C535 C534 1.386 . S
C535 C539 1.393 1_554 S
C536 H525 0.950 . S
C536 C534 1.391 . S
C536 C537 1.400 . S
C537 C531 1.491 1_545 S
C537 C536 1.400 . S
C537 C538 1.398 1_554 S
C538 H526 0.950 . S
C538 C537 1.398 1_556 S
C538 C539 1.391 . S
C539 H527 0.950 . S
C539 C535 1.393 1_556 S
C539 C538 1.391 . S
H540 C548 0.950 . S
H541 C553 0.950 . S
H542 C550 0.950 . S
H543 C552 0.950 . S
H544 C554 0.950 . S
H545 C556 0.950 . S
H546 C558 0.950 . S
H547 C559 0.950 . S
C548 H540 0.950 . S
C548 C549 1.386 . S
C548 C550 1.391 . S
C549 C548 1.386 . S
C549 C553 1.393 . S
C550 H542 0.950 . S
C550 C548 1.391 . S
C550 C551 1.400 . S
C551 C550 1.400 . S
C551 C552 1.398 . S
C551 C557 1.491 1_545 S
C552 H543 0.950 . S
C552 C551 1.398 . S
C552 C553 1.391 . S
C553 H541 0.950 . S
C553 C549 1.393 . S
C553 C552 1.391 . S
C554 H544 0.950 . S
C554 C555 1.386 . S
C554 C556 1.391 . S
C555 C554 1.386 . S
C555 C559 1.393 . S
C556 H545 0.950 . S
C556 C554 1.391 . S
C556 C557 1.400 . S
C557 C551 1.491 1_565 S
C557 C556 1.400 . S
C557 C558 1.398 . S
C558 H546 0.950 . S
C558 C557 1.398 . S
C558 C559 1.391 . S
C559 H547 0.950 . S
C559 C555 1.393 . S
C559 C558 1.391 . S
H560 C568 0.950 . S
H561 C573 0.950 . S
H562 C570 0.950 . S
H563 C572 0.950 . S
H564 C574 0.950 1_556 S
H565 C576 0.950 1_556 S
H566 C578 0.950 . S
H567 C579 0.950 . S
C568 H560 0.950 . S
C568 C569 1.386 . S
C568 C570 1.391 . S
C569 C568 1.386 . S
C569 C573 1.393 1_554 S
C570 H562 0.950 . S
C570 C568 1.391 . S
C570 C571 1.400 . S
C571 C570 1.400 . S
C571 C572 1.398 1_554 S
C571 C577 1.491 . S
C572 H563 0.950 . S
C572 C571 1.398 1_556 S
C572 C573 1.391 . S
C573 H561 0.950 . S
C573 C569 1.393 1_556 S
C573 C572 1.391 . S
C574 H564 0.950 1_554 S
C574 C575 1.386 . S
C574 C576 1.391 . S
C575 C574 1.386 . S
C575 C579 1.393 . S
C576 H565 0.950 1_554 S
C576 C574 1.391 . S
C576 C577 1.400 . S
C577 C571 1.491 . S
C577 C576 1.400 . S
C577 C578 1.398 . S
C578 H566 0.950 . S
C578 C577 1.398 . S
C578 C579 1.391 . S
C579 H567 0.950 . S
C579 C575 1.393 . S
C579 C578 1.391 . S
H580 C588 0.950 . S
H581 C593 0.950 1_556 S
H582 C590 0.950 . S
H583 C592 0.950 . S
H584 C594 0.950 . S
H585 C596 0.952 . S
H586 C598 0.950 . S
H587 C599 0.950 . S
C588 H580 0.950 . S
C588 C589 1.386 . S
C588 C590 1.391 . S
C589 C588 1.386 . S
C589 C593 1.393 . S
C590 H582 0.950 . S
C590 C588 1.391 . S
C590 C591 1.400 . S
C591 C590 1.400 . S
C591 C592 1.398 . S
C591 C597 1.491 . S
C592 H583 0.950 . S
C592 C591 1.398 . S
C592 C593 1.391 . S
C593 H581 0.950 1_554 S
C593 C589 1.393 . S
C593 C592 1.391 . S
C594 H584 0.950 . S
C594 C595 1.386 . S
C594 C596 1.391 . S
C595 C594 1.386 . S
C595 C599 1.393 . S
C596 H585 0.952 . S
C596 C594 1.391 . S
C596 C597 1.400 . S
C597 C591 1.491 . S
C597 C596 1.400 . S
C597 C598 1.398 . S
C598 H586 0.950 . S
C598 C597 1.398 . S
C598 C599 1.391 . S
C599 H587 0.950 . S
C599 C595 1.393 . S
C599 C598 1.391 . S
H600 C608 0.950 . S
H601 C613 0.950 . S
H602 C610 0.950 . S
H603 C612 0.950 . S
H604 C614 0.950 . S
H605 C616 0.950 . S
H606 C618 0.950 . S
H607 C619 0.950 . S
C608 H600 0.950 . S
C608 C609 1.386 . S
C608 C610 1.391 . S
C609 C608 1.386 . S
C609 C613 1.393 . S
C610 H602 0.950 . S
C610 C608 1.391 . S
C610 C611 1.400 . S
C611 C610 1.400 . S
C611 C612 1.398 . S
C611 C617 1.491 . S
C612 H603 0.950 . S
C612 C611 1.398 . S
C612 C613 1.391 . S
C613 H601 0.950 . S
C613 C609 1.393 . S
C613 C612 1.391 . S
C614 H604 0.950 . S
C614 C615 1.386 . S
C614 C616 1.391 . S
C615 C614 1.386 . S
C615 C619 1.393 . S
C616 H605 0.950 . S
C616 C614 1.391 . S
C616 C617 1.400 . S
C617 C611 1.491 . S
C617 C616 1.400 . S
C617 C618 1.398 . S
C618 H606 0.950 . S
C618 C617 1.398 . S
C618 C619 1.391 . S
C619 H607 0.950 . S
C619 C615 1.393 . S
C619 C618 1.391 . S
H620 C628 0.950 . S
H621 C633 0.950 . S
H622 C630 0.950 . S
H623 C632 0.950 . S
H624 C634 0.950 . S
H625 C636 0.950 . S
H626 C638 0.950 . S
H627 C639 0.950 . S
C628 H620 0.950 . S
C628 C629 1.386 . S
C628 C630 1.391 . S
C629 C628 1.386 . S
C629 C633 1.393 . S
C630 H622 0.950 . S
C630 C628 1.391 . S
C630 C631 1.400 . S
C631 C630 1.400 . S
C631 C632 1.398 . S
C631 C637 1.491 . S
C632 H623 0.950 . S
C632 C631 1.398 . S
C632 C633 1.391 . S
C633 H621 0.950 . S
C633 C629 1.393 . S
C633 C632 1.391 . S
C634 H624 0.950 . S
C634 C635 1.386 . S
C634 C636 1.391 . S
C635 C634 1.386 . S
C635 C639 1.393 . S
C636 H625 0.950 . S
C636 C634 1.391 . S
C636 C637 1.400 . S
C637 C631 1.491 . S
C637 C636 1.400 . S
C637 C638 1.398 . S
C638 H626 0.950 . S
C638 C637 1.398 . S
C638 C639 1.391 . S
C639 H627 0.950 . S
C639 C635 1.393 . S
C639 C638 1.391 . S
H640 C648 0.950 . S
H641 C653 0.950 . S
H642 C650 0.950 . S
H643 C652 0.950 . S
H644 C654 0.950 . S
H645 C656 0.950 . S
H646 C658 0.950 . S
H647 C659 0.950 . S
C648 H640 0.950 . S
C648 C649 1.386 . S
C648 C650 1.391 1_455 S
C649 C648 1.386 . S
C649 C653 1.393 . S
C650 H642 0.950 . S
C650 C648 1.391 1_655 S
C650 C651 1.400 1_655 S
C651 C650 1.400 1_455 S
C651 C652 1.398 . S
C651 C657 1.491 1_455 S
C652 H643 0.950 . S
C652 C651 1.398 . S
C652 C653 1.391 . S
C653 H641 0.950 . S
C653 C649 1.393 . S
C653 C652 1.391 . S
C654 H644 0.950 . S
C654 C655 1.386 . S
C654 C656 1.391 . S
C655 C654 1.386 . S
C655 C659 1.393 . S
C656 H645 0.950 . S
C656 C654 1.391 . S
C656 C657 1.400 . S
C657 C651 1.491 1_655 S
C657 C656 1.400 . S
C657 C658 1.398 . S
C658 H646 0.950 . S
C658 C657 1.398 . S
C658 C659 1.391 . S
C659 H647 0.950 . S
C659 C655 1.393 . S
C659 C658 1.391 . S
H660 C668 0.950 . S
H661 C673 0.950 . S
H662 C670 0.950 . S
H663 C672 0.950 . S
H664 C674 0.950 . S
H665 C676 0.950 . S
H666 C678 0.950 . S
H667 C679 0.950 . S
C668 H660 0.950 . S
C668 C669 1.386 1_455 S
C668 C670 1.391 . S
C669 C668 1.386 1_655 S
C669 C673 1.393 . S
C670 H662 0.950 . S
C670 C668 1.391 . S
C670 C671 1.400 1_455 S
C671 C670 1.400 1_655 S
C671 C672 1.398 . S
C671 C677 1.491 1_655 S
C672 H663 0.950 . S
C672 C671 1.398 . S
C672 C673 1.391 . S
C673 H661 0.950 . S
C673 C669 1.393 . S
C673 C672 1.391 . S
C674 H664 0.950 . S
C674 C675 1.386 1_655 S
C674 C676 1.391 . S
C675 C674 1.386 1_455 S
C675 C679 1.393 . S
C676 H665 0.950 . S
C676 C674 1.391 . S
C676 C677 1.400 1_655 S
C677 C671 1.491 1_455 S
C677 C676 1.400 1_455 S
C677 C678 1.398 . S
C678 H666 0.950 . S
C678 C677 1.398 . S
C678 C679 1.391 . S
C679 H667 0.950 . S
C679 C675 1.393 . S
C679 C678 1.391 . S
H680 C688 0.950 . S
H681 C693 0.950 . S
H682 C690 0.950 . S
H683 C692 0.950 . S
H684 C694 0.950 . S
H685 C696 0.950 . S
H686 C698 0.950 . S
H687 C699 0.950 . S
C688 H680 0.950 . S
C688 C689 1.386 . S
C688 C690 1.391 . S
C689 C688 1.386 . S
C689 C693 1.393 1_655 S
C690 H682 0.950 . S
C690 C688 1.391 . S
C690 C691 1.400 . S
C691 C690 1.400 . S
C691 C692 1.398 1_655 S
C691 C697 1.491 1_655 S
C692 H683 0.950 . S
C692 C691 1.398 1_455 S
C692 C693 1.391 . S
C693 H681 0.950 . S
C693 C689 1.393 1_455 S
C693 C692 1.391 . S
C694 H684 0.950 . S
C694 C695 1.386 . S
C694 C696 1.391 . S
C695 C694 1.386 . S
C695 C699 1.393 1_455 S
C696 H685 0.950 . S
C696 C694 1.391 . S
C696 C697 1.400 . S
C697 C691 1.491 1_455 S
C697 C696 1.400 . S
C697 C698 1.398 1_455 S
C698 H686 0.950 . S
C698 C697 1.398 1_655 S
C698 C699 1.391 . S
C699 H687 0.950 . S
C699 C695 1.393 1_655 S
C699 C698 1.391 . S
H700 C708 0.950 . S
H701 C713 0.950 . S
H702 C710 0.950 . S
H703 C712 0.950 . S
H704 C714 0.950 . S
H705 C716 0.950 . S
H706 C718 0.950 . S
H707 C719 0.950 . S
C708 H700 0.950 . S
C708 C709 1.386 . S
C708 C710 1.391 . S
C709 C708 1.386 . S
C709 C713 1.393 1_655 S
C710 H702 0.950 . S
C710 C708 1.391 . S
C710 C711 1.400 1_655 S
C711 C710 1.400 1_455 S
C711 C712 1.398 . S
C711 C717 1.491 . S
C712 H703 0.950 . S
C712 C711 1.398 . S
C712 C713 1.391 . S
C713 H701 0.950 . S
C713 C709 1.393 1_455 S
C713 C712 1.391 . S
C714 H704 0.950 . S
C714 C715 1.386 . S
C714 C716 1.391 . S
C715 C714 1.386 . S
C715 C719 1.393 1_455 S
C716 H705 0.950 . S
C716 C714 1.391 . S
C716 C717 1.400 . S
C717 C711 1.491 . S
C717 C716 1.400 . S
C717 C718 1.398 1_455 S
C718 H706 0.950 . S
C718 C717 1.398 1_655 S
C718 C719 1.391 . S
C719 H707 0.950 . S
C719 C715 1.393 1_655 S
C719 C718 1.391 . S
H720 C728 0.950 . S
H721 C733 0.950 . S
H722 C730 0.950 . S
H723 C732 0.950 . S
H724 C734 0.950 . S
H725 C736 0.950 . S
H726 C738 0.950 . S
H727 C739 0.950 . S
C728 H720 0.950 . S
C728 C729 1.386 . S
C728 C730 1.391 . S
C729 C728 1.386 . S
C729 C733 1.393 . S
C730 H722 0.950 . S
C730 C728 1.391 . S
C730 C731 1.400 . S
C731 C730 1.400 . S
C731 C732 1.398 . S
C731 C737 1.491 . S
C732 H723 0.950 . S
C732 C731 1.398 . S
C732 C733 1.391 . S
C733 H721 0.950 . S
C733 C729 1.393 . S
C733 C732 1.391 . S
C734 H724 0.950 . S
C734 C735 1.386 . S
C734 C736 1.391 . S
C735 C734 1.386 . S
C735 C739 1.393 . S
C736 H725 0.950 . S
C736 C734 1.391 . S
C736 C737 1.400 . S
C737 C731 1.491 . S
C737 C736 1.400 . S
C737 C738 1.398 . S
C738 H726 0.950 . S
C738 C737 1.398 . S
C738 C739 1.391 . S
C739 H727 0.950 . S
C739 C735 1.393 . S
C739 C738 1.391 . S
H740 C748 0.950 . S
H741 C753 0.950 . S
H742 C750 0.950 . S
H743 C752 0.950 . S
H744 C754 0.950 . S
H745 C756 0.950 . S
H746 C758 0.950 . S
H747 C759 0.950 . S
C748 H740 0.950 . S
C748 C749 1.386 . S
C748 C750 1.391 . S
C749 C748 1.386 . S
C749 C753 1.393 . S
C750 H742 0.950 . S
C750 C748 1.391 . S
C750 C751 1.400 . S
C751 C750 1.400 . S
C751 C752 1.398 . S
C751 C757 1.491 . S
C752 H743 0.950 . S
C752 C751 1.398 . S
C752 C753 1.391 . S
C753 H741 0.950 . S
C753 C749 1.393 . S
C753 C752 1.391 . S
C754 H744 0.950 . S
C754 C755 1.386 . S
C754 C756 1.391 . S
C755 C754 1.386 . S
C755 C759 1.393 . S
C756 H745 0.950 . S
C756 C754 1.391 . S
C756 C757 1.400 . S
C757 C751 1.491 . S
C757 C756 1.400 . S
C757 C758 1.398 . S
C758 H746 0.950 . S
C758 C757 1.398 . S
C758 C759 1.391 . S
C759 H747 0.950 . S
C759 C755 1.393 . S
C759 C758 1.391 . S
H760 C768 0.950 . S
H761 C773 0.950 . S
H762 C770 0.950 . S
H763 C772 0.950 . S
H764 C774 0.950 . S
H765 C776 0.950 . S
H766 C778 0.950 . S
H767 C779 0.950 . S
C768 H760 0.950 . S
C768 C769 1.386 . S
C768 C770 1.391 . S
C769 C768 1.386 . S
C769 C773 1.393 . S
C770 H762 0.950 . S
C770 C768 1.391 . S
C770 C771 1.400 . S
C771 C770 1.400 . S
C771 C772 1.398 . S
C771 C777 1.491 . S
C772 H763 0.950 . S
C772 C771 1.398 . S
C772 C773 1.391 . S
C773 H761 0.950 . S
C773 C769 1.393 . S
C773 C772 1.391 . S
C774 H764 0.950 . S
C774 C775 1.386 . S
C774 C776 1.391 . S
C775 C774 1.386 . S
C775 C779 1.393 . S
C776 H765 0.950 . S
C776 C774 1.391 . S
C776 C777 1.400 . S
C777 C771 1.491 . S
C777 C776 1.400 . S
C777 C778 1.398 . S
C778 H766 0.950 . S
C778 C777 1.398 . S
C778 C779 1.391 . S
C779 H767 0.950 . S
C779 C775 1.393 . S
C779 C778 1.391 . S
H780 C788 0.950 . S
H781 C793 0.950 . S
H782 C790 0.950 . S
H783 C792 0.950 . S
H784 C794 0.950 . S
H785 C796 0.950 . S
H786 C798 0.950 . S
H787 C799 0.950 . S
C788 H780 0.950 . S
C788 C789 1.386 . S
C788 C790 1.391 . S
C789 C788 1.386 . S
C789 C793 1.393 . S
C790 H782 0.950 . S
C790 C788 1.391 . S
C790 C791 1.400 . S
C791 C790 1.400 . S
C791 C792 1.398 . S
C791 C797 1.491 . S
C792 H783 0.950 . S
C792 C791 1.398 . S
C792 C793 1.391 . S
C793 H781 0.950 . S
C793 C789 1.393 . S
C793 C792 1.391 . S
C794 H784 0.950 . S
C794 C795 1.386 . S
C794 C796 1.391 . S
C795 C794 1.386 . S
C795 C799 1.393 . S
C796 H785 0.950 . S
C796 C794 1.391 . S
C796 C797 1.400 . S
C797 C791 1.491 . S
C797 C796 1.400 . S
C797 C798 1.398 . S
C798 H786 0.950 . S
C798 C797 1.398 . S
C798 C799 1.391 . S
C799 H787 0.950 . S
C799 C795 1.393 . S
C799 C798 1.391 . S
C329 C13 2.098 . S
C335 C24 2.098 . S
C349 C53 2.100 . S
C355 C64 2.100 . S
C369 C93 2.096 . S
C375 C104 2.096 . S
C389 C144 2.106 . S
C395 C133 2.106 . S
C409 C173 2.095 . S
C415 C184 2.095 . S
C429 C224 2.092 . S
C435 C213 2.092 . S
C449 C253 2.094 . S
C455 C264 2.094 . S
C469 C293 2.117 . S
C475 C304 2.117 . S
C489 C66 2.318 . S
C495 C17 2.318 . S
C509 C146 2.327 . S
C515 C106 2.327 . S
C529 C177 2.322 . S
C535 C226 2.322 . S
C549 C266 2.322 . S
C555 C306 2.321 . S
C569 C26 1.670 . S
C575 C217 1.670 . S
C589 C186 1.670 . S
C595 C57 1.670 . S
C609 C97 1.692 . S
C615 C297 1.691 . S
C629 C137 1.696 . S
C635 C257 1.696 . S
C649 C2 1.645 . S
C655 C122 1.622 . S
C669 C42 1.524 . S
C675 C82 1.478 . S
C689 C63 1.599 . S
C695 C103 1.594 . S
C709 C143 1.462 . S
C715 C23 1.455 . S
C729 C162 1.645 . S
C735 C282 1.616 . S
C749 C202 1.509 . S
C755 C242 1.476 . S
C769 C223 1.597 . S
C775 C263 1.593 . S
C789 C303 1.479 . S
C795 C183 1.467 . S
