# Generated by pormake.
# Topology umu, (4)-cn, num edge types: 1
# Building blocks:
#     Node 0, Type 0, BuildingBlock: GALJAG_clean_sbu_0, # of connection points: 4
#     Node 1, Type 0, BuildingBlock: GALJAG_clean_sbu_0, # of connection points: 4
#     Node 2, Type 0, BuildingBlock: GALJAG_clean_sbu_0, # of connection points: 4
#     Node 3, Type 0, BuildingBlock: GALJAG_clean_sbu_0, # of connection points: 4
#     Node 4, Type 0, BuildingBlock: GALJAG_clean_sbu_0, # of connection points: 4
#     Node 5, Type 0, BuildingBlock: GALJAG_clean_sbu_0, # of connection points: 4
#     Node 6, Type 0, BuildingBlock: GALJAG_clean_sbu_0, # of connection points: 4
#     Node 7, Type 0, BuildingBlock: GALJAG_clean_sbu_0, # of connection points: 4
#     Node 8, Type 0, BuildingBlock: GALJAG_clean_sbu_0, # of connection points: 4
#     Node 9, Type 0, BuildingBlock: GALJAG_clean_sbu_0, # of connection points: 4
#     Node 10, Type 0, BuildingBlock: GALJAG_clean_sbu_0, # of connection points: 4
#     Node 11, Type 0, BuildingBlock: GALJAG_clean_sbu_0, # of connection points: 4
#     Node 12, Type 0, BuildingBlock: GALJAG_clean_sbu_0, # of connection points: 4
#     Node 13, Type 0, BuildingBlock: GALJAG_clean_sbu_0, # of connection points: 4
#     Node 14, Type 0, BuildingBlock: GALJAG_clean_sbu_0, # of connection points: 4
#     Node 15, Type 0, BuildingBlock: GALJAG_clean_sbu_0, # of connection points: 4
#     Node 16, Type 0, BuildingBlock: GALJAG_clean_sbu_0, # of connection points: 4
#     Node 17, Type 0, BuildingBlock: GALJAG_clean_sbu_0, # of connection points: 4
#     Node 18, Type 0, BuildingBlock: GALJAG_clean_sbu_0, # of connection points: 4
#     Node 19, Type 0, BuildingBlock: GALJAG_clean_sbu_0, # of connection points: 4
#     Node 20, Type 0, BuildingBlock: GALJAG_clean_sbu_0, # of connection points: 4
#     Node 21, Type 0, BuildingBlock: GALJAG_clean_sbu_0, # of connection points: 4
#     Node 22, Type 0, BuildingBlock: GALJAG_clean_sbu_0, # of connection points: 4
#     Node 23, Type 0, BuildingBlock: GALJAG_clean_sbu_0, # of connection points: 4
#     Node 24, Type 0, BuildingBlock: GALJAG_clean_sbu_0, # of connection points: 4
#     Node 25, Type 0, BuildingBlock: GALJAG_clean_sbu_0, # of connection points: 4
#     Node 26, Type 0, BuildingBlock: GALJAG_clean_sbu_0, # of connection points: 4
#     Node 27, Type 0, BuildingBlock: GALJAG_clean_sbu_0, # of connection points: 4
#     Node 28, Type 0, BuildingBlock: GALJAG_clean_sbu_0, # of connection points: 4
#     Node 29, Type 0, BuildingBlock: GALJAG_clean_sbu_0, # of connection points: 4
#     Node 30, Type 0, BuildingBlock: GALJAG_clean_sbu_0, # of connection points: 4
#     Node 31, Type 0, BuildingBlock: GALJAG_clean_sbu_0, # of connection points: 4
#     Edge 32, Type (0, 0), BuildingBlock: XUDNAN_clean_linker_2, # of connection points: 2
#     Edge 33, Type (0, 0), BuildingBlock: XUDNAN_clean_linker_2, # of connection points: 2
#     Edge 34, Type (0, 0), BuildingBlock: XUDNAN_clean_linker_2, # of connection points: 2
#     Edge 35, Type (0, 0), BuildingBlock: XUDNAN_clean_linker_2, # of connection points: 2
#     Edge 36, Type (0, 0), BuildingBlock: XUDNAN_clean_linker_2, # of connection points: 2
#     Edge 37, Type (0, 0), BuildingBlock: XUDNAN_clean_linker_2, # of connection points: 2
#     Edge 38, Type (0, 0), BuildingBlock: XUDNAN_clean_linker_2, # of connection points: 2
#     Edge 39, Type (0, 0), BuildingBlock: XUDNAN_clean_linker_2, # of connection points: 2
#     Edge 40, Type (0, 0), BuildingBlock: XUDNAN_clean_linker_2, # of connection points: 2
#     Edge 41, Type (0, 0), BuildingBlock: XUDNAN_clean_linker_2, # of connection points: 2
#     Edge 42, Type (0, 0), BuildingBlock: XUDNAN_clean_linker_2, # of connection points: 2
#     Edge 43, Type (0, 0), BuildingBlock: XUDNAN_clean_linker_2, # of connection points: 2
#     Edge 44, Type (0, 0), BuildingBlock: XUDNAN_clean_linker_2, # of connection points: 2
#     Edge 45, Type (0, 0), BuildingBlock: XUDNAN_clean_linker_2, # of connection points: 2
#     Edge 46, Type (0, 0), BuildingBlock: XUDNAN_clean_linker_2, # of connection points: 2
#     Edge 47, Type (0, 0), BuildingBlock: XUDNAN_clean_linker_2, # of connection points: 2
#     Edge 48, Type (0, 0), BuildingBlock: XUDNAN_clean_linker_2, # of connection points: 2
#     Edge 49, Type (0, 0), BuildingBlock: XUDNAN_clean_linker_2, # of connection points: 2
#     Edge 50, Type (0, 0), BuildingBlock: XUDNAN_clean_linker_2, # of connection points: 2
#     Edge 51, Type (0, 0), BuildingBlock: XUDNAN_clean_linker_2, # of connection points: 2
#     Edge 52, Type (0, 0), BuildingBlock: XUDNAN_clean_linker_2, # of connection points: 2
#     Edge 53, Type (0, 0), BuildingBlock: XUDNAN_clean_linker_2, # of connection points: 2
#     Edge 54, Type (0, 0), BuildingBlock: XUDNAN_clean_linker_2, # of connection points: 2
#     Edge 55, Type (0, 0), BuildingBlock: XUDNAN_clean_linker_2, # of connection points: 2
#     Edge 56, Type (0, 0), BuildingBlock: XUDNAN_clean_linker_2, # of connection points: 2
#     Edge 57, Type (0, 0), BuildingBlock: XUDNAN_clean_linker_2, # of connection points: 2
#     Edge 58, Type (0, 0), BuildingBlock: XUDNAN_clean_linker_2, # of connection points: 2
#     Edge 59, Type (0, 0), BuildingBlock: XUDNAN_clean_linker_2, # of connection points: 2
#     Edge 60, Type (0, 0), BuildingBlock: XUDNAN_clean_linker_2, # of connection points: 2
#     Edge 61, Type (0, 0), BuildingBlock: XUDNAN_clean_linker_2, # of connection points: 2
#     Edge 62, Type (0, 0), BuildingBlock: XUDNAN_clean_linker_2, # of connection points: 2
#     Edge 63, Type (0, 0), BuildingBlock: XUDNAN_clean_linker_2, # of connection points: 2
#     Edge 64, Type (0, 0), BuildingBlock: XUDNAN_clean_linker_2, # of connection points: 2
#     Edge 65, Type (0, 0), BuildingBlock: XUDNAN_clean_linker_2, # of connection points: 2
#     Edge 66, Type (0, 0), BuildingBlock: XUDNAN_clean_linker_2, # of connection points: 2
#     Edge 67, Type (0, 0), BuildingBlock: XUDNAN_clean_linker_2, # of connection points: 2
#     Edge 68, Type (0, 0), BuildingBlock: XUDNAN_clean_linker_2, # of connection points: 2
#     Edge 69, Type (0, 0), BuildingBlock: XUDNAN_clean_linker_2, # of connection points: 2
#     Edge 70, Type (0, 0), BuildingBlock: XUDNAN_clean_linker_2, # of connection points: 2
#     Edge 71, Type (0, 0), BuildingBlock: XUDNAN_clean_linker_2, # of connection points: 2
#     Edge 72, Type (0, 0), BuildingBlock: XUDNAN_clean_linker_2, # of connection points: 2
#     Edge 73, Type (0, 0), BuildingBlock: XUDNAN_clean_linker_2, # of connection points: 2
#     Edge 74, Type (0, 0), BuildingBlock: XUDNAN_clean_linker_2, # of connection points: 2
#     Edge 75, Type (0, 0), BuildingBlock: XUDNAN_clean_linker_2, # of connection points: 2
#     Edge 76, Type (0, 0), BuildingBlock: XUDNAN_clean_linker_2, # of connection points: 2
#     Edge 77, Type (0, 0), BuildingBlock: XUDNAN_clean_linker_2, # of connection points: 2
#     Edge 78, Type (0, 0), BuildingBlock: XUDNAN_clean_linker_2, # of connection points: 2
#     Edge 79, Type (0, 0), BuildingBlock: XUDNAN_clean_linker_2, # of connection points: 2
#     Edge 80, Type (0, 0), BuildingBlock: XUDNAN_clean_linker_2, # of connection points: 2
#     Edge 81, Type (0, 0), BuildingBlock: XUDNAN_clean_linker_2, # of connection points: 2
#     Edge 82, Type (0, 0), BuildingBlock: XUDNAN_clean_linker_2, # of connection points: 2
#     Edge 83, Type (0, 0), BuildingBlock: XUDNAN_clean_linker_2, # of connection points: 2
#     Edge 84, Type (0, 0), BuildingBlock: XUDNAN_clean_linker_2, # of connection points: 2
#     Edge 85, Type (0, 0), BuildingBlock: XUDNAN_clean_linker_2, # of connection points: 2
#     Edge 86, Type (0, 0), BuildingBlock: XUDNAN_clean_linker_2, # of connection points: 2
#     Edge 87, Type (0, 0), BuildingBlock: XUDNAN_clean_linker_2, # of connection points: 2
#     Edge 88, Type (0, 0), BuildingBlock: XUDNAN_clean_linker_2, # of connection points: 2
#     Edge 89, Type (0, 0), BuildingBlock: XUDNAN_clean_linker_2, # of connection points: 2
#     Edge 90, Type (0, 0), BuildingBlock: XUDNAN_clean_linker_2, # of connection points: 2
#     Edge 91, Type (0, 0), BuildingBlock: XUDNAN_clean_linker_2, # of connection points: 2
#     Edge 92, Type (0, 0), BuildingBlock: XUDNAN_clean_linker_2, # of connection points: 2
#     Edge 93, Type (0, 0), BuildingBlock: XUDNAN_clean_linker_2, # of connection points: 2
#     Edge 94, Type (0, 0), BuildingBlock: XUDNAN_clean_linker_2, # of connection points: 2
#     Edge 95, Type (0, 0), BuildingBlock: XUDNAN_clean_linker_2, # of connection points: 2
# Relax obj value: 0.103
# Max RMSD: 0.078
# Mean RMSD: 0.078
data_MOF--net-umu--node1-GALJAG_clean_sbu_0--edge1-XUDNAN_clean_linker_2
_symmetry_space_group_name_H-M    P1
_symmetry_Int_Tables_number       1
_symmetry_cell_setting            triclinic
loop_
_symmetry_equiv_pos_as_xyz
'x, y, z'
_cell_length_a     79.796046
_cell_length_b     79.753232
_cell_length_c     27.215952
_cell_angle_alpha  89.992672
_cell_angle_beta   90.003294
_cell_angle_gamma 89.999491
loop_
_atom_site_label
_atom_site_type_symbol
_atom_site_fract_x
_atom_site_fract_y
_atom_site_fract_z
_atom_type_partial_charge
In0 In 0.21785 0.15136 0.05022 0.0
O1 O 0.23391 0.13685 0.9956 0.0
O2 O 0.22622 0.16132 0.97511 0.0
C3 C 0.23659 0.14625 0.13186 0.0
C4 C 0.19443 0.12799 0.02988 0.0
C5 C 0.20707 0.18284 0.06744 0.0
O6 O 0.24286 0.14807 0.08966 0.0
O7 O 0.22079 0.1468 0.13302 0.0
O8 O 0.19752 0.17029 0.07179 0.0
O9 O 0.22186 0.17944 0.05435 0.0
C10 C 0.23379 0.14807 0.96304 0.0
O11 O 0.19319 0.14295 0.01524 0.0
O12 O 0.20681 0.1252 0.05751 0.0
In13 In 0.09058 0.95769 0.33672 0.0
O14 O 0.09874 0.98126 0.29525 0.0
O15 O 0.08448 0.96292 0.2568 0.0
C16 C 0.10268 0.96414 0.42747 0.0
C17 C 0.10858 0.9317 0.30204 0.0
C18 C 0.05745 0.95985 0.3555 0.0
O19 O 0.10331 0.97468 0.39293 0.0
O20 O 0.09668 0.95006 0.4156 0.0
O21 O 0.0642 0.94619 0.34291 0.0
O22 O 0.06737 0.97207 0.35862 0.0
C23 C 0.09189 0.97686 0.25542 0.0
O24 O 0.0935 0.93018 0.31552 0.0
O25 O 0.11477 0.94611 0.30836 0.0
In26 In 0.28997 0.8445 0.56584 0.0
O27 O 0.30961 0.85189 0.50979 0.0
O28 O 0.31253 0.86177 0.58171 0.0
C29 C 0.29673 0.81143 0.57492 0.0
C30 C 0.27136 0.85103 0.48543 0.0
C31 C 0.27424 0.85412 0.65013 0.0
O32 O 0.30801 0.82249 0.57463 0.0
O33 O 0.28202 0.81704 0.57076 0.0
O34 O 0.26826 0.85674 0.60798 0.0
O35 O 0.28835 0.84704 0.6499 0.0
C36 C 0.318 0.86105 0.53819 0.0
O37 O 0.27731 0.86246 0.51246 0.0
O38 O 0.27404 0.83627 0.50051 0.0
In39 In 0.40857 0.04191 0.83709 0.0
O40 O 0.39368 0.02321 0.79069 0.0
O41 O 0.41645 0.03267 0.76132 0.0
C42 C 0.39775 0.02962 0.92464 0.0
C43 C 0.39259 0.06915 0.80102 0.0
C44 C 0.44154 0.04679 0.85376 0.0
O45 O 0.40566 0.02087 0.89389 0.0
O46 O 0.39516 0.04452 0.91119 0.0
O47 O 0.43061 0.05768 0.8642 0.0
O48 O 0.43579 0.03338 0.8357 0.0
C49 C 0.40367 0.02365 0.75477 0.0
O50 O 0.40778 0.06949 0.81383 0.0
O51 O 0.38531 0.05538 0.80872 0.0
In52 In 0.2098 0.84512 0.06561 0.0
O53 O 0.22781 0.86046 0.11342 0.0
O54 O 0.22002 0.83666 0.13975 0.0
C55 C 0.22186 0.85455 0.97626 0.0
C56 C 0.18263 0.8612 0.10169 0.0
C57 C 0.20429 0.81227 0.04958 0.0
O58 O 0.23086 0.84771 0.00857 0.0
O59 O 0.20691 0.85705 0.98937 0.0
O60 O 0.19335 0.82331 0.04073 0.0
O61 O 0.21804 0.81786 0.06576 0.0
C62 C 0.22823 0.84987 0.14785 0.0
O63 O 0.19583 0.86882 0.08933 0.0
O64 O 0.18285 0.84564 0.09358 0.0
In65 In 0.40568 0.96553 0.33245 0.0
O66 O 0.40896 0.94261 0.38092 0.0
O67 O 0.38762 0.94313 0.33434 0.0
C68 C 0.43823 0.96772 0.30735 0.0
C69 C 0.39906 0.98288 0.41538 0.0
C70 C 0.39214 0.97744 0.24826 0.0
O71 O 0.43095 0.95375 0.31238 0.0
O72 O 0.42913 0.98036 0.31533 0.0
O73 O 0.39043 0.9847 0.28916 0.0
O74 O 0.39991 0.96367 0.25021 0.0
C75 C 0.3955 0.93561 0.36806 0.0
O76 O 0.38764 0.97673 0.38883 0.0
O77 O 0.41368 0.98104 0.39868 0.0
In78 In 0.29835 0.15816 0.55029 0.0
O79 O 0.32408 0.15822 0.58733 0.0
O80 O 0.31296 0.13466 0.57143 0.0
C81 C 0.30208 0.19146 0.53932 0.0
C82 C 0.27822 0.15161 0.62769 0.0
C83 C 0.28884 0.14945 0.45795 0.0
O84 O 0.31399 0.18133 0.53183 0.0
O85 O 0.28839 0.18473 0.55169 0.0
O86 O 0.27847 0.15304 0.49123 0.0
O87 O 0.30394 0.14984 0.47153 0.0
C88 C 0.32503 0.14248 0.59066 0.0
O89 O 0.2815 0.14077 0.5953 0.0
O90 O 0.28446 0.16587 0.61982 0.0
In91 In 0.09171 0.03467 0.83025 0.0
O92 O 0.10575 0.05967 0.83726 0.0
O93 O 0.11925 0.03692 0.84757 0.0
C94 C 0.05992 0.04333 0.80809 0.0
C95 C 0.08828 0.02581 0.92516 0.0
C96 C 0.10016 0.01577 0.7518 0.0
O97 O 0.07183 0.05377 0.80525 0.0
O98 O 0.06419 0.02882 0.82148 0.0
O99 O 0.09778 0.00966 0.79405 0.0
O100 O 0.09847 0.03151 0.74917 0.0
C101 C 0.11943 0.05273 0.84905 0.0
O102 O 0.09058 0.01505 0.89172 0.0
O103 O 0.0871 0.04073 0.91032 0.0
In104 In 0.78565 0.84356 0.0559 0.0
O105 O 0.76186 0.83463 0.09431 0.0
O106 O 0.77423 0.85587 0.12416 0.0
C107 C 0.77499 0.8548 0.9664 0.0
C108 C 0.811 0.85953 0.10208 0.0
C109 C 0.79466 0.81103 0.04543 0.0
O110 O 0.76514 0.84953 0.99904 0.0
O111 O 0.79014 0.85496 0.97932 0.0
O112 O 0.80208 0.82264 0.02264 0.0
O113 O 0.78294 0.81589 0.07288 0.0
C114 C 0.7625 0.84538 0.12829 0.0
O115 O 0.81046 0.84379 0.09727 0.0
O116 O 0.79902 0.86732 0.08195 0.0
In117 In 0.90493 0.03773 0.80745 0.0
O118 O 0.90384 0.01219 0.84559 0.0
O119 O 0.90941 0.03371 0.88888 0.0
C120 C 0.89478 0.02851 0.71646 0.0
C121 C 0.87988 0.05635 0.84511 0.0
C122 C 0.93754 0.04563 0.79341 0.0
O123 O 0.89783 0.01808 0.75014 0.0
O124 O 0.89662 0.04367 0.72877 0.0
O125 O 0.92632 0.05678 0.79575 0.0
O126 O 0.9322 0.03084 0.79746 0.0
C127 C 0.90702 0.01809 0.88767 0.0
O128 O 0.89438 0.0623 0.83819 0.0
O129 O 0.87791 0.04148 0.83035 0.0
In130 In 0.71214 0.1561 0.5562 0.0
O131 O 0.73749 0.15384 0.59455 0.0
O132 O 0.71701 0.16418 0.63463 0.0
C133 C 0.71884 0.14429 0.46571 0.0
C134 C 0.69313 0.13196 0.59695 0.0
C135 C 0.70856 0.18865 0.53221 0.0
O136 O 0.72987 0.14556 0.49883 0.0
O137 O 0.70418 0.1483 0.47893 0.0
O138 O 0.69658 0.18053 0.5514 0.0
O139 O 0.72179 0.18036 0.52569 0.0
C140 C 0.7322 0.15981 0.63469 0.0
O141 O 0.68696 0.14609 0.58559 0.0
O142 O 0.70826 0.12997 0.5849 0.0
In143 In 0.59227 0.96125 0.32179 0.0
O144 O 0.59978 0.97995 0.38253 0.0
O145 O 0.58214 0.96068 0.39875 0.0
C146 C 0.6067 0.97257 0.23861 0.0
C147 C 0.60998 0.93416 0.34883 0.0
C148 C 0.56003 0.96435 0.2943 0.0
O149 O 0.60399 0.98203 0.27503 0.0
O150 O 0.6028 0.95739 0.24505 0.0
O151 O 0.56676 0.95013 0.30026 0.0
O152 O 0.56959 0.97667 0.30174 0.0
C153 C 0.59059 0.97289 0.41438 0.0
O154 O 0.59515 0.93306 0.33256 0.0
O155 O 0.61613 0.94876 0.34829 0.0
In156 In 0.78799 0.15555 0.06156 0.0
O157 O 0.8138 0.14331 0.05226 0.0
O158 O 0.79207 0.12787 0.04862 0.0
C159 C 0.79415 0.18789 0.08353 0.0
C160 C 0.77963 0.15888 0.96642 0.0
C161 C 0.76936 0.14656 0.13983 0.0
O162 O 0.80502 0.1766 0.0908 0.0
O163 O 0.78046 0.18272 0.06606 0.0
O164 O 0.76326 0.14794 0.09713 0.0
O165 O 0.78489 0.14948 0.1428 0.0
C166 C 0.80778 0.12887 0.04446 0.0
O167 O 0.76879 0.15561 0.99899 0.0
O168 O 0.79437 0.1607 0.98218 0.0
In169 In 0.59708 0.0388 0.82981 0.0
O170 O 0.60584 0.06432 0.80001 0.0
O171 O 0.62427 0.04663 0.82181 0.0
C172 C 0.56443 0.04626 0.84521 0.0
C173 C 0.59554 0.02048 0.74662 0.0
C174 C 0.60733 0.02421 0.91453 0.0
O175 O 0.57595 0.0567 0.85418 0.0
O176 O 0.56945 0.03239 0.82884 0.0
O177 O 0.60943 0.01769 0.87279 0.0
O178 O 0.60028 0.03839 0.91379 0.0
C179 C 0.62123 0.06074 0.80296 0.0
O180 O 0.59496 0.01397 0.78885 0.0
O181 O 0.59687 0.03623 0.74628 0.0
In182 In 0.70935 0.83972 0.55923 0.0
O183 O 0.72682 0.84704 0.49521 0.0
O184 O 0.70855 0.82813 0.48336 0.0
C185 C 0.72457 0.8529 0.63923 0.0
C186 C 0.68253 0.85905 0.53845 0.0
C187 C 0.71039 0.80744 0.58799 0.0
O188 O 0.73154 0.8523 0.59754 0.0
O189 O 0.70968 0.84752 0.64004 0.0
O190 O 0.69667 0.81493 0.58027 0.0
O191 O 0.72335 0.81619 0.58105 0.0
C192 C 0.72003 0.83701 0.46525 0.0
O193 O 0.68109 0.84413 0.55352 0.0
O194 O 0.69737 0.86447 0.5373 0.0
In195 In 0.9027 0.9604 0.31371 0.0
O196 O 0.89674 0.9324 0.31482 0.0
O197 O 0.87768 0.94927 0.29131 0.0
C198 C 0.93526 0.96186 0.33902 0.0
C199 C 0.90546 0.96977 0.21898 0.0
C200 C 0.88987 0.97628 0.39276 0.0
O201 O 0.92773 0.94801 0.33424 0.0
O202 O 0.92642 0.97465 0.33082 0.0
O203 O 0.8895 0.98257 0.35013 0.0
O204 O 0.8959 0.96166 0.3949 0.0
C205 C 0.88217 0.93423 0.29732 0.0
O206 O 0.89857 0.97909 0.2507 0.0
O207 O 0.91112 0.95613 0.23539 0.0
In208 In 0.71606 0.6541 0.56255 0.0
O209 O 0.69028 0.6429 0.54413 0.0
O210 O 0.71223 0.62776 0.53636 0.0
C211 C 0.71333 0.68586 0.59379 0.0
C212 C 0.7278 0.65991 0.4717 0.0
C213 C 0.72779 0.64197 0.64793 0.0
O214 O 0.70041 0.67739 0.5826 0.0
O215 O 0.72711 0.67826 0.58911 0.0
O216 O 0.73744 0.64591 0.61278 0.0
O217 O 0.7123 0.64368 0.63925 0.0
C218 C 0.69656 0.62899 0.53086 0.0
O219 O 0.73613 0.65139 0.50253 0.0
O220 O 0.71422 0.66586 0.48773 0.0
In221 In 0.58929 0.45499 0.83284 0.0
O222 O 0.59811 0.47857 0.7924 0.0
O223 O 0.58344 0.4609 0.75278 0.0
C224 C 0.59981 0.4652 0.92311 0.0
C225 C 0.60794 0.42973 0.79601 0.0
C226 C 0.55623 0.44997 0.84911 0.0
O227 O 0.5942 0.47513 0.89111 0.0
O228 O 0.60065 0.45015 0.90918 0.0
O229 O 0.56691 0.43843 0.85359 0.0
O230 O 0.56225 0.46397 0.83692 0.0
C231 C 0.59129 0.47462 0.75215 0.0
O232 O 0.59276 0.42804 0.80796 0.0
O233 O 0.61405 0.44404 0.80484 0.0
In234 In 0.78715 0.34318 0.06401 0.0
O235 O 0.77588 0.36049 0.00636 0.0
O236 O 0.77434 0.33426 0.9936 0.0
C237 C 0.76949 0.35329 0.14395 0.0
C238 C 0.81549 0.3585 0.03373 0.0
C239 C 0.79268 0.31061 0.08482 0.0
O240 O 0.76287 0.35043 0.10281 0.0
O241 O 0.78518 0.3514 0.14487 0.0
O242 O 0.8029 0.32199 0.09687 0.0
O243 O 0.77971 0.31572 0.06289 0.0
C244 C 0.77151 0.34886 0.97775 0.0
O245 O 0.81278 0.34308 0.02734 0.0
O246 O 0.8044 0.36601 0.05842 0.0
In247 In 0.90697 0.54071 0.33762 0.0
O248 O 0.89593 0.51804 0.2963 0.0
O249 O 0.91499 0.53232 0.26153 0.0
C250 C 0.89489 0.5298 0.425 0.0
C251 C 0.89125 0.56626 0.29191 0.0
C252 C 0.93897 0.54662 0.36478 0.0
O253 O 0.90176 0.52024 0.39406 0.0
O254 O 0.89356 0.54489 0.41126 0.0
O255 O 0.92768 0.55762 0.36832 0.0
O256 O 0.93404 0.53268 0.34841 0.0
C257 C 0.90486 0.52029 0.25856 0.0
O258 O 0.90692 0.56445 0.29235 0.0
O259 O 0.88325 0.55568 0.31737 0.0
In260 In 0.70944 0.34397 0.55927 0.0
O261 O 0.68174 0.34495 0.58066 0.0
O262 O 0.6959 0.36744 0.58558 0.0
C263 C 0.70913 0.31088 0.5389 0.0
C264 C 0.72871 0.3478 0.64017 0.0
C265 C 0.71785 0.35533 0.46888 0.0
O266 O 0.69679 0.31811 0.55882 0.0
O267 O 0.72149 0.32026 0.53009 0.0
O268 O 0.72847 0.35285 0.50244 0.0
O269 O 0.70284 0.35268 0.48142 0.0
C270 C 0.68206 0.36022 0.59288 0.0
O271 O 0.72817 0.35854 0.60624 0.0
O272 O 0.72009 0.33484 0.6324 0.0
In273 In 0.90561 0.46283 0.83128 0.0
O274 O 0.90054 0.43468 0.82961 0.0
O275 O 0.88065 0.45094 0.85088 0.0
C276 C 0.93859 0.46382 0.80985 0.0
C277 C 0.9057 0.47282 0.92613 0.0
C278 C 0.89286 0.47777 0.75007 0.0
O279 O 0.93095 0.45013 0.81619 0.0
O280 O 0.92972 0.47675 0.81524 0.0
O281 O 0.89151 0.4841 0.79247 0.0
O282 O 0.89992 0.4636 0.7491 0.0
C283 C 0.88574 0.43605 0.84572 0.0
O284 O 0.90158 0.48266 0.89177 0.0
O285 O 0.91023 0.45845 0.9124 0.0
In286 In 0.79146 0.65546 0.05921 0.0
O287 O 0.81006 0.64906 0.11952 0.0
O288 O 0.81312 0.63667 0.05096 0.0
C289 C 0.79928 0.68842 0.05105 0.0
C290 C 0.76916 0.65346 0.13325 0.0
C291 C 0.77782 0.64347 0.97465 0.0
O292 O 0.80959 0.67708 0.03973 0.0
O293 O 0.78538 0.68309 0.06616 0.0
O294 O 0.77309 0.63866 0.01653 0.0
O295 O 0.78964 0.65391 0.97544 0.0
C296 C 0.81812 0.63848 0.09466 0.0
O297 O 0.76783 0.66398 0.09877 0.0
O298 O 0.78115 0.64326 0.12871 0.0
In299 In 0.59392 0.53608 0.3294 0.0
O300 O 0.60631 0.5617 0.3401 0.0
O301 O 0.62188 0.54007 0.33883 0.0
C302 C 0.56207 0.54493 0.30883 0.0
C303 C 0.59156 0.52596 0.42395 0.0
C304 C 0.6016 0.51789 0.24851 0.0
O305 O 0.57409 0.55514 0.30466 0.0
O306 O 0.56619 0.53047 0.32327 0.0
O307 O 0.60143 0.51166 0.29121 0.0
O308 O 0.59823 0.53336 0.24675 0.0
C309 C 0.62087 0.55572 0.34512 0.0
O310 O 0.59315 0.51559 0.38911 0.0
O311 O 0.59068 0.54106 0.41074 0.0
In312 In 0.28091 0.34553 0.56575 0.0
O313 O 0.25639 0.34085 0.60628 0.0
O314 O 0.27824 0.34487 0.6493 0.0
C315 C 0.26549 0.35376 0.48048 0.0
C316 C 0.30118 0.37121 0.59118 0.0
C317 C 0.29155 0.31377 0.55177 0.0
O318 O 0.2592 0.35656 0.52217 0.0
O319 O 0.27988 0.3472 0.48156 0.0
O320 O 0.30077 0.32621 0.54204 0.0
O321 O 0.27725 0.31746 0.56803 0.0
C322 C 0.26273 0.34186 0.64864 0.0
O323 O 0.30593 0.35613 0.59264 0.0
O324 O 0.28654 0.37332 0.57481 0.0
In325 In 0.40759 0.54137 0.29834 0.0
O326 O 0.41085 0.5167 0.33975 0.0
O327 O 0.41101 0.53932 0.38114 0.0
C328 C 0.39639 0.52864 0.21234 0.0
C329 C 0.38227 0.56081 0.33059 0.0
C330 C 0.44004 0.5489 0.28239 0.0
O331 O 0.39497 0.52114 0.2529 0.0
O332 O 0.40334 0.54284 0.21487 0.0
O333 O 0.42893 0.56021 0.28376 0.0
O334 O 0.43461 0.53419 0.28783 0.0
C335 C 0.41199 0.52354 0.38145 0.0
O336 O 0.39665 0.56683 0.32209 0.0
O337 O 0.38065 0.54552 0.31987 0.0
In338 In 0.21067 0.65679 0.07413 0.0
O339 O 0.18564 0.64995 0.10996 0.0
O340 O 0.1963 0.63277 0.05922 0.0
C341 C 0.20363 0.68946 0.05986 0.0
C342 C 0.22544 0.65142 0.16186 0.0
C343 C 0.22957 0.65031 0.99392 0.0
O344 O 0.19277 0.67813 0.05305 0.0
O345 O 0.21776 0.68422 0.07379 0.0
O346 O 0.23552 0.65039 0.03687 0.0
O347 O 0.21406 0.65325 0.99149 0.0
C348 C 0.18477 0.63573 0.08973 0.0
O349 O 0.22344 0.63993 0.13063 0.0
O350 O 0.22063 0.66572 0.14813 0.0
In351 In 0.09299 0.46554 0.81479 0.0
O352 O 0.0927 0.48995 0.85864 0.0
O353 O 0.08736 0.46726 0.89657 0.0
C354 C 0.10626 0.47622 0.72933 0.0
C355 C 0.11613 0.4434 0.84577 0.0
C356 C 0.06042 0.46366 0.7897 0.0
O357 O 0.10792 0.48411 0.76929 0.0
O358 O 0.09833 0.46253 0.73267 0.0
O359 O 0.06844 0.45069 0.80283 0.0
O360 O 0.06888 0.47698 0.78917 0.0
C361 C 0.08899 0.48295 0.89879 0.0
O362 O 0.10123 0.43887 0.83675 0.0
O363 O 0.11923 0.45859 0.83669 0.0
In364 In 0.29053 0.65576 0.57377 0.0
O365 O 0.26857 0.6433 0.53401 0.0
O366 O 0.28053 0.66398 0.49947 0.0
C367 C 0.28164 0.64989 0.66791 0.0
C368 C 0.31195 0.63232 0.53965 0.0
C369 C 0.29783 0.68854 0.58158 0.0
O370 O 0.27105 0.65254 0.63435 0.0
O371 O 0.29672 0.65 0.65387 0.0
O372 O 0.30917 0.67744 0.58042 0.0
O373 O 0.28303 0.683 0.57917 0.0
C374 C 0.2695 0.65272 0.49687 0.0
O375 O 0.31495 0.64781 0.53537 0.0
O376 O 0.29885 0.6289 0.56343 0.0
In377 In 0.09154 0.53954 0.32249 0.0
O378 O 0.10359 0.56485 0.3038 0.0
O379 O 0.11649 0.5423 0.28492 0.0
C380 C 0.0607 0.54686 0.3557 0.0
C381 C 0.0834 0.52794 0.23304 0.0
C382 C 0.10494 0.52564 0.40376 0.0
O383 O 0.07168 0.55815 0.3499 0.0
O384 O 0.06552 0.53219 0.34574 0.0
O385 O 0.09836 0.51688 0.37017 0.0
O386 O 0.10511 0.54122 0.39561 0.0
C387 C 0.11601 0.55811 0.2825 0.0
O388 O 0.09097 0.51878 0.264 0.0
O389 O 0.07946 0.54233 0.24838 0.0
In390 In 0.20093 0.3372 0.06849 0.0
O391 O 0.17603 0.35014 0.04937 0.0
O392 O 0.19875 0.36427 0.04712 0.0
C393 C 0.19542 0.30467 0.08775 0.0
C394 C 0.21333 0.33305 0.97773 0.0
C395 C 0.2126 0.34693 0.15668 0.0
O396 O 0.18338 0.31501 0.08479 0.0
O397 O 0.20982 0.31097 0.08244 0.0
O398 O 0.22233 0.34356 0.12124 0.0
O399 O 0.19715 0.34551 0.14724 0.0
C400 C 0.18313 0.36398 0.03962 0.0
O401 O 0.22227 0.33907 0.01201 0.0
O402 O 0.19866 0.32895 0.99009 0.0
In403 In 0.40333 0.46404 0.80274 0.0
O404 O 0.38992 0.43939 0.78556 0.0
O405 O 0.37686 0.4624 0.7738 0.0
C406 C 0.43423 0.45515 0.83192 0.0
C407 C 0.41086 0.47542 0.71253 0.0
C408 C 0.39253 0.4782 0.88679 0.0
O409 O 0.42266 0.44441 0.82703 0.0
O410 O 0.42999 0.47007 0.82299 0.0
O411 O 0.39831 0.48688 0.85175 0.0
O412 O 0.3919 0.46263 0.87873 0.0
C413 C 0.37676 0.44661 0.77033 0.0
O414 O 0.40418 0.48488 0.74443 0.0
O415 O 0.41393 0.46071 0.72691 0.0
H416 H 0.12259 0.08679 0.86406 0.0
H417 H 0.14788 0.03922 0.88706 0.0
H418 H 0.16911 0.05333 0.93793 0.0
H419 H 0.16127 0.11218 0.85716 0.0
H420 H 0.15186 0.12976 0.88829 0.0
H421 H 0.13909 0.11601 0.85147 0.0
H422 H 0.11974 0.11096 0.92646 0.0
H423 H 0.13265 0.1244 0.96381 0.0
H424 H 0.1286 0.10314 0.98293 0.0
H425 H 0.18594 0.07176 0.99244 0.0
H426 H 0.20044 0.0945 0.0366 0.0
H427 H 0.16543 0.13064 0.9757 0.0
C428 C 0.1328 0.07943 0.87891 0.0
C429 C 0.13357 0.0619 0.8716 0.0
C430 C 0.14705 0.05267 0.89199 0.0
C431 C 0.15913 0.06054 0.92124 0.0
C432 C 0.15768 0.0777 0.92927 0.0
C433 C 0.14513 0.08715 0.90785 0.0
C434 C 0.14661 0.10545 0.92242 0.0
C435 C 0.14991 0.1165 0.87714 0.0
C436 C 0.13097 0.11132 0.95058 0.0
C437 C 0.16181 0.10471 0.95581 0.0
C438 C 0.16784 0.08853 0.95964 0.0
C439 C 0.18147 0.08453 0.98935 0.0
C440 C 0.18953 0.09752 0.01463 0.0
C441 C 0.18407 0.11432 0.00956 0.0
C442 C 0.16987 0.1179 0.98029 0.0
H443 H 0.1396 0.93355 0.25954 0.0
H444 H 0.09793 0.89963 0.28446 0.0
H445 H 0.11207 0.87802 0.23419 0.0
H446 H 0.14668 0.92249 0.1348 0.0
H447 H 0.16918 0.92409 0.13853 0.0
H448 H 0.15621 0.93661 0.17832 0.0
H449 H 0.17138 0.92452 0.25472 0.0
H450 H 0.18456 0.91212 0.21514 0.0
H451 H 0.17252 0.90211 0.2629 0.0
H452 H 0.13052 0.86038 0.17956 0.0
H453 H 0.1525 0.84754 0.12781 0.0
H454 H 0.18177 0.89329 0.1374 0.0
C455 C 0.13355 0.9215 0.25498 0.0
C456 C 0.11771 0.91822 0.27611 0.0
C457 C 0.11011 0.90236 0.26882 0.0
C458 C 0.11801 0.89005 0.24019 0.0
C459 C 0.13348 0.89381 0.21908 0.0
C460 C 0.14121 0.90911 0.22638 0.0
C461 C 0.15773 0.9101 0.1991 0.0
C462 C 0.15742 0.92415 0.16039 0.0
C463 C 0.17241 0.91234 0.23512 0.0
C464 C 0.15807 0.89297 0.17518 0.0
C465 C 0.14397 0.88376 0.18715 0.0
C466 C 0.1416 0.86748 0.16992 0.0
C467 C 0.15412 0.86032 0.14043 0.0
C468 C 0.16877 0.86945 0.12836 0.0
C469 C 0.17062 0.88606 0.14557 0.0
H470 H 0.36798 0.91649 0.34493 0.0
H471 H 0.40613 0.92374 0.45654 0.0
H472 H 0.39122 0.90419 0.51145 0.0
H473 H 0.33367 0.91545 0.42238 0.0
H474 H 0.32243 0.8992 0.3903 0.0
H475 H 0.33693 0.91234 0.35746 0.0
H476 H 0.35324 0.88615 0.32763 0.0
H477 H 0.33861 0.87288 0.35982 0.0
H478 H 0.36075 0.87113 0.37199 0.0
H479 H 0.36987 0.88739 0.55879 0.0
H480 H 0.34562 0.87115 0.59034 0.0
H481 H 0.32268 0.8731 0.44605 0.0
C482 C 0.37342 0.9136 0.38039 0.0
C483 C 0.38822 0.9216 0.39644 0.0
C484 C 0.39487 0.91764 0.44331 0.0
C485 C 0.38645 0.90661 0.4749 0.0
C486 C 0.37157 0.89937 0.45869 0.0
C487 C 0.36533 0.90237 0.41208 0.0
C488 C 0.34885 0.89336 0.4042 0.0
C489 C 0.33464 0.90584 0.39294 0.0
C490 C 0.35047 0.88009 0.3635 0.0
C491 C 0.34657 0.88529 0.4541 0.0
C492 C 0.35974 0.88897 0.4852 0.0
C493 C 0.35967 0.88407 0.53446 0.0
C494 C 0.34585 0.87497 0.55216 0.0
C495 C 0.3325 0.87072 0.52039 0.0
C496 C 0.33294 0.87589 0.47081 0.0
H497 H 0.36301 0.0682 0.75087 0.0
H498 H 0.40424 0.1012 0.78897 0.0
H499 H 0.39175 0.12361 0.73775 0.0
H500 H 0.36 0.08076 0.62583 0.0
H501 H 0.33748 0.07923 0.62339 0.0
H502 H 0.34914 0.06616 0.66515 0.0
H503 H 0.33167 0.07741 0.73838 0.0
H504 H 0.31982 0.09036 0.69678 0.0
H505 H 0.33034 0.09971 0.74857 0.0
H506 H 0.37466 0.14233 0.68171 0.0
H507 H 0.35416 0.15595 0.62628 0.0
H508 H 0.32506 0.11002 0.62234 0.0
C509 C 0.36929 0.08023 0.74905 0.0
C510 C 0.3845 0.08306 0.77422 0.0
C511 C 0.39251 0.09884 0.77019 0.0
C512 C 0.38554 0.1116 0.74111 0.0
C513 C 0.37066 0.1083 0.71604 0.0
C514 C 0.36263 0.09299 0.71979 0.0
C515 C 0.34704 0.09242 0.68818 0.0
C516 C 0.34852 0.07884 0.64828 0.0
C517 C 0.33129 0.08983 0.71988 0.0
C518 C 0.3475 0.10982 0.6661 0.0
C519 C 0.36118 0.11882 0.68269 0.0
C520 C 0.36395 0.13537 0.6683 0.0
C521 C 0.35229 0.14298 0.63674 0.0
C522 C 0.33815 0.13398 0.61968 0.0
C523 C 0.33589 0.11713 0.63418 0.0
H524 H 0.81269 0.89283 0.12647 0.0
H525 H 0.83768 0.8451 0.14874 0.0
H526 H 0.85766 0.85868 0.20558 0.0
H527 H 0.84983 0.91839 0.12797 0.0
H528 H 0.83983 0.93549 0.15987 0.0
H529 H 0.82762 0.92188 0.12112 0.0
H530 H 0.8078 0.9156 0.19433 0.0
H531 H 0.8201 0.92901 0.2335 0.0
H532 H 0.8164 0.90751 0.25081 0.0
H533 H 0.87504 0.87757 0.25971 0.0
H534 H 0.88952 0.90072 0.30285 0.0
H535 H 0.85277 0.93586 0.24613 0.0
C536 C 0.82244 0.88526 0.14303 0.0
C537 C 0.82368 0.86792 0.13309 0.0
C538 C 0.83654 0.85842 0.15572 0.0
C539 C 0.84789 0.866 0.18823 0.0
C540 C 0.84617 0.88307 0.19784 0.0
C541 C 0.83383 0.8926 0.17566 0.0
C542 C 0.83481 0.91075 0.1917 0.0
C543 C 0.83823 0.9223 0.14754 0.0
C544 C 0.81883 0.91602 0.21922 0.0
C545 C 0.84973 0.90997 0.226 0.0
C546 C 0.85605 0.89389 0.22931 0.0
C547 C 0.87015 0.89021 0.2576 0.0
C548 C 0.87824 0.90341 0.28214 0.0
C549 C 0.8722 0.92005 0.27815 0.0
C550 C 0.85757 0.92324 0.25045 0.0
H551 H 0.88105 0.08819 0.88433 0.0
H552 H 0.84942 0.04408 0.87209 0.0
H553 H 0.82871 0.05714 0.92727 0.0
H554 H 0.87277 0.09684 0.01167 0.0
H555 H 0.87231 0.1193 0.00421 0.0
H556 H 0.88489 0.10662 0.96367 0.0
H557 H 0.86968 0.11919 0.888 0.0
H558 H 0.85728 0.13211 0.92827 0.0
H559 H 0.84712 0.11838 0.88492 0.0
H560 H 0.81164 0.07452 0.98416 0.0
H561 H 0.79759 0.09661 0.03222 0.0
H562 H 0.83987 0.12981 0.00763 0.0
C563 C 0.86969 0.08136 0.89295 0.0
C564 C 0.86684 0.06512 0.87389 0.0
C565 C 0.85185 0.05656 0.8861 0.0
C566 C 0.84006 0.06381 0.9177 0.0
C567 C 0.8434 0.07967 0.93669 0.0
C568 C 0.85771 0.08847 0.92433 0.0
C569 C 0.85792 0.10555 0.94883 0.0
C570 C 0.87286 0.10716 0.98419 0.0
C571 C 0.858 0.11964 0.9102 0.0
C572 C 0.84146 0.10498 0.97661 0.0
C573 C 0.8334 0.08984 0.96944 0.0
C574 C 0.81782 0.08642 0.99015 0.0
C575 C 0.80998 0.09903 0.01756 0.0
C576 C 0.81768 0.11488 0.02389 0.0
C577 C 0.83381 0.11773 0.00407 0.0
H578 H 0.65982 0.13138 0.62612 0.0
H579 H 0.70682 0.10419 0.63792 0.0
H580 H 0.6938 0.08439 0.6955 0.0
H581 H 0.64684 0.12663 0.75187 0.0
H582 H 0.62501 0.1233 0.7378 0.0
H583 H 0.63784 0.13572 0.69725 0.0
H584 H 0.62998 0.11648 0.6241 0.0
H585 H 0.61695 0.10415 0.66429 0.0
H586 H 0.63329 0.09418 0.62912 0.0
H587 H 0.67649 0.06811 0.75351 0.0
H588 H 0.65456 0.05383 0.80138 0.0
H589 H 0.61799 0.09031 0.75092 0.0
C590 C 0.66729 0.12117 0.64057 0.0
C591 C 0.68436 0.11937 0.62752 0.0
C592 C 0.69372 0.10583 0.64716 0.0
C593 C 0.68647 0.09455 0.68021 0.0
C594 C 0.66977 0.09682 0.69304 0.0
C595 C 0.66016 0.10957 0.67335 0.0
C596 C 0.64228 0.10867 0.69235 0.0
C597 C 0.63773 0.12452 0.72156 0.0
C598 C 0.62989 0.10569 0.64994 0.0
C599 C 0.64345 0.09345 0.72575 0.0
C600 C 0.65951 0.08699 0.72591 0.0
C601 C 0.66383 0.07298 0.75361 0.0
C602 C 0.65129 0.065 0.78087 0.0
C603 C 0.63457 0.07095 0.77995 0.0
C604 C 0.63068 0.08554 0.75262 0.0
H605 H 0.64188 0.93371 0.38541 0.0
H606 H 0.59742 0.90291 0.36861 0.0
H607 H 0.61064 0.8807 0.41884 0.0
H608 H 0.67206 0.89958 0.3793 0.0
H609 H 0.68576 0.90905 0.42404 0.0
H610 H 0.67284 0.92207 0.38547 0.0
H611 H 0.66027 0.93607 0.46313 0.0
H612 H 0.67291 0.92286 0.50196 0.0
H613 H 0.65047 0.92319 0.50936 0.0
H614 H 0.62839 0.86238 0.47423 0.0
H615 H 0.65042 0.84813 0.52266 0.0
H616 H 0.68316 0.89102 0.50238 0.0
C617 C 0.63501 0.92219 0.39169 0.0
C618 C 0.61864 0.92 0.37301 0.0
C619 C 0.61002 0.9048 0.38229 0.0
C620 C 0.61739 0.89217 0.41105 0.0
C621 C 0.63338 0.89493 0.43003 0.0
C622 C 0.64218 0.90947 0.42011 0.0
C623 C 0.65921 0.90935 0.44459 0.0
C624 C 0.6733 0.91005 0.40605 0.0
C625 C 0.6608 0.92372 0.48198 0.0
C626 C 0.65862 0.89248 0.46999 0.0
C627 C 0.64358 0.88439 0.46148 0.0
C628 C 0.64023 0.86858 0.48103 0.0
C629 C 0.65276 0.86064 0.50877 0.0
C630 C 0.66847 0.86849 0.51644 0.0
C631 C 0.67125 0.88474 0.49746 0.0
H632 H 0.66374 0.62975 0.4983 0.0
H633 H 0.70808 0.59825 0.50479 0.0
H634 H 0.69399 0.57706 0.45382 0.0
H635 H 0.63346 0.59549 0.50414 0.0
H636 H 0.61903 0.6054 0.46225 0.0
H637 H 0.63252 0.61804 0.50024 0.0
H638 H 0.64381 0.63293 0.42236 0.0
H639 H 0.63058 0.62011 0.38407 0.0
H640 H 0.65288 0.62061 0.37361 0.0
H641 H 0.67582 0.55964 0.40057 0.0
H642 H 0.65321 0.54545 0.35498 0.0
H643 H 0.62028 0.58777 0.38236 0.0
C644 C 0.67036 0.61829 0.48954 0.0
C645 C 0.68701 0.61566 0.50556 0.0
C646 C 0.69532 0.60055 0.493 0.0
C647 C 0.68746 0.58845 0.46382 0.0
C648 C 0.67125 0.59159 0.44751 0.0
C649 C 0.66266 0.60599 0.46036 0.0
C650 C 0.64522 0.60603 0.43815 0.0
C651 C 0.63176 0.60625 0.47861 0.0
C652 C 0.643 0.6208 0.40243 0.0
C653 C 0.64542 0.58941 0.41099 0.0
C654 C 0.66063 0.58139 0.41665 0.0
C655 C 0.66383 0.56577 0.39584 0.0
C656 C 0.65094 0.55785 0.3698 0.0
C657 C 0.63504 0.56553 0.3649 0.0
C658 C 0.63238 0.58168 0.38494 0.0
H659 H 0.63922 0.43182 0.75443 0.0
H660 H 0.59719 0.39802 0.77543 0.0
H661 H 0.61119 0.37684 0.72356 0.0
H662 H 0.64664 0.42178 0.62875 0.0
H663 H 0.66915 0.42305 0.63327 0.0
H664 H 0.65619 0.43539 0.67363 0.0
H665 H 0.67094 0.42242 0.74952 0.0
H666 H 0.68409 0.41022 0.70938 0.0
H667 H 0.67177 0.39994 0.75599 0.0
H668 H 0.62941 0.35961 0.66763 0.0
H669 H 0.65145 0.34687 0.61582 0.0
H670 H 0.68141 0.39202 0.63063 0.0
C671 C 0.63307 0.41988 0.74865 0.0
C672 C 0.61715 0.41653 0.76912 0.0
C673 C 0.60942 0.40082 0.76026 0.0
C674 C 0.61724 0.38874 0.7307 0.0
C675 C 0.63277 0.39256 0.71023 0.0
C676 C 0.64068 0.40768 0.71911 0.0
C677 C 0.6573 0.40868 0.6924 0.0
C678 C 0.65731 0.42308 0.65478 0.0
C679 C 0.67188 0.41041 0.72901 0.0
C680 C 0.6575 0.39176 0.66715 0.0
C681 C 0.64322 0.38267 0.67777 0.0
C682 C 0.64066 0.3666 0.65904 0.0
C683 C 0.6532 0.3595 0.62949 0.0
C684 C 0.66809 0.36848 0.61902 0.0
C685 C 0.6701 0.3849 0.63765 0.0
H686 H 0.85737 0.43697 0.90162 0.0
H687 H 0.89322 0.40266 0.8363 0.0
H688 H 0.87961 0.37898 0.87948 0.0
H689 H 0.85657 0.418 0.01867 0.0
H690 H 0.83453 0.42146 0.02896 0.0
H691 H 0.84617 0.43552 0.99003 0.0
H692 H 0.82542 0.43017 0.9184 0.0
H693 H 0.81352 0.41636 0.95742 0.0
H694 H 0.82126 0.40895 0.89912 0.0
H695 H 0.86255 0.35923 0.93214 0.0
H696 H 0.84234 0.3447 0.98631 0.0
H697 H 0.81859 0.3923 0.01956 0.0
C698 C 0.86215 0.42443 0.89552 0.0
C699 C 0.87625 0.4216 0.86522 0.0
C700 C 0.88233 0.40506 0.85901 0.0
C701 C 0.87475 0.39157 0.88358 0.0
C702 C 0.86118 0.39487 0.91438 0.0
C703 C 0.85486 0.41089 0.9201 0.0
C704 C 0.84049 0.4112 0.95639 0.0
C705 C 0.8447 0.4222 1.00116 0.0
C706 C 0.82421 0.41701 0.93133 0.0
C707 C 0.83967 0.39285 0.97027 0.0
C708 C 0.8517 0.38363 0.94564 0.0
C709 C 0.85311 0.36633 0.95168 0.0
C710 C 0.84165 0.35821 0.9827 0.0
C711 C 0.82903 0.3674 0.00748 0.0
C712 C 0.82827 0.38498 1.00176 0.0
H713 H 0.81885 0.62565 0.18703 0.0
H714 H 0.84708 0.62793 0.05113 0.0
H715 H 0.86961 0.61085 0.08908 0.0
H716 H 0.85344 0.62655 0.27233 0.0
H717 H 0.84427 0.61141 0.31352 0.0
H718 H 0.83097 0.62473 0.27692 0.0
H719 H 0.81616 0.5986 0.24078 0.0
H720 H 0.82934 0.58519 0.27738 0.0
H721 H 0.8285 0.58248 0.21167 0.0
H722 H 0.88929 0.59457 0.14287 0.0
H723 H 0.90331 0.57668 0.2043 0.0
H724 H 0.86082 0.58225 0.30239 0.0
C725 C 0.82988 0.62266 0.16554 0.0
C726 C 0.8315 0.62826 0.11655 0.0
C727 C 0.84578 0.62379 0.08885 0.0
C728 C 0.85861 0.61418 0.11015 0.0
C729 C 0.85667 0.60888 0.15869 0.0
C730 C 0.84252 0.61267 0.18574 0.0
C731 C 0.84296 0.60437 0.23585 0.0
C732 C 0.84291 0.61755 0.27708 0.0
C733 C 0.82838 0.59192 0.24174 0.0
C734 C 0.85966 0.59539 0.23297 0.0
C735 C 0.86748 0.59845 0.18848 0.0
C736 C 0.88324 0.59199 0.17765 0.0
C737 C 0.89113 0.58193 0.21289 0.0
C738 C 0.8831 0.57812 0.25794 0.0
C739 C 0.86717 0.58494 0.26812 0.0
H740 H 0.3316 0.36937 0.63804 0.0
H741 H 0.29282 0.40435 0.59324 0.0
H742 H 0.30768 0.42721 0.63607 0.0
H743 H 0.33795 0.38607 0.75771 0.0
H744 H 0.36034 0.38305 0.7578 0.0
H745 H 0.34715 0.36944 0.72185 0.0
H746 H 0.36402 0.37678 0.64338 0.0
H747 H 0.37741 0.39023 0.67921 0.0
H748 H 0.36666 0.39845 0.62618 0.0
H749 H 0.32595 0.44595 0.68618 0.0
H750 H 0.34775 0.46003 0.73535 0.0
H751 H 0.37485 0.41302 0.7479 0.0
C752 C 0.32637 0.38189 0.63666 0.0
C753 C 0.31108 0.38512 0.61219 0.0
C754 C 0.30455 0.40162 0.6116 0.0
C755 C 0.31286 0.41467 0.63598 0.0
C756 C 0.32769 0.411 0.66068 0.0
C757 C 0.33451 0.39508 0.66083 0.0
C758 C 0.35058 0.39453 0.69053 0.0
C759 C 0.34889 0.38256 0.73458 0.0
C760 C 0.36555 0.38972 0.65787 0.0
C761 C 0.35168 0.41262 0.70716 0.0
C762 C 0.3383 0.42187 0.68965 0.0
C763 C 0.33652 0.43887 0.69999 0.0
C764 C 0.34893 0.44673 0.72812 0.0
C765 C 0.36296 0.43761 0.74554 0.0
C766 C 0.36421 0.42028 0.73536 0.0
H767 H 0.34118 0.6357 0.4861 0.0
H768 H 0.3039 0.59936 0.53282 0.0
H769 H 0.31725 0.57786 0.48126 0.0
H770 H 0.34473 0.62189 0.36181 0.0
H771 H 0.3671 0.62471 0.3578 0.0
H772 H 0.35496 0.63753 0.39908 0.0
H773 H 0.3735 0.62816 0.47225 0.0
H774 H 0.38587 0.61553 0.43106 0.0
H775 H 0.37628 0.6061 0.48428 0.0
H776 H 0.33306 0.56087 0.42149 0.0
H777 H 0.35329 0.54768 0.36549 0.0
H778 H 0.38174 0.59408 0.35947 0.0
C779 C 0.336 0.62316 0.48591 0.0
C780 C 0.32148 0.61921 0.51343 0.0
C781 C 0.31503 0.60267 0.51219 0.0
C782 C 0.32245 0.59038 0.48276 0.0
C783 C 0.33645 0.59476 0.45515 0.0
C784 C 0.34341 0.6106 0.45708 0.0
C785 C 0.35878 0.61172 0.42434 0.0
C786 C 0.35623 0.62474 0.38333 0.0
C787 C 0.37454 0.6156 0.45481 0.0
C788 C 0.35927 0.59405 0.40371 0.0
C789 C 0.34608 0.58462 0.42158 0.0
C790 C 0.34353 0.56806 0.40751 0.0
C791 C 0.35506 0.56072 0.3754 0.0
C792 C 0.36911 0.56984 0.35815 0.0
C793 C 0.3711 0.58682 0.37198 0.0
H794 H 0.12111 0.59234 0.27746 0.0
H795 H 0.1369 0.54493 0.21413 0.0
H796 H 0.15413 0.56 0.15362 0.0
H797 H 0.11912 0.61595 0.16487 0.0
H798 H 0.12773 0.63488 0.19078 0.0
H799 H 0.11615 0.62056 0.22913 0.0
H800 H 0.14136 0.61832 0.28882 0.0
H801 H 0.15288 0.63285 0.25112 0.0
H802 H 0.16166 0.61258 0.26508 0.0
H803 H 0.16886 0.57981 0.09842 0.0
H804 H 0.18399 0.60322 0.05956 0.0
H805 H 0.16017 0.63809 0.16026 0.0
C806 C 0.12831 0.58518 0.25106 0.0
C807 C 0.12766 0.56747 0.25047 0.0
C808 C 0.13728 0.5585 0.21549 0.0
C809 C 0.14699 0.56694 0.18063 0.0
C810 C 0.14713 0.58437 0.1815 0.0
C811 C 0.13835 0.59343 0.21632 0.0
C812 C 0.14147 0.61209 0.2104 0.0
C813 C 0.12514 0.62141 0.19806 0.0
C814 C 0.14985 0.61938 0.25659 0.0
C815 C 0.15337 0.61202 0.16693 0.0
C816 C 0.1562 0.59589 0.15041 0.0
C817 C 0.16681 0.59251 0.11104 0.0
C818 C 0.17527 0.60591 0.08902 0.0
C819 C 0.17325 0.62247 0.10684 0.0
C820 C 0.16185 0.62558 0.1456 0.0
H821 H 0.11203 0.41145 0.88389 0.0
H822 H 0.14847 0.4514 0.86495 0.0
H823 H 0.16872 0.43577 0.9152 0.0
H824 H 0.12206 0.40186 0.00848 0.0
H825 H 0.1198 0.37947 0.00225 0.0
H826 H 0.10797 0.39333 0.96312 0.0
H827 H 0.12012 0.37878 0.88585 0.0
H828 H 0.13177 0.3647 0.92474 0.0
H829 H 0.14252 0.37699 0.87897 0.0
H830 H 0.18448 0.41714 0.9703 0.0
H831 H 0.19655 0.39447 0.02014 0.0
H832 H 0.15074 0.3656 0.00334 0.0
C833 C 0.12437 0.41674 0.88972 0.0
C834 C 0.12866 0.43266 0.8705 0.0
C835 C 0.14488 0.43924 0.87925 0.0
C836 C 0.15647 0.4305 0.90795 0.0
C837 C 0.15173 0.41512 0.92751 0.0
C838 C 0.13622 0.40809 0.91829 0.0
C839 C 0.13455 0.39123 0.94381 0.0
C840 C 0.12024 0.3915 0.98166 0.0
C841 C 0.1321 0.37709 0.90609 0.0
C842 C 0.15152 0.38999 0.96885 0.0
C843 C 0.1611 0.40403 0.95912 0.0
C844 C 0.17717 0.40602 0.97799 0.0
C845 C 0.18388 0.39308 0.00646 0.0
C846 C 0.1746 0.37826 0.01565 0.0
C847 C 0.15808 0.37683 0.99723 0.0
H848 H 0.23985 0.17157 0.89163 0.0
H849 H 0.2431 0.11828 0.92233 0.0
H850 H 0.25295 0.11319 0.83761 0.0
H851 H 0.22591 0.1682 0.7659 0.0
H852 H 0.23834 0.18562 0.74467 0.0
H853 H 0.231 0.1851 0.80726 0.0
H854 H 0.26147 0.18828 0.83889 0.0
H855 H 0.26887 0.18901 0.77644 0.0
H856 H 0.27727 0.1737 0.81848 0.0
H857 H 0.26193 0.11382 0.74918 0.0
H858 H 0.27271 0.12051 0.66632 0.0
H859 H 0.26491 0.17349 0.69449 0.0
C860 C 0.24267 0.15885 0.88048 0.0
C861 C 0.24069 0.14531 0.9134 0.0
C862 C 0.2446 0.12883 0.89768 0.0
C863 C 0.25008 0.1258 0.84957 0.0
C864 C 0.25173 0.1394 0.8178 0.0
C865 C 0.24837 0.15562 0.83277 0.0
C866 C 0.25191 0.16807 0.79207 0.0
C867 C 0.23583 0.17729 0.77657 0.0
C868 C 0.26571 0.1805 0.80739 0.0
C869 C 0.25792 0.15633 0.75205 0.0
C870 C 0.25743 0.13982 0.76735 0.0
C871 C 0.26238 0.1267 0.73678 0.0
C872 C 0.26839 0.13061 0.68972 0.0
C873 C 0.26961 0.1475 0.6741 0.0
C874 C 0.26407 0.16046 0.70549 0.0
H875 H 0.0867 0.96647 0.16122 0.0
H876 H 0.0979 0.01052 0.24877 0.0
H877 H 0.09733 0.028 0.1736 0.0
H878 H 0.11269 0.97808 0.05818 0.0
H879 H 0.09856 0.96942 0.01317 0.0
H880 H 0.09946 0.96057 0.07399 0.0
H881 H 0.06748 0.96519 0.08378 0.0
H882 H 0.0665 0.97415 0.0231 0.0
H883 H 0.05888 0.98588 0.07512 0.0
H884 H 0.09447 0.04067 0.08961 0.0
H885 H 0.09235 0.04747 1.00139 0.0
H886 H 0.08468 0.99482 0.96791 0.0
C887 C 0.08901 0.9798 0.16452 0.0
C888 C 0.09223 0.98723 0.21066 0.0
C889 C 0.09542 0.00464 0.21364 0.0
C890 C 0.09505 0.01465 0.17125 0.0
C891 C 0.0917 0.00695 0.12631 0.0
C892 C 0.08898 0.9899 0.12256 0.0
C893 C 0.08628 0.98464 0.06967 0.0
C894 C 0.10007 0.97246 0.05277 0.0
C895 C 0.06874 0.97702 0.06252 0.0
C896 C 0.08778 0.00143 0.04421 0.0
C897 C 0.09073 0.01416 0.07764 0.0
C898 C 0.09226 0.03081 0.06308 0.0
C899 C 0.09096 0.03455 0.01293 0.0
C900 C 0.08837 0.02165 0.97794 0.0
C901 C 0.0867 0.0049 0.9939 0.0
H902 H 0.23307 0.82779 0.22347 0.0
H903 H 0.24101 0.87963 0.18097 0.0
H904 H 0.2518 0.88586 0.26419 0.0
H905 H 0.21939 0.83563 0.346 0.0
H906 H 0.22999 0.81776 0.37204 0.0
H907 H 0.22314 0.81726 0.309 0.0
H908 H 0.25337 0.81048 0.28043 0.0
H909 H 0.26027 0.81071 0.34342 0.0
H910 H 0.27035 0.82402 0.29879 0.0
H911 H 0.26069 0.88661 0.35307 0.0
H912 H 0.26982 0.88124 0.43836 0.0
H913 H 0.25667 0.82873 0.42198 0.0
C914 C 0.23722 0.84042 0.23154 0.0
C915 C 0.23622 0.85324 0.19582 0.0
C916 C 0.24176 0.86961 0.20775 0.0
C917 C 0.2478 0.87328 0.25498 0.0
C918 C 0.24832 0.86042 0.28964 0.0
C919 C 0.24339 0.84427 0.2783 0.0
C920 C 0.24546 0.83266 0.32193 0.0
C921 C 0.22848 0.8254 0.33819 0.0
C922 C 0.25812 0.81864 0.31045 0.0
C923 C 0.2523 0.8448 0.35967 0.0
C924 C 0.25371 0.86079 0.34047 0.0
C925 C 0.25969 0.87413 0.36844 0.0
C926 C 0.26475 0.87098 0.41694 0.0
C927 C 0.26391 0.85458 0.43681 0.0
C928 C 0.25739 0.8414 0.40787 0.0
H929 H 0.42472 0.02013 0.67619 0.0
H930 H 0.37401 0.00979 0.72512 0.0
H931 H 0.36688 0.99926 0.64223 0.0
H932 H 0.4145 0.03428 0.55601 0.0
H933 H 0.43231 0.02454 0.52693 0.0
H934 H 0.43355 0.03094 0.59028 0.0
H935 H 0.44185 0.00076 0.61591 0.0
H936 H 0.44089 0.99432 0.55256 0.0
H937 H 0.42867 0.98342 0.59819 0.0
H938 H 0.36507 0.99095 0.55285 0.0
H939 H 0.36949 0.98271 0.46622 0.0
H940 H 0.42156 0.99797 0.47684 0.0
C941 C 0.41216 0.0155 0.66959 0.0
C942 C 0.3999 0.01575 0.70699 0.0
C943 C 0.38361 0.0096 0.697 0.0
C944 C 0.37942 0.0037 0.64999 0.0
C945 C 0.39172 0.00394 0.61362 0.0
C946 C 0.40782 0.00945 0.62309 0.0
C947 C 0.41879 0.00815 0.5779 0.0
C948 C 0.42516 0.02551 0.56184 0.0
C949 C 0.43341 0.99593 0.58667 0.0
C950 C 0.40633 0.00113 0.5414 0.0
C951 C 0.39075 0.99891 0.56256 0.0
C952 C 0.37723 0.99259 0.53594 0.0
C953 C 0.37983 0.98804 0.48671 0.0
C954 C 0.39585 0.98975 0.46485 0.0
C955 C 0.40916 0.99659 0.49251 0.0
H956 H 0.76649 0.86221 0.21532 0.0
H957 H 0.73547 0.82502 0.14264 0.0
H958 H 0.72074 0.81958 0.22079 0.0
H959 H 0.77226 0.83985 0.32438 0.0
H960 H 0.77143 0.85775 0.36476 0.0
H961 H 0.77835 0.86027 0.30223 0.0
H962 H 0.75557 0.88285 0.28745 0.0
H963 H 0.74874 0.88061 0.35022 0.0
H964 H 0.73396 0.87804 0.30069 0.0
H965 H 0.71116 0.81635 0.30733 0.0
H966 H 0.70587 0.81676 0.39646 0.0
H967 H 0.7432 0.85592 0.41419 0.0
C968 C 0.75629 0.85324 0.21559 0.0
C969 C 0.752 0.84412 0.17285 0.0
C970 C 0.73886 0.83223 0.17487 0.0
C971 C 0.73046 0.82902 0.2191 0.0
C972 C 0.73535 0.83783 0.26092 0.0
C973 C 0.74782 0.84983 0.25954 0.0
C974 C 0.75121 0.85689 0.31035 0.0
C975 C 0.76939 0.85348 0.32635 0.0
C976 C 0.74712 0.87572 0.31228 0.0
C977 C 0.73889 0.84676 0.34061 0.0
C978 C 0.72985 0.83589 0.31123 0.0
C979 C 0.71804 0.82491 0.33066 0.0
C980 C 0.71519 0.82519 0.38141 0.0
C981 C 0.72413 0.83636 0.41229 0.0
C982 C 0.73619 0.84724 0.39152 0.0
H983 H 0.90399 0.02883 0.98229 0.0
H984 H 0.91072 0.98406 0.89392 0.0
H985 H 0.91143 0.96684 0.96961 0.0
H986 H 0.93033 0.01694 0.0835 0.0
H987 H 0.91673 0.02587 0.12945 0.0
H988 H 0.91725 0.03464 0.06848 0.0
H989 H 0.88514 0.03052 0.06078 0.0
H990 H 0.88451 0.02174 0.12172 0.0
H991 H 0.87627 0.01 0.07055 0.0
H992 H 0.91219 0.95478 0.05479 0.0
H993 H 0.91101 0.94823 0.14335 0.0
H994 H 0.90203 0.00073 0.17591 0.0
C995 C 0.90571 0.01541 0.97892 0.0
C996 C 0.90746 0.00773 0.93245 0.0
C997 C 0.90941 0.99014 0.9293 0.0
C998 C 0.90985 0.9803 0.97202 0.0
C999 C 0.9081 0.98827 0.01734 0.0
C1000 C 0.9059 0.0054 0.02104 0.0
C1001 C 0.90373 0.0108 0.07402 0.0
C1002 C 0.91785 0.02277 0.08978 0.0
C1003 C 0.88638 0.01873 0.08223 0.0
C1004 C 0.90516 0.99403 0.09966 0.0
C1005 C 0.90784 0.98122 0.0663 0.0
C1006 C 0.91 0.96467 0.08122 0.0
C1007 C 0.90936 0.9611 0.13157 0.0
C1008 C 0.90637 0.97398 0.16631 0.0
C1009 C 0.90421 0.99064 0.15006 0.0
H1010 H 0.74866 0.16121 0.92313 0.0
H1011 H 0.80186 0.1588 0.89063 0.0
H1012 H 0.79563 0.15958 0.80186 0.0
H1013 H 0.73479 0.13537 0.82454 0.0
H1014 H 0.71624 0.14754 0.81206 0.0
H1015 H 0.72489 0.14712 0.87314 0.0
H1016 H 0.72686 0.17956 0.87293 0.0
H1017 H 0.7182 0.18009 0.81182 0.0
H1018 H 0.73806 0.18999 0.82418 0.0
H1019 H 0.78357 0.1589 0.71672 0.0
H1020 H 0.76639 0.15841 0.64095 0.0
H1021 H 0.72129 0.16278 0.72904 0.0
C1022 C 0.75897 0.16092 0.89728 0.0
C1023 C 0.77572 0.15992 0.9136 0.0
C1024 C 0.78892 0.15962 0.8788 0.0
C1025 C 0.78552 0.16003 0.82834 0.0
C1026 C 0.76887 0.16094 0.81336 0.0
C1027 C 0.75582 0.16154 0.84675 0.0
C1028 C 0.73906 0.16252 0.82092 0.0
C1029 C 0.7281 0.14722 0.83341 0.0
C1030 C 0.73001 0.17902 0.83319 0.0
C1031 C 0.74473 0.16215 0.76787 0.0
C1032 C 0.76197 0.16116 0.76426 0.0
C1033 C 0.77007 0.15988 0.71901 0.0
C1034 C 0.76024 0.15958 0.67627 0.0
C1035 C 0.74259 0.16074 0.67929 0.0
C1036 C 0.7348 0.16215 0.72567 0.0
H1037 H 0.6028 0.0305 0.65263 0.0
H1038 H 0.58546 0.98799 0.73832 0.0
H1039 H 0.58243 0.9714 0.66226 0.0
H1040 H 0.57588 0.02454 0.54893 0.0
H1041 H 0.59145 0.03037 0.50407 0.0
H1042 H 0.59234 0.039 0.56517 0.0
H1043 H 0.62272 0.02805 0.57503 0.0
H1044 H 0.62195 0.01943 0.51388 0.0
H1045 H 0.62706 0.00612 0.56527 0.0
H1046 H 0.57999 0.95996 0.57787 0.0
H1047 H 0.58018 0.95333 0.48959 0.0
H1048 H 0.60056 0.00261 0.45759 0.0
C1049 C 0.59839 0.01768 0.65529 0.0
C1050 C 0.59429 0.0105 0.70122 0.0
C1051 C 0.58868 0.99369 0.70345 0.0
C1052 C 0.58689 0.9842 0.6605 0.0
C1053 C 0.59095 0.99166 0.61579 0.0
C1054 C 0.59675 0.00794 0.6128 0.0
C1055 C 0.60046 0.01281 0.56001 0.0
C1056 C 0.58937 0.02755 0.54359 0.0
C1057 C 0.61916 0.01684 0.55316 0.0
C1058 C 0.59567 0.99675 0.53379 0.0
C1059 C 0.5901 0.9848 0.5668 0.0
C1060 C 0.58444 0.96915 0.55167 0.0
C1061 C 0.58453 0.96554 0.50142 0.0
C1062 C 0.59042 0.97746 0.46686 0.0
C1063 C 0.59612 0.99325 0.4833 0.0
H1064 H 0.7525 0.64314 0.42073 0.0
H1065 H 0.71315 0.68032 0.40436 0.0
H1066 H 0.71847 0.68149 0.31529 0.0
H1067 H 0.78067 0.66082 0.32947 0.0
H1068 H 0.78754 0.64063 0.30752 0.0
H1069 H 0.78085 0.64302 0.37032 0.0
H1070 H 0.75916 0.6192 0.35778 0.0
H1071 H 0.76562 0.61694 0.29469 0.0
H1072 H 0.74393 0.6209 0.30912 0.0
H1073 H 0.72765 0.67855 0.22832 0.0
H1074 H 0.74167 0.67307 0.14905 0.0
H1075 H 0.77475 0.63745 0.22075 0.0
C1076 C 0.74518 0.65167 0.39843 0.0
C1077 C 0.73245 0.66168 0.41944 0.0
C1078 C 0.72299 0.67256 0.38904 0.0
C1079 C 0.72586 0.67327 0.33837 0.0
C1080 C 0.73821 0.66299 0.31858 0.0
C1081 C 0.74783 0.6525 0.34757 0.0
C1082 C 0.76034 0.64281 0.31674 0.0
C1083 C 0.77842 0.64708 0.33191 0.0
C1084 C 0.75706 0.62384 0.31978 0.0
C1085 C 0.75627 0.64958 0.26608 0.0
C1086 C 0.7434 0.66115 0.26801 0.0
C1087 C 0.73771 0.66947 0.22622 0.0
C1088 C 0.74569 0.66623 0.18136 0.0
C1089 C 0.75918 0.65475 0.17872 0.0
C1090 C 0.76429 0.6461 0.22152 0.0
H1091 H 0.58663 0.49468 0.46455 0.0
H1092 H 0.5971 0.54656 0.50172 0.0
H1093 H 0.59856 0.539 0.58946 0.0
H1094 H 0.55993 0.48658 0.56952 0.0
H1095 H 0.56718 0.46536 0.57756 0.0
H1096 H 0.56729 0.47475 0.51737 0.0
H1097 H 0.59898 0.46825 0.50907 0.0
H1098 H 0.59899 0.45889 0.56931 0.0
H1099 H 0.6133 0.47572 0.55541 0.0
H1100 H 0.60004 0.52575 0.67276 0.0
H1101 H 0.59905 0.50792 0.7471 0.0
H1102 H 0.58593 0.46502 0.65695 0.0
C1103 C 0.5892 0.50442 0.49124 0.0
C1104 C 0.59178 0.52119 0.4764 0.0
C1105 C 0.59502 0.53363 0.51233 0.0
C1106 C 0.59595 0.52946 0.56224 0.0
C1107 C 0.59341 0.51283 0.57575 0.0
C1108 C 0.58991 0.50052 0.54145 0.0
C1109 C 0.58724 0.48369 0.56608 0.0
C1110 C 0.56934 0.47722 0.5571 0.0
C1111 C 0.60041 0.47088 0.54894 0.0
C1112 C 0.58986 0.48847 0.61944 0.0
C1113 C 0.59359 0.50531 0.62413 0.0
C1114 C 0.597 0.51257 0.66964 0.0
C1115 C 0.59646 0.50236 0.7116 0.0
C1116 C 0.5923 0.48517 0.70771 0.0
C1117 C 0.58897 0.47818 0.661 0.0
H1118 H 0.73397 0.32544 0.71488 0.0
H1119 H 0.74229 0.37723 0.67243 0.0
H1120 H 0.75379 0.38323 0.75487 0.0
H1121 H 0.7211 0.33324 0.83717 0.0
H1122 H 0.73163 0.3153 0.86308 0.0
H1123 H 0.72465 0.31483 0.80017 0.0
H1124 H 0.75478 0.30784 0.77112 0.0
H1125 H 0.76181 0.30806 0.83401 0.0
H1126 H 0.77188 0.32127 0.78912 0.0
H1127 H 0.76265 0.38397 0.84333 0.0
H1128 H 0.77107 0.37878 0.92932 0.0
H1129 H 0.75785 0.32628 0.91325 0.0
C1130 C 0.73841 0.33799 0.72276 0.0
C1131 C 0.73726 0.35089 0.68737 0.0
C1132 C 0.74315 0.36716 0.69899 0.0
C1133 C 0.74961 0.3707 0.74575 0.0
C1134 C 0.75024 0.35778 0.78019 0.0
C1135 C 0.74504 0.3417 0.76906 0.0
C1136 C 0.7471 0.33008 0.81266 0.0
C1137 C 0.73011 0.32294 0.82923 0.0
C1138 C 0.75964 0.31598 0.80102 0.0
C1139 C 0.75411 0.34219 0.85022 0.0
C1140 C 0.75571 0.35813 0.83084 0.0
C1141 C 0.76157 0.37152 0.85882 0.0
C1142 C 0.76622 0.36847 0.90767 0.0
C1143 C 0.7651 0.35214 0.92784 0.0
C1144 C 0.75885 0.33888 0.89875 0.0
H1145 H 0.91073 0.53067 0.16503 0.0
H1146 H 0.8952 0.48746 0.25034 0.0
H1147 H 0.89359 0.47058 0.17394 0.0
H1148 H 0.88297 0.52247 0.06195 0.0
H1149 H 0.89772 0.53007 0.01702 0.0
H1150 H 0.89785 0.53853 0.0784 0.0
H1151 H 0.92926 0.53085 0.08702 0.0
H1152 H 0.92923 0.52232 0.02576 0.0
H1153 H 0.93585 0.50951 0.07675 0.0
H1154 H 0.89572 0.45812 0.08903 0.0
H1155 H 0.89838 0.45153 1.00066 0.0
H1156 H 0.90995 0.50361 0.96982 0.0
C1157 C 0.90701 0.51764 0.16755 0.0
C1158 C 0.90327 0.51023 0.2134 0.0
C1159 C 0.89815 0.49328 0.21543 0.0
C1160 C 0.89724 0.48363 0.17233 0.0
C1161 C 0.90114 0.49129 0.12764 0.0
C1162 C 0.90564 0.50799 0.12488 0.0
C1163 C 0.90867 0.51336 0.07222 0.0
C1164 C 0.89605 0.52691 0.05648 0.0
C1165 C 0.92683 0.51936 0.06504 0.0
C1166 C 0.90551 0.49699 0.0457 0.0
C1167 C 0.90135 0.48438 0.07844 0.0
C1168 C 0.89874 0.46794 0.06303 0.0
C1169 C 0.90036 0.46431 0.01288 0.0
C1170 C 0.90425 0.4771 0.97864 0.0
C1171 C 0.90674 0.49366 0.99525 0.0
H1172 H 0.27213 0.34832 0.74376 0.0
H1173 H 0.23117 0.32909 0.65516 0.0
H1174 H 0.21481 0.32365 0.73042 0.0
H1175 H 0.26778 0.31946 0.8453 0.0
H1176 H 0.27238 0.33496 0.89159 0.0
H1177 H 0.2812 0.33697 0.83093 0.0
H1178 H 0.26835 0.36669 0.8229 0.0
H1179 H 0.25958 0.3648 0.88362 0.0
H1180 H 0.24616 0.36951 0.83216 0.0
H1181 H 0.20299 0.3202 0.81395 0.0
H1182 H 0.19534 0.3206 0.90143 0.0
H1183 H 0.24353 0.34282 0.93717 0.0
C1184 C 0.25973 0.34293 0.7403 0.0
C1185 C 0.2529 0.33906 0.69374 0.0
C1186 C 0.2366 0.33216 0.69051 0.0
C1187 C 0.22725 0.32897 0.73301 0.0
C1188 C 0.23436 0.33285 0.77834 0.0
C1189 C 0.25014 0.33981 0.78238 0.0
C1190 C 0.25454 0.34333 0.83562 0.0
C1191 C 0.26988 0.33306 0.8518 0.0
C1192 C 0.25731 0.3622 0.84406 0.0
C1193 C 0.23872 0.33726 0.86081 0.0
C1194 C 0.22734 0.33115 0.82695 0.0
C1195 C 0.21177 0.32495 0.84086 0.0
C1196 C 0.20757 0.32523 0.8907 0.0
C1197 C 0.21885 0.33175 0.92611 0.0
C1198 C 0.2347 0.3377 0.91095 0.0
H1199 H 0.40643 0.53429 0.47541 0.0
H1200 H 0.42205 0.491 0.39034 0.0
H1201 H 0.4252 0.47465 0.46695 0.0
H1202 H 0.43349 0.52734 0.58136 0.0
H1203 H 0.41783 0.53392 0.62501 0.0
H1204 H 0.41793 0.54261 0.56388 0.0
H1205 H 0.38712 0.53323 0.55168 0.0
H1206 H 0.38691 0.52455 0.61273 0.0
H1207 H 0.38161 0.51153 0.56087 0.0
H1208 H 0.42607 0.46294 0.55166 0.0
H1209 H 0.42287 0.45575 0.63907 0.0
H1210 H 0.40553 0.5063 0.66966 0.0
C1211 C 0.41069 0.52142 0.47303 0.0
C1212 C 0.41413 0.51389 0.42714 0.0
C1213 C 0.41939 0.49697 0.42524 0.0
C1214 C 0.42128 0.48763 0.4685 0.0
C1215 C 0.41772 0.49539 0.51317 0.0
C1216 C 0.41242 0.51186 0.51579 0.0
C1217 C 0.40847 0.51687 0.56826 0.0
C1218 C 0.42013 0.53103 0.58564 0.0
C1219 C 0.38993 0.52183 0.57368 0.0
C1220 C 0.41224 0.50059 0.59468 0.0
C1221 C 0.41775 0.48846 0.56218 0.0
C1222 C 0.4218 0.47233 0.57749 0.0
C1223 C 0.41995 0.46839 0.62727 0.0
C1224 C 0.41395 0.48048 0.66115 0.0
C1225 C 0.4102 0.49684 0.64463 0.0
H1226 H 0.263 0.67512 0.42372 0.0
H1227 H 0.2551 0.62339 0.46715 0.0
H1228 H 0.24282 0.61732 0.38556 0.0
H1229 H 0.22404 0.67891 0.35166 0.0
H1230 H 0.23376 0.69231 0.30657 0.0
H1231 H 0.241 0.69259 0.36927 0.0
H1232 H 0.27113 0.68612 0.33914 0.0
H1233 H 0.26395 0.68554 0.27647 0.0
H1234 H 0.27484 0.66777 0.30203 0.0
H1235 H 0.23424 0.61635 0.29646 0.0
H1236 H 0.22617 0.62142 0.20996 0.0
H1237 H 0.23816 0.67416 0.22688 0.0
C1238 C 0.2584 0.66259 0.41629 0.0
C1239 C 0.25995 0.6497 0.45148 0.0
C1240 C 0.25386 0.63345 0.44067 0.0
C1241 C 0.24698 0.62988 0.3944 0.0
C1242 C 0.24605 0.64278 0.35995 0.0
C1243 C 0.25125 0.6589 0.37073 0.0
C1244 C 0.24887 0.67051 0.32732 0.0
C1245 C 0.23616 0.6844 0.33943 0.0
C1246 C 0.2657 0.67791 0.31025 0.0
C1247 C 0.24191 0.65832 0.28999 0.0
C1248 C 0.24049 0.64236 0.30937 0.0
C1249 C 0.23507 0.62884 0.2811 0.0
C1250 C 0.23065 0.63181 0.23198 0.0
C1251 C 0.23152 0.64817 0.21202 0.0
C1252 C 0.23729 0.66155 0.2414 0.0
H1253 H 0.08896 0.49729 0.18903 0.0
H1254 H 0.07292 0.54832 0.15933 0.0
H1255 H 0.07197 0.54212 0.07084 0.0
H1256 H 0.1154 0.49271 0.0864 0.0
H1257 H 0.10985 0.47123 0.07369 0.0
H1258 H 0.10838 0.47921 0.13542 0.0
H1259 H 0.07714 0.47045 0.13941 0.0
H1260 H 0.07856 0.46228 0.07783 0.0
H1261 H 0.06286 0.47771 0.09269 0.0
H1262 H 0.07557 0.53149 0.98551 0.0
H1263 H 0.08035 0.51583 0.90833 0.0
H1264 H 0.09222 0.4712 0.99258 0.0
C1265 C 0.08498 0.50704 0.16391 0.0
C1266 C 0.08102 0.52328 0.18104 0.0
C1267 C 0.07594 0.53576 0.14708 0.0
C1268 C 0.07541 0.53239 0.09669 0.0
C1269 C 0.07975 0.5164 0.08083 0.0
C1270 C 0.08414 0.50382 0.11334 0.0
C1271 C 0.08835 0.48776 0.08628 0.0
C1272 C 0.10658 0.48242 0.09604 0.0
C1273 C 0.07599 0.47372 0.09986 0.0
C1274 C 0.08597 0.49343 0.0336 0.0
C1275 C 0.08112 0.51004 0.03132 0.0
C1276 C 0.07909 0.51839 0.98673 0.0
C1277 C 0.08192 0.50946 0.94318 0.0
C1278 C 0.08648 0.49234 0.94472 0.0
C1279 C 0.08849 0.48424 0.9905 0.0
H1280 H 0.22667 0.2107 0.07029 0.0
H1281 H 0.17507 0.19429 0.08453 0.0
H1282 H 0.16616 0.22382 0.09627 0.0
H1283 H 0.22473 0.24393 0.16129 0.0
H1284 H 0.23838 0.25749 0.12659 0.0
H1285 H 0.2405 0.23507 0.12158 0.0
H1286 H 0.23687 0.23711 0.02705 0.0
H1287 H 0.23478 0.25951 0.03177 0.0
H1288 H 0.21861 0.24738 0.00222 0.0
H1289 H 0.16299 0.25582 0.10121 0.0
H1290 H 0.16606 0.28681 0.10003 0.0
H1291 H 0.21989 0.28112 0.08503 0.0
C1292 C 0.21349 0.21327 0.07622 0.0
C1293 C 0.20155 0.20025 0.07644 0.0
C1294 C 0.18443 0.20413 0.08432 0.0
C1295 C 0.17927 0.22084 0.09104 0.0
C1296 C 0.19141 0.23343 0.09024 0.0
C1297 C 0.20818 0.22976 0.0833 0.0
C1298 C 0.2188 0.24543 0.08268 0.0
C1299 C 0.23134 0.24548 0.1256 0.0
C1300 C 0.22778 0.24747 0.03298 0.0
C1301 C 0.20539 0.25857 0.0896 0.0
C1302 C 0.18965 0.25152 0.09399 0.0
C1303 C 0.1753 0.26145 0.09835 0.0
C1304 C 0.17714 0.27901 0.09769 0.0
C1305 C 0.19321 0.28636 0.0928 0.0
C1306 C 0.20744 0.27592 0.08938 0.0
H1307 H 0.03216 0.93715 0.33724 0.0
H1308 H 0.0418 0.98735 0.39211 0.0
H1309 H 0.01148 0.99216 0.40058 0.0
H1310 H 0.99744 0.9477 0.26487 0.0
H1311 H 0.98565 0.9289 0.27724 0.0
H1312 H 0.00817 0.92852 0.28038 0.0
H1313 H 0.00667 0.91731 0.36962 0.0
H1314 H 0.9841 0.9176 0.36671 0.0
H1315 H 0.99483 0.92872 0.41503 0.0
H1316 H 0.98067 0.99284 0.39526 0.0
H1317 H 0.95058 0.98904 0.37823 0.0
H1318 H 0.96014 0.93824 0.3285 0.0
C1319 C 0.02786 0.94901 0.35194 0.0
C1320 C 0.03931 0.96187 0.36417 0.0
C1321 C 0.03325 0.97733 0.38257 0.0
C1322 C 0.01605 0.98017 0.38767 0.0
C1323 C 0.00506 0.9674 0.37448 0.0
C1324 C 0.01065 0.95208 0.35728 0.0
C1325 C 0.99605 0.94092 0.3429 0.0
C1326 C 0.99688 0.93625 0.2881 0.0
C1327 C 0.99538 0.92521 0.37552 0.0
C1328 C 0.98146 0.95256 0.35348 0.0
C1329 C 0.98701 0.96772 0.37198 0.0
C1330 C 0.97611 0.98094 0.38155 0.0
C1331 C 0.95907 0.97869 0.37157 0.0
C1332 C 0.95308 0.96332 0.35244 0.0
C1333 C 0.96439 0.95001 0.34395 0.0
H1334 H 0.27437 0.78547 0.57559 0.0
H1335 H 0.32754 0.7966 0.58296 0.0
H1336 H 0.33378 0.76627 0.58778 0.0
H1337 H 0.27486 0.75038 0.65986 0.0
H1338 H 0.25945 0.73868 0.62565 0.0
H1339 H 0.25925 0.76126 0.62412 0.0
H1340 H 0.26099 0.76059 0.52901 0.0
H1341 H 0.2612 0.73802 0.53025 0.0
H1342 H 0.27781 0.74926 0.49977 0.0
H1343 H 0.33414 0.73452 0.58943 0.0
H1344 H 0.32851 0.70398 0.58801 0.0
H1345 H 0.27513 0.71406 0.58002 0.0
C1346 C 0.28732 0.78154 0.57848 0.0
C1347 C 0.30047 0.79335 0.57897 0.0
C1348 C 0.31727 0.78773 0.5826 0.0
C1349 C 0.32093 0.77054 0.58537 0.0
C1350 C 0.30766 0.75919 0.58458 0.0
C1351 C 0.29119 0.76447 0.58131 0.0
C1352 C 0.27922 0.74978 0.58028 0.0
C1353 C 0.26751 0.75005 0.62516 0.0
C1354 C 0.26922 0.7494 0.53195 0.0
C1355 C 0.29152 0.73539 0.58313 0.0
C1356 C 0.30787 0.74103 0.58569 0.0
C1357 C 0.32139 0.72996 0.58767 0.0
C1358 C 0.31808 0.71266 0.58683 0.0
C1359 C 0.3014 0.70668 0.58404 0.0
C1360 C 0.28802 0.71825 0.58241 0.0
H1361 H 0.4671 0.0254 0.83091 0.0
H1362 H 0.457 0.07493 0.88978 0.0
H1363 H 0.4875 0.08023 0.89608 0.0
H1364 H 0.50358 0.01645 0.90581 0.0
H1365 H 0.51431 0.00562 0.85694 0.0
H1366 H 0.49175 0.00567 0.85905 0.0
H1367 H 0.4908 0.01781 0.77072 0.0
H1368 H 0.51334 0.01786 0.76841 0.0
H1369 H 0.50188 0.03696 0.75721 0.0
H1370 H 0.51942 0.08031 0.89296 0.0
H1371 H 0.54979 0.07492 0.88179 0.0
H1372 H 0.53835 0.02537 0.82511 0.0
C1373 C 0.47128 0.03731 0.84554 0.0
C1374 C 0.4597 0.04974 0.85999 0.0
C1375 C 0.46568 0.06521 0.87864 0.0
C1376 C 0.48297 0.06833 0.88232 0.0
C1377 C 0.49407 0.05584 0.86727 0.0
C1378 C 0.48843 0.04062 0.84942 0.0
C1379 C 0.50284 0.02939 0.83469 0.0
C1380 C 0.50313 0.01334 0.866 0.0
C1381 C 0.50217 0.02527 0.77948 0.0
C1382 C 0.51749 0.04069 0.84669 0.0
C1383 C 0.51225 0.05589 0.86552 0.0
C1384 C 0.52366 0.06841 0.87846 0.0
C1385 C 0.54086 0.06526 0.87195 0.0
C1386 C 0.54641 0.04974 0.85269 0.0
C1387 C 0.53451 0.03736 0.84008 0.0
H1388 H 0.22587 0.78654 0.06868 0.0
H1389 H 0.17536 0.79709 0.01837 0.0
H1390 H 0.16965 0.76663 0.01323 0.0
H1391 H 0.2329 0.74982 0.9927 0.0
H1392 H 0.24459 0.73906 0.03978 0.0
H1393 H 0.24475 0.76162 0.03727 0.0
H1394 H 0.23446 0.76287 0.12757 0.0
H1395 H 0.23421 0.74032 0.13029 0.0
H1396 H 0.21551 0.75202 0.1446 0.0
H1397 H 0.16929 0.73477 0.01699 0.0
H1398 H 0.17452 0.70435 0.02799 0.0
H1399 H 0.22525 0.71529 0.07564 0.0
C1400 C 0.21365 0.78246 0.05613 0.0
C1401 C 0.20106 0.79414 0.0438 0.0
C1402 C 0.1852 0.78831 0.02784 0.0
C1403 C 0.18185 0.77105 0.02484 0.0
C1404 C 0.19451 0.75985 0.03781 0.0
C1405 C 0.21011 0.76534 0.05294 0.0
C1406 C 0.22146 0.75084 0.06595 0.0
C1407 C 0.23683 0.75031 0.03188 0.0
C1408 C 0.22671 0.75156 0.12033 0.0
C1409 C 0.20979 0.73629 0.05621 0.0
C1410 C 0.1943 0.74168 0.03991 0.0
C1411 C 0.1814 0.73041 0.02949 0.0
C1412 C 0.18446 0.71319 0.03589 0.0
C1413 C 0.20028 0.70749 0.05257 0.0
C1414 C 0.21304 0.71925 0.06267 0.0
H1415 H 0.4627 0.94353 0.3113 0.0
H1416 H 0.45399 0.99578 0.27482 0.0
H1417 H 0.48411 0.99946 0.25787 0.0
H1418 H 0.49984 0.95019 0.37597 0.0
H1419 H 0.51021 0.93135 0.35565 0.0
H1420 H 0.4877 0.93208 0.35845 0.0
H1421 H 0.486 0.92369 0.2666 0.0
H1422 H 0.50856 0.92294 0.26351 0.0
H1423 H 0.49701 0.936 0.22137 0.0
H1424 H 0.51499 0.99842 0.25284 0.0
H1425 H 0.5452 0.99295 0.26228 0.0
H1426 H 0.53449 0.94139 0.3025 0.0
C1427 C 0.46712 0.95563 0.29871 0.0
C1428 C 0.45605 0.96936 0.29405 0.0
C1429 C 0.46229 0.9851 0.27854 0.0
C1430 C 0.47935 0.98729 0.26856 0.0
C1431 C 0.49 0.97361 0.27427 0.0
C1432 C 0.48419 0.95807 0.28897 0.0
C1433 C 0.49856 0.94588 0.29642 0.0
C1434 C 0.4991 0.93951 0.34979 0.0
C1435 C 0.49746 0.93126 0.25978 0.0
C1436 C 0.51334 0.95716 0.28505 0.0
C1437 C 0.50806 0.97303 0.27167 0.0
C1438 C 0.51931 0.986 0.26257 0.0
C1439 C 0.53643 0.98277 0.26815 0.0
C1440 C 0.54214 0.96673 0.28282 0.0
C1441 C 0.53046 0.95368 0.2904 0.0
H1442 H 0.27918 0.21516 0.565 0.0
H1443 H 0.32935 0.20918 0.50621 0.0
H1444 H 0.3324 0.24008 0.50214 0.0
H1445 H 0.2673 0.25086 0.49325 0.0
H1446 H 0.25579 0.26053 0.54268 0.0
H1447 H 0.2577 0.23806 0.54003 0.0
H1448 H 0.27022 0.23786 0.62797 0.0
H1449 H 0.26837 0.26034 0.63087 0.0
H1450 H 0.28839 0.2505 0.64123 0.0
H1451 H 0.32969 0.272 0.50525 0.0
H1452 H 0.3215 0.30181 0.51566 0.0
H1453 H 0.27332 0.28596 0.57317 0.0
C1454 C 0.29079 0.22032 0.55099 0.0
C1455 C 0.30401 0.20982 0.53569 0.0
C1456 C 0.31906 0.21705 0.51803 0.0
C1457 C 0.32089 0.23456 0.5156 0.0
C1458 C 0.30759 0.24458 0.5312 0.0
C1459 C 0.29285 0.23767 0.54863 0.0
C1460 C 0.2805 0.25102 0.56398 0.0
C1461 C 0.26437 0.25006 0.53313 0.0
C1462 C 0.27665 0.24986 0.61929 0.0
C1463 C 0.2905 0.26658 0.55211 0.0
C1464 C 0.3061 0.26269 0.53331 0.0
C1465 C 0.31749 0.27517 0.51992 0.0
C1466 C 0.31275 0.29203 0.52594 0.0
C1467 C 0.29679 0.29616 0.54513 0.0
C1468 C 0.28561 0.28322 0.5583 0.0
H1469 H 0.96295 0.02301 0.79338 0.0
H1470 H 0.95302 0.07639 0.78409 0.0
H1471 H 0.98362 0.0819 0.78121 0.0
H1472 H 0.99725 0.02584 0.87331 0.0
H1473 H 0.00861 0.00875 0.84562 0.0
H1474 H 0.98609 0.0092 0.84264 0.0
H1475 H 0.9874 0.00705 0.74764 0.0
H1476 H 0.00995 0.00657 0.75032 0.0
H1477 H -0.0005 0.02216 0.71342 0.0
H1478 H 0.01581 0.08125 0.78363 0.0
H1479 H 0.04601 0.07456 0.79327 0.0
H1480 H 0.03377 0.02167 0.80229 0.0
C1481 C 0.96716 0.03588 0.79008 0.0
C1482 C 0.95563 0.04928 0.78871 0.0
C1483 C 0.96167 0.06593 0.78495 0.0
C1484 C 0.97901 0.06916 0.78325 0.0
C1485 C 0.99005 0.05559 0.78527 0.0
C1486 C 0.98429 0.03929 0.78856 0.0
C1487 C 0.99852 0.02689 0.7928 0.0
C1488 C 0.99756 0.01711 0.84149 0.0
C1489 C 0.99886 0.01497 0.74839 0.0
C1490 C 0.01328 0.03873 0.79215 0.0
C1491 C 0.00825 0.05524 0.78731 0.0
C1492 C 0.01985 0.06835 0.78713 0.0
C1493 C 0.03696 0.06445 0.79256 0.0
C1494 C 0.0422 0.04761 0.79852 0.0
C1495 C 0.03016 0.03467 0.79774 0.0
H1496 H 0.78084 0.71378 0.08931 0.0
H1497 H 0.82535 0.70388 0.00261 0.0
H1498 H 0.82968 0.73452 0.99225 0.0
H1499 H 0.76577 0.74806 0.02057 0.0
H1500 H 0.75832 0.75948 0.07339 0.0
H1501 H 0.75931 0.73694 0.07506 0.0
H1502 H 0.77785 0.73828 0.15321 0.0
H1503 H 0.77685 0.76083 0.15194 0.0
H1504 H 0.7969 0.75043 0.15229 0.0
H1505 H 0.82792 0.76665 0.98847 0.0
H1506 H 0.82105 0.79693 0.9949 0.0
H1507 H 0.7781 0.7847 0.08578 0.0
C1508 C 0.79157 0.71803 0.06834 0.0
C1509 C 0.80275 0.70652 0.04659 0.0
C1510 C 0.81667 0.71255 0.01964 0.0
C1511 C 0.81919 0.7299 0.01352 0.0
C1512 C 0.80776 0.74093 0.03506 0.0
C1513 C 0.79432 0.73516 0.0623 0.0
C1514 C 0.78372 0.74939 0.08159 0.0
C1515 C 0.76572 0.7484 0.06142 0.0
C1516 C 0.78385 0.74975 0.13811 0.0
C1517 C 0.79309 0.76414 0.06036 0.0
C1518 C 0.80693 0.75911 0.0336 0.0
C1519 C 0.81719 0.7707 0.00965 0.0
C1520 C 0.81318 0.78784 0.01338 0.0
C1521 C 0.79909 0.79313 0.04094 0.0
C1522 C 0.78901 0.78106 0.06465 0.0
H1523 H 0.6884 0.21342 0.57164 0.0
H1524 H 0.72784 0.20437 0.46511 0.0
H1525 H 0.73024 0.23468 0.45012 0.0
H1526 H 0.66956 0.2507 0.50799 0.0
H1527 H 0.66554 0.26139 0.56514 0.0
H1528 H 0.66512 0.2388 0.56279 0.0
H1529 H 0.68715 0.2376 0.63259 0.0
H1530 H 0.68776 0.26014 0.63487 0.0
H1531 H 0.70681 0.24845 0.62515 0.0
H1532 H 0.73118 0.26542 0.45388 0.0
H1533 H 0.7296 0.29553 0.47343 0.0
H1534 H 0.68932 0.28568 0.57665 0.0
C1535 C 0.69715 0.21786 0.54415 0.0
C1536 C 0.70787 0.20659 0.51928 0.0
C1537 C 0.7195 0.21281 0.48448 0.0
C1538 C 0.72093 0.23 0.47559 0.0
C1539 C 0.71061 0.24085 0.50172 0.0
C1540 C 0.69883 0.23511 0.53498 0.0
C1541 C 0.6903 0.24968 0.56078 0.0
C1542 C 0.67151 0.25017 0.54842 0.0
C1543 C 0.69318 0.24892 0.61665 0.0
C1544 C 0.69951 0.26438 0.53782 0.0
C1545 C 0.71108 0.25893 0.50361 0.0
C1546 C 0.72196 0.26991 0.47991 0.0
C1547 C 0.72104 0.28697 0.49147 0.0
C1548 C 0.70928 0.2929 0.52625 0.0
C1549 C 0.69824 0.28148 0.54933 0.0
H1550 H 0.77169 0.28455 0.06491 0.0
H1551 H 0.82087 0.29602 0.12394 0.0
H1552 H 0.82647 0.26565 0.13398 0.0
H1553 H 0.76297 0.24879 0.14388 0.0
H1554 H 0.75237 0.23743 0.09578 0.0
H1555 H 0.75212 0.26002 0.09598 0.0
H1556 H 0.76439 0.26028 0.00775 0.0
H1557 H 0.76471 0.23772 0.00733 0.0
H1558 H 0.78369 0.2493 0.99545 0.0
H1559 H 0.82706 0.23359 0.13283 0.0
H1560 H 0.8223 0.20307 0.12186 0.0
H1561 H 0.77262 0.21346 0.06465 0.0
C1562 C 0.78358 0.28071 0.08042 0.0
C1563 C 0.79584 0.29261 0.09371 0.0
C1564 C 0.81128 0.28707 0.11367 0.0
C1565 C 0.81456 0.26987 0.11949 0.0
C1566 C 0.80224 0.25843 0.10544 0.0
C1567 C 0.78702 0.26368 0.08658 0.0
C1568 C 0.77601 0.249 0.07289 0.0
C1569 C 0.75992 0.2488 0.104 0.0
C1570 C 0.77197 0.24908 0.01758 0.0
C1571 C 0.78746 0.23463 0.08629 0.0
C1572 C 0.80253 0.24023 0.10516 0.0
C1573 C 0.81524 0.22908 0.11849 0.0
C1574 C 0.81245 0.2118 0.11212 0.0
C1575 C 0.79709 0.20591 0.09262 0.0
C1576 C 0.78447 0.21754 0.07999 0.0
H1577 H 0.68953 0.70992 0.57261 0.0
H1578 H 0.73688 0.7019 0.64735 0.0
H1579 H 0.73929 0.73219 0.6628 0.0
H1580 H 0.70163 0.74546 0.51009 0.0
H1581 H 0.68203 0.75658 0.51463 0.0
H1582 H 0.68226 0.73404 0.51662 0.0
H1583 H 0.66669 0.73453 0.60012 0.0
H1584 H 0.66629 0.75713 0.59821 0.0
H1585 H 0.67523 0.74649 0.65043 0.0
H1586 H 0.7391 0.76295 0.65899 0.0
H1587 H 0.73556 0.79292 0.63937 0.0
H1588 H 0.68807 0.78202 0.56876 0.0
C1589 C 0.70008 0.71454 0.59367 0.0
C1590 C 0.71297 0.7036 0.60913 0.0
C1591 C 0.72685 0.71009 0.63532 0.0
C1592 C 0.72831 0.72727 0.64444 0.0
C1593 C 0.71574 0.73784 0.6273 0.0
C1594 C 0.70178 0.73179 0.6029 0.0
C1595 C 0.69096 0.74613 0.58437 0.0
C1596 C 0.68912 0.74551 0.5281 0.0
C1597 C 0.67377 0.74606 0.60981 0.0
C1598 C 0.70138 0.76107 0.60052 0.0
C1599 C 0.71553 0.75594 0.62564 0.0
C1600 C 0.72789 0.76719 0.64038 0.0
C1601 C 0.72583 0.78416 0.62885 0.0
C1602 C 0.71147 0.78973 0.60312 0.0
C1603 C 0.69896 0.77809 0.58949 0.0
H1604 H 0.5316 0.47353 0.84484 0.0
H1605 H 0.53988 0.42028 0.86629 0.0
H1606 H 0.5092 0.41575 0.87052 0.0
H1607 H 0.49502 0.47726 0.92549 0.0
H1608 H 0.48492 0.49222 0.88561 0.0
H1609 H 0.50746 0.49124 0.88834 0.0
H1610 H 0.50863 0.48688 0.79397 0.0
H1611 H 0.48614 0.48782 0.79097 0.0
H1612 H 0.49705 0.46985 0.76669 0.0
H1613 H 0.47735 0.41699 0.86539 0.0
H1614 H 0.44738 0.42401 0.85259 0.0
H1615 H 0.46071 0.47646 0.83621 0.0
C1616 C 0.52698 0.46094 0.85113 0.0
C1617 C 0.53807 0.44725 0.85532 0.0
C1618 C 0.53156 0.43095 0.86318 0.0
C1619 C 0.51417 0.42827 0.86566 0.0
C1620 C 0.50355 0.44205 0.86065 0.0
C1621 C 0.50976 0.45808 0.85388 0.0
C1622 C 0.49582 0.47069 0.84724 0.0
C1623 C 0.49581 0.48361 0.88918 0.0
C1624 C 0.49699 0.47931 0.79672 0.0
C1625 C 0.48078 0.45924 0.85027 0.0
C1626 C 0.48541 0.44277 0.85826 0.0
C1627 C 0.47358 0.42988 0.85976 0.0
C1628 C 0.45662 0.43397 0.85244 0.0
C1629 C 0.45174 0.45077 0.84372 0.0
C1630 C 0.46401 0.46351 0.84332 0.0
H1631 H 0.9645 0.52401 0.36603 0.0
H1632 H 0.95368 0.57687 0.38591 0.0
H1633 H 0.98404 0.58266 0.39432 0.0
H1634 H 0.00064 0.52197 0.45106 0.0
H1635 H 0.01165 0.50742 0.41201 0.0
H1636 H 0.98907 0.50739 0.41349 0.0
H1637 H 0.98835 0.51147 0.31898 0.0
H1638 H 0.01086 0.51158 0.31723 0.0
H1639 H 0.99929 0.52898 0.29203 0.0
H1640 H 0.01592 0.58287 0.39064 0.0
H1641 H 0.04616 0.57731 0.37732 0.0
H1642 H 0.03537 0.52426 0.36192 0.0
C1643 C 0.96848 0.53676 0.37316 0.0
C1644 C 0.95679 0.54999 0.37543 0.0
C1645 C 0.96247 0.56653 0.38436 0.0
C1646 C 0.97967 0.56993 0.38919 0.0
C1647 C 0.99094 0.55661 0.38561 0.0
C1648 C 0.98551 0.54033 0.37832 0.0
C1649 C 4e-05 0.52835 0.37265 0.0
C1650 C 0.00037 0.51553 0.41483 0.0
C1651 C -0.0004 0.51959 0.32223 0.0
C1652 C 0.01453 0.54048 0.37634 0.0
C1653 C 0.00911 0.55672 0.3842 0.0
C1654 C 0.02031 0.57016 0.38535 0.0
C1655 C 0.03744 0.56691 0.37771 0.0
C1656 C 0.0431 0.55035 0.36895 0.0
C1657 C 0.03147 0.53703 0.36916 0.0
H1658 H 0.96387 0.44121 0.82882 0.0
H1659 H 0.95333 0.48909 0.75968 0.0
H1660 H 0.98314 0.49207 0.73786 0.0
H1661 H 0.0015 0.45404 0.8842 0.0
H1662 H 0.01234 0.43438 0.87651 0.0
H1663 H 0.98984 0.43471 0.88085 0.0
H1664 H 0.9877 0.41906 0.79766 0.0
H1665 H 0.01024 0.41874 0.79299 0.0
H1666 H 0.99786 0.42768 0.74416 0.0
H1667 H 0.01369 0.49122 0.72906 0.0
H1668 H 0.0441 0.48771 0.73887 0.0
H1669 H 0.03599 0.44077 0.81603 0.0
C1670 C 0.96787 0.45213 0.80825 0.0
C1671 C 0.95636 0.46488 0.7955 0.0
C1672 C 0.96199 0.4792 0.76969 0.0
C1673 C 0.97886 0.48094 0.75684 0.0
C1674 C 0.98996 0.4683 0.77036 0.0
C1675 C 0.9848 0.45421 0.79579 0.0
C1676 C -0.00031 0.44339 0.81006 0.0
C1677 C 0.00091 0.44153 0.86623 0.0
C1678 C 0.99882 0.4262 0.78469 0.0
C1679 C 0.014 0.45385 0.7898 0.0
C1680 C 0.00798 0.46799 0.76627 0.0
C1681 C 0.01859 0.48013 0.7469 0.0
C1682 C 0.03585 0.47803 0.75278 0.0
C1683 C 0.04237 0.46395 0.77805 0.0
C1684 C 0.03132 0.45149 0.79582 0.0
H1685 H 0.46505 0.52594 0.28547 0.0
H1686 H 0.45604 0.57937 0.2717 0.0
H1687 H 0.48676 0.5844 0.27175 0.0
H1688 H 0.49803 0.52891 0.36927 0.0
H1689 H 0.50958 0.51144 0.34437 0.0
H1690 H 0.48715 0.51216 0.33826 0.0
H1691 H 0.48988 0.50924 0.2437 0.0
H1692 H 0.51235 0.50843 0.24951 0.0
H1693 H 0.50276 0.52387 0.21016 0.0
H1694 H 0.51885 0.58327 0.27796 0.0
H1695 H 0.54879 0.5762 0.2913 0.0
H1696 H 0.53561 0.5236 0.30317 0.0
C1697 C 0.46948 0.53871 0.28166 0.0
C1698 C 0.45819 0.55227 0.27827 0.0
C1699 C 0.46452 0.5688 0.27403 0.0
C1700 C 0.48192 0.57175 0.27402 0.0
C1701 C 0.49271 0.55803 0.27826 0.0
C1702 C 0.48665 0.54184 0.28191 0.0
C1703 C 0.5006 0.52927 0.28896 0.0
C1704 C 0.49872 0.51991 0.33813 0.0
C1705 C 0.50145 0.51698 0.24548 0.0
C1706 C 0.51553 0.54088 0.28951 0.0
C1707 C 0.51084 0.55742 0.28278 0.0
C1708 C 0.52262 0.57035 0.28299 0.0
C1709 C 0.53957 0.56623 0.29058 0.0
C1710 C 0.54447 0.54937 0.29835 0.0
C1711 C 0.53225 0.53661 0.2974 0.0
H1712 H 0.22654 0.1477 0.22829 0.0
H1713 H 0.2703 0.14068 0.13591 0.0
H1714 H 0.28815 0.13878 0.20983 0.0
H1715 H 0.24618 0.17407 0.31533 0.0
H1716 H 0.23515 0.16572 0.3677 0.0
H1717 H 0.2256 0.1651 0.30781 0.0
H1718 H 0.22177 0.13294 0.31564 0.0
H1719 H 0.23132 0.13347 0.37563 0.0
H1720 H 0.23971 0.11993 0.32864 0.0
H1721 H 0.30144 0.13907 0.29327 0.0
H1722 H 0.30937 0.14231 0.38045 0.0
H1723 H 0.25709 0.14961 0.4189 0.0
C1724 C 0.23984 0.14552 0.22369 0.0
C1725 C 0.24704 0.14423 0.17638 0.0
C1726 C 0.26452 0.14165 0.17181 0.0
C1727 C 0.27476 0.14051 0.21357 0.0
C1728 C 0.26731 0.14201 0.25968 0.0
C1729 C 0.25026 0.14447 0.26503 0.0
C1730 C 0.24558 0.14659 0.31866 0.0
C1731 C 0.23766 0.1639 0.3279 0.0
C1732 C 0.2339 0.13238 0.33564 0.0
C1733 C 0.26268 0.14519 0.34252 0.0
C1734 C 0.27502 0.14238 0.30786 0.0
C1735 C 0.29187 0.14114 0.32079 0.0
C1736 C 0.29626 0.143 0.3704 0.0
C1737 C 0.28386 0.14616 0.40647 0.0
C1738 C 0.26684 0.14708 0.39223 0.0
H1739 H 0.10643 0.99554 0.46611 0.0
H1740 H 0.10661 0.94282 0.50529 0.0
H1741 H 0.10895 0.95046 0.59306 0.0
H1742 H 0.13492 0.01047 0.56539 0.0
H1743 H 0.12298 0.02942 0.57411 0.0
H1744 H 0.12397 0.01978 0.51427 0.0
H1745 H 0.09153 0.01865 0.51141 0.0
H1746 H 0.09043 0.02813 0.57128 0.0
H1747 H 0.0803 0.00829 0.56023 0.0
H1748 H 0.10818 0.96379 0.67654 0.0
H1749 H 0.10426 0.98176 0.74952 0.0
H1750 H 0.10387 0.02584 0.65601 0.0
C1751 C 0.10749 0.9856 0.49306 0.0
C1752 C 0.10655 0.96858 0.47895 0.0
C1753 C 0.10746 0.95593 0.51535 0.0
C1754 C 0.10881 0.96015 0.56525 0.0
C1755 C 0.10921 0.97708 0.57809 0.0
C1756 C 0.10865 0.98961 0.54302 0.0
C1757 C 0.10768 0.00679 0.56665 0.0
C1758 C 0.12332 0.01723 0.55438 0.0
C1759 C 0.09153 0.016 0.55149 0.0
C1760 C 0.10734 0.00195 0.62045 0.0
C1761 C 0.10845 0.98477 0.62628 0.0
C1762 C 0.10752 0.97727 0.67245 0.0
C1763 C 0.10525 0.98758 0.71368 0.0
C1764 C 0.10383 0.00519 0.70845 0.0
C1765 C 0.10509 0.01243 0.66121 0.0
H1766 H 0.25205 0.84581 0.93521 0.0
H1767 H 0.20529 0.87137 0.90342 0.0
H1768 H 0.21452 0.87582 0.81773 0.0
H1769 H 0.27901 0.87161 0.85578 0.0
H1770 H 0.29159 0.85398 0.83694 0.0
H1771 H 0.28192 0.8541 0.89677 0.0
H1772 H 0.2675 0.82575 0.87731 0.0
H1773 H 0.27708 0.82557 0.81746 0.0
H1774 H 0.25464 0.82393 0.82311 0.0
H1775 H 0.22798 0.87574 0.73412 0.0
H1776 H 0.24462 0.87107 0.65877 0.0
H1777 H 0.28264 0.84552 0.74472 0.0
C1778 C 0.24388 0.8526 0.91044 0.0
C1779 C 0.22798 0.85835 0.92606 0.0
C1780 C 0.21754 0.86693 0.89231 0.0
C1781 C 0.22269 0.86953 0.84358 0.0
C1782 C 0.23833 0.86349 0.82913 0.0
C1783 C 0.2488 0.85524 0.86159 0.0
C1784 C 0.26458 0.8492 0.83606 0.0
C1785 C 0.2802 0.85774 0.85768 0.0
C1786 C 0.26602 0.82997 0.83864 0.0
C1787 C 0.26123 0.85509 0.78403 0.0
C1788 C 0.24607 0.86341 0.78089 0.0
C1789 C 0.23994 0.86939 0.73624 0.0
C1790 C 0.24948 0.86667 0.69362 0.0
C1791 C 0.26496 0.85803 0.69588 0.0
C1792 C 0.27095 0.85235 0.74188 0.0
H1793 H 0.40574 0.99937 0.96642 0.0
H1794 H 0.37832 0.04545 0.99315 0.0
H1795 H 0.37108 0.03547 0.07645 0.0
H1796 H 0.37794 0.97124 0.03744 0.0
H1797 H 0.39522 0.95898 0.06041 0.0
H1798 H 0.39667 0.96891 1.00105 0.0
H1799 H 0.42396 0.98393 0.02809 0.0
H1800 H 0.42261 0.97403 0.08734 0.0
H1801 H 0.42386 0.99655 0.08304 0.0
H1802 H 0.36904 0.0217 0.15913 0.0
H1803 H 0.37303 0.00554 0.2357 0.0
H1804 H 0.40166 0.96832 0.1553 0.0
C1805 C 0.39795 0.00722 0.98948 0.0
C1806 C 0.3925 0.02315 0.97325 0.0
C1807 C 0.38258 0.03318 0.0048 0.0
C1808 C 0.37835 0.02759 0.05209 0.0
C1809 C 0.3841 0.01191 0.06725 0.0
C1810 C 0.39367 0.00185 0.03687 0.0
C1811 C 0.39932 0.9861 0.0633 0.0
C1812 C 0.39184 0.97038 0.0391 0.0
C1813 C 0.41857 0.98511 0.06558 0.0
C1814 C 0.39181 0.98908 0.11369 0.0
C1815 C 0.38291 0.00394 0.11502 0.0
C1816 C 0.37576 0.00992 0.15835 0.0
C1817 C 0.37809 0.00065 0.20166 0.0
C1818 C 0.3875 0.9856 0.20136 0.0
C1819 C 0.39412 0.9796 0.1565 0.0
H1820 H 0.74383 0.85023 0.92609 0.0
H1821 H 0.79382 0.86813 0.89201 0.0
H1822 H 0.78542 0.87233 0.80545 0.0
H1823 H 0.7385 0.82674 0.81918 0.0
H1824 H 0.71651 0.83128 0.81184 0.0
H1825 H 0.7258 0.83166 0.87205 0.0
H1826 H 0.71537 0.86213 0.88462 0.0
H1827 H 0.706 0.86184 0.82436 0.0
H1828 H 0.72082 0.87801 0.84025 0.0
H1829 H 0.77239 0.87193 0.7211 0.0
H1830 H 0.75583 0.86686 0.64579 0.0
H1831 H 0.71428 0.84928 0.73477 0.0
C1832 C 0.75289 0.8554 0.90066 0.0
C1833 C 0.76945 0.85899 0.91588 0.0
C1834 C 0.78104 0.8654 0.88124 0.0
C1835 C 0.77637 0.86785 0.83201 0.0
C1836 C 0.76004 0.86388 0.81796 0.0
C1837 C 0.74845 0.85786 0.85134 0.0
C1838 C 0.73209 0.85339 0.82619 0.0
C1839 C 0.728 0.83466 0.8327 0.0
C1840 C 0.71772 0.86451 0.84498 0.0
C1841 C 0.73641 0.85746 0.77328 0.0
C1842 C 0.75254 0.86364 0.76935 0.0
C1843 C 0.75967 0.86733 0.72383 0.0
C1844 C 0.75017 0.8644 0.68124 0.0
C1845 C 0.73372 0.85783 0.6844 0.0
C1846 C 0.72672 0.85459 0.73117 0.0
H1847 H 0.89615 0.99695 0.67747 0.0
H1848 H 0.88369 0.04842 0.64118 0.0
H1849 H 0.8779 0.03993 0.5554 0.0
H1850 H 0.91819 0.9885 0.56929 0.0
H1851 H 0.91131 0.96704 0.56404 0.0
H1852 H 0.91247 0.97682 0.62349 0.0
H1853 H 0.88122 0.96969 0.63896 0.0
H1854 H 0.87996 0.9599 0.57938 0.0
H1855 H 0.86559 0.97646 0.59542 0.0
H1856 H 0.87565 0.02617 0.47218 0.0
H1857 H 0.87842 0.00861 0.39778 0.0
H1858 H 0.89277 0.96625 0.48854 0.0
C1859 C 0.89188 0.00638 0.65171 0.0
C1860 C 0.89022 0.02332 0.66601 0.0
C1861 C 0.88496 0.03535 0.63101 0.0
C1862 C 0.88158 0.03063 0.58228 0.0
C1863 C 0.88355 0.01384 0.56919 0.0
C1864 C 0.8886 0.0019 0.60292 0.0
C1865 C 0.8911 0.98498 0.57873 0.0
C1866 C 0.90935 0.979 0.58421 0.0
C1867 C 0.87872 0.97199 0.59935 0.0
C1868 C 0.88702 0.98932 0.52591 0.0
C1869 C 0.88247 0.00597 0.52122 0.0
C1870 C 0.879 0.01307 0.47551 0.0
C1871 C 0.88058 0.003 0.43345 0.0
C1872 C 0.8857 0.98604 0.43738 0.0
C1873 C 0.88861 0.9791 0.48438 0.0
H1874 H 0.77965 0.14421 0.23546 0.0
H1875 H 0.73555 0.14077 0.14279 0.0
H1876 H 0.71789 0.13676 0.21652 0.0
H1877 H 0.76606 0.11344 0.32898 0.0
H1878 H 0.77507 0.1254 0.37858 0.0
H1879 H 0.78436 0.12618 0.31826 0.0
H1880 H 0.78158 0.15857 0.31801 0.0
H1881 H 0.77231 0.15788 0.37819 0.0
H1882 H 0.76133 0.16796 0.32839 0.0
H1883 H 0.70478 0.13609 0.30086 0.0
H1884 H 0.69737 0.13875 0.3888 0.0
H1885 H 0.75014 0.14204 0.42583 0.0
C1886 C 0.76632 0.1423 0.2306 0.0
C1887 C 0.75897 0.14274 0.18341 0.0
C1888 C 0.74145 0.1404 0.17861 0.0
C1889 C 0.73133 0.13808 0.22026 0.0
C1890 C 0.73894 0.13799 0.26637 0.0
C1891 C 0.75606 0.13993 0.27171 0.0
C1892 C 0.76104 0.14045 0.32536 0.0
C1893 C 0.7723 0.12547 0.33856 0.0
C1894 C 0.76956 0.15721 0.33822 0.0
C1895 C 0.744 0.13896 0.34943 0.0
C1896 C 0.73141 0.13741 0.31485 0.0
C1897 C 0.71455 0.13702 0.32829 0.0
C1898 C 0.71046 0.13854 0.37829 0.0
C1899 C 0.72318 0.14042 0.41413 0.0
C1900 C 0.74015 0.1403 0.39938 0.0
H1901 H 0.60215 0.00406 0.20101 0.0
H1902 H 0.62242 0.95504 0.16618 0.0
H1903 H 0.62783 0.96432 0.08102 0.0
H1904 H 0.57982 0.00848 0.09284 0.0
H1905 H 0.58306 0.03072 0.08593 0.0
H1906 H 0.5835 0.0214 0.1461 0.0
H1907 H 0.61314 0.03361 0.16113 0.0
H1908 H 0.61276 0.04309 0.101 0.0
H1909 H 0.62968 0.02926 0.11783 0.0
H1910 H 0.62823 0.97771 0.99826 0.0
H1911 H 0.623 0.99398 0.92277 0.0
H1912 H 0.60142 0.03413 0.00986 0.0
C1913 C 0.60826 0.9955 0.17583 0.0
C1914 C 0.61216 0.97893 0.19023 0.0
C1915 C 0.61953 0.96784 0.1559 0.0
C1916 C 0.62267 0.97302 0.10753 0.0
C1917 C 0.61826 0.98929 0.09401 0.0
C1918 C 0.61122 0.00039 0.12712 0.0
C1919 C 0.60595 0.01651 0.10183 0.0
C1920 C 0.58696 0.01944 0.10698 0.0
C1921 C 0.61599 0.03151 0.12163 0.0
C1922 C 0.61073 0.01256 0.04918 0.0
C1923 C 0.61805 0.99689 0.04568 0.0
C1924 C 0.62272 0.99008 1.0006 0.0
C1925 C 0.61966 0.99941 0.9579 0.0
C1926 C 0.61187 0.01535 0.96044 0.0
C1927 C 0.60757 0.02207 0.00682 0.0
H1928 H 0.7871 0.65116 0.8805 0.0
H1929 H 0.74918 0.62487 0.96484 0.0
H1930 H 0.73343 0.61916 0.88841 0.0
H1931 H 0.75996 0.67133 0.79995 0.0
H1932 H 0.77324 0.66954 0.74663 0.0
H1933 H 0.78239 0.66995 0.80701 0.0
H1934 H 0.79732 0.6417 0.78965 0.0
H1935 H 0.78824 0.64123 0.72902 0.0
H1936 H 0.78515 0.62383 0.77034 0.0
H1937 H 0.72016 0.61948 0.80455 0.0
H1938 H 0.71103 0.62461 0.719 0.0
H1939 H 0.7582 0.64952 0.68857 0.0
C1940 C 0.77566 0.6439 0.88277 0.0
C1941 C 0.76938 0.63841 0.92857 0.0
C1942 C 0.75427 0.6291 0.9301 0.0
C1943 C 0.74525 0.6258 0.88688 0.0
C1944 C 0.75162 0.6317 0.8424 0.0
C1945 C 0.76658 0.64038 0.83997 0.0
C1946 C 0.77024 0.64613 0.78799 0.0
C1947 C 0.77153 0.66537 0.78527 0.0
C1948 C 0.78619 0.63772 0.76808 0.0
C1949 C 0.75476 0.63977 0.76176 0.0
C1950 C 0.74419 0.63143 0.79376 0.0
C1951 C 0.72849 0.62567 0.77894 0.0
C1952 C 0.7234 0.62866 0.73036 0.0
C1953 C 0.73403 0.63721 0.6971 0.0
C1954 C 0.75001 0.64256 0.71289 0.0
H1955 H 0.59741 0.52736 0.15245 0.0
H1956 H 0.61215 0.48528 0.24376 0.0
H1957 H 0.61546 0.46772 0.1695 0.0
H1958 H 0.57278 0.50405 0.06971 0.0
H1959 H 0.5785 0.51609 0.01622 0.0
H1960 H 0.57884 0.52572 0.076 0.0
H1961 H 0.60992 0.53408 0.06323 0.0
H1962 H 0.60967 0.52447 0.00332 0.0
H1963 H 0.62509 0.51816 0.04805 0.0
H1964 H 0.61545 0.45427 0.08553 0.0
H1965 H 0.61147 0.44583 0.99887 0.0
H1966 H 0.59644 0.49664 0.96262 0.0
C1967 C 0.60161 0.51453 0.15676 0.0
C1968 C 0.60464 0.5077 0.20387 0.0
C1969 C 0.60983 0.49078 0.20802 0.0
C1970 C 0.61178 0.48072 0.16604 0.0
C1971 C 0.60848 0.48778 0.12016 0.0
C1972 C 0.60351 0.5043 0.11528 0.0
C1973 C 0.59978 0.50856 0.06212 0.0
C1974 C 0.58139 0.51391 0.05566 0.0
C1975 C 0.61184 0.52212 0.04306 0.0
C1976 C 0.60317 0.49179 0.03792 0.0
C1977 C 0.60832 0.48 0.07194 0.0
C1978 C 0.61156 0.46344 0.05853 0.0
C1979 C 0.60928 0.45876 0.00921 0.0
C1980 C 0.60373 0.47058 0.97394 0.0
C1981 C 0.60086 0.48735 0.98859 0.0
H1982 H 0.74952 0.35561 0.43037 0.0
H1983 H 0.69731 0.36301 0.39155 0.0
H1984 H 0.70535 0.36613 0.3043 0.0
H1985 H 0.76773 0.38437 0.33732 0.0
H1986 H 0.78527 0.37066 0.32603 0.0
H1987 H 0.77565 0.37122 0.38594 0.0
H1988 H 0.77091 0.33911 0.38192 0.0
H1989 H 0.78041 0.33845 0.32202 0.0
H1990 H 0.75955 0.33032 0.33077 0.0
H1991 H 0.71867 0.36545 0.22082 0.0
H1992 H 0.73624 0.36117 0.14721 0.0
H1993 H 0.77985 0.35411 0.24017 0.0
C1994 C 0.73982 0.35832 0.40368 0.0
C1995 C 0.72279 0.35922 0.41775 0.0
C1996 C 0.71043 0.36239 0.3816 0.0
C1997 C 0.71489 0.3642 0.33199 0.0
C1998 C 0.73176 0.36284 0.31918 0.0
C1999 C 0.74405 0.36006 0.35401 0.0
C2000 C 0.76108 0.35779 0.33023 0.0
C2001 C 0.77314 0.37185 0.34581 0.0
C2002 C 0.76841 0.34038 0.34193 0.0
C2003 C 0.7564 0.35931 0.27648 0.0
C2004 C 0.73945 0.36238 0.27093 0.0
C2005 C 0.73199 0.36328 0.22472 0.0
C2006 C 0.74207 0.3608 0.18313 0.0
C2007 C 0.75942 0.35743 0.18797 0.0
C2008 C 0.76667 0.35692 0.2353 0.0
H2009 H 0.89892 0.46838 0.65497 0.0
H2010 H 0.8773 0.50832 0.74261 0.0
H2011 H 0.87298 0.52515 0.6673 0.0
H2012 H 0.92186 0.4941 0.57686 0.0
H2013 H 0.91882 0.48156 0.52249 0.0
H2014 H 0.91821 0.47186 0.58213 0.0
H2015 H 0.88864 0.46002 0.56352 0.0
H2016 H 0.88919 0.46962 0.5036 0.0
H2017 H 0.87214 0.4741 0.54499 0.0
H2018 H 0.87372 0.53874 0.5832 0.0
H2019 H 0.8792 0.54776 0.49767 0.0
H2020 H 0.90033 0.49886 0.46546 0.0
C2021 C 0.89289 0.48049 0.65822 0.0
C2022 C 0.88831 0.48698 0.70465 0.0
C2023 C 0.88079 0.50304 0.7074 0.0
C2024 C 0.87828 0.51269 0.6648 0.0
C2025 C 0.88331 0.50608 0.61969 0.0
C2026 C 0.89036 0.49029 0.61614 0.0
C2027 C 0.89579 0.48653 0.56394 0.0
C2028 C 0.9148 0.48333 0.56122 0.0
C2029 C 0.88584 0.47169 0.54277 0.0
C2030 C 0.89107 0.50281 0.53883 0.0
C2031 C 0.88375 0.51389 0.57146 0.0
C2032 C 0.87922 0.53007 0.55721 0.0
C2033 C 0.88239 0.5351 0.50858 0.0
C2034 C 0.89007 0.52399 0.47479 0.0
C2035 C 0.89423 0.50758 0.49019 0.0
H2036 H 0.24393 0.34193 0.19603 0.0
H2037 H 0.19471 0.36205 0.22931 0.0
H2038 H 0.2039 0.36832 0.31393 0.0
H2039 H 0.24932 0.32122 0.30912 0.0
H2040 H 0.27148 0.32526 0.31397 0.0
H2041 H 0.26175 0.32408 0.25443 0.0
H2042 H 0.27304 0.35367 0.23321 0.0
H2043 H 0.28284 0.35493 0.29277 0.0
H2044 H 0.26841 0.37102 0.27344 0.0
H2045 H 0.21762 0.37071 0.39588 0.0
H2046 H 0.23465 0.3681 0.47111 0.0
H2047 H 0.27491 0.34577 0.3861 0.0
C2048 C 0.23522 0.34796 0.22091 0.0
C2049 C 0.21866 0.35165 0.20609 0.0
C2050 C 0.20748 0.35918 0.23992 0.0
C2051 C 0.2126 0.36284 0.28798 0.0
C2052 C 0.22893 0.35883 0.30173 0.0
C2053 C 0.24009 0.35152 0.26931 0.0
C2054 C 0.25649 0.34732 0.29464 0.0
C2055 C 0.25995 0.32834 0.29294 0.0
C2056 C 0.27105 0.35734 0.27217 0.0
C2057 C 0.25269 0.35314 0.34649 0.0
C2058 C 0.23679 0.35993 0.34955 0.0
C2059 C 0.23015 0.36557 0.3939 0.0
C2060 C 0.23992 0.36402 0.43643 0.0
C2061 C 0.25612 0.3568 0.43443 0.0
C2062 C 0.26264 0.35151 0.38867 0.0
H2063 H 0.40228 0.50839 0.92614 0.0
H2064 H 0.37329 0.46361 0.95719 0.0
H2065 H 0.36849 0.47352 0.04186 0.0
H2066 H 0.42339 0.50923 0.03747 0.0
H2067 H 0.42362 0.53171 0.04436 0.0
H2068 H 0.42265 0.52257 0.98401 0.0
H2069 H 0.39559 0.53935 0.96535 0.0
H2070 H 0.39652 0.54864 0.02568 0.0
H2071 H 0.37791 0.53768 0.00629 0.0
H2072 H 0.36956 0.4863 0.12478 0.0
H2073 H 0.3764 0.50129 0.20141 0.0
H2074 H 0.40487 0.53793 0.1182 0.0
C2075 C 0.39451 0.50094 0.95041 0.0
C2076 C 0.388 0.48532 0.93508 0.0
C2077 C 0.37831 0.47566 0.96818 0.0
C2078 C 0.37547 0.48121 0.01628 0.0
C2079 C 0.38242 0.49644 0.03075 0.0
C2080 C 0.39169 0.50624 0.99884 0.0
C2081 C 0.39904 0.52132 0.02516 0.0
C2082 C 0.41831 0.52119 0.0226 0.0
C2083 C 0.39183 0.53772 0.00438 0.0
C2084 C 0.39287 0.51817 0.07705 0.0
C2085 C 0.38313 0.50385 0.07921 0.0
C2086 C 0.37693 0.49768 0.12349 0.0
C2087 C 0.38093 0.50625 0.16683 0.0
C2088 C 0.39106 0.52082 0.16567 0.0
C2089 C 0.39687 0.52699 0.12006 0.0
H2090 H 0.21981 0.65211 0.89766 0.0
H2091 H 0.26306 0.64308 0.99067 0.0
H2092 H 0.28092 0.64043 0.91687 0.0
H2093 H 0.23173 0.62358 0.79842 0.0
H2094 H 0.2239 0.63734 0.75115 0.0
H2095 H 0.21438 0.63739 0.81118 0.0
H2096 H 0.2196 0.66938 0.81815 0.0
H2097 H 0.22916 0.66942 0.75827 0.0
H2098 H 0.24055 0.67742 0.81044 0.0
H2099 H 0.29431 0.64039 0.83312 0.0
H2100 H 0.30222 0.64288 0.7456 0.0
H2101 H 0.25018 0.6519 0.70757 0.0
C2102 C 0.233 0.64936 0.90249 0.0
C2103 C 0.24006 0.64773 0.94984 0.0
C2104 C 0.2574 0.64432 0.95468 0.0
C2105 C 0.26763 0.64278 0.91301 0.0
C2106 C 0.26031 0.64465 0.86683 0.0
C2107 C 0.24339 0.64781 0.86133 0.0
C2108 C 0.23875 0.64998 0.80776 0.0
C2109 C 0.22646 0.63625 0.79116 0.0
C2110 C 0.2316 0.6676 0.79811 0.0
C2111 C 0.25576 0.64778 0.78399 0.0
C2112 C 0.26802 0.64463 0.81865 0.0
C2113 C 0.2848 0.64271 0.80562 0.0
C2114 C 0.28917 0.64416 0.75586 0.0
C2115 C 0.27681 0.64751 0.71984 0.0
C2116 C 0.25989 0.6492 0.73423 0.0
H2117 H 0.09635 0.49542 0.44462 0.0
H2118 H 0.12575 0.5403 0.4704 0.0
H2119 H 0.1325 0.5303 0.55392 0.0
H2120 H 0.07761 0.49468 0.55879 0.0
H2121 H 0.07742 0.47221 0.56583 0.0
H2122 H 0.07729 0.4813 0.50538 0.0
H2123 H 0.1039 0.46439 0.48256 0.0
H2124 H 0.10408 0.45517 0.54304 0.0
H2125 H 0.12234 0.46604 0.52054 0.0
H2126 H 0.13308 0.51747 0.63721 0.0
H2127 H 0.12708 0.50288 0.71521 0.0
H2128 H 0.09704 0.46632 0.63664 0.0
C2129 C 0.10464 0.50286 0.46736 0.0
C2130 C 0.11071 0.51853 0.45095 0.0
C2131 C 0.12108 0.5282 0.4822 0.0
C2132 C 0.12503 0.52259 0.52962 0.0
C2133 C 0.11849 0.5073 0.54526 0.0
C2134 C 0.10855 0.49752 0.51507 0.0
C2135 C 0.10165 0.4825 0.54265 0.0
C2136 C 0.08236 0.4827 0.54319 0.0
C2137 C 0.1084 0.46605 0.5209 0.0
C2138 C 0.10881 0.48567 0.59341 0.0
C2139 C 0.11869 0.49991 0.59387 0.0
C2140 C 0.12562 0.50614 0.63717 0.0
C2141 C 0.12211 0.49779 0.68131 0.0
C2142 C 0.11173 0.4834 0.68188 0.0
C2143 C 0.1053 0.47709 0.63716 0.0
loop_
_geom_bond_atom_site_label_1
_geom_bond_atom_site_label_2
_geom_bond_distance
_geom_bond_site_symmetry_2
_ccdc_geom_bond_type
In0 O1 2.294 . S
In0 O2 2.326 1_554 S
In0 O6 2.266 . S
In0 O7 2.326 . S
In0 O8 2.266 . S
In0 O9 2.326 . S
In0 O11 2.294 . S
In0 O12 2.326 . S
O1 In0 2.294 . S
O1 C10 1.240 1_554 S
O2 In0 2.326 1_556 S
O2 C10 1.252 . S
C3 O6 1.252 . S
C3 O7 1.260 . S
C4 O11 1.240 . S
C4 O12 1.252 . S
C5 O8 1.252 . S
C5 O9 1.260 . S
O6 In0 2.266 . S
O6 C3 1.252 . S
O7 In0 2.326 . S
O7 C3 1.260 . S
O8 In0 2.266 . S
O8 C5 1.252 . S
O9 In0 2.326 . S
O9 C5 1.260 . S
C10 O1 1.240 1_556 S
C10 O2 1.252 . S
O11 In0 2.294 . S
O11 C4 1.240 . S
O12 In0 2.326 . S
O12 C4 1.252 . S
In13 O14 2.294 . S
In13 O15 2.326 . S
In13 O19 2.266 . S
In13 O20 2.326 . S
In13 O21 2.266 . S
In13 O22 2.326 . S
In13 O24 2.294 . S
In13 O25 2.326 . S
O14 In13 2.294 . S
O14 C23 1.240 . S
O15 In13 2.326 . S
O15 C23 1.252 . S
C16 O19 1.252 . S
C16 O20 1.260 . S
C17 O24 1.240 . S
C17 O25 1.252 . S
C18 O21 1.252 . S
C18 O22 1.260 . S
O19 In13 2.266 . S
O19 C16 1.252 . S
O20 In13 2.326 . S
O20 C16 1.260 . S
O21 In13 2.266 . S
O21 C18 1.252 . S
O22 In13 2.326 . S
O22 C18 1.260 . S
C23 O14 1.240 . S
C23 O15 1.252 . S
O24 In13 2.294 . S
O24 C17 1.240 . S
O25 In13 2.326 . S
O25 C17 1.252 . S
In26 O27 2.294 . S
In26 O28 2.326 . S
In26 O32 2.266 . S
In26 O33 2.326 . S
In26 O34 2.266 . S
In26 O35 2.326 . S
In26 O37 2.294 . S
In26 O38 2.326 . S
O27 In26 2.294 . S
O27 C36 1.240 . S
O28 In26 2.326 . S
O28 C36 1.252 . S
C29 O32 1.252 . S
C29 O33 1.260 . S
C30 O37 1.240 . S
C30 O38 1.252 . S
C31 O34 1.252 . S
C31 O35 1.260 . S
O32 In26 2.266 . S
O32 C29 1.252 . S
O33 In26 2.326 . S
O33 C29 1.260 . S
O34 In26 2.266 . S
O34 C31 1.252 . S
O35 In26 2.326 . S
O35 C31 1.260 . S
C36 O27 1.240 . S
C36 O28 1.252 . S
O37 In26 2.294 . S
O37 C30 1.240 . S
O38 In26 2.326 . S
O38 C30 1.252 . S
In39 O40 2.294 . S
In39 O41 2.326 . S
In39 O45 2.266 . S
In39 O46 2.326 . S
In39 O47 2.266 . S
In39 O48 2.326 . S
In39 O50 2.294 . S
In39 O51 2.326 . S
O40 In39 2.294 . S
O40 C49 1.240 . S
O41 In39 2.326 . S
O41 C49 1.252 . S
C42 O45 1.252 . S
C42 O46 1.260 . S
C43 O50 1.240 . S
C43 O51 1.252 . S
C44 O47 1.252 . S
C44 O48 1.260 . S
O45 In39 2.266 . S
O45 C42 1.252 . S
O46 In39 2.326 . S
O46 C42 1.260 . S
O47 In39 2.266 . S
O47 C44 1.252 . S
O48 In39 2.326 . S
O48 C44 1.260 . S
C49 O40 1.240 . S
C49 O41 1.252 . S
O50 In39 2.294 . S
O50 C43 1.240 . S
O51 In39 2.326 . S
O51 C43 1.252 . S
In52 O53 2.294 . S
In52 O54 2.326 . S
In52 O58 2.266 . S
In52 O59 2.326 1_554 S
In52 O60 2.266 . S
In52 O61 2.326 . S
In52 O63 2.294 . S
In52 O64 2.326 . S
O53 In52 2.294 . S
O53 C62 1.240 . S
O54 In52 2.326 . S
O54 C62 1.252 . S
C55 O58 1.252 1_556 S
C55 O59 1.260 . S
C56 O63 1.240 . S
C56 O64 1.252 . S
C57 O60 1.252 . S
C57 O61 1.260 . S
O58 In52 2.266 . S
O58 C55 1.252 1_554 S
O59 In52 2.326 1_556 S
O59 C55 1.260 . S
O60 In52 2.266 . S
O60 C57 1.252 . S
O61 In52 2.326 . S
O61 C57 1.260 . S
C62 O53 1.240 . S
C62 O54 1.252 . S
O63 In52 2.294 . S
O63 C56 1.240 . S
O64 In52 2.326 . S
O64 C56 1.252 . S
In65 O66 2.294 . S
In65 O67 2.326 . S
In65 O71 2.266 . S
In65 O72 2.326 . S
In65 O73 2.266 . S
In65 O74 2.326 . S
In65 O76 2.294 . S
In65 O77 2.326 . S
O66 In65 2.294 . S
O66 C75 1.240 . S
O67 In65 2.326 . S
O67 C75 1.252 . S
C68 O71 1.252 . S
C68 O72 1.260 . S
C69 O76 1.240 . S
C69 O77 1.252 . S
C70 O73 1.252 . S
C70 O74 1.260 . S
O71 In65 2.266 . S
O71 C68 1.252 . S
O72 In65 2.326 . S
O72 C68 1.260 . S
O73 In65 2.266 . S
O73 C70 1.252 . S
O74 In65 2.326 . S
O74 C70 1.260 . S
C75 O66 1.240 . S
C75 O67 1.252 . S
O76 In65 2.294 . S
O76 C69 1.240 . S
O77 In65 2.326 . S
O77 C69 1.252 . S
In78 O79 2.294 . S
In78 O80 2.326 . S
In78 O84 2.266 . S
In78 O85 2.326 . S
In78 O86 2.266 . S
In78 O87 2.326 . S
In78 O89 2.294 . S
In78 O90 2.326 . S
O79 In78 2.294 . S
O79 C88 1.240 . S
O80 In78 2.326 . S
O80 C88 1.252 . S
C81 O84 1.252 . S
C81 O85 1.260 . S
C82 O89 1.240 . S
C82 O90 1.252 . S
C83 O86 1.252 . S
C83 O87 1.260 . S
O84 In78 2.266 . S
O84 C81 1.252 . S
O85 In78 2.326 . S
O85 C81 1.260 . S
O86 In78 2.266 . S
O86 C83 1.252 . S
O87 In78 2.326 . S
O87 C83 1.260 . S
C88 O79 1.240 . S
C88 O80 1.252 . S
O89 In78 2.294 . S
O89 C82 1.240 . S
O90 In78 2.326 . S
O90 C82 1.252 . S
In91 O92 2.294 . S
In91 O93 2.326 . S
In91 O97 2.266 . S
In91 O98 2.326 . S
In91 O99 2.266 . S
In91 O100 2.326 . S
In91 O102 2.294 . S
In91 O103 2.326 . S
O92 In91 2.294 . S
O92 C101 1.240 . S
O93 In91 2.326 . S
O93 C101 1.252 . S
C94 O97 1.252 . S
C94 O98 1.260 . S
C95 O102 1.240 . S
C95 O103 1.252 . S
C96 O99 1.252 . S
C96 O100 1.260 . S
O97 In91 2.266 . S
O97 C94 1.252 . S
O98 In91 2.326 . S
O98 C94 1.260 . S
O99 In91 2.266 . S
O99 C96 1.252 . S
O100 In91 2.326 . S
O100 C96 1.260 . S
C101 O92 1.240 . S
C101 O93 1.252 . S
O102 In91 2.294 . S
O102 C95 1.240 . S
O103 In91 2.326 . S
O103 C95 1.252 . S
In104 O105 2.294 . S
In104 O106 2.326 . S
In104 O110 2.266 . S
In104 O111 2.326 1_554 S
In104 O112 2.266 . S
In104 O113 2.326 . S
In104 O115 2.294 . S
In104 O116 2.326 . S
O105 In104 2.294 . S
O105 C114 1.240 . S
O106 In104 2.326 . S
O106 C114 1.252 . S
C107 O110 1.252 1_556 S
C107 O111 1.260 . S
C108 O115 1.240 . S
C108 O116 1.252 . S
C109 O112 1.252 . S
C109 O113 1.260 . S
O110 In104 2.266 . S
O110 C107 1.252 1_554 S
O111 In104 2.326 1_556 S
O111 C107 1.260 . S
O112 In104 2.266 . S
O112 C109 1.252 . S
O113 In104 2.326 . S
O113 C109 1.260 . S
C114 O105 1.240 . S
C114 O106 1.252 . S
O115 In104 2.294 . S
O115 C108 1.240 . S
O116 In104 2.326 . S
O116 C108 1.252 . S
In117 O118 2.294 . S
In117 O119 2.326 . S
In117 O123 2.266 . S
In117 O124 2.326 . S
In117 O125 2.266 . S
In117 O126 2.326 . S
In117 O128 2.294 . S
In117 O129 2.326 . S
O118 In117 2.294 . S
O118 C127 1.240 . S
O119 In117 2.326 . S
O119 C127 1.252 . S
C120 O123 1.252 . S
C120 O124 1.260 . S
C121 O128 1.240 . S
C121 O129 1.252 . S
C122 O125 1.252 . S
C122 O126 1.260 . S
O123 In117 2.266 . S
O123 C120 1.252 . S
O124 In117 2.326 . S
O124 C120 1.260 . S
O125 In117 2.266 . S
O125 C122 1.252 . S
O126 In117 2.326 . S
O126 C122 1.260 . S
C127 O118 1.240 . S
C127 O119 1.252 . S
O128 In117 2.294 . S
O128 C121 1.240 . S
O129 In117 2.326 . S
O129 C121 1.252 . S
In130 O131 2.294 . S
In130 O132 2.326 . S
In130 O136 2.266 . S
In130 O137 2.326 . S
In130 O138 2.266 . S
In130 O139 2.326 . S
In130 O141 2.294 . S
In130 O142 2.326 . S
O131 In130 2.294 . S
O131 C140 1.240 . S
O132 In130 2.326 . S
O132 C140 1.252 . S
C133 O136 1.252 . S
C133 O137 1.260 . S
C134 O141 1.240 . S
C134 O142 1.252 . S
C135 O138 1.252 . S
C135 O139 1.260 . S
O136 In130 2.266 . S
O136 C133 1.252 . S
O137 In130 2.326 . S
O137 C133 1.260 . S
O138 In130 2.266 . S
O138 C135 1.252 . S
O139 In130 2.326 . S
O139 C135 1.260 . S
C140 O131 1.240 . S
C140 O132 1.252 . S
O141 In130 2.294 . S
O141 C134 1.240 . S
O142 In130 2.326 . S
O142 C134 1.252 . S
In143 O144 2.294 . S
In143 O145 2.326 . S
In143 O149 2.266 . S
In143 O150 2.326 . S
In143 O151 2.266 . S
In143 O152 2.326 . S
In143 O154 2.294 . S
In143 O155 2.326 . S
O144 In143 2.294 . S
O144 C153 1.240 . S
O145 In143 2.326 . S
O145 C153 1.252 . S
C146 O149 1.252 . S
C146 O150 1.260 . S
C147 O154 1.240 . S
C147 O155 1.252 . S
C148 O151 1.252 . S
C148 O152 1.260 . S
O149 In143 2.266 . S
O149 C146 1.252 . S
O150 In143 2.326 . S
O150 C146 1.260 . S
O151 In143 2.266 . S
O151 C148 1.252 . S
O152 In143 2.326 . S
O152 C148 1.260 . S
C153 O144 1.240 . S
C153 O145 1.252 . S
O154 In143 2.294 . S
O154 C147 1.240 . S
O155 In143 2.326 . S
O155 C147 1.252 . S
In156 O157 2.294 . S
In156 O158 2.326 . S
In156 O162 2.266 . S
In156 O163 2.326 . S
In156 O164 2.266 . S
In156 O165 2.326 . S
In156 O167 2.294 . S
In156 O168 2.326 1_554 S
O157 In156 2.294 . S
O157 C166 1.240 . S
O158 In156 2.326 . S
O158 C166 1.252 . S
C159 O162 1.252 . S
C159 O163 1.260 . S
C160 O167 1.240 1_556 S
C160 O168 1.252 . S
C161 O164 1.252 . S
C161 O165 1.260 . S
O162 In156 2.266 . S
O162 C159 1.252 . S
O163 In156 2.326 . S
O163 C159 1.260 . S
O164 In156 2.266 . S
O164 C161 1.252 . S
O165 In156 2.326 . S
O165 C161 1.260 . S
C166 O157 1.240 . S
C166 O158 1.252 . S
O167 In156 2.294 . S
O167 C160 1.240 1_554 S
O168 In156 2.326 1_556 S
O168 C160 1.252 . S
In169 O170 2.294 . S
In169 O171 2.326 . S
In169 O175 2.266 . S
In169 O176 2.326 . S
In169 O177 2.266 . S
In169 O178 2.326 . S
In169 O180 2.294 . S
In169 O181 2.326 . S
O170 In169 2.294 . S
O170 C179 1.240 . S
O171 In169 2.326 . S
O171 C179 1.252 . S
C172 O175 1.252 . S
C172 O176 1.260 . S
C173 O180 1.240 . S
C173 O181 1.252 . S
C174 O177 1.252 . S
C174 O178 1.260 . S
O175 In169 2.266 . S
O175 C172 1.252 . S
O176 In169 2.326 . S
O176 C172 1.260 . S
O177 In169 2.266 . S
O177 C174 1.252 . S
O178 In169 2.326 . S
O178 C174 1.260 . S
C179 O170 1.240 . S
C179 O171 1.252 . S
O180 In169 2.294 . S
O180 C173 1.240 . S
O181 In169 2.326 . S
O181 C173 1.252 . S
In182 O183 2.294 . S
In182 O184 2.326 . S
In182 O188 2.266 . S
In182 O189 2.326 . S
In182 O190 2.266 . S
In182 O191 2.326 . S
In182 O193 2.294 . S
In182 O194 2.326 . S
O183 In182 2.294 . S
O183 C192 1.240 . S
O184 In182 2.326 . S
O184 C192 1.252 . S
C185 O188 1.252 . S
C185 O189 1.260 . S
C186 O193 1.240 . S
C186 O194 1.252 . S
C187 O190 1.252 . S
C187 O191 1.260 . S
O188 In182 2.266 . S
O188 C185 1.252 . S
O189 In182 2.326 . S
O189 C185 1.260 . S
O190 In182 2.266 . S
O190 C187 1.252 . S
O191 In182 2.326 . S
O191 C187 1.260 . S
C192 O183 1.240 . S
C192 O184 1.252 . S
O193 In182 2.294 . S
O193 C186 1.240 . S
O194 In182 2.326 . S
O194 C186 1.252 . S
In195 O196 2.294 . S
In195 O197 2.326 . S
In195 O201 2.266 . S
In195 O202 2.326 . S
In195 O203 2.266 . S
In195 O204 2.326 . S
In195 O206 2.294 . S
In195 O207 2.326 . S
O196 In195 2.294 . S
O196 C205 1.240 . S
O197 In195 2.326 . S
O197 C205 1.252 . S
C198 O201 1.252 . S
C198 O202 1.260 . S
C199 O206 1.240 . S
C199 O207 1.252 . S
C200 O203 1.252 . S
C200 O204 1.260 . S
O201 In195 2.266 . S
O201 C198 1.252 . S
O202 In195 2.326 . S
O202 C198 1.260 . S
O203 In195 2.266 . S
O203 C200 1.252 . S
O204 In195 2.326 . S
O204 C200 1.260 . S
C205 O196 1.240 . S
C205 O197 1.252 . S
O206 In195 2.294 . S
O206 C199 1.240 . S
O207 In195 2.326 . S
O207 C199 1.252 . S
In208 O209 2.294 . S
In208 O210 2.326 . S
In208 O214 2.266 . S
In208 O215 2.326 . S
In208 O216 2.266 . S
In208 O217 2.326 . S
In208 O219 2.294 . S
In208 O220 2.326 . S
O209 In208 2.294 . S
O209 C218 1.240 . S
O210 In208 2.326 . S
O210 C218 1.252 . S
C211 O214 1.252 . S
C211 O215 1.260 . S
C212 O219 1.240 . S
C212 O220 1.252 . S
C213 O216 1.252 . S
C213 O217 1.260 . S
O214 In208 2.266 . S
O214 C211 1.252 . S
O215 In208 2.326 . S
O215 C211 1.260 . S
O216 In208 2.266 . S
O216 C213 1.252 . S
O217 In208 2.326 . S
O217 C213 1.260 . S
C218 O209 1.240 . S
C218 O210 1.252 . S
O219 In208 2.294 . S
O219 C212 1.240 . S
O220 In208 2.326 . S
O220 C212 1.252 . S
In221 O222 2.294 . S
In221 O223 2.326 . S
In221 O227 2.266 . S
In221 O228 2.326 . S
In221 O229 2.266 . S
In221 O230 2.326 . S
In221 O232 2.294 . S
In221 O233 2.326 . S
O222 In221 2.294 . S
O222 C231 1.240 . S
O223 In221 2.326 . S
O223 C231 1.252 . S
C224 O227 1.252 . S
C224 O228 1.260 . S
C225 O232 1.240 . S
C225 O233 1.252 . S
C226 O229 1.252 . S
C226 O230 1.260 . S
O227 In221 2.266 . S
O227 C224 1.252 . S
O228 In221 2.326 . S
O228 C224 1.260 . S
O229 In221 2.266 . S
O229 C226 1.252 . S
O230 In221 2.326 . S
O230 C226 1.260 . S
C231 O222 1.240 . S
C231 O223 1.252 . S
O232 In221 2.294 . S
O232 C225 1.240 . S
O233 In221 2.326 . S
O233 C225 1.252 . S
In234 O235 2.294 . S
In234 O236 2.326 1_554 S
In234 O240 2.266 . S
In234 O241 2.326 . S
In234 O242 2.266 . S
In234 O243 2.326 . S
In234 O245 2.294 . S
In234 O246 2.326 . S
O235 In234 2.294 . S
O235 C244 1.240 1_554 S
O236 In234 2.326 1_556 S
O236 C244 1.252 . S
C237 O240 1.252 . S
C237 O241 1.260 . S
C238 O245 1.240 . S
C238 O246 1.252 . S
C239 O242 1.252 . S
C239 O243 1.260 . S
O240 In234 2.266 . S
O240 C237 1.252 . S
O241 In234 2.326 . S
O241 C237 1.260 . S
O242 In234 2.266 . S
O242 C239 1.252 . S
O243 In234 2.326 . S
O243 C239 1.260 . S
C244 O235 1.240 1_556 S
C244 O236 1.252 . S
O245 In234 2.294 . S
O245 C238 1.240 . S
O246 In234 2.326 . S
O246 C238 1.252 . S
In247 O248 2.294 . S
In247 O249 2.326 . S
In247 O253 2.266 . S
In247 O254 2.326 . S
In247 O255 2.266 . S
In247 O256 2.326 . S
In247 O258 2.294 . S
In247 O259 2.326 . S
O248 In247 2.294 . S
O248 C257 1.240 . S
O249 In247 2.326 . S
O249 C257 1.252 . S
C250 O253 1.252 . S
C250 O254 1.260 . S
C251 O258 1.240 . S
C251 O259 1.252 . S
C252 O255 1.252 . S
C252 O256 1.260 . S
O253 In247 2.266 . S
O253 C250 1.252 . S
O254 In247 2.326 . S
O254 C250 1.260 . S
O255 In247 2.266 . S
O255 C252 1.252 . S
O256 In247 2.326 . S
O256 C252 1.260 . S
C257 O248 1.240 . S
C257 O249 1.252 . S
O258 In247 2.294 . S
O258 C251 1.240 . S
O259 In247 2.326 . S
O259 C251 1.252 . S
In260 O261 2.294 . S
In260 O262 2.326 . S
In260 O266 2.266 . S
In260 O267 2.326 . S
In260 O268 2.266 . S
In260 O269 2.326 . S
In260 O271 2.294 . S
In260 O272 2.326 . S
O261 In260 2.294 . S
O261 C270 1.240 . S
O262 In260 2.326 . S
O262 C270 1.252 . S
C263 O266 1.252 . S
C263 O267 1.260 . S
C264 O271 1.240 . S
C264 O272 1.252 . S
C265 O268 1.252 . S
C265 O269 1.260 . S
O266 In260 2.266 . S
O266 C263 1.252 . S
O267 In260 2.326 . S
O267 C263 1.260 . S
O268 In260 2.266 . S
O268 C265 1.252 . S
O269 In260 2.326 . S
O269 C265 1.260 . S
C270 O261 1.240 . S
C270 O262 1.252 . S
O271 In260 2.294 . S
O271 C264 1.240 . S
O272 In260 2.326 . S
O272 C264 1.252 . S
In273 O274 2.294 . S
In273 O275 2.326 . S
In273 O279 2.266 . S
In273 O280 2.326 . S
In273 O281 2.266 . S
In273 O282 2.326 . S
In273 O284 2.294 . S
In273 O285 2.326 . S
O274 In273 2.294 . S
O274 C283 1.240 . S
O275 In273 2.326 . S
O275 C283 1.252 . S
C276 O279 1.252 . S
C276 O280 1.260 . S
C277 O284 1.240 . S
C277 O285 1.252 . S
C278 O281 1.252 . S
C278 O282 1.260 . S
O279 In273 2.266 . S
O279 C276 1.252 . S
O280 In273 2.326 . S
O280 C276 1.260 . S
O281 In273 2.266 . S
O281 C278 1.252 . S
O282 In273 2.326 . S
O282 C278 1.260 . S
C283 O274 1.240 . S
C283 O275 1.252 . S
O284 In273 2.294 . S
O284 C277 1.240 . S
O285 In273 2.326 . S
O285 C277 1.252 . S
In286 O287 2.294 . S
In286 O288 2.326 . S
In286 O292 2.266 . S
In286 O293 2.326 . S
In286 O294 2.266 . S
In286 O295 2.326 1_554 S
In286 O297 2.294 . S
In286 O298 2.326 . S
O287 In286 2.294 . S
O287 C296 1.240 . S
O288 In286 2.326 . S
O288 C296 1.252 . S
C289 O292 1.252 . S
C289 O293 1.260 . S
C290 O297 1.240 . S
C290 O298 1.252 . S
C291 O294 1.252 1_556 S
C291 O295 1.260 . S
O292 In286 2.266 . S
O292 C289 1.252 . S
O293 In286 2.326 . S
O293 C289 1.260 . S
O294 In286 2.266 . S
O294 C291 1.252 1_554 S
O295 In286 2.326 1_556 S
O295 C291 1.260 . S
C296 O287 1.240 . S
C296 O288 1.252 . S
O297 In286 2.294 . S
O297 C290 1.240 . S
O298 In286 2.326 . S
O298 C290 1.252 . S
In299 O300 2.294 . S
In299 O301 2.326 . S
In299 O305 2.266 . S
In299 O306 2.326 . S
In299 O307 2.266 . S
In299 O308 2.326 . S
In299 O310 2.294 . S
In299 O311 2.326 . S
O300 In299 2.294 . S
O300 C309 1.240 . S
O301 In299 2.326 . S
O301 C309 1.252 . S
C302 O305 1.252 . S
C302 O306 1.260 . S
C303 O310 1.240 . S
C303 O311 1.252 . S
C304 O307 1.252 . S
C304 O308 1.260 . S
O305 In299 2.266 . S
O305 C302 1.252 . S
O306 In299 2.326 . S
O306 C302 1.260 . S
O307 In299 2.266 . S
O307 C304 1.252 . S
O308 In299 2.326 . S
O308 C304 1.260 . S
C309 O300 1.240 . S
C309 O301 1.252 . S
O310 In299 2.294 . S
O310 C303 1.240 . S
O311 In299 2.326 . S
O311 C303 1.252 . S
In312 O313 2.294 . S
In312 O314 2.326 . S
In312 O318 2.266 . S
In312 O319 2.326 . S
In312 O320 2.266 . S
In312 O321 2.326 . S
In312 O323 2.294 . S
In312 O324 2.326 . S
O313 In312 2.294 . S
O313 C322 1.240 . S
O314 In312 2.326 . S
O314 C322 1.252 . S
C315 O318 1.252 . S
C315 O319 1.260 . S
C316 O323 1.240 . S
C316 O324 1.252 . S
C317 O320 1.252 . S
C317 O321 1.260 . S
O318 In312 2.266 . S
O318 C315 1.252 . S
O319 In312 2.326 . S
O319 C315 1.260 . S
O320 In312 2.266 . S
O320 C317 1.252 . S
O321 In312 2.326 . S
O321 C317 1.260 . S
C322 O313 1.240 . S
C322 O314 1.252 . S
O323 In312 2.294 . S
O323 C316 1.240 . S
O324 In312 2.326 . S
O324 C316 1.252 . S
In325 O326 2.294 . S
In325 O327 2.326 . S
In325 O331 2.266 . S
In325 O332 2.326 . S
In325 O333 2.266 . S
In325 O334 2.326 . S
In325 O336 2.294 . S
In325 O337 2.326 . S
O326 In325 2.294 . S
O326 C335 1.240 . S
O327 In325 2.326 . S
O327 C335 1.252 . S
C328 O331 1.252 . S
C328 O332 1.260 . S
C329 O336 1.240 . S
C329 O337 1.252 . S
C330 O333 1.252 . S
C330 O334 1.260 . S
O331 In325 2.266 . S
O331 C328 1.252 . S
O332 In325 2.326 . S
O332 C328 1.260 . S
O333 In325 2.266 . S
O333 C330 1.252 . S
O334 In325 2.326 . S
O334 C330 1.260 . S
C335 O326 1.240 . S
C335 O327 1.252 . S
O336 In325 2.294 . S
O336 C329 1.240 . S
O337 In325 2.326 . S
O337 C329 1.252 . S
In338 O339 2.294 . S
In338 O340 2.326 . S
In338 O344 2.266 . S
In338 O345 2.326 . S
In338 O346 2.266 . S
In338 O347 2.326 1_554 S
In338 O349 2.294 . S
In338 O350 2.326 . S
O339 In338 2.294 . S
O339 C348 1.240 . S
O340 In338 2.326 . S
O340 C348 1.252 . S
C341 O344 1.252 . S
C341 O345 1.260 . S
C342 O349 1.240 . S
C342 O350 1.252 . S
C343 O346 1.252 1_556 S
C343 O347 1.260 . S
O344 In338 2.266 . S
O344 C341 1.252 . S
O345 In338 2.326 . S
O345 C341 1.260 . S
O346 In338 2.266 . S
O346 C343 1.252 1_554 S
O347 In338 2.326 1_556 S
O347 C343 1.260 . S
C348 O339 1.240 . S
C348 O340 1.252 . S
O349 In338 2.294 . S
O349 C342 1.240 . S
O350 In338 2.326 . S
O350 C342 1.252 . S
In351 O352 2.294 . S
In351 O353 2.326 . S
In351 O357 2.266 . S
In351 O358 2.326 . S
In351 O359 2.266 . S
In351 O360 2.326 . S
In351 O362 2.294 . S
In351 O363 2.326 . S
O352 In351 2.294 . S
O352 C361 1.240 . S
O353 In351 2.326 . S
O353 C361 1.252 . S
C354 O357 1.252 . S
C354 O358 1.260 . S
C355 O362 1.240 . S
C355 O363 1.252 . S
C356 O359 1.252 . S
C356 O360 1.260 . S
O357 In351 2.266 . S
O357 C354 1.252 . S
O358 In351 2.326 . S
O358 C354 1.260 . S
O359 In351 2.266 . S
O359 C356 1.252 . S
O360 In351 2.326 . S
O360 C356 1.260 . S
C361 O352 1.240 . S
C361 O353 1.252 . S
O362 In351 2.294 . S
O362 C355 1.240 . S
O363 In351 2.326 . S
O363 C355 1.252 . S
In364 O365 2.294 . S
In364 O366 2.326 . S
In364 O370 2.266 . S
In364 O371 2.326 . S
In364 O372 2.266 . S
In364 O373 2.326 . S
In364 O375 2.294 . S
In364 O376 2.326 . S
O365 In364 2.294 . S
O365 C374 1.240 . S
O366 In364 2.326 . S
O366 C374 1.252 . S
C367 O370 1.252 . S
C367 O371 1.260 . S
C368 O375 1.240 . S
C368 O376 1.252 . S
C369 O372 1.252 . S
C369 O373 1.260 . S
O370 In364 2.266 . S
O370 C367 1.252 . S
O371 In364 2.326 . S
O371 C367 1.260 . S
O372 In364 2.266 . S
O372 C369 1.252 . S
O373 In364 2.326 . S
O373 C369 1.260 . S
C374 O365 1.240 . S
C374 O366 1.252 . S
O375 In364 2.294 . S
O375 C368 1.240 . S
O376 In364 2.326 . S
O376 C368 1.252 . S
In377 O378 2.294 . S
In377 O379 2.326 . S
In377 O383 2.266 . S
In377 O384 2.326 . S
In377 O385 2.266 . S
In377 O386 2.326 . S
In377 O388 2.294 . S
In377 O389 2.326 . S
O378 In377 2.294 . S
O378 C387 1.240 . S
O379 In377 2.326 . S
O379 C387 1.252 . S
C380 O383 1.252 . S
C380 O384 1.260 . S
C381 O388 1.240 . S
C381 O389 1.252 . S
C382 O385 1.252 . S
C382 O386 1.260 . S
O383 In377 2.266 . S
O383 C380 1.252 . S
O384 In377 2.326 . S
O384 C380 1.260 . S
O385 In377 2.266 . S
O385 C382 1.252 . S
O386 In377 2.326 . S
O386 C382 1.260 . S
C387 O378 1.240 . S
C387 O379 1.252 . S
O388 In377 2.294 . S
O388 C381 1.240 . S
O389 In377 2.326 . S
O389 C381 1.252 . S
In390 O391 2.294 . S
In390 O392 2.326 . S
In390 O396 2.266 . S
In390 O397 2.326 . S
In390 O398 2.266 . S
In390 O399 2.326 . S
In390 O401 2.294 . S
In390 O402 2.326 1_554 S
O391 In390 2.294 . S
O391 C400 1.240 . S
O392 In390 2.326 . S
O392 C400 1.252 . S
C393 O396 1.252 . S
C393 O397 1.260 . S
C394 O401 1.240 1_556 S
C394 O402 1.252 . S
C395 O398 1.252 . S
C395 O399 1.260 . S
O396 In390 2.266 . S
O396 C393 1.252 . S
O397 In390 2.326 . S
O397 C393 1.260 . S
O398 In390 2.266 . S
O398 C395 1.252 . S
O399 In390 2.326 . S
O399 C395 1.260 . S
C400 O391 1.240 . S
C400 O392 1.252 . S
O401 In390 2.294 . S
O401 C394 1.240 1_554 S
O402 In390 2.326 1_556 S
O402 C394 1.252 . S
In403 O404 2.294 . S
In403 O405 2.326 . S
In403 O409 2.266 . S
In403 O410 2.326 . S
In403 O411 2.266 . S
In403 O412 2.326 . S
In403 O414 2.294 . S
In403 O415 2.326 . S
O404 In403 2.294 . S
O404 C413 1.240 . S
O405 In403 2.326 . S
O405 C413 1.252 . S
C406 O409 1.252 . S
C406 O410 1.260 . S
C407 O414 1.240 . S
C407 O415 1.252 . S
C408 O411 1.252 . S
C408 O412 1.260 . S
O409 In403 2.266 . S
O409 C406 1.252 . S
O410 In403 2.326 . S
O410 C406 1.260 . S
O411 In403 2.266 . S
O411 C408 1.252 . S
O412 In403 2.326 . S
O412 C408 1.260 . S
C413 O404 1.240 . S
C413 O405 1.252 . S
O414 In403 2.294 . S
O414 C407 1.240 . S
O415 In403 2.326 . S
O415 C407 1.252 . S
H416 C428 0.930 . S
H417 C430 0.930 . S
H418 C431 0.930 . S
H419 C435 0.959 . S
H420 C435 0.959 . S
H421 C435 0.961 . S
H422 C436 0.960 . S
H423 C436 0.961 . S
H424 C436 0.959 . S
H425 C439 0.929 . S
H426 C440 0.931 . S
H427 C442 0.930 . S
C428 H416 0.930 . S
C428 C429 1.399 . S
C428 C433 1.399 . S
C429 C428 1.399 . S
C429 C430 1.376 . S
C430 H417 0.930 . S
C430 C429 1.376 . S
C430 C431 1.388 . S
C431 H418 0.930 . S
C431 C430 1.388 . S
C431 C432 1.390 . S
C432 C431 1.390 . S
C432 C433 1.394 . S
C432 C438 1.465 . S
C433 C428 1.399 . S
C433 C432 1.394 . S
C433 C434 1.516 . S
C434 C433 1.516 . S
C434 C435 1.502 . S
C434 C436 1.561 . S
C434 C437 1.526 . S
C435 H419 0.959 . S
C435 H420 0.959 . S
C435 H421 0.961 . S
C435 C434 1.502 . S
C436 H422 0.960 . S
C436 H423 0.961 . S
C436 H424 0.959 . S
C436 C434 1.561 . S
C437 C434 1.526 . S
C437 C438 1.396 . S
C437 C442 1.390 . S
C438 C432 1.465 . S
C438 C437 1.396 . S
C438 C439 1.399 1_556 S
C439 H425 0.929 . S
C439 C438 1.399 1_554 S
C439 C440 1.385 . S
C440 H426 0.931 . S
C440 C439 1.385 . S
C440 C441 1.389 . S
C441 C440 1.389 . S
C441 C442 1.387 1_554 S
C442 H427 0.930 . S
C442 C437 1.390 . S
C442 C441 1.387 1_556 S
H443 C455 0.930 . S
H444 C457 0.930 . S
H445 C458 0.930 . S
H446 C462 0.959 . S
H447 C462 0.959 . S
H448 C462 0.961 . S
H449 C463 0.960 . S
H450 C463 0.961 . S
H451 C463 0.959 . S
H452 C466 0.929 . S
H453 C467 0.931 . S
H454 C469 0.930 . S
C455 H443 0.930 . S
C455 C456 1.399 . S
C455 C460 1.399 . S
C456 C455 1.399 . S
C456 C457 1.376 . S
C457 H444 0.930 . S
C457 C456 1.376 . S
C457 C458 1.388 . S
C458 H445 0.930 . S
C458 C457 1.388 . S
C458 C459 1.390 . S
C459 C458 1.390 . S
C459 C460 1.394 . S
C459 C465 1.465 . S
C460 C455 1.399 . S
C460 C459 1.394 . S
C460 C461 1.516 . S
C461 C460 1.516 . S
C461 C462 1.502 . S
C461 C463 1.561 . S
C461 C464 1.526 . S
C462 H446 0.959 . S
C462 H447 0.959 . S
C462 H448 0.961 . S
C462 C461 1.502 . S
C463 H449 0.960 . S
C463 H450 0.961 . S
C463 H451 0.959 . S
C463 C461 1.561 . S
C464 C461 1.526 . S
C464 C465 1.396 . S
C464 C469 1.390 . S
C465 C459 1.465 . S
C465 C464 1.396 . S
C465 C466 1.399 . S
C466 H452 0.929 . S
C466 C465 1.399 . S
C466 C467 1.385 . S
C467 H453 0.931 . S
C467 C466 1.385 . S
C467 C468 1.389 . S
C468 C467 1.389 . S
C468 C469 1.387 . S
C469 H454 0.930 . S
C469 C464 1.390 . S
C469 C468 1.387 . S
H470 C482 0.930 . S
H471 C484 0.930 . S
H472 C485 0.930 . S
H473 C489 0.959 . S
H474 C489 0.959 . S
H475 C489 0.961 . S
H476 C490 0.960 . S
H477 C490 0.961 . S
H478 C490 0.959 . S
H479 C493 0.929 . S
H480 C494 0.931 . S
H481 C496 0.930 . S
C482 H470 0.930 . S
C482 C483 1.399 . S
C482 C487 1.399 . S
C483 C482 1.399 . S
C483 C484 1.376 . S
C484 H471 0.930 . S
C484 C483 1.376 . S
C484 C485 1.388 . S
C485 H472 0.930 . S
C485 C484 1.388 . S
C485 C486 1.390 . S
C486 C485 1.390 . S
C486 C487 1.394 . S
C486 C492 1.465 . S
C487 C482 1.399 . S
C487 C486 1.394 . S
C487 C488 1.516 . S
C488 C487 1.516 . S
C488 C489 1.502 . S
C488 C490 1.561 . S
C488 C491 1.526 . S
C489 H473 0.959 . S
C489 H474 0.959 . S
C489 H475 0.961 . S
C489 C488 1.502 . S
C490 H476 0.960 . S
C490 H477 0.961 . S
C490 H478 0.959 . S
C490 C488 1.561 . S
C491 C488 1.526 . S
C491 C492 1.396 . S
C491 C496 1.390 . S
C492 C486 1.465 . S
C492 C491 1.396 . S
C492 C493 1.399 . S
C493 H479 0.929 . S
C493 C492 1.399 . S
C493 C494 1.385 . S
C494 H480 0.931 . S
C494 C493 1.385 . S
C494 C495 1.389 . S
C495 C494 1.389 . S
C495 C496 1.387 . S
C496 H481 0.930 . S
C496 C491 1.390 . S
C496 C495 1.387 . S
H497 C509 0.930 . S
H498 C511 0.930 . S
H499 C512 0.930 . S
H500 C516 0.959 . S
H501 C516 0.959 . S
H502 C516 0.961 . S
H503 C517 0.960 . S
H504 C517 0.961 . S
H505 C517 0.959 . S
H506 C520 0.929 . S
H507 C521 0.931 . S
H508 C523 0.930 . S
C509 H497 0.930 . S
C509 C510 1.399 . S
C509 C514 1.399 . S
C510 C509 1.399 . S
C510 C511 1.376 . S
C511 H498 0.930 . S
C511 C510 1.376 . S
C511 C512 1.388 . S
C512 H499 0.930 . S
C512 C511 1.388 . S
C512 C513 1.390 . S
C513 C512 1.390 . S
C513 C514 1.394 . S
C513 C519 1.465 . S
C514 C509 1.399 . S
C514 C513 1.394 . S
C514 C515 1.516 . S
C515 C514 1.516 . S
C515 C516 1.502 . S
C515 C517 1.561 . S
C515 C518 1.526 . S
C516 H500 0.959 . S
C516 H501 0.959 . S
C516 H502 0.961 . S
C516 C515 1.502 . S
C517 H503 0.960 . S
C517 H504 0.961 . S
C517 H505 0.959 . S
C517 C515 1.561 . S
C518 C515 1.526 . S
C518 C519 1.396 . S
C518 C523 1.390 . S
C519 C513 1.465 . S
C519 C518 1.396 . S
C519 C520 1.399 . S
C520 H506 0.929 . S
C520 C519 1.399 . S
C520 C521 1.385 . S
C521 H507 0.931 . S
C521 C520 1.385 . S
C521 C522 1.389 . S
C522 C521 1.389 . S
C522 C523 1.387 . S
C523 H508 0.930 . S
C523 C518 1.390 . S
C523 C522 1.387 . S
H524 C536 0.930 . S
H525 C538 0.930 . S
H526 C539 0.930 . S
H527 C543 0.959 . S
H528 C543 0.959 . S
H529 C543 0.961 . S
H530 C544 0.960 . S
H531 C544 0.961 . S
H532 C544 0.959 . S
H533 C547 0.929 . S
H534 C548 0.931 . S
H535 C550 0.930 . S
C536 H524 0.930 . S
C536 C537 1.399 . S
C536 C541 1.399 . S
C537 C536 1.399 . S
C537 C538 1.376 . S
C538 H525 0.930 . S
C538 C537 1.376 . S
C538 C539 1.388 . S
C539 H526 0.930 . S
C539 C538 1.388 . S
C539 C540 1.390 . S
C540 C539 1.390 . S
C540 C541 1.394 . S
C540 C546 1.465 . S
C541 C536 1.399 . S
C541 C540 1.394 . S
C541 C542 1.516 . S
C542 C541 1.516 . S
C542 C543 1.502 . S
C542 C544 1.561 . S
C542 C545 1.526 . S
C543 H527 0.959 . S
C543 H528 0.959 . S
C543 H529 0.961 . S
C543 C542 1.502 . S
C544 H530 0.960 . S
C544 H531 0.961 . S
C544 H532 0.959 . S
C544 C542 1.561 . S
C545 C542 1.526 . S
C545 C546 1.396 . S
C545 C550 1.390 . S
C546 C540 1.465 . S
C546 C545 1.396 . S
C546 C547 1.399 . S
C547 H533 0.929 . S
C547 C546 1.399 . S
C547 C548 1.385 . S
C548 H534 0.931 . S
C548 C547 1.385 . S
C548 C549 1.389 . S
C549 C548 1.389 . S
C549 C550 1.387 . S
C550 H535 0.930 . S
C550 C545 1.390 . S
C550 C549 1.387 . S
H551 C563 0.930 . S
H552 C565 0.930 . S
H553 C566 0.930 . S
H554 C570 0.959 . S
H555 C570 0.959 . S
H556 C570 0.961 . S
H557 C571 0.960 . S
H558 C571 0.961 . S
H559 C571 0.959 . S
H560 C574 0.929 . S
H561 C575 0.931 . S
H562 C577 0.930 . S
C563 H551 0.930 . S
C563 C564 1.399 . S
C563 C568 1.399 . S
C564 C563 1.399 . S
C564 C565 1.376 . S
C565 H552 0.930 . S
C565 C564 1.376 . S
C565 C566 1.388 . S
C566 H553 0.930 . S
C566 C565 1.388 . S
C566 C567 1.390 . S
C567 C566 1.390 . S
C567 C568 1.394 . S
C567 C573 1.465 . S
C568 C563 1.399 . S
C568 C567 1.394 . S
C568 C569 1.516 . S
C569 C568 1.516 . S
C569 C570 1.502 . S
C569 C571 1.561 . S
C569 C572 1.526 . S
C570 H554 0.959 . S
C570 H555 0.959 . S
C570 H556 0.961 . S
C570 C569 1.502 . S
C571 H557 0.960 . S
C571 H558 0.961 . S
C571 H559 0.959 . S
C571 C569 1.561 . S
C572 C569 1.526 . S
C572 C573 1.396 . S
C572 C577 1.390 . S
C573 C567 1.465 . S
C573 C572 1.396 . S
C573 C574 1.399 . S
C574 H560 0.929 . S
C574 C573 1.399 . S
C574 C575 1.385 1_556 S
C575 H561 0.931 . S
C575 C574 1.385 1_554 S
C575 C576 1.389 . S
C576 C575 1.389 . S
C576 C577 1.387 1_554 S
C577 H562 0.930 . S
C577 C572 1.390 . S
C577 C576 1.387 1_556 S
H578 C590 0.930 . S
H579 C592 0.930 . S
H580 C593 0.930 . S
H581 C597 0.959 . S
H582 C597 0.959 . S
H583 C597 0.961 . S
H584 C598 0.960 . S
H585 C598 0.961 . S
H586 C598 0.959 . S
H587 C601 0.929 . S
H588 C602 0.931 . S
H589 C604 0.930 . S
C590 H578 0.930 . S
C590 C591 1.399 . S
C590 C595 1.399 . S
C591 C590 1.399 . S
C591 C592 1.376 . S
C592 H579 0.930 . S
C592 C591 1.376 . S
C592 C593 1.388 . S
C593 H580 0.930 . S
C593 C592 1.388 . S
C593 C594 1.390 . S
C594 C593 1.390 . S
C594 C595 1.394 . S
C594 C600 1.465 . S
C595 C590 1.399 . S
C595 C594 1.394 . S
C595 C596 1.516 . S
C596 C595 1.516 . S
C596 C597 1.502 . S
C596 C598 1.561 . S
C596 C599 1.526 . S
C597 H581 0.959 . S
C597 H582 0.959 . S
C597 H583 0.961 . S
C597 C596 1.502 . S
C598 H584 0.960 . S
C598 H585 0.961 . S
C598 H586 0.959 . S
C598 C596 1.561 . S
C599 C596 1.526 . S
C599 C600 1.396 . S
C599 C604 1.390 . S
C600 C594 1.465 . S
C600 C599 1.396 . S
C600 C601 1.399 . S
C601 H587 0.929 . S
C601 C600 1.399 . S
C601 C602 1.385 . S
C602 H588 0.931 . S
C602 C601 1.385 . S
C602 C603 1.389 . S
C603 C602 1.389 . S
C603 C604 1.387 . S
C604 H589 0.930 . S
C604 C599 1.390 . S
C604 C603 1.387 . S
H605 C617 0.930 . S
H606 C619 0.930 . S
H607 C620 0.930 . S
H608 C624 0.959 . S
H609 C624 0.959 . S
H610 C624 0.961 . S
H611 C625 0.960 . S
H612 C625 0.961 . S
H613 C625 0.959 . S
H614 C628 0.929 . S
H615 C629 0.931 . S
H616 C631 0.930 . S
C617 H605 0.930 . S
C617 C618 1.399 . S
C617 C622 1.399 . S
C618 C617 1.399 . S
C618 C619 1.376 . S
C619 H606 0.930 . S
C619 C618 1.376 . S
C619 C620 1.388 . S
C620 H607 0.930 . S
C620 C619 1.388 . S
C620 C621 1.390 . S
C621 C620 1.390 . S
C621 C622 1.394 . S
C621 C627 1.465 . S
C622 C617 1.399 . S
C622 C621 1.394 . S
C622 C623 1.516 . S
C623 C622 1.516 . S
C623 C624 1.502 . S
C623 C625 1.561 . S
C623 C626 1.526 . S
C624 H608 0.959 . S
C624 H609 0.959 . S
C624 H610 0.961 . S
C624 C623 1.502 . S
C625 H611 0.960 . S
C625 H612 0.961 . S
C625 H613 0.959 . S
C625 C623 1.561 . S
C626 C623 1.526 . S
C626 C627 1.396 . S
C626 C631 1.390 . S
C627 C621 1.465 . S
C627 C626 1.396 . S
C627 C628 1.399 . S
C628 H614 0.929 . S
C628 C627 1.399 . S
C628 C629 1.385 . S
C629 H615 0.931 . S
C629 C628 1.385 . S
C629 C630 1.389 . S
C630 C629 1.389 . S
C630 C631 1.387 . S
C631 H616 0.930 . S
C631 C626 1.390 . S
C631 C630 1.387 . S
H632 C644 0.930 . S
H633 C646 0.930 . S
H634 C647 0.930 . S
H635 C651 0.959 . S
H636 C651 0.959 . S
H637 C651 0.961 . S
H638 C652 0.960 . S
H639 C652 0.961 . S
H640 C652 0.959 . S
H641 C655 0.929 . S
H642 C656 0.931 . S
H643 C658 0.930 . S
C644 H632 0.930 . S
C644 C645 1.399 . S
C644 C649 1.399 . S
C645 C644 1.399 . S
C645 C646 1.376 . S
C646 H633 0.930 . S
C646 C645 1.376 . S
C646 C647 1.388 . S
C647 H634 0.930 . S
C647 C646 1.388 . S
C647 C648 1.390 . S
C648 C647 1.390 . S
C648 C649 1.394 . S
C648 C654 1.465 . S
C649 C644 1.399 . S
C649 C648 1.394 . S
C649 C650 1.516 . S
C650 C649 1.516 . S
C650 C651 1.502 . S
C650 C652 1.561 . S
C650 C653 1.526 . S
C651 H635 0.959 . S
C651 H636 0.959 . S
C651 H637 0.961 . S
C651 C650 1.502 . S
C652 H638 0.960 . S
C652 H639 0.961 . S
C652 H640 0.959 . S
C652 C650 1.561 . S
C653 C650 1.526 . S
C653 C654 1.396 . S
C653 C658 1.390 . S
C654 C648 1.465 . S
C654 C653 1.396 . S
C654 C655 1.399 . S
C655 H641 0.929 . S
C655 C654 1.399 . S
C655 C656 1.385 . S
C656 H642 0.931 . S
C656 C655 1.385 . S
C656 C657 1.389 . S
C657 C656 1.389 . S
C657 C658 1.387 . S
C658 H643 0.930 . S
C658 C653 1.390 . S
C658 C657 1.387 . S
H659 C671 0.930 . S
H660 C673 0.930 . S
H661 C674 0.930 . S
H662 C678 0.959 . S
H663 C678 0.959 . S
H664 C678 0.961 . S
H665 C679 0.960 . S
H666 C679 0.961 . S
H667 C679 0.959 . S
H668 C682 0.929 . S
H669 C683 0.931 . S
H670 C685 0.930 . S
C671 H659 0.930 . S
C671 C672 1.399 . S
C671 C676 1.399 . S
C672 C671 1.399 . S
C672 C673 1.376 . S
C673 H660 0.930 . S
C673 C672 1.376 . S
C673 C674 1.388 . S
C674 H661 0.930 . S
C674 C673 1.388 . S
C674 C675 1.390 . S
C675 C674 1.390 . S
C675 C676 1.394 . S
C675 C681 1.465 . S
C676 C671 1.399 . S
C676 C675 1.394 . S
C676 C677 1.516 . S
C677 C676 1.516 . S
C677 C678 1.502 . S
C677 C679 1.561 . S
C677 C680 1.526 . S
C678 H662 0.959 . S
C678 H663 0.959 . S
C678 H664 0.961 . S
C678 C677 1.502 . S
C679 H665 0.960 . S
C679 H666 0.961 . S
C679 H667 0.959 . S
C679 C677 1.561 . S
C680 C677 1.526 . S
C680 C681 1.396 . S
C680 C685 1.390 . S
C681 C675 1.465 . S
C681 C680 1.396 . S
C681 C682 1.399 . S
C682 H668 0.929 . S
C682 C681 1.399 . S
C682 C683 1.385 . S
C683 H669 0.931 . S
C683 C682 1.385 . S
C683 C684 1.389 . S
C684 C683 1.389 . S
C684 C685 1.387 . S
C685 H670 0.930 . S
C685 C680 1.390 . S
C685 C684 1.387 . S
H686 C698 0.930 . S
H687 C700 0.930 . S
H688 C701 0.930 . S
H689 C705 0.959 . S
H690 C705 0.959 . S
H691 C705 0.961 . S
H692 C706 0.960 . S
H693 C706 0.961 1_554 S
H694 C706 0.959 . S
H695 C709 0.929 . S
H696 C710 0.931 . S
H697 C712 0.930 . S
C698 H686 0.930 . S
C698 C699 1.399 . S
C698 C703 1.399 . S
C699 C698 1.399 . S
C699 C700 1.376 . S
C700 H687 0.930 . S
C700 C699 1.376 . S
C700 C701 1.388 . S
C701 H688 0.930 . S
C701 C700 1.388 . S
C701 C702 1.390 . S
C702 C701 1.390 . S
C702 C703 1.394 . S
C702 C708 1.465 . S
C703 C698 1.399 . S
C703 C702 1.394 . S
C703 C704 1.516 . S
C704 C703 1.516 . S
C704 C705 1.502 1_556 S
C704 C706 1.561 . S
C704 C707 1.526 . S
C705 H689 0.959 . S
C705 H690 0.959 . S
C705 H691 0.961 . S
C705 C704 1.502 1_554 S
C706 H692 0.960 . S
C706 H693 0.961 1_556 S
C706 H694 0.959 . S
C706 C704 1.561 . S
C707 C704 1.526 . S
C707 C708 1.396 . S
C707 C712 1.390 1_556 S
C708 C702 1.465 . S
C708 C707 1.396 . S
C708 C709 1.399 . S
C709 H695 0.929 . S
C709 C708 1.399 . S
C709 C710 1.385 . S
C710 H696 0.931 . S
C710 C709 1.385 . S
C710 C711 1.389 1_556 S
C711 C710 1.389 1_554 S
C711 C712 1.387 . S
C712 H697 0.930 . S
C712 C707 1.390 1_554 S
C712 C711 1.387 . S
H713 C725 0.930 . S
H714 C727 0.930 . S
H715 C728 0.930 . S
H716 C732 0.959 . S
H717 C732 0.959 . S
H718 C732 0.961 . S
H719 C733 0.960 . S
H720 C733 0.961 . S
H721 C733 0.959 . S
H722 C736 0.929 . S
H723 C737 0.931 . S
H724 C739 0.930 . S
C725 H713 0.930 . S
C725 C726 1.399 . S
C725 C730 1.399 . S
C726 C725 1.399 . S
C726 C727 1.376 . S
C727 H714 0.930 . S
C727 C726 1.376 . S
C727 C728 1.388 . S
C728 H715 0.930 . S
C728 C727 1.388 . S
C728 C729 1.390 . S
C729 C728 1.390 . S
C729 C730 1.394 . S
C729 C735 1.465 . S
C730 C725 1.399 . S
C730 C729 1.394 . S
C730 C731 1.516 . S
C731 C730 1.516 . S
C731 C732 1.502 . S
C731 C733 1.561 . S
C731 C734 1.526 . S
C732 H716 0.959 . S
C732 H717 0.959 . S
C732 H718 0.961 . S
C732 C731 1.502 . S
C733 H719 0.960 . S
C733 H720 0.961 . S
C733 H721 0.959 . S
C733 C731 1.561 . S
C734 C731 1.526 . S
C734 C735 1.396 . S
C734 C739 1.390 . S
C735 C729 1.465 . S
C735 C734 1.396 . S
C735 C736 1.399 . S
C736 H722 0.929 . S
C736 C735 1.399 . S
C736 C737 1.385 . S
C737 H723 0.931 . S
C737 C736 1.385 . S
C737 C738 1.389 . S
C738 C737 1.389 . S
C738 C739 1.387 . S
C739 H724 0.930 . S
C739 C734 1.390 . S
C739 C738 1.387 . S
H740 C752 0.930 . S
H741 C754 0.930 . S
H742 C755 0.930 . S
H743 C759 0.959 . S
H744 C759 0.959 . S
H745 C759 0.961 . S
H746 C760 0.960 . S
H747 C760 0.961 . S
H748 C760 0.959 . S
H749 C763 0.929 . S
H750 C764 0.931 . S
H751 C766 0.930 . S
C752 H740 0.930 . S
C752 C753 1.399 . S
C752 C757 1.399 . S
C753 C752 1.399 . S
C753 C754 1.376 . S
C754 H741 0.930 . S
C754 C753 1.376 . S
C754 C755 1.388 . S
C755 H742 0.930 . S
C755 C754 1.388 . S
C755 C756 1.390 . S
C756 C755 1.390 . S
C756 C757 1.394 . S
C756 C762 1.465 . S
C757 C752 1.399 . S
C757 C756 1.394 . S
C757 C758 1.516 . S
C758 C757 1.516 . S
C758 C759 1.502 . S
C758 C760 1.561 . S
C758 C761 1.526 . S
C759 H743 0.959 . S
C759 H744 0.959 . S
C759 H745 0.961 . S
C759 C758 1.502 . S
C760 H746 0.960 . S
C760 H747 0.961 . S
C760 H748 0.959 . S
C760 C758 1.561 . S
C761 C758 1.526 . S
C761 C762 1.396 . S
C761 C766 1.390 . S
C762 C756 1.465 . S
C762 C761 1.396 . S
C762 C763 1.399 . S
C763 H749 0.929 . S
C763 C762 1.399 . S
C763 C764 1.385 . S
C764 H750 0.931 . S
C764 C763 1.385 . S
C764 C765 1.389 . S
C765 C764 1.389 . S
C765 C766 1.387 . S
C766 H751 0.930 . S
C766 C761 1.390 . S
C766 C765 1.387 . S
H767 C779 0.930 . S
H768 C781 0.930 . S
H769 C782 0.930 . S
H770 C786 0.959 . S
H771 C786 0.959 . S
H772 C786 0.961 . S
H773 C787 0.960 . S
H774 C787 0.961 . S
H775 C787 0.959 . S
H776 C790 0.929 . S
H777 C791 0.931 . S
H778 C793 0.930 . S
C779 H767 0.930 . S
C779 C780 1.399 . S
C779 C784 1.399 . S
C780 C779 1.399 . S
C780 C781 1.376 . S
C781 H768 0.930 . S
C781 C780 1.376 . S
C781 C782 1.388 . S
C782 H769 0.930 . S
C782 C781 1.388 . S
C782 C783 1.390 . S
C783 C782 1.390 . S
C783 C784 1.394 . S
C783 C789 1.465 . S
C784 C779 1.399 . S
C784 C783 1.394 . S
C784 C785 1.516 . S
C785 C784 1.516 . S
C785 C786 1.502 . S
C785 C787 1.561 . S
C785 C788 1.526 . S
C786 H770 0.959 . S
C786 H771 0.959 . S
C786 H772 0.961 . S
C786 C785 1.502 . S
C787 H773 0.960 . S
C787 H774 0.961 . S
C787 H775 0.959 . S
C787 C785 1.561 . S
C788 C785 1.526 . S
C788 C789 1.396 . S
C788 C793 1.390 . S
C789 C783 1.465 . S
C789 C788 1.396 . S
C789 C790 1.399 . S
C790 H776 0.929 . S
C790 C789 1.399 . S
C790 C791 1.385 . S
C791 H777 0.931 . S
C791 C790 1.385 . S
C791 C792 1.389 . S
C792 C791 1.389 . S
C792 C793 1.387 . S
C793 H778 0.930 . S
C793 C788 1.390 . S
C793 C792 1.387 . S
H794 C806 0.930 . S
H795 C808 0.930 . S
H796 C809 0.930 . S
H797 C813 0.959 . S
H798 C813 0.959 . S
H799 C813 0.961 . S
H800 C814 0.960 . S
H801 C814 0.961 . S
H802 C814 0.959 . S
H803 C817 0.929 . S
H804 C818 0.931 . S
H805 C820 0.930 . S
C806 H794 0.930 . S
C806 C807 1.399 . S
C806 C811 1.399 . S
C807 C806 1.399 . S
C807 C808 1.376 . S
C808 H795 0.930 . S
C808 C807 1.376 . S
C808 C809 1.388 . S
C809 H796 0.930 . S
C809 C808 1.388 . S
C809 C810 1.390 . S
C810 C809 1.390 . S
C810 C811 1.394 . S
C810 C816 1.465 . S
C811 C806 1.399 . S
C811 C810 1.394 . S
C811 C812 1.516 . S
C812 C811 1.516 . S
C812 C813 1.502 . S
C812 C814 1.561 . S
C812 C815 1.526 . S
C813 H797 0.959 . S
C813 H798 0.959 . S
C813 H799 0.961 . S
C813 C812 1.502 . S
C814 H800 0.960 . S
C814 H801 0.961 . S
C814 H802 0.959 . S
C814 C812 1.561 . S
C815 C812 1.526 . S
C815 C816 1.396 . S
C815 C820 1.390 . S
C816 C810 1.465 . S
C816 C815 1.396 . S
C816 C817 1.399 . S
C817 H803 0.929 . S
C817 C816 1.399 . S
C817 C818 1.385 . S
C818 H804 0.931 . S
C818 C817 1.385 . S
C818 C819 1.389 . S
C819 C818 1.389 . S
C819 C820 1.387 . S
C820 H805 0.930 . S
C820 C815 1.390 . S
C820 C819 1.387 . S
H821 C833 0.930 . S
H822 C835 0.930 . S
H823 C836 0.930 . S
H824 C840 0.959 . S
H825 C840 0.959 . S
H826 C840 0.961 . S
H827 C841 0.960 . S
H828 C841 0.961 . S
H829 C841 0.959 . S
H830 C844 0.929 . S
H831 C845 0.931 . S
H832 C847 0.930 . S
C833 H821 0.930 . S
C833 C834 1.399 . S
C833 C838 1.399 . S
C834 C833 1.399 . S
C834 C835 1.376 . S
C835 H822 0.930 . S
C835 C834 1.376 . S
C835 C836 1.388 . S
C836 H823 0.930 . S
C836 C835 1.388 . S
C836 C837 1.390 . S
C837 C836 1.390 . S
C837 C838 1.394 . S
C837 C843 1.465 . S
C838 C833 1.399 . S
C838 C837 1.394 . S
C838 C839 1.516 . S
C839 C838 1.516 . S
C839 C840 1.502 . S
C839 C841 1.561 . S
C839 C842 1.526 . S
C840 H824 0.959 . S
C840 H825 0.959 . S
C840 H826 0.961 . S
C840 C839 1.502 . S
C841 H827 0.960 . S
C841 H828 0.961 . S
C841 H829 0.959 . S
C841 C839 1.561 . S
C842 C839 1.526 . S
C842 C843 1.396 . S
C842 C847 1.390 . S
C843 C837 1.465 . S
C843 C842 1.396 . S
C843 C844 1.399 1_556 S
C844 H830 0.929 . S
C844 C843 1.399 1_554 S
C844 C845 1.385 . S
C845 H831 0.931 . S
C845 C844 1.385 . S
C845 C846 1.389 . S
C846 C845 1.389 . S
C846 C847 1.387 1_554 S
C847 H832 0.930 . S
C847 C842 1.390 . S
C847 C846 1.387 1_556 S
H848 C860 0.930 . S
H849 C862 0.930 . S
H850 C863 0.930 . S
H851 C867 0.959 . S
H852 C867 0.959 . S
H853 C867 0.961 . S
H854 C868 0.960 . S
H855 C868 0.961 . S
H856 C868 0.959 . S
H857 C871 0.929 . S
H858 C872 0.931 . S
H859 C874 0.930 . S
C860 H848 0.930 . S
C860 C861 1.399 . S
C860 C865 1.399 . S
C861 C860 1.399 . S
C861 C862 1.376 . S
C862 H849 0.930 . S
C862 C861 1.376 . S
C862 C863 1.388 . S
C863 H850 0.930 . S
C863 C862 1.388 . S
C863 C864 1.390 . S
C864 C863 1.390 . S
C864 C865 1.394 . S
C864 C870 1.465 . S
C865 C860 1.399 . S
C865 C864 1.394 . S
C865 C866 1.516 . S
C866 C865 1.516 . S
C866 C867 1.502 . S
C866 C868 1.561 . S
C866 C869 1.526 . S
C867 H851 0.959 . S
C867 H852 0.959 . S
C867 H853 0.961 . S
C867 C866 1.502 . S
C868 H854 0.960 . S
C868 H855 0.961 . S
C868 H856 0.959 . S
C868 C866 1.561 . S
C869 C866 1.526 . S
C869 C870 1.396 . S
C869 C874 1.390 . S
C870 C864 1.465 . S
C870 C869 1.396 . S
C870 C871 1.399 . S
C871 H857 0.929 . S
C871 C870 1.399 . S
C871 C872 1.385 . S
C872 H858 0.931 . S
C872 C871 1.385 . S
C872 C873 1.389 . S
C873 C872 1.389 . S
C873 C874 1.387 . S
C874 H859 0.930 . S
C874 C869 1.390 . S
C874 C873 1.387 . S
H875 C887 0.930 . S
H876 C889 0.930 . S
H877 C890 0.930 . S
H878 C894 0.959 . S
H879 C894 0.959 . S
H880 C894 0.961 . S
H881 C895 0.960 . S
H882 C895 0.961 . S
H883 C895 0.959 . S
H884 C898 0.929 . S
H885 C899 0.931 . S
H886 C901 0.930 . S
C887 H875 0.930 . S
C887 C888 1.399 . S
C887 C892 1.399 . S
C888 C887 1.399 . S
C888 C889 1.376 1_565 S
C889 H876 0.930 . S
C889 C888 1.376 1_545 S
C889 C890 1.388 . S
C890 H877 0.930 . S
C890 C889 1.388 . S
C890 C891 1.390 . S
C891 C890 1.390 . S
C891 C892 1.394 1_545 S
C891 C897 1.465 . S
C892 C887 1.399 . S
C892 C891 1.394 1_565 S
C892 C893 1.516 . S
C893 C892 1.516 . S
C893 C894 1.502 . S
C893 C895 1.561 . S
C893 C896 1.526 . S
C894 H878 0.959 . S
C894 H879 0.959 . S
C894 H880 0.961 . S
C894 C893 1.502 . S
C895 H881 0.960 . S
C895 H882 0.961 . S
C895 H883 0.959 . S
C895 C893 1.561 . S
C896 C893 1.526 . S
C896 C897 1.396 1_565 S
C896 C901 1.390 1_554 S
C897 C891 1.465 . S
C897 C896 1.396 1_545 S
C897 C898 1.399 . S
C898 H884 0.929 . S
C898 C897 1.399 . S
C898 C899 1.385 1_554 S
C899 H885 0.931 . S
C899 C898 1.385 1_556 S
C899 C900 1.389 . S
C900 C899 1.389 . S
C900 C901 1.387 1_545 S
C901 H886 0.930 . S
C901 C896 1.390 1_556 S
C901 C900 1.387 1_565 S
H902 C914 0.930 . S
H903 C916 0.930 . S
H904 C917 0.930 . S
H905 C921 0.959 . S
H906 C921 0.959 . S
H907 C921 0.961 . S
H908 C922 0.960 . S
H909 C922 0.961 . S
H910 C922 0.959 . S
H911 C925 0.929 . S
H912 C926 0.931 . S
H913 C928 0.930 . S
C914 H902 0.930 . S
C914 C915 1.399 . S
C914 C919 1.399 . S
C915 C914 1.399 . S
C915 C916 1.376 . S
C916 H903 0.930 . S
C916 C915 1.376 . S
C916 C917 1.388 . S
C917 H904 0.930 . S
C917 C916 1.388 . S
C917 C918 1.390 . S
C918 C917 1.390 . S
C918 C919 1.394 . S
C918 C924 1.465 . S
C919 C914 1.399 . S
C919 C918 1.394 . S
C919 C920 1.516 . S
C920 C919 1.516 . S
C920 C921 1.502 . S
C920 C922 1.561 . S
C920 C923 1.526 . S
C921 H905 0.959 . S
C921 H906 0.959 . S
C921 H907 0.961 . S
C921 C920 1.502 . S
C922 H908 0.960 . S
C922 H909 0.961 . S
C922 H910 0.959 . S
C922 C920 1.561 . S
C923 C920 1.526 . S
C923 C924 1.396 . S
C923 C928 1.390 . S
C924 C918 1.465 . S
C924 C923 1.396 . S
C924 C925 1.399 . S
C925 H911 0.929 . S
C925 C924 1.399 . S
C925 C926 1.385 . S
C926 H912 0.931 . S
C926 C925 1.385 . S
C926 C927 1.389 . S
C927 C926 1.389 . S
C927 C928 1.387 . S
C928 H913 0.930 . S
C928 C923 1.390 . S
C928 C927 1.387 . S
H929 C941 0.971 . S
H930 C943 0.930 . S
H931 C944 0.930 . S
H932 C948 0.959 . S
H933 C948 0.959 . S
H934 C948 0.961 . S
H935 C949 0.960 . S
H936 C949 0.961 . S
H937 C949 0.959 . S
H938 C952 0.929 . S
H939 C953 0.931 . S
H940 C955 0.930 . S
C941 H929 0.971 . S
C941 C942 1.351 1_565 S
C941 C946 1.409 . S
C942 C941 1.351 1_545 S
C942 C943 1.376 . S
C943 H930 0.930 . S
C943 C942 1.376 . S
C943 C944 1.388 . S
C944 H931 0.930 . S
C944 C943 1.388 . S
C944 C945 1.390 . S
C945 C944 1.390 . S
C945 C946 1.394 1_545 S
C945 C951 1.465 . S
C946 C941 1.409 . S
C946 C945 1.394 1_565 S
C946 C947 1.516 . S
C947 C946 1.516 . S
C947 C948 1.502 . S
C947 C949 1.561 . S
C947 C950 1.526 . S
C948 H932 0.959 . S
C948 H933 0.959 . S
C948 H934 0.961 . S
C948 C947 1.502 . S
C949 H935 0.960 . S
C949 H936 0.961 . S
C949 H937 0.959 . S
C949 C947 1.561 . S
C950 C947 1.526 . S
C950 C951 1.396 1_565 S
C950 C955 1.390 . S
C951 C945 1.465 . S
C951 C950 1.396 1_545 S
C951 C952 1.399 . S
C952 H938 0.929 . S
C952 C951 1.399 . S
C952 C953 1.385 . S
C953 H939 0.931 . S
C953 C952 1.385 . S
C953 C954 1.389 1_545 S
C954 C953 1.389 1_565 S
C954 C955 1.387 . S
C955 H940 0.930 . S
C955 C950 1.390 . S
C955 C954 1.387 . S
H956 C968 0.930 . S
H957 C970 0.930 . S
H958 C971 0.930 . S
H959 C975 0.959 . S
H960 C975 0.959 . S
H961 C975 0.961 . S
H962 C976 0.960 . S
H963 C976 0.961 . S
H964 C976 0.959 . S
H965 C979 0.929 . S
H966 C980 0.931 . S
H967 C982 0.930 . S
C968 H956 0.930 . S
C968 C969 1.399 . S
C968 C973 1.399 . S
C969 C968 1.399 . S
C969 C970 1.376 . S
C970 H957 0.930 . S
C970 C969 1.376 . S
C970 C971 1.388 . S
C971 H958 0.930 . S
C971 C970 1.388 . S
C971 C972 1.390 . S
C972 C971 1.390 . S
C972 C973 1.394 . S
C972 C978 1.465 . S
C973 C968 1.399 . S
C973 C972 1.394 . S
C973 C974 1.516 . S
C974 C973 1.516 . S
C974 C975 1.502 . S
C974 C976 1.561 . S
C974 C977 1.526 . S
C975 H959 0.959 . S
C975 H960 0.959 . S
C975 H961 0.961 . S
C975 C974 1.502 . S
C976 H962 0.960 . S
C976 H963 0.961 . S
C976 H964 0.959 . S
C976 C974 1.561 . S
C977 C974 1.526 . S
C977 C978 1.396 . S
C977 C982 1.390 . S
C978 C972 1.465 . S
C978 C977 1.396 . S
C978 C979 1.399 . S
C979 H965 0.929 . S
C979 C978 1.399 . S
C979 C980 1.385 . S
C980 H966 0.931 . S
C980 C979 1.385 . S
C980 C981 1.389 . S
C981 C980 1.389 . S
C981 C982 1.387 . S
C982 H967 0.930 . S
C982 C977 1.390 . S
C982 C981 1.387 . S
H983 C995 0.930 . S
H984 C997 0.930 . S
H985 C998 0.930 . S
H986 C1002 0.959 . S
H987 C1002 0.959 . S
H988 C1002 0.961 . S
H989 C1003 0.960 . S
H990 C1003 0.961 . S
H991 C1003 0.959 . S
H992 C1006 0.929 . S
H993 C1007 0.931 . S
H994 C1009 0.930 . S
C995 H983 0.930 . S
C995 C996 1.399 . S
C995 C1000 1.399 1_556 S
C996 C995 1.399 . S
C996 C997 1.376 1_545 S
C997 H984 0.930 . S
C997 C996 1.376 1_565 S
C997 C998 1.388 . S
C998 H985 0.930 . S
C998 C997 1.388 . S
C998 C999 1.390 1_556 S
C999 C998 1.390 1_554 S
C999 C1000 1.394 1_565 S
C999 C1005 1.465 . S
C1000 C995 1.399 1_554 S
C1000 C999 1.394 1_545 S
C1000 C1001 1.516 . S
C1001 C1000 1.516 . S
C1001 C1002 1.502 . S
C1001 C1003 1.561 . S
C1001 C1004 1.526 . S
C1002 H986 0.959 . S
C1002 H987 0.959 . S
C1002 H988 0.961 . S
C1002 C1001 1.502 . S
C1003 H989 0.960 . S
C1003 H990 0.961 . S
C1003 H991 0.959 . S
C1003 C1001 1.561 . S
C1004 C1001 1.526 . S
C1004 C1005 1.396 1_545 S
C1004 C1009 1.390 . S
C1005 C999 1.465 . S
C1005 C1004 1.396 1_565 S
C1005 C1006 1.399 . S
C1006 H992 0.929 . S
C1006 C1005 1.399 . S
C1006 C1007 1.385 . S
C1007 H993 0.931 . S
C1007 C1006 1.385 . S
C1007 C1008 1.389 . S
C1008 C1007 1.389 . S
C1008 C1009 1.387 1_565 S
C1009 H994 0.930 . S
C1009 C1004 1.390 . S
C1009 C1008 1.387 1_545 S
H1010 C1022 0.930 . S
H1011 C1024 0.930 . S
H1012 C1025 0.930 . S
H1013 C1029 0.959 . S
H1014 C1029 0.959 . S
H1015 C1029 0.961 . S
H1016 C1030 0.960 . S
H1017 C1030 0.961 . S
H1018 C1030 0.959 . S
H1019 C1033 0.929 . S
H1020 C1034 0.931 . S
H1021 C1036 0.930 . S
C1022 H1010 0.930 . S
C1022 C1023 1.399 . S
C1022 C1027 1.399 . S
C1023 C1022 1.399 . S
C1023 C1024 1.376 . S
C1024 H1011 0.930 . S
C1024 C1023 1.376 . S
C1024 C1025 1.388 . S
C1025 H1012 0.930 . S
C1025 C1024 1.388 . S
C1025 C1026 1.390 . S
C1026 C1025 1.390 . S
C1026 C1027 1.394 . S
C1026 C1032 1.465 . S
C1027 C1022 1.399 . S
C1027 C1026 1.394 . S
C1027 C1028 1.516 . S
C1028 C1027 1.516 . S
C1028 C1029 1.502 . S
C1028 C1030 1.561 . S
C1028 C1031 1.526 . S
C1029 H1013 0.959 . S
C1029 H1014 0.959 . S
C1029 H1015 0.961 . S
C1029 C1028 1.502 . S
C1030 H1016 0.960 . S
C1030 H1017 0.961 . S
C1030 H1018 0.959 . S
C1030 C1028 1.561 . S
C1031 C1028 1.526 . S
C1031 C1032 1.396 . S
C1031 C1036 1.390 . S
C1032 C1026 1.465 . S
C1032 C1031 1.396 . S
C1032 C1033 1.399 . S
C1033 H1019 0.929 . S
C1033 C1032 1.399 . S
C1033 C1034 1.385 . S
C1034 H1020 0.931 . S
C1034 C1033 1.385 . S
C1034 C1035 1.389 . S
C1035 C1034 1.389 . S
C1035 C1036 1.387 . S
C1036 H1021 0.930 . S
C1036 C1031 1.390 . S
C1036 C1035 1.387 . S
H1037 C1049 0.930 . S
H1038 C1051 0.930 . S
H1039 C1052 0.930 . S
H1040 C1056 0.959 . S
H1041 C1056 0.959 . S
H1042 C1056 0.961 . S
H1043 C1057 0.960 . S
H1044 C1057 0.961 . S
H1045 C1057 0.959 . S
H1046 C1060 0.929 . S
H1047 C1061 0.931 . S
H1048 C1063 0.930 . S
C1049 H1037 0.930 . S
C1049 C1050 1.399 . S
C1049 C1054 1.399 . S
C1050 C1049 1.399 . S
C1050 C1051 1.376 1_545 S
C1051 H1038 0.930 . S
C1051 C1050 1.376 1_565 S
C1051 C1052 1.388 . S
C1052 H1039 0.930 . S
C1052 C1051 1.388 . S
C1052 C1053 1.390 . S
C1053 C1052 1.390 . S
C1053 C1054 1.394 1_565 S
C1053 C1059 1.465 . S
C1054 C1049 1.399 . S
C1054 C1053 1.394 1_545 S
C1054 C1055 1.516 . S
C1055 C1054 1.516 . S
C1055 C1056 1.502 . S
C1055 C1057 1.561 . S
C1055 C1058 1.526 . S
C1056 H1040 0.959 . S
C1056 H1041 0.959 . S
C1056 H1042 0.961 . S
C1056 C1055 1.502 . S
C1057 H1043 0.960 . S
C1057 H1044 0.961 . S
C1057 H1045 0.959 . S
C1057 C1055 1.561 . S
C1058 C1055 1.526 . S
C1058 C1059 1.396 1_545 S
C1058 C1063 1.390 . S
C1059 C1053 1.465 . S
C1059 C1058 1.396 1_565 S
C1059 C1060 1.399 . S
C1060 H1046 0.929 . S
C1060 C1059 1.399 . S
C1060 C1061 1.385 . S
C1061 H1047 0.931 . S
C1061 C1060 1.385 . S
C1061 C1062 1.389 . S
C1062 C1061 1.389 . S
C1062 C1063 1.387 1_565 S
C1063 H1048 0.930 . S
C1063 C1058 1.390 . S
C1063 C1062 1.387 1_545 S
H1064 C1076 0.930 . S
H1065 C1078 0.930 . S
H1066 C1079 0.930 . S
H1067 C1083 0.959 . S
H1068 C1083 0.959 . S
H1069 C1083 0.961 . S
H1070 C1084 0.960 . S
H1071 C1084 0.961 . S
H1072 C1084 0.959 . S
H1073 C1087 0.929 . S
H1074 C1088 0.931 . S
H1075 C1090 0.930 . S
C1076 H1064 0.930 . S
C1076 C1077 1.399 . S
C1076 C1081 1.399 . S
C1077 C1076 1.399 . S
C1077 C1078 1.376 . S
C1078 H1065 0.930 . S
C1078 C1077 1.376 . S
C1078 C1079 1.388 . S
C1079 H1066 0.930 . S
C1079 C1078 1.388 . S
C1079 C1080 1.390 . S
C1080 C1079 1.390 . S
C1080 C1081 1.394 . S
C1080 C1086 1.465 . S
C1081 C1076 1.399 . S
C1081 C1080 1.394 . S
C1081 C1082 1.516 . S
C1082 C1081 1.516 . S
C1082 C1083 1.502 . S
C1082 C1084 1.561 . S
C1082 C1085 1.526 . S
C1083 H1067 0.959 . S
C1083 H1068 0.959 . S
C1083 H1069 0.961 . S
C1083 C1082 1.502 . S
C1084 H1070 0.960 . S
C1084 H1071 0.961 . S
C1084 H1072 0.959 . S
C1084 C1082 1.561 . S
C1085 C1082 1.526 . S
C1085 C1086 1.396 . S
C1085 C1090 1.390 . S
C1086 C1080 1.465 . S
C1086 C1085 1.396 . S
C1086 C1087 1.399 . S
C1087 H1073 0.929 . S
C1087 C1086 1.399 . S
C1087 C1088 1.385 . S
C1088 H1074 0.931 . S
C1088 C1087 1.385 . S
C1088 C1089 1.389 . S
C1089 C1088 1.389 . S
C1089 C1090 1.387 . S
C1090 H1075 0.930 . S
C1090 C1085 1.390 . S
C1090 C1089 1.387 . S
H1091 C1103 0.930 . S
H1092 C1105 0.930 . S
H1093 C1106 0.930 . S
H1094 C1110 0.959 . S
H1095 C1110 0.959 . S
H1096 C1110 0.961 . S
H1097 C1111 0.960 . S
H1098 C1111 0.961 . S
H1099 C1111 0.959 . S
H1100 C1114 0.929 . S
H1101 C1115 0.931 . S
H1102 C1117 0.930 . S
C1103 H1091 0.930 . S
C1103 C1104 1.399 . S
C1103 C1108 1.399 . S
C1104 C1103 1.399 . S
C1104 C1105 1.376 . S
C1105 H1092 0.930 . S
C1105 C1104 1.376 . S
C1105 C1106 1.388 . S
C1106 H1093 0.930 . S
C1106 C1105 1.388 . S
C1106 C1107 1.390 . S
C1107 C1106 1.390 . S
C1107 C1108 1.394 . S
C1107 C1113 1.465 . S
C1108 C1103 1.399 . S
C1108 C1107 1.394 . S
C1108 C1109 1.516 . S
C1109 C1108 1.516 . S
C1109 C1110 1.502 . S
C1109 C1111 1.561 . S
C1109 C1112 1.526 . S
C1110 H1094 0.959 . S
C1110 H1095 0.959 . S
C1110 H1096 0.961 . S
C1110 C1109 1.502 . S
C1111 H1097 0.960 . S
C1111 H1098 0.961 . S
C1111 H1099 0.959 . S
C1111 C1109 1.561 . S
C1112 C1109 1.526 . S
C1112 C1113 1.396 . S
C1112 C1117 1.390 . S
C1113 C1107 1.465 . S
C1113 C1112 1.396 . S
C1113 C1114 1.399 . S
C1114 H1100 0.929 . S
C1114 C1113 1.399 . S
C1114 C1115 1.385 . S
C1115 H1101 0.931 . S
C1115 C1114 1.385 . S
C1115 C1116 1.389 . S
C1116 C1115 1.389 . S
C1116 C1117 1.387 . S
C1117 H1102 0.930 . S
C1117 C1112 1.390 . S
C1117 C1116 1.387 . S
H1118 C1130 0.930 . S
H1119 C1132 0.930 . S
H1120 C1133 0.930 . S
H1121 C1137 0.959 . S
H1122 C1137 0.959 . S
H1123 C1137 0.961 . S
H1124 C1138 0.960 . S
H1125 C1138 0.961 . S
H1126 C1138 0.959 . S
H1127 C1141 0.929 . S
H1128 C1142 0.931 . S
H1129 C1144 0.930 . S
C1130 H1118 0.930 . S
C1130 C1131 1.399 . S
C1130 C1135 1.399 . S
C1131 C1130 1.399 . S
C1131 C1132 1.376 . S
C1132 H1119 0.930 . S
C1132 C1131 1.376 . S
C1132 C1133 1.388 . S
C1133 H1120 0.930 . S
C1133 C1132 1.388 . S
C1133 C1134 1.390 . S
C1134 C1133 1.390 . S
C1134 C1135 1.394 . S
C1134 C1140 1.465 . S
C1135 C1130 1.399 . S
C1135 C1134 1.394 . S
C1135 C1136 1.516 . S
C1136 C1135 1.516 . S
C1136 C1137 1.502 . S
C1136 C1138 1.561 . S
C1136 C1139 1.526 . S
C1137 H1121 0.959 . S
C1137 H1122 0.959 . S
C1137 H1123 0.961 . S
C1137 C1136 1.502 . S
C1138 H1124 0.960 . S
C1138 H1125 0.961 . S
C1138 H1126 0.959 . S
C1138 C1136 1.561 . S
C1139 C1136 1.526 . S
C1139 C1140 1.396 . S
C1139 C1144 1.390 . S
C1140 C1134 1.465 . S
C1140 C1139 1.396 . S
C1140 C1141 1.399 . S
C1141 H1127 0.929 . S
C1141 C1140 1.399 . S
C1141 C1142 1.385 . S
C1142 H1128 0.931 . S
C1142 C1141 1.385 . S
C1142 C1143 1.389 . S
C1143 C1142 1.389 . S
C1143 C1144 1.387 . S
C1144 H1129 0.930 . S
C1144 C1139 1.390 . S
C1144 C1143 1.387 . S
H1145 C1157 0.930 . S
H1146 C1159 0.930 . S
H1147 C1160 0.930 . S
H1148 C1164 0.959 . S
H1149 C1164 0.959 . S
H1150 C1164 0.961 . S
H1151 C1165 0.960 . S
H1152 C1165 0.961 . S
H1153 C1165 0.959 . S
H1154 C1168 0.929 . S
H1155 C1169 0.931 . S
H1156 C1171 0.930 . S
C1157 H1145 0.930 . S
C1157 C1158 1.399 . S
C1157 C1162 1.399 . S
C1158 C1157 1.399 . S
C1158 C1159 1.376 . S
C1159 H1146 0.930 . S
C1159 C1158 1.376 . S
C1159 C1160 1.388 . S
C1160 H1147 0.930 . S
C1160 C1159 1.388 . S
C1160 C1161 1.390 . S
C1161 C1160 1.390 . S
C1161 C1162 1.394 . S
C1161 C1167 1.465 . S
C1162 C1157 1.399 . S
C1162 C1161 1.394 . S
C1162 C1163 1.516 . S
C1163 C1162 1.516 . S
C1163 C1164 1.502 . S
C1163 C1165 1.561 . S
C1163 C1166 1.526 . S
C1164 H1148 0.959 . S
C1164 H1149 0.959 . S
C1164 H1150 0.961 . S
C1164 C1163 1.502 . S
C1165 H1151 0.960 . S
C1165 H1152 0.961 . S
C1165 H1153 0.959 . S
C1165 C1163 1.561 . S
C1166 C1163 1.526 . S
C1166 C1167 1.396 . S
C1166 C1171 1.390 1_554 S
C1167 C1161 1.465 . S
C1167 C1166 1.396 . S
C1167 C1168 1.399 . S
C1168 H1154 0.929 . S
C1168 C1167 1.399 . S
C1168 C1169 1.385 1_554 S
C1169 H1155 0.931 . S
C1169 C1168 1.385 1_556 S
C1169 C1170 1.389 . S
C1170 C1169 1.389 . S
C1170 C1171 1.387 . S
C1171 H1156 0.930 . S
C1171 C1166 1.390 1_556 S
C1171 C1170 1.387 . S
H1172 C1184 0.930 . S
H1173 C1186 0.930 . S
H1174 C1187 0.930 . S
H1175 C1191 0.959 . S
H1176 C1191 0.959 . S
H1177 C1191 0.961 . S
H1178 C1192 0.960 . S
H1179 C1192 0.961 . S
H1180 C1192 0.959 . S
H1181 C1195 0.929 . S
H1182 C1196 0.931 . S
H1183 C1198 0.930 . S
C1184 H1172 0.930 . S
C1184 C1185 1.399 . S
C1184 C1189 1.399 . S
C1185 C1184 1.399 . S
C1185 C1186 1.376 . S
C1186 H1173 0.930 . S
C1186 C1185 1.376 . S
C1186 C1187 1.388 . S
C1187 H1174 0.930 . S
C1187 C1186 1.388 . S
C1187 C1188 1.390 . S
C1188 C1187 1.390 . S
C1188 C1189 1.394 . S
C1188 C1194 1.465 . S
C1189 C1184 1.399 . S
C1189 C1188 1.394 . S
C1189 C1190 1.516 . S
C1190 C1189 1.516 . S
C1190 C1191 1.502 . S
C1190 C1192 1.561 . S
C1190 C1193 1.526 . S
C1191 H1175 0.959 . S
C1191 H1176 0.959 . S
C1191 H1177 0.961 . S
C1191 C1190 1.502 . S
C1192 H1178 0.960 . S
C1192 H1179 0.961 . S
C1192 H1180 0.959 . S
C1192 C1190 1.561 . S
C1193 C1190 1.526 . S
C1193 C1194 1.396 . S
C1193 C1198 1.390 . S
C1194 C1188 1.465 . S
C1194 C1193 1.396 . S
C1194 C1195 1.399 . S
C1195 H1181 0.929 . S
C1195 C1194 1.399 . S
C1195 C1196 1.385 . S
C1196 H1182 0.931 . S
C1196 C1195 1.385 . S
C1196 C1197 1.389 . S
C1197 C1196 1.389 . S
C1197 C1198 1.387 . S
C1198 H1183 0.930 . S
C1198 C1193 1.390 . S
C1198 C1197 1.387 . S
H1199 C1211 0.930 . S
H1200 C1213 0.930 . S
H1201 C1214 0.930 . S
H1202 C1218 0.959 . S
H1203 C1218 0.959 . S
H1204 C1218 0.961 . S
H1205 C1219 0.960 . S
H1206 C1219 0.961 . S
H1207 C1219 0.959 . S
H1208 C1222 0.929 . S
H1209 C1223 0.931 . S
H1210 C1225 0.930 . S
C1211 H1199 0.930 . S
C1211 C1212 1.399 . S
C1211 C1216 1.399 . S
C1212 C1211 1.399 . S
C1212 C1213 1.376 . S
C1213 H1200 0.930 . S
C1213 C1212 1.376 . S
C1213 C1214 1.388 . S
C1214 H1201 0.930 . S
C1214 C1213 1.388 . S
C1214 C1215 1.390 . S
C1215 C1214 1.390 . S
C1215 C1216 1.394 . S
C1215 C1221 1.465 . S
C1216 C1211 1.399 . S
C1216 C1215 1.394 . S
C1216 C1217 1.516 . S
C1217 C1216 1.516 . S
C1217 C1218 1.502 . S
C1217 C1219 1.561 . S
C1217 C1220 1.526 . S
C1218 H1202 0.959 . S
C1218 H1203 0.959 . S
C1218 H1204 0.961 . S
C1218 C1217 1.502 . S
C1219 H1205 0.960 . S
C1219 H1206 0.961 . S
C1219 H1207 0.959 . S
C1219 C1217 1.561 . S
C1220 C1217 1.526 . S
C1220 C1221 1.396 . S
C1220 C1225 1.390 . S
C1221 C1215 1.465 . S
C1221 C1220 1.396 . S
C1221 C1222 1.399 . S
C1222 H1208 0.929 . S
C1222 C1221 1.399 . S
C1222 C1223 1.385 . S
C1223 H1209 0.931 . S
C1223 C1222 1.385 . S
C1223 C1224 1.389 . S
C1224 C1223 1.389 . S
C1224 C1225 1.387 . S
C1225 H1210 0.930 . S
C1225 C1220 1.390 . S
C1225 C1224 1.387 . S
H1226 C1238 0.930 . S
H1227 C1240 0.930 . S
H1228 C1241 0.930 . S
H1229 C1245 0.959 . S
H1230 C1245 0.959 . S
H1231 C1245 0.961 . S
H1232 C1246 0.960 . S
H1233 C1246 0.961 . S
H1234 C1246 0.959 . S
H1235 C1249 0.929 . S
H1236 C1250 0.931 . S
H1237 C1252 0.930 . S
C1238 H1226 0.930 . S
C1238 C1239 1.399 . S
C1238 C1243 1.399 . S
C1239 C1238 1.399 . S
C1239 C1240 1.376 . S
C1240 H1227 0.930 . S
C1240 C1239 1.376 . S
C1240 C1241 1.388 . S
C1241 H1228 0.930 . S
C1241 C1240 1.388 . S
C1241 C1242 1.390 . S
C1242 C1241 1.390 . S
C1242 C1243 1.394 . S
C1242 C1248 1.465 . S
C1243 C1238 1.399 . S
C1243 C1242 1.394 . S
C1243 C1244 1.516 . S
C1244 C1243 1.516 . S
C1244 C1245 1.502 . S
C1244 C1246 1.561 . S
C1244 C1247 1.526 . S
C1245 H1229 0.959 . S
C1245 H1230 0.959 . S
C1245 H1231 0.961 . S
C1245 C1244 1.502 . S
C1246 H1232 0.960 . S
C1246 H1233 0.961 . S
C1246 H1234 0.959 . S
C1246 C1244 1.561 . S
C1247 C1244 1.526 . S
C1247 C1248 1.396 . S
C1247 C1252 1.390 . S
C1248 C1242 1.465 . S
C1248 C1247 1.396 . S
C1248 C1249 1.399 . S
C1249 H1235 0.929 . S
C1249 C1248 1.399 . S
C1249 C1250 1.385 . S
C1250 H1236 0.931 . S
C1250 C1249 1.385 . S
C1250 C1251 1.389 . S
C1251 C1250 1.389 . S
C1251 C1252 1.387 . S
C1252 H1237 0.930 . S
C1252 C1247 1.390 . S
C1252 C1251 1.387 . S
H1253 C1265 0.930 . S
H1254 C1267 0.930 . S
H1255 C1268 0.930 . S
H1256 C1272 0.959 . S
H1257 C1272 0.959 . S
H1258 C1272 0.961 . S
H1259 C1273 0.960 . S
H1260 C1273 0.961 . S
H1261 C1273 0.959 . S
H1262 C1276 0.929 . S
H1263 C1277 0.931 . S
H1264 C1279 0.930 . S
C1265 H1253 0.930 . S
C1265 C1266 1.399 . S
C1265 C1270 1.399 . S
C1266 C1265 1.399 . S
C1266 C1267 1.376 . S
C1267 H1254 0.930 . S
C1267 C1266 1.376 . S
C1267 C1268 1.388 . S
C1268 H1255 0.930 . S
C1268 C1267 1.388 . S
C1268 C1269 1.390 . S
C1269 C1268 1.390 . S
C1269 C1270 1.394 . S
C1269 C1275 1.465 . S
C1270 C1265 1.399 . S
C1270 C1269 1.394 . S
C1270 C1271 1.516 . S
C1271 C1270 1.516 . S
C1271 C1272 1.502 . S
C1271 C1273 1.561 . S
C1271 C1274 1.526 . S
C1272 H1256 0.959 . S
C1272 H1257 0.959 . S
C1272 H1258 0.961 . S
C1272 C1271 1.502 . S
C1273 H1259 0.960 . S
C1273 H1260 0.961 . S
C1273 H1261 0.959 . S
C1273 C1271 1.561 . S
C1274 C1271 1.526 . S
C1274 C1275 1.396 . S
C1274 C1279 1.390 1_554 S
C1275 C1269 1.465 . S
C1275 C1274 1.396 . S
C1275 C1276 1.399 1_554 S
C1276 H1262 0.929 . S
C1276 C1275 1.399 1_556 S
C1276 C1277 1.385 . S
C1277 H1263 0.931 . S
C1277 C1276 1.385 . S
C1277 C1278 1.389 . S
C1278 C1277 1.389 . S
C1278 C1279 1.387 . S
C1279 H1264 0.930 . S
C1279 C1274 1.390 1_556 S
C1279 C1278 1.387 . S
H1280 C1292 0.930 . S
H1281 C1294 0.930 . S
H1282 C1295 0.930 . S
H1283 C1299 0.959 1_554 S
H1284 C1299 0.959 . S
H1285 C1299 0.961 . S
H1286 C1300 0.960 . S
H1287 C1300 0.961 . S
H1288 C1300 0.959 . S
H1289 C1303 0.929 . S
H1290 C1304 0.931 . S
H1291 C1306 0.930 . S
C1292 H1280 0.930 . S
C1292 C1293 1.399 . S
C1292 C1297 1.399 . S
C1293 C1292 1.399 . S
C1293 C1294 1.376 . S
C1294 H1281 0.930 . S
C1294 C1293 1.376 . S
C1294 C1295 1.388 . S
C1295 H1282 0.930 . S
C1295 C1294 1.388 . S
C1295 C1296 1.390 . S
C1296 C1295 1.390 . S
C1296 C1297 1.394 . S
C1296 C1302 1.465 . S
C1297 C1292 1.399 . S
C1297 C1296 1.394 . S
C1297 C1298 1.516 . S
C1298 C1297 1.516 . S
C1298 C1299 1.502 1_554 S
C1298 C1300 1.561 1_554 S
C1298 C1301 1.526 . S
C1299 H1283 0.959 1_556 S
C1299 H1284 0.959 . S
C1299 H1285 0.961 . S
C1299 C1298 1.502 1_556 S
C1300 H1286 0.960 . S
C1300 H1287 0.961 . S
C1300 H1288 0.959 . S
C1300 C1298 1.561 1_556 S
C1301 C1298 1.526 . S
C1301 C1302 1.396 . S
C1301 C1306 1.390 . S
C1302 C1296 1.465 . S
C1302 C1301 1.396 . S
C1302 C1303 1.399 . S
C1303 H1289 0.929 . S
C1303 C1302 1.399 . S
C1303 C1304 1.385 . S
C1304 H1290 0.931 . S
C1304 C1303 1.385 . S
C1304 C1305 1.389 . S
C1305 C1304 1.389 . S
C1305 C1306 1.387 . S
C1306 H1291 0.930 . S
C1306 C1301 1.390 . S
C1306 C1305 1.387 . S
H1307 C1319 0.930 . S
H1308 C1321 0.930 . S
H1309 C1322 0.930 . S
H1310 C1326 0.962 . S
H1311 C1326 0.977 . S
H1312 C1326 0.941 1_455 S
H1313 C1327 0.960 1_455 S
H1314 C1327 0.961 . S
H1315 C1327 0.959 . S
H1316 C1330 0.929 . S
H1317 C1331 0.931 . S
H1318 C1333 0.930 . S
C1319 H1307 0.930 . S
C1319 C1320 1.399 . S
C1319 C1324 1.399 . S
C1320 C1319 1.399 . S
C1320 C1321 1.376 . S
C1321 H1308 0.930 . S
C1321 C1320 1.376 . S
C1321 C1322 1.388 . S
C1322 H1309 0.930 . S
C1322 C1321 1.388 . S
C1322 C1323 1.390 . S
C1323 C1322 1.390 . S
C1323 C1324 1.394 . S
C1323 C1329 1.465 1_455 S
C1324 C1319 1.399 . S
C1324 C1323 1.394 . S
C1324 C1325 1.519 1_455 S
C1325 C1324 1.519 1_655 S
C1325 C1326 1.502 . S
C1325 C1327 1.561 . S
C1325 C1328 1.523 . S
C1326 H1310 0.962 . S
C1326 H1311 0.977 . S
C1326 H1312 0.941 1_655 S
C1326 C1325 1.502 . S
C1327 H1313 0.960 1_655 S
C1327 H1314 0.961 . S
C1327 H1315 0.959 . S
C1327 C1325 1.561 . S
C1328 C1325 1.523 . S
C1328 C1329 1.396 . S
C1328 C1333 1.390 . S
C1329 C1323 1.465 1_655 S
C1329 C1328 1.396 . S
C1329 C1330 1.399 . S
C1330 H1316 0.929 . S
C1330 C1329 1.399 . S
C1330 C1331 1.385 . S
C1331 H1317 0.931 . S
C1331 C1330 1.385 . S
C1331 C1332 1.389 . S
C1332 C1331 1.389 . S
C1332 C1333 1.387 . S
C1333 H1318 0.930 . S
C1333 C1328 1.390 . S
C1333 C1332 1.387 . S
H1334 C1346 0.930 . S
H1335 C1348 0.930 . S
H1336 C1349 0.930 . S
H1337 C1353 0.959 . S
H1338 C1353 0.959 . S
H1339 C1353 0.961 . S
H1340 C1354 0.960 . S
H1341 C1354 0.961 . S
H1342 C1354 0.959 . S
H1343 C1357 0.929 . S
H1344 C1358 0.931 . S
H1345 C1360 0.930 . S
C1346 H1334 0.930 . S
C1346 C1347 1.399 . S
C1346 C1351 1.399 . S
C1347 C1346 1.399 . S
C1347 C1348 1.376 . S
C1348 H1335 0.930 . S
C1348 C1347 1.376 . S
C1348 C1349 1.388 . S
C1349 H1336 0.930 . S
C1349 C1348 1.388 . S
C1349 C1350 1.390 . S
C1350 C1349 1.390 . S
C1350 C1351 1.394 . S
C1350 C1356 1.465 . S
C1351 C1346 1.399 . S
C1351 C1350 1.394 . S
C1351 C1352 1.516 . S
C1352 C1351 1.516 . S
C1352 C1353 1.502 . S
C1352 C1354 1.561 . S
C1352 C1355 1.526 . S
C1353 H1337 0.959 . S
C1353 H1338 0.959 . S
C1353 H1339 0.961 . S
C1353 C1352 1.502 . S
C1354 H1340 0.960 . S
C1354 H1341 0.961 . S
C1354 H1342 0.959 . S
C1354 C1352 1.561 . S
C1355 C1352 1.526 . S
C1355 C1356 1.396 . S
C1355 C1360 1.390 . S
C1356 C1350 1.465 . S
C1356 C1355 1.396 . S
C1356 C1357 1.399 . S
C1357 H1343 0.929 . S
C1357 C1356 1.399 . S
C1357 C1358 1.385 . S
C1358 H1344 0.931 . S
C1358 C1357 1.385 . S
C1358 C1359 1.389 . S
C1359 C1358 1.389 . S
C1359 C1360 1.387 . S
C1360 H1345 0.930 . S
C1360 C1355 1.390 . S
C1360 C1359 1.387 . S
H1361 C1373 0.930 . S
H1362 C1375 0.930 . S
H1363 C1376 0.930 . S
H1364 C1380 0.959 . S
H1365 C1380 0.959 . S
H1366 C1380 0.961 . S
H1367 C1381 0.960 . S
H1368 C1381 0.961 . S
H1369 C1381 0.959 . S
H1370 C1384 0.929 . S
H1371 C1385 0.931 . S
H1372 C1387 0.930 . S
C1373 H1361 0.930 . S
C1373 C1374 1.399 . S
C1373 C1378 1.399 . S
C1374 C1373 1.399 . S
C1374 C1375 1.376 . S
C1375 H1362 0.930 . S
C1375 C1374 1.376 . S
C1375 C1376 1.388 . S
C1376 H1363 0.930 . S
C1376 C1375 1.388 . S
C1376 C1377 1.390 . S
C1377 C1376 1.390 . S
C1377 C1378 1.394 . S
C1377 C1383 1.465 . S
C1378 C1373 1.399 . S
C1378 C1377 1.394 . S
C1378 C1379 1.516 . S
C1379 C1378 1.516 . S
C1379 C1380 1.502 1_545 S
C1379 C1381 1.561 . S
C1379 C1382 1.526 . S
C1380 H1364 0.959 . S
C1380 H1365 0.959 . S
C1380 H1366 0.961 . S
C1380 C1379 1.502 1_565 S
C1381 H1367 0.960 . S
C1381 H1368 0.961 . S
C1381 H1369 0.959 . S
C1381 C1379 1.561 . S
C1382 C1379 1.526 . S
C1382 C1383 1.396 . S
C1382 C1387 1.390 . S
C1383 C1377 1.465 . S
C1383 C1382 1.396 . S
C1383 C1384 1.399 . S
C1384 H1370 0.929 . S
C1384 C1383 1.399 . S
C1384 C1385 1.385 . S
C1385 H1371 0.931 . S
C1385 C1384 1.385 . S
C1385 C1386 1.389 . S
C1386 C1385 1.389 . S
C1386 C1387 1.387 . S
C1387 H1372 0.930 . S
C1387 C1382 1.390 . S
C1387 C1386 1.387 . S
H1388 C1400 0.930 . S
H1389 C1402 0.930 1_556 S
H1390 C1403 0.930 1_556 S
H1391 C1407 0.959 . S
H1392 C1407 0.959 . S
H1393 C1407 0.961 . S
H1394 C1408 0.960 . S
H1395 C1408 0.961 . S
H1396 C1408 0.959 . S
H1397 C1411 0.929 1_556 S
H1398 C1412 0.931 1_556 S
H1399 C1414 0.930 . S
C1400 H1388 0.930 . S
C1400 C1401 1.399 . S
C1400 C1405 1.399 . S
C1401 C1400 1.399 . S
C1401 C1402 1.376 . S
C1402 H1389 0.930 1_554 S
C1402 C1401 1.376 . S
C1402 C1403 1.388 . S
C1403 H1390 0.930 1_554 S
C1403 C1402 1.388 . S
C1403 C1404 1.390 . S
C1404 C1403 1.390 . S
C1404 C1405 1.394 . S
C1404 C1410 1.465 . S
C1405 C1400 1.399 . S
C1405 C1404 1.394 . S
C1405 C1406 1.516 . S
C1406 C1405 1.516 . S
C1406 C1407 1.502 . S
C1406 C1408 1.561 . S
C1406 C1409 1.526 . S
C1407 H1391 0.959 . S
C1407 H1392 0.959 . S
C1407 H1393 0.961 . S
C1407 C1406 1.502 . S
C1408 H1394 0.960 . S
C1408 H1395 0.961 . S
C1408 H1396 0.959 . S
C1408 C1406 1.561 . S
C1409 C1406 1.526 . S
C1409 C1410 1.396 . S
C1409 C1414 1.390 . S
C1410 C1404 1.465 . S
C1410 C1409 1.396 . S
C1410 C1411 1.399 . S
C1411 H1397 0.929 1_554 S
C1411 C1410 1.399 . S
C1411 C1412 1.385 . S
C1412 H1398 0.931 1_554 S
C1412 C1411 1.385 . S
C1412 C1413 1.389 . S
C1413 C1412 1.389 . S
C1413 C1414 1.387 . S
C1414 H1399 0.930 . S
C1414 C1409 1.390 . S
C1414 C1413 1.387 . S
H1415 C1427 0.930 . S
H1416 C1429 0.930 . S
H1417 C1430 0.866 1_545 S
H1418 C1434 0.959 . S
H1419 C1434 0.959 . S
H1420 C1434 0.961 . S
H1421 C1435 0.960 . S
H1422 C1435 0.961 . S
H1423 C1435 0.959 . S
H1424 C1438 0.929 1_545 S
H1425 C1439 0.931 . S
H1426 C1441 0.930 . S
C1427 H1415 0.930 . S
C1427 C1428 1.399 . S
C1427 C1432 1.399 . S
C1428 C1427 1.399 . S
C1428 C1429 1.376 . S
C1429 H1416 0.930 . S
C1429 C1428 1.376 . S
C1429 C1430 1.388 . S
C1430 H1417 0.866 1_565 S
C1430 C1429 1.388 . S
C1430 C1431 1.390 . S
C1431 C1430 1.390 . S
C1431 C1432 1.394 . S
C1431 C1437 1.465 . S
C1432 C1427 1.399 . S
C1432 C1431 1.394 . S
C1432 C1433 1.516 . S
C1433 C1432 1.516 . S
C1433 C1434 1.502 . S
C1433 C1435 1.561 . S
C1433 C1436 1.526 . S
C1434 H1418 0.959 . S
C1434 H1419 0.959 . S
C1434 H1420 0.961 . S
C1434 C1433 1.502 . S
C1435 H1421 0.960 . S
C1435 H1422 0.961 . S
C1435 H1423 0.959 . S
C1435 C1433 1.561 . S
C1436 C1433 1.526 . S
C1436 C1437 1.396 . S
C1436 C1441 1.390 . S
C1437 C1431 1.465 . S
C1437 C1436 1.396 . S
C1437 C1438 1.399 . S
C1438 H1424 0.929 1_565 S
C1438 C1437 1.399 . S
C1438 C1439 1.385 . S
C1439 H1425 0.931 . S
C1439 C1438 1.385 . S
C1439 C1440 1.389 . S
C1440 C1439 1.389 . S
C1440 C1441 1.387 . S
C1441 H1426 0.930 . S
C1441 C1436 1.390 . S
C1441 C1440 1.387 . S
H1442 C1454 0.930 . S
H1443 C1456 0.930 . S
H1444 C1457 0.930 . S
H1445 C1461 0.959 . S
H1446 C1461 0.959 . S
H1447 C1461 0.961 . S
H1448 C1462 0.960 . S
H1449 C1462 0.961 . S
H1450 C1462 0.959 . S
H1451 C1465 0.929 . S
H1452 C1466 0.931 . S
H1453 C1468 0.930 . S
C1454 H1442 0.930 . S
C1454 C1455 1.399 . S
C1454 C1459 1.399 . S
C1455 C1454 1.399 . S
C1455 C1456 1.376 . S
C1456 H1443 0.930 . S
C1456 C1455 1.376 . S
C1456 C1457 1.388 . S
C1457 H1444 0.930 . S
C1457 C1456 1.388 . S
C1457 C1458 1.390 . S
C1458 C1457 1.390 . S
C1458 C1459 1.394 . S
C1458 C1464 1.465 . S
C1459 C1454 1.399 . S
C1459 C1458 1.394 . S
C1459 C1460 1.516 . S
C1460 C1459 1.516 . S
C1460 C1461 1.502 . S
C1460 C1462 1.561 . S
C1460 C1463 1.526 . S
C1461 H1445 0.959 . S
C1461 H1446 0.959 . S
C1461 H1447 0.961 . S
C1461 C1460 1.502 . S
C1462 H1448 0.960 . S
C1462 H1449 0.961 . S
C1462 H1450 0.959 . S
C1462 C1460 1.561 . S
C1463 C1460 1.526 . S
C1463 C1464 1.396 . S
C1463 C1468 1.390 . S
C1464 C1458 1.465 . S
C1464 C1463 1.396 . S
C1464 C1465 1.399 . S
C1465 H1451 0.929 . S
C1465 C1464 1.399 . S
C1465 C1466 1.385 . S
C1466 H1452 0.931 . S
C1466 C1465 1.385 . S
C1466 C1467 1.389 . S
C1467 C1466 1.389 . S
C1467 C1468 1.387 . S
C1468 H1453 0.930 . S
C1468 C1463 1.390 . S
C1468 C1467 1.387 . S
H1469 C1481 0.930 . S
H1470 C1483 0.930 . S
H1471 C1484 0.930 . S
H1472 C1488 0.929 1_565 S
H1473 C1488 0.977 . S
H1474 C1488 0.941 1_655 S
H1475 C1489 0.960 1_655 S
H1476 C1489 0.961 . S
H1477 C1489 0.959 . S
H1478 C1492 0.929 . S
H1479 C1493 0.931 . S
H1480 C1495 0.930 . S
C1481 H1469 0.930 . S
C1481 C1482 1.399 . S
C1481 C1486 1.399 . S
C1482 C1481 1.399 . S
C1482 C1483 1.376 . S
C1483 H1470 0.930 . S
C1483 C1482 1.376 . S
C1483 C1484 1.388 . S
C1484 H1471 0.930 . S
C1484 C1483 1.388 . S
C1484 C1485 1.390 . S
C1485 C1484 1.390 . S
C1485 C1486 1.394 . S
C1485 C1491 1.465 1_655 S
C1486 C1481 1.399 . S
C1486 C1485 1.394 . S
C1486 C1487 1.519 1_655 S
C1487 C1486 1.519 1_455 S
C1487 C1488 1.502 . S
C1487 C1489 1.561 . S
C1487 C1490 1.523 . S
C1488 H1472 0.929 1_545 S
C1488 H1473 0.977 . S
C1488 H1474 0.941 1_455 S
C1488 C1487 1.502 . S
C1489 H1475 0.960 1_455 S
C1489 H1476 0.961 . S
C1489 H1477 0.959 . S
C1489 C1487 1.561 . S
C1490 C1487 1.523 . S
C1490 C1491 1.396 . S
C1490 C1495 1.390 . S
C1491 C1485 1.465 1_455 S
C1491 C1490 1.396 . S
C1491 C1492 1.399 . S
C1492 H1478 0.929 . S
C1492 C1491 1.399 . S
C1492 C1493 1.385 . S
C1493 H1479 0.931 . S
C1493 C1492 1.385 . S
C1493 C1494 1.389 . S
C1494 C1493 1.389 . S
C1494 C1495 1.387 . S
C1495 H1480 0.930 . S
C1495 C1490 1.390 . S
C1495 C1494 1.387 . S
H1496 C1508 0.930 . S
H1497 C1510 0.930 1_556 S
H1498 C1511 0.930 1_556 S
H1499 C1515 0.959 . S
H1500 C1515 0.959 . S
H1501 C1515 0.961 . S
H1502 C1516 0.960 . S
H1503 C1516 0.961 . S
H1504 C1516 0.959 . S
H1505 C1519 0.929 1_556 S
H1506 C1520 0.931 1_556 S
H1507 C1522 0.930 . S
C1508 H1496 0.930 . S
C1508 C1509 1.399 . S
C1508 C1513 1.399 . S
C1509 C1508 1.399 . S
C1509 C1510 1.376 . S
C1510 H1497 0.930 1_554 S
C1510 C1509 1.376 . S
C1510 C1511 1.388 . S
C1511 H1498 0.930 1_554 S
C1511 C1510 1.388 . S
C1511 C1512 1.390 . S
C1512 C1511 1.390 . S
C1512 C1513 1.394 . S
C1512 C1518 1.465 . S
C1513 C1508 1.399 . S
C1513 C1512 1.394 . S
C1513 C1514 1.516 . S
C1514 C1513 1.516 . S
C1514 C1515 1.502 . S
C1514 C1516 1.561 . S
C1514 C1517 1.526 . S
C1515 H1499 0.959 . S
C1515 H1500 0.959 . S
C1515 H1501 0.961 . S
C1515 C1514 1.502 . S
C1516 H1502 0.960 . S
C1516 H1503 0.961 . S
C1516 H1504 0.959 . S
C1516 C1514 1.561 . S
C1517 C1514 1.526 . S
C1517 C1518 1.396 . S
C1517 C1522 1.390 . S
C1518 C1512 1.465 . S
C1518 C1517 1.396 . S
C1518 C1519 1.399 . S
C1519 H1505 0.929 1_554 S
C1519 C1518 1.399 . S
C1519 C1520 1.385 . S
C1520 H1506 0.931 1_554 S
C1520 C1519 1.385 . S
C1520 C1521 1.389 . S
C1521 C1520 1.389 . S
C1521 C1522 1.387 . S
C1522 H1507 0.930 . S
C1522 C1517 1.390 . S
C1522 C1521 1.387 . S
H1523 C1535 0.930 . S
H1524 C1537 0.930 . S
H1525 C1538 0.930 . S
H1526 C1542 0.959 . S
H1527 C1542 0.959 . S
H1528 C1542 0.961 . S
H1529 C1543 0.960 . S
H1530 C1543 0.961 . S
H1531 C1543 0.959 . S
H1532 C1546 0.929 . S
H1533 C1547 0.931 . S
H1534 C1549 0.930 . S
C1535 H1523 0.930 . S
C1535 C1536 1.399 . S
C1535 C1540 1.399 . S
C1536 C1535 1.399 . S
C1536 C1537 1.376 . S
C1537 H1524 0.930 . S
C1537 C1536 1.376 . S
C1537 C1538 1.388 . S
C1538 H1525 0.930 . S
C1538 C1537 1.388 . S
C1538 C1539 1.390 . S
C1539 C1538 1.390 . S
C1539 C1540 1.394 . S
C1539 C1545 1.465 . S
C1540 C1535 1.399 . S
C1540 C1539 1.394 . S
C1540 C1541 1.516 . S
C1541 C1540 1.516 . S
C1541 C1542 1.502 . S
C1541 C1543 1.561 . S
C1541 C1544 1.526 . S
C1542 H1526 0.959 . S
C1542 H1527 0.959 . S
C1542 H1528 0.961 . S
C1542 C1541 1.502 . S
C1543 H1529 0.960 . S
C1543 H1530 0.961 . S
C1543 H1531 0.959 . S
C1543 C1541 1.561 . S
C1544 C1541 1.526 . S
C1544 C1545 1.396 . S
C1544 C1549 1.390 . S
C1545 C1539 1.465 . S
C1545 C1544 1.396 . S
C1545 C1546 1.399 . S
C1546 H1532 0.929 . S
C1546 C1545 1.399 . S
C1546 C1547 1.385 . S
C1547 H1533 0.931 . S
C1547 C1546 1.385 . S
C1547 C1548 1.389 . S
C1548 C1547 1.389 . S
C1548 C1549 1.387 . S
C1549 H1534 0.930 . S
C1549 C1544 1.390 . S
C1549 C1548 1.387 . S
H1550 C1562 0.930 . S
H1551 C1564 0.930 . S
H1552 C1565 0.930 . S
H1553 C1569 0.959 1_554 S
H1554 C1569 0.959 . S
H1555 C1569 0.961 . S
H1556 C1570 0.960 . S
H1557 C1570 0.961 . S
H1558 C1570 0.959 1_554 S
H1559 C1573 0.929 . S
H1560 C1574 0.931 . S
H1561 C1576 0.930 . S
C1562 H1550 0.930 . S
C1562 C1563 1.399 . S
C1562 C1567 1.399 . S
C1563 C1562 1.399 . S
C1563 C1564 1.376 . S
C1564 H1551 0.930 . S
C1564 C1563 1.376 . S
C1564 C1565 1.388 . S
C1565 H1552 0.930 . S
C1565 C1564 1.388 . S
C1565 C1566 1.390 . S
C1566 C1565 1.390 . S
C1566 C1567 1.394 . S
C1566 C1572 1.465 . S
C1567 C1562 1.399 . S
C1567 C1566 1.394 . S
C1567 C1568 1.516 . S
C1568 C1567 1.516 . S
C1568 C1569 1.502 1_554 S
C1568 C1570 1.561 1_554 S
C1568 C1571 1.526 . S
C1569 H1553 0.959 1_556 S
C1569 H1554 0.959 . S
C1569 H1555 0.961 . S
C1569 C1568 1.502 1_556 S
C1570 H1556 0.960 . S
C1570 H1557 0.961 . S
C1570 H1558 0.959 1_556 S
C1570 C1568 1.561 1_556 S
C1571 C1568 1.526 . S
C1571 C1572 1.396 . S
C1571 C1576 1.390 . S
C1572 C1566 1.465 . S
C1572 C1571 1.396 . S
C1572 C1573 1.399 . S
C1573 H1559 0.929 . S
C1573 C1572 1.399 . S
C1573 C1574 1.385 . S
C1574 H1560 0.931 . S
C1574 C1573 1.385 . S
C1574 C1575 1.389 . S
C1575 C1574 1.389 . S
C1575 C1576 1.387 . S
C1576 H1561 0.930 . S
C1576 C1571 1.390 . S
C1576 C1575 1.387 . S
H1577 C1589 0.930 . S
H1578 C1591 0.930 . S
H1579 C1592 0.930 . S
H1580 C1596 0.959 . S
H1581 C1596 0.959 . S
H1582 C1596 0.961 . S
H1583 C1597 0.960 . S
H1584 C1597 0.961 . S
H1585 C1597 0.959 . S
H1586 C1600 0.929 . S
H1587 C1601 0.931 . S
H1588 C1603 0.930 . S
C1589 H1577 0.930 . S
C1589 C1590 1.399 . S
C1589 C1594 1.399 . S
C1590 C1589 1.399 . S
C1590 C1591 1.376 . S
C1591 H1578 0.930 . S
C1591 C1590 1.376 . S
C1591 C1592 1.388 . S
C1592 H1579 0.930 . S
C1592 C1591 1.388 . S
C1592 C1593 1.390 . S
C1593 C1592 1.390 . S
C1593 C1594 1.394 . S
C1593 C1599 1.465 . S
C1594 C1589 1.399 . S
C1594 C1593 1.394 . S
C1594 C1595 1.516 . S
C1595 C1594 1.516 . S
C1595 C1596 1.502 . S
C1595 C1597 1.561 . S
C1595 C1598 1.526 . S
C1596 H1580 0.959 . S
C1596 H1581 0.959 . S
C1596 H1582 0.961 . S
C1596 C1595 1.502 . S
C1597 H1583 0.960 . S
C1597 H1584 0.961 . S
C1597 H1585 0.959 . S
C1597 C1595 1.561 . S
C1598 C1595 1.526 . S
C1598 C1599 1.396 . S
C1598 C1603 1.390 . S
C1599 C1593 1.465 . S
C1599 C1598 1.396 . S
C1599 C1600 1.399 . S
C1600 H1586 0.929 . S
C1600 C1599 1.399 . S
C1600 C1601 1.385 . S
C1601 H1587 0.931 . S
C1601 C1600 1.385 . S
C1601 C1602 1.389 . S
C1602 C1601 1.389 . S
C1602 C1603 1.387 . S
C1603 H1588 0.930 . S
C1603 C1598 1.390 . S
C1603 C1602 1.387 . S
H1604 C1616 0.930 . S
H1605 C1618 0.930 . S
H1606 C1619 0.930 . S
H1607 C1623 0.959 . S
H1608 C1623 0.959 . S
H1609 C1623 0.961 . S
H1610 C1624 0.960 . S
H1611 C1624 0.961 . S
H1612 C1624 0.959 . S
H1613 C1627 0.929 . S
H1614 C1628 0.931 . S
H1615 C1630 0.930 . S
C1616 H1604 0.930 . S
C1616 C1617 1.399 . S
C1616 C1621 1.399 . S
C1617 C1616 1.399 . S
C1617 C1618 1.376 . S
C1618 H1605 0.930 . S
C1618 C1617 1.376 . S
C1618 C1619 1.388 . S
C1619 H1606 0.930 . S
C1619 C1618 1.388 . S
C1619 C1620 1.390 . S
C1620 C1619 1.390 . S
C1620 C1621 1.394 . S
C1620 C1626 1.465 . S
C1621 C1616 1.399 . S
C1621 C1620 1.394 . S
C1621 C1622 1.516 . S
C1622 C1621 1.516 . S
C1622 C1623 1.502 . S
C1622 C1624 1.561 . S
C1622 C1625 1.526 . S
C1623 H1607 0.959 . S
C1623 H1608 0.959 . S
C1623 H1609 0.961 . S
C1623 C1622 1.502 . S
C1624 H1610 0.960 . S
C1624 H1611 0.961 . S
C1624 H1612 0.959 . S
C1624 C1622 1.561 . S
C1625 C1622 1.526 . S
C1625 C1626 1.396 . S
C1625 C1630 1.390 . S
C1626 C1620 1.465 . S
C1626 C1625 1.396 . S
C1626 C1627 1.399 . S
C1627 H1613 0.929 . S
C1627 C1626 1.399 . S
C1627 C1628 1.385 . S
C1628 H1614 0.931 . S
C1628 C1627 1.385 . S
C1628 C1629 1.389 . S
C1629 C1628 1.389 . S
C1629 C1630 1.387 . S
C1630 H1615 0.930 . S
C1630 C1625 1.390 . S
C1630 C1629 1.387 . S
H1631 C1643 0.930 . S
H1632 C1645 0.930 . S
H1633 C1646 0.930 . S
H1634 C1650 0.962 . S
H1635 C1650 0.977 . S
H1636 C1650 0.941 1_655 S
H1637 C1651 0.960 1_655 S
H1638 C1651 0.961 . S
H1639 C1651 0.959 . S
H1640 C1654 0.929 . S
H1641 C1655 0.931 . S
H1642 C1657 0.930 . S
C1643 H1631 0.930 . S
C1643 C1644 1.399 . S
C1643 C1648 1.399 . S
C1644 C1643 1.399 . S
C1644 C1645 1.376 . S
C1645 H1632 0.930 . S
C1645 C1644 1.376 . S
C1645 C1646 1.388 . S
C1646 H1633 0.930 . S
C1646 C1645 1.388 . S
C1646 C1647 1.390 . S
C1647 C1646 1.390 . S
C1647 C1648 1.394 . S
C1647 C1653 1.465 1_655 S
C1648 C1643 1.399 . S
C1648 C1647 1.394 . S
C1648 C1649 1.519 1_655 S
C1649 C1648 1.519 1_455 S
C1649 C1650 1.502 . S
C1649 C1651 1.561 . S
C1649 C1652 1.523 . S
C1650 H1634 0.962 . S
C1650 H1635 0.977 . S
C1650 H1636 0.941 1_455 S
C1650 C1649 1.502 . S
C1651 H1637 0.960 1_455 S
C1651 H1638 0.961 . S
C1651 H1639 0.959 . S
C1651 C1649 1.561 . S
C1652 C1649 1.523 . S
C1652 C1653 1.396 . S
C1652 C1657 1.390 . S
C1653 C1647 1.465 1_455 S
C1653 C1652 1.396 . S
C1653 C1654 1.399 . S
C1654 H1640 0.929 . S
C1654 C1653 1.399 . S
C1654 C1655 1.385 . S
C1655 H1641 0.931 . S
C1655 C1654 1.385 . S
C1655 C1656 1.389 . S
C1656 C1655 1.389 . S
C1656 C1657 1.387 . S
C1657 H1642 0.930 . S
C1657 C1652 1.390 . S
C1657 C1656 1.387 . S
H1658 C1670 0.930 . S
H1659 C1672 0.930 . S
H1660 C1673 0.930 . S
H1661 C1677 0.962 . S
H1662 C1677 0.977 . S
H1663 C1677 0.941 1_655 S
H1664 C1678 0.960 1_655 S
H1665 C1678 0.961 . S
H1666 C1678 0.959 . S
H1667 C1681 0.929 . S
H1668 C1682 0.931 . S
H1669 C1684 0.930 . S
C1670 H1658 0.930 . S
C1670 C1671 1.399 . S
C1670 C1675 1.399 . S
C1671 C1670 1.399 . S
C1671 C1672 1.376 . S
C1672 H1659 0.930 . S
C1672 C1671 1.376 . S
C1672 C1673 1.388 . S
C1673 H1660 0.930 . S
C1673 C1672 1.388 . S
C1673 C1674 1.390 . S
C1674 C1673 1.390 . S
C1674 C1675 1.394 . S
C1674 C1680 1.465 1_655 S
C1675 C1670 1.399 . S
C1675 C1674 1.394 . S
C1675 C1676 1.519 1_655 S
C1676 C1675 1.519 1_455 S
C1676 C1677 1.502 . S
C1676 C1678 1.561 . S
C1676 C1679 1.523 . S
C1677 H1661 0.962 . S
C1677 H1662 0.977 . S
C1677 H1663 0.941 1_455 S
C1677 C1676 1.502 . S
C1678 H1664 0.960 1_455 S
C1678 H1665 0.961 . S
C1678 H1666 0.959 . S
C1678 C1676 1.561 . S
C1679 C1676 1.523 . S
C1679 C1680 1.396 . S
C1679 C1684 1.390 . S
C1680 C1674 1.465 1_455 S
C1680 C1679 1.396 . S
C1680 C1681 1.399 . S
C1681 H1667 0.929 . S
C1681 C1680 1.399 . S
C1681 C1682 1.385 . S
C1682 H1668 0.931 . S
C1682 C1681 1.385 . S
C1682 C1683 1.389 . S
C1683 C1682 1.389 . S
C1683 C1684 1.387 . S
C1684 H1669 0.930 . S
C1684 C1679 1.390 . S
C1684 C1683 1.387 . S
H1685 C1697 0.930 . S
H1686 C1699 0.930 . S
H1687 C1700 0.930 . S
H1688 C1704 0.959 . S
H1689 C1704 0.959 . S
H1690 C1704 0.961 . S
H1691 C1705 0.960 . S
H1692 C1705 0.961 . S
H1693 C1705 0.959 . S
H1694 C1708 0.929 . S
H1695 C1709 0.931 . S
H1696 C1711 0.930 . S
C1697 H1685 0.930 . S
C1697 C1698 1.399 . S
C1697 C1702 1.399 . S
C1698 C1697 1.399 . S
C1698 C1699 1.376 . S
C1699 H1686 0.930 . S
C1699 C1698 1.376 . S
C1699 C1700 1.388 . S
C1700 H1687 0.930 . S
C1700 C1699 1.388 . S
C1700 C1701 1.390 . S
C1701 C1700 1.390 . S
C1701 C1702 1.394 . S
C1701 C1707 1.465 . S
C1702 C1697 1.399 . S
C1702 C1701 1.394 . S
C1702 C1703 1.516 . S
C1703 C1702 1.516 . S
C1703 C1704 1.502 . S
C1703 C1705 1.561 . S
C1703 C1706 1.526 . S
C1704 H1688 0.959 . S
C1704 H1689 0.959 . S
C1704 H1690 0.961 . S
C1704 C1703 1.502 . S
C1705 H1691 0.960 . S
C1705 H1692 0.961 . S
C1705 H1693 0.959 . S
C1705 C1703 1.561 . S
C1706 C1703 1.526 . S
C1706 C1707 1.396 . S
C1706 C1711 1.390 . S
C1707 C1701 1.465 . S
C1707 C1706 1.396 . S
C1707 C1708 1.399 . S
C1708 H1694 0.929 . S
C1708 C1707 1.399 . S
C1708 C1709 1.385 . S
C1709 H1695 0.931 . S
C1709 C1708 1.385 . S
C1709 C1710 1.389 . S
C1710 C1709 1.389 . S
C1710 C1711 1.387 . S
C1711 H1696 0.930 . S
C1711 C1706 1.390 . S
C1711 C1710 1.387 . S
H1712 C1724 0.930 . S
H1713 C1726 0.930 . S
H1714 C1727 0.930 . S
H1715 C1731 0.959 . S
H1716 C1731 0.959 . S
H1717 C1731 0.961 . S
H1718 C1732 0.960 . S
H1719 C1732 0.961 . S
H1720 C1732 0.959 . S
H1721 C1735 0.929 . S
H1722 C1736 0.931 . S
H1723 C1738 0.930 . S
C1724 H1712 0.930 . S
C1724 C1725 1.399 . S
C1724 C1729 1.399 . S
C1725 C1724 1.399 . S
C1725 C1726 1.376 . S
C1726 H1713 0.930 . S
C1726 C1725 1.376 . S
C1726 C1727 1.388 . S
C1727 H1714 0.930 . S
C1727 C1726 1.388 . S
C1727 C1728 1.390 . S
C1728 C1727 1.390 . S
C1728 C1729 1.394 . S
C1728 C1734 1.465 . S
C1729 C1724 1.399 . S
C1729 C1728 1.394 . S
C1729 C1730 1.516 . S
C1730 C1729 1.516 . S
C1730 C1731 1.502 . S
C1730 C1732 1.561 . S
C1730 C1733 1.526 . S
C1731 H1715 0.959 . S
C1731 H1716 0.959 . S
C1731 H1717 0.961 . S
C1731 C1730 1.502 . S
C1732 H1718 0.960 . S
C1732 H1719 0.961 . S
C1732 H1720 0.959 . S
C1732 C1730 1.561 . S
C1733 C1730 1.526 . S
C1733 C1734 1.396 . S
C1733 C1738 1.390 . S
C1734 C1728 1.465 . S
C1734 C1733 1.396 . S
C1734 C1735 1.399 . S
C1735 H1721 0.929 . S
C1735 C1734 1.399 . S
C1735 C1736 1.385 . S
C1736 H1722 0.931 . S
C1736 C1735 1.385 . S
C1736 C1737 1.389 . S
C1737 C1736 1.389 . S
C1737 C1738 1.387 . S
C1738 H1723 0.930 . S
C1738 C1733 1.390 . S
C1738 C1737 1.387 . S
H1739 C1751 0.930 1_545 S
H1740 C1753 0.930 . S
H1741 C1754 0.930 . S
H1742 C1758 0.959 . S
H1743 C1758 0.959 . S
H1744 C1758 0.961 . S
H1745 C1759 0.960 . S
H1746 C1759 0.961 . S
H1747 C1759 0.959 . S
H1748 C1762 0.929 . S
H1749 C1763 0.931 1_565 S
H1750 C1765 0.930 . S
C1751 H1739 0.930 1_565 S
C1751 C1752 1.399 . S
C1751 C1756 1.399 1_565 S
C1752 C1751 1.399 . S
C1752 C1753 1.376 . S
C1753 H1740 0.930 . S
C1753 C1752 1.376 . S
C1753 C1754 1.388 . S
C1754 H1741 0.930 . S
C1754 C1753 1.388 . S
C1754 C1755 1.390 . S
C1755 C1754 1.390 . S
C1755 C1756 1.394 1_565 S
C1755 C1761 1.465 . S
C1756 C1751 1.399 1_545 S
C1756 C1755 1.394 1_545 S
C1756 C1757 1.516 . S
C1757 C1756 1.516 . S
C1757 C1758 1.502 . S
C1757 C1759 1.561 . S
C1757 C1760 1.526 . S
C1758 H1742 0.959 . S
C1758 H1743 0.959 . S
C1758 H1744 0.961 . S
C1758 C1757 1.502 . S
C1759 H1745 0.960 . S
C1759 H1746 0.961 . S
C1759 H1747 0.959 . S
C1759 C1757 1.561 . S
C1760 C1757 1.526 . S
C1760 C1761 1.396 1_545 S
C1760 C1765 1.390 . S
C1761 C1755 1.465 . S
C1761 C1760 1.396 1_565 S
C1761 C1762 1.399 . S
C1762 H1748 0.929 . S
C1762 C1761 1.399 . S
C1762 C1763 1.385 1_565 S
C1763 H1749 0.931 1_545 S
C1763 C1762 1.385 1_545 S
C1763 C1764 1.389 . S
C1764 C1763 1.389 . S
C1764 C1765 1.387 . S
C1765 H1750 0.930 . S
C1765 C1760 1.390 . S
C1765 C1764 1.387 . S
H1766 C1778 0.930 . S
H1767 C1780 0.930 . S
H1768 C1781 0.930 . S
H1769 C1785 0.959 . S
H1770 C1785 0.959 . S
H1771 C1785 0.961 . S
H1772 C1786 0.960 . S
H1773 C1786 0.961 . S
H1774 C1786 0.959 . S
H1775 C1789 0.929 . S
H1776 C1790 0.931 . S
H1777 C1792 0.930 . S
C1778 H1766 0.930 . S
C1778 C1779 1.399 . S
C1778 C1783 1.399 . S
C1779 C1778 1.399 . S
C1779 C1780 1.376 . S
C1780 H1767 0.930 . S
C1780 C1779 1.376 . S
C1780 C1781 1.388 . S
C1781 H1768 0.930 . S
C1781 C1780 1.388 . S
C1781 C1782 1.390 . S
C1782 C1781 1.390 . S
C1782 C1783 1.394 . S
C1782 C1788 1.465 . S
C1783 C1778 1.399 . S
C1783 C1782 1.394 . S
C1783 C1784 1.516 . S
C1784 C1783 1.516 . S
C1784 C1785 1.502 . S
C1784 C1786 1.561 . S
C1784 C1787 1.526 . S
C1785 H1769 0.959 . S
C1785 H1770 0.959 . S
C1785 H1771 0.961 . S
C1785 C1784 1.502 . S
C1786 H1772 0.960 . S
C1786 H1773 0.961 . S
C1786 H1774 0.959 . S
C1786 C1784 1.561 . S
C1787 C1784 1.526 . S
C1787 C1788 1.396 . S
C1787 C1792 1.390 . S
C1788 C1782 1.465 . S
C1788 C1787 1.396 . S
C1788 C1789 1.399 . S
C1789 H1775 0.929 . S
C1789 C1788 1.399 . S
C1789 C1790 1.385 . S
C1790 H1776 0.931 . S
C1790 C1789 1.385 . S
C1790 C1791 1.389 . S
C1791 C1790 1.389 . S
C1791 C1792 1.387 . S
C1792 H1777 0.930 . S
C1792 C1787 1.390 . S
C1792 C1791 1.387 . S
H1793 C1805 0.930 . S
H1794 C1807 0.930 . S
H1795 C1808 0.930 . S
H1796 C1812 0.959 . S
H1797 C1812 0.959 . S
H1798 C1812 0.978 . S
H1799 C1813 0.960 . S
H1800 C1813 0.961 . S
H1801 C1813 0.959 . S
H1802 C1816 0.929 . S
H1803 C1817 0.931 . S
H1804 C1819 0.930 . S
C1805 H1793 0.930 . S
C1805 C1806 1.399 1_565 S
C1805 C1810 1.399 1_556 S
C1806 C1805 1.399 1_545 S
C1806 C1807 1.376 . S
C1807 H1794 0.930 . S
C1807 C1806 1.376 . S
C1807 C1808 1.388 1_556 S
C1808 H1795 0.930 . S
C1808 C1807 1.388 1_554 S
C1808 C1809 1.390 . S
C1809 C1808 1.390 . S
C1809 C1810 1.394 1_545 S
C1809 C1815 1.465 . S
C1810 C1805 1.399 1_554 S
C1810 C1809 1.394 1_565 S
C1810 C1811 1.516 . S
C1811 C1810 1.516 . S
C1811 C1812 1.502 . S
C1811 C1813 1.561 . S
C1811 C1814 1.526 . S
C1812 H1796 0.959 . S
C1812 H1797 0.959 . S
C1812 H1798 0.978 . S
C1812 C1811 1.502 . S
C1813 H1799 0.960 . S
C1813 H1800 0.961 . S
C1813 H1801 0.959 . S
C1813 C1811 1.561 . S
C1814 C1811 1.526 . S
C1814 C1815 1.396 1_565 S
C1814 C1819 1.390 . S
C1815 C1809 1.465 . S
C1815 C1814 1.396 1_545 S
C1815 C1816 1.399 . S
C1816 H1802 0.929 . S
C1816 C1815 1.399 . S
C1816 C1817 1.385 . S
C1817 H1803 0.931 . S
C1817 C1816 1.385 . S
C1817 C1818 1.389 1_545 S
C1818 C1817 1.389 1_565 S
C1818 C1819 1.387 . S
C1819 H1804 0.930 . S
C1819 C1814 1.390 . S
C1819 C1818 1.387 . S
H1820 C1832 0.930 . S
H1821 C1834 0.930 . S
H1822 C1835 0.930 . S
H1823 C1839 0.959 . S
H1824 C1839 0.959 . S
H1825 C1839 0.961 . S
H1826 C1840 0.960 . S
H1827 C1840 0.961 . S
H1828 C1840 0.959 . S
H1829 C1843 0.929 . S
H1830 C1844 0.931 . S
H1831 C1846 0.930 . S
C1832 H1820 0.930 . S
C1832 C1833 1.399 . S
C1832 C1837 1.399 . S
C1833 C1832 1.399 . S
C1833 C1834 1.376 . S
C1834 H1821 0.930 . S
C1834 C1833 1.376 . S
C1834 C1835 1.388 . S
C1835 H1822 0.930 . S
C1835 C1834 1.388 . S
C1835 C1836 1.390 . S
C1836 C1835 1.390 . S
C1836 C1837 1.394 . S
C1836 C1842 1.465 . S
C1837 C1832 1.399 . S
C1837 C1836 1.394 . S
C1837 C1838 1.516 . S
C1838 C1837 1.516 . S
C1838 C1839 1.502 . S
C1838 C1840 1.561 . S
C1838 C1841 1.526 . S
C1839 H1823 0.959 . S
C1839 H1824 0.959 . S
C1839 H1825 0.961 . S
C1839 C1838 1.502 . S
C1840 H1826 0.960 . S
C1840 H1827 0.961 . S
C1840 H1828 0.959 . S
C1840 C1838 1.561 . S
C1841 C1838 1.526 . S
C1841 C1842 1.396 . S
C1841 C1846 1.390 . S
C1842 C1836 1.465 . S
C1842 C1841 1.396 . S
C1842 C1843 1.399 . S
C1843 H1829 0.929 . S
C1843 C1842 1.399 . S
C1843 C1844 1.385 . S
C1844 H1830 0.931 . S
C1844 C1843 1.385 . S
C1844 C1845 1.389 . S
C1845 C1844 1.389 . S
C1845 C1846 1.387 . S
C1846 H1831 0.930 . S
C1846 C1841 1.390 . S
C1846 C1845 1.387 . S
H1847 C1859 0.930 1_565 S
H1848 C1861 0.930 . S
H1849 C1862 0.930 . S
H1850 C1866 0.959 . S
H1851 C1866 0.959 . S
H1852 C1866 0.961 . S
H1853 C1867 0.960 . S
H1854 C1867 0.961 . S
H1855 C1867 0.959 . S
H1856 C1870 0.929 . S
H1857 C1871 0.953 . S
H1858 C1873 0.930 . S
C1859 H1847 0.930 1_545 S
C1859 C1860 1.399 . S
C1859 C1864 1.399 1_545 S
C1860 C1859 1.399 . S
C1860 C1861 1.376 . S
C1861 H1848 0.930 . S
C1861 C1860 1.376 . S
C1861 C1862 1.388 . S
C1862 H1849 0.930 . S
C1862 C1861 1.388 . S
C1862 C1863 1.390 . S
C1863 C1862 1.390 . S
C1863 C1864 1.394 1_545 S
C1863 C1869 1.465 . S
C1864 C1859 1.399 1_565 S
C1864 C1863 1.394 1_565 S
C1864 C1865 1.516 . S
C1865 C1864 1.516 . S
C1865 C1866 1.502 . S
C1865 C1867 1.561 . S
C1865 C1868 1.526 . S
C1866 H1850 0.959 . S
C1866 H1851 0.959 . S
C1866 H1852 0.961 . S
C1866 C1865 1.502 . S
C1867 H1853 0.960 . S
C1867 H1854 0.961 . S
C1867 H1855 0.959 . S
C1867 C1865 1.561 . S
C1868 C1865 1.526 . S
C1868 C1869 1.396 1_565 S
C1868 C1873 1.390 . S
C1869 C1863 1.465 . S
C1869 C1868 1.396 1_545 S
C1869 C1870 1.399 . S
C1870 H1856 0.929 . S
C1870 C1869 1.399 . S
C1870 C1871 1.413 . S
C1871 H1857 0.953 . S
C1871 C1870 1.413 . S
C1871 C1872 1.343 1_545 S
C1872 C1871 1.343 1_565 S
C1872 C1873 1.387 . S
C1873 H1858 0.930 . S
C1873 C1868 1.390 . S
C1873 C1872 1.387 . S
H1874 C1886 0.930 . S
H1875 C1888 0.930 . S
H1876 C1889 0.930 . S
H1877 C1893 0.959 . S
H1878 C1893 0.959 . S
H1879 C1893 0.961 . S
H1880 C1894 0.960 . S
H1881 C1894 0.961 . S
H1882 C1894 0.959 . S
H1883 C1897 0.929 . S
H1884 C1898 0.931 . S
H1885 C1900 0.930 . S
C1886 H1874 0.930 . S
C1886 C1887 1.399 . S
C1886 C1891 1.399 . S
C1887 C1886 1.399 . S
C1887 C1888 1.376 . S
C1888 H1875 0.930 . S
C1888 C1887 1.376 . S
C1888 C1889 1.388 . S
C1889 H1876 0.930 . S
C1889 C1888 1.388 . S
C1889 C1890 1.390 . S
C1890 C1889 1.390 . S
C1890 C1891 1.394 . S
C1890 C1896 1.465 . S
C1891 C1886 1.399 . S
C1891 C1890 1.394 . S
C1891 C1892 1.516 . S
C1892 C1891 1.516 . S
C1892 C1893 1.502 . S
C1892 C1894 1.561 . S
C1892 C1895 1.526 . S
C1893 H1877 0.959 . S
C1893 H1878 0.959 . S
C1893 H1879 0.961 . S
C1893 C1892 1.502 . S
C1894 H1880 0.960 . S
C1894 H1881 0.961 . S
C1894 H1882 0.959 . S
C1894 C1892 1.561 . S
C1895 C1892 1.526 . S
C1895 C1896 1.396 . S
C1895 C1900 1.390 . S
C1896 C1890 1.465 . S
C1896 C1895 1.396 . S
C1896 C1897 1.399 . S
C1897 H1883 0.929 . S
C1897 C1896 1.399 . S
C1897 C1898 1.385 . S
C1898 H1884 0.931 . S
C1898 C1897 1.385 . S
C1898 C1899 1.389 . S
C1899 C1898 1.389 . S
C1899 C1900 1.387 . S
C1900 H1885 0.930 . S
C1900 C1895 1.390 . S
C1900 C1899 1.387 . S
H1901 C1913 0.930 1_545 S
H1902 C1915 0.930 . S
H1903 C1916 0.930 . S
H1904 C1920 0.959 . S
H1905 C1920 0.959 . S
H1906 C1920 0.961 . S
H1907 C1921 0.960 . S
H1908 C1921 0.961 . S
H1909 C1921 0.959 . S
H1910 C1924 0.931 . S
H1911 C1925 0.931 1_565 S
H1912 C1927 0.930 . S
C1913 H1901 0.930 1_565 S
C1913 C1914 1.399 . S
C1913 C1918 1.399 1_565 S
C1914 C1913 1.399 . S
C1914 C1915 1.376 . S
C1915 H1902 0.930 . S
C1915 C1914 1.376 . S
C1915 C1916 1.388 . S
C1916 H1903 0.930 . S
C1916 C1915 1.388 . S
C1916 C1917 1.390 . S
C1917 C1916 1.390 . S
C1917 C1918 1.394 1_565 S
C1917 C1923 1.465 . S
C1918 C1913 1.399 1_545 S
C1918 C1917 1.394 1_545 S
C1918 C1919 1.516 . S
C1919 C1918 1.516 . S
C1919 C1920 1.502 . S
C1919 C1921 1.561 . S
C1919 C1922 1.526 . S
C1920 H1904 0.959 . S
C1920 H1905 0.959 . S
C1920 H1906 0.961 . S
C1920 C1919 1.502 . S
C1921 H1907 0.960 . S
C1921 H1908 0.961 . S
C1921 H1909 0.959 . S
C1921 C1919 1.561 . S
C1922 C1919 1.526 . S
C1922 C1923 1.396 1_545 S
C1922 C1927 1.390 1_554 S
C1923 C1917 1.465 . S
C1923 C1922 1.396 1_565 S
C1923 C1924 1.399 1_554 S
C1924 H1910 0.931 . S
C1924 C1923 1.399 1_556 S
C1924 C1925 1.385 1_565 S
C1925 H1911 0.931 1_545 S
C1925 C1924 1.385 1_545 S
C1925 C1926 1.389 . S
C1926 C1925 1.389 . S
C1926 C1927 1.387 . S
C1927 H1912 0.930 . S
C1927 C1922 1.390 1_556 S
C1927 C1926 1.387 . S
H1928 C1940 0.930 . S
H1929 C1942 0.930 . S
H1930 C1943 0.930 . S
H1931 C1947 0.959 . S
H1932 C1947 0.959 . S
H1933 C1947 0.961 . S
H1934 C1948 0.960 . S
H1935 C1948 0.961 . S
H1936 C1948 0.959 . S
H1937 C1951 0.929 . S
H1938 C1952 0.931 . S
H1939 C1954 0.930 . S
C1940 H1928 0.930 . S
C1940 C1941 1.399 . S
C1940 C1945 1.399 . S
C1941 C1940 1.399 . S
C1941 C1942 1.376 . S
C1942 H1929 0.930 . S
C1942 C1941 1.376 . S
C1942 C1943 1.388 . S
C1943 H1930 0.930 . S
C1943 C1942 1.388 . S
C1943 C1944 1.390 . S
C1944 C1943 1.390 . S
C1944 C1945 1.394 . S
C1944 C1950 1.465 . S
C1945 C1940 1.399 . S
C1945 C1944 1.394 . S
C1945 C1946 1.516 . S
C1946 C1945 1.516 . S
C1946 C1947 1.502 . S
C1946 C1948 1.561 . S
C1946 C1949 1.526 . S
C1947 H1931 0.959 . S
C1947 H1932 0.959 . S
C1947 H1933 0.961 . S
C1947 C1946 1.502 . S
C1948 H1934 0.960 . S
C1948 H1935 0.961 . S
C1948 H1936 0.959 . S
C1948 C1946 1.561 . S
C1949 C1946 1.526 . S
C1949 C1950 1.396 . S
C1949 C1954 1.390 . S
C1950 C1944 1.465 . S
C1950 C1949 1.396 . S
C1950 C1951 1.399 . S
C1951 H1937 0.929 . S
C1951 C1950 1.399 . S
C1951 C1952 1.385 . S
C1952 H1938 0.931 . S
C1952 C1951 1.385 . S
C1952 C1953 1.389 . S
C1953 C1952 1.389 . S
C1953 C1954 1.387 . S
C1954 H1939 0.930 . S
C1954 C1949 1.390 . S
C1954 C1953 1.387 . S
H1955 C1967 0.930 . S
H1956 C1969 0.930 . S
H1957 C1970 0.930 . S
H1958 C1974 0.959 . S
H1959 C1974 0.959 . S
H1960 C1974 0.961 . S
H1961 C1975 0.960 . S
H1962 C1975 0.960 . S
H1963 C1975 0.959 . S
H1964 C1978 0.929 . S
H1965 C1979 0.931 . S
H1966 C1981 0.930 . S
C1967 H1955 0.930 . S
C1967 C1968 1.399 . S
C1967 C1972 1.399 . S
C1968 C1967 1.399 . S
C1968 C1969 1.376 . S
C1969 H1956 0.930 . S
C1969 C1968 1.376 . S
C1969 C1970 1.388 . S
C1970 H1957 0.930 . S
C1970 C1969 1.388 . S
C1970 C1971 1.390 . S
C1971 C1970 1.390 . S
C1971 C1972 1.394 . S
C1971 C1977 1.465 . S
C1972 C1967 1.399 . S
C1972 C1971 1.394 . S
C1972 C1973 1.516 . S
C1973 C1972 1.516 . S
C1973 C1974 1.502 . S
C1973 C1975 1.561 . S
C1973 C1976 1.526 . S
C1974 H1958 0.959 . S
C1974 H1959 0.959 . S
C1974 H1960 0.961 . S
C1974 C1973 1.502 . S
C1975 H1961 0.960 . S
C1975 H1962 0.960 . S
C1975 H1963 0.959 . S
C1975 C1973 1.561 . S
C1976 C1973 1.526 . S
C1976 C1977 1.396 . S
C1976 C1981 1.390 1_554 S
C1977 C1971 1.465 . S
C1977 C1976 1.396 . S
C1977 C1978 1.399 . S
C1978 H1964 0.929 . S
C1978 C1977 1.399 . S
C1978 C1979 1.385 1_554 S
C1979 H1965 0.931 . S
C1979 C1978 1.385 1_556 S
C1979 C1980 1.389 . S
C1980 C1979 1.389 . S
C1980 C1981 1.387 . S
C1981 H1966 0.930 . S
C1981 C1976 1.390 1_556 S
C1981 C1980 1.387 . S
H1982 C1994 0.930 . S
H1983 C1996 0.930 . S
H1984 C1997 0.930 . S
H1985 C2001 0.959 . S
H1986 C2001 0.959 . S
H1987 C2001 0.961 . S
H1988 C2002 0.960 . S
H1989 C2002 0.961 . S
H1990 C2002 0.959 . S
H1991 C2005 0.929 . S
H1992 C2006 0.931 . S
H1993 C2008 0.930 . S
C1994 H1982 0.930 . S
C1994 C1995 1.399 . S
C1994 C1999 1.399 . S
C1995 C1994 1.399 . S
C1995 C1996 1.376 . S
C1996 H1983 0.930 . S
C1996 C1995 1.376 . S
C1996 C1997 1.388 . S
C1997 H1984 0.930 . S
C1997 C1996 1.388 . S
C1997 C1998 1.390 . S
C1998 C1997 1.390 . S
C1998 C1999 1.394 . S
C1998 C2004 1.465 . S
C1999 C1994 1.399 . S
C1999 C1998 1.394 . S
C1999 C2000 1.516 . S
C2000 C1999 1.516 . S
C2000 C2001 1.502 . S
C2000 C2002 1.561 . S
C2000 C2003 1.526 . S
C2001 H1985 0.959 . S
C2001 H1986 0.959 . S
C2001 H1987 0.961 . S
C2001 C2000 1.502 . S
C2002 H1988 0.960 . S
C2002 H1989 0.961 . S
C2002 H1990 0.959 . S
C2002 C2000 1.561 . S
C2003 C2000 1.526 . S
C2003 C2004 1.396 . S
C2003 C2008 1.390 . S
C2004 C1998 1.465 . S
C2004 C2003 1.396 . S
C2004 C2005 1.399 . S
C2005 H1991 0.929 . S
C2005 C2004 1.399 . S
C2005 C2006 1.385 . S
C2006 H1992 0.931 . S
C2006 C2005 1.385 . S
C2006 C2007 1.389 . S
C2007 C2006 1.389 . S
C2007 C2008 1.387 . S
C2008 H1993 0.930 . S
C2008 C2003 1.390 . S
C2008 C2007 1.387 . S
H2009 C2021 0.930 . S
H2010 C2023 0.930 . S
H2011 C2024 0.930 . S
H2012 C2028 0.959 . S
H2013 C2028 0.959 . S
H2014 C2028 0.961 . S
H2015 C2029 0.960 . S
H2016 C2029 0.961 . S
H2017 C2029 0.959 . S
H2018 C2032 0.929 . S
H2019 C2033 0.931 . S
H2020 C2035 0.930 . S
C2021 H2009 0.930 . S
C2021 C2022 1.399 . S
C2021 C2026 1.399 . S
C2022 C2021 1.399 . S
C2022 C2023 1.376 . S
C2023 H2010 0.930 . S
C2023 C2022 1.376 . S
C2023 C2024 1.388 . S
C2024 H2011 0.930 . S
C2024 C2023 1.388 . S
C2024 C2025 1.390 . S
C2025 C2024 1.390 . S
C2025 C2026 1.394 . S
C2025 C2031 1.465 . S
C2026 C2021 1.399 . S
C2026 C2025 1.394 . S
C2026 C2027 1.516 . S
C2027 C2026 1.516 . S
C2027 C2028 1.502 . S
C2027 C2029 1.561 . S
C2027 C2030 1.526 . S
C2028 H2012 0.959 . S
C2028 H2013 0.959 . S
C2028 H2014 0.961 . S
C2028 C2027 1.502 . S
C2029 H2015 0.960 . S
C2029 H2016 0.961 . S
C2029 H2017 0.959 . S
C2029 C2027 1.561 . S
C2030 C2027 1.526 . S
C2030 C2031 1.396 . S
C2030 C2035 1.390 . S
C2031 C2025 1.465 . S
C2031 C2030 1.396 . S
C2031 C2032 1.399 . S
C2032 H2018 0.929 . S
C2032 C2031 1.399 . S
C2032 C2033 1.385 . S
C2033 H2019 0.931 . S
C2033 C2032 1.385 . S
C2033 C2034 1.389 . S
C2034 C2033 1.389 . S
C2034 C2035 1.387 . S
C2035 H2020 0.930 . S
C2035 C2030 1.390 . S
C2035 C2034 1.387 . S
H2036 C2048 0.930 . S
H2037 C2050 0.930 . S
H2038 C2051 0.930 . S
H2039 C2055 0.959 . S
H2040 C2055 0.959 . S
H2041 C2055 0.961 . S
H2042 C2056 0.960 . S
H2043 C2056 0.961 . S
H2044 C2056 0.959 . S
H2045 C2059 0.929 . S
H2046 C2060 0.931 . S
H2047 C2062 0.930 . S
C2048 H2036 0.930 . S
C2048 C2049 1.399 . S
C2048 C2053 1.399 . S
C2049 C2048 1.399 . S
C2049 C2050 1.376 . S
C2050 H2037 0.930 . S
C2050 C2049 1.376 . S
C2050 C2051 1.388 . S
C2051 H2038 0.930 . S
C2051 C2050 1.388 . S
C2051 C2052 1.390 . S
C2052 C2051 1.390 . S
C2052 C2053 1.394 . S
C2052 C2058 1.465 . S
C2053 C2048 1.399 . S
C2053 C2052 1.394 . S
C2053 C2054 1.516 . S
C2054 C2053 1.516 . S
C2054 C2055 1.502 . S
C2054 C2056 1.561 . S
C2054 C2057 1.526 . S
C2055 H2039 0.959 . S
C2055 H2040 0.959 . S
C2055 H2041 0.961 . S
C2055 C2054 1.502 . S
C2056 H2042 0.960 . S
C2056 H2043 0.961 . S
C2056 H2044 0.959 . S
C2056 C2054 1.561 . S
C2057 C2054 1.526 . S
C2057 C2058 1.396 . S
C2057 C2062 1.390 . S
C2058 C2052 1.465 . S
C2058 C2057 1.396 . S
C2058 C2059 1.399 . S
C2059 H2045 0.929 . S
C2059 C2058 1.399 . S
C2059 C2060 1.385 . S
C2060 H2046 0.931 . S
C2060 C2059 1.385 . S
C2060 C2061 1.389 . S
C2061 C2060 1.389 . S
C2061 C2062 1.387 . S
C2062 H2047 0.930 . S
C2062 C2057 1.390 . S
C2062 C2061 1.387 . S
H2063 C2075 0.930 . S
H2064 C2077 0.930 . S
H2065 C2078 0.930 . S
H2066 C2082 0.959 . S
H2067 C2082 0.959 . S
H2068 C2082 0.961 . S
H2069 C2083 0.960 1_556 S
H2070 C2083 0.961 . S
H2071 C2083 0.959 . S
H2072 C2086 0.929 . S
H2073 C2087 0.931 . S
H2074 C2089 0.930 . S
C2075 H2063 0.930 . S
C2075 C2076 1.399 . S
C2075 C2080 1.399 1_556 S
C2076 C2075 1.399 . S
C2076 C2077 1.376 . S
C2077 H2064 0.930 . S
C2077 C2076 1.376 . S
C2077 C2078 1.388 1_556 S
C2078 H2065 0.930 . S
C2078 C2077 1.388 1_554 S
C2078 C2079 1.390 . S
C2079 C2078 1.390 . S
C2079 C2080 1.394 . S
C2079 C2085 1.465 . S
C2080 C2075 1.399 1_554 S
C2080 C2079 1.394 . S
C2080 C2081 1.516 . S
C2081 C2080 1.516 . S
C2081 C2082 1.502 . S
C2081 C2083 1.561 . S
C2081 C2084 1.526 . S
C2082 H2066 0.959 . S
C2082 H2067 0.959 . S
C2082 H2068 0.961 . S
C2082 C2081 1.502 . S
C2083 H2069 0.960 1_554 S
C2083 H2070 0.961 . S
C2083 H2071 0.959 . S
C2083 C2081 1.561 . S
C2084 C2081 1.526 . S
C2084 C2085 1.396 . S
C2084 C2089 1.390 . S
C2085 C2079 1.465 . S
C2085 C2084 1.396 . S
C2085 C2086 1.399 . S
C2086 H2072 0.929 . S
C2086 C2085 1.399 . S
C2086 C2087 1.385 . S
C2087 H2073 0.931 . S
C2087 C2086 1.385 . S
C2087 C2088 1.389 . S
C2088 C2087 1.389 . S
C2088 C2089 1.387 . S
C2089 H2074 0.930 . S
C2089 C2084 1.390 . S
C2089 C2088 1.387 . S
H2090 C2102 0.930 . S
H2091 C2104 0.930 . S
H2092 C2105 0.930 . S
H2093 C2109 0.959 . S
H2094 C2109 0.959 . S
H2095 C2109 0.961 . S
H2096 C2110 0.960 . S
H2097 C2110 0.961 . S
H2098 C2110 0.959 . S
H2099 C2113 0.929 . S
H2100 C2114 0.931 . S
H2101 C2116 0.930 . S
C2102 H2090 0.930 . S
C2102 C2103 1.399 . S
C2102 C2107 1.399 . S
C2103 C2102 1.399 . S
C2103 C2104 1.376 . S
C2104 H2091 0.930 . S
C2104 C2103 1.376 . S
C2104 C2105 1.388 . S
C2105 H2092 0.930 . S
C2105 C2104 1.388 . S
C2105 C2106 1.390 . S
C2106 C2105 1.390 . S
C2106 C2107 1.394 . S
C2106 C2112 1.465 . S
C2107 C2102 1.399 . S
C2107 C2106 1.394 . S
C2107 C2108 1.516 . S
C2108 C2107 1.516 . S
C2108 C2109 1.502 . S
C2108 C2110 1.561 . S
C2108 C2111 1.526 . S
C2109 H2093 0.959 . S
C2109 H2094 0.959 . S
C2109 H2095 0.961 . S
C2109 C2108 1.502 . S
C2110 H2096 0.960 . S
C2110 H2097 0.961 . S
C2110 H2098 0.959 . S
C2110 C2108 1.561 . S
C2111 C2108 1.526 . S
C2111 C2112 1.396 . S
C2111 C2116 1.390 . S
C2112 C2106 1.465 . S
C2112 C2111 1.396 . S
C2112 C2113 1.399 . S
C2113 H2099 0.929 . S
C2113 C2112 1.399 . S
C2113 C2114 1.385 . S
C2114 H2100 0.931 . S
C2114 C2113 1.385 . S
C2114 C2115 1.389 . S
C2115 C2114 1.389 . S
C2115 C2116 1.387 . S
C2116 H2101 0.930 . S
C2116 C2111 1.390 . S
C2116 C2115 1.387 . S
H2117 C2129 0.930 . S
H2118 C2131 0.930 . S
H2119 C2132 0.930 . S
H2120 C2136 0.959 . S
H2121 C2136 0.959 . S
H2122 C2136 0.961 . S
H2123 C2137 0.960 . S
H2124 C2137 0.961 . S
H2125 C2137 0.959 . S
H2126 C2140 0.929 . S
H2127 C2141 0.931 . S
H2128 C2143 0.930 . S
C2129 H2117 0.930 . S
C2129 C2130 1.399 . S
C2129 C2134 1.399 . S
C2130 C2129 1.399 . S
C2130 C2131 1.376 . S
C2131 H2118 0.930 . S
C2131 C2130 1.376 . S
C2131 C2132 1.388 . S
C2132 H2119 0.930 . S
C2132 C2131 1.388 . S
C2132 C2133 1.390 . S
C2133 C2132 1.390 . S
C2133 C2134 1.394 . S
C2133 C2139 1.465 . S
C2134 C2129 1.399 . S
C2134 C2133 1.394 . S
C2134 C2135 1.516 . S
C2135 C2134 1.516 . S
C2135 C2136 1.502 . S
C2135 C2137 1.561 . S
C2135 C2138 1.526 . S
C2136 H2120 0.959 . S
C2136 H2121 0.959 . S
C2136 H2122 0.961 . S
C2136 C2135 1.502 . S
C2137 H2123 0.960 . S
C2137 H2124 0.961 . S
C2137 H2125 0.959 . S
C2137 C2135 1.561 . S
C2138 C2135 1.526 . S
C2138 C2139 1.396 . S
C2138 C2143 1.390 . S
C2139 C2133 1.465 . S
C2139 C2138 1.396 . S
C2139 C2140 1.399 . S
C2140 H2126 0.929 . S
C2140 C2139 1.399 . S
C2140 C2141 1.385 . S
C2141 H2127 0.931 . S
C2141 C2140 1.385 . S
C2141 C2142 1.389 . S
C2142 C2141 1.389 . S
C2142 C2143 1.387 . S
C2143 H2128 0.930 . S
C2143 C2138 1.390 . S
C2143 C2142 1.387 . S
C429 C101 1.571 . S
C441 C4 1.621 . S
C456 C17 1.572 . S
C468 C56 1.620 . S
C483 C75 1.573 . S
C495 C36 1.620 . S
C510 C43 1.605 . S
C522 C88 1.591 . S
C537 C108 1.612 . S
C549 C205 1.572 . S
C564 C121 1.599 . S
C576 C166 1.603 . S
C591 C134 1.584 . S
C603 C179 1.615 . S
C618 C147 1.584 . S
C630 C186 1.596 . S
C645 C218 1.615 . S
C657 C309 1.573 . S
C672 C225 1.621 . S
C684 C270 1.569 . S
C699 C283 1.622 . S
C711 C238 1.570 . S
C726 C296 1.621 . S
C738 C251 1.570 . S
C753 C316 1.592 . S
C765 C413 1.610 . S
C780 C368 1.619 . S
C792 C329 1.569 . S
C807 C387 1.581 . S
C819 C348 1.617 . S
C834 C355 1.587 . S
C846 C400 1.613 . S
C861 C10 0.893 . S
C873 C82 0.853 . S
C888 C23 0.875 . S
C900 C95 0.837 . S
C915 C62 0.890 . S
C927 C30 0.871 . S
C942 C49 0.865 . S
C954 C69 0.892 . S
C969 C114 0.870 . S
C981 C192 0.844 . S
C996 C127 0.892 . S
C1008 C199 0.848 . S
C1023 C160 0.836 . S
C1035 C140 0.886 . S
C1050 C173 0.893 . S
C1062 C153 0.847 . S
C1077 C212 0.837 . S
C1089 C290 0.866 . S
C1104 C303 0.854 . S
C1116 C231 0.893 . S
C1131 C264 0.892 . S
C1143 C244 0.866 . S
C1158 C257 0.875 . S
C1170 C277 0.837 . S
C1185 C322 0.875 . S
C1197 C394 0.841 . S
C1212 C335 0.893 . S
C1224 C407 0.840 . S
C1239 C374 0.854 . S
C1251 C342 0.889 . S
C1266 C381 0.836 . S
C1278 C361 0.886 . S
C1293 C5 1.628 . S
C1305 C393 1.629 . S
C1320 C18 1.628 . S
C1332 C198 1.626 . S
C1347 C29 1.625 . S
C1359 C369 1.627 . S
C1374 C44 1.621 . S
C1386 C172 1.624 . S
C1401 C57 1.628 . S
C1413 C341 1.629 . S
C1428 C68 1.615 . S
C1440 C148 1.612 . S
C1455 C81 1.627 . S
C1467 C317 1.628 . S
C1482 C122 1.616 . S
C1494 C94 1.613 . S
C1509 C289 1.628 . S
C1521 C109 1.629 . S
C1536 C135 1.621 . S
C1548 C263 1.625 . S
C1563 C239 1.629 . S
C1575 C159 1.629 . S
C1590 C211 1.607 . S
C1602 C187 1.607 . S
C1617 C226 1.628 . S
C1629 C406 1.628 . S
C1644 C252 1.621 . S
C1656 C380 1.624 . S
C1671 C276 1.612 . S
C1683 C356 1.610 . S
C1698 C330 1.619 . S
C1710 C302 1.616 . S
C1725 C3 1.484 . S
C1737 C83 1.486 . S
C1752 C16 1.486 . S
C1764 C96 1.485 . S
C1779 C55 1.503 . S
C1791 C31 1.502 . S
C1806 C42 1.493 . S
C1818 C70 1.491 . S
C1833 C107 1.491 . S
C1845 C185 1.485 . S
C1860 C120 1.505 . S
C1872 C200 1.499 . S
C1887 C161 1.498 . S
C1899 C133 1.504 . S
C1914 C146 1.505 . S
C1926 C174 1.501 . S
C1941 C291 1.492 . S
C1953 C213 1.494 . S
C1968 C304 1.500 . S
C1980 C224 1.502 . S
C1995 C265 1.504 . S
C2007 C237 1.503 . S
C2022 C278 1.497 . S
C2034 C250 1.500 . S
C2049 C395 1.490 . S
C2061 C315 1.485 . S
C2076 C408 1.504 . S
C2088 C328 1.498 . S
C2103 C343 1.500 . S
C2115 C367 1.505 . S
C2130 C382 1.503 . S
C2142 C354 1.505 . S
