# Generated by pormake.
# Topology uoh, (4)-cn, num edge types: 1
# Building blocks:
#     Node 0, Type 0, BuildingBlock: QUQFOY_clean_sbu_3, # of connection points: 4
#     Node 1, Type 0, BuildingBlock: QUQFOY_clean_sbu_3, # of connection points: 4
#     Node 2, Type 0, BuildingBlock: QUQFOY_clean_sbu_3, # of connection points: 4
#     Node 3, Type 0, BuildingBlock: QUQFOY_clean_sbu_3, # of connection points: 4
#     Node 4, Type 0, BuildingBlock: QUQFOY_clean_sbu_3, # of connection points: 4
#     Node 5, Type 0, BuildingBlock: QUQFOY_clean_sbu_3, # of connection points: 4
#     Node 6, Type 0, BuildingBlock: QUQFOY_clean_sbu_3, # of connection points: 4
#     Node 7, Type 0, BuildingBlock: QUQFOY_clean_sbu_3, # of connection points: 4
#     Node 8, Type 0, BuildingBlock: QUQFOY_clean_sbu_3, # of connection points: 4
#     Node 9, Type 0, BuildingBlock: QUQFOY_clean_sbu_3, # of connection points: 4
#     Node 10, Type 0, BuildingBlock: QUQFOY_clean_sbu_3, # of connection points: 4
#     Node 11, Type 0, BuildingBlock: QUQFOY_clean_sbu_3, # of connection points: 4
#     Node 12, Type 0, BuildingBlock: QUQFOY_clean_sbu_3, # of connection points: 4
#     Node 13, Type 0, BuildingBlock: QUQFOY_clean_sbu_3, # of connection points: 4
#     Node 14, Type 0, BuildingBlock: QUQFOY_clean_sbu_3, # of connection points: 4
#     Node 15, Type 0, BuildingBlock: QUQFOY_clean_sbu_3, # of connection points: 4
#     Node 16, Type 0, BuildingBlock: QUQFOY_clean_sbu_3, # of connection points: 4
#     Node 17, Type 0, BuildingBlock: QUQFOY_clean_sbu_3, # of connection points: 4
#     Node 18, Type 0, BuildingBlock: QUQFOY_clean_sbu_3, # of connection points: 4
#     Node 19, Type 0, BuildingBlock: QUQFOY_clean_sbu_3, # of connection points: 4
#     Node 20, Type 0, BuildingBlock: QUQFOY_clean_sbu_3, # of connection points: 4
#     Node 21, Type 0, BuildingBlock: QUQFOY_clean_sbu_3, # of connection points: 4
#     Node 22, Type 0, BuildingBlock: QUQFOY_clean_sbu_3, # of connection points: 4
#     Node 23, Type 0, BuildingBlock: QUQFOY_clean_sbu_3, # of connection points: 4
#     Node 24, Type 0, BuildingBlock: QUQFOY_clean_sbu_3, # of connection points: 4
#     Node 25, Type 0, BuildingBlock: QUQFOY_clean_sbu_3, # of connection points: 4
#     Node 26, Type 0, BuildingBlock: QUQFOY_clean_sbu_3, # of connection points: 4
#     Node 27, Type 0, BuildingBlock: QUQFOY_clean_sbu_3, # of connection points: 4
#     Node 28, Type 0, BuildingBlock: QUQFOY_clean_sbu_3, # of connection points: 4
#     Node 29, Type 0, BuildingBlock: QUQFOY_clean_sbu_3, # of connection points: 4
#     Node 30, Type 0, BuildingBlock: QUQFOY_clean_sbu_3, # of connection points: 4
#     Node 31, Type 0, BuildingBlock: QUQFOY_clean_sbu_3, # of connection points: 4
#     Node 32, Type 0, BuildingBlock: QUQFOY_clean_sbu_3, # of connection points: 4
#     Node 33, Type 0, BuildingBlock: QUQFOY_clean_sbu_3, # of connection points: 4
#     Node 34, Type 0, BuildingBlock: QUQFOY_clean_sbu_3, # of connection points: 4
#     Node 35, Type 0, BuildingBlock: QUQFOY_clean_sbu_3, # of connection points: 4
#     Edge 36, Type (0, 0), BuildingBlock: XIVTED_clean_linker_0, # of connection points: 2
#     Edge 37, Type (0, 0), BuildingBlock: XIVTED_clean_linker_0, # of connection points: 2
#     Edge 38, Type (0, 0), BuildingBlock: XIVTED_clean_linker_0, # of connection points: 2
#     Edge 39, Type (0, 0), BuildingBlock: XIVTED_clean_linker_0, # of connection points: 2
#     Edge 40, Type (0, 0), BuildingBlock: XIVTED_clean_linker_0, # of connection points: 2
#     Edge 41, Type (0, 0), BuildingBlock: XIVTED_clean_linker_0, # of connection points: 2
#     Edge 42, Type (0, 0), BuildingBlock: XIVTED_clean_linker_0, # of connection points: 2
#     Edge 43, Type (0, 0), BuildingBlock: XIVTED_clean_linker_0, # of connection points: 2
#     Edge 44, Type (0, 0), BuildingBlock: XIVTED_clean_linker_0, # of connection points: 2
#     Edge 45, Type (0, 0), BuildingBlock: XIVTED_clean_linker_0, # of connection points: 2
#     Edge 46, Type (0, 0), BuildingBlock: XIVTED_clean_linker_0, # of connection points: 2
#     Edge 47, Type (0, 0), BuildingBlock: XIVTED_clean_linker_0, # of connection points: 2
#     Edge 48, Type (0, 0), BuildingBlock: XIVTED_clean_linker_0, # of connection points: 2
#     Edge 49, Type (0, 0), BuildingBlock: XIVTED_clean_linker_0, # of connection points: 2
#     Edge 50, Type (0, 0), BuildingBlock: XIVTED_clean_linker_0, # of connection points: 2
#     Edge 51, Type (0, 0), BuildingBlock: XIVTED_clean_linker_0, # of connection points: 2
#     Edge 52, Type (0, 0), BuildingBlock: XIVTED_clean_linker_0, # of connection points: 2
#     Edge 53, Type (0, 0), BuildingBlock: XIVTED_clean_linker_0, # of connection points: 2
#     Edge 54, Type (0, 0), BuildingBlock: XIVTED_clean_linker_0, # of connection points: 2
#     Edge 55, Type (0, 0), BuildingBlock: XIVTED_clean_linker_0, # of connection points: 2
#     Edge 56, Type (0, 0), BuildingBlock: XIVTED_clean_linker_0, # of connection points: 2
#     Edge 57, Type (0, 0), BuildingBlock: XIVTED_clean_linker_0, # of connection points: 2
#     Edge 58, Type (0, 0), BuildingBlock: XIVTED_clean_linker_0, # of connection points: 2
#     Edge 59, Type (0, 0), BuildingBlock: XIVTED_clean_linker_0, # of connection points: 2
#     Edge 60, Type (0, 0), BuildingBlock: XIVTED_clean_linker_0, # of connection points: 2
#     Edge 61, Type (0, 0), BuildingBlock: XIVTED_clean_linker_0, # of connection points: 2
#     Edge 62, Type (0, 0), BuildingBlock: XIVTED_clean_linker_0, # of connection points: 2
#     Edge 63, Type (0, 0), BuildingBlock: XIVTED_clean_linker_0, # of connection points: 2
#     Edge 64, Type (0, 0), BuildingBlock: XIVTED_clean_linker_0, # of connection points: 2
#     Edge 65, Type (0, 0), BuildingBlock: XIVTED_clean_linker_0, # of connection points: 2
#     Edge 66, Type (0, 0), BuildingBlock: XIVTED_clean_linker_0, # of connection points: 2
#     Edge 67, Type (0, 0), BuildingBlock: XIVTED_clean_linker_0, # of connection points: 2
#     Edge 68, Type (0, 0), BuildingBlock: XIVTED_clean_linker_0, # of connection points: 2
#     Edge 69, Type (0, 0), BuildingBlock: XIVTED_clean_linker_0, # of connection points: 2
#     Edge 70, Type (0, 0), BuildingBlock: XIVTED_clean_linker_0, # of connection points: 2
#     Edge 71, Type (0, 0), BuildingBlock: XIVTED_clean_linker_0, # of connection points: 2
#     Edge 72, Type (0, 0), BuildingBlock: XIVTED_clean_linker_0, # of connection points: 2
#     Edge 73, Type (0, 0), BuildingBlock: XIVTED_clean_linker_0, # of connection points: 2
#     Edge 74, Type (0, 0), BuildingBlock: XIVTED_clean_linker_0, # of connection points: 2
#     Edge 75, Type (0, 0), BuildingBlock: XIVTED_clean_linker_0, # of connection points: 2
#     Edge 76, Type (0, 0), BuildingBlock: XIVTED_clean_linker_0, # of connection points: 2
#     Edge 77, Type (0, 0), BuildingBlock: XIVTED_clean_linker_0, # of connection points: 2
#     Edge 78, Type (0, 0), BuildingBlock: XIVTED_clean_linker_0, # of connection points: 2
#     Edge 79, Type (0, 0), BuildingBlock: XIVTED_clean_linker_0, # of connection points: 2
#     Edge 80, Type (0, 0), BuildingBlock: XIVTED_clean_linker_0, # of connection points: 2
#     Edge 81, Type (0, 0), BuildingBlock: XIVTED_clean_linker_0, # of connection points: 2
#     Edge 82, Type (0, 0), BuildingBlock: XIVTED_clean_linker_0, # of connection points: 2
#     Edge 83, Type (0, 0), BuildingBlock: XIVTED_clean_linker_0, # of connection points: 2
#     Edge 84, Type (0, 0), BuildingBlock: XIVTED_clean_linker_0, # of connection points: 2
#     Edge 85, Type (0, 0), BuildingBlock: XIVTED_clean_linker_0, # of connection points: 2
#     Edge 86, Type (0, 0), BuildingBlock: XIVTED_clean_linker_0, # of connection points: 2
#     Edge 87, Type (0, 0), BuildingBlock: XIVTED_clean_linker_0, # of connection points: 2
#     Edge 88, Type (0, 0), BuildingBlock: XIVTED_clean_linker_0, # of connection points: 2
#     Edge 89, Type (0, 0), BuildingBlock: XIVTED_clean_linker_0, # of connection points: 2
#     Edge 90, Type (0, 0), BuildingBlock: XIVTED_clean_linker_0, # of connection points: 2
#     Edge 91, Type (0, 0), BuildingBlock: XIVTED_clean_linker_0, # of connection points: 2
#     Edge 92, Type (0, 0), BuildingBlock: XIVTED_clean_linker_0, # of connection points: 2
#     Edge 93, Type (0, 0), BuildingBlock: XIVTED_clean_linker_0, # of connection points: 2
#     Edge 94, Type (0, 0), BuildingBlock: XIVTED_clean_linker_0, # of connection points: 2
#     Edge 95, Type (0, 0), BuildingBlock: XIVTED_clean_linker_0, # of connection points: 2
#     Edge 96, Type (0, 0), BuildingBlock: XIVTED_clean_linker_0, # of connection points: 2
#     Edge 97, Type (0, 0), BuildingBlock: XIVTED_clean_linker_0, # of connection points: 2
#     Edge 98, Type (0, 0), BuildingBlock: XIVTED_clean_linker_0, # of connection points: 2
#     Edge 99, Type (0, 0), BuildingBlock: XIVTED_clean_linker_0, # of connection points: 2
#     Edge 100, Type (0, 0), BuildingBlock: XIVTED_clean_linker_0, # of connection points: 2
#     Edge 101, Type (0, 0), BuildingBlock: XIVTED_clean_linker_0, # of connection points: 2
#     Edge 102, Type (0, 0), BuildingBlock: XIVTED_clean_linker_0, # of connection points: 2
#     Edge 103, Type (0, 0), BuildingBlock: XIVTED_clean_linker_0, # of connection points: 2
#     Edge 104, Type (0, 0), BuildingBlock: XIVTED_clean_linker_0, # of connection points: 2
#     Edge 105, Type (0, 0), BuildingBlock: XIVTED_clean_linker_0, # of connection points: 2
#     Edge 106, Type (0, 0), BuildingBlock: XIVTED_clean_linker_0, # of connection points: 2
#     Edge 107, Type (0, 0), BuildingBlock: XIVTED_clean_linker_0, # of connection points: 2
# Relax obj value: 0.090
# Max RMSD: 0.144
# Mean RMSD: 0.144
data_MOF--net-uoh--node1-QUQFOY_clean_sbu_3--edge1-XIVTED_clean_linker_0
_symmetry_space_group_name_H-M    P1
_symmetry_Int_Tables_number       1
_symmetry_cell_setting            triclinic
loop_
_symmetry_equiv_pos_as_xyz
'x, y, z'
_cell_length_a     90.919017
_cell_length_b     90.851153
_cell_length_c     28.619931
_cell_angle_alpha  90.186672
_cell_angle_beta   89.915236
_cell_angle_gamma 119.99886
loop_
_atom_site_label
_atom_site_type_symbol
_atom_site_fract_x
_atom_site_fract_y
_atom_site_fract_z
_atom_type_partial_charge
C0 C 0.21853 0.09838 0.20976 0.0
O1 O 0.22255 0.09102 0.24065 0.0
Cd2 Cd 0.23611 0.10596 0.31137 0.0
O3 O 0.22089 0.11323 0.21694 0.0
Cd4 Cd 0.23135 0.13582 0.27577 0.0
C5 C 0.26991 0.13968 0.25813 0.0
O6 O 0.21962 0.11774 0.34382 0.0
O7 O 0.23782 0.14425 0.3569 0.0
O8 O 0.20742 0.13908 0.25445 0.0
C9 C 0.22673 0.12992 0.37279 0.0
O10 O 0.26454 0.12622 0.28237 0.0
C11 C 0.21584 0.15514 0.25074 0.0
O12 O 0.26027 0.14575 0.24943 0.0
O13 O 0.23178 0.16231 0.25725 0.0
C14 C 0.87185 0.10066 0.15897 0.0
O15 O 0.88001 0.11133 0.1911 0.0
Cd16 Cd 0.86649 0.11044 0.2636 0.0
O17 O 0.85665 0.08874 0.16566 0.0
Cd18 Cd 0.83397 0.07622 0.22492 0.0
C19 C 0.83311 0.11297 0.21427 0.0
O20 O 0.85346 0.08146 0.28855 0.0
O21 O 0.82766 0.07311 0.30918 0.0
O22 O 0.83043 0.0503 0.19085 0.0
C23 C 0.84259 0.07688 0.32098 0.0
O24 O 0.84692 0.11983 0.23747 0.0
C25 C 0.81435 0.0419 0.19333 0.0
O26 O 0.82566 0.09721 0.20384 0.0
O27 O 0.80703 0.04963 0.20966 0.0
C28 C 0.86793 0.76922 0.16232 0.0
O29 O 0.85704 0.76658 0.19383 0.0
Cd30 Cd 0.85706 0.75396 0.26716 0.0
O31 O 0.87983 0.76597 0.16975 0.0
Cd32 Cd 0.89066 0.7553 0.23238 0.0
C33 C 0.85424 0.71757 0.22179 0.0
O34 O 0.88546 0.76939 0.29727 0.0
O35 O 0.89181 0.75015 0.31542 0.0
O36 O 0.91859 0.77786 0.21071 0.0
C37 C 0.88947 0.76217 0.32852 0.0
O38 O 0.84727 0.72455 0.24443 0.0
C39 C 0.92568 0.76886 0.21094 0.0
O40 O 0.86992 0.726 0.21099 0.0
O41 O 0.91621 0.75307 0.21873 0.0
C42 C 0.09888 0.22342 0.24903 0.0
O43 O 0.09152 0.22749 0.21828 0.0
Cd44 Cd 0.10684 0.24166 0.1487 0.0
O45 O 0.11384 0.22608 0.24218 0.0
Cd46 Cd 0.13675 0.23712 0.18461 0.0
C47 C 0.14011 0.27537 0.20423 0.0
O48 O 0.11899 0.22556 0.11586 0.0
O49 O 0.1455 0.24395 0.10382 0.0
O50 O 0.13947 0.21288 0.20541 0.0
C51 C 0.13128 0.2328 0.08737 0.0
O52 O 0.12673 0.26995 0.17956 0.0
C53 C 0.15551 0.22102 0.20968 0.0
O54 O 0.14638 0.26588 0.21262 0.0
O55 O 0.16298 0.23701 0.20376 0.0
C56 C 0.7886 0.89651 0.36238 0.0
O57 O 0.79094 0.88394 0.3576 0.0
Cd58 Cd 0.77784 0.86498 0.29248 0.0
O59 O 0.78048 0.89956 0.33151 0.0
Cd60 Cd 0.76733 0.88908 0.25521 0.0
C61 C 0.73616 0.85384 0.30505 0.0
O62 O 0.78685 0.88104 0.22073 0.0
O63 O 0.76218 0.87078 0.1879 0.0
O64 O 0.78346 0.91749 0.22486 0.0
C65 C 0.77745 0.87399 0.18547 0.0
O66 O 0.74701 0.8489 0.30703 0.0
C67 C 0.77101 0.91962 0.21593 0.0
O68 O 0.74038 0.86855 0.2896 0.0
O69 O 0.75627 0.90728 0.22492 0.0
C70 C 0.11218 0.88611 0.2599 0.0
O71 O 0.12356 0.89371 0.22908 0.0
Cd72 Cd 0.12353 0.87927 0.15906 0.0
O73 O 0.0999 0.87113 0.25261 0.0
Cd74 Cd 0.08823 0.84867 0.19255 0.0
C75 C 0.1231 0.84564 0.2157 0.0
O76 O 0.09559 0.86746 0.12618 0.0
O77 O 0.08793 0.8413 0.11041 0.0
O78 O 0.06098 0.84579 0.211 0.0
C79 C 0.0913 0.85583 0.09584 0.0
O80 O 0.13122 0.85916 0.19173 0.0
C81 C 0.05278 0.82966 0.21172 0.0
O82 O 0.10718 0.83904 0.22236 0.0
O83 O 0.06129 0.82216 0.20578 0.0
C84 C 0.79037 0.89754 0.86228 0.0
O85 O 0.7913 0.91188 0.85811 0.0
Cd86 Cd 0.77731 0.91629 0.79282 0.0
O87 O 0.78334 0.88637 0.83054 0.0
Cd88 Cd 0.77056 0.88322 0.75351 0.0
C89 C 0.737 0.88276 0.80341 0.0
O90 O 0.78809 0.91147 0.72044 0.0
O91 O 0.76362 0.89551 0.68795 0.0
O92 O 0.78848 0.87296 0.72233 0.0
C93 C 0.7784 0.90843 0.6855 0.0
O94 O 0.74644 0.89884 0.80636 0.0
C95 C 0.77666 0.85812 0.71214 0.0
O96 O 0.74289 0.8737 0.78733 0.0
O97 O 0.76156 0.85474 0.72065 0.0
C98 C 0.10507 0.87604 0.75817 0.0
O99 O 0.09752 0.86473 0.72704 0.0
Cd100 Cd 0.11217 0.86498 0.65723 0.0
O101 O 0.12014 0.88822 0.75153 0.0
Cd102 Cd 0.14301 0.89993 0.69306 0.0
C103 C 0.14527 0.86443 0.71392 0.0
O104 O 0.12438 0.89332 0.6266 0.0
O105 O 0.15059 0.90134 0.61066 0.0
O106 O 0.14638 0.9271 0.71504 0.0
C107 C 0.13603 0.89795 0.59627 0.0
O108 O 0.13181 0.85656 0.68948 0.0
C109 C 0.16248 0.93495 0.71717 0.0
O110 O 0.15199 0.88033 0.72139 0.0
O111 O 0.16973 0.92629 0.70969 0.0
C112 C 0.11599 0.22273 0.74925 0.0
O113 O 0.12734 0.22597 0.71869 0.0
Cd114 Cd 0.12756 0.24076 0.6491 0.0
O115 O 0.10448 0.22651 0.74212 0.0
Cd116 Cd 0.09386 0.2387 0.68429 0.0
C117 C 0.13017 0.27559 0.70518 0.0
O118 O 0.09936 0.22622 0.61628 0.0
O119 O 0.09309 0.2459 0.60306 0.0
O120 O 0.0668 0.21483 0.70543 0.0
C121 C 0.09523 0.23405 0.58722 0.0
O122 O 0.13729 0.26923 0.68051 0.0
C123 C 0.0587 0.22283 0.70667 0.0
O124 O 0.11428 0.26711 0.71353 0.0
O125 O 0.0672 0.23878 0.69966 0.0
C126 C 0.87671 0.77595 0.66397 0.0
O127 O 0.88468 0.77347 0.69653 0.0
Cd128 Cd 0.87068 0.76137 0.76916 0.0
O129 O 0.86159 0.77295 0.67022 0.0
Cd130 Cd 0.83869 0.76354 0.72817 0.0
C131 C 0.837 0.72547 0.72014 0.0
O132 O 0.85737 0.77708 0.79416 0.0
O133 O 0.83105 0.75971 0.81088 0.0
O134 O 0.83631 0.78674 0.69581 0.0
C135 C 0.84582 0.77048 0.82494 0.0
O136 O 0.85071 0.73235 0.7438 0.0
C137 C 0.82021 0.77908 0.69474 0.0
O138 O 0.82992 0.73399 0.70831 0.0
O139 O 0.81239 0.7637 0.70831 0.0
C140 C 0.22237 0.11752 0.7115 0.0
O141 O 0.22534 0.12884 0.74202 0.0
Cd142 Cd 0.24033 0.12962 0.81182 0.0
O143 O 0.22664 0.10634 0.7186 0.0
Cd144 Cd 0.23955 0.09642 0.77628 0.0
C145 C 0.27587 0.13357 0.75727 0.0
O146 O 0.22614 0.10118 0.84321 0.0
O147 O 0.24584 0.09511 0.85824 0.0
O148 O 0.21676 0.06895 0.75312 0.0
C149 C 0.23375 0.09704 0.87299 0.0
O150 O 0.26909 0.14042 0.78138 0.0
C151 C 0.22552 0.06165 0.75086 0.0
O152 O 0.2678 0.11766 0.749 0.0
O153 O 0.24135 0.07077 0.75881 0.0
C154 C 0.87183 0.09843 0.65601 0.0
O155 O 0.86083 0.0908 0.68774 0.0
Cd156 Cd 0.8613 0.10383 0.76089 0.0
O157 O 0.88447 0.11322 0.66328 0.0
Cd158 Cd 0.89638 0.13468 0.72667 0.0
C159 C 0.86148 0.13856 0.71315 0.0
O160 O 0.88937 0.11534 0.79205 0.0
O161 O 0.89701 0.14135 0.80946 0.0
O162 O 0.92447 0.13946 0.70848 0.0
C163 C 0.89356 0.1267 0.82316 0.0
O164 O 0.8535 0.12476 0.73606 0.0
C165 C 0.93166 0.15556 0.70761 0.0
O166 O 0.87717 0.14481 0.70354 0.0
O167 O 0.9222 0.16203 0.71319 0.0
C168 C 0.89132 0.44312 0.53181 0.0
O169 O 0.89481 0.43541 0.56295 0.0
Cd170 Cd 0.90919 0.44969 0.63302 0.0
O171 O 0.89421 0.45819 0.53884 0.0
Cd172 Cd 0.90498 0.48073 0.59887 0.0
C173 C 0.94267 0.48315 0.57606 0.0
O174 O 0.8934 0.46194 0.66525 0.0
O175 O 0.91202 0.48804 0.68109 0.0
O176 O 0.88074 0.48364 0.57912 0.0
C177 C 0.90088 0.4735 0.69568 0.0
O178 O 0.93704 0.46964 0.60024 0.0
C179 C 0.88855 0.49976 0.57975 0.0
O180 O 0.93355 0.48996 0.56903 0.0
O181 O 0.90448 0.5073 0.58692 0.0
C182 C 0.549 0.43219 0.45657 0.0
O183 O 0.56303 0.44588 0.4614 0.0
Cd184 Cd 0.56637 0.46391 0.52659 0.0
O185 O 0.53774 0.42742 0.4882 0.0
Cd186 Cd 0.53465 0.4361 0.56704 0.0
C187 C 0.53061 0.46756 0.52142 0.0
O188 O 0.56345 0.44881 0.5983 0.0
O189 O 0.5465 0.45581 0.63208 0.0
O190 O 0.52671 0.40828 0.59703 0.0
C191 C 0.56021 0.45534 0.63321 0.0
O192 O 0.54664 0.47489 0.51578 0.0
C193 C 0.51165 0.40417 0.60829 0.0
O194 O 0.52255 0.45262 0.53801 0.0
O195 O 0.50714 0.41515 0.60122 0.0
C196 C 0.53879 0.0977 0.53808 0.0
O197 O 0.52717 0.09354 0.5684 0.0
Cd198 Cd 0.52743 0.07868 0.63719 0.0
O199 O 0.55096 0.09485 0.54511 0.0
Cd200 Cd 0.5623 0.08329 0.60297 0.0
C201 C 0.52738 0.04551 0.57891 0.0
O202 O 0.55548 0.09481 0.67053 0.0
O203 O 0.56349 0.07648 0.6846 0.0
O204 O 0.5893 0.10752 0.58262 0.0
C205 C 0.56025 0.08766 0.7 0.0
O206 O 0.51927 0.05083 0.60341 0.0
C207 C 0.59739 0.09952 0.58012 0.0
O208 O 0.54329 0.05486 0.57236 0.0
O209 O 0.58896 0.08355 0.58667 0.0
C210 C 0.76373 0.55876 0.63973 0.0
O211 O 0.75513 0.56105 0.60864 0.0
Cd212 Cd 0.76762 0.57388 0.53533 0.0
O213 O 0.779 0.56251 0.63173 0.0
Cd214 Cd 0.80047 0.57361 0.56899 0.0
C215 C 0.80061 0.61077 0.5805 0.0
O216 O 0.78104 0.55883 0.50496 0.0
O217 O 0.80638 0.57834 0.48571 0.0
O218 O 0.80595 0.55144 0.59379 0.0
C219 C 0.79214 0.566 0.47331 0.0
O220 O 0.78659 0.60342 0.55831 0.0
C221 C 0.82201 0.56015 0.59078 0.0
O222 O 0.80835 0.60276 0.59066 0.0
O223 O 0.82836 0.57573 0.57996 0.0
C224 C 0.43572 0.22134 0.63941 0.0
O225 O 0.43278 0.21065 0.60695 0.0
Cd226 Cd 0.41976 0.21223 0.53565 0.0
O227 O 0.43265 0.23343 0.63369 0.0
Cd228 Cd 0.42246 0.24665 0.57756 0.0
C229 C 0.38464 0.21022 0.589 0.0
O230 O 0.43547 0.24134 0.5107 0.0
O231 O 0.41824 0.25057 0.49524 0.0
O232 O 0.44563 0.27244 0.60943 0.0
C233 C 0.42887 0.24647 0.48051 0.0
O234 O 0.3911 0.20314 0.56447 0.0
C235 C 0.43762 0.28052 0.61234 0.0
O236 O 0.39332 0.22592 0.59969 0.0
O237 O 0.42214 0.2727 0.5996 0.0
C238 C 0.7813 0.2228 0.59601 0.0
O239 O 0.79302 0.23067 0.56625 0.0
Cd240 Cd 0.79314 0.21637 0.49555 0.0
O241 O 0.76942 0.20771 0.58801 0.0
Cd242 Cd 0.75901 0.18521 0.52905 0.0
C243 C 0.79477 0.18336 0.548 0.0
O244 O 0.76503 0.20355 0.46179 0.0
O245 O 0.75787 0.17737 0.44764 0.0
O246 O 0.73135 0.18083 0.54919 0.0
C247 C 0.76054 0.19158 0.43235 0.0
O248 O 0.80244 0.19698 0.52425 0.0
C249 C 0.72407 0.16477 0.55202 0.0
O250 O 0.77893 0.17655 0.55621 0.0
O251 O 0.73327 0.15804 0.54579 0.0
C252 C 0.43233 0.22557 0.1431 0.0
O253 O 0.42837 0.23309 0.11258 0.0
Cd254 Cd 0.41505 0.21953 0.04056 0.0
O255 O 0.43018 0.21082 0.13503 0.0
Cd256 Cd 0.41985 0.18931 0.07206 0.0
C257 C 0.38108 0.18489 0.09005 0.0
O258 O 0.43179 0.20854 0.0062 0.0
O259 O 0.41325 0.18248 -0.01034 0.0
O260 O 0.44363 0.18517 0.08879 0.0
C261 C 0.42459 0.197 0.97555 0.0
O262 O 0.38654 0.19865 0.0672 0.0
C263 C 0.43505 0.16905 0.08932 0.0
O264 O 0.39074 0.17879 0.09821 0.0
O265 O 0.41908 0.16225 0.08419 0.0
C266 C 0.76586 0.20759 0.0949 0.0
O267 O 0.75718 0.19651 0.06418 0.0
Cd268 Cd 0.7709 0.19561 -0.00651 0.0
O269 O 0.78137 0.21849 0.08752 0.0
Cd270 Cd 0.804 0.22825 0.02909 0.0
C271 C 0.802 0.19046 0.04668 0.0
O272 O 0.78571 0.2242 0.96333 0.0
O273 O 0.811 0.22913 0.94659 0.0
O274 O 0.80917 0.25576 0.05383 0.0
C275 C 0.79714 0.22784 0.93282 0.0
O276 O 0.78838 0.18407 0.02271 0.0
C277 C 0.82524 0.26296 0.05454 0.0
O278 O 0.81026 0.20635 0.05544 0.0
O279 O 0.83176 0.25375 0.04508 0.0
C280 C 0.76883 0.55126 0.13777 0.0
O281 O 0.7793 0.55387 0.10503 0.0
Cd282 Cd 0.77738 0.56601 0.03236 0.0
O283 O 0.75676 0.55434 0.132 0.0
Cd284 Cd 0.74344 0.56419 0.07529 0.0
C285 C 0.78014 0.60211 0.0813 0.0
O286 O 0.74811 0.55053 0.00865 0.0
O287 O 0.7389 0.56778 -0.00677 0.0
O288 O 0.7174 0.54171 0.10815 0.0
C289 C 0.74291 0.55708 0.9785 0.0
O290 O 0.78692 0.59524 0.05721 0.0
C291 C 0.70991 0.55029 0.11132 0.0
O292 O 0.76462 0.59358 0.09371 0.0
O293 O 0.71817 0.56572 0.0983 0.0
C294 C 0.55368 0.1015 0.03673 0.0
O295 O 0.56113 0.09748 0.06736 0.0
Cd296 Cd 0.54605 0.08264 0.13625 0.0
O297 O 0.53867 0.0987 0.04368 0.0
Cd298 Cd 0.5159 0.08737 0.10218 0.0
C299 C 0.51299 0.0496 0.07747 0.0
O300 O 0.53382 0.09829 0.17078 0.0
O301 O 0.50753 0.07932 0.18292 0.0
O302 O 0.51315 0.11189 0.08493 0.0
C303 C 0.52171 0.09053 0.19947 0.0
O304 O 0.52628 0.05485 0.10244 0.0
C305 C 0.49705 0.10391 0.08285 0.0
O306 O 0.50652 0.05902 0.07051 0.0
O307 O 0.48956 0.08786 0.08749 0.0
C308 C 0.89435 0.44923 0.03238 0.0
O309 O 0.89816 0.46061 0.06337 0.0
Cd310 Cd 0.91216 0.46052 0.13389 0.0
O311 O 0.89691 0.43685 0.03946 0.0
Cd312 Cd 0.90756 0.42514 0.0996 0.0
C313 C 0.94567 0.46018 0.0787 0.0
O314 O 0.89564 0.4324 0.16522 0.0
O315 O 0.9136 0.42424 0.18239 0.0
O316 O 0.88361 0.39777 0.07961 0.0
C317 C 0.90254 0.4279 0.19615 0.0
O318 O 0.94017 0.4683 0.10245 0.0
C319 C 0.89182 0.38987 0.07808 0.0
O320 O 0.93634 0.44427 0.07159 0.0
O321 O 0.90777 0.39858 0.08468 0.0
C322 C 0.55676 0.4442 0.95765 0.0
O323 O 0.54294 0.43029 0.96233 0.0
Cd324 Cd 0.52524 0.4268 0.0282 0.0
O325 O 0.56186 0.45541 -0.01036 0.0
Cd326 Cd 0.55362 0.4583 0.06929 0.0
C327 C 0.52202 0.46288 0.02683 0.0
O328 O 0.54101 0.42923 0.09817 0.0
O329 O 0.53462 0.44602 0.13563 0.0
O330 O 0.58139 0.46547 0.0976 0.0
C331 C 0.53497 0.43222 0.13455 0.0
O332 O 0.5146 0.44688 0.02011 0.0
C333 C 0.58595 0.48057 0.10989 0.0
O334 O 0.53702 0.47077 0.04311 0.0
O335 O 0.57526 0.48554 0.10405 0.0
C336 C 0.56763 0.77738 0.84593 0.0
O337 O 0.57142 0.7702 0.87792 0.0
Cd338 Cd 0.5822 0.78303 0.9526 0.0
O339 O 0.56855 0.79166 0.85337 0.0
Cd340 Cd 0.57565 0.81246 0.91792 0.0
C341 C 0.61618 0.82053 0.91366 0.0
O342 O 0.56364 0.79241 -0.01763 0.0
O343 O 0.57963 0.8188 0.00123 0.0
O344 O 0.55104 0.81472 0.89669 0.0
C345 C 0.56959 0.80367 0.01412 0.0
O346 O 0.61063 0.80624 0.93388 0.0
C347 C 0.55884 0.83084 0.8954 0.0
O348 O 0.60609 0.82581 0.90205 0.0
O349 O 0.57475 0.83851 0.90271 0.0
C350 C 0.22125 0.78514 0.87053 0.0
O351 O 0.22879 0.79656 0.90138 0.0
Cd352 Cd 0.21354 0.79606 0.97053 0.0
O353 O 0.20618 0.77304 0.87734 0.0
Cd354 Cd 0.18322 0.76153 0.93499 0.0
C355 C 0.18097 0.79683 0.91196 0.0
O356 O 0.20086 0.76795 0.00399 0.0
O357 O 0.17451 0.76052 0.01568 0.0
O358 O 0.18041 0.73443 0.91499 0.0
C359 C 0.18862 0.7634 0.0324 0.0
O360 O 0.19421 0.80468 0.93724 0.0
C361 C 0.16435 0.72645 0.91143 0.0
O362 O 0.17435 0.78094 0.90446 0.0
O363 O 0.15688 0.73499 0.91722 0.0
C364 C 0.21517 0.43557 0.82742 0.0
O365 O 0.20443 0.43258 0.85966 0.0
Cd366 Cd 0.20602 0.41969 0.93101 0.0
O367 O 0.22725 0.43251 0.83335 0.0
Cd368 Cd 0.2403 0.42223 0.88994 0.0
C369 C 0.20383 0.3843 0.87884 0.0
O370 O 0.23517 0.43591 0.95543 0.0
O371 O 0.24439 0.41884 0.97299 0.0
O372 O 0.26603 0.44501 0.85663 0.0
C373 C 0.24043 0.42972 -0.01355 0.0
O374 O 0.19675 0.39081 0.90311 0.0
C375 C 0.27411 0.43698 0.8552 0.0
O376 O 0.21952 0.393 0.86827 0.0
O377 O 0.26633 0.42168 0.86941 0.0
C378 C 0.43585 0.89294 0.92208 0.0
O379 O 0.42824 0.89687 0.89173 0.0
Cd380 Cd 0.44291 0.91173 0.82246 0.0
O381 O 0.45095 0.89601 0.91496 0.0
Cd382 Cd 0.47368 0.90793 0.85635 0.0
C383 C 0.47566 0.94547 0.87956 0.0
O384 O 0.45532 0.89605 0.78907 0.0
O385 O 0.48144 0.91496 0.77464 0.0
O386 O 0.47769 0.88424 0.87496 0.0
C387 C 0.46715 0.90346 0.75943 0.0
O388 O 0.46222 0.9399 0.85506 0.0
C389 C 0.49378 0.89283 0.87736 0.0
O390 O 0.48242 0.93632 0.88647 0.0
O391 O 0.50065 0.90881 0.87194 0.0
C392 C 0.10233 0.54181 0.92372 0.0
O393 O 0.09853 0.53029 0.8932 0.0
Cd394 Cd 0.08325 0.53005 0.8247 0.0
O395 O 0.09899 0.55367 0.91688 0.0
Cd396 Cd 0.08686 0.56452 0.85942 0.0
C397 C 0.04974 0.52887 0.88377 0.0
O398 O 0.09841 0.55814 0.79111 0.0
O399 O 0.07925 0.56516 0.77841 0.0
O400 O 0.11054 0.59215 0.87854 0.0
C401 C 0.09069 0.56247 0.76224 0.0
O402 O 0.05529 0.52102 0.85899 0.0
C403 C 0.10195 0.59962 0.88199 0.0
O404 O 0.05876 0.54484 0.8903 0.0
O405 O 0.08597 0.59054 0.87661 0.0
C406 C 0.42866 0.54701 0.00624 0.0
O407 O 0.44244 0.56084 0.0 0.0
Cd408 Cd 0.45988 0.56339 0.93448 0.0
O409 O 0.42335 0.53532 0.97557 0.0
Cd410 Cd 0.43086 0.53113 0.89633 0.0
C411 C 0.4625 0.52696 0.94069 0.0
O412 O 0.44384 0.55983 0.86445 0.0
O413 O 0.44983 0.54228 0.82966 0.0
O414 O 0.40275 0.52338 0.86918 0.0
C415 C 0.45001 0.55633 0.82926 0.0
O416 O 0.47013 0.54307 0.94547 0.0
C417 C 0.3983 0.5082 0.858 0.0
O418 O 0.4474 0.51897 0.92504 0.0
O419 O 0.40923 0.50354 0.86371 0.0
C420 C 0.09892 0.55727 0.42322 0.0
O421 O 0.09528 0.56519 0.39314 0.0
Cd422 Cd 0.08048 0.5506 0.3235 0.0
O423 O 0.09558 0.54211 0.41548 0.0
Cd424 Cd 0.08371 0.51947 0.35662 0.0
C425 C 0.04645 0.51789 0.37987 0.0
O426 O 0.09598 0.53801 0.28997 0.0
O427 O 0.07688 0.51198 0.27473 0.0
O428 O 0.10765 0.51621 0.37693 0.0
C429 C 0.08862 0.52621 0.26005 0.0
O430 O 0.05229 0.53141 0.35568 0.0
C431 C 0.09963 0.50009 0.3772 0.0
O432 O 0.05534 0.51084 0.38676 0.0
O433 O 0.0837 0.49271 0.37011 0.0
C434 C 0.44616 0.56037 0.50526 0.0
O435 O 0.43233 0.54657 0.4989 0.0
Cd436 Cd 0.42923 0.52927 0.43244 0.0
O437 O 0.4578 0.56578 0.47458 0.0
Cd438 Cd 0.46187 0.55831 0.39506 0.0
C439 C 0.46507 0.52568 0.43667 0.0
O440 O 0.43314 0.54629 0.36437 0.0
O441 O 0.45008 0.54026 0.32647 0.0
O442 O 0.47067 0.58681 0.36897 0.0
C443 C 0.4362 0.54041 0.32781 0.0
O444 O 0.44901 0.51829 0.44174 0.0
C445 C 0.48582 0.59087 0.35897 0.0
O446 O 0.47325 0.54085 0.42175 0.0
O447 O 0.48994 0.57953 0.3646 0.0
C448 C 0.4473 0.88972 0.42275 0.0
O449 O 0.45876 0.89359 0.39212 0.0
Cd450 Cd 0.45873 0.9083 0.32281 0.0
O451 O 0.43519 0.89268 0.41582 0.0
Cd452 Cd 0.42397 0.90426 0.35755 0.0
C453 C 0.45942 0.94183 0.38071 0.0
O454 O 0.43057 0.89255 0.29001 0.0
O455 O 0.42305 0.91125 0.27598 0.0
O456 O 0.39636 0.88062 0.37719 0.0
C457 C 0.42612 0.89996 0.26051 0.0
O458 O 0.46739 0.93636 0.35617 0.0
C459 C 0.38895 0.88928 0.3804 0.0
O460 O 0.4435 0.93263 0.38741 0.0
O461 O 0.39803 0.90523 0.37454 0.0
C462 C 0.22281 0.4368 0.32356 0.0
O463 O 0.23044 0.4332 0.3547 0.0
Cd464 Cd 0.21688 0.41999 0.42662 0.0
O465 O 0.20797 0.43445 0.33102 0.0
Cd466 Cd 0.18628 0.42426 0.39333 0.0
C467 C 0.18259 0.3857 0.3762 0.0
O468 O 0.20537 0.43647 0.45939 0.0
O469 O 0.17938 0.41778 0.47568 0.0
O470 O 0.1818 0.44779 0.37583 0.0
C471 C 0.19385 0.4292 0.48994 0.0
O472 O 0.19632 0.39137 0.39941 0.0
C473 C 0.1657 0.43902 0.37476 0.0
O474 O 0.17629 0.39516 0.36772 0.0
O475 O 0.15908 0.42306 0.37993 0.0
C476 C 0.56737 0.77478 0.34874 0.0
O477 O 0.56977 0.78523 0.38145 0.0
Cd478 Cd 0.5801 0.78265 0.45633 0.0
O479 O 0.56959 0.76219 0.35568 0.0
Cd480 Cd 0.57706 0.74782 0.41622 0.0
C481 C 0.61625 0.78277 0.41723 0.0
O482 O 0.56287 0.75359 0.47938 0.0
O483 O 0.57829 0.74284 0.50004 0.0
O484 O 0.55406 0.72273 0.38082 0.0
C485 C 0.56822 0.74805 0.51188 0.0
O486 O 0.60927 0.79016 0.43781 0.0
C487 C 0.56164 0.71421 0.37919 0.0
O488 O 0.60747 0.76732 0.40411 0.0
O489 O 0.57677 0.72139 0.39471 0.0
C490 C 0.20413 0.77051 0.37113 0.0
O491 O 0.19253 0.76293 0.40139 0.0
Cd492 Cd 0.19267 0.77818 0.4702 0.0
O493 O 0.21612 0.78562 0.37829 0.0
Cd494 Cd 0.22724 0.80865 0.43599 0.0
C495 C 0.19193 0.81078 0.41174 0.0
O496 O 0.22071 0.79072 0.50418 0.0
O497 O 0.22832 0.81707 0.51724 0.0
O498 O 0.25427 0.81142 0.41587 0.0
C499 C 0.22536 0.80283 0.5332 0.0
O500 O 0.184 0.79742 0.43644 0.0
C501 C 0.26232 0.8275 0.41279 0.0
O502 O 0.20786 0.81753 0.4051 0.0
O503 O 0.25386 0.83504 0.41899 0.0
H504 H 0.20949 0.10186 0.91493 0.0
H505 H 0.22618 0.07602 0.16723 0.0
H506 H 0.24484 0.08427 0.94227 0.0
H507 H 0.20154 0.10544 0.14341 0.0
H508 H 0.22629 0.07162 0.08286 0.0
H509 H 0.20059 0.09671 -0.00336 0.0
C510 C 0.21535 0.09688 0.93811 0.0
C511 C 0.22812 0.09375 0.92205 0.0
C512 C 0.22054 0.07873 0.09625 0.0
C513 C 0.21786 0.08765 0.01529 0.0
C514 C 0.2203 0.08109 0.14439 0.0
C515 C 0.21412 0.09138 0.1621 0.0
C516 C 0.21446 0.08663 0.06599 0.0
C517 C 0.20669 0.09767 0.131 0.0
C518 C 0.21021 0.09387 -0.01535 0.0
C519 C 0.23513 0.0871 0.95342 0.0
N520 N 0.20729 0.09541 0.08434 0.0
N521 N 0.22998 0.08437 -0.00131 0.0
H522 H 0.90573 0.14904 0.89631 0.0
H523 H 0.86167 0.07758 0.0877 0.0
H524 H 0.88118 0.09551 0.86355 0.0
H525 H 0.89808 0.12969 0.12197 0.0
H526 H 0.86993 0.08355 0.00577 0.0
H527 H 0.90403 0.14217 0.97933 0.0
C528 C 0.90004 0.13585 0.90662 0.0
C529 C 0.8934 0.1228 0.87313 0.0
C530 C 0.87632 0.09361 0.03129 0.0
C531 C 0.8914 0.11486 0.96787 0.0
C532 C 0.87161 0.09021 0.07807 0.0
C533 C 0.87905 0.10322 0.11154 0.0
C534 C 0.88833 0.11021 0.01783 0.0
C535 C 0.89196 0.11931 0.09724 0.0
C536 C 0.89918 0.13194 0.95396 0.0
C537 C 0.88635 0.10594 0.8883 0.0
N538 N 0.89599 0.12244 0.05124 0.0
N539 N 0.88535 0.10244 0.93464 0.0
H540 H 0.83986 0.7687 0.12578 0.0
H541 H 0.8771 0.78788 0.86604 0.0
H542 H 0.89091 0.78081 0.09069 0.0
H543 H 0.82351 0.761 0.898 0.0
H544 H 0.88338 0.79157 0.94971 0.0
H545 H 0.83496 0.77241 0.04376 0.0
C546 C 0.85014 0.77244 0.10103 0.0
C547 C 0.86575 0.77422 0.11495 0.0
C548 C 0.87026 0.78499 0.93834 0.0
C549 C 0.86019 0.7784 0.02127 0.0
C550 C 0.86666 0.7829 0.89064 0.0
C551 C 0.84977 0.77394 0.87513 0.0
C552 C 0.85686 0.7782 0.97068 0.0
C553 C 0.83674 0.76782 0.90852 0.0
C554 C 0.84729 0.77445 0.05421 0.0
C555 C 0.87861 0.7791 0.08136 0.0
N556 N 0.84056 0.76999 0.95479 0.0
N557 N 0.8755 0.78089 0.03597 0.0
H558 H 0.07615 0.23032 0.29233 0.0
H559 H 0.10065 0.21054 0.54273 0.0
H560 H 0.10577 0.20576 0.31355 0.0
H561 H 0.08264 0.24578 0.51922 0.0
H562 H 0.09611 0.20275 0.46006 0.0
H563 H 0.07117 0.22923 0.37665 0.0
C564 C 0.08115 0.22422 0.31455 0.0
C565 C 0.09165 0.2184 0.29621 0.0
C566 C 0.09304 0.21209 0.4731 0.0
C567 C 0.08624 0.21736 0.39226 0.0
C568 C 0.0957 0.21661 0.52019 0.0
C569 C 0.09228 0.22903 0.53762 0.0
C570 C 0.08688 0.22003 0.44331 0.0
C571 C 0.08569 0.23633 0.50703 0.0
C572 C 0.07846 0.22376 0.36266 0.0
C573 C 0.09784 0.21065 0.3265 0.0
N574 N 0.0833 0.2318 0.46122 0.0
N575 N 0.09525 0.21057 0.37317 0.0
H576 H 0.77869 0.91879 0.39217 0.0
H577 H 0.81029 0.91998 0.65156 0.0
H578 H 0.80916 0.89667 0.43283 0.0
H579 H 0.76152 0.91395 0.61556 0.0
H580 H 0.81834 0.9246 0.56881 0.0
H581 H 0.78134 0.93 0.47126 0.0
C582 C 0.7863 0.91664 0.41733 0.0
C583 C 0.79334 0.90637 0.40631 0.0
C584 C 0.80612 0.92284 0.5794 0.0
C585 C 0.79655 0.91938 0.49632 0.0
C586 C 0.80155 0.92031 0.62648 0.0
C587 C 0.78512 0.91631 0.63994 0.0
C588 C 0.79426 0.92167 0.54617 0.0
C589 C 0.77422 0.91677 0.60624 0.0
C590 C 0.7878 0.92307 0.46237 0.0
C591 C 0.80322 0.9042 0.44019 0.0
N592 N 0.77891 0.91917 0.56065 0.0
N593 N 0.80433 0.91045 0.48403 0.0
H594 H 0.15903 0.91123 0.52487 0.0
H595 H 0.08847 0.87727 0.32882 0.0
H596 H 0.10549 0.88833 0.55501 0.0
H597 H 0.14171 0.9106 0.29975 0.0
H598 H 0.09421 0.8836 0.41186 0.0
H599 H 0.153 0.91287 0.44244 0.0
C600 C 0.14602 0.90658 0.51413 0.0
C601 C 0.13271 0.89942 0.54663 0.0
C602 C 0.1046 0.8898 0.38729 0.0
C603 C 0.12573 0.90132 0.45263 0.0
C604 C 0.10131 0.88622 0.33985 0.0
C605 C 0.11468 0.8932 0.30749 0.0
C606 C 0.12141 0.90017 0.40246 0.0
C607 C 0.13104 0.90484 0.32359 0.0
C608 C 0.14259 0.90764 0.46717 0.0
C609 C 0.11611 0.89379 0.531 0.0
N610 N 0.13402 0.90769 0.37013 0.0
N611 N 0.11307 0.8947 0.48501 0.0
H612 H 0.80929 0.89592 0.15377 0.0
H613 H 0.78212 0.86575 0.89136 0.0
H614 H 0.76194 0.852 0.11331 0.0
H615 H 0.80924 0.9184 0.93449 0.0
H616 H 0.78421 0.85739 0.97098 0.0
H617 H 0.81824 0.90022 0.07169 0.0
C618 C 0.80106 0.88682 0.12785 0.0
C619 C 0.78475 0.87374 0.13989 0.0
C620 C 0.79008 0.87078 0.96254 0.0
C621 C 0.79494 0.87849 0.04688 0.0
C622 C 0.78892 0.8756 0.9172 0.0
C623 C 0.79514 0.89281 0.90664 0.0
C624 C 0.79771 0.88325 -0.00275 0.0
C625 C 0.80396 0.90499 0.94144 0.0
C626 C 0.80614 0.88934 0.08117 0.0
C627 C 0.77451 0.86236 0.10512 0.0
N628 N 0.80478 0.89995 -0.01447 0.0
N629 N 0.77971 0.86511 0.05993 0.0
H630 H 0.10101 0.88634 0.05427 0.0
H631 H 0.07969 0.84684 0.79705 0.0
H632 H 0.07895 0.83281 0.0241 0.0
H633 H 0.11401 0.8999 0.82687 0.0
H634 H 0.07283 0.84197 0.88025 0.0
H635 H 0.09994 0.89169 0.97109 0.0
C636 C 0.09588 0.8757 0.03015 0.0
C637 C 0.0903 0.85913 0.04593 0.0
C638 C 0.08164 0.85473 0.86838 0.0
C639 C 0.08887 0.86515 0.951 0.0
C640 C 0.08544 0.85755 0.82089 0.0
C641 C 0.09767 0.87375 0.80524 0.0
C642 C 0.09004 0.86822 0.90015 0.0
C643 C 0.10472 0.88716 0.83763 0.0
C644 C 0.09523 0.87877 -0.01724 0.0
C645 C 0.08362 0.84581 0.01327 0.0
N646 N 0.10096 0.88405 0.8837 0.0
N647 N 0.08317 0.84912 0.96723 0.0
H648 H 0.09075 0.20577 0.81262 0.0
H649 H 0.15607 0.24286 0.02099 0.0
H650 H 0.14484 0.22809 0.79377 0.0
H651 H 0.10197 0.21138 0.04094 0.0
H652 H 0.15235 0.23519 0.93826 0.0
H653 H 0.09447 0.20425 0.89646 0.0
C654 C 0.10338 0.20996 0.8261 0.0
C655 C 0.11755 0.21732 0.79648 0.0
C656 C 0.14131 0.22981 0.96082 0.0
C657 C 0.12197 0.21608 0.89236 0.0
C658 C 0.14341 0.2343 0.00795 0.0
C659 C 0.12927 0.22795 0.03764 0.0
C660 C 0.12493 0.21905 0.94319 0.0
C661 C 0.11319 0.21673 0.01912 0.0
C662 C 0.10551 0.20915 0.87398 0.0
C663 C 0.1336 0.22241 0.81553 0.0
N664 N 0.11143 0.21278 0.97293 0.0
N665 N 0.13543 0.22207 0.86254 0.0
H666 H 0.9017 0.75195 0.40115 0.0
H667 H 0.86823 0.7904 0.59349 0.0
H668 H 0.88096 0.78428 0.36816 0.0
H669 H 0.90073 0.76982 0.62578 0.0
H670 H 0.87485 0.79053 0.51084 0.0
H671 H 0.90302 0.75979 0.48343 0.0
C672 C 0.89748 0.76074 0.41123 0.0
C673 C 0.89099 0.7673 0.37796 0.0
C674 C 0.8808 0.78628 0.53601 0.0
C675 C 0.89251 0.77635 0.47185 0.0
C676 C 0.87705 0.78623 0.5832 0.0
C677 C 0.88377 0.77987 0.61635 0.0
C678 C 0.89108 0.7796 0.52185 0.0
C679 C 0.89522 0.77476 0.60127 0.0
C680 C 0.89836 0.76531 0.45812 0.0
C681 C 0.8859 0.7788 0.39277 0.0
N682 N 0.89825 0.7744 0.55491 0.0
N683 N 0.88658 0.78281 0.43874 0.0
H684 H 0.22483 0.14548 0.66822 0.0
H685 H 0.20599 0.10023 0.41851 0.0
H686 H 0.20674 0.09203 0.64768 0.0
H687 H 0.23659 0.15441 0.44015 0.0
H688 H 0.19944 0.09667 0.50202 0.0
H689 H 0.22165 0.14829 0.58432 0.0
C690 C 0.21973 0.13425 0.64629 0.0
C691 C 0.21635 0.11857 0.6646 0.0
C692 C 0.20747 0.10934 0.48835 0.0
C693 C 0.2129 0.12172 0.56905 0.0
C694 C 0.21126 0.11138 0.4408 0.0
C695 C 0.2221 0.12761 0.42263 0.0
C696 C 0.2145 0.12364 0.5178 0.0
C697 C 0.2284 0.14164 0.45291 0.0
C698 C 0.21807 0.13589 0.59841 0.0
C699 C 0.20979 0.10442 0.6347 0.0
N700 N 0.22461 0.13932 0.49914 0.0
N701 N 0.20849 0.10638 0.58823 0.0
H702 H 0.84269 0.07142 0.62169 0.0
H703 H 0.87453 0.08982 0.35681 0.0
H704 H 0.89355 0.10924 0.58126 0.0
H705 H 0.82174 0.06469 0.39727 0.0
H706 H 0.88249 0.09183 0.43912 0.0
H707 H 0.83592 0.06336 0.53969 0.0
C708 C 0.85255 0.07781 0.59573 0.0
C709 C 0.86865 0.09121 0.6083 0.0
C710 C 0.86917 0.08577 0.42991 0.0
C711 C 0.86092 0.08209 0.5145 0.0
C712 C 0.86461 0.08461 0.38299 0.0
C713 C 0.84745 0.07726 0.3703 0.0
C714 C 0.85648 0.07941 0.46432 0.0
C715 C 0.83512 0.07064 0.40562 0.0
C716 C 0.84862 0.07326 0.54891 0.0
C717 C 0.88091 0.09899 0.5731 0.0
N718 N 0.83988 0.07193 0.45111 0.0
N719 N 0.87674 0.09442 0.52771 0.0
H720 H 0.91189 0.41491 0.26895 0.0
H721 H 0.87753 0.45259 0.4615 0.0
H722 H 0.88237 0.43878 0.23606 0.0
H723 H 0.89536 0.41775 0.49349 0.0
H724 H 0.87684 0.44566 0.37883 0.0
H725 H 0.90453 0.4144 0.35135 0.0
C726 C 0.90384 0.42001 0.27908 0.0
C727 C 0.89791 0.4271 0.2458 0.0
C728 C 0.8806 0.43928 0.40398 0.0
C729 C 0.88939 0.4265 0.33977 0.0
C730 C 0.88095 0.4432 0.45121 0.0
C731 C 0.88677 0.43594 0.48429 0.0
C732 C 0.88639 0.42825 0.38975 0.0
C733 C 0.89091 0.42375 0.4691 0.0
C734 C 0.89952 0.41959 0.32603 0.0
C735 C 0.88734 0.43333 0.26068 0.0
N736 N 0.89098 0.42054 0.42276 0.0
N737 N 0.88356 0.43306 0.30667 0.0
H738 H 0.55266 0.41722 0.16465 0.0
H739 H 0.51743 0.41036 0.42236 0.0
H740 H 0.51163 0.42582 0.20256 0.0
H741 H 0.57067 0.43355 0.38789 0.0
H742 H 0.51034 0.40153 0.34085 0.0
H743 H 0.55355 0.4087 0.24541 0.0
C744 C 0.5434 0.41665 0.18953 0.0
C745 C 0.53224 0.42248 0.17757 0.0
C746 C 0.52353 0.40807 0.35164 0.0
C747 C 0.53306 0.4126 0.26882 0.0
C748 C 0.52762 0.41313 0.39803 0.0
C749 C 0.5447 0.42312 0.41147 0.0
C750 C 0.5366 0.41282 0.31892 0.0
C751 C 0.55736 0.42622 0.3786 0.0
C752 C 0.54397 0.41185 0.23544 0.0
C753 C 0.52057 0.42162 0.21089 0.0
N754 N 0.55306 0.4213 0.33349 0.0
N755 N 0.5214 0.41698 0.25535 0.0
H756 H 0.56363 0.11504 0.47375 0.0
H757 H 0.49726 0.07917 0.2672 0.0
H758 H 0.50957 0.09203 0.49506 0.0
H759 H 0.55116 0.11163 0.24572 0.0
H760 H 0.50137 0.08579 0.35059 0.0
H761 H 0.55942 0.11696 0.39038 0.0
C762 C 0.5509 0.11075 0.46096 0.0
C763 C 0.53689 0.10311 0.49112 0.0
C764 C 0.51228 0.0916 0.32758 0.0
C765 C 0.53192 0.10485 0.39573 0.0
C766 C 0.50996 0.08771 0.28005 0.0
C767 C 0.52393 0.09467 0.24969 0.0
C768 C 0.52871 0.10237 0.34488 0.0
C769 C 0.54006 0.10584 0.26803 0.0
C770 C 0.54849 0.1118 0.41334 0.0
C771 C 0.52071 0.09791 0.4729 0.0
N772 N 0.54204 0.1092 0.31456 0.0
N773 N 0.51861 0.09853 0.42612 0.0
H774 H 0.73621 0.55887 0.67842 0.0
H775 H 0.75648 0.53968 0.93546 0.0
H776 H 0.77563 0.54706 0.70955 0.0
H777 H 0.72925 0.56629 0.90721 0.0
H778 H 0.75829 0.5359 0.85139 0.0
H779 H 0.72809 0.55487 0.76092 0.0
C780 C 0.74295 0.55512 0.70241 0.0
C781 C 0.75678 0.55353 0.68727 0.0
C782 C 0.75179 0.54244 0.86368 0.0
C783 C 0.74759 0.54901 0.78143 0.0
C784 C 0.75075 0.54459 0.91159 0.0
C785 C 0.74291 0.55352 0.92821 0.0
C786 C 0.74484 0.54915 0.83228 0.0
C787 C 0.7356 0.55952 0.89579 0.0
C788 C 0.73837 0.55294 0.74949 0.0
C789 C 0.76504 0.54864 0.71986 0.0
N790 N 0.73682 0.55731 0.84929 0.0
N791 N 0.76041 0.54669 0.76552 0.0
H792 H 0.45126 0.24476 0.70856 0.0
H793 H 0.41418 0.17402 0.90379 0.0
H794 H 0.42967 0.19133 0.67811 0.0
H795 H 0.44583 0.22748 0.93429 0.0
H796 H 0.42144 0.17998 0.82115 0.0
H797 H 0.45202 0.23881 0.79125 0.0
C798 C 0.44702 0.23181 0.71924 0.0
C799 C 0.44017 0.21847 0.68663 0.0
C800 C 0.42694 0.19038 0.84597 0.0
C801 C 0.44059 0.21151 0.78123 0.0
C802 C 0.42269 0.18701 0.89309 0.0
C803 C 0.42923 0.20032 0.92578 0.0
C804 C 0.43765 0.20721 0.83145 0.0
C805 C 0.44037 0.21687 0.91015 0.0
C806 C 0.44741 0.22841 0.76647 0.0
C807 C 0.43498 0.20196 0.70219 0.0
N808 N 0.44408 0.21987 0.864 0.0
N809 N 0.43496 0.19889 0.74862 0.0
H810 H 0.75574 0.21476 0.65805 0.0
H811 H 0.76945 0.22758 0.89503 0.0
H812 H 0.81004 0.24584 0.64219 0.0
H813 H 0.81904 0.23547 0.85935 0.0
H814 H 0.76498 0.23184 0.81337 0.0
H815 H 0.75887 0.21965 0.7418 0.0
C816 C 0.76829 0.2231 0.67217 0.0
C817 C 0.78267 0.22974 0.64334 0.0
C818 C 0.77676 0.23246 0.82322 0.0
C819 C 0.78644 0.23545 0.73941 0.0
C820 C 0.77935 0.23009 0.86991 0.0
C821 C 0.79448 0.23077 0.88374 0.0
C822 C 0.78933 0.23534 0.79009 0.0
C823 C 0.80706 0.23451 0.85 0.0
C824 C 0.77009 0.22598 0.72014 0.0
C825 C 0.79863 0.24045 0.66329 0.0
N826 N 0.80414 0.23653 0.80461 0.0
N827 N 0.80013 0.24263 0.71037 0.0
H828 H 0.41915 0.25952 0.40868 0.0
H829 H 0.44616 0.21588 0.21295 0.0
H830 H 0.44722 0.23385 0.43818 0.0
H831 H 0.42901 0.25133 0.18191 0.0
H832 H 0.44868 0.224 0.29514 0.0
H833 H 0.42409 0.25804 0.32526 0.0
C834 C 0.42643 0.25366 0.3976 0.0
C835 C 0.43261 0.24662 0.4303 0.0
C836 C 0.44463 0.23021 0.27027 0.0
C837 C 0.43829 0.24486 0.33505 0.0
C838 C 0.4432 0.22558 0.2233 0.0
C839 C 0.43715 0.23277 0.19063 0.0
C840 C 0.43971 0.2419 0.28476 0.0
C841 C 0.43363 0.24539 0.20595 0.0
C842 C 0.42933 0.2529 0.35001 0.0
C843 C 0.44211 0.23932 0.4141 0.0
N844 N 0.43468 0.24934 0.25209 0.0
N845 N 0.4445 0.23846 0.36755 0.0
H846 H 0.74579 0.16714 0.36496 0.0
H847 H 0.77568 0.23295 0.1591 0.0
H848 H 0.76867 0.2212 0.38755 0.0
H849 H 0.74136 0.17927 0.13908 0.0
H850 H 0.77047 0.22925 0.24299 0.0
H851 H 0.74197 0.17131 0.28261 0.0
C852 C 0.74998 0.17989 0.35257 0.0
C853 C 0.7578 0.19389 0.38287 0.0
C854 C 0.76377 0.21833 0.22024 0.0
C855 C 0.7534 0.19874 0.28887 0.0
C856 C 0.76671 0.22045 0.17235 0.0
C857 C 0.75915 0.20633 0.14238 0.0
C858 C 0.7535 0.20192 0.23823 0.0
C859 C 0.74753 0.19045 0.16112 0.0
C860 C 0.74765 0.18224 0.30566 0.0
C861 C 0.76276 0.21009 0.3652 0.0
N862 N 0.74535 0.18859 0.20812 0.0
N863 N 0.76066 0.2121 0.31918 0.0
H864 H 0.7618 0.54254 0.43507 0.0
H865 H 0.79898 0.55731 0.17568 0.0
H866 H 0.81451 0.5761 0.40038 0.0
H867 H 0.74587 0.53658 0.20813 0.0
H868 H 0.80489 0.55724 0.25911 0.0
H869 H 0.75603 0.53398 0.35302 0.0
C870 C 0.77217 0.54804 0.41023 0.0
C871 C 0.78861 0.56025 0.42432 0.0
C872 C 0.7919 0.55241 0.24778 0.0
C873 C 0.78213 0.55038 0.33075 0.0
C874 C 0.7885 0.55229 0.20021 0.0
C875 C 0.77195 0.54721 0.18521 0.0
C876 C 0.77863 0.54728 0.28023 0.0
C877 C 0.75885 0.54087 0.21841 0.0
C878 C 0.76888 0.54311 0.3635 0.0
C879 C 0.80161 0.56683 0.39081 0.0
N880 N 0.7625 0.54127 0.26448 0.0
N881 N 0.79807 0.56189 0.34546 0.0
H882 H 0.57417 0.07774 0.76911 0.0
H883 H 0.54602 0.11806 0.97037 0.0
H884 H 0.55221 0.10951 0.74336 0.0
H885 H 0.57695 0.09512 -0.00522 0.0
H886 H 0.55138 0.11834 0.88681 0.0
H887 H 0.57766 0.08615 0.85134 0.0
C888 C 0.5701 0.0865 0.78077 0.0
C889 C 0.56265 0.09274 0.74958 0.0
C890 C 0.5573 0.11357 0.91045 0.0
C891 C 0.56672 0.10251 0.8434 0.0
C892 C 0.5543 0.11348 0.95819 0.0
C893 C 0.56082 0.10629 -0.01064 0.0
C894 C 0.56661 0.10612 0.8938 0.0
C895 C 0.57158 0.10067 0.97185 0.0
C896 C 0.57223 0.09141 0.82761 0.0
C897 C 0.55783 0.10424 0.76636 0.0
N898 N 0.57383 0.10033 0.92502 0.0
N899 N 0.55979 0.10862 0.81225 0.0
H900 H 0.91165 0.49634 0.76783 0.0
H901 H 0.87986 0.4256 0.9628 0.0
H902 H 0.88109 0.44275 0.73731 0.0
H903 H 0.89844 0.47856 -0.00612 0.0
H904 H 0.87815 0.43133 0.88038 0.0
H905 H 0.90571 0.49008 0.85096 0.0
C906 C 0.90366 0.48326 0.77864 0.0
C907 C 0.89702 0.47002 0.74577 0.0
C908 C 0.88231 0.44164 0.90531 0.0
C909 C 0.89014 0.46277 0.84061 0.0
C910 C 0.88326 0.43837 0.95239 0.0
C911 C 0.88954 0.45167 -0.0149 0.0
C912 C 0.88796 0.45838 0.8908 0.0
C913 C 0.89363 0.46794 0.96977 0.0
C914 C 0.90016 0.47971 0.82603 0.0
C915 C 0.88658 0.45333 0.76157 0.0
N916 N 0.89308 0.47091 0.92352 0.0
N917 N 0.88361 0.45016 0.80795 0.0
H918 H 0.57482 0.43799 0.66881 0.0
H919 H 0.57819 0.47561 0.92201 0.0
H920 H 0.56609 0.4796 0.69803 0.0
H921 H 0.55597 0.42212 0.89115 0.0
H922 H 0.58787 0.4821 0.84095 0.0
H923 H 0.58226 0.43796 0.75118 0.0
C924 C 0.57516 0.44756 0.69217 0.0
C925 C 0.56957 0.45863 0.67724 0.0
C926 C 0.58133 0.46899 0.85249 0.0
C927 C 0.57817 0.45874 0.77036 0.0
C928 C 0.57579 0.46525 0.89859 0.0
C929 C 0.56589 0.44827 0.9128 0.0
C930 C 0.57718 0.45566 0.8209 0.0
C931 C 0.56323 0.43536 0.88117 0.0
C932 C 0.57932 0.44748 0.739 0.0
C933 C 0.5701 0.47072 0.70867 0.0
N934 N 0.56866 0.43932 0.83635 0.0
N935 N 0.5741 0.47032 0.75409 0.0
H936 H 0.56968 0.75008 0.8132 0.0
H937 H 0.55188 0.76391 0.54796 0.0
H938 H 0.55676 0.78774 0.77016 0.0
H939 H 0.57646 0.73575 0.58854 0.0
H940 H 0.54833 0.76848 0.63048 0.0
H941 H 0.56674 0.74037 0.73229 0.0
C942 C 0.566 0.75617 0.78689 0.0
C943 C 0.56367 0.7699 0.79844 0.0
C944 C 0.55438 0.76119 0.62129 0.0
C945 C 0.56035 0.75886 0.70576 0.0
C946 C 0.55638 0.75855 0.57423 0.0
C947 C 0.56465 0.7496 0.56142 0.0
C948 C 0.5606 0.75475 0.65576 0.0
C949 C 0.57017 0.74288 0.5969 0.0
C950 C 0.5644 0.75066 0.74067 0.0
C951 C 0.55886 0.77724 0.76282 0.0
N952 N 0.56812 0.74567 0.64248 0.0
N953 N 0.55748 0.77171 0.71802 0.0
H954 H 0.23913 0.82727 0.6012 0.0
H955 H 0.21417 0.76061 0.80527 0.0
H956 H 0.2183 0.77349 0.5778 0.0
H957 H 0.24364 0.81481 0.82731 0.0
H958 H 0.21896 0.76515 0.72143 0.0
H959 H 0.24335 0.82324 0.68343 0.0
C960 C 0.23545 0.81462 0.61337 0.0
C961 C 0.22812 0.80065 0.58283 0.0
C962 C 0.2247 0.77606 0.74458 0.0
C963 C 0.23303 0.79596 0.67668 0.0
C964 C 0.22204 0.77345 0.79248 0.0
C965 C 0.2283 0.78738 0.82308 0.0
C966 C 0.2334 0.79272 0.72719 0.0
C967 C 0.23851 0.80373 0.80482 0.0
C968 C 0.23801 0.81234 0.66022 0.0
C969 C 0.22382 0.78458 0.60027 0.0
N970 N 0.24042 0.80599 0.75785 0.0
N971 N 0.22619 0.78265 0.64616 0.0
H972 H 0.22437 0.45031 0.53139 0.0
H973 H 0.18562 0.43117 0.78932 0.0
H974 H 0.17102 0.41835 0.56184 0.0
H975 H 0.23861 0.45043 0.75817 0.0
H976 H 0.1804 0.43317 0.70631 0.0
H977 H 0.22988 0.45655 0.61473 0.0
C978 C 0.21381 0.44467 0.55559 0.0
C979 C 0.19725 0.43359 0.53985 0.0
C980 C 0.19321 0.43722 0.71786 0.0
C981 C 0.20344 0.4408 0.63497 0.0
C982 C 0.19622 0.43622 0.76522 0.0
C983 C 0.21252 0.44037 0.78039 0.0
C984 C 0.20662 0.44253 0.68581 0.0
C985 C 0.2258 0.44683 0.74774 0.0
C986 C 0.21696 0.44827 0.60309 0.0
C987 C 0.18401 0.42677 0.57263 0.0
N988 N 0.22252 0.44754 0.70185 0.0
N989 N 0.18741 0.43041 0.61876 0.0
H990 H 0.41096 0.89699 0.96354 0.0
H991 H 0.43461 0.8785 0.21674 0.0
H992 H 0.44459 0.87711 -0.01189 0.0
H993 H 0.41307 0.91064 0.19102 0.0
H994 H 0.43215 0.87161 0.13348 0.0
H995 H 0.4048 0.89492 0.04726 0.0
C996 C 0.41667 0.89174 -0.01367 0.0
C997 C 0.42855 0.88752 0.9691 0.0
C998 C 0.42785 0.88007 0.14616 0.0
C999 C 0.42174 0.88533 0.06455 0.0
C1000 C 0.42931 0.88406 0.19359 0.0
C1001 C 0.42429 0.89537 0.2106 0.0
C1002 C 0.42127 0.8874 0.11562 0.0
C1003 C 0.41733 0.90206 0.17919 0.0
C1004 C 0.41327 0.89071 0.03412 0.0
C1005 C 0.43558 0.88078 0.00015 0.0
N1006 N 0.41611 0.89805 0.13309 0.0
N1007 N 0.43224 0.88011 0.04653 0.0
H1008 H 0.09696 0.51263 0.96627 0.0
H1009 H 0.11185 0.55573 0.21797 0.0
H1010 H 0.11874 0.56654 -0.01075 0.0
H1011 H 0.07852 0.50226 0.19088 0.0
H1012 H 0.1208 0.55964 0.13625 0.0
H1013 H 0.09752 0.50864 0.0506 0.0
C1014 C 0.10238 0.52369 -0.0111 0.0
C1015 C 0.10749 0.5399 0.97099 0.0
C1016 C 0.11162 0.54704 0.14832 0.0
C1017 C 0.10789 0.5354 0.06707 0.0
C1018 C 0.10644 0.54481 0.19484 0.0
C1019 C 0.09421 0.5287 0.21095 0.0
C1020 C 0.10456 0.53305 0.11778 0.0
C1021 C 0.08778 0.51495 0.17967 0.0
C1022 C 0.10251 0.52138 0.03703 0.0
C1023 C 0.11439 0.55379 0.00183 0.0
N1024 N 0.09297 0.51746 0.13443 0.0
N1025 N 0.11414 0.55119 0.04851 0.0
H1026 H 0.40801 0.516 0.04514 0.0
H1027 H 0.41935 0.55632 0.29806 0.0
H1028 H 0.43034 0.56979 0.0718 0.0
H1029 H 0.42978 0.51631 0.26194 0.0
H1030 H 0.40851 0.55494 0.21868 0.0
H1031 H 0.40092 0.5105 0.12808 0.0
C1032 C 0.4109 0.52662 0.06809 0.0
C1033 C 0.42022 0.54343 0.05205 0.0
C1034 C 0.41261 0.54607 0.22887 0.0
C1035 C 0.4119 0.53714 0.14612 0.0
C1036 C 0.41876 0.54683 0.27393 0.0
C1037 C 0.42573 0.53663 0.2858 0.0
C1038 C 0.41315 0.53479 0.19633 0.0
C1039 C 0.42476 0.52457 0.25355 0.0
C1040 C 0.40683 0.52343 0.11528 0.0
C1041 C 0.42352 0.55668 0.08315 0.0
N1042 N 0.41876 0.5241 0.20991 0.0
N1043 N 0.4196 0.55327 0.12907 0.0
H1044 H 0.11282 0.55528 0.71694 0.0
H1045 H 0.0941 0.58129 0.46731 0.0
H1046 H 0.07959 0.57578 0.69458 0.0
H1047 H 0.11533 0.54859 0.48737 0.0
H1048 H 0.09585 0.58642 0.55164 0.0
H1049 H 0.12006 0.55909 0.63393 0.0
C1050 C 0.10708 0.56063 0.69458 0.0
C1051 C 0.09537 0.56496 0.71243 0.0
C1052 C 0.10044 0.5784 0.53739 0.0
C1053 C 0.10376 0.56954 0.61777 0.0
C1054 C 0.0996 0.5756 0.48926 0.0
C1055 C 0.10429 0.56424 0.4706 0.0
C1056 C 0.10609 0.56986 0.56666 0.0
C1057 C 0.11131 0.5572 0.50057 0.0
C1058 C 0.11128 0.56286 0.6473 0.0
C1059 C 0.08848 0.57202 0.68206 0.0
N1060 N 0.11178 0.55993 0.54727 0.0
N1061 N 0.09271 0.57401 0.63608 0.0
H1062 H 0.4349 0.57328 0.79424 0.0
H1063 H 0.47699 0.58045 0.54594 0.0
H1064 H 0.47479 0.56185 0.76692 0.0
H1065 H 0.42323 0.55963 0.56843 0.0
H1066 H 0.48203 0.58846 0.62858 0.0
H1067 H 0.43719 0.5831 0.71331 0.0
C1068 C 0.44458 0.57347 0.7717 0.0
C1069 C 0.45446 0.56648 0.7865 0.0
C1070 C 0.46922 0.58265 0.61488 0.0
C1071 C 0.45729 0.57784 0.69524 0.0
C1072 C 0.4663 0.57806 0.56789 0.0
C1073 C 0.44961 0.56895 0.55087 0.0
C1074 C 0.45537 0.57833 0.64449 0.0
C1075 C 0.43624 0.56627 0.58063 0.0
C1076 C 0.44584 0.57902 0.72573 0.0
C1077 C 0.46677 0.5669 0.75624 0.0
N1078 N 0.43939 0.57073 0.62636 0.0
N1079 N 0.46771 0.5723 0.71166 0.0
H1080 H 0.49102 0.91372 0.69022 0.0
H1081 H 0.42295 0.87325 0.489 0.0
H1082 H 0.43741 0.88129 0.71622 0.0
H1083 H 0.47682 0.8959 0.46479 0.0
H1084 H 0.4279 0.87292 0.57258 0.0
H1085 H 0.48624 0.90531 0.60799 0.0
C1086 C 0.47825 0.90482 0.67861 0.0
C1087 C 0.46455 0.89838 0.70986 0.0
C1088 C 0.43862 0.87764 0.54898 0.0
C1089 C 0.459 0.88862 0.61607 0.0
C1090 C 0.43578 0.87775 0.50123 0.0
C1091 C 0.44953 0.88488 0.47012 0.0
C1092 C 0.45535 0.885 0.56568 0.0
C1093 C 0.46588 0.8904 0.48768 0.0
C1094 C 0.47555 0.8999 0.63178 0.0
C1095 C 0.4483 0.8867 0.69316 0.0
N1096 N 0.46839 0.89072 0.53452 0.0
N1097 N 0.44595 0.88233 0.64727 0.0
H1098 H 0.24907 0.43393 0.28663 0.0
H1099 H 0.22878 0.44938 0.02577 0.0
H1100 H 0.21262 0.44943 0.25178 0.0
H1101 H 0.25344 0.42072 0.0601 0.0
H1102 H 0.22825 0.45552 0.1087 0.0
H1103 H 0.25658 0.43564 0.20399 0.0
C1104 C 0.24291 0.43805 0.26179 0.0
C1105 C 0.23 0.44128 0.27601 0.0
C1106 C 0.23389 0.448 0.09804 0.0
C1107 C 0.23845 0.44313 0.18158 0.0
C1108 C 0.23419 0.44447 0.05074 0.0
C1109 C 0.24095 0.43432 0.03614 0.0
C1110 C 0.24049 0.44141 0.13093 0.0
C1111 C 0.24791 0.42841 0.06993 0.0
C1112 C 0.24712 0.43891 0.2146 0.0
C1113 C 0.22247 0.44659 0.24227 0.0
N1114 N 0.24741 0.43197 0.11587 0.0
N1115 N 0.22669 0.44718 0.19652 0.0
H1116 H 0.57825 0.82526 0.08873 0.0
H1117 H 0.55563 0.75259 0.27524 0.0
H1118 H 0.55323 0.77196 0.05294 0.0
H1119 H 0.57041 0.80418 0.31342 0.0
H1120 H 0.55311 0.75911 0.19406 0.0
H1121 H 0.57427 0.81768 0.17142 0.0
C1122 C 0.57183 0.81196 0.09829 0.0
C1123 C 0.56623 0.79922 0.06399 0.0
C1124 C 0.5567 0.76896 0.22025 0.0
C1125 C 0.56167 0.79046 0.15846 0.0
C1126 C 0.55816 0.76525 0.26662 0.0
C1127 C 0.56343 0.77793 0.30105 0.0
C1128 C 0.56077 0.78553 0.20808 0.0
C1129 C 0.56638 0.79405 0.28796 0.0
C1130 C 0.56949 0.80763 0.1455 0.0
C1131 C 0.55785 0.78218 0.07829 0.0
N1132 N 0.56525 0.79746 0.24235 0.0
N1133 N 0.55598 0.7783 0.12449 0.0
H1134 H 0.22919 0.77786 0.30765 0.0
H1135 H 0.16383 0.74978 0.09913 0.0
H1136 H 0.17498 0.74737 0.32682 0.0
H1137 H 0.21778 0.77108 0.07918 0.0
H1138 H 0.16746 0.74639 0.18219 0.0
H1139 H 0.2253 0.77229 0.2239 0.0
C1140 C 0.21649 0.76963 0.29429 0.0
C1141 C 0.20235 0.76329 0.32398 0.0
C1142 C 0.17849 0.75164 0.15958 0.0
C1143 C 0.19776 0.75725 0.22815 0.0
C1144 C 0.17644 0.75372 0.11224 0.0
C1145 C 0.19057 0.76096 0.08241 0.0
C1146 C 0.19481 0.75702 0.17726 0.0
C1147 C 0.20657 0.76562 0.10108 0.0
C1148 C 0.21426 0.76651 0.24644 0.0
C1149 C 0.18621 0.75259 0.30503 0.0
N1150 N 0.20828 0.76374 0.14743 0.0
N1151 N 0.1843 0.75022 0.25806 0.0
H1152 H 0.19001 0.23442 0.21679 0.0
H1153 H 0.18203 0.14286 0.23702 0.0
H1154 H 0.14247 0.187 0.22148 0.0
H1155 H 0.22999 0.18977 0.2452 0.0
H1156 H 0.16759 0.15915 0.22804 0.0
H1157 H 0.20517 0.21862 0.22563 0.0
C1158 C 0.18277 0.22072 0.22 0.0
C1159 C 0.16496 0.212 0.21835 0.0
C1160 C 0.18128 0.16592 0.2317 0.0
C1161 C 0.18216 0.1939 0.22797 0.0
C1162 C 0.18955 0.15661 0.23665 0.0
C1163 C 0.20724 0.16498 0.24195 0.0
C1164 C 0.19075 0.18375 0.23201 0.0
C1165 C 0.21632 0.18282 0.24121 0.0
C1166 C 0.19142 0.21171 0.22489 0.0
C1167 C 0.1562 0.19425 0.22253 0.0
N1168 N 0.20796 0.19164 0.23644 0.0
N1169 N 0.1649 0.1858 0.22698 0.0
H1170 H 0.75041 0.93366 0.22406 0.0
H1171 H 0.82579 0.02424 0.14289 0.0
H1172 H 0.79862 0.94331 0.16904 0.0
H1173 H 0.78178 0.01788 0.21783 0.0
H1174 H 0.81249 0.9935 0.13558 0.0
H1175 H 0.75837 0.96321 0.20629 0.0
C1176 C 0.7625 0.94189 0.20739 0.0
C1177 C 0.774 0.93617 0.19861 0.0
C1178 C 0.80561 -0.00122 0.15317 0.0
C1179 C 0.78313 0.96975 0.17828 0.0
C1180 C 0.8132 0.01636 0.15729 0.0
C1181 C 0.80499 0.0236 0.18171 0.0
C1182 C 0.78976 0.98829 0.17414 0.0
C1183 C 0.78859 0.01278 0.19906 0.0
C1184 C 0.76705 0.95873 0.19746 0.0
C1185 C 0.78949 0.9473 0.17705 0.0
N1186 N 0.7816 0.99561 0.19565 0.0
N1187 N 0.79364 0.96356 0.16799 0.0
H1188 H 0.94528 0.75364 0.21507 0.0
H1189 H 0.03188 0.84288 0.22116 0.0
H1190 H 0.94856 0.80241 0.19845 0.0
H1191 H 0.03105 0.79508 0.20941 0.0
H1192 H 0.001 0.82766 0.21916 0.0
H1193 H 0.97642 0.768 0.21671 0.0
C1194 C 0.95254 0.76732 0.21126 0.0
C1195 C 0.94432 0.77685 0.20671 0.0
C1196 C 0.00753 0.82045 0.2171 0.0
C1197 C 0.97979 0.7933 0.20932 0.0
C1198 C 0.02519 0.82914 0.21854 0.0
C1199 C 0.03407 0.82024 0.21532 0.0
C1200 C -0.00142 0.80268 0.21253 0.0
C1201 C 0.02469 0.80243 0.21198 0.0
C1202 C 0.97028 0.7755 0.21239 0.0
C1203 C 0.95433 0.79454 0.20209 0.0
N1204 N 0.00742 0.79421 0.21057 0.0
N1205 N 0.9715 0.80218 0.20381 0.0
H1206 H 0.78658 0.76928 0.70804 0.0
H1207 H 0.80563 0.86377 0.669 0.0
H1208 H 0.83361 0.81014 0.65377 0.0
H1209 H 0.75698 0.82334 0.71568 0.0
H1210 H 0.81423 0.84294 0.65128 0.0
H1211 H 0.7737 0.78727 0.69951 0.0
C1212 C 0.79409 0.7819 0.69352 0.0
C1213 C 0.81127 0.78835 0.68235 0.0
C1214 C 0.80158 0.83852 0.66485 0.0
C1215 C 0.79671 0.80896 0.6728 0.0
C1216 C 0.79667 0.85043 0.67499 0.0
C1217 C 0.78067 0.84527 0.69446 0.0
C1218 C 0.79053 0.82129 0.67505 0.0
C1219 C 0.76948 0.82783 0.70095 0.0
C1220 C 0.78675 0.79217 0.68876 0.0
C1221 C 0.8204 0.80475 0.66355 0.0
N1222 N 0.77474 0.81645 0.69205 0.0
N1223 N 0.81308 0.81453 0.65991 0.0
H1224 H 0.24005 0.04135 0.74882 0.0
H1225 H 0.14982 0.95613 0.73153 0.0
H1226 H 0.19201 0.03977 0.73489 0.0
H1227 H 0.19714 0.95606 0.71993 0.0
H1228 H 0.16561 0.98691 0.73836 0.0
H1229 H 0.22512 0.01023 0.74167 0.0
C1230 C 0.22642 0.03449 0.74387 0.0
C1231 C 0.21725 0.04315 0.74256 0.0
C1232 C 0.17259 0.98022 0.73438 0.0
C1233 C 0.20016 0.00772 0.735 0.0
C1234 C 0.16357 0.96259 0.7307 0.0
C1235 C 0.17218 0.9535 0.72502 0.0
C1236 C 0.19041 0.98892 0.73249 0.0
C1237 C 0.19001 0.96259 0.72424 0.0
C1238 C 0.21791 0.01676 0.73995 0.0
C1239 C 0.1996 0.03365 0.73622 0.0
N1240 N 0.19857 0.97985 0.72785 0.0
N1241 N 0.19166 0.01649 0.73292 0.0
H1242 H 0.95105 0.19041 0.70658 0.0
H1243 H 0.03815 0.18906 0.72307 0.0
H1244 H 0.95478 0.14488 0.70255 0.0
H1245 H 0.03671 0.23532 0.70104 0.0
H1246 H 0.00729 0.17309 0.72259 0.0
H1247 H 0.98215 0.20746 0.70889 0.0
C1248 C 0.9584 0.18401 0.70575 0.0
C1249 C 0.95032 0.16619 0.70437 0.0
C1250 C 0.01367 0.18674 0.71799 0.0
C1251 C 0.98576 0.18556 0.70774 0.0
C1252 C 0.03133 0.1959 0.71853 0.0
C1253 C 0.04004 0.21355 0.71186 0.0
C1254 C 0.00455 0.19524 0.71077 0.0
C1255 C 0.03049 0.22171 0.70628 0.0
C1256 C 0.97612 0.19374 0.70724 0.0
C1257 C 0.96045 0.15857 0.70355 0.0
N1258 N 0.01322 0.21247 0.70566 0.0
N1259 N 0.97761 0.16828 0.70549 0.0
H1260 H 0.81163 0.52784 0.61894 0.0
H1261 H 0.85489 0.4866 0.56163 0.0
H1262 H 0.85602 0.57356 0.57162 0.0
H1263 H 0.90059 0.53401 0.5915 0.0
H1264 H 0.83863 0.50118 0.56586 0.0
H1265 H 0.82766 0.513 0.61585 0.0
C1266 C 0.82479 0.53478 0.60794 0.0
C1267 C 0.83243 0.55191 0.59492 0.0
C1268 C 0.85217 0.50839 0.57218 0.0
C1269 C 0.85073 0.53477 0.58953 0.0
C1270 C 0.86152 0.50011 0.56909 0.0
C1271 C 0.8791 0.50906 0.57679 0.0
C1272 C 0.86041 0.52577 0.58347 0.0
C1273 C 0.88703 0.52661 0.58564 0.0
C1274 C 0.83388 0.52621 0.60552 0.0
C1275 C 0.84961 0.56031 0.58166 0.0
N1276 N 0.8776 0.53442 0.58888 0.0
N1277 N 0.8582 0.55162 0.57909 0.0
H1278 H 0.42624 0.30336 0.60653 0.0
H1279 H 0.51939 0.38138 0.6454 0.0
H1280 H 0.46925 0.29884 0.64988 0.0
H1281 H 0.47681 0.38751 0.60804 0.0
H1282 H 0.49994 0.35135 0.65995 0.0
H1283 H 0.4431 0.33415 0.61899 0.0
C1284 C 0.43912 0.3088 0.6194 0.0
C1285 C 0.44647 0.29859 0.62641 0.0
C1286 C 0.49476 0.35925 0.64916 0.0
C1287 C 0.46579 0.33369 0.6405 0.0
C1288 C 0.50588 0.37642 0.64086 0.0
C1289 C 0.4997 0.38686 0.62482 0.0
C1290 C 0.47732 0.35236 0.64059 0.0
C1291 C 0.48208 0.37984 0.62009 0.0
C1292 C 0.44874 0.32637 0.62644 0.0
C1293 C 0.46317 0.30627 0.6433 0.0
N1294 N 0.4715 0.36292 0.62713 0.0
N1295 N 0.47231 0.32335 0.64923 0.0
H1296 H 0.61804 0.13345 0.56631 0.0
H1297 H 0.70418 0.12998 0.55595 0.0
H1298 H 0.61901 0.08658 0.57829 0.0
H1299 H 0.70176 0.1762 0.56338 0.0
H1300 H 0.67311 0.11351 0.56152 0.0
H1301 H 0.64884 0.14897 0.56061 0.0
C1302 C 0.62474 0.1264 0.56746 0.0
C1303 C 0.61595 0.10869 0.57291 0.0
C1304 C 0.67943 0.12725 0.56214 0.0
C1305 C 0.65135 0.12646 0.56676 0.0
C1306 C 0.69713 0.13665 0.55911 0.0
C1307 C 0.70555 0.15448 0.55913 0.0
C1308 C 0.67014 0.13579 0.56495 0.0
C1309 C 0.69582 0.16248 0.56317 0.0
C1310 C 0.64237 0.13529 0.56441 0.0
C1311 C 0.62531 0.10024 0.57412 0.0
N1312 N 0.67866 0.15308 0.56571 0.0
N1313 N 0.64256 0.10922 0.57118 0.0
H1314 H 0.42043 0.1343 0.08756 0.0
H1315 H 0.51015 0.13806 0.07382 0.0
H1316 H 0.469 0.18053 0.09521 0.0
H1317 H 0.46253 0.09095 0.08495 0.0
H1318 H 0.4948 0.15362 0.07643 0.0
H1319 H 0.43518 0.11796 0.08378 0.0
C1320 C 0.43418 0.141 0.08889 0.0
C1321 C 0.44351 0.15881 0.09169 0.0
C1322 C 0.48766 0.13988 0.07816 0.0
C1323 C 0.46042 0.14025 0.08671 0.0
C1324 C 0.49642 0.13096 0.0764 0.0
C1325 C 0.4876 0.11317 0.07931 0.0
C1326 C 0.46992 0.13097 0.08284 0.0
C1327 C 0.46982 0.10467 0.08261 0.0
C1328 C 0.44258 0.13167 0.08653 0.0
C1329 C 0.46129 0.16683 0.09309 0.0
N1330 N 0.46154 0.11366 0.08445 0.0
N1331 N 0.46914 0.1575 0.09036 0.0
H1332 H 0.90546 0.36882 0.07422 0.0
H1333 H 0.81402 0.28484 0.07598 0.0
H1334 H 0.85779 0.36841 0.06962 0.0
H1335 H 0.86004 0.28328 0.05055 0.0
H1336 H 0.83064 0.31562 0.08139 0.0
H1337 H 0.88976 0.33762 0.07077 0.0
C1338 C 0.89173 0.36219 0.07214 0.0
C1339 C 0.88291 0.37121 0.07222 0.0
C1340 C 0.83716 0.30859 0.07472 0.0
C1341 C 0.86496 0.33569 0.06897 0.0
C1342 C 0.82767 0.29097 0.07186 0.0
C1343 C 0.83565 0.28147 0.06255 0.0
C1344 C 0.85482 0.31688 0.06831 0.0
C1345 C 0.85339 0.29014 0.05772 0.0
C1346 C 0.88279 0.34442 0.0703 0.0
C1347 C 0.86513 0.362 0.06963 0.0
N1348 N 0.86242 0.30742 0.06049 0.0
N1349 N 0.85677 0.34478 0.06834 0.0
H1350 H 0.68824 0.56311 0.10667 0.0
H1351 H 0.60786 0.47161 0.14668 0.0
H1352 H 0.69067 0.51883 0.14907 0.0
H1353 H 0.60382 0.51545 0.10977 0.0
H1354 H 0.63809 0.49008 0.16085 0.0
H1355 H 0.6575 0.54741 0.12003 0.0
C1356 C 0.68236 0.55019 0.11952 0.0
C1357 C 0.69196 0.54215 0.12599 0.0
C1358 C 0.63062 0.49575 0.15025 0.0
C1359 C 0.6569 0.52414 0.14112 0.0
C1360 C 0.61333 0.48519 0.14217 0.0
C1361 C 0.60341 0.49201 0.12634 0.0
C1362 C 0.63814 0.51326 0.14164 0.0
C1363 C 0.61108 0.5097 0.12165 0.0
C1364 C 0.66481 0.54123 0.12709 0.0
C1365 C 0.68372 0.52544 0.14289 0.0
N1366 N 0.6281 0.51973 0.12844 0.0
N1367 N 0.66666 0.51695 0.14934 0.0
H1368 H 0.52849 0.9074 0.88081 0.0
H1369 H 0.5248 0.8175 0.88233 0.0
H1370 H 0.48212 0.85888 0.8853 0.0
H1371 H 0.57162 0.86534 0.89506 0.0
H1372 H 0.5092 0.83282 0.87881 0.0
H1373 H 0.54478 0.89258 0.88345 0.0
C1374 C 0.52174 0.89366 0.88272 0.0
C1375 C 0.50392 0.88435 0.88283 0.0
C1376 C 0.52289 0.84001 0.88225 0.0
C1377 C 0.52243 0.86736 0.88527 0.0
C1378 C 0.53182 0.83126 0.88403 0.0
C1379 C 0.54954 0.84016 0.8891 0.0
C1380 C 0.53172 0.85782 0.88551 0.0
C1381 C 0.55796 0.85798 0.89115 0.0
C1382 C 0.53104 0.88521 0.88406 0.0
C1383 C 0.49584 0.86657 0.88516 0.0
N1384 N 0.54896 0.86625 0.88948 0.0
N1385 N 0.50515 0.85867 0.8861 0.0
H1386 H 0.08743 0.61981 0.88712 0.0
H1387 H 0.17746 0.70559 0.89814 0.0
H1388 H 0.13582 0.62174 0.89183 0.0
H1389 H 0.12979 0.70501 0.90831 0.0
H1390 H 0.162 0.67476 0.89188 0.0
H1391 H 0.10229 0.65091 0.89282 0.0
C1392 C 0.10115 0.62676 0.88969 0.0
C1393 C 0.11041 0.61819 0.88896 0.0
C1394 C 0.15487 0.68133 0.89537 0.0
C1395 C 0.12744 0.65364 0.89495 0.0
C1396 C 0.16371 0.69897 0.89876 0.0
C1397 C 0.1549 0.70789 0.90386 0.0
C1398 C 0.13705 0.67246 0.89708 0.0
C1399 C 0.13707 0.69862 0.90441 0.0
C1400 C 0.10962 0.64449 0.89278 0.0
C1401 C 0.12816 0.6278 0.89224 0.0
N1402 N 0.12871 0.68137 0.90119 0.0
N1403 N 0.13608 0.64499 0.89491 0.0
H1404 H 0.29226 0.46796 0.81395 0.0
H1405 H 0.3816 0.47331 0.85611 0.0
H1406 H 0.29704 0.42585 0.86464 0.0
H1407 H 0.375 0.51617 0.82611 0.0
H1408 H 0.3511 0.45426 0.84303 0.0
H1409 H 0.32283 0.48406 0.80147 0.0
C1410 C 0.29973 0.46202 0.82197 0.0
C1411 C 0.29214 0.44565 0.8411 0.0
C1412 C 0.35641 0.46782 0.83865 0.0
C1413 C 0.32725 0.46411 0.82734 0.0
C1414 C 0.3738 0.47868 0.84592 0.0
C1415 C 0.38074 0.49634 0.84286 0.0
C1416 C 0.34601 0.47473 0.828 0.0
C1417 C 0.37011 0.50264 0.82952 0.0
C1418 C 0.31721 0.47123 0.81486 0.0
C1419 C 0.30242 0.4385 0.85022 0.0
N1420 N 0.35327 0.49186 0.823 0.0
N1421 N 0.31952 0.44788 0.84389 0.0
H1422 H 0.13348 0.51308 0.39185 0.0
H1423 H 0.13091 0.42397 0.37401 0.0
H1424 H 0.08686 0.46557 0.37119 0.0
H1425 H 0.17678 0.47293 0.36994 0.0
H1426 H 0.11421 0.43838 0.37682 0.0
H1427 H 0.14918 0.4979 0.39026 0.0
C1428 C 0.12651 0.49941 0.38737 0.0
C1429 C 0.10883 0.49059 0.38146 0.0
C1430 C 0.12792 0.44593 0.37505 0.0
C1431 C 0.12682 0.47309 0.37911 0.0
C1432 C 0.13746 0.43773 0.37326 0.0
C1433 C 0.15527 0.44727 0.37175 0.0
C1434 C 0.1363 0.46377 0.37568 0.0
C1435 C 0.16309 0.46505 0.37105 0.0
C1436 C 0.13552 0.49075 0.3862 0.0
C1437 C 0.1005 0.47286 0.37586 0.0
N1438 N 0.15356 0.4727 0.37327 0.0
N1439 N 0.10959 0.46467 0.37466 0.0
H1440 H 0.47935 0.61499 0.32517 0.0
H1441 H 0.57206 0.69058 0.38418 0.0
H1442 H 0.52057 0.60686 0.36401 0.0
H1443 H 0.53075 0.6973 0.3367 0.0
H1444 H 0.55501 0.66019 0.36596 0.0
H1445 H 0.49945 0.64525 0.31723 0.0
C1446 C 0.4927 0.61957 0.33139 0.0
C1447 C 0.49829 0.60847 0.34593 0.0
C1448 C 0.54979 0.66838 0.35892 0.0
C1449 C 0.52139 0.64319 0.33781 0.0
C1450 C 0.55951 0.68571 0.3693 0.0
C1451 C 0.55269 0.69641 0.36269 0.0
C1452 C 0.53315 0.66176 0.34194 0.0
C1453 C 0.53643 0.68947 0.34307 0.0
C1454 C 0.5042 0.63687 0.32688 0.0
C1455 C 0.51574 0.61504 0.35299 0.0
N1456 N 0.52716 0.67258 0.3339 0.0
N1457 N 0.52667 0.63206 0.34969 0.0
H1458 H 0.36894 0.90398 0.38594 0.0
H1459 H 0.28297 0.8142 0.39903 0.0
H1460 H 0.36674 0.85543 0.3908 0.0
H1461 H 0.28391 0.86207 0.40982 0.0
H1462 H 0.31375 0.8295 0.39213 0.0
H1463 H 0.33791 0.88928 0.39258 0.0
C1464 C 0.36195 0.89026 0.38872 0.0
C1465 C 0.37042 0.8809 0.38777 0.0
C1466 C 0.30727 0.83671 0.39592 0.0
C1467 C 0.33503 0.86406 0.39487 0.0
C1468 C 0.28966 0.82796 0.39967 0.0
C1469 C 0.28086 0.83687 0.40511 0.0
C1470 C 0.31624 0.85454 0.39755 0.0
C1471 C 0.29021 0.85471 0.40567 0.0
C1472 C 0.34425 0.88188 0.39237 0.0
C1473 C 0.36075 0.86316 0.39137 0.0
N1474 N 0.30744 0.86298 0.40205 0.0
N1475 N 0.3436 0.85533 0.39457 0.0
H1476 H 0.28507 0.16738 0.20038 0.0
H1477 H 0.36582 0.15685 0.14679 0.0
H1478 H 0.29325 0.12903 0.26403 0.0
H1479 H 0.35748 0.19514 0.08334 0.0
H1480 H 0.33899 0.14608 0.18878 0.0
H1481 H 0.3117 0.17785 0.1577 0.0
C1482 C 0.29253 0.16125 0.20576 0.0
C1483 C 0.28687 0.14728 0.23588 0.0
C1484 C 0.34299 0.15678 0.16549 0.0
C1485 C 0.31733 0.1591 0.18657 0.0
C1486 C 0.35828 0.1629 0.14128 0.0
C1487 C 0.36398 0.17697 0.11153 0.0
C1488 C 0.33331 0.1648 0.16002 0.0
C1489 C 0.35365 0.18428 0.10592 0.0
C1490 C 0.30771 0.16718 0.18114 0.0
C1491 C 0.29709 0.13983 0.24125 0.0
N1492 N 0.33887 0.17817 0.13009 0.0
N1493 N 0.31178 0.1458 0.21671 0.0
H1494 H 0.78754 0.15598 0.0354 0.0
H1495 H 0.84568 0.14694 0.22992 0.0
H1496 H 0.82779 0.19854 0.1094 0.0
H1497 H 0.80706 0.10441 0.15184 0.0
H1498 H 0.8383 0.16577 0.18865 0.0
H1499 H 0.79415 0.13684 0.07836 0.0
C1500 C 0.79788 0.16135 0.06036 0.0
C1501 C 0.80712 0.17895 0.06873 0.0
C1502 C 0.83136 0.15231 0.18069 0.0
C1503 C 0.8146 0.15699 0.11858 0.0
C1504 C 0.8355 0.1415 0.20447 0.0
C1505 C 0.82704 0.12402 0.19426 0.0
C1506 C 0.81866 0.14567 0.14629 0.0
C1507 C 0.81395 0.11777 0.16092 0.0
C1508 C 0.80158 0.15037 0.08507 0.0
C1509 C 0.82034 0.1851 0.10163 0.0
N1510 N 0.81024 0.1286 0.13794 0.0
N1511 N 0.82363 0.17413 0.12545 0.0
H1512 H 0.81388 0.6239 0.06362 0.0
H1513 H 0.82051 0.69576 0.23902 0.0
H1514 H 0.77118 0.62031 0.13989 0.0
H1515 H 0.86336 0.69935 0.16361 0.0
H1516 H 0.80236 0.66796 0.20373 0.0
H1517 H 0.83211 0.6517 0.09897 0.0
C1518 C 0.80828 0.629 0.08749 0.0
C1519 C 0.79094 0.61969 0.09882 0.0
C1520 C 0.81575 0.67479 0.19501 0.0
C1521 C 0.81185 0.65152 0.13986 0.0
C1522 C 0.82616 0.69067 0.21532 0.0
C1523 C 0.84352 0.69998 0.20422 0.0
C1524 C 0.82269 0.66813 0.16322 0.0
C1525 C 0.85007 0.69266 0.17325 0.0
C1526 C 0.81874 0.64487 0.10785 0.0
C1527 C 0.78446 0.627 0.13006 0.0
N1528 N 0.83963 0.67721 0.15369 0.0
N1529 N 0.79493 0.64243 0.1496 0.0
H1530 H 0.15475 0.37006 0.31876 0.0
H1531 H 0.16735 0.29054 0.26387 0.0
H1532 H 0.19344 0.36254 0.38307 0.0
H1533 H 0.12906 0.29839 0.19837 0.0
H1534 H 0.17712 0.31691 0.30776 0.0
H1535 H 0.14464 0.3434 0.27606 0.0
C1536 C 0.16102 0.36273 0.32433 0.0
C1537 C 0.17502 0.36861 0.3545 0.0
C1538 C 0.16662 0.31289 0.28365 0.0
C1539 C 0.16362 0.33815 0.30517 0.0
C1540 C 0.16109 0.29787 0.25834 0.0
C1541 C 0.14734 0.2922 0.22733 0.0
C1542 C 0.15835 0.32233 0.27802 0.0
C1543 C 0.1397 0.30224 0.22183 0.0
C1544 C 0.15529 0.34754 0.29969 0.0
C1545 C 0.18263 0.35855 0.36016 0.0
N1546 N 0.14527 0.31677 0.24704 0.0
N1547 N 0.17688 0.34387 0.33556 0.0
H1548 H 0.63725 0.817 0.42679 0.0
H1549 H 0.72017 0.81963 0.32414 0.0
H1550 H 0.63691 0.77161 0.37969 0.0
H1551 H 0.71229 0.86272 0.32563 0.0
H1552 H 0.69122 0.80179 0.35414 0.0
H1553 H 0.66658 0.8339 0.40094 0.0
C1554 C 0.64337 0.81053 0.41138 0.0
C1555 C 0.63452 0.79282 0.40521 0.0
C1556 C 0.69588 0.81515 0.34777 0.0
C1557 C 0.66822 0.81223 0.37535 0.0
C1558 C 0.71238 0.82534 0.33076 0.0
C1559 C 0.71865 0.8427 0.32225 0.0
C1560 C 0.68573 0.82244 0.35701 0.0
C1561 C 0.70799 0.84941 0.33141 0.0
C1562 C 0.66011 0.82024 0.39637 0.0
C1563 C 0.6432 0.78523 0.38494 0.0
N1564 N 0.69211 0.83929 0.34849 0.0
N1565 N 0.6596 0.79498 0.37068 0.0
H1566 H 0.20381 0.83715 0.34928 0.0
H1567 H 0.11103 0.81916 0.27799 0.0
H1568 H 0.15759 0.79861 0.41392 0.0
H1569 H 0.15731 0.85725 0.21248 0.0
H1570 H 0.12779 0.81106 0.3271 0.0
H1571 H 0.18697 0.845 0.2998 0.0
C1572 C 0.19015 0.83046 0.3535 0.0
C1573 C 0.18213 0.81717 0.38585 0.0
C1574 C 0.13426 0.82113 0.30178 0.0
C1575 C 0.16272 0.82594 0.32869 0.0
C1576 C 0.12468 0.82569 0.27346 0.0
C1577 C 0.13274 0.83895 0.24105 0.0
C1578 C 0.15205 0.82991 0.29778 0.0
C1579 C 0.1505 0.84697 0.23699 0.0
C1580 C 0.18052 0.83488 0.32497 0.0
C1581 C 0.16435 0.80893 0.38951 0.0
N1582 N 0.15955 0.84239 0.26517 0.0
N1583 N 0.15525 0.8134 0.36115 0.0
H1584 H 0.71759 0.89734 0.82495 0.0
H1585 H 0.63989 0.81054 0.91899 0.0
H1586 H 0.71598 0.84904 0.82058 0.0
H1587 H 0.63399 0.85312 0.8792 0.0
H1588 H 0.66937 0.82618 0.89349 0.0
H1589 H 0.68826 0.88282 0.85408 0.0
C1590 C 0.71109 0.88371 0.83009 0.0
C1591 C 0.71924 0.87438 0.8202 0.0
C1592 C 0.66164 0.83213 0.89041 0.0
C1593 C 0.68589 0.85782 0.85391 0.0
C1594 C 0.64481 0.82324 0.9052 0.0
C1595 C 0.63439 0.83049 0.90106 0.0
C1596 C 0.66824 0.84848 0.87166 0.0
C1597 C 0.64153 0.847 0.88282 0.0
C1598 C 0.69437 0.87545 0.84661 0.0
C1599 C 0.7102 0.85675 0.82747 0.0
N1600 N 0.65805 0.85547 0.86878 0.0
N1601 N 0.69407 0.84908 0.84407 0.0
H1602 H 0.19251 0.83102 0.91736 0.0
H1603 H 0.13374 0.83024 0.70821 0.0
H1604 H 0.1554 0.78532 0.84686 0.0
H1605 H 0.17117 0.87596 0.77797 0.0
H1606 H 0.14188 0.81365 0.75763 0.0
H1607 H 0.18451 0.84761 0.86749 0.0
C1608 C 0.18254 0.82443 0.89177 0.0
C1609 C 0.17465 0.80671 0.88632 0.0
C1610 C 0.14838 0.82732 0.76196 0.0
C1611 C 0.16559 0.82573 0.82852 0.0
C1612 C 0.14381 0.83683 0.73352 0.0
C1613 C 0.15174 0.85455 0.73895 0.0
C1614 C 0.16095 0.83553 0.79625 0.0
C1615 C 0.1647 0.86235 0.77245 0.0
C1616 C 0.17805 0.83394 0.86307 0.0
C1617 C 0.16184 0.79892 0.85242 0.0
N1618 N 0.16882 0.85278 0.79998 0.0
N1619 N 0.15777 0.80849 0.82468 0.0
H1620 H 0.16982 0.36231 0.89211 0.0
H1621 H 0.16434 0.29719 0.69452 0.0
H1622 H 0.21333 0.36749 0.81668 0.0
H1623 H 0.12069 0.29179 0.76968 0.0
H1624 H 0.18241 0.32297 0.73893 0.0
H1625 H 0.15176 0.33603 0.84942 0.0
C1626 C 0.17563 0.35785 0.86697 0.0
C1627 C 0.19316 0.36721 0.85791 0.0
C1628 C 0.16887 0.3162 0.74563 0.0
C1629 C 0.17243 0.33717 0.80837 0.0
C1630 C 0.1585 0.30149 0.72007 0.0
C1631 C 0.14092 0.29225 0.72831 0.0
C1632 C 0.16167 0.32177 0.77985 0.0
C1633 C 0.13415 0.29849 0.76199 0.0
C1634 C 0.16527 0.34286 0.8424 0.0
C1635 C 0.19991 0.36074 0.82487 0.0
N1636 N 0.14454 0.31282 0.78663 0.0
N1637 N 0.18952 0.34619 0.80114 0.0
H1638 H 0.80989 0.7071 0.6614 0.0
H1639 H 0.82812 0.62971 0.63724 0.0
H1640 H 0.84931 0.70398 0.73708 0.0
H1641 H 0.78732 0.63159 0.56562 0.0
H1642 H 0.83651 0.65732 0.67254 0.0
H1643 H 0.80133 0.67942 0.62603 0.0
C1644 C 0.81664 0.70055 0.67098 0.0
C1645 C 0.83037 0.70794 0.70224 0.0
C1646 C 0.82575 0.65172 0.64896 0.0
C1647 C 0.82077 0.67633 0.66137 0.0
C1648 C 0.82102 0.63598 0.62856 0.0
C1649 C 0.80696 0.62826 0.59844 0.0
C1650 C 0.81639 0.65983 0.63922 0.0
C1651 C 0.79822 0.63701 0.58868 0.0
C1652 C 0.8118 0.68477 0.65055 0.0
C1653 C 0.83867 0.69883 0.71313 0.0
N1654 N 0.80304 0.65228 0.6091 0.0
N1655 N 0.83379 0.68358 0.69259 0.0
H1656 H 0.2931 0.12425 0.69619 0.0
H1657 H 0.36751 0.21981 0.64976 0.0
H1658 H 0.29639 0.16809 0.76559 0.0
H1659 H 0.36313 0.17602 0.57725 0.0
H1660 H 0.3412 0.20117 0.69152 0.0
H1661 H 0.319 0.14305 0.6531 0.0
C1662 C 0.29934 0.1378 0.70275 0.0
C1663 C 0.29251 0.14457 0.73461 0.0
C1664 C 0.34595 0.19566 0.66626 0.0
C1665 C 0.3221 0.16621 0.68486 0.0
C1666 C 0.36093 0.20632 0.64216 0.0
C1667 C 0.36762 0.1995 0.60999 0.0
C1668 C 0.33759 0.17804 0.65826 0.0
C1669 C 0.35852 0.18188 0.60177 0.0
C1670 C 0.31409 0.14855 0.67788 0.0
C1671 C 0.30116 0.16227 0.74141 0.0
N1672 N 0.34405 0.17177 0.62593 0.0
N1673 N 0.31546 0.17246 0.71666 0.0
H1674 H 0.8278 0.12835 0.72463 0.0
H1675 H 0.82888 0.19488 0.54002 0.0
H1676 H 0.87322 0.16617 0.65508 0.0
H1677 H 0.78338 0.1561 0.60705 0.0
H1678 H 0.8454 0.18476 0.58231 0.0
H1679 H 0.81155 0.13911 0.68404 0.0
C1680 C 0.83441 0.13903 0.70119 0.0
C1681 C 0.85192 0.14631 0.69317 0.0
C1682 C 0.83179 0.17843 0.58765 0.0
C1683 C 0.83329 0.15858 0.64606 0.0
C1684 C 0.82232 0.18415 0.56333 0.0
C1685 C 0.80469 0.17634 0.56994 0.0
C1686 C 0.8236 0.16481 0.61895 0.0
C1687 C 0.79693 0.16251 0.60074 0.0
C1688 C 0.82508 0.14512 0.67781 0.0
C1689 C 0.85975 0.16014 0.66236 0.0
N1690 N 0.80644 0.15723 0.62418 0.0
N1691 N 0.85037 0.16576 0.63975 0.0
H1692 H 0.02421 0.52991 0.37403 0.0
H1693 H 0.96536 0.47176 0.58279 0.0
H1694 H 0.03172 0.49218 0.4443 0.0
H1695 H 0.95704 0.50868 0.51089 0.0
H1696 H 0.99013 0.47964 0.53367 0.0
H1697 H -0.00055 0.52215 0.42319 0.0
C1698 C 0.02057 0.51986 0.39942 0.0
C1699 C 0.03014 0.51172 0.40502 0.0
C1700 C 0.98295 0.48609 0.52876 0.0
C1701 C 0.00186 0.50294 0.46202 0.0
C1702 C 0.96883 0.48167 0.55704 0.0
C1703 C 0.95902 0.48953 0.55097 0.0
C1704 C 0.98734 0.49846 0.49399 0.0
C1705 C 0.9642 0.50228 0.51693 0.0
C1706 C 0.00646 0.51551 0.4277 0.0
C1707 C 0.02476 0.4988 0.43862 0.0
N1708 N 0.97794 0.50628 0.48957 0.0
N1709 N 0.01105 0.49489 0.46599 0.0
H1710 H 0.4523 0.49343 0.47158 0.0
H1711 H 0.54324 0.4995 0.48451 0.0
H1712 H 0.4992 0.53754 0.42904 0.0
H1713 H 0.49645 0.4556 0.52869 0.0
H1714 H 0.52726 0.51355 0.46327 0.0
H1715 H 0.46821 0.47921 0.49189 0.0
C1716 C 0.46592 0.50012 0.46643 0.0
C1717 C 0.47441 0.51672 0.4486 0.0
C1718 C 0.5205 0.50084 0.47762 0.0
C1719 C 0.49271 0.50052 0.47183 0.0
C1720 C 0.52962 0.49281 0.48977 0.0
C1721 C 0.52119 0.47634 0.50846 0.0
C1722 C 0.50281 0.49236 0.48417 0.0
C1723 C 0.5035 0.4683 0.51444 0.0
C1724 C 0.47501 0.492 0.47807 0.0
C1725 C 0.4921 0.52475 0.44271 0.0
N1726 N 0.49492 0.47639 0.50234 0.0
N1727 N 0.50065 0.51659 0.45432 0.0
H1728 H 0.53971 0.03111 0.51709 0.0
H1729 H 0.44727 0.95656 0.4418 0.0
H1730 H 0.49311 0.02309 0.58034 0.0
H1731 H 0.4938 0.96392 0.37981 0.0
H1732 H 0.46388 0.98132 0.49158 0.0
H1733 H 0.52318 0.00633 0.4672 0.0
C1734 C 0.52603 0.02404 0.52094 0.0
C1735 C 0.51781 0.02926 0.55298 0.0
C1736 C 0.47045 0.97757 0.46692 0.0
C1737 C 0.49878 0.00098 0.49536 0.0
C1738 C 0.46096 0.96348 0.43821 0.0
C1739 C 0.46913 0.95809 0.40654 0.0
C1740 C 0.48827 0.98636 0.46408 0.0
C1741 C 0.48693 0.96757 0.40367 0.0
C1742 C 0.51658 0.00994 0.49218 0.0
C1743 C 0.50002 0.01959 0.55618 0.0
N1744 N 0.49589 0.98118 0.43222 0.0
N1745 N 0.49112 0.00599 0.52758 0.0
H1746 H 0.524 0.02655 0.08253 0.0
H1747 H 0.46405 0.96809 0.87511 0.0
H1748 H 0.48727 0.03571 0.01263 0.0
H1749 H 0.50175 0.95992 0.94301 0.0
H1750 H 0.47252 0.99302 0.92451 0.0
H1751 H 0.51548 0.00171 0.03291 0.0
C1752 C 0.51401 0.02326 0.0571 0.0
C1753 C 0.50638 0.03331 0.05177 0.0
C1754 C 0.479 0.98583 0.92844 0.0
C1755 C 0.4967 0.0049 -0.00575 0.0
C1756 C 0.47424 0.97163 0.90003 0.0
C1757 C 0.48216 0.96183 0.9049 0.0
C1758 C 0.49177 0.99029 0.96214 0.0
C1759 C 0.49527 0.96706 0.93792 0.0
C1760 C 0.50922 0.0091 0.02855 0.0
C1761 C 0.49351 0.02836 0.01809 0.0
N1762 N 0.49959 0.98087 0.96541 0.0
N1763 N 0.48914 0.01456 -0.00952 0.0
H1764 H 0.96045 0.44798 0.01772 0.0
H1765 H 0.03495 0.54076 0.94546 0.0
H1766 H 0.96821 0.49442 0.08198 0.0
H1767 H 0.02797 0.4944 0.88268 0.0
H1768 H 0.01026 0.52395 -0.00501 0.0
H1769 H 0.9855 0.46467 0.96914 0.0
C1770 C 0.96752 0.46166 0.0221 0.0
C1771 C 0.96214 0.46978 0.05396 0.0
C1772 C 0.01408 0.51745 0.97023 0.0
C1773 C 0.99071 0.489 -0.00217 0.0
C1774 C 0.02813 0.52706 0.94167 0.0
C1775 C 0.0336 0.51901 0.9098 0.0
C1776 C 0.0054 0.49963 0.96702 0.0
C1777 C 0.02425 0.50119 0.90669 0.0
C1778 C 0.98177 0.47119 -0.00591 0.0
C1779 C 0.97183 0.48757 0.05789 0.0
N1780 N 0.01066 0.49211 0.93506 0.0
N1781 N 0.98556 0.49657 0.02998 0.0
H1782 H 0.53412 0.49707 0.03615 0.0
H1783 H 0.45013 0.49268 0.93388 0.0
H1784 H 0.49001 0.45059 -0.00928 0.0
H1785 H 0.49453 0.53935 0.97687 0.0
H1786 H 0.46445 0.47706 0.95534 0.0
H1787 H 0.5197 0.51271 0.01565 0.0
C1788 C 0.52139 0.49012 0.02192 0.0
C1789 C 0.51328 0.47245 0.01513 0.0
C1790 C 0.47107 0.49071 0.96009 0.0
C1791 C 0.49669 0.49035 -0.0085 0.0
C1792 C 0.4629 0.49967 0.94783 0.0
C1793 C 0.47114 0.51739 0.95353 0.0
C1794 C 0.48762 0.4995 0.97826 0.0
C1795 C 0.48769 0.52571 0.97181 0.0
C1796 C 0.51317 0.49909 0.01018 0.0
C1797 C 0.49677 0.46418 -0.00344 0.0
N1798 N 0.49538 0.51669 -0.01648 0.0
N1799 N 0.48904 0.47321 -0.01463 0.0
loop_
_geom_bond_atom_site_label_1
_geom_bond_atom_site_label_2
_geom_bond_distance
_geom_bond_site_symmetry_2
_ccdc_geom_bond_type
C0 O1 1.306 . S
C0 O3 1.160 . S
O1 C0 1.306 . S
O1 Cd2 2.228 . S
Cd2 O1 2.228 . S
Cd2 O6 2.273 . S
Cd2 O10 2.277 . S
O3 C0 1.160 . S
O3 Cd4 2.203 . S
Cd4 O3 2.203 . S
Cd4 O6 2.411 . S
Cd4 O7 2.333 . S
Cd4 O8 2.352 . S
Cd4 O12 2.277 . S
Cd4 O13 2.356 . S
C5 O10 1.209 . S
C5 O12 1.226 . S
O6 Cd2 2.273 . S
O6 Cd4 2.411 . S
O6 C9 1.320 . S
O7 Cd4 2.333 . S
O7 C9 1.214 . S
O8 Cd4 2.352 . S
O8 C11 1.258 . S
C9 O6 1.320 . S
C9 O7 1.214 . S
O10 Cd2 2.277 . S
O10 C5 1.209 . S
C11 O8 1.258 . S
C11 O13 1.282 . S
O12 Cd4 2.277 . S
O12 C5 1.226 . S
O13 Cd4 2.356 . S
O13 C11 1.282 . S
C14 O15 1.306 . S
C14 O17 1.160 . S
O15 C14 1.306 . S
O15 Cd16 2.228 . S
Cd16 O15 2.228 . S
Cd16 O20 2.273 . S
Cd16 O24 2.277 . S
O17 C14 1.160 . S
O17 Cd18 2.203 . S
Cd18 O17 2.203 . S
Cd18 O20 2.411 . S
Cd18 O21 2.333 . S
Cd18 O22 2.352 . S
Cd18 O26 2.277 . S
Cd18 O27 2.356 . S
C19 O24 1.209 . S
C19 O26 1.226 . S
O20 Cd16 2.273 . S
O20 Cd18 2.411 . S
O20 C23 1.320 . S
O21 Cd18 2.333 . S
O21 C23 1.214 . S
O22 Cd18 2.352 . S
O22 C25 1.258 . S
C23 O20 1.320 . S
C23 O21 1.214 . S
O24 Cd16 2.277 . S
O24 C19 1.209 . S
C25 O22 1.258 . S
C25 O27 1.282 . S
O26 Cd18 2.277 . S
O26 C19 1.226 . S
O27 Cd18 2.356 . S
O27 C25 1.282 . S
C28 O29 1.306 . S
C28 O31 1.160 . S
O29 C28 1.306 . S
O29 Cd30 2.228 . S
Cd30 O29 2.228 . S
Cd30 O34 2.273 . S
Cd30 O38 2.277 . S
O31 C28 1.160 . S
O31 Cd32 2.203 . S
Cd32 O31 2.203 . S
Cd32 O34 2.411 . S
Cd32 O35 2.333 . S
Cd32 O36 2.352 . S
Cd32 O40 2.277 . S
Cd32 O41 2.356 . S
C33 O38 1.209 . S
C33 O40 1.226 . S
O34 Cd30 2.273 . S
O34 Cd32 2.411 . S
O34 C37 1.320 . S
O35 Cd32 2.333 . S
O35 C37 1.214 . S
O36 Cd32 2.352 . S
O36 C39 1.258 . S
C37 O34 1.320 . S
C37 O35 1.214 . S
O38 Cd30 2.277 . S
O38 C33 1.209 . S
C39 O36 1.258 . S
C39 O41 1.282 . S
O40 Cd32 2.277 . S
O40 C33 1.226 . S
O41 Cd32 2.356 . S
O41 C39 1.282 . S
C42 O43 1.306 . S
C42 O45 1.160 . S
O43 C42 1.306 . S
O43 Cd44 2.228 . S
Cd44 O43 2.228 . S
Cd44 O48 2.273 . S
Cd44 O52 2.277 . S
O45 C42 1.160 . S
O45 Cd46 2.203 . S
Cd46 O45 2.203 . S
Cd46 O48 2.411 . S
Cd46 O49 2.333 . S
Cd46 O50 2.352 . S
Cd46 O54 2.277 . S
Cd46 O55 2.356 . S
C47 O52 1.209 . S
C47 O54 1.226 . S
O48 Cd44 2.273 . S
O48 Cd46 2.411 . S
O48 C51 1.320 . S
O49 Cd46 2.333 . S
O49 C51 1.214 . S
O50 Cd46 2.352 . S
O50 C53 1.258 . S
C51 O48 1.320 . S
C51 O49 1.214 . S
O52 Cd44 2.277 . S
O52 C47 1.209 . S
C53 O50 1.258 . S
C53 O55 1.282 . S
O54 Cd46 2.277 . S
O54 C47 1.226 . S
O55 Cd46 2.356 . S
O55 C53 1.282 . S
C56 O57 1.306 . S
C56 O59 1.160 . S
O57 C56 1.306 . S
O57 Cd58 2.228 . S
Cd58 O57 2.228 . S
Cd58 O62 2.273 . S
Cd58 O66 2.277 . S
O59 C56 1.160 . S
O59 Cd60 2.203 . S
Cd60 O59 2.203 . S
Cd60 O62 2.411 . S
Cd60 O63 2.333 . S
Cd60 O64 2.352 . S
Cd60 O68 2.277 . S
Cd60 O69 2.356 . S
C61 O66 1.209 . S
C61 O68 1.226 . S
O62 Cd58 2.273 . S
O62 Cd60 2.411 . S
O62 C65 1.320 . S
O63 Cd60 2.333 . S
O63 C65 1.214 . S
O64 Cd60 2.352 . S
O64 C67 1.258 . S
C65 O62 1.320 . S
C65 O63 1.214 . S
O66 Cd58 2.277 . S
O66 C61 1.209 . S
C67 O64 1.258 . S
C67 O69 1.282 . S
O68 Cd60 2.277 . S
O68 C61 1.226 . S
O69 Cd60 2.356 . S
O69 C67 1.282 . S
C70 O71 1.306 . S
C70 O73 1.160 . S
O71 C70 1.306 . S
O71 Cd72 2.228 . S
Cd72 O71 2.228 . S
Cd72 O76 2.273 . S
Cd72 O80 2.277 . S
O73 C70 1.160 . S
O73 Cd74 2.203 . S
Cd74 O73 2.203 . S
Cd74 O76 2.411 . S
Cd74 O77 2.333 . S
Cd74 O78 2.352 . S
Cd74 O82 2.277 . S
Cd74 O83 2.356 . S
C75 O80 1.209 . S
C75 O82 1.226 . S
O76 Cd72 2.273 . S
O76 Cd74 2.411 . S
O76 C79 1.320 . S
O77 Cd74 2.333 . S
O77 C79 1.214 . S
O78 Cd74 2.352 . S
O78 C81 1.258 . S
C79 O76 1.320 . S
C79 O77 1.214 . S
O80 Cd72 2.277 . S
O80 C75 1.209 . S
C81 O78 1.258 . S
C81 O83 1.282 . S
O82 Cd74 2.277 . S
O82 C75 1.226 . S
O83 Cd74 2.356 . S
O83 C81 1.282 . S
C84 O85 1.306 . S
C84 O87 1.160 . S
O85 C84 1.306 . S
O85 Cd86 2.228 . S
Cd86 O85 2.228 . S
Cd86 O90 2.273 . S
Cd86 O94 2.277 . S
O87 C84 1.160 . S
O87 Cd88 2.203 . S
Cd88 O87 2.203 . S
Cd88 O90 2.411 . S
Cd88 O91 2.333 . S
Cd88 O92 2.352 . S
Cd88 O96 2.277 . S
Cd88 O97 2.356 . S
C89 O94 1.209 . S
C89 O96 1.226 . S
O90 Cd86 2.273 . S
O90 Cd88 2.411 . S
O90 C93 1.320 . S
O91 Cd88 2.333 . S
O91 C93 1.214 . S
O92 Cd88 2.352 . S
O92 C95 1.258 . S
C93 O90 1.320 . S
C93 O91 1.214 . S
O94 Cd86 2.277 . S
O94 C89 1.209 . S
C95 O92 1.258 . S
C95 O97 1.282 . S
O96 Cd88 2.277 . S
O96 C89 1.226 . S
O97 Cd88 2.356 . S
O97 C95 1.282 . S
C98 O99 1.306 . S
C98 O101 1.160 . S
O99 C98 1.306 . S
O99 Cd100 2.228 . S
Cd100 O99 2.228 . S
Cd100 O104 2.273 . S
Cd100 O108 2.277 . S
O101 C98 1.160 . S
O101 Cd102 2.203 . S
Cd102 O101 2.203 . S
Cd102 O104 2.411 . S
Cd102 O105 2.333 . S
Cd102 O106 2.352 . S
Cd102 O110 2.277 . S
Cd102 O111 2.356 . S
C103 O108 1.209 . S
C103 O110 1.226 . S
O104 Cd100 2.273 . S
O104 Cd102 2.411 . S
O104 C107 1.320 . S
O105 Cd102 2.333 . S
O105 C107 1.214 . S
O106 Cd102 2.352 . S
O106 C109 1.258 . S
C107 O104 1.320 . S
C107 O105 1.214 . S
O108 Cd100 2.277 . S
O108 C103 1.209 . S
C109 O106 1.258 . S
C109 O111 1.282 . S
O110 Cd102 2.277 . S
O110 C103 1.226 . S
O111 Cd102 2.356 . S
O111 C109 1.282 . S
C112 O113 1.306 . S
C112 O115 1.160 . S
O113 C112 1.306 . S
O113 Cd114 2.228 . S
Cd114 O113 2.228 . S
Cd114 O118 2.273 . S
Cd114 O122 2.277 . S
O115 C112 1.160 . S
O115 Cd116 2.203 . S
Cd116 O115 2.203 . S
Cd116 O118 2.411 . S
Cd116 O119 2.333 . S
Cd116 O120 2.352 . S
Cd116 O124 2.277 . S
Cd116 O125 2.356 . S
C117 O122 1.209 . S
C117 O124 1.226 . S
O118 Cd114 2.273 . S
O118 Cd116 2.411 . S
O118 C121 1.320 . S
O119 Cd116 2.333 . S
O119 C121 1.214 . S
O120 Cd116 2.352 . S
O120 C123 1.258 . S
C121 O118 1.320 . S
C121 O119 1.214 . S
O122 Cd114 2.277 . S
O122 C117 1.209 . S
C123 O120 1.258 . S
C123 O125 1.282 . S
O124 Cd116 2.277 . S
O124 C117 1.226 . S
O125 Cd116 2.356 . S
O125 C123 1.282 . S
C126 O127 1.306 . S
C126 O129 1.160 . S
O127 C126 1.306 . S
O127 Cd128 2.228 . S
Cd128 O127 2.228 . S
Cd128 O132 2.273 . S
Cd128 O136 2.277 . S
O129 C126 1.160 . S
O129 Cd130 2.203 . S
Cd130 O129 2.203 . S
Cd130 O132 2.411 . S
Cd130 O133 2.333 . S
Cd130 O134 2.352 . S
Cd130 O138 2.277 . S
Cd130 O139 2.356 . S
C131 O136 1.209 . S
C131 O138 1.226 . S
O132 Cd128 2.273 . S
O132 Cd130 2.411 . S
O132 C135 1.320 . S
O133 Cd130 2.333 . S
O133 C135 1.214 . S
O134 Cd130 2.352 . S
O134 C137 1.258 . S
C135 O132 1.320 . S
C135 O133 1.214 . S
O136 Cd128 2.277 . S
O136 C131 1.209 . S
C137 O134 1.258 . S
C137 O139 1.282 . S
O138 Cd130 2.277 . S
O138 C131 1.226 . S
O139 Cd130 2.356 . S
O139 C137 1.282 . S
C140 O141 1.306 . S
C140 O143 1.160 . S
O141 C140 1.306 . S
O141 Cd142 2.228 . S
Cd142 O141 2.228 . S
Cd142 O146 2.273 . S
Cd142 O150 2.277 . S
O143 C140 1.160 . S
O143 Cd144 2.203 . S
Cd144 O143 2.203 . S
Cd144 O146 2.411 . S
Cd144 O147 2.333 . S
Cd144 O148 2.352 . S
Cd144 O152 2.277 . S
Cd144 O153 2.356 . S
C145 O150 1.209 . S
C145 O152 1.226 . S
O146 Cd142 2.273 . S
O146 Cd144 2.411 . S
O146 C149 1.320 . S
O147 Cd144 2.333 . S
O147 C149 1.214 . S
O148 Cd144 2.352 . S
O148 C151 1.258 . S
C149 O146 1.320 . S
C149 O147 1.214 . S
O150 Cd142 2.277 . S
O150 C145 1.209 . S
C151 O148 1.258 . S
C151 O153 1.282 . S
O152 Cd144 2.277 . S
O152 C145 1.226 . S
O153 Cd144 2.356 . S
O153 C151 1.282 . S
C154 O155 1.306 . S
C154 O157 1.160 . S
O155 C154 1.306 . S
O155 Cd156 2.228 . S
Cd156 O155 2.228 . S
Cd156 O160 2.273 . S
Cd156 O164 2.277 . S
O157 C154 1.160 . S
O157 Cd158 2.203 . S
Cd158 O157 2.203 . S
Cd158 O160 2.411 . S
Cd158 O161 2.333 . S
Cd158 O162 2.352 . S
Cd158 O166 2.277 . S
Cd158 O167 2.356 . S
C159 O164 1.209 . S
C159 O166 1.226 . S
O160 Cd156 2.273 . S
O160 Cd158 2.411 . S
O160 C163 1.320 . S
O161 Cd158 2.333 . S
O161 C163 1.214 . S
O162 Cd158 2.352 . S
O162 C165 1.258 . S
C163 O160 1.320 . S
C163 O161 1.214 . S
O164 Cd156 2.277 . S
O164 C159 1.209 . S
C165 O162 1.258 . S
C165 O167 1.282 . S
O166 Cd158 2.277 . S
O166 C159 1.226 . S
O167 Cd158 2.356 . S
O167 C165 1.282 . S
C168 O169 1.306 . S
C168 O171 1.160 . S
O169 C168 1.306 . S
O169 Cd170 2.228 . S
Cd170 O169 2.228 . S
Cd170 O174 2.273 . S
Cd170 O178 2.277 . S
O171 C168 1.160 . S
O171 Cd172 2.203 . S
Cd172 O171 2.203 . S
Cd172 O174 2.411 . S
Cd172 O175 2.333 . S
Cd172 O176 2.352 . S
Cd172 O180 2.277 . S
Cd172 O181 2.356 . S
C173 O178 1.209 . S
C173 O180 1.226 . S
O174 Cd170 2.273 . S
O174 Cd172 2.411 . S
O174 C177 1.320 . S
O175 Cd172 2.333 . S
O175 C177 1.214 . S
O176 Cd172 2.352 . S
O176 C179 1.258 . S
C177 O174 1.320 . S
C177 O175 1.214 . S
O178 Cd170 2.277 . S
O178 C173 1.209 . S
C179 O176 1.258 . S
C179 O181 1.282 . S
O180 Cd172 2.277 . S
O180 C173 1.226 . S
O181 Cd172 2.356 . S
O181 C179 1.282 . S
C182 O183 1.306 . S
C182 O185 1.160 . S
O183 C182 1.306 . S
O183 Cd184 2.228 . S
Cd184 O183 2.228 . S
Cd184 O188 2.273 . S
Cd184 O192 2.277 . S
O185 C182 1.160 . S
O185 Cd186 2.203 . S
Cd186 O185 2.203 . S
Cd186 O188 2.411 . S
Cd186 O189 2.333 . S
Cd186 O190 2.352 . S
Cd186 O194 2.277 . S
Cd186 O195 2.356 . S
C187 O192 1.209 . S
C187 O194 1.226 . S
O188 Cd184 2.273 . S
O188 Cd186 2.411 . S
O188 C191 1.320 . S
O189 Cd186 2.333 . S
O189 C191 1.214 . S
O190 Cd186 2.352 . S
O190 C193 1.258 . S
C191 O188 1.320 . S
C191 O189 1.214 . S
O192 Cd184 2.277 . S
O192 C187 1.209 . S
C193 O190 1.258 . S
C193 O195 1.282 . S
O194 Cd186 2.277 . S
O194 C187 1.226 . S
O195 Cd186 2.356 . S
O195 C193 1.282 . S
C196 O197 1.306 . S
C196 O199 1.160 . S
O197 C196 1.306 . S
O197 Cd198 2.228 . S
Cd198 O197 2.228 . S
Cd198 O202 2.273 . S
Cd198 O206 2.277 . S
O199 C196 1.160 . S
O199 Cd200 2.203 . S
Cd200 O199 2.203 . S
Cd200 O202 2.411 . S
Cd200 O203 2.333 . S
Cd200 O204 2.352 . S
Cd200 O208 2.277 . S
Cd200 O209 2.356 . S
C201 O206 1.209 . S
C201 O208 1.226 . S
O202 Cd198 2.273 . S
O202 Cd200 2.411 . S
O202 C205 1.320 . S
O203 Cd200 2.333 . S
O203 C205 1.214 . S
O204 Cd200 2.352 . S
O204 C207 1.258 . S
C205 O202 1.320 . S
C205 O203 1.214 . S
O206 Cd198 2.277 . S
O206 C201 1.209 . S
C207 O204 1.258 . S
C207 O209 1.282 . S
O208 Cd200 2.277 . S
O208 C201 1.226 . S
O209 Cd200 2.356 . S
O209 C207 1.282 . S
C210 O211 1.306 . S
C210 O213 1.160 . S
O211 C210 1.306 . S
O211 Cd212 2.228 . S
Cd212 O211 2.228 . S
Cd212 O216 2.273 . S
Cd212 O220 2.277 . S
O213 C210 1.160 . S
O213 Cd214 2.203 . S
Cd214 O213 2.203 . S
Cd214 O216 2.411 . S
Cd214 O217 2.333 . S
Cd214 O218 2.352 . S
Cd214 O222 2.277 . S
Cd214 O223 2.356 . S
C215 O220 1.209 . S
C215 O222 1.226 . S
O216 Cd212 2.273 . S
O216 Cd214 2.411 . S
O216 C219 1.320 . S
O217 Cd214 2.333 . S
O217 C219 1.214 . S
O218 Cd214 2.352 . S
O218 C221 1.258 . S
C219 O216 1.320 . S
C219 O217 1.214 . S
O220 Cd212 2.277 . S
O220 C215 1.209 . S
C221 O218 1.258 . S
C221 O223 1.282 . S
O222 Cd214 2.277 . S
O222 C215 1.226 . S
O223 Cd214 2.356 . S
O223 C221 1.282 . S
C224 O225 1.306 . S
C224 O227 1.160 . S
O225 C224 1.306 . S
O225 Cd226 2.228 . S
Cd226 O225 2.228 . S
Cd226 O230 2.273 . S
Cd226 O234 2.277 . S
O227 C224 1.160 . S
O227 Cd228 2.203 . S
Cd228 O227 2.203 . S
Cd228 O230 2.411 . S
Cd228 O231 2.333 . S
Cd228 O232 2.352 . S
Cd228 O236 2.277 . S
Cd228 O237 2.356 . S
C229 O234 1.209 . S
C229 O236 1.226 . S
O230 Cd226 2.273 . S
O230 Cd228 2.411 . S
O230 C233 1.320 . S
O231 Cd228 2.333 . S
O231 C233 1.214 . S
O232 Cd228 2.352 . S
O232 C235 1.258 . S
C233 O230 1.320 . S
C233 O231 1.214 . S
O234 Cd226 2.277 . S
O234 C229 1.209 . S
C235 O232 1.258 . S
C235 O237 1.282 . S
O236 Cd228 2.277 . S
O236 C229 1.226 . S
O237 Cd228 2.356 . S
O237 C235 1.282 . S
C238 O239 1.306 . S
C238 O241 1.160 . S
O239 C238 1.306 . S
O239 Cd240 2.228 . S
Cd240 O239 2.228 . S
Cd240 O244 2.273 . S
Cd240 O248 2.277 . S
O241 C238 1.160 . S
O241 Cd242 2.203 . S
Cd242 O241 2.203 . S
Cd242 O244 2.411 . S
Cd242 O245 2.333 . S
Cd242 O246 2.352 . S
Cd242 O250 2.277 . S
Cd242 O251 2.356 . S
C243 O248 1.209 . S
C243 O250 1.226 . S
O244 Cd240 2.273 . S
O244 Cd242 2.411 . S
O244 C247 1.320 . S
O245 Cd242 2.333 . S
O245 C247 1.214 . S
O246 Cd242 2.352 . S
O246 C249 1.258 . S
C247 O244 1.320 . S
C247 O245 1.214 . S
O248 Cd240 2.277 . S
O248 C243 1.209 . S
C249 O246 1.258 . S
C249 O251 1.282 . S
O250 Cd242 2.277 . S
O250 C243 1.226 . S
O251 Cd242 2.356 . S
O251 C249 1.282 . S
C252 O253 1.306 . S
C252 O255 1.160 . S
O253 C252 1.306 . S
O253 Cd254 2.228 . S
Cd254 O253 2.228 . S
Cd254 O258 2.273 . S
Cd254 O262 2.277 . S
O255 C252 1.160 . S
O255 Cd256 2.203 . S
Cd256 O255 2.203 . S
Cd256 O258 2.411 . S
Cd256 O259 2.333 . S
Cd256 O260 2.352 . S
Cd256 O264 2.277 . S
Cd256 O265 2.356 . S
C257 O262 1.209 . S
C257 O264 1.226 . S
O258 Cd254 2.273 . S
O258 Cd256 2.411 . S
O258 C261 1.320 . S
O259 Cd256 2.333 . S
O259 C261 1.214 . S
O260 Cd256 2.352 . S
O260 C263 1.258 . S
C261 O258 1.320 . S
C261 O259 1.214 . S
O262 Cd254 2.277 . S
O262 C257 1.209 . S
C263 O260 1.258 . S
C263 O265 1.282 . S
O264 Cd256 2.277 . S
O264 C257 1.226 . S
O265 Cd256 2.356 . S
O265 C263 1.282 . S
C266 O267 1.306 . S
C266 O269 1.160 . S
O267 C266 1.306 . S
O267 Cd268 2.228 . S
Cd268 O267 2.228 . S
Cd268 O272 2.273 . S
Cd268 O276 2.277 . S
O269 C266 1.160 . S
O269 Cd270 2.203 . S
Cd270 O269 2.203 . S
Cd270 O272 2.411 . S
Cd270 O273 2.333 . S
Cd270 O274 2.352 . S
Cd270 O278 2.277 . S
Cd270 O279 2.356 . S
C271 O276 1.209 . S
C271 O278 1.226 . S
O272 Cd268 2.273 . S
O272 Cd270 2.411 . S
O272 C275 1.320 . S
O273 Cd270 2.333 . S
O273 C275 1.214 . S
O274 Cd270 2.352 . S
O274 C277 1.258 . S
C275 O272 1.320 . S
C275 O273 1.214 . S
O276 Cd268 2.277 . S
O276 C271 1.209 . S
C277 O274 1.258 . S
C277 O279 1.282 . S
O278 Cd270 2.277 . S
O278 C271 1.226 . S
O279 Cd270 2.356 . S
O279 C277 1.282 . S
C280 O281 1.306 . S
C280 O283 1.160 . S
O281 C280 1.306 . S
O281 Cd282 2.228 . S
Cd282 O281 2.228 . S
Cd282 O286 2.273 . S
Cd282 O290 2.277 . S
O283 C280 1.160 . S
O283 Cd284 2.203 . S
Cd284 O283 2.203 . S
Cd284 O286 2.411 . S
Cd284 O287 2.333 . S
Cd284 O288 2.352 . S
Cd284 O292 2.277 . S
Cd284 O293 2.356 . S
C285 O290 1.209 . S
C285 O292 1.226 . S
O286 Cd282 2.273 . S
O286 Cd284 2.411 . S
O286 C289 1.320 . S
O287 Cd284 2.333 . S
O287 C289 1.214 . S
O288 Cd284 2.352 . S
O288 C291 1.258 . S
C289 O286 1.320 . S
C289 O287 1.214 . S
O290 Cd282 2.277 . S
O290 C285 1.209 . S
C291 O288 1.258 . S
C291 O293 1.282 . S
O292 Cd284 2.277 . S
O292 C285 1.226 . S
O293 Cd284 2.356 . S
O293 C291 1.282 . S
C294 O295 1.306 . S
C294 O297 1.160 . S
O295 C294 1.306 . S
O295 Cd296 2.228 1_556 S
Cd296 O295 2.228 1_554 S
Cd296 O300 2.273 . S
Cd296 O304 2.277 . S
O297 C294 1.160 . S
O297 Cd298 2.203 1_556 S
Cd298 O297 2.203 1_554 S
Cd298 O300 2.411 . S
Cd298 O301 2.333 . S
Cd298 O302 2.352 . S
Cd298 O306 2.277 . S
Cd298 O307 2.356 . S
C299 O304 1.209 . S
C299 O306 1.226 . S
O300 Cd296 2.273 . S
O300 Cd298 2.411 . S
O300 C303 1.320 . S
O301 Cd298 2.333 . S
O301 C303 1.214 . S
O302 Cd298 2.352 . S
O302 C305 1.258 . S
C303 O300 1.320 . S
C303 O301 1.214 . S
O304 Cd296 2.277 . S
O304 C299 1.209 . S
C305 O302 1.258 . S
C305 O307 1.282 . S
O306 Cd298 2.277 . S
O306 C299 1.226 . S
O307 Cd298 2.356 . S
O307 C305 1.282 . S
C308 O309 1.306 . S
C308 O311 1.160 . S
O309 C308 1.306 . S
O309 Cd310 2.228 1_556 S
Cd310 O309 2.228 1_554 S
Cd310 O314 2.273 . S
Cd310 O318 2.277 . S
O311 C308 1.160 . S
O311 Cd312 2.203 1_556 S
Cd312 O311 2.203 1_554 S
Cd312 O314 2.411 . S
Cd312 O315 2.333 . S
Cd312 O316 2.352 . S
Cd312 O320 2.277 . S
Cd312 O321 2.356 . S
C313 O318 1.209 . S
C313 O320 1.226 . S
O314 Cd310 2.273 . S
O314 Cd312 2.411 . S
O314 C317 1.320 . S
O315 Cd312 2.333 . S
O315 C317 1.214 . S
O316 Cd312 2.352 . S
O316 C319 1.258 . S
C317 O314 1.320 . S
C317 O315 1.214 . S
O318 Cd310 2.277 . S
O318 C313 1.209 . S
C319 O316 1.258 . S
C319 O321 1.282 . S
O320 Cd312 2.277 . S
O320 C313 1.226 . S
O321 Cd312 2.356 . S
O321 C319 1.282 . S
C322 O323 1.306 . S
C322 O325 1.160 . S
O323 C322 1.306 . S
O323 Cd324 2.228 1_556 S
Cd324 O323 2.228 1_554 S
Cd324 O328 2.273 . S
Cd324 O332 2.277 . S
O325 C322 1.160 . S
O325 Cd326 2.203 1_556 S
Cd326 O325 2.203 1_554 S
Cd326 O328 2.411 . S
Cd326 O329 2.333 . S
Cd326 O330 2.352 . S
Cd326 O334 2.277 . S
Cd326 O335 2.356 . S
C327 O332 1.209 . S
C327 O334 1.226 . S
O328 Cd324 2.273 . S
O328 Cd326 2.411 . S
O328 C331 1.320 . S
O329 Cd326 2.333 . S
O329 C331 1.214 . S
O330 Cd326 2.352 . S
O330 C333 1.258 . S
C331 O328 1.320 . S
C331 O329 1.214 . S
O332 Cd324 2.277 . S
O332 C327 1.209 . S
C333 O330 1.258 . S
C333 O335 1.282 . S
O334 Cd326 2.277 . S
O334 C327 1.226 . S
O335 Cd326 2.356 . S
O335 C333 1.282 . S
C336 O337 1.306 . S
C336 O339 1.160 . S
O337 C336 1.306 . S
O337 Cd338 2.228 . S
Cd338 O337 2.228 . S
Cd338 O342 2.273 . S
Cd338 O346 2.277 . S
O339 C336 1.160 . S
O339 Cd340 2.203 . S
Cd340 O339 2.203 . S
Cd340 O342 2.411 . S
Cd340 O343 2.333 . S
Cd340 O344 2.352 . S
Cd340 O348 2.277 . S
Cd340 O349 2.356 . S
C341 O346 1.209 . S
C341 O348 1.226 . S
O342 Cd338 2.273 . S
O342 Cd340 2.411 . S
O342 C345 1.320 . S
O343 Cd340 2.333 . S
O343 C345 1.214 . S
O344 Cd340 2.352 . S
O344 C347 1.258 . S
C345 O342 1.320 . S
C345 O343 1.214 . S
O346 Cd338 2.277 . S
O346 C341 1.209 . S
C347 O344 1.258 . S
C347 O349 1.282 . S
O348 Cd340 2.277 . S
O348 C341 1.226 . S
O349 Cd340 2.356 . S
O349 C347 1.282 . S
C350 O351 1.306 . S
C350 O353 1.160 . S
O351 C350 1.306 . S
O351 Cd352 2.228 . S
Cd352 O351 2.228 . S
Cd352 O356 2.273 . S
Cd352 O360 2.277 . S
O353 C350 1.160 . S
O353 Cd354 2.203 . S
Cd354 O353 2.203 . S
Cd354 O356 2.411 . S
Cd354 O357 2.333 . S
Cd354 O358 2.352 . S
Cd354 O362 2.277 . S
Cd354 O363 2.356 . S
C355 O360 1.209 . S
C355 O362 1.226 . S
O356 Cd352 2.273 . S
O356 Cd354 2.411 . S
O356 C359 1.320 . S
O357 Cd354 2.333 . S
O357 C359 1.214 . S
O358 Cd354 2.352 . S
O358 C361 1.258 . S
C359 O356 1.320 . S
C359 O357 1.214 . S
O360 Cd352 2.277 . S
O360 C355 1.209 . S
C361 O358 1.258 . S
C361 O363 1.282 . S
O362 Cd354 2.277 . S
O362 C355 1.226 . S
O363 Cd354 2.356 . S
O363 C361 1.282 . S
C364 O365 1.306 . S
C364 O367 1.160 . S
O365 C364 1.306 . S
O365 Cd366 2.228 . S
Cd366 O365 2.228 . S
Cd366 O370 2.273 . S
Cd366 O374 2.277 . S
O367 C364 1.160 . S
O367 Cd368 2.203 . S
Cd368 O367 2.203 . S
Cd368 O370 2.411 . S
Cd368 O371 2.333 . S
Cd368 O372 2.352 . S
Cd368 O376 2.277 . S
Cd368 O377 2.356 . S
C369 O374 1.209 . S
C369 O376 1.226 . S
O370 Cd366 2.273 . S
O370 Cd368 2.411 . S
O370 C373 1.320 . S
O371 Cd368 2.333 . S
O371 C373 1.214 . S
O372 Cd368 2.352 . S
O372 C375 1.258 . S
C373 O370 1.320 . S
C373 O371 1.214 . S
O374 Cd366 2.277 . S
O374 C369 1.209 . S
C375 O372 1.258 . S
C375 O377 1.282 . S
O376 Cd368 2.277 . S
O376 C369 1.226 . S
O377 Cd368 2.356 . S
O377 C375 1.282 . S
C378 O379 1.306 . S
C378 O381 1.160 . S
O379 C378 1.306 . S
O379 Cd380 2.228 1_554 S
Cd380 O379 2.228 1_556 S
Cd380 O384 2.273 . S
Cd380 O388 2.277 . S
O381 C378 1.160 . S
O381 Cd382 2.203 1_554 S
Cd382 O381 2.203 1_556 S
Cd382 O384 2.411 . S
Cd382 O385 2.333 . S
Cd382 O386 2.352 . S
Cd382 O390 2.277 . S
Cd382 O391 2.356 . S
C383 O388 1.209 . S
C383 O390 1.226 . S
O384 Cd380 2.273 . S
O384 Cd382 2.411 . S
O384 C387 1.320 . S
O385 Cd382 2.333 . S
O385 C387 1.214 . S
O386 Cd382 2.352 . S
O386 C389 1.258 . S
C387 O384 1.320 . S
C387 O385 1.214 . S
O388 Cd380 2.277 . S
O388 C383 1.209 . S
C389 O386 1.258 . S
C389 O391 1.282 . S
O390 Cd382 2.277 . S
O390 C383 1.226 . S
O391 Cd382 2.356 . S
O391 C389 1.282 . S
C392 O393 1.306 . S
C392 O395 1.160 . S
O393 C392 1.306 . S
O393 Cd394 2.228 1_554 S
Cd394 O393 2.228 1_556 S
Cd394 O398 2.273 . S
Cd394 O402 2.277 . S
O395 C392 1.160 . S
O395 Cd396 2.203 1_554 S
Cd396 O395 2.203 1_556 S
Cd396 O398 2.411 . S
Cd396 O399 2.333 . S
Cd396 O400 2.352 . S
Cd396 O404 2.277 . S
Cd396 O405 2.356 . S
C397 O402 1.209 . S
C397 O404 1.226 . S
O398 Cd394 2.273 . S
O398 Cd396 2.411 . S
O398 C401 1.320 . S
O399 Cd396 2.333 . S
O399 C401 1.214 . S
O400 Cd396 2.352 . S
O400 C403 1.258 . S
C401 O398 1.320 . S
C401 O399 1.214 . S
O402 Cd394 2.277 . S
O402 C397 1.209 . S
C403 O400 1.258 . S
C403 O405 1.282 . S
O404 Cd396 2.277 . S
O404 C397 1.226 . S
O405 Cd396 2.356 . S
O405 C403 1.282 . S
C406 O407 1.306 . S
C406 O409 1.160 . S
O407 C406 1.306 . S
O407 Cd408 2.228 1_554 S
Cd408 O407 2.228 1_556 S
Cd408 O412 2.273 . S
Cd408 O416 2.277 . S
O409 C406 1.160 . S
O409 Cd410 2.203 1_554 S
Cd410 O409 2.203 1_556 S
Cd410 O412 2.411 . S
Cd410 O413 2.333 . S
Cd410 O414 2.352 . S
Cd410 O418 2.277 . S
Cd410 O419 2.356 . S
C411 O416 1.209 . S
C411 O418 1.226 . S
O412 Cd408 2.273 . S
O412 Cd410 2.411 . S
O412 C415 1.320 . S
O413 Cd410 2.333 . S
O413 C415 1.214 . S
O414 Cd410 2.352 . S
O414 C417 1.258 . S
C415 O412 1.320 . S
C415 O413 1.214 . S
O416 Cd408 2.277 . S
O416 C411 1.209 . S
C417 O414 1.258 . S
C417 O419 1.282 . S
O418 Cd410 2.277 . S
O418 C411 1.226 . S
O419 Cd410 2.356 . S
O419 C417 1.282 . S
C420 O421 1.306 . S
C420 O423 1.160 . S
O421 C420 1.306 . S
O421 Cd422 2.228 . S
Cd422 O421 2.228 . S
Cd422 O426 2.273 . S
Cd422 O430 2.277 . S
O423 C420 1.160 . S
O423 Cd424 2.203 . S
Cd424 O423 2.203 . S
Cd424 O426 2.411 . S
Cd424 O427 2.333 . S
Cd424 O428 2.352 . S
Cd424 O432 2.277 . S
Cd424 O433 2.356 . S
C425 O430 1.209 . S
C425 O432 1.226 . S
O426 Cd422 2.273 . S
O426 Cd424 2.411 . S
O426 C429 1.320 . S
O427 Cd424 2.333 . S
O427 C429 1.214 . S
O428 Cd424 2.352 . S
O428 C431 1.258 . S
C429 O426 1.320 . S
C429 O427 1.214 . S
O430 Cd422 2.277 . S
O430 C425 1.209 . S
C431 O428 1.258 . S
C431 O433 1.282 . S
O432 Cd424 2.277 . S
O432 C425 1.226 . S
O433 Cd424 2.356 . S
O433 C431 1.282 . S
C434 O435 1.306 . S
C434 O437 1.160 . S
O435 C434 1.306 . S
O435 Cd436 2.228 . S
Cd436 O435 2.228 . S
Cd436 O440 2.273 . S
Cd436 O444 2.277 . S
O437 C434 1.160 . S
O437 Cd438 2.203 . S
Cd438 O437 2.203 . S
Cd438 O440 2.411 . S
Cd438 O441 2.333 . S
Cd438 O442 2.352 . S
Cd438 O446 2.277 . S
Cd438 O447 2.356 . S
C439 O444 1.209 . S
C439 O446 1.226 . S
O440 Cd436 2.273 . S
O440 Cd438 2.411 . S
O440 C443 1.320 . S
O441 Cd438 2.333 . S
O441 C443 1.214 . S
O442 Cd438 2.352 . S
O442 C445 1.258 . S
C443 O440 1.320 . S
C443 O441 1.214 . S
O444 Cd436 2.277 . S
O444 C439 1.209 . S
C445 O442 1.258 . S
C445 O447 1.282 . S
O446 Cd438 2.277 . S
O446 C439 1.226 . S
O447 Cd438 2.356 . S
O447 C445 1.282 . S
C448 O449 1.306 . S
C448 O451 1.160 . S
O449 C448 1.306 . S
O449 Cd450 2.228 . S
Cd450 O449 2.228 . S
Cd450 O454 2.273 . S
Cd450 O458 2.277 . S
O451 C448 1.160 . S
O451 Cd452 2.203 . S
Cd452 O451 2.203 . S
Cd452 O454 2.411 . S
Cd452 O455 2.333 . S
Cd452 O456 2.352 . S
Cd452 O460 2.277 . S
Cd452 O461 2.356 . S
C453 O458 1.209 . S
C453 O460 1.226 . S
O454 Cd450 2.273 . S
O454 Cd452 2.411 . S
O454 C457 1.320 . S
O455 Cd452 2.333 . S
O455 C457 1.214 . S
O456 Cd452 2.352 . S
O456 C459 1.258 . S
C457 O454 1.320 . S
C457 O455 1.214 . S
O458 Cd450 2.277 . S
O458 C453 1.209 . S
C459 O456 1.258 . S
C459 O461 1.282 . S
O460 Cd452 2.277 . S
O460 C453 1.226 . S
O461 Cd452 2.356 . S
O461 C459 1.282 . S
C462 O463 1.306 . S
C462 O465 1.160 . S
O463 C462 1.306 . S
O463 Cd464 2.228 . S
Cd464 O463 2.228 . S
Cd464 O468 2.273 . S
Cd464 O472 2.277 . S
O465 C462 1.160 . S
O465 Cd466 2.203 . S
Cd466 O465 2.203 . S
Cd466 O468 2.411 . S
Cd466 O469 2.333 . S
Cd466 O470 2.352 . S
Cd466 O474 2.277 . S
Cd466 O475 2.356 . S
C467 O472 1.209 . S
C467 O474 1.226 . S
O468 Cd464 2.273 . S
O468 Cd466 2.411 . S
O468 C471 1.320 . S
O469 Cd466 2.333 . S
O469 C471 1.214 . S
O470 Cd466 2.352 . S
O470 C473 1.258 . S
C471 O468 1.320 . S
C471 O469 1.214 . S
O472 Cd464 2.277 . S
O472 C467 1.209 . S
C473 O470 1.258 . S
C473 O475 1.282 . S
O474 Cd466 2.277 . S
O474 C467 1.226 . S
O475 Cd466 2.356 . S
O475 C473 1.282 . S
C476 O477 1.306 . S
C476 O479 1.160 . S
O477 C476 1.306 . S
O477 Cd478 2.228 . S
Cd478 O477 2.228 . S
Cd478 O482 2.273 . S
Cd478 O486 2.277 . S
O479 C476 1.160 . S
O479 Cd480 2.203 . S
Cd480 O479 2.203 . S
Cd480 O482 2.411 . S
Cd480 O483 2.333 . S
Cd480 O484 2.352 . S
Cd480 O488 2.277 . S
Cd480 O489 2.356 . S
C481 O486 1.209 . S
C481 O488 1.226 . S
O482 Cd478 2.273 . S
O482 Cd480 2.411 . S
O482 C485 1.320 . S
O483 Cd480 2.333 . S
O483 C485 1.214 . S
O484 Cd480 2.352 . S
O484 C487 1.258 . S
C485 O482 1.320 . S
C485 O483 1.214 . S
O486 Cd478 2.277 . S
O486 C481 1.209 . S
C487 O484 1.258 . S
C487 O489 1.282 . S
O488 Cd480 2.277 . S
O488 C481 1.226 . S
O489 Cd480 2.356 . S
O489 C487 1.282 . S
C490 O491 1.306 . S
C490 O493 1.160 . S
O491 C490 1.306 . S
O491 Cd492 2.228 . S
Cd492 O491 2.228 . S
Cd492 O496 2.273 . S
Cd492 O500 2.277 . S
O493 C490 1.160 . S
O493 Cd494 2.203 . S
Cd494 O493 2.203 . S
Cd494 O496 2.411 . S
Cd494 O497 2.333 . S
Cd494 O498 2.352 . S
Cd494 O502 2.277 . S
Cd494 O503 2.356 . S
C495 O500 1.209 . S
C495 O502 1.226 . S
O496 Cd492 2.273 . S
O496 Cd494 2.411 . S
O496 C499 1.320 . S
O497 Cd494 2.333 . S
O497 C499 1.214 . S
O498 Cd494 2.352 . S
O498 C501 1.258 . S
C499 O496 1.320 . S
C499 O497 1.214 . S
O500 Cd492 2.277 . S
O500 C495 1.209 . S
C501 O498 1.258 . S
C501 O503 1.282 . S
O502 Cd494 2.277 . S
O502 C495 1.226 . S
O503 Cd494 2.356 . S
O503 C501 1.282 . S
H504 C510 0.930 . S
H505 C514 0.930 . S
H506 C519 0.929 . S
H507 C517 0.929 . S
H508 C512 0.929 1_556 S
H509 C518 0.929 . S
C510 H504 0.930 . S
C510 C511 1.367 . S
C510 C518 1.378 . S
C511 C510 1.367 . S
C511 C519 1.433 . S
C512 H508 0.929 1_554 S
C512 C514 1.378 . S
C512 C516 1.350 1_554 S
C513 C516 1.463 . S
C513 C518 1.350 . S
C513 N521 1.427 . S
C514 H505 0.930 . S
C514 C512 1.378 . S
C514 C515 1.367 . S
C515 C514 1.367 . S
C515 C517 1.433 . S
C516 C512 1.350 1_556 S
C516 C513 1.463 . S
C516 N520 1.427 . S
C517 H507 0.929 . S
C517 C515 1.433 . S
C517 N520 1.384 1_554 S
C518 H509 0.929 . S
C518 C510 1.378 . S
C518 C513 1.350 . S
C519 H506 0.929 . S
C519 C511 1.433 . S
C519 N521 1.384 . S
N520 C516 1.427 . S
N520 C517 1.384 1_556 S
N521 C513 1.427 . S
N521 C519 1.384 . S
H522 C528 0.930 . S
H523 C532 0.930 . S
H524 C537 0.929 . S
H525 C535 0.929 . S
H526 C530 0.929 . S
H527 C536 0.929 . S
C528 H522 0.930 . S
C528 C529 1.367 . S
C528 C536 1.378 . S
C529 C528 1.367 . S
C529 C537 1.433 . S
C530 H526 0.929 . S
C530 C532 1.378 1_556 S
C530 C534 1.350 . S
C531 C534 1.463 . S
C531 C536 1.350 . S
C531 N539 1.427 . S
C532 H523 0.930 . S
C532 C530 1.378 1_554 S
C532 C533 1.367 . S
C533 C532 1.367 . S
C533 C535 1.433 . S
C534 C530 1.350 . S
C534 C531 1.463 . S
C534 N538 1.427 1_556 S
C535 H525 0.929 . S
C535 C533 1.433 . S
C535 N538 1.384 . S
C536 H527 0.929 . S
C536 C528 1.378 . S
C536 C531 1.350 . S
C537 H524 0.929 . S
C537 C529 1.433 . S
C537 N539 1.384 . S
N538 C534 1.427 1_554 S
N538 C535 1.384 . S
N539 C531 1.427 . S
N539 C537 1.384 . S
H540 C546 0.930 . S
H541 C550 0.930 . S
H542 C555 0.929 . S
H543 C553 0.929 . S
H544 C548 0.929 . S
H545 C554 0.929 1_556 S
C546 H540 0.930 . S
C546 C547 1.367 . S
C546 C554 1.378 . S
C547 C546 1.367 . S
C547 C555 1.433 . S
C548 H544 0.929 . S
C548 C550 1.378 . S
C548 C552 1.350 . S
C549 C552 1.463 . S
C549 C554 1.350 1_556 S
C549 N557 1.427 1_556 S
C550 H541 0.930 . S
C550 C548 1.378 . S
C550 C551 1.367 . S
C551 C550 1.367 . S
C551 C553 1.433 . S
C552 C548 1.350 . S
C552 C549 1.463 . S
C552 N556 1.427 . S
C553 H543 0.929 . S
C553 C551 1.433 . S
C553 N556 1.384 . S
C554 H545 0.929 1_554 S
C554 C546 1.378 . S
C554 C549 1.350 1_554 S
C555 H542 0.929 . S
C555 C547 1.433 . S
C555 N557 1.384 . S
N556 C552 1.427 . S
N556 C553 1.384 . S
N557 C549 1.427 1_554 S
N557 C555 1.384 . S
H558 C564 0.930 . S
H559 C568 0.930 . S
H560 C573 0.929 . S
H561 C571 0.929 . S
H562 C566 0.929 . S
H563 C572 0.929 . S
C564 H558 0.930 . S
C564 C565 1.367 . S
C564 C572 1.378 . S
C565 C564 1.367 . S
C565 C573 1.433 . S
C566 H562 0.929 . S
C566 C568 1.378 . S
C566 C570 1.350 . S
C567 C570 1.463 . S
C567 C572 1.350 . S
C567 N575 1.427 . S
C568 H559 0.930 . S
C568 C566 1.378 . S
C568 C569 1.367 . S
C569 C568 1.367 . S
C569 C571 1.433 . S
C570 C566 1.350 . S
C570 C567 1.463 . S
C570 N574 1.427 . S
C571 H561 0.929 . S
C571 C569 1.433 . S
C571 N574 1.384 . S
C572 H563 0.929 . S
C572 C564 1.378 . S
C572 C567 1.350 . S
C573 H560 0.929 . S
C573 C565 1.433 . S
C573 N575 1.384 . S
N574 C570 1.427 . S
N574 C571 1.384 . S
N575 C567 1.427 . S
N575 C573 1.384 . S
H576 C582 0.930 . S
H577 C586 0.930 . S
H578 C591 0.929 . S
H579 C589 0.929 . S
H580 C584 0.929 . S
H581 C590 0.929 . S
C582 H576 0.930 . S
C582 C583 1.367 . S
C582 C590 1.378 . S
C583 C582 1.367 . S
C583 C591 1.433 . S
C584 H580 0.929 . S
C584 C586 1.378 . S
C584 C588 1.350 . S
C585 C588 1.463 . S
C585 C590 1.350 . S
C585 N593 1.427 . S
C586 H577 0.930 . S
C586 C584 1.378 . S
C586 C587 1.367 . S
C587 C586 1.367 . S
C587 C589 1.433 . S
C588 C584 1.350 . S
C588 C585 1.463 . S
C588 N592 1.427 . S
C589 H579 0.929 . S
C589 C587 1.433 . S
C589 N592 1.384 . S
C590 H581 0.929 . S
C590 C582 1.378 . S
C590 C585 1.350 . S
C591 H578 0.929 . S
C591 C583 1.433 . S
C591 N593 1.384 . S
N592 C588 1.427 . S
N592 C589 1.384 . S
N593 C585 1.427 . S
N593 C591 1.384 . S
H594 C600 0.930 . S
H595 C604 0.930 . S
H596 C609 0.929 . S
H597 C607 0.929 . S
H598 C602 0.929 . S
H599 C608 0.929 . S
C600 H594 0.930 . S
C600 C601 1.367 . S
C600 C608 1.378 . S
C601 C600 1.367 . S
C601 C609 1.433 . S
C602 H598 0.929 . S
C602 C604 1.378 . S
C602 C606 1.350 . S
C603 C606 1.463 . S
C603 C608 1.350 . S
C603 N611 1.427 . S
C604 H595 0.930 . S
C604 C602 1.378 . S
C604 C605 1.367 . S
C605 C604 1.367 . S
C605 C607 1.433 . S
C606 C602 1.350 . S
C606 C603 1.463 . S
C606 N610 1.427 . S
C607 H597 0.929 . S
C607 C605 1.433 . S
C607 N610 1.384 . S
C608 H599 0.929 . S
C608 C600 1.378 . S
C608 C603 1.350 . S
C609 H596 0.929 . S
C609 C601 1.433 . S
C609 N611 1.384 . S
N610 C606 1.427 . S
N610 C607 1.384 . S
N611 C603 1.427 . S
N611 C609 1.384 . S
H612 C618 0.930 . S
H613 C622 0.930 . S
H614 C627 0.929 . S
H615 C625 0.929 . S
H616 C620 0.929 1_554 S
H617 C626 0.929 . S
C618 H612 0.930 . S
C618 C619 1.367 . S
C618 C626 1.378 . S
C619 C618 1.367 . S
C619 C627 1.433 . S
C620 H616 0.929 1_556 S
C620 C622 1.378 . S
C620 C624 1.350 1_556 S
C621 C624 1.463 . S
C621 C626 1.350 . S
C621 N629 1.427 . S
C622 H613 0.930 . S
C622 C620 1.378 . S
C622 C623 1.367 . S
C623 C622 1.367 . S
C623 C625 1.433 . S
C624 C620 1.350 1_554 S
C624 C621 1.463 . S
C624 N628 1.427 1_554 S
C625 H615 0.929 . S
C625 C623 1.433 . S
C625 N628 1.384 . S
C626 H617 0.929 . S
C626 C618 1.378 . S
C626 C621 1.350 . S
C627 H614 0.929 . S
C627 C619 1.433 . S
C627 N629 1.384 . S
N628 C624 1.427 1_556 S
N628 C625 1.384 . S
N629 C621 1.427 . S
N629 C627 1.384 . S
H630 C636 0.930 . S
H631 C640 0.930 . S
H632 C645 0.929 . S
H633 C643 0.929 . S
H634 C638 0.929 1_554 S
H635 C644 0.929 . S
C636 H630 0.930 . S
C636 C637 1.367 . S
C636 C644 1.378 . S
C637 C636 1.367 . S
C637 C645 1.433 . S
C638 H634 0.929 1_556 S
C638 C640 1.378 . S
C638 C642 1.350 1_556 S
C639 C642 1.463 . S
C639 C644 1.350 . S
C639 N647 1.427 . S
C640 H631 0.930 . S
C640 C638 1.378 . S
C640 C641 1.367 . S
C641 C640 1.367 . S
C641 C643 1.433 . S
C642 C638 1.350 1_554 S
C642 C639 1.463 . S
C642 N646 1.427 . S
C643 H633 0.929 . S
C643 C641 1.433 . S
C643 N646 1.384 1_556 S
C644 H635 0.929 . S
C644 C636 1.378 . S
C644 C639 1.350 . S
C645 H632 0.929 . S
C645 C637 1.433 . S
C645 N647 1.384 . S
N646 C642 1.427 . S
N646 C643 1.384 1_554 S
N647 C639 1.427 . S
N647 C645 1.384 . S
H648 C654 0.930 . S
H649 C658 0.930 . S
H650 C663 0.929 . S
H651 C661 0.929 . S
H652 C656 0.929 . S
H653 C662 0.935 . S
C654 H648 0.930 . S
C654 C655 1.367 . S
C654 C662 1.366 1_556 S
C655 C654 1.367 . S
C655 C663 1.433 . S
C656 H652 0.929 . S
C656 C658 1.378 . S
C656 C660 1.350 . S
C657 C660 1.463 . S
C657 C662 1.354 . S
C657 N665 1.427 1_554 S
C658 H649 0.930 . S
C658 C656 1.378 . S
C658 C659 1.367 . S
C659 C658 1.367 . S
C659 C661 1.433 . S
C660 C656 1.350 . S
C660 C657 1.463 . S
C660 N664 1.427 . S
C661 H651 0.929 . S
C661 C659 1.433 . S
C661 N664 1.384 . S
C662 H653 0.935 . S
C662 C654 1.366 1_554 S
C662 C657 1.354 . S
C663 H650 0.929 . S
C663 C655 1.433 . S
C663 N665 1.384 . S
N664 C660 1.427 . S
N664 C661 1.384 . S
N665 C657 1.427 1_556 S
N665 C663 1.384 . S
H666 C672 0.930 . S
H667 C676 0.930 . S
H668 C681 0.929 . S
H669 C679 0.929 . S
H670 C674 0.929 . S
H671 C680 0.929 . S
C672 H666 0.930 . S
C672 C673 1.367 . S
C672 C680 1.378 . S
C673 C672 1.367 . S
C673 C681 1.433 . S
C674 H670 0.929 . S
C674 C676 1.378 . S
C674 C678 1.350 . S
C675 C678 1.463 . S
C675 C680 1.350 . S
C675 N683 1.427 . S
C676 H667 0.930 . S
C676 C674 1.378 . S
C676 C677 1.367 . S
C677 C676 1.367 . S
C677 C679 1.433 . S
C678 C674 1.350 . S
C678 C675 1.463 . S
C678 N682 1.427 . S
C679 H669 0.929 . S
C679 C677 1.433 . S
C679 N682 1.384 . S
C680 H671 0.929 . S
C680 C672 1.378 . S
C680 C675 1.350 . S
C681 H668 0.929 . S
C681 C673 1.433 . S
C681 N683 1.384 . S
N682 C678 1.427 . S
N682 C679 1.384 . S
N683 C675 1.427 . S
N683 C681 1.384 . S
H684 C690 0.930 . S
H685 C694 0.930 . S
H686 C699 0.929 . S
H687 C697 0.929 . S
H688 C692 0.929 . S
H689 C698 0.929 . S
C690 H684 0.930 . S
C690 C691 1.367 . S
C690 C698 1.378 . S
C691 C690 1.367 . S
C691 C699 1.433 . S
C692 H688 0.929 . S
C692 C694 1.378 . S
C692 C696 1.350 . S
C693 C696 1.463 . S
C693 C698 1.350 . S
C693 N701 1.427 . S
C694 H685 0.930 . S
C694 C692 1.378 . S
C694 C695 1.367 . S
C695 C694 1.367 . S
C695 C697 1.433 . S
C696 C692 1.350 . S
C696 C693 1.463 . S
C696 N700 1.427 . S
C697 H687 0.929 . S
C697 C695 1.433 . S
C697 N700 1.384 . S
C698 H689 0.929 . S
C698 C690 1.378 . S
C698 C693 1.350 . S
C699 H686 0.929 . S
C699 C691 1.433 . S
C699 N701 1.384 . S
N700 C696 1.427 . S
N700 C697 1.384 . S
N701 C693 1.427 . S
N701 C699 1.384 . S
H702 C708 0.930 . S
H703 C712 0.930 . S
H704 C717 0.929 . S
H705 C715 0.929 . S
H706 C710 0.929 . S
H707 C716 0.929 . S
C708 H702 0.930 . S
C708 C709 1.367 . S
C708 C716 1.378 . S
C709 C708 1.367 . S
C709 C717 1.433 . S
C710 H706 0.929 . S
C710 C712 1.378 . S
C710 C714 1.350 . S
C711 C714 1.463 . S
C711 C716 1.350 . S
C711 N719 1.427 . S
C712 H703 0.930 . S
C712 C710 1.378 . S
C712 C713 1.367 . S
C713 C712 1.367 . S
C713 C715 1.433 . S
C714 C710 1.350 . S
C714 C711 1.463 . S
C714 N718 1.427 . S
C715 H705 0.929 . S
C715 C713 1.433 . S
C715 N718 1.384 . S
C716 H707 0.929 . S
C716 C708 1.378 . S
C716 C711 1.350 . S
C717 H704 0.929 . S
C717 C709 1.433 . S
C717 N719 1.384 . S
N718 C714 1.427 . S
N718 C715 1.384 . S
N719 C711 1.427 . S
N719 C717 1.384 . S
H720 C726 0.930 . S
H721 C730 0.930 . S
H722 C735 0.929 . S
H723 C733 0.929 . S
H724 C728 0.929 . S
H725 C734 0.929 . S
C726 H720 0.930 . S
C726 C727 1.367 . S
C726 C734 1.378 . S
C727 C726 1.367 . S
C727 C735 1.433 . S
C728 H724 0.929 . S
C728 C730 1.378 . S
C728 C732 1.350 . S
C729 C732 1.463 . S
C729 C734 1.350 . S
C729 N737 1.427 . S
C730 H721 0.930 . S
C730 C728 1.378 . S
C730 C731 1.367 . S
C731 C730 1.367 . S
C731 C733 1.433 . S
C732 C728 1.350 . S
C732 C729 1.463 . S
C732 N736 1.427 . S
C733 H723 0.929 . S
C733 C731 1.433 . S
C733 N736 1.384 . S
C734 H725 0.929 . S
C734 C726 1.378 . S
C734 C729 1.350 . S
C735 H722 0.929 . S
C735 C727 1.433 . S
C735 N737 1.384 . S
N736 C732 1.427 . S
N736 C733 1.384 . S
N737 C729 1.427 . S
N737 C735 1.384 . S
H738 C744 0.930 . S
H739 C748 0.930 . S
H740 C753 0.929 . S
H741 C751 0.929 . S
H742 C746 0.929 . S
H743 C752 0.929 . S
C744 H738 0.930 . S
C744 C745 1.367 . S
C744 C752 1.378 . S
C745 C744 1.367 . S
C745 C753 1.433 . S
C746 H742 0.929 . S
C746 C748 1.378 . S
C746 C750 1.350 . S
C747 C750 1.463 . S
C747 C752 1.350 . S
C747 N755 1.427 . S
C748 H739 0.930 . S
C748 C746 1.378 . S
C748 C749 1.367 . S
C749 C748 1.367 . S
C749 C751 1.433 . S
C750 C746 1.350 . S
C750 C747 1.463 . S
C750 N754 1.427 . S
C751 H741 0.929 . S
C751 C749 1.433 . S
C751 N754 1.384 . S
C752 H743 0.929 . S
C752 C744 1.378 . S
C752 C747 1.350 . S
C753 H740 0.929 . S
C753 C745 1.433 . S
C753 N755 1.384 . S
N754 C750 1.427 . S
N754 C751 1.384 . S
N755 C747 1.427 . S
N755 C753 1.384 . S
H756 C762 0.930 . S
H757 C766 0.930 . S
H758 C771 0.929 . S
H759 C769 0.929 . S
H760 C764 0.929 . S
H761 C770 0.929 . S
C762 H756 0.930 . S
C762 C763 1.367 . S
C762 C770 1.378 . S
C763 C762 1.367 . S
C763 C771 1.433 . S
C764 H760 0.929 . S
C764 C766 1.378 . S
C764 C768 1.350 . S
C765 C768 1.463 . S
C765 C770 1.350 . S
C765 N773 1.427 . S
C766 H757 0.930 . S
C766 C764 1.378 . S
C766 C767 1.367 . S
C767 C766 1.367 . S
C767 C769 1.433 . S
C768 C764 1.350 . S
C768 C765 1.463 . S
C768 N772 1.427 . S
C769 H759 0.929 . S
C769 C767 1.433 . S
C769 N772 1.384 . S
C770 H761 0.929 . S
C770 C762 1.378 . S
C770 C765 1.350 . S
C771 H758 0.929 . S
C771 C763 1.433 . S
C771 N773 1.384 . S
N772 C768 1.427 . S
N772 C769 1.384 . S
N773 C765 1.427 . S
N773 C771 1.384 . S
H774 C780 0.930 . S
H775 C784 0.930 1_554 S
H776 C789 0.929 . S
H777 C787 0.929 . S
H778 C782 0.929 . S
H779 C788 0.929 . S
C780 H774 0.930 . S
C780 C781 1.367 . S
C780 C788 1.378 . S
C781 C780 1.367 . S
C781 C789 1.433 . S
C782 H778 0.929 . S
C782 C784 1.378 . S
C782 C786 1.350 . S
C783 C786 1.463 . S
C783 C788 1.350 . S
C783 N791 1.427 . S
C784 H775 0.930 1_556 S
C784 C782 1.378 . S
C784 C785 1.367 1_556 S
C785 C784 1.367 1_554 S
C785 C787 1.433 1_554 S
C786 C782 1.350 . S
C786 C783 1.463 . S
C786 N790 1.427 . S
C787 H777 0.929 . S
C787 C785 1.433 1_556 S
C787 N790 1.384 . S
C788 H779 0.929 . S
C788 C780 1.378 . S
C788 C783 1.350 . S
C789 H776 0.929 . S
C789 C781 1.433 . S
C789 N791 1.384 . S
N790 C786 1.427 . S
N790 C787 1.384 . S
N791 C783 1.427 . S
N791 C789 1.384 . S
H792 C798 0.930 . S
H793 C802 0.930 . S
H794 C807 0.929 . S
H795 C805 0.929 1_554 S
H796 C800 0.929 . S
H797 C806 0.929 . S
C798 H792 0.930 . S
C798 C799 1.367 . S
C798 C806 1.378 . S
C799 C798 1.367 . S
C799 C807 1.433 . S
C800 H796 0.929 . S
C800 C802 1.378 . S
C800 C804 1.350 . S
C801 C804 1.463 . S
C801 C806 1.350 . S
C801 N809 1.427 . S
C802 H793 0.930 . S
C802 C800 1.378 . S
C802 C803 1.367 1_556 S
C803 C802 1.367 1_554 S
C803 C805 1.433 1_554 S
C804 C800 1.350 . S
C804 C801 1.463 . S
C804 N808 1.427 . S
C805 H795 0.929 1_556 S
C805 C803 1.433 1_556 S
C805 N808 1.384 . S
C806 H797 0.929 . S
C806 C798 1.378 . S
C806 C801 1.350 . S
C807 H794 0.929 . S
C807 C799 1.433 . S
C807 N809 1.384 . S
N808 C804 1.427 . S
N808 C805 1.384 . S
N809 C801 1.427 . S
N809 C807 1.384 . S
H810 C816 0.930 . S
H811 C820 0.930 . S
H812 C825 0.929 . S
H813 C823 0.929 . S
H814 C818 0.929 . S
H815 C824 0.929 . S
C816 H810 0.930 . S
C816 C817 1.367 . S
C816 C824 1.378 . S
C817 C816 1.367 . S
C817 C825 1.433 . S
C818 H814 0.929 . S
C818 C820 1.378 . S
C818 C822 1.350 . S
C819 C822 1.463 . S
C819 C824 1.350 . S
C819 N827 1.427 . S
C820 H811 0.930 . S
C820 C818 1.378 . S
C820 C821 1.367 1_556 S
C821 C820 1.367 1_554 S
C821 C823 1.433 1_554 S
C822 C818 1.350 . S
C822 C819 1.463 . S
C822 N826 1.427 . S
C823 H813 0.929 . S
C823 C821 1.433 1_556 S
C823 N826 1.384 . S
C824 H815 0.929 . S
C824 C816 1.378 . S
C824 C819 1.350 . S
C825 H812 0.929 . S
C825 C817 1.433 . S
C825 N827 1.384 . S
N826 C822 1.427 . S
N826 C823 1.384 . S
N827 C819 1.427 . S
N827 C825 1.384 . S
H828 C834 0.930 . S
H829 C838 0.930 . S
H830 C843 0.929 . S
H831 C841 0.929 . S
H832 C836 0.929 . S
H833 C842 0.929 . S
C834 H828 0.930 . S
C834 C835 1.367 . S
C834 C842 1.378 . S
C835 C834 1.367 . S
C835 C843 1.433 . S
C836 H832 0.929 . S
C836 C838 1.378 . S
C836 C840 1.350 . S
C837 C840 1.463 . S
C837 C842 1.350 . S
C837 N845 1.427 . S
C838 H829 0.930 . S
C838 C836 1.378 . S
C838 C839 1.367 . S
C839 C838 1.367 . S
C839 C841 1.433 . S
C840 C836 1.350 . S
C840 C837 1.463 . S
C840 N844 1.427 . S
C841 H831 0.929 . S
C841 C839 1.433 . S
C841 N844 1.384 . S
C842 H833 0.929 . S
C842 C834 1.378 . S
C842 C837 1.350 . S
C843 H830 0.929 . S
C843 C835 1.433 . S
C843 N845 1.384 . S
N844 C840 1.427 . S
N844 C841 1.384 . S
N845 C837 1.427 . S
N845 C843 1.384 . S
H846 C852 0.930 . S
H847 C856 0.930 . S
H848 C861 0.929 . S
H849 C859 0.929 . S
H850 C854 0.929 . S
H851 C860 0.929 . S
C852 H846 0.930 . S
C852 C853 1.367 . S
C852 C860 1.378 . S
C853 C852 1.367 . S
C853 C861 1.433 . S
C854 H850 0.929 . S
C854 C856 1.378 . S
C854 C858 1.350 . S
C855 C858 1.463 . S
C855 C860 1.350 . S
C855 N863 1.427 . S
C856 H847 0.930 . S
C856 C854 1.378 . S
C856 C857 1.367 . S
C857 C856 1.367 . S
C857 C859 1.433 . S
C858 C854 1.350 . S
C858 C855 1.463 . S
C858 N862 1.427 . S
C859 H849 0.929 . S
C859 C857 1.433 . S
C859 N862 1.384 . S
C860 H851 0.929 . S
C860 C852 1.378 . S
C860 C855 1.350 . S
C861 H848 0.929 . S
C861 C853 1.433 . S
C861 N863 1.384 . S
N862 C858 1.427 . S
N862 C859 1.384 . S
N863 C855 1.427 . S
N863 C861 1.384 . S
H864 C870 0.930 . S
H865 C874 0.930 . S
H866 C879 0.929 . S
H867 C877 0.929 . S
H868 C872 0.929 . S
H869 C878 0.929 . S
C870 H864 0.930 . S
C870 C871 1.367 . S
C870 C878 1.378 . S
C871 C870 1.367 . S
C871 C879 1.433 . S
C872 H868 0.929 . S
C872 C874 1.378 . S
C872 C876 1.350 . S
C873 C876 1.463 . S
C873 C878 1.350 . S
C873 N881 1.427 . S
C874 H865 0.930 . S
C874 C872 1.378 . S
C874 C875 1.367 . S
C875 C874 1.367 . S
C875 C877 1.433 . S
C876 C872 1.350 . S
C876 C873 1.463 . S
C876 N880 1.427 . S
C877 H867 0.929 . S
C877 C875 1.433 . S
C877 N880 1.384 . S
C878 H869 0.929 . S
C878 C870 1.378 . S
C878 C873 1.350 . S
C879 H866 0.929 . S
C879 C871 1.433 . S
C879 N881 1.384 . S
N880 C876 1.427 . S
N880 C877 1.384 . S
N881 C873 1.427 . S
N881 C879 1.384 . S
H882 C888 0.930 . S
H883 C892 0.930 . S
H884 C897 0.929 . S
H885 C895 0.929 . S
H886 C890 0.929 . S
H887 C896 0.929 . S
C888 H882 0.930 . S
C888 C889 1.367 . S
C888 C896 1.378 . S
C889 C888 1.367 . S
C889 C897 1.433 . S
C890 H886 0.929 . S
C890 C892 1.378 . S
C890 C894 1.350 . S
C891 C894 1.463 . S
C891 C896 1.350 . S
C891 N899 1.427 . S
C892 H883 0.930 . S
C892 C890 1.378 . S
C892 C893 1.367 . S
C893 C892 1.367 . S
C893 C895 1.433 . S
C894 C890 1.350 . S
C894 C891 1.463 . S
C894 N898 1.427 . S
C895 H885 0.929 . S
C895 C893 1.433 . S
C895 N898 1.384 . S
C896 H887 0.929 . S
C896 C888 1.378 . S
C896 C891 1.350 . S
C897 H884 0.929 . S
C897 C889 1.433 . S
C897 N899 1.384 . S
N898 C894 1.427 . S
N898 C895 1.384 . S
N899 C891 1.427 . S
N899 C897 1.384 . S
H900 C906 0.930 . S
H901 C910 0.930 . S
H902 C915 0.929 . S
H903 C913 0.929 . S
H904 C908 0.929 . S
H905 C914 0.929 . S
C906 H900 0.930 . S
C906 C907 1.367 . S
C906 C914 1.378 . S
C907 C906 1.367 . S
C907 C915 1.433 . S
C908 H904 0.929 . S
C908 C910 1.378 . S
C908 C912 1.350 . S
C909 C912 1.463 . S
C909 C914 1.350 . S
C909 N917 1.427 . S
C910 H901 0.930 . S
C910 C908 1.378 . S
C910 C911 1.367 . S
C911 C910 1.367 . S
C911 C913 1.433 . S
C912 C908 1.350 . S
C912 C909 1.463 . S
C912 N916 1.427 . S
C913 H903 0.929 . S
C913 C911 1.433 . S
C913 N916 1.384 . S
C914 H905 0.929 . S
C914 C906 1.378 . S
C914 C909 1.350 . S
C915 H902 0.929 . S
C915 C907 1.433 . S
C915 N917 1.384 . S
N916 C912 1.427 . S
N916 C913 1.384 . S
N917 C909 1.427 . S
N917 C915 1.384 . S
H918 C924 0.930 . S
H919 C928 0.930 . S
H920 C933 0.929 . S
H921 C931 0.929 . S
H922 C926 0.929 . S
H923 C932 0.929 . S
C924 H918 0.930 . S
C924 C925 1.367 . S
C924 C932 1.378 . S
C925 C924 1.367 . S
C925 C933 1.433 . S
C926 H922 0.929 . S
C926 C928 1.378 . S
C926 C930 1.350 . S
C927 C930 1.463 . S
C927 C932 1.350 . S
C927 N935 1.427 . S
C928 H919 0.930 . S
C928 C926 1.378 . S
C928 C929 1.367 . S
C929 C928 1.367 . S
C929 C931 1.433 . S
C930 C926 1.350 . S
C930 C927 1.463 . S
C930 N934 1.427 . S
C931 H921 0.929 . S
C931 C929 1.433 . S
C931 N934 1.384 . S
C932 H923 0.929 . S
C932 C924 1.378 . S
C932 C927 1.350 . S
C933 H920 0.929 . S
C933 C925 1.433 . S
C933 N935 1.384 . S
N934 C930 1.427 . S
N934 C931 1.384 . S
N935 C927 1.427 . S
N935 C933 1.384 . S
H936 C942 0.930 . S
H937 C946 0.930 . S
H938 C951 0.929 . S
H939 C949 0.929 . S
H940 C944 0.929 . S
H941 C950 0.929 . S
C942 H936 0.930 . S
C942 C943 1.367 . S
C942 C950 1.378 . S
C943 C942 1.367 . S
C943 C951 1.433 . S
C944 H940 0.929 . S
C944 C946 1.378 . S
C944 C948 1.350 . S
C945 C948 1.463 . S
C945 C950 1.350 . S
C945 N953 1.427 . S
C946 H937 0.930 . S
C946 C944 1.378 . S
C946 C947 1.367 . S
C947 C946 1.367 . S
C947 C949 1.433 . S
C948 C944 1.350 . S
C948 C945 1.463 . S
C948 N952 1.427 . S
C949 H939 0.929 . S
C949 C947 1.433 . S
C949 N952 1.384 . S
C950 H941 0.929 . S
C950 C942 1.378 . S
C950 C945 1.350 . S
C951 H938 0.929 . S
C951 C943 1.433 . S
C951 N953 1.384 . S
N952 C948 1.427 . S
N952 C949 1.384 . S
N953 C945 1.427 . S
N953 C951 1.384 . S
H954 C960 0.930 . S
H955 C964 0.930 . S
H956 C969 0.929 . S
H957 C967 0.929 . S
H958 C962 0.929 . S
H959 C968 0.929 . S
C960 H954 0.930 . S
C960 C961 1.367 . S
C960 C968 1.378 . S
C961 C960 1.367 . S
C961 C969 1.433 . S
C962 H958 0.929 . S
C962 C964 1.378 . S
C962 C966 1.350 . S
C963 C966 1.463 . S
C963 C968 1.350 . S
C963 N971 1.427 . S
C964 H955 0.930 . S
C964 C962 1.378 . S
C964 C965 1.367 . S
C965 C964 1.367 . S
C965 C967 1.433 . S
C966 C962 1.350 . S
C966 C963 1.463 . S
C966 N970 1.427 . S
C967 H957 0.929 . S
C967 C965 1.433 . S
C967 N970 1.384 . S
C968 H959 0.929 . S
C968 C960 1.378 . S
C968 C963 1.350 . S
C969 H956 0.929 . S
C969 C961 1.433 . S
C969 N971 1.384 . S
N970 C966 1.427 . S
N970 C967 1.384 . S
N971 C963 1.427 . S
N971 C969 1.384 . S
H972 C978 0.930 . S
H973 C982 0.930 . S
H974 C987 0.929 . S
H975 C985 0.929 . S
H976 C980 0.929 . S
H977 C986 0.929 . S
C978 H972 0.930 . S
C978 C979 1.367 . S
C978 C986 1.378 . S
C979 C978 1.367 . S
C979 C987 1.433 . S
C980 H976 0.929 . S
C980 C982 1.378 . S
C980 C984 1.350 . S
C981 C984 1.463 . S
C981 C986 1.350 . S
C981 N989 1.427 . S
C982 H973 0.930 . S
C982 C980 1.378 . S
C982 C983 1.367 . S
C983 C982 1.367 . S
C983 C985 1.433 . S
C984 C980 1.350 . S
C984 C981 1.463 . S
C984 N988 1.427 . S
C985 H975 0.929 . S
C985 C983 1.433 . S
C985 N988 1.384 . S
C986 H977 0.929 . S
C986 C978 1.378 . S
C986 C981 1.350 . S
C987 H974 0.929 . S
C987 C979 1.433 . S
C987 N989 1.384 . S
N988 C984 1.427 . S
N988 C985 1.384 . S
N989 C981 1.427 . S
N989 C987 1.384 . S
H990 C996 0.930 . S
H991 C1000 0.930 . S
H992 C1005 0.929 . S
H993 C1003 0.929 . S
H994 C998 0.929 . S
H995 C1004 0.929 . S
C996 H990 0.930 . S
C996 C997 1.367 . S
C996 C1004 1.378 . S
C997 C996 1.367 . S
C997 C1005 1.433 . S
C998 H994 0.929 . S
C998 C1000 1.378 . S
C998 C1002 1.350 . S
C999 C1002 1.463 . S
C999 C1004 1.350 . S
C999 N1007 1.427 . S
C1000 H991 0.930 . S
C1000 C998 1.378 . S
C1000 C1001 1.367 . S
C1001 C1000 1.367 . S
C1001 C1003 1.433 . S
C1002 C998 1.350 . S
C1002 C999 1.463 . S
C1002 N1006 1.427 . S
C1003 H993 0.929 . S
C1003 C1001 1.433 . S
C1003 N1006 1.384 . S
C1004 H995 0.929 . S
C1004 C996 1.378 . S
C1004 C999 1.350 . S
C1005 H992 0.929 . S
C1005 C997 1.433 . S
C1005 N1007 1.384 . S
N1006 C1002 1.427 . S
N1006 C1003 1.384 . S
N1007 C999 1.427 . S
N1007 C1005 1.384 . S
H1008 C1014 0.930 . S
H1009 C1018 0.930 . S
H1010 C1023 0.929 . S
H1011 C1021 0.929 . S
H1012 C1016 0.929 . S
H1013 C1022 0.929 . S
C1014 H1008 0.930 . S
C1014 C1015 1.367 . S
C1014 C1022 1.378 . S
C1015 C1014 1.367 . S
C1015 C1023 1.433 . S
C1016 H1012 0.929 . S
C1016 C1018 1.378 . S
C1016 C1020 1.350 . S
C1017 C1020 1.463 . S
C1017 C1022 1.350 . S
C1017 N1025 1.427 . S
C1018 H1009 0.930 . S
C1018 C1016 1.378 . S
C1018 C1019 1.367 . S
C1019 C1018 1.367 . S
C1019 C1021 1.433 . S
C1020 C1016 1.350 . S
C1020 C1017 1.463 . S
C1020 N1024 1.427 . S
C1021 H1011 0.929 . S
C1021 C1019 1.433 . S
C1021 N1024 1.384 . S
C1022 H1013 0.929 . S
C1022 C1014 1.378 . S
C1022 C1017 1.350 . S
C1023 H1010 0.929 . S
C1023 C1015 1.433 . S
C1023 N1025 1.384 . S
N1024 C1020 1.427 . S
N1024 C1021 1.384 . S
N1025 C1017 1.427 . S
N1025 C1023 1.384 . S
H1026 C1032 0.930 . S
H1027 C1036 0.930 . S
H1028 C1041 0.929 . S
H1029 C1039 0.929 . S
H1030 C1034 0.929 . S
H1031 C1040 0.929 . S
C1032 H1026 0.930 . S
C1032 C1033 1.367 . S
C1032 C1040 1.378 . S
C1033 C1032 1.367 . S
C1033 C1041 1.433 . S
C1034 H1030 0.929 . S
C1034 C1036 1.378 . S
C1034 C1038 1.350 . S
C1035 C1038 1.463 . S
C1035 C1040 1.350 . S
C1035 N1043 1.427 . S
C1036 H1027 0.930 . S
C1036 C1034 1.378 . S
C1036 C1037 1.367 . S
C1037 C1036 1.367 . S
C1037 C1039 1.433 . S
C1038 C1034 1.350 . S
C1038 C1035 1.463 . S
C1038 N1042 1.427 . S
C1039 H1029 0.929 . S
C1039 C1037 1.433 . S
C1039 N1042 1.384 . S
C1040 H1031 0.929 . S
C1040 C1032 1.378 . S
C1040 C1035 1.350 . S
C1041 H1028 0.929 . S
C1041 C1033 1.433 . S
C1041 N1043 1.384 . S
N1042 C1038 1.427 . S
N1042 C1039 1.384 . S
N1043 C1035 1.427 . S
N1043 C1041 1.384 . S
H1044 C1050 0.930 . S
H1045 C1054 0.930 . S
H1046 C1059 0.929 . S
H1047 C1057 0.929 . S
H1048 C1052 0.929 . S
H1049 C1058 0.929 . S
C1050 H1044 0.930 . S
C1050 C1051 1.367 . S
C1050 C1058 1.378 . S
C1051 C1050 1.367 . S
C1051 C1059 1.433 . S
C1052 H1048 0.929 . S
C1052 C1054 1.378 . S
C1052 C1056 1.350 . S
C1053 C1056 1.463 . S
C1053 C1058 1.350 . S
C1053 N1061 1.427 . S
C1054 H1045 0.930 . S
C1054 C1052 1.378 . S
C1054 C1055 1.367 . S
C1055 C1054 1.367 . S
C1055 C1057 1.433 . S
C1056 C1052 1.350 . S
C1056 C1053 1.463 . S
C1056 N1060 1.427 . S
C1057 H1047 0.929 . S
C1057 C1055 1.433 . S
C1057 N1060 1.384 . S
C1058 H1049 0.929 . S
C1058 C1050 1.378 . S
C1058 C1053 1.350 . S
C1059 H1046 0.929 . S
C1059 C1051 1.433 . S
C1059 N1061 1.384 . S
N1060 C1056 1.427 . S
N1060 C1057 1.384 . S
N1061 C1053 1.427 . S
N1061 C1059 1.384 . S
H1062 C1068 0.930 . S
H1063 C1072 0.930 . S
H1064 C1077 0.929 . S
H1065 C1075 0.929 . S
H1066 C1070 0.929 . S
H1067 C1076 0.929 . S
C1068 H1062 0.930 . S
C1068 C1069 1.367 . S
C1068 C1076 1.378 . S
C1069 C1068 1.367 . S
C1069 C1077 1.433 . S
C1070 H1066 0.929 . S
C1070 C1072 1.378 . S
C1070 C1074 1.350 . S
C1071 C1074 1.463 . S
C1071 C1076 1.350 . S
C1071 N1079 1.427 . S
C1072 H1063 0.930 . S
C1072 C1070 1.378 . S
C1072 C1073 1.367 . S
C1073 C1072 1.367 . S
C1073 C1075 1.433 . S
C1074 C1070 1.350 . S
C1074 C1071 1.463 . S
C1074 N1078 1.427 . S
C1075 H1065 0.929 . S
C1075 C1073 1.433 . S
C1075 N1078 1.384 . S
C1076 H1067 0.929 . S
C1076 C1068 1.378 . S
C1076 C1071 1.350 . S
C1077 H1064 0.929 . S
C1077 C1069 1.433 . S
C1077 N1079 1.384 . S
N1078 C1074 1.427 . S
N1078 C1075 1.384 . S
N1079 C1071 1.427 . S
N1079 C1077 1.384 . S
H1080 C1086 0.930 . S
H1081 C1090 0.930 . S
H1082 C1095 0.929 . S
H1083 C1093 0.929 . S
H1084 C1088 0.929 . S
H1085 C1094 0.929 . S
C1086 H1080 0.930 . S
C1086 C1087 1.367 . S
C1086 C1094 1.378 . S
C1087 C1086 1.367 . S
C1087 C1095 1.433 . S
C1088 H1084 0.929 . S
C1088 C1090 1.378 . S
C1088 C1092 1.350 . S
C1089 C1092 1.463 . S
C1089 C1094 1.350 . S
C1089 N1097 1.427 . S
C1090 H1081 0.930 . S
C1090 C1088 1.378 . S
C1090 C1091 1.367 . S
C1091 C1090 1.367 . S
C1091 C1093 1.433 . S
C1092 C1088 1.350 . S
C1092 C1089 1.463 . S
C1092 N1096 1.427 . S
C1093 H1083 0.929 . S
C1093 C1091 1.433 . S
C1093 N1096 1.384 . S
C1094 H1085 0.929 . S
C1094 C1086 1.378 . S
C1094 C1089 1.350 . S
C1095 H1082 0.929 . S
C1095 C1087 1.433 . S
C1095 N1097 1.384 . S
N1096 C1092 1.427 . S
N1096 C1093 1.384 . S
N1097 C1089 1.427 . S
N1097 C1095 1.384 . S
H1098 C1104 0.930 . S
H1099 C1108 0.930 1_556 S
H1100 C1113 0.929 . S
H1101 C1111 0.929 . S
H1102 C1106 0.929 . S
H1103 C1112 0.929 . S
C1104 H1098 0.930 . S
C1104 C1105 1.367 . S
C1104 C1112 1.378 . S
C1105 C1104 1.367 . S
C1105 C1113 1.433 . S
C1106 H1102 0.929 . S
C1106 C1108 1.378 . S
C1106 C1110 1.350 . S
C1107 C1110 1.463 . S
C1107 C1112 1.350 . S
C1107 N1115 1.427 . S
C1108 H1099 0.930 1_554 S
C1108 C1106 1.378 . S
C1108 C1109 1.367 1_554 S
C1109 C1108 1.367 1_556 S
C1109 C1111 1.433 1_556 S
C1110 C1106 1.350 . S
C1110 C1107 1.463 . S
C1110 N1114 1.427 . S
C1111 H1101 0.929 . S
C1111 C1109 1.433 1_554 S
C1111 N1114 1.384 . S
C1112 H1103 0.929 . S
C1112 C1104 1.378 . S
C1112 C1107 1.350 . S
C1113 H1100 0.929 . S
C1113 C1105 1.433 . S
C1113 N1115 1.384 . S
N1114 C1110 1.427 . S
N1114 C1111 1.384 . S
N1115 C1107 1.427 . S
N1115 C1113 1.384 . S
H1116 C1122 0.930 . S
H1117 C1126 0.930 . S
H1118 C1131 0.929 1_556 S
H1119 C1129 0.929 . S
H1120 C1124 0.929 . S
H1121 C1130 0.929 . S
C1122 H1116 0.930 . S
C1122 C1123 1.367 1_554 S
C1122 C1130 1.378 . S
C1123 C1122 1.367 1_556 S
C1123 C1131 1.433 1_556 S
C1124 H1120 0.929 . S
C1124 C1126 1.378 . S
C1124 C1128 1.350 . S
C1125 C1128 1.463 . S
C1125 C1130 1.350 . S
C1125 N1133 1.427 . S
C1126 H1117 0.930 . S
C1126 C1124 1.378 . S
C1126 C1127 1.367 . S
C1127 C1126 1.367 . S
C1127 C1129 1.433 . S
C1128 C1124 1.350 . S
C1128 C1125 1.463 . S
C1128 N1132 1.427 . S
C1129 H1119 0.929 . S
C1129 C1127 1.433 . S
C1129 N1132 1.384 . S
C1130 H1121 0.929 . S
C1130 C1122 1.378 . S
C1130 C1125 1.350 . S
C1131 H1118 0.929 1_554 S
C1131 C1123 1.433 1_554 S
C1131 N1133 1.384 . S
N1132 C1128 1.427 . S
N1132 C1129 1.384 . S
N1133 C1125 1.427 . S
N1133 C1131 1.384 . S
H1134 C1140 0.930 . S
H1135 C1144 0.930 . S
H1136 C1149 0.929 . S
H1137 C1147 0.929 1_556 S
H1138 C1142 0.929 . S
H1139 C1148 0.929 . S
C1140 H1134 0.930 . S
C1140 C1141 1.367 . S
C1140 C1148 1.378 . S
C1141 C1140 1.367 . S
C1141 C1149 1.433 . S
C1142 H1138 0.929 . S
C1142 C1144 1.378 . S
C1142 C1146 1.350 . S
C1143 C1146 1.463 . S
C1143 C1148 1.350 . S
C1143 N1151 1.427 . S
C1144 H1135 0.930 . S
C1144 C1142 1.378 . S
C1144 C1145 1.367 1_554 S
C1145 C1144 1.367 1_556 S
C1145 C1147 1.433 1_556 S
C1146 C1142 1.350 . S
C1146 C1143 1.463 . S
C1146 N1150 1.427 . S
C1147 H1137 0.929 1_554 S
C1147 C1145 1.433 1_554 S
C1147 N1150 1.384 . S
C1148 H1139 0.929 . S
C1148 C1140 1.378 . S
C1148 C1143 1.350 . S
C1149 H1136 0.929 . S
C1149 C1141 1.433 . S
C1149 N1151 1.384 . S
N1150 C1146 1.427 . S
N1150 C1147 1.384 . S
N1151 C1143 1.427 . S
N1151 C1149 1.384 . S
H1152 C1158 0.930 . S
H1153 C1162 0.930 . S
H1154 C1167 0.929 . S
H1155 C1165 0.929 . S
H1156 C1160 0.929 . S
H1157 C1166 0.929 . S
C1158 H1152 0.930 . S
C1158 C1159 1.367 . S
C1158 C1166 1.378 . S
C1159 C1158 1.367 . S
C1159 C1167 1.433 . S
C1160 H1156 0.929 . S
C1160 C1162 1.378 . S
C1160 C1164 1.350 . S
C1161 C1164 1.463 . S
C1161 C1166 1.350 . S
C1161 N1169 1.427 . S
C1162 H1153 0.930 . S
C1162 C1160 1.378 . S
C1162 C1163 1.367 . S
C1163 C1162 1.367 . S
C1163 C1165 1.433 . S
C1164 C1160 1.350 . S
C1164 C1161 1.463 . S
C1164 N1168 1.427 . S
C1165 H1155 0.929 . S
C1165 C1163 1.433 . S
C1165 N1168 1.384 . S
C1166 H1157 0.929 . S
C1166 C1158 1.378 . S
C1166 C1161 1.350 . S
C1167 H1154 0.929 . S
C1167 C1159 1.433 . S
C1167 N1169 1.384 . S
N1168 C1164 1.427 . S
N1168 C1165 1.384 . S
N1169 C1161 1.427 . S
N1169 C1167 1.384 . S
H1170 C1176 0.930 . S
H1171 C1180 0.930 . S
H1172 C1185 0.929 . S
H1173 C1183 0.929 . S
H1174 C1178 0.929 . S
H1175 C1184 0.929 . S
C1176 H1170 0.930 . S
C1176 C1177 1.367 . S
C1176 C1184 1.378 . S
C1177 C1176 1.367 . S
C1177 C1185 1.433 . S
C1178 H1174 0.929 . S
C1178 C1180 1.378 . S
C1178 C1182 1.350 . S
C1179 C1182 1.463 1_565 S
C1179 C1184 1.350 . S
C1179 N1187 1.427 . S
C1180 H1171 0.930 . S
C1180 C1178 1.378 . S
C1180 C1181 1.367 . S
C1181 C1180 1.367 . S
C1181 C1183 1.433 . S
C1182 C1178 1.350 . S
C1182 C1179 1.463 1_545 S
C1182 N1186 1.427 . S
C1183 H1173 0.929 . S
C1183 C1181 1.433 . S
C1183 N1186 1.384 . S
C1184 H1175 0.929 . S
C1184 C1176 1.378 . S
C1184 C1179 1.350 . S
C1185 H1172 0.929 . S
C1185 C1177 1.433 . S
C1185 N1187 1.384 . S
N1186 C1182 1.427 . S
N1186 C1183 1.384 . S
N1187 C1179 1.427 . S
N1187 C1185 1.384 . S
H1188 C1194 0.930 . S
H1189 C1198 0.930 . S
H1190 C1203 0.929 . S
H1191 C1201 0.929 . S
H1192 C1196 0.929 . S
H1193 C1202 0.929 . S
C1194 H1188 0.930 . S
C1194 C1195 1.367 . S
C1194 C1202 1.378 . S
C1195 C1194 1.367 . S
C1195 C1203 1.433 . S
C1196 H1192 0.929 . S
C1196 C1198 1.378 . S
C1196 C1200 1.350 . S
C1197 C1200 1.463 1_655 S
C1197 C1202 1.350 . S
C1197 N1205 1.427 . S
C1198 H1189 0.930 . S
C1198 C1196 1.378 . S
C1198 C1199 1.367 . S
C1199 C1198 1.367 . S
C1199 C1201 1.433 . S
C1200 C1196 1.350 . S
C1200 C1197 1.463 1_455 S
C1200 N1204 1.427 . S
C1201 H1191 0.929 . S
C1201 C1199 1.433 . S
C1201 N1204 1.384 . S
C1202 H1193 0.929 . S
C1202 C1194 1.378 . S
C1202 C1197 1.350 . S
C1203 H1190 0.929 . S
C1203 C1195 1.433 . S
C1203 N1205 1.384 . S
N1204 C1200 1.427 . S
N1204 C1201 1.384 . S
N1205 C1197 1.427 . S
N1205 C1203 1.384 . S
H1206 C1212 0.930 . S
H1207 C1216 0.930 . S
H1208 C1221 0.929 . S
H1209 C1219 0.929 . S
H1210 C1214 0.929 . S
H1211 C1220 0.929 . S
C1212 H1206 0.930 . S
C1212 C1213 1.367 . S
C1212 C1220 1.378 . S
C1213 C1212 1.367 . S
C1213 C1221 1.433 . S
C1214 H1210 0.929 . S
C1214 C1216 1.378 . S
C1214 C1218 1.350 . S
C1215 C1218 1.463 . S
C1215 C1220 1.350 . S
C1215 N1223 1.427 . S
C1216 H1207 0.930 . S
C1216 C1214 1.378 . S
C1216 C1217 1.367 . S
C1217 C1216 1.367 . S
C1217 C1219 1.433 . S
C1218 C1214 1.350 . S
C1218 C1215 1.463 . S
C1218 N1222 1.427 . S
C1219 H1209 0.929 . S
C1219 C1217 1.433 . S
C1219 N1222 1.384 . S
C1220 H1211 0.929 . S
C1220 C1212 1.378 . S
C1220 C1215 1.350 . S
C1221 H1208 0.929 . S
C1221 C1213 1.433 . S
C1221 N1223 1.384 . S
N1222 C1218 1.427 . S
N1222 C1219 1.384 . S
N1223 C1215 1.427 . S
N1223 C1221 1.384 . S
H1224 C1230 0.930 . S
H1225 C1234 0.930 . S
H1226 C1239 0.929 . S
H1227 C1237 0.929 . S
H1228 C1232 0.929 . S
H1229 C1238 0.929 . S
C1230 H1224 0.930 . S
C1230 C1231 1.367 . S
C1230 C1238 1.378 . S
C1231 C1230 1.367 . S
C1231 C1239 1.433 . S
C1232 H1228 0.929 . S
C1232 C1234 1.378 . S
C1232 C1236 1.350 . S
C1233 C1236 1.463 1_545 S
C1233 C1238 1.350 . S
C1233 N1241 1.427 . S
C1234 H1225 0.930 . S
C1234 C1232 1.378 . S
C1234 C1235 1.367 . S
C1235 C1234 1.367 . S
C1235 C1237 1.433 . S
C1236 C1232 1.350 . S
C1236 C1233 1.463 1_565 S
C1236 N1240 1.427 . S
C1237 H1227 0.929 . S
C1237 C1235 1.433 . S
C1237 N1240 1.384 . S
C1238 H1229 0.929 . S
C1238 C1230 1.378 . S
C1238 C1233 1.350 . S
C1239 H1226 0.929 . S
C1239 C1231 1.433 . S
C1239 N1241 1.384 . S
N1240 C1236 1.427 . S
N1240 C1237 1.384 . S
N1241 C1233 1.427 . S
N1241 C1239 1.384 . S
H1242 C1248 0.930 . S
H1243 C1252 0.930 . S
H1244 C1257 0.929 . S
H1245 C1255 0.929 . S
H1246 C1250 0.929 . S
H1247 C1256 0.929 . S
C1248 H1242 0.930 . S
C1248 C1249 1.367 . S
C1248 C1256 1.378 . S
C1249 C1248 1.367 . S
C1249 C1257 1.433 . S
C1250 H1246 0.929 . S
C1250 C1252 1.378 . S
C1250 C1254 1.350 . S
C1251 C1254 1.463 1_655 S
C1251 C1256 1.350 . S
C1251 N1259 1.427 . S
C1252 H1243 0.930 . S
C1252 C1250 1.378 . S
C1252 C1253 1.367 . S
C1253 C1252 1.367 . S
C1253 C1255 1.433 . S
C1254 C1250 1.350 . S
C1254 C1251 1.463 1_455 S
C1254 N1258 1.427 . S
C1255 H1245 0.929 . S
C1255 C1253 1.433 . S
C1255 N1258 1.384 . S
C1256 H1247 0.929 . S
C1256 C1248 1.378 . S
C1256 C1251 1.350 . S
C1257 H1244 0.929 . S
C1257 C1249 1.433 . S
C1257 N1259 1.384 . S
N1258 C1254 1.427 . S
N1258 C1255 1.384 . S
N1259 C1251 1.427 . S
N1259 C1257 1.384 . S
H1260 C1266 0.930 . S
H1261 C1270 0.930 . S
H1262 C1275 0.929 . S
H1263 C1273 0.929 . S
H1264 C1268 0.929 . S
H1265 C1274 0.929 . S
C1266 H1260 0.930 . S
C1266 C1267 1.367 . S
C1266 C1274 1.378 . S
C1267 C1266 1.367 . S
C1267 C1275 1.433 . S
C1268 H1264 0.929 . S
C1268 C1270 1.378 . S
C1268 C1272 1.350 . S
C1269 C1272 1.463 . S
C1269 C1274 1.350 . S
C1269 N1277 1.427 . S
C1270 H1261 0.930 . S
C1270 C1268 1.378 . S
C1270 C1271 1.367 . S
C1271 C1270 1.367 . S
C1271 C1273 1.433 . S
C1272 C1268 1.350 . S
C1272 C1269 1.463 . S
C1272 N1276 1.427 . S
C1273 H1263 0.929 . S
C1273 C1271 1.433 . S
C1273 N1276 1.384 . S
C1274 H1265 0.929 . S
C1274 C1266 1.378 . S
C1274 C1269 1.350 . S
C1275 H1262 0.929 . S
C1275 C1267 1.433 . S
C1275 N1277 1.384 . S
N1276 C1272 1.427 . S
N1276 C1273 1.384 . S
N1277 C1269 1.427 . S
N1277 C1275 1.384 . S
H1278 C1284 0.930 . S
H1279 C1288 0.930 . S
H1280 C1293 0.929 . S
H1281 C1291 0.929 . S
H1282 C1286 0.929 . S
H1283 C1292 0.929 . S
C1284 H1278 0.930 . S
C1284 C1285 1.367 . S
C1284 C1292 1.378 . S
C1285 C1284 1.367 . S
C1285 C1293 1.433 . S
C1286 H1282 0.929 . S
C1286 C1288 1.378 . S
C1286 C1290 1.350 . S
C1287 C1290 1.463 . S
C1287 C1292 1.350 . S
C1287 N1295 1.427 . S
C1288 H1279 0.930 . S
C1288 C1286 1.378 . S
C1288 C1289 1.367 . S
C1289 C1288 1.367 . S
C1289 C1291 1.433 . S
C1290 C1286 1.350 . S
C1290 C1287 1.463 . S
C1290 N1294 1.427 . S
C1291 H1281 0.929 . S
C1291 C1289 1.433 . S
C1291 N1294 1.384 . S
C1292 H1283 0.929 . S
C1292 C1284 1.378 . S
C1292 C1287 1.350 . S
C1293 H1280 0.929 . S
C1293 C1285 1.433 . S
C1293 N1295 1.384 . S
N1294 C1290 1.427 . S
N1294 C1291 1.384 . S
N1295 C1287 1.427 . S
N1295 C1293 1.384 . S
H1296 C1302 0.930 . S
H1297 C1306 0.930 . S
H1298 C1311 0.929 . S
H1299 C1309 0.929 . S
H1300 C1304 0.929 . S
H1301 C1310 0.929 . S
C1302 H1296 0.930 . S
C1302 C1303 1.367 . S
C1302 C1310 1.378 . S
C1303 C1302 1.367 . S
C1303 C1311 1.433 . S
C1304 H1300 0.929 . S
C1304 C1306 1.378 . S
C1304 C1308 1.350 . S
C1305 C1308 1.463 . S
C1305 C1310 1.350 . S
C1305 N1313 1.427 . S
C1306 H1297 0.930 . S
C1306 C1304 1.378 . S
C1306 C1307 1.367 . S
C1307 C1306 1.367 . S
C1307 C1309 1.433 . S
C1308 C1304 1.350 . S
C1308 C1305 1.463 . S
C1308 N1312 1.427 . S
C1309 H1299 0.929 . S
C1309 C1307 1.433 . S
C1309 N1312 1.384 . S
C1310 H1301 0.929 . S
C1310 C1302 1.378 . S
C1310 C1305 1.350 . S
C1311 H1298 0.929 . S
C1311 C1303 1.433 . S
C1311 N1313 1.384 . S
N1312 C1308 1.427 . S
N1312 C1309 1.384 . S
N1313 C1305 1.427 . S
N1313 C1311 1.384 . S
H1314 C1320 0.930 . S
H1315 C1324 0.930 . S
H1316 C1329 0.929 . S
H1317 C1327 0.929 . S
H1318 C1322 0.929 . S
H1319 C1328 0.929 . S
C1320 H1314 0.930 . S
C1320 C1321 1.367 . S
C1320 C1328 1.378 . S
C1321 C1320 1.367 . S
C1321 C1329 1.433 . S
C1322 H1318 0.929 . S
C1322 C1324 1.378 . S
C1322 C1326 1.350 . S
C1323 C1326 1.463 . S
C1323 C1328 1.350 . S
C1323 N1331 1.427 . S
C1324 H1315 0.930 . S
C1324 C1322 1.378 . S
C1324 C1325 1.367 . S
C1325 C1324 1.367 . S
C1325 C1327 1.433 . S
C1326 C1322 1.350 . S
C1326 C1323 1.463 . S
C1326 N1330 1.427 . S
C1327 H1317 0.929 . S
C1327 C1325 1.433 . S
C1327 N1330 1.384 . S
C1328 H1319 0.929 . S
C1328 C1320 1.378 . S
C1328 C1323 1.350 . S
C1329 H1316 0.929 . S
C1329 C1321 1.433 . S
C1329 N1331 1.384 . S
N1330 C1326 1.427 . S
N1330 C1327 1.384 . S
N1331 C1323 1.427 . S
N1331 C1329 1.384 . S
H1332 C1338 0.930 1_556 S
H1333 C1342 0.930 . S
H1334 C1347 0.929 . S
H1335 C1345 0.929 . S
H1336 C1340 0.929 . S
H1337 C1346 0.929 . S
C1338 H1332 0.930 1_554 S
C1338 C1339 1.367 . S
C1338 C1346 1.378 . S
C1339 C1338 1.367 . S
C1339 C1347 1.433 . S
C1340 H1336 0.929 . S
C1340 C1342 1.378 . S
C1340 C1344 1.350 . S
C1341 C1344 1.463 . S
C1341 C1346 1.350 . S
C1341 N1349 1.427 . S
C1342 H1333 0.930 . S
C1342 C1340 1.378 . S
C1342 C1343 1.367 . S
C1343 C1342 1.367 . S
C1343 C1345 1.433 . S
C1344 C1340 1.350 . S
C1344 C1341 1.463 . S
C1344 N1348 1.427 . S
C1345 H1335 0.929 . S
C1345 C1343 1.433 . S
C1345 N1348 1.384 . S
C1346 H1337 0.929 . S
C1346 C1338 1.378 . S
C1346 C1341 1.350 . S
C1347 H1334 0.929 . S
C1347 C1339 1.433 . S
C1347 N1349 1.384 . S
N1348 C1344 1.427 . S
N1348 C1345 1.384 . S
N1349 C1341 1.427 . S
N1349 C1347 1.384 . S
H1350 C1356 0.930 . S
H1351 C1360 0.930 1_556 S
H1352 C1365 0.929 . S
H1353 C1363 0.929 . S
H1354 C1358 0.929 . S
H1355 C1364 0.929 . S
C1356 H1350 0.930 . S
C1356 C1357 1.367 . S
C1356 C1364 1.378 . S
C1357 C1356 1.367 . S
C1357 C1365 1.433 . S
C1358 H1354 0.929 . S
C1358 C1360 1.378 . S
C1358 C1362 1.350 . S
C1359 C1362 1.463 . S
C1359 C1364 1.350 . S
C1359 N1367 1.427 . S
C1360 H1351 0.930 1_554 S
C1360 C1358 1.378 . S
C1360 C1361 1.367 . S
C1361 C1360 1.367 . S
C1361 C1363 1.433 . S
C1362 C1358 1.350 . S
C1362 C1359 1.463 . S
C1362 N1366 1.427 . S
C1363 H1353 0.929 . S
C1363 C1361 1.433 . S
C1363 N1366 1.384 . S
C1364 H1355 0.929 . S
C1364 C1356 1.378 . S
C1364 C1359 1.350 . S
C1365 H1352 0.929 . S
C1365 C1357 1.433 . S
C1365 N1367 1.384 . S
N1366 C1362 1.427 . S
N1366 C1363 1.384 . S
N1367 C1359 1.427 . S
N1367 C1365 1.384 . S
H1368 C1374 0.930 . S
H1369 C1378 0.930 . S
H1370 C1383 0.929 1_554 S
H1371 C1381 0.929 . S
H1372 C1376 0.929 . S
H1373 C1382 0.929 . S
C1374 H1368 0.930 . S
C1374 C1375 1.367 . S
C1374 C1382 1.378 . S
C1375 C1374 1.367 . S
C1375 C1383 1.433 . S
C1376 H1372 0.929 . S
C1376 C1378 1.378 . S
C1376 C1380 1.350 . S
C1377 C1380 1.463 . S
C1377 C1382 1.350 . S
C1377 N1385 1.427 . S
C1378 H1369 0.930 . S
C1378 C1376 1.378 . S
C1378 C1379 1.367 . S
C1379 C1378 1.367 . S
C1379 C1381 1.433 . S
C1380 C1376 1.350 . S
C1380 C1377 1.463 . S
C1380 N1384 1.427 . S
C1381 H1371 0.929 . S
C1381 C1379 1.433 . S
C1381 N1384 1.384 . S
C1382 H1373 0.929 . S
C1382 C1374 1.378 . S
C1382 C1377 1.350 . S
C1383 H1370 0.929 1_556 S
C1383 C1375 1.433 . S
C1383 N1385 1.384 . S
N1384 C1380 1.427 . S
N1384 C1381 1.384 . S
N1385 C1377 1.427 . S
N1385 C1383 1.384 . S
H1386 C1392 0.930 . S
H1387 C1396 0.930 . S
H1388 C1401 0.929 . S
H1389 C1399 0.929 . S
H1390 C1394 0.929 . S
H1391 C1400 0.929 . S
C1392 H1386 0.930 . S
C1392 C1393 1.367 . S
C1392 C1400 1.378 . S
C1393 C1392 1.367 . S
C1393 C1401 1.433 . S
C1394 H1390 0.929 . S
C1394 C1396 1.378 . S
C1394 C1398 1.350 . S
C1395 C1398 1.463 . S
C1395 C1400 1.350 . S
C1395 N1403 1.427 . S
C1396 H1387 0.930 . S
C1396 C1394 1.378 . S
C1396 C1397 1.367 . S
C1397 C1396 1.367 . S
C1397 C1399 1.433 . S
C1398 C1394 1.350 . S
C1398 C1395 1.463 . S
C1398 N1402 1.427 . S
C1399 H1389 0.929 . S
C1399 C1397 1.433 . S
C1399 N1402 1.384 . S
C1400 H1391 0.929 . S
C1400 C1392 1.378 . S
C1400 C1395 1.350 . S
C1401 H1388 0.929 . S
C1401 C1393 1.433 . S
C1401 N1403 1.384 . S
N1402 C1398 1.427 . S
N1402 C1399 1.384 . S
N1403 C1395 1.427 . S
N1403 C1401 1.384 . S
H1404 C1410 0.930 . S
H1405 C1414 0.930 . S
H1406 C1419 0.929 . S
H1407 C1417 0.929 . S
H1408 C1412 0.929 . S
H1409 C1418 0.929 . S
C1410 H1404 0.930 . S
C1410 C1411 1.367 . S
C1410 C1418 1.378 . S
C1411 C1410 1.367 . S
C1411 C1419 1.433 . S
C1412 H1408 0.929 . S
C1412 C1414 1.378 . S
C1412 C1416 1.350 . S
C1413 C1416 1.463 . S
C1413 C1418 1.350 . S
C1413 N1421 1.427 . S
C1414 H1405 0.930 . S
C1414 C1412 1.378 . S
C1414 C1415 1.367 . S
C1415 C1414 1.367 . S
C1415 C1417 1.433 . S
C1416 C1412 1.350 . S
C1416 C1413 1.463 . S
C1416 N1420 1.427 . S
C1417 H1407 0.929 . S
C1417 C1415 1.433 . S
C1417 N1420 1.384 . S
C1418 H1409 0.929 . S
C1418 C1410 1.378 . S
C1418 C1413 1.350 . S
C1419 H1406 0.929 . S
C1419 C1411 1.433 . S
C1419 N1421 1.384 . S
N1420 C1416 1.427 . S
N1420 C1417 1.384 . S
N1421 C1413 1.427 . S
N1421 C1419 1.384 . S
H1422 C1428 0.930 . S
H1423 C1432 0.930 . S
H1424 C1437 0.929 . S
H1425 C1435 0.929 . S
H1426 C1430 0.929 . S
H1427 C1436 0.929 . S
C1428 H1422 0.930 . S
C1428 C1429 1.367 . S
C1428 C1436 1.378 . S
C1429 C1428 1.367 . S
C1429 C1437 1.433 . S
C1430 H1426 0.929 . S
C1430 C1432 1.378 . S
C1430 C1434 1.350 . S
C1431 C1434 1.463 . S
C1431 C1436 1.350 . S
C1431 N1439 1.427 . S
C1432 H1423 0.930 . S
C1432 C1430 1.378 . S
C1432 C1433 1.367 . S
C1433 C1432 1.367 . S
C1433 C1435 1.433 . S
C1434 C1430 1.350 . S
C1434 C1431 1.463 . S
C1434 N1438 1.427 . S
C1435 H1425 0.929 . S
C1435 C1433 1.433 . S
C1435 N1438 1.384 . S
C1436 H1427 0.929 . S
C1436 C1428 1.378 . S
C1436 C1431 1.350 . S
C1437 H1424 0.929 . S
C1437 C1429 1.433 . S
C1437 N1439 1.384 . S
N1438 C1434 1.427 . S
N1438 C1435 1.384 . S
N1439 C1431 1.427 . S
N1439 C1437 1.384 . S
H1440 C1446 0.930 . S
H1441 C1450 0.930 . S
H1442 C1455 0.929 . S
H1443 C1453 0.929 . S
H1444 C1448 0.929 . S
H1445 C1454 0.929 . S
C1446 H1440 0.930 . S
C1446 C1447 1.367 . S
C1446 C1454 1.378 . S
C1447 C1446 1.367 . S
C1447 C1455 1.433 . S
C1448 H1444 0.929 . S
C1448 C1450 1.378 . S
C1448 C1452 1.350 . S
C1449 C1452 1.463 . S
C1449 C1454 1.350 . S
C1449 N1457 1.427 . S
C1450 H1441 0.930 . S
C1450 C1448 1.378 . S
C1450 C1451 1.367 . S
C1451 C1450 1.367 . S
C1451 C1453 1.433 . S
C1452 C1448 1.350 . S
C1452 C1449 1.463 . S
C1452 N1456 1.427 . S
C1453 H1443 0.929 . S
C1453 C1451 1.433 . S
C1453 N1456 1.384 . S
C1454 H1445 0.929 . S
C1454 C1446 1.378 . S
C1454 C1449 1.350 . S
C1455 H1442 0.929 . S
C1455 C1447 1.433 . S
C1455 N1457 1.384 . S
N1456 C1452 1.427 . S
N1456 C1453 1.384 . S
N1457 C1449 1.427 . S
N1457 C1455 1.384 . S
H1458 C1464 0.930 . S
H1459 C1468 0.930 . S
H1460 C1473 0.929 . S
H1461 C1471 0.929 . S
H1462 C1466 0.929 . S
H1463 C1472 0.929 . S
C1464 H1458 0.930 . S
C1464 C1465 1.367 . S
C1464 C1472 1.378 . S
C1465 C1464 1.367 . S
C1465 C1473 1.433 . S
C1466 H1462 0.929 . S
C1466 C1468 1.378 . S
C1466 C1470 1.350 . S
C1467 C1470 1.463 . S
C1467 C1472 1.350 . S
C1467 N1475 1.427 . S
C1468 H1459 0.930 . S
C1468 C1466 1.378 . S
C1468 C1469 1.367 . S
C1469 C1468 1.367 . S
C1469 C1471 1.433 . S
C1470 C1466 1.350 . S
C1470 C1467 1.463 . S
C1470 N1474 1.427 . S
C1471 H1461 0.929 . S
C1471 C1469 1.433 . S
C1471 N1474 1.384 . S
C1472 H1463 0.929 . S
C1472 C1464 1.378 . S
C1472 C1467 1.350 . S
C1473 H1460 0.929 . S
C1473 C1465 1.433 . S
C1473 N1475 1.384 . S
N1474 C1470 1.427 . S
N1474 C1471 1.384 . S
N1475 C1467 1.427 . S
N1475 C1473 1.384 . S
H1476 C1482 0.930 . S
H1477 C1486 0.930 . S
H1478 C1491 0.929 . S
H1479 C1489 0.929 . S
H1480 C1484 0.929 . S
H1481 C1490 0.929 . S
C1482 H1476 0.930 . S
C1482 C1483 1.367 . S
C1482 C1490 1.378 . S
C1483 C1482 1.367 . S
C1483 C1491 1.433 . S
C1484 H1480 0.929 . S
C1484 C1486 1.378 . S
C1484 C1488 1.350 . S
C1485 C1488 1.463 . S
C1485 C1490 1.350 . S
C1485 N1493 1.427 . S
C1486 H1477 0.930 . S
C1486 C1484 1.378 . S
C1486 C1487 1.367 . S
C1487 C1486 1.367 . S
C1487 C1489 1.433 . S
C1488 C1484 1.350 . S
C1488 C1485 1.463 . S
C1488 N1492 1.427 . S
C1489 H1479 0.929 . S
C1489 C1487 1.433 . S
C1489 N1492 1.384 . S
C1490 H1481 0.929 . S
C1490 C1482 1.378 . S
C1490 C1485 1.350 . S
C1491 H1478 0.929 . S
C1491 C1483 1.433 . S
C1491 N1493 1.384 . S
N1492 C1488 1.427 . S
N1492 C1489 1.384 . S
N1493 C1485 1.427 . S
N1493 C1491 1.384 . S
H1494 C1500 0.930 . S
H1495 C1504 0.930 . S
H1496 C1509 0.929 . S
H1497 C1507 0.929 . S
H1498 C1502 0.929 . S
H1499 C1508 0.929 . S
C1500 H1494 0.930 . S
C1500 C1501 1.367 . S
C1500 C1508 1.378 . S
C1501 C1500 1.367 . S
C1501 C1509 1.433 . S
C1502 H1498 0.929 . S
C1502 C1504 1.378 . S
C1502 C1506 1.350 . S
C1503 C1506 1.463 . S
C1503 C1508 1.350 . S
C1503 N1511 1.427 . S
C1504 H1495 0.930 . S
C1504 C1502 1.378 . S
C1504 C1505 1.367 . S
C1505 C1504 1.367 . S
C1505 C1507 1.433 . S
C1506 C1502 1.350 . S
C1506 C1503 1.463 . S
C1506 N1510 1.427 . S
C1507 H1497 0.929 . S
C1507 C1505 1.433 . S
C1507 N1510 1.384 . S
C1508 H1499 0.929 . S
C1508 C1500 1.378 . S
C1508 C1503 1.350 . S
C1509 H1496 0.929 . S
C1509 C1501 1.433 . S
C1509 N1511 1.384 . S
N1510 C1506 1.427 . S
N1510 C1507 1.384 . S
N1511 C1503 1.427 . S
N1511 C1509 1.384 . S
H1512 C1518 0.930 . S
H1513 C1522 0.930 . S
H1514 C1527 0.929 . S
H1515 C1525 0.929 . S
H1516 C1520 0.929 . S
H1517 C1526 0.929 . S
C1518 H1512 0.930 . S
C1518 C1519 1.367 . S
C1518 C1526 1.378 . S
C1519 C1518 1.367 . S
C1519 C1527 1.433 . S
C1520 H1516 0.929 . S
C1520 C1522 1.378 . S
C1520 C1524 1.350 . S
C1521 C1524 1.463 . S
C1521 C1526 1.350 . S
C1521 N1529 1.427 . S
C1522 H1513 0.930 . S
C1522 C1520 1.378 . S
C1522 C1523 1.367 . S
C1523 C1522 1.367 . S
C1523 C1525 1.433 . S
C1524 C1520 1.350 . S
C1524 C1521 1.463 . S
C1524 N1528 1.427 . S
C1525 H1515 0.929 . S
C1525 C1523 1.433 . S
C1525 N1528 1.384 . S
C1526 H1517 0.929 . S
C1526 C1518 1.378 . S
C1526 C1521 1.350 . S
C1527 H1514 0.929 . S
C1527 C1519 1.433 . S
C1527 N1529 1.384 . S
N1528 C1524 1.427 . S
N1528 C1525 1.384 . S
N1529 C1521 1.427 . S
N1529 C1527 1.384 . S
H1530 C1536 0.930 . S
H1531 C1540 0.930 . S
H1532 C1545 0.929 . S
H1533 C1543 0.929 . S
H1534 C1538 0.929 . S
H1535 C1544 0.929 . S
C1536 H1530 0.930 . S
C1536 C1537 1.367 . S
C1536 C1544 1.378 . S
C1537 C1536 1.367 . S
C1537 C1545 1.433 . S
C1538 H1534 0.929 . S
C1538 C1540 1.378 . S
C1538 C1542 1.350 . S
C1539 C1542 1.463 . S
C1539 C1544 1.350 . S
C1539 N1547 1.427 . S
C1540 H1531 0.930 . S
C1540 C1538 1.378 . S
C1540 C1541 1.367 . S
C1541 C1540 1.367 . S
C1541 C1543 1.433 . S
C1542 C1538 1.350 . S
C1542 C1539 1.463 . S
C1542 N1546 1.427 . S
C1543 H1533 0.929 . S
C1543 C1541 1.433 . S
C1543 N1546 1.384 . S
C1544 H1535 0.929 . S
C1544 C1536 1.378 . S
C1544 C1539 1.350 . S
C1545 H1532 0.929 . S
C1545 C1537 1.433 . S
C1545 N1547 1.384 . S
N1546 C1542 1.427 . S
N1546 C1543 1.384 . S
N1547 C1539 1.427 . S
N1547 C1545 1.384 . S
H1548 C1554 0.930 . S
H1549 C1558 0.930 . S
H1550 C1563 0.929 . S
H1551 C1561 0.929 . S
H1552 C1556 0.929 . S
H1553 C1562 0.929 . S
C1554 H1548 0.930 . S
C1554 C1555 1.367 . S
C1554 C1562 1.378 . S
C1555 C1554 1.367 . S
C1555 C1563 1.433 . S
C1556 H1552 0.929 . S
C1556 C1558 1.378 . S
C1556 C1560 1.350 . S
C1557 C1560 1.463 . S
C1557 C1562 1.350 . S
C1557 N1565 1.427 . S
C1558 H1549 0.930 . S
C1558 C1556 1.378 . S
C1558 C1559 1.367 . S
C1559 C1558 1.367 . S
C1559 C1561 1.433 . S
C1560 C1556 1.350 . S
C1560 C1557 1.463 . S
C1560 N1564 1.427 . S
C1561 H1551 0.929 . S
C1561 C1559 1.433 . S
C1561 N1564 1.384 . S
C1562 H1553 0.929 . S
C1562 C1554 1.378 . S
C1562 C1557 1.350 . S
C1563 H1550 0.929 . S
C1563 C1555 1.433 . S
C1563 N1565 1.384 . S
N1564 C1560 1.427 . S
N1564 C1561 1.384 . S
N1565 C1557 1.427 . S
N1565 C1563 1.384 . S
H1566 C1572 0.930 . S
H1567 C1576 0.930 . S
H1568 C1581 0.929 . S
H1569 C1579 0.929 . S
H1570 C1574 0.929 . S
H1571 C1580 0.929 . S
C1572 H1566 0.930 . S
C1572 C1573 1.367 . S
C1572 C1580 1.378 . S
C1573 C1572 1.367 . S
C1573 C1581 1.433 . S
C1574 H1570 0.929 . S
C1574 C1576 1.378 . S
C1574 C1578 1.350 . S
C1575 C1578 1.463 . S
C1575 C1580 1.350 . S
C1575 N1583 1.427 . S
C1576 H1567 0.930 . S
C1576 C1574 1.378 . S
C1576 C1577 1.367 . S
C1577 C1576 1.367 . S
C1577 C1579 1.433 . S
C1578 C1574 1.350 . S
C1578 C1575 1.463 . S
C1578 N1582 1.427 . S
C1579 H1569 0.929 . S
C1579 C1577 1.433 . S
C1579 N1582 1.384 . S
C1580 H1571 0.929 . S
C1580 C1572 1.378 . S
C1580 C1575 1.350 . S
C1581 H1568 0.929 . S
C1581 C1573 1.433 . S
C1581 N1583 1.384 . S
N1582 C1578 1.427 . S
N1582 C1579 1.384 . S
N1583 C1575 1.427 . S
N1583 C1581 1.384 . S
H1584 C1590 0.930 . S
H1585 C1594 0.930 . S
H1586 C1599 0.929 . S
H1587 C1597 0.929 . S
H1588 C1592 0.929 . S
H1589 C1598 0.929 . S
C1590 H1584 0.930 . S
C1590 C1591 1.367 . S
C1590 C1598 1.378 . S
C1591 C1590 1.367 . S
C1591 C1599 1.433 . S
C1592 H1588 0.929 . S
C1592 C1594 1.378 . S
C1592 C1596 1.350 . S
C1593 C1596 1.463 . S
C1593 C1598 1.350 . S
C1593 N1601 1.427 . S
C1594 H1585 0.930 . S
C1594 C1592 1.378 . S
C1594 C1595 1.367 . S
C1595 C1594 1.367 . S
C1595 C1597 1.433 . S
C1596 C1592 1.350 . S
C1596 C1593 1.463 . S
C1596 N1600 1.427 . S
C1597 H1587 0.929 . S
C1597 C1595 1.433 . S
C1597 N1600 1.384 . S
C1598 H1589 0.929 . S
C1598 C1590 1.378 . S
C1598 C1593 1.350 . S
C1599 H1586 0.929 . S
C1599 C1591 1.433 . S
C1599 N1601 1.384 . S
N1600 C1596 1.427 . S
N1600 C1597 1.384 . S
N1601 C1593 1.427 . S
N1601 C1599 1.384 . S
H1602 C1608 0.930 . S
H1603 C1612 0.930 . S
H1604 C1617 0.929 . S
H1605 C1615 0.929 . S
H1606 C1610 0.929 . S
H1607 C1616 0.929 . S
C1608 H1602 0.930 . S
C1608 C1609 1.367 . S
C1608 C1616 1.378 . S
C1609 C1608 1.367 . S
C1609 C1617 1.433 . S
C1610 H1606 0.929 . S
C1610 C1612 1.378 . S
C1610 C1614 1.350 . S
C1611 C1614 1.463 . S
C1611 C1616 1.350 . S
C1611 N1619 1.427 . S
C1612 H1603 0.930 . S
C1612 C1610 1.378 . S
C1612 C1613 1.367 . S
C1613 C1612 1.367 . S
C1613 C1615 1.433 . S
C1614 C1610 1.350 . S
C1614 C1611 1.463 . S
C1614 N1618 1.427 . S
C1615 H1605 0.929 . S
C1615 C1613 1.433 . S
C1615 N1618 1.384 . S
C1616 H1607 0.929 . S
C1616 C1608 1.378 . S
C1616 C1611 1.350 . S
C1617 H1604 0.929 . S
C1617 C1609 1.433 . S
C1617 N1619 1.384 . S
N1618 C1614 1.427 . S
N1618 C1615 1.384 . S
N1619 C1611 1.427 . S
N1619 C1617 1.384 . S
H1620 C1626 0.930 . S
H1621 C1630 0.930 . S
H1622 C1635 0.929 . S
H1623 C1633 0.929 . S
H1624 C1628 0.929 . S
H1625 C1634 0.929 . S
C1626 H1620 0.930 . S
C1626 C1627 1.367 . S
C1626 C1634 1.378 . S
C1627 C1626 1.367 . S
C1627 C1635 1.433 . S
C1628 H1624 0.929 . S
C1628 C1630 1.378 . S
C1628 C1632 1.350 . S
C1629 C1632 1.463 . S
C1629 C1634 1.350 . S
C1629 N1637 1.427 . S
C1630 H1621 0.930 . S
C1630 C1628 1.378 . S
C1630 C1631 1.367 . S
C1631 C1630 1.367 . S
C1631 C1633 1.433 . S
C1632 C1628 1.350 . S
C1632 C1629 1.463 . S
C1632 N1636 1.427 . S
C1633 H1623 0.929 . S
C1633 C1631 1.433 . S
C1633 N1636 1.384 . S
C1634 H1625 0.929 . S
C1634 C1626 1.378 . S
C1634 C1629 1.350 . S
C1635 H1622 0.929 . S
C1635 C1627 1.433 . S
C1635 N1637 1.384 . S
N1636 C1632 1.427 . S
N1636 C1633 1.384 . S
N1637 C1629 1.427 . S
N1637 C1635 1.384 . S
H1638 C1644 0.930 . S
H1639 C1648 0.930 . S
H1640 C1653 0.929 . S
H1641 C1651 0.929 . S
H1642 C1646 0.929 . S
H1643 C1652 0.929 . S
C1644 H1638 0.930 . S
C1644 C1645 1.367 . S
C1644 C1652 1.378 . S
C1645 C1644 1.367 . S
C1645 C1653 1.433 . S
C1646 H1642 0.929 . S
C1646 C1648 1.378 . S
C1646 C1650 1.350 . S
C1647 C1650 1.463 . S
C1647 C1652 1.350 . S
C1647 N1655 1.427 . S
C1648 H1639 0.930 . S
C1648 C1646 1.378 . S
C1648 C1649 1.367 . S
C1649 C1648 1.367 . S
C1649 C1651 1.433 . S
C1650 C1646 1.350 . S
C1650 C1647 1.463 . S
C1650 N1654 1.427 . S
C1651 H1641 0.929 . S
C1651 C1649 1.433 . S
C1651 N1654 1.384 . S
C1652 H1643 0.929 . S
C1652 C1644 1.378 . S
C1652 C1647 1.350 . S
C1653 H1640 0.929 . S
C1653 C1645 1.433 . S
C1653 N1655 1.384 . S
N1654 C1650 1.427 . S
N1654 C1651 1.384 . S
N1655 C1647 1.427 . S
N1655 C1653 1.384 . S
H1656 C1662 0.930 . S
H1657 C1666 0.930 . S
H1658 C1671 0.929 . S
H1659 C1669 0.929 . S
H1660 C1664 0.929 . S
H1661 C1670 0.929 . S
C1662 H1656 0.930 . S
C1662 C1663 1.367 . S
C1662 C1670 1.378 . S
C1663 C1662 1.367 . S
C1663 C1671 1.433 . S
C1664 H1660 0.929 . S
C1664 C1666 1.378 . S
C1664 C1668 1.350 . S
C1665 C1668 1.463 . S
C1665 C1670 1.350 . S
C1665 N1673 1.427 . S
C1666 H1657 0.930 . S
C1666 C1664 1.378 . S
C1666 C1667 1.367 . S
C1667 C1666 1.367 . S
C1667 C1669 1.433 . S
C1668 C1664 1.350 . S
C1668 C1665 1.463 . S
C1668 N1672 1.427 . S
C1669 H1659 0.929 . S
C1669 C1667 1.433 . S
C1669 N1672 1.384 . S
C1670 H1661 0.929 . S
C1670 C1662 1.378 . S
C1670 C1665 1.350 . S
C1671 H1658 0.929 . S
C1671 C1663 1.433 . S
C1671 N1673 1.384 . S
N1672 C1668 1.427 . S
N1672 C1669 1.384 . S
N1673 C1665 1.427 . S
N1673 C1671 1.384 . S
H1674 C1680 0.930 . S
H1675 C1684 0.930 . S
H1676 C1689 0.929 . S
H1677 C1687 0.929 . S
H1678 C1682 0.929 . S
H1679 C1688 0.929 . S
C1680 H1674 0.930 . S
C1680 C1681 1.367 . S
C1680 C1688 1.378 . S
C1681 C1680 1.367 . S
C1681 C1689 1.433 . S
C1682 H1678 0.929 . S
C1682 C1684 1.378 . S
C1682 C1686 1.350 . S
C1683 C1686 1.463 . S
C1683 C1688 1.350 . S
C1683 N1691 1.427 . S
C1684 H1675 0.930 . S
C1684 C1682 1.378 . S
C1684 C1685 1.367 . S
C1685 C1684 1.367 . S
C1685 C1687 1.433 . S
C1686 C1682 1.350 . S
C1686 C1683 1.463 . S
C1686 N1690 1.427 . S
C1687 H1677 0.929 . S
C1687 C1685 1.433 . S
C1687 N1690 1.384 . S
C1688 H1679 0.929 . S
C1688 C1680 1.378 . S
C1688 C1683 1.350 . S
C1689 H1676 0.929 . S
C1689 C1681 1.433 . S
C1689 N1691 1.384 . S
N1690 C1686 1.427 . S
N1690 C1687 1.384 . S
N1691 C1683 1.427 . S
N1691 C1689 1.384 . S
H1692 C1698 0.930 . S
H1693 C1702 0.930 . S
H1694 C1707 0.929 . S
H1695 C1705 0.929 . S
H1696 C1700 0.929 . S
H1697 C1706 0.929 . S
C1698 H1692 0.930 . S
C1698 C1699 1.367 . S
C1698 C1706 1.378 . S
C1699 C1698 1.367 . S
C1699 C1707 1.433 . S
C1700 H1696 0.929 . S
C1700 C1702 1.378 . S
C1700 C1704 1.350 . S
C1701 C1704 1.463 1_455 S
C1701 C1706 1.350 . S
C1701 N1709 1.427 . S
C1702 H1693 0.930 . S
C1702 C1700 1.378 . S
C1702 C1703 1.367 . S
C1703 C1702 1.367 . S
C1703 C1705 1.433 . S
C1704 C1700 1.350 . S
C1704 C1701 1.463 1_655 S
C1704 N1708 1.427 . S
C1705 H1695 0.929 . S
C1705 C1703 1.433 . S
C1705 N1708 1.384 . S
C1706 H1697 0.929 . S
C1706 C1698 1.378 . S
C1706 C1701 1.350 . S
C1707 H1694 0.929 . S
C1707 C1699 1.433 . S
C1707 N1709 1.384 . S
N1708 C1704 1.427 . S
N1708 C1705 1.384 . S
N1709 C1701 1.427 . S
N1709 C1707 1.384 . S
H1710 C1716 0.930 . S
H1711 C1720 0.930 . S
H1712 C1725 0.929 . S
H1713 C1723 0.929 . S
H1714 C1718 0.929 . S
H1715 C1724 0.929 . S
C1716 H1710 0.930 . S
C1716 C1717 1.367 . S
C1716 C1724 1.378 . S
C1717 C1716 1.367 . S
C1717 C1725 1.433 . S
C1718 H1714 0.929 . S
C1718 C1720 1.378 . S
C1718 C1722 1.350 . S
C1719 C1722 1.463 . S
C1719 C1724 1.350 . S
C1719 N1727 1.427 . S
C1720 H1711 0.930 . S
C1720 C1718 1.378 . S
C1720 C1721 1.367 . S
C1721 C1720 1.367 . S
C1721 C1723 1.433 . S
C1722 C1718 1.350 . S
C1722 C1719 1.463 . S
C1722 N1726 1.427 . S
C1723 H1713 0.929 . S
C1723 C1721 1.433 . S
C1723 N1726 1.384 . S
C1724 H1715 0.929 . S
C1724 C1716 1.378 . S
C1724 C1719 1.350 . S
C1725 H1712 0.929 . S
C1725 C1717 1.433 . S
C1725 N1727 1.384 . S
N1726 C1722 1.427 . S
N1726 C1723 1.384 . S
N1727 C1719 1.427 . S
N1727 C1725 1.384 . S
H1728 C1734 0.930 . S
H1729 C1738 0.930 . S
H1730 C1743 0.929 . S
H1731 C1741 0.929 . S
H1732 C1736 0.929 . S
H1733 C1742 0.929 . S
C1734 H1728 0.930 . S
C1734 C1735 1.367 . S
C1734 C1742 1.378 . S
C1735 C1734 1.367 . S
C1735 C1743 1.433 . S
C1736 H1732 0.929 . S
C1736 C1738 1.378 . S
C1736 C1740 1.350 . S
C1737 C1740 1.463 1_545 S
C1737 C1742 1.350 . S
C1737 N1745 1.427 . S
C1738 H1729 0.930 . S
C1738 C1736 1.378 . S
C1738 C1739 1.367 . S
C1739 C1738 1.367 . S
C1739 C1741 1.433 . S
C1740 C1736 1.350 . S
C1740 C1737 1.463 1_565 S
C1740 N1744 1.427 . S
C1741 H1731 0.929 . S
C1741 C1739 1.433 . S
C1741 N1744 1.384 . S
C1742 H1733 0.929 . S
C1742 C1734 1.378 . S
C1742 C1737 1.350 . S
C1743 H1730 0.929 . S
C1743 C1735 1.433 . S
C1743 N1745 1.384 . S
N1744 C1740 1.427 . S
N1744 C1741 1.384 . S
N1745 C1737 1.427 . S
N1745 C1743 1.384 . S
H1746 C1752 0.930 . S
H1747 C1756 0.930 . S
H1748 C1761 0.929 . S
H1749 C1759 0.929 . S
H1750 C1754 0.929 . S
H1751 C1760 0.929 . S
C1752 H1746 0.930 . S
C1752 C1753 1.367 . S
C1752 C1760 1.378 . S
C1753 C1752 1.367 . S
C1753 C1761 1.433 1_554 S
C1754 H1750 0.929 . S
C1754 C1756 1.378 . S
C1754 C1758 1.350 . S
C1755 C1758 1.463 1_544 S
C1755 C1760 1.350 . S
C1755 N1763 1.427 1_554 S
C1756 H1747 0.930 . S
C1756 C1754 1.378 . S
C1756 C1757 1.367 . S
C1757 C1756 1.367 . S
C1757 C1759 1.433 1_556 S
C1758 C1754 1.350 . S
C1758 C1755 1.463 1_566 S
C1758 N1762 1.427 1_556 S
C1759 H1749 0.929 . S
C1759 C1757 1.433 1_554 S
C1759 N1762 1.384 . S
C1760 H1751 0.929 . S
C1760 C1752 1.378 . S
C1760 C1755 1.350 . S
C1761 H1748 0.929 . S
C1761 C1753 1.433 1_556 S
C1761 N1763 1.384 . S
N1762 C1758 1.427 1_554 S
N1762 C1759 1.384 . S
N1763 C1755 1.427 1_556 S
N1763 C1761 1.384 . S
H1764 C1770 0.930 . S
H1765 C1774 0.930 . S
H1766 C1779 0.928 . S
H1767 C1777 0.928 . S
H1768 C1772 0.929 . S
H1769 C1778 0.929 . S
C1770 H1764 0.930 . S
C1770 C1771 1.367 . S
C1770 C1778 1.378 . S
C1771 C1770 1.367 . S
C1771 C1779 1.434 1_554 S
C1772 H1768 0.929 . S
C1772 C1774 1.378 . S
C1772 C1776 1.350 . S
C1773 C1776 1.463 1_654 S
C1773 C1778 1.350 . S
C1773 N1781 1.427 1_554 S
C1774 H1765 0.930 . S
C1774 C1772 1.378 . S
C1774 C1775 1.367 . S
C1775 C1774 1.367 . S
C1775 C1777 1.434 1_556 S
C1776 C1772 1.350 . S
C1776 C1773 1.463 1_456 S
C1776 N1780 1.427 1_556 S
C1777 H1767 0.928 . S
C1777 C1775 1.434 1_554 S
C1777 N1780 1.383 . S
C1778 H1769 0.929 . S
C1778 C1770 1.378 . S
C1778 C1773 1.350 . S
C1779 H1766 0.928 . S
C1779 C1771 1.434 1_556 S
C1779 N1781 1.383 . S
N1780 C1776 1.427 1_554 S
N1780 C1777 1.383 . S
N1781 C1773 1.427 1_556 S
N1781 C1779 1.383 . S
H1782 C1788 0.930 . S
H1783 C1792 0.930 . S
H1784 C1797 0.929 . S
H1785 C1795 0.929 . S
H1786 C1790 0.929 . S
H1787 C1796 0.929 . S
C1788 H1782 0.930 . S
C1788 C1789 1.367 . S
C1788 C1796 1.378 . S
C1789 C1788 1.367 . S
C1789 C1797 1.433 1_554 S
C1790 H1786 0.929 . S
C1790 C1792 1.378 . S
C1790 C1794 1.350 . S
C1791 C1794 1.463 1_554 S
C1791 C1796 1.350 . S
C1791 N1799 1.427 1_554 S
C1792 H1783 0.930 . S
C1792 C1790 1.378 . S
C1792 C1793 1.367 . S
C1793 C1792 1.367 . S
C1793 C1795 1.433 1_556 S
C1794 C1790 1.350 . S
C1794 C1791 1.463 1_556 S
C1794 N1798 1.427 1_556 S
C1795 H1785 0.929 . S
C1795 C1793 1.433 1_554 S
C1795 N1798 1.384 . S
C1796 H1787 0.929 . S
C1796 C1788 1.378 . S
C1796 C1791 1.350 . S
C1797 H1784 0.929 . S
C1797 C1789 1.433 1_556 S
C1797 N1799 1.384 . S
N1798 C1794 1.427 1_554 S
N1798 C1795 1.384 . S
N1799 C1791 1.427 1_556 S
N1799 C1797 1.384 . S
C511 C149 1.177 . S
C515 C0 1.172 . S
C529 C163 1.161 . S
C533 C14 1.174 . S
C547 C28 1.169 . S
C551 C135 1.173 . S
C565 C42 1.171 . S
C569 C121 1.176 . S
C583 C56 1.169 . S
C587 C93 1.167 . S
C601 C107 1.161 . S
C605 C70 1.177 . S
C619 C65 1.168 . S
C623 C84 1.168 . S
C637 C79 1.177 . S
C641 C98 1.175 . S
C655 C112 1.173 . S
C659 C51 1.162 . S
C673 C37 1.164 . S
C677 C126 1.182 . S
C691 C140 1.182 . S
C695 C9 1.174 . S
C709 C154 1.174 . S
C713 C23 1.178 . S
C727 C317 1.162 . S
C731 C168 1.174 . S
C745 C331 1.167 . S
C749 C182 1.169 . S
C763 C196 1.175 . S
C767 C303 1.161 . S
C781 C210 1.172 . S
C785 C289 1.177 . S
C799 C224 1.179 . S
C803 C261 1.162 . S
C817 C238 1.168 . S
C821 C275 1.170 . S
C835 C233 1.165 . S
C839 C252 1.170 . S
C853 C247 1.161 . S
C857 C266 1.175 . S
C871 C219 1.174 . S
C875 C280 1.169 . S
C889 C205 1.163 . S
C893 C294 1.181 . S
C907 C177 1.162 . S
C911 C308 1.174 . S
C925 C191 1.168 . S
C929 C322 1.168 . S
C943 C336 1.179 . S
C947 C485 1.177 . S
C961 C499 1.164 . S
C965 C350 1.181 . S
C979 C471 1.178 . S
C983 C364 1.176 . S
C997 C378 1.169 . S
C1001 C457 1.172 . S
C1015 C392 1.179 . S
C1019 C429 1.177 . S
C1033 C406 1.168 . S
C1037 C443 1.169 . S
C1051 C401 1.172 . S
C1055 C420 1.168 . S
C1069 C415 1.164 . S
C1073 C434 1.170 . S
C1087 C387 1.162 . S
C1091 C448 1.179 . S
C1105 C462 1.176 . S
C1109 C373 1.178 . S
C1123 C345 1.162 . S
C1127 C476 1.175 . S
C1141 C490 1.172 . S
C1145 C359 1.162 . S
C1159 C53 1.491 . S
C1163 C11 1.493 . S
C1177 C67 1.487 . S
C1181 C25 1.488 . S
C1195 C39 1.486 . S
C1199 C81 1.487 . S
C1213 C137 1.487 . S
C1217 C95 1.489 . S
C1231 C151 1.488 . S
C1235 C109 1.491 . S
C1249 C165 1.486 . S
C1253 C123 1.488 . S
C1267 C221 1.493 . S
C1271 C179 1.492 . S
C1285 C235 1.486 . S
C1289 C193 1.489 . S
C1303 C207 1.492 . S
C1307 C249 1.489 . S
C1321 C263 1.487 . S
C1325 C305 1.490 . S
C1339 C319 1.491 . S
C1343 C277 1.492 . S
C1357 C291 1.491 . S
C1361 C333 1.492 . S
C1375 C389 1.487 . S
C1379 C347 1.489 . S
C1393 C403 1.490 . S
C1397 C361 1.492 . S
C1411 C375 1.492 . S
C1415 C417 1.490 . S
C1429 C431 1.490 . S
C1433 C473 1.487 . S
C1447 C445 1.487 . S
C1451 C487 1.487 . S
C1465 C459 1.487 . S
C1469 C501 1.491 . S
C1483 C5 1.497 . S
C1487 C257 1.497 . S
C1501 C271 1.492 . S
C1505 C19 1.492 . S
C1519 C285 1.495 . S
C1523 C33 1.495 . S
C1537 C467 1.493 . S
C1541 C47 1.493 . S
C1555 C481 1.491 . S
C1559 C61 1.491 . S
C1573 C495 1.493 . S
C1577 C75 1.493 . S
C1591 C89 1.492 . S
C1595 C341 1.492 . S
C1609 C355 1.496 . S
C1613 C103 1.496 . S
C1627 C369 1.491 . S
C1631 C117 1.491 . S
C1645 C131 1.497 . S
C1649 C215 1.497 . S
C1663 C145 1.494 . S
C1667 C229 1.494 . S
C1681 C159 1.492 . S
C1685 C243 1.492 . S
C1699 C425 1.492 . S
C1703 C173 1.492 . S
C1717 C439 1.492 . S
C1721 C187 1.492 . S
C1735 C201 1.492 . S
C1739 C453 1.492 . S
C1753 C299 1.494 . S
C1757 C383 1.494 . S
C1771 C313 1.496 . S
C1775 C397 1.496 . S
C1789 C327 1.496 . S
C1793 C411 1.496 . S
