# Generated by pormake.
# Topology wkj, (6)-cn, num edge types: 1
# Building blocks:
#     Node 0, Type 0, BuildingBlock: MIFKUJ_clean_sbu_0, # of connection points: 6
#     Node 1, Type 0, BuildingBlock: MIFKUJ_clean_sbu_0, # of connection points: 6
#     Node 2, Type 0, BuildingBlock: MIFKUJ_clean_sbu_0, # of connection points: 6
#     Node 3, Type 0, BuildingBlock: MIFKUJ_clean_sbu_0, # of connection points: 6
#     Node 4, Type 0, BuildingBlock: MIFKUJ_clean_sbu_0, # of connection points: 6
#     Node 5, Type 0, BuildingBlock: MIFKUJ_clean_sbu_0, # of connection points: 6
#     Node 6, Type 0, BuildingBlock: MIFKUJ_clean_sbu_0, # of connection points: 6
#     Node 7, Type 0, BuildingBlock: MIFKUJ_clean_sbu_0, # of connection points: 6
#     Node 8, Type 0, BuildingBlock: MIFKUJ_clean_sbu_0, # of connection points: 6
#     Node 9, Type 0, BuildingBlock: MIFKUJ_clean_sbu_0, # of connection points: 6
#     Node 10, Type 0, BuildingBlock: MIFKUJ_clean_sbu_0, # of connection points: 6
#     Node 11, Type 0, BuildingBlock: MIFKUJ_clean_sbu_0, # of connection points: 6
#     Edge 12, Type (0, 0), BuildingBlock: XIVTED_clean_linker_0, # of connection points: 2
#     Edge 13, Type (0, 0), BuildingBlock: XIVTED_clean_linker_0, # of connection points: 2
#     Edge 14, Type (0, 0), BuildingBlock: XIVTED_clean_linker_0, # of connection points: 2
#     Edge 15, Type (0, 0), BuildingBlock: XIVTED_clean_linker_0, # of connection points: 2
#     Edge 16, Type (0, 0), BuildingBlock: XIVTED_clean_linker_0, # of connection points: 2
#     Edge 17, Type (0, 0), BuildingBlock: XIVTED_clean_linker_0, # of connection points: 2
#     Edge 18, Type (0, 0), BuildingBlock: XIVTED_clean_linker_0, # of connection points: 2
#     Edge 19, Type (0, 0), BuildingBlock: XIVTED_clean_linker_0, # of connection points: 2
#     Edge 20, Type (0, 0), BuildingBlock: XIVTED_clean_linker_0, # of connection points: 2
#     Edge 21, Type (0, 0), BuildingBlock: XIVTED_clean_linker_0, # of connection points: 2
#     Edge 22, Type (0, 0), BuildingBlock: XIVTED_clean_linker_0, # of connection points: 2
#     Edge 23, Type (0, 0), BuildingBlock: XIVTED_clean_linker_0, # of connection points: 2
#     Edge 24, Type (0, 0), BuildingBlock: XIVTED_clean_linker_0, # of connection points: 2
#     Edge 25, Type (0, 0), BuildingBlock: XIVTED_clean_linker_0, # of connection points: 2
#     Edge 26, Type (0, 0), BuildingBlock: XIVTED_clean_linker_0, # of connection points: 2
#     Edge 27, Type (0, 0), BuildingBlock: XIVTED_clean_linker_0, # of connection points: 2
#     Edge 28, Type (0, 0), BuildingBlock: XIVTED_clean_linker_0, # of connection points: 2
#     Edge 29, Type (0, 0), BuildingBlock: XIVTED_clean_linker_0, # of connection points: 2
#     Edge 30, Type (0, 0), BuildingBlock: XIVTED_clean_linker_0, # of connection points: 2
#     Edge 31, Type (0, 0), BuildingBlock: XIVTED_clean_linker_0, # of connection points: 2
#     Edge 32, Type (0, 0), BuildingBlock: XIVTED_clean_linker_0, # of connection points: 2
#     Edge 33, Type (0, 0), BuildingBlock: XIVTED_clean_linker_0, # of connection points: 2
#     Edge 34, Type (0, 0), BuildingBlock: XIVTED_clean_linker_0, # of connection points: 2
#     Edge 35, Type (0, 0), BuildingBlock: XIVTED_clean_linker_0, # of connection points: 2
#     Edge 36, Type (0, 0), BuildingBlock: XIVTED_clean_linker_0, # of connection points: 2
#     Edge 37, Type (0, 0), BuildingBlock: XIVTED_clean_linker_0, # of connection points: 2
#     Edge 38, Type (0, 0), BuildingBlock: XIVTED_clean_linker_0, # of connection points: 2
#     Edge 39, Type (0, 0), BuildingBlock: XIVTED_clean_linker_0, # of connection points: 2
#     Edge 40, Type (0, 0), BuildingBlock: XIVTED_clean_linker_0, # of connection points: 2
#     Edge 41, Type (0, 0), BuildingBlock: XIVTED_clean_linker_0, # of connection points: 2
#     Edge 42, Type (0, 0), BuildingBlock: XIVTED_clean_linker_0, # of connection points: 2
#     Edge 43, Type (0, 0), BuildingBlock: XIVTED_clean_linker_0, # of connection points: 2
#     Edge 44, Type (0, 0), BuildingBlock: XIVTED_clean_linker_0, # of connection points: 2
#     Edge 45, Type (0, 0), BuildingBlock: XIVTED_clean_linker_0, # of connection points: 2
#     Edge 46, Type (0, 0), BuildingBlock: XIVTED_clean_linker_0, # of connection points: 2
#     Edge 47, Type (0, 0), BuildingBlock: XIVTED_clean_linker_0, # of connection points: 2
# Relax obj value: 0.308
# Max RMSD: 0.210
# Mean RMSD: 0.210
data_MOF--net-wkj--node1-MIFKUJ_clean_sbu_0--edge1-XIVTED_clean_linker_0
_symmetry_space_group_name_H-M    P1
_symmetry_Int_Tables_number       1
_symmetry_cell_setting            triclinic
loop_
_symmetry_equiv_pos_as_xyz
'x, y, z'
_cell_length_a     46.750886
_cell_length_b     46.584316
_cell_length_c     30.498817
_cell_angle_alpha  89.951369
_cell_angle_beta   90.162568
_cell_angle_gamma 120.09969
loop_
_atom_site_label
_atom_site_type_symbol
_atom_site_fract_x
_atom_site_fract_y
_atom_site_fract_z
_atom_type_partial_charge
Zn0 Zn 0.43304 0.07484 0.20641 0.0
Zn1 Zn 0.41402 0.08327 0.33898 0.0
C2 C 0.38505 0.02131 0.15349 0.0
O3 O 0.39367 0.00389 0.17842 0.0
C4 C 0.46506 0.12083 0.39913 0.0
O5 O 0.44457 0.13154 0.40836 0.0
O6 O 0.47518 0.10323 0.17197 0.0
O7 O 0.42447 0.10041 0.25136 0.0
O8 O 0.41525 0.12242 0.30833 0.0
C9 C 0.47327 0.11772 0.13757 0.0
O10 O 0.44501 0.11592 0.12807 0.0
O11 O 0.39668 0.05189 0.16184 0.0
C12 C 0.34883 0.0446 0.38 0.0
O13 O 0.33818 0.02951 0.34209 0.0
O14 O 0.37897 0.0667 0.38456 0.0
O15 O 0.40638 0.04875 0.29279 0.0
O16 O 0.43768 0.04224 0.24488 0.0
O17 O 0.45746 0.09936 0.36903 0.0
C18 C 0.42025 0.12291 0.26741 0.0
C19 C 0.42556 0.03775 0.28337 0.0
Zn20 Zn 0.35185 0.47594 0.53903 0.0
Zn21 Zn 0.31673 0.43159 0.65651 0.0
C22 C 0.34526 0.41676 0.49636 0.0
O23 O 0.36986 0.42204 0.52234 0.0
C24 C 0.34487 0.49268 0.71029 0.0
O25 O 0.33061 0.5037 0.6833 0.0
O26 O 0.36616 0.51493 0.49759 0.0
O27 O 0.32503 0.47408 0.59171 0.0
O28 O 0.28162 0.43903 0.62813 0.0
C29 C 0.34955 0.50921 0.46221 0.0
O30 O 0.32221 0.48053 0.45758 0.0
O31 O 0.33176 0.43449 0.50072 0.0
C32 C 0.3025 0.36399 0.67481 0.0
O33 O 0.31961 0.36698 0.63929 0.0
O34 O 0.29654 0.38694 0.68473 0.0
O35 O 0.34854 0.43763 0.60767 0.0
O36 O 0.38975 0.47839 0.57252 0.0
O37 O 0.34172 0.4643 0.70406 0.0
C38 C 0.29406 0.45854 0.5957 0.0
C39 C 0.37895 0.45984 0.6063 0.0
Zn40 Zn 0.86898 0.34454 0.84972 0.0
Zn41 Zn 0.88352 0.33256 0.98413 0.0
C42 C 0.92984 0.35223 0.81202 0.0
O43 O 0.9441 0.37079 0.84661 0.0
C44 C 0.84553 0.35237 0.04092 0.0
O45 O 0.81922 0.32403 0.03052 0.0
O46 O 0.83664 0.35056 0.81133 0.0
O47 O 0.84842 0.30749 0.89621 0.0
O48 O 0.84384 0.29073 0.96548 0.0
C49 C 0.82894 0.33753 0.77333 0.0
O50 O 0.83741 0.31553 0.76241 0.0
O51 O 0.89858 0.3377 0.80832 0.0
C52 C 0.93703 0.34038 0.03736 0.0
O53 O 0.9434 0.37118 0.03853 0.0
O54 O 0.91281 0.31918 0.01487 0.0
O55 O 0.90105 0.35586 0.92823 0.0
O56 O 0.89534 0.3878 0.88159 0.0
O57 O 0.87338 0.35987 0.02462 0.0
C58 C 0.83581 0.2847 0.9252 0.0
C59 C 0.90424 0.38378 0.91922 0.0
Zn60 Zn 0.5325 0.90234 0.18074 0.0
Zn61 Zn 0.5487 0.89853 0.31711 0.0
C62 C 0.5889 0.9528 0.13374 0.0
O63 O 0.5846 0.97273 0.15981 0.0
C64 C 0.49928 0.87028 0.38074 0.0
O65 O 0.51078 0.84971 0.3821 0.0
O66 O 0.49265 0.87801 0.14097 0.0
O67 O 0.53097 0.8724 0.22978 0.0
O68 O 0.53498 0.8532 0.2935 0.0
C69 C 0.49504 0.86317 0.10734 0.0
O70 O 0.52257 0.86267 0.10093 0.0
O71 O 0.57221 0.9217 0.1405 0.0
C72 C 0.60805 0.94366 0.36387 0.0
O73 O 0.60868 0.96563 0.33626 0.0
O74 O 0.58647 0.91335 0.35884 0.0
O75 O 0.55655 0.92813 0.26491 0.0
O76 O 0.52937 0.93782 0.21424 0.0
O77 O 0.51138 0.89398 0.35335 0.0
C78 C 0.52695 0.8482 0.25324 0.0
C79 C 0.53848 0.94018 0.25409 0.0
Zn80 Zn 0.62963 0.51831 0.53726 0.0
Zn81 Zn 0.6507 0.54676 0.67112 0.0
C82 C 0.61549 0.55682 0.48155 0.0
O83 O 0.58622 0.53136 0.49025 0.0
C84 C 0.6228 0.49201 0.72847 0.0
O85 O 0.62384 0.47689 0.69267 0.0
O86 O 0.62286 0.4809 0.49703 0.0
O87 O 0.66006 0.52845 0.58896 0.0
O88 O 0.688 0.54045 0.64993 0.0
C89 C 0.63694 0.4868 0.45981 0.0
O90 O 0.65995 0.5173 0.45041 0.0
O91 O 0.64087 0.55831 0.49916 0.0
C92 C 0.64789 0.60721 0.67461 0.0
O93 O 0.62134 0.59099 0.65009 0.0
O94 O 0.66564 0.59426 0.68236 0.0
O95 O 0.6131 0.52462 0.62819 0.0
O96 O 0.5859 0.50352 0.56726 0.0
O97 O 0.63402 0.52306 0.72756 0.0
C98 C 0.68388 0.53009 0.61068 0.0
C99 C 0.58581 0.50939 0.60799 0.0
Zn100 Zn 0.09359 0.62074 0.8582 0.0
Zn101 Zn 0.07686 0.64847 0.97383 0.0
C102 C 0.06183 0.6268 0.78723 0.0
O103 O 0.06012 0.59795 0.78277 0.0
C104 C 0.10623 0.632 0.04383 0.0
O105 O 0.12374 0.66446 0.0473 0.0
O106 O 0.12004 0.60604 0.82127 0.0
O107 O 0.11404 0.64266 0.91541 0.0
O108 O 0.12051 0.68541 0.9519 0.0
C109 C 0.13665 0.62417 0.78913 0.0
O110 O 0.13916 0.65337 0.78423 0.0
O111 O 0.07691 0.64483 0.82015 0.0
C112 C 0.03237 0.64675 0.03546 0.0
O113 O 0.02388 0.61531 0.03371 0.0
O114 O 0.05426 0.66708 0.00946 0.0
O115 O 0.05234 0.62275 0.91947 0.0
O116 O 0.05264 0.58257 0.88251 0.0
O117 O 0.0851 0.61919 0.01318 0.0
C118 C 0.12994 0.67355 0.9215 0.0
C119 C 0.04135 0.59189 0.91406 0.0
Zn120 Zn 0.88605 0.52361 0.46764 0.0
Zn121 Zn 0.89009 0.5583 0.33984 0.0
C122 C 0.91611 0.55065 0.5483 0.0
O123 O 0.9075 0.51933 0.55309 0.0
C124 C 0.85335 0.49912 0.28536 0.0
O125 O 0.8266 0.4964 0.30332 0.0
O126 O 0.85403 0.48068 0.49933 0.0
O127 O 0.86508 0.53542 0.41986 0.0
O128 O 0.84633 0.55086 0.36528 0.0
C129 C 0.83634 0.48084 0.53098 0.0
O130 O 0.83605 0.50832 0.53956 0.0
O131 O 0.91041 0.56034 0.51204 0.0
C132 C 0.94172 0.62456 0.31592 0.0
O133 O 0.95714 0.62245 0.35077 0.0
O134 O 0.91273 0.60113 0.30737 0.0
O135 O 0.91908 0.55674 0.38905 0.0
O136 O 0.91858 0.51806 0.43092 0.0
O137 O 0.88157 0.52274 0.29667 0.0
C138 C 0.84293 0.54006 0.40417 0.0
C139 C 0.92587 0.53374 0.39454 0.0
Zn140 Zn 0.3481 0.88629 0.80154 0.0
Zn141 Zn 0.32281 0.89639 0.6725 0.0
C142 C 0.3424 0.93659 0.852 0.0
O143 O 0.36283 0.95754 0.82282 0.0
C144 C 0.35922 0.87074 0.62694 0.0
O145 O 0.34685 0.8474 0.65695 0.0
O146 O 0.36263 0.85845 0.83496 0.0
O147 O 0.31517 0.86102 0.75354 0.0
O148 O 0.289 0.85008 0.69063 0.0
C149 C 0.34596 0.84219 0.86817 0.0
O150 O 0.31759 0.84061 0.87612 0.0
O151 O 0.33146 0.90573 0.84694 0.0
C152 C 0.30235 0.94538 0.65441 0.0
O153 O 0.32023 0.96191 0.68854 0.0
O154 O 0.29994 0.91785 0.64435 0.0
O155 O 0.34837 0.9191 0.72644 0.0
O156 O 0.38704 0.92197 0.76934 0.0
O157 O 0.35254 0.89399 0.62793 0.0
C158 C 0.29212 0.84078 0.72865 0.0
C159 C 0.37866 0.92875 0.73284 0.0
Zn160 Zn 0.44087 0.36012 0.15799 0.0
Zn161 Zn 0.41855 0.33995 0.02346 0.0
C162 C 0.38527 0.35748 0.20501 0.0
O163 O 0.38565 0.3767 0.1732 0.0
C164 C 0.47236 0.3547 0.96711 0.0
O165 O 0.45534 0.32233 0.96217 0.0
O166 O 0.48327 0.37265 0.19113 0.0
O167 O 0.43165 0.3274 0.10921 0.0
O168 O 0.41939 0.29995 0.04757 0.0
C169 C 0.4822 0.35741 0.22631 0.0
O170 O 0.45384 0.332 0.23855 0.0
O171 O 0.40465 0.3458 0.20306 0.0
C172 C 0.38855 0.34897 0.94978 0.0
O173 O 0.41557 0.37795 0.95366 0.0
O174 O 0.38258 0.32676 0.97826 0.0
O175 O 0.41443 0.36428 0.07563 0.0
O176 O 0.44716 0.40007 0.12458 0.0
O177 O 0.46204 0.36838 0.99374 0.0
C178 C 0.42753 0.30237 0.08778 0.0
C179 C 0.43549 0.39393 0.08576 0.0
Zn180 Zn 0.08695 0.4552 0.46494 0.0
Zn181 Zn 0.07681 0.42486 0.33302 0.0
C182 C 0.05145 0.42555 0.53866 0.0
O183 O 0.05393 0.4549 0.53772 0.0
C184 C 0.10423 0.48902 0.2899 0.0
O185 O 0.1281 0.49896 0.31904 0.0
O186 O 0.11696 0.49601 0.50114 0.0
O187 O 0.11067 0.44794 0.41501 0.0
O188 O 0.12242 0.43518 0.35116 0.0
C189 C 0.13266 0.49289 0.53326 0.0
O190 O 0.13253 0.46478 0.53793 0.0
O191 O 0.0637 0.41711 0.50749 0.0
C192 C 0.03086 0.3541 0.30666 0.0
O193 O 0.01284 0.34892 0.34192 0.0
O194 O 0.05622 0.3823 0.30031 0.0
O195 O 0.0532 0.4257 0.38752 0.0
O196 O 0.05312 0.46176 0.43324 0.0
O197 O 0.08045 0.45927 0.29075 0.0
C198 C 0.13101 0.44565 0.39008 0.0
C199 C 0.04548 0.44764 0.39592 0.0
Zn200 Zn 0.61239 0.10143 0.80478 0.0
Zn201 Zn 0.64054 0.09755 0.67868 0.0
C202 C 0.61796 0.04653 0.8424 0.0
O203 O 0.59204 0.0277 0.81792 0.0
C204 C 0.6317 0.12834 0.6038 0.0
O205 O 0.65842 0.12794 0.59156 0.0
O206 O 0.59947 0.12589 0.84918 0.0
O207 O 0.64149 0.12869 0.75432 0.0
O208 O 0.68018 0.13277 0.71073 0.0
C209 C 0.61138 0.13044 0.88791 0.0
O210 O 0.63354 0.12184 0.89682 0.0
O211 O 0.63178 0.07787 0.83886 0.0
C212 C 0.64901 0.04254 0.6481 0.0
O213 O 0.63363 0.02677 0.68395 0.0
O214 O 0.65417 0.0716 0.64095 0.0
O215 O 0.61031 0.07022 0.72764 0.0
O216 O 0.57223 0.06852 0.7705 0.0
O217 O 0.61954 0.11723 0.6414 0.0
C218 C 0.6715 0.13708 0.74846 0.0
C219 C 0.58045 0.06245 0.73335 0.0
Zn220 Zn 0.52932 0.62788 0.13969 0.0
Zn221 Zn 0.55068 0.65522 0.00754 0.0
C222 C 0.55851 0.6217 0.21281 0.0
O223 O 0.53095 0.59323 0.20802 0.0
C224 C 0.49772 0.63539 0.94786 0.0
O225 O 0.50962 0.66762 0.94741 0.0
O226 O 0.4863 0.612 0.17402 0.0
O227 O 0.53464 0.65935 0.09199 0.0
O228 O 0.54096 0.68953 0.03475 0.0
C229 C 0.48758 0.62902 0.20748 0.0
O230 O 0.51527 0.65658 0.2159 0.0
O231 O 0.56626 0.64415 0.18405 0.0
C232 C 0.60417 0.6621 0.95622 0.0
O233 O 0.59993 0.63702 0.98062 0.0
O234 O 0.58751 0.6761 0.96455 0.0
O235 O 0.55963 0.63109 0.05682 0.0
O236 O 0.52911 0.59164 0.10349 0.0
O237 O 0.51099 0.62347 0.9728 0.0
C238 C 0.53405 0.68369 0.07515 0.0
C239 C 0.54253 0.60042 0.06576 0.0
H240 H 0.40236 0.11732 0.18231 0.0
H241 H 0.46422 0.30976 0.15961 0.0
H242 H 0.44169 0.18697 0.28952 0.0
H243 H 0.40014 0.23717 0.06475 0.0
H244 H 0.46491 0.26594 0.20225 0.0
H245 H 0.40881 0.16201 0.13382 0.0
C246 C 0.41258 0.14219 0.19535 0.0
C247 C 0.42195 0.14893 0.23942 0.0
C248 C 0.45071 0.25956 0.17211 0.0
C249 C 0.42905 0.19956 0.18499 0.0
C250 C 0.4502 0.28448 0.148 0.0
C251 C 0.43124 0.27668 0.10971 0.0
C252 C 0.43212 0.22671 0.15754 0.0
C253 C 0.41466 0.24392 0.09461 0.0
C254 C 0.41608 0.1675 0.16791 0.0
C255 C 0.43418 0.18103 0.25557 0.0
N256 N 0.41516 0.21984 0.11899 0.0
N257 N 0.43753 0.20537 0.22816 0.0
H258 H 0.2408 0.40458 0.56016 0.0
H259 H 0.1714 0.49799 0.44055 0.0
H260 H 0.30304 0.51069 0.54778 0.0
H261 H 0.162 0.41028 0.37911 0.0
H262 H 0.21884 0.50409 0.48237 0.0
H263 H 0.20846 0.40488 0.49671 0.0
C264 C 0.24744 0.42783 0.54403 0.0
C265 C 0.27395 0.45772 0.55899 0.0
C266 C 0.20695 0.48408 0.45879 0.0
C267 C 0.23791 0.45823 0.48752 0.0
C268 C 0.17999 0.48055 0.43525 0.0
C269 C 0.16306 0.45347 0.40709 0.0
C270 C 0.21588 0.45965 0.45499 0.0
C271 C 0.17472 0.4314 0.40082 0.0
C272 C 0.22953 0.42794 0.50767 0.0
C273 C 0.28235 0.48727 0.53702 0.0
N274 N 0.20008 0.43439 0.42578 0.0
N275 N 0.26388 0.48694 0.50262 0.0
H276 H 0.84242 0.25554 0.8529 0.0
H277 H 0.66594 0.15895 0.82785 0.0
H278 H 0.78165 0.2364 0.96752 0.0
H279 H 0.72641 0.13057 0.75415 0.0
H280 H 0.70549 0.17687 0.88774 0.0
H281 H 0.80234 0.20142 0.82395 0.0
C282 C 0.82061 0.2396 0.87205 0.0
C283 C 0.81415 0.25064 0.91136 0.0
C284 C 0.70965 0.16562 0.85921 0.0
C285 C 0.76828 0.18925 0.87859 0.0
C286 C 0.6871 0.15555 0.82499 0.0
C287 C 0.69332 0.14391 0.78607 0.0
C288 C 0.73936 0.16557 0.85329 0.0
C289 C 0.72134 0.14045 0.78334 0.0
C290 C 0.79806 0.2085 0.85602 0.0
C291 C 0.78658 0.22889 0.93617 0.0
N292 N 0.74392 0.15212 0.81621 0.0
N293 N 0.76384 0.1994 0.9186 0.0
H294 H 0.49668 0.71162 0.05276 0.0
H295 H 0.52875 0.79505 0.28749 0.0
H296 H 0.5513 0.70002 0.15865 0.0
H297 H 0.49304 0.82575 0.1769 0.0
H298 H 0.51737 0.74516 0.2474 0.0
H299 H 0.47983 0.74189 0.10279 0.0
C300 C 0.505 0.71551 0.08656 0.0
C301 C 0.52518 0.70355 0.10221 0.0
C302 C 0.51167 0.76268 0.23203 0.0
C303 C 0.50568 0.73673 0.15902 0.0
C304 C 0.51816 0.79107 0.25488 0.0
C305 C 0.51369 0.81528 0.23402 0.0
C306 C 0.50128 0.75914 0.1881 0.0
C307 C 0.49875 0.80849 0.19262 0.0
C308 C 0.49503 0.73216 0.11511 0.0
C309 C 0.53517 0.70853 0.146 0.0
N310 N 0.49383 0.78133 0.17028 0.0
N311 N 0.52541 0.72488 0.17295 0.0
H312 H 0.74833 0.55242 0.63095 0.0
H313 H 0.77871 0.49137 0.40154 0.0
H314 H 0.66904 0.4851 0.54607 0.0
H315 H 0.84999 0.57757 0.47333 0.0
H316 H 0.73903 0.47806 0.46174 0.0
H317 H 0.78761 0.54724 0.58371 0.0
C318 C 0.73921 0.53609 0.60276 0.0
C319 C 0.70597 0.52058 0.59049 0.0
C320 C 0.7633 0.5 0.46398 0.0
C321 C 0.75008 0.51513 0.53655 0.0
C322 C 0.78541 0.5079 0.42948 0.0
C323 C 0.81674 0.53608 0.43259 0.0
C324 C 0.77319 0.52043 0.50131 0.0
C325 C 0.82546 0.55615 0.46977 0.0
C326 C 0.7615 0.53326 0.57576 0.0
C327 C 0.69494 0.49891 0.55466 0.0
N328 N 0.80367 0.54798 0.50284 0.0
N329 N 0.71715 0.49738 0.52802 0.0
H330 H 0.30288 0.80334 0.78674 0.0
H331 H 0.12657 0.72162 0.87538 0.0
H332 H 0.22664 0.80568 0.70935 0.0
H333 H 0.18222 0.67126 0.89029 0.0
H334 H 0.16416 0.75525 0.81636 0.0
H335 H 0.26036 0.75555 0.82674 0.0
C336 C 0.27716 0.79324 0.77768 0.0
C337 C 0.26788 0.80843 0.74551 0.0
C338 C 0.16785 0.73658 0.83237 0.0
C339 C 0.21971 0.75485 0.79109 0.0
C340 C 0.14692 0.718 0.86625 0.0
C341 C 0.1522 0.69456 0.88768 0.0
C342 C 0.19439 0.732 0.82122 0.0
C343 C 0.17806 0.6897 0.87452 0.0
C344 C 0.25305 0.76602 0.80022 0.0
C345 C 0.23449 0.79453 0.7343 0.0
N346 N 0.19879 0.70883 0.84243 0.0
N347 N 0.21129 0.76884 0.75803 0.0
H348 H 0.56085 0.14468 0.88527 0.0
H349 H 0.53414 0.12223 0.14267 0.0
H350 H 0.62963 0.13851 0.9741 0.0
H351 H 0.47357 0.14368 0.05699 0.0
H352 H 0.57342 0.13536 0.08276 0.0
H353 H 0.53255 0.15163 0.94832 0.0
C354 C 0.5703 0.14528 0.91792 0.0
C355 C 0.59726 0.14035 0.92438 0.0
C356 C 0.55177 0.13765 0.07722 0.0
C357 C 0.5648 0.14789 0.99671 0.0
C358 C 0.52932 0.13016 0.11149 0.0
C359 C 0.50016 0.13118 0.10464 0.0
C360 C 0.54482 0.14586 0.03566 0.0
C361 C 0.49544 0.142 0.06362 0.0
C362 C 0.55413 0.14922 0.95396 0.0
C363 C 0.60861 0.14167 0.96748 0.0
N364 N 0.51722 0.14837 0.03051 0.0
N365 N 0.59204 0.14478 0.00195 0.0
H366 H 0.48566 0.65853 0.28381 0.0
H367 H 0.32785 0.49638 0.37727 0.0
H368 H 0.4292 0.56899 0.20805 0.0
H369 H 0.40382 0.57202 0.45888 0.0
H370 H 0.35641 0.52881 0.31236 0.0
H371 H 0.44718 0.63301 0.34451 0.0
C372 C 0.46491 0.63363 0.27962 0.0
C373 C 0.46105 0.61563 0.24095 0.0
C374 C 0.36656 0.53849 0.34451 0.0
C375 C 0.41684 0.58634 0.31063 0.0
C376 C 0.35023 0.52009 0.38168 0.0
C377 C 0.36372 0.53129 0.42368 0.0
C378 C 0.39642 0.5685 0.34931 0.0
C379 C 0.39273 0.56225 0.42719 0.0
C380 C 0.443 0.61909 0.31444 0.0
C381 C 0.43338 0.58365 0.23739 0.0
N382 N 0.40823 0.57967 0.39046 0.0
N383 N 0.4125 0.56987 0.272 0.0
H384 H 0.81689 0.38948 0.78063 0.0
H385 H 0.82902 0.41883 0.52301 0.0
H386 H 0.81625 0.31986 0.68679 0.0
H387 H 0.81503 0.48131 0.61454 0.0
H388 H 0.8175 0.37883 0.58182 0.0
H389 H 0.80927 0.4198 0.72044 0.0
C390 C 0.81453 0.38017 0.7475 0.0
C391 C 0.81774 0.35229 0.73881 0.0
C392 C 0.81648 0.40105 0.58897 0.0
C393 C 0.80945 0.38724 0.66955 0.0
C394 C 0.82302 0.42391 0.55531 0.0
C395 C 0.82343 0.4537 0.56388 0.0
C396 C 0.81077 0.40819 0.63178 0.0
C397 C 0.81522 0.45879 0.60639 0.0
C398 C 0.81027 0.39758 0.71307 0.0
C399 C 0.81434 0.34141 0.69514 0.0
N400 N 0.80979 0.43657 0.63887 0.0
N401 N 0.81089 0.35914 0.66219 0.0
H402 H 0.3249 0.82228 0.95223 0.0
H403 H 0.49713 0.84002 0.02572 0.0
H404 H 0.40317 0.83963 0.86238 0.0
H405 H 0.43248 0.85416 0.11263 0.0
H406 H 0.45592 0.82391 0.96737 0.0
H407 H 0.35706 0.81743 0.01214 0.0
C408 C 0.34853 0.82437 0.94487 0.0
C409 C 0.36167 0.83205 0.90232 0.0
C410 C 0.45061 0.83014 0.99938 0.0
C411 C 0.39855 0.82663 0.97082 0.0
C412 C 0.47409 0.83932 0.03276 0.0
C413 C 0.4685 0.84911 0.07389 0.0
C414 C 0.42125 0.83053 0.00726 0.0
C415 C 0.43805 0.84736 0.08119 0.0
C416 C 0.36692 0.82176 0.97917 0.0
C417 C 0.39232 0.83424 0.89478 0.0
N418 N 0.41568 0.83858 0.04806 0.0
N419 N 0.40991 0.83196 0.92881 0.0
H420 H 0.54437 0.41099 0.21359 0.0
H421 H 0.58829 0.4216 0.46679 0.0
H422 H 0.48595 0.33448 0.30752 0.0
H423 H 0.65103 0.49495 0.3719 0.0
H424 H 0.55582 0.38488 0.40688 0.0
H425 H 0.58837 0.43755 0.26834 0.0
C426 C 0.54095 0.3995 0.2455 0.0
C427 C 0.51112 0.3708 0.25622 0.0
C428 C 0.57701 0.40878 0.39907 0.0
C429 C 0.56131 0.40125 0.31922 0.0
C430 C 0.59565 0.42977 0.43334 0.0
C431 C 0.62203 0.46171 0.42443 0.0
C432 C 0.58457 0.41992 0.35552 0.0
C433 C 0.63061 0.47074 0.38039 0.0
C434 C 0.56611 0.41469 0.27678 0.0
C435 C 0.50829 0.35685 0.29794 0.0
N436 N 0.61156 0.45021 0.3476 0.0
N437 N 0.53281 0.37247 0.32808 0.0
H438 H 0.15809 0.64995 0.70723 0.0
H439 H 0.15107 0.48565 0.61595 0.0
H440 H 0.1378 0.56579 0.78819 0.0
H441 H 0.13965 0.55505 0.53439 0.0
H442 H 0.1605 0.52152 0.67924 0.0
H443 H 0.16565 0.622 0.64431 0.0
C444 C 0.1558 0.62584 0.71203 0.0
C445 C 0.14685 0.60999 0.75301 0.0
C446 C 0.15639 0.5291 0.64737 0.0
C447 C 0.15548 0.5779 0.68095 0.0
C448 C 0.15118 0.50874 0.6111 0.0
C449 C 0.14418 0.51717 0.56979 0.0
C450 C 0.15491 0.55828 0.64229 0.0
C451 C 0.14464 0.54742 0.56566 0.0
C452 C 0.15997 0.60986 0.67598 0.0
C453 C 0.14433 0.57878 0.75714 0.0
N454 N 0.14963 0.56675 0.60152 0.0
N455 N 0.14836 0.56365 0.72148 0.0
H456 H 0.36362 0.00086 0.87665 0.0
H457 H 0.35203 0.95633 0.12817 0.0
H458 H 0.31203 0.90031 0.92543 0.0
H459 H 0.38032 0.05473 0.08233 0.0
H460 H 0.33296 0.93494 0.0544 0.0
H461 H 0.36559 0.021 0.95125 0.0
C462 C 0.35217 0.98299 0.90286 0.0
C463 C 0.33807 0.94887 0.89481 0.0
C464 C 0.34278 0.96113 0.06058 0.0
C465 C 0.34064 0.97176 0.98031 0.0
C466 C 0.35368 0.97335 0.10275 0.0
C467 C 0.36802 0.00738 0.11135 0.0
C468 C 0.34672 0.98317 0.02656 0.0
C469 C 0.36948 0.0283 0.07715 0.0
C470 C 0.35332 -0.00549 0.94548 0.0
C471 C 0.32344 0.92686 0.93006 0.0
N472 N 0.35949 0.01594 0.03605 0.0
N473 N 0.32561 0.93871 0.97133 0.0
H474 H 0.34406 0.38194 0.22302 0.0
H475 H 0.36594 0.37249 0.47941 0.0
H476 H 0.38773 0.32872 0.28233 0.0
H477 H 0.31179 0.41564 0.42159 0.0
H478 H 0.36665 0.34897 0.40828 0.0
H479 H 0.32472 0.38736 0.2952 0.0
C480 C 0.34909 0.37087 0.25107 0.0
C481 C 0.36801 0.3553 0.24663 0.0
C482 C 0.35407 0.36307 0.41123 0.0
C483 C 0.34624 0.36175 0.32954 0.0
C484 C 0.35361 0.37648 0.45193 0.0
C485 C 0.33919 0.39647 0.45638 0.0
C486 C 0.34039 0.37003 0.37447 0.0
C487 C 0.32339 0.40057 0.41967 0.0
C488 C 0.33805 0.374 0.29235 0.0
C489 C 0.37353 0.34123 0.28417 0.0
N490 N 0.32493 0.38798 0.38008 0.0
N491 N 0.36317 0.34525 0.32408 0.0
H492 H 0.07867 0.44127 0.61911 0.0
H493 H 0.90838 0.31962 0.7334 0.0
H494 H -0.00549 0.366 0.54848 0.0
H495 H -0.00281 0.38742 0.80388 0.0
H496 H 0.94126 0.32954 0.66711 0.0
H497 H 0.05183 0.41535 0.68821 0.0
C498 C 0.05479 0.41869 0.61836 0.0
C499 C 0.03867 0.40553 0.57847 0.0
C500 C 0.95364 0.3418 0.69725 0.0
C501 C 0.00719 0.37641 0.65712 0.0
C502 C 0.93488 0.33615 0.73517 0.0
C503 C 0.94998 0.35317 0.77413 0.0
C504 C -0.01231 0.36483 0.6982 0.0
C505 C -0.01559 0.37406 0.7745 0.0
C506 C 0.03938 0.40396 0.65773 0.0
C507 C 0.00769 0.37657 0.57883 0.0
N508 N 0.002 0.37968 0.73696 0.0
N509 N -0.00739 0.36323 0.61771 0.0
H510 H 0.58424 0.91719 0.0597 0.0
H511 H 0.66133 0.07933 0.90966 0.0
H512 H 0.63027 0.0173 0.10971 0.0
H513 H 0.59181 0.98082 0.8633 0.0
H514 H 0.66395 0.05573 0.98007 0.0
H515 H 0.60088 0.93938 0.9856 0.0
C516 C 0.59859 0.94383 0.05533 0.0
C517 C 0.60547 0.96545 0.09097 0.0
C518 C 0.64857 0.03924 0.95421 0.0
C519 C 0.62437 -0.00909 0.00617 0.0
C520 C 0.64712 0.05266 0.91389 0.0
C521 C 0.6257 0.03208 0.88078 0.0
C522 C 0.62867 0.00499 0.96142 0.0
C523 C 0.60823 -0.00231 0.8881 0.0
C524 C 0.60789 0.95645 0.01292 0.0
C525 C 0.6241 -0.00027 0.08317 0.0
N526 N 0.60975 0.98526 0.92785 0.0
N527 N 0.63255 0.01139 0.04157 0.0
H528 H 0.66106 0.58647 0.41552 0.0
H529 H 0.53481 0.62467 0.29162 0.0
H530 H 0.57443 0.58127 0.47287 0.0
H531 H 0.62067 0.63215 0.22878 0.0
H532 H 0.55728 0.62222 0.36275 0.0
H533 H 0.6551 0.61575 0.35201 0.0
C534 C 0.64146 0.59247 0.41532 0.0
C535 C 0.6179 0.58121 0.44898 0.0
C536 C 0.57173 0.62509 0.33368 0.0
C537 C 0.61078 0.61414 0.37693 0.0
C538 C 0.55892 0.62665 0.29314 0.0
C539 C 0.57602 0.62854 0.25474 0.0
C540 C 0.6014 0.62434 0.33571 0.0
C541 C 0.60696 0.63079 0.25801 0.0
C542 C 0.63794 0.60896 0.37905 0.0
C543 C 0.59281 0.5892 0.44719 0.0
N544 N 0.61845 0.62792 0.29792 0.0
N545 N 0.5897 0.60482 0.41158 0.0
H546 H 0.07937 0.65407 0.70626 0.0
H547 H 0.90052 0.53954 0.63408 0.0
H548 H -0.00066 0.61389 0.79897 0.0
H549 H 0.97023 0.61322 0.54517 0.0
H550 H 0.93469 0.57195 0.69582 0.0
H551 H 0.04025 0.647 0.64782 0.0
C552 C 0.05374 0.64521 0.71451 0.0
C553 C 0.04238 0.63479 0.75722 0.0
C554 C 0.94224 0.5816 0.66296 0.0
C555 C -0.00258 0.62505 0.69071 0.0
C556 C 0.92279 0.56301 0.62776 0.0
C557 C 0.93294 0.57366 0.58475 0.0
C558 C 0.97265 0.61047 0.65498 0.0
C559 C 0.96177 0.60424 0.57805 0.0
C560 C 0.03138 0.64094 0.6812 0.0
C561 C 0.00892 0.62253 0.76636 0.0
N562 N 0.9812 0.62123 0.61287 0.0
N563 N -0.01259 0.61722 0.73314 0.0
H564 H 0.39082 0.97564 0.31567 0.0
H565 H 0.56253 0.98557 0.32027 0.0
H566 H 0.48575 0.06496 0.32226 0.0
H567 H 0.47203 0.90883 0.26275 0.0
H568 H 0.53048 0.00497 0.36189 0.0
H569 H 0.41653 0.94372 0.34 0.0
C570 C 0.41675 0.9887 0.3247 0.0
C571 C 0.43651 0.02265 0.31635 0.0
C572 C 0.51759 0.98312 0.34139 0.0
C573 C 0.46603 0.98663 0.34268 0.0
C574 C 0.53583 0.9722 0.31763 0.0
C575 C 0.51976 0.94651 0.28719 0.0
C576 C 0.48332 0.96807 0.33428 0.0
C577 C 0.48522 0.92955 0.28499 0.0
C578 C 0.43145 0.97051 0.33832 0.0
C579 C 0.46996 0.03861 0.32793 0.0
N580 N 0.46811 0.94101 0.30764 0.0
N581 N 0.48395 0.02031 0.33956 0.0
H582 H 0.42683 0.51699 0.64288 0.0
H583 H 0.52923 0.45251 0.58954 0.0
H584 H 0.38377 0.41082 0.64756 0.0
H585 H 0.57178 0.53415 0.68103 0.0
H586 H 0.47516 0.43371 0.62163 0.0
H587 H 0.47783 0.52335 0.67391 0.0
C588 C 0.42772 0.49502 0.65234 0.0
C589 C 0.40186 0.46339 0.64132 0.0
C590 C 0.49641 0.4552 0.6357 0.0
C591 C 0.45996 0.47039 0.67487 0.0
C592 C 0.52715 0.46621 0.61686 0.0
C593 C 0.55453 0.4955 0.63177 0.0
C594 C 0.49288 0.4744 0.66837 0.0
C595 C 0.55087 0.51194 0.66792 0.0
C596 C 0.45672 0.4986 0.67026 0.0
C597 C 0.40365 0.43563 0.65477 0.0
N598 N 0.52021 0.50185 0.68409 0.0
N599 N 0.43293 0.43972 0.66924 0.0
H600 H 0.88007 0.42443 0.94048 0.0
H601 H 0.05966 0.5537 0.95943 0.0
H602 H 0.95912 0.40502 0.96812 0.0
H603 H 0.98122 0.57613 0.94633 0.0
H604 H 0.02192 0.5024 0.99722 0.0
H605 H 0.91197 0.47882 0.97526 0.0
C606 C 0.90371 0.43129 0.95539 0.0
C607 C 0.91746 0.4108 0.95114 0.0
C608 C 0.01295 0.51882 0.98731 0.0
C609 C 0.95449 0.473 0.98917 0.0
C610 C 0.03455 0.54805 0.96569 0.0
C611 C 0.02289 0.56813 0.94863 0.0
C612 C 0.97916 0.50887 0.98912 0.0
C613 C -0.00937 0.56053 0.95821 0.0
C614 C 0.9219 0.46223 0.97542 0.0
C615 C 0.94777 0.42024 0.97122 0.0
N616 N 0.9694 0.53077 0.97657 0.0
N617 N 0.96573 0.45108 0.98847 0.0
H618 H 0.07085 0.51254 0.37521 0.0
H619 H 0.90056 0.47072 0.36477 0.0
H620 H -0.00543 0.41424 0.3386 0.0
H621 H 0.97929 0.57085 0.34309 0.0
H622 H 0.9324 0.45004 0.32698 0.0
H623 H 0.04152 0.53565 0.33632 0.0
C624 C 0.04821 0.49592 0.35788 0.0
C625 C 0.03415 0.46151 0.36147 0.0
C626 C 0.94246 0.47661 0.3289 0.0
C627 C -0.00035 0.48744 0.3188 0.0
C628 C 0.92423 0.48833 0.35066 0.0
C629 C 0.93819 0.52233 0.35847 0.0
C630 C 0.97544 0.49908 0.31749 0.0
C631 C 0.96832 0.54432 0.3387 0.0
C632 C 0.03149 0.50905 0.33536 0.0
C633 C 0.0055 0.44095 0.33751 0.0
N634 N -0.01332 0.53229 0.32049 0.0
N635 N -0.01161 0.45416 0.31846 0.0
H636 H 0.38909 0.97834 0.67645 0.0
H637 H 0.56983 0.01302 0.67681 0.0
H638 H 0.42328 0.9106 0.70915 0.0
H639 H 0.53596 0.08093 0.70952 0.0
H640 H 0.51742 0.97773 0.63875 0.0
H641 H 0.44153 0.01377 0.63856 0.0
C642 C 0.40709 0.97027 0.67396 0.0
C643 C 0.40294 0.94263 0.69744 0.0
C644 C 0.52215 0.00119 0.65237 0.0
C645 C 0.46214 0.98239 0.65448 0.0
C646 C 0.55197 0.02125 0.67416 0.0
C647 C 0.55624 0.04892 0.69767 0.0
C648 C 0.49691 0.00918 0.65455 0.0
C649 C 0.53275 0.05892 0.69303 0.0
C650 C 0.43686 -0.00966 0.65223 0.0
C651 C 0.42645 0.93266 0.6928 0.0
N652 N 0.50363 0.03861 0.67272 0.0
N653 N 0.4555 0.95296 0.67258 0.0
H654 H 0.57799 0.57614 0.02732 0.0
H655 H 0.40865 0.41484 0.02338 0.0
H656 H 0.48183 0.56735 0.02847 0.0
H657 H 0.5015 0.42859 0.07118 0.0
H658 H 0.43883 0.46558 0.97959 0.0
H659 H 0.55347 0.52054 0.99536 0.0
C660 C 0.55199 0.5631 0.01865 0.0
C661 C 0.53153 0.57547 0.03131 0.0
C662 C 0.45262 0.45677 0.99834 0.0
C663 C 0.50344 0.51227 0.99644 0.0
C664 C 0.43544 0.4281 0.02349 0.0
C665 C 0.45283 0.41863 0.05172 0.0
C666 C 0.48714 0.47616 0.00274 0.0
C667 C 0.48738 0.43603 0.0507 0.0
C668 C 0.53801 0.53145 1.00045 0.0
C669 C 0.49809 0.55797 0.01983 0.0
N670 N 0.50349 0.46446 0.02726 0.0
N671 N 0.48483 0.52676 0.00381 0.0
H672 H 0.32185 0.01141 0.6474 0.0
H673 H 0.29199 0.98506 0.39332 0.0
H674 H 0.26058 0.91655 0.5851 0.0
H675 H 0.35779 0.07847 0.45612 0.0
H676 H 0.2657 0.96284 0.46418 0.0
H677 H 0.31948 0.03887 0.58041 0.0
C678 C 0.30707 -0.00367 0.62012 0.0
C679 C 0.29241 0.96171 0.62116 0.0
C680 C 0.28538 0.98846 0.46226 0.0
C681 C 0.29018 -0.00715 0.54429 0.0
C682 C 0.30034 0.00114 0.42179 0.0
C683 C 0.32771 0.03327 0.41925 0.0
C684 C 0.29807 0.00811 0.50017 0.0
C685 C 0.33733 0.05319 0.45697 0.0
C686 C 0.30586 0.01202 0.58174 0.0
C687 C 0.27315 0.9434 0.58512 0.0
N688 N 0.32295 0.0401 0.49605 0.0
N689 N 0.2733 0.9592 0.54769 0.0
H690 H 0.39109 0.3938 0.89104 0.0
H691 H 0.26184 0.34446 0.74602 0.0
H692 H 0.33861 0.28869 0.9191 0.0
H693 H 0.33993 0.33447 0.68612 0.0
H694 H 0.27499 0.32871 0.81658 0.0
H695 H 0.36005 0.38262 0.82271 0.0
C696 C 0.3729 0.36838 0.88304 0.0
C697 C 0.36747 0.3421 0.91072 0.0
C698 C 0.28804 0.32838 0.78744 0.0
C699 C 0.3322 0.32947 0.83276 0.0
C700 C 0.28069 0.33745 0.74724 0.0
C701 C 0.30046 0.34166 0.71048 0.0
C702 C 0.31526 0.32368 0.79058 0.0
C703 C 0.32441 0.33202 0.7138 0.0
C704 C 0.35533 0.36213 0.84415 0.0
C705 C 0.3434 0.30962 0.89862 0.0
N706 N 0.33205 0.32469 0.75371 0.0
N707 N 0.32659 0.30406 0.86006 0.0
H708 H 0.00153 0.37435 0.06149 0.0
H709 H 0.96643 0.30735 0.2882 0.0
H710 H 0.91051 0.2827 0.08388 0.0
H711 H 0.06553 0.35135 0.23697 0.0
H712 H 0.94479 0.29002 0.21391 0.0
H713 H 0.02645 0.36173 0.12353 0.0
C714 C -0.01289 0.35118 0.07895 0.0
C715 C 0.95399 0.32966 0.06809 0.0
C716 C 0.97126 0.30234 0.2192 0.0
C717 C 0.9818 0.31544 0.13959 0.0
C718 C -0.01639 0.31215 0.26167 0.0
C719 C 0.01778 0.33197 0.26831 0.0
C720 C -0.00664 0.31303 0.18372 0.0
C721 C 0.03894 0.33712 0.23287 0.0
C722 C 0.00132 0.34383 0.11415 0.0
C723 C 0.9362 0.2999 0.09152 0.0
N724 N 0.02642 0.32877 0.19175 0.0
N725 N 0.95003 0.29408 0.12719 0.0
H726 H 0.69308 0.07027 0.58157 0.0
H727 H 0.59803 0.90675 0.4382 0.0
H728 H 0.6186 0.97561 0.63265 0.0
H729 H 0.658 0.00561 0.38618 0.0
H730 H 0.61826 0.92817 0.51168 0.0
H731 H 0.69375 0.04314 0.51358 0.0
C732 C 0.67732 0.04362 0.57874 0.0
C733 C 0.65518 0.02521 0.61227 0.0
C734 C 0.62755 0.94501 0.48406 0.0
C735 C 0.65541 -0.00585 0.53435 0.0
C736 C 0.61613 0.93283 0.44201 0.0
C737 C 0.6259 0.95461 0.40605 0.0
C738 C 0.64897 0.97915 0.4901 0.0
C739 C 0.64943 0.98805 0.41303 0.0
C740 C 0.67768 0.02816 0.53991 0.0
C741 C 0.63576 -0.00928 0.60732 0.0
N742 N 0.6598 -0.00062 0.45435 0.0
N743 N 0.63578 0.97634 0.56856 0.0
H744 H 0.60542 0.7019 0.88924 0.0
H745 H 0.60216 0.62622 0.69144 0.0
H746 H 0.64124 0.63588 0.92606 0.0
H747 H 0.69924 0.64536 0.72959 0.0
H748 H 0.59946 0.65284 0.75911 0.0
H749 H 0.6234 0.70194 0.81382 0.0
C750 C 0.61774 0.68805 0.88179 0.0
C751 C 0.62138 0.66839 0.91383 0.0
C752 C 0.62185 0.65235 0.75167 0.0
C753 C 0.64205 0.66876 0.82823 0.0
C754 C 0.62346 0.6372 0.71304 0.0
C755 C 0.65068 0.63293 0.70535 0.0
C756 C 0.64747 0.66285 0.78261 0.0
C757 C 0.67748 0.64751 0.73472 0.0
C758 C 0.6278 0.68806 0.83881 0.0
C759 C 0.63769 0.65114 0.90235 0.0
N760 N 0.67472 0.66079 0.77291 0.0
N761 N 0.64721 0.65152 0.86027 0.0
H762 H 0.06759 0.66234 0.11003 0.0
H763 H 0.91721 0.64185 0.2458 0.0
H764 H 0.98154 0.65813 0.05179 0.0
H765 H 0.0087 0.65881 0.3038 0.0
H766 H 0.94553 0.66259 0.17608 0.0
H767 H 0.05184 0.67408 0.18121 0.0
C768 C 0.04574 0.66475 0.11232 0.0
C769 C 0.02562 0.65923 0.07563 0.0
C770 C 0.95968 0.66263 0.20428 0.0
C771 C 0.00707 0.67202 0.15658 0.0
C772 C 0.94353 0.6509 0.24417 0.0
C773 C 0.96043 0.64758 0.28014 0.0
C774 C -0.00726 0.6705 0.20033 0.0
C775 C -0.00543 0.66028 0.27658 0.0
C776 C 0.03675 0.67148 0.15282 0.0
C777 C -0.00254 0.66217 0.07974 0.0
N778 N 0.00945 0.67031 0.23692 0.0
N779 N -0.01131 0.66792 0.11982 0.0
H780 H 0.48031 0.15304 0.478 0.0
H781 H 0.64067 0.13661 0.51514 0.0
H782 H 0.51745 0.11183 0.38205 0.0
H783 H 0.58089 0.13985 0.62057 0.0
H784 H 0.60476 0.14306 0.4624 0.0
H785 H 0.52638 0.16363 0.52648 0.0
C786 C 0.49839 0.14663 0.46687 0.0
C787 C 0.49479 0.13103 0.42626 0.0
C788 C 0.59984 0.14279 0.49713 0.0
C789 C 0.54746 0.14327 0.48134 0.0
C790 C 0.62035 0.13924 0.52725 0.0
C791 C 0.61342 0.13719 0.57225 0.0
C792 C 0.5725 0.14467 0.51222 0.0
C793 C 0.58684 0.14086 0.58611 0.0
C794 C 0.52458 0.15262 0.49459 0.0
C795 C 0.51903 0.12344 0.41339 0.0
N796 N 0.56717 0.14419 0.55615 0.0
N797 N 0.54428 0.12944 0.441 0.0
H798 H 0.37493 0.47535 0.77328 0.0
H799 H 0.46381 0.65263 0.89031 0.0
H800 H 0.36039 0.55603 0.73287 0.0
H801 H 0.47206 0.56889 0.9341 0.0
H802 H 0.42395 0.61733 0.83462 0.0
H803 H 0.40894 0.50902 0.83403 0.0
C804 C 0.37881 0.50017 0.77722 0.0
C805 C 0.36486 0.51294 0.74778 0.0
C806 C 0.43432 0.60665 0.85663 0.0
C807 C 0.40399 0.55177 0.81754 0.0
C808 C 0.45706 0.62677 0.88846 0.0
C809 C 0.47147 0.61374 0.91672 0.0
C810 C 0.42605 0.57332 0.85295 0.0
C811 C 0.46169 0.58004 0.91295 0.0
C812 C 0.39823 0.51939 0.81206 0.0
C813 C 0.37073 0.54523 0.75471 0.0
N814 N 0.43977 0.56107 0.88145 0.0
N815 N 0.39001 0.56363 0.78881 0.0
H816 H 0.79214 0.34274 0.09027 0.0
H817 H 0.9042 0.49861 0.24286 0.0
H818 H 0.89565 0.41231 0.06801 0.0
H819 H 0.79751 0.44779 0.24772 0.0
H820 H 0.9008 0.4633 0.18223 0.0
H821 H 0.79262 0.37813 0.15026 0.0
C822 C 0.81485 0.3655 0.09775 0.0
C823 C 0.84398 0.37439 0.07443 0.0
C824 C 0.87807 0.45986 0.19639 0.0
C825 C 0.84474 0.41454 0.14292 0.0
C826 C 0.87999 0.47998 0.23119 0.0
C827 C 0.85107 0.47633 0.25018 0.0
C828 C 0.84702 0.43569 0.18043 0.0
C829 C 0.82041 0.4515 0.23388 0.0
C830 C 0.8151 0.3856 0.13197 0.0
C831 C 0.87267 0.4042 0.08536 0.0
N832 N 0.81916 0.43205 0.1998 0.0
N833 N 0.87235 0.42301 0.11896 0.0
H834 H 0.47569 0.91273 0.39269 0.0
H835 H 0.37261 0.82115 0.60781 0.0
H836 H 0.46866 0.82304 0.4442 0.0
H837 H 0.39165 0.91732 0.56383 0.0
H838 H 0.40438 0.81899 0.54549 0.0
H839 H 0.44026 0.9117 0.45176 0.0
C840 C 0.46646 0.89265 0.41622 0.0
C841 C 0.47534 0.86808 0.41374 0.0
C842 C 0.40157 0.84054 0.54958 0.0
C843 C 0.43502 0.86689 0.48174 0.0
C844 C 0.38356 0.84183 0.58517 0.0
C845 C 0.37942 0.8694 0.59089 0.0
C846 C 0.41546 0.867 0.51964 0.0
C847 C 0.39404 0.89548 0.56055 0.0
C848 C 0.44635 0.89215 0.4501 0.0
C849 C 0.4626 0.84261 0.4451 0.0
N850 N 0.41137 0.8936 0.52623 0.0
N851 N 0.44318 0.84276 0.478 0.0
H852 H 0.6116 0.51513 0.80511 0.0
H853 H 0.49985 0.33367 0.90503 0.0
H854 H 0.59592 0.42536 0.74207 0.0
H855 H 0.50817 0.42246 0.96173 0.0
H856 H 0.54134 0.36776 0.85069 0.0
H857 H 0.57987 0.48237 0.868 0.0
C858 C 0.60175 0.48855 0.80466 0.0
C859 C 0.60618 0.47288 0.76815 0.0
C860 C 0.53431 0.37981 0.87529 0.0
C861 C 0.56978 0.43527 0.83998 0.0
C862 C 0.51067 0.36036 0.90639 0.0
C863 C 0.50031 0.37522 0.93773 0.0
C864 C 0.54762 0.41434 0.87547 0.0
C865 C 0.51532 0.40994 0.93807 0.0
C866 C 0.5836 0.46987 0.84057 0.0
C867 C 0.59292 0.43842 0.76941 0.0
N868 N 0.53802 0.42831 0.90713 0.0
N869 N 0.57513 0.42073 0.80465 0.0
H870 H 0.15345 0.55284 0.27284 0.0
H871 H 0.06638 0.56513 0.05341 0.0
H872 H 0.05798 0.47606 0.22667 0.0
H873 H 0.15014 0.65012 0.11219 0.0
H874 H 0.06681 0.53071 0.11314 0.0
H875 H 0.15575 0.58796 0.2115 0.0
C876 C 0.13294 0.54343 0.24996 0.0
C877 C 0.10556 0.51142 0.25474 0.0
C878 C 0.08518 0.55687 0.11297 0.0
C879 C 0.10818 0.55123 0.18458 0.0
C880 C 0.08508 0.57652 0.07868 0.0
C881 C 0.10819 0.61059 0.0779 0.0
C882 C 0.10863 0.57131 0.14674 0.0
C883 C 0.13178 0.62398 0.11166 0.0
C884 C 0.13431 0.56344 0.21497 0.0
C885 C 0.07969 0.50047 0.22415 0.0
N886 N 0.13136 0.60428 0.14485 0.0
N887 N 0.08171 0.52029 0.19033 0.0
loop_
_geom_bond_atom_site_label_1
_geom_bond_atom_site_label_2
_geom_bond_distance
_geom_bond_site_symmetry_2
_ccdc_geom_bond_type
Zn0 O6 1.969 . S
Zn0 O7 1.965 . S
Zn0 O11 2.024 . S
Zn0 O16 1.969 . S
Zn1 O8 1.969 . S
Zn1 O14 1.969 . S
Zn1 O15 1.965 . S
Zn1 O17 2.024 . S
C2 O3 1.229 . S
C2 O11 1.058 . S
O3 C2 1.229 . S
C4 O5 1.229 . S
C4 O17 1.058 . S
O5 C4 1.229 . S
O6 Zn0 1.969 . S
O6 C9 1.267 . S
O7 Zn0 1.965 . S
O7 C18 1.260 . S
O8 Zn1 1.969 . S
O8 C18 1.258 . S
C9 O6 1.267 . S
C9 O10 1.228 . S
O10 C9 1.228 . S
O11 Zn0 2.024 . S
O11 C2 1.058 . S
C12 O13 1.228 . S
C12 O14 1.267 . S
O13 C12 1.228 . S
O14 Zn1 1.969 . S
O14 C12 1.267 . S
O15 Zn1 1.965 . S
O15 C19 1.260 . S
O16 Zn0 1.969 . S
O16 C19 1.258 . S
O17 Zn1 2.024 . S
O17 C4 1.058 . S
C18 O7 1.260 . S
C18 O8 1.258 . S
C19 O15 1.260 . S
C19 O16 1.258 . S
Zn20 O26 1.969 . S
Zn20 O27 1.965 . S
Zn20 O31 2.024 . S
Zn20 O36 1.969 . S
Zn21 O28 1.969 . S
Zn21 O34 1.969 . S
Zn21 O35 1.965 . S
Zn21 O37 2.024 . S
C22 O23 1.229 . S
C22 O31 1.058 . S
O23 C22 1.229 . S
C24 O25 1.229 . S
C24 O37 1.058 . S
O25 C24 1.229 . S
O26 Zn20 1.969 . S
O26 C29 1.267 . S
O27 Zn20 1.965 . S
O27 C38 1.260 . S
O28 Zn21 1.969 . S
O28 C38 1.258 . S
C29 O26 1.267 . S
C29 O30 1.228 . S
O30 C29 1.228 . S
O31 Zn20 2.024 . S
O31 C22 1.058 . S
C32 O33 1.228 . S
C32 O34 1.267 . S
O33 C32 1.228 . S
O34 Zn21 1.969 . S
O34 C32 1.267 . S
O35 Zn21 1.965 . S
O35 C39 1.260 . S
O36 Zn20 1.969 . S
O36 C39 1.258 . S
O37 Zn21 2.024 . S
O37 C24 1.058 . S
C38 O27 1.260 . S
C38 O28 1.258 . S
C39 O35 1.260 . S
C39 O36 1.258 . S
Zn40 O46 1.969 . S
Zn40 O47 1.965 . S
Zn40 O51 2.024 . S
Zn40 O56 1.969 . S
Zn41 O48 1.969 . S
Zn41 O54 1.969 1_556 S
Zn41 O55 1.965 . S
Zn41 O57 2.024 1_556 S
C42 O43 1.229 . S
C42 O51 1.058 . S
O43 C42 1.229 . S
C44 O45 1.229 . S
C44 O57 1.058 . S
O45 C44 1.229 . S
O46 Zn40 1.969 . S
O46 C49 1.267 . S
O47 Zn40 1.965 . S
O47 C58 1.260 . S
O48 Zn41 1.969 . S
O48 C58 1.258 . S
C49 O46 1.267 . S
C49 O50 1.228 . S
O50 C49 1.228 . S
O51 Zn40 2.024 . S
O51 C42 1.058 . S
C52 O53 1.228 . S
C52 O54 1.267 . S
O53 C52 1.228 . S
O54 Zn41 1.969 1_554 S
O54 C52 1.267 . S
O55 Zn41 1.965 . S
O55 C59 1.260 . S
O56 Zn40 1.969 . S
O56 C59 1.258 . S
O57 Zn41 2.024 1_554 S
O57 C44 1.058 . S
C58 O47 1.260 . S
C58 O48 1.258 . S
C59 O55 1.260 . S
C59 O56 1.258 . S
Zn60 O66 1.969 . S
Zn60 O67 1.965 . S
Zn60 O71 2.024 . S
Zn60 O76 1.969 . S
Zn61 O68 1.969 . S
Zn61 O74 1.969 . S
Zn61 O75 1.965 . S
Zn61 O77 2.024 . S
C62 O63 1.229 . S
C62 O71 1.058 . S
O63 C62 1.229 . S
C64 O65 1.229 . S
C64 O77 1.058 . S
O65 C64 1.229 . S
O66 Zn60 1.969 . S
O66 C69 1.267 . S
O67 Zn60 1.965 . S
O67 C78 1.260 . S
O68 Zn61 1.969 . S
O68 C78 1.258 . S
C69 O66 1.267 . S
C69 O70 1.228 . S
O70 C69 1.228 . S
O71 Zn60 2.024 . S
O71 C62 1.058 . S
C72 O73 1.228 . S
C72 O74 1.267 . S
O73 C72 1.228 . S
O74 Zn61 1.969 . S
O74 C72 1.267 . S
O75 Zn61 1.965 . S
O75 C79 1.260 . S
O76 Zn60 1.969 . S
O76 C79 1.258 . S
O77 Zn61 2.024 . S
O77 C64 1.058 . S
C78 O67 1.260 . S
C78 O68 1.258 . S
C79 O75 1.260 . S
C79 O76 1.258 . S
Zn80 O86 1.969 . S
Zn80 O87 1.965 . S
Zn80 O91 2.024 . S
Zn80 O96 1.969 . S
Zn81 O88 1.969 . S
Zn81 O94 1.969 . S
Zn81 O95 1.965 . S
Zn81 O97 2.024 . S
C82 O83 1.229 . S
C82 O91 1.058 . S
O83 C82 1.229 . S
C84 O85 1.229 . S
C84 O97 1.058 . S
O85 C84 1.229 . S
O86 Zn80 1.969 . S
O86 C89 1.267 . S
O87 Zn80 1.965 . S
O87 C98 1.260 . S
O88 Zn81 1.969 . S
O88 C98 1.258 . S
C89 O86 1.267 . S
C89 O90 1.228 . S
O90 C89 1.228 . S
O91 Zn80 2.024 . S
O91 C82 1.058 . S
C92 O93 1.228 . S
C92 O94 1.267 . S
O93 C92 1.228 . S
O94 Zn81 1.969 . S
O94 C92 1.267 . S
O95 Zn81 1.965 . S
O95 C99 1.260 . S
O96 Zn80 1.969 . S
O96 C99 1.258 . S
O97 Zn81 2.024 . S
O97 C84 1.058 . S
C98 O87 1.260 . S
C98 O88 1.258 . S
C99 O95 1.260 . S
C99 O96 1.258 . S
Zn100 O106 1.969 . S
Zn100 O107 1.965 . S
Zn100 O111 2.024 . S
Zn100 O116 1.969 . S
Zn101 O108 1.969 . S
Zn101 O114 1.969 1_556 S
Zn101 O115 1.965 . S
Zn101 O117 2.024 1_556 S
C102 O103 1.229 . S
C102 O111 1.058 . S
O103 C102 1.229 . S
C104 O105 1.229 . S
C104 O117 1.058 . S
O105 C104 1.229 . S
O106 Zn100 1.969 . S
O106 C109 1.267 . S
O107 Zn100 1.965 . S
O107 C118 1.260 . S
O108 Zn101 1.969 . S
O108 C118 1.258 . S
C109 O106 1.267 . S
C109 O110 1.228 . S
O110 C109 1.228 . S
O111 Zn100 2.024 . S
O111 C102 1.058 . S
C112 O113 1.228 . S
C112 O114 1.267 . S
O113 C112 1.228 . S
O114 Zn101 1.969 1_554 S
O114 C112 1.267 . S
O115 Zn101 1.965 . S
O115 C119 1.260 . S
O116 Zn100 1.969 . S
O116 C119 1.258 . S
O117 Zn101 2.024 1_554 S
O117 C104 1.058 . S
C118 O107 1.260 . S
C118 O108 1.258 . S
C119 O115 1.260 . S
C119 O116 1.258 . S
Zn120 O126 1.969 . S
Zn120 O127 1.965 . S
Zn120 O131 2.024 . S
Zn120 O136 1.969 . S
Zn121 O128 1.969 . S
Zn121 O134 1.969 . S
Zn121 O135 1.965 . S
Zn121 O137 2.024 . S
C122 O123 1.229 . S
C122 O131 1.058 . S
O123 C122 1.229 . S
C124 O125 1.229 . S
C124 O137 1.058 . S
O125 C124 1.229 . S
O126 Zn120 1.969 . S
O126 C129 1.267 . S
O127 Zn120 1.965 . S
O127 C138 1.260 . S
O128 Zn121 1.969 . S
O128 C138 1.258 . S
C129 O126 1.267 . S
C129 O130 1.228 . S
O130 C129 1.228 . S
O131 Zn120 2.024 . S
O131 C122 1.058 . S
C132 O133 1.228 . S
C132 O134 1.267 . S
O133 C132 1.228 . S
O134 Zn121 1.969 . S
O134 C132 1.267 . S
O135 Zn121 1.965 . S
O135 C139 1.260 . S
O136 Zn120 1.969 . S
O136 C139 1.258 . S
O137 Zn121 2.024 . S
O137 C124 1.058 . S
C138 O127 1.260 . S
C138 O128 1.258 . S
C139 O135 1.260 . S
C139 O136 1.258 . S
Zn140 O146 1.969 . S
Zn140 O147 1.965 . S
Zn140 O151 2.024 . S
Zn140 O156 1.969 . S
Zn141 O148 1.969 . S
Zn141 O154 1.969 . S
Zn141 O155 1.965 . S
Zn141 O157 2.024 . S
C142 O143 1.229 . S
C142 O151 1.058 . S
O143 C142 1.229 . S
C144 O145 1.229 . S
C144 O157 1.058 . S
O145 C144 1.229 . S
O146 Zn140 1.969 . S
O146 C149 1.267 . S
O147 Zn140 1.965 . S
O147 C158 1.260 . S
O148 Zn141 1.969 . S
O148 C158 1.258 . S
C149 O146 1.267 . S
C149 O150 1.228 . S
O150 C149 1.228 . S
O151 Zn140 2.024 . S
O151 C142 1.058 . S
C152 O153 1.228 . S
C152 O154 1.267 . S
O153 C152 1.228 . S
O154 Zn141 1.969 . S
O154 C152 1.267 . S
O155 Zn141 1.965 . S
O155 C159 1.260 . S
O156 Zn140 1.969 . S
O156 C159 1.258 . S
O157 Zn141 2.024 . S
O157 C144 1.058 . S
C158 O147 1.260 . S
C158 O148 1.258 . S
C159 O155 1.260 . S
C159 O156 1.258 . S
Zn160 O166 1.969 . S
Zn160 O167 1.965 . S
Zn160 O171 2.024 . S
Zn160 O176 1.969 . S
Zn161 O168 1.969 . S
Zn161 O174 1.969 1_554 S
Zn161 O175 1.965 . S
Zn161 O177 2.024 1_554 S
C162 O163 1.229 . S
C162 O171 1.058 . S
O163 C162 1.229 . S
C164 O165 1.229 . S
C164 O177 1.058 . S
O165 C164 1.229 . S
O166 Zn160 1.969 . S
O166 C169 1.267 . S
O167 Zn160 1.965 . S
O167 C178 1.260 . S
O168 Zn161 1.969 . S
O168 C178 1.258 . S
C169 O166 1.267 . S
C169 O170 1.228 . S
O170 C169 1.228 . S
O171 Zn160 2.024 . S
O171 C162 1.058 . S
C172 O173 1.228 . S
C172 O174 1.267 . S
O173 C172 1.228 . S
O174 Zn161 1.969 1_556 S
O174 C172 1.267 . S
O175 Zn161 1.965 . S
O175 C179 1.260 . S
O176 Zn160 1.969 . S
O176 C179 1.258 . S
O177 Zn161 2.024 1_556 S
O177 C164 1.058 . S
C178 O167 1.260 . S
C178 O168 1.258 . S
C179 O175 1.260 . S
C179 O176 1.258 . S
Zn180 O186 1.969 . S
Zn180 O187 1.965 . S
Zn180 O191 2.024 . S
Zn180 O196 1.969 . S
Zn181 O188 1.969 . S
Zn181 O194 1.969 . S
Zn181 O195 1.965 . S
Zn181 O197 2.024 . S
C182 O183 1.229 . S
C182 O191 1.058 . S
O183 C182 1.229 . S
C184 O185 1.229 . S
C184 O197 1.058 . S
O185 C184 1.229 . S
O186 Zn180 1.969 . S
O186 C189 1.267 . S
O187 Zn180 1.965 . S
O187 C198 1.260 . S
O188 Zn181 1.969 . S
O188 C198 1.258 . S
C189 O186 1.267 . S
C189 O190 1.228 . S
O190 C189 1.228 . S
O191 Zn180 2.024 . S
O191 C182 1.058 . S
C192 O193 1.228 . S
C192 O194 1.267 . S
O193 C192 1.228 . S
O194 Zn181 1.969 . S
O194 C192 1.267 . S
O195 Zn181 1.965 . S
O195 C199 1.260 . S
O196 Zn180 1.969 . S
O196 C199 1.258 . S
O197 Zn181 2.024 . S
O197 C184 1.058 . S
C198 O187 1.260 . S
C198 O188 1.258 . S
C199 O195 1.260 . S
C199 O196 1.258 . S
Zn200 O206 1.969 . S
Zn200 O207 1.965 . S
Zn200 O211 2.024 . S
Zn200 O216 1.969 . S
Zn201 O208 1.969 . S
Zn201 O214 1.969 . S
Zn201 O215 1.965 . S
Zn201 O217 2.024 . S
C202 O203 1.229 . S
C202 O211 1.058 . S
O203 C202 1.229 . S
C204 O205 1.229 . S
C204 O217 1.058 . S
O205 C204 1.229 . S
O206 Zn200 1.969 . S
O206 C209 1.267 . S
O207 Zn200 1.965 . S
O207 C218 1.260 . S
O208 Zn201 1.969 . S
O208 C218 1.258 . S
C209 O206 1.267 . S
C209 O210 1.228 . S
O210 C209 1.228 . S
O211 Zn200 2.024 . S
O211 C202 1.058 . S
C212 O213 1.228 . S
C212 O214 1.267 . S
O213 C212 1.228 . S
O214 Zn201 1.969 . S
O214 C212 1.267 . S
O215 Zn201 1.965 . S
O215 C219 1.260 . S
O216 Zn200 1.969 . S
O216 C219 1.258 . S
O217 Zn201 2.024 . S
O217 C204 1.058 . S
C218 O207 1.260 . S
C218 O208 1.258 . S
C219 O215 1.260 . S
C219 O216 1.258 . S
Zn220 O226 1.969 . S
Zn220 O227 1.965 . S
Zn220 O231 2.024 . S
Zn220 O236 1.969 . S
Zn221 O228 1.969 . S
Zn221 O234 1.969 1_554 S
Zn221 O235 1.965 . S
Zn221 O237 2.024 1_554 S
C222 O223 1.229 . S
C222 O231 1.058 . S
O223 C222 1.229 . S
C224 O225 1.229 . S
C224 O237 1.058 . S
O225 C224 1.229 . S
O226 Zn220 1.969 . S
O226 C229 1.267 . S
O227 Zn220 1.965 . S
O227 C238 1.260 . S
O228 Zn221 1.969 . S
O228 C238 1.258 . S
C229 O226 1.267 . S
C229 O230 1.228 . S
O230 C229 1.228 . S
O231 Zn220 2.024 . S
O231 C222 1.058 . S
C232 O233 1.228 . S
C232 O234 1.267 . S
O233 C232 1.228 . S
O234 Zn221 1.969 1_556 S
O234 C232 1.267 . S
O235 Zn221 1.965 . S
O235 C239 1.260 . S
O236 Zn220 1.969 . S
O236 C239 1.258 . S
O237 Zn221 2.024 1_556 S
O237 C224 1.058 . S
C238 O227 1.260 . S
C238 O228 1.258 . S
C239 O235 1.260 . S
C239 O236 1.258 . S
H240 C246 0.930 . S
H241 C250 0.930 . S
H242 C255 0.929 . S
H243 C253 0.929 . S
H244 C248 0.929 . S
H245 C254 0.929 . S
C246 H240 0.930 . S
C246 C247 1.367 . S
C246 C254 1.378 . S
C247 C246 1.367 . S
C247 C255 1.433 . S
C248 H244 0.929 . S
C248 C250 1.378 . S
C248 C252 1.350 . S
C249 C252 1.463 . S
C249 C254 1.350 . S
C249 N257 1.427 . S
C250 H241 0.930 . S
C250 C248 1.378 . S
C250 C251 1.367 . S
C251 C250 1.367 . S
C251 C253 1.433 . S
C252 C248 1.350 . S
C252 C249 1.463 . S
C252 N256 1.427 . S
C253 H243 0.929 . S
C253 C251 1.433 . S
C253 N256 1.384 . S
C254 H245 0.929 . S
C254 C246 1.378 . S
C254 C249 1.350 . S
C255 H242 0.929 . S
C255 C247 1.433 . S
C255 N257 1.384 . S
N256 C252 1.427 . S
N256 C253 1.384 . S
N257 C249 1.427 . S
N257 C255 1.384 . S
H258 C264 0.930 . S
H259 C268 0.930 . S
H260 C273 0.929 . S
H261 C271 0.929 . S
H262 C266 0.929 . S
H263 C272 0.929 . S
C264 H258 0.930 . S
C264 C265 1.367 . S
C264 C272 1.378 . S
C265 C264 1.367 . S
C265 C273 1.433 . S
C266 H262 0.929 . S
C266 C268 1.378 . S
C266 C270 1.350 . S
C267 C270 1.463 . S
C267 C272 1.350 . S
C267 N275 1.427 . S
C268 H259 0.930 . S
C268 C266 1.378 . S
C268 C269 1.367 . S
C269 C268 1.367 . S
C269 C271 1.433 . S
C270 C266 1.350 . S
C270 C267 1.463 . S
C270 N274 1.427 . S
C271 H261 0.929 . S
C271 C269 1.433 . S
C271 N274 1.384 . S
C272 H263 0.929 . S
C272 C264 1.378 . S
C272 C267 1.350 . S
C273 H260 0.929 . S
C273 C265 1.433 . S
C273 N275 1.384 . S
N274 C270 1.427 . S
N274 C271 1.384 . S
N275 C267 1.427 . S
N275 C273 1.384 . S
H276 C282 0.930 . S
H277 C286 0.930 . S
H278 C291 0.929 . S
H279 C289 0.929 . S
H280 C284 0.929 . S
H281 C290 0.929 . S
C282 H276 0.930 . S
C282 C283 1.367 . S
C282 C290 1.378 . S
C283 C282 1.367 . S
C283 C291 1.433 . S
C284 H280 0.929 . S
C284 C286 1.378 . S
C284 C288 1.350 . S
C285 C288 1.463 . S
C285 C290 1.350 . S
C285 N293 1.427 . S
C286 H277 0.930 . S
C286 C284 1.378 . S
C286 C287 1.367 . S
C287 C286 1.367 . S
C287 C289 1.433 . S
C288 C284 1.350 . S
C288 C285 1.463 . S
C288 N292 1.427 . S
C289 H279 0.929 . S
C289 C287 1.433 . S
C289 N292 1.384 . S
C290 H281 0.929 . S
C290 C282 1.378 . S
C290 C285 1.350 . S
C291 H278 0.929 . S
C291 C283 1.433 . S
C291 N293 1.384 . S
N292 C288 1.427 . S
N292 C289 1.384 . S
N293 C285 1.427 . S
N293 C291 1.384 . S
H294 C300 0.930 . S
H295 C304 0.930 . S
H296 C309 0.929 . S
H297 C307 0.929 . S
H298 C302 0.929 . S
H299 C308 0.929 . S
C300 H294 0.930 . S
C300 C301 1.367 . S
C300 C308 1.378 . S
C301 C300 1.367 . S
C301 C309 1.433 . S
C302 H298 0.929 . S
C302 C304 1.378 . S
C302 C306 1.350 . S
C303 C306 1.463 . S
C303 C308 1.350 . S
C303 N311 1.427 . S
C304 H295 0.930 . S
C304 C302 1.378 . S
C304 C305 1.367 . S
C305 C304 1.367 . S
C305 C307 1.433 . S
C306 C302 1.350 . S
C306 C303 1.463 . S
C306 N310 1.427 . S
C307 H297 0.929 . S
C307 C305 1.433 . S
C307 N310 1.384 . S
C308 H299 0.929 . S
C308 C300 1.378 . S
C308 C303 1.350 . S
C309 H296 0.929 . S
C309 C301 1.433 . S
C309 N311 1.384 . S
N310 C306 1.427 . S
N310 C307 1.384 . S
N311 C303 1.427 . S
N311 C309 1.384 . S
H312 C318 0.930 . S
H313 C322 0.930 . S
H314 C327 0.929 . S
H315 C325 0.929 . S
H316 C320 0.929 . S
H317 C326 0.929 . S
C318 H312 0.930 . S
C318 C319 1.367 . S
C318 C326 1.378 . S
C319 C318 1.367 . S
C319 C327 1.433 . S
C320 H316 0.929 . S
C320 C322 1.378 . S
C320 C324 1.350 . S
C321 C324 1.463 . S
C321 C326 1.350 . S
C321 N329 1.427 . S
C322 H313 0.930 . S
C322 C320 1.378 . S
C322 C323 1.367 . S
C323 C322 1.367 . S
C323 C325 1.433 . S
C324 C320 1.350 . S
C324 C321 1.463 . S
C324 N328 1.427 . S
C325 H315 0.929 . S
C325 C323 1.433 . S
C325 N328 1.384 . S
C326 H317 0.929 . S
C326 C318 1.378 . S
C326 C321 1.350 . S
C327 H314 0.929 . S
C327 C319 1.433 . S
C327 N329 1.384 . S
N328 C324 1.427 . S
N328 C325 1.384 . S
N329 C321 1.427 . S
N329 C327 1.384 . S
H330 C336 0.930 . S
H331 C340 0.930 . S
H332 C345 0.929 . S
H333 C343 0.929 . S
H334 C338 0.929 . S
H335 C344 0.929 . S
C336 H330 0.930 . S
C336 C337 1.367 . S
C336 C344 1.378 . S
C337 C336 1.367 . S
C337 C345 1.433 . S
C338 H334 0.929 . S
C338 C340 1.378 . S
C338 C342 1.350 . S
C339 C342 1.463 . S
C339 C344 1.350 . S
C339 N347 1.427 . S
C340 H331 0.930 . S
C340 C338 1.378 . S
C340 C341 1.367 . S
C341 C340 1.367 . S
C341 C343 1.433 . S
C342 C338 1.350 . S
C342 C339 1.463 . S
C342 N346 1.427 . S
C343 H333 0.929 . S
C343 C341 1.433 . S
C343 N346 1.384 . S
C344 H335 0.929 . S
C344 C336 1.378 . S
C344 C339 1.350 . S
C345 H332 0.929 . S
C345 C337 1.433 . S
C345 N347 1.384 . S
N346 C342 1.427 . S
N346 C343 1.384 . S
N347 C339 1.427 . S
N347 C345 1.384 . S
H348 C354 0.930 . S
H349 C358 0.930 . S
H350 C363 0.929 . S
H351 C361 0.929 . S
H352 C356 0.929 . S
H353 C362 0.929 . S
C354 H348 0.930 . S
C354 C355 1.367 . S
C354 C362 1.378 . S
C355 C354 1.367 . S
C355 C363 1.433 . S
C356 H352 0.929 . S
C356 C358 1.378 . S
C356 C360 1.350 . S
C357 C360 1.463 1_556 S
C357 C362 1.350 . S
C357 N365 1.427 . S
C358 H349 0.930 . S
C358 C356 1.378 . S
C358 C359 1.367 . S
C359 C358 1.367 . S
C359 C361 1.433 . S
C360 C356 1.350 . S
C360 C357 1.463 1_554 S
C360 N364 1.427 . S
C361 H351 0.929 . S
C361 C359 1.433 . S
C361 N364 1.384 . S
C362 H353 0.929 . S
C362 C354 1.378 . S
C362 C357 1.350 . S
C363 H350 0.929 . S
C363 C355 1.433 . S
C363 N365 1.384 . S
N364 C360 1.427 . S
N364 C361 1.384 . S
N365 C357 1.427 . S
N365 C363 1.384 . S
H366 C372 0.930 . S
H367 C376 0.930 . S
H368 C381 0.929 . S
H369 C379 0.929 . S
H370 C374 0.929 . S
H371 C380 0.929 . S
C372 H366 0.930 . S
C372 C373 1.367 . S
C372 C380 1.378 . S
C373 C372 1.367 . S
C373 C381 1.433 . S
C374 H370 0.929 . S
C374 C376 1.378 . S
C374 C378 1.350 . S
C375 C378 1.463 . S
C375 C380 1.350 . S
C375 N383 1.427 . S
C376 H367 0.930 . S
C376 C374 1.378 . S
C376 C377 1.367 . S
C377 C376 1.367 . S
C377 C379 1.433 . S
C378 C374 1.350 . S
C378 C375 1.463 . S
C378 N382 1.427 . S
C379 H369 0.929 . S
C379 C377 1.433 . S
C379 N382 1.384 . S
C380 H371 0.929 . S
C380 C372 1.378 . S
C380 C375 1.350 . S
C381 H368 0.929 . S
C381 C373 1.433 . S
C381 N383 1.384 . S
N382 C378 1.427 . S
N382 C379 1.384 . S
N383 C375 1.427 . S
N383 C381 1.384 . S
H384 C390 0.930 . S
H385 C394 0.930 . S
H386 C399 0.929 . S
H387 C397 0.929 . S
H388 C392 0.929 . S
H389 C398 0.929 . S
C390 H384 0.930 . S
C390 C391 1.367 . S
C390 C398 1.378 . S
C391 C390 1.367 . S
C391 C399 1.433 . S
C392 H388 0.929 . S
C392 C394 1.378 . S
C392 C396 1.350 . S
C393 C396 1.463 . S
C393 C398 1.350 . S
C393 N401 1.427 . S
C394 H385 0.930 . S
C394 C392 1.378 . S
C394 C395 1.367 . S
C395 C394 1.367 . S
C395 C397 1.433 . S
C396 C392 1.350 . S
C396 C393 1.463 . S
C396 N400 1.427 . S
C397 H387 0.929 . S
C397 C395 1.433 . S
C397 N400 1.384 . S
C398 H389 0.929 . S
C398 C390 1.378 . S
C398 C393 1.350 . S
C399 H386 0.929 . S
C399 C391 1.433 . S
C399 N401 1.384 . S
N400 C396 1.427 . S
N400 C397 1.384 . S
N401 C393 1.427 . S
N401 C399 1.384 . S
H402 C408 0.930 . S
H403 C412 0.930 . S
H404 C417 0.929 . S
H405 C415 0.929 . S
H406 C410 0.929 . S
H407 C416 0.928 . S
C408 H402 0.930 . S
C408 C409 1.367 . S
C408 C416 1.378 . S
C409 C408 1.367 . S
C409 C417 1.433 . S
C410 H406 0.929 . S
C410 C412 1.378 . S
C410 C414 1.350 . S
C411 C414 1.463 1_556 S
C411 C416 1.350 . S
C411 N419 1.427 . S
C412 H403 0.930 . S
C412 C410 1.378 . S
C412 C413 1.367 . S
C413 C412 1.367 . S
C413 C415 1.433 . S
C414 C410 1.350 . S
C414 C411 1.463 1_554 S
C414 N418 1.427 . S
C415 H405 0.929 . S
C415 C413 1.433 . S
C415 N418 1.384 . S
C416 H407 0.928 . S
C416 C408 1.378 . S
C416 C411 1.350 . S
C417 H404 0.929 . S
C417 C409 1.433 . S
C417 N419 1.384 . S
N418 C414 1.427 . S
N418 C415 1.384 . S
N419 C411 1.427 . S
N419 C417 1.384 . S
H420 C426 0.930 . S
H421 C430 0.930 . S
H422 C435 0.929 . S
H423 C433 0.929 . S
H424 C428 0.929 . S
H425 C434 0.929 . S
C426 H420 0.930 . S
C426 C427 1.367 . S
C426 C434 1.378 . S
C427 C426 1.367 . S
C427 C435 1.433 . S
C428 H424 0.929 . S
C428 C430 1.378 . S
C428 C432 1.350 . S
C429 C432 1.463 . S
C429 C434 1.350 . S
C429 N437 1.427 . S
C430 H421 0.930 . S
C430 C428 1.378 . S
C430 C431 1.367 . S
C431 C430 1.367 . S
C431 C433 1.433 . S
C432 C428 1.350 . S
C432 C429 1.463 . S
C432 N436 1.427 . S
C433 H423 0.929 . S
C433 C431 1.433 . S
C433 N436 1.384 . S
C434 H425 0.929 . S
C434 C426 1.378 . S
C434 C429 1.350 . S
C435 H422 0.929 . S
C435 C427 1.433 . S
C435 N437 1.384 . S
N436 C432 1.427 . S
N436 C433 1.384 . S
N437 C429 1.427 . S
N437 C435 1.384 . S
H438 C444 0.930 . S
H439 C448 0.930 . S
H440 C453 0.929 . S
H441 C451 0.929 . S
H442 C446 0.929 . S
H443 C452 0.929 . S
C444 H438 0.930 . S
C444 C445 1.367 . S
C444 C452 1.378 . S
C445 C444 1.367 . S
C445 C453 1.433 . S
C446 H442 0.929 . S
C446 C448 1.378 . S
C446 C450 1.350 . S
C447 C450 1.463 . S
C447 C452 1.350 . S
C447 N455 1.427 . S
C448 H439 0.930 . S
C448 C446 1.378 . S
C448 C449 1.367 . S
C449 C448 1.367 . S
C449 C451 1.433 . S
C450 C446 1.350 . S
C450 C447 1.463 . S
C450 N454 1.427 . S
C451 H441 0.929 . S
C451 C449 1.433 . S
C451 N454 1.384 . S
C452 H443 0.929 . S
C452 C444 1.378 . S
C452 C447 1.350 . S
C453 H440 0.929 . S
C453 C445 1.433 . S
C453 N455 1.384 . S
N454 C450 1.427 . S
N454 C451 1.384 . S
N455 C447 1.427 . S
N455 C453 1.384 . S
H456 C462 0.930 . S
H457 C466 0.930 . S
H458 C471 0.929 . S
H459 C469 0.929 . S
H460 C464 0.929 . S
H461 C470 0.929 . S
C462 H456 0.930 . S
C462 C463 1.367 . S
C462 C470 1.378 1_565 S
C463 C462 1.367 . S
C463 C471 1.433 . S
C464 H460 0.929 . S
C464 C466 1.378 1_565 S
C464 C468 1.350 1_565 S
C465 C468 1.463 1_566 S
C465 C470 1.350 1_565 S
C465 N473 1.427 . S
C466 H457 0.930 . S
C466 C464 1.378 1_545 S
C466 C467 1.367 . S
C467 C466 1.367 . S
C467 C469 1.433 . S
C468 C464 1.350 1_545 S
C468 C465 1.463 1_544 S
C468 N472 1.427 . S
C469 H459 0.929 . S
C469 C467 1.433 . S
C469 N472 1.384 . S
C470 H461 0.929 . S
C470 C462 1.378 1_545 S
C470 C465 1.350 1_545 S
C471 H458 0.929 . S
C471 C463 1.433 . S
C471 N473 1.384 . S
N472 C468 1.427 . S
N472 C469 1.384 . S
N473 C465 1.427 . S
N473 C471 1.384 . S
H474 C480 0.930 . S
H475 C484 0.930 . S
H476 C489 0.929 . S
H477 C487 0.929 . S
H478 C482 0.929 . S
H479 C488 0.929 . S
C480 H474 0.930 . S
C480 C481 1.367 . S
C480 C488 1.378 . S
C481 C480 1.367 . S
C481 C489 1.433 . S
C482 H478 0.929 . S
C482 C484 1.378 . S
C482 C486 1.350 . S
C483 C486 1.463 . S
C483 C488 1.350 . S
C483 N491 1.427 . S
C484 H475 0.930 . S
C484 C482 1.378 . S
C484 C485 1.367 . S
C485 C484 1.367 . S
C485 C487 1.433 . S
C486 C482 1.350 . S
C486 C483 1.463 . S
C486 N490 1.427 . S
C487 H477 0.929 . S
C487 C485 1.433 . S
C487 N490 1.384 . S
C488 H479 0.929 . S
C488 C480 1.378 . S
C488 C483 1.350 . S
C489 H476 0.929 . S
C489 C481 1.433 . S
C489 N491 1.384 . S
N490 C486 1.427 . S
N490 C487 1.384 . S
N491 C483 1.427 . S
N491 C489 1.384 . S
H492 C498 0.930 . S
H493 C502 0.930 . S
H494 C507 0.929 . S
H495 C505 0.929 . S
H496 C500 0.929 . S
H497 C506 0.929 . S
C498 H492 0.930 . S
C498 C499 1.367 . S
C498 C506 1.378 . S
C499 C498 1.367 . S
C499 C507 1.433 . S
C500 H496 0.929 . S
C500 C502 1.378 . S
C500 C504 1.350 . S
C501 C504 1.463 1_455 S
C501 C506 1.350 . S
C501 N509 1.427 . S
C502 H493 0.930 . S
C502 C500 1.378 . S
C502 C503 1.367 . S
C503 C502 1.367 . S
C503 C505 1.433 . S
C504 C500 1.350 . S
C504 C501 1.463 1_655 S
C504 N508 1.427 . S
C505 H495 0.929 . S
C505 C503 1.433 . S
C505 N508 1.384 . S
C506 H497 0.929 . S
C506 C498 1.378 . S
C506 C501 1.350 . S
C507 H494 0.929 . S
C507 C499 1.433 . S
C507 N509 1.384 . S
N508 C504 1.427 . S
N508 C505 1.384 . S
N509 C501 1.427 . S
N509 C507 1.384 . S
H510 C516 0.930 . S
H511 C520 0.930 . S
H512 C525 0.929 . S
H513 C523 0.929 . S
H514 C518 0.929 1_554 S
H515 C524 0.929 1_556 S
C516 H510 0.930 . S
C516 C517 1.367 . S
C516 C524 1.378 . S
C517 C516 1.367 . S
C517 C525 1.433 . S
C518 H514 0.929 1_556 S
C518 C520 1.378 . S
C518 C522 1.350 . S
C519 C522 1.463 1_564 S
C519 C524 1.350 . S
C519 N527 1.427 1_565 S
C520 H511 0.930 . S
C520 C518 1.378 . S
C520 C521 1.367 . S
C521 C520 1.367 . S
C521 C523 1.433 . S
C522 C518 1.350 . S
C522 C519 1.463 1_546 S
C522 N526 1.427 1_545 S
C523 H513 0.929 . S
C523 C521 1.433 . S
C523 N526 1.384 1_545 S
C524 H515 0.929 1_554 S
C524 C516 1.378 . S
C524 C519 1.350 . S
C525 H512 0.929 . S
C525 C517 1.433 . S
C525 N527 1.384 1_565 S
N526 C522 1.427 1_565 S
N526 C523 1.384 1_565 S
N527 C519 1.427 1_545 S
N527 C525 1.384 1_545 S
H528 C534 0.930 . S
H529 C538 0.930 . S
H530 C543 0.929 . S
H531 C541 0.929 . S
H532 C536 0.929 . S
H533 C542 0.929 . S
C534 H528 0.930 . S
C534 C535 1.367 . S
C534 C542 1.378 . S
C535 C534 1.367 . S
C535 C543 1.433 . S
C536 H532 0.929 . S
C536 C538 1.378 . S
C536 C540 1.350 . S
C537 C540 1.463 . S
C537 C542 1.350 . S
C537 N545 1.427 . S
C538 H529 0.930 . S
C538 C536 1.378 . S
C538 C539 1.367 . S
C539 C538 1.367 . S
C539 C541 1.433 . S
C540 C536 1.350 . S
C540 C537 1.463 . S
C540 N544 1.427 . S
C541 H531 0.929 . S
C541 C539 1.433 . S
C541 N544 1.384 . S
C542 H533 0.929 . S
C542 C534 1.378 . S
C542 C537 1.350 . S
C543 H530 0.929 . S
C543 C535 1.433 . S
C543 N545 1.384 . S
N544 C540 1.427 . S
N544 C541 1.384 . S
N545 C537 1.427 . S
N545 C543 1.384 . S
H546 C552 0.930 . S
H547 C556 0.930 . S
H548 C561 0.929 . S
H549 C559 0.929 . S
H550 C554 0.929 . S
H551 C560 0.929 . S
C552 H546 0.930 . S
C552 C553 1.367 . S
C552 C560 1.378 . S
C553 C552 1.367 . S
C553 C561 1.433 . S
C554 H550 0.929 . S
C554 C556 1.378 . S
C554 C558 1.350 . S
C555 C558 1.463 1_455 S
C555 C560 1.350 . S
C555 N563 1.427 . S
C556 H547 0.930 . S
C556 C554 1.378 . S
C556 C557 1.367 . S
C557 C556 1.367 . S
C557 C559 1.433 . S
C558 C554 1.350 . S
C558 C555 1.463 1_655 S
C558 N562 1.427 . S
C559 H549 0.929 . S
C559 C557 1.433 . S
C559 N562 1.384 . S
C560 H551 0.929 . S
C560 C552 1.378 . S
C560 C555 1.350 . S
C561 H548 0.929 . S
C561 C553 1.433 . S
C561 N563 1.384 . S
N562 C558 1.427 . S
N562 C559 1.384 . S
N563 C555 1.427 . S
N563 C561 1.384 . S
H564 C570 0.930 . S
H565 C574 0.930 . S
H566 C579 0.929 . S
H567 C577 0.929 . S
H568 C572 0.915 1_545 S
H569 C578 0.915 1_565 S
C570 H564 0.930 . S
C570 C571 1.367 . S
C570 C578 1.378 . S
C571 C570 1.367 . S
C571 C579 1.433 . S
C572 H568 0.915 1_565 S
C572 C574 1.378 . S
C572 C576 1.350 . S
C573 C576 1.463 1_545 S
C573 C578 1.350 . S
C573 N581 1.427 . S
C574 H565 0.930 . S
C574 C572 1.378 . S
C574 C575 1.367 . S
C575 C574 1.367 . S
C575 C577 1.433 . S
C576 C572 1.350 . S
C576 C573 1.463 1_565 S
C576 N580 1.427 . S
C577 H567 0.929 . S
C577 C575 1.433 . S
C577 N580 1.384 . S
C578 H569 0.915 1_545 S
C578 C570 1.378 . S
C578 C573 1.350 . S
C579 H566 0.929 . S
C579 C571 1.433 . S
C579 N581 1.384 . S
N580 C576 1.427 . S
N580 C577 1.384 . S
N581 C573 1.427 . S
N581 C579 1.384 . S
H582 C588 0.930 . S
H583 C592 0.930 . S
H584 C597 0.929 . S
H585 C595 0.929 . S
H586 C590 0.929 . S
H587 C596 0.929 . S
C588 H582 0.930 . S
C588 C589 1.367 . S
C588 C596 1.378 . S
C589 C588 1.367 . S
C589 C597 1.433 . S
C590 H586 0.929 . S
C590 C592 1.378 . S
C590 C594 1.350 . S
C591 C594 1.463 . S
C591 C596 1.350 . S
C591 N599 1.427 . S
C592 H583 0.930 . S
C592 C590 1.378 . S
C592 C593 1.367 . S
C593 C592 1.367 . S
C593 C595 1.433 . S
C594 C590 1.350 . S
C594 C591 1.463 . S
C594 N598 1.427 . S
C595 H585 0.929 . S
C595 C593 1.433 . S
C595 N598 1.384 . S
C596 H587 0.929 . S
C596 C588 1.378 . S
C596 C591 1.350 . S
C597 H584 0.929 . S
C597 C589 1.433 . S
C597 N599 1.384 . S
N598 C594 1.427 . S
N598 C595 1.384 . S
N599 C591 1.427 . S
N599 C597 1.384 . S
H600 C606 0.930 . S
H601 C610 0.930 . S
H602 C615 0.929 . S
H603 C613 0.929 . S
H604 C608 0.929 . S
H605 C614 0.929 . S
C606 H600 0.930 . S
C606 C607 1.367 . S
C606 C614 1.378 . S
C607 C606 1.367 . S
C607 C615 1.433 . S
C608 H604 0.929 . S
C608 C610 1.378 . S
C608 C612 1.350 . S
C609 C612 1.463 1_655 S
C609 C614 1.350 . S
C609 N617 1.427 . S
C610 H601 0.930 . S
C610 C608 1.378 . S
C610 C611 1.367 . S
C611 C610 1.367 . S
C611 C613 1.433 . S
C612 C608 1.350 . S
C612 C609 1.463 1_455 S
C612 N616 1.427 . S
C613 H603 0.929 . S
C613 C611 1.433 . S
C613 N616 1.384 . S
C614 H605 0.929 . S
C614 C606 1.378 . S
C614 C609 1.350 . S
C615 H602 0.929 . S
C615 C607 1.433 . S
C615 N617 1.384 . S
N616 C612 1.427 . S
N616 C613 1.384 . S
N617 C609 1.427 . S
N617 C615 1.384 . S
H618 C624 0.930 . S
H619 C628 0.930 . S
H620 C633 0.929 . S
H621 C631 0.929 . S
H622 C626 0.929 . S
H623 C632 0.929 . S
C624 H618 0.930 . S
C624 C625 1.367 . S
C624 C632 1.378 . S
C625 C624 1.367 . S
C625 C633 1.433 . S
C626 H622 0.929 . S
C626 C628 1.378 . S
C626 C630 1.350 . S
C627 C630 1.463 1_455 S
C627 C632 1.350 . S
C627 N635 1.427 . S
C628 H619 0.930 . S
C628 C626 1.378 . S
C628 C629 1.367 . S
C629 C628 1.367 . S
C629 C631 1.433 . S
C630 C626 1.350 . S
C630 C627 1.463 1_655 S
C630 N634 1.427 . S
C631 H621 0.929 . S
C631 C629 1.433 . S
C631 N634 1.384 . S
C632 H623 0.929 . S
C632 C624 1.378 . S
C632 C627 1.350 . S
C633 H620 0.929 . S
C633 C625 1.433 . S
C633 N635 1.384 . S
N634 C630 1.427 . S
N634 C631 1.384 . S
N635 C627 1.427 . S
N635 C633 1.384 . S
H636 C642 0.930 . S
H637 C646 0.930 . S
H638 C651 0.929 . S
H639 C649 0.929 . S
H640 C644 0.929 1_565 S
H641 C650 0.929 1_545 S
C642 H636 0.930 . S
C642 C643 1.367 . S
C642 C650 1.378 . S
C643 C642 1.367 . S
C643 C651 1.433 . S
C644 H640 0.929 1_545 S
C644 C646 1.378 . S
C644 C648 1.350 . S
C645 C648 1.463 1_565 S
C645 C650 1.350 . S
C645 N653 1.427 . S
C646 H637 0.930 . S
C646 C644 1.378 . S
C646 C647 1.367 . S
C647 C646 1.367 . S
C647 C649 1.433 . S
C648 C644 1.350 . S
C648 C645 1.463 1_545 S
C648 N652 1.427 . S
C649 H639 0.929 . S
C649 C647 1.433 . S
C649 N652 1.384 . S
C650 H641 0.929 1_565 S
C650 C642 1.378 . S
C650 C645 1.350 . S
C651 H638 0.929 . S
C651 C643 1.433 . S
C651 N653 1.384 . S
N652 C648 1.427 . S
N652 C649 1.384 . S
N653 C645 1.427 . S
N653 C651 1.384 . S
H654 C660 0.930 . S
H655 C664 0.930 . S
H656 C669 0.929 . S
H657 C667 0.929 . S
H658 C662 0.929 . S
H659 C668 0.929 . S
C660 H654 0.930 . S
C660 C661 1.367 . S
C660 C668 1.378 . S
C661 C660 1.367 . S
C661 C669 1.433 . S
C662 H658 0.929 . S
C662 C664 1.378 . S
C662 C666 1.350 . S
C663 C666 1.463 . S
C663 C668 1.350 . S
C663 N671 1.427 . S
C664 H655 0.930 . S
C664 C662 1.378 . S
C664 C665 1.367 . S
C665 C664 1.367 . S
C665 C667 1.433 . S
C666 C662 1.350 . S
C666 C663 1.463 . S
C666 N670 1.427 . S
C667 H657 0.929 . S
C667 C665 1.433 . S
C667 N670 1.384 . S
C668 H659 0.929 . S
C668 C660 1.378 . S
C668 C663 1.350 . S
C669 H656 0.929 . S
C669 C661 1.433 . S
C669 N671 1.384 . S
N670 C666 1.427 . S
N670 C667 1.384 . S
N671 C663 1.427 . S
N671 C669 1.384 . S
H672 C678 0.930 . S
H673 C682 0.930 . S
H674 C687 0.929 . S
H675 C685 0.929 . S
H676 C680 0.929 . S
H677 C686 0.929 . S
C678 H672 0.930 . S
C678 C679 1.367 . S
C678 C686 1.378 1_565 S
C679 C678 1.367 . S
C679 C687 1.433 . S
C680 H676 0.929 . S
C680 C682 1.378 1_565 S
C680 C684 1.350 1_565 S
C681 C684 1.463 1_565 S
C681 C686 1.350 1_565 S
C681 N689 1.427 . S
C682 H673 0.930 . S
C682 C680 1.378 1_545 S
C682 C683 1.367 . S
C683 C682 1.367 . S
C683 C685 1.433 . S
C684 C680 1.350 1_545 S
C684 C681 1.463 1_545 S
C684 N688 1.427 . S
C685 H675 0.929 . S
C685 C683 1.433 . S
C685 N688 1.384 . S
C686 H677 0.929 . S
C686 C678 1.378 1_545 S
C686 C681 1.350 1_545 S
C687 H674 0.929 . S
C687 C679 1.433 . S
C687 N689 1.384 . S
N688 C684 1.427 . S
N688 C685 1.384 . S
N689 C681 1.427 . S
N689 C687 1.384 . S
H690 C696 0.930 . S
H691 C700 0.930 . S
H692 C705 0.929 . S
H693 C703 0.929 . S
H694 C698 0.929 . S
H695 C704 0.929 . S
C696 H690 0.930 . S
C696 C697 1.367 . S
C696 C704 1.378 . S
C697 C696 1.367 . S
C697 C705 1.433 . S
C698 H694 0.929 . S
C698 C700 1.378 . S
C698 C702 1.350 . S
C699 C702 1.463 . S
C699 C704 1.350 . S
C699 N707 1.427 . S
C700 H691 0.930 . S
C700 C698 1.378 . S
C700 C701 1.367 . S
C701 C700 1.367 . S
C701 C703 1.433 . S
C702 C698 1.350 . S
C702 C699 1.463 . S
C702 N706 1.427 . S
C703 H693 0.929 . S
C703 C701 1.433 . S
C703 N706 1.384 . S
C704 H695 0.929 . S
C704 C696 1.378 . S
C704 C699 1.350 . S
C705 H692 0.929 . S
C705 C697 1.433 . S
C705 N707 1.384 . S
N706 C702 1.427 . S
N706 C703 1.384 . S
N707 C699 1.427 . S
N707 C705 1.384 . S
H708 C714 0.930 . S
H709 C718 0.930 . S
H710 C723 0.929 . S
H711 C721 0.929 . S
H712 C716 0.929 1_655 S
H713 C722 0.929 1_455 S
C714 H708 0.930 . S
C714 C715 1.367 . S
C714 C722 1.378 . S
C715 C714 1.367 . S
C715 C723 1.433 . S
C716 H712 0.929 1_455 S
C716 C718 1.378 . S
C716 C720 1.350 . S
C717 C720 1.463 1_655 S
C717 C722 1.350 . S
C717 N725 1.427 . S
C718 H709 0.930 . S
C718 C716 1.378 . S
C718 C719 1.367 . S
C719 C718 1.367 . S
C719 C721 1.433 . S
C720 C716 1.350 . S
C720 C717 1.463 1_455 S
C720 N724 1.427 . S
C721 H711 0.929 . S
C721 C719 1.433 . S
C721 N724 1.384 . S
C722 H713 0.929 1_655 S
C722 C714 1.378 . S
C722 C717 1.350 . S
C723 H710 0.929 . S
C723 C715 1.433 . S
C723 N725 1.384 . S
N724 C720 1.427 . S
N724 C721 1.384 . S
N725 C717 1.427 . S
N725 C723 1.384 . S
H726 C732 0.930 . S
H727 C736 0.930 . S
H728 C741 0.929 . S
H729 C739 0.929 . S
H730 C734 0.929 . S
H731 C740 0.929 . S
C732 H726 0.930 . S
C732 C733 1.367 . S
C732 C740 1.378 . S
C733 C732 1.367 . S
C733 C741 1.433 . S
C734 H730 0.929 . S
C734 C736 1.378 . S
C734 C738 1.350 . S
C735 C738 1.463 1_545 S
C735 C740 1.350 . S
C735 N743 1.427 . S
C736 H727 0.930 . S
C736 C734 1.378 . S
C736 C737 1.367 . S
C737 C736 1.367 . S
C737 C739 1.433 . S
C738 C734 1.350 . S
C738 C735 1.463 1_565 S
C738 N742 1.427 . S
C739 H729 0.929 . S
C739 C737 1.433 . S
C739 N742 1.384 . S
C740 H731 0.929 . S
C740 C732 1.378 . S
C740 C735 1.350 . S
C741 H728 0.929 . S
C741 C733 1.433 . S
C741 N743 1.384 . S
N742 C738 1.427 . S
N742 C739 1.384 . S
N743 C735 1.427 . S
N743 C741 1.384 . S
H744 C750 0.930 . S
H745 C754 0.930 . S
H746 C759 0.929 . S
H747 C757 0.929 . S
H748 C752 0.929 . S
H749 C758 0.929 . S
C750 H744 0.930 . S
C750 C751 1.367 . S
C750 C758 1.378 . S
C751 C750 1.367 . S
C751 C759 1.433 . S
C752 H748 0.929 . S
C752 C754 1.378 . S
C752 C756 1.350 . S
C753 C756 1.463 . S
C753 C758 1.350 . S
C753 N761 1.427 . S
C754 H745 0.930 . S
C754 C752 1.378 . S
C754 C755 1.367 . S
C755 C754 1.367 . S
C755 C757 1.433 . S
C756 C752 1.350 . S
C756 C753 1.463 . S
C756 N760 1.427 . S
C757 H747 0.929 . S
C757 C755 1.433 . S
C757 N760 1.384 . S
C758 H749 0.929 . S
C758 C750 1.378 . S
C758 C753 1.350 . S
C759 H746 0.929 . S
C759 C751 1.433 . S
C759 N761 1.384 . S
N760 C756 1.427 . S
N760 C757 1.384 . S
N761 C753 1.427 . S
N761 C759 1.384 . S
H762 C768 0.930 . S
H763 C772 0.930 . S
H764 C777 0.929 . S
H765 C775 0.929 . S
H766 C770 0.929 . S
H767 C776 0.929 . S
C768 H762 0.930 . S
C768 C769 1.367 . S
C768 C776 1.378 . S
C769 C768 1.367 . S
C769 C777 1.433 . S
C770 H766 0.929 . S
C770 C772 1.378 . S
C770 C774 1.350 . S
C771 C774 1.463 1_455 S
C771 C776 1.350 . S
C771 N779 1.427 1_455 S
C772 H763 0.930 . S
C772 C770 1.378 . S
C772 C773 1.367 . S
C773 C772 1.367 . S
C773 C775 1.433 . S
C774 C770 1.350 . S
C774 C771 1.463 1_655 S
C774 N778 1.427 1_655 S
C775 H765 0.929 . S
C775 C773 1.433 . S
C775 N778 1.384 1_655 S
C776 H767 0.929 . S
C776 C768 1.378 . S
C776 C771 1.350 . S
C777 H764 0.929 . S
C777 C769 1.433 . S
C777 N779 1.384 1_455 S
N778 C774 1.427 1_455 S
N778 C775 1.384 1_455 S
N779 C771 1.427 1_655 S
N779 C777 1.384 1_655 S
H780 C786 0.930 . S
H781 C790 0.930 . S
H782 C795 0.929 . S
H783 C793 0.929 . S
H784 C788 0.929 . S
H785 C794 0.929 . S
C786 H780 0.930 . S
C786 C787 1.367 . S
C786 C794 1.378 . S
C787 C786 1.367 . S
C787 C795 1.433 . S
C788 H784 0.929 . S
C788 C790 1.378 . S
C788 C792 1.350 . S
C789 C792 1.463 . S
C789 C794 1.350 . S
C789 N797 1.427 . S
C790 H781 0.930 . S
C790 C788 1.378 . S
C790 C791 1.367 . S
C791 C790 1.367 . S
C791 C793 1.433 . S
C792 C788 1.350 . S
C792 C789 1.463 . S
C792 N796 1.427 . S
C793 H783 0.929 . S
C793 C791 1.433 . S
C793 N796 1.384 . S
C794 H785 0.929 . S
C794 C786 1.378 . S
C794 C789 1.350 . S
C795 H782 0.929 . S
C795 C787 1.433 . S
C795 N797 1.384 . S
N796 C792 1.427 . S
N796 C793 1.384 . S
N797 C789 1.427 . S
N797 C795 1.384 . S
H798 C804 0.930 . S
H799 C808 0.930 . S
H800 C813 0.929 . S
H801 C811 0.929 . S
H802 C806 0.929 . S
H803 C812 0.929 . S
C804 H798 0.930 . S
C804 C805 1.367 . S
C804 C812 1.378 . S
C805 C804 1.367 . S
C805 C813 1.433 . S
C806 H802 0.929 . S
C806 C808 1.378 . S
C806 C810 1.350 . S
C807 C810 1.463 . S
C807 C812 1.350 . S
C807 N815 1.427 . S
C808 H799 0.930 . S
C808 C806 1.378 . S
C808 C809 1.367 . S
C809 C808 1.367 . S
C809 C811 1.433 . S
C810 C806 1.350 . S
C810 C807 1.463 . S
C810 N814 1.427 . S
C811 H801 0.929 . S
C811 C809 1.433 . S
C811 N814 1.384 . S
C812 H803 0.929 . S
C812 C804 1.378 . S
C812 C807 1.350 . S
C813 H800 0.929 . S
C813 C805 1.433 . S
C813 N815 1.384 . S
N814 C810 1.427 . S
N814 C811 1.384 . S
N815 C807 1.427 . S
N815 C813 1.384 . S
H816 C822 0.930 . S
H817 C826 0.930 . S
H818 C831 0.929 . S
H819 C829 0.929 . S
H820 C824 0.929 . S
H821 C830 0.929 . S
C822 H816 0.930 . S
C822 C823 1.367 . S
C822 C830 1.378 . S
C823 C822 1.367 . S
C823 C831 1.433 . S
C824 H820 0.929 . S
C824 C826 1.378 . S
C824 C828 1.350 . S
C825 C828 1.463 . S
C825 C830 1.350 . S
C825 N833 1.427 . S
C826 H817 0.930 . S
C826 C824 1.378 . S
C826 C827 1.367 . S
C827 C826 1.367 . S
C827 C829 1.433 . S
C828 C824 1.350 . S
C828 C825 1.463 . S
C828 N832 1.427 . S
C829 H819 0.929 . S
C829 C827 1.433 . S
C829 N832 1.384 . S
C830 H821 0.929 . S
C830 C822 1.378 . S
C830 C825 1.350 . S
C831 H818 0.929 . S
C831 C823 1.433 . S
C831 N833 1.384 . S
N832 C828 1.427 . S
N832 C829 1.384 . S
N833 C825 1.427 . S
N833 C831 1.384 . S
H834 C840 0.930 . S
H835 C844 0.930 . S
H836 C849 0.929 . S
H837 C847 0.929 . S
H838 C842 0.929 . S
H839 C848 0.929 . S
C840 H834 0.930 . S
C840 C841 1.367 . S
C840 C848 1.378 . S
C841 C840 1.367 . S
C841 C849 1.433 . S
C842 H838 0.929 . S
C842 C844 1.378 . S
C842 C846 1.350 . S
C843 C846 1.463 . S
C843 C848 1.350 . S
C843 N851 1.427 . S
C844 H835 0.930 . S
C844 C842 1.378 . S
C844 C845 1.367 . S
C845 C844 1.367 . S
C845 C847 1.433 . S
C846 C842 1.350 . S
C846 C843 1.463 . S
C846 N850 1.427 . S
C847 H837 0.929 . S
C847 C845 1.433 . S
C847 N850 1.384 . S
C848 H839 0.929 . S
C848 C840 1.378 . S
C848 C843 1.350 . S
C849 H836 0.929 . S
C849 C841 1.433 . S
C849 N851 1.384 . S
N850 C846 1.427 . S
N850 C847 1.384 . S
N851 C843 1.427 . S
N851 C849 1.384 . S
H852 C858 0.930 . S
H853 C862 0.930 . S
H854 C867 0.929 . S
H855 C865 0.929 . S
H856 C860 0.929 . S
H857 C866 0.929 . S
C858 H852 0.930 . S
C858 C859 1.367 . S
C858 C866 1.378 . S
C859 C858 1.367 . S
C859 C867 1.433 . S
C860 H856 0.929 . S
C860 C862 1.378 . S
C860 C864 1.350 . S
C861 C864 1.463 . S
C861 C866 1.350 . S
C861 N869 1.427 . S
C862 H853 0.930 . S
C862 C860 1.378 . S
C862 C863 1.367 . S
C863 C862 1.367 . S
C863 C865 1.433 . S
C864 C860 1.350 . S
C864 C861 1.463 . S
C864 N868 1.427 . S
C865 H855 0.929 . S
C865 C863 1.433 . S
C865 N868 1.384 . S
C866 H857 0.929 . S
C866 C858 1.378 . S
C866 C861 1.350 . S
C867 H854 0.929 . S
C867 C859 1.433 . S
C867 N869 1.384 . S
N868 C864 1.427 . S
N868 C865 1.384 . S
N869 C861 1.427 . S
N869 C867 1.384 . S
H870 C876 0.930 . S
H871 C880 0.930 . S
H872 C885 0.929 . S
H873 C883 0.929 . S
H874 C878 0.929 . S
H875 C884 0.929 . S
C876 H870 0.930 . S
C876 C877 1.367 . S
C876 C884 1.378 . S
C877 C876 1.367 . S
C877 C885 1.433 . S
C878 H874 0.929 . S
C878 C880 1.378 . S
C878 C882 1.350 . S
C879 C882 1.463 . S
C879 C884 1.350 . S
C879 N887 1.427 . S
C880 H871 0.930 . S
C880 C878 1.378 . S
C880 C881 1.367 . S
C881 C880 1.367 . S
C881 C883 1.433 . S
C882 C878 1.350 . S
C882 C879 1.463 . S
C882 N886 1.427 . S
C883 H873 0.929 . S
C883 C881 1.433 . S
C883 N886 1.384 . S
C884 H875 0.929 . S
C884 C876 1.378 . S
C884 C879 1.350 . S
C885 H872 0.929 . S
C885 C877 1.433 . S
C885 N887 1.384 . S
N886 C882 1.427 . S
N886 C883 1.384 . S
N887 C879 1.427 . S
N887 C885 1.384 . S
C247 C18 1.059 . S
C251 C178 1.055 . S
C265 C38 1.065 . S
C269 C198 1.054 . S
C283 C58 1.059 . S
C287 C218 1.055 . S
C301 C238 1.059 . S
C305 C78 1.065 . S
C319 C98 1.066 . S
C323 C138 1.057 . S
C337 C158 1.053 . S
C341 C118 1.063 . S
C355 C209 0.905 . S
C359 C9 0.884 . S
C373 C229 0.900 . S
C377 C29 0.879 . S
C391 C49 0.889 . S
C395 C129 0.906 . S
C409 C149 0.891 . S
C413 C69 0.878 . S
C427 C169 0.898 . S
C431 C89 0.903 . S
C445 C109 0.893 . S
C449 C189 0.878 . S
C463 C142 1.463 . S
C467 C2 1.452 . S
C481 C162 1.461 . S
C485 C22 1.455 . S
C499 C182 1.442 . S
C503 C42 1.463 . S
C517 C62 1.452 . S
C521 C202 1.448 . S
C535 C82 1.463 . S
C539 C222 1.442 . S
C553 C102 1.461 . S
C557 C122 1.442 . S
C571 C19 0.312 . S
C575 C79 0.356 . S
C589 C39 0.360 . S
C593 C99 0.311 . S
C607 C59 0.332 . S
C611 C119 0.347 . S
C625 C199 0.314 . S
C629 C139 0.360 . S
C643 C159 0.346 . S
C647 C219 0.321 . S
C661 C239 0.311 . S
C665 C179 0.359 . S
C679 C152 1.340 . S
C683 C12 1.349 . S
C697 C172 1.332 . S
C701 C32 1.354 . S
C715 C52 1.335 . S
C719 C192 1.353 . S
C733 C212 1.351 . S
C737 C72 1.334 . S
C751 C232 1.353 . S
C755 C92 1.332 . S
C769 C112 1.337 . S
C773 C132 1.347 . S
C787 C4 1.578 . S
C791 C204 1.579 . S
C805 C24 1.575 . S
C809 C224 1.585 . S
C823 C44 1.594 . S
C827 C124 1.579 . S
C841 C64 1.582 . S
C845 C144 1.595 . S
C859 C84 1.576 . S
C863 C164 1.583 . S
C877 C184 1.595 . S
C881 C104 1.583 . S
