# Generated by pormake.
# Topology ukm, (4)-cn, num edge types: 1
# Building blocks:
#     Node 0, Type 0, BuildingBlock: QUQFOY_clean_sbu_3, # of connection points: 4
#     Node 1, Type 0, BuildingBlock: QUQFOY_clean_sbu_3, # of connection points: 4
#     Node 2, Type 0, BuildingBlock: QUQFOY_clean_sbu_3, # of connection points: 4
#     Node 3, Type 0, BuildingBlock: QUQFOY_clean_sbu_3, # of connection points: 4
#     Node 4, Type 0, BuildingBlock: QUQFOY_clean_sbu_3, # of connection points: 4
#     Node 5, Type 0, BuildingBlock: QUQFOY_clean_sbu_3, # of connection points: 4
#     Node 6, Type 0, BuildingBlock: QUQFOY_clean_sbu_3, # of connection points: 4
#     Node 7, Type 0, BuildingBlock: QUQFOY_clean_sbu_3, # of connection points: 4
#     Node 8, Type 0, BuildingBlock: QUQFOY_clean_sbu_3, # of connection points: 4
#     Node 9, Type 0, BuildingBlock: QUQFOY_clean_sbu_3, # of connection points: 4
#     Node 10, Type 0, BuildingBlock: QUQFOY_clean_sbu_3, # of connection points: 4
#     Node 11, Type 0, BuildingBlock: QUQFOY_clean_sbu_3, # of connection points: 4
#     Node 12, Type 0, BuildingBlock: QUQFOY_clean_sbu_3, # of connection points: 4
#     Node 13, Type 0, BuildingBlock: QUQFOY_clean_sbu_3, # of connection points: 4
#     Node 14, Type 0, BuildingBlock: QUQFOY_clean_sbu_3, # of connection points: 4
#     Node 15, Type 0, BuildingBlock: QUQFOY_clean_sbu_3, # of connection points: 4
#     Node 16, Type 0, BuildingBlock: QUQFOY_clean_sbu_3, # of connection points: 4
#     Node 17, Type 0, BuildingBlock: QUQFOY_clean_sbu_3, # of connection points: 4
#     Node 18, Type 0, BuildingBlock: QUQFOY_clean_sbu_3, # of connection points: 4
#     Node 19, Type 0, BuildingBlock: QUQFOY_clean_sbu_3, # of connection points: 4
#     Node 20, Type 0, BuildingBlock: QUQFOY_clean_sbu_3, # of connection points: 4
#     Node 21, Type 0, BuildingBlock: QUQFOY_clean_sbu_3, # of connection points: 4
#     Node 22, Type 0, BuildingBlock: QUQFOY_clean_sbu_3, # of connection points: 4
#     Node 23, Type 0, BuildingBlock: QUQFOY_clean_sbu_3, # of connection points: 4
#     Node 24, Type 0, BuildingBlock: QUQFOY_clean_sbu_3, # of connection points: 4
#     Node 25, Type 0, BuildingBlock: QUQFOY_clean_sbu_3, # of connection points: 4
#     Node 26, Type 0, BuildingBlock: QUQFOY_clean_sbu_3, # of connection points: 4
#     Node 27, Type 0, BuildingBlock: QUQFOY_clean_sbu_3, # of connection points: 4
#     Node 28, Type 0, BuildingBlock: QUQFOY_clean_sbu_3, # of connection points: 4
#     Node 29, Type 0, BuildingBlock: QUQFOY_clean_sbu_3, # of connection points: 4
#     Node 30, Type 0, BuildingBlock: QUQFOY_clean_sbu_3, # of connection points: 4
#     Node 31, Type 0, BuildingBlock: QUQFOY_clean_sbu_3, # of connection points: 4
#     Edge 32, Type (0, 0), BuildingBlock: KIFKEQ_clean_linker_1, # of connection points: 2
#     Edge 33, Type (0, 0), BuildingBlock: KIFKEQ_clean_linker_1, # of connection points: 2
#     Edge 34, Type (0, 0), BuildingBlock: KIFKEQ_clean_linker_1, # of connection points: 2
#     Edge 35, Type (0, 0), BuildingBlock: KIFKEQ_clean_linker_1, # of connection points: 2
#     Edge 36, Type (0, 0), BuildingBlock: KIFKEQ_clean_linker_1, # of connection points: 2
#     Edge 37, Type (0, 0), BuildingBlock: KIFKEQ_clean_linker_1, # of connection points: 2
#     Edge 38, Type (0, 0), BuildingBlock: KIFKEQ_clean_linker_1, # of connection points: 2
#     Edge 39, Type (0, 0), BuildingBlock: KIFKEQ_clean_linker_1, # of connection points: 2
#     Edge 40, Type (0, 0), BuildingBlock: KIFKEQ_clean_linker_1, # of connection points: 2
#     Edge 41, Type (0, 0), BuildingBlock: KIFKEQ_clean_linker_1, # of connection points: 2
#     Edge 42, Type (0, 0), BuildingBlock: KIFKEQ_clean_linker_1, # of connection points: 2
#     Edge 43, Type (0, 0), BuildingBlock: KIFKEQ_clean_linker_1, # of connection points: 2
#     Edge 44, Type (0, 0), BuildingBlock: KIFKEQ_clean_linker_1, # of connection points: 2
#     Edge 45, Type (0, 0), BuildingBlock: KIFKEQ_clean_linker_1, # of connection points: 2
#     Edge 46, Type (0, 0), BuildingBlock: KIFKEQ_clean_linker_1, # of connection points: 2
#     Edge 47, Type (0, 0), BuildingBlock: KIFKEQ_clean_linker_1, # of connection points: 2
#     Edge 48, Type (0, 0), BuildingBlock: KIFKEQ_clean_linker_1, # of connection points: 2
#     Edge 49, Type (0, 0), BuildingBlock: KIFKEQ_clean_linker_1, # of connection points: 2
#     Edge 50, Type (0, 0), BuildingBlock: KIFKEQ_clean_linker_1, # of connection points: 2
#     Edge 51, Type (0, 0), BuildingBlock: KIFKEQ_clean_linker_1, # of connection points: 2
#     Edge 52, Type (0, 0), BuildingBlock: KIFKEQ_clean_linker_1, # of connection points: 2
#     Edge 53, Type (0, 0), BuildingBlock: KIFKEQ_clean_linker_1, # of connection points: 2
#     Edge 54, Type (0, 0), BuildingBlock: KIFKEQ_clean_linker_1, # of connection points: 2
#     Edge 55, Type (0, 0), BuildingBlock: KIFKEQ_clean_linker_1, # of connection points: 2
#     Edge 56, Type (0, 0), BuildingBlock: KIFKEQ_clean_linker_1, # of connection points: 2
#     Edge 57, Type (0, 0), BuildingBlock: KIFKEQ_clean_linker_1, # of connection points: 2
#     Edge 58, Type (0, 0), BuildingBlock: KIFKEQ_clean_linker_1, # of connection points: 2
#     Edge 59, Type (0, 0), BuildingBlock: KIFKEQ_clean_linker_1, # of connection points: 2
#     Edge 60, Type (0, 0), BuildingBlock: KIFKEQ_clean_linker_1, # of connection points: 2
#     Edge 61, Type (0, 0), BuildingBlock: KIFKEQ_clean_linker_1, # of connection points: 2
#     Edge 62, Type (0, 0), BuildingBlock: KIFKEQ_clean_linker_1, # of connection points: 2
#     Edge 63, Type (0, 0), BuildingBlock: KIFKEQ_clean_linker_1, # of connection points: 2
#     Edge 64, Type (0, 0), BuildingBlock: KIFKEQ_clean_linker_1, # of connection points: 2
#     Edge 65, Type (0, 0), BuildingBlock: KIFKEQ_clean_linker_1, # of connection points: 2
#     Edge 66, Type (0, 0), BuildingBlock: KIFKEQ_clean_linker_1, # of connection points: 2
#     Edge 67, Type (0, 0), BuildingBlock: KIFKEQ_clean_linker_1, # of connection points: 2
#     Edge 68, Type (0, 0), BuildingBlock: KIFKEQ_clean_linker_1, # of connection points: 2
#     Edge 69, Type (0, 0), BuildingBlock: KIFKEQ_clean_linker_1, # of connection points: 2
#     Edge 70, Type (0, 0), BuildingBlock: KIFKEQ_clean_linker_1, # of connection points: 2
#     Edge 71, Type (0, 0), BuildingBlock: KIFKEQ_clean_linker_1, # of connection points: 2
#     Edge 72, Type (0, 0), BuildingBlock: KIFKEQ_clean_linker_1, # of connection points: 2
#     Edge 73, Type (0, 0), BuildingBlock: KIFKEQ_clean_linker_1, # of connection points: 2
#     Edge 74, Type (0, 0), BuildingBlock: KIFKEQ_clean_linker_1, # of connection points: 2
#     Edge 75, Type (0, 0), BuildingBlock: KIFKEQ_clean_linker_1, # of connection points: 2
#     Edge 76, Type (0, 0), BuildingBlock: KIFKEQ_clean_linker_1, # of connection points: 2
#     Edge 77, Type (0, 0), BuildingBlock: KIFKEQ_clean_linker_1, # of connection points: 2
#     Edge 78, Type (0, 0), BuildingBlock: KIFKEQ_clean_linker_1, # of connection points: 2
#     Edge 79, Type (0, 0), BuildingBlock: KIFKEQ_clean_linker_1, # of connection points: 2
#     Edge 80, Type (0, 0), BuildingBlock: KIFKEQ_clean_linker_1, # of connection points: 2
#     Edge 81, Type (0, 0), BuildingBlock: KIFKEQ_clean_linker_1, # of connection points: 2
#     Edge 82, Type (0, 0), BuildingBlock: KIFKEQ_clean_linker_1, # of connection points: 2
#     Edge 83, Type (0, 0), BuildingBlock: KIFKEQ_clean_linker_1, # of connection points: 2
#     Edge 84, Type (0, 0), BuildingBlock: KIFKEQ_clean_linker_1, # of connection points: 2
#     Edge 85, Type (0, 0), BuildingBlock: KIFKEQ_clean_linker_1, # of connection points: 2
#     Edge 86, Type (0, 0), BuildingBlock: KIFKEQ_clean_linker_1, # of connection points: 2
#     Edge 87, Type (0, 0), BuildingBlock: KIFKEQ_clean_linker_1, # of connection points: 2
#     Edge 88, Type (0, 0), BuildingBlock: KIFKEQ_clean_linker_1, # of connection points: 2
#     Edge 89, Type (0, 0), BuildingBlock: KIFKEQ_clean_linker_1, # of connection points: 2
#     Edge 90, Type (0, 0), BuildingBlock: KIFKEQ_clean_linker_1, # of connection points: 2
#     Edge 91, Type (0, 0), BuildingBlock: KIFKEQ_clean_linker_1, # of connection points: 2
#     Edge 92, Type (0, 0), BuildingBlock: KIFKEQ_clean_linker_1, # of connection points: 2
#     Edge 93, Type (0, 0), BuildingBlock: KIFKEQ_clean_linker_1, # of connection points: 2
#     Edge 94, Type (0, 0), BuildingBlock: KIFKEQ_clean_linker_1, # of connection points: 2
#     Edge 95, Type (0, 0), BuildingBlock: KIFKEQ_clean_linker_1, # of connection points: 2
# Relax obj value: 0.274
# Max RMSD: 0.197
# Mean RMSD: 0.197
data_MOF--net-ukm--node1-QUQFOY_clean_sbu_3--edge1-KIFKEQ_clean_linker_1
_symmetry_space_group_name_H-M    P1
_symmetry_Int_Tables_number       1
_symmetry_cell_setting            triclinic
loop_
_symmetry_equiv_pos_as_xyz
'x, y, z'
_cell_length_a     26.391929
_cell_length_b     107.78475
_cell_length_c     43.157833
_cell_angle_alpha  90.016989
_cell_angle_beta   90.045054
_cell_angle_gamma 90.000183
loop_
_atom_site_label
_atom_site_type_symbol
_atom_site_fract_x
_atom_site_fract_y
_atom_site_fract_z
_atom_type_partial_charge
C0 C 0.9884 0.27109 0.29916 0.0
O1 O 0.96232 0.28096 0.29728 0.0
Cd2 Cd 0.00104 0.30119 0.3005 0.0
O3 O 0.036 0.27156 0.30339 0.0
Cd4 Cd 0.10636 0.28573 0.30959 0.0
C5 C 0.0821 0.29808 0.23884 0.0
O6 O 0.06589 0.3019 0.33978 0.0
O7 O 0.13676 0.30633 0.31686 0.0
O8 O 0.15392 0.27503 0.35012 0.0
C9 C 0.10085 0.30972 0.33441 0.0
O10 O 0.04215 0.30301 0.24992 0.0
C11 C 0.18961 0.27167 0.33223 0.0
O12 O 0.11032 0.29108 0.25518 0.0
O13 O 0.18597 0.27472 0.30391 0.0
C14 C 0.25615 0.92911 0.27812 0.0
O15 O 0.28827 0.92041 0.27496 0.0
Cd16 Cd 0.2726 0.89906 0.28806 0.0
O17 O 0.21279 0.92709 0.29 0.0
Cd18 Cd 0.15926 0.91078 0.31133 0.0
C19 C 0.16887 0.89676 0.24034 0.0
O20 O 0.22589 0.89918 0.33526 0.0
O21 O 0.15324 0.8901 0.33352 0.0
O22 O 0.11636 0.92408 0.3496 0.0
C23 C 0.19991 0.88952 0.34038 0.0
O24 O 0.21459 0.89362 0.24587 0.0
C25 C 0.07288 0.92252 0.33737 0.0
O26 O 0.14344 0.90314 0.25969 0.0
O27 O 0.07043 0.91546 0.31387 0.0
C28 C 0.9395 0.93066 0.964 0.0
O29 O 0.9119 0.92135 0.97009 0.0
Cd30 Cd 0.9454 0.90042 0.96807 0.0
O31 O 0.98575 0.92923 0.9569 0.0
Cd32 Cd 0.04805 0.91301 0.9524 0.0
C33 C 0.03187 0.90332 0.02585 0.0
O34 O 0.00426 0.89573 0.92673 0.0
O35 O 0.07191 0.89193 0.95379 0.0
O36 O 0.09427 0.92015 0.90684 0.0
C37 C 0.03839 0.88807 0.9351 0.0
O38 O 0.99141 0.89805 0.01659 0.0
C39 C 0.13367 0.92332 0.92178 0.0
O40 O 0.05735 0.91028 0.00781 0.0
O41 O 0.13254 0.92202 0.95101 0.0
C42 C 0.19479 0.26813 0.95104 0.0
O43 O 0.23778 0.27339 0.95006 0.0
Cd44 Cd 0.248 0.29524 0.95171 0.0
O45 O 0.1542 0.27446 0.94907 0.0
Cd46 Cd 0.12897 0.29616 0.94043 0.0
C47 C 0.16816 0.30128 0.01317 0.0
O48 O 0.20006 0.30372 0.90995 0.0
O49 O 0.15548 0.31744 0.93431 0.0
O50 O 0.07005 0.29108 0.89859 0.0
C51 C 0.19054 0.31504 0.91516 0.0
O52 O 0.21325 0.30046 0.00284 0.0
C53 C 0.03135 0.29561 0.91192 0.0
O54 O 0.13009 0.29977 -0.00451 0.0
O55 O 0.03812 0.30033 0.93856 0.0
C56 C 0.93144 0.6941 0.6605 0.0
O57 O 0.96979 0.68702 0.65884 0.0
Cd58 Cd 0.96846 0.66489 0.66326 0.0
O59 O 0.88691 0.68962 0.66197 0.0
Cd60 Cd 0.84704 0.6691 0.66136 0.0
C61 C 0.89992 0.66351 0.73093 0.0
O62 O 0.90516 0.6567 0.63007 0.0
O63 O 0.85605 0.64702 0.66201 0.0
O64 O 0.77954 0.67413 0.62443 0.0
C65 C 0.88959 0.64648 0.64109 0.0
O66 O 0.9413 0.66122 0.71679 0.0
C67 C 0.74382 0.67154 0.6431 0.0
O68 O 0.86119 0.66749 0.7164 0.0
O69 O 0.75644 0.66813 0.67018 0.0
C70 C 0.736 0.02374 0.70488 0.0
O71 O 0.71211 0.03375 0.7101 0.0
Cd72 Cd 0.75053 0.05404 0.70602 0.0
O73 O 0.78213 0.02401 0.69661 0.0
Cd74 Cd 0.84759 0.03944 0.68908 0.0
C75 C 0.83773 0.04968 0.76236 0.0
O76 O 0.80548 0.05674 0.66192 0.0
O77 O 0.87634 0.06021 0.68577 0.0
O78 O 0.89157 0.02945 0.64578 0.0
C79 C 0.84231 0.06403 0.66742 0.0
O80 O 0.79957 0.05602 0.75364 0.0
C81 C 0.93259 0.02793 0.66079 0.0
O82 O 0.85907 0.04208 0.74402 0.0
O83 O 0.93263 0.03121 0.68902 0.0
C84 C 0.95862 0.01452 0.05359 0.0
O85 O 0.00219 0.01937 0.05068 0.0
Cd86 Cd 0.0155 0.04145 0.04724 0.0
O87 O 0.91987 0.02134 0.05701 0.0
Cd88 Cd 0.89997 0.0433 0.05904 0.0
C89 C 0.93926 0.04651 0.9854 0.0
O90 O 0.97102 0.05326 0.08617 0.0
O91 O 0.92505 0.06452 0.05545 0.0
O92 O 0.83488 0.04253 0.0997 0.0
C93 C 0.95996 0.06393 0.07558 0.0
O94 O 0.98476 0.04681 -0.00475 0.0
C95 C 0.79849 0.04443 0.08095 0.0
O96 O 0.9027 0.04445 0.0038 0.0
O97 O 0.80982 0.04615 0.05273 0.0
C98 C 0.81799 0.68471 0.02786 0.0
O99 O 0.77992 0.6775 0.0274 0.0
Cd100 Cd 0.78733 0.65533 0.02474 0.0
O101 O 0.86266 0.68036 0.02957 0.0
Cd102 Cd 0.90771 0.66069 0.03351 0.0
C103 C 0.866 0.65457 0.96125 0.0
O104 O 0.84696 0.64864 0.06282 0.0
O105 O 0.90543 0.63833 0.03909 0.0
O106 O 0.96395 0.66803 0.07421 0.0
C107 C 0.86698 0.63824 0.05671 0.0
O108 O 0.82261 0.65224 0.97285 0.0
C109 C 0.00405 0.66724 0.05804 0.0
O110 O 0.90243 0.65833 0.97814 0.0
O111 O -0.0006 0.66319 0.03054 0.0
C112 C 0.0218 0.77284 0.76606 0.0
O113 O 0.99427 0.78248 0.76809 0.0
Cd114 Cd 0.02329 0.80223 0.78703 0.0
O115 O 0.06786 0.77298 0.77489 0.0
Cd116 Cd 0.13209 0.78684 0.7964 0.0
C117 C 0.11906 0.8064 0.7345 0.0
O118 O 0.07614 0.79782 0.83064 0.0
O119 O 0.15207 0.80508 0.82679 0.0
O120 O 0.17589 0.77226 0.83059 0.0
C121 C 0.10826 0.80595 0.83862 0.0
O122 O 0.07499 0.80949 0.74373 0.0
C123 C 0.21645 0.77221 0.81472 0.0
O124 O 0.14543 0.79841 0.74903 0.0
O125 O 0.21679 0.77859 0.79001 0.0
C126 C 0.20455 0.43825 0.80594 0.0
O127 O 0.2471 0.43306 0.80156 0.0
Cd128 Cd 0.25647 0.4122 0.78439 0.0
O129 O 0.16348 0.43213 0.80366 0.0
Cd130 Cd 0.13693 0.41047 0.79558 0.0
C131 C 0.17627 0.41118 0.72153 0.0
O132 O 0.20829 0.39995 0.81957 0.0
O133 O 0.16 0.3888 0.79019 0.0
O134 O 0.07709 0.40964 0.83878 0.0
C135 C 0.19716 0.38937 0.80879 0.0
O136 O 0.22165 0.41127 0.73162 0.0
C137 C 0.03782 0.40903 0.82182 0.0
O138 O 0.13875 0.41131 0.73996 0.0
O139 O 0.04471 0.40897 0.79271 0.0
C140 C 0.02262 0.43877 0.42551 0.0
O141 O 0.99481 0.42919 0.42744 0.0
Cd142 Cd 0.02808 0.40851 0.42868 0.0
O143 O 0.0705 0.43782 0.42329 0.0
Cd144 Cd 0.13739 0.42228 0.4217 0.0
C145 C 0.10294 0.41196 0.49293 0.0
O146 O 0.09438 0.40682 0.39092 0.0
O147 O 0.1618 0.40089 0.41532 0.0
O148 O 0.19322 0.43239 0.38421 0.0
C149 C 0.12588 0.39826 0.39696 0.0
O150 O 0.06302 0.40721 0.48127 0.0
C151 C 0.22775 0.43463 0.40401 0.0
O152 O 0.13394 0.41811 0.47647 0.0
O153 O 0.21963 0.43122 0.4317 0.0
C154 C 0.24056 0.76525 0.47596 0.0
O155 O 0.28641 0.76848 0.47249 0.0
Cd156 Cd 0.30422 0.79002 0.46286 0.0
O157 O 0.2052 0.77282 0.46976 0.0
Cd158 Cd 0.19404 0.7936 0.44884 0.0
C159 C 0.2291 0.80324 0.51853 0.0
O160 O 0.26782 0.79874 0.41619 0.0
O161 O 0.22838 0.81364 0.43999 0.0
O162 O 0.13749 0.78653 0.40763 0.0
C163 C 0.26084 0.81031 0.42004 0.0
O164 O 0.27382 0.80045 0.5099 0.0
C165 C 0.09911 0.79245 0.41745 0.0
O166 O 0.19119 0.80121 0.50108 0.0
O167 O 0.10541 0.79914 0.44139 0.0
C168 C 0.95282 0.19058 0.19244 0.0
O169 O 0.99404 0.18457 0.19004 0.0
Cd170 Cd 0.99742 0.16225 0.188 0.0
O171 O 0.91048 0.18503 0.19094 0.0
Cd172 Cd 0.87362 0.16465 0.18348 0.0
C173 C 0.92491 0.1579 0.2533 0.0
O174 O 0.93729 0.15469 0.15125 0.0
O175 O 0.88344 0.14286 0.17486 0.0
O176 O 0.8101 0.17299 0.14812 0.0
C177 C 0.92154 0.14381 0.15715 0.0
O178 O 0.96799 0.15688 0.24016 0.0
C179 C 0.77263 0.16957 0.16454 0.0
O180 O 0.88582 0.16122 0.23813 0.0
O181 O 0.78245 0.16358 0.18919 0.0
C182 C 0.81787 0.51354 0.20737 0.0
O183 O 0.77527 0.51881 0.20377 0.0
Cd184 Cd 0.76795 0.54078 0.19566 0.0
O185 O 0.85858 0.51959 0.20331 0.0
Cd186 Cd 0.88311 0.54056 0.18841 0.0
C187 C 0.84003 0.54963 0.25757 0.0
O188 O 0.81753 0.54889 0.15365 0.0
O189 O 0.86038 0.56181 0.18192 0.0
O190 O 0.94202 0.53401 0.14814 0.0
C191 C 0.82937 0.56004 0.15992 0.0
O192 O 0.79624 0.54948 0.24512 0.0
C193 C 0.98106 0.53858 0.16104 0.0
O194 O 0.87882 0.54597 0.24262 0.0
O195 O 0.97455 0.54398 0.18691 0.0
C196 C 0.95477 0.51909 0.53035 0.0
O197 O 0.99153 0.52668 0.53197 0.0
Cd198 Cd 0.97985 0.54853 0.5416 0.0
O199 O 0.91014 0.52248 0.53728 0.0
Cd200 Cd 0.86208 0.54011 0.5553 0.0
C201 C 0.88845 0.5523 0.48503 0.0
O202 O 0.92447 0.55199 0.58417 0.0
O203 O 0.85814 0.56161 0.56674 0.0
O204 O 0.81758 0.52927 0.59676 0.0
C205 C 0.89978 0.56205 0.58137 0.0
O206 O 0.93285 0.55465 0.49517 0.0
C207 C 0.77407 0.53057 0.58451 0.0
O208 O 0.85632 0.54643 0.50149 0.0
O209 O 0.77195 0.53626 0.55876 0.0
C210 C 0.84718 0.19399 0.54669 0.0
O211 O 0.81156 0.18611 0.54874 0.0
Cd212 Cd 0.82243 0.16402 0.54921 0.0
O213 O 0.89322 0.19052 0.54768 0.0
Cd214 Cd 0.93949 0.17097 0.55387 0.0
C215 C 0.89628 0.16218 0.48401 0.0
O216 O 0.88441 0.15804 0.58627 0.0
O217 O 0.94068 0.14888 0.5579 0.0
O218 O 0.9985 0.17821 0.59335 0.0
C219 C 0.90675 0.14807 0.57854 0.0
O220 O 0.85479 0.15941 0.49745 0.0
C221 C 0.03796 0.17595 0.57746 0.0
O222 O 0.93227 0.16738 0.49878 0.0
O223 O 0.03124 0.17201 0.55002 0.0
C224 C 0.52428 0.27105 0.76828 0.0
O225 O 0.48263 0.2767 0.76417 0.0
Cd226 Cd 0.47407 0.29875 0.76655 0.0
O227 O 0.56466 0.27702 0.77431 0.0
Cd228 Cd 0.59039 0.2987 0.78054 0.0
C229 C 0.55473 0.3059 0.70773 0.0
O230 O 0.519 0.3061 0.81128 0.0
O231 O 0.56589 0.32001 0.78936 0.0
O232 O 0.64863 0.29318 0.82239 0.0
C233 C 0.53064 0.31743 0.80823 0.0
O234 O 0.50933 0.30614 0.71766 0.0
C235 C 0.68789 0.29751 0.80928 0.0
O236 O 0.59096 0.30262 0.72538 0.0
O237 O 0.68177 0.30239 0.78276 0.0
C238 C 0.66462 0.94115 0.79909 0.0
O239 O 0.70213 0.93387 0.80194 0.0
Cd240 Cd 0.69134 0.91167 0.80264 0.0
O241 O 0.61972 0.93694 0.79949 0.0
Cd242 Cd 0.57408 0.91751 0.80518 0.0
C243 C 0.62109 0.90931 0.73584 0.0
O244 O 0.62797 0.90502 0.83884 0.0
O245 O 0.57421 0.89536 0.80941 0.0
O246 O 0.51686 0.92491 0.84507 0.0
C247 C 0.60703 0.89489 0.83085 0.0
O248 O 0.66268 0.90716 0.74988 0.0
C249 C 0.47735 0.92432 0.82833 0.0
O250 O 0.58317 0.9138 0.75022 0.0
O251 O 0.48286 0.92058 0.80061 0.0
C252 C 0.52617 0.93854 0.43505 0.0
O253 O 0.49927 0.92879 0.43664 0.0
Cd254 Cd 0.53406 0.90821 0.43646 0.0
O255 O 0.57435 0.93799 0.43464 0.0
Cd256 Cd 0.64251 0.92281 0.43702 0.0
C257 C 0.59941 0.91006 0.50442 0.0
O258 O 0.60284 0.90894 0.40034 0.0
O259 O 0.67204 0.90249 0.42161 0.0
O260 O 0.69827 0.93575 0.40543 0.0
C261 C 0.63664 0.90066 0.40234 0.0
O262 O 0.56312 0.90506 0.48951 0.0
C263 C 0.73548 0.93513 0.42409 0.0
O264 O 0.63061 0.91727 0.49097 0.0
O265 O 0.72809 0.9294 0.44938 0.0
C266 C 0.73701 0.2711 0.43878 0.0
O267 O 0.76011 0.28145 0.43821 0.0
Cd268 Cd 0.72189 0.30113 0.42476 0.0
O269 O 0.69019 0.27039 0.43197 0.0
Cd270 Cd 0.61888 0.28359 0.41829 0.0
C271 C 0.63551 0.30131 0.48354 0.0
O272 O 0.66212 0.2978 0.38397 0.0
O273 O 0.58529 0.30245 0.39644 0.0
O274 O 0.5735 0.26966 0.38326 0.0
C275 C 0.62529 0.30532 0.3819 0.0
O276 O 0.67473 0.30627 0.47159 0.0
C277 C 0.53621 0.26816 0.40153 0.0
O278 O 0.61147 0.29272 0.46955 0.0
O279 O 0.53877 0.27341 0.42782 0.0
C280 C 0.5001 0.68446 0.24274 0.0
O281 O 0.52409 0.6749 0.25171 0.0
Cd282 Cd 0.50652 0.65393 0.23702 0.0
O283 O 0.46302 0.68353 0.224 0.0
Cd284 Cd 0.41527 0.66648 0.20086 0.0
C285 C 0.39145 0.65363 0.27098 0.0
O286 O 0.48416 0.65339 0.18324 0.0
O287 O 0.41111 0.64459 0.18895 0.0
O288 O 0.38234 0.6744 0.15099 0.0
C289 C 0.45643 0.64393 0.17932 0.0
O290 O 0.43518 0.64863 0.2708 0.0
C291 C 0.3376 0.67574 0.16139 0.0
O292 O 0.37799 0.66096 0.2495 0.0
O293 O 0.33028 0.67315 0.18966 0.0
C294 C 0.26189 0.01107 0.17318 0.0
O295 O 0.22036 0.0169 0.17604 0.0
Cd296 Cd 0.21156 0.03907 0.17814 0.0
O297 O 0.30335 0.01692 0.17002 0.0
Cd298 Cd 0.33065 0.03845 0.1686 0.0
C299 C 0.28785 0.04459 0.24045 0.0
O300 O 0.26291 0.04881 0.1397 0.0
O301 O 0.30939 0.05995 0.17037 0.0
O302 O 0.39662 0.03818 0.12859 0.0
C303 C 0.27483 0.05944 0.15002 0.0
O304 O 0.24337 0.04549 0.22914 0.0
C305 C 0.43296 0.03909 0.14781 0.0
O306 O 0.32483 0.04101 0.22381 0.0
O307 O 0.42149 0.0396 0.17631 0.0
C308 C 0.44207 0.02381 0.5036 0.0
O309 O 0.47864 0.03146 0.50264 0.0
Cd310 Cd 0.47027 0.05301 0.51349 0.0
O311 O 0.39832 0.02718 0.51268 0.0
Cd312 Cd 0.35587 0.04582 0.5322 0.0
C313 C 0.37495 0.05833 0.46138 0.0
O314 O 0.42619 0.05363 0.56181 0.0
O315 O 0.36559 0.06666 0.55408 0.0
O316 O 0.30652 0.03317 0.56838 0.0
C317 C 0.40775 0.06425 0.56685 0.0
O318 O 0.42113 0.06019 0.46863 0.0
C319 C 0.26404 0.03724 0.55887 0.0
O320 O 0.34501 0.05295 0.48007 0.0
O321 O 0.26493 0.04539 0.53767 0.0
C322 C 0.1889 0.68112 0.55885 0.0
O323 O 0.15301 0.67374 0.55223 0.0
Cd324 Cd 0.16621 0.6518 0.54309 0.0
O325 O 0.2342 0.67722 0.56041 0.0
Cd326 Cd 0.28088 0.65829 0.55142 0.0
C327 C 0.23675 0.65581 0.47883 0.0
O328 O 0.22851 0.64238 0.57634 0.0
O329 O 0.28237 0.63652 0.5414 0.0
O330 O 0.3444 0.66324 0.59104 0.0
C331 C 0.25046 0.63358 0.56205 0.0
O332 O 0.19784 0.65046 0.49002 0.0
C333 C 0.38167 0.66297 0.5724 0.0
O334 O 0.2696 0.6609 0.49629 0.0
O335 O 0.37184 0.66046 0.54429 0.0
C336 C 0.55277 0.7689 0.32371 0.0
O337 O 0.51763 0.77689 0.32156 0.0
Cd338 Cd 0.53377 0.798 0.30609 0.0
O339 O 0.59856 0.77198 0.31901 0.0
Cd340 Cd 0.64893 0.78997 0.30596 0.0
C341 C 0.59113 0.79157 0.23693 0.0
O342 O 0.60475 0.80656 0.33305 0.0
O343 O 0.65533 0.81165 0.29558 0.0
O344 O 0.71131 0.78516 0.34543 0.0
C345 C 0.62754 0.81501 0.31799 0.0
O346 O 0.55454 0.79681 0.25104 0.0
C347 C 0.74905 0.78514 0.3272 0.0
O348 O 0.62871 0.78709 0.2517 0.0
O349 O 0.73992 0.78686 0.2986 0.0
C350 C 0.78556 0.43379 0.3136 0.0
O351 O 0.80638 0.4235 0.30699 0.0
Cd352 Cd 0.76126 0.40394 0.30475 0.0
O353 O 0.73837 0.43437 0.31923 0.0
Cd354 Cd 0.66386 0.42127 0.31951 0.0
C355 C 0.68282 0.41187 0.24525 0.0
O356 O 0.69649 0.40242 0.34368 0.0
O357 O 0.62431 0.40139 0.31995 0.0
O358 O 0.61511 0.4309 0.3613 0.0
C359 C 0.65815 0.396 0.33581 0.0
O360 O 0.71836 0.40481 0.25468 0.0
C361 C 0.5815 0.43527 0.3432 0.0
O362 O 0.66045 0.41927 0.26372 0.0
O363 O 0.58758 0.43344 0.3144 0.0
C364 C 0.51779 0.43765 0.94762 0.0
O365 O 0.47788 0.43172 0.95465 0.0
Cd366 Cd 0.47602 0.4101 0.96628 0.0
O367 O 0.56001 0.43207 0.94457 0.0
Cd368 Cd 0.59209 0.41065 0.94722 0.0
C369 C 0.56542 0.4092 0.02355 0.0
O370 O 0.51968 0.40005 0.92479 0.0
O371 O 0.57339 0.38856 0.94939 0.0
O372 O 0.64869 0.41182 0.90209 0.0
C373 C 0.53451 0.38928 0.9322 0.0
O374 O 0.51877 0.40799 0.01658 0.0
C375 C 0.68905 0.41054 0.91785 0.0
O376 O 0.59853 0.41088 0.00263 0.0
O377 O 0.68407 0.40937 0.94694 0.0
C378 C 0.75031 0.76957 0.94745 0.0
O379 O 0.77406 0.77947 0.95401 0.0
Cd380 Cd 0.73493 0.79967 0.95247 0.0
O381 O 0.70396 0.76992 0.93951 0.0
Cd382 Cd 0.63561 0.78479 0.93391 0.0
C383 C 0.64814 0.79346 0.00857 0.0
O384 O 0.6797 0.80177 0.90858 0.0
O385 O 0.60861 0.80616 0.93107 0.0
O386 O 0.59358 0.77556 0.88892 0.0
C387 C 0.64499 0.80963 0.91395 0.0
O388 O 0.68549 0.80018 0.00031 0.0
C389 C 0.55411 0.7724 0.9038 0.0
O390 O 0.62618 0.78627 0.98945 0.0
O391 O 0.55313 0.77485 0.93255 0.0
C392 C 0.53319 0.17852 0.73966 0.0
O393 O 0.57243 0.17195 0.74391 0.0
Cd394 Cd 0.56153 0.14974 0.74295 0.0
O395 O 0.49155 0.17346 0.73215 0.0
Cd396 Cd 0.45589 0.15335 0.71987 0.0
C397 C 0.46475 0.1457 0.79421 0.0
O398 O 0.5259 0.14263 0.69409 0.0
O399 O 0.4677 0.13133 0.71541 0.0
O400 O 0.41111 0.16188 0.67479 0.0
C401 C 0.50545 0.13205 0.69737 0.0
O402 O 0.51189 0.14406 0.78937 0.0
C403 C 0.36736 0.15893 0.68457 0.0
O404 O 0.43634 0.14985 0.7729 0.0
O405 O 0.36531 0.15312 0.7101 0.0
C406 C 0.25102 0.52349 0.73647 0.0
O407 O 0.21582 0.53128 0.7312 0.0
Cd408 Cd 0.22654 0.55053 0.70325 0.0
O409 O 0.29577 0.52527 0.72638 0.0
Cd410 Cd 0.34731 0.54003 0.69751 0.0
C411 C 0.31813 0.56297 0.75008 0.0
O412 O 0.28116 0.545 0.66129 0.0
O413 O 0.35258 0.55424 0.65422 0.0
O414 O 0.40161 0.52413 0.67447 0.0
C415 C 0.30689 0.55278 0.646 0.0
O416 O 0.27205 0.56308 0.74128 0.0
C417 C 0.44221 0.52861 0.68578 0.0
O418 O 0.35026 0.55556 0.73819 0.0
O419 O 0.43787 0.53802 0.7033 0.0
C420 C 0.49474 0.52768 -0.00066 0.0
O421 O 0.53314 0.53476 -0.00121 0.0
Cd422 Cd 0.52961 0.55629 0.01202 0.0
O423 O 0.45177 0.53172 0.00812 0.0
Cd424 Cd 0.41366 0.55114 0.02644 0.0
C425 C 0.44085 0.56561 0.9592 0.0
O426 O 0.4822 0.5589 0.05914 0.0
O427 O 0.4258 0.57209 0.04352 0.0
O428 O 0.36066 0.54174 0.06679 0.0
C429 C 0.46382 0.56974 0.06046 0.0
O430 O 0.48707 0.5658 0.96766 0.0
C431 C 0.3189 0.54499 0.0546 0.0
O432 O 0.40711 0.56029 0.97551 0.0
O433 O 0.32139 0.55092 0.02924 0.0
C434 C 0.21822 0.18477 0.04804 0.0
O435 O 0.18901 0.17565 0.04247 0.0
Cd436 Cd 0.20609 0.15402 0.0517 0.0
O437 O 0.26239 0.18311 0.05922 0.0
Cd438 Cd 0.31834 0.16604 0.07328 0.0
C439 C 0.30619 0.15172 0.00245 0.0
O440 O 0.25501 0.15334 0.09806 0.0
O441 O 0.32809 0.14495 0.09092 0.0
O442 O 0.3746 0.17555 0.11234 0.0
C443 C 0.2828 0.14382 0.10015 0.0
O444 O 0.26142 0.14803 0.00859 0.0
C445 C 0.41324 0.17495 0.09471 0.0
O446 O 0.33036 0.15866 0.02113 0.0
O447 O 0.40639 0.17069 0.06763 0.0
H448 H 0.15782 0.37747 0.42662 0.0
H449 H 0.07036 0.39001 0.34788 0.0
H450 H 0.14145 0.35595 0.41195 0.0
H451 H 0.05527 0.36836 0.33282 0.0
H452 H 0.1346 0.32955 0.30231 0.0
H453 H 0.13147 0.3513 0.31777 0.0
H454 H 0.05459 0.34112 0.40225 0.0
H455 H 0.05624 0.3192 0.38631 0.0
C456 C 0.13512 0.37562 0.40615 0.0
C457 C 0.11571 0.38535 0.38809 0.0
C458 C 0.12535 0.36334 0.39808 0.0
C459 C 0.09689 0.36064 0.37152 0.0
C460 C 0.07705 0.37034 0.35355 0.0
C461 C 0.08584 0.38265 0.36203 0.0
C462 C 0.11657 0.33196 0.32405 0.0
C463 C 0.09607 0.32277 0.34336 0.0
C464 C 0.11441 0.34438 0.33267 0.0
C465 C 0.09268 0.34775 0.36102 0.0
C466 C 0.07132 0.33862 0.38019 0.0
C467 C 0.07232 0.32618 0.37116 0.0
H468 H 0.29732 0.88519 0.3592 0.0
H469 H 0.15792 0.86668 0.33407 0.0
H470 H 0.3366 0.86501 0.36978 0.0
H471 H 0.19694 0.84674 0.34431 0.0
H472 H 0.26275 0.81183 0.35732 0.0
H473 H 0.26626 0.83154 0.32924 0.0
H474 H 0.31373 0.85009 0.41312 0.0
H475 H 0.30983 0.8305 0.44088 0.0
C476 C 0.27531 0.87683 0.35568 0.0
C477 C 0.22434 0.87749 0.34636 0.0
C478 C 0.29792 0.86532 0.3614 0.0
C479 C 0.27009 0.85432 0.35737 0.0
C480 C 0.21977 0.85503 0.34688 0.0
C481 C 0.19708 0.86648 0.3416 0.0
C482 C 0.27685 0.82 0.36914 0.0
C483 C 0.28534 0.81981 0.40117 0.0
C484 C 0.2785 0.83128 0.3532 0.0
C485 C 0.289 0.84235 0.36928 0.0
C486 C 0.30544 0.84172 0.40016 0.0
C487 C 0.30317 0.83051 0.41609 0.0
H488 H 0.09507 0.86953 0.95909 0.0
H489 H 0.98501 0.87737 0.88743 0.0
H490 H 0.10647 0.84876 0.93866 0.0
H491 H 0.9971 0.85638 0.86663 0.0
H492 H 0.01262 0.8137 0.85339 0.0
H493 H 0.98906 0.83306 0.87945 0.0
H494 H 0.14745 0.84247 0.88885 0.0
H495 H 0.17094 0.82325 0.86317 0.0
C496 C 0.07297 0.86678 0.93907 0.0
C497 C 0.03973 0.87512 0.92448 0.0
C498 C 0.07958 0.85489 0.92741 0.0
C499 C 0.05322 0.85108 0.90088 0.0
C500 C 0.01774 0.85913 0.88722 0.0
C501 C 0.01099 0.87111 0.89899 0.0
C502 C 0.04229 0.81986 0.86139 0.0
C503 C 0.0936 0.81701 0.85635 0.0
C504 C 0.02879 0.83094 0.87604 0.0
C505 C 0.06646 0.83919 0.88615 0.0
C506 C 0.11768 0.83618 0.8816 0.0
C507 C 0.13112 0.82521 0.8668 0.0
H508 H 0.18655 0.36603 0.7858 0.0
H509 H 0.2699 0.3874 0.85355 0.0
H510 H 0.21483 0.34699 0.81019 0.0
H511 H 0.29873 0.36822 0.87793 0.0
H512 H 0.2455 0.31397 0.86167 0.0
H513 H 0.27731 0.33176 0.83221 0.0
H514 H 0.23318 0.35615 0.90698 0.0
H515 H 0.2015 0.33855 0.936 0.0
C516 C 0.21221 0.36664 0.80534 0.0
C517 C 0.22442 0.37814 0.81858 0.0
C518 C 0.22913 0.35572 0.81905 0.0
C519 C 0.25818 0.35615 0.84633 0.0
C520 C 0.27578 0.36767 0.85714 0.0
C521 C 0.25897 0.37862 0.84333 0.0
C522 C 0.24413 0.32311 0.87207 0.0
C523 C 0.21969 0.32503 0.90056 0.0
C524 C 0.26255 0.33324 0.85533 0.0
C525 C 0.25718 0.34532 0.86716 0.0
C526 C 0.23819 0.34696 0.89729 0.0
C527 C 0.21924 0.3369 0.91374 0.0
H528 H 0.89136 0.58268 0.54674 0.0
H529 H 0.9605 0.56848 0.6302 0.0
H530 H 0.91491 0.60361 0.56123 0.0
H531 H 0.98413 0.58971 0.64515 0.0
H532 H 0.88828 0.62559 0.67585 0.0
H533 H 0.9173 0.60511 0.66098 0.0
H534 H 0.97747 0.62006 0.5757 0.0
H535 H 0.94804 0.64078 0.59074 0.0
C536 C 0.91263 0.58406 0.56796 0.0
C537 C 0.92285 0.57412 0.58793 0.0
C538 C 0.92694 0.59603 0.576 0.0
C539 C 0.95098 0.59829 0.60444 0.0
C540 C 0.96539 0.58818 0.62313 0.0
C541 C 0.95173 0.5761 0.61474 0.0
C542 C 0.90855 0.62457 0.65417 0.0
C543 C 0.91451 0.63464 0.63391 0.0
C544 C 0.92606 0.61286 0.64593 0.0
C545 C 0.94931 0.611 0.61709 0.0
C546 C 0.9594 0.62129 0.59803 0.0
C547 C 0.94228 0.63308 0.60648 0.0
H548 H 0.76954 0.07722 0.63563 0.0
H549 H 0.9236 0.07916 0.6696 0.0
H550 H 0.77911 0.0981 0.61318 0.0
H551 H 0.93275 0.09966 0.64728 0.0
H552 H 0.9521 0.12606 0.56693 0.0
H553 H 0.9297 0.1058 0.58731 0.0
H554 H 0.80363 0.12187 0.63669 0.0
H555 H 0.82606 0.14244 0.61621 0.0
C556 C 0.80518 0.08208 0.63832 0.0
C557 C 0.84592 0.07656 0.65416 0.0
C558 C 0.81046 0.09399 0.62571 0.0
C559 C 0.85672 0.10033 0.6285 0.0
C560 C 0.89689 0.09486 0.6447 0.0
C561 C 0.89153 0.08314 0.65748 0.0
C562 C 0.91938 0.12533 0.58196 0.0
C563 C 0.89117 0.13585 0.59032 0.0
C564 C 0.90656 0.11372 0.5935 0.0
C565 C 0.86515 0.11238 0.61351 0.0
C566 C 0.83557 0.12276 0.62109 0.0
C567 C 0.84868 0.13448 0.60965 0.0
H568 H 0.99374 0.14159 0.11181 0.0
H569 H 0.91508 0.121 0.18292 0.0
H570 H 0.0327 0.12228 0.0934 0.0
H571 H 0.9533 0.10196 0.16476 0.0
H572 H 0.0084 0.06805 0.13075 0.0
H573 H 0.02651 0.08846 0.1531 0.0
H574 H 0.98499 0.10575 0.06638 0.0
H575 H 0.96765 0.08555 0.04425 0.0
C576 C 0.98557 0.133 0.12381 0.0
C577 C 0.95028 0.13269 0.14813 0.0
C578 C 0.00809 0.122 0.11347 0.0
C579 C 0.99594 0.11061 0.12757 0.0
C580 C 0.96406 0.11057 0.1536 0.0
C581 C 0.94129 0.12147 0.16365 0.0
C582 C 0.0051 0.0762 0.11623 0.0
C583 C 0.98491 0.07534 0.08624 0.0
C584 C 0.01552 0.08786 0.12895 0.0
C585 C 0.00591 0.0987 0.11171 0.0
C586 C 0.99269 0.09761 0.08032 0.0
C587 C 0.98201 0.08603 0.06775 0.0
H588 H 0.80321 0.56121 0.09872 0.0
H589 H 0.81111 0.58288 0.18273 0.0
H590 H 0.79262 0.58032 0.06856 0.0
H591 H 0.80063 0.6018 0.15301 0.0
H592 H 0.78681 0.63511 0.09591 0.0
H593 H 0.75457 0.61556 0.11677 0.0
H594 H 0.86337 0.59546 0.06132 0.0
H595 H 0.89512 0.61488 0.04036 0.0
C596 C 0.80078 0.57001 0.11077 0.0
C597 C 0.80907 0.57069 0.14281 0.0
C598 C 0.79491 0.58092 0.09358 0.0
C599 C 0.79661 0.59254 0.10842 0.0
C600 C 0.79896 0.59301 0.14089 0.0
C601 C 0.80547 0.58218 0.15791 0.0
C602 C 0.80317 0.6265 0.08788 0.0
C603 C 0.84414 0.62651 0.06709 0.0
C604 C 0.78461 0.61533 0.09962 0.0
C605 C 0.80652 0.604 0.09067 0.0
C606 C 0.8452 0.60401 0.06832 0.0
C607 C 0.86388 0.61516 0.05672 0.0
H608 H 0.55261 0.36528 0.94828 0.0
H609 H 0.45973 0.38811 0.88863 0.0
H610 H 0.52563 0.34691 0.92007 0.0
H611 H 0.43263 0.36963 0.86036 0.0
H612 H 0.48245 0.3152 0.86382 0.0
H613 H 0.458 0.33227 0.8982 0.0
H614 H 0.49762 0.35858 0.82669 0.0
H615 H 0.52244 0.34166 0.79279 0.0
C616 C 0.52531 0.36632 0.9297 0.0
C617 C 0.50948 0.37812 0.91997 0.0
C618 C 0.50928 0.35578 0.91381 0.0
C619 C 0.47754 0.35691 0.88783 0.0
C620 C 0.45744 0.36857 0.8802 0.0
C621 C 0.47321 0.37912 0.89626 0.0
C622 C 0.48439 0.32463 0.85524 0.0
C623 C 0.50541 0.32721 0.82607 0.0
C624 C 0.47029 0.33436 0.87482 0.0
C625 C 0.47626 0.34671 0.86512 0.0
C626 C 0.49218 0.34915 0.83469 0.0
C627 C 0.50704 0.33948 0.81541 0.0
H628 H 0.59799 0.82974 0.93865 0.0
H629 H 0.70156 0.81867 0.86621 0.0
H630 H 0.60033 0.85106 0.91966 0.0
H631 H 0.70296 0.84005 0.84685 0.0
H632 H 0.64775 0.8901 0.8878 0.0
H633 H 0.66712 0.86959 0.9097 0.0
H634 H 0.62355 0.85237 0.82337 0.0
H635 H 0.60315 0.87267 0.80182 0.0
C636 C 0.62152 0.83189 0.91881 0.0
C637 C 0.6492 0.82257 0.90364 0.0
C638 C 0.62324 0.84409 0.9082 0.0
C639 C 0.65195 0.84711 0.88195 0.0
C640 C 0.68071 0.83788 0.86722 0.0
C641 C 0.67979 0.8257 0.87822 0.0
C642 C 0.64299 0.88192 0.8735 0.0
C643 C 0.62346 0.88288 0.84334 0.0
C644 C 0.65402 0.87026 0.88596 0.0
C645 C 0.6469 0.85951 0.86807 0.0
C646 C 0.62979 0.86056 0.83744 0.0
C647 C 0.6177 0.87214 0.82527 0.0
H648 H 0.5625 0.8255 0.35967 0.0
H649 H 0.68126 0.83419 0.29414 0.0
H650 H 0.56048 0.84726 0.37594 0.0
H651 H 0.67924 0.8558 0.31059 0.0
H652 H 0.71214 0.88439 0.39032 0.0
H653 H 0.70481 0.86414 0.36558 0.0
H654 H 0.54428 0.86997 0.35269 0.0
H655 H 0.5516 0.89043 0.37717 0.0
C656 C 0.58766 0.83207 0.34855 0.0
C657 C 0.62246 0.82818 0.32597 0.0
C658 C 0.58621 0.84448 0.35766 0.0
C659 C 0.61989 0.85306 0.34451 0.0
C660 C 0.65317 0.84927 0.32109 0.0
C661 C 0.65427 0.83693 0.31175 0.0
C662 C 0.6754 0.8814 0.38194 0.0
C663 C 0.63242 0.88889 0.38562 0.0
C664 C 0.67129 0.86988 0.36768 0.0
C665 C 0.62402 0.86562 0.35731 0.0
C666 C 0.58103 0.87314 0.36062 0.0
C667 C 0.58531 0.8848 0.37443 0.0
H668 H 0.713 0.31675 0.36351 0.0
H669 H 0.55183 0.32256 0.3738 0.0
H670 H 0.72355 0.33864 0.34982 0.0
H671 H 0.56246 0.3443 0.361 0.0
H672 H 0.72283 0.38131 0.36946 0.0
H673 H 0.71708 0.35884 0.37694 0.0
H674 H 0.58388 0.35783 0.31867 0.0
H675 H 0.58861 0.38012 0.31202 0.0
C676 C 0.67984 0.32266 0.36246 0.0
C677 C 0.63162 0.31798 0.36977 0.0
C678 C 0.68595 0.33518 0.35495 0.0
C679 C 0.64388 0.34318 0.3545 0.0
C680 C 0.59555 0.33836 0.36079 0.0
C681 C 0.58948 0.3259 0.36827 0.0
C682 C 0.69237 0.37625 0.35834 0.0
C683 C 0.65585 0.38248 0.3405 0.0
C684 C 0.68935 0.3634 0.36235 0.0
C685 C 0.64989 0.3566 0.34847 0.0
C686 C 0.61421 0.36284 0.33007 0.0
C687 C 0.617 0.37563 0.32626 0.0
H688 H 0.47721 0.59347 0.04289 0.0
H689 H 0.50236 0.56814 0.11881 0.0
H690 H 0.49828 0.61092 0.07631 0.0
H691 H 0.52221 0.58577 0.15284 0.0
H692 H 0.42217 0.62072 0.19108 0.0
H693 H 0.44808 0.60161 0.16557 0.0
H694 H 0.56266 0.62168 0.11475 0.0
H695 H 0.53731 0.64091 0.14091 0.0
C696 C 0.48869 0.59166 0.06658 0.0
C697 C 0.48748 0.5796 0.07864 0.0
C698 C 0.5013 0.60161 0.08558 0.0
C699 C 0.51166 0.59963 0.11708 0.0
C700 C 0.51452 0.58745 0.12854 0.0
C701 C 0.50308 0.57743 0.10921 0.0
C702 C 0.45367 0.621 0.17501 0.0
C703 C 0.47714 0.63226 0.16738 0.0
C704 C 0.46901 0.61004 0.1608 0.0
C705 C 0.5074 0.61023 0.13834 0.0
C706 C 0.53319 0.62136 0.1322 0.0
C707 C 0.51848 0.63231 0.14694 0.0
H708 H 0.31336 0.12291 0.07147 0.0
H709 H 0.20156 0.13699 0.13553 0.0
H710 H 0.28271 0.10199 0.07965 0.0
H711 H 0.17107 0.1157 0.14436 0.0
H712 H 0.25305 0.07867 0.18771 0.0
H713 H 0.22808 0.09938 0.17166 0.0
H714 H 0.2087 0.08633 0.07774 0.0
H715 H 0.23333 0.06539 0.09408 0.0
C716 C 0.28179 0.1215 0.08712 0.0
C717 C 0.26067 0.13144 0.10362 0.0
C718 C 0.26349 0.10955 0.0913 0.0
C719 C 0.22432 0.10726 0.11249 0.0
C720 C 0.20109 0.11729 0.12772 0.0
C721 C 0.21881 0.12938 0.12297 0.0
C722 C 0.24171 0.08014 0.16385 0.0
C723 C 0.24658 0.07065 0.14181 0.0
C724 C 0.22662 0.09194 0.15476 0.0
C725 C 0.2173 0.09444 0.12339 0.0
C726 C 0.21601 0.08458 0.10205 0.0
C727 C 0.23034 0.07267 0.11131 0.0
H728 H 0.48912 0.06088 0.60473 0.0
H729 H 0.39393 0.08923 0.56436 0.0
H730 H 0.5354 0.07682 0.63365 0.0
H731 H 0.44054 0.10508 0.59282 0.0
H732 H 0.50129 0.10786 0.71331 0.0
H733 H 0.49589 0.09046 0.67745 0.0
H734 H 0.53047 0.11498 0.60122 0.0
H735 H 0.53688 0.13243 0.6374 0.0
C736 C 0.47865 0.07052 0.60171 0.0
C737 C 0.43749 0.07385 0.58277 0.0
C738 C 0.50532 0.07959 0.61802 0.0
C739 C 0.4918 0.09212 0.61511 0.0
C740 C 0.45229 0.09548 0.59498 0.0
C741 C 0.42511 0.08641 0.5791 0.0
C742 C 0.50988 0.10941 0.68907 0.0
C743 C 0.51868 0.12143 0.67788 0.0
C744 C 0.50707 0.09946 0.66859 0.0
C745 C 0.51208 0.10148 0.63663 0.0
C746 C 0.52626 0.11327 0.62582 0.0
C747 C 0.53008 0.1232 0.64646 0.0
H748 H 0.26595 0.61433 0.52289 0.0
H749 H 0.20786 0.62333 0.61372 0.0
H750 H 0.26217 0.59233 0.53537 0.0
H751 H 0.2054 0.60126 0.62657 0.0
H752 H 0.2088 0.5609 0.64517 0.0
H753 H 0.17732 0.57925 0.61766 0.0
H754 H 0.32215 0.58285 0.57177 0.0
H755 H 0.35313 0.56472 0.59907 0.0
C756 C 0.25155 0.61157 0.54536 0.0
C757 C 0.23853 0.62048 0.56774 0.0
C758 C 0.24915 0.59899 0.5524 0.0
C759 C 0.2344 0.59512 0.58208 0.0
C760 C 0.21669 0.60398 0.60343 0.0
C761 C 0.21855 0.61661 0.59623 0.0
C762 C 0.2331 0.56542 0.62839 0.0
C763 C 0.28354 0.56159 0.62443 0.0
C764 C 0.21521 0.57591 0.61282 0.0
C765 C 0.24737 0.58251 0.59279 0.0
C766 C 0.29621 0.5779 0.5868 0.0
C767 C 0.31418 0.56758 0.6026 0.0
H768 H 0.50257 0.26558 0.34241 0.0
H769 H 0.46202 0.25801 0.43739 0.0
H770 H 0.41593 0.26188 0.3265 0.0
H771 H 0.37547 0.25341 0.42136 0.0
H772 H 0.22553 0.27219 0.39122 0.0
H773 H 0.3097 0.26646 0.40835 0.0
H774 H 0.34172 0.25123 0.31762 0.0
H775 H 0.25813 0.25781 0.30006 0.0
C776 C 0.47547 0.26259 0.35972 0.0
C777 C 0.48862 0.26234 0.39119 0.0
C778 C 0.42553 0.26039 0.3506 0.0
C779 C 0.38795 0.25763 0.37274 0.0
C780 C 0.40283 0.25594 0.40379 0.0
C781 C 0.45254 0.25845 0.41299 0.0
C782 C 0.25021 0.26739 0.37515 0.0
C783 C 0.23582 0.26568 0.34417 0.0
C784 C 0.2986 0.26398 0.38502 0.0
C785 C 0.33331 0.25854 0.36424 0.0
C786 C 0.31676 0.25574 0.33403 0.0
C787 C 0.26874 0.25942 0.32397 0.0
H788 H 0.97923 0.92256 0.31144 0.0
H789 H 0.06171 0.93565 0.39156 0.0
H790 H 0.90085 0.93008 0.33365 0.0
H791 H 0.98251 0.94346 0.41383 0.0
H792 H 0.82335 0.93229 0.4566 0.0
H793 H 0.90871 0.93308 0.43569 0.0
H794 H 0.85003 0.94759 0.34952 0.0
H795 H 0.76419 0.94645 0.37019 0.0
C796 C 0.98073 0.92723 0.33365 0.0
C797 C 0.02656 0.92835 0.34996 0.0
C798 C 0.93574 0.9317 0.34625 0.0
C799 C 0.93534 0.93741 0.37553 0.0
C800 C 0.98156 0.93903 0.39131 0.0
C801 C 0.02685 0.93457 0.37857 0.0
C802 C 0.82873 0.93598 0.43349 0.0
C803 C 0.78694 0.93901 0.41475 0.0
C804 C 0.87783 0.9365 0.42154 0.0
C805 C 0.88605 0.94012 0.39068 0.0
C806 C 0.84473 0.94447 0.37315 0.0
C807 C 0.79558 0.94388 0.38505 0.0
H808 H 0.44985 0.92494 0.88893 0.0
H809 H 0.39138 0.93025 0.79643 0.0
H810 H 0.36529 0.9274 0.90997 0.0
H811 H 0.30673 0.93352 0.81752 0.0
H812 H 0.15954 0.91886 0.86186 0.0
H813 H 0.24222 0.92158 0.8383 0.0
H814 H 0.29584 0.93962 0.92172 0.0
H815 H 0.21364 0.93613 0.94587 0.0
C816 C 0.41894 0.92693 0.87316 0.0
C817 C 0.42697 0.92725 0.84105 0.0
C818 C 0.37034 0.92846 0.88523 0.0
C819 C 0.32874 0.93061 0.8655 0.0
C820 C 0.3375 0.9316 0.83341 0.0
C821 C 0.38602 0.92979 0.82129 0.0
C822 C 0.18879 0.92359 0.87495 0.0
C823 C 0.18049 0.92712 0.90582 0.0
C824 C 0.2363 0.92523 0.86137 0.0
C825 C 0.27628 0.93067 0.87819 0.0
C826 C 0.26653 0.93507 0.90834 0.0
C827 C 0.21931 0.93317 0.92213 0.0
H828 H 0.77909 0.30439 0.78481 0.0
H829 H 0.71056 0.2893 0.86753 0.0
H830 H 0.86207 0.30365 0.80973 0.0
H831 H 0.79365 0.28848 0.89233 0.0
H832 H 0.94123 0.30306 0.93678 0.0
H833 H 0.85822 0.30328 0.91185 0.0
H834 H 0.92425 0.28808 0.82855 0.0
H835 H 0.00741 0.28794 0.85336 0.0
C836 C 0.78175 0.30089 0.80827 0.0
C837 C 0.73827 0.29692 0.82422 0.0
C838 C 0.82932 0.3004 0.82247 0.0
C839 C 0.83435 0.29601 0.85298 0.0
C840 C 0.79087 0.29203 0.86891 0.0
C841 C 0.74334 0.29244 0.85465 0.0
C842 C 0.93803 0.29975 0.91317 0.0
C843 C 0.98088 0.2955 0.89702 0.0
C844 C 0.89044 0.29981 0.89896 0.0
C845 C 0.88474 0.2957 0.86824 0.0
C846 C 0.92758 0.29142 0.85213 0.0
C847 C 0.97513 0.29128 0.8664 0.0
H848 H 0.7044 0.67976 0.58815 0.0
H849 H 0.6618 0.66387 0.67625 0.0
H850 H 0.61612 0.679 0.57136 0.0
H851 H 0.57414 0.66272 0.6592 0.0
H852 H 0.41339 0.67084 0.62946 0.0
H853 H 0.50021 0.67443 0.64669 0.0
H854 H 0.5553 0.66369 0.55626 0.0
H855 H 0.46858 0.66051 0.53883 0.0
C856 C 0.67617 0.67614 0.60394 0.0
C857 C 0.69007 0.67185 0.63347 0.0
C858 C 0.62563 0.67562 0.59427 0.0
C859 C 0.58799 0.67073 0.61385 0.0
C860 C 0.60191 0.6667 0.64365 0.0
C861 C 0.6523 0.66729 0.65337 0.0
C862 C 0.44407 0.6693 0.61325 0.0
C863 C 0.43416 0.66535 0.58284 0.0
C864 C 0.49386 0.67131 0.62315 0.0
C865 C 0.53484 0.66932 0.6029 0.0
C866 C 0.52472 0.66551 0.57235 0.0
C867 C 0.47497 0.66358 0.56242 0.0
H868 H 0.02561 0.02509 0.68718 0.0
H869 H 0.94729 0.02275 0.5994 0.0
H870 H 0.10649 0.02428 0.66049 0.0
H871 H 0.02856 0.02159 0.57264 0.0
H872 H 0.16922 0.04421 0.54158 0.0
H873 H 0.08925 0.03812 0.56464 0.0
H874 H 0.16853 0.0139 0.62808 0.0
H875 H 0.24927 0.02024 0.60523 0.0
C876 C 0.02565 0.02402 0.66222 0.0
C877 C 0.98013 0.02426 0.64531 0.0
C878 C 0.07211 0.02348 0.64691 0.0
C879 C 0.07394 0.02311 0.6144 0.0
C880 C 0.02831 0.02215 0.59769 0.0
C881 C 0.98177 0.02273 0.61302 0.0
C882 C 0.16968 0.03751 0.56027 0.0
C883 C 0.21557 0.03282 0.57184 0.0
C884 C 0.1237 0.03389 0.57327 0.0
C885 C 0.12246 0.02548 0.59813 0.0
C886 C 0.16831 0.02046 0.60908 0.0
C887 C 0.21448 0.02409 0.59602 0.0
H888 H 0.51671 0.03296 0.18113 0.0
H889 H 0.46909 0.04684 0.09196 0.0
H890 H 0.60484 0.03419 0.165 0.0
H891 H 0.55728 0.04892 0.07631 0.0
H892 H 0.7162 0.03976 0.04518 0.0
H893 H 0.6284 0.03814 0.06125 0.0
H894 H 0.67201 0.0474 0.15517 0.0
H895 H 0.76056 0.04818 0.13915 0.0
C896 C 0.52527 0.03639 0.15812 0.0
C897 C 0.4862 0.03975 0.13771 0.0
C898 C 0.57586 0.03722 0.14893 0.0
C899 C 0.58861 0.04171 0.11933 0.0
C900 C 0.54919 0.04517 0.09903 0.0
C901 C 0.49854 0.04405 0.10801 0.0
C902 C 0.70693 0.04147 0.06926 0.0
C903 C 0.74511 0.0441 0.09094 0.0
C904 C 0.65642 0.04063 0.07849 0.0
C905 C 0.64265 0.04267 0.10956 0.0
C906 C 0.68104 0.04551 0.13117 0.0
C907 C 0.73181 0.04607 0.12201 0.0
H908 H 0.02908 0.67034 0.11864 0.0
H909 H 0.09129 0.67211 0.02624 0.0
H910 H 0.11171 0.67504 0.1402 0.0
H911 H 0.174 0.67752 0.04768 0.0
H912 H 0.32254 0.6685 0.10168 0.0
H913 H 0.24188 0.66841 0.07416 0.0
H914 H 0.17436 0.68976 0.14835 0.0
H915 H 0.25423 0.68906 0.17655 0.0
C916 C 0.06038 0.67195 0.10291 0.0
C917 C 0.05387 0.67076 0.07081 0.0
C918 C 0.10782 0.67479 0.11524 0.0
C919 C 0.14982 0.67676 0.09572 0.0
C920 C 0.14283 0.6759 0.06346 0.0
C921 C 0.09542 0.67284 0.05115 0.0
C922 C 0.29069 0.67344 0.11161 0.0
C923 C 0.29419 0.67865 0.14131 0.0
C924 C 0.24434 0.67341 0.09586 0.0
C925 C 0.20102 0.67882 0.10935 0.0
C926 C 0.20631 0.68512 0.13773 0.0
C927 C 0.2522 0.68487 0.15375 0.0
H928 H 0.52722 0.7754 0.84353 0.0
H929 H 0.47948 0.75809 0.92877 0.0
H930 H 0.44541 0.77101 0.82056 0.0
H931 H 0.39837 0.75279 0.90521 0.0
H932 H 0.24197 0.76785 0.87466 0.0
H933 H 0.32617 0.7638 0.89452 0.0
H934 H 0.38128 0.75903 0.80079 0.0
H935 H 0.2972 0.76405 0.78107 0.0
C936 C 0.49969 0.77025 0.85697 0.0
C937 C 0.50918 0.7673 0.88806 0.0
C938 C 0.45265 0.76761 0.84374 0.0
C939 C 0.41442 0.7617 0.86113 0.0
C940 C 0.42605 0.75771 0.89137 0.0
C941 C 0.47267 0.76065 0.90485 0.0
C942 C 0.27186 0.76564 0.85837 0.0
C943 C 0.26343 0.7665 0.82637 0.0
C944 C 0.32039 0.76323 0.86974 0.0
C945 C 0.36131 0.76134 0.84929 0.0
C946 C 0.3513 0.76088 0.81726 0.0
C947 C 0.303 0.76362 0.8059 0.0
H948 H 0.77982 0.41521 0.94527 0.0
H949 H 0.71224 0.40535 0.85756 0.0
H950 H 0.86337 0.41488 0.92169 0.0
H951 H 0.79614 0.40423 0.83413 0.0
H952 H 0.94887 0.41516 0.79364 0.0
H953 H 0.86465 0.41572 0.81651 0.0
H954 H 0.92651 0.40205 0.9029 0.0
H955 H 0.01101 0.40227 0.88039 0.0
C956 C 0.78299 0.41284 0.92095 0.0
C957 C 0.73959 0.41032 0.90322 0.0
C958 C 0.831 0.41253 0.90742 0.0
C959 C 0.83694 0.40944 0.87594 0.0
C960 C 0.79325 0.40687 0.85827 0.0
C961 C 0.74509 0.40743 0.8717 0.0
C962 C 0.94431 0.41227 0.81751 0.0
C963 C 0.98645 0.40873 0.8353 0.0
C964 C 0.89592 0.4125 0.83063 0.0
C965 C 0.8884 0.40897 0.86169 0.0
C966 C 0.93071 0.40514 0.87918 0.0
C967 C 0.97921 0.40516 0.86623 0.0
H968 H 0.51251 0.44904 0.31114 0.0
H969 H 0.54277 0.43349 0.40147 0.0
H970 H 0.42597 0.45375 0.3269 0.0
H971 H 0.456 0.43761 0.41682 0.0
H972 H 0.29883 0.44499 0.44179 0.0
H973 H 0.38598 0.45021 0.42848 0.0
H974 H 0.35566 0.44057 0.33292 0.0
H975 H 0.26826 0.43597 0.34609 0.0
C976 C 0.50088 0.44684 0.33457 0.0
C977 C 0.53399 0.44071 0.35493 0.0
C978 C 0.4512 0.44946 0.34354 0.0
C979 C 0.43349 0.4458 0.37286 0.0
C980 C 0.46815 0.44065 0.39411 0.0
C981 C 0.51802 0.43821 0.38528 0.0
C982 C 0.31064 0.44428 0.41782 0.0
C983 C 0.27714 0.43988 0.39503 0.0
C984 C 0.36062 0.44721 0.41021 0.0
C985 C 0.37829 0.44559 0.37975 0.0
C986 C 0.34351 0.44206 0.35658 0.0
C987 C 0.29334 0.43932 0.36413 0.0
H988 H 0.83769 0.78662 0.29452 0.0
H989 H 0.7786 0.78192 0.38715 0.0
H990 H 0.92351 0.78793 0.31553 0.0
H991 H 0.86422 0.78308 0.40799 0.0
H992 H 0.01004 0.80288 0.43588 0.0
H993 H 0.92638 0.8 0.41318 0.0
H994 H 0.99046 0.77604 0.34318 0.0
H995 H 0.07458 0.77903 0.36573 0.0
C996 C 0.84309 0.78567 0.31928 0.0
C997 C 0.80136 0.78427 0.3392 0.0
C998 C 0.89223 0.7864 0.3313 0.0
C999 C 0.90047 0.78578 0.36344 0.0
C1000 C 0.85892 0.78383 0.38317 0.0
C1001 C 0.80991 0.78308 0.3712 0.0
C1002 C 0.00639 0.79704 0.41557 0.0
C1003 C 0.04889 0.79117 0.40263 0.0
C1004 C 0.95839 0.79531 0.40272 0.0
C1005 C 0.95181 0.78769 0.37659 0.0
C1006 C 0.99443 0.782 0.36324 0.0
C1007 C 0.04253 0.7837 0.3762 0.0
H1008 H 0.74027 0.18399 0.11634 0.0
H1009 H 0.68594 0.16185 0.19288 0.0
H1010 H 0.65304 0.18838 0.10115 0.0
H1011 H 0.59897 0.16593 0.17722 0.0
H1012 H 0.44489 0.18014 0.1539 0.0
H1013 H 0.53251 0.18127 0.17224 0.0
H1014 H 0.58564 0.17668 0.07821 0.0
H1015 H 0.49885 0.17593 0.05998 0.0
C1016 C 0.7097 0.18006 0.1299 0.0
C1017 C 0.71993 0.17247 0.15562 0.0
C1018 C 0.65974 0.18257 0.1212 0.0
C1019 C 0.61899 0.1775 0.13794 0.0
C1020 C 0.62937 0.17016 0.16411 0.0
C1021 C 0.67927 0.1677 0.17289 0.0
C1022 C 0.47536 0.17967 0.13715 0.0
C1023 C 0.46501 0.17781 0.10558 0.0
C1024 C 0.52551 0.18021 0.14765 0.0
C1025 C 0.56609 0.1789 0.12673 0.0
C1026 C 0.55546 0.17782 0.09496 0.0
C1027 C 0.50555 0.1773 0.08452 0.0
H1028 H 0.3023 0.53526 0.11224 0.0
H1029 H 0.22434 0.54907 0.0312 0.0
H1030 H 0.22095 0.53235 0.13829 0.0
H1031 H 0.14329 0.54623 0.05728 0.0
H1032 H 0.00404 0.5297 0.10347 0.0
H1033 H 0.08635 0.52983 0.07771 0.0
H1034 H 0.154 0.5464 0.15894 0.0
H1035 H 0.07183 0.5462 0.18482 0.0
C1036 C 0.26782 0.53758 0.09991 0.0
C1037 C 0.26972 0.54244 0.06971 0.0
C1038 C 0.2213 0.53598 0.11488 0.0
C1039 C 0.17579 0.5391 0.09985 0.0
C1040 C 0.17768 0.54363 0.06935 0.0
C1041 C 0.22414 0.54532 0.05448 0.0
C1042 C 0.03655 0.53328 0.11592 0.0
C1043 C 0.03142 0.538 0.14613 0.0
C1044 C 0.08361 0.5334 0.10111 0.0
C1045 C 0.12656 0.53816 0.11627 0.0
C1046 C 0.12168 0.54256 0.14678 0.0
C1047 C 0.07456 0.54252 0.16153 0.0
H1048 H 0.67874 0.52962 0.5606 0.0
H1049 H 0.76436 0.52188 0.64377 0.0
H1050 H 0.60044 0.52512 0.58802 0.0
H1051 H 0.68557 0.51729 0.67129 0.0
H1052 H 0.53355 0.53482 0.71067 0.0
H1053 H 0.61648 0.53157 0.68753 0.0
H1054 H 0.5483 0.50935 0.61536 0.0
H1055 H 0.46489 0.51269 0.63845 0.0
C1056 C 0.68088 0.52675 0.58462 0.0
C1057 C 0.72759 0.52627 0.60016 0.0
C1058 C 0.63602 0.52404 0.60026 0.0
C1059 C 0.63689 0.52087 0.63183 0.0
C1060 C 0.68382 0.51978 0.647 0.0
C1061 C 0.72884 0.5224 0.63125 0.0
C1062 C 0.53636 0.52897 0.69032 0.0
C1063 C 0.49267 0.5242 0.67604 0.0
C1064 C 0.58397 0.52704 0.67717 0.0
C1065 C 0.58874 0.52034 0.6494 0.0
C1066 C 0.54555 0.51469 0.63656 0.0
C1067 C 0.49788 0.51656 0.64985 0.0
H1068 H 0.12823 0.17033 0.54992 0.0
H1069 H 0.06302 0.18235 0.63672 0.0
H1070 H 0.20989 0.16746 0.57537 0.0
H1071 H 0.14491 0.17966 0.66201 0.0
H1072 H 0.26989 0.15473 0.70223 0.0
H1073 H 0.19267 0.16085 0.67555 0.0
H1074 H 0.28162 0.17749 0.60256 0.0
H1075 H 0.35936 0.1712 0.62919 0.0
C1076 C 0.13159 0.17262 0.57427 0.0
C1077 C 0.08905 0.17643 0.5914 0.0
C1078 C 0.17844 0.17101 0.58882 0.0
C1079 C 0.18359 0.17316 0.62078 0.0
C1080 C 0.14179 0.1777 0.63747 0.0
C1081 C 0.095 0.17933 0.62292 0.0
C1082 C 0.27308 0.15968 0.68048 0.0
C1083 C 0.32073 0.16246 0.66777 0.0
C1084 C 0.2288 0.1633 0.66535 0.0
C1085 C 0.23107 0.16976 0.63711 0.0
C1086 C 0.27871 0.17249 0.62425 0.0
C1087 C 0.32316 0.1689 0.63949 0.0
H1088 H 0.03518 0.20463 0.20793 0.0
H1089 H 0.87166 0.20592 0.20139 0.0
H1090 H 0.03442 0.22416 0.2362 0.0
H1091 H 0.87114 0.22537 0.2302 0.0
H1092 H 0.91202 0.26694 0.25785 0.0
H1093 H 0.89895 0.24762 0.22923 0.0
H1094 H 0.00505 0.22904 0.28973 0.0
H1095 H 0.01872 0.24832 0.31788 0.0
C1096 C 0.99918 0.20917 0.212 0.0
C1097 C 0.95348 0.20362 0.20283 0.0
C1098 C 0.99869 0.22027 0.22855 0.0
C1099 C 0.95256 0.22603 0.23618 0.0
C1100 C 0.90713 0.22103 0.2249 0.0
C1101 C 0.90757 0.20991 0.20835 0.0
C1102 C 0.93098 0.2586 0.26574 0.0
C1103 C 0.9669 0.25911 0.28975 0.0
C1104 C 0.92386 0.24759 0.24919 0.0
C1105 C 0.95241 0.237 0.25666 0.0
C1106 C 0.98391 0.23721 0.28287 0.0
C1107 C 0.99118 0.24817 0.29924 0.0
H1108 H 0.32627 0.93492 0.23374 0.0
H1109 H 0.20503 0.95057 0.2886 0.0
H1110 H 0.32874 0.9538 0.20244 0.0
H1111 H 0.2082 0.9694 0.25782 0.0
H1112 H 0.18177 -0.00466 0.18099 0.0
H1113 H 0.18453 0.97485 0.20457 0.0
H1114 H 0.34815 0.97612 0.20492 0.0
H1115 H 0.34562 -0.00354 0.1806 0.0
C1116 C 0.301 0.94249 0.23956 0.0
C1117 C 0.26516 0.94124 0.26345 0.0
C1118 C 0.30221 0.95324 0.22152 0.0
C1119 C 0.26771 0.9629 0.22719 0.0
C1120 C 0.23408 0.96193 0.25226 0.0
C1121 C 0.23274 0.95121 0.27016 0.0
C1122 C 0.21834 -0.00887 0.18535 0.0
C1123 C 0.26341 -0.00237 0.17956 0.0
C1124 C 0.21992 -0.02055 0.19913 0.0
C1125 C 0.26655 0.97409 0.20744 0.0
C1126 C 0.31168 -0.01994 0.19895 0.0
C1127 C 0.31014 -0.00827 0.18501 0.0
H1128 H 0.8699 0.00137 0.05489 0.0
H1129 H 0.03001 -0.00232 0.03553 0.0
H1130 H 0.85441 -0.01879 0.03093 0.0
H1131 H 0.01432 0.97753 0.01199 0.0
H1132 H 0.97027 0.95206 0.93723 0.0
H1133 H 0.9696 0.97237 0.96188 0.0
H1134 H 0.87438 0.95806 0.03492 0.0
H1135 H 0.87454 0.93767 0.00995 0.0
C1136 C 0.90195 -0.00385 0.0462 0.0
C1137 C 0.95116 0.00123 0.04665 0.0
C1138 C 0.89292 -0.01537 0.0324 0.0
C1139 C 0.93292 0.97805 0.01879 0.0
C1140 C 0.98257 -0.01736 0.0215 0.0
C1141 C 0.99165 -0.00589 0.03535 0.0
C1142 C 0.94764 0.95337 0.95792 0.0
C1143 C 0.92301 0.94329 0.97193 0.0
C1144 C 0.94785 0.96493 0.97225 0.0
C1145 C 0.9235 0.9666 0.00085 0.0
C1146 C 0.89392 0.95694 0.01304 0.0
C1147 C 0.89358 0.94532 -0.00142 0.0
H1148 H 0.26629 0.20646 0.06114 0.0
H1149 H 0.1397 0.19131 0.00981 0.0
H1150 H 0.25537 0.22619 0.0348 0.0
H1151 H 0.12916 0.21118 0.98324 0.0
H1152 H 0.11083 0.2547 0.96728 0.0
H1153 H 0.11004 0.23429 0.99192 0.0
H1154 H 0.27173 0.23136 0.97856 0.0
H1155 H 0.27291 0.25169 0.95425 0.0
C1156 C 0.23564 0.20739 0.04459 0.0
C1157 C 0.2044 0.19727 0.03716 0.0
C1158 C 0.22968 0.21865 0.02935 0.0
C1159 C 0.19236 0.22003 0.00644 0.0
C1160 C 0.15848 0.21027 0.00068 0.0
C1161 C 0.16446 0.19894 0.01595 0.0
C1162 C 0.14604 0.24958 0.96899 0.0
C1163 C 0.19212 0.25489 0.95934 0.0
C1164 C 0.1455 0.23793 0.98314 0.0
C1165 C 0.191 0.23148 0.9878 0.0
C1166 C 0.23634 0.23635 0.97596 0.0
C1167 C 0.23691 0.24794 0.96183 0.0
H1168 H 0.01908 0.70729 0.65449 0.0
H1169 H 0.86192 0.71094 0.68132 0.0
H1170 H 0.03722 0.72741 0.67755 0.0
H1171 H 0.88051 0.73094 0.70501 0.0
H1172 H 0.93508 0.77048 0.73152 0.0
H1173 H 0.9102 0.75269 0.69977 0.0
H1174 H 0.04035 0.73236 0.73314 0.0
H1175 H 0.06556 0.75004 0.76431 0.0
C1176 C 0.9882 0.7125 0.66471 0.0
C1177 C 0.93933 0.70742 0.66667 0.0
C1178 C 0.99867 0.72397 0.67813 0.0
C1179 C 0.96055 0.73053 0.69385 0.0
C1180 C 0.91066 0.72604 0.69317 0.0
C1181 C 0.90007 0.71457 0.67958 0.0
C1182 C 0.958 0.76215 0.7323 0.0
C1183 C 0.0025 0.76168 0.75021 0.0
C1184 C 0.94386 0.75201 0.71404 0.0
C1185 C 0.97404 0.74128 0.71344 0.0
C1186 C 0.01724 0.74066 0.73239 0.0
C1187 C 0.03135 0.75074 0.75052 0.0
H1188 H 0.75453 0.95294 0.78774 0.0
H1189 H 0.59247 0.95889 0.78953 0.0
H1190 H 0.76586 0.97316 0.76357 0.0
H1191 H 0.60388 -0.02105 0.76469 0.0
H1192 H 0.65791 0.01951 0.74507 0.0
H1193 H 0.6386 -0.00013 0.77062 0.0
H1194 H 0.74693 -0.01878 0.71177 0.0
H1195 H 0.76695 0.00083 0.68673 0.0
C1196 C 0.72142 0.95862 0.78341 0.0
C1197 C 0.6726 0.95424 0.79024 0.0
C1198 C 0.72783 0.97013 0.76921 0.0
C1199 C 0.6856 0.97748 0.76155 0.0
C1200 C 0.63709 0.97347 0.77019 0.0
C1201 C 0.63064 0.96196 0.78444 0.0
C1202 C 0.67655 0.01115 0.73703 0.0
C1203 C 0.71436 0.01171 0.71417 0.0
C1204 C 0.66573 -8e-05 0.7518 0.0
C1205 C 0.69236 -0.0109 0.74377 0.0
C1206 C 0.72704 -0.0105 0.71913 0.0
C1207 C 0.738 0.0007 0.70452 0.0
H1208 H 0.82748 0.76445 0.98773 0.0
H1209 H 0.72144 0.7472 0.92466 0.0
H1210 H 0.84675 0.74416 0.01009 0.0
H1211 H 0.74135 0.72699 0.94656 0.0
H1212 H 0.72925 0.69717 0.01813 0.0
H1213 H 0.71967 0.71803 -0.00257 0.0
H1214 H 0.88191 0.72317 0.00079 0.0
H1215 H 0.89166 0.70239 0.02213 0.0
C1216 C 0.80958 0.75629 0.97796 0.0
C1217 C 0.77249 0.75739 0.95474 0.0
C1218 C 0.82035 0.7447 0.99091 0.0
C1219 C 0.79435 0.73409 0.98066 0.0
C1220 C 0.76069 0.73509 0.95558 0.0
C1221 C 0.74978 0.74663 0.94279 0.0
C1222 C 0.76283 0.70281 0.01503 0.0
C1223 C 0.81124 0.69805 0.02136 0.0
C1224 C 0.7574 0.7147 0.00283 0.0
C1225 C 0.80022 0.72206 -0.00328 0.0
C1226 C 0.84832 0.71766 0.00508 0.0
C1227 C 0.8538 0.70575 0.01732 0.0
H1228 H 0.31659 0.50472 0.74876 0.0
H1229 H 0.16251 0.51666 0.76539 0.0
H1230 H 0.3 0.48557 0.77571 0.0
H1231 H 0.14616 0.49738 0.79356 0.0
H1232 H 0.12883 0.45374 0.78781 0.0
H1233 H 0.13639 0.47595 0.77924 0.0
H1234 H 0.28328 0.47568 0.8237 0.0
H1235 H 0.2767 0.4533 0.83073 0.0
C1236 C 0.27925 0.50334 0.7586 0.0
C1237 C 0.24069 0.51217 0.7546 0.0
C1238 C 0.26991 0.49238 0.77451 0.0
C1239 C 0.22183 0.48997 0.78709 0.0
C1240 C 0.18352 0.49895 0.78398 0.0
C1241 C 0.19287 0.50997 0.76784 0.0
C1242 C 0.16206 0.4585 0.79655 0.0
C1243 C 0.2028 0.45181 0.80917 0.0
C1244 C 0.16632 0.47126 0.79177 0.0
C1245 C 0.21109 0.47751 0.80001 0.0
C1246 C 0.24902 0.47103 0.8162 0.0
C1247 C 0.2452 0.45825 0.82037 0.0
H1248 H 0.06115 0.46124 0.4093 0.0
H1249 H 0.93786 0.44392 0.45891 0.0
H1250 H 0.04078 0.48105 0.43342 0.0
H1251 H 0.91882 0.46354 0.48403 0.0
H1252 H 0.88114 0.50299 0.51217 0.0
H1253 H 0.89105 0.48436 0.48132 0.0
H1254 H 0.05387 0.48865 0.4849 0.0
H1255 H 0.04387 0.50769 0.51471 0.0
C1256 C 0.02899 0.46175 0.42484 0.0
C1257 C 0.00142 0.45105 0.43254 0.0
C1258 C 0.01779 0.47303 0.43899 0.0
C1259 C 0.97925 0.47376 0.46135 0.0
C1260 C 0.94881 0.4633 0.46693 0.0
C1261 C 0.95957 0.45204 0.45243 0.0
C1262 C 0.91916 0.49992 0.50667 0.0
C1263 C 0.96182 0.50684 0.51583 0.0
C1264 C 0.92476 0.48922 0.48891 0.0
C1265 C 0.97315 0.48512 0.48026 0.0
C1266 C 0.01594 0.49177 0.49045 0.0
C1267 C 0.01032 0.50257 0.50792 0.0
H1268 H 0.11715 0.69376 0.52624 0.0
H1269 H 0.24546 0.69887 0.5871 0.0
H1270 H 0.12519 0.71514 0.50872 0.0
H1271 H 0.25267 0.72036 0.57027 0.0
H1272 H 0.30543 0.74682 0.49389 0.0
H1273 H 0.28413 0.7276 0.52047 0.0
H1274 H 0.12541 0.7374 0.5177 0.0
H1275 H 0.14647 0.75648 0.49041 0.0
C1276 C 0.14556 0.69962 0.53694 0.0
C1277 C 0.18128 0.69463 0.55758 0.0
C1278 C 0.15038 0.71187 0.52677 0.0
C1279 C 0.19063 0.71928 0.5374 0.0
C1280 C 0.22232 0.71472 0.56093 0.0
C1281 C 0.2178 0.70247 0.57086 0.0
C1282 C 0.26599 0.74484 0.49877 0.0
C1283 C 0.22772 0.75316 0.48997 0.0
C1284 C 0.25379 0.73392 0.51438 0.0
C1285 C 0.2031 0.7311 0.52166 0.0
C1286 C 0.16475 0.73932 0.51243 0.0
C1287 C 0.17692 0.75023 0.49673 0.0
H1288 H 0.76576 0.45634 0.33877 0.0
H1289 H 0.86203 0.43785 0.27229 0.0
H1290 H 0.78204 0.4761 0.31333 0.0
H1291 H 0.87787 0.45767 0.24663 0.0
H1292 H 0.90236 0.49936 0.21764 0.0
H1293 H 0.90777 0.48041 0.24867 0.0
H1294 H 0.74526 0.48074 0.26005 0.0
H1295 H 0.73957 0.49958 0.22929 0.0
C1296 C 0.792 0.45658 0.31948 0.0
C1297 C 0.81175 0.44555 0.30707 0.0
C1298 C 0.80085 0.46785 0.30473 0.0
C1299 C 0.82965 0.46827 0.27743 0.0
C1300 C 0.85507 0.45754 0.26749 0.0
C1301 C 0.84629 0.44621 0.28234 0.0
C1302 C 0.8677 0.49529 0.22642 0.0
C1303 C 0.82051 0.50102 0.22118 0.0
C1304 C 0.87095 0.4845 0.24427 0.0
C1305 C 0.82714 0.47936 0.2574 0.0
C1306 C 0.77982 0.48475 0.25091 0.0
C1307 C 0.77649 0.49544 0.23291 0.0
H1308 H 0.75407 0.20496 0.54464 0.0
H1309 H 0.91289 0.21205 0.52747 0.0
H1310 H 0.73233 0.22427 0.5187 0.0
H1311 H 0.89081 0.23127 0.50095 0.0
H1312 H 0.82269 0.27009 0.47463 0.0
H1313 H 0.85226 0.25231 0.50487 0.0
H1314 H 0.73617 0.22948 0.46318 0.0
H1315 H 0.70625 0.24716 0.43348 0.0
C1316 C 0.78441 0.21073 0.53582 0.0
C1317 C 0.83511 0.20686 0.53766 0.0
C1318 C 0.77192 0.22173 0.5207 0.0
C1319 C 0.80984 0.22907 0.50705 0.0
C1320 C 0.86083 0.22575 0.5111 0.0
C1321 C 0.87339 0.21474 0.52634 0.0
C1322 C 0.80421 0.2612 0.47149 0.0
C1323 C 0.7618 0.26004 0.45196 0.0
C1324 C 0.82097 0.25106 0.48891 0.0
C1325 C 0.79558 0.23963 0.48698 0.0
C1326 C 0.75541 0.2383 0.46589 0.0
C1327 C 0.73865 0.24839 0.44861 0.0
H1328 H 0.45636 0.25622 0.73875 0.0
H1329 H 0.59764 0.25532 0.7894 0.0
H1330 H 0.4612 0.23393 0.73111 0.0
H1331 H 0.6014 0.23286 0.78302 0.0
H1332 H 0.6153 0.19415 0.73915 0.0
H1333 H 0.61437 0.2167 0.74581 0.0
H1334 H 0.45212 0.21552 0.75964 0.0
H1335 H 0.45287 0.19331 0.75162 0.0
C1336 C 0.4881 0.25122 0.74862 0.0
C1337 C 0.52645 0.25748 0.7648 0.0
C1338 C 0.49084 0.23843 0.74435 0.0
C1339 C 0.53153 0.23159 0.75666 0.0
C1340 C 0.56992 0.23787 0.77289 0.0
C1341 C 0.56755 0.25071 0.77676 0.0
C1342 C 0.57959 0.19877 0.74356 0.0
C1343 C 0.53415 0.19203 0.74452 0.0
C1344 C 0.57901 0.21165 0.74754 0.0
C1345 C 0.53306 0.21793 0.75297 0.0
C1346 C 0.48797 0.21106 0.75466 0.0
C1347 C 0.48846 0.19829 0.75023 0.0
H1348 H 0.36945 0.00658 0.48993 0.0
H1349 H 0.53161 0.01236 0.49124 0.0
H1350 H 0.38214 -0.01397 0.46754 0.0
H1351 H 0.54425 -0.00823 0.46988 0.0
H1352 H 0.55911 0.95985 0.40888 0.0
H1353 H 0.53219 -0.01921 0.42206 0.0
H1354 H 0.41526 0.96576 0.48132 0.0
H1355 H 0.44097 0.94478 0.46694 0.0
C1356 C 0.40778 0.00342 0.48572 0.0
C1357 C 0.44959 0.01108 0.49222 0.0
C1358 C 0.41498 -0.00833 0.47288 0.0
C1359 C 0.46409 -0.01262 0.46649 0.0
C1360 C 0.50582 -0.00504 0.47368 0.0
C1361 C 0.49865 0.00671 0.48625 0.0
C1362 C 0.5268 0.96106 0.42406 0.0
C1363 C 0.50248 0.95079 0.43729 0.0
C1364 C 0.51166 0.97301 0.43182 0.0
C1365 C 0.47264 0.97489 0.45343 0.0
C1366 C 0.44551 0.9646 0.46463 0.0
C1367 C 0.46017 0.9526 0.45642 0.0
H1368 H 0.6184 0.74973 0.33223 0.0
H1369 H 0.45987 0.75791 0.31718 0.0
H1370 H 0.60423 0.72843 0.31652 0.0
H1371 H 0.44536 0.73638 0.30243 0.0
H1372 H 0.46282 0.70708 0.22613 0.0
H1373 H 0.47117 0.7265 0.25425 0.0
H1374 H 0.56564 0.70836 0.32241 0.0
H1375 H 0.5585 0.68896 0.29378 0.0
C1376 C 0.58012 0.74687 0.32662 0.0
C1377 C 0.54053 0.75558 0.32502 0.0
C1378 C 0.57198 0.73462 0.31769 0.0
C1379 C 0.524 0.73085 0.30731 0.0
C1380 C 0.4831 0.73917 0.30942 0.0
C1381 C 0.49129 0.75146 0.31824 0.0
C1382 C 0.48575 0.70725 0.24696 0.0
C1383 C 0.51017 0.69651 0.25765 0.0
C1384 C 0.48985 0.71833 0.26336 0.0
C1385 C 0.5182 0.71889 0.29091 0.0
C1386 C 0.54349 0.70821 0.30128 0.0
C1387 C 0.53965 0.69713 0.28475 0.0
H1388 H 0.59671 0.45364 0.95518 0.0
H1389 H 0.43519 0.45242 0.93896 0.0
H1390 H 0.5916 0.47585 0.96435 0.0
H1391 H 0.43031 0.47477 0.94671 0.0
H1392 H 0.42851 0.50876 0.00934 0.0
H1393 H 0.43504 0.48749 0.99139 0.0
H1394 H 0.57642 0.49622 0.9457 0.0
H1395 H 0.57082 0.51746 0.96485 0.0
C1396 C 0.56033 0.45819 0.95268 0.0
C1397 C 0.5162 0.4513 0.94683 0.0
C1398 C 0.5574 0.47094 0.95786 0.0
C1399 C 0.51037 0.47705 0.95683 0.0
C1400 C 0.46689 0.47028 0.94857 0.0
C1401 C 0.4697 0.4575 0.94387 0.0
C1402 C 0.46099 0.50614 -0.00453 0.0
C1403 C 0.49927 0.51475 0.98863 0.0
C1404 C 0.4645 0.49397 0.98486 0.0
C1405 C 0.50603 0.49017 0.96682 0.0
C1406 C 0.54419 0.49882 0.9598 0.0
C1407 C 0.54098 0.51098 0.97076 0.0
H1408 H 0.01861 0.30083 0.18974 0.0
H1409 H 0.17674 0.30058 0.21516 0.0
H1410 H 0.04166 0.30301 0.13549 0.0
H1411 H 0.20029 0.30376 0.16125 0.0
H1412 H 0.22618 0.29277 0.06052 0.0
H1413 H 0.20634 0.29323 0.11541 0.0
H1414 H 0.0722 0.31503 0.09589 0.0
H1415 H 0.0905 0.31366 0.04069 0.0
C1416 C 0.05834 0.30151 0.18365 0.0
C1417 C 0.09595 0.30041 0.2064 0.0
C1418 C 0.07171 0.30288 0.15256 0.0
C1419 C 0.12303 0.30353 0.1437 0.0
C1420 C 0.16048 0.30296 0.1669 0.0
C1421 C 0.14708 0.30122 0.19786 0.0
C1422 C 0.19278 0.29777 0.06811 0.0
C1423 C 0.15964 0.3031 0.04651 0.0
C1424 C 0.18143 0.29812 0.09966 0.0
C1425 C 0.13733 0.3041 0.11035 0.0
C1426 C 0.1057 0.31003 0.08862 0.0
C1427 C 0.11635 0.30936 0.05699 0.0
H1428 H 0.98481 0.89044 0.07225 0.0
H1429 H 0.12228 0.91051 0.0507 0.0
H1430 H 0.01738 0.88612 0.12411 0.0
H1431 H 0.15433 0.90626 0.10247 0.0
H1432 H 0.21727 0.88881 0.18796 0.0
H1433 H 0.18296 0.88848 0.13545 0.0
H1434 H 0.0361 0.89907 0.17076 0.0
H1435 H 0.06997 0.89928 0.22319 0.0
C1436 C 0.0219 0.89393 0.07855 0.0
C1437 C 0.05085 0.90088 0.05743 0.0
C1438 C 0.04048 0.89144 0.10819 0.0
C1439 C 0.08848 0.89577 0.11714 0.0
C1440 C 0.11757 0.90262 0.09596 0.0
C1441 C 0.09892 0.90517 0.06644 0.0
C1442 C 0.17741 0.89079 0.18461 0.0
C1443 C 0.14649 0.89425 0.20965 0.0
C1444 C 0.15791 0.89068 0.15454 0.0
C1445 C 0.10712 0.89392 0.14908 0.0
C1446 C 0.07536 0.8965 0.17433 0.0
C1447 C 0.09488 0.89669 0.20433 0.0
H1448 H 0.97158 0.6534 0.76928 0.0
H1449 H 0.81946 0.66835 0.76866 0.0
H1450 H 0.96427 0.64941 0.82472 0.0
H1451 H 0.81275 0.66461 0.82399 0.0
H1452 H 0.79752 0.64699 0.91755 0.0
H1453 H 0.80705 0.64777 0.86143 0.0
H1454 H 0.95986 0.6615 0.87235 0.0
H1455 H 0.95094 0.66045 0.92833 0.0
C1456 C 0.9367 0.65588 0.78095 0.0
C1457 C 0.89616 0.66123 0.76457 0.0
C1458 C 0.93257 0.6536 0.8127 0.0
C1459 C 0.88787 0.65665 0.82864 0.0
C1460 C 0.84734 0.66195 0.81223 0.0
C1461 C 0.8514 0.6642 0.78055 0.0
C1462 C 0.83336 0.65003 0.90799 0.0
C1463 C 0.87329 0.65377 0.9274 0.0
C1464 C 0.8387 0.65054 0.87586 0.0
C1465 C 0.884 0.65483 0.86253 0.0
C1466 C 0.92463 0.65807 0.88193 0.0
C1467 C 0.91936 0.65753 0.91404 0.0
H1468 H 0.80218 0.06486 0.80824 0.0
H1469 H 0.91768 0.0375 0.78849 0.0
H1470 H 0.83136 0.06595 0.86176 0.0
H1471 H 0.94601 0.03845 0.84206 0.0
H1472 H 0.00616 0.04911 0.93713 0.0
H1473 H 0.98542 0.05176 0.88225 0.0
H1474 H 0.82589 0.05112 0.90464 0.0
H1475 H 0.84621 0.04869 0.95901 0.0
C1476 C 0.83389 0.05913 0.81524 0.0
C1477 C 0.85718 0.05098 0.79423 0.0
C1478 C 0.85053 0.05975 0.84587 0.0
C1479 C 0.89073 0.05223 0.85605 0.0
C1480 C 0.91529 0.04444 0.83477 0.0
C1481 C 0.89869 0.04382 0.80415 0.0
C1482 C 0.96672 0.04964 0.93029 0.0
C1483 C 0.92786 0.04861 0.95237 0.0
C1484 C 0.95489 0.05112 0.89894 0.0
C1485 C 0.90406 0.05168 0.88926 0.0
C1486 C 0.8654 0.05092 0.91145 0.0
C1487 C 0.87713 0.0494 0.94262 0.0
H1488 H 0.06347 0.81164 0.68333 0.0
H1489 H 0.21675 0.81107 0.71815 0.0
H1490 H 0.09497 0.81433 0.63106 0.0
H1491 H 0.24883 0.81475 0.66602 0.0
H1492 H 0.28305 0.79785 0.57031 0.0
H1493 H 0.25965 0.80235 0.62341 0.0
H1494 H 0.1334 0.82447 0.59078 0.0
H1495 H 0.15513 0.81907 0.53759 0.0
C1496 C 0.10395 0.81259 0.67984 0.0
C1497 C 0.13777 0.81096 0.70454 0.0
C1498 C 0.12221 0.81421 0.64981 0.0
C1499 C 0.17473 0.81454 0.644 0.0
C1500 C 0.20827 0.81412 0.66936 0.0
C1501 C 0.18998 0.81213 0.69928 0.0
C1502 C 0.25083 0.80384 0.57457 0.0
C1503 C 0.22037 0.80795 0.55003 0.0
C1504 C 0.23748 0.80654 0.60509 0.0
C1505 C 0.19404 0.81367 0.61166 0.0
C1506 C 0.16614 0.81864 0.58677 0.0
C1507 C 0.17873 0.81564 0.55627 0.0
H1508 H 0.09712 0.40007 0.69263 0.0
H1509 H 0.2337 0.42094 0.67512 0.0
H1510 H 0.08047 0.39894 0.63731 0.0
H1511 H 0.21553 0.42064 0.61981 0.0
H1512 H 0.19505 0.41008 0.52033 0.0
H1513 H 0.21366 0.40878 0.57541 0.0
H1514 H 0.05305 0.41038 0.59547 0.0
H1515 H 0.03483 0.41078 0.54017 0.0
C1516 C 0.12325 0.40455 0.67683 0.0
C1517 C 0.16661 0.41061 0.68801 0.0
C1518 C 0.11358 0.40398 0.64511 0.0
C1519 C 0.14642 0.40975 0.62388 0.0
C1520 C 0.18985 0.41585 0.63526 0.0
C1521 C 0.20018 0.41613 0.66699 0.0
C1522 C 0.16383 0.41003 0.53663 0.0
C1523 C 0.11355 0.41054 0.52617 0.0
C1524 C 0.17444 0.4094 0.56823 0.0
C1525 C 0.13497 0.40961 0.59012 0.0
C1526 C 0.08451 0.40998 0.57944 0.0
C1527 C 0.07393 0.41028 0.54774 0.0
H1528 H 0.84033 0.16034 0.28903 0.0
H1529 H -0.00024 0.15123 0.29403 0.0
H1530 H 0.83489 0.15957 0.3451 0.0
H1531 H 0.99385 0.15017 0.35036 0.0
H1532 H 0.97538 0.16866 0.44664 0.0
H1533 H 0.98279 0.16556 0.39104 0.0
H1534 H 0.83908 0.14634 0.39035 0.0
H1535 H 0.83093 0.14971 0.44594 0.0
C1536 C 0.87408 0.15797 0.30205 0.0
C1537 C 0.92063 0.15598 0.28706 0.0
C1538 C 0.87083 0.15745 0.33423 0.0
C1539 C 0.91401 0.15488 0.35214 0.0
C1540 C 0.96011 0.15236 0.33714 0.0
C1541 C 0.96341 0.15291 0.30488 0.0
C1542 C 0.9455 0.1637 0.4347 0.0
C1543 C 0.90231 0.15955 0.45065 0.0
C1544 C 0.94997 0.16182 0.40286 0.0
C1545 C 0.91146 0.15572 0.38633 0.0
C1546 C 0.86904 0.15122 0.40243 0.0
C1547 C 0.86445 0.15313 0.43427 0.0
H1548 H 0.80425 0.54553 0.45227 0.0
H1549 H 0.94409 0.56621 0.44448 0.0
H1550 H 0.79027 0.54784 0.39691 0.0
H1551 H 0.92932 0.56878 0.38914 0.0
H1552 H 0.92679 0.55032 0.29189 0.0
H1553 H 0.93462 0.55396 0.34715 0.0
H1554 H 0.77391 0.5613 0.35286 0.0
H1555 H 0.76571 0.55736 0.29742 0.0
C1556 C 0.83144 0.55081 0.43889 0.0
C1557 C 0.87577 0.55548 0.45267 0.0
C1558 C 0.82323 0.55221 0.40715 0.0
C1559 C 0.85903 0.55837 0.3886 0.0
C1560 C 0.90157 0.56378 0.40277 0.0
C1561 C 0.90992 0.56234 0.43448 0.0
C1562 C 0.89316 0.55286 0.30479 0.0
C1563 C 0.84551 0.55337 0.29032 0.0
C1564 C 0.89774 0.55506 0.33648 0.0
C1565 C 0.85482 0.55787 0.3544 0.0
C1566 C 0.80753 0.559 0.33969 0.0
C1567 C 0.80291 0.55677 0.30793 0.0
H1568 H 0.55112 0.29372 0.51469 0.0
H1569 H 0.68298 0.3173 0.52346 0.0
H1570 H 0.52959 0.29776 0.56845 0.0
H1571 H 0.66074 0.32149 0.57732 0.0
H1572 H 0.6467 0.30649 0.67887 0.0
H1573 H 0.663 0.30819 0.62363 0.0
H1574 H 0.50302 0.31335 0.60668 0.0
H1575 H 0.48638 0.31144 0.66205 0.0
C1576 C 0.57509 0.29993 0.52793 0.0
C1577 C 0.61918 0.30504 0.51492 0.0
C1578 C 0.56245 0.30234 0.55869 0.0
C1579 C 0.59364 0.3099 0.57712 0.0
C1580 C 0.63636 0.31551 0.56372 0.0
C1581 C 0.64897 0.31313 0.53286 0.0
C1582 C 0.61501 0.30816 0.66346 0.0
C1583 C 0.56515 0.30863 0.67481 0.0
C1584 C 0.62444 0.30924 0.6318 0.0
C1585 C 0.58422 0.31081 0.61083 0.0
C1586 C 0.53466 0.31197 0.62231 0.0
C1587 C 0.5252 0.31091 0.65402 0.0
H1588 H 0.53418 0.89757 0.54261 0.0
H1589 H 0.67624 0.91758 0.54236 0.0
H1590 H 0.54011 0.8953 0.59877 0.0
H1591 H 0.68165 0.91542 0.59833 0.0
H1592 H 0.69642 0.90186 0.69651 0.0
H1593 H 0.69203 0.89998 0.64028 0.0
H1594 H 0.53371 0.9101 0.64265 0.0
H1595 H 0.53771 0.91183 0.69883 0.0
C1596 C 0.56683 0.9014 0.55446 0.0
C1597 C 0.60453 0.90785 0.53805 0.0
C1598 C 0.57008 0.90013 0.5866 0.0
C1599 C 0.61125 0.90521 0.60288 0.0
C1600 C 0.64976 0.91129 0.58636 0.0
C1601 C 0.64642 0.91261 0.5543 0.0
C1602 C 0.66051 0.90355 0.6851 0.0
C1603 C 0.61752 0.90712 0.70212 0.0
C1604 C 0.6581 0.90251 0.6529 0.0
C1605 C 0.61263 0.90496 0.63713 0.0
C1606 C 0.56916 0.90804 0.65423 0.0
C1607 C 0.57159 0.90913 0.6864 0.0
H1608 H 0.28113 0.67352 0.44372 0.0
H1609 H 0.21651 0.63674 0.43934 0.0
H1610 H 0.30851 0.67165 0.38983 0.0
H1611 H 0.24555 0.63474 0.38547 0.0
H1612 H 0.39886 0.63656 0.31788 0.0
H1613 H 0.34958 0.63625 0.36597 0.0
H1614 H 0.25978 0.66698 0.33311 0.0
H1615 H 0.30772 0.66722 0.28493 0.0
C1616 C 0.27221 0.66513 0.43102 0.0
C1617 C 0.24673 0.65529 0.44545 0.0
C1618 C 0.28771 0.66407 0.40032 0.0
C1619 C 0.27897 0.65306 0.38386 0.0
C1620 C 0.25242 0.64331 0.39792 0.0
C1621 C 0.23569 0.64449 0.42849 0.0
C1622 C 0.36787 0.64305 0.32063 0.0
C1623 C 0.35757 0.652 0.29781 0.0
C1624 C 0.33959 0.64281 0.34797 0.0
C1625 C 0.30127 0.65161 0.35293 0.0
C1626 C 0.28922 0.66012 0.32956 0.0
C1627 C 0.31677 0.66023 0.30209 0.0
H1628 H 0.28033 0.0545 0.43779 0.0
H1629 H 0.4302 0.06713 0.41236 0.0
H1630 H 0.25717 0.05327 0.3835 0.0
H1631 H 0.40626 0.06626 0.35784 0.0
H1632 H 0.37555 0.0417 0.27283 0.0
H1633 H 0.39362 0.0482 0.32543 0.0
H1634 H 0.24195 0.06296 0.33378 0.0
H1635 H 0.22326 0.05615 0.28099 0.0
C1636 C 0.30794 0.05735 0.42065 0.0
C1637 C 0.35754 0.06063 0.42937 0.0
C1638 C 0.29448 0.05671 0.38947 0.0
C1639 C 0.33024 0.05941 0.36638 0.0
C1640 C 0.37831 0.06382 0.37517 0.0
C1641 C 0.39189 0.06441 0.4064 0.0
C1642 C 0.34596 0.04634 0.28579 0.0
C1643 C 0.29784 0.04834 0.27277 0.0
C1644 C 0.35657 0.05022 0.31587 0.0
C1645 C 0.31943 0.05624 0.33365 0.0
C1646 C 0.27129 0.0583 0.32065 0.0
C1647 C 0.26056 0.05437 0.29048 0.0
H1648 H 0.66128 0.81184 0.05127 0.0
H1649 H 0.59847 0.7751 0.03936 0.0
H1650 H 0.6394 0.81117 0.10636 0.0
H1651 H 0.57779 0.77439 0.09456 0.0
H1652 H 0.63861 0.77483 0.19973 0.0
H1653 H 0.64477 0.77531 0.1432 0.0
H1654 H 0.55227 0.80831 0.1409 0.0
H1655 H 0.5449 0.80771 0.19746 0.0
C1656 C 0.64254 0.80368 0.06038 0.0
C1657 C 0.63175 0.79351 0.04115 0.0
C1658 C 0.62981 0.80334 0.09174 0.0
C1659 C 0.60706 0.79273 0.10439 0.0
C1660 C 0.59537 0.78265 0.08514 0.0
C1661 C 0.6071 0.78309 0.05366 0.0
C1662 C 0.61909 0.78209 0.18712 0.0
C1663 C 0.59141 0.79125 0.20287 0.0
C1664 C 0.62241 0.78232 0.15489 0.0
C1665 C 0.599 0.79185 0.13802 0.0
C1666 C 0.57059 0.80089 0.15362 0.0
C1667 C 0.56629 0.80051 0.18583 0.0
H1668 H 0.66223 0.40959 0.0455 0.0
H1669 H 0.50602 0.40801 0.07554 0.0
H1670 H 0.68998 0.40984 0.09917 0.0
H1671 H 0.53418 0.40809 0.12947 0.0
H1672 H 0.60463 0.4245 0.21836 0.0
H1673 H 0.57545 0.42317 0.16497 0.0
H1674 H 0.69225 0.39624 0.14518 0.0
H1675 H 0.72207 0.39765 0.19855 0.0
C1676 C 0.63376 0.40922 0.06354 0.0
C1677 C 0.58184 0.40883 0.05624 0.0
C1678 C 0.64977 0.40928 0.0943 0.0
C1679 C 0.61425 0.40899 0.11844 0.0
C1680 C 0.56234 0.40845 0.11125 0.0
C1681 C 0.54626 0.40834 0.0804 0.0
C1682 C 0.62422 0.4183 0.20265 0.0
C1683 C 0.66583 0.41121 0.21269 0.0
C1684 C 0.60718 0.41747 0.17214 0.0
C1685 C 0.63147 0.40957 0.15101 0.0
C1686 C 0.67309 0.40248 0.16096 0.0
C1687 C 0.69007 0.40328 0.19153 0.0
H1688 H 0.36504 0.1467 0.80982 0.0
H1689 H 0.51346 0.13926 0.8481 0.0
H1690 H 0.32829 0.1454 0.86109 0.0
H1691 H 0.47604 0.13763 0.89974 0.0
H1692 H 0.40156 0.15765 0.98356 0.0
H1693 H 0.44088 0.15322 0.93411 0.0
H1694 H 0.30796 0.13273 0.90571 0.0
H1695 H 0.26766 0.13744 0.95528 0.0
C1696 C 0.3898 0.14458 0.82915 0.0
C1697 C 0.44238 0.1433 0.82497 0.0
C1698 C 0.36852 0.1437 0.85855 0.0
C1699 C 0.39928 0.14148 0.88449 0.0
C1700 C 0.45151 0.13951 0.88017 0.0
C1701 C 0.4729 0.14041 0.85063 0.0
C1702 C 0.38068 0.15211 0.96694 0.0
C1703 C 0.33108 0.14806 0.97319 0.0
C1704 C 0.40359 0.14944 0.93867 0.0
C1705 C 0.37754 0.14264 0.91598 0.0
C1706 C 0.32874 0.13812 0.92267 0.0
C1707 C 0.30569 0.14081 0.95103 0.0
H1708 H 0.35386 0.57773 0.94415 0.0
H1709 H 0.49552 0.56484 0.90619 0.0
H1710 H 0.32471 0.58323 0.89236 0.0
H1711 H 0.46548 0.56922 0.85437 0.0
H1712 H 0.40886 0.57403 0.76206 0.0
H1713 H 0.44001 0.58045 0.81276 0.0
H1714 H 0.29276 0.57227 0.85209 0.0
H1715 H 0.2613 0.567 0.8012 0.0
C1716 C 0.37881 0.57616 0.9246 0.0
C1717 C 0.42653 0.57071 0.9289 0.0
C1718 C 0.36207 0.57922 0.89487 0.0
C1719 C 0.39198 0.57641 0.86877 0.0
C1720 C 0.44124 0.57171 0.87358 0.0
C1721 C 0.45853 0.56905 0.90338 0.0
C1722 C 0.38292 0.57409 0.78151 0.0
C1723 C 0.333 0.56988 0.77798 0.0
C1724 C 0.40082 0.57761 0.81067 0.0
C1725 C 0.36966 0.57648 0.83701 0.0
C1726 C 0.31823 0.57338 0.83267 0.0
C1727 C 0.29998 0.57027 0.80335 0.0
loop_
_geom_bond_atom_site_label_1
_geom_bond_atom_site_label_2
_geom_bond_distance
_geom_bond_site_symmetry_2
_ccdc_geom_bond_type
C0 O1 1.306 . S
C0 O3 1.160 . S
O1 C0 1.306 . S
O1 Cd2 2.228 1_455 S
Cd2 O1 2.228 1_655 S
Cd2 O6 2.273 1_655 S
Cd2 O10 2.277 1_655 S
O3 C0 1.160 . S
O3 Cd4 2.203 . S
Cd4 O3 2.203 . S
Cd4 O6 2.411 . S
Cd4 O7 2.333 . S
Cd4 O8 2.352 . S
Cd4 O12 2.277 . S
Cd4 O13 2.356 . S
C5 O10 1.209 . S
C5 O12 1.226 . S
O6 Cd2 2.273 1_455 S
O6 Cd4 2.411 . S
O6 C9 1.320 . S
O7 Cd4 2.333 . S
O7 C9 1.214 . S
O8 Cd4 2.352 . S
O8 C11 1.258 . S
C9 O6 1.320 . S
C9 O7 1.214 . S
O10 Cd2 2.277 1_455 S
O10 C5 1.209 . S
C11 O8 1.258 . S
C11 O13 1.282 . S
O12 Cd4 2.277 . S
O12 C5 1.226 . S
O13 Cd4 2.356 . S
O13 C11 1.282 . S
C14 O15 1.306 . S
C14 O17 1.160 . S
O15 C14 1.306 . S
O15 Cd16 2.228 . S
Cd16 O15 2.228 . S
Cd16 O20 2.273 . S
Cd16 O24 2.277 . S
O17 C14 1.160 . S
O17 Cd18 2.203 . S
Cd18 O17 2.203 . S
Cd18 O20 2.411 . S
Cd18 O21 2.333 . S
Cd18 O22 2.352 . S
Cd18 O26 2.277 . S
Cd18 O27 2.356 . S
C19 O24 1.209 . S
C19 O26 1.226 . S
O20 Cd16 2.273 . S
O20 Cd18 2.411 . S
O20 C23 1.320 . S
O21 Cd18 2.333 . S
O21 C23 1.214 . S
O22 Cd18 2.352 . S
O22 C25 1.258 . S
C23 O20 1.320 . S
C23 O21 1.214 . S
O24 Cd16 2.277 . S
O24 C19 1.209 . S
C25 O22 1.258 . S
C25 O27 1.282 . S
O26 Cd18 2.277 . S
O26 C19 1.226 . S
O27 Cd18 2.356 . S
O27 C25 1.282 . S
C28 O29 1.306 . S
C28 O31 1.160 . S
O29 C28 1.306 . S
O29 Cd30 2.228 1_455 S
Cd30 O29 2.228 1_655 S
Cd30 O34 2.273 1_655 S
Cd30 O38 2.277 1_656 S
O31 C28 1.160 . S
O31 Cd32 2.203 . S
Cd32 O31 2.203 . S
Cd32 O34 2.411 . S
Cd32 O35 2.333 . S
Cd32 O36 2.352 . S
Cd32 O40 2.277 1_556 S
Cd32 O41 2.356 . S
C33 O38 1.209 . S
C33 O40 1.226 . S
O34 Cd30 2.273 1_455 S
O34 Cd32 2.411 . S
O34 C37 1.320 . S
O35 Cd32 2.333 . S
O35 C37 1.214 . S
O36 Cd32 2.352 . S
O36 C39 1.258 . S
C37 O34 1.320 . S
C37 O35 1.214 . S
O38 Cd30 2.277 1_454 S
O38 C33 1.209 . S
C39 O36 1.258 . S
C39 O41 1.282 . S
O40 Cd32 2.277 1_554 S
O40 C33 1.226 . S
O41 Cd32 2.356 . S
O41 C39 1.282 . S
C42 O43 1.306 . S
C42 O45 1.160 . S
O43 C42 1.306 . S
O43 Cd44 2.228 . S
Cd44 O43 2.228 . S
Cd44 O48 2.273 . S
Cd44 O52 2.277 1_556 S
O45 C42 1.160 . S
O45 Cd46 2.203 . S
Cd46 O45 2.203 . S
Cd46 O48 2.411 . S
Cd46 O49 2.333 . S
Cd46 O50 2.352 . S
Cd46 O54 2.277 1_556 S
Cd46 O55 2.356 . S
C47 O52 1.209 . S
C47 O54 1.226 . S
O48 Cd44 2.273 . S
O48 Cd46 2.411 . S
O48 C51 1.320 . S
O49 Cd46 2.333 . S
O49 C51 1.214 . S
O50 Cd46 2.352 . S
O50 C53 1.258 . S
C51 O48 1.320 . S
C51 O49 1.214 . S
O52 Cd44 2.277 1_554 S
O52 C47 1.209 . S
C53 O50 1.258 . S
C53 O55 1.282 . S
O54 Cd46 2.277 1_554 S
O54 C47 1.226 . S
O55 Cd46 2.356 . S
O55 C53 1.282 . S
C56 O57 1.306 . S
C56 O59 1.160 . S
O57 C56 1.306 . S
O57 Cd58 2.228 1_655 S
Cd58 O57 2.228 1_455 S
Cd58 O62 2.273 1_455 S
Cd58 O66 2.277 1_455 S
O59 C56 1.160 . S
O59 Cd60 2.203 . S
Cd60 O59 2.203 . S
Cd60 O62 2.411 . S
Cd60 O63 2.333 . S
Cd60 O64 2.352 . S
Cd60 O68 2.277 . S
Cd60 O69 2.356 . S
C61 O66 1.209 . S
C61 O68 1.226 . S
O62 Cd58 2.273 1_655 S
O62 Cd60 2.411 . S
O62 C65 1.320 . S
O63 Cd60 2.333 . S
O63 C65 1.214 . S
O64 Cd60 2.352 . S
O64 C67 1.258 . S
C65 O62 1.320 . S
C65 O63 1.214 . S
O66 Cd58 2.277 1_655 S
O66 C61 1.209 . S
C67 O64 1.258 . S
C67 O69 1.282 . S
O68 Cd60 2.277 . S
O68 C61 1.226 . S
O69 Cd60 2.356 . S
O69 C67 1.282 . S
C70 O71 1.306 . S
C70 O73 1.160 . S
O71 C70 1.306 . S
O71 Cd72 2.228 . S
Cd72 O71 2.228 . S
Cd72 O76 2.273 . S
Cd72 O80 2.277 . S
O73 C70 1.160 . S
O73 Cd74 2.203 . S
Cd74 O73 2.203 . S
Cd74 O76 2.411 . S
Cd74 O77 2.333 . S
Cd74 O78 2.352 . S
Cd74 O82 2.277 . S
Cd74 O83 2.356 . S
C75 O80 1.209 . S
C75 O82 1.226 . S
O76 Cd72 2.273 . S
O76 Cd74 2.411 . S
O76 C79 1.320 . S
O77 Cd74 2.333 . S
O77 C79 1.214 . S
O78 Cd74 2.352 . S
O78 C81 1.258 . S
C79 O76 1.320 . S
C79 O77 1.214 . S
O80 Cd72 2.277 . S
O80 C75 1.209 . S
C81 O78 1.258 . S
C81 O83 1.282 . S
O82 Cd74 2.277 . S
O82 C75 1.226 . S
O83 Cd74 2.356 . S
O83 C81 1.282 . S
C84 O85 1.306 . S
C84 O87 1.160 . S
O85 C84 1.306 . S
O85 Cd86 2.228 1_655 S
Cd86 O85 2.228 1_455 S
Cd86 O90 2.273 1_455 S
Cd86 O94 2.277 1_454 S
O87 C84 1.160 . S
O87 Cd88 2.203 . S
Cd88 O87 2.203 . S
Cd88 O90 2.411 . S
Cd88 O91 2.333 . S
Cd88 O92 2.352 . S
Cd88 O96 2.277 1_554 S
Cd88 O97 2.356 . S
C89 O94 1.209 . S
C89 O96 1.226 . S
O90 Cd86 2.273 1_655 S
O90 Cd88 2.411 . S
O90 C93 1.320 . S
O91 Cd88 2.333 . S
O91 C93 1.214 . S
O92 Cd88 2.352 . S
O92 C95 1.258 . S
C93 O90 1.320 . S
C93 O91 1.214 . S
O94 Cd86 2.277 1_656 S
O94 C89 1.209 . S
C95 O92 1.258 . S
C95 O97 1.282 . S
O96 Cd88 2.277 1_556 S
O96 C89 1.226 . S
O97 Cd88 2.356 . S
O97 C95 1.282 . S
C98 O99 1.306 . S
C98 O101 1.160 . S
O99 C98 1.306 . S
O99 Cd100 2.228 . S
Cd100 O99 2.228 . S
Cd100 O104 2.273 . S
Cd100 O108 2.277 1_554 S
O101 C98 1.160 . S
O101 Cd102 2.203 . S
Cd102 O101 2.203 . S
Cd102 O104 2.411 . S
Cd102 O105 2.333 . S
Cd102 O106 2.352 . S
Cd102 O110 2.277 1_554 S
Cd102 O111 2.356 . S
C103 O108 1.209 . S
C103 O110 1.226 . S
O104 Cd100 2.273 . S
O104 Cd102 2.411 . S
O104 C107 1.320 . S
O105 Cd102 2.333 . S
O105 C107 1.214 . S
O106 Cd102 2.352 . S
O106 C109 1.258 . S
C107 O104 1.320 . S
C107 O105 1.214 . S
O108 Cd100 2.277 1_556 S
O108 C103 1.209 . S
C109 O106 1.258 . S
C109 O111 1.282 . S
O110 Cd102 2.277 1_556 S
O110 C103 1.226 . S
O111 Cd102 2.356 . S
O111 C109 1.282 . S
C112 O113 1.306 . S
C112 O115 1.160 . S
O113 C112 1.306 . S
O113 Cd114 2.228 1_455 S
Cd114 O113 2.228 1_655 S
Cd114 O118 2.273 1_655 S
Cd114 O122 2.277 1_655 S
O115 C112 1.160 . S
O115 Cd116 2.203 . S
Cd116 O115 2.203 . S
Cd116 O118 2.411 . S
Cd116 O119 2.333 . S
Cd116 O120 2.352 . S
Cd116 O124 2.277 . S
Cd116 O125 2.356 . S
C117 O122 1.209 . S
C117 O124 1.226 . S
O118 Cd114 2.273 1_455 S
O118 Cd116 2.411 . S
O118 C121 1.320 . S
O119 Cd116 2.333 . S
O119 C121 1.214 . S
O120 Cd116 2.352 . S
O120 C123 1.258 . S
C121 O118 1.320 . S
C121 O119 1.214 . S
O122 Cd114 2.277 1_455 S
O122 C117 1.209 . S
C123 O120 1.258 . S
C123 O125 1.282 . S
O124 Cd116 2.277 . S
O124 C117 1.226 . S
O125 Cd116 2.356 . S
O125 C123 1.282 . S
C126 O127 1.306 . S
C126 O129 1.160 . S
O127 C126 1.306 . S
O127 Cd128 2.228 . S
Cd128 O127 2.228 . S
Cd128 O132 2.273 . S
Cd128 O136 2.277 . S
O129 C126 1.160 . S
O129 Cd130 2.203 . S
Cd130 O129 2.203 . S
Cd130 O132 2.411 . S
Cd130 O133 2.333 . S
Cd130 O134 2.352 . S
Cd130 O138 2.277 . S
Cd130 O139 2.356 . S
C131 O136 1.209 . S
C131 O138 1.226 . S
O132 Cd128 2.273 . S
O132 Cd130 2.411 . S
O132 C135 1.320 . S
O133 Cd130 2.333 . S
O133 C135 1.214 . S
O134 Cd130 2.352 . S
O134 C137 1.258 . S
C135 O132 1.320 . S
C135 O133 1.214 . S
O136 Cd128 2.277 . S
O136 C131 1.209 . S
C137 O134 1.258 . S
C137 O139 1.282 . S
O138 Cd130 2.277 . S
O138 C131 1.226 . S
O139 Cd130 2.356 . S
O139 C137 1.282 . S
C140 O141 1.306 . S
C140 O143 1.160 . S
O141 C140 1.306 . S
O141 Cd142 2.228 1_455 S
Cd142 O141 2.228 1_655 S
Cd142 O146 2.273 1_655 S
Cd142 O150 2.277 1_655 S
O143 C140 1.160 . S
O143 Cd144 2.203 . S
Cd144 O143 2.203 . S
Cd144 O146 2.411 . S
Cd144 O147 2.333 . S
Cd144 O148 2.352 . S
Cd144 O152 2.277 . S
Cd144 O153 2.356 . S
C145 O150 1.209 . S
C145 O152 1.226 . S
O146 Cd142 2.273 1_455 S
O146 Cd144 2.411 . S
O146 C149 1.320 . S
O147 Cd144 2.333 . S
O147 C149 1.214 . S
O148 Cd144 2.352 . S
O148 C151 1.258 . S
C149 O146 1.320 . S
C149 O147 1.214 . S
O150 Cd142 2.277 1_455 S
O150 C145 1.209 . S
C151 O148 1.258 . S
C151 O153 1.282 . S
O152 Cd144 2.277 . S
O152 C145 1.226 . S
O153 Cd144 2.356 . S
O153 C151 1.282 . S
C154 O155 1.306 . S
C154 O157 1.160 . S
O155 C154 1.306 . S
O155 Cd156 2.228 . S
Cd156 O155 2.228 . S
Cd156 O160 2.273 . S
Cd156 O164 2.277 . S
O157 C154 1.160 . S
O157 Cd158 2.203 . S
Cd158 O157 2.203 . S
Cd158 O160 2.411 . S
Cd158 O161 2.333 . S
Cd158 O162 2.352 . S
Cd158 O166 2.277 . S
Cd158 O167 2.356 . S
C159 O164 1.209 . S
C159 O166 1.226 . S
O160 Cd156 2.273 . S
O160 Cd158 2.411 . S
O160 C163 1.320 . S
O161 Cd158 2.333 . S
O161 C163 1.214 . S
O162 Cd158 2.352 . S
O162 C165 1.258 . S
C163 O160 1.320 . S
C163 O161 1.214 . S
O164 Cd156 2.277 . S
O164 C159 1.209 . S
C165 O162 1.258 . S
C165 O167 1.282 . S
O166 Cd158 2.277 . S
O166 C159 1.226 . S
O167 Cd158 2.356 . S
O167 C165 1.282 . S
C168 O169 1.306 . S
C168 O171 1.160 . S
O169 C168 1.306 . S
O169 Cd170 2.228 1_655 S
Cd170 O169 2.228 1_455 S
Cd170 O174 2.273 1_455 S
Cd170 O178 2.277 1_455 S
O171 C168 1.160 . S
O171 Cd172 2.203 . S
Cd172 O171 2.203 . S
Cd172 O174 2.411 . S
Cd172 O175 2.333 . S
Cd172 O176 2.352 . S
Cd172 O180 2.277 . S
Cd172 O181 2.356 . S
C173 O178 1.209 . S
C173 O180 1.226 . S
O174 Cd170 2.273 1_655 S
O174 Cd172 2.411 . S
O174 C177 1.320 . S
O175 Cd172 2.333 . S
O175 C177 1.214 . S
O176 Cd172 2.352 . S
O176 C179 1.258 . S
C177 O174 1.320 . S
C177 O175 1.214 . S
O178 Cd170 2.277 1_655 S
O178 C173 1.209 . S
C179 O176 1.258 . S
C179 O181 1.282 . S
O180 Cd172 2.277 . S
O180 C173 1.226 . S
O181 Cd172 2.356 . S
O181 C179 1.282 . S
C182 O183 1.306 . S
C182 O185 1.160 . S
O183 C182 1.306 . S
O183 Cd184 2.228 . S
Cd184 O183 2.228 . S
Cd184 O188 2.273 . S
Cd184 O192 2.277 . S
O185 C182 1.160 . S
O185 Cd186 2.203 . S
Cd186 O185 2.203 . S
Cd186 O188 2.411 . S
Cd186 O189 2.333 . S
Cd186 O190 2.352 . S
Cd186 O194 2.277 . S
Cd186 O195 2.356 . S
C187 O192 1.209 . S
C187 O194 1.226 . S
O188 Cd184 2.273 . S
O188 Cd186 2.411 . S
O188 C191 1.320 . S
O189 Cd186 2.333 . S
O189 C191 1.214 . S
O190 Cd186 2.352 . S
O190 C193 1.258 . S
C191 O188 1.320 . S
C191 O189 1.214 . S
O192 Cd184 2.277 . S
O192 C187 1.209 . S
C193 O190 1.258 . S
C193 O195 1.282 . S
O194 Cd186 2.277 . S
O194 C187 1.226 . S
O195 Cd186 2.356 . S
O195 C193 1.282 . S
C196 O197 1.306 . S
C196 O199 1.160 . S
O197 C196 1.306 . S
O197 Cd198 2.228 1_655 S
Cd198 O197 2.228 1_455 S
Cd198 O202 2.273 1_455 S
Cd198 O206 2.277 1_455 S
O199 C196 1.160 . S
O199 Cd200 2.203 . S
Cd200 O199 2.203 . S
Cd200 O202 2.411 . S
Cd200 O203 2.333 . S
Cd200 O204 2.352 . S
Cd200 O208 2.277 . S
Cd200 O209 2.356 . S
C201 O206 1.209 . S
C201 O208 1.226 . S
O202 Cd198 2.273 1_655 S
O202 Cd200 2.411 . S
O202 C205 1.320 . S
O203 Cd200 2.333 . S
O203 C205 1.214 . S
O204 Cd200 2.352 . S
O204 C207 1.258 . S
C205 O202 1.320 . S
C205 O203 1.214 . S
O206 Cd198 2.277 1_655 S
O206 C201 1.209 . S
C207 O204 1.258 . S
C207 O209 1.282 . S
O208 Cd200 2.277 . S
O208 C201 1.226 . S
O209 Cd200 2.356 . S
O209 C207 1.282 . S
C210 O211 1.306 . S
C210 O213 1.160 . S
O211 C210 1.306 . S
O211 Cd212 2.228 . S
Cd212 O211 2.228 . S
Cd212 O216 2.273 . S
Cd212 O220 2.277 . S
O213 C210 1.160 . S
O213 Cd214 2.203 . S
Cd214 O213 2.203 . S
Cd214 O216 2.411 . S
Cd214 O217 2.333 . S
Cd214 O218 2.352 . S
Cd214 O222 2.277 . S
Cd214 O223 2.356 . S
C215 O220 1.209 . S
C215 O222 1.226 . S
O216 Cd212 2.273 . S
O216 Cd214 2.411 . S
O216 C219 1.320 . S
O217 Cd214 2.333 . S
O217 C219 1.214 . S
O218 Cd214 2.352 . S
O218 C221 1.258 . S
C219 O216 1.320 . S
C219 O217 1.214 . S
O220 Cd212 2.277 . S
O220 C215 1.209 . S
C221 O218 1.258 . S
C221 O223 1.282 . S
O222 Cd214 2.277 . S
O222 C215 1.226 . S
O223 Cd214 2.356 . S
O223 C221 1.282 . S
C224 O225 1.306 . S
C224 O227 1.160 . S
O225 C224 1.306 . S
O225 Cd226 2.228 . S
Cd226 O225 2.228 . S
Cd226 O230 2.273 . S
Cd226 O234 2.277 . S
O227 C224 1.160 . S
O227 Cd228 2.203 . S
Cd228 O227 2.203 . S
Cd228 O230 2.411 . S
Cd228 O231 2.333 . S
Cd228 O232 2.352 . S
Cd228 O236 2.277 . S
Cd228 O237 2.356 . S
C229 O234 1.209 . S
C229 O236 1.226 . S
O230 Cd226 2.273 . S
O230 Cd228 2.411 . S
O230 C233 1.320 . S
O231 Cd228 2.333 . S
O231 C233 1.214 . S
O232 Cd228 2.352 . S
O232 C235 1.258 . S
C233 O230 1.320 . S
C233 O231 1.214 . S
O234 Cd226 2.277 . S
O234 C229 1.209 . S
C235 O232 1.258 . S
C235 O237 1.282 . S
O236 Cd228 2.277 . S
O236 C229 1.226 . S
O237 Cd228 2.356 . S
O237 C235 1.282 . S
C238 O239 1.306 . S
C238 O241 1.160 . S
O239 C238 1.306 . S
O239 Cd240 2.228 . S
Cd240 O239 2.228 . S
Cd240 O244 2.273 . S
Cd240 O248 2.277 . S
O241 C238 1.160 . S
O241 Cd242 2.203 . S
Cd242 O241 2.203 . S
Cd242 O244 2.411 . S
Cd242 O245 2.333 . S
Cd242 O246 2.352 . S
Cd242 O250 2.277 . S
Cd242 O251 2.356 . S
C243 O248 1.209 . S
C243 O250 1.226 . S
O244 Cd240 2.273 . S
O244 Cd242 2.411 . S
O244 C247 1.320 . S
O245 Cd242 2.333 . S
O245 C247 1.214 . S
O246 Cd242 2.352 . S
O246 C249 1.258 . S
C247 O244 1.320 . S
C247 O245 1.214 . S
O248 Cd240 2.277 . S
O248 C243 1.209 . S
C249 O246 1.258 . S
C249 O251 1.282 . S
O250 Cd242 2.277 . S
O250 C243 1.226 . S
O251 Cd242 2.356 . S
O251 C249 1.282 . S
C252 O253 1.306 . S
C252 O255 1.160 . S
O253 C252 1.306 . S
O253 Cd254 2.228 . S
Cd254 O253 2.228 . S
Cd254 O258 2.273 . S
Cd254 O262 2.277 . S
O255 C252 1.160 . S
O255 Cd256 2.203 . S
Cd256 O255 2.203 . S
Cd256 O258 2.411 . S
Cd256 O259 2.333 . S
Cd256 O260 2.352 . S
Cd256 O264 2.277 . S
Cd256 O265 2.356 . S
C257 O262 1.209 . S
C257 O264 1.226 . S
O258 Cd254 2.273 . S
O258 Cd256 2.411 . S
O258 C261 1.320 . S
O259 Cd256 2.333 . S
O259 C261 1.214 . S
O260 Cd256 2.352 . S
O260 C263 1.258 . S
C261 O258 1.320 . S
C261 O259 1.214 . S
O262 Cd254 2.277 . S
O262 C257 1.209 . S
C263 O260 1.258 . S
C263 O265 1.282 . S
O264 Cd256 2.277 . S
O264 C257 1.226 . S
O265 Cd256 2.356 . S
O265 C263 1.282 . S
C266 O267 1.306 . S
C266 O269 1.160 . S
O267 C266 1.306 . S
O267 Cd268 2.228 . S
Cd268 O267 2.228 . S
Cd268 O272 2.273 . S
Cd268 O276 2.277 . S
O269 C266 1.160 . S
O269 Cd270 2.203 . S
Cd270 O269 2.203 . S
Cd270 O272 2.411 . S
Cd270 O273 2.333 . S
Cd270 O274 2.352 . S
Cd270 O278 2.277 . S
Cd270 O279 2.356 . S
C271 O276 1.209 . S
C271 O278 1.226 . S
O272 Cd268 2.273 . S
O272 Cd270 2.411 . S
O272 C275 1.320 . S
O273 Cd270 2.333 . S
O273 C275 1.214 . S
O274 Cd270 2.352 . S
O274 C277 1.258 . S
C275 O272 1.320 . S
C275 O273 1.214 . S
O276 Cd268 2.277 . S
O276 C271 1.209 . S
C277 O274 1.258 . S
C277 O279 1.282 . S
O278 Cd270 2.277 . S
O278 C271 1.226 . S
O279 Cd270 2.356 . S
O279 C277 1.282 . S
C280 O281 1.306 . S
C280 O283 1.160 . S
O281 C280 1.306 . S
O281 Cd282 2.228 . S
Cd282 O281 2.228 . S
Cd282 O286 2.273 . S
Cd282 O290 2.277 . S
O283 C280 1.160 . S
O283 Cd284 2.203 . S
Cd284 O283 2.203 . S
Cd284 O286 2.411 . S
Cd284 O287 2.333 . S
Cd284 O288 2.352 . S
Cd284 O292 2.277 . S
Cd284 O293 2.356 . S
C285 O290 1.209 . S
C285 O292 1.226 . S
O286 Cd282 2.273 . S
O286 Cd284 2.411 . S
O286 C289 1.320 . S
O287 Cd284 2.333 . S
O287 C289 1.214 . S
O288 Cd284 2.352 . S
O288 C291 1.258 . S
C289 O286 1.320 . S
C289 O287 1.214 . S
O290 Cd282 2.277 . S
O290 C285 1.209 . S
C291 O288 1.258 . S
C291 O293 1.282 . S
O292 Cd284 2.277 . S
O292 C285 1.226 . S
O293 Cd284 2.356 . S
O293 C291 1.282 . S
C294 O295 1.306 . S
C294 O297 1.160 . S
O295 C294 1.306 . S
O295 Cd296 2.228 . S
Cd296 O295 2.228 . S
Cd296 O300 2.273 . S
Cd296 O304 2.277 . S
O297 C294 1.160 . S
O297 Cd298 2.203 . S
Cd298 O297 2.203 . S
Cd298 O300 2.411 . S
Cd298 O301 2.333 . S
Cd298 O302 2.352 . S
Cd298 O306 2.277 . S
Cd298 O307 2.356 . S
C299 O304 1.209 . S
C299 O306 1.226 . S
O300 Cd296 2.273 . S
O300 Cd298 2.411 . S
O300 C303 1.320 . S
O301 Cd298 2.333 . S
O301 C303 1.214 . S
O302 Cd298 2.352 . S
O302 C305 1.258 . S
C303 O300 1.320 . S
C303 O301 1.214 . S
O304 Cd296 2.277 . S
O304 C299 1.209 . S
C305 O302 1.258 . S
C305 O307 1.282 . S
O306 Cd298 2.277 . S
O306 C299 1.226 . S
O307 Cd298 2.356 . S
O307 C305 1.282 . S
C308 O309 1.306 . S
C308 O311 1.160 . S
O309 C308 1.306 . S
O309 Cd310 2.228 . S
Cd310 O309 2.228 . S
Cd310 O314 2.273 . S
Cd310 O318 2.277 . S
O311 C308 1.160 . S
O311 Cd312 2.203 . S
Cd312 O311 2.203 . S
Cd312 O314 2.411 . S
Cd312 O315 2.333 . S
Cd312 O316 2.352 . S
Cd312 O320 2.277 . S
Cd312 O321 2.356 . S
C313 O318 1.209 . S
C313 O320 1.226 . S
O314 Cd310 2.273 . S
O314 Cd312 2.411 . S
O314 C317 1.320 . S
O315 Cd312 2.333 . S
O315 C317 1.214 . S
O316 Cd312 2.352 . S
O316 C319 1.258 . S
C317 O314 1.320 . S
C317 O315 1.214 . S
O318 Cd310 2.277 . S
O318 C313 1.209 . S
C319 O316 1.258 . S
C319 O321 1.282 . S
O320 Cd312 2.277 . S
O320 C313 1.226 . S
O321 Cd312 2.356 . S
O321 C319 1.282 . S
C322 O323 1.306 . S
C322 O325 1.160 . S
O323 C322 1.306 . S
O323 Cd324 2.228 . S
Cd324 O323 2.228 . S
Cd324 O328 2.273 . S
Cd324 O332 2.277 . S
O325 C322 1.160 . S
O325 Cd326 2.203 . S
Cd326 O325 2.203 . S
Cd326 O328 2.411 . S
Cd326 O329 2.333 . S
Cd326 O330 2.352 . S
Cd326 O334 2.277 . S
Cd326 O335 2.356 . S
C327 O332 1.209 . S
C327 O334 1.226 . S
O328 Cd324 2.273 . S
O328 Cd326 2.411 . S
O328 C331 1.320 . S
O329 Cd326 2.333 . S
O329 C331 1.214 . S
O330 Cd326 2.352 . S
O330 C333 1.258 . S
C331 O328 1.320 . S
C331 O329 1.214 . S
O332 Cd324 2.277 . S
O332 C327 1.209 . S
C333 O330 1.258 . S
C333 O335 1.282 . S
O334 Cd326 2.277 . S
O334 C327 1.226 . S
O335 Cd326 2.356 . S
O335 C333 1.282 . S
C336 O337 1.306 . S
C336 O339 1.160 . S
O337 C336 1.306 . S
O337 Cd338 2.228 . S
Cd338 O337 2.228 . S
Cd338 O342 2.273 . S
Cd338 O346 2.277 . S
O339 C336 1.160 . S
O339 Cd340 2.203 . S
Cd340 O339 2.203 . S
Cd340 O342 2.411 . S
Cd340 O343 2.333 . S
Cd340 O344 2.352 . S
Cd340 O348 2.277 . S
Cd340 O349 2.356 . S
C341 O346 1.209 . S
C341 O348 1.226 . S
O342 Cd338 2.273 . S
O342 Cd340 2.411 . S
O342 C345 1.320 . S
O343 Cd340 2.333 . S
O343 C345 1.214 . S
O344 Cd340 2.352 . S
O344 C347 1.258 . S
C345 O342 1.320 . S
C345 O343 1.214 . S
O346 Cd338 2.277 . S
O346 C341 1.209 . S
C347 O344 1.258 . S
C347 O349 1.282 . S
O348 Cd340 2.277 . S
O348 C341 1.226 . S
O349 Cd340 2.356 . S
O349 C347 1.282 . S
C350 O351 1.306 . S
C350 O353 1.160 . S
O351 C350 1.306 . S
O351 Cd352 2.228 . S
Cd352 O351 2.228 . S
Cd352 O356 2.273 . S
Cd352 O360 2.277 . S
O353 C350 1.160 . S
O353 Cd354 2.203 . S
Cd354 O353 2.203 . S
Cd354 O356 2.411 . S
Cd354 O357 2.333 . S
Cd354 O358 2.352 . S
Cd354 O362 2.277 . S
Cd354 O363 2.356 . S
C355 O360 1.209 . S
C355 O362 1.226 . S
O356 Cd352 2.273 . S
O356 Cd354 2.411 . S
O356 C359 1.320 . S
O357 Cd354 2.333 . S
O357 C359 1.214 . S
O358 Cd354 2.352 . S
O358 C361 1.258 . S
C359 O356 1.320 . S
C359 O357 1.214 . S
O360 Cd352 2.277 . S
O360 C355 1.209 . S
C361 O358 1.258 . S
C361 O363 1.282 . S
O362 Cd354 2.277 . S
O362 C355 1.226 . S
O363 Cd354 2.356 . S
O363 C361 1.282 . S
C364 O365 1.306 . S
C364 O367 1.160 . S
O365 C364 1.306 . S
O365 Cd366 2.228 . S
Cd366 O365 2.228 . S
Cd366 O370 2.273 . S
Cd366 O374 2.277 1_556 S
O367 C364 1.160 . S
O367 Cd368 2.203 . S
Cd368 O367 2.203 . S
Cd368 O370 2.411 . S
Cd368 O371 2.333 . S
Cd368 O372 2.352 . S
Cd368 O376 2.277 1_556 S
Cd368 O377 2.356 . S
C369 O374 1.209 . S
C369 O376 1.226 . S
O370 Cd366 2.273 . S
O370 Cd368 2.411 . S
O370 C373 1.320 . S
O371 Cd368 2.333 . S
O371 C373 1.214 . S
O372 Cd368 2.352 . S
O372 C375 1.258 . S
C373 O370 1.320 . S
C373 O371 1.214 . S
O374 Cd366 2.277 1_554 S
O374 C369 1.209 . S
C375 O372 1.258 . S
C375 O377 1.282 . S
O376 Cd368 2.277 1_554 S
O376 C369 1.226 . S
O377 Cd368 2.356 . S
O377 C375 1.282 . S
C378 O379 1.306 . S
C378 O381 1.160 . S
O379 C378 1.306 . S
O379 Cd380 2.228 . S
Cd380 O379 2.228 . S
Cd380 O384 2.273 . S
Cd380 O388 2.277 1_556 S
O381 C378 1.160 . S
O381 Cd382 2.203 . S
Cd382 O381 2.203 . S
Cd382 O384 2.411 . S
Cd382 O385 2.333 . S
Cd382 O386 2.352 . S
Cd382 O390 2.277 1_556 S
Cd382 O391 2.356 . S
C383 O388 1.209 . S
C383 O390 1.226 . S
O384 Cd380 2.273 . S
O384 Cd382 2.411 . S
O384 C387 1.320 . S
O385 Cd382 2.333 . S
O385 C387 1.214 . S
O386 Cd382 2.352 . S
O386 C389 1.258 . S
C387 O384 1.320 . S
C387 O385 1.214 . S
O388 Cd380 2.277 1_554 S
O388 C383 1.209 . S
C389 O386 1.258 . S
C389 O391 1.282 . S
O390 Cd382 2.277 1_554 S
O390 C383 1.226 . S
O391 Cd382 2.356 . S
O391 C389 1.282 . S
C392 O393 1.306 . S
C392 O395 1.160 . S
O393 C392 1.306 . S
O393 Cd394 2.228 . S
Cd394 O393 2.228 . S
Cd394 O398 2.273 . S
Cd394 O402 2.277 . S
O395 C392 1.160 . S
O395 Cd396 2.203 . S
Cd396 O395 2.203 . S
Cd396 O398 2.411 . S
Cd396 O399 2.333 . S
Cd396 O400 2.352 . S
Cd396 O404 2.277 . S
Cd396 O405 2.356 . S
C397 O402 1.209 . S
C397 O404 1.226 . S
O398 Cd394 2.273 . S
O398 Cd396 2.411 . S
O398 C401 1.320 . S
O399 Cd396 2.333 . S
O399 C401 1.214 . S
O400 Cd396 2.352 . S
O400 C403 1.258 . S
C401 O398 1.320 . S
C401 O399 1.214 . S
O402 Cd394 2.277 . S
O402 C397 1.209 . S
C403 O400 1.258 . S
C403 O405 1.282 . S
O404 Cd396 2.277 . S
O404 C397 1.226 . S
O405 Cd396 2.356 . S
O405 C403 1.282 . S
C406 O407 1.306 . S
C406 O409 1.160 . S
O407 C406 1.306 . S
O407 Cd408 2.228 . S
Cd408 O407 2.228 . S
Cd408 O412 2.273 . S
Cd408 O416 2.277 . S
O409 C406 1.160 . S
O409 Cd410 2.203 . S
Cd410 O409 2.203 . S
Cd410 O412 2.411 . S
Cd410 O413 2.333 . S
Cd410 O414 2.352 . S
Cd410 O418 2.277 . S
Cd410 O419 2.356 . S
C411 O416 1.209 . S
C411 O418 1.226 . S
O412 Cd408 2.273 . S
O412 Cd410 2.411 . S
O412 C415 1.320 . S
O413 Cd410 2.333 . S
O413 C415 1.214 . S
O414 Cd410 2.352 . S
O414 C417 1.258 . S
C415 O412 1.320 . S
C415 O413 1.214 . S
O416 Cd408 2.277 . S
O416 C411 1.209 . S
C417 O414 1.258 . S
C417 O419 1.282 . S
O418 Cd410 2.277 . S
O418 C411 1.226 . S
O419 Cd410 2.356 . S
O419 C417 1.282 . S
C420 O421 1.306 . S
C420 O423 1.160 . S
O421 C420 1.306 . S
O421 Cd422 2.228 . S
Cd422 O421 2.228 . S
Cd422 O426 2.273 . S
Cd422 O430 2.277 1_554 S
O423 C420 1.160 . S
O423 Cd424 2.203 . S
Cd424 O423 2.203 . S
Cd424 O426 2.411 . S
Cd424 O427 2.333 . S
Cd424 O428 2.352 . S
Cd424 O432 2.277 1_554 S
Cd424 O433 2.356 . S
C425 O430 1.209 . S
C425 O432 1.226 . S
O426 Cd422 2.273 . S
O426 Cd424 2.411 . S
O426 C429 1.320 . S
O427 Cd424 2.333 . S
O427 C429 1.214 . S
O428 Cd424 2.352 . S
O428 C431 1.258 . S
C429 O426 1.320 . S
C429 O427 1.214 . S
O430 Cd422 2.277 1_556 S
O430 C425 1.209 . S
C431 O428 1.258 . S
C431 O433 1.282 . S
O432 Cd424 2.277 1_556 S
O432 C425 1.226 . S
O433 Cd424 2.356 . S
O433 C431 1.282 . S
C434 O435 1.306 . S
C434 O437 1.160 . S
O435 C434 1.306 . S
O435 Cd436 2.228 . S
Cd436 O435 2.228 . S
Cd436 O440 2.273 . S
Cd436 O444 2.277 1_554 S
O437 C434 1.160 . S
O437 Cd438 2.203 . S
Cd438 O437 2.203 . S
Cd438 O440 2.411 . S
Cd438 O441 2.333 . S
Cd438 O442 2.352 . S
Cd438 O446 2.277 1_554 S
Cd438 O447 2.356 . S
C439 O444 1.209 . S
C439 O446 1.226 . S
O440 Cd436 2.273 . S
O440 Cd438 2.411 . S
O440 C443 1.320 . S
O441 Cd438 2.333 . S
O441 C443 1.214 . S
O442 Cd438 2.352 . S
O442 C445 1.258 . S
C443 O440 1.320 . S
C443 O441 1.214 . S
O444 Cd436 2.277 1_556 S
O444 C439 1.209 . S
C445 O442 1.258 . S
C445 O447 1.282 . S
O446 Cd438 2.277 1_556 S
O446 C439 1.226 . S
O447 Cd438 2.356 . S
O447 C445 1.282 . S
H448 C456 0.950 . S
H449 C461 0.950 . S
H450 C458 0.950 . S
H451 C460 0.950 . S
H452 C462 0.950 . S
H453 C464 0.950 . S
H454 C466 0.950 . S
H455 C467 0.950 . S
C456 H448 0.950 . S
C456 C457 1.386 . S
C456 C458 1.391 . S
C457 C456 1.386 . S
C457 C461 1.393 . S
C458 H450 0.950 . S
C458 C456 1.391 . S
C458 C459 1.400 . S
C459 C458 1.400 . S
C459 C460 1.398 . S
C459 C465 1.491 . S
C460 H451 0.950 . S
C460 C459 1.398 . S
C460 C461 1.391 . S
C461 H449 0.950 . S
C461 C457 1.393 . S
C461 C460 1.391 . S
C462 H452 0.950 . S
C462 C463 1.386 . S
C462 C464 1.391 . S
C463 C462 1.386 . S
C463 C467 1.393 . S
C464 H453 0.950 . S
C464 C462 1.391 . S
C464 C465 1.400 . S
C465 C459 1.491 . S
C465 C464 1.400 . S
C465 C466 1.398 . S
C466 H454 0.950 . S
C466 C465 1.398 . S
C466 C467 1.391 . S
C467 H455 0.950 . S
C467 C463 1.393 . S
C467 C466 1.391 . S
H468 C476 0.950 . S
H469 C481 0.950 . S
H470 C478 0.950 . S
H471 C480 0.950 . S
H472 C482 0.950 . S
H473 C484 0.950 . S
H474 C486 0.950 . S
H475 C487 0.950 . S
C476 H468 0.950 . S
C476 C477 1.386 . S
C476 C478 1.391 . S
C477 C476 1.386 . S
C477 C481 1.393 . S
C478 H470 0.950 . S
C478 C476 1.391 . S
C478 C479 1.400 . S
C479 C478 1.400 . S
C479 C480 1.398 . S
C479 C485 1.491 . S
C480 H471 0.950 . S
C480 C479 1.398 . S
C480 C481 1.391 . S
C481 H469 0.950 . S
C481 C477 1.393 . S
C481 C480 1.391 . S
C482 H472 0.950 . S
C482 C483 1.386 . S
C482 C484 1.391 . S
C483 C482 1.386 . S
C483 C487 1.393 . S
C484 H473 0.950 . S
C484 C482 1.391 . S
C484 C485 1.400 . S
C485 C479 1.491 . S
C485 C484 1.400 . S
C485 C486 1.398 . S
C486 H474 0.950 . S
C486 C485 1.398 . S
C486 C487 1.391 . S
C487 H475 0.950 . S
C487 C483 1.393 . S
C487 C486 1.391 . S
H488 C496 0.950 . S
H489 C501 0.950 . S
H490 C498 0.950 . S
H491 C500 0.950 . S
H492 C502 0.950 . S
H493 C504 0.950 . S
H494 C506 0.950 . S
H495 C507 0.950 . S
C496 H488 0.950 . S
C496 C497 1.386 . S
C496 C498 1.391 . S
C497 C496 1.386 . S
C497 C501 1.393 . S
C498 H490 0.950 . S
C498 C496 1.391 . S
C498 C499 1.400 . S
C499 C498 1.400 . S
C499 C500 1.398 . S
C499 C505 1.491 . S
C500 H491 0.950 . S
C500 C499 1.398 . S
C500 C501 1.391 . S
C501 H489 0.950 . S
C501 C497 1.393 . S
C501 C500 1.391 . S
C502 H492 0.950 . S
C502 C503 1.386 . S
C502 C504 1.391 . S
C503 C502 1.386 . S
C503 C507 1.393 . S
C504 H493 0.950 . S
C504 C502 1.391 . S
C504 C505 1.400 . S
C505 C499 1.491 . S
C505 C504 1.400 . S
C505 C506 1.398 . S
C506 H494 0.950 . S
C506 C505 1.398 . S
C506 C507 1.391 . S
C507 H495 0.950 . S
C507 C503 1.393 . S
C507 C506 1.391 . S
H508 C516 0.950 . S
H509 C521 0.950 . S
H510 C518 0.950 . S
H511 C520 0.950 . S
H512 C522 0.950 . S
H513 C524 0.950 . S
H514 C526 0.950 . S
H515 C527 0.950 . S
C516 H508 0.950 . S
C516 C517 1.386 . S
C516 C518 1.391 . S
C517 C516 1.386 . S
C517 C521 1.393 . S
C518 H510 0.950 . S
C518 C516 1.391 . S
C518 C519 1.400 . S
C519 C518 1.400 . S
C519 C520 1.398 . S
C519 C525 1.491 . S
C520 H511 0.950 . S
C520 C519 1.398 . S
C520 C521 1.391 . S
C521 H509 0.950 . S
C521 C517 1.393 . S
C521 C520 1.391 . S
C522 H512 0.950 . S
C522 C523 1.386 . S
C522 C524 1.391 . S
C523 C522 1.386 . S
C523 C527 1.393 . S
C524 H513 0.950 . S
C524 C522 1.391 . S
C524 C525 1.400 . S
C525 C519 1.491 . S
C525 C524 1.400 . S
C525 C526 1.398 . S
C526 H514 0.950 . S
C526 C525 1.398 . S
C526 C527 1.391 . S
C527 H515 0.950 . S
C527 C523 1.393 . S
C527 C526 1.391 . S
H528 C536 0.950 . S
H529 C541 0.950 . S
H530 C538 0.950 . S
H531 C540 0.950 . S
H532 C542 0.950 . S
H533 C544 0.950 . S
H534 C546 0.950 . S
H535 C547 0.950 . S
C536 H528 0.950 . S
C536 C537 1.386 . S
C536 C538 1.391 . S
C537 C536 1.386 . S
C537 C541 1.393 . S
C538 H530 0.950 . S
C538 C536 1.391 . S
C538 C539 1.400 . S
C539 C538 1.400 . S
C539 C540 1.398 . S
C539 C545 1.491 . S
C540 H531 0.950 . S
C540 C539 1.398 . S
C540 C541 1.391 . S
C541 H529 0.950 . S
C541 C537 1.393 . S
C541 C540 1.391 . S
C542 H532 0.950 . S
C542 C543 1.386 . S
C542 C544 1.391 . S
C543 C542 1.386 . S
C543 C547 1.393 . S
C544 H533 0.950 . S
C544 C542 1.391 . S
C544 C545 1.400 . S
C545 C539 1.491 . S
C545 C544 1.400 . S
C545 C546 1.398 . S
C546 H534 0.950 . S
C546 C545 1.398 . S
C546 C547 1.391 . S
C547 H535 0.950 . S
C547 C543 1.393 . S
C547 C546 1.391 . S
H548 C556 0.950 . S
H549 C561 0.950 . S
H550 C558 0.950 . S
H551 C560 0.950 . S
H552 C562 0.950 . S
H553 C564 0.950 . S
H554 C566 0.950 . S
H555 C567 0.950 . S
C556 H548 0.950 . S
C556 C557 1.386 . S
C556 C558 1.391 . S
C557 C556 1.386 . S
C557 C561 1.393 . S
C558 H550 0.950 . S
C558 C556 1.391 . S
C558 C559 1.400 . S
C559 C558 1.400 . S
C559 C560 1.398 . S
C559 C565 1.491 . S
C560 H551 0.950 . S
C560 C559 1.398 . S
C560 C561 1.391 . S
C561 H549 0.950 . S
C561 C557 1.393 . S
C561 C560 1.391 . S
C562 H552 0.950 . S
C562 C563 1.386 . S
C562 C564 1.391 . S
C563 C562 1.386 . S
C563 C567 1.393 . S
C564 H553 0.950 . S
C564 C562 1.391 . S
C564 C565 1.400 . S
C565 C559 1.491 . S
C565 C564 1.400 . S
C565 C566 1.398 . S
C566 H554 0.950 . S
C566 C565 1.398 . S
C566 C567 1.391 . S
C567 H555 0.950 . S
C567 C563 1.393 . S
C567 C566 1.391 . S
H568 C576 0.950 . S
H569 C581 0.950 . S
H570 C578 0.950 . S
H571 C580 0.950 . S
H572 C582 0.950 . S
H573 C584 0.950 . S
H574 C586 0.950 . S
H575 C587 0.950 . S
C576 H568 0.950 . S
C576 C577 1.386 . S
C576 C578 1.391 . S
C577 C576 1.386 . S
C577 C581 1.393 . S
C578 H570 0.950 . S
C578 C576 1.391 . S
C578 C579 1.400 . S
C579 C578 1.400 . S
C579 C580 1.398 . S
C579 C585 1.491 . S
C580 H571 0.950 . S
C580 C579 1.398 . S
C580 C581 1.391 . S
C581 H569 0.950 . S
C581 C577 1.393 . S
C581 C580 1.391 . S
C582 H572 0.950 . S
C582 C583 1.386 . S
C582 C584 1.391 . S
C583 C582 1.386 . S
C583 C587 1.393 . S
C584 H573 0.950 . S
C584 C582 1.391 . S
C584 C585 1.400 . S
C585 C579 1.491 . S
C585 C584 1.400 . S
C585 C586 1.398 . S
C586 H574 0.950 . S
C586 C585 1.398 . S
C586 C587 1.391 . S
C587 H575 0.950 . S
C587 C583 1.393 . S
C587 C586 1.391 . S
H588 C596 0.950 . S
H589 C601 0.950 . S
H590 C598 0.950 . S
H591 C600 0.950 . S
H592 C602 0.950 . S
H593 C604 0.950 . S
H594 C606 0.950 . S
H595 C607 0.950 . S
C596 H588 0.950 . S
C596 C597 1.386 . S
C596 C598 1.391 . S
C597 C596 1.386 . S
C597 C601 1.393 . S
C598 H590 0.950 . S
C598 C596 1.391 . S
C598 C599 1.400 . S
C599 C598 1.400 . S
C599 C600 1.398 . S
C599 C605 1.491 . S
C600 H591 0.950 . S
C600 C599 1.398 . S
C600 C601 1.391 . S
C601 H589 0.950 . S
C601 C597 1.393 . S
C601 C600 1.391 . S
C602 H592 0.950 . S
C602 C603 1.386 . S
C602 C604 1.391 . S
C603 C602 1.386 . S
C603 C607 1.393 . S
C604 H593 0.950 . S
C604 C602 1.391 . S
C604 C605 1.400 . S
C605 C599 1.491 . S
C605 C604 1.400 . S
C605 C606 1.398 . S
C606 H594 0.950 . S
C606 C605 1.398 . S
C606 C607 1.391 . S
C607 H595 0.950 . S
C607 C603 1.393 . S
C607 C606 1.391 . S
H608 C616 0.950 . S
H609 C621 0.950 . S
H610 C618 0.950 . S
H611 C620 0.950 . S
H612 C622 0.950 . S
H613 C624 0.950 . S
H614 C626 0.950 . S
H615 C627 0.950 . S
C616 H608 0.950 . S
C616 C617 1.386 . S
C616 C618 1.391 . S
C617 C616 1.386 . S
C617 C621 1.393 . S
C618 H610 0.950 . S
C618 C616 1.391 . S
C618 C619 1.400 . S
C619 C618 1.400 . S
C619 C620 1.398 . S
C619 C625 1.491 . S
C620 H611 0.950 . S
C620 C619 1.398 . S
C620 C621 1.391 . S
C621 H609 0.950 . S
C621 C617 1.393 . S
C621 C620 1.391 . S
C622 H612 0.950 . S
C622 C623 1.386 . S
C622 C624 1.391 . S
C623 C622 1.386 . S
C623 C627 1.393 . S
C624 H613 0.950 . S
C624 C622 1.391 . S
C624 C625 1.400 . S
C625 C619 1.491 . S
C625 C624 1.400 . S
C625 C626 1.398 . S
C626 H614 0.950 . S
C626 C625 1.398 . S
C626 C627 1.391 . S
C627 H615 0.950 . S
C627 C623 1.393 . S
C627 C626 1.391 . S
H628 C636 0.950 . S
H629 C641 0.950 . S
H630 C638 0.950 . S
H631 C640 0.950 . S
H632 C642 0.950 . S
H633 C644 0.950 . S
H634 C646 0.950 . S
H635 C647 0.950 . S
C636 H628 0.950 . S
C636 C637 1.386 . S
C636 C638 1.391 . S
C637 C636 1.386 . S
C637 C641 1.393 . S
C638 H630 0.950 . S
C638 C636 1.391 . S
C638 C639 1.400 . S
C639 C638 1.400 . S
C639 C640 1.398 . S
C639 C645 1.491 . S
C640 H631 0.950 . S
C640 C639 1.398 . S
C640 C641 1.391 . S
C641 H629 0.950 . S
C641 C637 1.393 . S
C641 C640 1.391 . S
C642 H632 0.950 . S
C642 C643 1.386 . S
C642 C644 1.391 . S
C643 C642 1.386 . S
C643 C647 1.393 . S
C644 H633 0.950 . S
C644 C642 1.391 . S
C644 C645 1.400 . S
C645 C639 1.491 . S
C645 C644 1.400 . S
C645 C646 1.398 . S
C646 H634 0.950 . S
C646 C645 1.398 . S
C646 C647 1.391 . S
C647 H635 0.950 . S
C647 C643 1.393 . S
C647 C646 1.391 . S
H648 C656 0.950 . S
H649 C661 0.950 . S
H650 C658 0.950 . S
H651 C660 0.950 . S
H652 C662 0.950 . S
H653 C664 0.950 . S
H654 C666 0.950 . S
H655 C667 0.950 . S
C656 H648 0.950 . S
C656 C657 1.386 . S
C656 C658 1.391 . S
C657 C656 1.386 . S
C657 C661 1.393 . S
C658 H650 0.950 . S
C658 C656 1.391 . S
C658 C659 1.400 . S
C659 C658 1.400 . S
C659 C660 1.398 . S
C659 C665 1.491 . S
C660 H651 0.950 . S
C660 C659 1.398 . S
C660 C661 1.391 . S
C661 H649 0.950 . S
C661 C657 1.393 . S
C661 C660 1.391 . S
C662 H652 0.950 . S
C662 C663 1.386 . S
C662 C664 1.391 . S
C663 C662 1.386 . S
C663 C667 1.393 . S
C664 H653 0.950 . S
C664 C662 1.391 . S
C664 C665 1.400 . S
C665 C659 1.491 . S
C665 C664 1.400 . S
C665 C666 1.398 . S
C666 H654 0.950 . S
C666 C665 1.398 . S
C666 C667 1.391 . S
C667 H655 0.950 . S
C667 C663 1.393 . S
C667 C666 1.391 . S
H668 C676 0.950 . S
H669 C681 0.950 . S
H670 C678 0.950 . S
H671 C680 0.950 . S
H672 C682 0.950 . S
H673 C684 0.950 . S
H674 C686 0.950 . S
H675 C687 0.950 . S
C676 H668 0.950 . S
C676 C677 1.386 . S
C676 C678 1.391 . S
C677 C676 1.386 . S
C677 C681 1.393 . S
C678 H670 0.950 . S
C678 C676 1.391 . S
C678 C679 1.400 . S
C679 C678 1.400 . S
C679 C680 1.398 . S
C679 C685 1.491 . S
C680 H671 0.950 . S
C680 C679 1.398 . S
C680 C681 1.391 . S
C681 H669 0.950 . S
C681 C677 1.393 . S
C681 C680 1.391 . S
C682 H672 0.950 . S
C682 C683 1.386 . S
C682 C684 1.391 . S
C683 C682 1.386 . S
C683 C687 1.393 . S
C684 H673 0.950 . S
C684 C682 1.391 . S
C684 C685 1.400 . S
C685 C679 1.491 . S
C685 C684 1.400 . S
C685 C686 1.398 . S
C686 H674 0.950 . S
C686 C685 1.398 . S
C686 C687 1.391 . S
C687 H675 0.950 . S
C687 C683 1.393 . S
C687 C686 1.391 . S
H688 C696 0.950 . S
H689 C701 0.950 . S
H690 C698 0.950 . S
H691 C700 0.950 . S
H692 C702 0.950 . S
H693 C704 0.950 . S
H694 C706 0.950 . S
H695 C707 0.950 . S
C696 H688 0.950 . S
C696 C697 1.386 . S
C696 C698 1.391 . S
C697 C696 1.386 . S
C697 C701 1.393 . S
C698 H690 0.950 . S
C698 C696 1.391 . S
C698 C699 1.400 . S
C699 C698 1.400 . S
C699 C700 1.398 . S
C699 C705 1.491 . S
C700 H691 0.950 . S
C700 C699 1.398 . S
C700 C701 1.391 . S
C701 H689 0.950 . S
C701 C697 1.393 . S
C701 C700 1.391 . S
C702 H692 0.950 . S
C702 C703 1.386 . S
C702 C704 1.391 . S
C703 C702 1.386 . S
C703 C707 1.393 . S
C704 H693 0.950 . S
C704 C702 1.391 . S
C704 C705 1.400 . S
C705 C699 1.491 . S
C705 C704 1.400 . S
C705 C706 1.398 . S
C706 H694 0.950 . S
C706 C705 1.398 . S
C706 C707 1.391 . S
C707 H695 0.950 . S
C707 C703 1.393 . S
C707 C706 1.391 . S
H708 C716 0.950 . S
H709 C721 0.950 . S
H710 C718 0.950 . S
H711 C720 0.950 . S
H712 C722 0.950 . S
H713 C724 0.950 . S
H714 C726 0.950 . S
H715 C727 0.950 . S
C716 H708 0.950 . S
C716 C717 1.386 . S
C716 C718 1.391 . S
C717 C716 1.386 . S
C717 C721 1.393 . S
C718 H710 0.950 . S
C718 C716 1.391 . S
C718 C719 1.400 . S
C719 C718 1.400 . S
C719 C720 1.398 . S
C719 C725 1.491 . S
C720 H711 0.950 . S
C720 C719 1.398 . S
C720 C721 1.391 . S
C721 H709 0.950 . S
C721 C717 1.393 . S
C721 C720 1.391 . S
C722 H712 0.950 . S
C722 C723 1.386 . S
C722 C724 1.391 . S
C723 C722 1.386 . S
C723 C727 1.393 . S
C724 H713 0.950 . S
C724 C722 1.391 . S
C724 C725 1.400 . S
C725 C719 1.491 . S
C725 C724 1.400 . S
C725 C726 1.398 . S
C726 H714 0.950 . S
C726 C725 1.398 . S
C726 C727 1.391 . S
C727 H715 0.950 . S
C727 C723 1.393 . S
C727 C726 1.391 . S
H728 C736 0.950 . S
H729 C741 0.950 . S
H730 C738 0.950 . S
H731 C740 0.950 . S
H732 C742 0.950 . S
H733 C744 0.950 . S
H734 C746 0.950 . S
H735 C747 0.950 . S
C736 H728 0.950 . S
C736 C737 1.386 . S
C736 C738 1.391 . S
C737 C736 1.386 . S
C737 C741 1.393 . S
C738 H730 0.950 . S
C738 C736 1.391 . S
C738 C739 1.400 . S
C739 C738 1.400 . S
C739 C740 1.398 . S
C739 C745 1.491 . S
C740 H731 0.950 . S
C740 C739 1.398 . S
C740 C741 1.391 . S
C741 H729 0.950 . S
C741 C737 1.393 . S
C741 C740 1.391 . S
C742 H732 0.950 . S
C742 C743 1.386 . S
C742 C744 1.391 . S
C743 C742 1.386 . S
C743 C747 1.393 . S
C744 H733 0.950 . S
C744 C742 1.391 . S
C744 C745 1.400 . S
C745 C739 1.491 . S
C745 C744 1.400 . S
C745 C746 1.398 . S
C746 H734 0.950 . S
C746 C745 1.398 . S
C746 C747 1.391 . S
C747 H735 0.950 . S
C747 C743 1.393 . S
C747 C746 1.391 . S
H748 C756 0.950 . S
H749 C761 0.950 . S
H750 C758 0.950 . S
H751 C760 0.950 . S
H752 C762 0.950 . S
H753 C764 0.950 . S
H754 C766 0.950 . S
H755 C767 0.950 . S
C756 H748 0.950 . S
C756 C757 1.386 . S
C756 C758 1.391 . S
C757 C756 1.386 . S
C757 C761 1.393 . S
C758 H750 0.950 . S
C758 C756 1.391 . S
C758 C759 1.400 . S
C759 C758 1.400 . S
C759 C760 1.398 . S
C759 C765 1.491 . S
C760 H751 0.950 . S
C760 C759 1.398 . S
C760 C761 1.391 . S
C761 H749 0.950 . S
C761 C757 1.393 . S
C761 C760 1.391 . S
C762 H752 0.950 . S
C762 C763 1.386 . S
C762 C764 1.391 . S
C763 C762 1.386 . S
C763 C767 1.393 . S
C764 H753 0.950 . S
C764 C762 1.391 . S
C764 C765 1.400 . S
C765 C759 1.491 . S
C765 C764 1.400 . S
C765 C766 1.398 . S
C766 H754 0.950 . S
C766 C765 1.398 . S
C766 C767 1.391 . S
C767 H755 0.950 . S
C767 C763 1.393 . S
C767 C766 1.391 . S
H768 C776 0.950 . S
H769 C781 0.950 . S
H770 C778 0.950 . S
H771 C780 0.950 . S
H772 C782 0.950 . S
H773 C784 0.950 . S
H774 C786 0.950 . S
H775 C787 0.950 . S
C776 H768 0.950 . S
C776 C777 1.386 . S
C776 C778 1.391 . S
C777 C776 1.386 . S
C777 C781 1.393 . S
C778 H770 0.950 . S
C778 C776 1.391 . S
C778 C779 1.400 . S
C779 C778 1.400 . S
C779 C780 1.398 . S
C779 C785 1.491 . S
C780 H771 0.950 . S
C780 C779 1.398 . S
C780 C781 1.391 . S
C781 H769 0.950 . S
C781 C777 1.393 . S
C781 C780 1.391 . S
C782 H772 0.950 . S
C782 C783 1.386 . S
C782 C784 1.391 . S
C783 C782 1.386 . S
C783 C787 1.393 . S
C784 H773 0.950 . S
C784 C782 1.391 . S
C784 C785 1.400 . S
C785 C779 1.491 . S
C785 C784 1.400 . S
C785 C786 1.398 . S
C786 H774 0.950 . S
C786 C785 1.398 . S
C786 C787 1.391 . S
C787 H775 0.950 . S
C787 C783 1.393 . S
C787 C786 1.391 . S
H788 C796 0.950 . S
H789 C801 0.950 1_455 S
H790 C798 0.950 . S
H791 C800 0.950 . S
H792 C802 0.950 . S
H793 C804 0.950 . S
H794 C806 0.950 . S
H795 C807 0.950 . S
C796 H788 0.950 . S
C796 C797 1.386 1_655 S
C796 C798 1.391 . S
C797 C796 1.386 1_455 S
C797 C801 1.393 1_455 S
C798 H790 0.950 . S
C798 C796 1.391 . S
C798 C799 1.400 . S
C799 C798 1.400 . S
C799 C800 1.398 . S
C799 C805 1.491 . S
C800 H791 0.950 . S
C800 C799 1.398 . S
C800 C801 1.391 . S
C801 H789 0.950 1_655 S
C801 C797 1.393 1_655 S
C801 C800 1.391 . S
C802 H792 0.950 . S
C802 C803 1.386 . S
C802 C804 1.391 . S
C803 C802 1.386 . S
C803 C807 1.393 . S
C804 H793 0.950 . S
C804 C802 1.391 . S
C804 C805 1.400 . S
C805 C799 1.491 . S
C805 C804 1.400 . S
C805 C806 1.398 . S
C806 H794 0.950 . S
C806 C805 1.398 . S
C806 C807 1.391 . S
C807 H795 0.950 . S
C807 C803 1.393 . S
C807 C806 1.391 . S
H808 C816 0.950 . S
H809 C821 0.950 . S
H810 C818 0.950 . S
H811 C820 0.950 . S
H812 C822 0.950 . S
H813 C824 0.950 . S
H814 C826 0.950 . S
H815 C827 0.950 . S
C816 H808 0.950 . S
C816 C817 1.386 . S
C816 C818 1.391 . S
C817 C816 1.386 . S
C817 C821 1.393 . S
C818 H810 0.950 . S
C818 C816 1.391 . S
C818 C819 1.400 . S
C819 C818 1.400 . S
C819 C820 1.398 . S
C819 C825 1.491 . S
C820 H811 0.950 . S
C820 C819 1.398 . S
C820 C821 1.391 . S
C821 H809 0.950 . S
C821 C817 1.393 . S
C821 C820 1.391 . S
C822 H812 0.950 . S
C822 C823 1.386 . S
C822 C824 1.391 . S
C823 C822 1.386 . S
C823 C827 1.393 . S
C824 H813 0.950 . S
C824 C822 1.391 . S
C824 C825 1.400 . S
C825 C819 1.491 . S
C825 C824 1.400 . S
C825 C826 1.398 . S
C826 H814 0.950 . S
C826 C825 1.398 . S
C826 C827 1.391 . S
C827 H815 0.950 . S
C827 C823 1.393 . S
C827 C826 1.391 . S
H828 C836 0.950 . S
H829 C841 0.950 . S
H830 C838 0.950 . S
H831 C840 0.950 . S
H832 C842 0.950 . S
H833 C844 0.950 . S
H834 C846 0.950 . S
H835 C847 0.950 1_455 S
C836 H828 0.950 . S
C836 C837 1.386 . S
C836 C838 1.391 . S
C837 C836 1.386 . S
C837 C841 1.393 . S
C838 H830 0.950 . S
C838 C836 1.391 . S
C838 C839 1.400 . S
C839 C838 1.400 . S
C839 C840 1.398 . S
C839 C845 1.491 . S
C840 H831 0.950 . S
C840 C839 1.398 . S
C840 C841 1.391 . S
C841 H829 0.950 . S
C841 C837 1.393 . S
C841 C840 1.391 . S
C842 H832 0.950 . S
C842 C843 1.386 1_655 S
C842 C844 1.391 . S
C843 C842 1.386 1_455 S
C843 C847 1.393 1_455 S
C844 H833 0.950 . S
C844 C842 1.391 . S
C844 C845 1.400 . S
C845 C839 1.491 . S
C845 C844 1.400 . S
C845 C846 1.398 . S
C846 H834 0.950 . S
C846 C845 1.398 . S
C846 C847 1.391 . S
C847 H835 0.950 1_655 S
C847 C843 1.393 1_655 S
C847 C846 1.391 . S
H848 C856 0.950 . S
H849 C861 0.950 . S
H850 C858 0.950 . S
H851 C860 0.950 . S
H852 C862 0.950 . S
H853 C864 0.950 . S
H854 C866 0.950 . S
H855 C867 0.950 . S
C856 H848 0.950 . S
C856 C857 1.386 . S
C856 C858 1.391 . S
C857 C856 1.386 . S
C857 C861 1.393 . S
C858 H850 0.950 . S
C858 C856 1.391 . S
C858 C859 1.400 . S
C859 C858 1.400 . S
C859 C860 1.398 . S
C859 C865 1.491 . S
C860 H851 0.950 . S
C860 C859 1.398 . S
C860 C861 1.391 . S
C861 H849 0.950 . S
C861 C857 1.393 . S
C861 C860 1.391 . S
C862 H852 0.950 . S
C862 C863 1.386 . S
C862 C864 1.391 . S
C863 C862 1.386 . S
C863 C867 1.393 . S
C864 H853 0.950 . S
C864 C862 1.391 . S
C864 C865 1.400 . S
C865 C859 1.491 . S
C865 C864 1.400 . S
C865 C866 1.398 . S
C866 H854 0.950 . S
C866 C865 1.398 . S
C866 C867 1.391 . S
C867 H855 0.950 . S
C867 C863 1.393 . S
C867 C866 1.391 . S
H868 C876 0.950 . S
H869 C881 0.950 1_655 S
H870 C878 0.950 . S
H871 C880 0.950 . S
H872 C882 0.950 . S
H873 C884 0.950 . S
H874 C886 0.950 . S
H875 C887 0.950 . S
C876 H868 0.950 . S
C876 C877 1.386 1_455 S
C876 C878 1.391 . S
C877 C876 1.386 1_655 S
C877 C881 1.393 1_655 S
C878 H870 0.950 . S
C878 C876 1.391 . S
C878 C879 1.400 . S
C879 C878 1.400 . S
C879 C880 1.398 . S
C879 C885 1.491 . S
C880 H871 0.950 . S
C880 C879 1.398 . S
C880 C881 1.391 . S
C881 H869 0.950 1_455 S
C881 C877 1.393 1_455 S
C881 C880 1.391 . S
C882 H872 0.950 . S
C882 C883 1.386 . S
C882 C884 1.391 . S
C883 C882 1.386 . S
C883 C887 1.393 . S
C884 H873 0.950 . S
C884 C882 1.391 . S
C884 C885 1.400 . S
C885 C879 1.491 . S
C885 C884 1.400 . S
C885 C886 1.398 . S
C886 H874 0.950 . S
C886 C885 1.398 . S
C886 C887 1.391 . S
C887 H875 0.950 . S
C887 C883 1.393 . S
C887 C886 1.391 . S
H888 C896 0.950 . S
H889 C901 0.950 . S
H890 C898 0.950 . S
H891 C900 0.950 . S
H892 C902 0.950 . S
H893 C904 0.950 . S
H894 C906 0.950 . S
H895 C907 0.950 . S
C896 H888 0.950 . S
C896 C897 1.386 . S
C896 C898 1.391 . S
C897 C896 1.386 . S
C897 C901 1.393 . S
C898 H890 0.950 . S
C898 C896 1.391 . S
C898 C899 1.400 . S
C899 C898 1.400 . S
C899 C900 1.398 . S
C899 C905 1.491 . S
C900 H891 0.950 . S
C900 C899 1.398 . S
C900 C901 1.391 . S
C901 H889 0.950 . S
C901 C897 1.393 . S
C901 C900 1.391 . S
C902 H892 0.950 . S
C902 C903 1.386 . S
C902 C904 1.391 . S
C903 C902 1.386 . S
C903 C907 1.393 . S
C904 H893 0.950 . S
C904 C902 1.391 . S
C904 C905 1.400 . S
C905 C899 1.491 . S
C905 C904 1.400 . S
C905 C906 1.398 . S
C906 H894 0.950 . S
C906 C905 1.398 . S
C906 C907 1.391 . S
C907 H895 0.950 . S
C907 C903 1.393 . S
C907 C906 1.391 . S
H908 C916 0.950 1_655 S
H909 C921 0.950 . S
H910 C918 0.950 . S
H911 C920 0.950 . S
H912 C922 0.950 . S
H913 C924 0.950 . S
H914 C926 0.950 . S
H915 C927 0.950 . S
C916 H908 0.950 1_455 S
C916 C917 1.386 1_455 S
C916 C918 1.391 . S
C917 C916 1.386 1_655 S
C917 C921 1.393 1_655 S
C918 H910 0.950 . S
C918 C916 1.391 . S
C918 C919 1.400 . S
C919 C918 1.400 . S
C919 C920 1.398 . S
C919 C925 1.491 . S
C920 H911 0.950 . S
C920 C919 1.398 . S
C920 C921 1.391 . S
C921 H909 0.950 . S
C921 C917 1.393 1_455 S
C921 C920 1.391 . S
C922 H912 0.950 . S
C922 C923 1.386 . S
C922 C924 1.391 . S
C923 C922 1.386 . S
C923 C927 1.393 . S
C924 H913 0.950 . S
C924 C922 1.391 . S
C924 C925 1.400 . S
C925 C919 1.491 . S
C925 C924 1.400 . S
C925 C926 1.398 . S
C926 H914 0.950 . S
C926 C925 1.398 . S
C926 C927 1.391 . S
C927 H915 0.950 . S
C927 C923 1.393 . S
C927 C926 1.391 . S
H928 C936 0.950 . S
H929 C941 0.950 . S
H930 C938 0.950 . S
H931 C940 0.950 . S
H932 C942 0.950 . S
H933 C944 0.950 . S
H934 C946 0.950 . S
H935 C947 0.950 . S
C936 H928 0.950 . S
C936 C937 1.386 . S
C936 C938 1.391 . S
C937 C936 1.386 . S
C937 C941 1.393 . S
C938 H930 0.950 . S
C938 C936 1.391 . S
C938 C939 1.400 . S
C939 C938 1.400 . S
C939 C940 1.398 . S
C939 C945 1.491 . S
C940 H931 0.950 . S
C940 C939 1.398 . S
C940 C941 1.391 . S
C941 H929 0.950 . S
C941 C937 1.393 . S
C941 C940 1.391 . S
C942 H932 0.950 . S
C942 C943 1.386 . S
C942 C944 1.391 . S
C943 C942 1.386 . S
C943 C947 1.393 . S
C944 H933 0.950 . S
C944 C942 1.391 . S
C944 C945 1.400 . S
C945 C939 1.491 . S
C945 C944 1.400 . S
C945 C946 1.398 . S
C946 H934 0.950 . S
C946 C945 1.398 . S
C946 C947 1.391 . S
C947 H935 0.950 . S
C947 C943 1.393 . S
C947 C946 1.391 . S
H948 C956 0.950 . S
H949 C961 0.950 . S
H950 C958 0.950 . S
H951 C960 0.950 . S
H952 C962 0.950 . S
H953 C964 0.950 . S
H954 C966 0.950 . S
H955 C967 0.950 1_455 S
C956 H948 0.950 . S
C956 C957 1.386 . S
C956 C958 1.391 . S
C957 C956 1.386 . S
C957 C961 1.393 . S
C958 H950 0.950 . S
C958 C956 1.391 . S
C958 C959 1.400 . S
C959 C958 1.400 . S
C959 C960 1.398 . S
C959 C965 1.491 . S
C960 H951 0.950 . S
C960 C959 1.398 . S
C960 C961 1.391 . S
C961 H949 0.950 . S
C961 C957 1.393 . S
C961 C960 1.391 . S
C962 H952 0.950 . S
C962 C963 1.386 1_655 S
C962 C964 1.391 . S
C963 C962 1.386 1_455 S
C963 C967 1.393 1_455 S
C964 H953 0.950 . S
C964 C962 1.391 . S
C964 C965 1.400 . S
C965 C959 1.491 . S
C965 C964 1.400 . S
C965 C966 1.398 . S
C966 H954 0.950 . S
C966 C965 1.398 . S
C966 C967 1.391 . S
C967 H955 0.950 1_655 S
C967 C963 1.393 1_655 S
C967 C966 1.391 . S
H968 C976 0.950 . S
H969 C981 0.950 . S
H970 C978 0.950 . S
H971 C980 0.950 . S
H972 C982 0.950 . S
H973 C984 0.950 . S
H974 C986 0.950 . S
H975 C987 0.950 . S
C976 H968 0.950 . S
C976 C977 1.386 . S
C976 C978 1.391 . S
C977 C976 1.386 . S
C977 C981 1.393 . S
C978 H970 0.950 . S
C978 C976 1.391 . S
C978 C979 1.400 . S
C979 C978 1.400 . S
C979 C980 1.398 . S
C979 C985 1.491 . S
C980 H971 0.950 . S
C980 C979 1.398 . S
C980 C981 1.391 . S
C981 H969 0.950 . S
C981 C977 1.393 . S
C981 C980 1.391 . S
C982 H972 0.950 . S
C982 C983 1.386 . S
C982 C984 1.391 . S
C983 C982 1.386 . S
C983 C987 1.393 . S
C984 H973 0.950 . S
C984 C982 1.391 . S
C984 C985 1.400 . S
C985 C979 1.491 . S
C985 C984 1.400 . S
C985 C986 1.398 . S
C986 H974 0.950 . S
C986 C985 1.398 . S
C986 C987 1.391 . S
C987 H975 0.950 . S
C987 C983 1.393 . S
C987 C986 1.391 . S
H988 C996 0.950 . S
H989 C1001 0.950 . S
H990 C998 0.950 . S
H991 C1000 0.950 . S
H992 C1002 0.950 . S
H993 C1004 0.950 . S
H994 C1006 0.950 . S
H995 C1007 0.950 1_455 S
C996 H988 0.950 . S
C996 C997 1.386 . S
C996 C998 1.391 . S
C997 C996 1.386 . S
C997 C1001 1.393 . S
C998 H990 0.950 . S
C998 C996 1.391 . S
C998 C999 1.400 . S
C999 C998 1.400 . S
C999 C1000 1.398 . S
C999 C1005 1.491 . S
C1000 H991 0.950 . S
C1000 C999 1.398 . S
C1000 C1001 1.391 . S
C1001 H989 0.950 . S
C1001 C997 1.393 . S
C1001 C1000 1.391 . S
C1002 H992 0.950 . S
C1002 C1003 1.386 1_655 S
C1002 C1004 1.391 . S
C1003 C1002 1.386 1_455 S
C1003 C1007 1.393 1_455 S
C1004 H993 0.950 . S
C1004 C1002 1.391 . S
C1004 C1005 1.400 . S
C1005 C999 1.491 . S
C1005 C1004 1.400 . S
C1005 C1006 1.398 . S
C1006 H994 0.950 . S
C1006 C1005 1.398 . S
C1006 C1007 1.391 . S
C1007 H995 0.950 1_655 S
C1007 C1003 1.393 1_655 S
C1007 C1006 1.391 . S
H1008 C1016 0.950 . S
H1009 C1021 0.950 . S
H1010 C1018 0.950 . S
H1011 C1020 0.950 . S
H1012 C1022 0.950 . S
H1013 C1024 0.950 . S
H1014 C1026 0.950 . S
H1015 C1027 0.950 . S
C1016 H1008 0.950 . S
C1016 C1017 1.386 . S
C1016 C1018 1.391 . S
C1017 C1016 1.386 . S
C1017 C1021 1.393 . S
C1018 H1010 0.950 . S
C1018 C1016 1.391 . S
C1018 C1019 1.400 . S
C1019 C1018 1.400 . S
C1019 C1020 1.398 . S
C1019 C1025 1.491 . S
C1020 H1011 0.950 . S
C1020 C1019 1.398 . S
C1020 C1021 1.391 . S
C1021 H1009 0.950 . S
C1021 C1017 1.393 . S
C1021 C1020 1.391 . S
C1022 H1012 0.950 . S
C1022 C1023 1.386 . S
C1022 C1024 1.391 . S
C1023 C1022 1.386 . S
C1023 C1027 1.393 . S
C1024 H1013 0.950 . S
C1024 C1022 1.391 . S
C1024 C1025 1.400 . S
C1025 C1019 1.491 . S
C1025 C1024 1.400 . S
C1025 C1026 1.398 . S
C1026 H1014 0.950 . S
C1026 C1025 1.398 . S
C1026 C1027 1.391 . S
C1027 H1015 0.950 . S
C1027 C1023 1.393 . S
C1027 C1026 1.391 . S
H1028 C1036 0.950 . S
H1029 C1041 0.950 . S
H1030 C1038 0.950 . S
H1031 C1040 0.950 . S
H1032 C1042 0.950 1_655 S
H1033 C1044 0.950 . S
H1034 C1046 0.950 . S
H1035 C1047 0.950 . S
C1036 H1028 0.950 . S
C1036 C1037 1.386 . S
C1036 C1038 1.391 . S
C1037 C1036 1.386 . S
C1037 C1041 1.393 . S
C1038 H1030 0.950 . S
C1038 C1036 1.391 . S
C1038 C1039 1.400 . S
C1039 C1038 1.400 . S
C1039 C1040 1.398 . S
C1039 C1045 1.491 . S
C1040 H1031 0.950 . S
C1040 C1039 1.398 . S
C1040 C1041 1.391 . S
C1041 H1029 0.950 . S
C1041 C1037 1.393 . S
C1041 C1040 1.391 . S
C1042 H1032 0.950 1_455 S
C1042 C1043 1.386 1_455 S
C1042 C1044 1.391 . S
C1043 C1042 1.386 1_655 S
C1043 C1047 1.393 1_655 S
C1044 H1033 0.950 . S
C1044 C1042 1.391 . S
C1044 C1045 1.400 . S
C1045 C1039 1.491 . S
C1045 C1044 1.400 . S
C1045 C1046 1.398 . S
C1046 H1034 0.950 . S
C1046 C1045 1.398 . S
C1046 C1047 1.391 . S
C1047 H1035 0.950 . S
C1047 C1043 1.393 1_455 S
C1047 C1046 1.391 . S
H1048 C1056 0.950 . S
H1049 C1061 0.950 . S
H1050 C1058 0.950 . S
H1051 C1060 0.950 . S
H1052 C1062 0.950 . S
H1053 C1064 0.950 . S
H1054 C1066 0.950 . S
H1055 C1067 0.950 . S
C1056 H1048 0.950 . S
C1056 C1057 1.386 . S
C1056 C1058 1.391 . S
C1057 C1056 1.386 . S
C1057 C1061 1.393 . S
C1058 H1050 0.950 . S
C1058 C1056 1.391 . S
C1058 C1059 1.400 . S
C1059 C1058 1.400 . S
C1059 C1060 1.398 . S
C1059 C1065 1.491 . S
C1060 H1051 0.950 . S
C1060 C1059 1.398 . S
C1060 C1061 1.391 . S
C1061 H1049 0.950 . S
C1061 C1057 1.393 . S
C1061 C1060 1.391 . S
C1062 H1052 0.950 . S
C1062 C1063 1.386 . S
C1062 C1064 1.391 . S
C1063 C1062 1.386 . S
C1063 C1067 1.393 . S
C1064 H1053 0.950 . S
C1064 C1062 1.391 . S
C1064 C1065 1.400 . S
C1065 C1059 1.491 . S
C1065 C1064 1.400 . S
C1065 C1066 1.398 . S
C1066 H1054 0.950 . S
C1066 C1065 1.398 . S
C1066 C1067 1.391 . S
C1067 H1055 0.950 . S
C1067 C1063 1.393 . S
C1067 C1066 1.391 . S
H1068 C1076 0.950 . S
H1069 C1081 0.950 1_655 S
H1070 C1078 0.950 . S
H1071 C1080 0.950 . S
H1072 C1082 0.950 . S
H1073 C1084 0.950 . S
H1074 C1086 0.950 . S
H1075 C1087 0.950 . S
C1076 H1068 0.950 . S
C1076 C1077 1.386 1_455 S
C1076 C1078 1.391 . S
C1077 C1076 1.386 1_655 S
C1077 C1081 1.393 1_655 S
C1078 H1070 0.950 . S
C1078 C1076 1.391 . S
C1078 C1079 1.400 . S
C1079 C1078 1.400 . S
C1079 C1080 1.398 . S
C1079 C1085 1.491 . S
C1080 H1071 0.950 . S
C1080 C1079 1.398 . S
C1080 C1081 1.391 . S
C1081 H1069 0.950 1_455 S
C1081 C1077 1.393 1_455 S
C1081 C1080 1.391 . S
C1082 H1072 0.950 . S
C1082 C1083 1.386 . S
C1082 C1084 1.391 . S
C1083 C1082 1.386 . S
C1083 C1087 1.393 . S
C1084 H1073 0.950 . S
C1084 C1082 1.391 . S
C1084 C1085 1.400 . S
C1085 C1079 1.491 . S
C1085 C1084 1.400 . S
C1085 C1086 1.398 . S
C1086 H1074 0.950 . S
C1086 C1085 1.398 . S
C1086 C1087 1.391 . S
C1087 H1075 0.950 . S
C1087 C1083 1.393 . S
C1087 C1086 1.391 . S
H1088 C1096 0.950 . S
H1089 C1101 0.950 . S
H1090 C1098 0.950 . S
H1091 C1100 0.950 . S
H1092 C1102 0.950 . S
H1093 C1104 0.950 . S
H1094 C1106 0.950 . S
H1095 C1107 0.950 . S
C1096 H1088 0.950 . S
C1096 C1097 1.386 . S
C1096 C1098 1.391 1_655 S
C1097 C1096 1.386 . S
C1097 C1101 1.393 . S
C1098 H1090 0.950 . S
C1098 C1096 1.391 1_455 S
C1098 C1099 1.400 1_455 S
C1099 C1098 1.400 1_655 S
C1099 C1100 1.398 . S
C1099 C1105 1.491 1_655 S
C1100 H1091 0.950 . S
C1100 C1099 1.398 . S
C1100 C1101 1.391 . S
C1101 H1089 0.950 . S
C1101 C1097 1.393 . S
C1101 C1100 1.391 . S
C1102 H1092 0.950 . S
C1102 C1103 1.386 . S
C1102 C1104 1.391 1_455 S
C1103 C1102 1.386 . S
C1103 C1107 1.393 . S
C1104 H1093 0.950 . S
C1104 C1102 1.391 1_655 S
C1104 C1105 1.400 1_655 S
C1105 C1099 1.491 1_455 S
C1105 C1104 1.400 1_455 S
C1105 C1106 1.398 . S
C1106 H1094 0.950 . S
C1106 C1105 1.398 . S
C1106 C1107 1.391 . S
C1107 H1095 0.950 . S
C1107 C1103 1.393 . S
C1107 C1106 1.391 . S
H1108 C1116 0.950 . S
H1109 C1121 0.950 . S
H1110 C1118 0.950 . S
H1111 C1120 0.950 1_545 S
H1112 C1122 0.950 . S
H1113 C1124 0.950 . S
H1114 C1126 0.950 1_565 S
H1115 C1127 0.950 . S
C1116 H1108 0.950 . S
C1116 C1117 1.386 . S
C1116 C1118 1.391 . S
C1117 C1116 1.386 . S
C1117 C1121 1.393 . S
C1118 H1110 0.950 . S
C1118 C1116 1.391 . S
C1118 C1119 1.400 . S
C1119 C1118 1.400 . S
C1119 C1120 1.398 . S
C1119 C1125 1.491 1_565 S
C1120 H1111 0.950 1_565 S
C1120 C1119 1.398 . S
C1120 C1121 1.391 . S
C1121 H1109 0.950 . S
C1121 C1117 1.393 . S
C1121 C1120 1.391 . S
C1122 H1112 0.950 . S
C1122 C1123 1.386 . S
C1122 C1124 1.391 . S
C1123 C1122 1.386 . S
C1123 C1127 1.393 . S
C1124 H1113 0.950 . S
C1124 C1122 1.391 . S
C1124 C1125 1.400 . S
C1125 C1119 1.491 1_545 S
C1125 C1124 1.400 . S
C1125 C1126 1.398 . S
C1126 H1114 0.950 1_545 S
C1126 C1125 1.398 . S
C1126 C1127 1.391 . S
C1127 H1115 0.950 . S
C1127 C1123 1.393 . S
C1127 C1126 1.391 . S
H1128 C1136 0.950 . S
H1129 C1141 0.950 1_455 S
H1130 C1138 0.950 1_565 S
H1131 C1140 0.950 . S
H1132 C1142 0.950 . S
H1133 C1144 0.950 1_545 S
H1134 C1146 0.950 . S
H1135 C1147 0.950 1_655 S
C1136 H1128 0.950 . S
C1136 C1137 1.386 . S
C1136 C1138 1.391 . S
C1137 C1136 1.386 . S
C1137 C1141 1.393 . S
C1138 H1130 0.950 1_545 S
C1138 C1136 1.391 . S
C1138 C1139 1.400 . S
C1139 C1138 1.400 . S
C1139 C1140 1.398 1_654 S
C1139 C1145 1.491 1_644 S
C1140 H1131 0.950 . S
C1140 C1139 1.398 1_456 S
C1140 C1141 1.391 1_456 S
C1141 H1129 0.950 1_655 S
C1141 C1137 1.393 . S
C1141 C1140 1.391 1_654 S
C1142 H1132 0.950 . S
C1142 C1143 1.386 . S
C1142 C1144 1.391 . S
C1143 C1142 1.386 . S
C1143 C1147 1.393 . S
C1144 H1133 0.950 1_565 S
C1144 C1142 1.391 . S
C1144 C1145 1.400 . S
C1145 C1139 1.491 1_466 S
C1145 C1144 1.400 . S
C1145 C1146 1.398 1_456 S
C1146 H1134 0.950 . S
C1146 C1145 1.398 1_654 S
C1146 C1147 1.391 1_654 S
C1147 H1135 0.950 1_455 S
C1147 C1143 1.393 . S
C1147 C1146 1.391 1_456 S
H1148 C1156 0.950 . S
H1149 C1161 0.944 1_556 S
H1150 C1158 0.950 . S
H1151 C1160 0.950 . S
H1152 C1162 0.950 . S
H1153 C1164 0.950 . S
H1154 C1166 0.950 . S
H1155 C1167 0.944 1_554 S
C1156 H1148 0.950 . S
C1156 C1157 1.386 . S
C1156 C1158 1.391 . S
C1157 C1156 1.386 . S
C1157 C1161 1.393 . S
C1158 H1150 0.950 . S
C1158 C1156 1.391 . S
C1158 C1159 1.400 . S
C1159 C1158 1.400 . S
C1159 C1160 1.398 1_554 S
C1159 C1165 1.491 1_554 S
C1160 H1151 0.950 . S
C1160 C1159 1.398 1_556 S
C1160 C1161 1.391 1_556 S
C1161 H1149 0.944 1_554 S
C1161 C1157 1.393 . S
C1161 C1160 1.391 1_554 S
C1162 H1152 0.950 . S
C1162 C1163 1.386 . S
C1162 C1164 1.391 . S
C1163 C1162 1.386 . S
C1163 C1167 1.393 . S
C1164 H1153 0.950 . S
C1164 C1162 1.391 . S
C1164 C1165 1.400 . S
C1165 C1159 1.491 1_556 S
C1165 C1164 1.400 . S
C1165 C1166 1.398 1_556 S
C1166 H1154 0.950 . S
C1166 C1165 1.398 1_554 S
C1166 C1167 1.391 1_554 S
C1167 H1155 0.944 1_556 S
C1167 C1163 1.393 . S
C1167 C1166 1.391 1_556 S
H1168 C1176 0.950 . S
H1169 C1181 0.950 . S
H1170 C1178 0.950 . S
H1171 C1180 0.950 . S
H1172 C1182 0.950 . S
H1173 C1184 0.950 . S
H1174 C1186 0.950 . S
H1175 C1187 0.950 . S
C1176 H1168 0.950 . S
C1176 C1177 1.386 1_455 S
C1176 C1178 1.391 . S
C1177 C1176 1.386 1_655 S
C1177 C1181 1.393 . S
C1178 H1170 0.950 . S
C1178 C1176 1.391 . S
C1178 C1179 1.400 1_455 S
C1179 C1178 1.400 1_655 S
C1179 C1180 1.398 . S
C1179 C1185 1.491 1_655 S
C1180 H1171 0.950 . S
C1180 C1179 1.398 . S
C1180 C1181 1.391 . S
C1181 H1169 0.950 . S
C1181 C1177 1.393 . S
C1181 C1180 1.391 . S
C1182 H1172 0.950 . S
C1182 C1183 1.386 1_655 S
C1182 C1184 1.391 . S
C1183 C1182 1.386 1_455 S
C1183 C1187 1.393 . S
C1184 H1173 0.950 . S
C1184 C1182 1.391 . S
C1184 C1185 1.400 1_655 S
C1185 C1179 1.491 1_455 S
C1185 C1184 1.400 1_455 S
C1185 C1186 1.398 . S
C1186 H1174 0.950 . S
C1186 C1185 1.398 . S
C1186 C1187 1.391 . S
C1187 H1175 0.950 . S
C1187 C1183 1.393 . S
C1187 C1186 1.391 . S
H1188 C1196 0.950 . S
H1189 C1201 0.950 . S
H1190 C1198 0.950 . S
H1191 C1200 0.950 . S
H1192 C1202 0.950 . S
H1193 C1204 0.950 . S
H1194 C1206 0.950 . S
H1195 C1207 0.950 . S
C1196 H1188 0.950 . S
C1196 C1197 1.386 . S
C1196 C1198 1.391 . S
C1197 C1196 1.386 . S
C1197 C1201 1.393 . S
C1198 H1190 0.950 . S
C1198 C1196 1.391 . S
C1198 C1199 1.400 . S
C1199 C1198 1.400 . S
C1199 C1200 1.398 . S
C1199 C1205 1.491 1_565 S
C1200 H1191 0.950 . S
C1200 C1199 1.398 . S
C1200 C1201 1.391 . S
C1201 H1189 0.950 . S
C1201 C1197 1.393 . S
C1201 C1200 1.391 . S
C1202 H1192 0.950 . S
C1202 C1203 1.386 . S
C1202 C1204 1.391 . S
C1203 C1202 1.386 . S
C1203 C1207 1.393 . S
C1204 H1193 0.950 . S
C1204 C1202 1.391 . S
C1204 C1205 1.400 . S
C1205 C1199 1.491 1_545 S
C1205 C1204 1.400 . S
C1205 C1206 1.398 . S
C1206 H1194 0.950 . S
C1206 C1205 1.398 . S
C1206 C1207 1.391 . S
C1207 H1195 0.950 . S
C1207 C1203 1.393 . S
C1207 C1206 1.391 . S
H1208 C1216 0.950 . S
H1209 C1221 0.950 . S
H1210 C1218 0.950 . S
H1211 C1220 0.950 . S
H1212 C1222 0.950 . S
H1213 C1224 0.950 . S
H1214 C1226 0.950 . S
H1215 C1227 0.950 . S
C1216 H1208 0.950 . S
C1216 C1217 1.386 . S
C1216 C1218 1.391 1_556 S
C1217 C1216 1.386 . S
C1217 C1221 1.393 . S
C1218 H1210 0.950 . S
C1218 C1216 1.391 1_554 S
C1218 C1219 1.400 1_554 S
C1219 C1218 1.400 1_556 S
C1219 C1220 1.398 . S
C1219 C1225 1.491 1_556 S
C1220 H1211 0.950 . S
C1220 C1219 1.398 . S
C1220 C1221 1.391 . S
C1221 H1209 0.950 . S
C1221 C1217 1.393 . S
C1221 C1220 1.391 . S
C1222 H1212 0.950 . S
C1222 C1223 1.386 . S
C1222 C1224 1.391 1_554 S
C1223 C1222 1.386 . S
C1223 C1227 1.393 . S
C1224 H1213 0.950 . S
C1224 C1222 1.391 1_556 S
C1224 C1225 1.400 1_556 S
C1225 C1219 1.491 1_554 S
C1225 C1224 1.400 1_554 S
C1225 C1226 1.398 . S
C1226 H1214 0.950 . S
C1226 C1225 1.398 . S
C1226 C1227 1.391 . S
C1227 H1215 0.950 . S
C1227 C1223 1.393 . S
C1227 C1226 1.391 . S
H1228 C1236 0.950 . S
H1229 C1241 0.950 . S
H1230 C1238 0.950 . S
H1231 C1240 0.950 . S
H1232 C1242 0.950 . S
H1233 C1244 0.950 . S
H1234 C1246 0.950 . S
H1235 C1247 0.950 . S
C1236 H1228 0.950 . S
C1236 C1237 1.386 . S
C1236 C1238 1.391 . S
C1237 C1236 1.386 . S
C1237 C1241 1.393 . S
C1238 H1230 0.950 . S
C1238 C1236 1.391 . S
C1238 C1239 1.400 . S
C1239 C1238 1.400 . S
C1239 C1240 1.398 . S
C1239 C1245 1.491 . S
C1240 H1231 0.950 . S
C1240 C1239 1.398 . S
C1240 C1241 1.391 . S
C1241 H1229 0.950 . S
C1241 C1237 1.393 . S
C1241 C1240 1.391 . S
C1242 H1232 0.950 . S
C1242 C1243 1.386 . S
C1242 C1244 1.391 . S
C1243 C1242 1.386 . S
C1243 C1247 1.393 . S
C1244 H1233 0.950 . S
C1244 C1242 1.391 . S
C1244 C1245 1.400 . S
C1245 C1239 1.491 . S
C1245 C1244 1.400 . S
C1245 C1246 1.398 . S
C1246 H1234 0.950 . S
C1246 C1245 1.398 . S
C1246 C1247 1.391 . S
C1247 H1235 0.950 . S
C1247 C1243 1.393 . S
C1247 C1246 1.391 . S
H1248 C1256 0.950 . S
H1249 C1261 0.950 . S
H1250 C1258 0.950 1_655 S
H1251 C1260 0.950 . S
H1252 C1262 0.950 . S
H1253 C1264 0.950 1_455 S
H1254 C1266 0.950 . S
H1255 C1267 0.950 . S
C1256 H1248 0.950 . S
C1256 C1257 1.386 . S
C1256 C1258 1.391 . S
C1257 C1256 1.386 . S
C1257 C1261 1.393 . S
C1258 H1250 0.950 1_455 S
C1258 C1256 1.391 . S
C1258 C1259 1.400 . S
C1259 C1258 1.400 . S
C1259 C1260 1.398 . S
C1259 C1265 1.491 1_455 S
C1260 H1251 0.950 . S
C1260 C1259 1.398 . S
C1260 C1261 1.391 . S
C1261 H1249 0.950 . S
C1261 C1257 1.393 . S
C1261 C1260 1.391 . S
C1262 H1252 0.950 . S
C1262 C1263 1.386 . S
C1262 C1264 1.391 . S
C1263 C1262 1.386 . S
C1263 C1267 1.393 . S
C1264 H1253 0.950 1_655 S
C1264 C1262 1.391 . S
C1264 C1265 1.400 . S
C1265 C1259 1.491 1_655 S
C1265 C1264 1.400 . S
C1265 C1266 1.398 . S
C1266 H1254 0.950 . S
C1266 C1265 1.398 . S
C1266 C1267 1.391 . S
C1267 H1255 0.950 . S
C1267 C1263 1.393 . S
C1267 C1266 1.391 . S
H1268 C1276 0.950 . S
H1269 C1281 0.950 . S
H1270 C1278 0.950 . S
H1271 C1280 0.950 . S
H1272 C1282 0.950 . S
H1273 C1284 0.950 . S
H1274 C1286 0.950 . S
H1275 C1287 0.950 . S
C1276 H1268 0.950 . S
C1276 C1277 1.386 . S
C1276 C1278 1.391 . S
C1277 C1276 1.386 . S
C1277 C1281 1.393 . S
C1278 H1270 0.950 . S
C1278 C1276 1.391 . S
C1278 C1279 1.400 . S
C1279 C1278 1.400 . S
C1279 C1280 1.398 . S
C1279 C1285 1.491 . S
C1280 H1271 0.950 . S
C1280 C1279 1.398 . S
C1280 C1281 1.391 . S
C1281 H1269 0.950 . S
C1281 C1277 1.393 . S
C1281 C1280 1.391 . S
C1282 H1272 0.950 . S
C1282 C1283 1.386 . S
C1282 C1284 1.391 . S
C1283 C1282 1.386 . S
C1283 C1287 1.393 . S
C1284 H1273 0.950 . S
C1284 C1282 1.391 . S
C1284 C1285 1.400 . S
C1285 C1279 1.491 . S
C1285 C1284 1.400 . S
C1285 C1286 1.398 . S
C1286 H1274 0.950 . S
C1286 C1285 1.398 . S
C1286 C1287 1.391 . S
C1287 H1275 0.950 . S
C1287 C1283 1.393 . S
C1287 C1286 1.391 . S
H1288 C1296 0.950 . S
H1289 C1301 0.950 . S
H1290 C1298 0.950 . S
H1291 C1300 0.950 . S
H1292 C1302 0.950 . S
H1293 C1304 0.950 . S
H1294 C1306 0.950 . S
H1295 C1307 0.950 . S
C1296 H1288 0.950 . S
C1296 C1297 1.386 . S
C1296 C1298 1.391 . S
C1297 C1296 1.386 . S
C1297 C1301 1.393 . S
C1298 H1290 0.950 . S
C1298 C1296 1.391 . S
C1298 C1299 1.400 . S
C1299 C1298 1.400 . S
C1299 C1300 1.398 . S
C1299 C1305 1.491 . S
C1300 H1291 0.950 . S
C1300 C1299 1.398 . S
C1300 C1301 1.391 . S
C1301 H1289 0.950 . S
C1301 C1297 1.393 . S
C1301 C1300 1.391 . S
C1302 H1292 0.950 . S
C1302 C1303 1.386 . S
C1302 C1304 1.391 . S
C1303 C1302 1.386 . S
C1303 C1307 1.393 . S
C1304 H1293 0.950 . S
C1304 C1302 1.391 . S
C1304 C1305 1.400 . S
C1305 C1299 1.491 . S
C1305 C1304 1.400 . S
C1305 C1306 1.398 . S
C1306 H1294 0.950 . S
C1306 C1305 1.398 . S
C1306 C1307 1.391 . S
C1307 H1295 0.950 . S
C1307 C1303 1.393 . S
C1307 C1306 1.391 . S
H1308 C1316 0.950 . S
H1309 C1321 0.950 . S
H1310 C1318 0.950 . S
H1311 C1320 0.950 . S
H1312 C1322 0.950 . S
H1313 C1324 0.950 . S
H1314 C1326 0.950 . S
H1315 C1327 0.950 . S
C1316 H1308 0.950 . S
C1316 C1317 1.386 . S
C1316 C1318 1.391 . S
C1317 C1316 1.386 . S
C1317 C1321 1.393 . S
C1318 H1310 0.950 . S
C1318 C1316 1.391 . S
C1318 C1319 1.400 . S
C1319 C1318 1.400 . S
C1319 C1320 1.398 . S
C1319 C1325 1.491 . S
C1320 H1311 0.950 . S
C1320 C1319 1.398 . S
C1320 C1321 1.391 . S
C1321 H1309 0.950 . S
C1321 C1317 1.393 . S
C1321 C1320 1.391 . S
C1322 H1312 0.950 . S
C1322 C1323 1.386 . S
C1322 C1324 1.391 . S
C1323 C1322 1.386 . S
C1323 C1327 1.393 . S
C1324 H1313 0.950 . S
C1324 C1322 1.391 . S
C1324 C1325 1.400 . S
C1325 C1319 1.491 . S
C1325 C1324 1.400 . S
C1325 C1326 1.398 . S
C1326 H1314 0.950 . S
C1326 C1325 1.398 . S
C1326 C1327 1.391 . S
C1327 H1315 0.950 . S
C1327 C1323 1.393 . S
C1327 C1326 1.391 . S
H1328 C1336 0.950 . S
H1329 C1341 0.950 . S
H1330 C1338 0.950 . S
H1331 C1340 0.950 . S
H1332 C1342 0.950 . S
H1333 C1344 0.950 . S
H1334 C1346 0.950 . S
H1335 C1347 0.950 . S
C1336 H1328 0.950 . S
C1336 C1337 1.386 . S
C1336 C1338 1.391 . S
C1337 C1336 1.386 . S
C1337 C1341 1.393 . S
C1338 H1330 0.950 . S
C1338 C1336 1.391 . S
C1338 C1339 1.400 . S
C1339 C1338 1.400 . S
C1339 C1340 1.398 . S
C1339 C1345 1.491 . S
C1340 H1331 0.950 . S
C1340 C1339 1.398 . S
C1340 C1341 1.391 . S
C1341 H1329 0.950 . S
C1341 C1337 1.393 . S
C1341 C1340 1.391 . S
C1342 H1332 0.950 . S
C1342 C1343 1.386 . S
C1342 C1344 1.391 . S
C1343 C1342 1.386 . S
C1343 C1347 1.393 . S
C1344 H1333 0.950 . S
C1344 C1342 1.391 . S
C1344 C1345 1.400 . S
C1345 C1339 1.491 . S
C1345 C1344 1.400 . S
C1345 C1346 1.398 . S
C1346 H1334 0.950 . S
C1346 C1345 1.398 . S
C1346 C1347 1.391 . S
C1347 H1335 0.950 . S
C1347 C1343 1.393 . S
C1347 C1346 1.391 . S
H1348 C1356 0.950 . S
H1349 C1361 0.950 . S
H1350 C1358 0.950 . S
H1351 C1360 0.950 . S
H1352 C1362 0.950 . S
H1353 C1364 0.950 . S
H1354 C1366 0.950 . S
H1355 C1367 0.950 . S
C1356 H1348 0.950 . S
C1356 C1357 1.386 . S
C1356 C1358 1.391 . S
C1357 C1356 1.386 . S
C1357 C1361 1.393 . S
C1358 H1350 0.950 . S
C1358 C1356 1.391 . S
C1358 C1359 1.400 . S
C1359 C1358 1.400 . S
C1359 C1360 1.398 . S
C1359 C1365 1.491 1_545 S
C1360 H1351 0.950 . S
C1360 C1359 1.398 . S
C1360 C1361 1.391 . S
C1361 H1349 0.950 . S
C1361 C1357 1.393 . S
C1361 C1360 1.391 . S
C1362 H1352 0.950 . S
C1362 C1363 1.386 . S
C1362 C1364 1.391 . S
C1363 C1362 1.386 . S
C1363 C1367 1.393 . S
C1364 H1353 0.950 . S
C1364 C1362 1.391 . S
C1364 C1365 1.400 . S
C1365 C1359 1.491 1_565 S
C1365 C1364 1.400 . S
C1365 C1366 1.398 . S
C1366 H1354 0.950 . S
C1366 C1365 1.398 . S
C1366 C1367 1.391 . S
C1367 H1355 0.950 . S
C1367 C1363 1.393 . S
C1367 C1366 1.391 . S
H1368 C1376 0.950 . S
H1369 C1381 0.950 . S
H1370 C1378 0.950 . S
H1371 C1380 0.950 . S
H1372 C1382 0.950 . S
H1373 C1384 0.950 . S
H1374 C1386 0.950 . S
H1375 C1387 0.950 . S
C1376 H1368 0.950 . S
C1376 C1377 1.386 . S
C1376 C1378 1.391 . S
C1377 C1376 1.386 . S
C1377 C1381 1.393 . S
C1378 H1370 0.950 . S
C1378 C1376 1.391 . S
C1378 C1379 1.400 . S
C1379 C1378 1.400 . S
C1379 C1380 1.398 . S
C1379 C1385 1.491 . S
C1380 H1371 0.950 . S
C1380 C1379 1.398 . S
C1380 C1381 1.391 . S
C1381 H1369 0.950 . S
C1381 C1377 1.393 . S
C1381 C1380 1.391 . S
C1382 H1372 0.950 . S
C1382 C1383 1.386 . S
C1382 C1384 1.391 . S
C1383 C1382 1.386 . S
C1383 C1387 1.393 . S
C1384 H1373 0.950 . S
C1384 C1382 1.391 . S
C1384 C1385 1.400 . S
C1385 C1379 1.491 . S
C1385 C1384 1.400 . S
C1385 C1386 1.398 . S
C1386 H1374 0.950 . S
C1386 C1385 1.398 . S
C1386 C1387 1.391 . S
C1387 H1375 0.950 . S
C1387 C1383 1.393 . S
C1387 C1386 1.391 . S
H1388 C1396 0.950 . S
H1389 C1401 0.950 . S
H1390 C1398 0.950 1_554 S
H1391 C1400 0.950 . S
H1392 C1402 0.950 . S
H1393 C1404 0.950 1_556 S
H1394 C1406 0.950 . S
H1395 C1407 0.950 . S
C1396 H1388 0.950 . S
C1396 C1397 1.386 . S
C1396 C1398 1.391 . S
C1397 C1396 1.386 . S
C1397 C1401 1.393 . S
C1398 H1390 0.950 1_556 S
C1398 C1396 1.391 . S
C1398 C1399 1.400 . S
C1399 C1398 1.400 . S
C1399 C1400 1.398 . S
C1399 C1405 1.491 1_556 S
C1400 H1391 0.950 . S
C1400 C1399 1.398 . S
C1400 C1401 1.391 . S
C1401 H1389 0.950 . S
C1401 C1397 1.393 . S
C1401 C1400 1.391 . S
C1402 H1392 0.950 . S
C1402 C1403 1.386 . S
C1402 C1404 1.391 . S
C1403 C1402 1.386 . S
C1403 C1407 1.393 . S
C1404 H1393 0.950 1_554 S
C1404 C1402 1.391 . S
C1404 C1405 1.400 . S
C1405 C1399 1.491 1_554 S
C1405 C1404 1.400 . S
C1405 C1406 1.398 . S
C1406 H1394 0.950 . S
C1406 C1405 1.398 . S
C1406 C1407 1.391 . S
C1407 H1395 0.950 . S
C1407 C1403 1.393 . S
C1407 C1406 1.391 . S
H1408 C1416 0.950 . S
H1409 C1421 0.950 . S
H1410 C1418 0.950 . S
H1411 C1420 0.950 . S
H1412 C1422 0.950 . S
H1413 C1424 0.950 . S
H1414 C1426 0.950 . S
H1415 C1427 0.950 . S
C1416 H1408 0.950 . S
C1416 C1417 1.386 . S
C1416 C1418 1.391 . S
C1417 C1416 1.386 . S
C1417 C1421 1.393 . S
C1418 H1410 0.950 . S
C1418 C1416 1.391 . S
C1418 C1419 1.400 . S
C1419 C1418 1.400 . S
C1419 C1420 1.398 . S
C1419 C1425 1.491 . S
C1420 H1411 0.950 . S
C1420 C1419 1.398 . S
C1420 C1421 1.391 . S
C1421 H1409 0.950 . S
C1421 C1417 1.393 . S
C1421 C1420 1.391 . S
C1422 H1412 0.950 . S
C1422 C1423 1.386 . S
C1422 C1424 1.391 . S
C1423 C1422 1.386 . S
C1423 C1427 1.393 . S
C1424 H1413 0.950 . S
C1424 C1422 1.391 . S
C1424 C1425 1.400 . S
C1425 C1419 1.491 . S
C1425 C1424 1.400 . S
C1425 C1426 1.398 . S
C1426 H1414 0.950 . S
C1426 C1425 1.398 . S
C1426 C1427 1.391 . S
C1427 H1415 0.950 . S
C1427 C1423 1.393 . S
C1427 C1426 1.391 . S
H1428 C1436 0.950 . S
H1429 C1441 0.950 . S
H1430 C1438 0.950 . S
H1431 C1440 0.950 . S
H1432 C1442 0.950 . S
H1433 C1444 0.950 . S
H1434 C1446 0.950 . S
H1435 C1447 0.950 . S
C1436 H1428 0.950 . S
C1436 C1437 1.386 . S
C1436 C1438 1.391 . S
C1437 C1436 1.386 . S
C1437 C1441 1.393 . S
C1438 H1430 0.950 . S
C1438 C1436 1.391 . S
C1438 C1439 1.400 . S
C1439 C1438 1.400 . S
C1439 C1440 1.398 . S
C1439 C1445 1.491 . S
C1440 H1431 0.950 . S
C1440 C1439 1.398 . S
C1440 C1441 1.391 . S
C1441 H1429 0.950 . S
C1441 C1437 1.393 . S
C1441 C1440 1.391 . S
C1442 H1432 0.950 . S
C1442 C1443 1.386 . S
C1442 C1444 1.391 . S
C1443 C1442 1.386 . S
C1443 C1447 1.393 . S
C1444 H1433 0.950 . S
C1444 C1442 1.391 . S
C1444 C1445 1.400 . S
C1445 C1439 1.491 . S
C1445 C1444 1.400 . S
C1445 C1446 1.398 . S
C1446 H1434 0.950 . S
C1446 C1445 1.398 . S
C1446 C1447 1.391 . S
C1447 H1435 0.950 . S
C1447 C1443 1.393 . S
C1447 C1446 1.391 . S
H1448 C1456 0.950 . S
H1449 C1461 0.950 . S
H1450 C1458 0.950 . S
H1451 C1460 0.950 . S
H1452 C1462 0.950 . S
H1453 C1464 0.950 . S
H1454 C1466 0.950 . S
H1455 C1467 0.950 . S
C1456 H1448 0.950 . S
C1456 C1457 1.386 . S
C1456 C1458 1.391 . S
C1457 C1456 1.386 . S
C1457 C1461 1.393 . S
C1458 H1450 0.950 . S
C1458 C1456 1.391 . S
C1458 C1459 1.400 . S
C1459 C1458 1.400 . S
C1459 C1460 1.398 . S
C1459 C1465 1.491 . S
C1460 H1451 0.950 . S
C1460 C1459 1.398 . S
C1460 C1461 1.391 . S
C1461 H1449 0.950 . S
C1461 C1457 1.393 . S
C1461 C1460 1.391 . S
C1462 H1452 0.950 . S
C1462 C1463 1.386 . S
C1462 C1464 1.391 . S
C1463 C1462 1.386 . S
C1463 C1467 1.393 . S
C1464 H1453 0.950 . S
C1464 C1462 1.391 . S
C1464 C1465 1.400 . S
C1465 C1459 1.491 . S
C1465 C1464 1.400 . S
C1465 C1466 1.398 . S
C1466 H1454 0.950 . S
C1466 C1465 1.398 . S
C1466 C1467 1.391 . S
C1467 H1455 0.950 . S
C1467 C1463 1.393 . S
C1467 C1466 1.391 . S
H1468 C1476 0.950 . S
H1469 C1481 0.950 . S
H1470 C1478 0.950 . S
H1471 C1480 0.950 . S
H1472 C1482 0.950 . S
H1473 C1484 0.950 . S
H1474 C1486 0.950 . S
H1475 C1487 0.950 . S
C1476 H1468 0.950 . S
C1476 C1477 1.386 . S
C1476 C1478 1.391 . S
C1477 C1476 1.386 . S
C1477 C1481 1.393 . S
C1478 H1470 0.950 . S
C1478 C1476 1.391 . S
C1478 C1479 1.400 . S
C1479 C1478 1.400 . S
C1479 C1480 1.398 . S
C1479 C1485 1.491 . S
C1480 H1471 0.950 . S
C1480 C1479 1.398 . S
C1480 C1481 1.391 . S
C1481 H1469 0.950 . S
C1481 C1477 1.393 . S
C1481 C1480 1.391 . S
C1482 H1472 0.950 . S
C1482 C1483 1.386 . S
C1482 C1484 1.391 . S
C1483 C1482 1.386 . S
C1483 C1487 1.393 . S
C1484 H1473 0.950 . S
C1484 C1482 1.391 . S
C1484 C1485 1.400 . S
C1485 C1479 1.491 . S
C1485 C1484 1.400 . S
C1485 C1486 1.398 . S
C1486 H1474 0.950 . S
C1486 C1485 1.398 . S
C1486 C1487 1.391 . S
C1487 H1475 0.950 . S
C1487 C1483 1.393 . S
C1487 C1486 1.391 . S
H1488 C1496 0.950 . S
H1489 C1501 0.950 . S
H1490 C1498 0.950 . S
H1491 C1500 0.950 . S
H1492 C1502 0.950 . S
H1493 C1504 0.950 . S
H1494 C1506 0.950 . S
H1495 C1507 0.950 . S
C1496 H1488 0.950 . S
C1496 C1497 1.386 . S
C1496 C1498 1.391 . S
C1497 C1496 1.386 . S
C1497 C1501 1.393 . S
C1498 H1490 0.950 . S
C1498 C1496 1.391 . S
C1498 C1499 1.400 . S
C1499 C1498 1.400 . S
C1499 C1500 1.398 . S
C1499 C1505 1.491 . S
C1500 H1491 0.950 . S
C1500 C1499 1.398 . S
C1500 C1501 1.391 . S
C1501 H1489 0.950 . S
C1501 C1497 1.393 . S
C1501 C1500 1.391 . S
C1502 H1492 0.950 . S
C1502 C1503 1.386 . S
C1502 C1504 1.391 . S
C1503 C1502 1.386 . S
C1503 C1507 1.393 . S
C1504 H1493 0.950 . S
C1504 C1502 1.391 . S
C1504 C1505 1.400 . S
C1505 C1499 1.491 . S
C1505 C1504 1.400 . S
C1505 C1506 1.398 . S
C1506 H1494 0.950 . S
C1506 C1505 1.398 . S
C1506 C1507 1.391 . S
C1507 H1495 0.950 . S
C1507 C1503 1.393 . S
C1507 C1506 1.391 . S
H1508 C1516 0.950 . S
H1509 C1521 0.950 . S
H1510 C1518 0.950 . S
H1511 C1520 0.950 . S
H1512 C1522 0.950 . S
H1513 C1524 0.950 . S
H1514 C1526 0.950 . S
H1515 C1527 0.950 . S
C1516 H1508 0.950 . S
C1516 C1517 1.386 . S
C1516 C1518 1.391 . S
C1517 C1516 1.386 . S
C1517 C1521 1.393 . S
C1518 H1510 0.950 . S
C1518 C1516 1.391 . S
C1518 C1519 1.400 . S
C1519 C1518 1.400 . S
C1519 C1520 1.398 . S
C1519 C1525 1.491 . S
C1520 H1511 0.950 . S
C1520 C1519 1.398 . S
C1520 C1521 1.391 . S
C1521 H1509 0.950 . S
C1521 C1517 1.393 . S
C1521 C1520 1.391 . S
C1522 H1512 0.950 . S
C1522 C1523 1.386 . S
C1522 C1524 1.391 . S
C1523 C1522 1.386 . S
C1523 C1527 1.393 . S
C1524 H1513 0.950 . S
C1524 C1522 1.391 . S
C1524 C1525 1.400 . S
C1525 C1519 1.491 . S
C1525 C1524 1.400 . S
C1525 C1526 1.398 . S
C1526 H1514 0.950 . S
C1526 C1525 1.398 . S
C1526 C1527 1.391 . S
C1527 H1515 0.950 . S
C1527 C1523 1.393 . S
C1527 C1526 1.391 . S
H1528 C1536 0.950 . S
H1529 C1541 0.950 . S
H1530 C1538 0.950 . S
H1531 C1540 0.950 . S
H1532 C1542 0.950 . S
H1533 C1544 0.950 . S
H1534 C1546 0.950 . S
H1535 C1547 0.950 . S
C1536 H1528 0.950 . S
C1536 C1537 1.386 . S
C1536 C1538 1.391 . S
C1537 C1536 1.386 . S
C1537 C1541 1.393 . S
C1538 H1530 0.950 . S
C1538 C1536 1.391 . S
C1538 C1539 1.400 . S
C1539 C1538 1.400 . S
C1539 C1540 1.398 . S
C1539 C1545 1.491 . S
C1540 H1531 0.950 . S
C1540 C1539 1.398 . S
C1540 C1541 1.391 . S
C1541 H1529 0.950 . S
C1541 C1537 1.393 . S
C1541 C1540 1.391 . S
C1542 H1532 0.950 . S
C1542 C1543 1.386 . S
C1542 C1544 1.391 . S
C1543 C1542 1.386 . S
C1543 C1547 1.393 . S
C1544 H1533 0.950 . S
C1544 C1542 1.391 . S
C1544 C1545 1.400 . S
C1545 C1539 1.491 . S
C1545 C1544 1.400 . S
C1545 C1546 1.398 . S
C1546 H1534 0.950 . S
C1546 C1545 1.398 . S
C1546 C1547 1.391 . S
C1547 H1535 0.950 . S
C1547 C1543 1.393 . S
C1547 C1546 1.391 . S
H1548 C1556 0.950 . S
H1549 C1561 0.950 . S
H1550 C1558 0.950 . S
H1551 C1560 0.950 . S
H1552 C1562 0.950 . S
H1553 C1564 0.950 . S
H1554 C1566 0.950 . S
H1555 C1567 0.950 . S
C1556 H1548 0.950 . S
C1556 C1557 1.386 . S
C1556 C1558 1.391 . S
C1557 C1556 1.386 . S
C1557 C1561 1.393 . S
C1558 H1550 0.950 . S
C1558 C1556 1.391 . S
C1558 C1559 1.400 . S
C1559 C1558 1.400 . S
C1559 C1560 1.398 . S
C1559 C1565 1.491 . S
C1560 H1551 0.950 . S
C1560 C1559 1.398 . S
C1560 C1561 1.391 . S
C1561 H1549 0.950 . S
C1561 C1557 1.393 . S
C1561 C1560 1.391 . S
C1562 H1552 0.950 . S
C1562 C1563 1.386 . S
C1562 C1564 1.391 . S
C1563 C1562 1.386 . S
C1563 C1567 1.393 . S
C1564 H1553 0.950 . S
C1564 C1562 1.391 . S
C1564 C1565 1.400 . S
C1565 C1559 1.491 . S
C1565 C1564 1.400 . S
C1565 C1566 1.398 . S
C1566 H1554 0.950 . S
C1566 C1565 1.398 . S
C1566 C1567 1.391 . S
C1567 H1555 0.950 . S
C1567 C1563 1.393 . S
C1567 C1566 1.391 . S
H1568 C1576 0.950 . S
H1569 C1581 0.950 . S
H1570 C1578 0.950 . S
H1571 C1580 0.950 . S
H1572 C1582 0.950 . S
H1573 C1584 0.950 . S
H1574 C1586 0.950 . S
H1575 C1587 0.950 . S
C1576 H1568 0.950 . S
C1576 C1577 1.386 . S
C1576 C1578 1.391 . S
C1577 C1576 1.386 . S
C1577 C1581 1.393 . S
C1578 H1570 0.950 . S
C1578 C1576 1.391 . S
C1578 C1579 1.400 . S
C1579 C1578 1.400 . S
C1579 C1580 1.398 . S
C1579 C1585 1.491 . S
C1580 H1571 0.950 . S
C1580 C1579 1.398 . S
C1580 C1581 1.391 . S
C1581 H1569 0.950 . S
C1581 C1577 1.393 . S
C1581 C1580 1.391 . S
C1582 H1572 0.950 . S
C1582 C1583 1.386 . S
C1582 C1584 1.391 . S
C1583 C1582 1.386 . S
C1583 C1587 1.393 . S
C1584 H1573 0.950 . S
C1584 C1582 1.391 . S
C1584 C1585 1.400 . S
C1585 C1579 1.491 . S
C1585 C1584 1.400 . S
C1585 C1586 1.398 . S
C1586 H1574 0.950 . S
C1586 C1585 1.398 . S
C1586 C1587 1.391 . S
C1587 H1575 0.950 . S
C1587 C1583 1.393 . S
C1587 C1586 1.391 . S
H1588 C1596 0.950 . S
H1589 C1601 0.950 . S
H1590 C1598 0.950 . S
H1591 C1600 0.950 . S
H1592 C1602 0.950 . S
H1593 C1604 0.950 . S
H1594 C1606 0.950 . S
H1595 C1607 0.950 . S
C1596 H1588 0.950 . S
C1596 C1597 1.386 . S
C1596 C1598 1.391 . S
C1597 C1596 1.386 . S
C1597 C1601 1.393 . S
C1598 H1590 0.950 . S
C1598 C1596 1.391 . S
C1598 C1599 1.400 . S
C1599 C1598 1.400 . S
C1599 C1600 1.398 . S
C1599 C1605 1.491 . S
C1600 H1591 0.950 . S
C1600 C1599 1.398 . S
C1600 C1601 1.391 . S
C1601 H1589 0.950 . S
C1601 C1597 1.393 . S
C1601 C1600 1.391 . S
C1602 H1592 0.950 . S
C1602 C1603 1.386 . S
C1602 C1604 1.391 . S
C1603 C1602 1.386 . S
C1603 C1607 1.393 . S
C1604 H1593 0.950 . S
C1604 C1602 1.391 . S
C1604 C1605 1.400 . S
C1605 C1599 1.491 . S
C1605 C1604 1.400 . S
C1605 C1606 1.398 . S
C1606 H1594 0.950 . S
C1606 C1605 1.398 . S
C1606 C1607 1.391 . S
C1607 H1595 0.950 . S
C1607 C1603 1.393 . S
C1607 C1606 1.391 . S
H1608 C1616 0.950 . S
H1609 C1621 0.950 . S
H1610 C1618 0.950 . S
H1611 C1620 0.950 . S
H1612 C1622 0.950 . S
H1613 C1624 0.950 . S
H1614 C1626 0.950 . S
H1615 C1627 0.950 . S
C1616 H1608 0.950 . S
C1616 C1617 1.386 . S
C1616 C1618 1.391 . S
C1617 C1616 1.386 . S
C1617 C1621 1.393 . S
C1618 H1610 0.950 . S
C1618 C1616 1.391 . S
C1618 C1619 1.400 . S
C1619 C1618 1.400 . S
C1619 C1620 1.398 . S
C1619 C1625 1.491 . S
C1620 H1611 0.950 . S
C1620 C1619 1.398 . S
C1620 C1621 1.391 . S
C1621 H1609 0.950 . S
C1621 C1617 1.393 . S
C1621 C1620 1.391 . S
C1622 H1612 0.950 . S
C1622 C1623 1.386 . S
C1622 C1624 1.391 . S
C1623 C1622 1.386 . S
C1623 C1627 1.393 . S
C1624 H1613 0.950 . S
C1624 C1622 1.391 . S
C1624 C1625 1.400 . S
C1625 C1619 1.491 . S
C1625 C1624 1.400 . S
C1625 C1626 1.398 . S
C1626 H1614 0.950 . S
C1626 C1625 1.398 . S
C1626 C1627 1.391 . S
C1627 H1615 0.950 . S
C1627 C1623 1.393 . S
C1627 C1626 1.391 . S
H1628 C1636 0.950 . S
H1629 C1641 0.950 . S
H1630 C1638 0.950 . S
H1631 C1640 0.950 . S
H1632 C1642 0.950 . S
H1633 C1644 0.950 . S
H1634 C1646 0.950 . S
H1635 C1647 0.950 . S
C1636 H1628 0.950 . S
C1636 C1637 1.386 . S
C1636 C1638 1.391 . S
C1637 C1636 1.386 . S
C1637 C1641 1.393 . S
C1638 H1630 0.950 . S
C1638 C1636 1.391 . S
C1638 C1639 1.400 . S
C1639 C1638 1.400 . S
C1639 C1640 1.398 . S
C1639 C1645 1.491 . S
C1640 H1631 0.950 . S
C1640 C1639 1.398 . S
C1640 C1641 1.391 . S
C1641 H1629 0.950 . S
C1641 C1637 1.393 . S
C1641 C1640 1.391 . S
C1642 H1632 0.950 . S
C1642 C1643 1.386 . S
C1642 C1644 1.391 . S
C1643 C1642 1.386 . S
C1643 C1647 1.393 . S
C1644 H1633 0.950 . S
C1644 C1642 1.391 . S
C1644 C1645 1.400 . S
C1645 C1639 1.491 . S
C1645 C1644 1.400 . S
C1645 C1646 1.398 . S
C1646 H1634 0.950 . S
C1646 C1645 1.398 . S
C1646 C1647 1.391 . S
C1647 H1635 0.950 . S
C1647 C1643 1.393 . S
C1647 C1646 1.391 . S
H1648 C1656 0.950 . S
H1649 C1661 0.950 . S
H1650 C1658 0.950 . S
H1651 C1660 0.950 . S
H1652 C1662 0.950 . S
H1653 C1664 0.950 . S
H1654 C1666 0.950 . S
H1655 C1667 0.950 . S
C1656 H1648 0.950 . S
C1656 C1657 1.386 . S
C1656 C1658 1.391 . S
C1657 C1656 1.386 . S
C1657 C1661 1.393 . S
C1658 H1650 0.950 . S
C1658 C1656 1.391 . S
C1658 C1659 1.400 . S
C1659 C1658 1.400 . S
C1659 C1660 1.398 . S
C1659 C1665 1.491 . S
C1660 H1651 0.950 . S
C1660 C1659 1.398 . S
C1660 C1661 1.391 . S
C1661 H1649 0.950 . S
C1661 C1657 1.393 . S
C1661 C1660 1.391 . S
C1662 H1652 0.950 . S
C1662 C1663 1.386 . S
C1662 C1664 1.391 . S
C1663 C1662 1.386 . S
C1663 C1667 1.393 . S
C1664 H1653 0.950 . S
C1664 C1662 1.391 . S
C1664 C1665 1.400 . S
C1665 C1659 1.491 . S
C1665 C1664 1.400 . S
C1665 C1666 1.398 . S
C1666 H1654 0.950 . S
C1666 C1665 1.398 . S
C1666 C1667 1.391 . S
C1667 H1655 0.950 . S
C1667 C1663 1.393 . S
C1667 C1666 1.391 . S
H1668 C1676 0.950 . S
H1669 C1681 0.950 . S
H1670 C1678 0.950 . S
H1671 C1680 0.950 . S
H1672 C1682 0.950 . S
H1673 C1684 0.950 . S
H1674 C1686 0.950 . S
H1675 C1687 0.950 . S
C1676 H1668 0.950 . S
C1676 C1677 1.386 . S
C1676 C1678 1.391 . S
C1677 C1676 1.386 . S
C1677 C1681 1.393 . S
C1678 H1670 0.950 . S
C1678 C1676 1.391 . S
C1678 C1679 1.400 . S
C1679 C1678 1.400 . S
C1679 C1680 1.398 . S
C1679 C1685 1.491 . S
C1680 H1671 0.950 . S
C1680 C1679 1.398 . S
C1680 C1681 1.391 . S
C1681 H1669 0.950 . S
C1681 C1677 1.393 . S
C1681 C1680 1.391 . S
C1682 H1672 0.950 . S
C1682 C1683 1.386 . S
C1682 C1684 1.391 . S
C1683 C1682 1.386 . S
C1683 C1687 1.393 . S
C1684 H1673 0.950 . S
C1684 C1682 1.391 . S
C1684 C1685 1.400 . S
C1685 C1679 1.491 . S
C1685 C1684 1.400 . S
C1685 C1686 1.398 . S
C1686 H1674 0.950 . S
C1686 C1685 1.398 . S
C1686 C1687 1.391 . S
C1687 H1675 0.950 . S
C1687 C1683 1.393 . S
C1687 C1686 1.391 . S
H1688 C1696 0.950 . S
H1689 C1701 0.950 . S
H1690 C1698 0.950 . S
H1691 C1700 0.950 . S
H1692 C1702 0.950 . S
H1693 C1704 0.950 . S
H1694 C1706 0.950 . S
H1695 C1707 0.950 . S
C1696 H1688 0.950 . S
C1696 C1697 1.386 . S
C1696 C1698 1.391 . S
C1697 C1696 1.386 . S
C1697 C1701 1.393 . S
C1698 H1690 0.950 . S
C1698 C1696 1.391 . S
C1698 C1699 1.400 . S
C1699 C1698 1.400 . S
C1699 C1700 1.398 . S
C1699 C1705 1.491 . S
C1700 H1691 0.950 . S
C1700 C1699 1.398 . S
C1700 C1701 1.391 . S
C1701 H1689 0.950 . S
C1701 C1697 1.393 . S
C1701 C1700 1.391 . S
C1702 H1692 0.950 . S
C1702 C1703 1.386 . S
C1702 C1704 1.391 . S
C1703 C1702 1.386 . S
C1703 C1707 1.393 . S
C1704 H1693 0.950 . S
C1704 C1702 1.391 . S
C1704 C1705 1.400 . S
C1705 C1699 1.491 . S
C1705 C1704 1.400 . S
C1705 C1706 1.398 . S
C1706 H1694 0.950 . S
C1706 C1705 1.398 . S
C1706 C1707 1.391 . S
C1707 H1695 0.950 . S
C1707 C1703 1.393 . S
C1707 C1706 1.391 . S
H1708 C1716 0.950 . S
H1709 C1721 0.950 . S
H1710 C1718 0.950 . S
H1711 C1720 0.950 . S
H1712 C1722 0.950 . S
H1713 C1724 0.950 . S
H1714 C1726 0.950 . S
H1715 C1727 0.950 . S
C1716 H1708 0.950 . S
C1716 C1717 1.386 . S
C1716 C1718 1.391 . S
C1717 C1716 1.386 . S
C1717 C1721 1.393 . S
C1718 H1710 0.950 . S
C1718 C1716 1.391 . S
C1718 C1719 1.400 . S
C1719 C1718 1.400 . S
C1719 C1720 1.398 . S
C1719 C1725 1.491 . S
C1720 H1711 0.950 . S
C1720 C1719 1.398 . S
C1720 C1721 1.391 . S
C1721 H1709 0.950 . S
C1721 C1717 1.393 . S
C1721 C1720 1.391 . S
C1722 H1712 0.950 . S
C1722 C1723 1.386 . S
C1722 C1724 1.391 . S
C1723 C1722 1.386 . S
C1723 C1727 1.393 . S
C1724 H1713 0.950 . S
C1724 C1722 1.391 . S
C1724 C1725 1.400 . S
C1725 C1719 1.491 . S
C1725 C1724 1.400 . S
C1725 C1726 1.398 . S
C1726 H1714 0.950 . S
C1726 C1725 1.398 . S
C1726 C1727 1.391 . S
C1727 H1715 0.950 . S
C1727 C1723 1.393 . S
C1727 C1726 1.391 . S
C457 C149 1.260 . S
C463 C9 1.236 . S
C477 C23 1.236 . S
C483 C163 1.260 . S
C497 C37 1.262 . S
C503 C121 1.245 . S
C517 C135 1.258 . S
C523 C51 1.250 . S
C537 C205 1.240 . S
C543 C65 1.252 . S
C557 C79 1.261 . S
C563 C219 1.246 . S
C577 C177 1.253 . S
C583 C93 1.240 . S
C597 C191 1.249 . S
C603 C107 1.242 . S
C617 C373 1.246 . S
C623 C233 1.261 . S
C637 C387 1.256 . S
C643 C247 1.252 . S
C657 C345 1.253 . S
C663 C261 1.239 . S
C677 C275 1.236 . S
C683 C359 1.261 . S
C697 C429 1.237 . S
C703 C289 1.261 . S
C717 C443 1.236 . S
C723 C303 1.261 . S
C737 C317 1.250 . S
C743 C401 1.259 . S
C757 C331 1.237 . S
C763 C415 1.256 . S
C777 C277 1.298 . S
C783 C11 1.284 . S
C797 C25 1.296 . S
C803 C263 1.303 . S
C817 C249 1.298 . S
C823 C39 1.284 . S
C837 C235 1.293 . S
C843 C53 1.303 . S
C857 C67 1.282 . S
C863 C333 1.283 . S
C877 C81 1.302 . S
C883 C319 1.290 . S
C897 C305 1.298 . S
C903 C95 1.285 . S
C917 C109 1.281 . S
C923 C291 1.293 . S
C937 C389 1.294 . S
C943 C123 1.282 . S
C957 C375 1.283 . S
C963 C137 1.297 . S
C977 C361 1.286 . S
C983 C151 1.300 . S
C997 C347 1.293 . S
C1003 C165 1.303 . S
C1017 C179 1.281 . S
C1023 C445 1.284 . S
C1037 C431 1.280 . S
C1043 C193 1.287 . S
C1057 C207 1.293 . S
C1063 C417 1.281 . S
C1077 C221 1.302 . S
C1083 C403 1.299 . S
C1097 C168 1.330 . S
C1103 C0 1.330 . S
C1117 C14 1.308 . S
C1123 C294 1.308 . S
C1137 C84 1.308 . S
C1143 C28 1.308 . S
C1157 C434 1.311 . S
C1163 C42 1.311 . S
C1177 C56 1.333 . S
C1183 C112 1.333 . S
C1197 C238 1.308 . S
C1203 C70 1.308 . S
C1217 C378 1.311 . S
C1223 C98 1.311 . S
C1237 C406 1.317 . S
C1243 C126 1.317 . S
C1257 C140 1.317 . S
C1263 C196 1.317 . S
C1277 C322 1.331 . S
C1283 C154 1.331 . S
C1297 C350 1.335 . S
C1303 C182 1.335 . S
C1317 C210 1.325 . S
C1323 C266 1.325 . S
C1337 C224 1.308 . S
C1343 C392 1.308 . S
C1357 C308 1.306 . S
C1363 C252 1.306 . S
C1377 C336 1.334 . S
C1383 C280 1.334 . S
C1397 C364 1.335 . S
C1403 C420 1.335 . S
C1417 C5 1.053 . S
C1423 C47 1.041 . S
C1437 C33 1.046 . S
C1443 C19 1.039 . S
C1457 C61 1.054 . S
C1463 C103 1.062 . S
C1477 C75 1.053 . S
C1483 C89 1.062 . S
C1497 C117 1.057 . S
C1503 C159 1.044 . S
C1517 C131 1.045 . S
C1523 C145 1.058 . S
C1537 C173 1.051 . S
C1543 C215 1.040 . S
C1557 C201 1.058 . S
C1563 C187 1.045 . S
C1577 C271 1.055 . S
C1583 C229 1.062 . S
C1597 C257 1.051 . S
C1603 C243 1.040 . S
C1617 C327 1.043 . S
C1623 C285 1.040 . S
C1637 C313 1.061 . S
C1643 C299 1.049 . S
C1657 C383 1.044 . S
C1663 C341 1.040 . S
C1677 C369 1.048 . S
C1683 C355 1.061 . S
C1697 C397 1.059 . S
C1703 C439 1.060 . S
C1717 C425 1.054 . S
C1723 C411 1.041 . S
