# Generated by pormake.
# Topology vcd, (5)-cn, num edge types: 1
# Building blocks:
#     Node 0, Type 0, BuildingBlock: BEQFEK_clean_sbu_0, # of connection points: 5
#     Node 1, Type 0, BuildingBlock: BEQFEK_clean_sbu_0, # of connection points: 5
#     Node 2, Type 0, BuildingBlock: BEQFEK_clean_sbu_0, # of connection points: 5
#     Node 3, Type 0, BuildingBlock: BEQFEK_clean_sbu_0, # of connection points: 5
#     Node 4, Type 0, BuildingBlock: BEQFEK_clean_sbu_0, # of connection points: 5
#     Node 5, Type 0, BuildingBlock: BEQFEK_clean_sbu_0, # of connection points: 5
#     Node 6, Type 0, BuildingBlock: BEQFEK_clean_sbu_0, # of connection points: 5
#     Node 7, Type 0, BuildingBlock: BEQFEK_clean_sbu_0, # of connection points: 5
#     Node 8, Type 0, BuildingBlock: BEQFEK_clean_sbu_0, # of connection points: 5
#     Node 9, Type 0, BuildingBlock: BEQFEK_clean_sbu_0, # of connection points: 5
#     Node 10, Type 0, BuildingBlock: BEQFEK_clean_sbu_0, # of connection points: 5
#     Node 11, Type 0, BuildingBlock: BEQFEK_clean_sbu_0, # of connection points: 5
#     Node 12, Type 0, BuildingBlock: BEQFEK_clean_sbu_0, # of connection points: 5
#     Node 13, Type 0, BuildingBlock: BEQFEK_clean_sbu_0, # of connection points: 5
#     Node 14, Type 0, BuildingBlock: BEQFEK_clean_sbu_0, # of connection points: 5
#     Node 15, Type 0, BuildingBlock: BEQFEK_clean_sbu_0, # of connection points: 5
#     Node 16, Type 0, BuildingBlock: BEQFEK_clean_sbu_0, # of connection points: 5
#     Node 17, Type 0, BuildingBlock: BEQFEK_clean_sbu_0, # of connection points: 5
#     Node 18, Type 0, BuildingBlock: BEQFEK_clean_sbu_0, # of connection points: 5
#     Node 19, Type 0, BuildingBlock: BEQFEK_clean_sbu_0, # of connection points: 5
#     Node 20, Type 0, BuildingBlock: BEQFEK_clean_sbu_0, # of connection points: 5
#     Node 21, Type 0, BuildingBlock: BEQFEK_clean_sbu_0, # of connection points: 5
#     Node 22, Type 0, BuildingBlock: BEQFEK_clean_sbu_0, # of connection points: 5
#     Node 23, Type 0, BuildingBlock: BEQFEK_clean_sbu_0, # of connection points: 5
#     Node 24, Type 0, BuildingBlock: BEQFEK_clean_sbu_0, # of connection points: 5
#     Node 25, Type 0, BuildingBlock: BEQFEK_clean_sbu_0, # of connection points: 5
#     Node 26, Type 0, BuildingBlock: BEQFEK_clean_sbu_0, # of connection points: 5
#     Node 27, Type 0, BuildingBlock: BEQFEK_clean_sbu_0, # of connection points: 5
#     Node 28, Type 0, BuildingBlock: BEQFEK_clean_sbu_0, # of connection points: 5
#     Node 29, Type 0, BuildingBlock: BEQFEK_clean_sbu_0, # of connection points: 5
#     Node 30, Type 0, BuildingBlock: BEQFEK_clean_sbu_0, # of connection points: 5
#     Node 31, Type 0, BuildingBlock: BEQFEK_clean_sbu_0, # of connection points: 5
#     Edge 32, Type (0, 0), BuildingBlock: KIFKEQ_clean_linker_1, # of connection points: 2
#     Edge 33, Type (0, 0), BuildingBlock: KIFKEQ_clean_linker_1, # of connection points: 2
#     Edge 34, Type (0, 0), BuildingBlock: KIFKEQ_clean_linker_1, # of connection points: 2
#     Edge 35, Type (0, 0), BuildingBlock: KIFKEQ_clean_linker_1, # of connection points: 2
#     Edge 36, Type (0, 0), BuildingBlock: KIFKEQ_clean_linker_1, # of connection points: 2
#     Edge 37, Type (0, 0), BuildingBlock: KIFKEQ_clean_linker_1, # of connection points: 2
#     Edge 38, Type (0, 0), BuildingBlock: KIFKEQ_clean_linker_1, # of connection points: 2
#     Edge 39, Type (0, 0), BuildingBlock: KIFKEQ_clean_linker_1, # of connection points: 2
#     Edge 40, Type (0, 0), BuildingBlock: KIFKEQ_clean_linker_1, # of connection points: 2
#     Edge 41, Type (0, 0), BuildingBlock: KIFKEQ_clean_linker_1, # of connection points: 2
#     Edge 42, Type (0, 0), BuildingBlock: KIFKEQ_clean_linker_1, # of connection points: 2
#     Edge 43, Type (0, 0), BuildingBlock: KIFKEQ_clean_linker_1, # of connection points: 2
#     Edge 44, Type (0, 0), BuildingBlock: KIFKEQ_clean_linker_1, # of connection points: 2
#     Edge 45, Type (0, 0), BuildingBlock: KIFKEQ_clean_linker_1, # of connection points: 2
#     Edge 46, Type (0, 0), BuildingBlock: KIFKEQ_clean_linker_1, # of connection points: 2
#     Edge 47, Type (0, 0), BuildingBlock: KIFKEQ_clean_linker_1, # of connection points: 2
#     Edge 48, Type (0, 0), BuildingBlock: KIFKEQ_clean_linker_1, # of connection points: 2
#     Edge 49, Type (0, 0), BuildingBlock: KIFKEQ_clean_linker_1, # of connection points: 2
#     Edge 50, Type (0, 0), BuildingBlock: KIFKEQ_clean_linker_1, # of connection points: 2
#     Edge 51, Type (0, 0), BuildingBlock: KIFKEQ_clean_linker_1, # of connection points: 2
#     Edge 52, Type (0, 0), BuildingBlock: KIFKEQ_clean_linker_1, # of connection points: 2
#     Edge 53, Type (0, 0), BuildingBlock: KIFKEQ_clean_linker_1, # of connection points: 2
#     Edge 54, Type (0, 0), BuildingBlock: KIFKEQ_clean_linker_1, # of connection points: 2
#     Edge 55, Type (0, 0), BuildingBlock: KIFKEQ_clean_linker_1, # of connection points: 2
#     Edge 56, Type (0, 0), BuildingBlock: KIFKEQ_clean_linker_1, # of connection points: 2
#     Edge 57, Type (0, 0), BuildingBlock: KIFKEQ_clean_linker_1, # of connection points: 2
#     Edge 58, Type (0, 0), BuildingBlock: KIFKEQ_clean_linker_1, # of connection points: 2
#     Edge 59, Type (0, 0), BuildingBlock: KIFKEQ_clean_linker_1, # of connection points: 2
#     Edge 60, Type (0, 0), BuildingBlock: KIFKEQ_clean_linker_1, # of connection points: 2
#     Edge 61, Type (0, 0), BuildingBlock: KIFKEQ_clean_linker_1, # of connection points: 2
#     Edge 62, Type (0, 0), BuildingBlock: KIFKEQ_clean_linker_1, # of connection points: 2
#     Edge 63, Type (0, 0), BuildingBlock: KIFKEQ_clean_linker_1, # of connection points: 2
#     Edge 64, Type (0, 0), BuildingBlock: KIFKEQ_clean_linker_1, # of connection points: 2
#     Edge 65, Type (0, 0), BuildingBlock: KIFKEQ_clean_linker_1, # of connection points: 2
#     Edge 66, Type (0, 0), BuildingBlock: KIFKEQ_clean_linker_1, # of connection points: 2
#     Edge 67, Type (0, 0), BuildingBlock: KIFKEQ_clean_linker_1, # of connection points: 2
#     Edge 68, Type (0, 0), BuildingBlock: KIFKEQ_clean_linker_1, # of connection points: 2
#     Edge 69, Type (0, 0), BuildingBlock: KIFKEQ_clean_linker_1, # of connection points: 2
#     Edge 70, Type (0, 0), BuildingBlock: KIFKEQ_clean_linker_1, # of connection points: 2
#     Edge 71, Type (0, 0), BuildingBlock: KIFKEQ_clean_linker_1, # of connection points: 2
#     Edge 72, Type (0, 0), BuildingBlock: KIFKEQ_clean_linker_1, # of connection points: 2
#     Edge 73, Type (0, 0), BuildingBlock: KIFKEQ_clean_linker_1, # of connection points: 2
#     Edge 74, Type (0, 0), BuildingBlock: KIFKEQ_clean_linker_1, # of connection points: 2
#     Edge 75, Type (0, 0), BuildingBlock: KIFKEQ_clean_linker_1, # of connection points: 2
#     Edge 76, Type (0, 0), BuildingBlock: KIFKEQ_clean_linker_1, # of connection points: 2
#     Edge 77, Type (0, 0), BuildingBlock: KIFKEQ_clean_linker_1, # of connection points: 2
#     Edge 78, Type (0, 0), BuildingBlock: KIFKEQ_clean_linker_1, # of connection points: 2
#     Edge 79, Type (0, 0), BuildingBlock: KIFKEQ_clean_linker_1, # of connection points: 2
#     Edge 80, Type (0, 0), BuildingBlock: KIFKEQ_clean_linker_1, # of connection points: 2
#     Edge 81, Type (0, 0), BuildingBlock: KIFKEQ_clean_linker_1, # of connection points: 2
#     Edge 82, Type (0, 0), BuildingBlock: KIFKEQ_clean_linker_1, # of connection points: 2
#     Edge 83, Type (0, 0), BuildingBlock: KIFKEQ_clean_linker_1, # of connection points: 2
#     Edge 84, Type (0, 0), BuildingBlock: KIFKEQ_clean_linker_1, # of connection points: 2
#     Edge 85, Type (0, 0), BuildingBlock: KIFKEQ_clean_linker_1, # of connection points: 2
#     Edge 86, Type (0, 0), BuildingBlock: KIFKEQ_clean_linker_1, # of connection points: 2
#     Edge 87, Type (0, 0), BuildingBlock: KIFKEQ_clean_linker_1, # of connection points: 2
#     Edge 88, Type (0, 0), BuildingBlock: KIFKEQ_clean_linker_1, # of connection points: 2
#     Edge 89, Type (0, 0), BuildingBlock: KIFKEQ_clean_linker_1, # of connection points: 2
#     Edge 90, Type (0, 0), BuildingBlock: KIFKEQ_clean_linker_1, # of connection points: 2
#     Edge 91, Type (0, 0), BuildingBlock: KIFKEQ_clean_linker_1, # of connection points: 2
#     Edge 92, Type (0, 0), BuildingBlock: KIFKEQ_clean_linker_1, # of connection points: 2
#     Edge 93, Type (0, 0), BuildingBlock: KIFKEQ_clean_linker_1, # of connection points: 2
#     Edge 94, Type (0, 0), BuildingBlock: KIFKEQ_clean_linker_1, # of connection points: 2
#     Edge 95, Type (0, 0), BuildingBlock: KIFKEQ_clean_linker_1, # of connection points: 2
#     Edge 96, Type (0, 0), BuildingBlock: KIFKEQ_clean_linker_1, # of connection points: 2
#     Edge 97, Type (0, 0), BuildingBlock: KIFKEQ_clean_linker_1, # of connection points: 2
#     Edge 98, Type (0, 0), BuildingBlock: KIFKEQ_clean_linker_1, # of connection points: 2
#     Edge 99, Type (0, 0), BuildingBlock: KIFKEQ_clean_linker_1, # of connection points: 2
#     Edge 100, Type (0, 0), BuildingBlock: KIFKEQ_clean_linker_1, # of connection points: 2
#     Edge 101, Type (0, 0), BuildingBlock: KIFKEQ_clean_linker_1, # of connection points: 2
#     Edge 102, Type (0, 0), BuildingBlock: KIFKEQ_clean_linker_1, # of connection points: 2
#     Edge 103, Type (0, 0), BuildingBlock: KIFKEQ_clean_linker_1, # of connection points: 2
#     Edge 104, Type (0, 0), BuildingBlock: KIFKEQ_clean_linker_1, # of connection points: 2
#     Edge 105, Type (0, 0), BuildingBlock: KIFKEQ_clean_linker_1, # of connection points: 2
#     Edge 106, Type (0, 0), BuildingBlock: KIFKEQ_clean_linker_1, # of connection points: 2
#     Edge 107, Type (0, 0), BuildingBlock: KIFKEQ_clean_linker_1, # of connection points: 2
#     Edge 108, Type (0, 0), BuildingBlock: KIFKEQ_clean_linker_1, # of connection points: 2
#     Edge 109, Type (0, 0), BuildingBlock: KIFKEQ_clean_linker_1, # of connection points: 2
#     Edge 110, Type (0, 0), BuildingBlock: KIFKEQ_clean_linker_1, # of connection points: 2
#     Edge 111, Type (0, 0), BuildingBlock: KIFKEQ_clean_linker_1, # of connection points: 2
# Relax obj value: 0.027
# Max RMSD: 0.075
# Mean RMSD: 0.075
data_MOF--net-vcd--node1-BEQFEK_clean_sbu_0--edge1-KIFKEQ_clean_linker_1
_symmetry_space_group_name_H-M    P1
_symmetry_Int_Tables_number       1
_symmetry_cell_setting            triclinic
loop_
_symmetry_equiv_pos_as_xyz
'x, y, z'
_cell_length_a     154.89108
_cell_length_b     55.52644
_cell_length_c     22.384748
_cell_angle_alpha  90.030665
_cell_angle_beta   90.006831
_cell_angle_gamma 89.993791
loop_
_atom_site_label
_atom_site_type_symbol
_atom_site_fract_x
_atom_site_fract_y
_atom_site_fract_z
_atom_type_partial_charge
Co0 Co 0.07889 0.46116 0.13076 0.0
Co1 Co 0.05854 0.46395 0.11712 0.0
C2 C 0.06922 0.4363 0.03044 0.0
O3 O 0.07611 0.44164 0.0587 0.0
O4 O 0.06187 0.44429 0.04692 0.0
C5 C 0.09668 0.46955 0.09558 0.0
O6 O 0.09336 0.47497 0.04328 0.0
C7 C 0.04038 0.47114 0.07468 0.0
C8 C 0.03429 0.48396 0.15807 0.0
C9 C 0.03259 0.47933 0.09842 0.0
N10 N 0.0464 0.47145 0.11821 0.0
N11 N 0.04266 0.47895 0.16794 0.0
C12 C 0.04202 0.46188 0.01296 0.0
H13 H 0.04629 0.44591 0.01507 0.0
H14 H 0.04535 0.476 0.98649 0.0
H15 H 0.03594 0.45666 0.99028 0.0
C16 C 0.07673 0.51432 0.13221 0.0
N17 N 0.07354 0.49181 0.12794 0.0
N18 N 0.06513 0.49297 0.1196 0.0
C19 C 0.06277 0.51629 0.11619 0.0
C20 C 0.07002 0.53063 0.12467 0.0
C21 C 0.08592 0.51998 0.14743 0.0
H22 H 0.08853 0.50622 0.17842 0.0
H23 H 0.08984 0.51981 0.10595 0.0
H24 H 0.08649 0.538 0.16854 0.0
O25 O 0.07484 0.44314 0.20063 0.0
O26 O 0.0606 0.44372 0.18934 0.0
H27 H 0.04974 0.52399 0.14118 0.0
H28 H 0.05389 0.54332 0.08314 0.0
C29 C 0.05385 0.52464 0.10067 0.0
H30 H 0.05103 0.51264 0.0663 0.0
H31 H 0.04588 0.48092 0.20862 0.0
O32 O 0.09167 0.46364 0.13814 0.0
C33 C 0.06732 0.43702 0.21764 0.0
Co34 Co 0.17902 0.78176 0.1294 0.0
Co35 Co 0.19933 0.77896 0.11839 0.0
C36 C 0.18887 0.80611 0.02957 0.0
O37 O 0.1819 0.80084 0.05699 0.0
O38 O 0.19618 0.79835 0.0474 0.0
C39 C 0.16123 0.77553 0.0922 0.0
O40 O 0.16456 0.77279 0.03862 0.0
C41 C 0.2171 0.77 0.07385 0.0
C42 C 0.22382 0.76116 0.15814 0.0
C43 C 0.22506 0.76318 0.09711 0.0
N44 N 0.21143 0.77185 0.1192 0.0
N45 N 0.21553 0.76679 0.16946 0.0
C46 C 0.21473 0.77289 0.00948 0.0
H47 H 0.20788 0.76779 0.00237 0.0
H48 H 0.21896 0.76175 0.98053 0.0
H49 H 0.21552 0.79207 0.9967 0.0
C50 C 0.18111 0.72859 0.12979 0.0
N51 N 0.18436 0.75109 0.12741 0.0
N52 N 0.1928 0.74988 0.12099 0.0
C53 C 0.19515 0.72653 0.1176 0.0
C54 C 0.18783 0.71233 0.12325 0.0
C55 C 0.17171 0.72287 0.13593 0.0
H56 H 0.16885 0.73402 0.17198 0.0
H57 H 0.16839 0.72736 0.09351 0.0
H58 H 0.17064 0.70353 0.14576 0.0
O59 O 0.18294 0.80031 0.19914 0.0
O60 O 0.1972 0.79948 0.18971 0.0
H61 H 0.20807 0.72345 0.1499 0.0
H62 H 0.20461 0.69807 0.10601 0.0
C63 C 0.20425 0.71793 0.11036 0.0
H64 H 0.20714 0.72639 0.07023 0.0
H65 H 0.21261 0.76667 0.21144 0.0
O66 O 0.16624 0.77908 0.13635 0.0
C67 C 0.19042 0.80649 0.21684 0.0
Co68 Co 0.07867 0.78153 0.11377 0.0
Co69 Co 0.05833 0.77862 0.12464 0.0
C70 C 0.0687 0.80696 0.2116 0.0
O71 O 0.07568 0.80143 0.18453 0.0
O72 O 0.0614 0.79887 0.19445 0.0
C73 C 0.09645 0.77603 0.15205 0.0
O74 O 0.09311 0.77402 0.20576 0.0
C75 C 0.04044 0.76989 0.16817 0.0
C76 C 0.03397 0.75987 0.08375 0.0
C77 C 0.03257 0.7626 0.14444 0.0
N78 N 0.04623 0.77133 0.12339 0.0
N79 N 0.04227 0.76557 0.07304 0.0
C80 C 0.04264 0.7736 0.23258 0.0
H81 H 0.0495 0.7689 0.24082 0.0
H82 H 0.0384 0.76258 0.26175 0.0
H83 H 0.0417 0.79287 0.244 0.0
C84 C 0.07668 0.72845 0.11637 0.0
N85 N 0.07337 0.75089 0.11769 0.0
N86 N 0.06493 0.74961 0.12413 0.0
C87 C 0.06264 0.72624 0.12863 0.0
C88 C 0.06999 0.71214 0.12363 0.0
C89 C 0.08608 0.72285 0.11031 0.0
H90 H 0.08942 0.72791 0.15229 0.0
H91 H 0.08721 0.70343 0.10179 0.0
H92 H 0.08889 0.73364 0.07341 0.0
O93 O 0.07478 0.79909 0.04261 0.0
O94 O 0.06052 0.79839 0.05206 0.0
H95 H 0.04977 0.72239 0.09581 0.0
H96 H 0.05325 0.69776 0.14218 0.0
C97 C 0.05356 0.71756 0.13607 0.0
H98 H 0.05058 0.72655 0.17522 0.0
H99 H 0.0453 0.765 0.03145 0.0
O100 O 0.09146 0.77891 0.10753 0.0
C101 C 0.0673 0.80504 0.02444 0.0
Co102 Co 0.17926 0.46204 0.12015 0.0
Co103 Co 0.19968 0.46432 0.12393 0.0
C104 C 0.18938 0.43703 0.21555 0.0
O105 O 0.18216 0.44312 0.19268 0.0
O106 O 0.19652 0.44419 0.19357 0.0
C107 C 0.16141 0.46694 0.15831 0.0
O108 O 0.16467 0.46697 0.21251 0.0
C109 C 0.21722 0.47651 0.16935 0.0
C110 C 0.22502 0.47088 0.08794 0.0
C111 C 0.22563 0.47725 0.14761 0.0
N112 N 0.21191 0.47011 0.12434 0.0
N113 N 0.21664 0.46688 0.07585 0.0
C114 C 0.21434 0.48015 0.23253 0.0
H115 H 0.20768 0.47341 0.23909 0.0
H116 H 0.21443 0.49963 0.24336 0.0
H117 H 0.21883 0.47089 0.26361 0.0
C118 C 0.18155 0.51505 0.1194 0.0
N119 N 0.18478 0.49253 0.1208 0.0
N120 N 0.19328 0.49362 0.12209 0.0
C121 C 0.19571 0.51695 0.1214 0.0
C122 C 0.18837 0.53125 0.11997 0.0
C123 C 0.17211 0.52077 0.12019 0.0
H124 H 0.16921 0.51332 0.16152 0.0
H125 H 0.17088 0.54043 0.11889 0.0
H126 H 0.16893 0.51201 0.08148 0.0
O127 O 0.18292 0.44296 0.0498 0.0
O128 O 0.19724 0.44451 0.05254 0.0
H129 H 0.20528 0.54461 0.10528 0.0
H130 H 0.20784 0.52341 0.16354 0.0
C131 C 0.20487 0.52542 0.11882 0.0
H132 H 0.20857 0.51433 0.08657 0.0
H133 H 0.21415 0.46162 0.03455 0.0
O134 O 0.16647 0.46543 0.11372 0.0
C135 C 0.19026 0.43716 0.02865 0.0
Co136 Co 0.92919 0.5334 0.86687 0.0
Co137 Co 0.94951 0.53098 0.87732 0.0
C138 C 0.93901 0.55896 0.96466 0.0
O139 O 0.93204 0.55339 0.93772 0.0
O140 O 0.94631 0.55095 0.94731 0.0
C141 C 0.91143 0.52754 0.90505 0.0
O142 O 0.91479 0.52579 0.95879 0.0
C143 C 0.96699 0.51989 0.92391 0.0
C144 C 0.97452 0.51889 0.84014 0.0
C145 C 0.97529 0.51604 0.90146 0.0
N146 N 0.96167 0.52469 0.87785 0.0
N147 N 0.96623 0.5242 0.82804 0.0
C148 C 0.96394 0.5175 0.98704 0.0
H149 H 0.95688 0.51416 0.98821 0.0
H150 H 0.96738 0.5026 0.00996 0.0
H151 H 0.96525 0.53454 0.01129 0.0
C152 C 0.93135 0.48036 0.8688 0.0
N153 N 0.9346 0.50286 0.87046 0.0
N154 N 0.94307 0.50171 0.87561 0.0
C155 C 0.94544 0.47835 0.87819 0.0
C156 C 0.93811 0.46415 0.87407 0.0
C157 C 0.92195 0.47458 0.86399 0.0
H158 H 0.91869 0.47979 0.90617 0.0
H159 H 0.92084 0.45511 0.85609 0.0
H160 H 0.91903 0.48515 0.82709 0.0
O161 O 0.93302 0.55119 0.79573 0.0
O162 O 0.94728 0.55077 0.80491 0.0
H163 H 0.95853 0.47854 0.84758 0.0
H164 H 0.95501 0.44987 0.87674 0.0
C165 C 0.95457 0.46969 0.88243 0.0
H166 H 0.95723 0.47459 0.92674 0.0
H167 H 0.96366 0.52722 0.78561 0.0
O168 O 0.91641 0.5304 0.86045 0.0
C169 C 0.94047 0.55731 0.77745 0.0
Co170 Co 0.8289 0.21312 0.86591 0.0
Co171 Co 0.80855 0.21586 0.87156 0.0
C172 C 0.81874 0.18884 0.96317 0.0
O173 O 0.82593 0.19455 0.93924 0.0
O174 O 0.81158 0.19615 0.94184 0.0
C175 C 0.84668 0.22053 0.90327 0.0
O176 O 0.84337 0.22417 0.95655 0.0
C177 C 0.79094 0.22574 0.9168 0.0
C178 C 0.78363 0.22845 0.83233 0.0
C179 C 0.78268 0.22984 0.89387 0.0
N180 N 0.7964 0.22219 0.87083 0.0
N181 N 0.79197 0.22372 0.82056 0.0
C182 C 0.79385 0.22689 0.98049 0.0
H183 H 0.8009 0.23031 0.98288 0.0
H184 H 0.79036 0.24134 0.00484 0.0
H185 H 0.79252 0.20938 0.00247 0.0
C186 C 0.82674 0.26628 0.86197 0.0
N187 N 0.8235 0.2438 0.86537 0.0
N188 N 0.81503 0.245 0.86929 0.0
C189 C 0.81262 0.26834 0.86964 0.0
C190 C 0.81996 0.28264 0.86484 0.0
C191 C 0.83609 0.27187 0.8525 0.0
H192 H 0.83894 0.25876 0.82078 0.0
H193 H 0.83955 0.27035 0.89574 0.0
H194 H 0.83701 0.29032 0.83461 0.0
O195 O 0.8252 0.19393 0.79627 0.0
O196 O 0.81089 0.1956 0.80059 0.0
H197 H 0.79961 0.2716 0.83862 0.0
H198 H 0.80307 0.29633 0.88562 0.0
C199 C 0.80351 0.27664 0.87828 0.0
H200 H 0.80073 0.26757 0.91778 0.0
H201 H 0.79467 0.22172 0.77814 0.0
O202 O 0.84168 0.21593 0.85972 0.0
C203 C 0.81781 0.18813 0.77607 0.0
Co204 Co 0.9291 0.21289 0.87604 0.0
Co205 Co 0.94945 0.21605 0.87033 0.0
C206 C 0.93945 0.1894 0.77766 0.0
O207 O 0.93226 0.19485 0.80206 0.0
O208 O 0.94662 0.19665 0.7991 0.0
C209 C 0.91134 0.22088 0.83863 0.0
O210 O 0.91469 0.22573 0.78605 0.0
C211 C 0.96748 0.22406 0.82968 0.0
C212 C 0.97361 0.23596 0.91385 0.0
C213 C 0.97525 0.23197 0.85385 0.0
N214 N 0.96153 0.22344 0.87355 0.0
N215 N 0.96528 0.23035 0.92378 0.0
C216 C 0.96549 0.2193 0.76535 0.0
H217 H 0.95878 0.22491 0.75504 0.0
H218 H 0.97004 0.229 0.7356 0.0
H219 H 0.96604 0.19968 0.75667 0.0
C220 C 0.93113 0.26609 0.88233 0.0
N221 N 0.93439 0.24365 0.87792 0.0
N222 N 0.94284 0.24499 0.87243 0.0
C223 C 0.94518 0.26836 0.87106 0.0
C224 C 0.93785 0.28256 0.87793 0.0
C225 C 0.92182 0.27149 0.89427 0.0
H226 H 0.91905 0.25768 0.92446 0.0
H227 H 0.91821 0.27109 0.85148 0.0
H228 H 0.92101 0.2895 0.91502 0.0
O229 O 0.93279 0.19344 0.94497 0.0
O230 O 0.94709 0.19526 0.94052 0.0
H231 H 0.95808 0.27564 0.89982 0.0
H232 H 0.95423 0.29581 0.84246 0.0
C233 C 0.95417 0.27691 0.85845 0.0
H234 H 0.95716 0.26541 0.82372 0.0
H235 H 0.96208 0.23177 0.96465 0.0
O236 O 0.91632 0.21537 0.88166 0.0
C237 C 0.94019 0.18757 0.96483 0.0
Co238 Co 0.8289 0.53321 0.88182 0.0
Co239 Co 0.80859 0.53095 0.87038 0.0
C240 C 0.81931 0.55677 0.7802 0.0
O241 O 0.82624 0.55164 0.80817 0.0
O242 O 0.81197 0.54938 0.79835 0.0
C243 C 0.84667 0.52642 0.84555 0.0
O244 O 0.84335 0.52364 0.79196 0.0
C245 C 0.79122 0.51941 0.82295 0.0
C246 C 0.78342 0.5206 0.9055 0.0
C247 C 0.78282 0.51649 0.8445 0.0
N248 N 0.79642 0.52493 0.86917 0.0
N249 N 0.7917 0.5257 0.91826 0.0
C250 C 0.79448 0.51563 0.76073 0.0
H251 H 0.80154 0.51217 0.76115 0.0
H252 H 0.7911 0.50029 0.73925 0.0
H253 H 0.7933 0.53215 0.73409 0.0
C254 C 0.82662 0.48018 0.88441 0.0
N255 N 0.82342 0.50271 0.88143 0.0
N256 N 0.81495 0.50163 0.87599 0.0
C257 C 0.81254 0.4783 0.87464 0.0
C258 C 0.81984 0.46405 0.87979 0.0
C259 C 0.83601 0.47423 0.8892 0.0
H260 H 0.83921 0.47847 0.84618 0.0
H261 H 0.83704 0.45489 0.8994 0.0
H262 H 0.83903 0.48541 0.92458 0.0
O263 O 0.82497 0.55261 0.95024 0.0
O264 O 0.81071 0.55209 0.94054 0.0
H265 H 0.80294 0.44998 0.87711 0.0
H266 H 0.80099 0.47369 0.82381 0.0
C267 C 0.80342 0.46967 0.86927 0.0
H268 H 0.7993 0.47921 0.90209 0.0
H269 H 0.79415 0.52954 0.96062 0.0
O270 O 0.84166 0.5302 0.88957 0.0
C271 C 0.8175 0.55916 0.96742 0.0
Co272 Co 0.07875 0.96141 0.6268 0.0
Co273 Co 0.05841 0.96341 0.61631 0.0
C274 C 0.06911 0.93691 0.52691 0.0
O275 O 0.07608 0.94235 0.55399 0.0
O276 O 0.0618 0.94438 0.54532 0.0
C277 C 0.09655 0.9681 0.59033 0.0
O278 O 0.09327 0.97037 0.53649 0.0
C279 C 0.04093 0.97532 0.57005 0.0
C280 C 0.03302 0.9692 0.65083 0.0
C281 C 0.0325 0.97573 0.59129 0.0
N282 N 0.04619 0.96896 0.61526 0.0
N283 N 0.04141 0.96544 0.66339 0.0
C284 C 0.04384 0.97906 0.50701 0.0
H285 H 0.05084 0.97544 0.50242 0.0
H286 H 0.04256 -0.0021 0.49328 0.0
H287 H 0.04012 0.9671 0.47671 0.0
C288 C 0.07635 0.01444 0.62846 0.0
N289 N 0.07319 0.99185 0.62558 0.0
N290 N 0.06472 0.99281 0.6207 0.0
C291 C 0.06226 0.01611 0.61975 0.0
C292 C 0.06953 0.03048 0.62442 0.0
C293 C 0.08574 0.02047 0.63291 0.0
H294 H 0.08896 0.01573 0.59025 0.0
H295 H 0.08677 0.03992 0.64181 0.0
H296 H 0.08875 0.00969 0.66905 0.0
O297 O 0.07491 0.9424 0.69612 0.0
O298 O 0.06064 0.94285 0.68714 0.0
H299 H 0.05256 0.04409 0.6259 0.0
H300 H 0.05063 0.02124 0.5703 0.0
C301 C 0.0531 0.02456 0.61601 0.0
H302 H 0.04906 0.01436 0.64804 0.0
H303 H 0.04386 0.96013 0.70473 0.0
O304 O 0.09151 0.96467 0.63436 0.0
C305 C 0.06746 0.93597 0.71392 0.0
Co306 Co 0.17906 0.28174 0.62557 0.0
Co307 Co 0.19949 0.27897 0.62016 0.0
C308 C 0.18923 0.30643 0.52925 0.0
O309 O 0.18202 0.3005 0.55259 0.0
O310 O 0.19638 0.29913 0.5508 0.0
C311 C 0.1613 0.27419 0.58787 0.0
O312 O 0.16465 0.27034 0.53481 0.0
C313 C 0.21732 0.26831 0.57599 0.0
C314 C 0.22451 0.26829 0.66124 0.0
C315 C 0.22552 0.26533 0.60024 0.0
N316 N 0.21171 0.27256 0.62087 0.0
N317 N 0.21608 0.2725 0.67159 0.0
C318 C 0.21496 0.26824 0.51112 0.0
H319 H 0.20867 0.27717 0.50366 0.0
H320 H 0.21445 0.24939 0.49514 0.0
H321 H 0.22005 0.27734 0.48453 0.0
C322 C 0.18125 0.2286 0.62973 0.0
N323 N 0.18449 0.25107 0.62581 0.0
N324 N 0.19296 0.24986 0.62212 0.0
C325 C 0.19537 0.22652 0.62254 0.0
C326 C 0.18803 0.21224 0.62751 0.0
C327 C 0.1719 0.22305 0.63954 0.0
H328 H 0.16907 0.23627 0.67105 0.0
H329 H 0.16842 0.22443 0.59635 0.0
H330 H 0.17099 0.20466 0.65783 0.0
O331 O 0.18279 0.30077 0.69546 0.0
O332 O 0.1971 0.29902 0.69163 0.0
H333 H 0.20834 0.22358 0.65452 0.0
H334 H 0.20495 0.19846 0.60846 0.0
C335 C 0.20449 0.2182 0.61488 0.0
H336 H 0.20731 0.22704 0.57515 0.0
H337 H 0.21331 0.27549 0.71342 0.0
O338 O 0.16627 0.27894 0.63152 0.0
C339 C 0.19017 0.30648 0.71601 0.0
Co340 Co 0.07879 0.28133 0.61545 0.0
Co341 Co 0.05849 0.27926 0.62812 0.0
C342 C 0.06926 0.30588 0.71638 0.0
O343 O 0.07617 0.30043 0.68848 0.0
O344 O 0.06191 0.29836 0.69888 0.0
C345 C 0.09657 0.2734 0.65079 0.0
O346 O 0.09328 0.26958 0.70404 0.0
C347 C 0.04091 0.26972 0.67544 0.0
C348 C 0.03347 0.26723 0.59148 0.0
C349 C 0.0326 0.26576 0.65306 0.0
N350 N 0.04631 0.27323 0.62909 0.0
N351 N 0.0418 0.27184 0.57915 0.0
C352 C 0.04391 0.2685 0.73893 0.0
H353 H 0.05097 0.26525 0.74086 0.0
H354 H 0.04049 0.25391 0.76322 0.0
H355 H 0.04254 0.28592 0.7613 0.0
C356 C 0.0764 0.22826 0.6123 0.0
N357 N 0.07328 0.25083 0.61692 0.0
N358 N 0.06484 0.24988 0.62362 0.0
C359 C 0.06235 0.22661 0.62469 0.0
C360 C 0.06959 0.2121 0.61736 0.0
C361 C 0.08565 0.22244 0.59949 0.0
H362 H 0.08836 0.23573 0.56766 0.0
H363 H 0.0894 0.22342 0.64165 0.0
H364 H 0.08635 0.20411 0.58029 0.0
O365 O 0.07483 0.30015 0.54631 0.0
O366 O 0.06059 0.29978 0.55679 0.0
H367 H 0.04915 0.22345 0.59769 0.0
H368 H 0.05284 0.19893 0.64449 0.0
C369 C 0.05328 0.21857 0.63634 0.0
H370 H 0.05077 0.22795 0.67631 0.0
H371 H 0.04443 0.27384 0.53655 0.0
O372 O 0.09155 0.27826 0.60753 0.0
C373 C 0.06735 0.30657 0.52917 0.0
Co374 Co 0.17907 0.96137 0.61555 0.0
Co375 Co 0.19945 0.96411 0.62731 0.0
C376 C 0.18881 0.93562 0.71327 0.0
O377 O 0.18184 0.94132 0.68652 0.0
O378 O 0.19612 0.94359 0.69595 0.0
C379 C 0.16128 0.96755 0.65238 0.0
O380 O 0.16458 0.96984 0.70615 0.0
C381 C 0.21734 0.97422 0.67218 0.0
C382 C 0.22411 0.97943 0.58631 0.0
C383 C 0.22539 0.97972 0.64757 0.0
N384 N 0.21162 0.97122 0.62731 0.0
N385 N 0.21575 0.97427 0.57625 0.0
C386 C 0.21516 0.97095 0.7368 0.0
H387 H 0.20939 0.95947 0.74207 0.0
H388 H 0.21372 0.98875 0.75696 0.0
H389 H 0.22065 0.96269 0.76116 0.0
C390 C 0.18118 0.01447 0.61838 0.0
N391 N 0.18444 0.99197 0.61999 0.0
N392 N 0.19289 0.99317 0.62646 0.0
C393 C 0.19522 0.01651 0.63051 0.0
C394 C 0.1879 0.03069 0.62544 0.0
C395 C 0.17181 0.02029 0.61139 0.0
H396 H 0.16901 0.00928 0.57486 0.0
H397 H 0.16839 0.01574 0.65341 0.0
H398 H 0.17079 0.03967 0.60171 0.0
O399 O 0.18307 0.94372 0.54464 0.0
O400 O 0.19734 0.94457 0.5542 0.0
H401 H 0.20823 0.0189 0.59927 0.0
H402 H 0.20466 0.04507 0.64021 0.0
C403 C 0.20431 0.02514 0.63771 0.0
H404 H 0.20709 0.01735 0.67901 0.0
H405 H 0.21284 0.97297 0.53434 0.0
O406 O 0.1663 0.96423 0.6082 0.0
C407 C 0.19057 0.93786 0.52649 0.0
Co408 Co 0.92909 0.0331 0.36797 0.0
Co409 Co 0.94953 0.03065 0.37339 0.0
C410 C 0.93918 0.05962 0.46142 0.0
O411 O 0.93197 0.05312 0.43906 0.0
O412 O 0.94634 0.05214 0.44032 0.0
C413 C 0.9112 0.02765 0.40512 0.0
O414 O 0.91439 0.0268 0.45949 0.0
C415 C 0.96736 0.0208 0.41831 0.0
C416 C 0.9743 0.01658 0.33271 0.0
C417 C 0.97547 0.01578 0.39405 0.0
N418 N 0.96171 0.024 0.37317 0.0
N419 N 0.96594 0.02156 0.32226 0.0
C420 C 0.96506 0.02348 0.48291 0.0
H421 H 0.95924 0.03481 0.48837 0.0
H422 H 0.96362 0.00548 0.50194 0.0
H423 H 0.97048 0.03162 0.50822 0.0
C424 C 0.93135 0.97999 0.37184 0.0
N425 N 0.93456 0.00256 0.37176 0.0
N426 N 0.94304 0.00151 0.37521 0.0
C427 C 0.94547 0.97823 0.37843 0.0
C428 C 0.93815 0.96388 0.37645 0.0
C429 C 0.92193 0.97411 0.36934 0.0
H430 H 0.91891 0.98369 0.33121 0.0
H431 H 0.9188 0.98048 0.41098 0.0
H432 H 0.92079 0.95447 0.36483 0.0
O433 O 0.93286 0.05101 0.29623 0.0
O434 O 0.94717 0.04917 0.29981 0.0
H435 H 0.95824 0.97738 0.34225 0.0
H436 H 0.95513 0.9499 0.37928 0.0
C437 C 0.95465 0.96982 0.38071 0.0
H438 H 0.9577 0.97647 0.42236 0.0
H439 H 0.96309 0.02314 0.28021 0.0
O440 O 0.91632 0.02986 0.36104 0.0
C441 C 0.94024 0.05628 0.27489 0.0
Co442 Co 0.82892 0.71298 0.36793 0.0
Co443 Co 0.80852 0.71548 0.38093 0.0
C444 C 0.81934 0.68653 0.46506 0.0
O445 O 0.8263 0.69248 0.43834 0.0
O446 O 0.81202 0.69452 0.44828 0.0
C447 C 0.84676 0.71942 0.40386 0.0
O448 O 0.84349 0.72183 0.45769 0.0
C449 C 0.79078 0.72538 0.42888 0.0
C450 C 0.78363 0.72988 0.34429 0.0
C451 C 0.7826 0.73041 0.40578 0.0
N452 N 0.79632 0.72236 0.38296 0.0
N453 N 0.79196 0.72502 0.33267 0.0
C454 C 0.79326 0.72257 0.49312 0.0
H455 H 0.79923 0.71183 0.49759 0.0
H456 H 0.79449 0.7406 0.51272 0.0
H457 H 0.78799 0.71376 0.51859 0.0
C458 C 0.82672 0.76603 0.37188 0.0
N459 N 0.8235 0.74349 0.3737 0.0
N460 N 0.81506 0.74457 0.38055 0.0
C461 C 0.81268 0.76789 0.38458 0.0
C462 C 0.81998 0.78215 0.37919 0.0
C463 C 0.83606 0.77198 0.36377 0.0
H464 H 0.83879 0.76098 0.32699 0.0
H465 H 0.83959 0.76754 0.40542 0.0
H466 H 0.83702 0.79138 0.35385 0.0
O467 O 0.82481 0.69571 0.29671 0.0
O468 O 0.81055 0.69646 0.30678 0.0
H469 H 0.79966 0.7698 0.35338 0.0
H470 H 0.80318 0.79635 0.3931 0.0
C471 C 0.80358 0.77641 0.39147 0.0
H472 H 0.80082 0.76888 0.43316 0.0
H473 H 0.7947 0.72359 0.29023 0.0
O474 O 0.84171 0.71595 0.35989 0.0
C475 C 0.8173 0.68996 0.27857 0.0
Co476 Co 0.92937 0.71394 0.37823 0.0
Co477 Co 0.94975 0.71543 0.36886 0.0
C478 C 0.93903 0.68968 0.27808 0.0
O479 O 0.93206 0.69515 0.30517 0.0
O480 O 0.94636 0.69693 0.29681 0.0
C481 C 0.91152 0.72022 0.34129 0.0
O482 O 0.91477 0.72167 0.28719 0.0
C483 C 0.9673 0.7275 0.32405 0.0
C484 C 0.97521 0.71887 0.40333 0.0
C485 C 0.97574 0.72677 0.34484 0.0
N486 N 0.96201 0.72046 0.3685 0.0
N487 N 0.9668 0.71547 0.41579 0.0
C488 C 0.96437 0.73283 0.26179 0.0
H489 H 0.95723 0.73186 0.25845 0.0
H490 H 0.96656 0.75106 0.24842 0.0
H491 H 0.96734 0.71971 0.2305 0.0
C492 C 0.93194 0.76683 0.38172 0.0
N493 N 0.93505 0.74421 0.37816 0.0
N494 N 0.94353 0.745 0.37431 0.0
C495 C 0.94607 0.76824 0.37511 0.0
C496 C 0.93881 0.78279 0.37962 0.0
C497 C 0.92253 0.77289 0.38423 0.0
H498 H 0.91947 0.76306 0.42182 0.0
H499 H 0.9194 0.76687 0.34225 0.0
H500 H 0.92142 0.79249 0.3896 0.0
O501 O 0.93308 0.69448 0.44721 0.0
O502 O 0.94735 0.69451 0.43876 0.0
H503 H 0.95919 0.76519 0.40463 0.0
H504 H 0.95587 0.79559 0.38748 0.0
C505 C 0.95527 0.77643 0.37401 0.0
H506 H 0.95785 0.77436 0.32812 0.0
H507 H 0.96434 0.70931 0.45637 0.0
O508 O 0.91659 0.71749 0.3855 0.0
C509 C 0.94049 0.68771 0.46507 0.0
Co510 Co 0.82873 0.03304 0.37292 0.0
Co511 Co 0.80834 0.03063 0.36687 0.0
C512 C 0.8187 0.05811 0.27663 0.0
O513 O 0.82588 0.05203 0.30009 0.0
O514 O 0.81153 0.05085 0.29781 0.0
C515 C 0.84659 0.02515 0.33691 0.0
O516 O 0.84336 0.02074 0.28375 0.0
C517 C 0.79081 0.01976 0.32009 0.0
C518 C 0.78299 0.02322 0.40221 0.0
C519 C 0.78241 0.01853 0.34164 0.0
N520 N 0.79612 0.02478 0.36607 0.0
N521 N 0.79139 0.02675 0.41498 0.0
C522 C 0.79364 0.01787 0.25636 0.0
H523 H 0.80074 0.01991 0.25254 0.0
H524 H 0.79174 0.00012 0.23782 0.0
H525 H 0.79036 0.03195 0.2295 0.0
C526 C 0.82644 0.97991 0.37665 0.0
N527 N 0.82325 0.00244 0.37257 0.0
N528 N 0.81478 0.00136 0.3688 0.0
C529 C 0.81231 0.97808 0.36944 0.0
C530 C 0.81962 0.96367 0.37453 0.0
C531 C 0.83577 0.9742 0.38671 0.0
H532 H 0.83862 0.98739 0.41821 0.0
H533 H 0.83927 0.97547 0.3436 0.0
H534 H 0.83663 0.95581 0.40512 0.0
O535 O 0.82498 0.05192 0.44296 0.0
O536 O 0.81066 0.05036 0.43879 0.0
H537 H 0.79924 0.97661 0.40011 0.0
H538 H 0.80259 0.95009 0.35903 0.0
C539 C 0.80316 0.96993 0.36209 0.0
H540 H 0.80051 0.97772 0.32049 0.0
H541 H 0.79389 0.03086 0.45706 0.0
O542 O 0.84152 0.03025 0.37975 0.0
C543 C 0.81759 0.05763 0.4635 0.0
Co544 Co 0.57914 0.46229 0.62915 0.0
Co545 Co 0.55876 0.46394 0.61949 0.0
C546 C 0.56944 0.43765 0.52965 0.0
O547 O 0.57641 0.44314 0.55672 0.0
O548 O 0.56212 0.4451 0.548 0.0
C549 C 0.59692 0.46841 0.5914 0.0
O550 O 0.59358 0.46942 0.53748 0.0
C551 C 0.54133 0.47546 0.57267 0.0
C552 C 0.53346 0.47215 0.6545 0.0
C553 C 0.53287 0.47741 0.59403 0.0
N554 N 0.54653 0.4694 0.61848 0.0
N555 N 0.54177 0.46737 0.66712 0.0
C556 C 0.54464 0.48048 0.51115 0.0
H557 H 0.55172 0.48366 0.51221 0.0
H558 H 0.54135 0.49642 0.49183 0.0
H559 H 0.54339 0.46463 0.4822 0.0
C560 C 0.57665 0.51517 0.63081 0.0
N561 N 0.57351 0.49258 0.62806 0.0
N562 N 0.56503 0.49345 0.62389 0.0
C563 C 0.56253 0.51673 0.62346 0.0
C564 C 0.56981 0.53117 0.62762 0.0
C565 C 0.58606 0.52121 0.63392 0.0
H566 H 0.58921 0.51553 0.59175 0.0
H567 H 0.58714 0.54079 0.64027 0.0
H568 H 0.58909 0.51113 0.67117 0.0
O569 O 0.5754 0.44331 0.69874 0.0
O570 O 0.56111 0.44333 0.69017 0.0
H571 H 0.55281 0.54449 0.63274 0.0
H572 H 0.55078 0.52234 0.57561 0.0
C573 C 0.55336 0.5251 0.62128 0.0
H574 H 0.5494 0.51449 0.65297 0.0
H575 H 0.54421 0.46285 0.70912 0.0
O576 O 0.59192 0.46588 0.63604 0.0
C577 C 0.56798 0.43667 0.71676 0.0
Co578 Co 0.67907 0.78262 0.62349 0.0
Co579 Co 0.69951 0.78098 0.62683 0.0
C580 C 0.68957 0.80662 0.52961 0.0
O581 O 0.68223 0.80017 0.5498 0.0
O582 O 0.69658 0.80044 0.5553 0.0
C583 C 0.66125 0.77671 0.58409 0.0
O584 O 0.66451 0.77601 0.52995 0.0
C585 C 0.71712 0.76874 0.58407 0.0
C586 C 0.72486 0.7759 0.66509 0.0
C587 C 0.72552 0.76868 0.60606 0.0
N588 N 0.71175 0.77554 0.62832 0.0
N589 N 0.71643 0.77968 0.67663 0.0
C590 C 0.71433 0.76426 0.52104 0.0
H591 H 0.7074 0.76866 0.51505 0.0
H592 H 0.71531 0.74504 0.50957 0.0
H593 H 0.71832 0.77516 0.49001 0.0
C594 C 0.68155 0.72979 0.62854 0.0
N595 N 0.68471 0.75238 0.62745 0.0
N596 N 0.69321 0.75151 0.62835 0.0
C597 C 0.6957 0.72825 0.62986 0.0
C598 C 0.68841 0.71382 0.62982 0.0
C599 C 0.67215 0.72368 0.62571 0.0
H600 H 0.66867 0.73329 0.66186 0.0
H601 H 0.6695 0.72988 0.58234 0.0
H602 H 0.67103 0.70403 0.63006 0.0
O603 O 0.68238 0.80329 0.69149 0.0
O604 O 0.69666 0.80113 0.69727 0.0
H605 H 0.70853 0.73092 0.66522 0.0
H606 H 0.70527 0.70062 0.64587 0.0
C607 C 0.70487 0.71986 0.6327 0.0
H608 H 0.70787 0.72197 0.58809 0.0
H609 H 0.71389 0.78548 0.71733 0.0
O610 O 0.66629 0.77899 0.62858 0.0
C611 C 0.68947 0.80917 0.71623 0.0
Co612 Co 0.57873 0.78222 0.61499 0.0
Co613 Co 0.55841 0.77951 0.62945 0.0
C614 C 0.56913 0.80682 0.71616 0.0
O615 O 0.57602 0.80161 0.68758 0.0
O616 O 0.56178 0.79889 0.69973 0.0
C617 C 0.59656 0.77374 0.64914 0.0
O618 O 0.5933 0.76834 0.70164 0.0
C619 C 0.54026 0.77354 0.67201 0.0
C620 C 0.53423 0.7582 0.591 0.0
C621 C 0.5325 0.76455 0.64963 0.0
N622 N 0.54629 0.77201 0.62881 0.0
N623 N 0.5426 0.76307 0.58043 0.0
C624 C 0.54184 0.78484 0.73169 0.0
H625 H 0.54588 0.80113 0.72612 0.0
H626 H 0.5454 0.77195 0.76048 0.0
H627 H 0.53573 0.79015 0.7538 0.0
C628 C 0.57654 0.72904 0.61365 0.0
N629 N 0.57337 0.75158 0.61773 0.0
N630 N 0.56498 0.7505 0.62688 0.0
C631 C 0.56261 0.72721 0.6314 0.0
C632 C 0.56983 0.71278 0.62241 0.0
C633 C 0.58569 0.72328 0.59773 0.0
H634 H 0.58828 0.73707 0.56672 0.0
H635 H 0.58967 0.72332 0.63894 0.0
H636 H 0.5862 0.7053 0.57637 0.0
O637 O 0.57463 0.80041 0.54555 0.0
O638 O 0.56041 0.79982 0.55741 0.0
H639 H 0.54956 0.71856 0.60922 0.0
H640 H 0.55395 0.70076 0.66931 0.0
C641 C 0.55377 0.71901 0.64924 0.0
H642 H 0.55098 0.73168 0.68226 0.0
H643 H 0.54584 0.75994 0.54032 0.0
O644 O 0.59151 0.77968 0.60688 0.0
C645 C 0.5671 0.80658 0.52893 0.0
Co646 Co 0.6795 0.46276 0.61235 0.0
Co647 Co 0.69982 0.4656 0.6245 0.0
C648 C 0.6894 0.43807 0.71208 0.0
O649 O 0.68245 0.44341 0.68445 0.0
O650 O 0.69672 0.44596 0.69484 0.0
C651 C 0.66175 0.47093 0.64928 0.0
O652 O 0.66517 0.47613 0.70146 0.0
C653 C 0.71782 0.47347 0.66695 0.0
C654 C 0.72405 0.48529 0.58311 0.0
C655 C 0.72563 0.48128 0.64316 0.0
N656 N 0.71191 0.47295 0.62279 0.0
N657 N 0.71572 0.47983 0.57279 0.0
C658 C 0.71577 0.46869 0.73116 0.0
H659 H 0.70894 0.47339 0.74071 0.0
H660 H 0.72008 0.47915 0.76106 0.0
H661 H 0.71667 0.44922 0.7404 0.0
C662 C 0.68162 0.51596 0.61073 0.0
N663 N 0.68483 0.49344 0.61453 0.0
N664 N 0.69323 0.49459 0.62262 0.0
C665 C 0.6956 0.51789 0.62643 0.0
C666 C 0.68834 0.53227 0.61838 0.0
C667 C 0.67242 0.52161 0.59611 0.0
H668 H 0.66977 0.50783 0.56533 0.0
H669 H 0.66856 0.52146 0.63786 0.0
H670 H 0.67182 0.53961 0.57501 0.0
O671 O 0.68342 0.44455 0.5423 0.0
O672 O 0.69767 0.44531 0.55265 0.0
H673 H 0.70868 0.52529 0.60216 0.0
H674 H 0.70451 0.54481 0.65991 0.0
C675 C 0.70451 0.52612 0.6424 0.0
H676 H 0.70726 0.51414 0.67703 0.0
H677 H 0.71256 0.48129 0.53176 0.0
O678 O 0.66669 0.46522 0.60614 0.0
C679 C 0.69092 0.43845 0.5249 0.0
Co680 Co 0.4294 0.53167 0.3707 0.0
Co681 Co 0.44985 0.53021 0.37467 0.0
C682 C 0.43948 0.55619 0.46783 0.0
O683 O 0.43238 0.55005 0.44335 0.0
O684 O 0.44675 0.54946 0.44676 0.0
C685 C 0.41151 0.52609 0.40819 0.0
O686 O 0.41469 0.52547 0.4626 0.0
C687 C 0.46768 0.52108 0.4178 0.0
C688 C 0.47455 0.51545 0.3324 0.0
C689 C 0.47573 0.5156 0.39372 0.0
N690 N 0.46203 0.52396 0.37266 0.0
N691 N 0.46621 0.5208 0.32178 0.0
C692 C 0.46521 0.52171 0.48237 0.0
H693 H 0.45832 0.51677 0.48781 0.0
H694 H 0.46932 0.50929 0.50885 0.0
H695 H 0.46613 0.54027 0.49964 0.0
C696 C 0.43191 0.47889 0.36703 0.0
N697 N 0.43504 0.5015 0.3693 0.0
N698 N 0.44353 0.5007 0.37228 0.0
C699 C 0.44605 0.47744 0.3729 0.0
C700 C 0.43878 0.46291 0.36945 0.0
C701 C 0.4225 0.47285 0.36553 0.0
H702 H 0.41938 0.48247 0.32784 0.0
H703 H 0.41945 0.47914 0.40753 0.0
H704 H 0.42138 0.45322 0.36093 0.0
O705 O 0.43294 0.55167 0.30286 0.0
O706 O 0.44727 0.55068 0.30375 0.0
H707 H 0.45879 0.47683 0.33644 0.0
H708 H 0.4558 0.44937 0.37386 0.0
C709 C 0.45525 0.46928 0.37513 0.0
H710 H 0.45831 0.47611 0.41658 0.0
H711 H 0.46332 0.52181 0.27975 0.0
O712 O 0.41663 0.52814 0.36409 0.0
C713 C 0.44018 0.55809 0.28142 0.0
Co714 Co 0.32921 0.21307 0.36536 0.0
Co715 Co 0.30892 0.21615 0.38099 0.0
C716 C 0.31964 0.18844 0.4667 0.0
O717 O 0.3265 0.19358 0.43777 0.0
O718 O 0.31229 0.19656 0.45088 0.0
C719 C 0.34702 0.22149 0.39928 0.0
O720 O 0.34375 0.2273 0.45147 0.0
C721 C 0.29073 0.22168 0.42366 0.0
C722 C 0.28487 0.23919 0.34489 0.0
C723 C 0.28303 0.2315 0.40237 0.0
N724 N 0.29682 0.22403 0.38106 0.0
N725 N 0.29322 0.23426 0.33396 0.0
C726 C 0.29219 0.20877 0.48144 0.0
H727 H 0.29634 0.19283 0.47376 0.0
H728 H 0.29556 0.22097 0.51305 0.0
H729 H 0.28603 0.20261 0.50148 0.0
C730 C 0.32716 0.26628 0.36388 0.0
N731 N 0.32394 0.24381 0.36851 0.0
N732 N 0.31558 0.24507 0.37873 0.0
C733 C 0.3133 0.26841 0.38383 0.0
C734 C 0.32053 0.28271 0.3737 0.0
C735 C 0.33626 0.27177 0.34605 0.0
H736 H 0.33873 0.25764 0.31549 0.0
H737 H 0.34039 0.27215 0.38656 0.0
H738 H 0.3367 0.28951 0.32346 0.0
O739 O 0.32503 0.19516 0.29585 0.0
O740 O 0.31082 0.19587 0.30838 0.0
H741 H 0.30026 0.27819 0.36409 0.0
H742 H 0.30493 0.29467 0.42546 0.0
C743 C 0.30456 0.27678 0.40353 0.0
H744 H 0.30175 0.26374 0.43551 0.0
H745 H 0.29652 0.23823 0.29453 0.0
O746 O 0.34198 0.21533 0.35714 0.0
C747 C 0.31748 0.18911 0.27946 0.0
Co748 Co 0.42952 0.21255 0.37616 0.0
Co749 Co 0.44992 0.21516 0.37323 0.0
C750 C 0.43997 0.18691 0.28242 0.0
O751 O 0.43273 0.193 0.30502 0.0
O752 O 0.44711 0.19441 0.30401 0.0
C753 C 0.41172 0.21745 0.33613 0.0
O754 O 0.41503 0.21781 0.2821 0.0
C755 C 0.46774 0.22418 0.33058 0.0
C756 C 0.47445 0.23167 0.4157 0.0
C757 C 0.47572 0.23038 0.35454 0.0
N758 N 0.46204 0.22196 0.37563 0.0
N759 N 0.46613 0.22624 0.42637 0.0
C760 C 0.46536 0.22223 0.266 0.0
H761 H 0.45847 0.22701 0.25954 0.0
H762 H 0.46949 0.23413 0.23826 0.0
H763 H 0.4663 0.20334 0.25114 0.0
C764 C 0.43167 0.26563 0.37429 0.0
N765 N 0.43493 0.24313 0.37425 0.0
N766 N 0.44341 0.24428 0.37162 0.0
C767 C 0.44581 0.26761 0.36891 0.0
C768 C 0.43845 0.28185 0.3706 0.0
C769 C 0.42223 0.27134 0.37565 0.0
H770 H 0.41915 0.26176 0.41355 0.0
H771 H 0.41921 0.26481 0.33375 0.0
H772 H 0.42104 0.29096 0.37978 0.0
O773 O 0.43303 0.19436 0.44794 0.0
O774 O 0.44735 0.19592 0.44544 0.0
H775 H 0.45843 0.26946 0.40701 0.0
H776 H 0.45541 0.29606 0.36603 0.0
C777 C 0.45497 0.27613 0.36699 0.0
H778 H 0.45818 0.26867 0.32681 0.0
H779 H 0.46318 0.22592 0.46827 0.0
O780 O 0.41673 0.21569 0.38093 0.0
C781 C 0.44036 0.1888 0.4696 0.0
Co782 Co 0.32905 0.53379 0.37572 0.0
Co783 Co 0.30865 0.53035 0.36712 0.0
C784 C 0.31891 0.55889 0.2791 0.0
O785 O 0.32608 0.55309 0.30332 0.0
O786 O 0.31173 0.5511 0.29902 0.0
C787 C 0.34688 0.52554 0.34016 0.0
O788 O 0.3436 0.51998 0.28781 0.0
C789 C 0.29052 0.52327 0.32428 0.0
C790 C 0.28443 0.50941 0.40662 0.0
C791 C 0.28274 0.51464 0.34726 0.0
N792 N 0.29652 0.52263 0.36792 0.0
N793 N 0.29278 0.51453 0.41704 0.0
C794 C 0.29216 0.53313 0.26311 0.0
H795 H 0.2964 0.54911 0.26599 0.0
H796 H 0.29548 0.51926 0.2358 0.0
H797 H 0.28607 0.53853 0.24078 0.0
C798 C 0.32707 0.48051 0.37787 0.0
N799 N 0.32379 0.50295 0.37396 0.0
N800 N 0.31537 0.50156 0.36675 0.0
C801 C 0.31308 0.47819 0.36322 0.0
C802 C 0.3204 0.464 0.37091 0.0
C803 C 0.33629 0.47514 0.39279 0.0
H804 H 0.3389 0.48913 0.42319 0.0
H805 H 0.34017 0.47513 0.35111 0.0
H806 H 0.33694 0.45728 0.41457 0.0
O807 O 0.3251 0.55192 0.4461 0.0
O808 O 0.3108 0.54982 0.44012 0.0
H809 H 0.30014 0.46979 0.38907 0.0
H810 H 0.30425 0.45124 0.32923 0.0
C811 C 0.30417 0.46971 0.3481 0.0
H812 H 0.30121 0.48196 0.31484 0.0
H813 H 0.29599 0.51219 0.45763 0.0
O814 O 0.34185 0.53153 0.3825 0.0
C815 C 0.31764 0.5572 0.46596 0.0
Co816 Co 0.57856 0.96142 0.13161 0.0
Co817 Co 0.55829 0.9643 0.11844 0.0
C818 C 0.56881 0.93667 0.03141 0.0
O819 O 0.57572 0.94206 0.0594 0.0
O820 O 0.56147 0.94454 0.0483 0.0
C821 C 0.59635 0.96794 0.09488 0.0
O822 O 0.59302 0.97187 0.04176 0.0
C823 C 0.54038 0.97233 0.07477 0.0
C824 C 0.53402 0.98393 0.15838 0.0
C825 C 0.53254 0.98011 0.09812 0.0
N826 N 0.54621 0.97167 0.11937 0.0
N827 N 0.54233 0.9784 0.16922 0.0
C828 C 0.54254 0.96775 0.01062 0.0
H829 H 0.54939 0.97238 0.00175 0.0
H830 H 0.53829 0.97837 0.98062 0.0
H831 H 0.54161 0.94833 0.00084 0.0
C832 C 0.5765 0.01457 0.13325 0.0
N833 N 0.57327 0.9921 0.12901 0.0
N834 N 0.56487 0.9933 0.12069 0.0
C835 C 0.56253 0.01663 0.11728 0.0
C836 C 0.56979 0.03095 0.12581 0.0
C837 C 0.58571 0.02007 0.14809 0.0
H838 H 0.58828 0.00636 0.17937 0.0
H839 H 0.58961 0.01952 0.10652 0.0
H840 H 0.58636 0.03815 0.1687 0.0
O841 O 0.57456 0.94335 0.20153 0.0
O842 O 0.56032 0.94412 0.1906 0.0
H843 H 0.54944 0.02393 0.1417 0.0
H844 H 0.55363 0.04374 0.08466 0.0
C845 C 0.55362 0.02496 0.10154 0.0
H846 H 0.55088 0.01316 0.06647 0.0
H847 H 0.54542 0.97972 0.21053 0.0
O848 O 0.59133 0.96371 0.1386 0.0
C849 C 0.56704 0.93731 0.21872 0.0
Co850 Co 0.67939 0.28368 0.12694 0.0
Co851 Co 0.69967 0.28033 0.11473 0.0
C852 C 0.68936 0.30833 0.02755 0.0
O853 O 0.68241 0.3031 0.0552 0.0
O854 O 0.69666 0.30021 0.04456 0.0
C855 C 0.66169 0.2769 0.08865 0.0
O856 O 0.66514 0.27229 0.03628 0.0
C857 C 0.7176 0.2721 0.07184 0.0
C858 C 0.7238 0.25933 0.15495 0.0
C859 C 0.72537 0.26371 0.09505 0.0
N860 N 0.71173 0.27258 0.11616 0.0
N861 N 0.71552 0.26516 0.16575 0.0
C862 C 0.71555 0.27745 0.0079 0.0
H863 H 0.70877 0.27249 -0.0021 0.0
H864 H 0.71995 0.26757 0.97739 0.0
H865 H 0.71632 0.29706 2e-05 0.0
C866 C 0.68132 0.23049 0.12918 0.0
N867 N 0.68459 0.25289 0.12452 0.0
N868 N 0.69299 0.25149 0.11638 0.0
C869 C 0.69528 0.22811 0.11338 0.0
C870 C 0.68799 0.21396 0.12214 0.0
C871 C 0.6721 0.22521 0.14441 0.0
H872 H 0.66955 0.23922 0.17495 0.0
H873 H 0.6682 0.22538 0.10285 0.0
H874 H 0.67144 0.20732 0.166 0.0
O875 O 0.68336 0.30157 0.1973 0.0
O876 O 0.6976 0.30053 0.18691 0.0
H877 H 0.7083 0.22025 0.1384 0.0
H878 H 0.70409 0.2008 0.08072 0.0
C879 C 0.70417 0.21953 0.09796 0.0
H880 H 0.70701 0.23133 0.06331 0.0
H881 H 0.71237 0.26353 0.20678 0.0
O882 O 0.66659 0.28165 0.13265 0.0
C883 C 0.69088 0.30745 0.2148 0.0
Co884 Co 0.57905 0.28125 0.11889 0.0
Co885 Co 0.55869 0.27994 0.12779 0.0
C886 C 0.56931 0.30678 0.21684 0.0
O887 O 0.57628 0.30096 0.1903 0.0
O888 O 0.56198 0.2993 0.1986 0.0
C889 C 0.59697 0.29299 0.13067 0.0
O890 O 0.59382 0.31334 0.15123 0.0
C891 C 0.54125 0.26894 0.17421 0.0
C892 C 0.53343 0.27167 0.09201 0.0
C893 C 0.53281 0.26688 0.1527 0.0
N894 N 0.54648 0.27464 0.12828 0.0
N895 N 0.54175 0.27633 0.0794 0.0
C896 C 0.54453 0.26431 0.23601 0.0
H897 H 0.55159 0.26084 0.23519 0.0
H898 H 0.54115 0.24867 0.25615 0.0
H899 H 0.54336 0.28045 0.26411 0.0
C900 C 0.57653 0.22861 0.12011 0.0
N901 N 0.57337 0.25118 0.12143 0.0
N902 N 0.56489 0.25032 0.12525 0.0
C903 C 0.5624 0.22704 0.12661 0.0
C904 C 0.5697 0.2126 0.12355 0.0
C905 C 0.58595 0.22268 0.11772 0.0
H906 H 0.58931 0.23168 0.15541 0.0
H907 H 0.58711 0.20299 0.12024 0.0
H908 H 0.58872 0.22981 0.07559 0.0
O909 O 0.57549 0.29978 0.04798 0.0
O910 O 0.5612 0.29991 0.05634 0.0
H911 H 0.55271 0.1992 0.11754 0.0
H912 H 0.55059 0.22164 0.17381 0.0
C913 C 0.55323 0.21865 0.12841 0.0
H914 H 0.54931 0.2291 0.09614 0.0
H915 H 0.54421 0.28052 0.03728 0.0
O916 O 0.59179 0.27652 0.11428 0.0
C917 C 0.56808 0.30635 0.02956 0.0
Co918 Co 0.67887 0.96361 0.12774 0.0
Co919 Co 0.69932 0.96549 0.12436 0.0
C920 C 0.68944 0.93764 0.21801 0.0
O921 O 0.6821 0.94467 0.19909 0.0
O922 O 0.69644 0.94424 0.19285 0.0
C923 C 0.66095 0.95215 0.14411 0.0
O924 O 0.66408 0.93215 0.16674 0.0
C925 C 0.71718 0.97599 0.16704 0.0
C926 C 0.72414 0.97837 0.08113 0.0
C927 C 0.72531 0.98042 0.14234 0.0
N928 N 0.71154 0.97191 0.12229 0.0
N929 N 0.71577 0.97328 0.07118 0.0
C930 C 0.71484 0.97477 0.23185 0.0
H931 H 0.70888 0.9642 0.23862 0.0
H932 H 0.71365 0.99324 0.24885 0.0
H933 H 0.72016 0.96655 0.25806 0.0
C934 C 0.68124 0.01627 0.12801 0.0
N935 N 0.68447 0.99377 0.12753 0.0
N936 N 0.69297 0.99481 0.12727 0.0
C937 C 0.69539 0.01814 0.12806 0.0
C938 C 0.68805 0.03241 0.12853 0.0
C939 C 0.67181 0.02205 0.12943 0.0
H940 H 0.66872 0.01509 0.08817 0.0
H941 H 0.66877 0.01281 0.16803 0.0
H942 H 0.67064 0.04172 0.13297 0.0
O943 O 0.6821 0.94439 0.05704 0.0
O944 O 0.6964 0.94687 0.05141 0.0
H945 H 0.70792 0.01819 0.08779 0.0
H946 H 0.70495 0.04653 0.12176 0.0
C947 C 0.70455 0.02666 0.12613 0.0
H948 H 0.70789 0.02109 0.16769 0.0
H949 H 0.71293 0.97088 0.02935 0.0
O950 O 0.66614 0.96818 0.1253 0.0
C951 C 0.68921 0.93913 0.03153 0.0
Co952 Co 0.42923 0.03238 0.87229 0.0
Co953 Co 0.4496 0.02985 0.87446 0.0
C954 C 0.4396 0.05613 0.96893 0.0
O955 O 0.43234 0.05053 0.94592 0.0
O956 O 0.4467 0.04902 0.94609 0.0
C957 C 0.41141 0.02628 0.91095 0.0
O958 O 0.4147 0.02423 0.96483 0.0
C959 C 0.46701 0.01797 0.91898 0.0
C960 C 0.47473 0.02014 0.83618 0.0
C961 C 0.47539 0.01545 0.89689 0.0
N962 N 0.46176 0.02386 0.8734 0.0
N963 N 0.46642 0.0252 0.82413 0.0
C964 C 0.46381 0.0135 0.98105 0.0
H965 H 0.45677 0.00969 0.98055 0.0
H966 H 0.4673 -0.00185 0.00163 0.0
H967 H 0.46489 0.02985 0.00855 0.0
C968 C 0.43146 0.97924 0.86826 0.0
N969 N 0.43469 0.00177 0.87032 0.0
N970 N 0.44319 0.00064 0.8716 0.0
C971 C 0.44561 0.97731 0.87077 0.0
C972 C 0.43828 0.96305 0.86888 0.0
C973 C 0.42203 0.97342 0.86833 0.0
H974 H 0.41876 0.98365 0.83232 0.0
H975 H 0.4192 0.97907 0.91162 0.0
H976 H 0.42085 0.95388 0.86209 0.0
O977 O 0.43277 0.05214 0.80289 0.0
O978 O 0.44708 0.05048 0.80482 0.0
H979 H 0.4585 0.9792 0.83632 0.0
H980 H 0.45518 0.94932 0.85827 0.0
C981 C 0.45477 0.96874 0.86964 0.0
H982 H 0.45772 0.97158 0.91421 0.0
H983 H 0.46391 0.02946 0.78216 0.0
O984 O 0.41644 0.02936 0.86672 0.0
C985 C 0.44009 0.05813 0.7818 0.0
Co986 Co 0.32865 0.71335 0.86653 0.0
Co987 Co 0.30829 0.71588 0.87282 0.0
C988 C 0.31859 0.68921 0.96451 0.0
O989 O 0.32575 0.69496 0.94023 0.0
O990 O 0.3114 0.69636 0.94331 0.0
C991 C 0.34647 0.7215 0.90285 0.0
O992 O 0.34318 0.72636 0.9556 0.0
C993 C 0.29067 0.72567 0.9183 0.0
C994 C 0.2833 0.72742 0.83395 0.0
C995 C 0.28236 0.72924 0.89545 0.0
N996 N 0.29612 0.722 0.87232 0.0
N997 N 0.29165 0.72297 0.82214 0.0
C998 C 0.29363 0.7273 0.98182 0.0
H999 H 0.30069 0.73058 0.98384 0.0
H1000 H 0.2902 0.74204 0.00546 0.0
H1001 H 0.29226 0.71001 0.00479 0.0
C1002 C 0.3264 0.76653 0.86176 0.0
N1003 N 0.32321 0.74401 0.86567 0.0
N1004 N 0.31474 0.74511 0.86986 0.0
C1005 C 0.31229 0.76842 0.86989 0.0
C1006 C 0.3196 0.78281 0.86461 0.0
C1007 C 0.33573 0.77223 0.85176 0.0
H1008 H 0.33862 0.75888 0.82083 0.0
H1009 H 0.33921 0.77127 0.89503 0.0
H1010 H 0.33658 0.79053 0.83272 0.0
O1011 O 0.32491 0.69395 0.79731 0.0
O1012 O 0.31061 0.69549 0.80203 0.0
H1013 H 0.29925 0.77133 0.83925 0.0
H1014 H 0.30268 0.79632 0.88551 0.0
C1015 C 0.30316 0.77661 0.87864 0.0
H1016 H 0.30043 0.76765 0.91846 0.0
H1017 H 0.29433 0.72072 0.77973 0.0
O1018 O 0.34144 0.71604 0.86002 0.0
C1019 C 0.31752 0.68803 0.77739 0.0
Co1020 Co 0.42897 0.71327 0.8747 0.0
Co1021 Co 0.4494 0.71467 0.87082 0.0
C1022 C 0.43893 0.68764 0.77951 0.0
O1023 O 0.4318 0.694 0.80313 0.0
O1024 O 0.44616 0.69464 0.80053 0.0
C1025 C 0.41112 0.71903 0.83716 0.0
O1026 O 0.41433 0.71941 0.78283 0.0
C1027 C 0.46699 0.72627 0.82579 0.0
C1028 C 0.47469 0.72143 0.90805 0.0
C1029 C 0.47537 0.72734 0.84815 0.0
N1030 N 0.46163 0.72018 0.87071 0.0
N1031 N 0.46629 0.71738 0.91968 0.0
C1032 C 0.46421 0.72942 0.76223 0.0
H1033 H 0.4576 0.72235 0.7553 0.0
H1034 H 0.46421 0.74883 0.75073 0.0
H1035 H 0.46881 0.72017 0.73186 0.0
C1036 C 0.43153 0.76613 0.87547 0.0
N1037 N 0.43465 0.74349 0.87407 0.0
N1038 N 0.44315 0.74425 0.87237 0.0
C1039 C 0.44568 0.7675 0.87256 0.0
C1040 C 0.43841 0.78206 0.87424 0.0
C1041 C 0.42212 0.77226 0.87569 0.0
H1042 H 0.41892 0.76311 0.91376 0.0
H1043 H 0.41914 0.76552 0.83387 0.0
H1044 H 0.42102 0.79195 0.87884 0.0
O1045 O 0.43255 0.69393 0.94396 0.0
O1046 O 0.44687 0.69505 0.94299 0.0
H1047 H 0.45856 0.76492 0.90706 0.0
H1048 H 0.45538 0.79505 0.88611 0.0
C1049 C 0.45488 0.77571 0.87411 0.0
H1050 H 0.4578 0.77302 0.82946 0.0
H1051 H 0.46374 0.71248 0.96107 0.0
O1052 O 0.41621 0.71701 0.88145 0.0
C1053 C 0.4398 0.68783 0.96586 0.0
Co1054 Co 0.32889 0.03333 0.88117 0.0
Co1055 Co 0.30855 0.03159 0.86881 0.0
C1056 C 0.31948 0.05828 0.78094 0.0
O1057 O 0.3264 0.05261 0.80848 0.0
O1058 O 0.31212 0.0509 0.79862 0.0
C1059 C 0.34673 0.02644 0.84611 0.0
O1060 O 0.34352 0.02425 0.79204 0.0
C1061 C 0.29105 0.02013 0.82138 0.0
C1062 C 0.28315 0.02561 0.90248 0.0
C1063 C 0.28262 0.01955 0.84262 0.0
N1064 N 0.29632 0.02613 0.8669 0.0
N1065 N 0.29154 0.02928 0.91519 0.0
C1066 C 0.29396 0.01681 0.75818 0.0
H1067 H 0.30092 0.02102 0.75346 0.0
H1068 H 0.29287 -0.00209 0.74415 0.0
H1069 H 0.2901 0.02854 0.7282 0.0
C1070 C 0.32642 0.98033 0.88127 0.0
N1071 N 0.3233 0.00296 0.87869 0.0
N1072 N 0.31483 0.0021 0.87295 0.0
C1073 C 0.31234 0.97883 0.87109 0.0
C1074 C 0.3196 0.96438 0.8761 0.0
C1075 C 0.33579 0.97416 0.88669 0.0
H1076 H 0.33911 0.97882 0.84434 0.0
H1077 H 0.33676 0.9547 0.8957 0.0
H1078 H 0.33875 0.98491 0.92313 0.0
O1079 O 0.32493 0.05213 0.95059 0.0
O1080 O 0.31068 0.05181 0.94051 0.0
H1081 H 0.2991 0.9804 0.89828 0.0
H1082 H 0.30262 0.95086 0.87458 0.0
C1083 C 0.30319 0.97048 0.86598 0.0
H1084 H 0.30081 0.97429 0.82029 0.0
H1085 H 0.29399 0.03424 0.95681 0.0
O1086 O 0.34163 0.02991 0.88982 0.0
C1087 C 0.31746 0.05853 0.96805 0.0
H1088 H 0.05932 0.5612 0.18425 0.0
H1089 H 0.08167 0.55999 0.06933 0.0
H1090 H 0.05953 0.60505 0.18404 0.0
H1091 H 0.08228 0.60391 0.07199 0.0
H1092 H 0.07464 0.6822 0.0335 0.0
H1093 H 0.07491 0.63817 0.03468 0.0
H1094 H 0.06711 0.63895 0.22027 0.0
H1095 H 0.06653 0.68295 0.21759 0.0
C1096 C 0.0643 0.57038 0.15912 0.0
C1097 C 0.07043 0.55726 0.12647 0.0
C1098 C 0.06451 0.59552 0.15965 0.0
C1099 C 0.07094 0.60811 0.12805 0.0
C1100 C 0.07716 0.59486 0.09614 0.0
C1101 C 0.07689 0.5697 0.09519 0.0
C1102 C 0.07302 0.67279 0.07439 0.0
C1103 C 0.07054 0.68568 0.12539 0.0
C1104 C 0.07322 0.64764 0.07534 0.0
C1105 C 0.07102 0.63493 0.12758 0.0
C1106 C 0.06869 0.64807 0.17895 0.0
C1107 C 0.06841 0.67321 0.1777 0.0
H1108 H 0.19501 0.56149 0.20327 0.0
H1109 H 0.18086 0.56043 0.03739 0.0
H1110 H 0.19447 0.6056 0.20402 0.0
H1111 H 0.1803 0.60459 0.03782 0.0
H1112 H 0.19143 0.68286 0.02994 0.0
H1113 H 0.19122 0.63869 0.0288 0.0
H1114 H 0.18306 0.63841 0.21334 0.0
H1115 H 0.18326 0.6826 0.21401 0.0
C1116 C 0.19178 0.5708 0.1671 0.0
C1117 C 0.18795 0.55779 0.1204 0.0
C1118 C 0.19142 0.59594 0.16765 0.0
C1119 C 0.18732 0.60848 0.12105 0.0
C1120 C 0.18353 0.59537 0.07412 0.0
C1121 C 0.18381 0.57021 0.07399 0.0
C1122 C 0.18955 0.67323 0.06995 0.0
C1123 C 0.18735 0.68585 0.12203 0.0
C1124 C 0.18939 0.64807 0.06931 0.0
C1125 C 0.18714 0.63516 0.12102 0.0
C1126 C 0.18489 0.64791 0.17303 0.0
C1127 C 0.18495 0.67309 0.1734 0.0
H1128 H 0.93342 0.43394 0.78454 0.0
H1129 H 0.94173 0.43527 0.96816 0.0
H1130 H 0.93311 0.38995 0.78664 0.0
H1131 H 0.941 0.39135 0.97214 0.0
H1132 H 0.94821 0.31308 0.94057 0.0
H1133 H 0.94814 0.35688 0.9394 0.0
H1134 H 0.92588 0.35589 0.82256 0.0
H1135 H 0.92645 0.31201 0.82025 0.0
C1136 C 0.93507 0.42466 0.82554 0.0
C1137 C 0.93761 0.43769 0.87614 0.0
C1138 C 0.93483 0.3995 0.82708 0.0
C1139 C 0.93702 0.38694 0.87962 0.0
C1140 C 0.93943 0.40027 0.93055 0.0
C1141 C 0.93979 0.4254 0.9286 0.0
C1142 C 0.94337 0.32229 0.91417 0.0
C1143 C 0.93739 0.30919 0.8801 0.0
C1144 C 0.94323 0.34743 0.91415 0.0
C1145 C 0.937 0.36009 0.88086 0.0
C1146 C 0.93088 0.34685 0.84792 0.0
C1147 C 0.93111 0.32168 0.84725 0.0
H1148 H 0.81728 0.43623 0.78224 0.0
H1149 H 0.82345 0.43293 0.96967 0.0
H1150 H 0.818 0.39236 0.77574 0.0
H1151 H 0.82371 0.38896 0.96488 0.0
H1152 H 0.83065 0.31135 0.93025 0.0
H1153 H 0.83128 0.35523 0.93101 0.0
H1154 H 0.81053 0.3576 0.80169 0.0
H1155 H 0.81045 0.31379 0.79778 0.0
C1156 C 0.81874 0.42593 0.82207 0.0
C1157 C 0.82033 0.43764 0.87636 0.0
C1158 C 0.81909 0.40083 0.81865 0.0
C1159 C 0.82088 0.38695 0.86985 0.0
C1160 C 0.82247 0.39894 0.92426 0.0
C1161 C 0.82226 0.42408 0.92732 0.0
C1162 C 0.82634 0.32135 0.90133 0.0
C1163 C 0.82046 0.30925 0.86426 0.0
C1164 C 0.8266 0.3465 0.90233 0.0
C1165 C 0.8209 0.36013 0.86682 0.0
C1166 C 0.8151 0.34786 0.82914 0.0
C1167 C 0.81495 0.32272 0.82747 0.0
H1168 H 0.07388 0.06095 0.71429 0.0
H1169 H 0.06603 0.0591 0.52974 0.0
H1170 H 0.07403 0.10495 0.71178 0.0
H1171 H 0.06664 0.10301 0.52532 0.0
H1172 H 0.05942 0.18141 0.55356 0.0
H1173 H 0.05945 0.13758 0.55591 0.0
H1174 H 0.08125 0.13898 0.6767 0.0
H1175 H 0.0807 0.18285 0.67779 0.0
C1176 C 0.07229 0.07012 0.67302 0.0
C1177 C 0.06994 0.05694 0.62225 0.0
C1178 C 0.07244 0.09528 0.67124 0.0
C1179 C 0.07035 0.1077 0.61827 0.0
C1180 C 0.06812 0.09422 0.56723 0.0
C1181 C 0.06783 0.06909 0.56943 0.0
C1182 C 0.06414 0.17226 0.58114 0.0
C1183 C 0.06998 0.18546 0.61604 0.0
C1184 C 0.06425 0.14712 0.58185 0.0
C1185 C 0.07035 0.13456 0.61659 0.0
C1186 C 0.07635 0.14791 0.6503 0.0
C1187 C 0.07613 0.17308 0.65032 0.0
H1188 H 0.18459 0.0608 0.53308 0.0
H1189 H 0.19014 0.05961 0.7216 0.0
H1190 H 0.18439 0.10481 0.53466 0.0
H1191 H 0.18952 0.10359 0.72473 0.0
H1192 H 0.19745 0.18173 0.69709 0.0
H1193 H 0.19726 0.13787 0.69652 0.0
H1194 H 0.17673 0.13903 0.56547 0.0
H1195 H 0.17743 0.1829 0.56317 0.0
C1196 C 0.18565 0.07013 0.57497 0.0
C1197 C 0.18739 0.05714 0.62718 0.0
C1198 C 0.18548 0.09529 0.57616 0.0
C1199 C 0.18693 0.1079 0.62988 0.0
C1200 C 0.18853 0.09461 0.68234 0.0
C1201 C 0.18882 0.06947 0.68084 0.0
C1202 C 0.19297 0.17252 0.66773 0.0
C1203 C 0.18753 0.18563 0.62964 0.0
C1204 C 0.19276 0.14737 0.66798 0.0
C1205 C 0.18698 0.13475 0.63084 0.0
C1206 C 0.18138 0.14803 0.59385 0.0
C1207 C 0.18169 0.17318 0.59304 0.0
H1208 H 0.94314 0.93458 0.46697 0.0
H1209 H 0.93242 0.9339 0.28923 0.0
H1210 H 0.94305 0.8904 0.46846 0.0
H1211 H 0.93237 0.8897 0.29021 0.0
H1212 H 0.94459 0.81293 0.29322 0.0
H1213 H 0.94408 0.85707 0.29276 0.0
H1214 H 0.9319 0.85621 0.46633 0.0
H1215 H 0.93239 0.81203 0.46634 0.0
C1216 C 0.94073 0.92486 0.42844 0.0
C1217 C 0.93777 0.93737 0.37807 0.0
C1218 C 0.94065 0.8997 0.42931 0.0
C1219 C 0.93771 0.88668 0.37941 0.0
C1220 C 0.93472 0.89931 0.32907 0.0
C1221 C 0.9347 0.92448 0.32858 0.0
C1222 C 0.9418 0.82229 0.33108 0.0
C1223 C 0.9385 0.80932 0.37969 0.0
C1224 C 0.94146 0.84743 0.33073 0.0
C1225 C 0.93793 0.86001 0.37945 0.0
C1226 C 0.93469 0.84695 0.42836 0.0
C1227 C 0.93493 0.82178 0.4283 0.0
H1228 H 0.81032 0.93356 0.44585 0.0
H1229 H 0.83004 0.93401 0.30989 0.0
H1230 H 0.81053 0.88968 0.4468 0.0
H1231 H 0.83076 0.89015 0.31357 0.0
H1232 H 0.82296 0.81168 0.2852 0.0
H1233 H 0.82304 0.85569 0.28491 0.0
H1234 H 0.81841 0.85568 0.4756 0.0
H1235 H 0.81789 0.81167 0.4744 0.0
C1236 C 0.81472 0.92418 0.41631 0.0
C1237 C 0.82007 0.93708 0.37721 0.0
C1238 C 0.81495 0.89904 0.41742 0.0
C1239 C 0.82066 0.88622 0.38015 0.0
C1240 C 0.82617 0.8993 0.34209 0.0
C1241 C 0.82584 0.92444 0.34044 0.0
C1242 C 0.82198 0.82127 0.32682 0.0
C1243 C 0.82042 0.80861 0.37978 0.0
C1244 C 0.82209 0.84643 0.32693 0.0
C1245 C 0.82074 0.85938 0.38028 0.0
C1246 C 0.81931 0.84643 0.43349 0.0
C1247 C 0.81908 0.82127 0.43308 0.0
H1248 H 0.58177 0.68345 0.67522 0.0
H1249 H 0.5587 0.68207 0.56728 0.0
H1250 H 0.58227 0.63955 0.67374 0.0
H1251 H 0.55875 0.63831 0.56954 0.0
H1252 H 0.56508 0.56017 0.53626 0.0
H1253 H 0.56563 0.60409 0.53254 0.0
H1254 H 0.57548 0.60535 0.71349 0.0
H1255 H 0.57531 0.56133 0.71521 0.0
C1256 C 0.57681 0.67372 0.65117 0.0
C1257 C 0.5702 0.68614 0.62143 0.0
C1258 C 0.57701 0.64855 0.65102 0.0
C1259 C 0.57053 0.63524 0.62172 0.0
C1260 C 0.56393 0.64782 0.59184 0.0
C1261 C 0.56381 0.67295 0.59128 0.0
C1262 C 0.56739 0.57 0.57491 0.0
C1263 C 0.57017 0.55765 0.62591 0.0
C1264 C 0.56766 0.59512 0.57312 0.0
C1265 C 0.57056 0.60841 0.62284 0.0
C1266 C 0.57335 0.59581 0.67397 0.0
C1267 C 0.5732 0.57065 0.67529 0.0
H1268 H 0.69924 0.56321 0.56176 0.0
H1269 H 0.67653 0.56137 0.67326 0.0
H1270 H 0.69921 0.60695 0.56543 0.0
H1271 H 0.676 0.60524 0.67291 0.0
H1272 H 0.68291 0.68319 0.71613 0.0
H1273 H 0.68273 0.6392 0.71266 0.0
H1274 H 0.69249 0.64158 0.53151 0.0
H1275 H 0.69312 0.68545 0.53728 0.0
C1276 C 0.6942 0.57223 0.58678 0.0
C1277 C 0.68794 0.55891 0.61768 0.0
C1278 C 0.69409 0.59736 0.58815 0.0
C1279 C 0.6876 0.60982 0.61947 0.0
C1280 C 0.6812 0.59637 0.6492 0.0
C1281 C 0.68141 0.5712 0.64867 0.0
C1282 C 0.68502 0.6741 0.67586 0.0
C1283 C 0.68806 0.68738 0.62707 0.0
C1284 C 0.68486 0.64895 0.67348 0.0
C1285 C 0.6876 0.63666 0.62174 0.0
C1286 C 0.6905 0.65026 0.57257 0.0
C1287 C 0.69081 0.67537 0.5755 0.0
H1288 H 0.44405 0.43277 0.45748 0.0
H1289 H 0.43271 0.43376 0.28159 0.0
H1290 H 0.44359 0.38862 0.45754 0.0
H1291 H 0.43225 0.38959 0.28121 0.0
H1292 H 0.44359 0.31155 0.28128 0.0
H1293 H 0.44336 0.35571 0.28059 0.0
H1294 H 0.43216 0.35561 0.45733 0.0
H1295 H 0.43239 0.31142 0.45757 0.0
C1296 C 0.44146 0.42342 0.41895 0.0
C1297 C 0.43842 0.4364 0.36954 0.0
C1298 C 0.44114 0.39827 0.41905 0.0
C1299 C 0.43788 0.38572 0.36939 0.0
C1300 C 0.43485 0.39881 0.31988 0.0
C1301 C 0.43508 0.42398 0.32014 0.0
C1302 C 0.44105 0.32109 0.31967 0.0
C1303 C 0.438 0.30835 0.36944 0.0
C1304 C 0.44088 0.34625 0.31925 0.0
C1305 C 0.43775 0.35904 0.36896 0.0
C1306 C 0.43467 0.34618 0.41865 0.0
C1307 C 0.43475 0.32101 0.41872 0.0
H1308 H 0.333 0.31201 0.42137 0.0
H1309 H 0.30904 0.31366 0.32265 0.0
H1310 H 0.33349 0.35617 0.41966 0.0
H1311 H 0.30929 0.35768 0.3245 0.0
H1312 H 0.3095 0.43314 0.42818 0.0
H1313 H 0.30979 0.3891 0.4271 0.0
H1314 H 0.33299 0.39053 0.32067 0.0
H1315 H 0.33242 0.43468 0.31841 0.0
C1316 C 0.32787 0.32176 0.39906 0.0
C1317 C 0.32096 0.30938 0.37235 0.0
C1318 C 0.32814 0.34694 0.39844 0.0
C1319 C 0.3214 0.3601 0.37223 0.0
C1320 C 0.31451 0.34781 0.34539 0.0
C1321 C 0.31435 0.32268 0.34479 0.0
C1322 C 0.31459 0.42409 0.40383 0.0
C1323 C 0.32089 0.43734 0.37286 0.0
C1324 C 0.31479 0.39895 0.40365 0.0
C1325 C 0.32141 0.38664 0.37379 0.0
C1326 C 0.32785 0.39977 0.34425 0.0
C1327 C 0.32755 0.42495 0.34326 0.0
H1328 H 0.56494 0.18346 0.21464 0.0
H1329 H 0.57533 0.18262 0.03614 0.0
H1330 H 0.56559 0.13956 0.21819 0.0
H1331 H 0.57552 0.13863 0.03739 0.0
H1332 H 0.58163 0.06046 0.07255 0.0
H1333 H 0.58218 0.10431 0.07531 0.0
H1334 H 0.55891 0.10522 0.18233 0.0
H1335 H 0.55887 0.06147 0.18368 0.0
C1336 C 0.5673 0.1737 0.17601 0.0
C1337 C 0.57009 0.18613 0.12518 0.0
C1338 C 0.56761 0.14857 0.17767 0.0
C1339 C 0.57057 0.13536 0.12793 0.0
C1340 C 0.57336 0.14807 0.07699 0.0
C1341 C 0.57319 0.17323 0.07589 0.0
C1342 C 0.57674 0.0701 0.09754 0.0
C1343 C 0.57019 0.05759 0.12775 0.0
C1344 C 0.57696 0.09528 0.0984 0.0
C1345 C 0.57056 0.1085 0.12875 0.0
C1346 C 0.56404 0.09581 0.15921 0.0
C1347 C 0.56392 0.07068 0.15922 0.0
H1348 H 0.68234 0.06162 0.04002 0.0
H1349 H 0.69273 0.06223 0.21854 0.0
H1350 H 0.68211 0.10562 0.03929 0.0
H1351 H 0.69204 0.10616 0.22012 0.0
H1352 H 0.69887 0.18383 0.18139 0.0
H1353 H 0.69877 0.14009 0.18234 0.0
H1354 H 0.67547 0.14031 0.0756 0.0
H1355 H 0.67608 0.18413 0.07057 0.0
C1356 C 0.68447 0.07134 0.07934 0.0
C1357 C 0.68759 0.05886 0.12919 0.0
C1358 C 0.68428 0.0965 0.07931 0.0
C1359 C 0.68706 0.10962 0.12966 0.0
C1360 C 0.69002 0.09682 0.18004 0.0
C1361 C 0.69036 0.07168 0.17951 0.0
C1362 C 0.6938 0.17447 0.15746 0.0
C1363 C 0.68754 0.18735 0.12539 0.0
C1364 C 0.69365 0.14936 0.1588 0.0
C1365 C 0.6871 0.13647 0.12911 0.0
C1366 C 0.6807 0.14949 0.09815 0.0
C1367 C 0.68097 0.17465 0.09596 0.0
H1368 H 0.43202 0.93325 0.78282 0.0
H1369 H 0.44375 0.9336 0.95749 0.0
H1370 H 0.43183 0.889 0.78382 0.0
H1371 H 0.44347 0.88943 0.95915 0.0
H1372 H 0.43195 0.81173 0.95979 0.0
H1373 H 0.43164 0.85595 0.95884 0.0
H1374 H 0.44383 0.85587 0.78538 0.0
H1375 H 0.44425 0.8117 0.78697 0.0
C1376 C 0.43449 0.92376 0.82149 0.0
C1377 C 0.43788 0.93655 0.87015 0.0
C1378 C 0.43443 0.89858 0.82199 0.0
C1379 C 0.43763 0.88589 0.87161 0.0
C1380 C 0.4409 0.8988 0.92061 0.0
C1381 C 0.44109 0.92395 0.91963 0.0
C1382 C 0.43454 0.82129 0.92158 0.0
C1383 C 0.4381 0.80858 0.8734 0.0
C1384 C 0.43439 0.84646 0.92109 0.0
C1385 C 0.43769 0.85924 0.87195 0.0
C1386 C 0.44118 0.84642 0.82351 0.0
C1387 C 0.44146 0.82127 0.8245 0.0
H1388 H 0.30996 0.81375 0.79765 0.0
H1389 H 0.33032 0.81179 0.92902 0.0
H1390 H 0.31001 0.85757 0.80089 0.0
H1391 H 0.33092 0.85566 0.92902 0.0
H1392 H 0.32328 0.93351 0.96638 0.0
H1393 H 0.32345 0.88952 0.96258 0.0
H1394 H 0.31738 0.89231 0.7739 0.0
H1395 H 0.31675 0.93621 0.77948 0.0
C1396 C 0.31449 0.82278 0.82698 0.0
C1397 C 0.32005 0.80944 0.86365 0.0
C1398 C 0.31462 0.84793 0.82825 0.0
C1399 C 0.32046 0.86034 0.86537 0.0
C1400 C 0.32621 0.84684 0.90077 0.0
C1401 C 0.32596 0.82168 0.90019 0.0
C1402 C 0.32198 0.92452 0.92435 0.0
C1403 C 0.31999 0.93793 0.87326 0.0
C1404 C 0.32215 0.89937 0.92185 0.0
C1405 C 0.32044 0.88719 0.86785 0.0
C1406 C 0.31856 0.90091 0.81653 0.0
C1407 C 0.31826 0.92603 0.81941 0.0
H1408 H 0.01661 0.47392 0.1468 0.0
H1409 H 0.02946 0.49575 0.98445 0.0
H1410 H 1.00263 0.4823 0.10069 0.0
H1411 H 0.0155 0.50351 0.93795 0.0
H1412 H 0.98871 0.49035 0.85651 0.0
H1413 H 1.00247 0.48093 0.9038 0.0
H1414 H 0.99428 0.51799 0.06361 0.0
H1415 H 0.9806 0.52799 0.01592 0.0
C1416 C 0.01645 0.48027 0.10106 0.0
C1417 C 0.02415 0.48345 0.06871 0.0
C1418 C 0.00844 0.48516 0.07478 0.0
C1419 C 0.00795 0.49336 0.01552 0.0
C1420 C 0.01565 0.4967 0.98328 0.0
C1421 C 0.02366 0.492 0.00975 0.0
C1422 C 0.98982 0.49648 0.90183 0.0
C1423 C 0.98343 0.50953 0.93271 0.0
C1424 C 0.99772 0.49111 0.92882 0.0
C1425 C 0.99945 0.49864 0.98749 0.0
C1426 C 0.99307 0.51157 0.01867 0.0
C1427 C 0.98518 0.51712 0.99143 0.0
H1428 H 0.23279 0.78957 0.00903 0.0
H1429 H 0.2358 0.7254 0.11538 0.0
H1430 H 0.24673 0.78204 0.96182 0.0
H1431 H 0.24949 0.71691 0.06627 0.0
H1432 H 0.27732 0.71836 0.01164 0.0
H1433 H 0.26379 0.72793 0.05971 0.0
H1434 H 0.25432 0.75848 0.89457 0.0
H1435 H 0.2682 0.75103 0.84822 0.0
C1436 C 0.23637 0.77357 0.02132 0.0
C1437 C 0.23322 0.75797 0.06543 0.0
C1438 C 0.24437 0.76916 0.99424 0.0
C1439 C 0.24932 0.74882 0.01003 0.0
C1440 C 0.24602 0.73306 0.0537 0.0
C1441 C 0.23812 0.73776 0.08154 0.0
C1442 C 0.27253 0.72792 0.98597 0.0
C1443 C 0.27406 0.7346 0.92634 0.0
C1444 C 0.2646 0.73289 0.01331 0.0
C1445 C 0.25787 0.74406 0.98132 0.0
C1446 C 0.25936 0.75036 0.92135 0.0
C1447 C 0.26733 0.7458 0.89444 0.0
H1448 H 0.98013 0.76758 0.28367 0.0
H1449 H 0.98973 0.69778 0.33593 0.0
H1450 H 0.99403 0.77661 0.23588 0.0
H1451 H 1.00356 0.7066 0.2874 0.0
H1452 H 0.02214 0.72406 0.12701 0.0
H1453 H 0.00826 0.71544 0.17479 0.0
H1454 H 0.01037 0.78103 0.27724 0.0
H1455 H 0.02438 0.78945 0.23013 0.0
C1456 C 0.98516 0.75405 0.28391 0.0
C1457 C 0.98385 0.73185 0.31253 0.0
C1458 C 0.99313 0.7593 0.25729 0.0
C1459 C 0.99984 0.74227 0.25801 0.0
C1460 C 0.99847 0.71997 0.28599 0.0
C1461 C 0.99058 0.71494 0.31367 0.0
C1462 C 0.01966 0.73655 0.16001 0.0
C1463 C 0.02436 0.75726 0.17546 0.0
C1464 C 0.01174 0.7316 0.18733 0.0
C1465 C 0.00827 0.74759 0.22954 0.0
C1466 C 0.01292 0.76847 0.24462 0.0
C1467 C 0.02094 0.77316 0.21819 0.0
H1468 H 0.2667 0.51852 0.39551 0.0
H1469 H 0.27978 0.49955 0.23186 0.0
H1470 H 0.25286 0.5092 0.34921 0.0
H1471 H 0.26596 0.49188 0.18416 0.0
H1472 H 0.24099 0.45449 0.1345 0.0
H1473 H 0.25468 0.46365 0.18293 0.0
H1474 H 0.24254 0.52239 0.27806 0.0
H1475 H 0.22882 0.5127 0.23047 0.0
C1476 C 0.26661 0.51279 0.34924 0.0
C1477 C 0.27434 0.51045 0.31695 0.0
C1478 C 0.25866 0.50762 0.32249 0.0
C1479 C 0.25823 0.4999 0.26268 0.0
C1480 C 0.266 0.49759 0.23041 0.0
C1481 C 0.27395 0.50255 0.25739 0.0
C1482 C 0.24125 0.46927 0.16609 0.0
C1483 C 0.23379 0.48259 0.17949 0.0
C1484 C 0.24912 0.47467 0.19355 0.0
C1485 C 0.24977 0.49385 0.23443 0.0
C1486 C 0.24228 0.5072 0.24775 0.0
C1487 C 0.23438 0.5016 0.22067 0.0
H1488 H 0.77742 0.21708 0.0081 0.0
H1489 H 0.76886 0.25393 0.84877 0.0
H1490 H 0.7639 0.22674 0.05671 0.0
H1491 H 0.75501 0.2617 0.8955 0.0
H1492 H 0.73372 0.29207 0.01352 0.0
H1493 H 0.74769 0.28459 0.9666 0.0
H1494 H 0.74941 0.21642 0.05939 0.0
H1495 H 0.73568 0.22465 0.10808 0.0
C1496 C 0.77275 0.22758 0.98356 0.0
C1497 C 0.77441 0.23536 0.92494 0.0
C1498 C 0.76484 0.23264 0.0111 0.0
C1499 C 0.75829 0.24507 0.98028 0.0
C1500 C 0.75992 0.25255 0.92134 0.0
C1501 C 0.76787 0.24783 0.89421 0.0
C1502 C 0.73708 0.27543 0.0233 0.0
C1503 C 0.7336 0.25883 0.06394 0.0
C1504 C 0.74509 0.27107 0.99641 0.0
C1505 C 0.74975 0.24986 0.00902 0.0
C1506 C 0.74616 0.23319 0.04938 0.0
C1507 C 0.73824 0.23777 0.07696 0.0
H1508 H 0.01868 0.2422 0.60789 0.0
H1509 H 0.0275 0.27786 0.76828 0.0
H1510 H 0.00487 0.23442 0.65497 0.0
H1511 H 0.01401 0.26817 0.81718 0.0
H1512 H 0.98575 0.27053 0.86928 0.0
H1513 H 0.99953 0.27868 0.82116 0.0
H1514 H 0.99757 0.21122 0.72524 0.0
H1515 H 0.98356 0.20385 0.77161 0.0
C1516 C 0.01776 0.24803 0.65363 0.0
C1517 C 0.02437 0.2602 0.6845 0.0
C1518 C 0.00983 0.2433 0.68097 0.0
C1519 C 0.00827 0.25042 0.7403 0.0
C1520 C 0.01489 0.26254 0.77129 0.0
C1521 C 0.02279 0.26762 0.74354 0.0
C1522 C 0.98827 0.25755 0.83763 0.0
C1523 C 0.98355 0.23674 0.82348 0.0
C1524 C 0.99622 0.26208 0.81035 0.0
C1525 C 0.99975 0.24561 0.76918 0.0
C1526 C 0.99502 0.22461 0.75564 0.0
C1527 C 0.98698 0.22031 0.78223 0.0
H1528 H 0.76872 0.49446 0.89151 0.0
H1529 H 0.77819 0.52504 0.72663 0.0
H1530 H 0.75497 0.48595 0.84394 0.0
H1531 H 0.76472 0.51478 0.67779 0.0
H1532 H 0.73648 0.51884 0.6247 0.0
H1533 H 0.7503 0.52682 0.67252 0.0
H1534 H 0.74765 0.46131 0.77538 0.0
H1535 H 0.73365 0.45397 0.72878 0.0
C1536 C 0.76794 0.49899 0.84475 0.0
C1537 C 0.77469 0.51002 0.81281 0.0
C1538 C 0.76006 0.49386 0.81722 0.0
C1539 C 0.75869 0.49951 0.75674 0.0
C1540 C 0.76547 0.51034 0.72459 0.0
C1541 C 0.77333 0.51575 0.75239 0.0
C1542 C 0.73885 0.50622 0.65775 0.0
C1543 C 0.73394 0.48599 0.67371 0.0
C1544 C 0.74682 0.51066 0.68487 0.0
C1545 C 0.75016 0.4947 0.72788 0.0
C1546 C 0.74524 0.47429 0.74338 0.0
C1547 C 0.7372 0.47004 0.71676 0.0
H1548 H 0.02899 0.01402 0.51831 0.0
H1549 H 0.01764 0.95006 0.5941 0.0
H1550 H 0.01526 0.02404 0.47126 0.0
H1551 H 1.00397 0.9594 0.54555 0.0
H1552 H 0.9784 0.9937 0.50312 0.0
H1553 H 0.99215 0.98525 0.55004 0.0
H1554 H 0.0054 0.01391 0.3957 0.0
H1555 H 0.99159 0.02425 0.35101 0.0
C1556 C 0.02361 0.00176 0.52349 0.0
C1557 C 0.0244 0.98106 0.55896 0.0
C1558 C 0.01571 0.00752 0.49672 0.0
C1559 C 0.00844 0.99258 0.50447 0.0
C1560 C 0.00933 0.97165 0.53942 0.0
C1561 C 0.01719 0.96612 0.56683 0.0
C1562 C 0.9842 -0.00094 0.47998 0.0
C1563 C 0.98383 0.01046 0.42402 0.0
C1564 C 0.99215 0.99361 0.50636 0.0
C1565 C 0.99996 -0.00113 0.47686 0.0
C1566 C 0.99957 0.00999 0.42048 0.0
C1567 C 0.99162 0.01573 0.39453 0.0
H1568 H 0.24115 0.28497 0.62484 0.0
H1569 H 0.22868 0.23364 0.50873 0.0
H1570 H 0.25497 0.27641 0.57739 0.0
H1571 H 0.24251 0.22445 0.46215 0.0
H1572 H 0.26713 0.23131 0.35121 0.0
H1573 H 0.25326 0.23968 0.39784 0.0
H1574 H 0.26592 0.24746 0.56887 0.0
H1575 H 0.27983 0.24087 0.52127 0.0
C1576 C 0.24138 0.27183 0.58908 0.0
C1577 C 0.23381 0.26035 0.56967 0.0
C1578 C 0.24932 0.26674 0.56215 0.0
C1579 C 0.24991 0.24968 0.51578 0.0
C1580 C 0.2423 0.23806 0.49677 0.0
C1581 C 0.23435 0.24338 0.52331 0.0
C1582 C 0.26694 0.23471 0.39885 0.0
C1583 C 0.27458 0.23474 0.43271 0.0
C1584 C 0.25896 0.23933 0.42576 0.0
C1585 C 0.25841 0.24413 0.48736 0.0
C1586 C 0.26607 0.24405 0.52126 0.0
C1587 C 0.27406 0.23967 0.49417 0.0
H1588 H 0.26768 0.04477 0.848 0.0
H1589 H 0.27916 0.98203 0.7669 0.0
H1590 H 0.25396 0.03551 0.79994 0.0
H1591 H 0.26539 0.97206 0.72032 0.0
H1592 H 0.24146 0.97217 0.60253 0.0
H1593 H 0.25532 0.98252 0.6465 0.0
H1594 H 0.24227 0.00925 0.80386 0.0
H1595 H 0.22845 0.00081 0.75778 0.0
C1596 C 0.26725 0.02899 0.81965 0.0
C1597 C 0.27451 0.01437 0.81023 0.0
C1598 C 0.25937 0.02351 0.79252 0.0
C1599 C 0.2585 0.00292 0.75627 0.0
C1600 C 0.26582 0.98832 0.74685 0.0
C1601 C 0.27375 0.99405 0.77336 0.0
C1602 C 0.24154 0.98028 0.64656 0.0
C1603 C 0.23379 0.98501 0.67711 0.0
C1604 C 0.24952 0.98602 0.67209 0.0
C1605 C 0.24998 0.9966 0.7291 0.0
C1606 C 0.24221 0.00132 0.75967 0.0
C1607 C 0.23423 0.99587 0.73374 0.0
H1608 H 0.74047 0.79399 0.61129 0.0
H1609 H 0.72914 0.73057 0.53234 0.0
H1610 H 0.75417 0.78491 0.56279 0.0
H1611 H 0.74289 0.72086 0.4852 0.0
H1612 H 0.76641 0.72205 0.3636 0.0
H1613 H 0.75265 0.73171 0.40983 0.0
H1614 H 0.76606 0.75921 0.56489 0.0
H1615 H 0.77977 0.75141 0.51659 0.0
C1616 C 0.74093 0.77807 0.58344 0.0
C1617 C 0.7337 0.76326 0.57458 0.0
C1618 C 0.74881 0.77271 0.556 0.0
C1619 C 0.7497 0.75207 0.51992 0.0
C1620 C 0.74243 0.73718 0.51147 0.0
C1621 C 0.73452 0.74277 0.53832 0.0
C1622 C 0.76644 0.73017 0.40761 0.0
C1623 C 0.77427 0.73532 0.4368 0.0
C1624 C 0.75851 0.73552 0.43446 0.0
C1625 C 0.75818 0.74611 0.49151 0.0
C1626 C 0.76602 0.75124 0.52075 0.0
C1627 C 0.77395 0.74617 0.4935 0.0
H1628 H 0.76774 0.04506 0.34404 0.0
H1629 H 0.77876 0.98075 0.26769 0.0
H1630 H 0.75408 0.03664 0.29417 0.0
H1631 H 0.76503 0.97151 0.21971 0.0
H1632 H 0.74144 0.97132 0.09986 0.0
H1633 H 0.75527 0.98151 0.14442 0.0
H1634 H 0.74206 0.01198 0.29691 0.0
H1635 H 0.72832 0.00384 0.24985 0.0
C1636 C 0.76721 0.02911 0.31637 0.0
C1637 C 0.77433 0.01379 0.30871 0.0
C1638 C 0.75936 0.0241 0.28821 0.0
C1639 C 0.75837 0.00328 0.25284 0.0
C1640 C 0.76555 0.98797 0.24538 0.0
C1641 C 0.77345 0.99325 0.27277 0.0
C1642 C 0.74148 0.98026 0.14289 0.0
C1643 C 0.73369 0.98604 0.17188 0.0
C1644 C 0.74944 0.98591 0.16882 0.0
C1645 C 0.74986 0.99741 0.22478 0.0
C1646 C 0.74206 0.00331 0.2536 0.0
C1647 C 0.7341 -0.002 0.22716 0.0
H1648 H 0.52853 0.47302 0.47373 0.0
H1649 H 0.51827 0.49549 0.6444 0.0
H1650 H 0.51505 0.48377 0.42616 0.0
H1651 H 0.50451 0.50421 0.59767 0.0
H1652 H 0.48292 0.5386 0.48993 0.0
H1653 H 0.49685 0.53043 0.5366 0.0
H1654 H 0.5009 0.47135 0.41365 0.0
H1655 H 0.48718 0.48043 0.36568 0.0
C1656 C 0.5235 0.48061 0.50124 0.0
C1657 C 0.52468 0.48399 0.56296 0.0
C1658 C 0.51562 0.48626 0.47396 0.0
C1659 C 0.5086 0.49492 0.50781 0.0
C1660 C 0.50977 0.49808 0.56962 0.0
C1661 C 0.51768 0.4928 0.59665 0.0
C1662 C 0.48677 0.52373 0.47345 0.0
C1663 C 0.48394 0.50999 0.42463 0.0
C1664 C 0.49477 0.51899 0.50016 0.0
C1665 C 0.50008 0.50017 0.47913 0.0
C1666 C 0.49714 0.48631 0.4305 0.0
C1667 C 0.48922 0.49134 0.40324 0.0
H1668 H 0.5295 0.75131 0.76623 0.0
H1669 H 0.51649 0.76754 0.60051 0.0
H1670 H 0.51566 0.74378 0.8139 0.0
H1671 H 0.50265 0.75841 0.64695 0.0
H1672 H 0.47849 0.76232 0.76413 0.0
H1673 H 0.49222 0.7722 0.71703 0.0
H1674 H 0.50455 0.71482 0.81584 0.0
H1675 H 0.49084 0.70541 0.86365 0.0
C1676 C 0.52368 0.75376 0.74024 0.0
C1677 C 0.52409 0.7608 0.68005 0.0
C1678 C 0.51573 0.74889 0.76723 0.0
C1679 C 0.50799 0.75046 0.73438 0.0
C1680 C 0.50843 0.75741 0.67404 0.0
C1681 C 0.51638 0.76248 0.64724 0.0
C1682 C 0.48409 0.75153 0.77483 0.0
C1683 C 0.48355 0.7328 0.81677 0.0
C1684 C 0.492 0.75726 0.74806 0.0
C1685 C 0.49954 0.74434 0.76254 0.0
C1686 C 0.49894 0.72549 0.8043 0.0
C1687 C 0.49106 0.71994 0.8314 0.0
H1688 H 0.48698 0.26642 0.37913 0.0
H1689 H 0.48312 0.20582 0.26155 0.0
H1690 H 0.50071 0.27508 0.33072 0.0
H1691 H 0.49703 0.21365 0.21449 0.0
H1692 H 0.51832 0.2477 0.10347 0.0
H1693 H 0.50456 0.23931 0.15066 0.0
H1694 H 0.51493 0.26264 0.3204 0.0
H1695 H 0.52841 0.273 0.27219 0.0
C1696 C 0.48911 0.25489 0.34296 0.0
C1697 C 0.48394 0.23567 0.3235 0.0
C1698 C 0.49703 0.25969 0.31547 0.0
C1699 C 0.50007 0.24505 0.26859 0.0
C1700 C 0.49487 0.22566 0.24952 0.0
C1701 C 0.48688 0.22112 0.27645 0.0
C1702 C 0.51768 0.25109 0.15092 0.0
C1703 C 0.52463 0.26057 0.184 0.0
C1704 C 0.50978 0.246 0.17822 0.0
C1705 C 0.50858 0.25008 0.23966 0.0
C1706 C 0.51554 0.25944 0.27288 0.0
C1707 C 0.52341 0.26487 0.24532 0.0
H1708 H 0.48954 0.99394 0.84879 0.0
H1709 H 0.48005 0.02362 0.01471 0.0
H1710 H 0.50333 0.98546 0.89598 0.0
H1711 H 0.49355 0.0134 0.06306 0.0
H1712 H 0.5217 0.01768 0.11652 0.0
H1713 H 0.50793 0.02579 0.06823 0.0
H1714 H 0.51068 0.96057 0.96418 0.0
H1715 H 0.52464 0.95309 0.0113 0.0
C1716 C 0.49032 -0.00172 0.89567 0.0
C1717 C 0.48355 0.00902 0.92807 0.0
C1718 C 0.49823 0.99317 0.92295 0.0
C1719 C 0.49959 -0.00141 0.98358 0.0
C1720 C 0.4928 0.00915 0.01614 0.0
C1721 C 0.48492 0.01453 0.98861 0.0
C1722 C 0.51936 0.00516 0.0831 0.0
C1723 C 0.52429 0.98495 0.06704 0.0
C1724 C 0.51143 0.00967 0.0557 0.0
C1725 C 0.50812 0.9938 0.01231 0.0
C1726 C 0.51307 0.97345 0.99653 0.0
C1727 C 0.52108 0.96914 0.02346 0.0
H1728 H 0.05339 0.40903 0.24703 0.0
H1729 H 0.0795 0.42585 0.30094 0.0
H1730 H 0.05292 0.3766 0.32052 0.0
H1731 H 0.07894 0.39407 0.3754 0.0
H1732 H 0.07974 0.31905 0.4485 0.0
H1733 H 0.07915 0.35102 0.37455 0.0
H1734 H 0.05281 0.36655 0.42548 0.0
H1735 H 0.05332 0.33394 0.49842 0.0
C1736 C 0.05897 0.40612 0.27535 0.0
C1737 C 0.06652 0.41985 0.26777 0.0
C1738 C 0.0587 0.38754 0.31748 0.0
C1739 C 0.06595 0.38244 0.35309 0.0
C1740 C 0.07332 0.39704 0.3475 0.0
C1741 C 0.07362 0.41542 0.30518 0.0
C1742 C 0.07379 0.3291 0.44355 0.0
C1743 C 0.0666 0.32405 0.47964 0.0
C1744 C 0.07347 0.3476 0.40152 0.0
C1745 C 0.06599 0.36168 0.39491 0.0
C1746 C 0.05867 0.35602 0.42932 0.0
C1747 C 0.05897 0.33733 0.47115 0.0
H1748 H 0.17802 0.81925 0.29732 0.0
H1749 H 0.20443 0.83404 0.24687 0.0
H1750 H 0.1786 0.85158 0.37044 0.0
H1751 H 0.20492 0.86702 0.31876 0.0
H1752 H 0.20451 0.91023 0.49565 0.0
H1753 H 0.20491 0.87765 0.42263 0.0
H1754 H 0.17874 0.89448 0.37 0.0
H1755 H 0.17825 0.9264 0.44426 0.0
C1756 C 0.18397 0.82936 0.302 0.0
C1757 C 0.19116 0.82415 0.26607 0.0
C1758 C 0.18427 0.84807 0.34351 0.0
C1759 C 0.19175 0.86223 0.34969 0.0
C1760 C 0.19906 0.85644 0.31534 0.0
C1761 C 0.19878 0.83752 0.27411 0.0
C1762 C 0.19889 0.90717 0.4679 0.0
C1763 C 0.19132 0.92075 0.47612 0.0
C1764 C 0.19912 0.88848 0.42601 0.0
C1765 C 0.1918 0.88314 0.39118 0.0
C1766 C 0.18441 0.89762 0.3973 0.0
C1767 C 0.18415 0.9161 0.43948 0.0
H1768 H 0.05344 0.83302 0.994 0.0
H1769 H 0.07962 0.81612 0.94193 0.0
H1770 H 0.05309 0.86547 0.92075 0.0
H1771 H 0.07917 0.84791 0.86737 0.0
H1772 H 0.07999 0.92295 0.79327 0.0
H1773 H 0.07943 0.89076 0.86672 0.0
H1774 H 0.05301 0.87575 0.81695 0.0
H1775 H 0.05347 0.90859 0.74485 0.0
C1776 C 0.05906 0.8359 0.96605 0.0
C1777 C 0.06659 0.82214 0.97411 0.0
C1778 C 0.05886 0.85451 0.92403 0.0
C1779 C 0.06615 0.85959 0.88885 0.0
C1780 C 0.07352 0.84496 0.89491 0.0
C1781 C 0.07375 0.82656 0.93725 0.0
C1782 C 0.07403 0.91296 0.79843 0.0
C1783 C 0.06679 0.91826 0.76302 0.0
C1784 C 0.07373 0.89433 0.84014 0.0
C1785 C 0.06622 0.88035 0.847 0.0
C1786 C 0.05888 0.88621 0.81305 0.0
C1787 C 0.05915 0.90504 0.77166 0.0
H1788 H 0.20391 0.33455 0.74754 0.0
H1789 H 0.1775 0.31857 0.79527 0.0
H1790 H 0.20414 0.36712 0.82026 0.0
H1791 H 0.17784 0.35039 0.87002 0.0
H1792 H 0.1774 0.42445 0.9513 0.0
H1793 H 0.17771 0.3927 0.87635 0.0
H1794 H 0.20426 0.37723 0.92216 0.0
H1795 H 0.20405 0.40971 0.99499 0.0
C1796 C 0.19821 0.33767 0.77448 0.0
C1797 C 0.19067 0.32406 0.76549 0.0
C1798 C 0.19834 0.35636 0.8163 0.0
C1799 C 0.19097 0.36163 0.85069 0.0
C1800 C 0.18355 0.34731 0.84326 0.0
C1801 C 0.18338 0.32887 0.80085 0.0
C1802 C 0.18333 0.41444 0.9448 0.0
C1803 C 0.19069 0.41959 0.9791 0.0
C1804 C 0.18348 0.39604 0.90228 0.0
C1805 C 0.19097 0.38209 0.89368 0.0
C1806 C 0.1984 0.3877 0.92701 0.0
C1807 C 0.19828 0.40634 0.96893 0.0
H1808 H 0.92807 0.56838 0.69543 0.0
H1809 H 0.95431 0.58515 0.74607 0.0
H1810 H 0.92851 0.59987 0.62005 0.0
H1811 H 0.95465 0.61731 0.67211 0.0
H1812 H 0.95437 0.65993 0.49613 0.0
H1813 H 0.95473 0.62718 0.56844 0.0
H1814 H 0.92831 0.64263 0.6174 0.0
H1815 H 0.92785 0.67472 0.54364 0.0
C1816 C 0.93395 0.57874 0.69029 0.0
C1817 C 0.94114 0.57436 0.72695 0.0
C1818 C 0.93418 0.59697 0.64746 0.0
C1819 C 0.94156 0.61146 0.64072 0.0
C1820 C 0.94887 0.60645 0.67583 0.0
C1821 C 0.94868 0.58801 0.71831 0.0
C1822 C 0.94866 0.65647 0.52275 0.0
C1823 C 0.94106 0.66984 0.51388 0.0
C1824 C 0.94888 0.63769 0.56428 0.0
C1825 C 0.94151 0.63202 0.59822 0.0
C1826 C 0.93402 0.64605 0.5909 0.0
C1827 C 0.93378 0.66464 0.54901 0.0
H1828 H 0.83048 0.17552 0.69734 0.0
H1829 H 0.80398 0.16041 0.74447 0.0
H1830 H 0.83006 0.14362 0.62288 0.0
H1831 H 0.80365 0.12778 0.6719 0.0
H1832 H 0.80382 0.08537 0.4962 0.0
H1833 H 0.80361 0.11775 0.56947 0.0
H1834 H 0.82998 0.10118 0.61783 0.0
H1835 H 0.8303 0.06953 0.54267 0.0
C1836 C 0.82456 0.16539 0.6917 0.0
C1837 C 0.81727 0.17047 0.72682 0.0
C1838 C 0.82434 0.14692 0.64945 0.0
C1839 C 0.81686 0.13283 0.64192 0.0
C1840 C 0.8095 0.13836 0.67602 0.0
C1841 C 0.80968 0.15708 0.71774 0.0
C1842 C 0.80954 0.08848 0.52296 0.0
C1843 C 0.81709 0.075 0.51341 0.0
C1844 C 0.80942 0.10705 0.56508 0.0
C1845 C 0.81681 0.11233 0.59912 0.0
C1846 C 0.82424 0.09808 0.59128 0.0
C1847 C 0.8244 0.07975 0.54863 0.0
H1848 H 0.9276 0.17491 0.04398 0.0
H1849 H 0.95394 0.15911 0.994 0.0
H1850 H 0.92798 0.14248 0.11691 0.0
H1851 H 0.95421 0.12594 0.06503 0.0
H1852 H 0.92748 0.06845 0.19626 0.0
H1853 H 0.92784 0.10005 0.121 0.0
H1854 H 0.9544 0.11537 0.16693 0.0
H1855 H 0.95414 0.08306 0.24014 0.0
C1856 C 0.93347 0.16451 0.04867 0.0
C1857 C 0.94073 0.16957 0.01325 0.0
C1858 C 0.93367 0.14572 0.09001 0.0
C1859 C 0.94108 0.13128 0.0963 0.0
C1860 C 0.94842 0.13677 0.06185 0.0
C1861 C 0.94826 0.1558 0.02106 0.0
C1862 C 0.93343 0.07835 0.18964 0.0
C1863 C 0.94077 0.0733 0.22428 0.0
C1864 C 0.93362 0.09666 0.14695 0.0
C1865 C 0.94111 0.1106 0.13851 0.0
C1866 C 0.94854 0.10493 0.17176 0.0
C1867 C 0.94839 0.08639 0.21388 0.0
H1868 H 0.82954 0.67936 0.19511 0.0
H1869 H 0.8034 0.66223 0.24741 0.0
H1870 H 0.82907 0.64783 0.11983 0.0
H1871 H 0.80302 0.63003 0.17333 0.0
H1872 H 0.80348 0.58668 0.9974 0.0
H1873 H 0.80296 0.61971 0.06916 0.0
H1874 H 0.82937 0.60492 0.11966 0.0
H1875 H 0.82998 0.57254 0.04673 0.0
C1876 C 0.82367 0.66894 0.19029 0.0
C1877 C 0.81653 0.67319 0.22753 0.0
C1878 C 0.82342 0.65069 0.14751 0.0
C1879 C 0.81607 0.63604 0.14136 0.0
C1880 C 0.80878 0.64101 0.17673 0.0
C1881 C 0.809 0.65947 0.21922 0.0
C1882 C 0.80914 0.59034 0.02429 0.0
C1883 C 0.81679 0.5771 0.01605 0.0
C1884 C 0.80884 0.60928 0.06545 0.0
C1885 C 0.81617 0.61524 0.09952 0.0
C1886 C 0.82369 0.60128 0.09297 0.0
C1887 C 0.82401 0.58253 0.05155 0.0
H1888 H 0.58072 0.31853 0.95011 0.0
H1889 H 0.55421 0.33382 0.99695 0.0
H1890 H 0.58029 0.35016 0.87503 0.0
H1891 H 0.55388 0.3661 0.92347 0.0
H1892 H 0.55423 0.40834 0.7472 0.0
H1893 H 0.55396 0.37579 0.82005 0.0
H1894 H 0.58016 0.39287 0.87136 0.0
H1895 H 0.58053 0.42475 0.79701 0.0
C1896 C 0.57479 0.3286 0.94425 0.0
C1897 C 0.56752 0.32371 0.97965 0.0
C1898 C 0.57457 0.34692 0.90161 0.0
C1899 C 0.56709 0.36098 0.89382 0.0
C1900 C 0.55972 0.35555 0.92792 0.0
C1901 C 0.55992 0.33704 0.97016 0.0
C1902 C 0.5599 0.4053 0.77449 0.0
C1903 C 0.56742 0.41904 0.76608 0.0
C1904 C 0.55974 0.38663 0.81633 0.0
C1905 C 0.56708 0.38146 0.85108 0.0
C1906 C 0.57447 0.3959 0.84426 0.0
C1907 C 0.57466 0.41436 0.80203 0.0
H1908 H 0.70259 0.82164 0.79254 0.0
H1909 H 0.67613 0.83851 0.74757 0.0
H1910 H 0.70251 0.85356 0.86751 0.0
H1911 H 0.67617 0.87093 0.82004 0.0
H1912 H 0.67586 0.91051 0.99652 0.0
H1913 H 0.67603 0.87865 0.92263 0.0
H1914 H 0.70248 0.89618 0.8787 0.0
H1915 H 0.70242 0.92755 0.95509 0.0
C1916 C 0.69676 0.83215 0.79866 0.0
C1917 C 0.68935 0.82742 0.76438 0.0
C1918 C 0.69674 0.85062 0.84119 0.0
C1919 C 0.68934 0.86493 0.84981 0.0
C1920 C 0.68194 0.86006 0.81554 0.0
C1921 C 0.68192 0.84144 0.77373 0.0
C1922 C 0.6817 0.90778 0.97076 0.0
C1923 C 0.68912 0.92163 0.98169 0.0
C1924 C 0.68179 0.88948 0.92812 0.0
C1925 C 0.68927 0.88475 0.89458 0.0
C1926 C 0.69665 0.89901 0.90445 0.0
C1927 C 0.69659 0.91717 0.94779 0.0
H1928 H 0.55309 0.83439 0.5001 0.0
H1929 H 0.57924 0.81822 0.44582 0.0
H1930 H 0.55255 0.86706 0.42725 0.0
H1931 H 0.5786 0.85026 0.3721 0.0
H1932 H 0.57929 0.9254 0.30085 0.0
H1933 H 0.57868 0.89343 0.37475 0.0
H1934 H 0.55247 0.87732 0.32194 0.0
H1935 H 0.55299 0.90993 0.24894 0.0
C1936 C 0.55866 0.8375 0.47184 0.0
C1937 C 0.56624 0.82388 0.47913 0.0
C1938 C 0.55835 0.85622 0.43011 0.0
C1939 C 0.56559 0.86157 0.39468 0.0
C1940 C 0.573 0.84708 0.39992 0.0
C1941 C 0.57334 0.82855 0.44181 0.0
C1942 C 0.57336 0.91524 0.30542 0.0
C1943 C 0.56622 0.92008 0.2687 0.0
C1944 C 0.57303 0.89675 0.34742 0.0
C1945 C 0.56559 0.88247 0.35335 0.0
C1946 C 0.5583 0.888 0.31854 0.0
C1947 C 0.5586 0.90669 0.27671 0.0
H1948 H 0.67866 0.31913 0.29744 0.0
H1949 H 0.70488 0.33507 0.24457 0.0
H1950 H 0.67926 0.35112 0.37141 0.0
H1951 H 0.70539 0.36772 0.31752 0.0
H1952 H 0.70493 0.41092 0.49482 0.0
H1953 H 0.70543 0.37815 0.42223 0.0
H1954 H 0.6792 0.39418 0.36965 0.0
H1955 H 0.67861 0.4263 0.44327 0.0
C1956 C 0.68457 0.3294 0.30182 0.0
C1957 C 0.6917 0.32468 0.26484 0.0
C1958 C 0.68489 0.34791 0.34384 0.0
C1959 C 0.69231 0.36233 0.34951 0.0
C1960 C 0.69958 0.35693 0.31438 0.0
C1961 C 0.69929 0.33821 0.27258 0.0
C1962 C 0.69931 0.40762 0.4672 0.0
C1963 C 0.6917 0.42106 0.47517 0.0
C1964 C 0.6996 0.38883 0.42559 0.0
C1965 C 0.6923 0.38325 0.3909 0.0
C1966 C 0.68485 0.39753 0.39687 0.0
C1967 C 0.68454 0.41612 0.43869 0.0
H1968 H 0.45352 0.57024 0.20622 0.0
H1969 H 0.42711 0.58803 0.25007 0.0
H1970 H 0.45359 0.602 0.13056 0.0
H1971 H 0.4273 0.62026 0.17757 0.0
H1972 H 0.42665 0.65897 0.00202 0.0
H1973 H 0.42704 0.62711 0.07552 0.0
H1974 H 0.45364 0.64441 0.11568 0.0
H1975 H 0.45336 0.67577 0.03911 0.0
C1976 C 0.44774 0.58093 0.19972 0.0
C1977 C 0.44028 0.57642 0.23357 0.0
C1978 C 0.4478 0.59929 0.15684 0.0
C1979 C 0.44044 0.61371 0.14766 0.0
C1980 C 0.43303 0.60922 0.18213 0.0
C1981 C 0.43292 0.5907 0.22401 0.0
C1982 C 0.43258 0.65618 0.02682 0.0
C1983 C 0.43997 0.67002 0.01493 0.0
C1984 C 0.43279 0.63788 0.06929 0.0
C1985 C 0.44036 0.63318 0.10199 0.0
C1986 C 0.44774 0.64727 0.09076 0.0
C1987 C 0.44756 0.66542 0.04735 0.0
H1988 H 0.30333 0.08516 0.00063 0.0
H1989 H 0.32998 0.07167 0.04731 0.0
H1990 H 0.30279 0.11776 0.07365 0.0
H1991 H 0.32935 0.10365 0.12133 0.0
H1992 H 0.32942 0.17861 0.19414 0.0
H1993 H 0.32884 0.14672 0.11992 0.0
H1994 H 0.30313 0.12795 0.17875 0.0
H1995 H 0.30361 0.16049 0.25214 0.0
C1996 C 0.30902 0.08885 0.0272 0.0
C1997 C 0.31673 0.07597 0.01775 0.0
C1998 C 0.30871 0.10753 0.06909 0.0
C1999 C 0.31607 0.1136 0.10258 0.0
C2000 C 0.32363 0.09991 0.09507 0.0
C2001 C 0.32397 0.0814 0.053 0.0
C2002 C 0.3236 0.16787 0.19083 0.0
C2003 C 0.31659 0.17196 0.22932 0.0
C2004 C 0.32329 0.14943 0.14864 0.0
C2005 C 0.31601 0.13443 0.14426 0.0
C2006 C 0.30883 0.13919 0.1809 0.0
C2007 C 0.30911 0.15785 0.22293 0.0
H2008 H 0.45383 0.08602 0.75005 0.0
H2009 H 0.42721 0.07141 0.70513 0.0
H2010 H 0.45408 0.11884 0.67833 0.0
H2011 H 0.42756 0.1035 0.63111 0.0
H2012 H 0.42753 0.17724 0.54824 0.0
H2013 H 0.42773 0.14576 0.62388 0.0
H2014 H 0.45411 0.12877 0.57675 0.0
H2015 H 0.45403 0.16099 0.50337 0.0
C2016 C 0.44808 0.08952 0.72396 0.0
C2017 C 0.4405 0.07615 0.73334 0.0
C2018 C 0.44822 0.10835 0.68267 0.0
C2019 C 0.44082 0.11403 0.6491 0.0
C2020 C 0.43332 0.10008 0.65718 0.0
C2021 C 0.43314 0.08149 0.69915 0.0
C2022 C 0.43341 0.16697 0.55468 0.0
C2023 C 0.44076 0.1716 0.51984 0.0
C2024 C 0.43349 0.14873 0.59758 0.0
C2025 C 0.4409 0.13442 0.60598 0.0
C2026 C 0.44833 0.13953 0.57213 0.0
C2027 C 0.44828 0.15803 0.52989 0.0
H2028 H 0.33005 0.56859 0.54757 0.0
H2029 H 0.30377 0.58497 0.49704 0.0
H2030 H 0.3296 0.60028 0.62249 0.0
H2031 H 0.30342 0.6174 0.57032 0.0
H2032 H 0.30362 0.6606 0.74525 0.0
H2033 H 0.30329 0.62778 0.67308 0.0
H2034 H 0.3298 0.64284 0.6256 0.0
H2035 H 0.33023 0.67494 0.69948 0.0
C2036 C 0.32416 0.57892 0.55265 0.0
C2037 C 0.31696 0.57434 0.51625 0.0
C2038 C 0.32393 0.59728 0.59518 0.0
C2039 C 0.31653 0.61174 0.60175 0.0
C2040 C 0.30921 0.60656 0.5668 0.0
C2041 C 0.30941 0.58795 0.52473 0.0
C2042 C 0.30935 0.65705 0.71894 0.0
C2043 C 0.31697 0.67027 0.72833 0.0
C2044 C 0.30916 0.63823 0.67748 0.0
C2045 C 0.31656 0.63241 0.64403 0.0
C2046 C 0.32406 0.64636 0.65174 0.0
C2047 C 0.32428 0.66495 0.69367 0.0
H2048 H 0.05639 0.31828 0.79431 0.0
H2049 H 0.08303 0.3334 0.75073 0.0
H2050 H 0.05666 0.34999 0.86945 0.0
H2051 H 0.08321 0.36563 0.82428 0.0
H2052 H 0.08275 0.40709 0.00085 0.0
H2053 H 0.08294 0.37464 0.92791 0.0
H2054 H 0.05692 0.39293 0.87475 0.0
H2055 H 0.05664 0.4249 0.94914 0.0
C2056 C 0.06232 0.3283 0.8009 0.0
C2057 C 0.06968 0.32331 0.76638 0.0
C2058 C 0.06244 0.34667 0.84358 0.0
C2059 C 0.06992 0.36062 0.85245 0.0
C2060 C 0.07736 0.35515 0.81909 0.0
C2061 C 0.07725 0.33665 0.77677 0.0
C2062 C 0.0771 0.40436 0.97322 0.0
C2063 C 0.06966 0.41854 0.98114 0.0
C2064 C 0.07721 0.38573 0.93126 0.0
C2065 C 0.06991 0.38096 0.89578 0.0
C2066 C 0.06258 0.3957 0.9023 0.0
C2067 C 0.06245 0.4142 0.94462 0.0
H2068 H 0.17526 0.83422 0.99565 0.0
H2069 H 0.20176 0.81772 0.9509 0.0
H2070 H 0.17515 0.86601 0.92123 0.0
H2071 H 0.20154 0.84897 0.87457 0.0
H2072 H 0.20171 0.92337 0.79127 0.0
H2073 H 0.20152 0.89163 0.86622 0.0
H2074 H 0.17519 0.87446 0.81802 0.0
H2075 H 0.17528 0.90678 0.7449 0.0
C2076 C 0.18102 0.83708 0.96916 0.0
C2077 C 0.18853 0.82347 0.97944 0.0
C2078 C 0.18095 0.85532 0.92627 0.0
C2079 C 0.18836 0.86024 0.89207 0.0
C2080 C 0.19578 0.84607 0.90099 0.0
C2081 C 0.19588 0.82797 0.94437 0.0
C2082 C 0.19585 0.91298 0.79709 0.0
C2083 C 0.18851 0.91767 0.76211 0.0
C2084 C 0.19577 0.89459 0.83967 0.0
C2085 C 0.18837 0.88027 0.84788 0.0
C2086 C 0.18098 0.88526 0.81352 0.0
C2087 C 0.18103 0.90381 0.77142 0.0
H2088 H 0.08263 0.90845 0.49317 0.0
H2089 H 0.0562 0.92559 0.44825 0.0
H2090 H 0.0826 0.8764 0.41927 0.0
H2091 H 0.05627 0.89409 0.37246 0.0
H2092 H 0.05583 0.81953 0.28956 0.0
H2093 H 0.05613 0.85138 0.36449 0.0
H2094 H 0.08251 0.86779 0.31625 0.0
H2095 H 0.08232 0.83543 0.24333 0.0
C2096 C 0.07686 0.90569 0.4667 0.0
C2097 C 0.06941 0.91954 0.47678 0.0
C2098 C 0.07685 0.88729 0.42415 0.0
C2099 C 0.06941 0.88247 0.3901 0.0
C2100 C 0.06205 0.89691 0.39879 0.0
C2101 C 0.06203 0.91515 0.44183 0.0
C2102 C 0.06172 0.82979 0.29543 0.0
C2103 C 0.06905 0.8249 0.26049 0.0
C2104 C 0.06187 0.84823 0.33797 0.0
C2105 C 0.06932 0.86235 0.34614 0.0
C2106 C 0.07669 0.85714 0.31182 0.0
C2107 C 0.07657 0.83856 0.2698 0.0
H2108 H 0.20277 0.33419 0.49412 0.0
H2109 H 0.17598 0.3195 0.45472 0.0
H2110 H 0.20277 0.36659 0.42176 0.0
H2111 H 0.17608 0.35118 0.37929 0.0
H2112 H 0.17622 0.42478 0.29151 0.0
H2113 H 0.17624 0.39307 0.36683 0.0
H2114 H 0.20269 0.376 0.32143 0.0
H2115 H 0.20279 0.40844 0.24911 0.0
C2116 C 0.19692 0.33755 0.46899 0.0
C2117 C 0.18938 0.32424 0.48015 0.0
C2118 C 0.19692 0.35616 0.42718 0.0
C2119 C 0.18942 0.36167 0.39443 0.0
C2120 C 0.18193 0.34786 0.40447 0.0
C2121 C 0.18189 0.32949 0.44723 0.0
C2122 C 0.18206 0.41442 0.29833 0.0
C2123 C 0.18952 0.41922 0.26462 0.0
C2124 C 0.18206 0.39602 0.34103 0.0
C2125 C 0.18945 0.38174 0.35021 0.0
C2126 C 0.19692 0.3868 0.31667 0.0
C2127 C 0.19697 0.40544 0.2749 0.0
H2128 H 0.92551 0.58804 0.99526 0.0
H2129 H 0.95186 0.57121 0.04309 0.0
H2130 H 0.92543 0.62073 0.0673 0.0
H2131 H 0.95167 0.60337 0.11719 0.0
H2132 H 0.95197 0.67766 0.20014 0.0
H2133 H 0.95178 0.64605 0.1246 0.0
H2134 H 0.92527 0.62984 0.16981 0.0
H2135 H 0.92536 0.662 0.24331 0.0
C2136 C 0.93125 0.59103 0.02194 0.0
C2137 C 0.9387 0.57701 0.01332 0.0
C2138 C 0.93119 0.6098 0.06344 0.0
C2139 C 0.93856 0.61486 0.09794 0.0
C2140 C 0.94594 0.60037 0.09049 0.0
C2141 C 0.94603 0.58174 0.04845 0.0
C2142 C 0.94607 0.66754 0.19336 0.0
C2143 C 0.93868 0.67237 0.22781 0.0
C2144 C 0.94599 0.64923 0.15049 0.0
C2145 C 0.93854 0.63515 0.14148 0.0
C2146 C 0.93109 0.64044 0.17492 0.0
C2147 C 0.93115 0.65891 0.21727 0.0
H2148 H 0.83204 0.17596 0.03746 0.0
H2149 H 0.80522 0.16121 -0.00075 0.0
H2150 H 0.83201 0.14437 0.11315 0.0
H2151 H 0.80529 0.12888 0.07175 0.0
H2152 H 0.80532 0.08684 0.24351 0.0
H2153 H 0.80542 0.11944 0.17175 0.0
H2154 H 0.83189 0.10255 0.12628 0.0
H2155 H 0.83191 0.07068 0.20128 0.0
C2156 C 0.82614 0.16598 0.04529 0.0
C2157 C 0.81863 0.17118 0.01261 0.0
C2158 C 0.82614 0.14766 0.08819 0.0
C2159 C 0.81866 0.13384 0.09859 0.0
C2160 C 0.81113 0.13932 0.0661 0.0
C2161 C 0.81109 0.15789 0.02419 0.0
C2162 C 0.81115 0.08992 0.21785 0.0
C2163 C 0.81861 0.07612 0.22798 0.0
C2164 C 0.8112 0.10865 0.17637 0.0
C2165 C 0.81866 0.11378 0.14286 0.0
C2166 C 0.82607 0.09953 0.15201 0.0
C2167 C 0.82607 0.08105 0.19451 0.0
H2168 H 0.95253 0.0889 0.49234 0.0
H2169 H 0.92608 0.07232 0.53747 0.0
H2170 H 0.95253 0.12151 0.56432 0.0
H2171 H 0.9262 0.10418 0.6125 0.0
H2172 H 0.92608 0.17696 0.70357 0.0
H2173 H 0.92605 0.14595 0.62639 0.0
H2174 H 0.95287 0.13058 0.66479 0.0
H2175 H 0.953 0.16235 0.73898 0.0
C2176 C 0.94675 0.09193 0.51857 0.0
C2177 C 0.93931 0.07797 0.50932 0.0
C2178 C 0.94676 0.11065 0.56016 0.0
C2179 C 0.93937 0.11562 0.59458 0.0
C2180 C 0.93196 0.10129 0.58607 0.0
C2181 C 0.93191 0.08282 0.54352 0.0
C2182 C 0.93199 0.16714 0.6948 0.0
C2183 C 0.93954 0.17218 0.72723 0.0
C2184 C 0.93196 0.14915 0.65101 0.0
C2185 C 0.93944 0.13551 0.63939 0.0
C2186 C 0.94702 0.14089 0.67145 0.0
C2187 C 0.94709 0.15913 0.71433 0.0
H2188 H 0.80647 0.56806 0.7009 0.0
H2189 H 0.83301 0.58428 0.74511 0.0
H2190 H 0.80672 0.59915 0.62417 0.0
H2191 H 0.83316 0.61591 0.67026 0.0
H2192 H 0.83289 0.65739 0.49491 0.0
H2193 H 0.83302 0.62468 0.56704 0.0
H2194 H 0.80678 0.64187 0.61714 0.0
H2195 H 0.80654 0.67398 0.54326 0.0
C2196 C 0.81237 0.57819 0.6941 0.0
C2197 C 0.81971 0.57372 0.72927 0.0
C2198 C 0.81249 0.59619 0.65051 0.0
C2199 C 0.81992 0.6103 0.64147 0.0
C2200 C 0.82734 0.60529 0.67547 0.0
C2201 C 0.82725 0.58714 0.7186 0.0
C2202 C 0.82717 0.65433 0.52164 0.0
C2203 C 0.8197 0.6683 0.51322 0.0
C2204 C 0.82725 0.63555 0.56314 0.0
C2205 C 0.81989 0.63046 0.59771 0.0
C2206 C 0.8125 0.64489 0.59035 0.0
C2207 C 0.81239 0.6635 0.54841 0.0
H2208 H 0.55654 0.42577 0.45129 0.0
H2209 H 0.58304 0.40942 0.49635 0.0
H2210 H 0.55671 0.39396 0.37628 0.0
H2211 H 0.58309 0.37707 0.42339 0.0
H2212 H 0.58291 0.33527 0.24864 0.0
H2213 H 0.58303 0.36787 0.3209 0.0
H2214 H 0.55667 0.35126 0.36928 0.0
H2215 H 0.55644 0.31919 0.29494 0.0
C2216 C 0.56241 0.41544 0.44505 0.0
C2217 C 0.56978 0.42015 0.47983 0.0
C2218 C 0.56248 0.39702 0.40249 0.0
C2219 C 0.56988 0.3827 0.39415 0.0
C2220 C 0.57731 0.38785 0.42799 0.0
C2221 C 0.57727 0.40643 0.47002 0.0
C2222 C 0.57716 0.33838 0.27508 0.0
C2223 C 0.56965 0.32463 0.26592 0.0
C2224 C 0.57724 0.35711 0.3167 0.0
C2225 C 0.56985 0.36237 0.35077 0.0
C2226 C 0.56242 0.3481 0.3429 0.0
C2227 C 0.56231 0.32952 0.30073 0.0
H2228 H 0.7031 0.90926 0.24919 0.0
H2229 H 0.67657 0.92469 0.29523 0.0
H2230 H 0.70326 0.87634 0.32057 0.0
H2231 H 0.67684 0.89246 0.36889 0.0
H2232 H 0.67667 0.81849 0.45142 0.0
H2233 H 0.67687 0.85008 0.376 0.0
H2234 H 0.70334 0.86651 0.42216 0.0
H2235 H 0.70325 0.83425 0.49526 0.0
C2236 C 0.69734 0.90592 0.27541 0.0
C2237 C 0.68981 0.91957 0.26643 0.0
C2238 C 0.69744 0.88703 0.31652 0.0
C2239 C 0.69004 0.88154 0.35033 0.0
C2240 C 0.6826 0.89574 0.34265 0.0
C2241 C 0.68246 0.91443 0.30089 0.0
C2242 C 0.68256 0.82864 0.44481 0.0
C2243 C 0.68994 0.82386 0.47936 0.0
C2244 C 0.68266 0.84696 0.40203 0.0
C2245 C 0.69009 0.86113 0.3934 0.0
C2246 C 0.69753 0.85585 0.42694 0.0
C2247 C 0.69747 0.83733 0.46907 0.0
H2248 H 0.58267 0.90961 0.99662 0.0
H2249 H 0.55589 0.92353 0.95454 0.0
H2250 H 0.58296 0.87746 0.92293 0.0
H2251 H 0.55626 0.89186 0.87928 0.0
H2252 H 0.55667 0.8171 0.79896 0.0
H2253 H 0.55684 0.84886 0.87391 0.0
H2254 H 0.58261 0.86884 0.81884 0.0
H2255 H 0.58253 0.83663 0.74517 0.0
C2256 C 0.57688 0.9061 0.97095 0.0
C2257 C 0.56924 0.91909 0.98174 0.0
C2258 C 0.57705 0.88765 0.92853 0.0
C2259 C 0.56961 0.88188 0.89551 0.0
C2260 C 0.56206 0.89544 0.90488 0.0
C2261 C 0.56186 0.91378 0.94764 0.0
C2262 C 0.5624 0.82814 0.80315 0.0
C2263 C 0.56957 0.82437 0.76587 0.0
C2264 C 0.56247 0.84651 0.84581 0.0
C2265 C 0.5697 0.86165 0.85192 0.0
C2266 C 0.57696 0.85742 0.81575 0.0
C2267 C 0.57691 0.83893 0.77342 0.0
H2268 H 0.67581 0.40967 0.74478 0.0
H2269 H 0.70225 0.42624 0.79076 0.0
H2270 H 0.6757 0.37757 0.81845 0.0
H2271 H 0.70204 0.39466 0.86623 0.0
H2272 H 0.70223 0.32021 0.94899 0.0
H2273 H 0.70203 0.35187 0.87371 0.0
H2274 H 0.67571 0.36913 0.92183 0.0
H2275 H 0.67581 0.33695 0.99527 0.0
C2276 C 0.68156 0.40676 0.77136 0.0
C2277 C 0.68905 0.42049 0.7617 0.0
C2278 C 0.68149 0.38833 0.81379 0.0
C2279 C 0.68888 0.38335 0.84807 0.0
C2280 C 0.69629 0.39762 0.83971 0.0
C2281 C 0.69639 0.41591 0.79684 0.0
C2282 C 0.69637 0.3306 0.94303 0.0
C2283 C 0.68904 0.32603 0.97817 0.0
C2284 C 0.69628 0.34893 0.90028 0.0
C2285 C 0.68888 0.36326 0.89204 0.0
C2286 C 0.68149 0.35831 0.92638 0.0
C2287 C 0.68155 0.33985 0.96868 0.0
H2288 H 0.42585 0.58369 0.50301 0.0
H2289 H 0.45262 0.56914 0.54361 0.0
H2290 H 0.42576 0.61607 0.5754 0.0
H2291 H 0.45243 0.60097 0.61883 0.0
H2292 H 0.45205 0.67557 0.70298 0.0
H2293 H 0.45214 0.6433 0.62898 0.0
H2294 H 0.42584 0.62538 0.67641 0.0
H2295 H 0.42564 0.65824 0.74769 0.0
C2296 C 0.43168 0.58706 0.52838 0.0
C2297 C 0.43925 0.5738 0.51747 0.0
C2298 C 0.43162 0.60567 0.5702 0.0
C2299 C 0.43909 0.6113 0.60309 0.0
C2300 C 0.4466 0.59752 0.59349 0.0
C2301 C 0.44669 0.57907 0.55086 0.0
C2302 C 0.44626 0.66489 0.69692 0.0
C2303 C 0.43883 0.66957 0.73094 0.0
C2304 C 0.44634 0.6462 0.655 0.0
C2305 C 0.43901 0.63154 0.64679 0.0
C2306 C 0.43156 0.63647 0.68055 0.0
C2307 C 0.43144 0.65535 0.72166 0.0
H2308 H 0.30721 0.17783 0.54945 0.0
H2309 H 0.33308 0.15864 0.49503 0.0
H2310 H 0.30744 0.14592 0.62393 0.0
H2311 H 0.33322 0.12626 0.56819 0.0
H2312 H 0.33336 0.08518 0.74569 0.0
H2313 H 0.33362 0.11735 0.67206 0.0
H2314 H 0.30691 0.10296 0.62887 0.0
H2315 H 0.30657 0.07129 0.70402 0.0
C2316 C 0.31295 0.16683 0.55341 0.0
C2317 C 0.32011 0.17075 0.51609 0.0
C2318 C 0.31306 0.14838 0.59579 0.0
C2319 C 0.32031 0.13327 0.60158 0.0
C2320 C 0.32756 0.13764 0.56536 0.0
C2321 C 0.32747 0.15623 0.5233 0.0
C2322 C 0.32756 0.08869 0.72008 0.0
C2323 C 0.31993 0.07572 0.73102 0.0
C2324 C 0.32772 0.10716 0.67772 0.0
C2325 C 0.32026 0.11296 0.64491 0.0
C2326 C 0.31271 0.09937 0.65433 0.0
C2327 C 0.31254 0.08104 0.69702 0.0
H2328 H 0.42686 0.17425 0.20671 0.0
H2329 H 0.45341 0.1581 0.24996 0.0
H2330 H 0.42688 0.1422 0.13232 0.0
H2331 H 0.45332 0.12527 0.17844 0.0
H2332 H 0.45329 0.08321 0.0051 0.0
H2333 H 0.4534 0.11538 0.07822 0.0
H2334 H 0.4267 0.10032 0.12087 0.0
H2335 H 0.42649 0.06889 0.0448 0.0
C2336 C 0.4327 0.16383 0.2003 0.0
C2337 C 0.44014 0.16879 0.23398 0.0
C2338 C 0.43269 0.14524 0.15814 0.0
C2339 C 0.44009 0.13089 0.14944 0.0
C2340 C 0.44755 0.1361 0.18292 0.0
C2341 C 0.4476 0.15495 0.22419 0.0
C2342 C 0.44746 0.08658 0.03048 0.0
C2343 C 0.43987 0.0735 0.01904 0.0
C2344 C 0.44753 0.10506 0.07273 0.0
C2345 C 0.44005 0.11067 0.10556 0.0
C2346 C 0.43253 0.09696 0.09555 0.0
C2347 C 0.43243 0.07872 0.05241 0.0
H2348 H 0.3321 0.57162 0.20368 0.0
H2349 H 0.30556 0.58789 0.24714 0.0
H2350 H 0.33201 0.60347 0.12854 0.0
H2351 H 0.30559 0.6204 0.17515 0.0
H2352 H 0.30514 0.66153 0.00174 0.0
H2353 H 0.30533 0.62943 0.07484 0.0
H2354 H 0.33207 0.64529 0.1146 0.0
H2355 H 0.33199 0.67666 0.03834 0.0
C2356 C 0.32625 0.58201 0.19716 0.0
C2357 C 0.31882 0.57707 0.23087 0.0
C2358 C 0.32622 0.60047 0.15457 0.0
C2359 C 0.31879 0.61468 0.14559 0.0
C2360 C 0.31137 0.60961 0.17957 0.0
C2361 C 0.31136 0.59092 0.22114 0.0
C2362 C 0.31105 0.65835 0.02645 0.0
C2363 C 0.31855 0.67168 0.01426 0.0
C2364 C 0.31115 0.63991 0.06871 0.0
C2365 C 0.31872 0.6346 0.10094 0.0
C2366 C 0.32617 0.64845 0.08989 0.0
C2367 C 0.3261 0.66665 0.04665 0.0
H2368 H 0.15247 0.46125 0.05389 0.0
H2369 H 0.14892 0.47616 0.24171 0.0
H2370 H 0.1369 0.46239 0.03914 0.0
H2371 H 0.13336 0.47819 0.22666 0.0
H2372 H 0.10572 0.4533 0.19237 0.0
H2373 H 0.12128 0.45325 0.2071 0.0
H2374 H 0.12466 0.48803 0.03598 0.0
H2375 H 0.10909 0.48726 0.0204 0.0
C2376 C 0.14837 0.46501 0.09198 0.0
C2377 C 0.15195 0.46851 0.14905 0.0
C2378 C 0.13943 0.46582 0.08344 0.0
C2379 C 0.13383 0.47037 0.13167 0.0
C2380 C 0.13744 0.47422 0.18862 0.0
C2381 C 0.14638 0.47321 0.19723 0.0
C2382 C 0.10978 0.46097 0.15789 0.0
C2383 C 0.10615 0.47021 0.1051 0.0
C2384 C 0.11872 0.46109 0.16652 0.0
C2385 C 0.12428 0.47066 0.1228 0.0
C2386 C 0.12062 0.48015 0.07024 0.0
C2387 C 0.11167 0.47985 0.06141 0.0
H2388 H 0.10883 0.76339 0.2335 0.0
H2389 H 0.10553 0.78631 0.05054 0.0
H2390 H 0.12441 0.76194 0.21897 0.0
H2391 H 0.12111 0.78576 0.03655 0.0
H2392 H 0.14885 0.76148 0.01224 0.0
H2393 H 0.13327 0.76028 0.02699 0.0
H2394 H 0.13659 0.78716 0.20683 0.0
H2395 H 0.15217 0.78746 0.19271 0.0
C2396 C 0.11143 0.76825 0.19025 0.0
C2397 C 0.10593 0.77497 0.14322 0.0
C2398 C 0.12038 0.76756 0.18197 0.0
C2399 C 0.12406 0.77379 0.12658 0.0
C2400 C 0.11853 0.78045 0.07953 0.0
C2401 C 0.10958 0.78092 0.08767 0.0
C2402 C 0.14625 0.76706 0.05498 0.0
C2403 C 0.15176 0.77458 0.10125 0.0
C2404 C 0.1373 0.76652 0.06337 0.0
C2405 C 0.13362 0.77369 0.1181 0.0
C2406 C 0.13916 0.78112 0.16441 0.0
C2407 C 0.14811 0.78145 0.15619 0.0
H2408 H 0.90231 0.53731 0.80339 0.0
H2409 H 0.89911 0.51488 0.98679 0.0
H2410 H 0.88674 0.53647 0.78956 0.0
H2411 H 0.88353 0.51313 0.97243 0.0
H2412 H 0.85574 0.53851 0.94593 0.0
H2413 H 0.87131 0.53824 0.95999 0.0
H2414 H 0.87461 0.51083 0.78063 0.0
H2415 H 0.85903 0.51201 0.76591 0.0
C2416 C 0.89829 0.53196 0.84065 0.0
C2417 C 0.90196 0.52625 0.89628 0.0
C2418 C 0.88934 0.53132 0.8326 0.0
C2419 C 0.88383 0.52472 0.87983 0.0
C2420 C 0.88753 0.5187 0.93529 0.0
C2421 C 0.89649 0.51956 0.94348 0.0
C2422 C 0.85979 0.53238 0.90951 0.0
C2423 C 0.85614 0.52538 0.8547 0.0
C2424 C 0.86874 0.53207 0.9177 0.0
C2425 C 0.87427 0.52452 0.87148 0.0
C2426 C 0.87059 0.51716 0.81692 0.0
C2427 C 0.86164 0.5177 0.80855 0.0
H2428 H 0.89888 0.23578 0.76005 0.0
H2429 H 0.90236 0.20823 0.93891 0.0
H2430 H 0.8833 0.23708 0.77591 0.0
H2431 H 0.88681 0.20883 0.95414 0.0
H2432 H 0.85561 0.21005 0.80119 0.0
H2433 H 0.87116 0.2108 0.78588 0.0
H2434 H 0.87475 0.23511 0.96764 0.0
H2435 H 0.85918 0.23366 0.98347 0.0
C2436 C 0.89632 0.22991 0.80266 0.0
C2437 C 0.90187 0.22187 0.84814 0.0
C2438 C 0.88738 0.23053 0.81168 0.0
C2439 C 0.88377 0.22302 0.86631 0.0
C2440 C 0.88935 0.2151 0.91184 0.0
C2441 C 0.89828 0.2146 0.90293 0.0
C2442 C 0.85971 0.21559 0.83791 0.0
C2443 C 0.85614 0.2217 0.89367 0.0
C2444 C 0.86864 0.21618 0.82899 0.0
C2445 C 0.87424 0.22301 0.87549 0.0
C2446 C 0.87065 0.2294 0.93107 0.0
C2447 C 0.86171 0.22869 0.94009 0.0
H2448 H 0.15224 0.95678 0.55094 0.0
H2449 H 0.14889 0.98105 0.73282 0.0
H2450 H 0.13667 0.95751 0.53643 0.0
H2451 H 0.13332 0.98268 0.71774 0.0
H2452 H 0.10555 0.95707 0.69175 0.0
H2453 H 0.12111 0.95749 0.70635 0.0
H2454 H 0.12455 0.98303 0.52551 0.0
H2455 H 0.10898 0.98171 0.5103 0.0
C2456 C 0.14818 0.9625 0.5877 0.0
C2457 C 0.15181 0.96876 0.64313 0.0
C2458 C 0.13924 0.96309 0.57926 0.0
C2459 C 0.13369 0.97016 0.62587 0.0
C2460 C 0.13735 0.97673 0.6811 0.0
C2461 C 0.1463 0.97594 0.68969 0.0
C2462 C 0.10962 0.96282 0.65512 0.0
C2463 C 0.10601 0.96926 0.59976 0.0
C2464 C 0.11857 0.96322 0.66361 0.0
C2465 C 0.12413 0.97029 0.61715 0.0
C2466 C 0.12049 0.97708 0.56203 0.0
C2467 C 0.11155 0.97647 0.55337 0.0
H2468 H 0.10553 0.28474 0.54933 0.0
H2469 H 0.10906 0.25967 0.73037 0.0
H2470 H 0.1211 0.28435 0.53437 0.0
H2471 H 0.12463 0.25854 0.71485 0.0
H2472 H 0.15224 0.28567 0.68877 0.0
H2473 H 0.13668 0.28485 0.7034 0.0
H2474 H 0.13332 0.25857 0.52311 0.0
H2475 H 0.14889 0.26013 0.5079 0.0
C2476 C 0.10963 0.27893 0.58582 0.0
C2477 C 0.10604 0.27233 0.64115 0.0
C2478 C 0.11857 0.27856 0.5771 0.0
C2479 C 0.12416 0.27143 0.62337 0.0
C2480 C 0.12055 0.26452 0.67849 0.0
C2481 C 0.11161 0.26502 0.68731 0.0
C2482 C 0.14819 0.27968 0.65222 0.0
C2483 C 0.15182 0.27304 0.59707 0.0
C2484 C 0.13925 0.27906 0.66076 0.0
C2485 C 0.1337 0.27163 0.61449 0.0
C2486 C 0.13736 0.26475 0.55948 0.0
C2487 C 0.14631 0.26551 0.55083 0.0
H2488 H 0.85917 0.00932 0.26041 0.0
H2489 H 0.85542 0.03931 0.43661 0.0
H2490 H 0.87472 0.00848 0.27721 0.0
H2491 H 0.87095 0.03932 0.45265 0.0
H2492 H 0.89862 0.0164 0.48626 0.0
H2493 H 0.88308 0.01432 0.46973 0.0
H2494 H 0.88687 0.03427 0.28493 0.0
H2495 H 0.9024 0.03545 0.30104 0.0
C2496 C 0.86167 0.01584 0.30263 0.0
C2497 C 0.85605 0.02439 0.34712 0.0
C2498 C 0.8706 0.0155 0.31218 0.0
C2499 C 0.87414 0.02388 0.3663 0.0
C2500 C 0.86848 0.03234 0.41081 0.0
C2501 C 0.85956 0.03249 0.40145 0.0
C2502 C 0.89613 0.02026 0.44207 0.0
C2503 C 0.90176 0.02612 0.39503 0.0
C2504 C 0.88721 0.01921 0.43262 0.0
C2505 C 0.88367 0.0242 0.37599 0.0
C2506 C 0.88933 0.02993 0.3289 0.0
C2507 C 0.89826 0.03077 0.33824 0.0
H2508 H 0.8558 0.70788 0.30287 0.0
H2509 H 0.85916 0.73378 0.48335 0.0
H2510 H 0.87136 0.70863 0.2882 0.0
H2511 H 0.87472 0.73546 0.46805 0.0
H2512 H 0.90255 0.71031 0.44358 0.0
H2513 H 0.88699 0.7106 0.45821 0.0
H2514 H 0.88347 0.73392 0.27557 0.0
H2515 H 0.89905 0.73268 0.26041 0.0
C2516 C 0.85986 0.71398 0.33927 0.0
C2517 C 0.85623 0.72068 0.39437 0.0
C2518 C 0.8688 0.71457 0.33073 0.0
C2519 C 0.87435 0.72211 0.37689 0.0
C2520 C 0.87069 0.72914 0.43177 0.0
C2521 C 0.86174 0.72831 0.44048 0.0
C2522 C 0.89846 0.71555 0.40656 0.0
C2523 C 0.90205 0.72138 0.35075 0.0
C2524 C 0.88951 0.71588 0.41505 0.0
C2525 C 0.88392 0.72228 0.36811 0.0
C2526 C 0.88754 0.72847 0.31251 0.0
C2527 C 0.89649 0.72791 0.30387 0.0
H2528 H 0.64944 0.48745 0.72699 0.0
H2529 H 0.65256 0.4559 0.55188 0.0
H2530 H 0.63384 0.48821 0.7128 0.0
H2531 H 0.63698 0.45588 0.53845 0.0
H2532 H 0.60604 0.46123 0.69456 0.0
H2533 H 0.62163 0.46236 0.70824 0.0
H2534 H 0.62484 0.48113 0.52219 0.0
H2535 H 0.60926 0.47916 0.50814 0.0
C2536 C 0.6468 0.48057 0.68556 0.0
C2537 C 0.65226 0.47161 0.64061 0.0
C2538 C 0.63784 0.48087 0.67753 0.0
C2539 C 0.6341 0.47207 0.62448 0.0
C2540 C 0.6396 0.46318 0.57948 0.0
C2541 C 0.64855 0.46304 0.58735 0.0
C2542 C 0.61007 0.46564 0.65657 0.0
C2543 C 0.60639 0.47 0.60017 0.0
C2544 C 0.61902 0.46644 0.66451 0.0
C2545 C 0.62454 0.47181 0.61634 0.0
C2546 C 0.62083 0.47652 0.56011 0.0
C2547 C 0.61188 0.47554 0.55209 0.0
H2548 H 0.60907 0.75647 0.7242 0.0
H2549 H 0.60549 0.78946 0.55124 0.0
H2550 H 0.62463 0.75575 0.7079 0.0
H2551 H 0.62103 0.78953 0.53575 0.0
H2552 H 0.64874 0.7667 0.50125 0.0
H2553 H 0.63318 0.76456 0.51672 0.0
H2554 H 0.63678 0.78176 0.70342 0.0
H2555 H 0.65232 0.78306 0.6883 0.0
C2556 C 0.6116 0.76367 0.6828 0.0
C2557 C 0.60603 0.77304 0.63909 0.0
C2558 C 0.62054 0.7634 0.67356 0.0
C2559 C 0.62413 0.77265 0.62053 0.0
C2560 C 0.61852 0.7819 0.57672 0.0
C2561 C 0.60959 0.782 0.58578 0.0
C2562 C 0.64621 0.76994 0.54563 0.0
C2563 C 0.65178 0.77507 0.59348 0.0
C2564 C 0.63727 0.76886 0.55448 0.0
C2565 C 0.63368 0.77305 0.61133 0.0
C2566 C 0.63929 0.77805 0.65922 0.0
C2567 C 0.64822 0.77895 0.65045 0.0
H2568 H 0.40277 0.53269 0.30334 0.0
H2569 H 0.39885 0.51653 0.49013 0.0
H2570 H 0.38723 0.53207 0.28723 0.0
H2571 H 0.3833 0.51507 0.47367 0.0
H2572 H 0.35583 0.54117 0.43804 0.0
H2573 H 0.37136 0.54067 0.45405 0.0
H2574 H 0.37491 0.5067 0.282 0.0
H2575 H 0.35936 0.50799 0.26519 0.0
C2576 C 0.39859 0.52877 0.34091 0.0
C2577 C 0.40206 0.52476 0.3981 0.0
C2578 C 0.38967 0.52826 0.33158 0.0
C2579 C 0.38397 0.52354 0.37911 0.0
C2580 C 0.38746 0.51918 0.43617 0.0
C2581 C 0.39639 0.51987 0.44558 0.0
C2582 C 0.35992 0.53357 0.40361 0.0
C2583 C 0.35634 0.52469 0.35022 0.0
C2584 C 0.36884 0.53313 0.41297 0.0
C2585 C 0.37443 0.52361 0.3694 0.0
C2586 C 0.37084 0.51452 0.3162 0.0
C2587 C 0.36191 0.51513 0.30665 0.0
H2588 H 0.39927 0.22677 0.25245 0.0
H2589 H 0.40274 0.21172 0.44024 0.0
H2590 H 0.3837 0.2291 0.26739 0.0
H2591 H 0.38718 0.2132 0.45487 0.0
H2592 H 0.35952 0.23912 0.47388 0.0
H2593 H 0.37509 0.23946 0.45793 0.0
H2594 H 0.37151 0.20441 0.28724 0.0
H2595 H 0.35596 0.20486 0.30234 0.0
C2596 C 0.39671 0.22385 0.29688 0.0
C2597 C 0.40225 0.21905 0.34511 0.0
C2598 C 0.38777 0.22504 0.30543 0.0
C2599 C 0.38414 0.22129 0.36236 0.0
C2600 C 0.38972 0.21658 0.41059 0.0
C2601 C 0.39866 0.21556 0.40211 0.0
C2602 C 0.36206 0.23156 0.43288 0.0
C2603 C 0.35649 0.22194 0.38945 0.0
C2604 C 0.371 0.23161 0.42384 0.0
C2605 C 0.3746 0.2219 0.37132 0.0
C2606 C 0.369 0.2124 0.3278 0.0
C2607 C 0.36006 0.21251 0.33664 0.0
H2608 H 0.65232 0.98943 0.0905 0.0
H2609 H 0.64814 0.92278 0.18586 0.0
H2610 H 0.63673 0.99454 0.07998 0.0
H2611 H 0.63259 0.92784 0.1749 0.0
H2612 H 0.60523 0.95675 0.1967 0.0
H2613 H 0.62082 0.95416 0.21003 0.0
H2614 H 0.62458 0.97515 0.02612 0.0
H2615 H 0.60896 0.97796 0.01277 0.0
C2616 C 0.64809 0.97589 0.1093 0.0
C2617 C 0.65149 0.95567 0.13896 0.0
C2618 C 0.63916 0.97877 0.10298 0.0
C2619 C 0.63343 0.9616 0.12657 0.0
C2620 C 0.63683 0.94153 0.1568 0.0
C2621 C 0.64575 0.93857 0.16279 0.0
C2622 C 0.60937 0.96094 0.15912 0.0
C2623 C 0.60584 0.96747 0.10355 0.0
C2624 C 0.61831 0.95932 0.16672 0.0
C2625 C 0.62393 0.96433 0.11907 0.0
C2626 C 0.62041 0.97137 0.06385 0.0
C2627 C 0.61146 0.97285 0.05613 0.0
H2628 H 0.6097 0.3231 0.17007 0.0
H2629 H 0.60569 0.25507 0.0804 0.0
H2630 H 0.62526 0.31797 0.16072 0.0
H2631 H 0.62131 0.24989 0.07144 0.0
H2632 H 0.64928 0.26568 0.00592 0.0
H2633 H 0.63362 0.26856 0.01721 0.0
H2634 H 0.63692 0.29211 0.19968 0.0
H2635 H 0.65254 0.28944 0.18841 0.0
C2636 C 0.61213 0.307 0.14853 0.0
C2637 C 0.60644 0.28952 0.1259 0.0
C2638 C 0.62106 0.304 0.14349 0.0
C2639 C 0.62452 0.2835 0.11542 0.0
C2640 C 0.61884 0.26598 0.09283 0.0
C2641 C 0.60989 0.2689 0.09824 0.0
C2642 C 0.64666 0.27137 0.04854 0.0
C2643 C 0.65217 0.27745 0.09614 0.0
C2644 C 0.63769 0.27289 0.05508 0.0
C2645 C 0.63403 0.28068 0.10925 0.0
C2646 C 0.63954 0.28637 0.15712 0.0
C2647 C 0.6485 0.28471 0.15071 0.0
H2648 H 0.35923 0.01258 0.76688 0.0
H2649 H 0.35563 0.03735 0.94812 0.0
H2650 H 0.37477 0.01104 0.78295 0.0
H2651 H 0.37118 0.03673 0.9636 0.0
H2652 H 0.39895 0.01307 0.99124 0.0
H2653 H 0.38338 0.01158 0.97566 0.0
H2654 H 0.3869 0.03642 0.79428 0.0
H2655 H 0.40245 0.03699 0.80926 0.0
C2656 C 0.36176 0.01781 0.81009 0.0
C2657 C 0.35618 0.02512 0.85615 0.0
C2658 C 0.37069 0.01707 0.81925 0.0
C2659 C 0.37428 0.02386 0.87455 0.0
C2660 C 0.36867 0.03101 0.92072 0.0
C2661 C 0.35974 0.03152 0.91172 0.0
C2662 C 0.39639 0.01813 0.94799 0.0
C2663 C 0.40195 0.02515 0.90153 0.0
C2664 C 0.38745 0.01742 0.93911 0.0
C2665 C 0.38383 0.02392 0.88369 0.0
C2666 C 0.38942 0.03087 0.83723 0.0
C2667 C 0.39836 0.03137 0.84595 0.0
H2668 H 0.40227 0.71237 0.94153 0.0
H2669 H 0.39858 0.72941 0.755 0.0
H2670 H 0.38673 0.71356 0.95707 0.0
H2671 H 0.38303 0.73148 0.77091 0.0
H2672 H 0.35895 0.73833 0.97882 0.0
H2673 H 0.37451 0.73924 0.96261 0.0
H2674 H 0.37095 0.7064 0.78921 0.0
H2675 H 0.35541 0.70633 0.80459 0.0
C2676 C 0.39814 0.71661 0.90391 0.0
C2677 C 0.40167 0.72069 0.84694 0.0
C2678 C 0.38921 0.71746 0.91291 0.0
C2679 C 0.38358 0.7226 0.86528 0.0
C2680 C 0.38714 0.72704 0.80847 0.0
C2681 C 0.39607 0.726 0.79937 0.0
C2682 C 0.36149 0.73138 0.93717 0.0
C2683 C 0.35593 0.72225 0.89305 0.0
C2684 C 0.37043 0.73176 0.92797 0.0
C2685 C 0.37403 0.72285 0.87459 0.0
C2686 C 0.36844 0.7138 0.83044 0.0
C2687 C 0.35951 0.7136 0.83945 0.0
loop_
_geom_bond_atom_site_label_1
_geom_bond_atom_site_label_2
_geom_bond_distance
_geom_bond_site_symmetry_2
_ccdc_geom_bond_type
Co0 O3 1.970 . S
Co0 N17 1.989 . S
Co0 O25 1.967 . S
Co0 O32 1.920 . S
Co1 O4 1.966 . S
Co1 N10 2.022 . S
Co1 N18 1.993 . S
Co1 O26 1.941 . S
C2 O3 1.258 . S
C2 O4 1.263 . S
O3 Co0 1.970 . S
O3 C2 1.258 . S
O4 Co1 1.966 . S
O4 C2 1.263 . S
C5 O6 1.235 . S
C5 O32 1.289 . S
O6 C5 1.235 . S
C7 C9 1.400 . S
C7 N10 1.351 . S
C7 C12 1.501 1_554 S
C8 C9 1.387 . S
C8 N11 1.341 . S
C9 C7 1.400 . S
C9 C8 1.387 . S
N10 Co1 2.022 . S
N10 C7 1.351 . S
N10 N11 1.365 . S
N11 C8 1.341 . S
N11 N10 1.365 . S
N11 H31 0.862 . S
C12 C7 1.501 1_556 S
C12 H13 0.961 . S
C12 H14 0.961 . S
C12 H15 0.960 . S
H13 C12 0.961 . S
H14 C12 0.961 . S
H15 C12 0.960 . S
C16 N17 1.342 . S
C16 C20 1.401 . S
C16 C21 1.499 . S
N17 Co0 1.989 . S
N17 C16 1.342 . S
N17 N18 1.388 . S
N18 Co1 1.993 . S
N18 N17 1.388 . S
N18 C19 1.346 . S
C19 N18 1.346 . S
C19 C20 1.396 . S
C19 C29 1.510 . S
C20 C16 1.401 . S
C20 C19 1.396 . S
C21 C16 1.499 . S
C21 H22 0.959 . S
C21 H23 0.960 . S
C21 H24 0.961 . S
H22 C21 0.959 . S
H23 C21 0.960 . S
H24 C21 0.961 . S
O25 Co0 1.967 . S
O25 C33 1.258 . S
O26 Co1 1.941 . S
O26 C33 1.266 . S
H27 C29 0.959 . S
H28 C29 0.961 . S
C29 C19 1.510 . S
C29 H27 0.959 . S
C29 H28 0.961 . S
C29 H30 0.960 . S
H30 C29 0.960 . S
H31 N11 0.862 . S
O32 Co0 1.920 . S
O32 C5 1.289 . S
C33 O25 1.258 . S
C33 O26 1.266 . S
Co34 O37 1.970 . S
Co34 N51 1.989 . S
Co34 O59 1.967 . S
Co34 O66 1.920 . S
Co35 O38 1.966 . S
Co35 N44 2.022 . S
Co35 N52 1.993 . S
Co35 O60 1.941 . S
C36 O37 1.258 . S
C36 O38 1.263 . S
O37 Co34 1.970 . S
O37 C36 1.258 . S
O38 Co35 1.966 . S
O38 C36 1.263 . S
C39 O40 1.235 . S
C39 O66 1.289 . S
O40 C39 1.235 . S
C41 C43 1.400 . S
C41 N44 1.351 . S
C41 C46 1.501 1_554 S
C42 C43 1.387 . S
C42 N45 1.341 . S
C43 C41 1.400 . S
C43 C42 1.387 . S
N44 Co35 2.022 . S
N44 C41 1.351 . S
N44 N45 1.365 . S
N45 C42 1.341 . S
N45 N44 1.365 . S
N45 H65 0.862 . S
C46 C41 1.501 1_556 S
C46 H47 0.961 . S
C46 H48 0.961 . S
C46 H49 0.960 . S
H47 C46 0.961 . S
H48 C46 0.961 . S
H49 C46 0.960 . S
C50 N51 1.342 . S
C50 C54 1.401 . S
C50 C55 1.499 . S
N51 Co34 1.989 . S
N51 C50 1.342 . S
N51 N52 1.388 . S
N52 Co35 1.993 . S
N52 N51 1.388 . S
N52 C53 1.346 . S
C53 N52 1.346 . S
C53 C54 1.396 . S
C53 C63 1.510 . S
C54 C50 1.401 . S
C54 C53 1.396 . S
C55 C50 1.499 . S
C55 H56 0.959 . S
C55 H57 0.960 . S
C55 H58 0.961 . S
H56 C55 0.959 . S
H57 C55 0.960 . S
H58 C55 0.961 . S
O59 Co34 1.967 . S
O59 C67 1.258 . S
O60 Co35 1.941 . S
O60 C67 1.266 . S
H61 C63 0.959 . S
H62 C63 0.961 . S
C63 C53 1.510 . S
C63 H61 0.959 . S
C63 H62 0.961 . S
C63 H64 0.960 . S
H64 C63 0.960 . S
H65 N45 0.862 . S
O66 Co34 1.920 . S
O66 C39 1.289 . S
C67 O59 1.258 . S
C67 O60 1.266 . S
Co68 O71 1.970 . S
Co68 N85 1.989 . S
Co68 O93 1.967 . S
Co68 O100 1.920 . S
Co69 O72 1.966 . S
Co69 N78 2.022 . S
Co69 N86 1.993 . S
Co69 O94 1.941 . S
C70 O71 1.258 . S
C70 O72 1.263 . S
O71 Co68 1.970 . S
O71 C70 1.258 . S
O72 Co69 1.966 . S
O72 C70 1.263 . S
C73 O74 1.235 . S
C73 O100 1.289 . S
O74 C73 1.235 . S
C75 C77 1.400 . S
C75 N78 1.351 . S
C75 C80 1.501 . S
C76 C77 1.387 . S
C76 N79 1.341 . S
C77 C75 1.400 . S
C77 C76 1.387 . S
N78 Co69 2.022 . S
N78 C75 1.351 . S
N78 N79 1.365 . S
N79 C76 1.341 . S
N79 N78 1.365 . S
N79 H99 0.862 . S
C80 C75 1.501 . S
C80 H81 0.961 . S
C80 H82 0.961 . S
C80 H83 0.960 . S
H81 C80 0.961 . S
H82 C80 0.961 . S
H83 C80 0.960 . S
C84 N85 1.342 . S
C84 C88 1.401 . S
C84 C89 1.499 . S
N85 Co68 1.989 . S
N85 C84 1.342 . S
N85 N86 1.388 . S
N86 Co69 1.993 . S
N86 N85 1.388 . S
N86 C87 1.346 . S
C87 N86 1.346 . S
C87 C88 1.396 . S
C87 C97 1.510 . S
C88 C84 1.401 . S
C88 C87 1.396 . S
C89 C84 1.499 . S
C89 H90 0.959 . S
C89 H91 0.960 . S
C89 H92 0.961 . S
H90 C89 0.959 . S
H91 C89 0.960 . S
H92 C89 0.961 . S
O93 Co68 1.967 . S
O93 C101 1.258 . S
O94 Co69 1.941 . S
O94 C101 1.266 . S
H95 C97 0.959 . S
H96 C97 0.961 . S
C97 C87 1.510 . S
C97 H95 0.959 . S
C97 H96 0.961 . S
C97 H98 0.960 . S
H98 C97 0.960 . S
H99 N79 0.862 . S
O100 Co68 1.920 . S
O100 C73 1.289 . S
C101 O93 1.258 . S
C101 O94 1.266 . S
Co102 O105 1.970 . S
Co102 N119 1.989 . S
Co102 O127 1.967 . S
Co102 O134 1.920 . S
Co103 O106 1.966 . S
Co103 N112 2.022 . S
Co103 N120 1.993 . S
Co103 O128 1.941 . S
C104 O105 1.258 . S
C104 O106 1.263 . S
O105 Co102 1.970 . S
O105 C104 1.258 . S
O106 Co103 1.966 . S
O106 C104 1.263 . S
C107 O108 1.235 . S
C107 O134 1.289 . S
O108 C107 1.235 . S
C109 C111 1.400 . S
C109 N112 1.351 . S
C109 C114 1.501 . S
C110 C111 1.387 . S
C110 N113 1.341 . S
C111 C109 1.400 . S
C111 C110 1.387 . S
N112 Co103 2.022 . S
N112 C109 1.351 . S
N112 N113 1.365 . S
N113 C110 1.341 . S
N113 N112 1.365 . S
N113 H133 0.862 . S
C114 C109 1.501 . S
C114 H115 0.961 . S
C114 H116 0.961 . S
C114 H117 0.960 . S
H115 C114 0.961 . S
H116 C114 0.961 . S
H117 C114 0.960 . S
C118 N119 1.342 . S
C118 C122 1.401 . S
C118 C123 1.499 . S
N119 Co102 1.989 . S
N119 C118 1.342 . S
N119 N120 1.388 . S
N120 Co103 1.993 . S
N120 N119 1.388 . S
N120 C121 1.346 . S
C121 N120 1.346 . S
C121 C122 1.396 . S
C121 C131 1.510 . S
C122 C118 1.401 . S
C122 C121 1.396 . S
C123 C118 1.499 . S
C123 H124 0.959 . S
C123 H125 0.960 . S
C123 H126 0.961 . S
H124 C123 0.959 . S
H125 C123 0.960 . S
H126 C123 0.961 . S
O127 Co102 1.967 . S
O127 C135 1.258 . S
O128 Co103 1.941 . S
O128 C135 1.266 . S
H129 C131 0.959 . S
H130 C131 0.961 . S
C131 C121 1.510 . S
C131 H129 0.959 . S
C131 H130 0.961 . S
C131 H132 0.960 . S
H132 C131 0.960 . S
H133 N113 0.862 . S
O134 Co102 1.920 . S
O134 C107 1.289 . S
C135 O127 1.258 . S
C135 O128 1.266 . S
Co136 O139 1.970 . S
Co136 N153 1.989 . S
Co136 O161 1.967 . S
Co136 O168 1.920 . S
Co137 O140 1.966 . S
Co137 N146 2.022 . S
Co137 N154 1.993 . S
Co137 O162 1.941 . S
C138 O139 1.258 . S
C138 O140 1.263 . S
O139 Co136 1.970 . S
O139 C138 1.258 . S
O140 Co137 1.966 . S
O140 C138 1.263 . S
C141 O142 1.235 . S
C141 O168 1.289 . S
O142 C141 1.235 . S
C143 C145 1.400 . S
C143 N146 1.351 . S
C143 C148 1.501 1_556 S
C144 C145 1.387 . S
C144 N147 1.341 . S
C145 C143 1.400 . S
C145 C144 1.387 . S
N146 Co137 2.022 . S
N146 C143 1.351 . S
N146 N147 1.365 . S
N147 C144 1.341 . S
N147 N146 1.365 . S
N147 H167 0.862 . S
C148 C143 1.501 1_554 S
C148 H149 0.961 . S
C148 H150 0.961 . S
C148 H151 0.960 . S
H149 C148 0.961 . S
H150 C148 0.961 . S
H151 C148 0.960 . S
C152 N153 1.342 . S
C152 C156 1.401 . S
C152 C157 1.499 . S
N153 Co136 1.989 . S
N153 C152 1.342 . S
N153 N154 1.388 . S
N154 Co137 1.993 . S
N154 N153 1.388 . S
N154 C155 1.346 . S
C155 N154 1.346 . S
C155 C156 1.396 . S
C155 C165 1.510 . S
C156 C152 1.401 . S
C156 C155 1.396 . S
C157 C152 1.499 . S
C157 H158 0.959 . S
C157 H159 0.960 . S
C157 H160 0.961 . S
H158 C157 0.959 . S
H159 C157 0.960 . S
H160 C157 0.961 . S
O161 Co136 1.967 . S
O161 C169 1.258 . S
O162 Co137 1.941 . S
O162 C169 1.266 . S
H163 C165 0.959 . S
H164 C165 0.961 . S
C165 C155 1.510 . S
C165 H163 0.959 . S
C165 H164 0.961 . S
C165 H166 0.960 . S
H166 C165 0.960 . S
H167 N147 0.862 . S
O168 Co136 1.920 . S
O168 C141 1.289 . S
C169 O161 1.258 . S
C169 O162 1.266 . S
Co170 O173 1.970 . S
Co170 N187 1.989 . S
Co170 O195 1.967 . S
Co170 O202 1.920 . S
Co171 O174 1.966 . S
Co171 N180 2.022 . S
Co171 N188 1.993 . S
Co171 O196 1.941 . S
C172 O173 1.258 . S
C172 O174 1.263 . S
O173 Co170 1.970 . S
O173 C172 1.258 . S
O174 Co171 1.966 . S
O174 C172 1.263 . S
C175 O176 1.235 . S
C175 O202 1.289 . S
O176 C175 1.235 . S
C177 C179 1.400 . S
C177 N180 1.351 . S
C177 C182 1.501 1_556 S
C178 C179 1.387 . S
C178 N181 1.341 . S
C179 C177 1.400 . S
C179 C178 1.387 . S
N180 Co171 2.022 . S
N180 C177 1.351 . S
N180 N181 1.365 . S
N181 C178 1.341 . S
N181 N180 1.365 . S
N181 H201 0.862 . S
C182 C177 1.501 1_554 S
C182 H183 0.961 . S
C182 H184 0.961 . S
C182 H185 0.960 . S
H183 C182 0.961 . S
H184 C182 0.961 . S
H185 C182 0.960 . S
C186 N187 1.342 . S
C186 C190 1.401 . S
C186 C191 1.499 . S
N187 Co170 1.989 . S
N187 C186 1.342 . S
N187 N188 1.388 . S
N188 Co171 1.993 . S
N188 N187 1.388 . S
N188 C189 1.346 . S
C189 N188 1.346 . S
C189 C190 1.396 . S
C189 C199 1.510 . S
C190 C186 1.401 . S
C190 C189 1.396 . S
C191 C186 1.499 . S
C191 H192 0.959 . S
C191 H193 0.960 . S
C191 H194 0.961 . S
H192 C191 0.959 . S
H193 C191 0.960 . S
H194 C191 0.961 . S
O195 Co170 1.967 . S
O195 C203 1.258 . S
O196 Co171 1.941 . S
O196 C203 1.266 . S
H197 C199 0.959 . S
H198 C199 0.961 . S
C199 C189 1.510 . S
C199 H197 0.959 . S
C199 H198 0.961 . S
C199 H200 0.960 . S
H200 C199 0.960 . S
H201 N181 0.862 . S
O202 Co170 1.920 . S
O202 C175 1.289 . S
C203 O195 1.258 . S
C203 O196 1.266 . S
Co204 O207 1.970 . S
Co204 N221 1.989 . S
Co204 O229 1.967 . S
Co204 O236 1.920 . S
Co205 O208 1.966 . S
Co205 N214 2.022 . S
Co205 N222 1.993 . S
Co205 O230 1.941 . S
C206 O207 1.258 . S
C206 O208 1.263 . S
O207 Co204 1.970 . S
O207 C206 1.258 . S
O208 Co205 1.966 . S
O208 C206 1.263 . S
C209 O210 1.235 . S
C209 O236 1.289 . S
O210 C209 1.235 . S
C211 C213 1.400 . S
C211 N214 1.351 . S
C211 C216 1.501 . S
C212 C213 1.387 . S
C212 N215 1.341 . S
C213 C211 1.400 . S
C213 C212 1.387 . S
N214 Co205 2.022 . S
N214 C211 1.351 . S
N214 N215 1.365 . S
N215 C212 1.341 . S
N215 N214 1.365 . S
N215 H235 0.862 . S
C216 C211 1.501 . S
C216 H217 0.961 . S
C216 H218 0.961 . S
C216 H219 0.960 . S
H217 C216 0.961 . S
H218 C216 0.961 . S
H219 C216 0.960 . S
C220 N221 1.342 . S
C220 C224 1.401 . S
C220 C225 1.499 . S
N221 Co204 1.989 . S
N221 C220 1.342 . S
N221 N222 1.388 . S
N222 Co205 1.993 . S
N222 N221 1.388 . S
N222 C223 1.346 . S
C223 N222 1.346 . S
C223 C224 1.396 . S
C223 C233 1.510 . S
C224 C220 1.401 . S
C224 C223 1.396 . S
C225 C220 1.499 . S
C225 H226 0.959 . S
C225 H227 0.960 . S
C225 H228 0.961 . S
H226 C225 0.959 . S
H227 C225 0.960 . S
H228 C225 0.961 . S
O229 Co204 1.967 . S
O229 C237 1.258 . S
O230 Co205 1.941 . S
O230 C237 1.266 . S
H231 C233 0.959 . S
H232 C233 0.961 . S
C233 C223 1.510 . S
C233 H231 0.959 . S
C233 H232 0.961 . S
C233 H234 0.960 . S
H234 C233 0.960 . S
H235 N215 0.862 . S
O236 Co204 1.920 . S
O236 C209 1.289 . S
C237 O229 1.258 . S
C237 O230 1.266 . S
Co238 O241 1.970 . S
Co238 N255 1.989 . S
Co238 O263 1.967 . S
Co238 O270 1.920 . S
Co239 O242 1.966 . S
Co239 N248 2.022 . S
Co239 N256 1.993 . S
Co239 O264 1.941 . S
C240 O241 1.258 . S
C240 O242 1.263 . S
O241 Co238 1.970 . S
O241 C240 1.258 . S
O242 Co239 1.966 . S
O242 C240 1.263 . S
C243 O244 1.235 . S
C243 O270 1.289 . S
O244 C243 1.235 . S
C245 C247 1.400 . S
C245 N248 1.351 . S
C245 C250 1.501 . S
C246 C247 1.387 . S
C246 N249 1.341 . S
C247 C245 1.400 . S
C247 C246 1.387 . S
N248 Co239 2.022 . S
N248 C245 1.351 . S
N248 N249 1.365 . S
N249 C246 1.341 . S
N249 N248 1.365 . S
N249 H269 0.862 . S
C250 C245 1.501 . S
C250 H251 0.961 . S
C250 H252 0.961 . S
C250 H253 0.960 . S
H251 C250 0.961 . S
H252 C250 0.961 . S
H253 C250 0.960 . S
C254 N255 1.342 . S
C254 C258 1.401 . S
C254 C259 1.499 . S
N255 Co238 1.989 . S
N255 C254 1.342 . S
N255 N256 1.388 . S
N256 Co239 1.993 . S
N256 N255 1.388 . S
N256 C257 1.346 . S
C257 N256 1.346 . S
C257 C258 1.396 . S
C257 C267 1.510 . S
C258 C254 1.401 . S
C258 C257 1.396 . S
C259 C254 1.499 . S
C259 H260 0.959 . S
C259 H261 0.960 . S
C259 H262 0.961 . S
H260 C259 0.959 . S
H261 C259 0.960 . S
H262 C259 0.961 . S
O263 Co238 1.967 . S
O263 C271 1.258 . S
O264 Co239 1.941 . S
O264 C271 1.266 . S
H265 C267 0.959 . S
H266 C267 0.961 . S
C267 C257 1.510 . S
C267 H265 0.959 . S
C267 H266 0.961 . S
C267 H268 0.960 . S
H268 C267 0.960 . S
H269 N249 0.862 . S
O270 Co238 1.920 . S
O270 C243 1.289 . S
C271 O263 1.258 . S
C271 O264 1.266 . S
Co272 O275 1.970 . S
Co272 N289 1.989 . S
Co272 O297 1.967 . S
Co272 O304 1.920 . S
Co273 O276 1.966 . S
Co273 N282 2.022 . S
Co273 N290 1.993 . S
Co273 O298 1.941 . S
C274 O275 1.258 . S
C274 O276 1.263 . S
O275 Co272 1.970 . S
O275 C274 1.258 . S
O276 Co273 1.966 . S
O276 C274 1.263 . S
C277 O278 1.235 . S
C277 O304 1.289 . S
O278 C277 1.235 . S
C279 C281 1.400 . S
C279 N282 1.351 . S
C279 C284 1.501 . S
C280 C281 1.387 . S
C280 N283 1.341 . S
C281 C279 1.400 . S
C281 C280 1.387 . S
N282 Co273 2.022 . S
N282 C279 1.351 . S
N282 N283 1.365 . S
N283 C280 1.341 . S
N283 N282 1.365 . S
N283 H303 0.862 . S
C284 C279 1.501 . S
C284 H285 0.961 . S
C284 H286 0.961 . S
C284 H287 0.960 . S
H285 C284 0.961 . S
H286 C284 0.961 . S
H287 C284 0.960 . S
C288 N289 1.342 1_545 S
C288 C292 1.401 . S
C288 C293 1.499 . S
N289 Co272 1.989 . S
N289 C288 1.342 1_565 S
N289 N290 1.388 . S
N290 Co273 1.993 . S
N290 N289 1.388 . S
N290 C291 1.346 1_565 S
C291 N290 1.346 1_545 S
C291 C292 1.396 . S
C291 C301 1.510 . S
C292 C288 1.401 . S
C292 C291 1.396 . S
C293 C288 1.499 . S
C293 H294 0.959 . S
C293 H295 0.960 . S
C293 H296 0.961 . S
H294 C293 0.959 . S
H295 C293 0.960 . S
H296 C293 0.961 . S
O297 Co272 1.967 . S
O297 C305 1.258 . S
O298 Co273 1.941 . S
O298 C305 1.266 . S
H299 C301 0.959 . S
H300 C301 0.961 . S
C301 C291 1.510 . S
C301 H299 0.959 . S
C301 H300 0.961 . S
C301 H302 0.960 . S
H302 C301 0.960 . S
H303 N283 0.862 . S
O304 Co272 1.920 . S
O304 C277 1.289 . S
C305 O297 1.258 . S
C305 O298 1.266 . S
Co306 O309 1.970 . S
Co306 N323 1.989 . S
Co306 O331 1.967 . S
Co306 O338 1.920 . S
Co307 O310 1.966 . S
Co307 N316 2.022 . S
Co307 N324 1.993 . S
Co307 O332 1.941 . S
C308 O309 1.258 . S
C308 O310 1.263 . S
O309 Co306 1.970 . S
O309 C308 1.258 . S
O310 Co307 1.966 . S
O310 C308 1.263 . S
C311 O312 1.235 . S
C311 O338 1.289 . S
O312 C311 1.235 . S
C313 C315 1.400 . S
C313 N316 1.351 . S
C313 C318 1.501 . S
C314 C315 1.387 . S
C314 N317 1.341 . S
C315 C313 1.400 . S
C315 C314 1.387 . S
N316 Co307 2.022 . S
N316 C313 1.351 . S
N316 N317 1.365 . S
N317 C314 1.341 . S
N317 N316 1.365 . S
N317 H337 0.862 . S
C318 C313 1.501 . S
C318 H319 0.961 . S
C318 H320 0.961 . S
C318 H321 0.960 . S
H319 C318 0.961 . S
H320 C318 0.961 . S
H321 C318 0.960 . S
C322 N323 1.342 . S
C322 C326 1.401 . S
C322 C327 1.499 . S
N323 Co306 1.989 . S
N323 C322 1.342 . S
N323 N324 1.388 . S
N324 Co307 1.993 . S
N324 N323 1.388 . S
N324 C325 1.346 . S
C325 N324 1.346 . S
C325 C326 1.396 . S
C325 C335 1.510 . S
C326 C322 1.401 . S
C326 C325 1.396 . S
C327 C322 1.499 . S
C327 H328 0.959 . S
C327 H329 0.960 . S
C327 H330 0.961 . S
H328 C327 0.959 . S
H329 C327 0.960 . S
H330 C327 0.961 . S
O331 Co306 1.967 . S
O331 C339 1.258 . S
O332 Co307 1.941 . S
O332 C339 1.266 . S
H333 C335 0.959 . S
H334 C335 0.961 . S
C335 C325 1.510 . S
C335 H333 0.959 . S
C335 H334 0.961 . S
C335 H336 0.960 . S
H336 C335 0.960 . S
H337 N317 0.862 . S
O338 Co306 1.920 . S
O338 C311 1.289 . S
C339 O331 1.258 . S
C339 O332 1.266 . S
Co340 O343 1.970 . S
Co340 N357 1.989 . S
Co340 O365 1.967 . S
Co340 O372 1.920 . S
Co341 O344 1.966 . S
Co341 N350 2.022 . S
Co341 N358 1.993 . S
Co341 O366 1.941 . S
C342 O343 1.258 . S
C342 O344 1.263 . S
O343 Co340 1.970 . S
O343 C342 1.258 . S
O344 Co341 1.966 . S
O344 C342 1.263 . S
C345 O346 1.235 . S
C345 O372 1.289 . S
O346 C345 1.235 . S
C347 C349 1.400 . S
C347 N350 1.351 . S
C347 C352 1.501 . S
C348 C349 1.387 . S
C348 N351 1.341 . S
C349 C347 1.400 . S
C349 C348 1.387 . S
N350 Co341 2.022 . S
N350 C347 1.351 . S
N350 N351 1.365 . S
N351 C348 1.341 . S
N351 N350 1.365 . S
N351 H371 0.862 . S
C352 C347 1.501 . S
C352 H353 0.961 . S
C352 H354 0.961 . S
C352 H355 0.960 . S
H353 C352 0.961 . S
H354 C352 0.961 . S
H355 C352 0.960 . S
C356 N357 1.342 . S
C356 C360 1.401 . S
C356 C361 1.499 . S
N357 Co340 1.989 . S
N357 C356 1.342 . S
N357 N358 1.388 . S
N358 Co341 1.993 . S
N358 N357 1.388 . S
N358 C359 1.346 . S
C359 N358 1.346 . S
C359 C360 1.396 . S
C359 C369 1.510 . S
C360 C356 1.401 . S
C360 C359 1.396 . S
C361 C356 1.499 . S
C361 H362 0.959 . S
C361 H363 0.960 . S
C361 H364 0.961 . S
H362 C361 0.959 . S
H363 C361 0.960 . S
H364 C361 0.961 . S
O365 Co340 1.967 . S
O365 C373 1.258 . S
O366 Co341 1.941 . S
O366 C373 1.266 . S
H367 C369 0.959 . S
H368 C369 0.961 . S
C369 C359 1.510 . S
C369 H367 0.959 . S
C369 H368 0.961 . S
C369 H370 0.960 . S
H370 C369 0.960 . S
H371 N351 0.862 . S
O372 Co340 1.920 . S
O372 C345 1.289 . S
C373 O365 1.258 . S
C373 O366 1.266 . S
Co374 O377 1.970 . S
Co374 N391 1.989 . S
Co374 O399 1.967 . S
Co374 O406 1.920 . S
Co375 O378 1.966 . S
Co375 N384 2.022 . S
Co375 N392 1.993 . S
Co375 O400 1.941 . S
C376 O377 1.258 . S
C376 O378 1.263 . S
O377 Co374 1.970 . S
O377 C376 1.258 . S
O378 Co375 1.966 . S
O378 C376 1.263 . S
C379 O380 1.235 . S
C379 O406 1.289 . S
O380 C379 1.235 . S
C381 C383 1.400 . S
C381 N384 1.351 . S
C381 C386 1.501 . S
C382 C383 1.387 . S
C382 N385 1.341 . S
C383 C381 1.400 . S
C383 C382 1.387 . S
N384 Co375 2.022 . S
N384 C381 1.351 . S
N384 N385 1.365 . S
N385 C382 1.341 . S
N385 N384 1.365 . S
N385 H405 0.862 . S
C386 C381 1.501 . S
C386 H387 0.961 . S
C386 H388 0.961 . S
C386 H389 0.960 . S
H387 C386 0.961 . S
H388 C386 0.961 . S
H389 C386 0.960 . S
C390 N391 1.342 1_545 S
C390 C394 1.401 . S
C390 C395 1.499 . S
N391 Co374 1.989 . S
N391 C390 1.342 1_565 S
N391 N392 1.388 . S
N392 Co375 1.993 . S
N392 N391 1.388 . S
N392 C393 1.346 1_565 S
C393 N392 1.346 1_545 S
C393 C394 1.396 . S
C393 C403 1.510 . S
C394 C390 1.401 . S
C394 C393 1.396 . S
C395 C390 1.499 . S
C395 H396 0.959 . S
C395 H397 0.960 . S
C395 H398 0.961 . S
H396 C395 0.959 . S
H397 C395 0.960 . S
H398 C395 0.961 . S
O399 Co374 1.967 . S
O399 C407 1.258 . S
O400 Co375 1.941 . S
O400 C407 1.266 . S
H401 C403 0.959 . S
H402 C403 0.961 . S
C403 C393 1.510 . S
C403 H401 0.959 . S
C403 H402 0.961 . S
C403 H404 0.960 . S
H404 C403 0.960 . S
H405 N385 0.862 . S
O406 Co374 1.920 . S
O406 C379 1.289 . S
C407 O399 1.258 . S
C407 O400 1.266 . S
Co408 O411 1.970 . S
Co408 N425 1.989 . S
Co408 O433 1.967 . S
Co408 O440 1.920 . S
Co409 O412 1.966 . S
Co409 N418 2.022 . S
Co409 N426 1.993 . S
Co409 O434 1.941 . S
C410 O411 1.258 . S
C410 O412 1.263 . S
O411 Co408 1.970 . S
O411 C410 1.258 . S
O412 Co409 1.966 . S
O412 C410 1.263 . S
C413 O414 1.235 . S
C413 O440 1.289 . S
O414 C413 1.235 . S
C415 C417 1.400 . S
C415 N418 1.351 . S
C415 C420 1.501 . S
C416 C417 1.387 . S
C416 N419 1.341 . S
C417 C415 1.400 . S
C417 C416 1.387 . S
N418 Co409 2.022 . S
N418 C415 1.351 . S
N418 N419 1.365 . S
N419 C416 1.341 . S
N419 N418 1.365 . S
N419 H439 0.862 . S
C420 C415 1.501 . S
C420 H421 0.961 . S
C420 H422 0.961 . S
C420 H423 0.960 . S
H421 C420 0.961 . S
H422 C420 0.961 . S
H423 C420 0.960 . S
C424 N425 1.342 1_565 S
C424 C428 1.401 . S
C424 C429 1.499 . S
N425 Co408 1.989 . S
N425 C424 1.342 1_545 S
N425 N426 1.388 . S
N426 Co409 1.993 . S
N426 N425 1.388 . S
N426 C427 1.346 1_545 S
C427 N426 1.346 1_565 S
C427 C428 1.396 . S
C427 C437 1.510 . S
C428 C424 1.401 . S
C428 C427 1.396 . S
C429 C424 1.499 . S
C429 H430 0.959 . S
C429 H431 0.960 . S
C429 H432 0.961 . S
H430 C429 0.959 . S
H431 C429 0.960 . S
H432 C429 0.961 . S
O433 Co408 1.967 . S
O433 C441 1.258 . S
O434 Co409 1.941 . S
O434 C441 1.266 . S
H435 C437 0.959 . S
H436 C437 0.961 . S
C437 C427 1.510 . S
C437 H435 0.959 . S
C437 H436 0.961 . S
C437 H438 0.960 . S
H438 C437 0.960 . S
H439 N419 0.862 . S
O440 Co408 1.920 . S
O440 C413 1.289 . S
C441 O433 1.258 . S
C441 O434 1.266 . S
Co442 O445 1.970 . S
Co442 N459 1.989 . S
Co442 O467 1.967 . S
Co442 O474 1.920 . S
Co443 O446 1.966 . S
Co443 N452 2.022 . S
Co443 N460 1.993 . S
Co443 O468 1.941 . S
C444 O445 1.258 . S
C444 O446 1.263 . S
O445 Co442 1.970 . S
O445 C444 1.258 . S
O446 Co443 1.966 . S
O446 C444 1.263 . S
C447 O448 1.235 . S
C447 O474 1.289 . S
O448 C447 1.235 . S
C449 C451 1.400 . S
C449 N452 1.351 . S
C449 C454 1.501 . S
C450 C451 1.387 . S
C450 N453 1.341 . S
C451 C449 1.400 . S
C451 C450 1.387 . S
N452 Co443 2.022 . S
N452 C449 1.351 . S
N452 N453 1.365 . S
N453 C450 1.341 . S
N453 N452 1.365 . S
N453 H473 0.862 . S
C454 C449 1.501 . S
C454 H455 0.961 . S
C454 H456 0.961 . S
C454 H457 0.960 . S
H455 C454 0.961 . S
H456 C454 0.961 . S
H457 C454 0.960 . S
C458 N459 1.342 . S
C458 C462 1.401 . S
C458 C463 1.499 . S
N459 Co442 1.989 . S
N459 C458 1.342 . S
N459 N460 1.388 . S
N460 Co443 1.993 . S
N460 N459 1.388 . S
N460 C461 1.346 . S
C461 N460 1.346 . S
C461 C462 1.396 . S
C461 C471 1.510 . S
C462 C458 1.401 . S
C462 C461 1.396 . S
C463 C458 1.499 . S
C463 H464 0.959 . S
C463 H465 0.960 . S
C463 H466 0.961 . S
H464 C463 0.959 . S
H465 C463 0.960 . S
H466 C463 0.961 . S
O467 Co442 1.967 . S
O467 C475 1.258 . S
O468 Co443 1.941 . S
O468 C475 1.266 . S
H469 C471 0.959 . S
H470 C471 0.961 . S
C471 C461 1.510 . S
C471 H469 0.959 . S
C471 H470 0.961 . S
C471 H472 0.960 . S
H472 C471 0.960 . S
H473 N453 0.862 . S
O474 Co442 1.920 . S
O474 C447 1.289 . S
C475 O467 1.258 . S
C475 O468 1.266 . S
Co476 O479 1.970 . S
Co476 N493 1.989 . S
Co476 O501 1.967 . S
Co476 O508 1.920 . S
Co477 O480 1.966 . S
Co477 N486 2.022 . S
Co477 N494 1.993 . S
Co477 O502 1.941 . S
C478 O479 1.258 . S
C478 O480 1.263 . S
O479 Co476 1.970 . S
O479 C478 1.258 . S
O480 Co477 1.966 . S
O480 C478 1.263 . S
C481 O482 1.235 . S
C481 O508 1.289 . S
O482 C481 1.235 . S
C483 C485 1.400 . S
C483 N486 1.351 . S
C483 C488 1.501 . S
C484 C485 1.387 . S
C484 N487 1.341 . S
C485 C483 1.400 . S
C485 C484 1.387 . S
N486 Co477 2.022 . S
N486 C483 1.351 . S
N486 N487 1.365 . S
N487 C484 1.341 . S
N487 N486 1.365 . S
N487 H507 0.862 . S
C488 C483 1.501 . S
C488 H489 0.961 . S
C488 H490 0.961 . S
C488 H491 0.960 . S
H489 C488 0.961 . S
H490 C488 0.961 . S
H491 C488 0.960 . S
C492 N493 1.342 . S
C492 C496 1.401 . S
C492 C497 1.499 . S
N493 Co476 1.989 . S
N493 C492 1.342 . S
N493 N494 1.388 . S
N494 Co477 1.993 . S
N494 N493 1.388 . S
N494 C495 1.346 . S
C495 N494 1.346 . S
C495 C496 1.396 . S
C495 C505 1.510 . S
C496 C492 1.401 . S
C496 C495 1.396 . S
C497 C492 1.499 . S
C497 H498 0.959 . S
C497 H499 0.960 . S
C497 H500 0.961 . S
H498 C497 0.959 . S
H499 C497 0.960 . S
H500 C497 0.961 . S
O501 Co476 1.967 . S
O501 C509 1.258 . S
O502 Co477 1.941 . S
O502 C509 1.266 . S
H503 C505 0.959 . S
H504 C505 0.961 . S
C505 C495 1.510 . S
C505 H503 0.959 . S
C505 H504 0.961 . S
C505 H506 0.960 . S
H506 C505 0.960 . S
H507 N487 0.862 . S
O508 Co476 1.920 . S
O508 C481 1.289 . S
C509 O501 1.258 . S
C509 O502 1.266 . S
Co510 O513 1.970 . S
Co510 N527 1.989 . S
Co510 O535 1.967 . S
Co510 O542 1.920 . S
Co511 O514 1.966 . S
Co511 N520 2.022 . S
Co511 N528 1.993 . S
Co511 O536 1.941 . S
C512 O513 1.258 . S
C512 O514 1.263 . S
O513 Co510 1.970 . S
O513 C512 1.258 . S
O514 Co511 1.966 . S
O514 C512 1.263 . S
C515 O516 1.235 . S
C515 O542 1.289 . S
O516 C515 1.235 . S
C517 C519 1.400 . S
C517 N520 1.351 . S
C517 C522 1.501 . S
C518 C519 1.387 . S
C518 N521 1.341 . S
C519 C517 1.400 . S
C519 C518 1.387 . S
N520 Co511 2.022 . S
N520 C517 1.351 . S
N520 N521 1.365 . S
N521 C518 1.341 . S
N521 N520 1.365 . S
N521 H541 0.862 . S
C522 C517 1.501 . S
C522 H523 0.961 . S
C522 H524 0.961 . S
C522 H525 0.960 . S
H523 C522 0.961 . S
H524 C522 0.961 . S
H525 C522 0.960 . S
C526 N527 1.342 1_565 S
C526 C530 1.401 . S
C526 C531 1.499 . S
N527 Co510 1.989 . S
N527 C526 1.342 1_545 S
N527 N528 1.388 . S
N528 Co511 1.993 . S
N528 N527 1.388 . S
N528 C529 1.346 1_545 S
C529 N528 1.346 1_565 S
C529 C530 1.396 . S
C529 C539 1.510 . S
C530 C526 1.401 . S
C530 C529 1.396 . S
C531 C526 1.499 . S
C531 H532 0.959 . S
C531 H533 0.960 . S
C531 H534 0.961 . S
H532 C531 0.959 . S
H533 C531 0.960 . S
H534 C531 0.961 . S
O535 Co510 1.967 . S
O535 C543 1.258 . S
O536 Co511 1.941 . S
O536 C543 1.266 . S
H537 C539 0.959 . S
H538 C539 0.961 . S
C539 C529 1.510 . S
C539 H537 0.959 . S
C539 H538 0.961 . S
C539 H540 0.960 . S
H540 C539 0.960 . S
H541 N521 0.862 . S
O542 Co510 1.920 . S
O542 C515 1.289 . S
C543 O535 1.258 . S
C543 O536 1.266 . S
Co544 O547 1.970 . S
Co544 N561 1.989 . S
Co544 O569 1.967 . S
Co544 O576 1.920 . S
Co545 O548 1.966 . S
Co545 N554 2.022 . S
Co545 N562 1.993 . S
Co545 O570 1.941 . S
C546 O547 1.258 . S
C546 O548 1.263 . S
O547 Co544 1.970 . S
O547 C546 1.258 . S
O548 Co545 1.966 . S
O548 C546 1.263 . S
C549 O550 1.235 . S
C549 O576 1.289 . S
O550 C549 1.235 . S
C551 C553 1.400 . S
C551 N554 1.351 . S
C551 C556 1.501 . S
C552 C553 1.387 . S
C552 N555 1.341 . S
C553 C551 1.400 . S
C553 C552 1.387 . S
N554 Co545 2.022 . S
N554 C551 1.351 . S
N554 N555 1.365 . S
N555 C552 1.341 . S
N555 N554 1.365 . S
N555 H575 0.862 . S
C556 C551 1.501 . S
C556 H557 0.961 . S
C556 H558 0.961 . S
C556 H559 0.960 . S
H557 C556 0.961 . S
H558 C556 0.961 . S
H559 C556 0.960 . S
C560 N561 1.342 . S
C560 C564 1.401 . S
C560 C565 1.499 . S
N561 Co544 1.989 . S
N561 C560 1.342 . S
N561 N562 1.388 . S
N562 Co545 1.993 . S
N562 N561 1.388 . S
N562 C563 1.346 . S
C563 N562 1.346 . S
C563 C564 1.396 . S
C563 C573 1.510 . S
C564 C560 1.401 . S
C564 C563 1.396 . S
C565 C560 1.499 . S
C565 H566 0.959 . S
C565 H567 0.960 . S
C565 H568 0.961 . S
H566 C565 0.959 . S
H567 C565 0.960 . S
H568 C565 0.961 . S
O569 Co544 1.967 . S
O569 C577 1.258 . S
O570 Co545 1.941 . S
O570 C577 1.266 . S
H571 C573 0.959 . S
H572 C573 0.961 . S
C573 C563 1.510 . S
C573 H571 0.959 . S
C573 H572 0.961 . S
C573 H574 0.960 . S
H574 C573 0.960 . S
H575 N555 0.862 . S
O576 Co544 1.920 . S
O576 C549 1.289 . S
C577 O569 1.258 . S
C577 O570 1.266 . S
Co578 O581 1.970 . S
Co578 N595 1.989 . S
Co578 O603 1.967 . S
Co578 O610 1.920 . S
Co579 O582 1.966 . S
Co579 N588 2.022 . S
Co579 N596 1.993 . S
Co579 O604 1.941 . S
C580 O581 1.258 . S
C580 O582 1.263 . S
O581 Co578 1.970 . S
O581 C580 1.258 . S
O582 Co579 1.966 . S
O582 C580 1.263 . S
C583 O584 1.235 . S
C583 O610 1.289 . S
O584 C583 1.235 . S
C585 C587 1.400 . S
C585 N588 1.351 . S
C585 C590 1.501 . S
C586 C587 1.387 . S
C586 N589 1.341 . S
C587 C585 1.400 . S
C587 C586 1.387 . S
N588 Co579 2.022 . S
N588 C585 1.351 . S
N588 N589 1.365 . S
N589 C586 1.341 . S
N589 N588 1.365 . S
N589 H609 0.862 . S
C590 C585 1.501 . S
C590 H591 0.961 . S
C590 H592 0.961 . S
C590 H593 0.960 . S
H591 C590 0.961 . S
H592 C590 0.961 . S
H593 C590 0.960 . S
C594 N595 1.342 . S
C594 C598 1.401 . S
C594 C599 1.499 . S
N595 Co578 1.989 . S
N595 C594 1.342 . S
N595 N596 1.388 . S
N596 Co579 1.993 . S
N596 N595 1.388 . S
N596 C597 1.346 . S
C597 N596 1.346 . S
C597 C598 1.396 . S
C597 C607 1.510 . S
C598 C594 1.401 . S
C598 C597 1.396 . S
C599 C594 1.499 . S
C599 H600 0.959 . S
C599 H601 0.960 . S
C599 H602 0.961 . S
H600 C599 0.959 . S
H601 C599 0.960 . S
H602 C599 0.961 . S
O603 Co578 1.967 . S
O603 C611 1.258 . S
O604 Co579 1.941 . S
O604 C611 1.266 . S
H605 C607 0.959 . S
H606 C607 0.961 . S
C607 C597 1.510 . S
C607 H605 0.959 . S
C607 H606 0.961 . S
C607 H608 0.960 . S
H608 C607 0.960 . S
H609 N589 0.862 . S
O610 Co578 1.920 . S
O610 C583 1.289 . S
C611 O603 1.258 . S
C611 O604 1.266 . S
Co612 O615 1.970 . S
Co612 N629 1.989 . S
Co612 O637 1.967 . S
Co612 O644 1.920 . S
Co613 O616 1.966 . S
Co613 N622 2.022 . S
Co613 N630 1.993 . S
Co613 O638 1.941 . S
C614 O615 1.258 . S
C614 O616 1.263 . S
O615 Co612 1.970 . S
O615 C614 1.258 . S
O616 Co613 1.966 . S
O616 C614 1.263 . S
C617 O618 1.235 . S
C617 O644 1.289 . S
O618 C617 1.235 . S
C619 C621 1.400 . S
C619 N622 1.351 . S
C619 C624 1.501 . S
C620 C621 1.387 . S
C620 N623 1.341 . S
C621 C619 1.400 . S
C621 C620 1.387 . S
N622 Co613 2.022 . S
N622 C619 1.351 . S
N622 N623 1.365 . S
N623 C620 1.341 . S
N623 N622 1.365 . S
N623 H643 0.862 . S
C624 C619 1.501 . S
C624 H625 0.961 . S
C624 H626 0.961 . S
C624 H627 0.960 . S
H625 C624 0.961 . S
H626 C624 0.961 . S
H627 C624 0.960 . S
C628 N629 1.342 . S
C628 C632 1.401 . S
C628 C633 1.499 . S
N629 Co612 1.989 . S
N629 C628 1.342 . S
N629 N630 1.388 . S
N630 Co613 1.993 . S
N630 N629 1.388 . S
N630 C631 1.346 . S
C631 N630 1.346 . S
C631 C632 1.396 . S
C631 C641 1.510 . S
C632 C628 1.401 . S
C632 C631 1.396 . S
C633 C628 1.499 . S
C633 H634 0.959 . S
C633 H635 0.960 . S
C633 H636 0.961 . S
H634 C633 0.959 . S
H635 C633 0.960 . S
H636 C633 0.961 . S
O637 Co612 1.967 . S
O637 C645 1.258 . S
O638 Co613 1.941 . S
O638 C645 1.266 . S
H639 C641 0.959 . S
H640 C641 0.961 . S
C641 C631 1.510 . S
C641 H639 0.959 . S
C641 H640 0.961 . S
C641 H642 0.960 . S
H642 C641 0.960 . S
H643 N623 0.862 . S
O644 Co612 1.920 . S
O644 C617 1.289 . S
C645 O637 1.258 . S
C645 O638 1.266 . S
Co646 O649 1.970 . S
Co646 N663 1.989 . S
Co646 O671 1.967 . S
Co646 O678 1.920 . S
Co647 O650 1.966 . S
Co647 N656 2.022 . S
Co647 N664 1.993 . S
Co647 O672 1.941 . S
C648 O649 1.258 . S
C648 O650 1.263 . S
O649 Co646 1.970 . S
O649 C648 1.258 . S
O650 Co647 1.966 . S
O650 C648 1.263 . S
C651 O652 1.235 . S
C651 O678 1.289 . S
O652 C651 1.235 . S
C653 C655 1.400 . S
C653 N656 1.351 . S
C653 C658 1.501 . S
C654 C655 1.387 . S
C654 N657 1.341 . S
C655 C653 1.400 . S
C655 C654 1.387 . S
N656 Co647 2.022 . S
N656 C653 1.351 . S
N656 N657 1.365 . S
N657 C654 1.341 . S
N657 N656 1.365 . S
N657 H677 0.862 . S
C658 C653 1.501 . S
C658 H659 0.961 . S
C658 H660 0.961 . S
C658 H661 0.960 . S
H659 C658 0.961 . S
H660 C658 0.961 . S
H661 C658 0.960 . S
C662 N663 1.342 . S
C662 C666 1.401 . S
C662 C667 1.499 . S
N663 Co646 1.989 . S
N663 C662 1.342 . S
N663 N664 1.388 . S
N664 Co647 1.993 . S
N664 N663 1.388 . S
N664 C665 1.346 . S
C665 N664 1.346 . S
C665 C666 1.396 . S
C665 C675 1.510 . S
C666 C662 1.401 . S
C666 C665 1.396 . S
C667 C662 1.499 . S
C667 H668 0.959 . S
C667 H669 0.960 . S
C667 H670 0.961 . S
H668 C667 0.959 . S
H669 C667 0.960 . S
H670 C667 0.961 . S
O671 Co646 1.967 . S
O671 C679 1.258 . S
O672 Co647 1.941 . S
O672 C679 1.266 . S
H673 C675 0.959 . S
H674 C675 0.961 . S
C675 C665 1.510 . S
C675 H673 0.959 . S
C675 H674 0.961 . S
C675 H676 0.960 . S
H676 C675 0.960 . S
H677 N657 0.862 . S
O678 Co646 1.920 . S
O678 C651 1.289 . S
C679 O671 1.258 . S
C679 O672 1.266 . S
Co680 O683 1.970 . S
Co680 N697 1.989 . S
Co680 O705 1.967 . S
Co680 O712 1.920 . S
Co681 O684 1.966 . S
Co681 N690 2.022 . S
Co681 N698 1.993 . S
Co681 O706 1.941 . S
C682 O683 1.258 . S
C682 O684 1.263 . S
O683 Co680 1.970 . S
O683 C682 1.258 . S
O684 Co681 1.966 . S
O684 C682 1.263 . S
C685 O686 1.235 . S
C685 O712 1.289 . S
O686 C685 1.235 . S
C687 C689 1.400 . S
C687 N690 1.351 . S
C687 C692 1.501 . S
C688 C689 1.387 . S
C688 N691 1.341 . S
C689 C687 1.400 . S
C689 C688 1.387 . S
N690 Co681 2.022 . S
N690 C687 1.351 . S
N690 N691 1.365 . S
N691 C688 1.341 . S
N691 N690 1.365 . S
N691 H711 0.862 . S
C692 C687 1.501 . S
C692 H693 0.961 . S
C692 H694 0.961 . S
C692 H695 0.960 . S
H693 C692 0.961 . S
H694 C692 0.961 . S
H695 C692 0.960 . S
C696 N697 1.342 . S
C696 C700 1.401 . S
C696 C701 1.499 . S
N697 Co680 1.989 . S
N697 C696 1.342 . S
N697 N698 1.388 . S
N698 Co681 1.993 . S
N698 N697 1.388 . S
N698 C699 1.346 . S
C699 N698 1.346 . S
C699 C700 1.396 . S
C699 C709 1.510 . S
C700 C696 1.401 . S
C700 C699 1.396 . S
C701 C696 1.499 . S
C701 H702 0.959 . S
C701 H703 0.960 . S
C701 H704 0.961 . S
H702 C701 0.959 . S
H703 C701 0.960 . S
H704 C701 0.961 . S
O705 Co680 1.967 . S
O705 C713 1.258 . S
O706 Co681 1.941 . S
O706 C713 1.266 . S
H707 C709 0.959 . S
H708 C709 0.961 . S
C709 C699 1.510 . S
C709 H707 0.959 . S
C709 H708 0.961 . S
C709 H710 0.960 . S
H710 C709 0.960 . S
H711 N691 0.862 . S
O712 Co680 1.920 . S
O712 C685 1.289 . S
C713 O705 1.258 . S
C713 O706 1.266 . S
Co714 O717 1.970 . S
Co714 N731 1.989 . S
Co714 O739 1.967 . S
Co714 O746 1.920 . S
Co715 O718 1.966 . S
Co715 N724 2.022 . S
Co715 N732 1.993 . S
Co715 O740 1.941 . S
C716 O717 1.258 . S
C716 O718 1.263 . S
O717 Co714 1.970 . S
O717 C716 1.258 . S
O718 Co715 1.966 . S
O718 C716 1.263 . S
C719 O720 1.235 . S
C719 O746 1.289 . S
O720 C719 1.235 . S
C721 C723 1.400 . S
C721 N724 1.351 . S
C721 C726 1.501 . S
C722 C723 1.387 . S
C722 N725 1.341 . S
C723 C721 1.400 . S
C723 C722 1.387 . S
N724 Co715 2.022 . S
N724 C721 1.351 . S
N724 N725 1.365 . S
N725 C722 1.341 . S
N725 N724 1.365 . S
N725 H745 0.862 . S
C726 C721 1.501 . S
C726 H727 0.961 . S
C726 H728 0.961 . S
C726 H729 0.960 . S
H727 C726 0.961 . S
H728 C726 0.961 . S
H729 C726 0.960 . S
C730 N731 1.342 . S
C730 C734 1.401 . S
C730 C735 1.499 . S
N731 Co714 1.989 . S
N731 C730 1.342 . S
N731 N732 1.388 . S
N732 Co715 1.993 . S
N732 N731 1.388 . S
N732 C733 1.346 . S
C733 N732 1.346 . S
C733 C734 1.396 . S
C733 C743 1.510 . S
C734 C730 1.401 . S
C734 C733 1.396 . S
C735 C730 1.499 . S
C735 H736 0.959 . S
C735 H737 0.960 . S
C735 H738 0.961 . S
H736 C735 0.959 . S
H737 C735 0.960 . S
H738 C735 0.961 . S
O739 Co714 1.967 . S
O739 C747 1.258 . S
O740 Co715 1.941 . S
O740 C747 1.266 . S
H741 C743 0.959 . S
H742 C743 0.961 . S
C743 C733 1.510 . S
C743 H741 0.959 . S
C743 H742 0.961 . S
C743 H744 0.960 . S
H744 C743 0.960 . S
H745 N725 0.862 . S
O746 Co714 1.920 . S
O746 C719 1.289 . S
C747 O739 1.258 . S
C747 O740 1.266 . S
Co748 O751 1.970 . S
Co748 N765 1.989 . S
Co748 O773 1.967 . S
Co748 O780 1.920 . S
Co749 O752 1.966 . S
Co749 N758 2.022 . S
Co749 N766 1.993 . S
Co749 O774 1.941 . S
C750 O751 1.258 . S
C750 O752 1.263 . S
O751 Co748 1.970 . S
O751 C750 1.258 . S
O752 Co749 1.966 . S
O752 C750 1.263 . S
C753 O754 1.235 . S
C753 O780 1.289 . S
O754 C753 1.235 . S
C755 C757 1.400 . S
C755 N758 1.351 . S
C755 C760 1.501 . S
C756 C757 1.387 . S
C756 N759 1.341 . S
C757 C755 1.400 . S
C757 C756 1.387 . S
N758 Co749 2.022 . S
N758 C755 1.351 . S
N758 N759 1.365 . S
N759 C756 1.341 . S
N759 N758 1.365 . S
N759 H779 0.862 . S
C760 C755 1.501 . S
C760 H761 0.961 . S
C760 H762 0.961 . S
C760 H763 0.960 . S
H761 C760 0.961 . S
H762 C760 0.961 . S
H763 C760 0.960 . S
C764 N765 1.342 . S
C764 C768 1.401 . S
C764 C769 1.499 . S
N765 Co748 1.989 . S
N765 C764 1.342 . S
N765 N766 1.388 . S
N766 Co749 1.993 . S
N766 N765 1.388 . S
N766 C767 1.346 . S
C767 N766 1.346 . S
C767 C768 1.396 . S
C767 C777 1.510 . S
C768 C764 1.401 . S
C768 C767 1.396 . S
C769 C764 1.499 . S
C769 H770 0.959 . S
C769 H771 0.960 . S
C769 H772 0.961 . S
H770 C769 0.959 . S
H771 C769 0.960 . S
H772 C769 0.961 . S
O773 Co748 1.967 . S
O773 C781 1.258 . S
O774 Co749 1.941 . S
O774 C781 1.266 . S
H775 C777 0.959 . S
H776 C777 0.961 . S
C777 C767 1.510 . S
C777 H775 0.959 . S
C777 H776 0.961 . S
C777 H778 0.960 . S
H778 C777 0.960 . S
H779 N759 0.862 . S
O780 Co748 1.920 . S
O780 C753 1.289 . S
C781 O773 1.258 . S
C781 O774 1.266 . S
Co782 O785 1.970 . S
Co782 N799 1.989 . S
Co782 O807 1.967 . S
Co782 O814 1.920 . S
Co783 O786 1.966 . S
Co783 N792 2.022 . S
Co783 N800 1.993 . S
Co783 O808 1.941 . S
C784 O785 1.258 . S
C784 O786 1.263 . S
O785 Co782 1.970 . S
O785 C784 1.258 . S
O786 Co783 1.966 . S
O786 C784 1.263 . S
C787 O788 1.235 . S
C787 O814 1.289 . S
O788 C787 1.235 . S
C789 C791 1.400 . S
C789 N792 1.351 . S
C789 C794 1.501 . S
C790 C791 1.387 . S
C790 N793 1.341 . S
C791 C789 1.400 . S
C791 C790 1.387 . S
N792 Co783 2.022 . S
N792 C789 1.351 . S
N792 N793 1.365 . S
N793 C790 1.341 . S
N793 N792 1.365 . S
N793 H813 0.862 . S
C794 C789 1.501 . S
C794 H795 0.961 . S
C794 H796 0.961 . S
C794 H797 0.960 . S
H795 C794 0.961 . S
H796 C794 0.961 . S
H797 C794 0.960 . S
C798 N799 1.342 . S
C798 C802 1.401 . S
C798 C803 1.499 . S
N799 Co782 1.989 . S
N799 C798 1.342 . S
N799 N800 1.388 . S
N800 Co783 1.993 . S
N800 N799 1.388 . S
N800 C801 1.346 . S
C801 N800 1.346 . S
C801 C802 1.396 . S
C801 C811 1.510 . S
C802 C798 1.401 . S
C802 C801 1.396 . S
C803 C798 1.499 . S
C803 H804 0.959 . S
C803 H805 0.960 . S
C803 H806 0.961 . S
H804 C803 0.959 . S
H805 C803 0.960 . S
H806 C803 0.961 . S
O807 Co782 1.967 . S
O807 C815 1.258 . S
O808 Co783 1.941 . S
O808 C815 1.266 . S
H809 C811 0.959 . S
H810 C811 0.961 . S
C811 C801 1.510 . S
C811 H809 0.959 . S
C811 H810 0.961 . S
C811 H812 0.960 . S
H812 C811 0.960 . S
H813 N793 0.862 . S
O814 Co782 1.920 . S
O814 C787 1.289 . S
C815 O807 1.258 . S
C815 O808 1.266 . S
Co816 O819 1.970 . S
Co816 N833 1.989 . S
Co816 O841 1.967 . S
Co816 O848 1.920 . S
Co817 O820 1.966 . S
Co817 N826 2.022 . S
Co817 N834 1.993 . S
Co817 O842 1.941 . S
C818 O819 1.258 . S
C818 O820 1.263 . S
O819 Co816 1.970 . S
O819 C818 1.258 . S
O820 Co817 1.966 . S
O820 C818 1.263 . S
C821 O822 1.235 . S
C821 O848 1.289 . S
O822 C821 1.235 . S
C823 C825 1.400 . S
C823 N826 1.351 . S
C823 C828 1.501 1_554 S
C824 C825 1.387 . S
C824 N827 1.341 . S
C825 C823 1.400 . S
C825 C824 1.387 . S
N826 Co817 2.022 . S
N826 C823 1.351 . S
N826 N827 1.365 . S
N827 C824 1.341 . S
N827 N826 1.365 . S
N827 H847 0.862 . S
C828 C823 1.501 1_556 S
C828 H829 0.961 . S
C828 H830 0.961 . S
C828 H831 0.960 . S
H829 C828 0.961 . S
H830 C828 0.961 . S
H831 C828 0.960 . S
C832 N833 1.342 1_545 S
C832 C836 1.401 . S
C832 C837 1.499 . S
N833 Co816 1.989 . S
N833 C832 1.342 1_565 S
N833 N834 1.388 . S
N834 Co817 1.993 . S
N834 N833 1.388 . S
N834 C835 1.346 1_565 S
C835 N834 1.346 1_545 S
C835 C836 1.396 . S
C835 C845 1.510 . S
C836 C832 1.401 . S
C836 C835 1.396 . S
C837 C832 1.499 . S
C837 H838 0.959 . S
C837 H839 0.960 . S
C837 H840 0.961 . S
H838 C837 0.959 . S
H839 C837 0.960 . S
H840 C837 0.961 . S
O841 Co816 1.967 . S
O841 C849 1.258 . S
O842 Co817 1.941 . S
O842 C849 1.266 . S
H843 C845 0.959 . S
H844 C845 0.961 . S
C845 C835 1.510 . S
C845 H843 0.959 . S
C845 H844 0.961 . S
C845 H846 0.960 . S
H846 C845 0.960 . S
H847 N827 0.862 . S
O848 Co816 1.920 . S
O848 C821 1.289 . S
C849 O841 1.258 . S
C849 O842 1.266 . S
Co850 O853 1.970 . S
Co850 N867 1.989 . S
Co850 O875 1.967 . S
Co850 O882 1.920 . S
Co851 O854 1.966 . S
Co851 N860 2.022 . S
Co851 N868 1.993 . S
Co851 O876 1.941 . S
C852 O853 1.258 . S
C852 O854 1.263 . S
O853 Co850 1.970 . S
O853 C852 1.258 . S
O854 Co851 1.966 . S
O854 C852 1.263 . S
C855 O856 1.235 . S
C855 O882 1.289 . S
O856 C855 1.235 . S
C857 C859 1.400 . S
C857 N860 1.351 . S
C857 C862 1.501 1_554 S
C858 C859 1.387 . S
C858 N861 1.341 . S
C859 C857 1.400 . S
C859 C858 1.387 . S
N860 Co851 2.022 . S
N860 C857 1.351 . S
N860 N861 1.365 . S
N861 C858 1.341 . S
N861 N860 1.365 . S
N861 H881 0.862 . S
C862 C857 1.501 1_556 S
C862 H863 0.961 . S
C862 H864 0.961 . S
C862 H865 0.960 . S
H863 C862 0.961 . S
H864 C862 0.961 . S
H865 C862 0.960 . S
C866 N867 1.342 . S
C866 C870 1.401 . S
C866 C871 1.499 . S
N867 Co850 1.989 . S
N867 C866 1.342 . S
N867 N868 1.388 . S
N868 Co851 1.993 . S
N868 N867 1.388 . S
N868 C869 1.346 . S
C869 N868 1.346 . S
C869 C870 1.396 . S
C869 C879 1.510 . S
C870 C866 1.401 . S
C870 C869 1.396 . S
C871 C866 1.499 . S
C871 H872 0.959 . S
C871 H873 0.960 . S
C871 H874 0.961 . S
H872 C871 0.959 . S
H873 C871 0.960 . S
H874 C871 0.961 . S
O875 Co850 1.967 . S
O875 C883 1.258 . S
O876 Co851 1.941 . S
O876 C883 1.266 . S
H877 C879 0.959 . S
H878 C879 0.961 . S
C879 C869 1.510 . S
C879 H877 0.959 . S
C879 H878 0.961 . S
C879 H880 0.960 . S
H880 C879 0.960 . S
H881 N861 0.862 . S
O882 Co850 1.920 . S
O882 C855 1.289 . S
C883 O875 1.258 . S
C883 O876 1.266 . S
Co884 O887 1.970 . S
Co884 N901 1.989 . S
Co884 O909 1.967 . S
Co884 O916 1.920 . S
Co885 O888 1.966 . S
Co885 N894 2.022 . S
Co885 N902 1.993 . S
Co885 O910 1.941 . S
C886 O887 1.258 . S
C886 O888 1.263 . S
O887 Co884 1.970 . S
O887 C886 1.258 . S
O888 Co885 1.966 . S
O888 C886 1.263 . S
C889 O890 1.235 . S
C889 O916 1.289 . S
O890 C889 1.235 . S
C891 C893 1.400 . S
C891 N894 1.351 . S
C891 C896 1.501 . S
C892 C893 1.387 . S
C892 N895 1.341 . S
C893 C891 1.400 . S
C893 C892 1.387 . S
N894 Co885 2.022 . S
N894 C891 1.351 . S
N894 N895 1.365 . S
N895 C892 1.341 . S
N895 N894 1.365 . S
N895 H915 0.862 . S
C896 C891 1.501 . S
C896 H897 0.961 . S
C896 H898 0.961 . S
C896 H899 0.960 . S
H897 C896 0.961 . S
H898 C896 0.961 . S
H899 C896 0.960 . S
C900 N901 1.342 . S
C900 C904 1.401 . S
C900 C905 1.499 . S
N901 Co884 1.989 . S
N901 C900 1.342 . S
N901 N902 1.388 . S
N902 Co885 1.993 . S
N902 N901 1.388 . S
N902 C903 1.346 . S
C903 N902 1.346 . S
C903 C904 1.396 . S
C903 C913 1.510 . S
C904 C900 1.401 . S
C904 C903 1.396 . S
C905 C900 1.499 . S
C905 H906 0.959 . S
C905 H907 0.960 . S
C905 H908 0.961 . S
H906 C905 0.959 . S
H907 C905 0.960 . S
H908 C905 0.961 . S
O909 Co884 1.967 . S
O909 C917 1.258 . S
O910 Co885 1.941 . S
O910 C917 1.266 . S
H911 C913 0.959 . S
H912 C913 0.961 . S
C913 C903 1.510 . S
C913 H911 0.959 . S
C913 H912 0.961 . S
C913 H914 0.960 . S
H914 C913 0.960 . S
H915 N895 0.862 . S
O916 Co884 1.920 . S
O916 C889 1.289 . S
C917 O909 1.258 . S
C917 O910 1.266 . S
Co918 O921 1.970 . S
Co918 N935 1.989 . S
Co918 O943 1.967 . S
Co918 O950 1.920 . S
Co919 O922 1.966 . S
Co919 N928 2.022 . S
Co919 N936 1.993 . S
Co919 O944 1.941 . S
C920 O921 1.258 . S
C920 O922 1.263 . S
O921 Co918 1.970 . S
O921 C920 1.258 . S
O922 Co919 1.966 . S
O922 C920 1.263 . S
C923 O924 1.235 . S
C923 O950 1.289 . S
O924 C923 1.235 . S
C925 C927 1.400 . S
C925 N928 1.351 . S
C925 C930 1.501 . S
C926 C927 1.387 . S
C926 N929 1.341 . S
C927 C925 1.400 . S
C927 C926 1.387 . S
N928 Co919 2.022 . S
N928 C925 1.351 . S
N928 N929 1.365 . S
N929 C926 1.341 . S
N929 N928 1.365 . S
N929 H949 0.862 . S
C930 C925 1.501 . S
C930 H931 0.961 . S
C930 H932 0.961 . S
C930 H933 0.960 . S
H931 C930 0.961 . S
H932 C930 0.961 . S
H933 C930 0.960 . S
C934 N935 1.342 1_545 S
C934 C938 1.401 . S
C934 C939 1.499 . S
N935 Co918 1.989 . S
N935 C934 1.342 1_565 S
N935 N936 1.388 . S
N936 Co919 1.993 . S
N936 N935 1.388 . S
N936 C937 1.346 1_565 S
C937 N936 1.346 1_545 S
C937 C938 1.396 . S
C937 C947 1.510 . S
C938 C934 1.401 . S
C938 C937 1.396 . S
C939 C934 1.499 . S
C939 H940 0.959 . S
C939 H941 0.960 . S
C939 H942 0.961 . S
H940 C939 0.959 . S
H941 C939 0.960 . S
H942 C939 0.961 . S
O943 Co918 1.967 . S
O943 C951 1.258 . S
O944 Co919 1.941 . S
O944 C951 1.266 . S
H945 C947 0.959 . S
H946 C947 0.961 . S
C947 C937 1.510 . S
C947 H945 0.959 . S
C947 H946 0.961 . S
C947 H948 0.960 . S
H948 C947 0.960 . S
H949 N929 0.862 . S
O950 Co918 1.920 . S
O950 C923 1.289 . S
C951 O943 1.258 . S
C951 O944 1.266 . S
Co952 O955 1.970 . S
Co952 N969 1.989 . S
Co952 O977 1.967 . S
Co952 O984 1.920 . S
Co953 O956 1.966 . S
Co953 N962 2.022 . S
Co953 N970 1.993 . S
Co953 O978 1.941 . S
C954 O955 1.258 . S
C954 O956 1.263 . S
O955 Co952 1.970 . S
O955 C954 1.258 . S
O956 Co953 1.966 . S
O956 C954 1.263 . S
C957 O958 1.235 . S
C957 O984 1.289 . S
O958 C957 1.235 . S
C959 C961 1.400 . S
C959 N962 1.351 . S
C959 C964 1.501 1_556 S
C960 C961 1.387 . S
C960 N963 1.341 . S
C961 C959 1.400 . S
C961 C960 1.387 . S
N962 Co953 2.022 . S
N962 C959 1.351 . S
N962 N963 1.365 . S
N963 C960 1.341 . S
N963 N962 1.365 . S
N963 H983 0.862 . S
C964 C959 1.501 1_554 S
C964 H965 0.961 . S
C964 H966 0.961 . S
C964 H967 0.960 . S
H965 C964 0.961 . S
H966 C964 0.961 . S
H967 C964 0.960 . S
C968 N969 1.342 1_565 S
C968 C972 1.401 . S
C968 C973 1.499 . S
N969 Co952 1.989 . S
N969 C968 1.342 1_545 S
N969 N970 1.388 . S
N970 Co953 1.993 . S
N970 N969 1.388 . S
N970 C971 1.346 1_545 S
C971 N970 1.346 1_565 S
C971 C972 1.396 . S
C971 C981 1.510 . S
C972 C968 1.401 . S
C972 C971 1.396 . S
C973 C968 1.499 . S
C973 H974 0.959 . S
C973 H975 0.960 . S
C973 H976 0.961 . S
H974 C973 0.959 . S
H975 C973 0.960 . S
H976 C973 0.961 . S
O977 Co952 1.967 . S
O977 C985 1.258 . S
O978 Co953 1.941 . S
O978 C985 1.266 . S
H979 C981 0.959 . S
H980 C981 0.961 . S
C981 C971 1.510 . S
C981 H979 0.959 . S
C981 H980 0.961 . S
C981 H982 0.960 . S
H982 C981 0.960 . S
H983 N963 0.862 . S
O984 Co952 1.920 . S
O984 C957 1.289 . S
C985 O977 1.258 . S
C985 O978 1.266 . S
Co986 O989 1.970 . S
Co986 N1003 1.989 . S
Co986 O1011 1.967 . S
Co986 O1018 1.920 . S
Co987 O990 1.966 . S
Co987 N996 2.022 . S
Co987 N1004 1.993 . S
Co987 O1012 1.941 . S
C988 O989 1.258 . S
C988 O990 1.263 . S
O989 Co986 1.970 . S
O989 C988 1.258 . S
O990 Co987 1.966 . S
O990 C988 1.263 . S
C991 O992 1.235 . S
C991 O1018 1.289 . S
O992 C991 1.235 . S
C993 C995 1.400 . S
C993 N996 1.351 . S
C993 C998 1.501 1_556 S
C994 C995 1.387 . S
C994 N997 1.341 . S
C995 C993 1.400 . S
C995 C994 1.387 . S
N996 Co987 2.022 . S
N996 C993 1.351 . S
N996 N997 1.365 . S
N997 C994 1.341 . S
N997 N996 1.365 . S
N997 H1017 0.862 . S
C998 C993 1.501 1_554 S
C998 H999 0.961 . S
C998 H1000 0.961 . S
C998 H1001 0.960 . S
H999 C998 0.961 . S
H1000 C998 0.961 . S
H1001 C998 0.960 . S
C1002 N1003 1.342 . S
C1002 C1006 1.401 . S
C1002 C1007 1.499 . S
N1003 Co986 1.989 . S
N1003 C1002 1.342 . S
N1003 N1004 1.388 . S
N1004 Co987 1.993 . S
N1004 N1003 1.388 . S
N1004 C1005 1.346 . S
C1005 N1004 1.346 . S
C1005 C1006 1.396 . S
C1005 C1015 1.510 . S
C1006 C1002 1.401 . S
C1006 C1005 1.396 . S
C1007 C1002 1.499 . S
C1007 H1008 0.959 . S
C1007 H1009 0.960 . S
C1007 H1010 0.961 . S
H1008 C1007 0.959 . S
H1009 C1007 0.960 . S
H1010 C1007 0.961 . S
O1011 Co986 1.967 . S
O1011 C1019 1.258 . S
O1012 Co987 1.941 . S
O1012 C1019 1.266 . S
H1013 C1015 0.959 . S
H1014 C1015 0.961 . S
C1015 C1005 1.510 . S
C1015 H1013 0.959 . S
C1015 H1014 0.961 . S
C1015 H1016 0.960 . S
H1016 C1015 0.960 . S
H1017 N997 0.862 . S
O1018 Co986 1.920 . S
O1018 C991 1.289 . S
C1019 O1011 1.258 . S
C1019 O1012 1.266 . S
Co1020 O1023 1.970 . S
Co1020 N1037 1.989 . S
Co1020 O1045 1.967 . S
Co1020 O1052 1.920 . S
Co1021 O1024 1.966 . S
Co1021 N1030 2.022 . S
Co1021 N1038 1.993 . S
Co1021 O1046 1.941 . S
C1022 O1023 1.258 . S
C1022 O1024 1.263 . S
O1023 Co1020 1.970 . S
O1023 C1022 1.258 . S
O1024 Co1021 1.966 . S
O1024 C1022 1.263 . S
C1025 O1026 1.235 . S
C1025 O1052 1.289 . S
O1026 C1025 1.235 . S
C1027 C1029 1.400 . S
C1027 N1030 1.351 . S
C1027 C1032 1.501 . S
C1028 C1029 1.387 . S
C1028 N1031 1.341 . S
C1029 C1027 1.400 . S
C1029 C1028 1.387 . S
N1030 Co1021 2.022 . S
N1030 C1027 1.351 . S
N1030 N1031 1.365 . S
N1031 C1028 1.341 . S
N1031 N1030 1.365 . S
N1031 H1051 0.862 . S
C1032 C1027 1.501 . S
C1032 H1033 0.961 . S
C1032 H1034 0.961 . S
C1032 H1035 0.960 . S
H1033 C1032 0.961 . S
H1034 C1032 0.961 . S
H1035 C1032 0.960 . S
C1036 N1037 1.342 . S
C1036 C1040 1.401 . S
C1036 C1041 1.499 . S
N1037 Co1020 1.989 . S
N1037 C1036 1.342 . S
N1037 N1038 1.388 . S
N1038 Co1021 1.993 . S
N1038 N1037 1.388 . S
N1038 C1039 1.346 . S
C1039 N1038 1.346 . S
C1039 C1040 1.396 . S
C1039 C1049 1.510 . S
C1040 C1036 1.401 . S
C1040 C1039 1.396 . S
C1041 C1036 1.499 . S
C1041 H1042 0.959 . S
C1041 H1043 0.960 . S
C1041 H1044 0.961 . S
H1042 C1041 0.959 . S
H1043 C1041 0.960 . S
H1044 C1041 0.961 . S
O1045 Co1020 1.967 . S
O1045 C1053 1.258 . S
O1046 Co1021 1.941 . S
O1046 C1053 1.266 . S
H1047 C1049 0.959 . S
H1048 C1049 0.961 . S
C1049 C1039 1.510 . S
C1049 H1047 0.959 . S
C1049 H1048 0.961 . S
C1049 H1050 0.960 . S
H1050 C1049 0.960 . S
H1051 N1031 0.862 . S
O1052 Co1020 1.920 . S
O1052 C1025 1.289 . S
C1053 O1045 1.258 . S
C1053 O1046 1.266 . S
Co1054 O1057 1.970 . S
Co1054 N1071 1.989 . S
Co1054 O1079 1.967 . S
Co1054 O1086 1.920 . S
Co1055 O1058 1.966 . S
Co1055 N1064 2.022 . S
Co1055 N1072 1.993 . S
Co1055 O1080 1.941 . S
C1056 O1057 1.258 . S
C1056 O1058 1.263 . S
O1057 Co1054 1.970 . S
O1057 C1056 1.258 . S
O1058 Co1055 1.966 . S
O1058 C1056 1.263 . S
C1059 O1060 1.235 . S
C1059 O1086 1.289 . S
O1060 C1059 1.235 . S
C1061 C1063 1.400 . S
C1061 N1064 1.351 . S
C1061 C1066 1.501 . S
C1062 C1063 1.387 . S
C1062 N1065 1.341 . S
C1063 C1061 1.400 . S
C1063 C1062 1.387 . S
N1064 Co1055 2.022 . S
N1064 C1061 1.351 . S
N1064 N1065 1.365 . S
N1065 C1062 1.341 . S
N1065 N1064 1.365 . S
N1065 H1085 0.862 . S
C1066 C1061 1.501 . S
C1066 H1067 0.961 . S
C1066 H1068 0.961 . S
C1066 H1069 0.960 . S
H1067 C1066 0.961 . S
H1068 C1066 0.961 . S
H1069 C1066 0.960 . S
C1070 N1071 1.342 1_565 S
C1070 C1074 1.401 . S
C1070 C1075 1.499 . S
N1071 Co1054 1.989 . S
N1071 C1070 1.342 1_545 S
N1071 N1072 1.388 . S
N1072 Co1055 1.993 . S
N1072 N1071 1.388 . S
N1072 C1073 1.346 1_545 S
C1073 N1072 1.346 1_565 S
C1073 C1074 1.396 . S
C1073 C1083 1.510 . S
C1074 C1070 1.401 . S
C1074 C1073 1.396 . S
C1075 C1070 1.499 . S
C1075 H1076 0.959 . S
C1075 H1077 0.960 . S
C1075 H1078 0.961 . S
H1076 C1075 0.959 . S
H1077 C1075 0.960 . S
H1078 C1075 0.961 . S
O1079 Co1054 1.967 . S
O1079 C1087 1.258 . S
O1080 Co1055 1.941 . S
O1080 C1087 1.266 . S
H1081 C1083 0.959 . S
H1082 C1083 0.961 . S
C1083 C1073 1.510 . S
C1083 H1081 0.959 . S
C1083 H1082 0.961 . S
C1083 H1084 0.960 . S
H1084 C1083 0.960 . S
H1085 N1065 0.862 . S
O1086 Co1054 1.920 . S
O1086 C1059 1.289 . S
C1087 O1079 1.258 . S
C1087 O1080 1.266 . S
H1088 C1096 0.950 . S
H1089 C1101 0.950 . S
H1090 C1098 0.950 . S
H1091 C1100 0.950 . S
H1092 C1102 0.950 . S
H1093 C1104 0.950 . S
H1094 C1106 0.950 . S
H1095 C1107 0.950 . S
C1096 H1088 0.950 . S
C1096 C1097 1.386 . S
C1096 C1098 1.391 . S
C1097 C1096 1.386 . S
C1097 C1101 1.393 . S
C1098 H1090 0.950 . S
C1098 C1096 1.391 . S
C1098 C1099 1.400 . S
C1099 C1098 1.400 . S
C1099 C1100 1.398 . S
C1099 C1105 1.491 . S
C1100 H1091 0.950 . S
C1100 C1099 1.398 . S
C1100 C1101 1.391 . S
C1101 H1089 0.950 . S
C1101 C1097 1.393 . S
C1101 C1100 1.391 . S
C1102 H1092 0.950 . S
C1102 C1103 1.386 . S
C1102 C1104 1.391 . S
C1103 C1102 1.386 . S
C1103 C1107 1.393 . S
C1104 H1093 0.950 . S
C1104 C1102 1.391 . S
C1104 C1105 1.400 . S
C1105 C1099 1.491 . S
C1105 C1104 1.400 . S
C1105 C1106 1.398 . S
C1106 H1094 0.950 . S
C1106 C1105 1.398 . S
C1106 C1107 1.391 . S
C1107 H1095 0.950 . S
C1107 C1103 1.393 . S
C1107 C1106 1.391 . S
H1108 C1116 0.950 . S
H1109 C1121 0.950 . S
H1110 C1118 0.950 . S
H1111 C1120 0.950 . S
H1112 C1122 0.950 . S
H1113 C1124 0.950 . S
H1114 C1126 0.950 . S
H1115 C1127 0.950 . S
C1116 H1108 0.950 . S
C1116 C1117 1.386 . S
C1116 C1118 1.391 . S
C1117 C1116 1.386 . S
C1117 C1121 1.393 . S
C1118 H1110 0.950 . S
C1118 C1116 1.391 . S
C1118 C1119 1.400 . S
C1119 C1118 1.400 . S
C1119 C1120 1.398 . S
C1119 C1125 1.491 . S
C1120 H1111 0.950 . S
C1120 C1119 1.398 . S
C1120 C1121 1.391 . S
C1121 H1109 0.950 . S
C1121 C1117 1.393 . S
C1121 C1120 1.391 . S
C1122 H1112 0.950 . S
C1122 C1123 1.386 . S
C1122 C1124 1.391 . S
C1123 C1122 1.386 . S
C1123 C1127 1.393 . S
C1124 H1113 0.950 . S
C1124 C1122 1.391 . S
C1124 C1125 1.400 . S
C1125 C1119 1.491 . S
C1125 C1124 1.400 . S
C1125 C1126 1.398 . S
C1126 H1114 0.950 . S
C1126 C1125 1.398 . S
C1126 C1127 1.391 . S
C1127 H1115 0.950 . S
C1127 C1123 1.393 . S
C1127 C1126 1.391 . S
H1128 C1136 0.950 . S
H1129 C1141 0.950 . S
H1130 C1138 0.950 . S
H1131 C1140 0.950 . S
H1132 C1142 0.950 . S
H1133 C1144 0.950 . S
H1134 C1146 0.950 . S
H1135 C1147 0.950 . S
C1136 H1128 0.950 . S
C1136 C1137 1.386 . S
C1136 C1138 1.391 . S
C1137 C1136 1.386 . S
C1137 C1141 1.393 . S
C1138 H1130 0.950 . S
C1138 C1136 1.391 . S
C1138 C1139 1.400 . S
C1139 C1138 1.400 . S
C1139 C1140 1.398 . S
C1139 C1145 1.491 . S
C1140 H1131 0.950 . S
C1140 C1139 1.398 . S
C1140 C1141 1.391 . S
C1141 H1129 0.950 . S
C1141 C1137 1.393 . S
C1141 C1140 1.391 . S
C1142 H1132 0.950 . S
C1142 C1143 1.386 . S
C1142 C1144 1.391 . S
C1143 C1142 1.386 . S
C1143 C1147 1.393 . S
C1144 H1133 0.950 . S
C1144 C1142 1.391 . S
C1144 C1145 1.400 . S
C1145 C1139 1.491 . S
C1145 C1144 1.400 . S
C1145 C1146 1.398 . S
C1146 H1134 0.950 . S
C1146 C1145 1.398 . S
C1146 C1147 1.391 . S
C1147 H1135 0.950 . S
C1147 C1143 1.393 . S
C1147 C1146 1.391 . S
H1148 C1156 0.950 . S
H1149 C1161 0.950 . S
H1150 C1158 0.950 . S
H1151 C1160 0.950 . S
H1152 C1162 0.950 . S
H1153 C1164 0.950 . S
H1154 C1166 0.950 . S
H1155 C1167 0.950 . S
C1156 H1148 0.950 . S
C1156 C1157 1.386 . S
C1156 C1158 1.391 . S
C1157 C1156 1.386 . S
C1157 C1161 1.393 . S
C1158 H1150 0.950 . S
C1158 C1156 1.391 . S
C1158 C1159 1.400 . S
C1159 C1158 1.400 . S
C1159 C1160 1.398 . S
C1159 C1165 1.491 . S
C1160 H1151 0.950 . S
C1160 C1159 1.398 . S
C1160 C1161 1.391 . S
C1161 H1149 0.950 . S
C1161 C1157 1.393 . S
C1161 C1160 1.391 . S
C1162 H1152 0.950 . S
C1162 C1163 1.386 . S
C1162 C1164 1.391 . S
C1163 C1162 1.386 . S
C1163 C1167 1.393 . S
C1164 H1153 0.950 . S
C1164 C1162 1.391 . S
C1164 C1165 1.400 . S
C1165 C1159 1.491 . S
C1165 C1164 1.400 . S
C1165 C1166 1.398 . S
C1166 H1154 0.950 . S
C1166 C1165 1.398 . S
C1166 C1167 1.391 . S
C1167 H1155 0.950 . S
C1167 C1163 1.393 . S
C1167 C1166 1.391 . S
H1168 C1176 0.950 . S
H1169 C1181 0.950 . S
H1170 C1178 0.950 . S
H1171 C1180 0.950 . S
H1172 C1182 0.950 . S
H1173 C1184 0.950 . S
H1174 C1186 0.950 . S
H1175 C1187 0.950 . S
C1176 H1168 0.950 . S
C1176 C1177 1.386 . S
C1176 C1178 1.391 . S
C1177 C1176 1.386 . S
C1177 C1181 1.393 . S
C1178 H1170 0.950 . S
C1178 C1176 1.391 . S
C1178 C1179 1.400 . S
C1179 C1178 1.400 . S
C1179 C1180 1.398 . S
C1179 C1185 1.491 . S
C1180 H1171 0.950 . S
C1180 C1179 1.398 . S
C1180 C1181 1.391 . S
C1181 H1169 0.950 . S
C1181 C1177 1.393 . S
C1181 C1180 1.391 . S
C1182 H1172 0.950 . S
C1182 C1183 1.386 . S
C1182 C1184 1.391 . S
C1183 C1182 1.386 . S
C1183 C1187 1.393 . S
C1184 H1173 0.950 . S
C1184 C1182 1.391 . S
C1184 C1185 1.400 . S
C1185 C1179 1.491 . S
C1185 C1184 1.400 . S
C1185 C1186 1.398 . S
C1186 H1174 0.950 . S
C1186 C1185 1.398 . S
C1186 C1187 1.391 . S
C1187 H1175 0.950 . S
C1187 C1183 1.393 . S
C1187 C1186 1.391 . S
H1188 C1196 0.950 . S
H1189 C1201 0.950 . S
H1190 C1198 0.950 . S
H1191 C1200 0.950 . S
H1192 C1202 0.950 . S
H1193 C1204 0.950 . S
H1194 C1206 0.950 . S
H1195 C1207 0.950 . S
C1196 H1188 0.950 . S
C1196 C1197 1.386 . S
C1196 C1198 1.391 . S
C1197 C1196 1.386 . S
C1197 C1201 1.393 . S
C1198 H1190 0.950 . S
C1198 C1196 1.391 . S
C1198 C1199 1.400 . S
C1199 C1198 1.400 . S
C1199 C1200 1.398 . S
C1199 C1205 1.491 . S
C1200 H1191 0.950 . S
C1200 C1199 1.398 . S
C1200 C1201 1.391 . S
C1201 H1189 0.950 . S
C1201 C1197 1.393 . S
C1201 C1200 1.391 . S
C1202 H1192 0.950 . S
C1202 C1203 1.386 . S
C1202 C1204 1.391 . S
C1203 C1202 1.386 . S
C1203 C1207 1.393 . S
C1204 H1193 0.950 . S
C1204 C1202 1.391 . S
C1204 C1205 1.400 . S
C1205 C1199 1.491 . S
C1205 C1204 1.400 . S
C1205 C1206 1.398 . S
C1206 H1194 0.950 . S
C1206 C1205 1.398 . S
C1206 C1207 1.391 . S
C1207 H1195 0.950 . S
C1207 C1203 1.393 . S
C1207 C1206 1.391 . S
H1208 C1216 0.950 . S
H1209 C1221 0.950 . S
H1210 C1218 0.950 . S
H1211 C1220 0.950 . S
H1212 C1222 0.950 . S
H1213 C1224 0.950 . S
H1214 C1226 0.950 . S
H1215 C1227 0.950 . S
C1216 H1208 0.950 . S
C1216 C1217 1.386 . S
C1216 C1218 1.391 . S
C1217 C1216 1.386 . S
C1217 C1221 1.393 . S
C1218 H1210 0.950 . S
C1218 C1216 1.391 . S
C1218 C1219 1.400 . S
C1219 C1218 1.400 . S
C1219 C1220 1.398 . S
C1219 C1225 1.491 . S
C1220 H1211 0.950 . S
C1220 C1219 1.398 . S
C1220 C1221 1.391 . S
C1221 H1209 0.950 . S
C1221 C1217 1.393 . S
C1221 C1220 1.391 . S
C1222 H1212 0.950 . S
C1222 C1223 1.386 . S
C1222 C1224 1.391 . S
C1223 C1222 1.386 . S
C1223 C1227 1.393 . S
C1224 H1213 0.950 . S
C1224 C1222 1.391 . S
C1224 C1225 1.400 . S
C1225 C1219 1.491 . S
C1225 C1224 1.400 . S
C1225 C1226 1.398 . S
C1226 H1214 0.950 . S
C1226 C1225 1.398 . S
C1226 C1227 1.391 . S
C1227 H1215 0.950 . S
C1227 C1223 1.393 . S
C1227 C1226 1.391 . S
H1228 C1236 0.950 . S
H1229 C1241 0.950 . S
H1230 C1238 0.950 . S
H1231 C1240 0.950 . S
H1232 C1242 0.950 . S
H1233 C1244 0.950 . S
H1234 C1246 0.950 . S
H1235 C1247 0.950 . S
C1236 H1228 0.950 . S
C1236 C1237 1.386 . S
C1236 C1238 1.391 . S
C1237 C1236 1.386 . S
C1237 C1241 1.393 . S
C1238 H1230 0.950 . S
C1238 C1236 1.391 . S
C1238 C1239 1.400 . S
C1239 C1238 1.400 . S
C1239 C1240 1.398 . S
C1239 C1245 1.491 . S
C1240 H1231 0.950 . S
C1240 C1239 1.398 . S
C1240 C1241 1.391 . S
C1241 H1229 0.950 . S
C1241 C1237 1.393 . S
C1241 C1240 1.391 . S
C1242 H1232 0.950 . S
C1242 C1243 1.386 . S
C1242 C1244 1.391 . S
C1243 C1242 1.386 . S
C1243 C1247 1.393 . S
C1244 H1233 0.950 . S
C1244 C1242 1.391 . S
C1244 C1245 1.400 . S
C1245 C1239 1.491 . S
C1245 C1244 1.400 . S
C1245 C1246 1.398 . S
C1246 H1234 0.950 . S
C1246 C1245 1.398 . S
C1246 C1247 1.391 . S
C1247 H1235 0.950 . S
C1247 C1243 1.393 . S
C1247 C1246 1.391 . S
H1248 C1256 0.950 . S
H1249 C1261 0.950 . S
H1250 C1258 0.950 . S
H1251 C1260 0.950 . S
H1252 C1262 0.950 . S
H1253 C1264 0.950 . S
H1254 C1266 0.950 . S
H1255 C1267 0.950 . S
C1256 H1248 0.950 . S
C1256 C1257 1.386 . S
C1256 C1258 1.391 . S
C1257 C1256 1.386 . S
C1257 C1261 1.393 . S
C1258 H1250 0.950 . S
C1258 C1256 1.391 . S
C1258 C1259 1.400 . S
C1259 C1258 1.400 . S
C1259 C1260 1.398 . S
C1259 C1265 1.491 . S
C1260 H1251 0.950 . S
C1260 C1259 1.398 . S
C1260 C1261 1.391 . S
C1261 H1249 0.950 . S
C1261 C1257 1.393 . S
C1261 C1260 1.391 . S
C1262 H1252 0.950 . S
C1262 C1263 1.386 . S
C1262 C1264 1.391 . S
C1263 C1262 1.386 . S
C1263 C1267 1.393 . S
C1264 H1253 0.950 . S
C1264 C1262 1.391 . S
C1264 C1265 1.400 . S
C1265 C1259 1.491 . S
C1265 C1264 1.400 . S
C1265 C1266 1.398 . S
C1266 H1254 0.950 . S
C1266 C1265 1.398 . S
C1266 C1267 1.391 . S
C1267 H1255 0.950 . S
C1267 C1263 1.393 . S
C1267 C1266 1.391 . S
H1268 C1276 0.950 . S
H1269 C1281 0.950 . S
H1270 C1278 0.950 . S
H1271 C1280 0.950 . S
H1272 C1282 0.950 . S
H1273 C1284 0.950 . S
H1274 C1286 0.950 . S
H1275 C1287 0.950 . S
C1276 H1268 0.950 . S
C1276 C1277 1.386 . S
C1276 C1278 1.391 . S
C1277 C1276 1.386 . S
C1277 C1281 1.393 . S
C1278 H1270 0.950 . S
C1278 C1276 1.391 . S
C1278 C1279 1.400 . S
C1279 C1278 1.400 . S
C1279 C1280 1.398 . S
C1279 C1285 1.491 . S
C1280 H1271 0.950 . S
C1280 C1279 1.398 . S
C1280 C1281 1.391 . S
C1281 H1269 0.950 . S
C1281 C1277 1.393 . S
C1281 C1280 1.391 . S
C1282 H1272 0.950 . S
C1282 C1283 1.386 . S
C1282 C1284 1.391 . S
C1283 C1282 1.386 . S
C1283 C1287 1.393 . S
C1284 H1273 0.950 . S
C1284 C1282 1.391 . S
C1284 C1285 1.400 . S
C1285 C1279 1.491 . S
C1285 C1284 1.400 . S
C1285 C1286 1.398 . S
C1286 H1274 0.950 . S
C1286 C1285 1.398 . S
C1286 C1287 1.391 . S
C1287 H1275 0.950 . S
C1287 C1283 1.393 . S
C1287 C1286 1.391 . S
H1288 C1296 0.950 . S
H1289 C1301 0.950 . S
H1290 C1298 0.950 . S
H1291 C1300 0.950 . S
H1292 C1302 0.950 . S
H1293 C1304 0.950 . S
H1294 C1306 0.950 . S
H1295 C1307 0.950 . S
C1296 H1288 0.950 . S
C1296 C1297 1.386 . S
C1296 C1298 1.391 . S
C1297 C1296 1.386 . S
C1297 C1301 1.393 . S
C1298 H1290 0.950 . S
C1298 C1296 1.391 . S
C1298 C1299 1.400 . S
C1299 C1298 1.400 . S
C1299 C1300 1.398 . S
C1299 C1305 1.491 . S
C1300 H1291 0.950 . S
C1300 C1299 1.398 . S
C1300 C1301 1.391 . S
C1301 H1289 0.950 . S
C1301 C1297 1.393 . S
C1301 C1300 1.391 . S
C1302 H1292 0.950 . S
C1302 C1303 1.386 . S
C1302 C1304 1.391 . S
C1303 C1302 1.386 . S
C1303 C1307 1.393 . S
C1304 H1293 0.950 . S
C1304 C1302 1.391 . S
C1304 C1305 1.400 . S
C1305 C1299 1.491 . S
C1305 C1304 1.400 . S
C1305 C1306 1.398 . S
C1306 H1294 0.950 . S
C1306 C1305 1.398 . S
C1306 C1307 1.391 . S
C1307 H1295 0.950 . S
C1307 C1303 1.393 . S
C1307 C1306 1.391 . S
H1308 C1316 0.950 . S
H1309 C1321 0.950 . S
H1310 C1318 0.950 . S
H1311 C1320 0.950 . S
H1312 C1322 0.950 . S
H1313 C1324 0.950 . S
H1314 C1326 0.950 . S
H1315 C1327 0.950 . S
C1316 H1308 0.950 . S
C1316 C1317 1.386 . S
C1316 C1318 1.391 . S
C1317 C1316 1.386 . S
C1317 C1321 1.393 . S
C1318 H1310 0.950 . S
C1318 C1316 1.391 . S
C1318 C1319 1.400 . S
C1319 C1318 1.400 . S
C1319 C1320 1.398 . S
C1319 C1325 1.491 . S
C1320 H1311 0.950 . S
C1320 C1319 1.398 . S
C1320 C1321 1.391 . S
C1321 H1309 0.950 . S
C1321 C1317 1.393 . S
C1321 C1320 1.391 . S
C1322 H1312 0.950 . S
C1322 C1323 1.386 . S
C1322 C1324 1.391 . S
C1323 C1322 1.386 . S
C1323 C1327 1.393 . S
C1324 H1313 0.950 . S
C1324 C1322 1.391 . S
C1324 C1325 1.400 . S
C1325 C1319 1.491 . S
C1325 C1324 1.400 . S
C1325 C1326 1.398 . S
C1326 H1314 0.950 . S
C1326 C1325 1.398 . S
C1326 C1327 1.391 . S
C1327 H1315 0.950 . S
C1327 C1323 1.393 . S
C1327 C1326 1.391 . S
H1328 C1336 0.950 . S
H1329 C1341 0.950 . S
H1330 C1338 0.950 . S
H1331 C1340 0.950 . S
H1332 C1342 0.950 . S
H1333 C1344 0.950 . S
H1334 C1346 0.950 . S
H1335 C1347 0.950 . S
C1336 H1328 0.950 . S
C1336 C1337 1.386 . S
C1336 C1338 1.391 . S
C1337 C1336 1.386 . S
C1337 C1341 1.393 . S
C1338 H1330 0.950 . S
C1338 C1336 1.391 . S
C1338 C1339 1.400 . S
C1339 C1338 1.400 . S
C1339 C1340 1.398 . S
C1339 C1345 1.491 . S
C1340 H1331 0.950 . S
C1340 C1339 1.398 . S
C1340 C1341 1.391 . S
C1341 H1329 0.950 . S
C1341 C1337 1.393 . S
C1341 C1340 1.391 . S
C1342 H1332 0.950 . S
C1342 C1343 1.386 . S
C1342 C1344 1.391 . S
C1343 C1342 1.386 . S
C1343 C1347 1.393 . S
C1344 H1333 0.950 . S
C1344 C1342 1.391 . S
C1344 C1345 1.400 . S
C1345 C1339 1.491 . S
C1345 C1344 1.400 . S
C1345 C1346 1.398 . S
C1346 H1334 0.950 . S
C1346 C1345 1.398 . S
C1346 C1347 1.391 . S
C1347 H1335 0.950 . S
C1347 C1343 1.393 . S
C1347 C1346 1.391 . S
H1348 C1356 0.950 . S
H1349 C1361 0.950 . S
H1350 C1358 0.950 . S
H1351 C1360 0.950 . S
H1352 C1362 0.950 . S
H1353 C1364 0.950 . S
H1354 C1366 0.950 . S
H1355 C1367 0.950 . S
C1356 H1348 0.950 . S
C1356 C1357 1.386 . S
C1356 C1358 1.391 . S
C1357 C1356 1.386 . S
C1357 C1361 1.393 . S
C1358 H1350 0.950 . S
C1358 C1356 1.391 . S
C1358 C1359 1.400 . S
C1359 C1358 1.400 . S
C1359 C1360 1.398 . S
C1359 C1365 1.491 . S
C1360 H1351 0.950 . S
C1360 C1359 1.398 . S
C1360 C1361 1.391 . S
C1361 H1349 0.950 . S
C1361 C1357 1.393 . S
C1361 C1360 1.391 . S
C1362 H1352 0.950 . S
C1362 C1363 1.386 . S
C1362 C1364 1.391 . S
C1363 C1362 1.386 . S
C1363 C1367 1.393 . S
C1364 H1353 0.950 . S
C1364 C1362 1.391 . S
C1364 C1365 1.400 . S
C1365 C1359 1.491 . S
C1365 C1364 1.400 . S
C1365 C1366 1.398 . S
C1366 H1354 0.950 . S
C1366 C1365 1.398 . S
C1366 C1367 1.391 . S
C1367 H1355 0.950 . S
C1367 C1363 1.393 . S
C1367 C1366 1.391 . S
H1368 C1376 0.950 . S
H1369 C1381 0.950 . S
H1370 C1378 0.950 . S
H1371 C1380 0.950 . S
H1372 C1382 0.950 . S
H1373 C1384 0.950 . S
H1374 C1386 0.950 . S
H1375 C1387 0.950 . S
C1376 H1368 0.950 . S
C1376 C1377 1.386 . S
C1376 C1378 1.391 . S
C1377 C1376 1.386 . S
C1377 C1381 1.393 . S
C1378 H1370 0.950 . S
C1378 C1376 1.391 . S
C1378 C1379 1.400 . S
C1379 C1378 1.400 . S
C1379 C1380 1.398 . S
C1379 C1385 1.491 . S
C1380 H1371 0.950 . S
C1380 C1379 1.398 . S
C1380 C1381 1.391 . S
C1381 H1369 0.950 . S
C1381 C1377 1.393 . S
C1381 C1380 1.391 . S
C1382 H1372 0.950 . S
C1382 C1383 1.386 . S
C1382 C1384 1.391 . S
C1383 C1382 1.386 . S
C1383 C1387 1.393 . S
C1384 H1373 0.950 . S
C1384 C1382 1.391 . S
C1384 C1385 1.400 . S
C1385 C1379 1.491 . S
C1385 C1384 1.400 . S
C1385 C1386 1.398 . S
C1386 H1374 0.950 . S
C1386 C1385 1.398 . S
C1386 C1387 1.391 . S
C1387 H1375 0.950 . S
C1387 C1383 1.393 . S
C1387 C1386 1.391 . S
H1388 C1396 0.950 . S
H1389 C1401 0.950 . S
H1390 C1398 0.950 . S
H1391 C1400 0.950 . S
H1392 C1402 0.950 . S
H1393 C1404 0.950 . S
H1394 C1406 0.950 . S
H1395 C1407 0.950 . S
C1396 H1388 0.950 . S
C1396 C1397 1.386 . S
C1396 C1398 1.391 . S
C1397 C1396 1.386 . S
C1397 C1401 1.393 . S
C1398 H1390 0.950 . S
C1398 C1396 1.391 . S
C1398 C1399 1.400 . S
C1399 C1398 1.400 . S
C1399 C1400 1.398 . S
C1399 C1405 1.491 . S
C1400 H1391 0.950 . S
C1400 C1399 1.398 . S
C1400 C1401 1.391 . S
C1401 H1389 0.950 . S
C1401 C1397 1.393 . S
C1401 C1400 1.391 . S
C1402 H1392 0.950 . S
C1402 C1403 1.386 . S
C1402 C1404 1.391 . S
C1403 C1402 1.386 . S
C1403 C1407 1.393 . S
C1404 H1393 0.950 . S
C1404 C1402 1.391 . S
C1404 C1405 1.400 . S
C1405 C1399 1.491 . S
C1405 C1404 1.400 . S
C1405 C1406 1.398 . S
C1406 H1394 0.950 . S
C1406 C1405 1.398 . S
C1406 C1407 1.391 . S
C1407 H1395 0.950 . S
C1407 C1403 1.393 . S
C1407 C1406 1.391 . S
H1408 C1416 0.950 . S
H1409 C1421 0.950 . S
H1410 C1418 0.950 . S
H1411 C1420 0.950 . S
H1412 C1422 0.950 . S
H1413 C1424 0.950 . S
H1414 C1426 0.950 . S
H1415 C1427 0.950 . S
C1416 H1408 0.950 . S
C1416 C1417 1.386 . S
C1416 C1418 1.391 . S
C1417 C1416 1.386 . S
C1417 C1421 1.393 1_554 S
C1418 H1410 0.950 . S
C1418 C1416 1.391 . S
C1418 C1419 1.400 . S
C1419 C1418 1.400 . S
C1419 C1420 1.398 1_554 S
C1419 C1425 1.491 1_454 S
C1420 H1411 0.950 . S
C1420 C1419 1.398 1_556 S
C1420 C1421 1.391 . S
C1421 H1409 0.950 . S
C1421 C1417 1.393 1_556 S
C1421 C1420 1.391 . S
C1422 H1412 0.950 . S
C1422 C1423 1.386 . S
C1422 C1424 1.391 . S
C1423 C1422 1.386 . S
C1423 C1427 1.393 1_556 S
C1424 H1413 0.950 . S
C1424 C1422 1.391 . S
C1424 C1425 1.400 . S
C1425 C1419 1.491 1_656 S
C1425 C1424 1.400 . S
C1425 C1426 1.398 1_556 S
C1426 H1414 0.950 . S
C1426 C1425 1.398 1_554 S
C1426 C1427 1.391 . S
C1427 H1415 0.950 . S
C1427 C1423 1.393 1_554 S
C1427 C1426 1.391 . S
H1428 C1436 0.950 . S
H1429 C1441 0.950 . S
H1430 C1438 0.950 . S
H1431 C1440 0.950 . S
H1432 C1442 0.950 . S
H1433 C1444 0.950 . S
H1434 C1446 0.950 . S
H1435 C1447 0.950 . S
C1436 H1428 0.950 . S
C1436 C1437 1.386 . S
C1436 C1438 1.391 . S
C1437 C1436 1.386 . S
C1437 C1441 1.393 . S
C1438 H1430 0.950 . S
C1438 C1436 1.391 . S
C1438 C1439 1.400 . S
C1439 C1438 1.400 . S
C1439 C1440 1.398 . S
C1439 C1445 1.491 1_554 S
C1440 H1431 0.950 . S
C1440 C1439 1.398 . S
C1440 C1441 1.391 . S
C1441 H1429 0.950 . S
C1441 C1437 1.393 . S
C1441 C1440 1.391 . S
C1442 H1432 0.950 . S
C1442 C1443 1.386 . S
C1442 C1444 1.391 . S
C1443 C1442 1.386 . S
C1443 C1447 1.393 . S
C1444 H1433 0.950 . S
C1444 C1442 1.391 . S
C1444 C1445 1.400 . S
C1445 C1439 1.491 1_556 S
C1445 C1444 1.400 . S
C1445 C1446 1.398 . S
C1446 H1434 0.950 . S
C1446 C1445 1.398 . S
C1446 C1447 1.391 . S
C1447 H1435 0.950 . S
C1447 C1443 1.393 . S
C1447 C1446 1.391 . S
H1448 C1456 0.950 . S
H1449 C1461 0.950 . S
H1450 C1458 0.950 . S
H1451 C1460 0.950 . S
H1452 C1462 0.950 . S
H1453 C1464 0.950 . S
H1454 C1466 0.950 . S
H1455 C1467 0.950 . S
C1456 H1448 0.950 . S
C1456 C1457 1.386 . S
C1456 C1458 1.391 . S
C1457 C1456 1.386 . S
C1457 C1461 1.393 . S
C1458 H1450 0.950 . S
C1458 C1456 1.391 . S
C1458 C1459 1.400 . S
C1459 C1458 1.400 . S
C1459 C1460 1.398 . S
C1459 C1465 1.491 1_655 S
C1460 H1451 0.950 . S
C1460 C1459 1.398 . S
C1460 C1461 1.391 . S
C1461 H1449 0.950 . S
C1461 C1457 1.393 . S
C1461 C1460 1.391 . S
C1462 H1452 0.950 . S
C1462 C1463 1.386 . S
C1462 C1464 1.391 . S
C1463 C1462 1.386 . S
C1463 C1467 1.393 . S
C1464 H1453 0.950 . S
C1464 C1462 1.391 . S
C1464 C1465 1.400 . S
C1465 C1459 1.491 1_455 S
C1465 C1464 1.400 . S
C1465 C1466 1.398 . S
C1466 H1454 0.950 . S
C1466 C1465 1.398 . S
C1466 C1467 1.391 . S
C1467 H1455 0.950 . S
C1467 C1463 1.393 . S
C1467 C1466 1.391 . S
H1468 C1476 0.950 . S
H1469 C1481 0.950 . S
H1470 C1478 0.950 . S
H1471 C1480 0.950 . S
H1472 C1482 0.950 . S
H1473 C1484 0.950 . S
H1474 C1486 0.950 . S
H1475 C1487 0.950 . S
C1476 H1468 0.950 . S
C1476 C1477 1.386 . S
C1476 C1478 1.391 . S
C1477 C1476 1.386 . S
C1477 C1481 1.393 . S
C1478 H1470 0.950 . S
C1478 C1476 1.391 . S
C1478 C1479 1.400 . S
C1479 C1478 1.400 . S
C1479 C1480 1.398 . S
C1479 C1485 1.491 . S
C1480 H1471 0.950 . S
C1480 C1479 1.398 . S
C1480 C1481 1.391 . S
C1481 H1469 0.950 . S
C1481 C1477 1.393 . S
C1481 C1480 1.391 . S
C1482 H1472 0.950 . S
C1482 C1483 1.386 . S
C1482 C1484 1.391 . S
C1483 C1482 1.386 . S
C1483 C1487 1.393 . S
C1484 H1473 0.950 . S
C1484 C1482 1.391 . S
C1484 C1485 1.400 . S
C1485 C1479 1.491 . S
C1485 C1484 1.400 . S
C1485 C1486 1.398 . S
C1486 H1474 0.950 . S
C1486 C1485 1.398 . S
C1486 C1487 1.391 . S
C1487 H1475 0.950 . S
C1487 C1483 1.393 . S
C1487 C1486 1.391 . S
H1488 C1496 0.950 . S
H1489 C1501 0.950 . S
H1490 C1498 0.950 . S
H1491 C1500 0.950 . S
H1492 C1502 0.951 . S
H1493 C1504 0.950 . S
H1494 C1506 0.950 . S
H1495 C1507 0.950 . S
C1496 H1488 0.950 . S
C1496 C1497 1.384 1_554 S
C1496 C1498 1.392 . S
C1497 C1496 1.384 1_556 S
C1497 C1501 1.393 . S
C1498 H1490 0.950 . S
C1498 C1496 1.392 . S
C1498 C1499 1.400 1_554 S
C1499 C1498 1.400 1_556 S
C1499 C1500 1.398 . S
C1499 C1505 1.491 1_556 S
C1500 H1491 0.950 . S
C1500 C1499 1.398 . S
C1500 C1501 1.391 . S
C1501 H1489 0.950 . S
C1501 C1497 1.393 . S
C1501 C1500 1.391 . S
C1502 H1492 0.951 . S
C1502 C1503 1.384 1_556 S
C1502 C1504 1.392 . S
C1503 C1502 1.384 1_554 S
C1503 C1507 1.393 . S
C1504 H1493 0.950 . S
C1504 C1502 1.392 . S
C1504 C1505 1.400 1_556 S
C1505 C1499 1.491 1_554 S
C1505 C1504 1.400 1_554 S
C1505 C1506 1.398 . S
C1506 H1494 0.950 . S
C1506 C1505 1.398 . S
C1506 C1507 1.391 . S
C1507 H1495 0.950 . S
C1507 C1503 1.393 . S
C1507 C1506 1.391 . S
H1508 C1516 0.950 . S
H1509 C1521 0.950 . S
H1510 C1518 0.950 . S
H1511 C1520 0.950 . S
H1512 C1522 0.950 . S
H1513 C1524 0.950 . S
H1514 C1526 0.950 . S
H1515 C1527 0.950 . S
C1516 H1508 0.950 . S
C1516 C1517 1.386 . S
C1516 C1518 1.391 . S
C1517 C1516 1.386 . S
C1517 C1521 1.393 . S
C1518 H1510 0.950 . S
C1518 C1516 1.391 . S
C1518 C1519 1.400 . S
C1519 C1518 1.400 . S
C1519 C1520 1.398 . S
C1519 C1525 1.491 1_455 S
C1520 H1511 0.950 . S
C1520 C1519 1.398 . S
C1520 C1521 1.391 . S
C1521 H1509 0.950 . S
C1521 C1517 1.393 . S
C1521 C1520 1.391 . S
C1522 H1512 0.950 . S
C1522 C1523 1.386 . S
C1522 C1524 1.391 . S
C1523 C1522 1.386 . S
C1523 C1527 1.393 . S
C1524 H1513 0.950 . S
C1524 C1522 1.391 . S
C1524 C1525 1.400 . S
C1525 C1519 1.491 1_655 S
C1525 C1524 1.400 . S
C1525 C1526 1.398 . S
C1526 H1514 0.950 . S
C1526 C1525 1.398 . S
C1526 C1527 1.391 . S
C1527 H1515 0.950 . S
C1527 C1523 1.393 . S
C1527 C1526 1.391 . S
H1528 C1536 0.950 . S
H1529 C1541 0.950 . S
H1530 C1538 0.950 . S
H1531 C1540 0.950 . S
H1532 C1542 0.950 . S
H1533 C1544 0.950 . S
H1534 C1546 0.950 . S
H1535 C1547 0.950 . S
C1536 H1528 0.950 . S
C1536 C1537 1.386 . S
C1536 C1538 1.391 . S
C1537 C1536 1.386 . S
C1537 C1541 1.393 . S
C1538 H1530 0.950 . S
C1538 C1536 1.391 . S
C1538 C1539 1.400 . S
C1539 C1538 1.400 . S
C1539 C1540 1.398 . S
C1539 C1545 1.491 . S
C1540 H1531 0.950 . S
C1540 C1539 1.398 . S
C1540 C1541 1.391 . S
C1541 H1529 0.950 . S
C1541 C1537 1.393 . S
C1541 C1540 1.391 . S
C1542 H1532 0.950 . S
C1542 C1543 1.386 . S
C1542 C1544 1.391 . S
C1543 C1542 1.386 . S
C1543 C1547 1.393 . S
C1544 H1533 0.950 . S
C1544 C1542 1.391 . S
C1544 C1545 1.400 . S
C1545 C1539 1.491 . S
C1545 C1544 1.400 . S
C1545 C1546 1.398 . S
C1546 H1534 0.950 . S
C1546 C1545 1.398 . S
C1546 C1547 1.391 . S
C1547 H1535 0.950 . S
C1547 C1543 1.393 . S
C1547 C1546 1.391 . S
H1548 C1556 0.950 . S
H1549 C1561 0.950 . S
H1550 C1558 0.941 1_545 S
H1551 C1560 0.950 . S
H1552 C1562 0.950 . S
H1553 C1564 0.941 1_565 S
H1554 C1566 0.950 . S
H1555 C1567 0.950 . S
C1556 H1548 0.950 . S
C1556 C1557 1.386 . S
C1556 C1558 1.398 . S
C1557 C1556 1.386 . S
C1557 C1561 1.393 . S
C1558 H1550 0.941 1_565 S
C1558 C1556 1.398 . S
C1558 C1559 1.403 . S
C1559 C1558 1.403 . S
C1559 C1560 1.398 . S
C1559 C1565 1.491 1_465 S
C1560 H1551 0.950 . S
C1560 C1559 1.398 . S
C1560 C1561 1.391 . S
C1561 H1549 0.950 . S
C1561 C1557 1.393 . S
C1561 C1560 1.391 . S
C1562 H1552 0.950 . S
C1562 C1563 1.386 . S
C1562 C1564 1.398 . S
C1563 C1562 1.386 . S
C1563 C1567 1.393 . S
C1564 H1553 0.941 1_545 S
C1564 C1562 1.398 . S
C1564 C1565 1.403 . S
C1565 C1559 1.491 1_645 S
C1565 C1564 1.403 . S
C1565 C1566 1.398 . S
C1566 H1554 0.950 . S
C1566 C1565 1.398 . S
C1566 C1567 1.391 . S
C1567 H1555 0.950 . S
C1567 C1563 1.393 . S
C1567 C1566 1.391 . S
H1568 C1576 0.950 . S
H1569 C1581 0.950 . S
H1570 C1578 0.950 . S
H1571 C1580 0.950 . S
H1572 C1582 0.950 . S
H1573 C1584 0.950 . S
H1574 C1586 0.950 . S
H1575 C1587 0.950 . S
C1576 H1568 0.950 . S
C1576 C1577 1.386 . S
C1576 C1578 1.391 . S
C1577 C1576 1.386 . S
C1577 C1581 1.393 . S
C1578 H1570 0.950 . S
C1578 C1576 1.391 . S
C1578 C1579 1.400 . S
C1579 C1578 1.400 . S
C1579 C1580 1.398 . S
C1579 C1585 1.491 . S
C1580 H1571 0.950 . S
C1580 C1579 1.398 . S
C1580 C1581 1.391 . S
C1581 H1569 0.950 . S
C1581 C1577 1.393 . S
C1581 C1580 1.391 . S
C1582 H1572 0.950 . S
C1582 C1583 1.386 . S
C1582 C1584 1.391 . S
C1583 C1582 1.386 . S
C1583 C1587 1.393 . S
C1584 H1573 0.950 . S
C1584 C1582 1.391 . S
C1584 C1585 1.400 . S
C1585 C1579 1.491 . S
C1585 C1584 1.400 . S
C1585 C1586 1.398 . S
C1586 H1574 0.950 . S
C1586 C1585 1.398 . S
C1586 C1587 1.391 . S
C1587 H1575 0.950 . S
C1587 C1583 1.393 . S
C1587 C1586 1.391 . S
H1588 C1596 0.950 . S
H1589 C1601 0.950 . S
H1590 C1598 0.950 . S
H1591 C1600 0.950 . S
H1592 C1602 0.950 . S
H1593 C1604 0.950 . S
H1594 C1606 0.950 . S
H1595 C1607 0.950 . S
C1596 H1588 0.950 . S
C1596 C1597 1.386 . S
C1596 C1598 1.391 . S
C1597 C1596 1.386 . S
C1597 C1601 1.393 1_545 S
C1598 H1590 0.950 . S
C1598 C1596 1.391 . S
C1598 C1599 1.400 . S
C1599 C1598 1.400 . S
C1599 C1600 1.398 1_545 S
C1599 C1605 1.491 1_545 S
C1600 H1591 0.950 . S
C1600 C1599 1.398 1_565 S
C1600 C1601 1.391 . S
C1601 H1589 0.950 . S
C1601 C1597 1.393 1_565 S
C1601 C1600 1.391 . S
C1602 H1592 0.950 . S
C1602 C1603 1.386 . S
C1602 C1604 1.391 . S
C1603 C1602 1.386 . S
C1603 C1607 1.393 1_565 S
C1604 H1593 0.950 . S
C1604 C1602 1.391 . S
C1604 C1605 1.400 . S
C1605 C1599 1.491 1_565 S
C1605 C1604 1.400 . S
C1605 C1606 1.398 1_565 S
C1606 H1594 0.950 . S
C1606 C1605 1.398 1_545 S
C1606 C1607 1.391 . S
C1607 H1595 0.950 . S
C1607 C1603 1.393 1_545 S
C1607 C1606 1.391 . S
H1608 C1616 0.950 . S
H1609 C1621 0.950 . S
H1610 C1618 0.950 . S
H1611 C1620 0.950 . S
H1612 C1622 0.950 . S
H1613 C1624 0.950 . S
H1614 C1626 0.950 . S
H1615 C1627 0.950 . S
C1616 H1608 0.950 . S
C1616 C1617 1.386 . S
C1616 C1618 1.391 . S
C1617 C1616 1.386 . S
C1617 C1621 1.393 . S
C1618 H1610 0.950 . S
C1618 C1616 1.391 . S
C1618 C1619 1.400 . S
C1619 C1618 1.400 . S
C1619 C1620 1.398 . S
C1619 C1625 1.491 . S
C1620 H1611 0.950 . S
C1620 C1619 1.398 . S
C1620 C1621 1.391 . S
C1621 H1609 0.950 . S
C1621 C1617 1.393 . S
C1621 C1620 1.391 . S
C1622 H1612 0.950 . S
C1622 C1623 1.386 . S
C1622 C1624 1.391 . S
C1623 C1622 1.386 . S
C1623 C1627 1.393 . S
C1624 H1613 0.950 . S
C1624 C1622 1.391 . S
C1624 C1625 1.400 . S
C1625 C1619 1.491 . S
C1625 C1624 1.400 . S
C1625 C1626 1.398 . S
C1626 H1614 0.950 . S
C1626 C1625 1.398 . S
C1626 C1627 1.391 . S
C1627 H1615 0.950 . S
C1627 C1623 1.393 . S
C1627 C1626 1.391 . S
H1628 C1636 0.950 . S
H1629 C1641 0.950 . S
H1630 C1638 0.950 . S
H1631 C1640 0.950 . S
H1632 C1642 0.950 . S
H1633 C1644 0.950 . S
H1634 C1646 0.950 . S
H1635 C1647 0.950 . S
C1636 H1628 0.950 . S
C1636 C1637 1.386 . S
C1636 C1638 1.391 . S
C1637 C1636 1.386 . S
C1637 C1641 1.393 1_545 S
C1638 H1630 0.950 . S
C1638 C1636 1.391 . S
C1638 C1639 1.400 . S
C1639 C1638 1.400 . S
C1639 C1640 1.398 1_545 S
C1639 C1645 1.491 1_545 S
C1640 H1631 0.950 . S
C1640 C1639 1.398 1_565 S
C1640 C1641 1.391 . S
C1641 H1629 0.950 . S
C1641 C1637 1.393 1_565 S
C1641 C1640 1.391 . S
C1642 H1632 0.950 . S
C1642 C1643 1.386 . S
C1642 C1644 1.391 . S
C1643 C1642 1.386 . S
C1643 C1647 1.393 1_565 S
C1644 H1633 0.950 . S
C1644 C1642 1.391 . S
C1644 C1645 1.400 . S
C1645 C1639 1.491 1_565 S
C1645 C1644 1.400 . S
C1645 C1646 1.398 1_565 S
C1646 H1634 0.950 . S
C1646 C1645 1.398 1_545 S
C1646 C1647 1.391 . S
C1647 H1635 0.950 . S
C1647 C1643 1.393 1_545 S
C1647 C1646 1.391 . S
H1648 C1656 0.950 . S
H1649 C1661 0.950 . S
H1650 C1658 0.950 . S
H1651 C1660 0.950 . S
H1652 C1662 0.950 . S
H1653 C1664 0.950 . S
H1654 C1666 0.950 . S
H1655 C1667 0.950 . S
C1656 H1648 0.950 . S
C1656 C1657 1.386 . S
C1656 C1658 1.391 . S
C1657 C1656 1.386 . S
C1657 C1661 1.393 . S
C1658 H1650 0.950 . S
C1658 C1656 1.391 . S
C1658 C1659 1.400 . S
C1659 C1658 1.400 . S
C1659 C1660 1.398 . S
C1659 C1665 1.491 . S
C1660 H1651 0.950 . S
C1660 C1659 1.398 . S
C1660 C1661 1.391 . S
C1661 H1649 0.950 . S
C1661 C1657 1.393 . S
C1661 C1660 1.391 . S
C1662 H1652 0.950 . S
C1662 C1663 1.386 . S
C1662 C1664 1.391 . S
C1663 C1662 1.386 . S
C1663 C1667 1.393 . S
C1664 H1653 0.950 . S
C1664 C1662 1.391 . S
C1664 C1665 1.400 . S
C1665 C1659 1.491 . S
C1665 C1664 1.400 . S
C1665 C1666 1.398 . S
C1666 H1654 0.950 . S
C1666 C1665 1.398 . S
C1666 C1667 1.391 . S
C1667 H1655 0.950 . S
C1667 C1663 1.393 . S
C1667 C1666 1.391 . S
H1668 C1676 0.950 . S
H1669 C1681 0.950 . S
H1670 C1678 0.950 . S
H1671 C1680 0.950 . S
H1672 C1682 0.950 . S
H1673 C1684 0.950 . S
H1674 C1686 0.950 . S
H1675 C1687 0.950 . S
C1676 H1668 0.950 . S
C1676 C1677 1.386 . S
C1676 C1678 1.391 . S
C1677 C1676 1.386 . S
C1677 C1681 1.393 . S
C1678 H1670 0.950 . S
C1678 C1676 1.391 . S
C1678 C1679 1.400 . S
C1679 C1678 1.400 . S
C1679 C1680 1.398 . S
C1679 C1685 1.491 . S
C1680 H1671 0.950 . S
C1680 C1679 1.398 . S
C1680 C1681 1.391 . S
C1681 H1669 0.950 . S
C1681 C1677 1.393 . S
C1681 C1680 1.391 . S
C1682 H1672 0.950 . S
C1682 C1683 1.386 . S
C1682 C1684 1.391 . S
C1683 C1682 1.386 . S
C1683 C1687 1.393 . S
C1684 H1673 0.950 . S
C1684 C1682 1.391 . S
C1684 C1685 1.400 . S
C1685 C1679 1.491 . S
C1685 C1684 1.400 . S
C1685 C1686 1.398 . S
C1686 H1674 0.950 . S
C1686 C1685 1.398 . S
C1686 C1687 1.391 . S
C1687 H1675 0.950 . S
C1687 C1683 1.393 . S
C1687 C1686 1.391 . S
H1688 C1696 0.950 . S
H1689 C1701 0.950 . S
H1690 C1698 0.950 . S
H1691 C1700 0.950 . S
H1692 C1702 0.950 . S
H1693 C1704 0.950 . S
H1694 C1706 0.950 . S
H1695 C1707 0.950 . S
C1696 H1688 0.950 . S
C1696 C1697 1.386 . S
C1696 C1698 1.391 . S
C1697 C1696 1.386 . S
C1697 C1701 1.393 . S
C1698 H1690 0.950 . S
C1698 C1696 1.391 . S
C1698 C1699 1.400 . S
C1699 C1698 1.400 . S
C1699 C1700 1.398 . S
C1699 C1705 1.491 . S
C1700 H1691 0.950 . S
C1700 C1699 1.398 . S
C1700 C1701 1.391 . S
C1701 H1689 0.950 . S
C1701 C1697 1.393 . S
C1701 C1700 1.391 . S
C1702 H1692 0.950 . S
C1702 C1703 1.386 . S
C1702 C1704 1.391 . S
C1703 C1702 1.386 . S
C1703 C1707 1.393 . S
C1704 H1693 0.950 . S
C1704 C1702 1.391 . S
C1704 C1705 1.400 . S
C1705 C1699 1.491 . S
C1705 C1704 1.400 . S
C1705 C1706 1.398 . S
C1706 H1694 0.950 . S
C1706 C1705 1.398 . S
C1706 C1707 1.391 . S
C1707 H1695 0.950 . S
C1707 C1703 1.393 . S
C1707 C1706 1.391 . S
H1708 C1716 0.950 . S
H1709 C1721 0.950 . S
H1710 C1718 0.950 . S
H1711 C1720 0.950 . S
H1712 C1722 0.950 . S
H1713 C1724 0.950 . S
H1714 C1726 0.950 . S
H1715 C1727 0.950 . S
C1716 H1708 0.950 . S
C1716 C1717 1.386 1_565 S
C1716 C1718 1.391 . S
C1717 C1716 1.386 1_545 S
C1717 C1721 1.393 1_556 S
C1718 H1710 0.950 . S
C1718 C1716 1.391 . S
C1718 C1719 1.400 1_565 S
C1719 C1718 1.400 1_545 S
C1719 C1720 1.398 1_556 S
C1719 C1725 1.491 1_546 S
C1720 H1711 0.950 . S
C1720 C1719 1.398 1_554 S
C1720 C1721 1.391 . S
C1721 H1709 0.950 . S
C1721 C1717 1.393 1_554 S
C1721 C1720 1.391 . S
C1722 H1712 0.950 . S
C1722 C1723 1.386 1_545 S
C1722 C1724 1.391 . S
C1723 C1722 1.386 1_565 S
C1723 C1727 1.393 1_554 S
C1724 H1713 0.950 . S
C1724 C1722 1.391 . S
C1724 C1725 1.400 1_545 S
C1725 C1719 1.491 1_564 S
C1725 C1724 1.400 1_565 S
C1725 C1726 1.398 1_554 S
C1726 H1714 0.950 . S
C1726 C1725 1.398 1_556 S
C1726 C1727 1.391 . S
C1727 H1715 0.950 . S
C1727 C1723 1.393 1_556 S
C1727 C1726 1.391 . S
H1728 C1736 0.950 . S
H1729 C1741 0.950 . S
H1730 C1738 0.950 . S
H1731 C1740 0.950 . S
H1732 C1742 0.950 . S
H1733 C1744 0.950 . S
H1734 C1746 0.950 . S
H1735 C1747 0.950 . S
C1736 H1728 0.950 . S
C1736 C1737 1.386 . S
C1736 C1738 1.391 . S
C1737 C1736 1.386 . S
C1737 C1741 1.393 . S
C1738 H1730 0.950 . S
C1738 C1736 1.391 . S
C1738 C1739 1.400 . S
C1739 C1738 1.400 . S
C1739 C1740 1.398 . S
C1739 C1745 1.491 . S
C1740 H1731 0.950 . S
C1740 C1739 1.398 . S
C1740 C1741 1.391 . S
C1741 H1729 0.950 . S
C1741 C1737 1.393 . S
C1741 C1740 1.391 . S
C1742 H1732 0.950 . S
C1742 C1743 1.386 . S
C1742 C1744 1.391 . S
C1743 C1742 1.386 . S
C1743 C1747 1.393 . S
C1744 H1733 0.950 . S
C1744 C1742 1.391 . S
C1744 C1745 1.400 . S
C1745 C1739 1.491 . S
C1745 C1744 1.400 . S
C1745 C1746 1.398 . S
C1746 H1734 0.950 . S
C1746 C1745 1.398 . S
C1746 C1747 1.391 . S
C1747 H1735 0.950 . S
C1747 C1743 1.393 . S
C1747 C1746 1.391 . S
H1748 C1756 0.950 . S
H1749 C1761 0.950 . S
H1750 C1758 0.950 . S
H1751 C1760 0.950 . S
H1752 C1762 0.950 . S
H1753 C1764 0.950 . S
H1754 C1766 0.950 . S
H1755 C1767 0.950 . S
C1756 H1748 0.950 . S
C1756 C1757 1.386 . S
C1756 C1758 1.391 . S
C1757 C1756 1.386 . S
C1757 C1761 1.393 . S
C1758 H1750 0.950 . S
C1758 C1756 1.391 . S
C1758 C1759 1.400 . S
C1759 C1758 1.400 . S
C1759 C1760 1.398 . S
C1759 C1765 1.491 . S
C1760 H1751 0.950 . S
C1760 C1759 1.398 . S
C1760 C1761 1.391 . S
C1761 H1749 0.950 . S
C1761 C1757 1.393 . S
C1761 C1760 1.391 . S
C1762 H1752 0.950 . S
C1762 C1763 1.386 . S
C1762 C1764 1.391 . S
C1763 C1762 1.386 . S
C1763 C1767 1.393 . S
C1764 H1753 0.950 . S
C1764 C1762 1.391 . S
C1764 C1765 1.400 . S
C1765 C1759 1.491 . S
C1765 C1764 1.400 . S
C1765 C1766 1.398 . S
C1766 H1754 0.950 . S
C1766 C1765 1.398 . S
C1766 C1767 1.391 . S
C1767 H1755 0.950 . S
C1767 C1763 1.393 . S
C1767 C1766 1.391 . S
H1768 C1776 0.950 . S
H1769 C1781 0.950 1_554 S
H1770 C1778 0.950 . S
H1771 C1780 0.950 . S
H1772 C1782 0.950 . S
H1773 C1784 0.950 . S
H1774 C1786 0.950 . S
H1775 C1787 0.950 . S
C1776 H1768 0.950 . S
C1776 C1777 1.386 . S
C1776 C1778 1.391 . S
C1777 C1776 1.386 . S
C1777 C1781 1.393 . S
C1778 H1770 0.950 . S
C1778 C1776 1.391 . S
C1778 C1779 1.400 . S
C1779 C1778 1.400 . S
C1779 C1780 1.398 . S
C1779 C1785 1.491 . S
C1780 H1771 0.950 . S
C1780 C1779 1.398 . S
C1780 C1781 1.391 . S
C1781 H1769 0.950 1_556 S
C1781 C1777 1.393 . S
C1781 C1780 1.391 . S
C1782 H1772 0.950 . S
C1782 C1783 1.386 . S
C1782 C1784 1.391 . S
C1783 C1782 1.386 . S
C1783 C1787 1.393 . S
C1784 H1773 0.950 . S
C1784 C1782 1.391 . S
C1784 C1785 1.400 . S
C1785 C1779 1.491 . S
C1785 C1784 1.400 . S
C1785 C1786 1.398 . S
C1786 H1774 0.950 . S
C1786 C1785 1.398 . S
C1786 C1787 1.391 . S
C1787 H1775 0.950 . S
C1787 C1783 1.393 . S
C1787 C1786 1.391 . S
H1788 C1796 0.950 . S
H1789 C1801 0.950 . S
H1790 C1798 0.950 . S
H1791 C1800 0.950 . S
H1792 C1802 0.950 . S
H1793 C1804 0.950 . S
H1794 C1806 0.950 . S
H1795 C1807 0.950 . S
C1796 H1788 0.950 . S
C1796 C1797 1.386 . S
C1796 C1798 1.391 . S
C1797 C1796 1.386 . S
C1797 C1801 1.393 . S
C1798 H1790 0.950 . S
C1798 C1796 1.391 . S
C1798 C1799 1.400 . S
C1799 C1798 1.400 . S
C1799 C1800 1.398 . S
C1799 C1805 1.491 . S
C1800 H1791 0.950 . S
C1800 C1799 1.398 . S
C1800 C1801 1.391 . S
C1801 H1789 0.950 . S
C1801 C1797 1.393 . S
C1801 C1800 1.391 . S
C1802 H1792 0.950 . S
C1802 C1803 1.386 . S
C1802 C1804 1.391 . S
C1803 C1802 1.386 . S
C1803 C1807 1.393 . S
C1804 H1793 0.950 . S
C1804 C1802 1.391 . S
C1804 C1805 1.400 . S
C1805 C1799 1.491 . S
C1805 C1804 1.400 . S
C1805 C1806 1.398 . S
C1806 H1794 0.950 . S
C1806 C1805 1.398 . S
C1806 C1807 1.391 . S
C1807 H1795 0.950 . S
C1807 C1803 1.393 . S
C1807 C1806 1.391 . S
H1808 C1816 0.950 . S
H1809 C1821 0.950 . S
H1810 C1818 0.950 . S
H1811 C1820 0.950 . S
H1812 C1822 0.950 . S
H1813 C1824 0.950 . S
H1814 C1826 0.950 . S
H1815 C1827 0.950 . S
C1816 H1808 0.950 . S
C1816 C1817 1.386 . S
C1816 C1818 1.391 . S
C1817 C1816 1.386 . S
C1817 C1821 1.393 . S
C1818 H1810 0.950 . S
C1818 C1816 1.391 . S
C1818 C1819 1.400 . S
C1819 C1818 1.400 . S
C1819 C1820 1.398 . S
C1819 C1825 1.491 . S
C1820 H1811 0.950 . S
C1820 C1819 1.398 . S
C1820 C1821 1.391 . S
C1821 H1809 0.950 . S
C1821 C1817 1.393 . S
C1821 C1820 1.391 . S
C1822 H1812 0.950 . S
C1822 C1823 1.386 . S
C1822 C1824 1.391 . S
C1823 C1822 1.386 . S
C1823 C1827 1.393 . S
C1824 H1813 0.950 . S
C1824 C1822 1.391 . S
C1824 C1825 1.400 . S
C1825 C1819 1.491 . S
C1825 C1824 1.400 . S
C1825 C1826 1.398 . S
C1826 H1814 0.950 . S
C1826 C1825 1.398 . S
C1826 C1827 1.391 . S
C1827 H1815 0.950 . S
C1827 C1823 1.393 . S
C1827 C1826 1.391 . S
H1828 C1836 0.950 . S
H1829 C1841 0.950 . S
H1830 C1838 0.950 . S
H1831 C1840 0.950 . S
H1832 C1842 0.950 . S
H1833 C1844 0.950 . S
H1834 C1846 0.950 . S
H1835 C1847 0.950 . S
C1836 H1828 0.950 . S
C1836 C1837 1.386 . S
C1836 C1838 1.391 . S
C1837 C1836 1.386 . S
C1837 C1841 1.393 . S
C1838 H1830 0.950 . S
C1838 C1836 1.391 . S
C1838 C1839 1.400 . S
C1839 C1838 1.400 . S
C1839 C1840 1.398 . S
C1839 C1845 1.491 . S
C1840 H1831 0.950 . S
C1840 C1839 1.398 . S
C1840 C1841 1.391 . S
C1841 H1829 0.950 . S
C1841 C1837 1.393 . S
C1841 C1840 1.391 . S
C1842 H1832 0.950 . S
C1842 C1843 1.386 . S
C1842 C1844 1.391 . S
C1843 C1842 1.386 . S
C1843 C1847 1.393 . S
C1844 H1833 0.950 . S
C1844 C1842 1.391 . S
C1844 C1845 1.400 . S
C1845 C1839 1.491 . S
C1845 C1844 1.400 . S
C1845 C1846 1.398 . S
C1846 H1834 0.950 . S
C1846 C1845 1.398 . S
C1846 C1847 1.391 . S
C1847 H1835 0.950 . S
C1847 C1843 1.393 . S
C1847 C1846 1.391 . S
H1848 C1856 0.950 . S
H1849 C1861 0.950 . S
H1850 C1858 0.950 . S
H1851 C1860 0.950 . S
H1852 C1862 0.950 . S
H1853 C1864 0.950 . S
H1854 C1866 0.950 . S
H1855 C1867 0.950 . S
C1856 H1848 0.950 . S
C1856 C1857 1.386 . S
C1856 C1858 1.391 . S
C1857 C1856 1.386 . S
C1857 C1861 1.393 1_554 S
C1858 H1850 0.950 . S
C1858 C1856 1.391 . S
C1858 C1859 1.400 . S
C1859 C1858 1.400 . S
C1859 C1860 1.398 . S
C1859 C1865 1.491 . S
C1860 H1851 0.950 . S
C1860 C1859 1.398 . S
C1860 C1861 1.391 1_554 S
C1861 H1849 0.950 . S
C1861 C1857 1.393 1_556 S
C1861 C1860 1.391 1_556 S
C1862 H1852 0.950 . S
C1862 C1863 1.386 . S
C1862 C1864 1.391 . S
C1863 C1862 1.386 . S
C1863 C1867 1.393 . S
C1864 H1853 0.950 . S
C1864 C1862 1.391 . S
C1864 C1865 1.400 . S
C1865 C1859 1.491 . S
C1865 C1864 1.400 . S
C1865 C1866 1.398 . S
C1866 H1854 0.950 . S
C1866 C1865 1.398 . S
C1866 C1867 1.391 . S
C1867 H1855 0.950 . S
C1867 C1863 1.393 . S
C1867 C1866 1.391 . S
H1868 C1876 0.950 . S
H1869 C1881 0.950 . S
H1870 C1878 0.950 . S
H1871 C1880 0.950 . S
H1872 C1882 0.950 1_556 S
H1873 C1884 0.950 . S
H1874 C1886 0.950 . S
H1875 C1887 0.950 . S
C1876 H1868 0.950 . S
C1876 C1877 1.386 . S
C1876 C1878 1.391 . S
C1877 C1876 1.386 . S
C1877 C1881 1.393 . S
C1878 H1870 0.950 . S
C1878 C1876 1.391 . S
C1878 C1879 1.400 . S
C1879 C1878 1.400 . S
C1879 C1880 1.398 . S
C1879 C1885 1.491 . S
C1880 H1871 0.950 . S
C1880 C1879 1.398 . S
C1880 C1881 1.391 . S
C1881 H1869 0.950 . S
C1881 C1877 1.393 . S
C1881 C1880 1.391 . S
C1882 H1872 0.950 1_554 S
C1882 C1883 1.386 . S
C1882 C1884 1.391 . S
C1883 C1882 1.386 . S
C1883 C1887 1.393 . S
C1884 H1873 0.950 . S
C1884 C1882 1.391 . S
C1884 C1885 1.400 . S
C1885 C1879 1.491 . S
C1885 C1884 1.400 . S
C1885 C1886 1.398 . S
C1886 H1874 0.950 . S
C1886 C1885 1.398 . S
C1886 C1887 1.391 . S
C1887 H1875 0.950 . S
C1887 C1883 1.393 . S
C1887 C1886 1.391 . S
H1888 C1896 0.950 . S
H1889 C1901 0.950 . S
H1890 C1898 0.950 . S
H1891 C1900 0.950 . S
H1892 C1902 0.950 . S
H1893 C1904 0.950 . S
H1894 C1906 0.950 . S
H1895 C1907 0.950 . S
C1896 H1888 0.950 . S
C1896 C1897 1.386 . S
C1896 C1898 1.391 . S
C1897 C1896 1.386 . S
C1897 C1901 1.393 . S
C1898 H1890 0.950 . S
C1898 C1896 1.391 . S
C1898 C1899 1.400 . S
C1899 C1898 1.400 . S
C1899 C1900 1.398 . S
C1899 C1905 1.491 . S
C1900 H1891 0.950 . S
C1900 C1899 1.398 . S
C1900 C1901 1.391 . S
C1901 H1889 0.950 . S
C1901 C1897 1.393 . S
C1901 C1900 1.391 . S
C1902 H1892 0.950 . S
C1902 C1903 1.386 . S
C1902 C1904 1.391 . S
C1903 C1902 1.386 . S
C1903 C1907 1.393 . S
C1904 H1893 0.950 . S
C1904 C1902 1.391 . S
C1904 C1905 1.400 . S
C1905 C1899 1.491 . S
C1905 C1904 1.400 . S
C1905 C1906 1.398 . S
C1906 H1894 0.950 . S
C1906 C1905 1.398 . S
C1906 C1907 1.391 . S
C1907 H1895 0.950 . S
C1907 C1903 1.393 . S
C1907 C1906 1.391 . S
H1908 C1916 0.950 . S
H1909 C1921 0.950 . S
H1910 C1918 0.950 . S
H1911 C1920 0.950 . S
H1912 C1922 0.950 . S
H1913 C1924 0.950 . S
H1914 C1926 0.950 . S
H1915 C1927 0.950 . S
C1916 H1908 0.950 . S
C1916 C1917 1.386 . S
C1916 C1918 1.391 . S
C1917 C1916 1.386 . S
C1917 C1921 1.393 . S
C1918 H1910 0.950 . S
C1918 C1916 1.391 . S
C1918 C1919 1.400 . S
C1919 C1918 1.400 . S
C1919 C1920 1.398 . S
C1919 C1925 1.491 . S
C1920 H1911 0.950 . S
C1920 C1919 1.398 . S
C1920 C1921 1.391 . S
C1921 H1909 0.950 . S
C1921 C1917 1.393 . S
C1921 C1920 1.391 . S
C1922 H1912 0.950 . S
C1922 C1923 1.386 1_554 S
C1922 C1924 1.391 1_554 S
C1923 C1922 1.386 1_556 S
C1923 C1927 1.393 . S
C1924 H1913 0.950 . S
C1924 C1922 1.391 1_556 S
C1924 C1925 1.400 . S
C1925 C1919 1.491 . S
C1925 C1924 1.400 . S
C1925 C1926 1.398 . S
C1926 H1914 0.950 . S
C1926 C1925 1.398 . S
C1926 C1927 1.391 . S
C1927 H1915 0.950 . S
C1927 C1923 1.393 . S
C1927 C1926 1.391 . S
H1928 C1936 0.950 . S
H1929 C1941 0.950 . S
H1930 C1938 0.950 . S
H1931 C1940 0.950 . S
H1932 C1942 0.950 . S
H1933 C1944 0.950 . S
H1934 C1946 0.950 . S
H1935 C1947 0.950 . S
C1936 H1928 0.950 . S
C1936 C1937 1.386 . S
C1936 C1938 1.391 . S
C1937 C1936 1.386 . S
C1937 C1941 1.393 . S
C1938 H1930 0.950 . S
C1938 C1936 1.391 . S
C1938 C1939 1.400 . S
C1939 C1938 1.400 . S
C1939 C1940 1.398 . S
C1939 C1945 1.491 . S
C1940 H1931 0.950 . S
C1940 C1939 1.398 . S
C1940 C1941 1.391 . S
C1941 H1929 0.950 . S
C1941 C1937 1.393 . S
C1941 C1940 1.391 . S
C1942 H1932 0.950 . S
C1942 C1943 1.386 . S
C1942 C1944 1.391 . S
C1943 C1942 1.386 . S
C1943 C1947 1.393 . S
C1944 H1933 0.950 . S
C1944 C1942 1.391 . S
C1944 C1945 1.400 . S
C1945 C1939 1.491 . S
C1945 C1944 1.400 . S
C1945 C1946 1.398 . S
C1946 H1934 0.950 . S
C1946 C1945 1.398 . S
C1946 C1947 1.391 . S
C1947 H1935 0.950 . S
C1947 C1943 1.393 . S
C1947 C1946 1.391 . S
H1948 C1956 0.950 . S
H1949 C1961 0.950 . S
H1950 C1958 0.950 . S
H1951 C1960 0.950 . S
H1952 C1962 0.950 . S
H1953 C1964 0.950 . S
H1954 C1966 0.950 . S
H1955 C1967 0.950 . S
C1956 H1948 0.950 . S
C1956 C1957 1.386 . S
C1956 C1958 1.391 . S
C1957 C1956 1.386 . S
C1957 C1961 1.393 . S
C1958 H1950 0.950 . S
C1958 C1956 1.391 . S
C1958 C1959 1.400 . S
C1959 C1958 1.400 . S
C1959 C1960 1.398 . S
C1959 C1965 1.491 . S
C1960 H1951 0.950 . S
C1960 C1959 1.398 . S
C1960 C1961 1.391 . S
C1961 H1949 0.950 . S
C1961 C1957 1.393 . S
C1961 C1960 1.391 . S
C1962 H1952 0.950 . S
C1962 C1963 1.386 . S
C1962 C1964 1.391 . S
C1963 C1962 1.386 . S
C1963 C1967 1.393 . S
C1964 H1953 0.950 . S
C1964 C1962 1.391 . S
C1964 C1965 1.400 . S
C1965 C1959 1.491 . S
C1965 C1964 1.400 . S
C1965 C1966 1.398 . S
C1966 H1954 0.950 . S
C1966 C1965 1.398 . S
C1966 C1967 1.391 . S
C1967 H1955 0.950 . S
C1967 C1963 1.393 . S
C1967 C1966 1.391 . S
H1968 C1976 0.950 . S
H1969 C1981 0.950 . S
H1970 C1978 0.950 . S
H1971 C1980 0.950 . S
H1972 C1982 0.950 . S
H1973 C1984 0.950 . S
H1974 C1986 0.950 . S
H1975 C1987 0.950 . S
C1976 H1968 0.950 . S
C1976 C1977 1.386 . S
C1976 C1978 1.391 . S
C1977 C1976 1.386 . S
C1977 C1981 1.393 . S
C1978 H1970 0.950 . S
C1978 C1976 1.391 . S
C1978 C1979 1.400 . S
C1979 C1978 1.400 . S
C1979 C1980 1.398 . S
C1979 C1985 1.491 . S
C1980 H1971 0.950 . S
C1980 C1979 1.398 . S
C1980 C1981 1.391 . S
C1981 H1969 0.950 . S
C1981 C1977 1.393 . S
C1981 C1980 1.391 . S
C1982 H1972 0.950 . S
C1982 C1983 1.386 . S
C1982 C1984 1.391 . S
C1983 C1982 1.386 . S
C1983 C1987 1.393 1_554 S
C1984 H1973 0.950 . S
C1984 C1982 1.391 . S
C1984 C1985 1.400 . S
C1985 C1979 1.491 . S
C1985 C1984 1.400 . S
C1985 C1986 1.398 . S
C1986 H1974 0.950 . S
C1986 C1985 1.398 . S
C1986 C1987 1.391 1_554 S
C1987 H1975 0.950 . S
C1987 C1983 1.393 1_556 S
C1987 C1986 1.391 1_556 S
H1988 C1996 0.950 . S
H1989 C2001 0.950 . S
H1990 C1998 0.950 . S
H1991 C2000 0.950 . S
H1992 C2002 0.950 . S
H1993 C2004 0.950 . S
H1994 C2006 0.950 . S
H1995 C2007 0.950 . S
C1996 H1988 0.950 . S
C1996 C1997 1.386 . S
C1996 C1998 1.391 . S
C1997 C1996 1.386 . S
C1997 C2001 1.393 . S
C1998 H1990 0.950 . S
C1998 C1996 1.391 . S
C1998 C1999 1.400 . S
C1999 C1998 1.400 . S
C1999 C2000 1.398 . S
C1999 C2005 1.491 . S
C2000 H1991 0.950 . S
C2000 C1999 1.398 . S
C2000 C2001 1.391 . S
C2001 H1989 0.950 . S
C2001 C1997 1.393 . S
C2001 C2000 1.391 . S
C2002 H1992 0.950 . S
C2002 C2003 1.386 . S
C2002 C2004 1.391 . S
C2003 C2002 1.386 . S
C2003 C2007 1.393 . S
C2004 H1993 0.950 . S
C2004 C2002 1.391 . S
C2004 C2005 1.400 . S
C2005 C1999 1.491 . S
C2005 C2004 1.400 . S
C2005 C2006 1.398 . S
C2006 H1994 0.950 . S
C2006 C2005 1.398 . S
C2006 C2007 1.391 . S
C2007 H1995 0.950 . S
C2007 C2003 1.393 . S
C2007 C2006 1.391 . S
H2008 C2016 0.950 . S
H2009 C2021 0.950 . S
H2010 C2018 0.950 . S
H2011 C2020 0.950 . S
H2012 C2022 0.950 . S
H2013 C2024 0.950 . S
H2014 C2026 0.950 . S
H2015 C2027 0.950 . S
C2016 H2008 0.950 . S
C2016 C2017 1.386 . S
C2016 C2018 1.391 . S
C2017 C2016 1.386 . S
C2017 C2021 1.393 . S
C2018 H2010 0.950 . S
C2018 C2016 1.391 . S
C2018 C2019 1.400 . S
C2019 C2018 1.400 . S
C2019 C2020 1.398 . S
C2019 C2025 1.491 . S
C2020 H2011 0.950 . S
C2020 C2019 1.398 . S
C2020 C2021 1.391 . S
C2021 H2009 0.950 . S
C2021 C2017 1.393 . S
C2021 C2020 1.391 . S
C2022 H2012 0.950 . S
C2022 C2023 1.386 . S
C2022 C2024 1.391 . S
C2023 C2022 1.386 . S
C2023 C2027 1.393 . S
C2024 H2013 0.950 . S
C2024 C2022 1.391 . S
C2024 C2025 1.400 . S
C2025 C2019 1.491 . S
C2025 C2024 1.400 . S
C2025 C2026 1.398 . S
C2026 H2014 0.950 . S
C2026 C2025 1.398 . S
C2026 C2027 1.391 . S
C2027 H2015 0.950 . S
C2027 C2023 1.393 . S
C2027 C2026 1.391 . S
H2028 C2036 0.950 . S
H2029 C2041 0.950 . S
H2030 C2038 0.950 . S
H2031 C2040 0.950 . S
H2032 C2042 0.950 . S
H2033 C2044 0.950 . S
H2034 C2046 0.950 . S
H2035 C2047 0.950 . S
C2036 H2028 0.950 . S
C2036 C2037 1.386 . S
C2036 C2038 1.391 . S
C2037 C2036 1.386 . S
C2037 C2041 1.393 . S
C2038 H2030 0.950 . S
C2038 C2036 1.391 . S
C2038 C2039 1.400 . S
C2039 C2038 1.400 . S
C2039 C2040 1.398 . S
C2039 C2045 1.491 . S
C2040 H2031 0.950 . S
C2040 C2039 1.398 . S
C2040 C2041 1.391 . S
C2041 H2029 0.950 . S
C2041 C2037 1.393 . S
C2041 C2040 1.391 . S
C2042 H2032 0.950 . S
C2042 C2043 1.386 . S
C2042 C2044 1.391 . S
C2043 C2042 1.386 . S
C2043 C2047 1.393 . S
C2044 H2033 0.950 . S
C2044 C2042 1.391 . S
C2044 C2045 1.400 . S
C2045 C2039 1.491 . S
C2045 C2044 1.400 . S
C2045 C2046 1.398 . S
C2046 H2034 0.950 . S
C2046 C2045 1.398 . S
C2046 C2047 1.391 . S
C2047 H2035 0.950 . S
C2047 C2043 1.393 . S
C2047 C2046 1.391 . S
H2048 C2056 0.950 . S
H2049 C2061 0.950 . S
H2050 C2058 0.950 . S
H2051 C2060 0.950 . S
H2052 C2062 0.950 . S
H2053 C2064 0.950 . S
H2054 C2066 0.950 . S
H2055 C2067 0.950 1_554 S
C2056 H2048 0.950 . S
C2056 C2057 1.386 . S
C2056 C2058 1.391 . S
C2057 C2056 1.386 . S
C2057 C2061 1.393 . S
C2058 H2050 0.950 . S
C2058 C2056 1.391 . S
C2058 C2059 1.400 . S
C2059 C2058 1.400 . S
C2059 C2060 1.398 . S
C2059 C2065 1.491 . S
C2060 H2051 0.950 . S
C2060 C2059 1.398 . S
C2060 C2061 1.391 . S
C2061 H2049 0.950 . S
C2061 C2057 1.393 . S
C2061 C2060 1.391 . S
C2062 H2052 0.950 . S
C2062 C2063 1.386 . S
C2062 C2064 1.391 . S
C2063 C2062 1.386 . S
C2063 C2067 1.393 . S
C2064 H2053 0.950 . S
C2064 C2062 1.391 . S
C2064 C2065 1.400 . S
C2065 C2059 1.491 . S
C2065 C2064 1.400 . S
C2065 C2066 1.398 . S
C2066 H2054 0.950 . S
C2066 C2065 1.398 . S
C2066 C2067 1.391 . S
C2067 H2055 0.950 1_556 S
C2067 C2063 1.393 . S
C2067 C2066 1.391 . S
H2068 C2076 0.950 . S
H2069 C2081 0.950 1_554 S
H2070 C2078 0.950 . S
H2071 C2080 0.950 . S
H2072 C2082 0.950 . S
H2073 C2084 0.950 . S
H2074 C2086 0.950 . S
H2075 C2087 0.950 . S
C2076 H2068 0.950 . S
C2076 C2077 1.386 . S
C2076 C2078 1.391 . S
C2077 C2076 1.386 . S
C2077 C2081 1.393 . S
C2078 H2070 0.950 . S
C2078 C2076 1.391 . S
C2078 C2079 1.400 . S
C2079 C2078 1.400 . S
C2079 C2080 1.398 . S
C2079 C2085 1.491 . S
C2080 H2071 0.950 . S
C2080 C2079 1.398 . S
C2080 C2081 1.391 . S
C2081 H2069 0.950 1_556 S
C2081 C2077 1.393 . S
C2081 C2080 1.391 . S
C2082 H2072 0.950 . S
C2082 C2083 1.386 . S
C2082 C2084 1.391 . S
C2083 C2082 1.386 . S
C2083 C2087 1.393 . S
C2084 H2073 0.950 . S
C2084 C2082 1.391 . S
C2084 C2085 1.400 . S
C2085 C2079 1.491 . S
C2085 C2084 1.400 . S
C2085 C2086 1.398 . S
C2086 H2074 0.950 . S
C2086 C2085 1.398 . S
C2086 C2087 1.391 . S
C2087 H2075 0.950 . S
C2087 C2083 1.393 . S
C2087 C2086 1.391 . S
H2088 C2096 0.950 . S
H2089 C2101 0.950 . S
H2090 C2098 0.950 . S
H2091 C2100 0.950 . S
H2092 C2102 0.950 . S
H2093 C2104 0.950 . S
H2094 C2106 0.950 . S
H2095 C2107 0.950 . S
C2096 H2088 0.950 . S
C2096 C2097 1.386 . S
C2096 C2098 1.391 . S
C2097 C2096 1.386 . S
C2097 C2101 1.393 . S
C2098 H2090 0.950 . S
C2098 C2096 1.391 . S
C2098 C2099 1.400 . S
C2099 C2098 1.400 . S
C2099 C2100 1.398 . S
C2099 C2105 1.491 . S
C2100 H2091 0.950 . S
C2100 C2099 1.398 . S
C2100 C2101 1.391 . S
C2101 H2089 0.950 . S
C2101 C2097 1.393 . S
C2101 C2100 1.391 . S
C2102 H2092 0.950 . S
C2102 C2103 1.386 . S
C2102 C2104 1.391 . S
C2103 C2102 1.386 . S
C2103 C2107 1.393 . S
C2104 H2093 0.950 . S
C2104 C2102 1.391 . S
C2104 C2105 1.400 . S
C2105 C2099 1.491 . S
C2105 C2104 1.400 . S
C2105 C2106 1.398 . S
C2106 H2094 0.950 . S
C2106 C2105 1.398 . S
C2106 C2107 1.391 . S
C2107 H2095 0.950 . S
C2107 C2103 1.393 . S
C2107 C2106 1.391 . S
H2108 C2116 0.950 . S
H2109 C2121 0.950 . S
H2110 C2118 0.950 . S
H2111 C2120 0.950 . S
H2112 C2122 0.950 . S
H2113 C2124 0.950 . S
H2114 C2126 0.950 . S
H2115 C2127 0.950 . S
C2116 H2108 0.950 . S
C2116 C2117 1.386 . S
C2116 C2118 1.391 . S
C2117 C2116 1.386 . S
C2117 C2121 1.393 . S
C2118 H2110 0.950 . S
C2118 C2116 1.391 . S
C2118 C2119 1.400 . S
C2119 C2118 1.400 . S
C2119 C2120 1.398 . S
C2119 C2125 1.491 . S
C2120 H2111 0.950 . S
C2120 C2119 1.398 . S
C2120 C2121 1.391 . S
C2121 H2109 0.950 . S
C2121 C2117 1.393 . S
C2121 C2120 1.391 . S
C2122 H2112 0.950 . S
C2122 C2123 1.386 . S
C2122 C2124 1.391 . S
C2123 C2122 1.386 . S
C2123 C2127 1.393 . S
C2124 H2113 0.950 . S
C2124 C2122 1.391 . S
C2124 C2125 1.400 . S
C2125 C2119 1.491 . S
C2125 C2124 1.400 . S
C2125 C2126 1.398 . S
C2126 H2114 0.950 . S
C2126 C2125 1.398 . S
C2126 C2127 1.391 . S
C2127 H2115 0.950 . S
C2127 C2123 1.393 . S
C2127 C2126 1.391 . S
H2128 C2136 0.950 1_556 S
H2129 C2141 0.950 . S
H2130 C2138 0.950 . S
H2131 C2140 0.950 . S
H2132 C2142 0.950 . S
H2133 C2144 0.950 . S
H2134 C2146 0.950 . S
H2135 C2147 0.950 . S
C2136 H2128 0.950 1_554 S
C2136 C2137 1.386 . S
C2136 C2138 1.391 . S
C2137 C2136 1.386 . S
C2137 C2141 1.393 . S
C2138 H2130 0.950 . S
C2138 C2136 1.391 . S
C2138 C2139 1.400 . S
C2139 C2138 1.400 . S
C2139 C2140 1.398 . S
C2139 C2145 1.491 . S
C2140 H2131 0.950 . S
C2140 C2139 1.398 . S
C2140 C2141 1.391 . S
C2141 H2129 0.950 . S
C2141 C2137 1.393 . S
C2141 C2140 1.391 . S
C2142 H2132 0.950 . S
C2142 C2143 1.386 . S
C2142 C2144 1.391 . S
C2143 C2142 1.386 . S
C2143 C2147 1.393 . S
C2144 H2133 0.950 . S
C2144 C2142 1.391 . S
C2144 C2145 1.400 . S
C2145 C2139 1.491 . S
C2145 C2144 1.400 . S
C2145 C2146 1.398 . S
C2146 H2134 0.950 . S
C2146 C2145 1.398 . S
C2146 C2147 1.391 . S
C2147 H2135 0.950 . S
C2147 C2143 1.393 . S
C2147 C2146 1.391 . S
H2148 C2156 0.950 . S
H2149 C2161 0.950 . S
H2150 C2158 0.950 . S
H2151 C2160 0.950 . S
H2152 C2162 0.950 . S
H2153 C2164 0.950 . S
H2154 C2166 0.950 . S
H2155 C2167 0.950 . S
C2156 H2148 0.950 . S
C2156 C2157 1.386 . S
C2156 C2158 1.391 . S
C2157 C2156 1.386 . S
C2157 C2161 1.393 . S
C2158 H2150 0.950 . S
C2158 C2156 1.391 . S
C2158 C2159 1.400 . S
C2159 C2158 1.400 . S
C2159 C2160 1.398 . S
C2159 C2165 1.491 . S
C2160 H2151 0.950 . S
C2160 C2159 1.398 . S
C2160 C2161 1.391 . S
C2161 H2149 0.950 . S
C2161 C2157 1.393 . S
C2161 C2160 1.391 . S
C2162 H2152 0.950 . S
C2162 C2163 1.386 . S
C2162 C2164 1.391 . S
C2163 C2162 1.386 . S
C2163 C2167 1.393 . S
C2164 H2153 0.950 . S
C2164 C2162 1.391 . S
C2164 C2165 1.400 . S
C2165 C2159 1.491 . S
C2165 C2164 1.400 . S
C2165 C2166 1.398 . S
C2166 H2154 0.950 . S
C2166 C2165 1.398 . S
C2166 C2167 1.391 . S
C2167 H2155 0.950 . S
C2167 C2163 1.393 . S
C2167 C2166 1.391 . S
H2168 C2176 0.950 . S
H2169 C2181 0.950 . S
H2170 C2178 0.950 . S
H2171 C2180 0.950 . S
H2172 C2182 0.950 . S
H2173 C2184 0.950 . S
H2174 C2186 0.950 . S
H2175 C2187 0.950 . S
C2176 H2168 0.950 . S
C2176 C2177 1.386 . S
C2176 C2178 1.391 . S
C2177 C2176 1.386 . S
C2177 C2181 1.393 . S
C2178 H2170 0.950 . S
C2178 C2176 1.391 . S
C2178 C2179 1.400 . S
C2179 C2178 1.400 . S
C2179 C2180 1.398 . S
C2179 C2185 1.491 . S
C2180 H2171 0.950 . S
C2180 C2179 1.398 . S
C2180 C2181 1.391 . S
C2181 H2169 0.950 . S
C2181 C2177 1.393 . S
C2181 C2180 1.391 . S
C2182 H2172 0.950 . S
C2182 C2183 1.386 . S
C2182 C2184 1.391 . S
C2183 C2182 1.386 . S
C2183 C2187 1.393 . S
C2184 H2173 0.950 . S
C2184 C2182 1.391 . S
C2184 C2185 1.400 . S
C2185 C2179 1.491 . S
C2185 C2184 1.400 . S
C2185 C2186 1.398 . S
C2186 H2174 0.950 . S
C2186 C2185 1.398 . S
C2186 C2187 1.391 . S
C2187 H2175 0.950 . S
C2187 C2183 1.393 . S
C2187 C2186 1.391 . S
H2188 C2196 0.950 . S
H2189 C2201 0.950 . S
H2190 C2198 0.950 . S
H2191 C2200 0.950 . S
H2192 C2202 0.950 . S
H2193 C2204 0.950 . S
H2194 C2206 0.950 . S
H2195 C2207 0.950 . S
C2196 H2188 0.950 . S
C2196 C2197 1.386 . S
C2196 C2198 1.391 . S
C2197 C2196 1.386 . S
C2197 C2201 1.393 . S
C2198 H2190 0.950 . S
C2198 C2196 1.391 . S
C2198 C2199 1.400 . S
C2199 C2198 1.400 . S
C2199 C2200 1.398 . S
C2199 C2205 1.491 . S
C2200 H2191 0.950 . S
C2200 C2199 1.398 . S
C2200 C2201 1.391 . S
C2201 H2189 0.950 . S
C2201 C2197 1.393 . S
C2201 C2200 1.391 . S
C2202 H2192 0.950 . S
C2202 C2203 1.386 . S
C2202 C2204 1.391 . S
C2203 C2202 1.386 . S
C2203 C2207 1.393 . S
C2204 H2193 0.950 . S
C2204 C2202 1.391 . S
C2204 C2205 1.400 . S
C2205 C2199 1.491 . S
C2205 C2204 1.400 . S
C2205 C2206 1.398 . S
C2206 H2194 0.950 . S
C2206 C2205 1.398 . S
C2206 C2207 1.391 . S
C2207 H2195 0.950 . S
C2207 C2203 1.393 . S
C2207 C2206 1.391 . S
H2208 C2216 0.950 . S
H2209 C2221 0.950 . S
H2210 C2218 0.950 . S
H2211 C2220 0.950 . S
H2212 C2222 0.950 . S
H2213 C2224 0.950 . S
H2214 C2226 0.950 . S
H2215 C2227 0.950 . S
C2216 H2208 0.950 . S
C2216 C2217 1.386 . S
C2216 C2218 1.391 . S
C2217 C2216 1.386 . S
C2217 C2221 1.393 . S
C2218 H2210 0.950 . S
C2218 C2216 1.391 . S
C2218 C2219 1.400 . S
C2219 C2218 1.400 . S
C2219 C2220 1.398 . S
C2219 C2225 1.491 . S
C2220 H2211 0.950 . S
C2220 C2219 1.398 . S
C2220 C2221 1.391 . S
C2221 H2209 0.950 . S
C2221 C2217 1.393 . S
C2221 C2220 1.391 . S
C2222 H2212 0.950 . S
C2222 C2223 1.386 . S
C2222 C2224 1.391 . S
C2223 C2222 1.386 . S
C2223 C2227 1.393 . S
C2224 H2213 0.950 . S
C2224 C2222 1.391 . S
C2224 C2225 1.400 . S
C2225 C2219 1.491 . S
C2225 C2224 1.400 . S
C2225 C2226 1.398 . S
C2226 H2214 0.950 . S
C2226 C2225 1.398 . S
C2226 C2227 1.391 . S
C2227 H2215 0.950 . S
C2227 C2223 1.393 . S
C2227 C2226 1.391 . S
H2228 C2236 0.950 . S
H2229 C2241 0.950 . S
H2230 C2238 0.950 . S
H2231 C2240 0.950 . S
H2232 C2242 0.950 . S
H2233 C2244 0.950 . S
H2234 C2246 0.950 . S
H2235 C2247 0.950 . S
C2236 H2228 0.950 . S
C2236 C2237 1.386 . S
C2236 C2238 1.391 . S
C2237 C2236 1.386 . S
C2237 C2241 1.393 . S
C2238 H2230 0.950 . S
C2238 C2236 1.391 . S
C2238 C2239 1.400 . S
C2239 C2238 1.400 . S
C2239 C2240 1.398 . S
C2239 C2245 1.491 . S
C2240 H2231 0.950 . S
C2240 C2239 1.398 . S
C2240 C2241 1.391 . S
C2241 H2229 0.950 . S
C2241 C2237 1.393 . S
C2241 C2240 1.391 . S
C2242 H2232 0.950 . S
C2242 C2243 1.386 . S
C2242 C2244 1.391 . S
C2243 C2242 1.386 . S
C2243 C2247 1.393 . S
C2244 H2233 0.950 . S
C2244 C2242 1.391 . S
C2244 C2245 1.400 . S
C2245 C2239 1.491 . S
C2245 C2244 1.400 . S
C2245 C2246 1.398 . S
C2246 H2234 0.950 . S
C2246 C2245 1.398 . S
C2246 C2247 1.391 . S
C2247 H2235 0.950 . S
C2247 C2243 1.393 . S
C2247 C2246 1.391 . S
H2248 C2256 0.950 . S
H2249 C2261 0.950 1_554 S
H2250 C2258 0.950 . S
H2251 C2260 0.950 . S
H2252 C2262 0.950 . S
H2253 C2264 0.950 . S
H2254 C2266 0.950 . S
H2255 C2267 0.950 . S
C2256 H2248 0.950 . S
C2256 C2257 1.386 . S
C2256 C2258 1.391 . S
C2257 C2256 1.386 . S
C2257 C2261 1.393 . S
C2258 H2250 0.950 . S
C2258 C2256 1.391 . S
C2258 C2259 1.400 . S
C2259 C2258 1.400 . S
C2259 C2260 1.398 . S
C2259 C2265 1.491 . S
C2260 H2251 0.950 . S
C2260 C2259 1.398 . S
C2260 C2261 1.391 . S
C2261 H2249 0.950 1_556 S
C2261 C2257 1.393 . S
C2261 C2260 1.391 . S
C2262 H2252 0.950 . S
C2262 C2263 1.386 . S
C2262 C2264 1.391 . S
C2263 C2262 1.386 . S
C2263 C2267 1.393 . S
C2264 H2253 0.950 . S
C2264 C2262 1.391 . S
C2264 C2265 1.400 . S
C2265 C2259 1.491 . S
C2265 C2264 1.400 . S
C2265 C2266 1.398 . S
C2266 H2254 0.950 . S
C2266 C2265 1.398 . S
C2266 C2267 1.391 . S
C2267 H2255 0.950 . S
C2267 C2263 1.393 . S
C2267 C2266 1.391 . S
H2268 C2276 0.950 . S
H2269 C2281 0.950 . S
H2270 C2278 0.950 . S
H2271 C2280 0.950 . S
H2272 C2282 0.950 . S
H2273 C2284 0.950 . S
H2274 C2286 0.950 . S
H2275 C2287 0.950 1_554 S
C2276 H2268 0.950 . S
C2276 C2277 1.386 . S
C2276 C2278 1.391 . S
C2277 C2276 1.386 . S
C2277 C2281 1.393 . S
C2278 H2270 0.950 . S
C2278 C2276 1.391 . S
C2278 C2279 1.400 . S
C2279 C2278 1.400 . S
C2279 C2280 1.398 . S
C2279 C2285 1.491 . S
C2280 H2271 0.950 . S
C2280 C2279 1.398 . S
C2280 C2281 1.391 . S
C2281 H2269 0.950 . S
C2281 C2277 1.393 . S
C2281 C2280 1.391 . S
C2282 H2272 0.950 . S
C2282 C2283 1.386 . S
C2282 C2284 1.391 . S
C2283 C2282 1.386 . S
C2283 C2287 1.393 . S
C2284 H2273 0.950 . S
C2284 C2282 1.391 . S
C2284 C2285 1.400 . S
C2285 C2279 1.491 . S
C2285 C2284 1.400 . S
C2285 C2286 1.398 . S
C2286 H2274 0.950 . S
C2286 C2285 1.398 . S
C2286 C2287 1.391 . S
C2287 H2275 0.950 1_556 S
C2287 C2283 1.393 . S
C2287 C2286 1.391 . S
H2288 C2296 0.950 . S
H2289 C2301 0.950 . S
H2290 C2298 0.950 . S
H2291 C2300 0.950 . S
H2292 C2302 0.950 . S
H2293 C2304 0.950 . S
H2294 C2306 0.950 . S
H2295 C2307 0.950 . S
C2296 H2288 0.950 . S
C2296 C2297 1.386 . S
C2296 C2298 1.391 . S
C2297 C2296 1.386 . S
C2297 C2301 1.393 . S
C2298 H2290 0.950 . S
C2298 C2296 1.391 . S
C2298 C2299 1.400 . S
C2299 C2298 1.400 . S
C2299 C2300 1.398 . S
C2299 C2305 1.491 . S
C2300 H2291 0.950 . S
C2300 C2299 1.398 . S
C2300 C2301 1.391 . S
C2301 H2289 0.950 . S
C2301 C2297 1.393 . S
C2301 C2300 1.391 . S
C2302 H2292 0.950 . S
C2302 C2303 1.386 . S
C2302 C2304 1.391 . S
C2303 C2302 1.386 . S
C2303 C2307 1.393 . S
C2304 H2293 0.950 . S
C2304 C2302 1.391 . S
C2304 C2305 1.400 . S
C2305 C2299 1.491 . S
C2305 C2304 1.400 . S
C2305 C2306 1.398 . S
C2306 H2294 0.950 . S
C2306 C2305 1.398 . S
C2306 C2307 1.391 . S
C2307 H2295 0.950 . S
C2307 C2303 1.393 . S
C2307 C2306 1.391 . S
H2308 C2316 0.950 . S
H2309 C2321 0.950 . S
H2310 C2318 0.950 . S
H2311 C2320 0.950 . S
H2312 C2322 0.950 . S
H2313 C2324 0.950 . S
H2314 C2326 0.950 . S
H2315 C2327 0.950 . S
C2316 H2308 0.950 . S
C2316 C2317 1.386 . S
C2316 C2318 1.391 . S
C2317 C2316 1.386 . S
C2317 C2321 1.393 . S
C2318 H2310 0.950 . S
C2318 C2316 1.391 . S
C2318 C2319 1.400 . S
C2319 C2318 1.400 . S
C2319 C2320 1.398 . S
C2319 C2325 1.491 . S
C2320 H2311 0.950 . S
C2320 C2319 1.398 . S
C2320 C2321 1.391 . S
C2321 H2309 0.950 . S
C2321 C2317 1.393 . S
C2321 C2320 1.391 . S
C2322 H2312 0.950 . S
C2322 C2323 1.386 . S
C2322 C2324 1.391 . S
C2323 C2322 1.386 . S
C2323 C2327 1.393 . S
C2324 H2313 0.950 . S
C2324 C2322 1.391 . S
C2324 C2325 1.400 . S
C2325 C2319 1.491 . S
C2325 C2324 1.400 . S
C2325 C2326 1.398 . S
C2326 H2314 0.950 . S
C2326 C2325 1.398 . S
C2326 C2327 1.391 . S
C2327 H2315 0.950 . S
C2327 C2323 1.393 . S
C2327 C2326 1.391 . S
H2328 C2336 0.950 . S
H2329 C2341 0.950 . S
H2330 C2338 0.950 . S
H2331 C2340 0.950 . S
H2332 C2342 0.950 . S
H2333 C2344 0.950 . S
H2334 C2346 0.950 . S
H2335 C2347 0.950 1_556 S
C2336 H2328 0.950 . S
C2336 C2337 1.386 . S
C2336 C2338 1.391 . S
C2337 C2336 1.386 . S
C2337 C2341 1.393 . S
C2338 H2330 0.950 . S
C2338 C2336 1.391 . S
C2338 C2339 1.400 . S
C2339 C2338 1.400 . S
C2339 C2340 1.398 . S
C2339 C2345 1.491 . S
C2340 H2331 0.950 . S
C2340 C2339 1.398 . S
C2340 C2341 1.391 . S
C2341 H2329 0.950 . S
C2341 C2337 1.393 . S
C2341 C2340 1.391 . S
C2342 H2332 0.950 . S
C2342 C2343 1.386 . S
C2342 C2344 1.391 . S
C2343 C2342 1.386 . S
C2343 C2347 1.393 . S
C2344 H2333 0.950 . S
C2344 C2342 1.391 . S
C2344 C2345 1.400 . S
C2345 C2339 1.491 . S
C2345 C2344 1.400 . S
C2345 C2346 1.398 . S
C2346 H2334 0.950 . S
C2346 C2345 1.398 . S
C2346 C2347 1.391 . S
C2347 H2335 0.950 1_554 S
C2347 C2343 1.393 . S
C2347 C2346 1.391 . S
H2348 C2356 0.950 . S
H2349 C2361 0.950 . S
H2350 C2358 0.950 . S
H2351 C2360 0.950 . S
H2352 C2362 0.950 . S
H2353 C2364 0.950 . S
H2354 C2366 0.950 . S
H2355 C2367 0.950 . S
C2356 H2348 0.950 . S
C2356 C2357 1.386 . S
C2356 C2358 1.391 . S
C2357 C2356 1.386 . S
C2357 C2361 1.393 . S
C2358 H2350 0.950 . S
C2358 C2356 1.391 . S
C2358 C2359 1.400 . S
C2359 C2358 1.400 . S
C2359 C2360 1.398 . S
C2359 C2365 1.491 . S
C2360 H2351 0.950 . S
C2360 C2359 1.398 . S
C2360 C2361 1.391 . S
C2361 H2349 0.950 . S
C2361 C2357 1.393 . S
C2361 C2360 1.391 . S
C2362 H2352 0.950 . S
C2362 C2363 1.386 1_556 S
C2362 C2364 1.391 1_556 S
C2363 C2362 1.386 1_554 S
C2363 C2367 1.393 . S
C2364 H2353 0.950 . S
C2364 C2362 1.391 1_554 S
C2364 C2365 1.400 . S
C2365 C2359 1.491 . S
C2365 C2364 1.400 . S
C2365 C2366 1.398 . S
C2366 H2354 0.950 . S
C2366 C2365 1.398 . S
C2366 C2367 1.391 . S
C2367 H2355 0.950 . S
C2367 C2363 1.393 . S
C2367 C2366 1.391 . S
H2368 C2376 0.950 . S
H2369 C2381 0.950 . S
H2370 C2378 0.950 . S
H2371 C2380 0.950 . S
H2372 C2382 0.950 . S
H2373 C2384 0.950 . S
H2374 C2386 0.950 . S
H2375 C2387 0.950 . S
C2376 H2368 0.950 . S
C2376 C2377 1.386 . S
C2376 C2378 1.391 . S
C2377 C2376 1.386 . S
C2377 C2381 1.393 . S
C2378 H2370 0.950 . S
C2378 C2376 1.391 . S
C2378 C2379 1.400 . S
C2379 C2378 1.400 . S
C2379 C2380 1.398 . S
C2379 C2385 1.491 . S
C2380 H2371 0.950 . S
C2380 C2379 1.398 . S
C2380 C2381 1.391 . S
C2381 H2369 0.950 . S
C2381 C2377 1.393 . S
C2381 C2380 1.391 . S
C2382 H2372 0.950 . S
C2382 C2383 1.386 . S
C2382 C2384 1.391 . S
C2383 C2382 1.386 . S
C2383 C2387 1.393 . S
C2384 H2373 0.950 . S
C2384 C2382 1.391 . S
C2384 C2385 1.400 . S
C2385 C2379 1.491 . S
C2385 C2384 1.400 . S
C2385 C2386 1.398 . S
C2386 H2374 0.950 . S
C2386 C2385 1.398 . S
C2386 C2387 1.391 . S
C2387 H2375 0.950 . S
C2387 C2383 1.393 . S
C2387 C2386 1.391 . S
H2388 C2396 0.950 . S
H2389 C2401 0.950 . S
H2390 C2398 0.950 . S
H2391 C2400 0.950 . S
H2392 C2402 0.950 . S
H2393 C2404 0.950 . S
H2394 C2406 0.950 . S
H2395 C2407 0.950 . S
C2396 H2388 0.950 . S
C2396 C2397 1.386 . S
C2396 C2398 1.391 . S
C2397 C2396 1.386 . S
C2397 C2401 1.393 . S
C2398 H2390 0.950 . S
C2398 C2396 1.391 . S
C2398 C2399 1.400 . S
C2399 C2398 1.400 . S
C2399 C2400 1.398 . S
C2399 C2405 1.491 . S
C2400 H2391 0.950 . S
C2400 C2399 1.398 . S
C2400 C2401 1.391 . S
C2401 H2389 0.950 . S
C2401 C2397 1.393 . S
C2401 C2400 1.391 . S
C2402 H2392 0.950 . S
C2402 C2403 1.386 . S
C2402 C2404 1.391 . S
C2403 C2402 1.386 . S
C2403 C2407 1.393 . S
C2404 H2393 0.950 . S
C2404 C2402 1.391 . S
C2404 C2405 1.400 . S
C2405 C2399 1.491 . S
C2405 C2404 1.400 . S
C2405 C2406 1.398 . S
C2406 H2394 0.950 . S
C2406 C2405 1.398 . S
C2406 C2407 1.391 . S
C2407 H2395 0.950 . S
C2407 C2403 1.393 . S
C2407 C2406 1.391 . S
H2408 C2416 0.950 . S
H2409 C2421 0.950 . S
H2410 C2418 0.950 . S
H2411 C2420 0.950 . S
H2412 C2422 0.950 . S
H2413 C2424 0.950 . S
H2414 C2426 0.950 . S
H2415 C2427 0.950 . S
C2416 H2408 0.950 . S
C2416 C2417 1.386 . S
C2416 C2418 1.391 . S
C2417 C2416 1.386 . S
C2417 C2421 1.393 . S
C2418 H2410 0.950 . S
C2418 C2416 1.391 . S
C2418 C2419 1.400 . S
C2419 C2418 1.400 . S
C2419 C2420 1.398 . S
C2419 C2425 1.491 . S
C2420 H2411 0.950 . S
C2420 C2419 1.398 . S
C2420 C2421 1.391 . S
C2421 H2409 0.950 . S
C2421 C2417 1.393 . S
C2421 C2420 1.391 . S
C2422 H2412 0.950 . S
C2422 C2423 1.386 . S
C2422 C2424 1.391 . S
C2423 C2422 1.386 . S
C2423 C2427 1.393 . S
C2424 H2413 0.950 . S
C2424 C2422 1.391 . S
C2424 C2425 1.400 . S
C2425 C2419 1.491 . S
C2425 C2424 1.400 . S
C2425 C2426 1.398 . S
C2426 H2414 0.950 . S
C2426 C2425 1.398 . S
C2426 C2427 1.391 . S
C2427 H2415 0.950 . S
C2427 C2423 1.393 . S
C2427 C2426 1.391 . S
H2428 C2436 0.950 . S
H2429 C2441 0.950 . S
H2430 C2438 0.950 . S
H2431 C2440 0.950 . S
H2432 C2442 0.950 . S
H2433 C2444 0.950 . S
H2434 C2446 0.950 . S
H2435 C2447 0.950 . S
C2436 H2428 0.950 . S
C2436 C2437 1.386 . S
C2436 C2438 1.391 . S
C2437 C2436 1.386 . S
C2437 C2441 1.393 . S
C2438 H2430 0.950 . S
C2438 C2436 1.391 . S
C2438 C2439 1.400 . S
C2439 C2438 1.400 . S
C2439 C2440 1.398 . S
C2439 C2445 1.491 . S
C2440 H2431 0.950 . S
C2440 C2439 1.398 . S
C2440 C2441 1.391 . S
C2441 H2429 0.950 . S
C2441 C2437 1.393 . S
C2441 C2440 1.391 . S
C2442 H2432 0.950 . S
C2442 C2443 1.386 . S
C2442 C2444 1.391 . S
C2443 C2442 1.386 . S
C2443 C2447 1.393 . S
C2444 H2433 0.950 . S
C2444 C2442 1.391 . S
C2444 C2445 1.400 . S
C2445 C2439 1.491 . S
C2445 C2444 1.400 . S
C2445 C2446 1.398 . S
C2446 H2434 0.950 . S
C2446 C2445 1.398 . S
C2446 C2447 1.391 . S
C2447 H2435 0.950 . S
C2447 C2443 1.393 . S
C2447 C2446 1.391 . S
H2448 C2456 0.950 . S
H2449 C2461 0.950 . S
H2450 C2458 0.950 . S
H2451 C2460 0.950 . S
H2452 C2462 0.950 . S
H2453 C2464 0.950 . S
H2454 C2466 0.950 . S
H2455 C2467 0.950 . S
C2456 H2448 0.950 . S
C2456 C2457 1.386 . S
C2456 C2458 1.391 . S
C2457 C2456 1.386 . S
C2457 C2461 1.393 . S
C2458 H2450 0.950 . S
C2458 C2456 1.391 . S
C2458 C2459 1.400 . S
C2459 C2458 1.400 . S
C2459 C2460 1.398 . S
C2459 C2465 1.491 . S
C2460 H2451 0.950 . S
C2460 C2459 1.398 . S
C2460 C2461 1.391 . S
C2461 H2449 0.950 . S
C2461 C2457 1.393 . S
C2461 C2460 1.391 . S
C2462 H2452 0.950 . S
C2462 C2463 1.386 . S
C2462 C2464 1.391 . S
C2463 C2462 1.386 . S
C2463 C2467 1.393 . S
C2464 H2453 0.950 . S
C2464 C2462 1.391 . S
C2464 C2465 1.400 . S
C2465 C2459 1.491 . S
C2465 C2464 1.400 . S
C2465 C2466 1.398 . S
C2466 H2454 0.950 . S
C2466 C2465 1.398 . S
C2466 C2467 1.391 . S
C2467 H2455 0.950 . S
C2467 C2463 1.393 . S
C2467 C2466 1.391 . S
H2468 C2476 0.950 . S
H2469 C2481 0.950 . S
H2470 C2478 0.950 . S
H2471 C2480 0.950 . S
H2472 C2482 0.950 . S
H2473 C2484 0.950 . S
H2474 C2486 0.950 . S
H2475 C2487 0.950 . S
C2476 H2468 0.950 . S
C2476 C2477 1.386 . S
C2476 C2478 1.391 . S
C2477 C2476 1.386 . S
C2477 C2481 1.393 . S
C2478 H2470 0.950 . S
C2478 C2476 1.391 . S
C2478 C2479 1.400 . S
C2479 C2478 1.400 . S
C2479 C2480 1.398 . S
C2479 C2485 1.491 . S
C2480 H2471 0.950 . S
C2480 C2479 1.398 . S
C2480 C2481 1.391 . S
C2481 H2469 0.950 . S
C2481 C2477 1.393 . S
C2481 C2480 1.391 . S
C2482 H2472 0.950 . S
C2482 C2483 1.386 . S
C2482 C2484 1.391 . S
C2483 C2482 1.386 . S
C2483 C2487 1.393 . S
C2484 H2473 0.950 . S
C2484 C2482 1.391 . S
C2484 C2485 1.400 . S
C2485 C2479 1.491 . S
C2485 C2484 1.400 . S
C2485 C2486 1.398 . S
C2486 H2474 0.950 . S
C2486 C2485 1.398 . S
C2486 C2487 1.391 . S
C2487 H2475 0.950 . S
C2487 C2483 1.393 . S
C2487 C2486 1.391 . S
H2488 C2496 0.950 . S
H2489 C2501 0.950 1_565 S
H2490 C2498 0.950 . S
H2491 C2500 0.921 1_565 S
H2492 C2502 0.950 1_565 S
H2493 C2504 0.950 1_565 S
H2494 C2506 0.950 . S
H2495 C2507 0.950 . S
C2496 H2488 0.950 . S
C2496 C2497 1.386 . S
C2496 C2498 1.391 . S
C2497 C2496 1.386 . S
C2497 C2501 1.393 . S
C2498 H2490 0.950 . S
C2498 C2496 1.391 . S
C2498 C2499 1.400 . S
C2499 C2498 1.400 . S
C2499 C2500 1.398 . S
C2499 C2505 1.491 . S
C2500 H2491 0.921 1_545 S
C2500 C2499 1.398 . S
C2500 C2501 1.391 . S
C2501 H2489 0.950 1_545 S
C2501 C2497 1.393 . S
C2501 C2500 1.391 . S
C2502 H2492 0.950 1_545 S
C2502 C2503 1.386 . S
C2502 C2504 1.391 . S
C2503 C2502 1.386 . S
C2503 C2507 1.393 . S
C2504 H2493 0.950 1_545 S
C2504 C2502 1.391 . S
C2504 C2505 1.400 . S
C2505 C2499 1.491 . S
C2505 C2504 1.400 . S
C2505 C2506 1.398 . S
C2506 H2494 0.950 . S
C2506 C2505 1.398 . S
C2506 C2507 1.391 . S
C2507 H2495 0.950 . S
C2507 C2503 1.393 . S
C2507 C2506 1.391 . S
H2508 C2516 0.950 . S
H2509 C2521 0.950 . S
H2510 C2518 0.950 . S
H2511 C2520 0.950 . S
H2512 C2522 0.950 . S
H2513 C2524 0.950 . S
H2514 C2526 0.950 . S
H2515 C2527 0.950 . S
C2516 H2508 0.950 . S
C2516 C2517 1.386 . S
C2516 C2518 1.391 . S
C2517 C2516 1.386 . S
C2517 C2521 1.393 . S
C2518 H2510 0.950 . S
C2518 C2516 1.391 . S
C2518 C2519 1.400 . S
C2519 C2518 1.400 . S
C2519 C2520 1.398 . S
C2519 C2525 1.491 . S
C2520 H2511 0.950 . S
C2520 C2519 1.398 . S
C2520 C2521 1.391 . S
C2521 H2509 0.950 . S
C2521 C2517 1.393 . S
C2521 C2520 1.391 . S
C2522 H2512 0.950 . S
C2522 C2523 1.386 . S
C2522 C2524 1.391 . S
C2523 C2522 1.386 . S
C2523 C2527 1.393 . S
C2524 H2513 0.950 . S
C2524 C2522 1.391 . S
C2524 C2525 1.400 . S
C2525 C2519 1.491 . S
C2525 C2524 1.400 . S
C2525 C2526 1.398 . S
C2526 H2514 0.950 . S
C2526 C2525 1.398 . S
C2526 C2527 1.391 . S
C2527 H2515 0.950 . S
C2527 C2523 1.393 . S
C2527 C2526 1.391 . S
H2528 C2536 0.950 . S
H2529 C2541 0.950 . S
H2530 C2538 0.950 . S
H2531 C2540 0.950 . S
H2532 C2542 0.950 . S
H2533 C2544 0.950 . S
H2534 C2546 0.950 . S
H2535 C2547 0.950 . S
C2536 H2528 0.950 . S
C2536 C2537 1.386 . S
C2536 C2538 1.391 . S
C2537 C2536 1.386 . S
C2537 C2541 1.393 . S
C2538 H2530 0.950 . S
C2538 C2536 1.391 . S
C2538 C2539 1.400 . S
C2539 C2538 1.400 . S
C2539 C2540 1.398 . S
C2539 C2545 1.491 . S
C2540 H2531 0.950 . S
C2540 C2539 1.398 . S
C2540 C2541 1.391 . S
C2541 H2529 0.950 . S
C2541 C2537 1.393 . S
C2541 C2540 1.391 . S
C2542 H2532 0.950 . S
C2542 C2543 1.386 . S
C2542 C2544 1.391 . S
C2543 C2542 1.386 . S
C2543 C2547 1.393 . S
C2544 H2533 0.950 . S
C2544 C2542 1.391 . S
C2544 C2545 1.400 . S
C2545 C2539 1.491 . S
C2545 C2544 1.400 . S
C2545 C2546 1.398 . S
C2546 H2534 0.950 . S
C2546 C2545 1.398 . S
C2546 C2547 1.391 . S
C2547 H2535 0.950 . S
C2547 C2543 1.393 . S
C2547 C2546 1.391 . S
H2548 C2556 0.950 . S
H2549 C2561 0.950 . S
H2550 C2558 0.950 . S
H2551 C2560 0.950 . S
H2552 C2562 0.950 . S
H2553 C2564 0.950 . S
H2554 C2566 0.950 . S
H2555 C2567 0.950 . S
C2556 H2548 0.950 . S
C2556 C2557 1.386 . S
C2556 C2558 1.391 . S
C2557 C2556 1.386 . S
C2557 C2561 1.393 . S
C2558 H2550 0.950 . S
C2558 C2556 1.391 . S
C2558 C2559 1.400 . S
C2559 C2558 1.400 . S
C2559 C2560 1.398 . S
C2559 C2565 1.491 . S
C2560 H2551 0.950 . S
C2560 C2559 1.398 . S
C2560 C2561 1.391 . S
C2561 H2549 0.950 . S
C2561 C2557 1.393 . S
C2561 C2560 1.391 . S
C2562 H2552 0.950 . S
C2562 C2563 1.386 . S
C2562 C2564 1.391 . S
C2563 C2562 1.386 . S
C2563 C2567 1.393 . S
C2564 H2553 0.950 . S
C2564 C2562 1.391 . S
C2564 C2565 1.400 . S
C2565 C2559 1.491 . S
C2565 C2564 1.400 . S
C2565 C2566 1.398 . S
C2566 H2554 0.950 . S
C2566 C2565 1.398 . S
C2566 C2567 1.391 . S
C2567 H2555 0.950 . S
C2567 C2563 1.393 . S
C2567 C2566 1.391 . S
H2568 C2576 0.950 . S
H2569 C2581 0.950 . S
H2570 C2578 0.950 . S
H2571 C2580 0.950 . S
H2572 C2582 0.950 . S
H2573 C2584 0.950 . S
H2574 C2586 0.950 . S
H2575 C2587 0.950 . S
C2576 H2568 0.950 . S
C2576 C2577 1.386 . S
C2576 C2578 1.391 . S
C2577 C2576 1.386 . S
C2577 C2581 1.393 . S
C2578 H2570 0.950 . S
C2578 C2576 1.391 . S
C2578 C2579 1.400 . S
C2579 C2578 1.400 . S
C2579 C2580 1.398 . S
C2579 C2585 1.491 . S
C2580 H2571 0.950 . S
C2580 C2579 1.398 . S
C2580 C2581 1.391 . S
C2581 H2569 0.950 . S
C2581 C2577 1.393 . S
C2581 C2580 1.391 . S
C2582 H2572 0.950 . S
C2582 C2583 1.386 . S
C2582 C2584 1.391 . S
C2583 C2582 1.386 . S
C2583 C2587 1.393 . S
C2584 H2573 0.950 . S
C2584 C2582 1.391 . S
C2584 C2585 1.400 . S
C2585 C2579 1.491 . S
C2585 C2584 1.400 . S
C2585 C2586 1.398 . S
C2586 H2574 0.950 . S
C2586 C2585 1.398 . S
C2586 C2587 1.391 . S
C2587 H2575 0.950 . S
C2587 C2583 1.393 . S
C2587 C2586 1.391 . S
H2588 C2596 0.950 . S
H2589 C2601 0.950 . S
H2590 C2598 0.950 . S
H2591 C2600 0.950 . S
H2592 C2602 0.950 . S
H2593 C2604 0.950 . S
H2594 C2606 0.950 . S
H2595 C2607 0.950 . S
C2596 H2588 0.950 . S
C2596 C2597 1.386 . S
C2596 C2598 1.391 . S
C2597 C2596 1.386 . S
C2597 C2601 1.393 . S
C2598 H2590 0.950 . S
C2598 C2596 1.391 . S
C2598 C2599 1.400 . S
C2599 C2598 1.400 . S
C2599 C2600 1.398 . S
C2599 C2605 1.491 . S
C2600 H2591 0.950 . S
C2600 C2599 1.398 . S
C2600 C2601 1.391 . S
C2601 H2589 0.950 . S
C2601 C2597 1.393 . S
C2601 C2600 1.391 . S
C2602 H2592 0.950 . S
C2602 C2603 1.386 . S
C2602 C2604 1.391 . S
C2603 C2602 1.386 . S
C2603 C2607 1.393 . S
C2604 H2593 0.950 . S
C2604 C2602 1.391 . S
C2604 C2605 1.400 . S
C2605 C2599 1.491 . S
C2605 C2604 1.400 . S
C2605 C2606 1.398 . S
C2606 H2594 0.950 . S
C2606 C2605 1.398 . S
C2606 C2607 1.391 . S
C2607 H2595 0.950 . S
C2607 C2603 1.393 . S
C2607 C2606 1.391 . S
H2608 C2616 0.950 1_545 S
H2609 C2621 0.950 . S
H2610 C2618 0.950 1_545 S
H2611 C2620 0.950 . S
H2612 C2622 0.950 . S
H2613 C2624 0.950 . S
H2614 C2626 0.950 1_545 S
H2615 C2627 0.950 1_545 S
C2616 H2608 0.950 1_565 S
C2616 C2617 1.386 . S
C2616 C2618 1.391 . S
C2617 C2616 1.386 . S
C2617 C2621 1.393 . S
C2618 H2610 0.950 1_565 S
C2618 C2616 1.391 . S
C2618 C2619 1.400 . S
C2619 C2618 1.400 . S
C2619 C2620 1.398 . S
C2619 C2625 1.491 . S
C2620 H2611 0.950 . S
C2620 C2619 1.398 . S
C2620 C2621 1.391 . S
C2621 H2609 0.950 . S
C2621 C2617 1.393 . S
C2621 C2620 1.391 . S
C2622 H2612 0.950 . S
C2622 C2623 1.386 . S
C2622 C2624 1.391 . S
C2623 C2622 1.386 . S
C2623 C2627 1.393 . S
C2624 H2613 0.950 . S
C2624 C2622 1.391 . S
C2624 C2625 1.400 . S
C2625 C2619 1.491 . S
C2625 C2624 1.400 . S
C2625 C2626 1.398 . S
C2626 H2614 0.950 1_565 S
C2626 C2625 1.398 . S
C2626 C2627 1.391 . S
C2627 H2615 0.950 1_565 S
C2627 C2623 1.393 . S
C2627 C2626 1.391 . S
H2628 C2636 0.950 . S
H2629 C2641 0.950 . S
H2630 C2638 0.950 . S
H2631 C2640 0.950 . S
H2632 C2642 0.950 . S
H2633 C2644 0.950 . S
H2634 C2646 0.950 . S
H2635 C2647 0.950 . S
C2636 H2628 0.950 . S
C2636 C2637 1.386 . S
C2636 C2638 1.391 . S
C2637 C2636 1.386 . S
C2637 C2641 1.393 . S
C2638 H2630 0.950 . S
C2638 C2636 1.391 . S
C2638 C2639 1.400 . S
C2639 C2638 1.400 . S
C2639 C2640 1.398 . S
C2639 C2645 1.491 . S
C2640 H2631 0.950 . S
C2640 C2639 1.398 . S
C2640 C2641 1.391 . S
C2641 H2629 0.950 . S
C2641 C2637 1.393 . S
C2641 C2640 1.391 . S
C2642 H2632 0.950 . S
C2642 C2643 1.386 . S
C2642 C2644 1.391 . S
C2643 C2642 1.386 . S
C2643 C2647 1.393 . S
C2644 H2633 0.950 . S
C2644 C2642 1.391 . S
C2644 C2645 1.400 . S
C2645 C2639 1.491 . S
C2645 C2644 1.400 . S
C2645 C2646 1.398 . S
C2646 H2634 0.950 . S
C2646 C2645 1.398 . S
C2646 C2647 1.391 . S
C2647 H2635 0.950 . S
C2647 C2643 1.393 . S
C2647 C2646 1.391 . S
H2648 C2656 0.950 . S
H2649 C2661 0.950 . S
H2650 C2658 0.950 . S
H2651 C2660 0.950 . S
H2652 C2662 0.950 . S
H2653 C2664 0.950 . S
H2654 C2666 0.950 . S
H2655 C2667 0.950 . S
C2656 H2648 0.950 . S
C2656 C2657 1.386 . S
C2656 C2658 1.391 . S
C2657 C2656 1.386 . S
C2657 C2661 1.393 . S
C2658 H2650 0.950 . S
C2658 C2656 1.391 . S
C2658 C2659 1.400 . S
C2659 C2658 1.400 . S
C2659 C2660 1.398 . S
C2659 C2665 1.491 . S
C2660 H2651 0.950 . S
C2660 C2659 1.398 . S
C2660 C2661 1.391 . S
C2661 H2649 0.950 . S
C2661 C2657 1.393 . S
C2661 C2660 1.391 . S
C2662 H2652 0.950 . S
C2662 C2663 1.386 . S
C2662 C2664 1.391 . S
C2663 C2662 1.386 . S
C2663 C2667 1.393 . S
C2664 H2653 0.950 . S
C2664 C2662 1.391 . S
C2664 C2665 1.400 . S
C2665 C2659 1.491 . S
C2665 C2664 1.400 . S
C2665 C2666 1.398 . S
C2666 H2654 0.950 . S
C2666 C2665 1.398 . S
C2666 C2667 1.391 . S
C2667 H2655 0.950 . S
C2667 C2663 1.393 . S
C2667 C2666 1.391 . S
H2668 C2676 0.950 . S
H2669 C2681 0.950 . S
H2670 C2678 0.950 . S
H2671 C2680 0.950 . S
H2672 C2682 0.950 . S
H2673 C2684 0.950 . S
H2674 C2686 0.950 . S
H2675 C2687 0.950 . S
C2676 H2668 0.950 . S
C2676 C2677 1.386 . S
C2676 C2678 1.391 . S
C2677 C2676 1.386 . S
C2677 C2681 1.393 . S
C2678 H2670 0.950 . S
C2678 C2676 1.391 . S
C2678 C2679 1.400 . S
C2679 C2678 1.400 . S
C2679 C2680 1.398 . S
C2679 C2685 1.491 . S
C2680 H2671 0.950 . S
C2680 C2679 1.398 . S
C2680 C2681 1.391 . S
C2681 H2669 0.950 . S
C2681 C2677 1.393 . S
C2681 C2680 1.391 . S
C2682 H2672 0.950 . S
C2682 C2683 1.386 . S
C2682 C2684 1.391 . S
C2683 C2682 1.386 . S
C2683 C2687 1.393 . S
C2684 H2673 0.950 . S
C2684 C2682 1.391 . S
C2684 C2685 1.400 . S
C2685 C2679 1.491 . S
C2685 C2684 1.400 . S
C2685 C2686 1.398 . S
C2686 H2674 0.950 . S
C2686 C2685 1.398 . S
C2686 C2687 1.391 . S
C2687 H2675 0.950 . S
C2687 C2683 1.393 . S
C2687 C2686 1.391 . S
C1097 C20 1.370 . S
C1103 C88 1.371 . S
C1117 C122 1.374 . S
C1123 C54 1.374 . S
C1137 C156 1.372 . S
C1143 C224 1.371 . S
C1157 C258 1.362 . S
C1163 C190 1.363 . S
C1177 C292 1.363 . S
C1183 C360 1.363 . S
C1197 C394 1.365 . S
C1203 C326 1.367 . S
C1217 C428 1.369 . S
C1223 C496 1.370 . S
C1237 C530 1.366 . S
C1243 C462 1.365 . S
C1257 C632 1.363 . S
C1263 C564 1.362 . S
C1277 C666 1.368 . S
C1283 C598 1.369 . S
C1297 C700 1.369 . S
C1303 C768 1.370 . S
C1317 C734 1.374 . S
C1323 C802 1.374 . S
C1337 C904 1.374 . S
C1343 C836 1.373 . S
C1357 C938 1.365 . S
C1363 C870 1.366 . S
C1377 C972 1.367 . S
C1383 C1040 1.366 . S
C1397 C1006 1.364 . S
C1403 C1074 1.363 . S
C1417 C9 1.430 . S
C1423 C145 1.430 . S
C1437 C43 1.411 . S
C1443 C995 1.411 . S
C1457 C485 1.411 . S
C1463 C77 1.411 . S
C1477 C791 1.435 . S
C1483 C111 1.435 . S
C1497 C179 1.438 . S
C1503 C859 1.438 . S
C1517 C349 1.432 . S
C1523 C213 1.432 . S
C1537 C247 1.419 . S
C1543 C655 1.419 . S
C1557 C281 1.425 . S
C1563 C417 1.425 . S
C1577 C315 1.429 . S
C1583 C723 1.429 . S
C1597 C1063 1.438 . S
C1603 C383 1.438 . S
C1617 C587 1.424 . S
C1623 C451 1.424 . S
C1637 C519 1.437 . S
C1643 C927 1.437 . S
C1657 C553 1.411 . S
C1663 C689 1.411 . S
C1677 C621 1.424 . S
C1683 C1029 1.424 . S
C1697 C757 1.421 . S
C1703 C893 1.421 . S
C1717 C961 1.414 . S
C1723 C825 1.414 . S
C1737 C33 1.709 . S
C1743 C373 1.709 . S
C1757 C67 1.717 . S
C1763 C407 1.716 . S
C1777 C101 1.710 1_556 S
C1783 C305 1.710 . S
C1797 C339 1.710 . S
C1803 C135 1.709 1_556 S
C1817 C169 1.711 . S
C1823 C509 1.710 . S
C1837 C203 1.712 . S
C1843 C543 1.710 . S
C1857 C237 1.713 1_554 S
C1863 C441 1.712 . S
C1877 C475 1.710 . S
C1883 C271 1.710 1_554 S
C1897 C917 1.717 1_556 S
C1903 C577 1.717 . S
C1917 C611 1.714 . S
C1923 C951 1.712 1_556 S
C1937 C645 1.710 . S
C1943 C849 1.709 . S
C1957 C883 1.717 . S
C1963 C679 1.716 . S
C1977 C713 1.714 . S
C1983 C1053 1.713 1_554 S
C1997 C1087 1.717 1_554 S
C2003 C747 1.716 . S
C2017 C985 1.716 . S
C2023 C781 1.717 . S
C2037 C815 1.710 . S
C2043 C1019 1.709 . S
C2057 C342 1.253 . S
C2063 C2 1.255 1_556 S
C2077 C36 1.254 1_556 S
C2083 C376 1.254 . S
C2097 C274 1.254 . S
C2103 C70 1.254 . S
C2117 C308 1.255 . S
C2123 C104 1.254 . S
C2137 C138 1.254 1_554 S
C2143 C478 1.255 . S
C2157 C172 1.255 1_554 S
C2163 C512 1.255 . S
C2177 C410 1.254 . S
C2183 C206 1.254 . S
C2197 C240 1.254 . S
C2203 C444 1.253 . S
C2217 C546 1.255 . S
C2223 C886 1.254 . S
C2237 C920 1.255 . S
C2243 C580 1.255 . S
C2257 C818 1.254 1_556 S
C2263 C614 1.255 . S
C2277 C648 1.253 . S
C2283 C852 1.254 1_556 S
C2297 C682 1.254 . S
C2303 C1022 1.254 . S
C2317 C716 1.254 . S
C2323 C1056 1.254 . S
C2337 C750 1.255 . S
C2343 C954 1.254 1_554 S
C2357 C784 1.253 . S
C2363 C988 1.255 1_554 S
C2377 C107 1.503 . S
C2383 C5 1.499 . S
C2397 C73 1.497 . S
C2403 C39 1.500 . S
C2417 C141 1.496 . S
C2423 C243 1.499 . S
C2437 C209 1.497 . S
C2443 C175 1.497 . S
C2457 C379 1.503 . S
C2463 C277 1.499 . S
C2477 C345 1.504 . S
C2483 C311 1.501 . S
C2497 C515 1.504 . S
C2503 C413 1.502 . S
C2517 C447 1.497 . S
C2523 C481 1.500 . S
C2537 C651 1.503 . S
C2543 C549 1.503 . S
C2557 C617 1.501 . S
C2563 C583 1.503 . S
C2577 C685 1.497 . S
C2583 C787 1.501 . S
C2597 C753 1.503 . S
C2603 C719 1.500 . S
C2617 C923 1.504 . S
C2623 C821 1.502 . S
C2637 C889 1.496 . S
C2643 C855 1.498 . S
C2657 C1059 1.504 . S
C2663 C957 1.501 . S
C2677 C1025 1.503 . S
C2683 C991 1.503 . S
