# Generated by pormake.
# Topology svb, (7)-cn, num edge types: 1
# Building blocks:
#     Node 0, Type 0, BuildingBlock: NUHQUE_clean_sbu_2, # of connection points: 7
#     Node 1, Type 0, BuildingBlock: NUHQUE_clean_sbu_2, # of connection points: 7
#     Node 2, Type 0, BuildingBlock: NUHQUE_clean_sbu_2, # of connection points: 7
#     Node 3, Type 0, BuildingBlock: NUHQUE_clean_sbu_2, # of connection points: 7
#     Node 4, Type 0, BuildingBlock: NUHQUE_clean_sbu_2, # of connection points: 7
#     Node 5, Type 0, BuildingBlock: NUHQUE_clean_sbu_2, # of connection points: 7
#     Node 6, Type 0, BuildingBlock: NUHQUE_clean_sbu_2, # of connection points: 7
#     Node 7, Type 0, BuildingBlock: NUHQUE_clean_sbu_2, # of connection points: 7
#     Node 8, Type 0, BuildingBlock: NUHQUE_clean_sbu_2, # of connection points: 7
#     Node 9, Type 0, BuildingBlock: NUHQUE_clean_sbu_2, # of connection points: 7
#     Node 10, Type 0, BuildingBlock: NUHQUE_clean_sbu_2, # of connection points: 7
#     Node 11, Type 0, BuildingBlock: NUHQUE_clean_sbu_2, # of connection points: 7
#     Node 12, Type 0, BuildingBlock: NUHQUE_clean_sbu_2, # of connection points: 7
#     Node 13, Type 0, BuildingBlock: NUHQUE_clean_sbu_2, # of connection points: 7
#     Node 14, Type 0, BuildingBlock: NUHQUE_clean_sbu_2, # of connection points: 7
#     Node 15, Type 0, BuildingBlock: NUHQUE_clean_sbu_2, # of connection points: 7
#     Edge 16, Type (0, 0), BuildingBlock: XUDNAN_clean_linker_2, # of connection points: 2
#     Edge 17, Type (0, 0), BuildingBlock: XUDNAN_clean_linker_2, # of connection points: 2
#     Edge 18, Type (0, 0), BuildingBlock: XUDNAN_clean_linker_2, # of connection points: 2
#     Edge 19, Type (0, 0), BuildingBlock: XUDNAN_clean_linker_2, # of connection points: 2
#     Edge 20, Type (0, 0), BuildingBlock: XUDNAN_clean_linker_2, # of connection points: 2
#     Edge 21, Type (0, 0), BuildingBlock: XUDNAN_clean_linker_2, # of connection points: 2
#     Edge 22, Type (0, 0), BuildingBlock: XUDNAN_clean_linker_2, # of connection points: 2
#     Edge 23, Type (0, 0), BuildingBlock: XUDNAN_clean_linker_2, # of connection points: 2
#     Edge 24, Type (0, 0), BuildingBlock: XUDNAN_clean_linker_2, # of connection points: 2
#     Edge 25, Type (0, 0), BuildingBlock: XUDNAN_clean_linker_2, # of connection points: 2
#     Edge 26, Type (0, 0), BuildingBlock: XUDNAN_clean_linker_2, # of connection points: 2
#     Edge 27, Type (0, 0), BuildingBlock: XUDNAN_clean_linker_2, # of connection points: 2
#     Edge 28, Type (0, 0), BuildingBlock: XUDNAN_clean_linker_2, # of connection points: 2
#     Edge 29, Type (0, 0), BuildingBlock: XUDNAN_clean_linker_2, # of connection points: 2
#     Edge 30, Type (0, 0), BuildingBlock: XUDNAN_clean_linker_2, # of connection points: 2
#     Edge 31, Type (0, 0), BuildingBlock: XUDNAN_clean_linker_2, # of connection points: 2
#     Edge 32, Type (0, 0), BuildingBlock: XUDNAN_clean_linker_2, # of connection points: 2
#     Edge 33, Type (0, 0), BuildingBlock: XUDNAN_clean_linker_2, # of connection points: 2
#     Edge 34, Type (0, 0), BuildingBlock: XUDNAN_clean_linker_2, # of connection points: 2
#     Edge 35, Type (0, 0), BuildingBlock: XUDNAN_clean_linker_2, # of connection points: 2
#     Edge 36, Type (0, 0), BuildingBlock: XUDNAN_clean_linker_2, # of connection points: 2
#     Edge 37, Type (0, 0), BuildingBlock: XUDNAN_clean_linker_2, # of connection points: 2
#     Edge 38, Type (0, 0), BuildingBlock: XUDNAN_clean_linker_2, # of connection points: 2
#     Edge 39, Type (0, 0), BuildingBlock: XUDNAN_clean_linker_2, # of connection points: 2
#     Edge 40, Type (0, 0), BuildingBlock: XUDNAN_clean_linker_2, # of connection points: 2
#     Edge 41, Type (0, 0), BuildingBlock: XUDNAN_clean_linker_2, # of connection points: 2
#     Edge 42, Type (0, 0), BuildingBlock: XUDNAN_clean_linker_2, # of connection points: 2
#     Edge 43, Type (0, 0), BuildingBlock: XUDNAN_clean_linker_2, # of connection points: 2
#     Edge 44, Type (0, 0), BuildingBlock: XUDNAN_clean_linker_2, # of connection points: 2
#     Edge 45, Type (0, 0), BuildingBlock: XUDNAN_clean_linker_2, # of connection points: 2
#     Edge 46, Type (0, 0), BuildingBlock: XUDNAN_clean_linker_2, # of connection points: 2
#     Edge 47, Type (0, 0), BuildingBlock: XUDNAN_clean_linker_2, # of connection points: 2
#     Edge 48, Type (0, 0), BuildingBlock: XUDNAN_clean_linker_2, # of connection points: 2
#     Edge 49, Type (0, 0), BuildingBlock: XUDNAN_clean_linker_2, # of connection points: 2
#     Edge 50, Type (0, 0), BuildingBlock: XUDNAN_clean_linker_2, # of connection points: 2
#     Edge 51, Type (0, 0), BuildingBlock: XUDNAN_clean_linker_2, # of connection points: 2
#     Edge 52, Type (0, 0), BuildingBlock: XUDNAN_clean_linker_2, # of connection points: 2
#     Edge 53, Type (0, 0), BuildingBlock: XUDNAN_clean_linker_2, # of connection points: 2
#     Edge 54, Type (0, 0), BuildingBlock: XUDNAN_clean_linker_2, # of connection points: 2
#     Edge 55, Type (0, 0), BuildingBlock: XUDNAN_clean_linker_2, # of connection points: 2
#     Edge 56, Type (0, 0), BuildingBlock: XUDNAN_clean_linker_2, # of connection points: 2
#     Edge 57, Type (0, 0), BuildingBlock: XUDNAN_clean_linker_2, # of connection points: 2
#     Edge 58, Type (0, 0), BuildingBlock: XUDNAN_clean_linker_2, # of connection points: 2
#     Edge 59, Type (0, 0), BuildingBlock: XUDNAN_clean_linker_2, # of connection points: 2
#     Edge 60, Type (0, 0), BuildingBlock: XUDNAN_clean_linker_2, # of connection points: 2
#     Edge 61, Type (0, 0), BuildingBlock: XUDNAN_clean_linker_2, # of connection points: 2
#     Edge 62, Type (0, 0), BuildingBlock: XUDNAN_clean_linker_2, # of connection points: 2
#     Edge 63, Type (0, 0), BuildingBlock: XUDNAN_clean_linker_2, # of connection points: 2
#     Edge 64, Type (0, 0), BuildingBlock: XUDNAN_clean_linker_2, # of connection points: 2
#     Edge 65, Type (0, 0), BuildingBlock: XUDNAN_clean_linker_2, # of connection points: 2
#     Edge 66, Type (0, 0), BuildingBlock: XUDNAN_clean_linker_2, # of connection points: 2
#     Edge 67, Type (0, 0), BuildingBlock: XUDNAN_clean_linker_2, # of connection points: 2
#     Edge 68, Type (0, 0), BuildingBlock: XUDNAN_clean_linker_2, # of connection points: 2
#     Edge 69, Type (0, 0), BuildingBlock: XUDNAN_clean_linker_2, # of connection points: 2
#     Edge 70, Type (0, 0), BuildingBlock: XUDNAN_clean_linker_2, # of connection points: 2
#     Edge 71, Type (0, 0), BuildingBlock: XUDNAN_clean_linker_2, # of connection points: 2
# Relax obj value: 0.369
# Max RMSD: 0.313
# Mean RMSD: 0.299
data_MOF--net-svb--node1-NUHQUE_clean_sbu_2--edge1-XUDNAN_clean_linker_2
_symmetry_space_group_name_H-M    P1
_symmetry_Int_Tables_number       1
_symmetry_cell_setting            triclinic
loop_
_symmetry_equiv_pos_as_xyz
'x, y, z'
_cell_length_a     59.951345
_cell_length_b     59.194567
_cell_length_c     25.544003
_cell_angle_alpha  95.980527
_cell_angle_beta   93.358274
_cell_angle_gamma 89.775405
loop_
_atom_site_label
_atom_site_type_symbol
_atom_site_fract_x
_atom_site_fract_y
_atom_site_fract_z
_atom_type_partial_charge
O0 O 0.05729 0.357 0.24898 0.0
Tb1 Tb 0.08042 0.34741 0.18658 0.0
Eu2 Eu 0.12685 0.3432 0.10659 0.0
C3 C 0.0609 0.34809 0.29399 0.0
O4 O 0.07928 0.33632 0.30042 0.0
C5 C 0.12207 0.3217 0.21503 0.0
O6 O 0.13627 0.32303 1.02986 0.0
C7 C 0.15269 0.37757 0.13972 0.0
C8 C 0.1302 0.30149 1.01871 0.0
O9 O 0.12027 0.2914 0.05451 0.0
C10 C 0.07603 0.36125 0.07067 0.0
C11 C 0.16501 0.39901 0.13433 0.0
C12 C 0.15952 0.41949 0.16427 0.0
C13 C 0.17341 0.43885 0.16664 0.0
C14 C 0.19305 0.4375 0.13865 0.0
C15 C 0.19833 0.41748 0.10712 0.0
C16 C 0.18425 0.39845 0.10516 0.0
O17 O 0.11188 0.34093 0.22977 0.0
O18 O 0.12677 0.31729 0.16533 0.0
O19 O 0.06114 0.31638 0.18429 0.0
O20 O 0.08462 0.31916 0.12693 0.0
C21 C 0.07015 0.30591 0.14362 0.0
O22 O 0.09524 0.35128 0.05991 0.0
O23 O 0.07041 0.36715 0.11997 0.0
O24 O 0.15975 0.35847 0.1149 0.0
O25 O 0.13102 0.37783 0.14634 0.0
H26 H 0.14482 0.42019 0.18717 0.0
H27 H 0.20375 0.45228 0.13973 0.0
H28 H 0.18871 0.38298 0.08155 0.0
O29 O 0.91537 0.80897 0.53556 0.0
Tb30 Tb 0.92632 0.8325 0.48164 0.0
Eu31 Eu 0.93134 0.87466 0.39635 0.0
C32 C 0.91508 0.81599 0.58606 0.0
O33 O 0.91973 0.83739 0.60147 0.0
C34 C 0.94931 0.87679 0.51855 0.0
O35 O 0.95181 0.88044 0.32516 0.0
C36 C 0.89531 0.89901 0.40455 0.0
C37 C 0.97342 0.8756 0.32476 0.0
O38 O 0.98341 0.86901 0.36767 0.0
C39 C 0.91053 0.82361 0.36353 0.0
C40 C 0.87491 0.91368 0.40834 0.0
C41 C 0.85533 0.90711 0.43179 0.0
C42 C 0.83652 0.92171 0.43461 0.0
C43 C 0.8376 0.94284 0.41472 0.0
C44 C 0.85671 0.94948 0.39132 0.0
C45 C 0.87512 0.93485 0.38779 0.0
O46 O 0.93081 0.86567 0.52515 0.0
O47 O 0.95486 0.87983 0.47039 0.0
O48 O 0.95761 0.81542 0.49755 0.0
O49 O 0.95394 0.83462 0.4314 0.0
C50 C 0.96748 0.82272 0.45866 0.0
O51 O 0.92349 0.84016 0.35187 0.0
O52 O 0.90458 0.822 0.41207 0.0
O53 O 0.91344 0.90581 0.38381 0.0
O54 O 0.89678 0.8787 0.42132 0.0
H55 H 0.85458 0.89074 0.44701 0.0
H56 H 0.82324 0.95406 0.41662 0.0
H57 H 0.88984 0.94027 0.36974 0.0
O58 O 0.40032 0.70539 0.5216 0.0
Tb59 Tb 0.41608 0.68619 0.58289 0.0
Eu60 Eu 0.43449 0.64559 0.66212 0.0
C61 C 0.41023 0.70585 0.47679 0.0
O62 O 0.4279 0.69311 0.46825 0.0
C63 C 0.44501 0.64688 0.54504 0.0
O64 O 0.45724 0.63754 0.73182 0.0
C65 C 0.40223 0.61704 0.63611 0.0
C66 C 0.47301 0.65246 0.74804 0.0
O67 O 0.47554 0.66967 0.72039 0.0
C68 C 0.4061 0.69082 0.70085 0.0
C69 C 0.3811 0.60789 0.65159 0.0
C70 C 0.36105 0.61354 0.62485 0.0
C71 C 0.34062 0.60423 0.63631 0.0
C72 C 0.34047 0.58919 0.67513 0.0
C73 C 0.36044 0.58285 0.70049 0.0
C74 C 0.38075 0.59213 0.68888 0.0
O75 O 0.42409 0.6538 0.54013 0.0
O76 O 0.45505 0.64674 0.59219 0.0
O77 O 0.44052 0.71114 0.5696 0.0
O78 O 0.44821 0.68856 0.62777 0.0
C79 C 0.45568 0.70447 0.60249 0.0
O80 O 0.4228 0.67698 0.7103 0.0
O81 O 0.39725 0.69297 0.65298 0.0
O82 O 0.42101 0.61152 0.66104 0.0
O83 O 0.4018 0.63813 0.62405 0.0
H84 H 0.36153 0.62466 0.59381 0.0
H85 H 0.32489 0.58203 0.68534 0.0
H86 H 0.39612 0.58695 0.7087 0.0
O87 O 0.55988 0.14662 0.80676 0.0
Tb88 Tb 0.5796 0.1649 0.87195 0.0
Eu89 Eu 0.62261 0.17906 0.96464 0.0
C90 C 0.56602 0.14841 0.75883 0.0
O91 O 0.58659 0.15492 0.75354 0.0
C92 C 0.61594 0.19809 0.85547 0.0
O93 O 0.63406 0.1999 0.04175 0.0
C94 C 0.64677 0.14517 0.92745 0.0
C95 C 0.62473 0.21996 0.05398 0.0
O96 O 0.6104 0.22775 1.0193 0.0
C97 C 0.57607 0.15519 0.98982 0.0
C98 C 0.6592 0.12328 0.92675 0.0
C99 C 0.65157 0.10387 0.89313 0.0
C100 C 0.66492 0.08417 0.88715 0.0
C101 C 0.68569 0.08404 0.91481 0.0
C102 C 0.69318 0.10263 0.94996 0.0
C103 C 0.68005 0.12234 0.95517 0.0
O104 O 0.60993 0.17689 0.83985 0.0
O105 O 0.61837 0.20438 0.90624 0.0
O106 O 0.55572 0.18866 0.84329 0.0
O107 O 0.57329 0.19696 0.91807 0.0
C108 C 0.55921 0.20398 0.88279 0.0
O109 O 0.59243 0.16955 1.00523 0.0
O110 O 0.57181 0.14711 0.93986 0.0
O111 O 0.65512 0.16335 0.95616 0.0
O112 O 0.62482 0.14536 0.92044 0.0
H113 H 0.63556 0.10418 0.87124 0.0
H114 H 0.6959 0.06887 0.90988 0.0
H115 H 0.68603 0.13681 0.98166 0.0
O116 O 0.06102 0.64578 0.2962 0.0
Tb117 Tb 0.07937 0.66282 0.36492 0.0
Eu118 Eu 0.11652 0.67961 0.46156 0.0
C119 C 0.06512 0.65242 0.25012 0.0
O120 O 0.08121 0.66718 0.24757 0.0
C121 C 0.11814 0.6921 0.34605 0.0
O122 O 0.12712 0.70706 0.52836 0.0
C123 C 0.1412 0.64387 0.44367 0.0
C124 C 0.12163 0.70692 0.57782 0.0
O125 O 0.11171 0.68891 0.59172 0.0
C126 C 0.07145 0.65358 0.47829 0.0
C127 C 0.15637 0.62392 0.43485 0.0
C128 C 0.15052 0.60367 0.40177 0.0
C129 C 0.16666 0.58616 0.39096 0.0
C130 C 0.18857 0.59013 0.41335 0.0
C131 C 0.19409 0.60959 0.44735 0.0
C132 C 0.178 0.62615 0.45814 0.0
O133 O 0.11124 0.67096 0.33482 0.0
O134 O 0.11769 0.70151 0.39478 0.0
O135 O 0.05582 0.68804 0.33998 0.0
O136 O 0.07488 0.6949 0.41286 0.0
C137 C 0.06029 0.70279 0.38018 0.0
O138 O 0.08429 0.67113 0.49491 0.0
O139 O 0.07194 0.64335 0.42985 0.0
O140 O 0.14695 0.66134 0.47817 0.0
O141 O 0.12142 0.64551 0.41933 0.0
H142 H 0.1336 0.60183 0.38482 0.0
H143 H 0.20203 0.5786 0.40349 0.0
H144 H 0.18264 0.64117 0.48446 0.0
O145 O 0.55793 0.86794 0.78915 0.0
Tb146 Tb 0.57881 0.85356 0.72577 0.0
Eu147 Eu 0.6241 0.8396 0.64174 0.0
C148 C 0.56485 0.8665 0.83868 0.0
O149 O 0.58593 0.86168 0.84885 0.0
C150 C 0.61756 0.82136 0.75627 0.0
O151 O 0.63145 0.81 0.58004 0.0
C152 C 0.65446 0.87146 0.66011 0.0
C153 C 0.62698 0.8103 0.52872 0.0
O154 O 0.62024 0.82933 0.51076 0.0
C155 C 0.57743 0.86504 0.60802 0.0
C156 C 0.66514 0.8936 0.65127 0.0
C157 C 0.65941 0.91408 0.68098 0.0
C158 C 0.67218 0.93427 0.68105 0.0
C159 C 0.6908 0.93354 0.64929 0.0
C160 C 0.69632 0.91356 0.61771 0.0
C161 C 0.68344 0.89378 0.6191 0.0
O162 O 0.60783 0.84097 0.77084 0.0
O163 O 0.62287 0.81628 0.70697 0.0
O164 O 0.55104 0.83023 0.72728 0.0
O165 O 0.57681 0.82245 0.67364 0.0
C166 C 0.5584 0.81566 0.69104 0.0
O167 O 0.59316 0.85004 0.59651 0.0
O168 O 0.57454 0.87374 0.65747 0.0
O169 O 0.65642 0.85353 0.62546 0.0
O170 O 0.63584 0.87152 0.68521 0.0
H171 H 0.64511 0.91405 0.70488 0.0
H172 H 0.7012 0.94843 0.64902 0.0
H173 H 0.68824 0.87824 0.59625 0.0
O174 O 0.40372 0.30999 0.03298 0.0
Tb175 Tb 0.4189 0.333 0.9839 0.0
Eu176 Eu 0.43474 0.37523 0.89424 0.0
C177 C 0.40856 0.31112 0.08421 0.0
O178 O 0.42 0.32856 0.10772 0.0
C179 C 0.45034 0.3733 1.01642 0.0
O180 O 0.46197 0.38368 0.83852 0.0
C181 C 0.39905 0.39972 0.90351 0.0
C182 C 0.46216 0.37663 0.78733 0.0
O183 O 0.44453 0.36602 0.76386 0.0
C184 C 0.40642 0.33037 0.86206 0.0
C185 C 0.37855 0.41382 0.90882 0.0
C186 C 0.35901 0.40596 0.93027 0.0
C187 C 0.33957 0.41958 0.93202 0.0
C188 C 0.34004 0.44096 0.91356 0.0
C189 C 0.35918 0.44892 0.89277 0.0
C190 C 0.37828 0.43528 0.89006 0.0
O191 O 0.42993 0.36604 1.02338 0.0
O192 O 0.45654 0.3757 0.9687 0.0
O193 O 0.43885 0.31483 0.92619 0.0
O194 O 0.45323 0.3228 1.00349 0.0
C195 C 0.45667 0.31406 0.95616 0.0
O196 O 0.42468 0.34153 0.85422 0.0
O197 O 0.39785 0.33159 0.90931 0.0
O198 O 0.41582 0.40529 0.87609 0.0
O199 O 0.40208 0.38121 0.92725 0.0
H200 H 0.35867 0.38924 0.94389 0.0
H201 H 0.32506 0.45132 0.91424 0.0
H202 H 0.39305 0.44156 0.87367 0.0
O203 O 0.89398 0.20118 0.98364 0.0
Tb204 Tb 0.91238 0.18554 0.0467 0.0
Eu205 Eu 0.93442 0.14846 0.13315 0.0
C206 C 0.90407 0.20399 0.94015 0.0
O207 O 0.92309 0.19353 0.93186 0.0
C208 C 0.94713 0.14914 1.01233 0.0
O209 O 0.9632 0.14657 0.19538 0.0
C210 C 0.90355 0.11715 0.1213 0.0
C211 C 0.96108 0.14394 0.24559 0.0
O212 O 0.94128 0.13997 0.26211 0.0
C213 C 0.90316 0.19091 0.16322 0.0
C214 C 0.88304 0.10805 0.14215 0.0
C215 C 0.8618 0.10987 0.11503 0.0
C216 C 0.84288 0.09893 0.13147 0.0
C217 C 0.84529 0.08737 0.17666 0.0
C218 C 0.86616 0.08412 0.20131 0.0
C219 C 0.88501 0.09455 0.1846 0.0
O220 O 0.92675 0.15647 1.0009 0.0
O221 O 0.95492 0.14829 0.06143 0.0
O222 O 0.9253 0.21943 0.04603 0.0
O223 O 0.94556 0.19468 0.08081 0.0
C224 C 0.94453 0.21544 0.06873 0.0
O225 O 0.92202 0.18079 0.17522 0.0
O226 O 0.89295 0.18691 0.11601 0.0
O227 O 0.92287 0.11504 0.14791 0.0
O228 O 0.9019 0.13617 0.09883 0.0
H229 H 0.86027 0.11862 0.07979 0.0
H230 H 0.83092 0.07931 0.19093 0.0
H231 H 0.9012 0.09149 0.20367 0.0
O232 O 0.95738 0.64548 0.78313 0.0
Tb233 Tb 0.94327 0.66262 0.85316 0.0
Eu234 Eu 0.9077 0.68014 0.94486 0.0
C235 C 0.96068 0.6582 0.74495 0.0
O236 O 0.95269 0.67897 0.74907 0.0
C237 C 0.90938 0.70037 0.8358 0.0
O238 O 0.89924 0.69861 1.02376 0.0
C239 C 0.88087 0.64724 0.90842 0.0
C240 C 0.90285 0.72066 0.03443 0.0
O241 O 0.90981 0.73216 0.99718 0.0
C242 C 0.95043 0.64942 0.96514 0.0
C243 C 0.86999 0.62598 0.91947 0.0
C244 C 0.87649 0.60481 0.89473 0.0
C245 C 0.86381 0.58532 0.8993 0.0
C246 C 0.84396 0.58714 0.92558 0.0
C247 C 0.83717 0.60807 0.95039 0.0
C248 C 0.85101 0.62712 0.94918 0.0
O249 O 0.9148 0.6796 0.8165 0.0
O250 O 0.9098 0.70583 0.8871 0.0
O251 O 0.97416 0.68071 0.84701 0.0
O252 O 0.95162 0.69335 0.90424 0.0
C253 C 0.97025 0.69686 0.88335 0.0
O254 O 0.93934 0.66759 0.98253 0.0
O255 O 0.94781 0.64047 0.91559 0.0
O256 O 0.87421 0.66645 0.9335 0.0
O257 O 0.90234 0.64682 0.9006 0.0
H258 H 0.89114 0.6035 0.87164 0.0
H259 H 0.83364 0.57214 0.92507 0.0
H260 H 0.84665 0.64322 0.97003 0.0
O261 O 0.12906 0.20883 0.5124 0.0
Tb262 Tb 0.11453 0.19196 0.57565 0.0
Eu263 Eu 0.09431 0.14882 0.65627 0.0
C264 C 0.12267 0.20259 0.46264 0.0
O265 O 0.11245 0.18298 0.45143 0.0
C266 C 0.07837 0.15596 0.53734 0.0
O267 O 0.06861 0.13997 0.71356 0.0
C268 C 0.12319 0.11599 0.64005 0.0
C269 C 0.05797 0.15581 0.74278 0.0
O270 O 0.06206 0.17724 0.73779 0.0
C271 C 0.12512 0.19413 0.69564 0.0
C272 C 0.14509 0.1055 0.65464 0.0
C273 C 0.16494 0.11355 0.63594 0.0
C274 C 0.1854 0.10236 0.64387 0.0
C275 C 0.18594 0.08337 0.67238 0.0
C276 C 0.16631 0.07374 0.688 0.0
C277 C 0.14589 0.08526 0.67991 0.0
O278 O 0.09948 0.16141 0.53256 0.0
O279 O 0.07126 0.15252 0.5838 0.0
O280 O 0.09995 0.22497 0.57026 0.0
O281 O 0.08302 0.20081 0.6099 0.0
C282 C 0.08253 0.22122 0.59554 0.0
O283 O 0.10837 0.18066 0.70375 0.0
O284 O 0.13455 0.19332 0.6498 0.0
O285 O 0.10668 0.11509 0.67143 0.0
O286 O 0.12321 0.1348 0.61666 0.0
H287 H 0.1643 0.12796 0.61302 0.0
H288 H 0.20192 0.07561 0.6813 0.0
H289 H 0.13052 0.07796 0.69089 0.0
O290 O 0.61588 0.30911 0.55537 0.0
Tb291 Tb 0.60554 0.33191 0.4959 0.0
Eu292 Eu 0.59848 0.3761 0.41389 0.0
C293 C 0.60806 0.31424 0.60226 0.0
O294 O 0.59684 0.33326 0.60976 0.0
C295 C 0.58236 0.37504 0.53155 0.0
O296 O 0.57682 0.38166 0.33948 0.0
C297 C 0.63239 0.40448 0.43034 0.0
C298 C 0.55498 0.37786 0.3342 0.0
O299 O 0.54453 0.37259 0.37506 0.0
C300 C 0.62032 0.32527 0.38082 0.0
C301 C 0.65227 0.41656 0.41218 0.0
C302 C 0.67385 0.41503 0.43829 0.0
C303 C 0.69192 0.4289 0.42689 0.0
C304 C 0.68789 0.44398 0.38787 0.0
C305 C 0.66672 0.44643 0.36287 0.0
C306 C 0.64913 0.43238 0.3744 0.0
O307 O 0.6019 0.36519 0.53895 0.0
O308 O 0.57521 0.37797 0.48278 0.0
O309 O 0.57475 0.31391 0.50423 0.0
O310 O 0.57679 0.33402 0.44034 0.0
C311 C 0.56396 0.32138 0.46414 0.0
O312 O 0.60749 0.3424 0.36819 0.0
O313 O 0.62658 0.32249 0.43036 0.0
O314 O 0.61223 0.40998 0.4126 0.0
O315 O 0.6338 0.38309 0.44033 0.0
H316 H 0.67623 0.40381 0.46902 0.0
H317 H 0.70136 0.45414 0.37619 0.0
H318 H 0.63276 0.43446 0.35523 0.0
O319 O 0.39836 0.80778 0.04667 0.0
Tb320 Tb 0.41708 0.82824 0.10997 0.0
Eu321 Eu 0.43017 0.86803 0.21419 0.0
C322 C 0.4039 0.8079 0.99759 0.0
O323 O 0.41804 0.82335 0.98635 0.0
C324 C 0.4497 0.86617 0.10194 0.0
O325 O 0.44868 0.87587 0.29512 0.0
C326 C 0.39609 0.89268 0.18723 0.0
C327 C 0.47071 0.87799 0.30107 0.0
O328 O 0.48225 0.87844 0.25908 0.0
C329 C 0.4059 0.8201 0.224 0.0
C330 C 0.37408 0.90419 0.19451 0.0
C331 C 0.35499 0.89748 0.16056 0.0
C332 C 0.33484 0.90996 0.16418 0.0
C333 C 0.33391 0.9282 0.2035 0.0
C334 C 0.35346 0.93766 0.22939 0.0
C335 C 0.37325 0.92493 0.22722 0.0
O336 O 0.42913 0.85999 0.08505 0.0
O337 O 0.45546 0.8663 0.15249 0.0
O338 O 0.44242 0.80538 0.0786 0.0
O339 O 0.44578 0.81944 0.15921 0.0
C340 C 0.45465 0.8064 0.1222 0.0
O341 O 0.42103 0.83508 0.24407 0.0
O342 O 0.39728 0.82019 0.17507 0.0
O343 O 0.41393 0.90089 0.21559 0.0
O344 O 0.39689 0.87056 0.17451 0.0
H345 H 0.35629 0.88372 0.12942 0.0
H346 H 0.31836 0.93756 0.20686 0.0
H347 H 0.38838 0.93207 0.24751 0.0
O348 O 0.89229 0.30863 0.50186 0.0
Tb349 Tb 0.90911 0.32131 0.57718 0.0
Eu350 Eu 0.92973 0.36251 0.67396 0.0
C351 C 0.90451 0.30734 0.46031 0.0
O352 O 0.92483 0.31574 0.46559 0.0
C353 C 0.9472 0.35427 0.56069 0.0
O354 O 0.95105 0.37154 0.75123 0.0
C355 C 0.89692 0.3883 0.64322 0.0
C356 C 0.97057 0.36101 0.7538 0.0
O357 O 0.97635 0.34883 0.71073 0.0
C358 C 0.89993 0.31945 0.69342 0.0
C359 C 0.87632 0.40193 0.65425 0.0
C360 C 0.85696 0.40018 0.61871 0.0
C361 C 0.83926 0.41613 0.62479 0.0
C362 C 0.84134 0.43355 0.66665 0.0
C363 C 0.86047 0.43572 0.7009 0.0
C364 C 0.87747 0.41954 0.69557 0.0
O365 O 0.92597 0.34982 0.54724 0.0
O366 O 0.95406 0.35538 0.61056 0.0
O367 O 0.91915 0.28652 0.55812 0.0
O368 O 0.94 0.30849 0.61136 0.0
C369 C 0.93731 0.28799 0.58808 0.0
O370 O 0.91807 0.33145 0.70803 0.0
O371 O 0.88964 0.31986 0.64624 0.0
O372 O 0.9162 0.39607 0.66552 0.0
O373 O 0.89577 0.36601 0.6378 0.0
H374 H 0.85631 0.38746 0.58494 0.0
H375 H 0.82832 0.44626 0.67116 0.0
H376 H 0.89241 0.42171 0.72164 0.0
O377 O 0.4663 0.15265 0.30642 0.0
Tb378 Tb 0.44312 0.17 0.35999 0.0
Eu379 Eu 0.4007 0.18452 0.45008 0.0
C380 C 0.4647 0.15536 0.25572 0.0
O381 O 0.44712 0.1658 0.23681 0.0
C382 C 0.40217 0.19534 0.33344 0.0
O383 O 0.39099 0.20584 0.52369 0.0
C384 C 0.37451 0.14983 0.42738 0.0
C385 C 0.40261 0.22423 0.54075 0.0
O386 O 0.41896 0.2302 0.51293 0.0
C387 C 0.44903 0.16216 0.47837 0.0
C388 C 0.36233 0.12988 0.44163 0.0
C389 C 0.36622 0.10874 0.41362 0.0
C390 C 0.35152 0.09066 0.41563 0.0
C391 C 0.33275 0.09365 0.44567 0.0
C392 C 0.32863 0.11447 0.47559 0.0
C393 C 0.34402 0.13242 0.47404 0.0
O394 O 0.40956 0.17427 0.32703 0.0
O395 O 0.40139 0.20543 0.38165 0.0
O396 O 0.45776 0.19947 0.3312 0.0
O397 O 0.44907 0.20143 0.41118 0.0
C398 C 0.45682 0.21249 0.37494 0.0
O399 O 0.43382 0.17755 0.49115 0.0
O400 O 0.45042 0.15226 0.42984 0.0
O401 O 0.36742 0.17023 0.44418 0.0
O402 O 0.39623 0.14856 0.42209 0.0
H403 H 0.37964 0.10684 0.3868 0.0
H404 H 0.32071 0.07993 0.44247 0.0
H405 H 0.34139 0.14871 0.49611 0.0
O406 O 0.5572 0.64401 0.23286 0.0
Tb407 Tb 0.57994 0.66025 0.18526 0.0
Eu408 Eu 0.61941 0.67387 0.10848 0.0
C409 C 0.55775 0.64974 0.28405 0.0
O410 O 0.57398 0.66294 0.30617 0.0
C411 C 0.61959 0.68786 0.23154 0.0
O412 O 0.6292 0.69469 0.04136 0.0
C413 C 0.6413 0.63665 0.11993 0.0
C414 C 0.62129 0.71552 0.03746 0.0
O415 O 0.61 0.72506 0.07627 0.0
C416 C 0.57212 0.65131 0.06471 0.0
C417 C 0.6554 0.61593 0.12416 0.0
C418 C 0.65046 0.59759 0.15329 0.0
C419 C 0.66662 0.58027 0.16004 0.0
C420 C 0.68798 0.58244 0.14083 0.0
C421 C 0.69283 0.6006 0.11209 0.0
C422 C 0.67578 0.61584 0.10068 0.0
O423 O 0.61129 0.66716 0.23115 0.0
O424 O 0.62114 0.69651 0.18626 0.0
O425 O 0.55916 0.68896 0.21157 0.0
O426 O 0.57974 0.69106 0.14706 0.0
C427 C 0.5659 0.70178 0.17743 0.0
O428 O 0.58718 0.66695 0.05996 0.0
O429 O 0.57134 0.64136 0.10854 0.0
O430 O 0.64981 0.6548 0.10252 0.0
O431 O 0.62013 0.63845 0.13074 0.0
H432 H 0.63439 0.59674 0.17028 0.0
H433 H 0.70071 0.56996 0.1484 0.0
H434 H 0.6788 0.62861 0.07448 0.0
O435 O 0.12064 0.8067 0.04511 0.0
Tb436 Tb 0.10634 0.83074 0.99291 0.0
Eu437 Eu 0.09504 0.87631 0.92169 0.0
C438 C 0.11496 0.80742 0.09441 0.0
O439 O 0.10291 0.82453 0.11367 0.0
C440 C 0.07878 0.87059 0.03759 0.0
O441 O 0.07303 0.8874 0.8518 0.0
C442 C 0.13027 0.90164 0.95024 0.0
C443 C 0.05816 0.873 0.82645 0.0
O444 O 0.05624 0.85301 0.84347 0.0
C445 C 0.11795 0.82801 0.87539 0.0
C446 C 0.15148 0.91192 0.93515 0.0
C447 C 0.17205 0.90885 0.96447 0.0
C448 C 0.19168 0.92045 0.95386 0.0
C449 C 0.19044 0.93409 0.9118 0.0
C450 C 0.17025 0.93825 0.88416 0.0
C451 C 0.15082 0.92712 0.89591 0.0
O452 O 0.09864 0.86114 0.04439 0.0
O453 O 0.07184 0.87497 0.9896 0.0
O454 O 0.07856 0.80773 0.99463 0.0
O455 O 0.07682 0.8331 0.94076 0.0
C456 C 0.06636 0.81682 0.95885 0.0
O457 O 0.10408 0.84496 0.86782 0.0
O458 O 0.12576 0.82387 0.9231 0.0
O459 O 0.11115 0.90943 0.93131 0.0
O460 O 0.12966 0.87972 0.95515 0.0
H461 H 0.17249 0.89837 0.99685 0.0
H462 H 0.20536 0.94256 0.90173 0.0
H463 H 0.13521 0.93042 0.87449 0.0
H464 H 0.98657 0.20807 0.10739 0.0
H465 H 0.94525 0.2552 1.0256 0.0
H466 H 0.97848 0.27772 1.01335 0.0
H467 H 0.01727 0.24805 0.18201 0.0
H468 H 0.04335 0.23275 0.18169 0.0
H469 H 0.01747 0.21744 0.17205 0.0
H470 H 0.03066 0.19742 0.08382 0.0
H471 H 0.05653 0.21321 0.09308 0.0
H472 H 0.03907 0.21427 0.0335 0.0
H473 H 1.01258 0.29752 1.0211 0.0
H474 H 0.04318 0.31907 0.0691 0.0
H475 H 0.0649 0.26047 0.14513 0.0
C476 C 0.98473 0.22297 0.08624 0.0
C477 C 0.96372 0.22992 0.06683 0.0
C478 C 0.96145 0.24966 0.0404 0.0
C479 C 0.98024 0.26221 0.03221 0.0
C480 C 1.00097 0.2546 0.05047 0.0
C481 C 1.00331 0.23579 0.07816 0.0
C482 C 0.02658 0.23403 0.10319 0.0
C483 C 0.02612 0.23305 0.16326 0.0
C484 C 0.03894 0.21351 0.0768 0.0
C485 C 0.03627 0.25604 0.08961 0.0
C486 C 0.0216 0.26679 0.05616 0.0
C487 C 0.02475 0.28894 0.04495 0.0
C488 C 0.04244 0.30099 0.07139 0.0
C489 C 0.05695 0.29071 0.10705 0.0
C490 C 0.05447 0.2679 0.11539 0.0
H491 H 0.05445 0.72973 0.46973 0.0
H492 H 0.0482 0.72702 0.29945 0.0
H493 H 0.03377 0.76613 0.30614 0.0
H494 H 1.00376 0.75096 0.48446 0.0
H495 H 1.00979 0.76831 0.54593 0.0
H496 H 0.02668 0.74397 0.52877 0.0
H497 H 0.06203 0.76963 0.53983 0.0
H498 H 0.04496 0.79424 0.55617 0.0
H499 H 0.06342 0.79387 0.50284 0.0
H500 H 0.0145 0.80078 0.32826 0.0
H501 H 0.9832 0.82352 0.36226 0.0
H502 H 0.9993 0.80409 0.51875 0.0
C503 C 0.05081 0.7379 0.43417 0.0
C504 C 0.05259 0.72599 0.38426 0.0
C505 C 0.04685 0.73626 0.33804 0.0
C506 C 0.03909 0.75853 0.34152 0.0
C507 C 0.03728 0.77006 0.39145 0.0
C508 C 0.04247 0.7599 0.43711 0.0
C509 C 0.0332 0.77309 0.48469 0.0
C510 C 0.01742 0.75821 0.51249 0.0
C511 C 0.05204 0.78332 0.52314 0.0
C512 C 0.02074 0.79134 0.45801 0.0
C513 C 0.0244 0.79004 0.40471 0.0
C514 C 1.01197 0.80254 0.37009 0.0
C515 C 0.99428 0.81546 0.38964 0.0
C516 C 0.9893 0.81539 0.44282 0.0
C517 C 1.00332 0.80444 0.47804 0.0
H518 H 0.54775 0.77927 0.74134 0.0
H519 H 0.53967 0.80822 0.59407 0.0
H520 H 0.52668 0.77218 0.54852 0.0
H521 H 0.55353 0.71616 0.6889 0.0
H522 H 0.53426 0.70771 0.73489 0.0
H523 H 0.55246 0.73183 0.7531 0.0
H524 H 0.51831 0.75762 0.77453 0.0
H525 H 0.50044 0.73344 0.75852 0.0
H526 H 0.49559 0.75863 0.72535 0.0
H527 H 0.51056 0.73706 0.52088 0.0
H528 H 0.47617 0.71493 0.5184 0.0
H529 H 0.48584 0.70914 0.68574 0.0
C530 C 0.5438 0.77743 0.69917 0.0
C531 C 0.5469 0.79541 0.66884 0.0
C532 C 0.54009 0.79361 0.61527 0.0
C533 C 0.53252 0.77315 0.58958 0.0
C534 C 0.5308 0.75492 0.61923 0.0
C535 C 0.53492 0.75724 0.67354 0.0
C536 C 0.52428 0.73825 0.69835 0.0
C537 C 0.54221 0.72255 0.72009 0.0
C538 C 0.50872 0.74755 0.74163 0.0
C539 C 0.5116 0.72652 0.65019 0.0
C540 C 0.51751 0.73514 0.60447 0.0
C541 C 0.50592 0.72991 0.55602 0.0
C542 C 0.48631 0.71762 0.55507 0.0
C543 C 0.47871 0.71103 0.60231 0.0
C544 C 0.49202 0.71389 0.64946 0.0
H545 H 0.49281 0.30153 1.01361 0.0
H546 H 0.4667 0.30909 0.85468 0.0
H547 H 0.49986 0.29054 0.8189 0.0
H548 H 0.55637 0.30046 0.98505 0.0
H549 H 0.56083 0.27842 1.02823 0.0
H550 H 0.54053 0.30042 0.04288 0.0
H551 H 0.51007 0.26971 0.04654 0.0
H552 H 0.53002 0.2478 0.03182 0.0
H553 H 0.50475 0.24897 0.99031 0.0
H554 H 0.52625 0.26185 0.79963 0.0
H555 H 0.54442 0.2246 0.79826 0.0
H556 H 0.55534 0.23397 0.96826 0.0
C557 C 0.49487 0.30015 0.97155 0.0
C558 C 0.47774 0.30656 0.93667 0.0
C559 C 0.48001 0.30414 0.88174 0.0
C560 C 0.49891 0.29396 0.86116 0.0
C561 C 0.51518 0.28634 0.89622 0.0
C562 C 0.51346 0.28942 0.95046 0.0
C563 C 0.52983 0.27477 0.97858 0.0
C564 C 0.54798 0.28939 1.01056 0.0
C565 C 0.51794 0.25942 1.01377 0.0
C566 C 0.53917 0.26125 0.93156 0.0
C567 C 0.53117 0.26885 0.88448 0.0
C568 C 0.53342 0.25624 0.83593 0.0
C569 C 0.54334 0.23499 0.83556 0.0
C570 C 0.5509 0.22686 0.88339 0.0
C571 C 0.54984 0.24039 0.93147 0.0
H572 H 0.97909 0.72574 0.97011 0.0
H573 H 0.98239 0.71727 0.80028 0.0
H574 H 0.99699 0.75614 0.80225 0.0
H575 H 0.97082 0.79019 0.98905 0.0
H576 H 0.98997 0.79248 0.0465 0.0
H577 H 0.97261 0.76757 1.0312 0.0
H578 H 1.00784 0.74183 0.03221 0.0
H579 H 0.02497 0.76653 0.04852 0.0
H580 H 0.03027 0.74728 0.99114 0.0
H581 H 0.01805 0.79002 0.82178 0.0
H582 H 0.05051 0.8127 0.85783 0.0
H583 H 0.03542 0.80067 1.01602 0.0
C584 C 0.9825 0.73251 0.93358 0.0
C585 C 0.9799 0.71909 0.88529 0.0
C586 C 0.98471 0.72765 0.83774 0.0
C587 C 0.99243 0.7498 0.8384 0.0
C588 C 0.99531 0.76281 0.88696 0.0
C589 C 0.99091 0.75433 0.9339 0.0
C590 C 1.00081 0.76906 0.98106 0.0
C591 C 0.98245 0.78051 1.01387 0.0
C592 C 0.01693 0.75537 1.01513 0.0
C593 C 0.01296 0.78608 0.95309 0.0
C594 C 1.00855 0.78291 0.89892 0.0
C595 C 0.02097 0.7935 0.86405 0.0
C596 C 0.03926 0.80653 0.88473 0.0
C597 C 0.04461 0.80869 0.93934 0.0
C598 C 0.03089 0.79944 0.97413 0.0
H599 H 0.05233 0.23327 0.66797 0.0
H600 H 0.06693 0.23482 0.50396 0.0
H601 H 0.02848 0.2473 0.48322 0.0
H602 H 0.99572 0.21523 0.6493 0.0
H603 H 0.98581 0.23405 0.70302 0.0
H604 H 0.01428 0.22413 0.7057 0.0
H605 H 0.02905 0.26565 0.71903 0.0
H606 H 1.00067 0.27567 0.71829 0.0
H607 H 0.01966 0.28533 0.67313 0.0
H608 H 0.98858 0.2555 0.4787 0.0
H609 H 0.95148 0.27202 0.49431 0.0
H610 H 0.96441 0.27115 0.66297 0.0
C611 C 0.04736 0.23669 0.62809 0.0
C612 C 0.06201 0.23317 0.58735 0.0
C613 C 0.05556 0.23772 0.53545 0.0
C614 C 0.03381 0.24441 0.52318 0.0
C615 C 0.01932 0.24691 0.56379 0.0
C616 C 0.02598 0.24424 0.61554 0.0
C617 C 1.00763 0.25037 0.65229 0.0
C618 C 1.00045 0.22971 0.67916 0.0
C619 C 0.01467 0.27046 0.69306 0.0
C620 C 0.98971 0.25698 0.61289 0.0
C621 C 0.99658 0.25386 0.56189 0.0
C622 C 0.98293 0.25822 0.51834 0.0
C623 C 0.96194 0.2673 0.5275 0.0
C624 C 0.95562 0.27261 0.57972 0.0
C625 C 0.9692 0.26694 0.62288 0.0
H626 H 0.46892 0.23659 0.46719 0.0
H627 H 0.4619 0.24021 0.29866 0.0
H628 H 0.48045 0.27761 0.30996 0.0
H629 H 0.46944 0.30151 0.51195 0.0
H630 H 0.49095 0.29699 0.56207 0.0
H631 H 0.46964 0.27574 0.54388 0.0
H632 H 0.50065 0.24566 0.52504 0.0
H633 H 0.52174 0.26685 0.54239 0.0
H634 H 0.52112 0.25065 0.47852 0.0
H635 H 0.50762 0.30738 0.33412 0.0
H636 H 0.54322 0.3255 0.36822 0.0
H637 H 0.53426 0.30261 0.52122 0.0
C638 C 0.47039 0.24591 0.43324 0.0
C639 C 0.46404 0.23601 0.38233 0.0
C640 C 0.46676 0.24787 0.33805 0.0
C641 C 0.47698 0.26918 0.34423 0.0
C642 C 0.48433 0.27816 0.39486 0.0
C643 C 0.48111 0.26689 0.4388 0.0
C644 C 0.49516 0.27698 0.48641 0.0
C645 C 0.4804 0.2885 0.52855 0.0
C646 C 0.51057 0.25898 0.50931 0.0
C647 C 0.50818 0.29429 0.46123 0.0
C648 C 0.50102 0.29544 0.40904 0.0
C649 C 0.5129 0.30733 0.37534 0.0
C650 C 0.53311 0.31749 0.39485 0.0
C651 C 0.5411 0.31527 0.44705 0.0
C652 C 0.5281 0.30457 0.48122 0.0
H653 H 0.54179 0.72871 0.24473 0.0
H654 H 0.57021 0.72373 0.09215 0.0
H655 H 0.55179 0.75889 0.07236 0.0
H656 H 0.4919 0.73744 0.19872 0.0
H657 H 0.48201 0.75701 0.25108 0.0
H658 H 0.50428 0.73788 0.26489 0.0
H659 H 0.53002 0.77149 0.30259 0.0
H660 H 0.50752 0.79092 0.29025 0.0
H661 H 0.53431 0.79465 0.26365 0.0
H662 H 0.52116 0.78238 0.05425 0.0
H663 H 0.4835 0.7987 0.04533 0.0
H664 H 0.47388 0.79147 0.20952 0.0
C665 C 0.54486 0.73586 0.20846 0.0
C666 C 0.55787 0.7243 0.17051 0.0
C667 C 0.56118 0.73319 0.12254 0.0
C668 C 0.55062 0.75308 0.1109 0.0
C669 C 0.53665 0.76353 0.14758 0.0
C670 C 0.53397 0.75552 0.19599 0.0
C671 C 0.51431 0.7665 0.2228 0.0
C672 C 0.49714 0.74865 0.23501 0.0
C673 C 0.52201 0.78182 0.27278 0.0
C674 C 0.50533 0.78029 0.17994 0.0
C675 C 0.5186 0.77851 0.13714 0.0
C676 C 0.51119 0.78509 0.08832 0.0
C677 C 0.48974 0.7939 0.08328 0.0
C678 C 0.47653 0.79662 0.12729 0.0
C679 C 0.48439 0.79019 0.17623 0.0
H680 H 0.3272 0.41479 0.03285 0.0
H681 H 0.30228 0.41026 0.86948 0.0
H682 H 0.2636 0.40842 0.89692 0.0
H683 H 0.28273 0.37622 0.07521 0.0
H684 H 0.28157 0.39244 0.13873 0.0
H685 H 0.3074 0.3905 0.10572 0.0
H686 H 0.3095 0.43441 0.113 0.0
H687 H 0.2835 0.43652 0.145 0.0
H688 H 0.28654 0.45012 0.08585 0.0
H689 H 0.2277 0.41086 0.94147 0.0
H690 H 0.19644 0.41446 1.00077 0.0
H691 H 0.24359 0.41777 0.13659 0.0
C692 C 0.31361 0.41237 1.00296 0.0
C693 C 0.31774 0.412 0.94889 0.0
C694 C 0.29948 0.40988 0.91091 0.0
C695 C 0.27745 0.40905 0.92618 0.0
C696 C 0.27383 0.41019 0.97975 0.0
C697 C 0.29135 0.41137 1.01764 0.0
C698 C 0.28258 0.41313 0.07263 0.0
C699 C 0.28894 0.39181 0.0997 0.0
C700 C 0.29103 0.43485 0.10606 0.0
C701 C 0.2575 0.41401 0.05971 0.0
C702 C 0.2529 0.41192 1.00576 0.0
C703 C 0.23108 0.4123 0.98376 0.0
C704 C 0.21345 0.41445 1.01765 0.0
C705 C 0.21763 0.41653 0.07298 0.0
C706 C 0.23998 0.41643 0.09434 0.0
H707 H 0.86528 0.95933 0.29183 0.0
H708 H 0.84965 0.99038 0.44661 0.0
H709 H 0.85198 0.02847 0.41553 0.0
H710 H 0.90412 1.00037 0.26003 0.0
H711 H 0.89413 0.99986 0.19195 0.0
H712 H 0.89121 0.97505 0.22624 0.0
H713 H 0.84856 0.97455 0.20306 0.0
H714 H 0.85138 0.99925 0.1683 0.0
H715 H 0.83231 0.99962 0.22037 0.0
H716 H 0.85687 0.06302 0.36874 0.0
H717 H 0.86101 0.09198 0.30642 0.0
H718 H 0.87245 0.03868 0.18147 0.0
C719 C 0.86247 0.97422 0.31907 0.0
C720 C 0.85757 0.9721 0.37174 0.0
C721 C 0.8535 0.99179 0.40617 0.0
C722 C 0.85485 0.01343 0.38893 0.0
C723 C 0.85999 0.01501 0.33696 0.0
C724 C 0.86337 0.99595 0.30222 0.0
C725 C 0.86769 1.0024 0.24783 0.0
C726 C 0.89066 0.99392 0.23053 0.0
C727 C 0.84887 0.99343 0.20751 0.0
C728 C 0.86712 0.02809 0.25808 0.0
C729 C 0.86253 0.03499 0.3097 0.0
C730 C 0.86068 0.05788 0.32835 0.0
C731 C 0.86328 0.07418 0.29309 0.0
C732 C 0.86784 0.06745 0.24018 0.0
C733 C 0.86979 0.04415 0.22244 0.0
H734 H 0.21975 0.57881 0.49602 0.0
H735 H 0.21972 0.64792 0.45352 0.0
H736 H 0.2572 0.65414 0.49797 0.0
H737 H 0.24738 0.59122 0.62371 0.0
H738 H 0.26327 0.56525 0.62037 0.0
H739 H 0.23649 0.5661 0.5848 0.0
H740 H 0.25455 0.55189 0.49768 0.0
H741 H 0.28134 0.55081 0.53304 0.0
H742 H 0.27799 0.56713 0.47734 0.0
H743 H 0.29377 0.65326 0.54891 0.0
H744 H 0.32823 0.64492 0.60065 0.0
H745 H 0.3053 0.57554 0.60467 0.0
C746 C 0.22779 0.59513 0.49552 0.0
C747 C 0.21695 0.61291 0.47152 0.0
C748 C 0.22775 0.63419 0.47225 0.0
C749 C 0.249 0.63785 0.49718 0.0
C750 C 0.25915 0.62004 0.52093 0.0
C751 C 0.249 0.59907 0.52013 0.0
C752 C 0.26346 0.58289 0.54911 0.0
C753 C 0.25197 0.57597 0.59736 0.0
C754 C 0.26971 0.56195 0.51206 0.0
C755 C 0.28348 0.59799 0.56557 0.0
C756 C 0.28053 0.6194 0.54945 0.0
C757 C 0.29644 0.63649 0.56135 0.0
C758 C 0.31602 0.63152 0.59041 0.0
C759 C 0.31962 0.60955 0.60658 0.0
C760 C 0.30304 0.59262 0.59372 0.0
H761 H 0.67948 0.98002 0.66626 0.0
H762 H 0.65295 0.93768 0.77748 0.0
H763 H 0.64362 0.97181 0.83456 0.0
H764 H 0.70642 0.01971 0.7644 0.0
H765 H 0.70075 0.04414 0.72914 0.0
H766 H 0.7032 0.01648 0.69338 0.0
H767 H 0.664 0.02131 0.64759 0.0
H768 H 0.66136 0.0489 0.68392 0.0
H769 H 0.64039 0.02746 0.6873 0.0
H770 H 0.63852 1.01046 0.88312 0.0
H771 H 0.6418 0.05035 0.92274 0.0
H772 H 0.674 0.06815 0.78535 0.0
C773 C 0.67175 0.97773 0.70256 0.0
C774 C 0.66661 0.95562 0.71594 0.0
C775 C 0.65642 0.95402 0.76433 0.0
C776 C 0.65116 0.97347 0.79767 0.0
C777 C 0.65634 0.99477 0.78309 0.0
C778 C 0.66666 0.99707 0.73699 0.0
C779 C 0.67179 0.02198 0.7326 0.0
C780 C 0.69704 0.02579 0.72973 0.0
C781 C 0.6586 0.0304 0.685 0.0
C782 C 0.66332 0.03316 0.78405 0.0
C783 C 0.65399 0.01716 0.81196 0.0
C784 C 0.64552 0.02316 0.86124 0.0
C785 C 0.6472 0.04592 0.88324 0.0
C786 C 0.6574 0.0625 0.85639 0.0
C787 C 0.66535 0.05601 0.80584 0.0
H788 H 0.81249 0.57522 0.99335 0.0
H789 H 0.81046 0.64605 0.9601 0.0
H790 H 0.77601 0.6513 1.00559 0.0
H791 H 0.7526 0.56742 0.96089 0.0
H792 H 0.74943 0.54767 1.00913 0.0
H793 H 0.77562 0.54951 0.97867 0.0
H794 H 0.79597 0.55707 0.07103 0.0
H795 H 0.7698 0.55566 0.10183 0.0
H796 H 0.78728 0.58051 0.11601 0.0
H797 H 0.7453 0.65058 0.06309 0.0
H798 H 0.71188 0.64207 0.10701 0.0
H799 H 0.72648 0.56974 0.08174 0.0
C800 C 0.80486 0.59183 0.99477 0.0
C801 C 0.81523 0.61049 0.97502 0.0
C802 C 0.80408 0.63175 0.97779 0.0
C803 C 0.78419 0.63492 1.00297 0.0
C804 C 0.77496 0.61645 1.02308 0.0
C805 C 0.78426 0.5951 1.0174 0.0
C806 C 0.76933 0.57781 0.0383 0.0
C807 C 0.76126 0.55953 0.9941 0.0
C808 C 0.78132 0.56713 0.08454 0.0
C809 C 0.75033 0.59306 0.05687 0.0
C810 C 0.75459 0.61534 0.04913 0.0
C811 C 0.74109 0.63311 0.06723 0.0
C812 C 0.72195 0.62796 0.09164 0.0
C813 C 0.71553 0.60506 0.09475 0.0
C814 C 0.73043 0.58736 0.07877 0.0
H815 H 0.14279 0.9757 0.8763 0.0
H816 H 0.19815 0.93942 0.8045 0.0
H817 H 0.20176 0.96938 0.74543 0.0
H818 H 0.11913 0.99719 0.75374 0.0
H819 H 0.11141 0.0243 0.78646 0.0
H820 H 0.1119 0.99939 0.82159 0.0
H821 H 0.13905 0.01965 0.89399 0.0
H822 H 0.13862 0.0446 0.8592 0.0
H823 H 0.16486 0.03131 0.87558 0.0
H824 H 0.19976 1.00249 0.69457 0.0
H825 H 0.194 0.03849 0.65696 0.0
H826 H 0.1414 0.05614 0.76414 0.0
C827 C 0.15527 0.97385 0.84717 0.0
C828 C 0.17003 0.95503 0.84448 0.0
C829 C 0.18658 0.95354 0.80695 0.0
C830 C 0.18876 0.97048 0.77322 0.0
C831 C 0.17419 0.98888 0.77719 0.0
C832 C 0.15776 0.99079 0.81309 0.0
C833 C 0.14498 0.01296 0.80996 0.0
C834 C 0.12039 1.00817 0.79187 0.0
C835 C 0.14701 0.02801 0.86284 0.0
C836 C 0.15721 0.02336 0.76772 0.0
C837 C 0.17372 1.00886 0.74899 0.0
C838 C 0.18708 0.01414 0.70937 0.0
C839 C 0.18379 0.03492 0.68869 0.0
C840 C 0.16771 0.05084 0.70856 0.0
C841 C 0.15393 0.04462 0.74811 0.0
H842 H 0.71615 0.394 0.47457 0.0
H843 H 0.71984 0.46566 0.45133 0.0
H844 H 0.75825 0.46715 0.48762 0.0
H845 H 0.74706 0.40251 0.60386 0.0
H846 H 0.76126 0.37556 0.59674 0.0
H847 H 0.73418 0.37867 0.56379 0.0
H848 H 0.7504 0.36453 0.47465 0.0
H849 H 0.77759 0.36161 0.50732 0.0
H850 H 0.77419 0.37887 0.4533 0.0
H851 H 0.79672 0.46168 0.52086 0.0
H852 H 0.8311 0.45207 0.57059 0.0
H853 H 0.8037 0.38582 0.58933 0.0
C854 C 0.72497 0.41003 0.47716 0.0
C855 C 0.71478 0.42936 0.45645 0.0
C856 C 0.72715 0.45005 0.46282 0.0
C857 C 0.74918 0.45124 0.4842 0.0
C858 C 0.75893 0.43187 0.50171 0.0
C859 C 0.74716 0.41182 0.50046 0.0
C860 C 0.76156 0.39439 0.5274 0.0
C861 C 0.75035 0.38737 0.57584 0.0
C862 C 0.7662 0.37361 0.48833 0.0
C863 C 0.78306 0.40795 0.54354 0.0
C864 C 0.78107 0.42933 0.5267 0.0
C865 C 0.7984 0.44509 0.53488 0.0
C866 C 0.81799 0.43939 0.56299 0.0
C867 C 0.82028 0.41827 0.58428 0.0
C868 C 0.80266 0.40203 0.57326 0.0
H869 H 0.37687 0.96096 0.31664 0.0
H870 H 0.33139 0.97111 0.18209 0.0
H871 H 0.32856 0.01129 0.21282 0.0
H872 H 0.35273 0.99768 0.41153 0.0
H873 H 0.37819 1.01001 0.44302 0.0
H874 H 0.37847 0.98183 0.409 0.0
H875 H 0.40944 0.99383 0.35089 0.0
H876 H 0.40935 0.02208 0.38504 0.0
H877 H 0.40504 0.01806 0.31429 0.0
H878 H 0.32683 0.04883 0.26043 0.0
H879 H 0.32839 0.08366 0.32259 0.0
H880 H 0.37661 0.05197 0.42483 0.0
C881 C 0.36653 0.9717 0.29344 0.0
C882 C 0.3536 0.96242 0.2481 0.0
C883 C 0.34062 0.97729 0.21837 0.0
C884 C 0.33915 1.00037 0.23494 0.0
C885 C 0.35136 1.00877 0.28047 0.0
C886 C 0.36517 0.99517 0.30895 0.0
C887 C 0.37619 1.00902 0.35695 0.0
C888 C 0.37107 0.99904 0.40815 0.0
C889 C 0.40151 0.01085 0.35147 0.0
C890 C 0.36493 0.03188 0.3528 0.0
C891 C 0.35108 0.03132 0.30751 0.0
C892 C 0.33795 0.04974 0.2955 0.0
C893 C 0.33889 0.06937 0.33089 0.0
C894 C 0.35277 0.07035 0.37761 0.0
C895 C 0.36615 0.05154 0.3887 0.0
H896 H 0.82409 0.92374 0.53763 0.0
H897 H 0.79936 0.90751 0.37544 0.0
H898 H 0.76109 0.90347 0.40469 0.0
H899 H 0.78585 0.8849 0.59496 0.0
H900 H 0.78251 0.90431 0.65316 0.0
H901 H 0.80815 0.90416 0.61962 0.0
H902 H 0.80353 0.94717 0.61103 0.0
H903 H 0.77776 0.94739 0.64394 0.0
H904 H 0.77823 0.95724 0.57956 0.0
H905 H 0.72527 0.9023 0.451 0.0
H906 H 0.69434 0.90383 0.51126 0.0
H907 H 0.74128 0.92227 0.64424 0.0
C908 C 0.81068 0.91861 0.50863 0.0
C909 C 0.81479 0.91514 0.45431 0.0
C910 C 0.79668 0.90947 0.41725 0.0
C911 C 0.77486 0.90735 0.43352 0.0
C912 C 0.77126 0.91106 0.48719 0.0
C913 C 0.78866 0.91645 0.52431 0.0
C914 C 0.77999 0.92023 0.5794 0.0
C915 C 0.7897 0.90234 0.61384 0.0
C916 C 0.78519 0.94445 0.60497 0.0
C917 C 0.75499 0.91667 0.5673 0.0
C918 C 0.75042 0.91112 0.51383 0.0
C919 C 0.72869 0.90659 0.49292 0.0
C920 C 0.7112 0.90749 0.52741 0.0
C921 C 0.71535 0.91322 0.58229 0.0
C922 C 0.73758 0.91803 0.60237 0.0
H923 H 0.37373 0.46028 0.79919 0.0
H924 H 0.34339 0.4882 0.94204 0.0
H925 H 0.34067 0.52563 0.90794 0.0
H926 H 0.40691 0.50922 0.78178 0.0
H927 H 0.40239 0.50625 0.71099 0.0
H928 H 0.40192 0.48154 0.74649 0.0
H929 H 0.36238 0.47132 0.70448 0.0
H930 H 0.36272 0.49602 0.66888 0.0
H931 H 0.34031 0.49201 0.71107 0.0
H932 H 0.34027 0.55934 0.85865 0.0
H933 H 0.34334 0.58843 0.79643 0.0
H934 H 0.37511 0.5393 0.68704 0.0
C935 C 0.36684 0.47439 0.82353 0.0
C936 C 0.35883 0.47149 0.87325 0.0
C937 C 0.34948 0.49014 0.90367 0.0
C938 C 0.34791 0.51141 0.88475 0.0
C939 C 0.35583 0.5137 0.83551 0.0
C940 C 0.36515 0.49577 0.80525 0.0
C941 C 0.37205 0.50283 0.75328 0.0
C942 C 0.39732 0.49979 0.74786 0.0
C943 C 0.35855 0.48977 0.70669 0.0
C944 C 0.36562 0.52766 0.75981 0.0
C945 C 0.35603 0.53345 0.80728 0.0
C946 C 0.34797 0.55517 0.82161 0.0
C947 C 0.3498 0.57151 0.78638 0.0
C948 C 0.35984 0.56596 0.73815 0.0
C949 C 0.36785 0.54386 0.72454 0.0
H950 H 0.72848 0.13341 0.97372 0.0
H951 H 0.70512 0.06655 1.00177 0.0
H952 H 0.74131 0.05889 0.04582 0.0
H953 H 0.78508 0.11814 0.95043 0.0
H954 H 0.7977 0.14322 0.98595 0.0
H955 H 0.76977 0.14446 0.95619 0.0
H956 H 0.75493 0.15966 0.04615 0.0
H957 H 0.78284 0.15881 0.07619 0.0
H958 H 0.76046 0.14402 0.10241 0.0
H959 H 0.78012 0.05573 0.0742 0.0
H960 H 0.81866 0.06025 0.10977 0.0
H961 H 0.8178 0.13117 0.07912 0.0
C962 C 0.73096 0.11735 0.98994 0.0
C963 C 0.71416 0.10027 0.98286 0.0
C964 C 0.71794 0.07955 1.00505 0.0
C965 C 0.73843 0.07504 1.0303 0.0
C966 C 0.75494 0.09162 0.03441 0.0
C967 C 0.75143 0.11263 1.01657 0.0
C968 C 0.77229 0.1274 1.02843 0.0
C969 C 0.78176 0.13368 0.97719 0.0
C970 C 0.76733 0.14874 0.06553 0.0
C971 C 0.78789 0.11121 0.05551 0.0
C972 C 0.77741 0.09056 0.05683 0.0
C973 C 0.78832 0.07205 0.07535 0.0
C974 C 0.81027 0.07489 0.09568 0.0
C975 C 0.82106 0.09638 0.09987 0.0
C976 C 0.80992 0.11468 0.07768 0.0
H977 H 0.19052 0.54496 0.38491 0.0
H978 H 0.13122 0.57569 0.31537 0.0
H979 H 0.12508 0.54063 0.2555 0.0
H980 H 0.20996 0.52226 0.26041 0.0
H981 H 0.22221 0.49758 0.28635 0.0
H982 H 0.2202 0.52377 0.32846 0.0
H983 H 0.19869 0.50294 0.39425 0.0
H984 H 0.20052 0.47669 0.35223 0.0
H985 H 0.17364 0.48729 0.37133 0.0
H986 H 0.12585 0.50113 0.20112 0.0
H987 H 0.13541 0.46393 0.15365 0.0
H988 H 0.19741 0.46292 0.24924 0.0
C989 C 0.17645 0.54519 0.35666 0.0
C990 C 0.16168 0.56415 0.35559 0.0
C991 C 0.14291 0.5619 0.31861 0.0
C992 C 0.13931 0.54192 0.28374 0.0
C993 C 0.15479 0.52422 0.28498 0.0
C994 C 0.17318 0.52593 0.32014 0.0
C995 C 0.18844 0.50548 0.3113 0.0
C996 C 0.21156 0.51271 0.2957 0.0
C997 C 0.19043 0.49233 0.3602 0.0
C998 C 0.17576 0.49182 0.26563 0.0
C999 C 0.15613 0.50263 0.25162 0.0
C1000 C 0.1413 0.49275 0.21158 0.0
C1001 C 0.14682 0.47158 0.1849 0.0
C1002 C 0.16722 0.46064 0.19741 0.0
C1003 C 0.1818 0.47098 0.23846 0.0
H1004 H 0.30236 0.08187 0.51395 0.0
H1005 H 0.30533 0.1546 0.50102 0.0
H1006 H 0.27009 0.15949 0.54477 0.0
H1007 H 0.24276 0.07861 0.47719 0.0
H1008 H 0.23833 0.0563 0.5184 0.0
H1009 H 0.26484 0.05878 0.48975 0.0
H1010 H 0.28485 0.06064 0.58271 0.0
H1011 H 0.25841 0.05842 0.61176 0.0
H1012 H 0.27678 0.08201 0.63362 0.0
H1013 H 0.23401 0.15658 0.59069 0.0
H1014 H 0.19971 0.14565 0.63107 0.0
H1015 H 0.218 0.07459 0.60064 0.0
C1016 C 0.29573 0.09891 0.51913 0.0
C1017 C 0.30735 0.1178 0.50391 0.0
C1018 C 0.29765 0.13972 0.51343 0.0
C1019 C 0.27728 0.14273 0.53774 0.0
C1020 C 0.2663 0.12366 0.55113 0.0
C1021 C 0.27503 0.10214 0.54129 0.0
C1022 C 0.25932 0.08425 0.55643 0.0
C1023 C 0.25081 0.06857 0.50754 0.0
C1024 C 0.27051 0.07054 0.59866 0.0
C1025 C 0.24077 0.0992 0.57824 0.0
C1026 C 0.24505 0.12187 0.57482 0.0
C1027 C 0.23039 0.13884 0.59319 0.0
C1028 C 0.21086 0.13246 0.61581 0.0
C1029 C 0.20606 0.10927 0.61958 0.0
C1030 C 0.22125 0.09252 0.59976 0.0
H1031 H 0.67362 0.49279 0.38194 0.0
H1032 H 0.65264 0.44004 0.25862 0.0
H1033 H 0.64911 0.46873 0.19451 0.0
H1034 H 0.63524 0.5362 0.33551 0.0
H1035 H 0.65461 0.55927 0.35376 0.0
H1036 H 0.6554 0.53478 0.39027 0.0
H1037 H 0.69721 0.52893 0.37248 0.0
H1038 H 0.69655 0.55341 0.3361 0.0
H1039 H 0.70567 0.52639 0.30552 0.0
H1040 H 0.64933 0.50303 0.14282 0.0
H1041 H 0.65234 0.54034 0.108 0.0
H1042 H 0.67183 0.57163 0.26469 0.0
C1043 C 0.66812 0.48736 0.34145 0.0
C1044 C 0.66327 0.46412 0.32522 0.0
C1045 C 0.65616 0.4577 0.27199 0.0
C1046 C 0.65421 0.47391 0.23531 0.0
C1047 C 0.65904 0.49665 0.2525 0.0
C1048 C 0.66565 0.50345 0.30447 0.0
C1049 C 0.66946 0.52906 0.31273 0.0
C1050 C 0.65268 0.5405 0.35032 0.0
C1051 C 0.69366 0.53477 0.33288 0.0
C1052 C 0.66469 0.53549 0.25701 0.0
C1053 C 0.65854 0.51652 0.223 0.0
C1054 C 0.65375 0.51801 0.16934 0.0
C1055 C 0.65533 0.5393 0.14992 0.0
C1056 C 0.66156 0.55899 0.18383 0.0
C1057 C 0.66634 0.55699 0.23815 0.0
H1058 H 0.21448 0.88532 1.00374 0.0
H1059 H 0.21784 0.95736 0.98469 0.0
H1060 H 0.25594 0.95903 1.02368 0.0
H1061 H 0.24401 0.89284 0.13563 0.0
H1062 H 0.25864 0.86614 0.12776 0.0
H1063 H 0.23182 0.86919 0.09353 0.0
H1064 H 0.24922 0.85624 1.00504 0.0
H1065 H 0.27619 0.85354 0.03899 0.0
H1066 H 0.27299 0.87136 0.98601 0.0
H1067 H 0.29481 0.95274 0.05181 0.0
H1068 H 0.32898 0.94328 0.10218 0.0
H1069 H 0.30043 0.87824 0.12717 0.0
C1070 C 0.22318 0.90145 1.00821 0.0
C1071 C 0.21328 0.92091 0.98771 0.0
C1072 C 0.2252 0.9418 0.9965 0.0
C1073 C 0.247 0.94303 1.01895 0.0
C1074 C 0.25674 0.92347 0.03533 0.0
C1075 C 0.24505 0.90331 0.03309 0.0
C1076 C 0.25938 0.88582 0.05994 0.0
C1077 C 0.24777 0.87804 0.10704 0.0
C1078 C 0.26475 0.86553 1.02012 0.0
C1079 C 0.28056 0.89961 0.07781 0.0
C1080 C 0.27874 0.92087 0.06035 0.0
C1081 C 0.29625 0.93639 0.06712 0.0
C1082 C 0.31571 0.93074 0.09547 0.0
C1083 C 0.31735 0.91027 0.11978 0.0
C1084 C 0.29974 0.89405 0.10934 0.0
H1085 H 0.86045 0.56854 0.79558 0.0
H1086 H 0.87962 0.551 0.95232 0.0
H1087 H 0.88311 0.51066 0.91731 0.0
H1088 H 0.82611 0.52248 0.75823 0.0
H1089 H 0.83351 0.5179 0.69055 0.0
H1090 H 0.83602 0.54581 0.72573 0.0
H1091 H 0.87779 0.54753 0.70556 0.0
H1092 H 0.87533 0.51974 0.66938 0.0
H1093 H 0.89631 0.52505 0.72271 0.0
H1094 H 0.88085 0.47222 0.8676 0.0
H1095 H 0.87393 0.43776 0.80527 0.0
H1096 H 0.85523 0.48001 0.68089 0.0
C1097 C 0.86626 0.55624 0.82185 0.0
C1098 C 0.87042 0.56269 0.87619 0.0
C1099 C 0.87699 0.54623 0.9103 0.0
C1100 C 0.87888 0.52336 0.89083 0.0
C1101 C 0.87408 0.51733 0.83722 0.0
C1102 C 0.86809 0.53328 0.80302 0.0
C1103 C 0.8622 0.52203 0.74797 0.0
C1104 C 0.83802 0.52738 0.72959 0.0
C1105 C 0.8789 0.52899 0.7091 0.0
C1106 C 0.86491 0.49727 0.75718 0.0
C1107 C 0.87212 0.49497 0.80871 0.0
C1108 C 0.8754 0.47376 0.827 0.0
C1109 C 0.87138 0.45433 0.7915 0.0
C1110 C 0.86389 0.45628 0.73865 0.0
C1111 C 0.86065 0.47805 0.72137 0.0
H1112 H 0.12494 0.19295 0.8024 0.0
H1113 H 0.13624 0.23816 0.68362 0.0
H1114 H 0.13988 0.27063 0.75327 0.0
H1115 H 0.09254 0.22895 0.8843 0.0
H1116 H 0.10492 0.22056 0.94533 0.0
H1117 H 0.10453 0.20106 0.88634 0.0
H1118 H 0.1475 0.19679 0.89696 0.0
H1119 H 0.14812 0.21619 0.95631 0.0
H1120 H 0.16495 0.22174 0.90283 0.0
H1121 H 0.14024 0.29864 0.83711 0.0
H1122 H 0.13837 0.31921 0.92629 0.0
H1123 H 0.12736 0.25532 0.99 0.0
C1124 C 0.12863 0.20962 0.79117 0.0
C1125 C 0.13075 0.21293 0.73764 0.0
C1126 C 0.1352 0.23508 0.72447 0.0
C1127 C 0.13708 0.25367 0.76379 0.0
C1128 C 0.13478 0.24981 0.81627 0.0
C1129 C 0.13093 0.22824 0.82994 0.0
C1130 C 0.12919 0.22848 0.88899 0.0
C1131 C 0.10644 0.21923 0.90198 0.0
C1132 C 0.14859 0.215 0.91269 0.0
C1133 C 0.13158 0.25372 0.90643 0.0
C1134 C 0.13511 0.26574 0.86403 0.0
C1135 C 0.1377 0.28933 0.87055 0.0
C1136 C 0.13668 0.30089 0.92147 0.0
C1137 C 0.13286 0.28898 0.96545 0.0
C1138 C 0.13035 0.26502 0.95742 0.0
H1139 H 0.05446 0.90405 0.09618 0.0
H1140 H 0.06396 0.83135 0.06913 0.0
H1141 H 0.03576 0.8252 0.13191 0.0
H1142 H 0.04919 0.90498 0.23609 0.0
H1143 H 0.02823 0.9269 0.24048 0.0
H1144 H 0.04778 0.92583 0.18937 0.0
H1145 H 0.01498 0.92449 0.11867 0.0
H1146 H 0.99529 0.92547 0.16957 0.0
H1147 H 0.99395 0.90269 0.11684 0.0
H1148 H 1.0075 0.82638 0.19975 0.0
H1149 H 0.98301 0.83496 0.27351 0.0
H1150 H 0.99171 0.90705 0.26421 0.0
C1151 C 0.05049 0.88687 0.10347 0.0
C1152 C 0.06168 0.86808 0.07734 0.0
C1153 C 0.05594 0.84596 0.08834 0.0
C1154 C 0.03974 0.8423 0.12404 0.0
C1155 C 0.02924 0.861 0.14955 0.0
C1156 C 0.03444 0.88292 0.1403 0.0
C1157 C 0.0215 0.89992 0.17613 0.0
C1158 C 0.03764 0.91532 0.2127 0.0
C1159 C 1.00548 0.91398 0.14333 0.0
C1160 C 1.00855 0.88412 0.20723 0.0
C1161 C 0.01312 0.86172 0.19032 0.0
C1162 C 1.00374 0.84386 0.21315 0.0
C1163 C 0.98978 0.8489 0.2551 0.0
C1164 C 0.98516 0.87161 0.27446 0.0
C1165 C 0.99452 0.8895 0.24965 0.0
H1166 H 0.41831 0.75165 0.47921 0.0
H1167 H 0.38842 0.69394 0.38261 0.0
H1168 H 0.38194 0.7175 0.30862 0.0
H1169 H 0.3823 0.79624 0.42613 0.0
H1170 H 0.40497 0.81623 0.42764 0.0
H1171 H 0.40518 0.79571 0.47506 0.0
H1172 H 0.44405 0.78169 0.44642 0.0
H1173 H 0.44383 0.80208 0.39882 0.0
H1174 H 0.44769 0.77237 0.37798 0.0
H1175 H 0.38058 0.74668 0.24326 0.0
H1176 H 0.38502 0.77921 0.19119 0.0
H1177 H 0.41671 0.81784 0.32928 0.0
C1178 C 0.40968 0.7443 0.44301 0.0
C1179 C 0.40301 0.72121 0.43697 0.0
C1180 C 0.3929 0.71177 0.38832 0.0
C1181 C 0.38931 0.725 0.34607 0.0
C1182 C 0.39617 0.74766 0.35284 0.0
C1183 C 0.40615 0.75731 0.40012 0.0
C1184 C 0.41324 0.78165 0.39567 0.0
C1185 C 0.40067 0.79844 0.43338 0.0
C1186 C 0.43871 0.7846 0.40527 0.0
C1187 C 0.40583 0.784 0.3386 0.0
C1188 C 0.39589 0.76429 0.31469 0.0
C1189 C 0.3881 0.76231 0.26178 0.0
C1190 C 0.39056 0.78095 0.23253 0.0
C1191 C 0.40086 0.8013 0.25609 0.0
C1192 C 0.40849 0.80269 0.31 0.0
H1193 H 0.46315 0.12877 0.54102 0.0
H1194 H 0.47796 0.19637 0.50143 0.0
H1195 H 0.5083 0.20023 0.57106 0.0
H1196 H 0.47286 0.14178 0.68151 0.0
H1197 H 0.48552 0.11486 0.69236 0.0
H1198 H 0.46528 0.11671 0.63798 0.0
H1199 H 0.49359 0.09927 0.57263 0.0
H1200 H 0.51387 0.09708 0.62678 0.0
H1201 H 0.52077 0.11215 0.57207 0.0
H1202 H 0.53641 0.19734 0.64313 0.0
H1203 H 0.56291 0.18733 0.71412 0.0
H1204 H 0.53044 0.12181 0.71244 0.0
C1205 C 0.47317 0.1441 0.54659 0.0
C1206 C 0.46867 0.16214 0.51547 0.0
C1207 C 0.48154 0.18228 0.52446 0.0
C1208 C 0.49867 0.18467 0.56407 0.0
C1209 C 0.50262 0.1668 0.59464 0.0
C1210 C 0.49042 0.14684 0.58652 0.0
C1211 C 0.49823 0.13054 0.62605 0.0
C1212 C 0.47935 0.12569 0.66159 0.0
C1213 C 0.50715 0.10845 0.59768 0.0
C1214 C 0.51693 0.14437 0.65688 0.0
C1215 C 0.51893 0.16527 0.63788 0.0
C1216 C 0.53513 0.18102 0.65829 0.0
C1217 C 0.55016 0.17512 0.69838 0.0
C1218 C 0.54891 0.15369 0.71799 0.0
C1219 C 0.53176 0.13826 0.69787 0.0
H1220 H 0.12162 0.78075 0.86252 0.0
H1221 H 0.12444 0.84059 0.77859 0.0
H1222 H 0.1278 0.81628 0.69504 0.0
H1223 H 0.16032 0.7452 0.77983 0.0
H1224 H 0.14439 0.71955 0.78138 0.0
H1225 H 0.14449 0.74139 0.83615 0.0
H1226 H 0.10129 0.74301 0.8272 0.0
H1227 H 0.10105 0.72125 0.77237 0.0
H1228 H 0.08756 0.74808 0.7648 0.0
H1229 H 0.12946 0.78569 0.61926 0.0
H1230 H 0.12759 0.75092 0.55657 0.0
H1231 H 0.1217 0.71023 0.68689 0.0
C1232 C 0.12365 0.78868 0.82675 0.0
C1233 C 0.12334 0.81272 0.82747 0.0
C1234 C 0.12504 0.82233 0.77933 0.0
C1235 C 0.12692 0.80862 0.73152 0.0
C1236 C 0.12686 0.78509 0.73182 0.0
C1237 C 0.12523 0.77511 0.77809 0.0
C1238 C 0.12415 0.74932 0.7664 0.0
C1239 C 0.14455 0.73821 0.79251 0.0
C1240 C 0.1022 0.73987 0.78373 0.0
C1241 C 0.12499 0.74653 0.70656 0.0
C1242 C 0.12693 0.76739 0.6876 0.0
C1243 C 0.12805 0.76925 0.63376 0.0
C1244 C 0.12706 0.74934 0.59834 0.0
C1245 C 0.12461 0.72771 0.61648 0.0
C1246 C 0.12362 0.72644 0.67155 0.0
H1247 H 0.45487 0.88665 1.00922 0.0
H1248 H 0.48727 0.84196 0.11421 0.0
H1249 H 0.51821 0.83594 0.0556 0.0
H1250 H 0.47177 0.86135 0.88435 0.0
H1251 H 0.47897 0.8876 0.85934 0.0
H1252 H 0.45813 0.88742 0.90733 0.0
H1253 H 0.48031 0.91802 0.96885 0.0
H1254 H 0.50119 0.91841 0.92094 0.0
H1255 H 0.5092 0.91298 0.98755 0.0
H1256 H 0.54524 0.83393 0.98724 0.0
H1257 H 0.56991 0.83921 0.91635 0.0
H1258 H 0.52349 0.88797 0.85539 0.0
C1259 C 0.46837 0.87539 1.0192 0.0
C1260 C 0.46813 0.86389 0.06519 0.0
C1261 C 0.48661 0.85018 0.07828 0.0
C1262 C 0.5044 0.84678 0.04538 0.0
C1263 C 0.50412 0.85804 1.00026 0.0
C1264 C 0.48702 0.87259 0.98766 0.0
C1265 C 0.4925 0.88435 0.93957 0.0
C1266 C 0.47425 0.8799 0.89498 0.0
C1267 C 0.49599 0.90996 0.95514 0.0
C1268 C 0.51451 0.87289 0.9253 0.0
C1269 C 0.52085 0.85801 0.96166 0.0
C1270 C 0.54061 0.84571 0.9588 0.0
C1271 C 0.55459 0.84893 0.91832 0.0
C1272 C 0.54887 0.86418 0.88044 0.0
C1273 C 0.52833 0.87617 0.88364 0.0
H1274 H 0.40446 0.30993 0.19096 0.0
H1275 H 0.40494 0.26691 0.04269 0.0
H1276 H 0.40293 0.23291 0.09043 0.0
H1277 H 0.43733 0.27587 0.26868 0.0
H1278 H 0.42153 0.28009 0.32686 0.0
H1279 H 0.42166 0.30163 0.28205 0.0
H1280 H 0.37867 0.30065 0.26956 0.0
H1281 H 0.37794 0.27966 0.31574 0.0
H1282 H 0.36458 0.27395 0.25066 0.0
H1283 H 0.40325 0.20355 0.15377 0.0
H1284 H 0.40273 0.18046 0.22871 0.0
H1285 H 0.40064 0.24211 0.33655 0.0
C1286 C 0.40383 0.29335 0.16857 0.0
C1287 C 0.40475 0.29109 0.113 0.0
C1288 C 0.40395 0.2691 0.08511 0.0
C1289 C 0.40295 0.24966 0.11192 0.0
C1290 C 0.40231 0.25244 0.16662 0.0
C1291 C 0.40231 0.2737 0.19468 0.0
C1292 C 0.40116 0.27182 0.25331 0.0
C1293 C 0.42164 0.283 0.2846 0.0
C1294 C 0.37929 0.28213 0.27351 0.0
C1295 C 0.40131 0.24616 0.25381 0.0
C1296 C 0.40191 0.23537 0.2033 0.0
C1297 C 0.40251 0.21177 0.19349 0.0
C1298 C 0.40225 0.19879 0.23633 0.0
C1299 C 0.40143 0.20936 0.28845 0.0
C1300 C 0.40096 0.23343 0.29712 0.0
H1301 H 0.97702 0.11814 0.32397 0.0
H1302 H 0.98857 0.18072 0.25547 0.0
H1303 H 0.01905 0.19074 0.32346 0.0
H1304 H 0.98791 0.13783 0.459 0.0
H1305 H 1.00301 0.11298 0.47606 0.0
H1306 H 0.98216 0.11063 0.42207 0.0
H1307 H 1.01126 0.0928 0.35911 0.0
H1308 H 0.03215 0.09484 0.4131 0.0
H1309 H 0.03712 0.10759 0.35378 0.0
H1310 H 0.04684 0.19503 0.40187 0.0
H1311 H 0.07277 0.19149 0.47926 0.0
H1312 H 0.04576 0.12492 0.49485 0.0
C1313 C 0.98609 0.13388 0.32329 0.0
C1314 C 0.98039 0.14872 0.28453 0.0
C1315 C 0.99275 0.16906 0.28454 0.0
C1316 C 1.01002 0.17493 0.32318 0.0
C1317 C 0.01518 0.16003 0.36101 0.0
C1318 C 1.00392 0.13969 0.36076 0.0
C1319 C 0.01354 0.1263 0.40459 0.0
C1320 C 0.99558 0.12167 0.44271 0.0
C1321 C 0.02414 0.10406 0.38126 0.0
C1322 C 0.03133 0.14269 0.43091 0.0
C1323 C 0.03199 0.16201 0.40483 0.0
C1324 C 0.04679 0.17975 0.42174 0.0
C1325 C 0.06166 0.1775 0.46545 0.0
C1326 C 0.0619 0.15765 0.49189 0.0
C1327 C 0.04618 0.14018 0.47495 0.0
H1328 H 0.90647 0.82638 0.25716 0.0
H1329 H 0.9036 0.77845 0.37391 0.0
H1330 H 0.89972 0.74681 0.30238 0.0
H1331 H 0.86547 0.79591 0.16147 0.0
H1332 H 0.87978 0.80355 0.10574 0.0
H1333 H 0.8809 0.82218 0.16634 0.0
H1334 H 0.92414 0.8212 0.16924 0.0
H1335 H 0.92325 0.80247 0.10898 0.0
H1336 H 0.93834 0.79424 0.16712 0.0
H1337 H 0.89861 0.72013 0.21703 0.0
H1338 H 0.89931 0.70098 0.12631 0.0
H1339 H 0.90251 0.76663 0.06572 0.0
C1340 C 0.90464 0.80926 0.26771 0.0
C1341 C 0.9051 0.80493 0.32119 0.0
C1342 C 0.90284 0.78225 0.33328 0.0
C1343 C 0.90079 0.76415 0.29286 0.0
C1344 C 0.90067 0.76902 0.24049 0.0
C1345 C 0.90225 0.79108 0.22793 0.0
C1346 C 0.90187 0.79186 0.16874 0.0
C1347 C 0.88075 0.8041 0.14942 0.0
C1348 C 0.92317 0.80309 0.1526 0.0
C1349 C 0.90094 0.7667 0.14983 0.0
C1350 C 0.89991 0.7538 0.19174 0.0
C1351 C 0.89918 0.73011 0.18397 0.0
C1352 C 0.89953 0.71936 0.1322 0.0
C1353 C 0.90085 0.73222 0.08868 0.0
C1354 C 0.90145 0.75624 0.09797 0.0
H1355 H 0.03312 0.18489 0.80756 0.0
H1356 H 0.04588 0.11323 0.76607 0.0
H1357 H 0.01909 0.1036 0.83056 0.0
H1358 H 0.0279 0.1814 0.94715 0.0
H1359 H 1.00612 0.20244 0.95252 0.0
H1360 H 0.02652 0.20358 0.9038 0.0
H1361 H 0.99474 0.20288 0.83016 0.0
H1362 H 0.97432 0.20179 0.87883 0.0
H1363 H 0.9744 0.18025 0.82349 0.0
H1364 H 0.991 0.1019 0.90173 0.0
H1365 H 0.96309 0.10844 0.96989 0.0
H1366 H 0.96794 0.18097 0.96251 0.0
C1367 C 0.03033 0.16713 0.8119 0.0
C1368 C 0.04171 0.14981 0.78144 0.0
C1369 C 0.03745 0.12683 0.7887 0.0
C1370 C 0.02225 0.1212 0.82538 0.0
C1371 C 1.01134 0.1387 0.85467 0.0
C1372 C 0.01518 0.16123 0.84821 0.0
C1373 C 1.00125 0.17688 0.88425 0.0
C1374 C 0.01634 0.19196 0.9243 0.0
C1375 C 0.98523 0.19129 0.85225 0.0
C1376 C 0.98859 0.15966 0.9112 0.0
C1377 C 0.99484 0.13772 0.89419 0.0
C1378 C 0.98582 0.11901 0.91473 0.0
C1379 C 0.96994 0.12281 0.95321 0.0
C1380 C 0.96294 0.14509 0.97 0.0
C1381 C 0.97254 0.16371 0.94901 0.0
H1382 H 0.62552 0.19936 0.74939 0.0
H1383 H 0.59834 0.23916 0.88351 0.0
H1384 H 0.59337 0.27155 0.83221 0.0
H1385 H 0.65693 0.24613 0.7092 0.0
H1386 H 0.65235 0.2381 0.63939 0.0
H1387 H 0.65251 0.21672 0.68478 0.0
H1388 H 0.61312 0.20333 0.64769 0.0
H1389 H 0.61285 0.22455 0.60191 0.0
H1390 H 0.59063 0.2236 0.64627 0.0
H1391 H 0.59289 0.30018 0.77174 0.0
H1392 H 0.59502 0.32455 0.70097 0.0
H1393 H 0.62322 0.2689 0.60107 0.0
C1394 C 0.61832 0.21484 0.76746 0.0
C1395 C 0.61225 0.21657 0.82061 0.0
C1396 C 0.60317 0.23726 0.8431 0.0
C1397 C 0.60027 0.25589 0.81425 0.0
C1398 C 0.60688 0.25394 0.76281 0.0
C1399 C 0.61571 0.23411 0.73919 0.0
C1400 C 0.62219 0.23751 0.68361 0.0
C1401 C 0.6475 0.23443 0.67897 0.0
C1402 C 0.6089 0.22129 0.64241 0.0
C1403 C 0.61536 0.26224 0.68002 0.0
C1404 C 0.60669 0.27113 0.72668 0.0
C1405 C 0.59953 0.29347 0.73481 0.0
C1406 C 0.60089 0.30723 0.69405 0.0
C1407 C 0.60924 0.29881 0.64499 0.0
C1408 C 0.6168 0.27593 0.63802 0.0
H1409 H 0.49907 0.90694 0.36676 0.0
H1410 H 0.47069 0.83913 0.34814 0.0
H1411 H 0.49451 0.82925 0.4248 0.0
H1412 H 0.55492 0.89107 0.41003 0.0
H1413 H 0.5595 0.91549 0.45769 0.0
H1414 H 0.54081 0.91739 0.40041 0.0
H1415 H 0.50903 0.93089 0.46073 0.0
H1416 H 0.52768 0.92907 0.51809 0.0
H1417 H 0.50152 0.91382 0.51155 0.0
H1418 H 0.52761 0.8247 0.48816 0.0
H1419 H 0.55935 0.82852 0.55402 0.0
H1420 H 0.55854 0.90119 0.55528 0.0
C1421 C 0.49758 0.8902 0.3797 0.0
C1422 C 0.48283 0.87382 0.35178 0.0
C1423 C 0.4816 0.85198 0.36929 0.0
C1424 C 0.49522 0.84618 0.41253 0.0
C1425 C 0.50966 0.86259 0.43895 0.0
C1426 C 0.5105 0.88436 0.42442 0.0
C1427 C 0.52715 0.89877 0.46122 0.0
C1428 C 0.54675 0.90613 0.4305 0.0
C1429 C 0.51565 0.91936 0.4896 0.0
C1430 C 0.53502 0.88189 0.49955 0.0
C1431 C 0.5255 0.86083 0.48368 0.0
C1432 C 0.53358 0.84138 0.50418 0.0
C1433 C 0.55103 0.84366 0.54318 0.0
C1434 C 0.55892 0.86515 0.56605 0.0
C1435 C 0.55125 0.88468 0.54262 0.0
H1436 H 0.89731 0.19281 0.26847 0.0
H1437 H 0.89792 0.23416 0.13831 0.0
H1438 H 0.89539 0.2689 0.20068 0.0
H1439 H 0.857 0.22906 0.34437 0.0
H1440 H 0.87064 0.22393 0.4068 0.0
H1441 H 0.87116 0.20253 0.35123 0.0
H1442 H 0.91439 0.20178 0.3612 0.0
H1443 H 0.91408 0.2232 0.41654 0.0
H1444 H 0.92985 0.2278 0.3606 0.0
H1445 H 0.89781 0.29879 0.27781 0.0
H1446 H 0.90151 0.32215 0.36397 0.0
H1447 H 0.89576 0.26172 0.44428 0.0
C1448 C 0.89614 0.20919 0.25316 0.0
C1449 C 0.89713 0.21092 0.19866 0.0
C1450 C 0.89636 0.23255 0.1798 0.0
C1451 C 0.89515 0.25233 0.21498 0.0
C1452 C 0.89425 0.25008 0.26865 0.0
C1453 C 0.89432 0.22905 0.2876 0.0
C1454 C 0.89355 0.23135 0.34715 0.0
C1455 C 0.8718 0.22111 0.36336 0.0
C1456 C 0.9142 0.22039 0.37286 0.0
C1457 C 0.8938 0.25702 0.35904 0.0
C1458 C 0.89428 0.26746 0.31307 0.0
C1459 C 0.89663 0.2909 0.31391 0.0
C1460 C 0.89858 0.30405 0.36289 0.0
C1461 C 0.89774 0.29383 0.4103 0.0
C1462 C 0.8952 0.27002 0.40838 0.0
H1463 H 0.52988 0.15158 0.98947 0.0
H1464 H 0.59093 0.14713 0.08765 0.0
H1465 H 0.56894 0.14392 0.16491 0.0
H1466 H 0.5009 0.18639 0.08274 0.0
H1467 H 0.47391 0.17328 0.06721 0.0
H1468 H 0.49405 0.17257 1.01751 0.0
H1469 H 0.49115 0.12865 1.00354 0.0
H1470 H 0.47099 0.12924 0.05336 0.0
H1471 H 0.496 0.11248 0.05914 0.0
H1472 H 0.54087 0.14353 0.23301 0.0
H1473 H 0.5082 0.1473 0.28787 0.0
H1474 H 0.46492 0.15314 0.14768 0.0
C1475 C 0.53851 0.14903 1.02683 0.0
C1476 C 0.56216 0.14893 0.03224 0.0
C1477 C 0.57287 0.14673 0.08238 0.0
C1478 C 0.56051 0.14496 0.1266 0.0
C1479 C 0.53732 0.14547 0.12042 0.0
C1480 C 0.52633 0.14743 0.07191 0.0
C1481 C 0.50124 0.14915 0.07742 0.0
C1482 C 0.492 0.17169 0.0602 0.0
C1483 C 0.48913 0.12866 0.04651 0.0
C1484 C 0.50004 0.14837 0.13646 0.0
C1485 C 0.52103 0.1459 0.16034 0.0
C1486 C 0.52429 0.14521 0.21468 0.0
C1487 C 0.5056 0.14727 0.24555 0.0
C1488 C 0.48392 0.1503 0.22216 0.0
C1489 C 0.48122 0.15066 0.16676 0.0
H1490 H 0.60097 0.75559 1.01389 0.0
H1491 H 0.64719 0.70439 0.95193 0.0
H1492 H 0.65136 0.72578 0.8745 0.0
H1493 H 0.57384 0.76531 0.88693 0.0
H1494 H 0.57016 0.7953 0.90446 0.0
H1495 H 0.57071 0.77608 0.95476 0.0
H1496 H 0.60285 0.79922 1.00659 0.0
H1497 H 0.60257 0.81859 0.95667 0.0
H1498 H 0.62806 0.80429 0.97437 0.0
H1499 H 0.65065 0.75359 0.80317 0.0
H1500 H 0.64496 0.78416 0.74513 0.0
H1501 H 0.59898 0.81751 0.85307 0.0
C1502 C 0.61209 0.74882 0.98424 0.0
C1503 C 0.62397 0.72821 0.98981 0.0
C1504 C 0.638 0.72005 0.94923 0.0
C1505 C 0.64045 0.73216 0.90493 0.0
C1506 C 0.62863 0.75245 0.90107 0.0
C1507 C 0.6146 0.76062 0.93961 0.0
C1508 C 0.60353 0.78269 0.92588 0.0
C1509 C 0.57805 0.77966 0.91752 0.0
C1510 C 0.60962 0.80235 0.96842 0.0
C1511 C 0.61394 0.78608 0.87428 0.0
C1512 C 0.62823 0.76832 0.86042 0.0
C1513 C 0.63955 0.76754 0.81406 0.0
C1514 C 0.63622 0.78515 0.78123 0.0
C1515 C 0.62179 0.80373 0.79446 0.0
C1516 C 0.61052 0.804 0.84196 0.0
H1517 H 0.9627 0.84801 0.59238 0.0
H1518 H 0.97592 0.91434 0.54374 0.0
H1519 H 1.00519 0.92098 0.61657 0.0
H1520 H 0.9705 0.86129 0.73162 0.0
H1521 H 0.98475 0.83518 0.74271 0.0
H1522 H 0.9649 0.83596 0.68723 0.0
H1523 H 0.99491 0.82075 0.62395 0.0
H1524 H 0.01492 0.81984 0.67913 0.0
H1525 H 0.02116 0.83554 0.62497 0.0
H1526 H 0.03267 0.9206 0.69826 0.0
H1527 H 0.05678 0.91241 0.77634 0.0
H1528 H 0.02652 0.84559 0.76863 0.0
C1529 C 0.97144 0.86412 0.59772 0.0
C1530 C 0.96645 0.88103 0.5634 0.0
C1531 C 0.97912 0.90137 0.57016 0.0
C1532 C 0.99583 0.90523 0.61139 0.0
C1533 C 1.00018 0.88834 0.645 0.0
C1534 C 0.98853 0.86801 0.63795 0.0
C1535 C 0.99703 0.85216 0.67779 0.0
C1536 C 0.97817 0.84578 0.71187 0.0
C1537 C 1.00763 0.83081 0.64979 0.0
C1538 C 0.01464 0.86705 0.70989 0.0
C1539 C 0.01636 0.88781 0.6902 0.0
C1540 C 0.03147 0.90434 0.71373 0.0
C1541 C 0.04513 0.89957 0.75826 0.0
C1542 C 0.0437 0.8784 0.77918 0.0
C1543 C 0.02817 0.86201 0.75411 0.0
H1544 H 0.62456 0.73469 0.24706 0.0
H1545 H 0.62045 0.67512 0.33177 0.0
H1546 H 0.62272 0.69969 0.41618 0.0
H1547 H 0.66355 0.76671 0.34191 0.0
H1548 H 0.65041 0.79367 0.33403 0.0
H1549 H 0.64927 0.77149 0.27996 0.0
H1550 H 0.60608 0.77396 0.27351 0.0
H1551 H 0.60705 0.79614 0.3275 0.0
H1552 H 0.59079 0.77085 0.33105 0.0
H1553 H 0.62556 0.73089 0.49232 0.0
H1554 H 0.62694 0.76622 0.55335 0.0
H1555 H 0.62797 0.80587 0.41991 0.0
C1556 C 0.62449 0.72675 0.28337 0.0
C1557 C 0.62262 0.70278 0.2825 0.0
C1558 C 0.62206 0.6933 0.33111 0.0
C1559 C 0.62334 0.70717 0.37941 0.0
C1560 C 0.62512 0.73064 0.37889 0.0
C1561 C 0.62562 0.7404 0.33211 0.0
C1562 C 0.627 0.76617 0.34262 0.0
C1563 C 0.64886 0.77502 0.32348 0.0
C1564 C 0.60651 0.77743 0.31716 0.0
C1565 C 0.627 0.76936 0.4025 0.0
C1566 C 0.62615 0.74863 0.42265 0.0
C1567 C 0.62626 0.7472 0.47688 0.0
C1568 C 0.62716 0.76741 0.51136 0.0
C1569 C 0.62767 0.78894 0.49177 0.0
C1570 C 0.6276 0.78976 0.43639 0.0
H1571 H 0.53561 0.37243 0.52879 0.0
H1572 H 0.5941 0.38348 0.63645 0.0
H1573 H 0.57 0.38607 0.71198 0.0
H1574 H 0.49768 0.41006 0.60531 0.0
H1575 H 0.4738 0.3916 0.59087 0.0
H1576 H 0.49529 0.39165 0.54439 0.0
H1577 H 0.50033 0.34829 0.54626 0.0
H1578 H 0.47888 0.34808 0.59273 0.0
H1579 H 0.50623 0.33702 0.60847 0.0
H1580 H 0.53945 0.38781 0.77717 0.0
H1581 H 0.50526 0.38617 0.82633 0.0
H1582 H 0.466 0.37211 0.67845 0.0
C1583 C 0.5433 0.3758 0.56824 0.0
C1584 C 0.56695 0.37813 0.57635 0.0
C1585 C 0.57619 0.38186 0.62888 0.0
C1586 C 0.56256 0.38335 0.67221 0.0
C1587 C 0.53946 0.38092 0.66308 0.0
C1588 C 0.52984 0.37708 0.61238 0.0
C1589 C 0.50456 0.3742 0.61401 0.0
C1590 C 0.4921 0.39299 0.58702 0.0
C1591 C 0.49706 0.3505 0.58887 0.0
C1592 C 0.50157 0.37693 0.67335 0.0
C1593 C 0.52192 0.38106 0.70082 0.0
C1594 C 0.52345 0.38456 0.75591 0.0
C1595 C 0.50383 0.3837 0.78366 0.0
C1596 C 0.48271 0.37909 0.75679 0.0
C1597 C 0.48177 0.37568 0.7006 0.0
H1598 H 0.91102 0.20639 0.83587 0.0
H1599 H 0.88333 0.24394 0.97185 0.0
H1600 H 0.87681 0.27689 0.92078 0.0
H1601 H 0.9394 0.2517 0.78979 0.0
H1602 H 0.93307 0.24289 0.72084 0.0
H1603 H 0.93452 0.22213 0.76761 0.0
H1604 H 0.8944 0.20855 0.73659 0.0
H1605 H 0.89282 0.22931 0.68963 0.0
H1606 H 0.87188 0.22883 0.73737 0.0
H1607 H 0.87677 0.30689 0.85776 0.0
H1608 H 0.88106 0.33108 0.78558 0.0
H1609 H 0.90637 0.27354 0.68814 0.0
C1610 C 0.90314 0.22139 0.85448 0.0
C1611 C 0.89728 0.22245 0.90752 0.0
C1612 C 0.8874 0.24252 0.93087 0.0
C1613 C 0.8838 0.26138 0.90228 0.0
C1614 C 0.88981 0.25979 0.85007 0.0
C1615 C 0.89903 0.24021 0.82616 0.0
C1616 C 0.90416 0.24295 0.76967 0.0
C1617 C 0.92927 0.23974 0.76153 0.0
C1618 C 0.88997 0.22643 0.73101 0.0
C1619 C 0.89693 0.26738 0.76588 0.0
C1620 C 0.88872 0.27676 0.8128 0.0
C1621 C 0.88249 0.29954 0.82035 0.0
C1622 C 0.88477 0.31312 0.77908 0.0
C1623 C 0.89285 0.30386 0.73062 0.0
C1624 C 0.89897 0.28068 0.72388 0.0
H1625 H 0.01928 0.65096 0.24085 0.0
H1626 H 0.07857 0.64168 0.15182 0.0
H1627 H 0.05501 0.63571 0.06896 0.0
H1628 H 0.98191 0.61106 0.15552 0.0
H1629 H 0.95808 0.6296 0.16134 0.0
H1630 H 0.97915 0.63004 0.21476 0.0
H1631 H 0.98444 0.67335 0.21211 0.0
H1632 H 0.96339 0.67298 0.15888 0.0
H1633 H 0.99085 0.68394 0.15102 0.0
H1634 H 0.02549 0.63235 0.9957 0.0
H1635 H 0.99186 0.63579 0.9361 0.0
H1636 H 0.95188 0.65003 0.07171 0.0
C1637 C 0.02716 0.64685 0.20397 0.0
C1638 C 0.05067 0.64592 0.20247 0.0
C1639 C 0.06056 0.64182 0.15352 0.0
C1640 C 0.04733 0.63844 0.10638 0.0
C1641 C 0.02421 0.63958 0.10885 0.0
C1642 C 0.01415 0.64395 0.15626 0.0
C1643 C 0.98909 0.64675 0.14717 0.0
C1644 C 0.97631 0.62826 0.17115 0.0
C1645 C 0.98152 0.67067 0.16855 0.0
C1646 C 0.98681 0.64336 0.0875 0.0
C1647 C 1.00719 0.63885 0.06619 0.0
C1648 C 1.00935 0.63557 1.01185 0.0
C1649 C 0.99017 0.63729 0.97831 0.0
C1650 C 0.96928 0.6426 0.99945 0.0
C1651 C 0.96761 0.64546 0.05466 0.0
H1652 H 0.61051 0.32524 0.27394 0.0
H1653 H 0.64143 0.28412 0.38918 0.0
H1654 H 0.64735 0.25339 0.31803 0.0
H1655 H 0.5811 0.28113 0.19554 0.0
H1656 H 0.58554 0.29211 0.13374 0.0
H1657 H 0.585 0.31119 0.19331 0.0
H1658 H 0.6241 0.32647 0.17715 0.0
H1659 H 0.62481 0.30749 0.11735 0.0
H1660 H 0.647 0.30692 0.16797 0.0
H1661 H 0.64879 0.22632 0.23333 0.0
H1662 H 0.64501 0.20545 0.14404 0.0
H1663 H 0.61266 0.26416 0.08481 0.0
C1664 C 0.6188 0.30992 0.2844 0.0
C1665 C 0.62571 0.30735 0.33756 0.0
C1666 C 0.63623 0.28677 0.34898 0.0
C1667 C 0.6396 0.26913 0.30871 0.0
C1668 C 0.63244 0.27222 0.25691 0.0
C1669 C 0.6223 0.29216 0.24474 0.0
C1670 C 0.61572 0.29114 0.18621 0.0
C1671 C 0.59034 0.29405 0.17667 0.0
C1672 C 0.62868 0.30906 0.16065 0.0
C1673 C 0.62318 0.26724 0.16741 0.0
C1674 C 0.63306 0.25669 0.20864 0.0
C1675 C 0.64117 0.2345 0.2008 0.0
C1676 C 0.63902 0.22276 0.14982 0.0
C1677 C 0.62862 0.23305 0.10709 0.0
C1678 C 0.62074 0.2557 0.11639 0.0
H1679 H 0.96482 0.38443 0.49726 0.0
H1680 H 0.96831 0.31496 0.5358 0.0
H1681 H 0.99633 0.30614 0.46991 0.0
H1682 H 0.97164 0.3736 0.35783 0.0
H1683 H 0.9898 0.39751 0.35386 0.0
H1684 H 0.96977 0.39865 0.40398 0.0
H1685 H 1.00138 0.40763 0.47643 0.0
H1686 H 0.0215 0.40672 0.42651 0.0
H1687 H 0.0251 0.38891 0.47944 0.0
H1688 H 0.02358 0.30451 0.40173 0.0
H1689 H 0.05055 0.31004 0.3355 0.0
H1690 H 0.03124 0.38088 0.33759 0.0
C1691 C 0.97145 0.36737 0.49127 0.0
C1692 C 0.96401 0.35007 0.52056 0.0
C1693 C 0.97342 0.32816 0.51291 0.0
C1694 C 0.98942 0.32307 0.47571 0.0
C1695 C 0.99623 0.34027 0.44691 0.0
C1696 C 0.98786 0.36207 0.45445 0.0
C1697 C 0.99893 0.37739 0.41901 0.0
C1698 C 0.98149 0.38737 0.38142 0.0
C1699 C 1.01253 0.39628 0.45233 0.0
C1700 C 0.01427 0.36056 0.38932 0.0
C1701 C 1.01243 0.33935 0.40687 0.0
C1702 C 0.02517 0.32101 0.38759 0.0
C1703 C 0.04049 0.32435 0.34992 0.0
C1704 C 0.043 0.34582 0.3311 0.0
C1705 C 0.02947 0.36419 0.35064 0.0
H1706 H 0.91589 0.70049 0.72833 0.0
H1707 H 0.895 0.74295 0.86598 0.0
H1708 H 0.89269 0.77572 0.81497 0.0
H1709 H 0.95082 0.74224 0.68254 0.0
H1710 H 0.94365 0.73453 0.61348 0.0
H1711 H 0.94238 0.71357 0.6595 0.0
H1712 H 0.90108 0.70526 0.6287 0.0
H1713 H 0.90212 0.72623 0.58253 0.0
H1714 H 0.88118 0.7282 0.63065 0.0
H1715 H 0.89462 0.80438 0.75363 0.0
H1716 H 0.90017 0.82825 0.68249 0.0
H1717 H 0.91976 0.76887 0.58107 0.0
C1718 C 0.91062 0.71661 0.74751 0.0
C1719 C 0.90566 0.71898 0.80142 0.0
C1720 C 0.89886 0.74049 0.82488 0.0
C1721 C 0.8975 0.75933 0.79622 0.0
C1722 C 0.90291 0.75657 0.74381 0.0
C1723 C 0.90928 0.73585 0.71933 0.0
C1724 C 0.91485 0.73812 0.66269 0.0
C1725 C 0.93938 0.73174 0.65407 0.0
C1726 C 0.89885 0.72359 0.62382 0.0
C1727 C 0.91079 0.76343 0.65976 0.0
C1728 C 0.90387 0.77352 0.70728 0.0
C1729 C 0.89982 0.79671 0.71599 0.0
C1730 C 0.90306 0.81015 0.67527 0.0
C1731 C 0.9102 0.80049 0.62606 0.0
C1732 C 0.91391 0.77669 0.61798 0.0
H1733 H 0.5552 0.61808 0.98746 0.0
H1734 H 0.54517 0.68688 0.05831 0.0
H1735 H 0.51655 0.69303 0.98837 0.0
H1736 H 0.55106 0.62965 0.85698 0.0
H1737 H 0.53557 0.60462 0.83022 0.0
H1738 H 0.55322 0.60407 0.88955 0.0
H1739 H 0.51976 0.59141 0.93906 0.0
H1740 H 0.50199 0.59166 0.87965 0.0
H1741 H 0.4945 0.60804 0.93954 0.0
H1742 H 0.49361 0.69412 0.90689 0.0
H1743 H 0.47433 0.68919 0.81881 0.0
H1744 H 0.4963 0.61906 0.79815 0.0
C1745 C 0.54627 0.63405 0.98907 0.0
C1746 C 0.55203 0.65192 1.02871 0.0
C1747 C 0.54067 0.67291 1.02874 0.0
C1748 C 0.52444 0.67659 0.98911 0.0
C1749 C 0.51949 0.65899 0.94975 0.0
C1750 C 0.52968 0.63798 0.94956 0.0
C1751 C 0.52182 0.6226 0.90042 0.0
C1752 C 0.5416 0.61479 0.86734 0.0
C1753 C 0.50874 0.60222 0.91557 0.0
C1754 C 0.50648 0.63866 0.87223 0.0
C1755 C 0.50542 0.65948 0.902 0.0
C1756 C 0.49387 0.67778 0.88363 0.0
C1757 C 0.48306 0.67484 0.83344 0.0
C1758 C 0.48362 0.65373 0.80205 0.0
C1759 C 0.49525 0.63524 0.8219 0.0
H1760 H 0.4194 0.32751 0.76216 0.0
H1761 H 0.37797 0.29316 0.86312 0.0
H1762 H 0.37084 0.26231 0.79001 0.0
H1763 H 0.38852 0.31325 0.63952 0.0
H1764 H 0.41342 0.30972 0.60319 0.0
H1765 H 0.41339 0.32926 0.66213 0.0
H1766 H 0.44756 0.30873 0.70193 0.0
H1767 H 0.44778 0.28908 0.64331 0.0
H1768 H 0.44612 0.27862 0.70678 0.0
H1769 H 0.36996 0.23449 0.70408 0.0
H1770 H 0.37575 0.21269 0.61772 0.0
H1771 H 0.41967 0.26582 0.57902 0.0
C1772 C 0.40856 0.31372 0.76931 0.0
C1773 C 0.39906 0.31293 0.81848 0.0
C1774 C 0.38513 0.29436 0.82557 0.0
C1775 C 0.38116 0.27672 0.78436 0.0
C1776 C 0.39136 0.27796 0.73677 0.0
C1777 C 0.40483 0.29608 0.72954 0.0
C1778 C 0.41491 0.2934 0.67644 0.0
C1779 C 0.40708 0.31254 0.64336 0.0
C1780 C 0.4406 0.29239 0.68251 0.0
C1781 C 0.40504 0.27078 0.65416 0.0
C1782 C 0.39137 0.26209 0.68912 0.0
C1783 C 0.38058 0.24123 0.67659 0.0
C1784 C 0.38394 0.22898 0.62739 0.0
C1785 C 0.39815 0.23754 0.59154 0.0
C1786 C 0.40871 0.25876 0.60539 0.0
H1787 H 0.49015 0.65175 0.54331 0.0
H1788 H 0.43027 0.63676 0.44194 0.0
H1789 H 0.45313 0.63354 0.36386 0.0
H1790 H 0.51522 0.68691 0.45917 0.0
H1791 H 0.54335 0.67776 0.47443 0.0
H1792 H 0.52262 0.67719 0.52246 0.0
H1793 H 0.53032 0.63444 0.52859 0.0
H1794 H 0.5511 0.63475 0.48048 0.0
H1795 H 0.52821 0.61485 0.46953 0.0
H1796 H 0.4826 0.63195 0.29725 0.0
H1797 H 0.51584 0.6357 0.24601 0.0
H1798 H 0.55594 0.6536 0.39139 0.0
C1799 C 0.48187 0.64735 0.50477 0.0
C1800 C 0.45851 0.64399 0.49851 0.0
C1801 C 0.4482 0.63908 0.44741 0.0
C1802 C 0.46104 0.63719 0.40298 0.0
C1803 C 0.48407 0.64052 0.41052 0.0
C1804 C 0.49435 0.64574 0.46012 0.0
C1805 C 0.51913 0.64993 0.45735 0.0
C1806 C 0.52544 0.6744 0.47965 0.0
C1807 C 0.533 0.63245 0.48567 0.0
C1808 C 0.52119 0.64626 0.39834 0.0
C1809 C 0.50085 0.64056 0.37208 0.0
C1810 C 0.49862 0.63637 0.31735 0.0
C1811 C 0.51763 0.6384 0.28863 0.0
C1812 C 0.53851 0.64484 0.31473 0.0
C1813 C 0.54024 0.64858 0.37033 0.0
H1814 H 0.10736 0.73708 0.34411 0.0
H1815 H 0.13494 0.67951 0.25034 0.0
H1816 H 0.13905 0.70335 0.1773 0.0
H1817 H 0.07489 0.75717 0.23899 0.0
H1818 H 0.07882 0.7871 0.25893 0.0
H1819 H 0.08014 0.7673 0.30774 0.0
H1820 H 0.11888 0.78048 0.3435 0.0
H1821 H 0.11818 0.80149 0.29727 0.0
H1822 H 0.14102 0.78163 0.29901 0.0
H1823 H 0.14001 0.73351 0.11428 0.0
H1824 H 0.135 0.76671 0.06347 0.0
H1825 H 0.10512 0.80405 0.19702 0.0
C1826 C 0.11467 0.72963 0.30854 0.0
C1827 C 0.12135 0.70655 0.30311 0.0
C1828 C 0.13002 0.69719 0.25536 0.0
C1829 C 0.13243 0.71062 0.2138 0.0
C1830 C 0.12575 0.7333 0.22032 0.0
C1831 C 0.11685 0.7427 0.26634 0.0
C1832 C 0.10964 0.7671 0.26192 0.0
C1833 C 0.08434 0.7698 0.26705 0.0
C1834 C 0.12273 0.78364 0.30286 0.0
C1835 C 0.11602 0.76996 0.20645 0.0
C1836 C 0.12546 0.75036 0.18328 0.0
C1837 C 0.13261 0.74895 0.13205 0.0
C1838 C 0.12977 0.76794 0.10353 0.0
C1839 C 0.11975 0.78808 0.12615 0.0
C1840 C 0.11296 0.789 0.17851 0.0
H1841 H 0.04342 0.39246 0.03377 0.0
H1842 H 0.0707 0.32467 1.00074 0.0
H1843 H 0.04477 0.31752 0.92392 0.0
H1844 H 0.98519 0.38033 0.9845 0.0
H1845 H 0.98187 0.40561 0.9511 0.0
H1846 H 1.00096 0.40557 1.00835 0.0
H1847 H 0.03306 0.41825 0.95465 0.0
H1848 H 0.01411 0.41834 0.8972 0.0
H1849 H 0.03931 0.40168 0.89404 0.0
H1850 H 0.01717 0.31638 0.85125 0.0
H1851 H 0.9912 0.32285 0.77706 0.0
H1852 H 0.98152 0.3925 0.84408 0.0
C1853 C 0.04359 0.37606 1.01074 0.0
C1854 C 0.05887 0.3589 1.02495 0.0
C1855 C 0.05914 0.33807 0.99185 0.0
C1856 C 0.04432 0.3337 0.94787 0.0
C1857 C 0.02958 0.35064 0.93495 0.0
C1858 C 0.02925 0.37161 0.96425 0.0
C1859 C 0.013 0.38726 0.93662 0.0
C1860 C 0.99413 0.39516 0.97229 0.0
C1861 C 0.02562 0.4076 0.91962 0.0
C1862 C 1.00406 0.3715 0.88847 0.0
C1863 C 0.014 0.35045 0.88931 0.0
C1864 C 1.00931 0.33282 0.84993 0.0
C1865 C 0.99444 0.33674 0.80769 0.0
C1866 C 0.98416 0.35818 0.80407 0.0
C1867 C 0.98882 0.37583 0.84574 0.0
H1868 H 0.40408 0.73731 0.71376 0.0
H1869 H 0.39451 0.67708 0.79274 0.0
H1870 H 0.38927 0.70102 0.87625 0.0
H1871 H 0.43713 0.76587 0.8167 0.0
H1872 H 0.42652 0.7939 0.80868 0.0
H1873 H 0.42602 0.77258 0.75304 0.0
H1874 H 0.38331 0.77816 0.7375 0.0
H1875 H 0.38369 0.79961 0.79312 0.0
H1876 H 0.36529 0.77547 0.7906 0.0
H1877 H 0.38745 0.73109 0.95213 0.0
H1878 H 0.39165 0.76514 1.01658 0.0
H1879 H 0.40487 0.80591 0.89008 0.0
C1880 C 0.3999 0.72933 0.74821 0.0
C1881 C 0.39875 0.70545 0.7467 0.0
C1882 C 0.39468 0.6954 0.79307 0.0
C1883 C 0.39178 0.70885 0.84061 0.0
C1884 C 0.3933 0.73235 0.84126 0.0
C1885 C 0.39737 0.74256 0.79641 0.0
C1886 C 0.40053 0.768 0.80928 0.0
C1887 C 0.42394 0.77551 0.79615 0.0
C1888 C 0.38211 0.78108 0.78092 0.0
C1889 C 0.39796 0.77036 0.86828 0.0
C1890 C 0.3934 0.74966 0.88575 0.0
C1891 C 0.39077 0.74746 0.93885 0.0
C1892 C 0.39307 0.76693 0.97513 0.0
C1893 C 0.39832 0.78825 0.95827 0.0
C1894 C 0.40062 0.7899 0.90405 0.0
H1895 H 0.98259 0.68669 0.6891 0.0
H1896 H 0.97577 0.61534 0.71057 0.0
H1897 H 1.00293 0.60564 0.64183 0.0
H1898 H 0.98737 0.68106 0.55083 0.0
H1899 H 1.00803 0.70321 0.55283 0.0
H1900 H 0.98803 0.70413 0.60287 0.0
H1901 H 0.0202 0.70635 0.67563 0.0
H1902 H 0.04025 0.7057 0.62574 0.0
H1903 H 0.04176 0.68501 0.67284 0.0
H1904 H 0.02984 0.60419 0.56643 0.0
H1905 H 0.05704 0.61157 0.50008 0.0
H1906 H 0.04672 0.68394 0.53494 0.0
C1907 C 0.98656 0.66894 0.67913 0.0
C1908 C 0.97667 0.65166 0.70418 0.0
C1909 C 0.98291 0.62878 0.69112 0.0
C1910 C 0.9983 0.62315 0.65224 0.0
C1911 C 1.00747 0.64068 0.62771 0.0
C1912 C 1.00205 0.66315 0.64148 0.0
C1913 C 0.01467 0.67904 0.61126 0.0
C1914 C 0.99856 0.69265 0.57743 0.0
C1915 C 0.03014 0.69495 0.6486 0.0
C1916 C 0.02786 0.66201 0.57755 0.0
C1917 C 0.02346 0.63993 0.58697 0.0
C1918 C 0.03352 0.62142 0.55907 0.0
C1919 C 0.04877 0.62569 0.52134 0.0
C1920 C 0.05393 0.64824 0.51297 0.0
C1921 C 0.04317 0.6665 0.54109 0.0
H1922 H 0.12871 0.32007 0.32432 0.0
H1923 H 0.11313 0.27809 0.17701 0.0
H1924 H 0.11228 0.24425 0.2246 0.0
H1925 H 0.16545 0.27868 0.38102 0.0
H1926 H 0.15677 0.28523 0.44727 0.0
H1927 H 0.15557 0.30676 0.40219 0.0
H1928 H 0.11355 0.31288 0.41712 0.0
H1929 H 0.11455 0.2914 0.4623 0.0
H1930 H 0.09468 0.28901 0.4062 0.0
H1931 H 0.11337 0.21478 0.28556 0.0
H1932 H 0.11568 0.1906 0.35784 0.0
H1933 H 0.13128 0.24966 0.46968 0.0
C1934 C 0.12505 0.30374 0.30232 0.0
C1935 C 0.12116 0.30187 0.24666 0.0
C1936 C 0.11649 0.28011 0.21938 0.0
C1937 C 0.11588 0.26068 0.24613 0.0
C1938 C 0.1202 0.26296 0.30052 0.0
C1939 C 0.12471 0.28383 0.32859 0.0
C1940 C 0.12918 0.28101 0.38701 0.0
C1941 C 0.15317 0.28836 0.40548 0.0
C1942 C 0.11196 0.29436 0.42014 0.0
C1943 C 0.1262 0.25537 0.38717 0.0
C1944 C 0.12108 0.2455 0.33649 0.0
C1945 C 0.11746 0.22226 0.32542 0.0
C1946 C 0.1189 0.20861 0.36705 0.0
C1947 C 0.12395 0.21797 0.41979 0.0
C1948 C 0.12777 0.24181 0.42986 0.0
H1949 H 0.44742 0.37502 0.12619 0.0
H1950 H 0.49507 0.3731 1.00396 0.0
H1951 H 0.52603 0.37412 0.07086 0.0
H1952 H 0.48014 0.41399 0.22045 0.0
H1953 H 0.47271 0.40058 0.2772 0.0
H1954 H 0.45376 0.39943 0.21954 0.0
H1955 H 0.45308 0.35552 0.21426 0.0
H1956 H 0.472 0.35643 0.27191 0.0
H1957 H 0.47901 0.34004 0.21163 0.0
H1958 H 0.55246 0.37588 0.15011 0.0
H1959 H 0.57252 0.3774 0.23753 0.0
H1960 H 0.50903 0.37802 0.31125 0.0
C1961 C 0.46435 0.37488 0.11361 0.0
C1962 C 0.46853 0.37427 0.0594 0.0
C1963 C 0.4911 0.37396 0.04493 0.0
C1964 C 0.509 0.37443 0.08278 0.0
C1965 C 0.50438 0.37532 0.13562 0.0
C1966 C 0.48268 0.37555 0.15129 0.0
C1967 C 0.48266 0.37685 0.21112 0.0
C1968 C 0.47166 0.39903 0.23341 0.0
C1969 C 0.471 0.35596 0.22824 0.0
C1970 C 0.50768 0.37689 0.22625 0.0
C1971 C 0.51982 0.37619 0.18187 0.0
C1972 C 0.54314 0.37646 0.18524 0.0
C1973 C 0.55442 0.37743 0.23524 0.0
C1974 C 0.54251 0.37795 0.28163 0.0
C1975 C 0.51873 0.37764 0.27673 0.0
loop_
_geom_bond_atom_site_label_1
_geom_bond_atom_site_label_2
_geom_bond_distance
_geom_bond_site_symmetry_2
_ccdc_geom_bond_type
O0 Tb1 2.292 . S
O0 C3 1.255 . S
Tb1 O0 2.292 . S
Tb1 O17 2.326 . S
Tb1 O19 2.500 . S
Tb1 O20 2.473 . S
Tb1 O23 2.324 . S
Eu2 O6 2.292 1_554 S
Eu2 C7 2.852 . S
Eu2 O18 2.324 . S
Eu2 O22 2.326 . S
Eu2 O24 2.500 . S
Eu2 O25 2.473 . S
C3 O0 1.255 . S
C3 O4 1.247 . S
O4 C3 1.247 . S
C5 O17 1.242 . S
C5 O18 1.258 . S
O6 Eu2 2.292 1_556 S
O6 C8 1.255 . S
C7 Eu2 2.852 . S
C7 C11 1.503 . S
C7 O24 1.273 . S
C7 O25 1.257 . S
C8 O6 1.255 . S
C8 O9 1.247 . S
O9 C8 1.247 . S
C10 O22 1.242 . S
C10 O23 1.258 . S
C11 C7 1.503 . S
C11 C12 1.379 . S
C11 C16 1.392 . S
C12 C11 1.379 . S
C12 C13 1.404 . S
C12 H26 0.929 . S
C13 C12 1.404 . S
C13 C14 1.389 . S
C14 C13 1.389 . S
C14 C15 1.399 . S
C14 H27 0.931 . S
C15 C14 1.399 . S
C15 C16 1.390 . S
C16 C11 1.392 . S
C16 C15 1.390 . S
C16 H28 0.929 . S
O17 Tb1 2.326 . S
O17 C5 1.242 . S
O18 Eu2 2.324 . S
O18 C5 1.258 . S
O19 Tb1 2.500 . S
O19 C21 1.273 . S
O20 Tb1 2.473 . S
O20 C21 1.257 . S
C21 O19 1.273 . S
C21 O20 1.257 . S
O22 Eu2 2.326 . S
O22 C10 1.242 . S
O23 Tb1 2.324 . S
O23 C10 1.258 . S
O24 Eu2 2.500 . S
O24 C7 1.273 . S
O25 Eu2 2.473 . S
O25 C7 1.257 . S
H26 C12 0.929 . S
H27 C14 0.931 . S
H28 C16 0.929 . S
O29 Tb30 2.292 . S
O29 C32 1.255 . S
Tb30 O29 2.292 . S
Tb30 O46 2.326 . S
Tb30 O48 2.500 . S
Tb30 O49 2.473 . S
Tb30 O52 2.324 . S
Eu31 O35 2.292 . S
Eu31 C36 2.852 . S
Eu31 O47 2.324 . S
Eu31 O51 2.326 . S
Eu31 O53 2.500 . S
Eu31 O54 2.473 . S
C32 O29 1.255 . S
C32 O33 1.247 . S
O33 C32 1.247 . S
C34 O46 1.242 . S
C34 O47 1.258 . S
O35 Eu31 2.292 . S
O35 C37 1.255 . S
C36 Eu31 2.852 . S
C36 C40 1.503 . S
C36 O53 1.273 . S
C36 O54 1.257 . S
C37 O35 1.255 . S
C37 O38 1.247 . S
O38 C37 1.247 . S
C39 O51 1.242 . S
C39 O52 1.258 . S
C40 C36 1.503 . S
C40 C41 1.379 . S
C40 C45 1.392 . S
C41 C40 1.379 . S
C41 C42 1.404 . S
C41 H55 0.929 . S
C42 C41 1.404 . S
C42 C43 1.389 . S
C43 C42 1.389 . S
C43 C44 1.399 . S
C43 H56 0.931 . S
C44 C43 1.399 . S
C44 C45 1.390 . S
C45 C40 1.392 . S
C45 C44 1.390 . S
C45 H57 0.929 . S
O46 Tb30 2.326 . S
O46 C34 1.242 . S
O47 Eu31 2.324 . S
O47 C34 1.258 . S
O48 Tb30 2.500 . S
O48 C50 1.273 . S
O49 Tb30 2.473 . S
O49 C50 1.257 . S
C50 O48 1.273 . S
C50 O49 1.257 . S
O51 Eu31 2.326 . S
O51 C39 1.242 . S
O52 Tb30 2.324 . S
O52 C39 1.258 . S
O53 Eu31 2.500 . S
O53 C36 1.273 . S
O54 Eu31 2.473 . S
O54 C36 1.257 . S
H55 C41 0.929 . S
H56 C43 0.931 . S
H57 C45 0.929 . S
O58 Tb59 2.292 . S
O58 C61 1.255 . S
Tb59 O58 2.292 . S
Tb59 O75 2.326 . S
Tb59 O77 2.500 . S
Tb59 O78 2.473 . S
Tb59 O81 2.324 . S
Eu60 O64 2.292 . S
Eu60 C65 2.852 . S
Eu60 O76 2.324 . S
Eu60 O80 2.326 . S
Eu60 O82 2.500 . S
Eu60 O83 2.473 . S
C61 O58 1.255 . S
C61 O62 1.247 . S
O62 C61 1.247 . S
C63 O75 1.242 . S
C63 O76 1.258 . S
O64 Eu60 2.292 . S
O64 C66 1.255 . S
C65 Eu60 2.852 . S
C65 C69 1.503 . S
C65 O82 1.273 . S
C65 O83 1.257 . S
C66 O64 1.255 . S
C66 O67 1.247 . S
O67 C66 1.247 . S
C68 O80 1.242 . S
C68 O81 1.258 . S
C69 C65 1.503 . S
C69 C70 1.379 . S
C69 C74 1.392 . S
C70 C69 1.379 . S
C70 C71 1.404 . S
C70 H84 0.929 . S
C71 C70 1.404 . S
C71 C72 1.389 . S
C72 C71 1.389 . S
C72 C73 1.399 . S
C72 H85 0.931 . S
C73 C72 1.399 . S
C73 C74 1.390 . S
C74 C69 1.392 . S
C74 C73 1.390 . S
C74 H86 0.929 . S
O75 Tb59 2.326 . S
O75 C63 1.242 . S
O76 Eu60 2.324 . S
O76 C63 1.258 . S
O77 Tb59 2.500 . S
O77 C79 1.273 . S
O78 Tb59 2.473 . S
O78 C79 1.257 . S
C79 O77 1.273 . S
C79 O78 1.257 . S
O80 Eu60 2.326 . S
O80 C68 1.242 . S
O81 Tb59 2.324 . S
O81 C68 1.258 . S
O82 Eu60 2.500 . S
O82 C65 1.273 . S
O83 Eu60 2.473 . S
O83 C65 1.257 . S
H84 C70 0.929 . S
H85 C72 0.931 . S
H86 C74 0.929 . S
O87 Tb88 2.292 . S
O87 C90 1.255 . S
Tb88 O87 2.292 . S
Tb88 O104 2.326 . S
Tb88 O106 2.500 . S
Tb88 O107 2.473 . S
Tb88 O110 2.324 . S
Eu89 O93 2.292 1_556 S
Eu89 C94 2.852 . S
Eu89 O105 2.324 . S
Eu89 O109 2.326 . S
Eu89 O111 2.500 . S
Eu89 O112 2.473 . S
C90 O87 1.255 . S
C90 O91 1.247 . S
O91 C90 1.247 . S
C92 O104 1.242 . S
C92 O105 1.258 . S
O93 Eu89 2.292 1_554 S
O93 C95 1.255 . S
C94 Eu89 2.852 . S
C94 C98 1.503 . S
C94 O111 1.273 . S
C94 O112 1.257 . S
C95 O93 1.255 . S
C95 O96 1.247 . S
O96 C95 1.247 . S
C97 O109 1.242 . S
C97 O110 1.258 . S
C98 C94 1.503 . S
C98 C99 1.379 . S
C98 C103 1.392 . S
C99 C98 1.379 . S
C99 C100 1.404 . S
C99 H113 0.929 . S
C100 C99 1.404 . S
C100 C101 1.389 . S
C101 C100 1.389 . S
C101 C102 1.399 . S
C101 H114 0.931 . S
C102 C101 1.399 . S
C102 C103 1.390 . S
C103 C98 1.392 . S
C103 C102 1.390 . S
C103 H115 0.929 . S
O104 Tb88 2.326 . S
O104 C92 1.242 . S
O105 Eu89 2.324 . S
O105 C92 1.258 . S
O106 Tb88 2.500 . S
O106 C108 1.273 . S
O107 Tb88 2.473 . S
O107 C108 1.257 . S
C108 O106 1.273 . S
C108 O107 1.257 . S
O109 Eu89 2.326 . S
O109 C97 1.242 . S
O110 Tb88 2.324 . S
O110 C97 1.258 . S
O111 Eu89 2.500 . S
O111 C94 1.273 . S
O112 Eu89 2.473 . S
O112 C94 1.257 . S
H113 C99 0.929 . S
H114 C101 0.931 . S
H115 C103 0.929 . S
O116 Tb117 2.292 . S
O116 C119 1.255 . S
Tb117 O116 2.292 . S
Tb117 O133 2.326 . S
Tb117 O135 2.500 . S
Tb117 O136 2.473 . S
Tb117 O139 2.324 . S
Eu118 O122 2.292 . S
Eu118 C123 2.852 . S
Eu118 O134 2.324 . S
Eu118 O138 2.326 . S
Eu118 O140 2.500 . S
Eu118 O141 2.473 . S
C119 O116 1.255 . S
C119 O120 1.247 . S
O120 C119 1.247 . S
C121 O133 1.242 . S
C121 O134 1.258 . S
O122 Eu118 2.292 . S
O122 C124 1.255 . S
C123 Eu118 2.852 . S
C123 C127 1.503 . S
C123 O140 1.273 . S
C123 O141 1.257 . S
C124 O122 1.255 . S
C124 O125 1.247 . S
O125 C124 1.247 . S
C126 O138 1.242 . S
C126 O139 1.258 . S
C127 C123 1.503 . S
C127 C128 1.379 . S
C127 C132 1.392 . S
C128 C127 1.379 . S
C128 C129 1.404 . S
C128 H142 0.929 . S
C129 C128 1.404 . S
C129 C130 1.389 . S
C130 C129 1.389 . S
C130 C131 1.399 . S
C130 H143 0.931 . S
C131 C130 1.399 . S
C131 C132 1.390 . S
C132 C127 1.392 . S
C132 C131 1.390 . S
C132 H144 0.929 . S
O133 Tb117 2.326 . S
O133 C121 1.242 . S
O134 Eu118 2.324 . S
O134 C121 1.258 . S
O135 Tb117 2.500 . S
O135 C137 1.273 . S
O136 Tb117 2.473 . S
O136 C137 1.257 . S
C137 O135 1.273 . S
C137 O136 1.257 . S
O138 Eu118 2.326 . S
O138 C126 1.242 . S
O139 Tb117 2.324 . S
O139 C126 1.258 . S
O140 Eu118 2.500 . S
O140 C123 1.273 . S
O141 Eu118 2.473 . S
O141 C123 1.257 . S
H142 C128 0.929 . S
H143 C130 0.931 . S
H144 C132 0.929 . S
O145 Tb146 2.292 . S
O145 C148 1.255 . S
Tb146 O145 2.292 . S
Tb146 O162 2.326 . S
Tb146 O164 2.500 . S
Tb146 O165 2.473 . S
Tb146 O168 2.324 . S
Eu147 O151 2.292 . S
Eu147 C152 2.852 . S
Eu147 O163 2.324 . S
Eu147 O167 2.326 . S
Eu147 O169 2.500 . S
Eu147 O170 2.473 . S
C148 O145 1.255 . S
C148 O149 1.247 . S
O149 C148 1.247 . S
C150 O162 1.242 . S
C150 O163 1.258 . S
O151 Eu147 2.292 . S
O151 C153 1.255 . S
C152 Eu147 2.852 . S
C152 C156 1.503 . S
C152 O169 1.273 . S
C152 O170 1.257 . S
C153 O151 1.255 . S
C153 O154 1.247 . S
O154 C153 1.247 . S
C155 O167 1.242 . S
C155 O168 1.258 . S
C156 C152 1.503 . S
C156 C157 1.379 . S
C156 C161 1.392 . S
C157 C156 1.379 . S
C157 C158 1.404 . S
C157 H171 0.929 . S
C158 C157 1.404 . S
C158 C159 1.389 . S
C159 C158 1.389 . S
C159 C160 1.399 . S
C159 H172 0.931 . S
C160 C159 1.399 . S
C160 C161 1.390 . S
C161 C156 1.392 . S
C161 C160 1.390 . S
C161 H173 0.929 . S
O162 Tb146 2.326 . S
O162 C150 1.242 . S
O163 Eu147 2.324 . S
O163 C150 1.258 . S
O164 Tb146 2.500 . S
O164 C166 1.273 . S
O165 Tb146 2.473 . S
O165 C166 1.257 . S
C166 O164 1.273 . S
C166 O165 1.257 . S
O167 Eu147 2.326 . S
O167 C155 1.242 . S
O168 Tb146 2.324 . S
O168 C155 1.258 . S
O169 Eu147 2.500 . S
O169 C152 1.273 . S
O170 Eu147 2.473 . S
O170 C152 1.257 . S
H171 C157 0.929 . S
H172 C159 0.931 . S
H173 C161 0.929 . S
O174 Tb175 2.292 . S
O174 C177 1.255 1_556 S
Tb175 O174 2.292 . S
Tb175 O191 2.326 . S
Tb175 O193 2.500 . S
Tb175 O194 2.473 . S
Tb175 O197 2.324 . S
Eu176 O180 2.292 . S
Eu176 C181 2.852 . S
Eu176 O192 2.324 . S
Eu176 O196 2.326 . S
Eu176 O198 2.500 . S
Eu176 O199 2.473 . S
C177 O174 1.255 1_554 S
C177 O178 1.247 . S
O178 C177 1.247 . S
C179 O191 1.242 . S
C179 O192 1.258 . S
O180 Eu176 2.292 . S
O180 C182 1.255 . S
C181 Eu176 2.852 . S
C181 C185 1.503 . S
C181 O198 1.273 . S
C181 O199 1.257 . S
C182 O180 1.255 . S
C182 O183 1.247 . S
O183 C182 1.247 . S
C184 O196 1.242 . S
C184 O197 1.258 . S
C185 C181 1.503 . S
C185 C186 1.379 . S
C185 C190 1.392 . S
C186 C185 1.379 . S
C186 C187 1.404 . S
C186 H200 0.929 . S
C187 C186 1.404 . S
C187 C188 1.389 . S
C188 C187 1.389 . S
C188 C189 1.399 . S
C188 H201 0.931 . S
C189 C188 1.399 . S
C189 C190 1.390 . S
C190 C185 1.392 . S
C190 C189 1.390 . S
C190 H202 0.929 . S
O191 Tb175 2.326 . S
O191 C179 1.242 . S
O192 Eu176 2.324 . S
O192 C179 1.258 . S
O193 Tb175 2.500 . S
O193 C195 1.273 . S
O194 Tb175 2.473 . S
O194 C195 1.257 . S
C195 O193 1.273 . S
C195 O194 1.257 . S
O196 Eu176 2.326 . S
O196 C184 1.242 . S
O197 Tb175 2.324 . S
O197 C184 1.258 . S
O198 Eu176 2.500 . S
O198 C181 1.273 . S
O199 Eu176 2.473 . S
O199 C181 1.257 . S
H200 C186 0.929 . S
H201 C188 0.931 . S
H202 C190 0.929 . S
O203 Tb204 2.292 1_556 S
O203 C206 1.255 . S
Tb204 O203 2.292 1_554 S
Tb204 O220 2.326 . S
Tb204 O222 2.500 . S
Tb204 O223 2.473 . S
Tb204 O226 2.324 . S
Eu205 O209 2.292 . S
Eu205 C210 2.852 . S
Eu205 O221 2.324 . S
Eu205 O225 2.326 . S
Eu205 O227 2.500 . S
Eu205 O228 2.473 . S
C206 O203 1.255 . S
C206 O207 1.247 . S
O207 C206 1.247 . S
C208 O220 1.242 . S
C208 O221 1.258 . S
O209 Eu205 2.292 . S
O209 C211 1.255 . S
C210 Eu205 2.852 . S
C210 C214 1.503 . S
C210 O227 1.273 . S
C210 O228 1.257 . S
C211 O209 1.255 . S
C211 O212 1.247 . S
O212 C211 1.247 . S
C213 O225 1.242 . S
C213 O226 1.258 . S
C214 C210 1.503 . S
C214 C215 1.379 . S
C214 C219 1.392 . S
C215 C214 1.379 . S
C215 C216 1.404 . S
C215 H229 0.929 . S
C216 C215 1.404 . S
C216 C217 1.389 . S
C217 C216 1.389 . S
C217 C218 1.399 . S
C217 H230 0.931 . S
C218 C217 1.399 . S
C218 C219 1.390 . S
C219 C214 1.392 . S
C219 C218 1.390 . S
C219 H231 0.929 . S
O220 Tb204 2.326 . S
O220 C208 1.242 . S
O221 Eu205 2.324 . S
O221 C208 1.258 . S
O222 Tb204 2.500 . S
O222 C224 1.273 . S
O223 Tb204 2.473 . S
O223 C224 1.257 . S
C224 O222 1.273 . S
C224 O223 1.257 . S
O225 Eu205 2.326 . S
O225 C213 1.242 . S
O226 Tb204 2.324 . S
O226 C213 1.258 . S
O227 Eu205 2.500 . S
O227 C210 1.273 . S
O228 Eu205 2.473 . S
O228 C210 1.257 . S
H229 C215 0.929 . S
H230 C217 0.931 . S
H231 C219 0.929 . S
O232 Tb233 2.292 . S
O232 C235 1.255 . S
Tb233 O232 2.292 . S
Tb233 O249 2.326 . S
Tb233 O251 2.500 . S
Tb233 O252 2.473 . S
Tb233 O255 2.324 . S
Eu234 O238 2.292 . S
Eu234 C239 2.852 . S
Eu234 O250 2.324 . S
Eu234 O254 2.326 . S
Eu234 O256 2.500 . S
Eu234 O257 2.473 . S
C235 O232 1.255 . S
C235 O236 1.247 . S
O236 C235 1.247 . S
C237 O249 1.242 . S
C237 O250 1.258 . S
O238 Eu234 2.292 . S
O238 C240 1.255 1_556 S
C239 Eu234 2.852 . S
C239 C243 1.503 . S
C239 O256 1.273 . S
C239 O257 1.257 . S
C240 O238 1.255 1_554 S
C240 O241 1.247 . S
O241 C240 1.247 . S
C242 O254 1.242 . S
C242 O255 1.258 . S
C243 C239 1.503 . S
C243 C244 1.379 . S
C243 C248 1.392 . S
C244 C243 1.379 . S
C244 C245 1.404 . S
C244 H258 0.929 . S
C245 C244 1.404 . S
C245 C246 1.389 . S
C246 C245 1.389 . S
C246 C247 1.399 . S
C246 H259 0.931 . S
C247 C246 1.399 . S
C247 C248 1.390 . S
C248 C243 1.392 . S
C248 C247 1.390 . S
C248 H260 0.929 . S
O249 Tb233 2.326 . S
O249 C237 1.242 . S
O250 Eu234 2.324 . S
O250 C237 1.258 . S
O251 Tb233 2.500 . S
O251 C253 1.273 . S
O252 Tb233 2.473 . S
O252 C253 1.257 . S
C253 O251 1.273 . S
C253 O252 1.257 . S
O254 Eu234 2.326 . S
O254 C242 1.242 . S
O255 Tb233 2.324 . S
O255 C242 1.258 . S
O256 Eu234 2.500 . S
O256 C239 1.273 . S
O257 Eu234 2.473 . S
O257 C239 1.257 . S
H258 C244 0.929 . S
H259 C246 0.931 . S
H260 C248 0.929 . S
O261 Tb262 2.292 . S
O261 C264 1.255 . S
Tb262 O261 2.292 . S
Tb262 O278 2.326 . S
Tb262 O280 2.500 . S
Tb262 O281 2.473 . S
Tb262 O284 2.324 . S
Eu263 O267 2.292 . S
Eu263 C268 2.852 . S
Eu263 O279 2.324 . S
Eu263 O283 2.326 . S
Eu263 O285 2.500 . S
Eu263 O286 2.473 . S
C264 O261 1.255 . S
C264 O265 1.247 . S
O265 C264 1.247 . S
C266 O278 1.242 . S
C266 O279 1.258 . S
O267 Eu263 2.292 . S
O267 C269 1.255 . S
C268 Eu263 2.852 . S
C268 C272 1.503 . S
C268 O285 1.273 . S
C268 O286 1.257 . S
C269 O267 1.255 . S
C269 O270 1.247 . S
O270 C269 1.247 . S
C271 O283 1.242 . S
C271 O284 1.258 . S
C272 C268 1.503 . S
C272 C273 1.379 . S
C272 C277 1.392 . S
C273 C272 1.379 . S
C273 C274 1.404 . S
C273 H287 0.929 . S
C274 C273 1.404 . S
C274 C275 1.389 . S
C275 C274 1.389 . S
C275 C276 1.399 . S
C275 H288 0.931 . S
C276 C275 1.399 . S
C276 C277 1.390 . S
C277 C272 1.392 . S
C277 C276 1.390 . S
C277 H289 0.929 . S
O278 Tb262 2.326 . S
O278 C266 1.242 . S
O279 Eu263 2.324 . S
O279 C266 1.258 . S
O280 Tb262 2.500 . S
O280 C282 1.273 . S
O281 Tb262 2.473 . S
O281 C282 1.257 . S
C282 O280 1.273 . S
C282 O281 1.257 . S
O283 Eu263 2.326 . S
O283 C271 1.242 . S
O284 Tb262 2.324 . S
O284 C271 1.258 . S
O285 Eu263 2.500 . S
O285 C268 1.273 . S
O286 Eu263 2.473 . S
O286 C268 1.257 . S
H287 C273 0.929 . S
H288 C275 0.931 . S
H289 C277 0.929 . S
O290 Tb291 2.292 . S
O290 C293 1.255 . S
Tb291 O290 2.292 . S
Tb291 O307 2.326 . S
Tb291 O309 2.500 . S
Tb291 O310 2.473 . S
Tb291 O313 2.324 . S
Eu292 O296 2.292 . S
Eu292 C297 2.852 . S
Eu292 O308 2.324 . S
Eu292 O312 2.326 . S
Eu292 O314 2.500 . S
Eu292 O315 2.473 . S
C293 O290 1.255 . S
C293 O294 1.247 . S
O294 C293 1.247 . S
C295 O307 1.242 . S
C295 O308 1.258 . S
O296 Eu292 2.292 . S
O296 C298 1.255 . S
C297 Eu292 2.852 . S
C297 C301 1.503 . S
C297 O314 1.273 . S
C297 O315 1.257 . S
C298 O296 1.255 . S
C298 O299 1.247 . S
O299 C298 1.247 . S
C300 O312 1.242 . S
C300 O313 1.258 . S
C301 C297 1.503 . S
C301 C302 1.379 . S
C301 C306 1.392 . S
C302 C301 1.379 . S
C302 C303 1.404 . S
C302 H316 0.929 . S
C303 C302 1.404 . S
C303 C304 1.389 . S
C304 C303 1.389 . S
C304 C305 1.399 . S
C304 H317 0.931 . S
C305 C304 1.399 . S
C305 C306 1.390 . S
C306 C301 1.392 . S
C306 C305 1.390 . S
C306 H318 0.929 . S
O307 Tb291 2.326 . S
O307 C295 1.242 . S
O308 Eu292 2.324 . S
O308 C295 1.258 . S
O309 Tb291 2.500 . S
O309 C311 1.273 . S
O310 Tb291 2.473 . S
O310 C311 1.257 . S
C311 O309 1.273 . S
C311 O310 1.257 . S
O312 Eu292 2.326 . S
O312 C300 1.242 . S
O313 Tb291 2.324 . S
O313 C300 1.258 . S
O314 Eu292 2.500 . S
O314 C297 1.273 . S
O315 Eu292 2.473 . S
O315 C297 1.257 . S
H316 C302 0.929 . S
H317 C304 0.931 . S
H318 C306 0.929 . S
O319 Tb320 2.292 . S
O319 C322 1.255 1_554 S
Tb320 O319 2.292 . S
Tb320 O336 2.326 . S
Tb320 O338 2.500 . S
Tb320 O339 2.473 . S
Tb320 O342 2.324 . S
Eu321 O325 2.292 . S
Eu321 C326 2.852 . S
Eu321 O337 2.324 . S
Eu321 O341 2.326 . S
Eu321 O343 2.500 . S
Eu321 O344 2.473 . S
C322 O319 1.255 1_556 S
C322 O323 1.247 . S
O323 C322 1.247 . S
C324 O336 1.242 . S
C324 O337 1.258 . S
O325 Eu321 2.292 . S
O325 C327 1.255 . S
C326 Eu321 2.852 . S
C326 C330 1.503 . S
C326 O343 1.273 . S
C326 O344 1.257 . S
C327 O325 1.255 . S
C327 O328 1.247 . S
O328 C327 1.247 . S
C329 O341 1.242 . S
C329 O342 1.258 . S
C330 C326 1.503 . S
C330 C331 1.379 . S
C330 C335 1.392 . S
C331 C330 1.379 . S
C331 C332 1.404 . S
C331 H345 0.929 . S
C332 C331 1.404 . S
C332 C333 1.389 . S
C333 C332 1.389 . S
C333 C334 1.399 . S
C333 H346 0.931 . S
C334 C333 1.399 . S
C334 C335 1.390 . S
C335 C330 1.392 . S
C335 C334 1.390 . S
C335 H347 0.929 . S
O336 Tb320 2.326 . S
O336 C324 1.242 . S
O337 Eu321 2.324 . S
O337 C324 1.258 . S
O338 Tb320 2.500 . S
O338 C340 1.273 . S
O339 Tb320 2.473 . S
O339 C340 1.257 . S
C340 O338 1.273 . S
C340 O339 1.257 . S
O341 Eu321 2.326 . S
O341 C329 1.242 . S
O342 Tb320 2.324 . S
O342 C329 1.258 . S
O343 Eu321 2.500 . S
O343 C326 1.273 . S
O344 Eu321 2.473 . S
O344 C326 1.257 . S
H345 C331 0.929 . S
H346 C333 0.931 . S
H347 C335 0.929 . S
O348 Tb349 2.292 . S
O348 C351 1.255 . S
Tb349 O348 2.292 . S
Tb349 O365 2.326 . S
Tb349 O367 2.500 . S
Tb349 O368 2.473 . S
Tb349 O371 2.324 . S
Eu350 O354 2.292 . S
Eu350 C355 2.852 . S
Eu350 O366 2.324 . S
Eu350 O370 2.326 . S
Eu350 O372 2.500 . S
Eu350 O373 2.473 . S
C351 O348 1.255 . S
C351 O352 1.247 . S
O352 C351 1.247 . S
C353 O365 1.242 . S
C353 O366 1.258 . S
O354 Eu350 2.292 . S
O354 C356 1.255 . S
C355 Eu350 2.852 . S
C355 C359 1.503 . S
C355 O372 1.273 . S
C355 O373 1.257 . S
C356 O354 1.255 . S
C356 O357 1.247 . S
O357 C356 1.247 . S
C358 O370 1.242 . S
C358 O371 1.258 . S
C359 C355 1.503 . S
C359 C360 1.379 . S
C359 C364 1.392 . S
C360 C359 1.379 . S
C360 C361 1.404 . S
C360 H374 0.929 . S
C361 C360 1.404 . S
C361 C362 1.389 . S
C362 C361 1.389 . S
C362 C363 1.399 . S
C362 H375 0.931 . S
C363 C362 1.399 . S
C363 C364 1.390 . S
C364 C359 1.392 . S
C364 C363 1.390 . S
C364 H376 0.929 . S
O365 Tb349 2.326 . S
O365 C353 1.242 . S
O366 Eu350 2.324 . S
O366 C353 1.258 . S
O367 Tb349 2.500 . S
O367 C369 1.273 . S
O368 Tb349 2.473 . S
O368 C369 1.257 . S
C369 O367 1.273 . S
C369 O368 1.257 . S
O370 Eu350 2.326 . S
O370 C358 1.242 . S
O371 Tb349 2.324 . S
O371 C358 1.258 . S
O372 Eu350 2.500 . S
O372 C355 1.273 . S
O373 Eu350 2.473 . S
O373 C355 1.257 . S
H374 C360 0.929 . S
H375 C362 0.931 . S
H376 C364 0.929 . S
O377 Tb378 2.292 . S
O377 C380 1.255 . S
Tb378 O377 2.292 . S
Tb378 O394 2.326 . S
Tb378 O396 2.500 . S
Tb378 O397 2.473 . S
Tb378 O400 2.324 . S
Eu379 O383 2.292 . S
Eu379 C384 2.852 . S
Eu379 O395 2.324 . S
Eu379 O399 2.326 . S
Eu379 O401 2.500 . S
Eu379 O402 2.473 . S
C380 O377 1.255 . S
C380 O381 1.247 . S
O381 C380 1.247 . S
C382 O394 1.242 . S
C382 O395 1.258 . S
O383 Eu379 2.292 . S
O383 C385 1.255 . S
C384 Eu379 2.852 . S
C384 C388 1.503 . S
C384 O401 1.273 . S
C384 O402 1.257 . S
C385 O383 1.255 . S
C385 O386 1.247 . S
O386 C385 1.247 . S
C387 O399 1.242 . S
C387 O400 1.258 . S
C388 C384 1.503 . S
C388 C389 1.379 . S
C388 C393 1.392 . S
C389 C388 1.379 . S
C389 C390 1.404 . S
C389 H403 0.929 . S
C390 C389 1.404 . S
C390 C391 1.389 . S
C391 C390 1.389 . S
C391 C392 1.399 . S
C391 H404 0.931 . S
C392 C391 1.399 . S
C392 C393 1.390 . S
C393 C388 1.392 . S
C393 C392 1.390 . S
C393 H405 0.929 . S
O394 Tb378 2.326 . S
O394 C382 1.242 . S
O395 Eu379 2.324 . S
O395 C382 1.258 . S
O396 Tb378 2.500 . S
O396 C398 1.273 . S
O397 Tb378 2.473 . S
O397 C398 1.257 . S
C398 O396 1.273 . S
C398 O397 1.257 . S
O399 Eu379 2.326 . S
O399 C387 1.242 . S
O400 Tb378 2.324 . S
O400 C387 1.258 . S
O401 Eu379 2.500 . S
O401 C384 1.273 . S
O402 Eu379 2.473 . S
O402 C384 1.257 . S
H403 C389 0.929 . S
H404 C391 0.931 . S
H405 C393 0.929 . S
O406 Tb407 2.292 . S
O406 C409 1.255 . S
Tb407 O406 2.292 . S
Tb407 O423 2.326 . S
Tb407 O425 2.500 . S
Tb407 O426 2.473 . S
Tb407 O429 2.324 . S
Eu408 O412 2.292 . S
Eu408 C413 2.852 . S
Eu408 O424 2.324 . S
Eu408 O428 2.326 . S
Eu408 O430 2.500 . S
Eu408 O431 2.473 . S
C409 O406 1.255 . S
C409 O410 1.247 . S
O410 C409 1.247 . S
C411 O423 1.242 . S
C411 O424 1.258 . S
O412 Eu408 2.292 . S
O412 C414 1.255 1_554 S
C413 Eu408 2.852 . S
C413 C417 1.503 . S
C413 O430 1.273 . S
C413 O431 1.257 . S
C414 O412 1.255 1_556 S
C414 O415 1.247 . S
O415 C414 1.247 . S
C416 O428 1.242 . S
C416 O429 1.258 . S
C417 C413 1.503 . S
C417 C418 1.379 . S
C417 C422 1.392 . S
C418 C417 1.379 . S
C418 C419 1.404 . S
C418 H432 0.929 . S
C419 C418 1.404 . S
C419 C420 1.389 . S
C420 C419 1.389 . S
C420 C421 1.399 . S
C420 H433 0.931 . S
C421 C420 1.399 . S
C421 C422 1.390 . S
C422 C417 1.392 . S
C422 C421 1.390 . S
C422 H434 0.929 . S
O423 Tb407 2.326 . S
O423 C411 1.242 . S
O424 Eu408 2.324 . S
O424 C411 1.258 . S
O425 Tb407 2.500 . S
O425 C427 1.273 . S
O426 Tb407 2.473 . S
O426 C427 1.257 . S
C427 O425 1.273 . S
C427 O426 1.257 . S
O428 Eu408 2.326 . S
O428 C416 1.242 . S
O429 Tb407 2.324 . S
O429 C416 1.258 . S
O430 Eu408 2.500 . S
O430 C413 1.273 . S
O431 Eu408 2.473 . S
O431 C413 1.257 . S
H432 C418 0.929 . S
H433 C420 0.931 . S
H434 C422 0.929 . S
O435 Tb436 2.292 1_554 S
O435 C438 1.255 . S
Tb436 O435 2.292 1_556 S
Tb436 O452 2.326 . S
Tb436 O454 2.500 . S
Tb436 O455 2.473 . S
Tb436 O458 2.324 . S
Eu437 O441 2.292 . S
Eu437 C442 2.852 . S
Eu437 O453 2.324 . S
Eu437 O457 2.326 . S
Eu437 O459 2.500 . S
Eu437 O460 2.473 . S
C438 O435 1.255 . S
C438 O439 1.247 . S
O439 C438 1.247 . S
C440 O452 1.242 . S
C440 O453 1.258 . S
O441 Eu437 2.292 . S
O441 C443 1.255 . S
C442 Eu437 2.852 . S
C442 C446 1.503 . S
C442 O459 1.273 . S
C442 O460 1.257 . S
C443 O441 1.255 . S
C443 O444 1.247 . S
O444 C443 1.247 . S
C445 O457 1.242 . S
C445 O458 1.258 . S
C446 C442 1.503 . S
C446 C447 1.379 . S
C446 C451 1.392 . S
C447 C446 1.379 . S
C447 C448 1.404 . S
C447 H461 0.929 . S
C448 C447 1.404 . S
C448 C449 1.389 . S
C449 C448 1.389 . S
C449 C450 1.399 . S
C449 H462 0.931 . S
C450 C449 1.399 . S
C450 C451 1.390 . S
C451 C446 1.392 . S
C451 C450 1.390 . S
C451 H463 0.929 . S
O452 Tb436 2.326 . S
O452 C440 1.242 . S
O453 Eu437 2.324 . S
O453 C440 1.258 . S
O454 Tb436 2.500 . S
O454 C456 1.273 . S
O455 Tb436 2.473 . S
O455 C456 1.257 . S
C456 O454 1.273 . S
C456 O455 1.257 . S
O457 Eu437 2.326 . S
O457 C445 1.242 . S
O458 Tb436 2.324 . S
O458 C445 1.258 . S
O459 Eu437 2.500 . S
O459 C442 1.273 . S
O460 Eu437 2.473 . S
O460 C442 1.257 . S
H461 C447 0.929 . S
H462 C449 0.931 . S
H463 C451 0.929 . S
H464 C476 0.930 . S
H465 C478 0.930 . S
H466 C479 0.930 . S
H467 C483 0.959 . S
H468 C483 0.959 . S
H469 C483 0.961 . S
H470 C484 0.960 . S
H471 C484 0.961 . S
H472 C484 0.959 . S
H473 C487 0.907 1_655 S
H474 C488 0.931 . S
H475 C490 0.930 . S
C476 H464 0.930 . S
C476 C477 1.399 . S
C476 C481 1.399 . S
C477 C476 1.399 . S
C477 C478 1.376 . S
C478 H465 0.930 . S
C478 C477 1.376 . S
C478 C479 1.388 . S
C479 H466 0.930 . S
C479 C478 1.388 . S
C479 C480 1.390 . S
C480 C479 1.390 . S
C480 C481 1.394 . S
C480 C486 1.465 . S
C481 C476 1.399 . S
C481 C480 1.394 . S
C481 C482 1.516 1_655 S
C482 C481 1.516 1_455 S
C482 C483 1.502 . S
C482 C484 1.561 . S
C482 C485 1.526 . S
C483 H467 0.959 . S
C483 H468 0.959 . S
C483 H469 0.961 . S
C483 C482 1.502 . S
C484 H470 0.960 . S
C484 H471 0.961 . S
C484 H472 0.959 . S
C484 C482 1.561 . S
C485 C482 1.526 . S
C485 C486 1.396 1_455 S
C485 C490 1.390 . S
C486 C480 1.465 . S
C486 C485 1.396 1_655 S
C486 C487 1.396 1_655 S
C487 H473 0.907 1_455 S
C487 C486 1.396 1_455 S
C487 C488 1.412 . S
C488 H474 0.931 . S
C488 C487 1.412 . S
C488 C489 1.389 . S
C489 C488 1.389 . S
C489 C490 1.387 . S
C490 H475 0.930 . S
C490 C485 1.390 . S
C490 C489 1.387 . S
H491 C503 0.930 . S
H492 C505 0.930 . S
H493 C506 0.930 1_655 S
H494 C510 0.959 . S
H495 C510 0.959 . S
H496 C510 0.961 1_455 S
H497 C511 0.960 . S
H498 C511 0.961 . S
H499 C511 0.959 . S
H500 C514 0.929 . S
H501 C515 0.931 . S
H502 C517 0.930 . S
C503 H491 0.930 . S
C503 C504 1.399 . S
C503 C508 1.399 . S
C504 C503 1.399 . S
C504 C505 1.376 . S
C505 H492 0.930 . S
C505 C504 1.376 . S
C505 C506 1.388 . S
C506 H493 0.930 1_455 S
C506 C505 1.388 . S
C506 C507 1.390 1_455 S
C507 C506 1.390 1_655 S
C507 C508 1.394 1_655 S
C507 C513 1.465 . S
C508 C503 1.399 . S
C508 C507 1.394 1_455 S
C508 C509 1.505 1_455 S
C509 C508 1.505 1_655 S
C509 C510 1.514 . S
C509 C511 1.541 1_655 S
C509 C512 1.545 . S
C510 H494 0.959 . S
C510 H495 0.959 . S
C510 H496 0.961 1_655 S
C510 C509 1.514 . S
C511 H497 0.960 . S
C511 H498 0.961 . S
C511 H499 0.959 . S
C511 C509 1.541 1_455 S
C512 C509 1.545 . S
C512 C513 1.396 . S
C512 C517 1.390 . S
C513 C507 1.465 . S
C513 C512 1.396 . S
C513 C514 1.399 . S
C514 H500 0.929 . S
C514 C513 1.399 . S
C514 C515 1.385 . S
C515 H501 0.931 . S
C515 C514 1.385 . S
C515 C516 1.389 . S
C516 C515 1.389 . S
C516 C517 1.387 . S
C517 H502 0.930 . S
C517 C512 1.390 . S
C517 C516 1.387 . S
H518 C530 0.930 . S
H519 C532 0.930 . S
H520 C533 0.930 . S
H521 C537 0.959 . S
H522 C537 0.959 . S
H523 C537 0.961 . S
H524 C538 0.960 . S
H525 C538 0.961 . S
H526 C538 0.959 . S
H527 C541 0.929 . S
H528 C542 0.931 . S
H529 C544 0.930 . S
C530 H518 0.930 . S
C530 C531 1.399 . S
C530 C535 1.399 . S
C531 C530 1.399 . S
C531 C532 1.376 . S
C532 H519 0.930 . S
C532 C531 1.376 . S
C532 C533 1.388 . S
C533 H520 0.930 . S
C533 C532 1.388 . S
C533 C534 1.390 . S
C534 C533 1.390 . S
C534 C535 1.394 . S
C534 C540 1.465 . S
C535 C530 1.399 . S
C535 C534 1.394 . S
C535 C536 1.516 . S
C536 C535 1.516 . S
C536 C537 1.502 . S
C536 C538 1.561 . S
C536 C539 1.526 . S
C537 H521 0.959 . S
C537 H522 0.959 . S
C537 H523 0.961 . S
C537 C536 1.502 . S
C538 H524 0.960 . S
C538 H525 0.961 . S
C538 H526 0.959 . S
C538 C536 1.561 . S
C539 C536 1.526 . S
C539 C540 1.396 . S
C539 C544 1.390 . S
C540 C534 1.465 . S
C540 C539 1.396 . S
C540 C541 1.399 . S
C541 H527 0.929 . S
C541 C540 1.399 . S
C541 C542 1.385 . S
C542 H528 0.931 . S
C542 C541 1.385 . S
C542 C543 1.389 . S
C543 C542 1.389 . S
C543 C544 1.387 . S
C544 H529 0.930 . S
C544 C539 1.390 . S
C544 C543 1.387 . S
H545 C557 0.930 . S
H546 C559 0.930 . S
H547 C560 0.930 . S
H548 C564 0.959 . S
H549 C564 0.959 . S
H550 C564 0.961 1_554 S
H551 C565 0.960 1_554 S
H552 C565 0.961 1_554 S
H553 C565 0.959 . S
H554 C568 0.929 . S
H555 C569 0.931 . S
H556 C571 0.930 . S
C557 H545 0.930 . S
C557 C558 1.399 . S
C557 C562 1.399 . S
C558 C557 1.399 . S
C558 C559 1.376 . S
C559 H546 0.930 . S
C559 C558 1.376 . S
C559 C560 1.388 . S
C560 H547 0.930 . S
C560 C559 1.388 . S
C560 C561 1.390 . S
C561 C560 1.390 . S
C561 C562 1.394 . S
C561 C567 1.465 . S
C562 C557 1.399 . S
C562 C561 1.394 . S
C562 C563 1.516 . S
C563 C562 1.516 . S
C563 C564 1.502 . S
C563 C565 1.561 . S
C563 C566 1.526 . S
C564 H548 0.959 . S
C564 H549 0.959 . S
C564 H550 0.961 1_556 S
C564 C563 1.502 . S
C565 H551 0.960 1_556 S
C565 H552 0.961 1_556 S
C565 H553 0.959 . S
C565 C563 1.561 . S
C566 C563 1.526 . S
C566 C567 1.396 . S
C566 C571 1.390 . S
C567 C561 1.465 . S
C567 C566 1.396 . S
C567 C568 1.399 . S
C568 H554 0.929 . S
C568 C567 1.399 . S
C568 C569 1.385 . S
C569 H555 0.931 . S
C569 C568 1.385 . S
C569 C570 1.389 . S
C570 C569 1.389 . S
C570 C571 1.387 . S
C571 H556 0.930 . S
C571 C566 1.390 . S
C571 C570 1.387 . S
H572 C584 0.930 . S
H573 C586 0.930 . S
H574 C587 0.930 . S
H575 C591 0.959 . S
H576 C591 0.959 1_554 S
H577 C591 0.961 . S
H578 C592 0.960 1_554 S
H579 C592 0.961 1_554 S
H580 C592 0.959 . S
H581 C595 0.929 . S
H582 C596 0.931 . S
H583 C598 0.930 . S
C584 H572 0.930 . S
C584 C585 1.399 . S
C584 C589 1.399 . S
C585 C584 1.399 . S
C585 C586 1.376 . S
C586 H573 0.930 . S
C586 C585 1.376 . S
C586 C587 1.388 1_655 S
C587 H574 0.930 . S
C587 C586 1.388 1_455 S
C587 C588 1.390 . S
C588 C587 1.390 . S
C588 C589 1.394 1_455 S
C588 C594 1.465 . S
C589 C584 1.399 . S
C589 C588 1.394 1_655 S
C589 C590 1.516 1_655 S
C590 C589 1.516 1_455 S
C590 C591 1.502 1_455 S
C590 C592 1.561 . S
C590 C593 1.526 . S
C591 H575 0.959 . S
C591 H576 0.959 1_556 S
C591 H577 0.961 . S
C591 C590 1.502 1_655 S
C592 H578 0.960 1_556 S
C592 H579 0.961 1_556 S
C592 H580 0.959 . S
C592 C590 1.561 . S
C593 C590 1.526 . S
C593 C594 1.396 . S
C593 C598 1.390 . S
C594 C588 1.465 . S
C594 C593 1.396 . S
C594 C595 1.399 . S
C595 H581 0.929 . S
C595 C594 1.399 . S
C595 C596 1.385 . S
C596 H582 0.931 . S
C596 C595 1.385 . S
C596 C597 1.389 . S
C597 C596 1.389 . S
C597 C598 1.387 . S
C598 H583 0.930 . S
C598 C593 1.390 . S
C598 C597 1.387 . S
H599 C611 0.930 . S
H600 C613 0.930 . S
H601 C614 0.930 . S
H602 C618 0.959 . S
H603 C618 0.959 . S
H604 C618 0.961 . S
H605 C619 0.960 . S
H606 C619 0.961 1_655 S
H607 C619 0.959 . S
H608 C622 0.929 . S
H609 C623 0.931 . S
H610 C625 0.930 . S
C611 H599 0.930 . S
C611 C612 1.399 . S
C611 C616 1.399 . S
C612 C611 1.399 . S
C612 C613 1.376 . S
C613 H600 0.930 . S
C613 C612 1.376 . S
C613 C614 1.388 . S
C614 H601 0.930 . S
C614 C613 1.388 . S
C614 C615 1.390 . S
C615 C614 1.390 . S
C615 C616 1.394 . S
C615 C621 1.465 1_455 S
C616 C611 1.399 . S
C616 C615 1.394 . S
C616 C617 1.477 1_455 S
C617 C616 1.477 1_655 S
C617 C618 1.532 . S
C617 C619 1.542 1_655 S
C617 C620 1.554 . S
C618 H602 0.959 . S
C618 H603 0.959 . S
C618 H604 0.961 . S
C618 C617 1.532 . S
C619 H605 0.960 . S
C619 H606 0.961 1_455 S
C619 H607 0.959 . S
C619 C617 1.542 1_455 S
C620 C617 1.554 . S
C620 C621 1.396 . S
C620 C625 1.390 . S
C621 C615 1.465 1_655 S
C621 C620 1.396 . S
C621 C622 1.399 . S
C622 H608 0.929 . S
C622 C621 1.399 . S
C622 C623 1.385 . S
C623 H609 0.931 . S
C623 C622 1.385 . S
C623 C624 1.389 . S
C624 C623 1.389 . S
C624 C625 1.387 . S
C625 H610 0.930 . S
C625 C620 1.390 . S
C625 C624 1.387 . S
H626 C638 0.930 . S
H627 C640 0.930 . S
H628 C641 0.930 . S
H629 C645 0.959 . S
H630 C645 0.959 . S
H631 C645 0.961 . S
H632 C646 0.960 . S
H633 C646 0.961 . S
H634 C646 0.959 . S
H635 C649 0.929 . S
H636 C650 0.931 . S
H637 C652 0.930 . S
C638 H626 0.930 . S
C638 C639 1.399 . S
C638 C643 1.399 . S
C639 C638 1.399 . S
C639 C640 1.376 . S
C640 H627 0.930 . S
C640 C639 1.376 . S
C640 C641 1.388 . S
C641 H628 0.930 . S
C641 C640 1.388 . S
C641 C642 1.390 . S
C642 C641 1.390 . S
C642 C643 1.394 . S
C642 C648 1.465 . S
C643 C638 1.399 . S
C643 C642 1.394 . S
C643 C644 1.516 . S
C644 C643 1.516 . S
C644 C645 1.502 . S
C644 C646 1.561 . S
C644 C647 1.526 . S
C645 H629 0.959 . S
C645 H630 0.959 . S
C645 H631 0.961 . S
C645 C644 1.502 . S
C646 H632 0.960 . S
C646 H633 0.961 . S
C646 H634 0.959 . S
C646 C644 1.561 . S
C647 C644 1.526 . S
C647 C648 1.396 . S
C647 C652 1.390 . S
C648 C642 1.465 . S
C648 C647 1.396 . S
C648 C649 1.399 . S
C649 H635 0.929 . S
C649 C648 1.399 . S
C649 C650 1.385 . S
C650 H636 0.931 . S
C650 C649 1.385 . S
C650 C651 1.389 . S
C651 C650 1.389 . S
C651 C652 1.387 . S
C652 H637 0.930 . S
C652 C647 1.390 . S
C652 C651 1.387 . S
H653 C665 0.930 . S
H654 C667 0.930 . S
H655 C668 0.930 . S
H656 C672 0.959 . S
H657 C672 0.959 . S
H658 C672 0.961 . S
H659 C673 0.960 . S
H660 C673 0.961 . S
H661 C673 0.959 . S
H662 C676 0.929 . S
H663 C677 0.931 . S
H664 C679 0.930 . S
C665 H653 0.930 . S
C665 C666 1.399 . S
C665 C670 1.399 . S
C666 C665 1.399 . S
C666 C667 1.376 . S
C667 H654 0.930 . S
C667 C666 1.376 . S
C667 C668 1.388 . S
C668 H655 0.930 . S
C668 C667 1.388 . S
C668 C669 1.390 . S
C669 C668 1.390 . S
C669 C670 1.394 . S
C669 C675 1.465 . S
C670 C665 1.399 . S
C670 C669 1.394 . S
C670 C671 1.516 . S
C671 C670 1.516 . S
C671 C672 1.502 . S
C671 C673 1.561 . S
C671 C674 1.526 . S
C672 H656 0.959 . S
C672 H657 0.959 . S
C672 H658 0.961 . S
C672 C671 1.502 . S
C673 H659 0.960 . S
C673 H660 0.961 . S
C673 H661 0.959 . S
C673 C671 1.561 . S
C674 C671 1.526 . S
C674 C675 1.396 . S
C674 C679 1.390 . S
C675 C669 1.465 . S
C675 C674 1.396 . S
C675 C676 1.399 . S
C676 H662 0.929 . S
C676 C675 1.399 . S
C676 C677 1.385 . S
C677 H663 0.931 . S
C677 C676 1.385 . S
C677 C678 1.389 . S
C678 C677 1.389 . S
C678 C679 1.387 . S
C679 H664 0.930 . S
C679 C674 1.390 . S
C679 C678 1.387 . S
H680 C692 0.930 1_554 S
H681 C694 0.930 . S
H682 C695 0.930 . S
H683 C699 0.959 . S
H684 C699 0.959 . S
H685 C699 0.961 . S
H686 C700 0.960 . S
H687 C700 0.961 . S
H688 C700 0.959 . S
H689 C703 0.929 . S
H690 C704 0.931 . S
H691 C706 0.930 . S
C692 H680 0.930 1_556 S
C692 C693 1.399 . S
C692 C697 1.399 . S
C693 C692 1.399 . S
C693 C694 1.376 . S
C694 H681 0.930 . S
C694 C693 1.376 . S
C694 C695 1.388 . S
C695 H682 0.930 . S
C695 C694 1.388 . S
C695 C696 1.390 . S
C696 C695 1.390 . S
C696 C697 1.394 . S
C696 C702 1.465 . S
C697 C692 1.399 . S
C697 C696 1.394 . S
C697 C698 1.516 1_556 S
C698 C697 1.516 1_554 S
C698 C699 1.502 . S
C698 C700 1.561 . S
C698 C701 1.526 . S
C699 H683 0.959 . S
C699 H684 0.959 . S
C699 H685 0.961 . S
C699 C698 1.502 . S
C700 H686 0.960 . S
C700 H687 0.961 . S
C700 H688 0.959 . S
C700 C698 1.561 . S
C701 C698 1.526 . S
C701 C702 1.396 1_554 S
C701 C706 1.390 . S
C702 C696 1.465 . S
C702 C701 1.396 1_556 S
C702 C703 1.399 . S
C703 H689 0.929 . S
C703 C702 1.399 . S
C703 C704 1.385 . S
C704 H690 0.931 . S
C704 C703 1.385 . S
C704 C705 1.389 1_556 S
C705 C704 1.389 1_554 S
C705 C706 1.387 . S
C706 H691 0.930 . S
C706 C701 1.390 . S
C706 C705 1.387 . S
H707 C719 0.930 . S
H708 C721 0.930 . S
H709 C722 0.930 1_545 S
H710 C726 0.959 . S
H711 C726 0.959 . S
H712 C726 0.961 . S
H713 C727 0.960 . S
H714 C727 0.961 . S
H715 C727 0.959 . S
H716 C730 0.929 . S
H717 C731 0.931 . S
H718 C733 0.930 . S
C719 H707 0.930 . S
C719 C720 1.399 . S
C719 C724 1.399 . S
C720 C719 1.399 . S
C720 C721 1.376 . S
C721 H708 0.930 . S
C721 C720 1.376 . S
C721 C722 1.388 . S
C722 H709 0.930 1_565 S
C722 C721 1.388 . S
C722 C723 1.390 . S
C723 C722 1.390 . S
C723 C724 1.394 . S
C723 C729 1.465 1_565 S
C724 C719 1.399 . S
C724 C723 1.394 . S
C724 C725 1.516 . S
C725 C724 1.516 . S
C725 C726 1.502 . S
C725 C727 1.561 . S
C725 C728 1.526 1_565 S
C726 H710 0.959 . S
C726 H711 0.959 . S
C726 H712 0.961 . S
C726 C725 1.502 . S
C727 H713 0.960 . S
C727 H714 0.961 . S
C727 H715 0.959 . S
C727 C725 1.561 . S
C728 C725 1.526 1_545 S
C728 C729 1.396 . S
C728 C733 1.390 . S
C729 C723 1.465 1_545 S
C729 C728 1.396 . S
C729 C730 1.399 . S
C730 H716 0.929 . S
C730 C729 1.399 . S
C730 C731 1.385 . S
C731 H717 0.931 . S
C731 C730 1.385 . S
C731 C732 1.389 . S
C732 C731 1.389 . S
C732 C733 1.387 . S
C733 H718 0.930 . S
C733 C728 1.390 . S
C733 C732 1.387 . S
H734 C746 0.930 . S
H735 C748 0.930 . S
H736 C749 0.930 . S
H737 C753 0.959 . S
H738 C753 0.959 . S
H739 C753 0.961 . S
H740 C754 0.960 . S
H741 C754 0.961 . S
H742 C754 0.959 . S
H743 C757 0.929 . S
H744 C758 0.931 . S
H745 C760 0.930 . S
C746 H734 0.930 . S
C746 C747 1.399 . S
C746 C751 1.399 . S
C747 C746 1.399 . S
C747 C748 1.376 . S
C748 H735 0.930 . S
C748 C747 1.376 . S
C748 C749 1.388 . S
C749 H736 0.930 . S
C749 C748 1.388 . S
C749 C750 1.390 . S
C750 C749 1.390 . S
C750 C751 1.394 . S
C750 C756 1.465 . S
C751 C746 1.399 . S
C751 C750 1.394 . S
C751 C752 1.516 . S
C752 C751 1.516 . S
C752 C753 1.502 . S
C752 C754 1.561 . S
C752 C755 1.526 . S
C753 H737 0.959 . S
C753 H738 0.959 . S
C753 H739 0.961 . S
C753 C752 1.502 . S
C754 H740 0.960 . S
C754 H741 0.961 . S
C754 H742 0.959 . S
C754 C752 1.561 . S
C755 C752 1.526 . S
C755 C756 1.396 . S
C755 C760 1.390 . S
C756 C750 1.465 . S
C756 C755 1.396 . S
C756 C757 1.399 . S
C757 H743 0.929 . S
C757 C756 1.399 . S
C757 C758 1.385 . S
C758 H744 0.931 . S
C758 C757 1.385 . S
C758 C759 1.389 . S
C759 C758 1.389 . S
C759 C760 1.387 . S
C760 H745 0.930 . S
C760 C755 1.390 . S
C760 C759 1.387 . S
H761 C773 0.930 . S
H762 C775 0.930 . S
H763 C776 0.930 . S
H764 C780 0.959 . S
H765 C780 0.959 . S
H766 C780 0.961 . S
H767 C781 0.960 . S
H768 C781 0.961 . S
H769 C781 0.959 . S
H770 C784 0.929 . S
H771 C785 0.931 . S
H772 C787 0.930 . S
C773 H761 0.930 . S
C773 C774 1.399 . S
C773 C778 1.399 . S
C774 C773 1.399 . S
C774 C775 1.376 . S
C775 H762 0.930 . S
C775 C774 1.376 . S
C775 C776 1.388 . S
C776 H763 0.930 . S
C776 C775 1.388 . S
C776 C777 1.390 . S
C777 C776 1.390 . S
C777 C778 1.394 . S
C777 C783 1.465 1_565 S
C778 C773 1.399 . S
C778 C777 1.394 . S
C778 C779 1.516 1_565 S
C779 C778 1.516 1_545 S
C779 C780 1.502 . S
C779 C781 1.561 . S
C779 C782 1.526 . S
C780 H764 0.959 . S
C780 H765 0.959 . S
C780 H766 0.961 . S
C780 C779 1.502 . S
C781 H767 0.960 . S
C781 H768 0.961 . S
C781 H769 0.959 . S
C781 C779 1.561 . S
C782 C779 1.526 . S
C782 C783 1.396 . S
C782 C787 1.390 . S
C783 C777 1.465 1_545 S
C783 C782 1.396 . S
C783 C784 1.399 . S
C784 H770 0.929 . S
C784 C783 1.399 . S
C784 C785 1.385 . S
C785 H771 0.931 . S
C785 C784 1.385 . S
C785 C786 1.389 . S
C786 C785 1.389 . S
C786 C787 1.387 . S
C787 H772 0.930 . S
C787 C782 1.390 . S
C787 C786 1.387 . S
H788 C800 0.930 . S
H789 C802 0.930 . S
H790 C803 0.930 . S
H791 C807 0.959 . S
H792 C807 0.959 . S
H793 C807 0.961 . S
H794 C808 0.960 . S
H795 C808 0.961 . S
H796 C808 0.959 . S
H797 C811 0.929 . S
H798 C812 0.931 . S
H799 C814 0.930 . S
C800 H788 0.930 . S
C800 C801 1.399 . S
C800 C805 1.399 . S
C801 C800 1.399 . S
C801 C802 1.376 . S
C802 H789 0.930 . S
C802 C801 1.376 . S
C802 C803 1.388 . S
C803 H790 0.930 . S
C803 C802 1.388 . S
C803 C804 1.390 . S
C804 C803 1.390 . S
C804 C805 1.394 . S
C804 C810 1.465 . S
C805 C800 1.399 . S
C805 C804 1.394 . S
C805 C806 1.515 1_556 S
C806 C805 1.515 1_554 S
C806 C807 1.500 1_554 S
C806 C808 1.564 . S
C806 C809 1.525 1_554 S
C807 H791 0.959 . S
C807 H792 0.959 . S
C807 H793 0.961 . S
C807 C806 1.500 1_556 S
C808 H794 0.960 . S
C808 H795 0.961 . S
C808 H796 0.959 . S
C808 C806 1.564 . S
C809 C806 1.525 1_556 S
C809 C810 1.404 . S
C809 C814 1.383 1_556 S
C810 C804 1.465 . S
C810 C809 1.404 . S
C810 C811 1.399 . S
C811 H797 0.929 . S
C811 C810 1.399 . S
C811 C812 1.385 . S
C812 H798 0.931 . S
C812 C811 1.385 . S
C812 C813 1.389 1_556 S
C813 C812 1.389 1_554 S
C813 C814 1.387 . S
C814 H799 0.930 . S
C814 C809 1.383 1_554 S
C814 C813 1.387 . S
H815 C827 0.930 . S
H816 C829 0.930 . S
H817 C830 0.930 . S
H818 C834 0.959 . S
H819 C834 0.959 1_545 S
H820 C834 0.961 . S
H821 C835 0.960 . S
H822 C835 0.961 . S
H823 C835 0.959 . S
H824 C838 0.929 . S
H825 C839 0.931 . S
H826 C841 0.930 . S
C827 H815 0.930 . S
C827 C828 1.399 . S
C827 C832 1.399 . S
C828 C827 1.399 . S
C828 C829 1.376 . S
C829 H816 0.930 . S
C829 C828 1.376 . S
C829 C830 1.388 . S
C830 H817 0.930 . S
C830 C829 1.388 . S
C830 C831 1.390 . S
C831 C830 1.390 . S
C831 C832 1.394 . S
C831 C837 1.465 1_565 S
C832 C827 1.399 . S
C832 C831 1.394 . S
C832 C833 1.516 1_565 S
C833 C832 1.516 1_545 S
C833 C834 1.502 1_545 S
C833 C835 1.561 . S
C833 C836 1.526 . S
C834 H818 0.959 . S
C834 H819 0.959 1_565 S
C834 H820 0.961 . S
C834 C833 1.502 1_565 S
C835 H821 0.960 . S
C835 H822 0.961 . S
C835 H823 0.959 . S
C835 C833 1.561 . S
C836 C833 1.526 . S
C836 C837 1.396 . S
C836 C841 1.390 . S
C837 C831 1.465 1_545 S
C837 C836 1.396 . S
C837 C838 1.399 . S
C838 H824 0.929 . S
C838 C837 1.399 . S
C838 C839 1.385 . S
C839 H825 0.931 . S
C839 C838 1.385 . S
C839 C840 1.389 . S
C840 C839 1.389 . S
C840 C841 1.387 . S
C841 H826 0.930 . S
C841 C836 1.390 . S
C841 C840 1.387 . S
H842 C854 0.930 . S
H843 C856 0.930 . S
H844 C857 0.930 . S
H845 C861 0.959 . S
H846 C861 0.959 . S
H847 C861 0.961 . S
H848 C862 0.960 . S
H849 C862 0.961 . S
H850 C862 0.959 . S
H851 C865 0.929 . S
H852 C866 0.931 . S
H853 C868 0.930 . S
C854 H842 0.930 . S
C854 C855 1.399 . S
C854 C859 1.399 . S
C855 C854 1.399 . S
C855 C856 1.376 . S
C856 H843 0.930 . S
C856 C855 1.376 . S
C856 C857 1.388 . S
C857 H844 0.930 . S
C857 C856 1.388 . S
C857 C858 1.390 . S
C858 C857 1.390 . S
C858 C859 1.394 . S
C858 C864 1.465 . S
C859 C854 1.399 . S
C859 C858 1.394 . S
C859 C860 1.516 . S
C860 C859 1.516 . S
C860 C861 1.502 . S
C860 C862 1.561 . S
C860 C863 1.526 . S
C861 H845 0.959 . S
C861 H846 0.959 . S
C861 H847 0.961 . S
C861 C860 1.502 . S
C862 H848 0.960 . S
C862 H849 0.961 . S
C862 H850 0.959 . S
C862 C860 1.561 . S
C863 C860 1.526 . S
C863 C864 1.396 . S
C863 C868 1.390 . S
C864 C858 1.465 . S
C864 C863 1.396 . S
C864 C865 1.399 . S
C865 H851 0.929 . S
C865 C864 1.399 . S
C865 C866 1.385 . S
C866 H852 0.931 . S
C866 C865 1.385 . S
C866 C867 1.389 . S
C867 C866 1.389 . S
C867 C868 1.387 . S
C868 H853 0.930 . S
C868 C863 1.390 . S
C868 C867 1.387 . S
H869 C881 0.930 . S
H870 C883 0.930 . S
H871 C884 0.930 . S
H872 C888 0.959 . S
H873 C888 0.957 . S
H874 C888 0.961 . S
H875 C889 0.960 . S
H876 C889 0.961 1_545 S
H877 C889 0.968 . S
H878 C892 0.929 . S
H879 C893 0.931 . S
H880 C895 0.930 . S
C881 H869 0.930 . S
C881 C882 1.399 . S
C881 C886 1.399 . S
C882 C881 1.399 . S
C882 C883 1.376 . S
C883 H870 0.930 . S
C883 C882 1.376 . S
C883 C884 1.388 . S
C884 H871 0.930 . S
C884 C883 1.388 . S
C884 C885 1.390 . S
C885 C884 1.390 . S
C885 C886 1.394 . S
C885 C891 1.465 1_565 S
C886 C881 1.399 . S
C886 C885 1.394 . S
C886 C887 1.516 . S
C887 C886 1.516 . S
C887 C888 1.502 . S
C887 C889 1.561 . S
C887 C890 1.526 1_565 S
C888 H872 0.959 . S
C888 H873 0.957 . S
C888 H874 0.961 . S
C888 C887 1.502 . S
C889 H875 0.960 . S
C889 H876 0.961 1_565 S
C889 H877 0.968 . S
C889 C887 1.561 . S
C890 C887 1.526 1_545 S
C890 C891 1.396 . S
C890 C895 1.390 . S
C891 C885 1.465 1_545 S
C891 C890 1.396 . S
C891 C892 1.399 . S
C892 H878 0.929 . S
C892 C891 1.399 . S
C892 C893 1.385 . S
C893 H879 0.931 . S
C893 C892 1.385 . S
C893 C894 1.389 . S
C894 C893 1.389 . S
C894 C895 1.387 . S
C895 H880 0.930 . S
C895 C890 1.390 . S
C895 C894 1.387 . S
H896 C908 0.930 . S
H897 C910 0.930 . S
H898 C911 0.930 . S
H899 C915 0.959 . S
H900 C915 0.959 . S
H901 C915 0.961 . S
H902 C916 0.960 . S
H903 C916 0.961 . S
H904 C916 0.959 . S
H905 C919 0.929 . S
H906 C920 0.931 . S
H907 C922 0.930 . S
C908 H896 0.930 . S
C908 C909 1.399 . S
C908 C913 1.399 . S
C909 C908 1.399 . S
C909 C910 1.376 . S
C910 H897 0.930 . S
C910 C909 1.376 . S
C910 C911 1.388 . S
C911 H898 0.930 . S
C911 C910 1.388 . S
C911 C912 1.390 . S
C912 C911 1.390 . S
C912 C913 1.394 . S
C912 C918 1.465 . S
C913 C908 1.399 . S
C913 C912 1.394 . S
C913 C914 1.516 . S
C914 C913 1.516 . S
C914 C915 1.502 . S
C914 C916 1.561 . S
C914 C917 1.526 . S
C915 H899 0.959 . S
C915 H900 0.959 . S
C915 H901 0.961 . S
C915 C914 1.502 . S
C916 H902 0.960 . S
C916 H903 0.961 . S
C916 H904 0.959 . S
C916 C914 1.561 . S
C917 C914 1.526 . S
C917 C918 1.396 . S
C917 C922 1.390 . S
C918 C912 1.465 . S
C918 C917 1.396 . S
C918 C919 1.399 . S
C919 H905 0.929 . S
C919 C918 1.399 . S
C919 C920 1.385 . S
C920 H906 0.931 . S
C920 C919 1.385 . S
C920 C921 1.389 . S
C921 C920 1.389 . S
C921 C922 1.387 . S
C922 H907 0.930 . S
C922 C917 1.390 . S
C922 C921 1.387 . S
H923 C935 0.930 . S
H924 C937 0.930 . S
H925 C938 0.930 . S
H926 C942 0.959 . S
H927 C942 0.959 . S
H928 C942 0.961 . S
H929 C943 0.960 . S
H930 C943 0.961 . S
H931 C943 0.959 . S
H932 C946 0.929 . S
H933 C947 0.931 . S
H934 C949 0.930 . S
C935 H923 0.930 . S
C935 C936 1.399 . S
C935 C940 1.399 . S
C936 C935 1.399 . S
C936 C937 1.376 . S
C937 H924 0.930 . S
C937 C936 1.376 . S
C937 C938 1.388 . S
C938 H925 0.930 . S
C938 C937 1.388 . S
C938 C939 1.390 . S
C939 C938 1.390 . S
C939 C940 1.394 . S
C939 C945 1.465 . S
C940 C935 1.399 . S
C940 C939 1.394 . S
C940 C941 1.516 . S
C941 C940 1.516 . S
C941 C942 1.502 . S
C941 C943 1.561 . S
C941 C944 1.526 . S
C942 H926 0.959 . S
C942 H927 0.959 . S
C942 H928 0.961 . S
C942 C941 1.502 . S
C943 H929 0.960 . S
C943 H930 0.961 . S
C943 H931 0.959 . S
C943 C941 1.561 . S
C944 C941 1.526 . S
C944 C945 1.396 . S
C944 C949 1.390 . S
C945 C939 1.465 . S
C945 C944 1.396 . S
C945 C946 1.399 . S
C946 H932 0.929 . S
C946 C945 1.399 . S
C946 C947 1.385 . S
C947 H933 0.931 . S
C947 C946 1.385 . S
C947 C948 1.389 . S
C948 C947 1.389 . S
C948 C949 1.387 . S
C949 H934 0.930 . S
C949 C944 1.390 . S
C949 C948 1.387 . S
H950 C962 0.930 . S
H951 C964 0.930 . S
H952 C965 0.930 . S
H953 C969 0.959 . S
H954 C969 0.959 . S
H955 C969 0.961 . S
H956 C970 0.960 . S
H957 C970 0.961 . S
H958 C970 0.959 1_554 S
H959 C973 0.929 . S
H960 C974 0.931 . S
H961 C976 0.930 1_556 S
C962 H950 0.930 . S
C962 C963 1.399 . S
C962 C967 1.399 . S
C963 C962 1.399 . S
C963 C964 1.376 1_556 S
C964 H951 0.930 . S
C964 C963 1.376 1_554 S
C964 C965 1.388 . S
C965 H952 0.930 . S
C965 C964 1.388 . S
C965 C966 1.390 . S
C966 C965 1.390 . S
C966 C967 1.394 1_554 S
C966 C972 1.465 . S
C967 C962 1.399 . S
C967 C966 1.394 1_556 S
C967 C968 1.516 . S
C968 C967 1.516 . S
C968 C969 1.502 . S
C968 C970 1.561 . S
C968 C971 1.526 1_556 S
C969 H953 0.959 . S
C969 H954 0.959 . S
C969 H955 0.961 . S
C969 C968 1.502 . S
C970 H956 0.960 . S
C970 H957 0.961 . S
C970 H958 0.959 1_556 S
C970 C968 1.561 . S
C971 C968 1.526 1_554 S
C971 C972 1.396 . S
C971 C976 1.390 . S
C972 C966 1.465 . S
C972 C971 1.396 . S
C972 C973 1.399 . S
C973 H959 0.929 . S
C973 C972 1.399 . S
C973 C974 1.385 . S
C974 H960 0.931 . S
C974 C973 1.385 . S
C974 C975 1.389 . S
C975 C974 1.389 . S
C975 C976 1.387 . S
C976 H961 0.930 1_554 S
C976 C971 1.390 . S
C976 C975 1.387 . S
H977 C989 0.930 . S
H978 C991 0.930 . S
H979 C992 0.930 . S
H980 C996 0.959 . S
H981 C996 0.959 . S
H982 C996 0.961 . S
H983 C997 0.960 . S
H984 C997 0.961 . S
H985 C997 0.959 . S
H986 C1000 0.929 . S
H987 C1001 0.931 . S
H988 C1003 0.930 . S
C989 H977 0.930 . S
C989 C990 1.399 . S
C989 C994 1.399 . S
C990 C989 1.399 . S
C990 C991 1.376 . S
C991 H978 0.930 . S
C991 C990 1.376 . S
C991 C992 1.388 . S
C992 H979 0.930 . S
C992 C991 1.388 . S
C992 C993 1.390 . S
C993 C992 1.390 . S
C993 C994 1.394 . S
C993 C999 1.465 . S
C994 C989 1.399 . S
C994 C993 1.394 . S
C994 C995 1.516 . S
C995 C994 1.516 . S
C995 C996 1.502 . S
C995 C997 1.561 . S
C995 C998 1.526 . S
C996 H980 0.959 . S
C996 H981 0.959 . S
C996 H982 0.961 . S
C996 C995 1.502 . S
C997 H983 0.960 . S
C997 H984 0.961 . S
C997 H985 0.959 . S
C997 C995 1.561 . S
C998 C995 1.526 . S
C998 C999 1.396 . S
C998 C1003 1.390 . S
C999 C993 1.465 . S
C999 C998 1.396 . S
C999 C1000 1.399 . S
C1000 H986 0.929 . S
C1000 C999 1.399 . S
C1000 C1001 1.385 . S
C1001 H987 0.931 . S
C1001 C1000 1.385 . S
C1001 C1002 1.389 . S
C1002 C1001 1.389 . S
C1002 C1003 1.387 . S
C1003 H988 0.930 . S
C1003 C998 1.390 . S
C1003 C1002 1.387 . S
H1004 C1016 0.930 . S
H1005 C1018 0.930 . S
H1006 C1019 0.930 . S
H1007 C1023 0.959 . S
H1008 C1023 0.959 . S
H1009 C1023 0.961 . S
H1010 C1024 0.960 . S
H1011 C1024 0.961 . S
H1012 C1024 0.959 . S
H1013 C1027 0.929 . S
H1014 C1028 0.931 . S
H1015 C1030 0.930 . S
C1016 H1004 0.930 . S
C1016 C1017 1.399 . S
C1016 C1021 1.399 . S
C1017 C1016 1.399 . S
C1017 C1018 1.376 . S
C1018 H1005 0.930 . S
C1018 C1017 1.376 . S
C1018 C1019 1.388 . S
C1019 H1006 0.930 . S
C1019 C1018 1.388 . S
C1019 C1020 1.390 . S
C1020 C1019 1.390 . S
C1020 C1021 1.394 . S
C1020 C1026 1.465 . S
C1021 C1016 1.399 . S
C1021 C1020 1.394 . S
C1021 C1022 1.516 . S
C1022 C1021 1.516 . S
C1022 C1023 1.502 . S
C1022 C1024 1.561 . S
C1022 C1025 1.526 . S
C1023 H1007 0.959 . S
C1023 H1008 0.959 . S
C1023 H1009 0.961 . S
C1023 C1022 1.502 . S
C1024 H1010 0.960 . S
C1024 H1011 0.961 . S
C1024 H1012 0.959 . S
C1024 C1022 1.561 . S
C1025 C1022 1.526 . S
C1025 C1026 1.396 . S
C1025 C1030 1.390 . S
C1026 C1020 1.465 . S
C1026 C1025 1.396 . S
C1026 C1027 1.399 . S
C1027 H1013 0.929 . S
C1027 C1026 1.399 . S
C1027 C1028 1.385 . S
C1028 H1014 0.931 . S
C1028 C1027 1.385 . S
C1028 C1029 1.389 . S
C1029 C1028 1.389 . S
C1029 C1030 1.387 . S
C1030 H1015 0.930 . S
C1030 C1025 1.390 . S
C1030 C1029 1.387 . S
H1031 C1043 0.930 . S
H1032 C1045 0.930 . S
H1033 C1046 0.930 . S
H1034 C1050 0.959 . S
H1035 C1050 0.959 . S
H1036 C1050 0.961 . S
H1037 C1051 0.960 . S
H1038 C1051 0.961 . S
H1039 C1051 0.959 . S
H1040 C1054 0.929 . S
H1041 C1055 0.931 . S
H1042 C1057 0.930 . S
C1043 H1031 0.930 . S
C1043 C1044 1.399 . S
C1043 C1048 1.399 . S
C1044 C1043 1.399 . S
C1044 C1045 1.376 . S
C1045 H1032 0.930 . S
C1045 C1044 1.376 . S
C1045 C1046 1.388 . S
C1046 H1033 0.930 . S
C1046 C1045 1.388 . S
C1046 C1047 1.390 . S
C1047 C1046 1.390 . S
C1047 C1048 1.394 . S
C1047 C1053 1.465 . S
C1048 C1043 1.399 . S
C1048 C1047 1.394 . S
C1048 C1049 1.516 . S
C1049 C1048 1.516 . S
C1049 C1050 1.502 . S
C1049 C1051 1.561 . S
C1049 C1052 1.526 . S
C1050 H1034 0.959 . S
C1050 H1035 0.959 . S
C1050 H1036 0.961 . S
C1050 C1049 1.502 . S
C1051 H1037 0.960 . S
C1051 H1038 0.961 . S
C1051 H1039 0.959 . S
C1051 C1049 1.561 . S
C1052 C1049 1.526 . S
C1052 C1053 1.396 . S
C1052 C1057 1.390 . S
C1053 C1047 1.465 . S
C1053 C1052 1.396 . S
C1053 C1054 1.399 . S
C1054 H1040 0.929 . S
C1054 C1053 1.399 . S
C1054 C1055 1.385 . S
C1055 H1041 0.931 . S
C1055 C1054 1.385 . S
C1055 C1056 1.389 . S
C1056 C1055 1.389 . S
C1056 C1057 1.387 . S
C1057 H1042 0.930 . S
C1057 C1052 1.390 . S
C1057 C1056 1.387 . S
H1058 C1070 0.930 . S
H1059 C1072 0.930 . S
H1060 C1073 0.930 . S
H1061 C1077 0.959 . S
H1062 C1077 0.959 . S
H1063 C1077 0.961 . S
H1064 C1078 0.960 . S
H1065 C1078 0.961 . S
H1066 C1078 0.959 . S
H1067 C1081 0.929 . S
H1068 C1082 0.931 . S
H1069 C1084 0.930 . S
C1070 H1058 0.930 . S
C1070 C1071 1.399 . S
C1070 C1075 1.399 1_556 S
C1071 C1070 1.399 . S
C1071 C1072 1.376 . S
C1072 H1059 0.930 . S
C1072 C1071 1.376 . S
C1072 C1073 1.389 1_556 S
C1073 H1060 0.930 . S
C1073 C1072 1.389 1_554 S
C1073 C1074 1.390 . S
C1074 C1073 1.390 . S
C1074 C1075 1.394 . S
C1074 C1080 1.465 . S
C1075 C1070 1.399 1_554 S
C1075 C1074 1.394 . S
C1075 C1076 1.516 . S
C1076 C1075 1.516 . S
C1076 C1077 1.502 . S
C1076 C1078 1.561 1_554 S
C1076 C1079 1.526 . S
C1077 H1061 0.959 . S
C1077 H1062 0.959 . S
C1077 H1063 0.961 . S
C1077 C1076 1.502 . S
C1078 H1064 0.960 . S
C1078 H1065 0.961 . S
C1078 H1066 0.959 . S
C1078 C1076 1.561 1_556 S
C1079 C1076 1.526 . S
C1079 C1080 1.396 . S
C1079 C1084 1.390 . S
C1080 C1074 1.465 . S
C1080 C1079 1.396 . S
C1080 C1081 1.399 . S
C1081 H1067 0.929 . S
C1081 C1080 1.399 . S
C1081 C1082 1.385 . S
C1082 H1068 0.931 . S
C1082 C1081 1.385 . S
C1082 C1083 1.389 . S
C1083 C1082 1.389 . S
C1083 C1084 1.387 . S
C1084 H1069 0.930 . S
C1084 C1079 1.390 . S
C1084 C1083 1.387 . S
H1085 C1097 0.930 . S
H1086 C1099 0.930 . S
H1087 C1100 0.930 . S
H1088 C1104 0.959 . S
H1089 C1104 0.959 . S
H1090 C1104 0.961 . S
H1091 C1105 0.960 . S
H1092 C1105 0.961 . S
H1093 C1105 0.959 . S
H1094 C1108 0.929 . S
H1095 C1109 0.931 . S
H1096 C1111 0.930 . S
C1097 H1085 0.930 . S
C1097 C1098 1.399 . S
C1097 C1102 1.399 . S
C1098 C1097 1.399 . S
C1098 C1099 1.376 . S
C1099 H1086 0.930 . S
C1099 C1098 1.376 . S
C1099 C1100 1.388 . S
C1100 H1087 0.930 . S
C1100 C1099 1.388 . S
C1100 C1101 1.390 . S
C1101 C1100 1.390 . S
C1101 C1102 1.394 . S
C1101 C1107 1.465 . S
C1102 C1097 1.399 . S
C1102 C1101 1.394 . S
C1102 C1103 1.516 . S
C1103 C1102 1.516 . S
C1103 C1104 1.502 . S
C1103 C1105 1.561 . S
C1103 C1106 1.526 . S
C1104 H1088 0.959 . S
C1104 H1089 0.959 . S
C1104 H1090 0.961 . S
C1104 C1103 1.502 . S
C1105 H1091 0.960 . S
C1105 H1092 0.961 . S
C1105 H1093 0.959 . S
C1105 C1103 1.561 . S
C1106 C1103 1.526 . S
C1106 C1107 1.396 . S
C1106 C1111 1.390 . S
C1107 C1101 1.465 . S
C1107 C1106 1.396 . S
C1107 C1108 1.399 . S
C1108 H1094 0.929 . S
C1108 C1107 1.399 . S
C1108 C1109 1.385 . S
C1109 H1095 0.931 . S
C1109 C1108 1.385 . S
C1109 C1110 1.389 . S
C1110 C1109 1.389 . S
C1110 C1111 1.387 . S
C1111 H1096 0.930 . S
C1111 C1106 1.390 . S
C1111 C1110 1.387 . S
H1112 C1124 0.930 . S
H1113 C1126 0.930 . S
H1114 C1127 0.930 . S
H1115 C1131 0.959 . S
H1116 C1131 0.959 . S
H1117 C1131 0.961 . S
H1118 C1132 0.960 . S
H1119 C1132 0.961 . S
H1120 C1132 0.959 . S
H1121 C1135 0.929 . S
H1122 C1136 0.931 . S
H1123 C1138 0.930 . S
C1124 H1112 0.930 . S
C1124 C1125 1.399 . S
C1124 C1129 1.399 . S
C1125 C1124 1.399 . S
C1125 C1126 1.376 . S
C1126 H1113 0.930 . S
C1126 C1125 1.376 . S
C1126 C1127 1.388 . S
C1127 H1114 0.930 . S
C1127 C1126 1.388 . S
C1127 C1128 1.390 . S
C1128 C1127 1.390 . S
C1128 C1129 1.394 . S
C1128 C1134 1.465 . S
C1129 C1124 1.399 . S
C1129 C1128 1.394 . S
C1129 C1130 1.516 . S
C1130 C1129 1.516 . S
C1130 C1131 1.502 . S
C1130 C1132 1.561 . S
C1130 C1133 1.526 . S
C1131 H1115 0.959 . S
C1131 H1116 0.959 . S
C1131 H1117 0.961 . S
C1131 C1130 1.502 . S
C1132 H1118 0.960 . S
C1132 H1119 0.961 . S
C1132 H1120 0.959 . S
C1132 C1130 1.561 . S
C1133 C1130 1.526 . S
C1133 C1134 1.396 . S
C1133 C1138 1.390 . S
C1134 C1128 1.465 . S
C1134 C1133 1.396 . S
C1134 C1135 1.399 . S
C1135 H1121 0.929 . S
C1135 C1134 1.399 . S
C1135 C1136 1.385 . S
C1136 H1122 0.931 . S
C1136 C1135 1.385 . S
C1136 C1137 1.389 . S
C1137 C1136 1.389 . S
C1137 C1138 1.387 . S
C1138 H1123 0.930 . S
C1138 C1133 1.390 . S
C1138 C1137 1.387 . S
H1139 C1151 0.930 . S
H1140 C1153 0.930 . S
H1141 C1154 0.930 . S
H1142 C1158 0.959 . S
H1143 C1158 0.959 . S
H1144 C1158 0.961 . S
H1145 C1159 0.960 1_455 S
H1146 C1159 0.961 . S
H1147 C1159 0.959 . S
H1148 C1162 0.929 . S
H1149 C1163 0.931 . S
H1150 C1165 0.930 . S
C1151 H1139 0.930 . S
C1151 C1152 1.399 . S
C1151 C1156 1.399 . S
C1152 C1151 1.399 . S
C1152 C1153 1.376 . S
C1153 H1140 0.930 . S
C1153 C1152 1.376 . S
C1153 C1154 1.388 . S
C1154 H1141 0.930 . S
C1154 C1153 1.388 . S
C1154 C1155 1.390 . S
C1155 C1154 1.390 . S
C1155 C1156 1.394 . S
C1155 C1161 1.465 1_455 S
C1156 C1151 1.399 . S
C1156 C1155 1.394 . S
C1156 C1157 1.516 . S
C1157 C1156 1.516 . S
C1157 C1158 1.502 . S
C1157 C1159 1.561 1_455 S
C1157 C1160 1.526 1_455 S
C1158 H1142 0.959 . S
C1158 H1143 0.959 . S
C1158 H1144 0.961 . S
C1158 C1157 1.502 . S
C1159 H1145 0.960 1_655 S
C1159 H1146 0.961 . S
C1159 H1147 0.959 . S
C1159 C1157 1.561 1_655 S
C1160 C1157 1.526 1_655 S
C1160 C1161 1.396 . S
C1160 C1165 1.390 . S
C1161 C1155 1.465 1_655 S
C1161 C1160 1.396 . S
C1161 C1162 1.399 . S
C1162 H1148 0.929 . S
C1162 C1161 1.399 . S
C1162 C1163 1.385 . S
C1163 H1149 0.931 . S
C1163 C1162 1.385 . S
C1163 C1164 1.389 . S
C1164 C1163 1.389 . S
C1164 C1165 1.387 . S
C1165 H1150 0.930 . S
C1165 C1160 1.390 . S
C1165 C1164 1.387 . S
H1166 C1178 0.930 . S
H1167 C1180 0.930 . S
H1168 C1181 0.930 . S
H1169 C1185 0.959 . S
H1170 C1185 0.959 . S
H1171 C1185 0.961 . S
H1172 C1186 0.960 . S
H1173 C1186 0.961 . S
H1174 C1186 0.959 . S
H1175 C1189 0.929 . S
H1176 C1190 0.931 . S
H1177 C1192 0.930 . S
C1178 H1166 0.930 . S
C1178 C1179 1.399 . S
C1178 C1183 1.399 . S
C1179 C1178 1.399 . S
C1179 C1180 1.376 . S
C1180 H1167 0.930 . S
C1180 C1179 1.376 . S
C1180 C1181 1.388 . S
C1181 H1168 0.930 . S
C1181 C1180 1.388 . S
C1181 C1182 1.390 . S
C1182 C1181 1.390 . S
C1182 C1183 1.394 . S
C1182 C1188 1.465 . S
C1183 C1178 1.399 . S
C1183 C1182 1.394 . S
C1183 C1184 1.516 . S
C1184 C1183 1.516 . S
C1184 C1185 1.502 . S
C1184 C1186 1.561 . S
C1184 C1187 1.526 . S
C1185 H1169 0.959 . S
C1185 H1170 0.959 . S
C1185 H1171 0.961 . S
C1185 C1184 1.502 . S
C1186 H1172 0.960 . S
C1186 H1173 0.961 . S
C1186 H1174 0.959 . S
C1186 C1184 1.561 . S
C1187 C1184 1.526 . S
C1187 C1188 1.396 . S
C1187 C1192 1.390 . S
C1188 C1182 1.465 . S
C1188 C1187 1.396 . S
C1188 C1189 1.399 . S
C1189 H1175 0.929 . S
C1189 C1188 1.399 . S
C1189 C1190 1.385 . S
C1190 H1176 0.931 . S
C1190 C1189 1.385 . S
C1190 C1191 1.389 . S
C1191 C1190 1.389 . S
C1191 C1192 1.387 . S
C1192 H1177 0.930 . S
C1192 C1187 1.390 . S
C1192 C1191 1.387 . S
H1193 C1205 0.930 . S
H1194 C1207 0.930 . S
H1195 C1208 0.930 . S
H1196 C1212 0.959 . S
H1197 C1212 0.959 . S
H1198 C1212 0.961 . S
H1199 C1213 0.960 . S
H1200 C1213 0.961 . S
H1201 C1213 0.959 . S
H1202 C1216 0.929 . S
H1203 C1217 0.931 . S
H1204 C1219 0.930 . S
C1205 H1193 0.930 . S
C1205 C1206 1.399 . S
C1205 C1210 1.399 . S
C1206 C1205 1.399 . S
C1206 C1207 1.376 . S
C1207 H1194 0.930 . S
C1207 C1206 1.376 . S
C1207 C1208 1.388 . S
C1208 H1195 0.930 . S
C1208 C1207 1.388 . S
C1208 C1209 1.390 . S
C1209 C1208 1.390 . S
C1209 C1210 1.394 . S
C1209 C1215 1.465 . S
C1210 C1205 1.399 . S
C1210 C1209 1.394 . S
C1210 C1211 1.516 . S
C1211 C1210 1.516 . S
C1211 C1212 1.502 . S
C1211 C1213 1.561 . S
C1211 C1214 1.526 . S
C1212 H1196 0.959 . S
C1212 H1197 0.959 . S
C1212 H1198 0.961 . S
C1212 C1211 1.502 . S
C1213 H1199 0.960 . S
C1213 H1200 0.961 . S
C1213 H1201 0.959 . S
C1213 C1211 1.561 . S
C1214 C1211 1.526 . S
C1214 C1215 1.396 . S
C1214 C1219 1.390 . S
C1215 C1209 1.465 . S
C1215 C1214 1.396 . S
C1215 C1216 1.399 . S
C1216 H1202 0.929 . S
C1216 C1215 1.399 . S
C1216 C1217 1.385 . S
C1217 H1203 0.931 . S
C1217 C1216 1.385 . S
C1217 C1218 1.389 . S
C1218 C1217 1.389 . S
C1218 C1219 1.387 . S
C1219 H1204 0.930 . S
C1219 C1214 1.390 . S
C1219 C1218 1.387 . S
H1220 C1232 0.930 . S
H1221 C1234 0.930 . S
H1222 C1235 0.930 . S
H1223 C1239 0.959 . S
H1224 C1239 0.959 . S
H1225 C1239 0.961 . S
H1226 C1240 0.960 . S
H1227 C1240 0.961 . S
H1228 C1240 0.959 . S
H1229 C1243 0.929 . S
H1230 C1244 0.931 . S
H1231 C1246 0.930 . S
C1232 H1220 0.930 . S
C1232 C1233 1.399 . S
C1232 C1237 1.399 . S
C1233 C1232 1.399 . S
C1233 C1234 1.376 . S
C1234 H1221 0.930 . S
C1234 C1233 1.376 . S
C1234 C1235 1.388 . S
C1235 H1222 0.930 . S
C1235 C1234 1.388 . S
C1235 C1236 1.390 . S
C1236 C1235 1.390 . S
C1236 C1237 1.394 . S
C1236 C1242 1.465 . S
C1237 C1232 1.399 . S
C1237 C1236 1.394 . S
C1237 C1238 1.516 . S
C1238 C1237 1.516 . S
C1238 C1239 1.502 . S
C1238 C1240 1.561 . S
C1238 C1241 1.526 . S
C1239 H1223 0.959 . S
C1239 H1224 0.959 . S
C1239 H1225 0.961 . S
C1239 C1238 1.502 . S
C1240 H1226 0.960 . S
C1240 H1227 0.961 . S
C1240 H1228 0.959 . S
C1240 C1238 1.561 . S
C1241 C1238 1.526 . S
C1241 C1242 1.396 . S
C1241 C1246 1.390 . S
C1242 C1236 1.465 . S
C1242 C1241 1.396 . S
C1242 C1243 1.399 . S
C1243 H1229 0.929 . S
C1243 C1242 1.399 . S
C1243 C1244 1.385 . S
C1244 H1230 0.931 . S
C1244 C1243 1.385 . S
C1244 C1245 1.389 . S
C1245 C1244 1.389 . S
C1245 C1246 1.387 . S
C1246 H1231 0.930 . S
C1246 C1241 1.390 . S
C1246 C1245 1.387 . S
H1247 C1259 0.930 . S
H1248 C1261 0.916 1_554 S
H1249 C1262 0.930 . S
H1250 C1266 0.959 . S
H1251 C1266 0.959 . S
H1252 C1266 0.961 . S
H1253 C1267 0.960 . S
H1254 C1267 0.961 . S
H1255 C1267 0.959 . S
H1256 C1270 0.929 . S
H1257 C1271 0.931 . S
H1258 C1273 0.930 . S
C1259 H1247 0.930 . S
C1259 C1260 1.399 1_556 S
C1259 C1264 1.399 . S
C1260 C1259 1.399 1_554 S
C1260 C1261 1.375 1_554 S
C1261 H1248 0.916 1_556 S
C1261 C1260 1.375 1_556 S
C1261 C1262 1.404 . S
C1262 H1249 0.930 . S
C1262 C1261 1.404 . S
C1262 C1263 1.390 . S
C1263 C1262 1.390 . S
C1263 C1264 1.394 . S
C1263 C1269 1.465 . S
C1264 C1259 1.399 . S
C1264 C1263 1.394 . S
C1264 C1265 1.516 . S
C1265 C1264 1.516 . S
C1265 C1266 1.502 . S
C1265 C1267 1.561 . S
C1265 C1268 1.526 . S
C1266 H1250 0.959 . S
C1266 H1251 0.959 . S
C1266 H1252 0.961 . S
C1266 C1265 1.502 . S
C1267 H1253 0.960 . S
C1267 H1254 0.961 . S
C1267 H1255 0.959 . S
C1267 C1265 1.561 . S
C1268 C1265 1.526 . S
C1268 C1269 1.396 . S
C1268 C1273 1.390 . S
C1269 C1263 1.465 . S
C1269 C1268 1.396 . S
C1269 C1270 1.399 . S
C1270 H1256 0.929 . S
C1270 C1269 1.399 . S
C1270 C1271 1.385 . S
C1271 H1257 0.931 . S
C1271 C1270 1.385 . S
C1271 C1272 1.389 . S
C1272 C1271 1.389 . S
C1272 C1273 1.387 . S
C1273 H1258 0.930 . S
C1273 C1268 1.390 . S
C1273 C1272 1.387 . S
H1274 C1286 0.930 . S
H1275 C1288 0.930 . S
H1276 C1289 0.930 . S
H1277 C1293 0.959 . S
H1278 C1293 0.959 . S
H1279 C1293 0.961 . S
H1280 C1294 0.960 . S
H1281 C1294 0.961 . S
H1282 C1294 0.959 . S
H1283 C1297 0.929 . S
H1284 C1298 0.931 . S
H1285 C1300 0.930 . S
C1286 H1274 0.930 . S
C1286 C1287 1.399 . S
C1286 C1291 1.399 . S
C1287 C1286 1.399 . S
C1287 C1288 1.376 . S
C1288 H1275 0.930 . S
C1288 C1287 1.376 . S
C1288 C1289 1.388 . S
C1289 H1276 0.930 . S
C1289 C1288 1.388 . S
C1289 C1290 1.390 . S
C1290 C1289 1.390 . S
C1290 C1291 1.394 . S
C1290 C1296 1.465 . S
C1291 C1286 1.399 . S
C1291 C1290 1.394 . S
C1291 C1292 1.516 . S
C1292 C1291 1.516 . S
C1292 C1293 1.502 . S
C1292 C1294 1.561 . S
C1292 C1295 1.526 . S
C1293 H1277 0.959 . S
C1293 H1278 0.959 . S
C1293 H1279 0.961 . S
C1293 C1292 1.502 . S
C1294 H1280 0.960 . S
C1294 H1281 0.961 . S
C1294 H1282 0.959 . S
C1294 C1292 1.561 . S
C1295 C1292 1.526 . S
C1295 C1296 1.396 . S
C1295 C1300 1.390 . S
C1296 C1290 1.465 . S
C1296 C1295 1.396 . S
C1296 C1297 1.399 . S
C1297 H1283 0.929 . S
C1297 C1296 1.399 . S
C1297 C1298 1.385 . S
C1298 H1284 0.931 . S
C1298 C1297 1.385 . S
C1298 C1299 1.389 . S
C1299 C1298 1.389 . S
C1299 C1300 1.387 . S
C1300 H1285 0.930 . S
C1300 C1295 1.390 . S
C1300 C1299 1.387 . S
H1301 C1313 0.930 . S
H1302 C1315 0.930 . S
H1303 C1316 0.927 1_455 S
H1304 C1320 0.959 . S
H1305 C1320 0.959 . S
H1306 C1320 0.961 . S
H1307 C1321 0.960 . S
H1308 C1321 0.961 . S
H1309 C1321 0.959 . S
H1310 C1324 0.929 . S
H1311 C1325 0.931 . S
H1312 C1327 0.930 . S
C1313 H1301 0.930 . S
C1313 C1314 1.399 . S
C1313 C1318 1.399 . S
C1314 C1313 1.399 . S
C1314 C1315 1.376 . S
C1315 H1302 0.930 . S
C1315 C1314 1.376 . S
C1315 C1316 1.388 . S
C1316 H1303 0.927 1_655 S
C1316 C1315 1.388 . S
C1316 C1317 1.387 1_655 S
C1317 C1316 1.387 1_455 S
C1317 C1318 1.389 1_455 S
C1317 C1323 1.473 . S
C1318 C1313 1.399 . S
C1318 C1317 1.389 1_655 S
C1318 C1319 1.516 1_655 S
C1319 C1318 1.516 1_455 S
C1319 C1320 1.502 1_455 S
C1319 C1321 1.561 . S
C1319 C1322 1.526 . S
C1320 H1304 0.959 . S
C1320 H1305 0.959 . S
C1320 H1306 0.961 . S
C1320 C1319 1.502 1_655 S
C1321 H1307 0.960 . S
C1321 H1308 0.961 . S
C1321 H1309 0.959 . S
C1321 C1319 1.561 . S
C1322 C1319 1.526 . S
C1322 C1323 1.396 . S
C1322 C1327 1.390 . S
C1323 C1317 1.473 . S
C1323 C1322 1.396 . S
C1323 C1324 1.399 . S
C1324 H1310 0.929 . S
C1324 C1323 1.399 . S
C1324 C1325 1.385 . S
C1325 H1311 0.931 . S
C1325 C1324 1.385 . S
C1325 C1326 1.389 . S
C1326 C1325 1.389 . S
C1326 C1327 1.387 . S
C1327 H1312 0.930 . S
C1327 C1322 1.390 . S
C1327 C1326 1.387 . S
H1328 C1340 0.930 . S
H1329 C1342 0.930 . S
H1330 C1343 0.930 . S
H1331 C1347 0.959 . S
H1332 C1347 0.959 . S
H1333 C1347 0.961 . S
H1334 C1348 0.960 . S
H1335 C1348 0.961 . S
H1336 C1348 0.959 . S
H1337 C1351 0.929 . S
H1338 C1352 0.931 . S
H1339 C1354 0.930 . S
C1340 H1328 0.930 . S
C1340 C1341 1.399 . S
C1340 C1345 1.399 . S
C1341 C1340 1.399 . S
C1341 C1342 1.376 . S
C1342 H1329 0.930 . S
C1342 C1341 1.376 . S
C1342 C1343 1.388 . S
C1343 H1330 0.930 . S
C1343 C1342 1.388 . S
C1343 C1344 1.390 . S
C1344 C1343 1.390 . S
C1344 C1345 1.394 . S
C1344 C1350 1.465 . S
C1345 C1340 1.399 . S
C1345 C1344 1.394 . S
C1345 C1346 1.516 . S
C1346 C1345 1.516 . S
C1346 C1347 1.502 . S
C1346 C1348 1.561 . S
C1346 C1349 1.526 . S
C1347 H1331 0.959 . S
C1347 H1332 0.959 . S
C1347 H1333 0.961 . S
C1347 C1346 1.502 . S
C1348 H1334 0.960 . S
C1348 H1335 0.961 . S
C1348 H1336 0.959 . S
C1348 C1346 1.561 . S
C1349 C1346 1.526 . S
C1349 C1350 1.396 . S
C1349 C1354 1.390 . S
C1350 C1344 1.465 . S
C1350 C1349 1.396 . S
C1350 C1351 1.399 . S
C1351 H1337 0.929 . S
C1351 C1350 1.399 . S
C1351 C1352 1.385 . S
C1352 H1338 0.931 . S
C1352 C1351 1.385 . S
C1352 C1353 1.389 . S
C1353 C1352 1.389 . S
C1353 C1354 1.387 . S
C1354 H1339 0.930 . S
C1354 C1349 1.390 . S
C1354 C1353 1.387 . S
H1355 C1367 0.930 . S
H1356 C1369 0.930 . S
H1357 C1370 0.918 1_655 S
H1358 C1374 0.959 . S
H1359 C1374 0.959 . S
H1360 C1374 0.961 . S
H1361 C1375 0.960 . S
H1362 C1375 0.961 . S
H1363 C1375 0.959 . S
H1364 C1378 0.929 . S
H1365 C1379 0.931 . S
H1366 C1381 0.930 . S
C1367 H1355 0.930 . S
C1367 C1368 1.399 . S
C1367 C1372 1.399 . S
C1368 C1367 1.399 . S
C1368 C1369 1.376 . S
C1369 H1356 0.930 . S
C1369 C1368 1.376 . S
C1369 C1370 1.408 . S
C1370 H1357 0.918 1_455 S
C1370 C1369 1.408 . S
C1370 C1371 1.383 1_455 S
C1371 C1370 1.383 1_655 S
C1371 C1372 1.394 1_655 S
C1371 C1377 1.465 . S
C1372 C1367 1.399 . S
C1372 C1371 1.394 1_455 S
C1372 C1373 1.516 1_455 S
C1373 C1372 1.516 1_655 S
C1373 C1374 1.502 1_655 S
C1373 C1375 1.561 . S
C1373 C1376 1.526 . S
C1374 H1358 0.959 . S
C1374 H1359 0.959 . S
C1374 H1360 0.961 . S
C1374 C1373 1.502 1_455 S
C1375 H1361 0.960 . S
C1375 H1362 0.961 . S
C1375 H1363 0.959 . S
C1375 C1373 1.561 . S
C1376 C1373 1.526 . S
C1376 C1377 1.396 . S
C1376 C1381 1.390 . S
C1377 C1371 1.465 . S
C1377 C1376 1.396 . S
C1377 C1378 1.399 . S
C1378 H1364 0.929 . S
C1378 C1377 1.399 . S
C1378 C1379 1.385 . S
C1379 H1365 0.931 . S
C1379 C1378 1.385 . S
C1379 C1380 1.389 . S
C1380 C1379 1.389 . S
C1380 C1381 1.387 . S
C1381 H1366 0.930 . S
C1381 C1376 1.390 . S
C1381 C1380 1.387 . S
H1382 C1394 0.930 . S
H1383 C1396 0.930 . S
H1384 C1397 0.930 . S
H1385 C1401 0.959 . S
H1386 C1401 0.959 . S
H1387 C1401 0.961 . S
H1388 C1402 0.960 . S
H1389 C1402 0.961 . S
H1390 C1402 0.959 . S
H1391 C1405 0.929 . S
H1392 C1406 0.931 . S
H1393 C1408 0.930 . S
C1394 H1382 0.930 . S
C1394 C1395 1.399 . S
C1394 C1399 1.399 . S
C1395 C1394 1.399 . S
C1395 C1396 1.376 . S
C1396 H1383 0.930 . S
C1396 C1395 1.376 . S
C1396 C1397 1.388 . S
C1397 H1384 0.930 . S
C1397 C1396 1.388 . S
C1397 C1398 1.390 . S
C1398 C1397 1.390 . S
C1398 C1399 1.394 . S
C1398 C1404 1.465 . S
C1399 C1394 1.399 . S
C1399 C1398 1.394 . S
C1399 C1400 1.516 . S
C1400 C1399 1.516 . S
C1400 C1401 1.502 . S
C1400 C1402 1.561 . S
C1400 C1403 1.526 . S
C1401 H1385 0.959 . S
C1401 H1386 0.959 . S
C1401 H1387 0.961 . S
C1401 C1400 1.502 . S
C1402 H1388 0.960 . S
C1402 H1389 0.961 . S
C1402 H1390 0.959 . S
C1402 C1400 1.561 . S
C1403 C1400 1.526 . S
C1403 C1404 1.396 . S
C1403 C1408 1.390 . S
C1404 C1398 1.465 . S
C1404 C1403 1.396 . S
C1404 C1405 1.399 . S
C1405 H1391 0.929 . S
C1405 C1404 1.399 . S
C1405 C1406 1.385 . S
C1406 H1392 0.931 . S
C1406 C1405 1.385 . S
C1406 C1407 1.389 . S
C1407 C1406 1.389 . S
C1407 C1408 1.387 . S
C1408 H1393 0.930 . S
C1408 C1403 1.390 . S
C1408 C1407 1.387 . S
H1409 C1421 0.930 . S
H1410 C1423 0.930 . S
H1411 C1424 0.930 . S
H1412 C1428 0.959 . S
H1413 C1428 0.959 . S
H1414 C1428 0.961 . S
H1415 C1429 0.960 . S
H1416 C1429 0.961 . S
H1417 C1429 0.959 . S
H1418 C1432 0.929 . S
H1419 C1433 0.931 . S
H1420 C1435 0.930 . S
C1421 H1409 0.930 . S
C1421 C1422 1.399 . S
C1421 C1426 1.399 . S
C1422 C1421 1.399 . S
C1422 C1423 1.376 . S
C1423 H1410 0.930 . S
C1423 C1422 1.376 . S
C1423 C1424 1.388 . S
C1424 H1411 0.930 . S
C1424 C1423 1.388 . S
C1424 C1425 1.390 . S
C1425 C1424 1.390 . S
C1425 C1426 1.394 . S
C1425 C1431 1.465 . S
C1426 C1421 1.399 . S
C1426 C1425 1.394 . S
C1426 C1427 1.516 . S
C1427 C1426 1.516 . S
C1427 C1428 1.502 . S
C1427 C1429 1.561 . S
C1427 C1430 1.526 . S
C1428 H1412 0.959 . S
C1428 H1413 0.959 . S
C1428 H1414 0.961 . S
C1428 C1427 1.502 . S
C1429 H1415 0.960 . S
C1429 H1416 0.961 . S
C1429 H1417 0.959 . S
C1429 C1427 1.561 . S
C1430 C1427 1.526 . S
C1430 C1431 1.396 . S
C1430 C1435 1.390 . S
C1431 C1425 1.465 . S
C1431 C1430 1.396 . S
C1431 C1432 1.399 . S
C1432 H1418 0.929 . S
C1432 C1431 1.399 . S
C1432 C1433 1.385 . S
C1433 H1419 0.931 . S
C1433 C1432 1.385 . S
C1433 C1434 1.389 . S
C1434 C1433 1.389 . S
C1434 C1435 1.387 . S
C1435 H1420 0.930 . S
C1435 C1430 1.390 . S
C1435 C1434 1.387 . S
H1436 C1448 0.930 . S
H1437 C1450 0.930 . S
H1438 C1451 0.930 . S
H1439 C1455 0.959 . S
H1440 C1455 0.959 . S
H1441 C1455 0.961 . S
H1442 C1456 0.960 . S
H1443 C1456 0.961 . S
H1444 C1456 0.959 . S
H1445 C1459 0.929 . S
H1446 C1460 0.931 . S
H1447 C1462 0.930 . S
C1448 H1436 0.930 . S
C1448 C1449 1.399 . S
C1448 C1453 1.399 . S
C1449 C1448 1.399 . S
C1449 C1450 1.376 . S
C1450 H1437 0.930 . S
C1450 C1449 1.376 . S
C1450 C1451 1.388 . S
C1451 H1438 0.930 . S
C1451 C1450 1.388 . S
C1451 C1452 1.390 . S
C1452 C1451 1.390 . S
C1452 C1453 1.394 . S
C1452 C1458 1.465 . S
C1453 C1448 1.399 . S
C1453 C1452 1.394 . S
C1453 C1454 1.516 . S
C1454 C1453 1.516 . S
C1454 C1455 1.502 . S
C1454 C1456 1.561 . S
C1454 C1457 1.526 . S
C1455 H1439 0.959 . S
C1455 H1440 0.959 . S
C1455 H1441 0.961 . S
C1455 C1454 1.502 . S
C1456 H1442 0.960 . S
C1456 H1443 0.961 . S
C1456 H1444 0.959 . S
C1456 C1454 1.561 . S
C1457 C1454 1.526 . S
C1457 C1458 1.396 . S
C1457 C1462 1.390 . S
C1458 C1452 1.465 . S
C1458 C1457 1.396 . S
C1458 C1459 1.399 . S
C1459 H1445 0.929 . S
C1459 C1458 1.399 . S
C1459 C1460 1.385 . S
C1460 H1446 0.931 . S
C1460 C1459 1.385 . S
C1460 C1461 1.389 . S
C1461 C1460 1.389 . S
C1461 C1462 1.387 . S
C1462 H1447 0.930 . S
C1462 C1457 1.390 . S
C1462 C1461 1.387 . S
H1463 C1475 0.930 1_556 S
H1464 C1477 0.930 . S
H1465 C1478 0.930 . S
H1466 C1482 0.959 . S
H1467 C1482 0.959 . S
H1468 C1482 0.961 . S
H1469 C1483 0.960 . S
H1470 C1483 0.961 . S
H1471 C1483 0.959 . S
H1472 C1486 0.929 . S
H1473 C1487 0.931 . S
H1474 C1489 0.930 . S
C1475 H1463 0.930 1_554 S
C1475 C1476 1.399 . S
C1475 C1480 1.399 . S
C1476 C1475 1.399 . S
C1476 C1477 1.376 . S
C1477 H1464 0.930 . S
C1477 C1476 1.376 . S
C1477 C1478 1.388 . S
C1478 H1465 0.930 . S
C1478 C1477 1.388 . S
C1478 C1479 1.390 . S
C1479 C1478 1.390 . S
C1479 C1480 1.394 . S
C1479 C1485 1.465 . S
C1480 C1475 1.399 . S
C1480 C1479 1.394 . S
C1480 C1481 1.516 . S
C1481 C1480 1.516 . S
C1481 C1482 1.502 . S
C1481 C1483 1.561 . S
C1481 C1484 1.526 . S
C1482 H1466 0.959 . S
C1482 H1467 0.959 . S
C1482 H1468 0.961 . S
C1482 C1481 1.502 . S
C1483 H1469 0.960 . S
C1483 H1470 0.961 . S
C1483 H1471 0.959 . S
C1483 C1481 1.561 . S
C1484 C1481 1.526 . S
C1484 C1485 1.396 . S
C1484 C1489 1.390 . S
C1485 C1479 1.465 . S
C1485 C1484 1.396 . S
C1485 C1486 1.399 . S
C1486 H1472 0.929 . S
C1486 C1485 1.399 . S
C1486 C1487 1.385 . S
C1487 H1473 0.931 . S
C1487 C1486 1.385 . S
C1487 C1488 1.389 . S
C1488 C1487 1.389 . S
C1488 C1489 1.387 . S
C1489 H1474 0.930 . S
C1489 C1484 1.390 . S
C1489 C1488 1.387 . S
H1490 C1502 0.930 . S
H1491 C1504 0.930 . S
H1492 C1505 0.930 . S
H1493 C1509 0.959 . S
H1494 C1509 0.959 . S
H1495 C1509 0.961 . S
H1496 C1510 0.960 . S
H1497 C1510 0.961 . S
H1498 C1510 0.959 . S
H1499 C1513 0.929 . S
H1500 C1514 0.931 . S
H1501 C1516 0.930 . S
C1502 H1490 0.930 . S
C1502 C1503 1.399 . S
C1502 C1507 1.399 . S
C1503 C1502 1.399 . S
C1503 C1504 1.376 . S
C1504 H1491 0.930 . S
C1504 C1503 1.376 . S
C1504 C1505 1.388 . S
C1505 H1492 0.930 . S
C1505 C1504 1.388 . S
C1505 C1506 1.390 . S
C1506 C1505 1.390 . S
C1506 C1507 1.394 . S
C1506 C1512 1.465 . S
C1507 C1502 1.399 . S
C1507 C1506 1.394 . S
C1507 C1508 1.516 . S
C1508 C1507 1.516 . S
C1508 C1509 1.502 . S
C1508 C1510 1.561 . S
C1508 C1511 1.526 . S
C1509 H1493 0.959 . S
C1509 H1494 0.959 . S
C1509 H1495 0.961 . S
C1509 C1508 1.502 . S
C1510 H1496 0.960 . S
C1510 H1497 0.961 . S
C1510 H1498 0.959 . S
C1510 C1508 1.561 . S
C1511 C1508 1.526 . S
C1511 C1512 1.396 . S
C1511 C1516 1.390 . S
C1512 C1506 1.465 . S
C1512 C1511 1.396 . S
C1512 C1513 1.399 . S
C1513 H1499 0.929 . S
C1513 C1512 1.399 . S
C1513 C1514 1.385 . S
C1514 H1500 0.931 . S
C1514 C1513 1.385 . S
C1514 C1515 1.389 . S
C1515 C1514 1.389 . S
C1515 C1516 1.387 . S
C1516 H1501 0.930 . S
C1516 C1511 1.390 . S
C1516 C1515 1.387 . S
H1517 C1529 0.930 . S
H1518 C1531 0.930 . S
H1519 C1532 0.930 . S
H1520 C1536 0.959 . S
H1521 C1536 0.959 . S
H1522 C1536 0.961 . S
H1523 C1537 0.960 1_655 S
H1524 C1537 0.961 . S
H1525 C1537 0.959 . S
H1526 C1540 0.929 . S
H1527 C1541 0.931 . S
H1528 C1543 0.930 . S
C1529 H1517 0.930 . S
C1529 C1530 1.399 . S
C1529 C1534 1.399 . S
C1530 C1529 1.399 . S
C1530 C1531 1.376 . S
C1531 H1518 0.930 . S
C1531 C1530 1.376 . S
C1531 C1532 1.388 . S
C1532 H1519 0.930 . S
C1532 C1531 1.388 . S
C1532 C1533 1.390 . S
C1533 C1532 1.390 . S
C1533 C1534 1.394 . S
C1533 C1539 1.465 1_655 S
C1534 C1529 1.399 . S
C1534 C1533 1.394 . S
C1534 C1535 1.516 . S
C1535 C1534 1.516 . S
C1535 C1536 1.502 . S
C1535 C1537 1.561 1_655 S
C1535 C1538 1.526 1_655 S
C1536 H1520 0.959 . S
C1536 H1521 0.959 . S
C1536 H1522 0.961 . S
C1536 C1535 1.502 . S
C1537 H1523 0.960 1_455 S
C1537 H1524 0.961 . S
C1537 H1525 0.959 . S
C1537 C1535 1.561 1_455 S
C1538 C1535 1.526 1_455 S
C1538 C1539 1.396 . S
C1538 C1543 1.390 . S
C1539 C1533 1.465 1_455 S
C1539 C1538 1.396 . S
C1539 C1540 1.399 . S
C1540 H1526 0.929 . S
C1540 C1539 1.399 . S
C1540 C1541 1.385 . S
C1541 H1527 0.931 . S
C1541 C1540 1.385 . S
C1541 C1542 1.389 . S
C1542 C1541 1.389 . S
C1542 C1543 1.387 . S
C1543 H1528 0.930 . S
C1543 C1538 1.390 . S
C1543 C1542 1.387 . S
H1544 C1556 0.930 . S
H1545 C1558 0.930 . S
H1546 C1559 0.930 . S
H1547 C1563 0.959 . S
H1548 C1563 0.959 . S
H1549 C1563 0.961 . S
H1550 C1564 0.960 . S
H1551 C1564 0.961 . S
H1552 C1564 0.959 . S
H1553 C1567 0.929 . S
H1554 C1568 0.931 . S
H1555 C1570 0.930 . S
C1556 H1544 0.930 . S
C1556 C1557 1.399 . S
C1556 C1561 1.399 . S
C1557 C1556 1.399 . S
C1557 C1558 1.376 . S
C1558 H1545 0.930 . S
C1558 C1557 1.376 . S
C1558 C1559 1.388 . S
C1559 H1546 0.930 . S
C1559 C1558 1.388 . S
C1559 C1560 1.390 . S
C1560 C1559 1.390 . S
C1560 C1561 1.394 . S
C1560 C1566 1.465 . S
C1561 C1556 1.399 . S
C1561 C1560 1.394 . S
C1561 C1562 1.516 . S
C1562 C1561 1.516 . S
C1562 C1563 1.502 . S
C1562 C1564 1.561 . S
C1562 C1565 1.526 . S
C1563 H1547 0.959 . S
C1563 H1548 0.959 . S
C1563 H1549 0.961 . S
C1563 C1562 1.502 . S
C1564 H1550 0.960 . S
C1564 H1551 0.961 . S
C1564 H1552 0.959 . S
C1564 C1562 1.561 . S
C1565 C1562 1.526 . S
C1565 C1566 1.396 . S
C1565 C1570 1.390 . S
C1566 C1560 1.465 . S
C1566 C1565 1.396 . S
C1566 C1567 1.399 . S
C1567 H1553 0.929 . S
C1567 C1566 1.399 . S
C1567 C1568 1.385 . S
C1568 H1554 0.931 . S
C1568 C1567 1.385 . S
C1568 C1569 1.389 . S
C1569 C1568 1.389 . S
C1569 C1570 1.387 . S
C1570 H1555 0.930 . S
C1570 C1565 1.390 . S
C1570 C1569 1.387 . S
H1571 C1583 0.930 . S
H1572 C1585 0.930 . S
H1573 C1586 0.930 . S
H1574 C1590 0.959 . S
H1575 C1590 0.959 . S
H1576 C1590 0.961 . S
H1577 C1591 0.960 . S
H1578 C1591 0.961 . S
H1579 C1591 0.959 . S
H1580 C1594 0.929 . S
H1581 C1595 0.931 . S
H1582 C1597 0.930 . S
C1583 H1571 0.930 . S
C1583 C1584 1.399 . S
C1583 C1588 1.399 . S
C1584 C1583 1.399 . S
C1584 C1585 1.376 . S
C1585 H1572 0.930 . S
C1585 C1584 1.376 . S
C1585 C1586 1.388 . S
C1586 H1573 0.930 . S
C1586 C1585 1.388 . S
C1586 C1587 1.390 . S
C1587 C1586 1.390 . S
C1587 C1588 1.394 . S
C1587 C1593 1.465 . S
C1588 C1583 1.399 . S
C1588 C1587 1.394 . S
C1588 C1589 1.516 . S
C1589 C1588 1.516 . S
C1589 C1590 1.502 . S
C1589 C1591 1.561 . S
C1589 C1592 1.526 . S
C1590 H1574 0.959 . S
C1590 H1575 0.959 . S
C1590 H1576 0.961 . S
C1590 C1589 1.502 . S
C1591 H1577 0.960 . S
C1591 H1578 0.961 . S
C1591 H1579 0.959 . S
C1591 C1589 1.561 . S
C1592 C1589 1.526 . S
C1592 C1593 1.396 . S
C1592 C1597 1.390 . S
C1593 C1587 1.465 . S
C1593 C1592 1.396 . S
C1593 C1594 1.399 . S
C1594 H1580 0.929 . S
C1594 C1593 1.399 . S
C1594 C1595 1.385 . S
C1595 H1581 0.931 . S
C1595 C1594 1.385 . S
C1595 C1596 1.389 . S
C1596 C1595 1.389 . S
C1596 C1597 1.387 . S
C1597 H1582 0.930 . S
C1597 C1592 1.390 . S
C1597 C1596 1.387 . S
H1598 C1610 0.930 . S
H1599 C1612 0.930 . S
H1600 C1613 0.930 . S
H1601 C1617 0.959 . S
H1602 C1617 0.959 . S
H1603 C1617 0.961 . S
H1604 C1618 0.960 . S
H1605 C1618 0.961 . S
H1606 C1618 0.959 . S
H1607 C1621 0.929 . S
H1608 C1622 0.931 . S
H1609 C1624 0.930 . S
C1610 H1598 0.930 . S
C1610 C1611 1.399 . S
C1610 C1615 1.399 . S
C1611 C1610 1.399 . S
C1611 C1612 1.376 . S
C1612 H1599 0.930 . S
C1612 C1611 1.376 . S
C1612 C1613 1.388 . S
C1613 H1600 0.930 . S
C1613 C1612 1.388 . S
C1613 C1614 1.390 . S
C1614 C1613 1.390 . S
C1614 C1615 1.394 . S
C1614 C1620 1.465 . S
C1615 C1610 1.399 . S
C1615 C1614 1.394 . S
C1615 C1616 1.516 . S
C1616 C1615 1.516 . S
C1616 C1617 1.502 . S
C1616 C1618 1.561 . S
C1616 C1619 1.526 . S
C1617 H1601 0.959 . S
C1617 H1602 0.959 . S
C1617 H1603 0.961 . S
C1617 C1616 1.502 . S
C1618 H1604 0.960 . S
C1618 H1605 0.961 . S
C1618 H1606 0.959 . S
C1618 C1616 1.561 . S
C1619 C1616 1.526 . S
C1619 C1620 1.396 . S
C1619 C1624 1.390 . S
C1620 C1614 1.465 . S
C1620 C1619 1.396 . S
C1620 C1621 1.399 . S
C1621 H1607 0.929 . S
C1621 C1620 1.399 . S
C1621 C1622 1.385 . S
C1622 H1608 0.931 . S
C1622 C1621 1.385 . S
C1622 C1623 1.389 . S
C1623 C1622 1.389 . S
C1623 C1624 1.387 . S
C1624 H1609 0.930 . S
C1624 C1619 1.390 . S
C1624 C1623 1.387 . S
H1625 C1637 0.947 . S
H1626 C1639 0.930 . S
H1627 C1640 0.930 . S
H1628 C1644 0.959 . S
H1629 C1644 0.959 . S
H1630 C1644 0.961 . S
H1631 C1645 0.960 . S
H1632 C1645 0.961 . S
H1633 C1645 0.959 . S
H1634 C1648 0.975 . S
H1635 C1649 0.931 . S
H1636 C1651 0.930 . S
C1637 H1625 0.947 . S
C1637 C1638 1.399 . S
C1637 C1642 1.399 1_455 S
C1638 C1637 1.399 . S
C1638 C1639 1.376 . S
C1639 H1626 0.930 . S
C1639 C1638 1.376 . S
C1639 C1640 1.388 . S
C1640 H1627 0.930 . S
C1640 C1639 1.388 . S
C1640 C1641 1.390 . S
C1641 C1640 1.390 . S
C1641 C1642 1.394 1_455 S
C1641 C1647 1.465 1_455 S
C1642 C1637 1.399 1_655 S
C1642 C1641 1.394 1_655 S
C1642 C1643 1.516 . S
C1643 C1642 1.516 . S
C1643 C1644 1.502 . S
C1643 C1645 1.561 . S
C1643 C1646 1.526 . S
C1644 H1628 0.959 . S
C1644 H1629 0.959 . S
C1644 H1630 0.961 . S
C1644 C1643 1.502 . S
C1645 H1631 0.960 . S
C1645 H1632 0.961 . S
C1645 H1633 0.959 . S
C1645 C1643 1.561 . S
C1646 C1643 1.526 . S
C1646 C1647 1.396 . S
C1646 C1651 1.390 . S
C1647 C1641 1.465 1_655 S
C1647 C1646 1.396 . S
C1647 C1648 1.399 . S
C1648 H1634 0.975 . S
C1648 C1647 1.399 . S
C1648 C1649 1.385 1_554 S
C1649 H1635 0.931 . S
C1649 C1648 1.385 1_556 S
C1649 C1650 1.389 1_556 S
C1650 C1649 1.389 1_554 S
C1650 C1651 1.387 . S
C1651 H1636 0.930 . S
C1651 C1646 1.390 . S
C1651 C1650 1.387 . S
H1652 C1664 0.930 . S
H1653 C1666 0.930 . S
H1654 C1667 0.930 . S
H1655 C1671 0.959 . S
H1656 C1671 0.959 . S
H1657 C1671 0.961 . S
H1658 C1672 0.960 . S
H1659 C1672 0.961 . S
H1660 C1672 0.959 . S
H1661 C1675 0.929 . S
H1662 C1676 0.931 . S
H1663 C1678 0.930 . S
C1664 H1652 0.930 . S
C1664 C1665 1.399 . S
C1664 C1669 1.399 . S
C1665 C1664 1.399 . S
C1665 C1666 1.376 . S
C1666 H1653 0.930 . S
C1666 C1665 1.376 . S
C1666 C1667 1.388 . S
C1667 H1654 0.930 . S
C1667 C1666 1.388 . S
C1667 C1668 1.390 . S
C1668 C1667 1.390 . S
C1668 C1669 1.394 . S
C1668 C1674 1.465 . S
C1669 C1664 1.399 . S
C1669 C1668 1.394 . S
C1669 C1670 1.516 . S
C1670 C1669 1.516 . S
C1670 C1671 1.502 . S
C1670 C1672 1.561 . S
C1670 C1673 1.526 . S
C1671 H1655 0.959 . S
C1671 H1656 0.959 . S
C1671 H1657 0.961 . S
C1671 C1670 1.502 . S
C1672 H1658 0.960 . S
C1672 H1659 0.961 . S
C1672 H1660 0.959 . S
C1672 C1670 1.561 . S
C1673 C1670 1.526 . S
C1673 C1674 1.396 . S
C1673 C1678 1.390 . S
C1674 C1668 1.465 . S
C1674 C1673 1.396 . S
C1674 C1675 1.399 . S
C1675 H1661 0.929 . S
C1675 C1674 1.399 . S
C1675 C1676 1.385 . S
C1676 H1662 0.931 . S
C1676 C1675 1.385 . S
C1676 C1677 1.389 . S
C1677 C1676 1.389 . S
C1677 C1678 1.387 . S
C1678 H1663 0.930 . S
C1678 C1673 1.390 . S
C1678 C1677 1.387 . S
H1679 C1691 0.930 . S
H1680 C1693 0.930 . S
H1681 C1694 0.930 . S
H1682 C1698 0.959 . S
H1683 C1698 0.959 . S
H1684 C1698 0.961 . S
H1685 C1699 0.960 1_655 S
H1686 C1699 0.961 . S
H1687 C1699 0.959 . S
H1688 C1702 0.929 . S
H1689 C1703 0.931 . S
H1690 C1705 0.930 . S
C1691 H1679 0.930 . S
C1691 C1692 1.399 . S
C1691 C1696 1.399 . S
C1692 C1691 1.399 . S
C1692 C1693 1.376 . S
C1693 H1680 0.930 . S
C1693 C1692 1.376 . S
C1693 C1694 1.388 . S
C1694 H1681 0.930 . S
C1694 C1693 1.388 . S
C1694 C1695 1.390 . S
C1695 C1694 1.390 . S
C1695 C1696 1.394 . S
C1695 C1701 1.465 1_655 S
C1696 C1691 1.399 . S
C1696 C1695 1.394 . S
C1696 C1697 1.516 . S
C1697 C1696 1.516 . S
C1697 C1698 1.502 . S
C1697 C1699 1.561 1_655 S
C1697 C1700 1.526 1_655 S
C1698 H1682 0.959 . S
C1698 H1683 0.959 . S
C1698 H1684 0.961 . S
C1698 C1697 1.502 . S
C1699 H1685 0.960 1_455 S
C1699 H1686 0.961 . S
C1699 H1687 0.959 . S
C1699 C1697 1.561 1_455 S
C1700 C1697 1.526 1_455 S
C1700 C1701 1.396 . S
C1700 C1705 1.390 . S
C1701 C1695 1.465 1_455 S
C1701 C1700 1.396 . S
C1701 C1702 1.399 . S
C1702 H1688 0.929 . S
C1702 C1701 1.399 . S
C1702 C1703 1.385 . S
C1703 H1689 0.931 . S
C1703 C1702 1.385 . S
C1703 C1704 1.389 . S
C1704 C1703 1.389 . S
C1704 C1705 1.387 . S
C1705 H1690 0.930 . S
C1705 C1700 1.390 . S
C1705 C1704 1.387 . S
H1706 C1718 0.930 . S
H1707 C1720 0.930 . S
H1708 C1721 0.930 . S
H1709 C1725 0.959 . S
H1710 C1725 0.959 . S
H1711 C1725 0.961 . S
H1712 C1726 0.960 . S
H1713 C1726 0.961 . S
H1714 C1726 0.959 . S
H1715 C1729 0.929 . S
H1716 C1730 0.931 . S
H1717 C1732 0.930 . S
C1718 H1706 0.930 . S
C1718 C1719 1.399 . S
C1718 C1723 1.399 . S
C1719 C1718 1.399 . S
C1719 C1720 1.376 . S
C1720 H1707 0.930 . S
C1720 C1719 1.376 . S
C1720 C1721 1.388 . S
C1721 H1708 0.930 . S
C1721 C1720 1.388 . S
C1721 C1722 1.390 . S
C1722 C1721 1.390 . S
C1722 C1723 1.394 . S
C1722 C1728 1.465 . S
C1723 C1718 1.399 . S
C1723 C1722 1.394 . S
C1723 C1724 1.516 . S
C1724 C1723 1.516 . S
C1724 C1725 1.502 . S
C1724 C1726 1.561 . S
C1724 C1727 1.526 . S
C1725 H1709 0.959 . S
C1725 H1710 0.959 . S
C1725 H1711 0.961 . S
C1725 C1724 1.502 . S
C1726 H1712 0.960 . S
C1726 H1713 0.961 . S
C1726 H1714 0.959 . S
C1726 C1724 1.561 . S
C1727 C1724 1.526 . S
C1727 C1728 1.396 . S
C1727 C1732 1.390 . S
C1728 C1722 1.465 . S
C1728 C1727 1.396 . S
C1728 C1729 1.399 . S
C1729 H1715 0.929 . S
C1729 C1728 1.399 . S
C1729 C1730 1.385 . S
C1730 H1716 0.931 . S
C1730 C1729 1.385 . S
C1730 C1731 1.389 . S
C1731 C1730 1.389 . S
C1731 C1732 1.387 . S
C1732 H1717 0.930 . S
C1732 C1727 1.390 . S
C1732 C1731 1.387 . S
H1733 C1745 0.930 . S
H1734 C1747 0.930 1_554 S
H1735 C1748 0.930 . S
H1736 C1752 0.959 . S
H1737 C1752 0.959 . S
H1738 C1752 0.961 . S
H1739 C1753 0.960 . S
H1740 C1753 0.961 . S
H1741 C1753 0.959 . S
H1742 C1756 0.929 . S
H1743 C1757 0.931 . S
H1744 C1759 0.930 . S
C1745 H1733 0.930 . S
C1745 C1746 1.399 . S
C1745 C1750 1.399 . S
C1746 C1745 1.399 . S
C1746 C1747 1.376 . S
C1747 H1734 0.930 1_556 S
C1747 C1746 1.376 . S
C1747 C1748 1.388 . S
C1748 H1735 0.930 . S
C1748 C1747 1.388 . S
C1748 C1749 1.390 . S
C1749 C1748 1.390 . S
C1749 C1750 1.394 . S
C1749 C1755 1.465 . S
C1750 C1745 1.399 . S
C1750 C1749 1.394 . S
C1750 C1751 1.516 . S
C1751 C1750 1.516 . S
C1751 C1752 1.502 . S
C1751 C1753 1.561 . S
C1751 C1754 1.526 . S
C1752 H1736 0.959 . S
C1752 H1737 0.959 . S
C1752 H1738 0.961 . S
C1752 C1751 1.502 . S
C1753 H1739 0.960 . S
C1753 H1740 0.961 . S
C1753 H1741 0.959 . S
C1753 C1751 1.561 . S
C1754 C1751 1.526 . S
C1754 C1755 1.396 . S
C1754 C1759 1.390 . S
C1755 C1749 1.465 . S
C1755 C1754 1.396 . S
C1755 C1756 1.399 . S
C1756 H1742 0.929 . S
C1756 C1755 1.399 . S
C1756 C1757 1.385 . S
C1757 H1743 0.931 . S
C1757 C1756 1.385 . S
C1757 C1758 1.389 . S
C1758 C1757 1.389 . S
C1758 C1759 1.387 . S
C1759 H1744 0.930 . S
C1759 C1754 1.390 . S
C1759 C1758 1.387 . S
H1760 C1772 0.930 . S
H1761 C1774 0.930 . S
H1762 C1775 0.930 . S
H1763 C1779 0.959 . S
H1764 C1779 0.959 . S
H1765 C1779 0.961 . S
H1766 C1780 0.960 . S
H1767 C1780 0.961 . S
H1768 C1780 0.959 . S
H1769 C1783 0.929 . S
H1770 C1784 0.931 . S
H1771 C1786 0.930 . S
C1772 H1760 0.930 . S
C1772 C1773 1.399 . S
C1772 C1777 1.399 . S
C1773 C1772 1.399 . S
C1773 C1774 1.376 . S
C1774 H1761 0.930 . S
C1774 C1773 1.376 . S
C1774 C1775 1.388 . S
C1775 H1762 0.930 . S
C1775 C1774 1.388 . S
C1775 C1776 1.390 . S
C1776 C1775 1.390 . S
C1776 C1777 1.394 . S
C1776 C1782 1.465 . S
C1777 C1772 1.399 . S
C1777 C1776 1.394 . S
C1777 C1778 1.516 . S
C1778 C1777 1.516 . S
C1778 C1779 1.502 . S
C1778 C1780 1.561 . S
C1778 C1781 1.526 . S
C1779 H1763 0.959 . S
C1779 H1764 0.959 . S
C1779 H1765 0.961 . S
C1779 C1778 1.502 . S
C1780 H1766 0.960 . S
C1780 H1767 0.961 . S
C1780 H1768 0.959 . S
C1780 C1778 1.561 . S
C1781 C1778 1.526 . S
C1781 C1782 1.396 . S
C1781 C1786 1.390 . S
C1782 C1776 1.465 . S
C1782 C1781 1.396 . S
C1782 C1783 1.399 . S
C1783 H1769 0.929 . S
C1783 C1782 1.399 . S
C1783 C1784 1.385 . S
C1784 H1770 0.931 . S
C1784 C1783 1.385 . S
C1784 C1785 1.389 . S
C1785 C1784 1.389 . S
C1785 C1786 1.387 . S
C1786 H1771 0.930 . S
C1786 C1781 1.390 . S
C1786 C1785 1.387 . S
H1787 C1799 0.930 . S
H1788 C1801 0.930 . S
H1789 C1802 0.930 . S
H1790 C1806 0.959 . S
H1791 C1806 0.959 . S
H1792 C1806 0.961 . S
H1793 C1807 0.960 . S
H1794 C1807 0.961 . S
H1795 C1807 0.959 . S
H1796 C1810 0.929 . S
H1797 C1811 0.931 . S
H1798 C1813 0.930 . S
C1799 H1787 0.930 . S
C1799 C1800 1.399 . S
C1799 C1804 1.399 . S
C1800 C1799 1.399 . S
C1800 C1801 1.376 . S
C1801 H1788 0.930 . S
C1801 C1800 1.376 . S
C1801 C1802 1.388 . S
C1802 H1789 0.930 . S
C1802 C1801 1.388 . S
C1802 C1803 1.390 . S
C1803 C1802 1.390 . S
C1803 C1804 1.394 . S
C1803 C1809 1.465 . S
C1804 C1799 1.399 . S
C1804 C1803 1.394 . S
C1804 C1805 1.516 . S
C1805 C1804 1.516 . S
C1805 C1806 1.502 . S
C1805 C1807 1.561 . S
C1805 C1808 1.526 . S
C1806 H1790 0.959 . S
C1806 H1791 0.959 . S
C1806 H1792 0.961 . S
C1806 C1805 1.502 . S
C1807 H1793 0.960 . S
C1807 H1794 0.961 . S
C1807 H1795 0.959 . S
C1807 C1805 1.561 . S
C1808 C1805 1.526 . S
C1808 C1809 1.396 . S
C1808 C1813 1.390 . S
C1809 C1803 1.465 . S
C1809 C1808 1.396 . S
C1809 C1810 1.399 . S
C1810 H1796 0.929 . S
C1810 C1809 1.399 . S
C1810 C1811 1.385 . S
C1811 H1797 0.931 . S
C1811 C1810 1.385 . S
C1811 C1812 1.389 . S
C1812 C1811 1.389 . S
C1812 C1813 1.387 . S
C1813 H1798 0.930 . S
C1813 C1808 1.390 . S
C1813 C1812 1.387 . S
H1814 C1826 0.930 . S
H1815 C1828 0.930 . S
H1816 C1829 0.930 . S
H1817 C1833 0.959 . S
H1818 C1833 0.959 . S
H1819 C1833 0.961 . S
H1820 C1834 0.960 . S
H1821 C1834 0.961 . S
H1822 C1834 0.959 . S
H1823 C1837 0.929 . S
H1824 C1838 0.931 . S
H1825 C1840 0.930 . S
C1826 H1814 0.930 . S
C1826 C1827 1.399 . S
C1826 C1831 1.399 . S
C1827 C1826 1.399 . S
C1827 C1828 1.376 . S
C1828 H1815 0.930 . S
C1828 C1827 1.376 . S
C1828 C1829 1.388 . S
C1829 H1816 0.930 . S
C1829 C1828 1.388 . S
C1829 C1830 1.390 . S
C1830 C1829 1.390 . S
C1830 C1831 1.394 . S
C1830 C1836 1.465 . S
C1831 C1826 1.399 . S
C1831 C1830 1.394 . S
C1831 C1832 1.516 . S
C1832 C1831 1.516 . S
C1832 C1833 1.502 . S
C1832 C1834 1.561 . S
C1832 C1835 1.526 . S
C1833 H1817 0.959 . S
C1833 H1818 0.959 . S
C1833 H1819 0.961 . S
C1833 C1832 1.502 . S
C1834 H1820 0.960 . S
C1834 H1821 0.961 . S
C1834 H1822 0.959 . S
C1834 C1832 1.561 . S
C1835 C1832 1.526 . S
C1835 C1836 1.396 . S
C1835 C1840 1.390 . S
C1836 C1830 1.465 . S
C1836 C1835 1.396 . S
C1836 C1837 1.399 . S
C1837 H1823 0.929 . S
C1837 C1836 1.399 . S
C1837 C1838 1.385 . S
C1838 H1824 0.931 . S
C1838 C1837 1.385 . S
C1838 C1839 1.389 . S
C1839 C1838 1.389 . S
C1839 C1840 1.387 . S
C1840 H1825 0.930 . S
C1840 C1835 1.390 . S
C1840 C1839 1.387 . S
H1841 C1853 0.930 . S
H1842 C1855 0.930 . S
H1843 C1856 0.930 . S
H1844 C1860 0.959 1_655 S
H1845 C1860 0.959 1_655 S
H1846 C1860 0.961 . S
H1847 C1861 0.960 . S
H1848 C1861 0.961 . S
H1849 C1861 0.959 . S
H1850 C1864 0.929 . S
H1851 C1865 0.931 . S
H1852 C1867 0.930 . S
C1853 H1841 0.930 . S
C1853 C1854 1.399 . S
C1853 C1858 1.399 . S
C1854 C1853 1.399 . S
C1854 C1855 1.376 . S
C1855 H1842 0.930 . S
C1855 C1854 1.376 . S
C1855 C1856 1.388 . S
C1856 H1843 0.930 . S
C1856 C1855 1.388 . S
C1856 C1857 1.390 . S
C1857 C1856 1.390 . S
C1857 C1858 1.394 . S
C1857 C1863 1.465 . S
C1858 C1853 1.399 . S
C1858 C1857 1.394 . S
C1858 C1859 1.516 . S
C1859 C1858 1.516 . S
C1859 C1860 1.502 . S
C1859 C1861 1.561 . S
C1859 C1862 1.526 . S
C1860 H1844 0.959 1_455 S
C1860 H1845 0.959 1_455 S
C1860 H1846 0.961 . S
C1860 C1859 1.502 . S
C1861 H1847 0.960 . S
C1861 H1848 0.961 . S
C1861 H1849 0.959 . S
C1861 C1859 1.561 . S
C1862 C1859 1.526 . S
C1862 C1863 1.396 . S
C1862 C1867 1.390 1_455 S
C1863 C1857 1.465 . S
C1863 C1862 1.396 . S
C1863 C1864 1.399 . S
C1864 H1850 0.929 . S
C1864 C1863 1.399 . S
C1864 C1865 1.385 1_455 S
C1865 H1851 0.931 . S
C1865 C1864 1.385 1_655 S
C1865 C1866 1.389 . S
C1866 C1865 1.389 . S
C1866 C1867 1.387 . S
C1867 H1852 0.930 . S
C1867 C1862 1.390 1_655 S
C1867 C1866 1.387 . S
H1868 C1880 0.930 . S
H1869 C1882 0.930 . S
H1870 C1883 0.930 . S
H1871 C1887 0.959 . S
H1872 C1887 0.959 . S
H1873 C1887 0.961 . S
H1874 C1888 0.960 . S
H1875 C1888 0.961 . S
H1876 C1888 0.959 . S
H1877 C1891 0.929 . S
H1878 C1892 0.931 . S
H1879 C1894 0.930 . S
C1880 H1868 0.930 . S
C1880 C1881 1.399 . S
C1880 C1885 1.399 . S
C1881 C1880 1.399 . S
C1881 C1882 1.376 . S
C1882 H1869 0.930 . S
C1882 C1881 1.376 . S
C1882 C1883 1.388 . S
C1883 H1870 0.930 . S
C1883 C1882 1.388 . S
C1883 C1884 1.390 . S
C1884 C1883 1.390 . S
C1884 C1885 1.394 . S
C1884 C1890 1.465 . S
C1885 C1880 1.399 . S
C1885 C1884 1.394 . S
C1885 C1886 1.516 . S
C1886 C1885 1.516 . S
C1886 C1887 1.502 . S
C1886 C1888 1.561 . S
C1886 C1889 1.526 . S
C1887 H1871 0.959 . S
C1887 H1872 0.959 . S
C1887 H1873 0.961 . S
C1887 C1886 1.502 . S
C1888 H1874 0.960 . S
C1888 H1875 0.961 . S
C1888 H1876 0.959 . S
C1888 C1886 1.561 . S
C1889 C1886 1.526 . S
C1889 C1890 1.396 . S
C1889 C1894 1.390 . S
C1890 C1884 1.465 . S
C1890 C1889 1.396 . S
C1890 C1891 1.399 . S
C1891 H1877 0.929 . S
C1891 C1890 1.399 . S
C1891 C1892 1.385 . S
C1892 H1878 0.931 . S
C1892 C1891 1.385 . S
C1892 C1893 1.389 . S
C1893 C1892 1.389 . S
C1893 C1894 1.387 . S
C1894 H1879 0.930 . S
C1894 C1889 1.390 . S
C1894 C1893 1.387 . S
H1895 C1907 0.930 . S
H1896 C1909 0.930 . S
H1897 C1910 0.930 . S
H1898 C1914 0.959 . S
H1899 C1914 0.957 . S
H1900 C1914 0.961 . S
H1901 C1915 0.960 . S
H1902 C1915 0.961 . S
H1903 C1915 0.959 . S
H1904 C1918 0.929 . S
H1905 C1919 0.931 . S
H1906 C1921 0.930 . S
C1907 H1895 0.930 . S
C1907 C1908 1.399 . S
C1907 C1912 1.399 . S
C1908 C1907 1.399 . S
C1908 C1909 1.376 . S
C1909 H1896 0.930 . S
C1909 C1908 1.376 . S
C1909 C1910 1.388 1_655 S
C1910 H1897 0.930 . S
C1910 C1909 1.388 1_455 S
C1910 C1911 1.390 . S
C1911 C1910 1.390 . S
C1911 C1912 1.394 1_455 S
C1911 C1917 1.465 . S
C1912 C1907 1.399 . S
C1912 C1911 1.394 1_655 S
C1912 C1913 1.516 1_655 S
C1913 C1912 1.516 1_455 S
C1913 C1914 1.502 1_455 S
C1913 C1915 1.561 . S
C1913 C1916 1.526 . S
C1914 H1898 0.959 . S
C1914 H1899 0.957 . S
C1914 H1900 0.961 . S
C1914 C1913 1.502 1_655 S
C1915 H1901 0.960 . S
C1915 H1902 0.961 . S
C1915 H1903 0.959 . S
C1915 C1913 1.561 . S
C1916 C1913 1.526 . S
C1916 C1917 1.396 . S
C1916 C1921 1.390 . S
C1917 C1911 1.465 . S
C1917 C1916 1.396 . S
C1917 C1918 1.399 . S
C1918 H1904 0.929 . S
C1918 C1917 1.399 . S
C1918 C1919 1.385 . S
C1919 H1905 0.931 . S
C1919 C1918 1.385 . S
C1919 C1920 1.389 . S
C1920 C1919 1.389 . S
C1920 C1921 1.387 . S
C1921 H1906 0.930 . S
C1921 C1916 1.390 . S
C1921 C1920 1.387 . S
H1922 C1934 0.930 . S
H1923 C1936 0.930 . S
H1924 C1937 0.930 . S
H1925 C1941 0.959 . S
H1926 C1941 0.959 . S
H1927 C1941 0.961 . S
H1928 C1942 0.960 . S
H1929 C1942 0.961 . S
H1930 C1942 0.959 . S
H1931 C1945 0.929 . S
H1932 C1946 0.931 . S
H1933 C1948 0.930 . S
C1934 H1922 0.930 . S
C1934 C1935 1.399 . S
C1934 C1939 1.399 . S
C1935 C1934 1.399 . S
C1935 C1936 1.376 . S
C1936 H1923 0.930 . S
C1936 C1935 1.376 . S
C1936 C1937 1.388 . S
C1937 H1924 0.930 . S
C1937 C1936 1.388 . S
C1937 C1938 1.390 . S
C1938 C1937 1.390 . S
C1938 C1939 1.394 . S
C1938 C1944 1.465 . S
C1939 C1934 1.399 . S
C1939 C1938 1.394 . S
C1939 C1940 1.516 . S
C1940 C1939 1.516 . S
C1940 C1941 1.502 . S
C1940 C1942 1.561 . S
C1940 C1943 1.526 . S
C1941 H1925 0.959 . S
C1941 H1926 0.959 . S
C1941 H1927 0.961 . S
C1941 C1940 1.502 . S
C1942 H1928 0.960 . S
C1942 H1929 0.961 . S
C1942 H1930 0.959 . S
C1942 C1940 1.561 . S
C1943 C1940 1.526 . S
C1943 C1944 1.396 . S
C1943 C1948 1.390 . S
C1944 C1938 1.465 . S
C1944 C1943 1.396 . S
C1944 C1945 1.399 . S
C1945 H1931 0.929 . S
C1945 C1944 1.399 . S
C1945 C1946 1.385 . S
C1946 H1932 0.931 . S
C1946 C1945 1.385 . S
C1946 C1947 1.389 . S
C1947 C1946 1.389 . S
C1947 C1948 1.387 . S
C1948 H1933 0.930 . S
C1948 C1943 1.390 . S
C1948 C1947 1.387 . S
H1949 C1961 0.930 . S
H1950 C1963 0.930 1_556 S
H1951 C1964 0.930 . S
H1952 C1968 0.959 . S
H1953 C1968 0.959 . S
H1954 C1968 0.961 . S
H1955 C1969 0.960 . S
H1956 C1969 0.961 . S
H1957 C1969 0.959 . S
H1958 C1972 0.929 . S
H1959 C1973 0.931 . S
H1960 C1975 0.930 . S
C1961 H1949 0.930 . S
C1961 C1962 1.399 . S
C1961 C1966 1.399 . S
C1962 C1961 1.399 . S
C1962 C1963 1.376 . S
C1963 H1950 0.930 1_554 S
C1963 C1962 1.376 . S
C1963 C1964 1.388 . S
C1964 H1951 0.930 . S
C1964 C1963 1.388 . S
C1964 C1965 1.390 . S
C1965 C1964 1.390 . S
C1965 C1966 1.394 . S
C1965 C1971 1.465 . S
C1966 C1961 1.399 . S
C1966 C1965 1.394 . S
C1966 C1967 1.516 . S
C1967 C1966 1.516 . S
C1967 C1968 1.502 . S
C1967 C1969 1.561 . S
C1967 C1970 1.526 . S
C1968 H1952 0.959 . S
C1968 H1953 0.959 . S
C1968 H1954 0.961 . S
C1968 C1967 1.502 . S
C1969 H1955 0.960 . S
C1969 H1956 0.961 . S
C1969 H1957 0.959 . S
C1969 C1967 1.561 . S
C1970 C1967 1.526 . S
C1970 C1971 1.396 . S
C1970 C1975 1.390 . S
C1971 C1965 1.465 . S
C1971 C1970 1.396 . S
C1971 C1972 1.399 . S
C1972 H1958 0.929 . S
C1972 C1971 1.399 . S
C1972 C1973 1.385 . S
C1973 H1959 0.931 . S
C1973 C1972 1.385 . S
C1973 C1974 1.389 . S
C1974 C1973 1.389 . S
C1974 C1975 1.387 . S
C1975 H1960 0.930 . S
C1975 C1970 1.390 . S
C1975 C1974 1.387 . S
C477 C224 0.406 . S
C489 C21 0.476 . S
C504 C137 0.515 . S
C516 C50 0.456 . S
C531 C166 0.420 . S
C543 C79 0.548 . S
C558 C195 0.462 . S
C570 C108 0.513 . S
C585 C253 0.461 . S
C597 C456 0.429 . S
C612 C282 0.286 . S
C624 C369 0.370 . S
C639 C398 0.501 . S
C651 C311 0.499 . S
C666 C427 0.501 . S
C678 C340 0.594 . S
C693 C187 2.349 . S
C705 C15 2.346 . S
C720 C44 2.728 . S
C732 C218 2.746 . S
C747 C131 2.288 . S
C759 C71 2.430 . S
C774 C158 2.391 . S
C786 C100 2.343 . S
C801 C247 2.510 . S
C813 C421 2.487 . S
C828 C450 2.686 . S
C840 C276 2.693 . S
C855 C303 2.347 . S
C867 C361 2.342 . S
C882 C334 2.290 . S
C894 C390 2.374 . S
C909 C42 2.642 . S
C921 C160 2.620 . S
C936 C189 2.455 . S
C948 C73 2.498 . S
C963 C102 2.146 . S
C975 C216 2.143 . S
C990 C129 2.633 . S
C1002 C13 2.645 . S
C1017 C392 2.413 . S
C1029 C274 2.488 . S
C1044 C305 2.687 . S
C1056 C419 2.706 . S
C1071 C448 2.356 . S
C1083 C332 2.345 . S
C1098 C245 2.358 . S
C1110 C363 2.331 . S
C1125 C271 1.558 . S
C1137 C8 1.584 . S
C1152 C440 1.712 1_554 S
C1164 C37 1.564 . S
C1179 C61 2.177 . S
C1191 C329 1.984 . S
C1206 C387 1.402 . S
C1218 C90 1.571 . S
C1233 C445 1.627 . S
C1245 C124 1.485 . S
C1260 C324 1.852 . S
C1272 C148 1.886 . S
C1287 C177 2.071 . S
C1299 C382 2.082 . S
C1314 C211 1.204 . S
C1326 C266 1.381 . S
C1341 C39 1.489 . S
C1353 C240 1.525 . S
C1368 C269 1.842 . S
C1380 C208 1.974 1_556 S
C1395 C92 2.033 . S
C1407 C293 2.054 . S
C1422 C327 1.458 . S
C1434 C155 1.443 . S
C1449 C213 1.274 . S
C1461 C351 1.442 . S
C1476 C97 2.038 1_554 S
C1488 C380 2.126 . S
C1503 C414 1.831 . S
C1515 C150 1.917 . S
C1530 C34 1.587 . S
C1542 C443 1.555 . S
C1557 C411 1.445 . S
C1569 C153 1.225 . S
C1584 C295 1.854 . S
C1596 C182 1.655 . S
C1611 C206 2.289 . S
C1623 C358 2.209 . S
C1638 C119 1.759 . S
C1650 C242 1.572 1_554 S
C1665 C300 1.382 . S
C1677 C95 1.421 . S
C1692 C353 1.691 . S
C1704 C3 1.726 . S
C1719 C237 1.930 . S
C1731 C32 2.001 . S
C1746 C416 1.488 1_556 S
C1758 C66 1.527 . S
C1773 C184 1.275 . S
C1785 C385 1.370 . S
C1800 C63 1.870 . S
C1812 C409 1.874 . S
C1827 C121 1.901 . S
C1839 C438 1.916 . S
C1854 C10 1.748 1_556 S
C1866 C356 1.622 . S
C1881 C68 1.582 . S
C1893 C322 1.619 . S
C1908 C235 1.992 . S
C1920 C126 1.886 . S
C1935 C5 1.821 . S
C1947 C264 1.863 . S
C1962 C179 1.399 1_554 S
C1974 C298 1.341 . S
