# Generated by pormake.
# Topology whz, (6)-cn, num edge types: 1
# Building blocks:
#     Node 0, Type 0, BuildingBlock: UKALOJ_clean_sbu_0, # of connection points: 6
#     Node 1, Type 0, BuildingBlock: UKALOJ_clean_sbu_0, # of connection points: 6
#     Node 2, Type 0, BuildingBlock: UKALOJ_clean_sbu_0, # of connection points: 6
#     Node 3, Type 0, BuildingBlock: UKALOJ_clean_sbu_0, # of connection points: 6
#     Node 4, Type 0, BuildingBlock: UKALOJ_clean_sbu_0, # of connection points: 6
#     Node 5, Type 0, BuildingBlock: UKALOJ_clean_sbu_0, # of connection points: 6
#     Node 6, Type 0, BuildingBlock: UKALOJ_clean_sbu_0, # of connection points: 6
#     Node 7, Type 0, BuildingBlock: UKALOJ_clean_sbu_0, # of connection points: 6
#     Node 8, Type 0, BuildingBlock: UKALOJ_clean_sbu_0, # of connection points: 6
#     Node 9, Type 0, BuildingBlock: UKALOJ_clean_sbu_0, # of connection points: 6
#     Node 10, Type 0, BuildingBlock: UKALOJ_clean_sbu_0, # of connection points: 6
#     Node 11, Type 0, BuildingBlock: UKALOJ_clean_sbu_0, # of connection points: 6
#     Node 12, Type 0, BuildingBlock: UKALOJ_clean_sbu_0, # of connection points: 6
#     Node 13, Type 0, BuildingBlock: UKALOJ_clean_sbu_0, # of connection points: 6
#     Node 14, Type 0, BuildingBlock: UKALOJ_clean_sbu_0, # of connection points: 6
#     Node 15, Type 0, BuildingBlock: UKALOJ_clean_sbu_0, # of connection points: 6
#     Edge 16, Type (0, 0), BuildingBlock: AJUNOK_clean_linker_0, # of connection points: 2
#     Edge 17, Type (0, 0), BuildingBlock: AJUNOK_clean_linker_0, # of connection points: 2
#     Edge 18, Type (0, 0), BuildingBlock: AJUNOK_clean_linker_0, # of connection points: 2
#     Edge 19, Type (0, 0), BuildingBlock: AJUNOK_clean_linker_0, # of connection points: 2
#     Edge 20, Type (0, 0), BuildingBlock: AJUNOK_clean_linker_0, # of connection points: 2
#     Edge 21, Type (0, 0), BuildingBlock: AJUNOK_clean_linker_0, # of connection points: 2
#     Edge 22, Type (0, 0), BuildingBlock: AJUNOK_clean_linker_0, # of connection points: 2
#     Edge 23, Type (0, 0), BuildingBlock: AJUNOK_clean_linker_0, # of connection points: 2
#     Edge 24, Type (0, 0), BuildingBlock: AJUNOK_clean_linker_0, # of connection points: 2
#     Edge 25, Type (0, 0), BuildingBlock: AJUNOK_clean_linker_0, # of connection points: 2
#     Edge 26, Type (0, 0), BuildingBlock: AJUNOK_clean_linker_0, # of connection points: 2
#     Edge 27, Type (0, 0), BuildingBlock: AJUNOK_clean_linker_0, # of connection points: 2
#     Edge 28, Type (0, 0), BuildingBlock: AJUNOK_clean_linker_0, # of connection points: 2
#     Edge 29, Type (0, 0), BuildingBlock: AJUNOK_clean_linker_0, # of connection points: 2
#     Edge 30, Type (0, 0), BuildingBlock: AJUNOK_clean_linker_0, # of connection points: 2
#     Edge 31, Type (0, 0), BuildingBlock: AJUNOK_clean_linker_0, # of connection points: 2
#     Edge 32, Type (0, 0), BuildingBlock: AJUNOK_clean_linker_0, # of connection points: 2
#     Edge 33, Type (0, 0), BuildingBlock: AJUNOK_clean_linker_0, # of connection points: 2
#     Edge 34, Type (0, 0), BuildingBlock: AJUNOK_clean_linker_0, # of connection points: 2
#     Edge 35, Type (0, 0), BuildingBlock: AJUNOK_clean_linker_0, # of connection points: 2
#     Edge 36, Type (0, 0), BuildingBlock: AJUNOK_clean_linker_0, # of connection points: 2
#     Edge 37, Type (0, 0), BuildingBlock: AJUNOK_clean_linker_0, # of connection points: 2
#     Edge 38, Type (0, 0), BuildingBlock: AJUNOK_clean_linker_0, # of connection points: 2
#     Edge 39, Type (0, 0), BuildingBlock: AJUNOK_clean_linker_0, # of connection points: 2
#     Edge 40, Type (0, 0), BuildingBlock: AJUNOK_clean_linker_0, # of connection points: 2
#     Edge 41, Type (0, 0), BuildingBlock: AJUNOK_clean_linker_0, # of connection points: 2
#     Edge 42, Type (0, 0), BuildingBlock: AJUNOK_clean_linker_0, # of connection points: 2
#     Edge 43, Type (0, 0), BuildingBlock: AJUNOK_clean_linker_0, # of connection points: 2
#     Edge 44, Type (0, 0), BuildingBlock: AJUNOK_clean_linker_0, # of connection points: 2
#     Edge 45, Type (0, 0), BuildingBlock: AJUNOK_clean_linker_0, # of connection points: 2
#     Edge 46, Type (0, 0), BuildingBlock: AJUNOK_clean_linker_0, # of connection points: 2
#     Edge 47, Type (0, 0), BuildingBlock: AJUNOK_clean_linker_0, # of connection points: 2
#     Edge 48, Type (0, 0), BuildingBlock: AJUNOK_clean_linker_0, # of connection points: 2
#     Edge 49, Type (0, 0), BuildingBlock: AJUNOK_clean_linker_0, # of connection points: 2
#     Edge 50, Type (0, 0), BuildingBlock: AJUNOK_clean_linker_0, # of connection points: 2
#     Edge 51, Type (0, 0), BuildingBlock: AJUNOK_clean_linker_0, # of connection points: 2
#     Edge 52, Type (0, 0), BuildingBlock: AJUNOK_clean_linker_0, # of connection points: 2
#     Edge 53, Type (0, 0), BuildingBlock: AJUNOK_clean_linker_0, # of connection points: 2
#     Edge 54, Type (0, 0), BuildingBlock: AJUNOK_clean_linker_0, # of connection points: 2
#     Edge 55, Type (0, 0), BuildingBlock: AJUNOK_clean_linker_0, # of connection points: 2
#     Edge 56, Type (0, 0), BuildingBlock: AJUNOK_clean_linker_0, # of connection points: 2
#     Edge 57, Type (0, 0), BuildingBlock: AJUNOK_clean_linker_0, # of connection points: 2
#     Edge 58, Type (0, 0), BuildingBlock: AJUNOK_clean_linker_0, # of connection points: 2
#     Edge 59, Type (0, 0), BuildingBlock: AJUNOK_clean_linker_0, # of connection points: 2
#     Edge 60, Type (0, 0), BuildingBlock: AJUNOK_clean_linker_0, # of connection points: 2
#     Edge 61, Type (0, 0), BuildingBlock: AJUNOK_clean_linker_0, # of connection points: 2
#     Edge 62, Type (0, 0), BuildingBlock: AJUNOK_clean_linker_0, # of connection points: 2
#     Edge 63, Type (0, 0), BuildingBlock: AJUNOK_clean_linker_0, # of connection points: 2
# Relax obj value: 0.352
# Max RMSD: 0.242
# Mean RMSD: 0.242
data_MOF--net-whz--node1-UKALOJ_clean_sbu_0--edge1-AJUNOK_clean_linker_0
_symmetry_space_group_name_H-M    P1
_symmetry_Int_Tables_number       1
_symmetry_cell_setting            triclinic
loop_
_symmetry_equiv_pos_as_xyz
'x, y, z'
_cell_length_a     32.284002
_cell_length_b     32.298066
_cell_length_c     33.608727
_cell_angle_alpha  90.01779
_cell_angle_beta   89.892216
_cell_angle_gamma 90.028845
loop_
_atom_site_label
_atom_site_type_symbol
_atom_site_fract_x
_atom_site_fract_y
_atom_site_fract_z
_atom_type_partial_charge
Zn0 Zn 0.31254 0.15845 0.12122 0.0
O1 O 0.31602 0.19161 0.17576 0.0
C2 C 0.31996 0.07792 0.16373 0.0
Zn3 Zn 0.25061 0.13313 0.13735 0.0
C4 C 0.28502 0.18882 0.19903 0.0
O5 O 0.2564 0.16352 0.19097 0.0
C6 C 0.27022 0.10929 0.05562 0.0
O7 O 0.22018 0.1857 0.11556 0.0
O8 O 0.28127 0.21042 0.09854 0.0
N9 N 0.19783 0.10906 0.15992 0.0
C10 C 0.15813 0.10608 0.14818 0.0
C11 C 0.16269 0.07722 0.20518 0.0
N12 N 0.20045 0.09136 0.19539 0.0
N13 N 0.1355 0.08648 0.1763 0.0
C14 C 0.40305 0.19694 0.12063 0.0
C15 C 0.41101 0.20929 0.05886 0.0
N16 N 0.36836 0.18371 0.10192 0.0
N17 N 0.37358 0.19151 0.06358 0.0
N18 N 0.43025 0.21346 0.09419 0.0
H19 H 0.3959 0.16268 0.17504 0.0
H20 H 0.39715 0.21784 0.18068 0.0
H21 H 0.44461 0.1903 0.17047 0.0
C22 C 0.41089 0.19143 0.1642 0.0
C23 C 0.14219 0.12093 0.10884 0.0
H24 H 0.1673 0.12219 0.08642 0.0
H25 H 0.12975 0.15271 0.11247 0.0
H26 H 0.11685 0.10063 0.09803 0.0
O27 O 0.24295 0.10461 0.08248 0.0
O28 O 0.30414 0.12773 0.06388 0.0
C29 C 0.24221 0.21475 0.10129 0.0
O30 O 0.34302 0.10553 0.14795 0.0
O31 O 0.28105 0.08145 0.16051 0.0
Zn32 Zn 0.60341 0.55821 0.37229 0.0
O33 O 0.56842 0.56108 0.42577 0.0
C34 C 0.68237 0.56169 0.41715 0.0
Zn35 Zn 0.62701 0.49467 0.38524 0.0
C36 C 0.56724 0.52744 0.44534 0.0
O37 O 0.59125 0.49816 0.43591 0.0
C38 C 0.65656 0.51856 0.30749 0.0
O39 O 0.57645 0.46618 0.35798 0.0
O40 O 0.55139 0.52868 0.34748 0.0
N41 N 0.64816 0.44002 0.40708 0.0
C42 C 0.653 0.40114 0.39333 0.0
C43 C 0.67315 0.40172 0.45379 0.0
N44 N 0.6605 0.44013 0.44464 0.0
N45 N 0.66837 0.37648 0.4223 0.0
C46 C 0.56495 0.64895 0.37221 0.0
C47 C 0.56376 0.66153 0.31003 0.0
N48 N 0.58093 0.61537 0.35353 0.0
N49 N 0.58002 0.62348 0.31492 0.0
N50 N 0.55393 0.67833 0.3455 0.0
H51 H 0.53349 0.63818 0.42714 0.0
H52 H 0.5608 0.68681 0.42502 0.0
H53 H 0.58914 0.63878 0.43088 0.0
C54 C 0.5621 0.65366 0.41642 0.0
C55 C 0.64408 0.38806 0.35141 0.0
H56 H 0.61135 0.37777 0.34946 0.0
H57 H 0.66443 0.36204 0.34229 0.0
H58 H 0.64811 0.41423 0.33053 0.0
O59 O 0.66092 0.49008 0.33311 0.0
O60 O 0.63569 0.55086 0.31611 0.0
C61 C 0.54714 0.48952 0.34658 0.0
O62 O 0.65659 0.58641 0.40091 0.0
O63 O 0.67656 0.5231 0.41375 0.0
Zn64 Zn 0.20289 0.85581 0.61909 0.0
O65 O 0.20614 0.8245 0.67469 0.0
C66 C 0.19305 0.9371 0.66078 0.0
Zn67 Zn 0.26423 0.88492 0.63307 0.0
C68 C 0.23747 0.82939 0.69729 0.0
O69 O 0.2647 0.85619 0.68835 0.0
C70 C 0.23618 0.90561 0.55151 0.0
O71 O 0.29648 0.83375 0.6106 0.0
O72 O 0.23667 0.80538 0.59455 0.0
N73 N 0.31714 0.91684 0.64586 0.0
C74 C 0.35508 0.90748 0.65996 0.0
C75 C 0.3529 0.97289 0.65191 0.0
N76 N 0.316 0.9575 0.64095 0.0
N77 N 0.37798 0.94224 0.66428 0.0
C78 C 0.11282 0.81432 0.62433 0.0
C79 C 0.10184 0.802 0.563 0.0
N80 N 0.14696 0.82693 0.60409 0.0
N81 N 0.13983 0.81897 0.56605 0.0
N82 N 0.0841 0.79852 0.59913 0.0
H83 H 0.1206 0.79097 0.68312 0.0
H84 H 0.07396 0.82065 0.6762 0.0
H85 H 0.12396 0.84639 0.67936 0.0
C86 C 0.1073 0.81864 0.66832 0.0
C87 C 0.36891 0.86477 0.6708 0.0
H88 H 0.34265 0.84678 0.68299 0.0
H89 H 0.39429 0.86575 0.693 0.0
H90 H 0.38026 0.84887 0.64362 0.0
O91 O 0.26467 0.91159 0.57673 0.0
O92 O 0.20419 0.88492 0.56133 0.0
C93 C 0.27604 0.80343 0.59657 0.0
O94 O 0.17077 0.90784 0.64677 0.0
O95 O 0.23196 0.93491 0.65686 0.0
Zn96 Zn 0.88882 0.51805 0.88846 0.0
O97 O 0.94272 0.54487 0.86492 0.0
C98 C 0.86276 0.49789 0.80725 0.0
Zn99 Zn 0.91143 0.45507 0.87171 0.0
C100 C 0.97031 0.52201 0.84922 0.0
O101 O 0.9641 0.48322 0.84655 0.0
C102 C 0.83095 0.4523 0.91623 0.0
O103 O 0.94555 0.45127 0.92552 0.0
O104 O 0.91961 0.5115 0.94154 0.0
N105 N 0.93324 0.39727 0.85387 0.0
C106 C 0.94626 0.36325 0.87382 0.0
C107 C 0.9542 0.35092 0.81205 0.0
N108 N 0.93829 0.38933 0.81551 0.0
N109 N 0.95983 0.33383 0.84819 0.0
C110 C 0.85545 0.60908 0.89262 0.0
C111 C 0.85252 0.6174 0.9556 0.0
N112 N 0.86895 0.57377 0.90944 0.0
N113 N 0.86711 0.57913 0.94852 0.0
N114 N 0.84507 0.63672 0.921 0.0
H115 H 0.88114 0.60359 0.83388 0.0
H116 H 0.85139 0.65039 0.84217 0.0
H117 H 0.8255 0.6013 0.83648 0.0
C118 C 0.8534 0.61678 0.84873 0.0
C119 C 0.94348 0.35808 0.91801 0.0
H120 H 0.97148 0.37165 0.93197 0.0
H121 H 0.94183 0.32483 0.92617 0.0
H122 H 0.91589 0.37451 0.92979 0.0
O123 O 0.85756 0.42824 0.90018 0.0
O124 O 0.83601 0.49111 0.91329 0.0
C125 C 0.94393 0.48197 0.9491 0.0
O126 O 0.85996 0.52553 0.83393 0.0
O127 O 0.87995 0.46332 0.81525 0.0
Zn128 Zn 0.76643 0.8787 0.86837 0.0
O129 O 0.79327 0.82433 0.88963 0.0
C130 C 0.74842 0.90321 0.94997 0.0
Zn131 Zn 0.70298 0.85655 0.88461 0.0
C132 C 0.77006 0.79623 0.90388 0.0
O133 O 0.73123 0.80229 0.90695 0.0
C134 C 0.70078 0.93873 0.84378 0.0
O135 O 0.69719 0.82421 0.82972 0.0
O136 O 0.75813 0.84924 0.81456 0.0
N137 N 0.64535 0.835 0.90408 0.0
C138 C 0.61059 0.82152 0.88555 0.0
C139 C 0.60044 0.81476 0.94782 0.0
N140 N 0.6387 0.83068 0.94276 0.0
N141 N 0.58208 0.80853 0.91237 0.0
C142 C 0.85946 0.90547 0.86092 0.0
C143 C 0.86046 0.92471 0.80014 0.0
N144 N 0.82126 0.89922 0.8461 0.0
N145 N 0.82208 0.91102 0.80834 0.0
N146 N 0.88456 0.92118 0.8325 0.0
H147 H 0.85414 0.8725 0.91631 0.0
H148 H 0.90473 0.89518 0.90726 0.0
H149 H 0.86153 0.9274 0.92074 0.0
C150 C 0.87087 0.89948 0.9037 0.0
C151 C 0.60372 0.82299 0.84158 0.0
H152 H 0.62123 0.84905 0.82814 0.0
H153 H 0.61454 0.79355 0.82822 0.0
H154 H 0.57026 0.82642 0.83483 0.0
O155 O 0.67607 0.912 0.85876 0.0
O156 O 0.73941 0.93238 0.84606 0.0
C157 C 0.72802 0.82582 0.80616 0.0
O158 O 0.77607 0.90607 0.92325 0.0
O159 O 0.71356 0.88654 0.94185 0.0
Zn160 Zn 0.38151 0.51918 0.62092 0.0
O161 O 0.43389 0.54959 0.6451 0.0
C162 C 0.36064 0.49119 0.70237 0.0
Zn163 Zn 0.40769 0.4562 0.63338 0.0
C164 C 0.46342 0.52667 0.65714 0.0
O165 O 0.45916 0.4875 0.65653 0.0
C166 C 0.32783 0.44864 0.59144 0.0
O167 O 0.43718 0.45928 0.57647 0.0
O168 O 0.41035 0.52103 0.56629 0.0
N169 N 0.43511 0.39924 0.64766 0.0
C170 C 0.45262 0.36746 0.62724 0.0
C171 C 0.45761 0.35301 0.68885 0.0
N172 N 0.43829 0.38979 0.68587 0.0
N173 N 0.46689 0.33799 0.65255 0.0
C174 C 0.36092 0.61185 0.59943 0.0
C175 C 0.29494 0.60883 0.60053 0.0
N176 N 0.35046 0.57264 0.60879 0.0
N177 N 0.30946 0.57095 0.60926 0.0
N178 N 0.32659 0.63504 0.59407 0.0
H179 H 0.42495 0.60121 0.58489 0.0
H180 H 0.40552 0.65217 0.57172 0.0
H181 H 0.41565 0.6393 0.62275 0.0
C182 C 0.40436 0.6269 0.59407 0.0
C183 C 0.45863 0.36726 0.58312 0.0
H184 H 0.48266 0.39047 0.57539 0.0
H185 H 0.46905 0.33667 0.57208 0.0
H186 H 0.42934 0.37627 0.56821 0.0
O187 O 0.35541 0.42568 0.60714 0.0
O188 O 0.33098 0.48758 0.59524 0.0
C189 C 0.43414 0.49198 0.55535 0.0
O190 O 0.35457 0.51937 0.6769 0.0
O191 O 0.38004 0.45847 0.6923 0.0
Zn192 Zn 0.80888 0.16009 0.38762 0.0
O193 O 0.80953 0.19485 0.33381 0.0
C194 C 0.81975 0.07987 0.34434 0.0
Zn195 Zn 0.74863 0.13142 0.37133 0.0
C196 C 0.77892 0.18979 0.31057 0.0
O197 O 0.753 0.16158 0.31784 0.0
C198 C 0.76964 0.10796 0.4527 0.0
O199 O 0.71623 0.1831 0.3928 0.0
O200 O 0.7754 0.20972 0.41249 0.0
N201 N 0.69689 0.10533 0.34891 0.0
C202 C 0.65748 0.10015 0.36092 0.0
C203 C 0.66299 0.07309 0.30317 0.0
N204 N 0.70009 0.08874 0.31298 0.0
N205 N 0.63567 0.0799 0.33268 0.0
C206 C 0.8978 0.20257 0.38655 0.0
C207 C 0.90644 0.21499 0.44819 0.0
N208 N 0.86437 0.18712 0.40602 0.0
N209 N 0.87016 0.19476 0.44431 0.0
N210 N 0.92458 0.22046 0.41241 0.0
H211 H 0.88591 0.2303 0.33015 0.0
H212 H 0.93523 0.20496 0.33308 0.0
H213 H 0.88825 0.17459 0.32923 0.0
C214 C 0.90232 0.20287 0.3422 0.0
C215 C 0.64098 0.11373 0.40052 0.0
H216 H 0.62264 0.14245 0.39654 0.0
H217 H 0.62022 0.08962 0.41309 0.0
H218 H 0.66638 0.12041 0.42164 0.0
O219 O 0.7422 0.10278 0.42619 0.0
O220 O 0.80281 0.12773 0.4443 0.0
C221 C 0.73629 0.21273 0.40854 0.0
O222 O 0.84128 0.10932 0.35896 0.0
O223 O 0.78081 0.08081 0.34845 0.0
Zn224 Zn 0.13135 0.49627 0.11874 0.0
O225 O 0.07901 0.46849 0.1434 0.0
C226 C 0.15732 0.5188 0.19849 0.0
Zn227 Zn 0.10498 0.55856 0.13359 0.0
C228 C 0.04947 0.48992 0.15749 0.0
O229 O 0.05293 0.52917 0.15901 0.0
C230 C 0.18601 0.56282 0.08905 0.0
O231 O 0.07108 0.56054 0.07956 0.0
O232 O 0.09932 0.50068 0.06615 0.0
N233 N 0.08237 0.61661 0.15183 0.0
C234 C 0.06076 0.64785 0.13453 0.0
C235 C 0.06762 0.66341 0.19573 0.0
N236 N 0.08661 0.62681 0.18978 0.0
N237 N 0.05103 0.6775 0.16158 0.0
C238 C 0.16191 0.40447 0.11509 0.0
C239 C 0.16803 0.39689 0.05223 0.0
N240 N 0.15185 0.44083 0.09815 0.0
N241 N 0.15571 0.43597 0.05915 0.0
N242 N 0.17176 0.37651 0.08684 0.0
H243 H 0.13488 0.41251 0.17308 0.0
H244 H 0.1593 0.36259 0.16513 0.0
H245 H 0.19038 0.40837 0.17222 0.0
C246 C 0.16136 0.39628 0.15893 0.0
C247 C 0.04692 0.64783 0.09205 0.0
H248 H 0.02259 0.62394 0.08815 0.0
H249 H 0.03388 0.67813 0.08308 0.0
H250 H 0.07344 0.64005 0.07239 0.0
O251 O 0.15841 0.58626 0.10451 0.0
O252 O 0.1825 0.52396 0.09279 0.0
C253 C 0.07431 0.52908 0.05703 0.0
O254 O 0.16207 0.49069 0.17253 0.0
O255 O 0.13692 0.55143 0.18999 0.0
Zn256 Zn 0.80617 0.66446 0.62063 0.0
O257 O 0.80485 0.69959 0.67403 0.0
C258 C 0.81728 0.58525 0.66596 0.0
Zn259 Zn 0.74587 0.63442 0.63617 0.0
C260 C 0.77359 0.69501 0.69671 0.0
O261 O 0.74732 0.66726 0.68871 0.0
C262 C 0.77082 0.60929 0.55634 0.0
O263 O 0.71323 0.68369 0.61166 0.0
O264 O 0.77188 0.71331 0.59414 0.0
N265 N 0.69334 0.60792 0.65732 0.0
C266 C 0.65378 0.6055 0.64496 0.0
C267 C 0.65715 0.57565 0.70152 0.0
N268 N 0.69524 0.58954 0.6925 0.0
N269 N 0.63045 0.58572 0.67244 0.0
C270 C 0.89552 0.70677 0.62322 0.0
C271 C 0.90522 0.71999 0.56187 0.0
N272 N 0.86204 0.69223 0.60322 0.0
N273 N 0.8685 0.70041 0.56512 0.0
N274 N 0.92303 0.72458 0.59786 0.0
H275 H 0.88343 0.73406 0.67982 0.0
H276 H 0.93212 0.70746 0.67713 0.0
H277 H 0.88422 0.6784 0.68009 0.0
C278 C 0.89933 0.70637 0.66761 0.0
C279 C 0.63874 0.62103 0.60555 0.0
H280 H 0.62898 0.65379 0.60879 0.0
H281 H 0.61183 0.60266 0.59506 0.0
H282 H 0.66389 0.6198 0.58309 0.0
O283 O 0.74287 0.6033 0.58232 0.0
O284 O 0.80244 0.63136 0.56472 0.0
C285 C 0.73247 0.71408 0.5964 0.0
O286 O 0.8387 0.61433 0.65043 0.0
O287 O 0.77834 0.58588 0.66191 0.0
Zn288 Zn 0.10314 0.06038 0.87018 0.0
O289 O 0.07212 0.05668 0.92601 0.0
C290 C 0.1844 0.06873 0.91157 0.0
Zn291 Zn 0.13058 0.99879 0.88393 0.0
C292 C 0.07778 0.02586 0.94908 0.0
O293 O 0.1047 0.99887 0.94014 0.0
C294 C 0.14972 0.02542 0.80125 0.0
O295 O 0.07742 0.96782 0.8632 0.0
O296 O 0.0521 0.02839 0.84595 0.0
N297 N 0.16137 0.94555 0.89532 0.0
C298 C 0.15192 0.90805 0.91038 0.0
C299 C 0.21648 0.90799 0.89668 0.0
N300 N 0.20148 0.94539 0.88706 0.0
N301 N 0.18611 0.88397 0.91147 0.0
C302 C 0.05653 0.14804 0.87569 0.0
C303 C 0.053 0.16273 0.81401 0.0
N304 N 0.07536 0.11684 0.85559 0.0
N305 N 0.07306 0.12639 0.81735 0.0
N306 N 0.04231 0.17728 0.85013 0.0
H307 H 0.02623 0.12374 0.92704 0.0
H308 H 0.03745 0.17804 0.93052 0.0
H309 H 0.07868 0.14012 0.93526 0.0
C310 C 0.04941 0.14792 0.91971 0.0
C311 C 0.10998 0.89588 0.92555 0.0
H312 H 0.09421 0.92251 0.93962 0.0
H313 H 0.11236 0.87006 0.94721 0.0
H314 H 0.09065 0.88572 0.90023 0.0
O315 O 0.15446 0.99683 0.82655 0.0
O316 O 0.13214 0.05901 0.81169 0.0
C317 C 0.04807 0.98926 0.84864 0.0
O318 O 0.15512 0.09128 0.89814 0.0
O319 O 0.18257 0.02996 0.90624 0.0
Zn320 Zn 0.76935 0.37543 0.13663 0.0
O321 O 0.79693 0.32249 0.11204 0.0
C322 C 0.7468 0.40167 0.05735 0.0
Zn323 Zn 0.70565 0.35141 0.1239 0.0
C324 C 0.77337 0.29341 0.1003 0.0
O325 O 0.73423 0.29822 0.10036 0.0
C326 C 0.70284 0.43207 0.16648 0.0
O327 O 0.70285 0.31905 0.17926 0.0
O328 O 0.76502 0.34355 0.18923 0.0
N329 N 0.64722 0.32962 0.10582 0.0
C330 C 0.61691 0.30614 0.12245 0.0
C331 C 0.59775 0.31992 0.06334 0.0
N332 N 0.63487 0.33806 0.06913 0.0
N333 N 0.58556 0.29983 0.09642 0.0
C334 C 0.86147 0.40577 0.14263 0.0
C335 C 0.86304 0.42127 0.20443 0.0
N336 N 0.82392 0.39704 0.1579 0.0
N337 N 0.82509 0.40662 0.19623 0.0
N338 N 0.8865 0.42079 0.1714 0.0
H339 H 0.85845 0.37434 0.08639 0.0
H340 H 0.90578 0.40368 0.09407 0.0
H341 H 0.85785 0.42976 0.08363 0.0
C342 C 0.87189 0.40298 0.09926 0.0
C343 C 0.61941 0.28691 0.16281 0.0
H344 H 0.6466 0.26595 0.16374 0.0
H345 H 0.59135 0.2686 0.17005 0.0
H346 H 0.62342 0.31158 0.18544 0.0
O347 O 0.6784 0.40544 0.15117 0.0
O348 O 0.74155 0.42708 0.16249 0.0
C349 C 0.7357 0.32033 0.20006 0.0
O350 O 0.77545 0.40576 0.08281 0.0
O351 O 0.71368 0.38223 0.06652 0.0
Zn352 Zn 0.38929 0.01383 0.38746 0.0
O353 O 0.44316 0.0402 0.36428 0.0
C354 C 0.36356 0.99288 0.30679 0.0
Zn355 Zn 0.41149 0.95007 0.37288 0.0
C356 C 0.47073 0.01664 0.3496 0.0
O357 O 0.46444 0.9778 0.34827 0.0
C358 C 0.33007 0.94872 0.41504 0.0
O359 O 0.44503 0.94606 0.42771 0.0
O360 O 0.41967 0.00714 0.44103 0.0
N361 N 0.43324 0.89233 0.35441 0.0
C362 C 0.45062 0.85934 0.3729 0.0
C363 C 0.45514 0.84852 0.31054 0.0
N364 N 0.43594 0.88513 0.3157 0.0
N365 N 0.46483 0.83155 0.34592 0.0
C366 C 0.35617 0.10504 0.39227 0.0
C367 C 0.354 0.11281 0.45536 0.0
N368 N 0.36974 0.06956 0.40864 0.0
N369 N 0.36837 0.07458 0.44778 0.0
N370 N 0.34617 0.13248 0.42102 0.0
H371 H 0.3817 0.10005 0.33344 0.0
H372 H 0.352 0.14682 0.34218 0.0
H373 H 0.32612 0.09772 0.33612 0.0
C374 C 0.354 0.11315 0.34845 0.0
C375 C 0.4562 0.85589 0.41698 0.0
H376 H 0.4836 0.8744 0.42593 0.0
H377 H 0.46148 0.82343 0.42626 0.0
H378 H 0.42847 0.86821 0.43254 0.0
O379 O 0.35676 0.92372 0.40046 0.0
O380 O 0.33608 0.98735 0.41153 0.0
C381 C 0.44276 0.97728 0.45062 0.0
O382 O 0.36076 0.02138 0.33262 0.0
O383 O 0.38067 0.95856 0.31589 0.0
Zn384 Zn 0.26708 0.37338 0.36965 0.0
O385 O 0.29323 0.32009 0.39452 0.0
C386 C 0.24462 0.40039 0.44885 0.0
Zn387 Zn 0.20347 0.34957 0.38282 0.0
C388 C 0.26972 0.29153 0.40745 0.0
O389 O 0.23066 0.29666 0.40795 0.0
C390 C 0.20226 0.43033 0.33888 0.0
O391 O 0.20059 0.31529 0.32849 0.0
O392 O 0.26187 0.34157 0.31696 0.0
N393 N 0.14503 0.32898 0.4009 0.0
C394 C 0.11142 0.31287 0.38235 0.0
C395 C 0.09733 0.31528 0.44422 0.0
N396 N 0.13594 0.33026 0.43933 0.0
N397 N 0.08107 0.30403 0.40896 0.0
C398 C 0.35918 0.40356 0.36588 0.0
C399 C 0.36619 0.4105 0.30303 0.0
N400 N 0.32296 0.39279 0.34907 0.0
N401 N 0.32749 0.39707 0.31009 0.0
N402 N 0.38668 0.41479 0.33753 0.0
H403 H 0.35272 0.37377 0.42273 0.0
H404 H 0.40166 0.40042 0.41545 0.0
H405 H 0.35467 0.42923 0.42436 0.0
C406 C 0.36785 0.40145 0.40962 0.0
C407 C 0.10767 0.30787 0.33825 0.0
H408 H 0.12411 0.27926 0.32904 0.0
H409 H 0.07474 0.30537 0.32914 0.0
H410 H 0.12224 0.3346 0.32291 0.0
O411 O 0.17755 0.40365 0.35389 0.0
O412 O 0.24091 0.42552 0.34352 0.0
C413 C 0.23279 0.31779 0.30672 0.0
O414 O 0.2735 0.40377 0.42344 0.0
O415 O 0.21123 0.38154 0.43962 0.0
Zn416 Zn 0.91489 0.95266 0.13713 0.0
O417 O 0.95089 0.94862 0.08408 0.0
C418 C 0.83498 0.94794 0.09179 0.0
Zn419 Zn 0.89136 0.01482 0.11895 0.0
C420 C 0.94859 0.9785 0.05957 0.0
O421 O 0.9229 0.00731 0.06591 0.0
C422 C 0.86439 0.996 0.20031 0.0
O423 O 0.94422 0.04272 0.14197 0.0
O424 O 0.96624 0.98232 0.16319 0.0
N425 N 0.87087 0.06986 0.0971 0.0
C426 C 0.85941 0.10599 0.11375 0.0
C427 C 0.85169 0.1122 0.05096 0.0
N428 N 0.86615 0.07388 0.05812 0.0
N429 N 0.84722 0.13289 0.08539 0.0
C430 C 0.95068 0.8608 0.13823 0.0
C431 C 0.95759 0.85109 0.20049 0.0
N432 N 0.93711 0.89556 0.15673 0.0
N433 N 0.94157 0.88922 0.1954 0.0
N434 N 0.96375 0.83236 0.16511 0.0
H435 H 0.92315 0.87162 0.08094 0.0
H436 H 0.9786 0.86581 0.08083 0.0
H437 H 0.94622 0.82084 0.08703 0.0
C438 C 0.94934 0.85424 0.09417 0.0
C439 C 0.86163 0.11532 0.15736 0.0
H440 H 0.88963 0.10089 0.17046 0.0
H441 H 0.86225 0.14921 0.16278 0.0
H442 H 0.83402 0.10209 0.17241 0.0
O443 O 0.86216 0.02335 0.17333 0.0
O444 O 0.88143 0.96122 0.19275 0.0
C445 C 0.97164 0.02114 0.15926 0.0
O446 O 0.86222 0.9245 0.10766 0.0
O447 O 0.83901 0.98685 0.09471 0.0
Zn448 Zn 0.31058 0.66419 0.88429 0.0
O449 O 0.31254 0.70046 0.83141 0.0
C450 C 0.31849 0.58494 0.83933 0.0
Zn451 Zn 0.2487 0.63893 0.86719 0.0
C452 C 0.28176 0.69875 0.80792 0.0
O453 O 0.25322 0.67279 0.8147 0.0
C454 C 0.27099 0.61068 0.94716 0.0
O455 O 0.21741 0.68857 0.89185 0.0
O456 O 0.27726 0.7141 0.91099 0.0
N457 N 0.19588 0.61426 0.84472 0.0
C458 C 0.15702 0.60799 0.85804 0.0
C459 C 0.16044 0.58328 0.79921 0.0
N460 N 0.19774 0.59914 0.80812 0.0
N461 N 0.13428 0.58848 0.82999 0.0
C462 C 0.40036 0.70545 0.88548 0.0
C463 C 0.40718 0.71733 0.94742 0.0
N464 N 0.36635 0.68987 0.90391 0.0
N465 N 0.37106 0.69714 0.9424 0.0
N466 N 0.42635 0.72322 0.91221 0.0
H467 H 0.38932 0.67978 0.82732 0.0
H468 H 0.39425 0.73543 0.82928 0.0
H469 H 0.43948 0.70376 0.83322 0.0
C470 C 0.4063 0.70585 0.84128 0.0
C471 C 0.14191 0.61968 0.8987 0.0
H472 H 0.16797 0.62632 0.91906 0.0
H473 H 0.12264 0.648 0.89638 0.0
H474 H 0.12233 0.59458 0.9112 0.0
O475 O 0.24308 0.60731 0.92082 0.0
O476 O 0.30425 0.63042 0.93942 0.0
C477 C 0.23795 0.71716 0.90855 0.0
O478 O 0.34196 0.61246 0.8548 0.0
O479 O 0.27969 0.5894 0.84195 0.0
Zn480 Zn 0.62655 0.9968 0.62709 0.0
O481 O 0.57532 0.9671 0.65309 0.0
C482 C 0.65182 0.02799 0.70674 0.0
Zn483 Zn 0.601 0.05969 0.63962 0.0
C484 C 0.54675 0.98962 0.66765 0.0
O485 O 0.55075 0.02886 0.66743 0.0
C486 C 0.68011 0.06518 0.59418 0.0
O487 O 0.56741 0.05438 0.58539 0.0
O488 O 0.59596 0.99397 0.57293 0.0
N489 N 0.57395 0.11676 0.65291 0.0
C490 C 0.56021 0.14948 0.63141 0.0
C491 C 0.55138 0.16445 0.69254 0.0
N492 N 0.56819 0.12635 0.69083 0.0
N493 N 0.54578 0.17981 0.65569 0.0
C494 C 0.64512 0.90439 0.60465 0.0
C495 C 0.7111 0.90557 0.60814 0.0
N496 N 0.65635 0.94289 0.61569 0.0
N497 N 0.6973 0.94344 0.61778 0.0
N498 N 0.67907 0.88047 0.59963 0.0
H499 H 0.58358 0.91633 0.58301 0.0
H500 H 0.60026 0.86297 0.57838 0.0
H501 H 0.58628 0.88421 0.62628 0.0
C502 C 0.60134 0.89108 0.59733 0.0
C503 C 0.56281 0.15229 0.58704 0.0
H504 H 0.59053 0.13555 0.576 0.0
H505 H 0.53497 0.13747 0.57397 0.0
H506 H 0.56387 0.18508 0.57722 0.0
O507 O 0.6525 0.0891 0.60876 0.0
O508 O 0.67661 0.02659 0.59971 0.0
C509 C 0.56989 0.02181 0.56405 0.0
O510 O 0.65529 0.99822 0.68245 0.0
O511 O 0.63243 0.06056 0.69641 0.0
C512 C 0.24417 0.21394 0.25705 0.0
C513 C 0.27557 0.22123 0.22865 0.0
C514 C 0.22782 0.24613 0.28015 0.0
C515 C 0.24235 0.28684 0.27583 0.0
H516 H 0.23161 0.1831 0.26108 0.0
H517 H 0.20472 0.23877 0.30247 0.0
S518 S 0.32232 0.32311 0.20426 0.0
N519 N 0.31931 0.27274 0.19654 0.0
N520 N 0.28869 0.33322 0.24001 0.0
C521 C 0.27327 0.29473 0.24717 0.0
C522 C 0.29006 0.26194 0.22379 0.0
C523 C 0.47919 0.5414 0.51857 0.0
C524 C 0.46453 0.50056 0.52371 0.0
C525 C 0.51267 0.55013 0.49341 0.0
C526 C 0.53278 0.51826 0.47278 0.0
H527 H 0.46575 0.56675 0.53521 0.0
H528 H 0.52331 0.58183 0.49069 0.0
S529 S 0.50139 0.4073 0.47053 0.0
N530 N 0.46922 0.42902 0.50253 0.0
N531 N 0.53214 0.44486 0.45507 0.0
C532 C 0.517 0.47753 0.47611 0.0
C533 C 0.48287 0.46882 0.50163 0.0
C534 C 0.22774 0.75929 0.72685 0.0
C535 C 0.24733 0.79816 0.72811 0.0
C536 C 0.24083 0.72671 0.75118 0.0
C537 C 0.27397 0.73153 0.778 0.0
H538 H 0.20267 0.7535 0.7062 0.0
H539 H 0.22433 0.69755 0.74924 0.0
S540 S 0.33486 0.82767 0.7939 0.0
N541 N 0.30119 0.83997 0.75897 0.0
N542 N 0.32549 0.77877 0.80499 0.0
C543 C 0.29382 0.77028 0.77969 0.0
C544 C 0.28047 0.80357 0.75485 0.0
C545 C 0.9702 0.52108 0.00739 0.0
C546 C 0.97638 0.48957 0.97899 0.0
C547 C 1.00281 0.53583 0.03073 0.0
C548 C 0.0429 0.51958 0.02665 0.0
H549 H 0.93994 0.53509 0.01116 0.0
H550 H 0.99617 0.55922 0.05295 0.0
S551 S 0.07599 0.43749 0.95591 0.0
N552 N 0.02594 0.44313 0.94759 0.0
N553 N 0.08735 0.47068 0.99163 0.0
C554 C 0.04962 0.48809 0.99831 0.0
C555 C 0.01633 0.47294 0.97463 0.0
C556 C 0.76994 0.79788 0.75015 0.0
C557 C 0.73489 0.79418 0.77501 0.0
C558 C 0.78348 0.76495 0.7265 0.0
C559 C 0.76237 0.72694 0.72639 0.0
H560 H 0.78794 0.8262 0.74968 0.0
H561 H 0.81037 0.76967 0.70771 0.0
S562 S 0.66752 0.70161 0.78458 0.0
N563 N 0.67861 0.74972 0.79714 0.0
N564 N 0.70361 0.68781 0.7524 0.0
C565 C 0.72668 0.72299 0.75048 0.0
C566 C 0.71291 0.75665 0.77461 0.0
C567 C 0.78661 0.28124 0.24095 0.0
C568 C 0.74481 0.28908 0.23094 0.0
C569 C 0.79768 0.24841 0.26583 0.0
C570 C 0.76747 0.22191 0.28143 0.0
H571 H 0.81139 0.3 0.22876 0.0
H572 H 0.83011 0.24368 0.27271 0.0
S573 S 0.65333 0.2319 0.26847 0.0
N574 N 0.67305 0.26975 0.24146 0.0
N575 N 0.69341 0.20762 0.28794 0.0
C576 C 0.72539 0.22997 0.27258 0.0
C577 C 0.71418 0.26368 0.24746 0.0
C578 C 0.9742 0.01673 1.00035 0.0
C579 C 0.98099 0.98596 0.02929 0.0
C580 C 1.00636 0.03122 0.97622 0.0
C581 C 0.04673 0.01543 0.97982 0.0
H582 H 0.94379 0.03042 0.99674 0.0
H583 H 0.99912 0.05421 0.95383 0.0
S584 S 0.08135 0.93498 0.05132 0.0
N585 N 0.03141 0.94048 0.06054 0.0
N586 N 0.09198 0.96746 0.01477 0.0
C587 C 0.05405 0.98449 0.00849 0.0
C588 C 0.02117 0.96967 0.03315 0.0
C589 C 0.51239 0.96659 0.48116 0.0
C590 C 0.47265 0.98422 0.48318 0.0
C591 C 0.54417 0.98004 0.50649 0.0
C592 C 0.53748 0.01186 0.5345 0.0
H593 H 0.51952 0.94345 0.45883 0.0
H594 H 0.5743 0.96552 0.50394 0.0
S595 S 0.43757 0.06492 0.55446 0.0
N596 N 0.4274 0.03275 0.51758 0.0
N597 N 0.48707 0.05828 0.56473 0.0
C598 C 0.49751 0.02885 0.53756 0.0
C599 C 0.46512 0.01485 0.51215 0.0
C600 C 0.20509 0.12057 0.96325 0.0
C601 C 0.21478 0.08482 0.94119 0.0
C602 C 0.22554 0.12948 0.99907 0.0
C603 C 0.2569 0.10348 0.01395 0.0
H604 H 0.17931 0.14003 0.95461 0.0
H605 H 0.21512 0.15577 0.01648 0.0
S606 S 0.29843 0.00967 0.96512 0.0
N607 N 0.26149 0.02581 0.93491 0.0
N608 N 0.29968 0.04314 1.00228 0.0
C609 C 0.26938 0.06971 0.99082 0.0
C610 C 0.24845 0.06034 0.95435 0.0
C611 C 0.70708 0.50751 0.25257 0.0
C612 C 0.66601 0.50823 0.26586 0.0
C613 C 0.71789 0.4863 0.21764 0.0
C614 C 0.68819 0.46376 0.1955 0.0
H615 H 0.73134 0.52121 0.27051 0.0
H616 H 0.75043 0.48498 0.20982 0.0
S617 S 0.57545 0.45961 0.21688 0.0
N618 N 0.59482 0.48826 0.25306 0.0
N619 N 0.61505 0.44724 0.18803 0.0
C620 C 0.64645 0.46686 0.20723 0.0
C621 C 0.63544 0.4892 0.2424 0.0
C622 C 0.24871 0.95462 0.49605 0.0
C623 C 0.24646 0.91372 0.5096 0.0
C624 C 0.27248 0.96482 0.46249 0.0
C625 C 0.29618 0.93467 0.44208 0.0
H626 H 0.23454 0.9793 0.51317 0.0
H627 H 0.27488 0.99727 0.45467 0.0
S628 S 0.29676 0.82209 0.46401 0.0
N629 N 0.26597 0.84215 0.49825 0.0
N630 N 0.3118 0.86125 0.43585 0.0
C631 C 0.29139 0.89308 0.45362 0.0
C632 C 0.26638 0.88267 0.48734 0.0
C633 C 0.8091 0.52369 0.7107 0.0
C634 C 0.83494 0.55517 0.69495 0.0
C635 C 0.8195 0.50226 0.74568 0.0
C636 C 0.85635 0.51117 0.76578 0.0
H637 H 0.77914 0.51746 0.69751 0.0
H638 H 0.79743 0.48068 0.75837 0.0
S639 S 0.93753 0.58586 0.73485 0.0
N640 N 0.90127 0.59045 0.70054 0.0
N641 N 0.92076 0.54995 0.76591 0.0
C642 C 0.88402 0.53982 0.74876 0.0
C643 C 0.87347 0.56174 0.71329 0.0
C644 C 0.81207 0.89404 0.04318 0.0
C645 C 0.80412 0.93161 0.06293 0.0
C646 C 0.79129 0.88384 0.00789 0.0
C647 C 0.7613 0.91038 0.99143 0.0
H648 H 0.83685 0.87395 0.0531 0.0
H649 H 0.8005 0.85609 0.99203 0.0
S650 S 0.72434 0.00909 0.03432 0.0
N651 N 0.76039 0.99313 0.06559 0.0
N652 N 0.7215 0.97337 0.99923 0.0
C653 C 0.75042 0.94614 0.01242 0.0
C654 C 0.77172 0.95681 0.04829 0.0
C655 C 0.37325 0.55536 0.7944 0.0
C656 C 0.33426 0.55154 0.81269 0.0
C657 C 0.38342 0.53155 0.76076 0.0
C658 C 0.35516 0.50297 0.7444 0.0
H659 H 0.39463 0.57925 0.80389 0.0
H660 H 0.41226 0.53807 0.74542 0.0
S661 S 0.25214 0.47593 0.78481 0.0
N662 N 0.26971 0.51211 0.81516 0.0
N663 N 0.28889 0.46876 0.75125 0.0
C664 C 0.31784 0.49606 0.76436 0.0
C665 C 0.30747 0.51991 0.79881 0.0
C666 C 0.72913 0.12901 0.51191 0.0
C667 C 0.75698 0.10083 0.49434 0.0
C668 C 0.70701 0.11893 0.54663 0.0
C669 C 0.71166 0.08002 0.5649 0.0
H670 H 0.72233 0.15806 0.49715 0.0
H671 H 0.68394 0.14057 0.5574 0.0
S672 S 0.78507 0.99748 0.53293 0.0
N673 N 0.79095 0.03431 0.4993 0.0
N674 N 0.75043 0.0151 0.56495 0.0
C675 C 0.7421 0.05293 0.54918 0.0
C676 C 0.76438 0.0633 0.5137 0.0
C677 C 0.21807 0.48449 0.28777 0.0
C678 C 0.18806 0.46215 0.3098 0.0
C679 C 0.20756 0.50633 0.25316 0.0
C680 C 0.16649 0.50793 0.24005 0.0
H681 H 0.25059 0.48262 0.29545 0.0
H682 H 0.23203 0.51988 0.23529 0.0
S683 S 0.07529 0.45985 0.28873 0.0
N684 N 0.1147 0.44653 0.31726 0.0
N685 N 0.09505 0.48871 0.25283 0.0
C686 C 0.13568 0.48894 0.26335 0.0
C687 C 0.14638 0.46594 0.29821 0.0
C688 C 0.73655 0.6289 0.4935 0.0
C689 C 0.76018 0.5998 0.51481 0.0
C690 C 0.71419 0.61741 0.45942 0.0
C691 C 0.71465 0.5763 0.44557 0.0
H692 H 0.73271 0.66 0.50507 0.0
H693 H 0.69406 0.64013 0.44576 0.0
S694 S 0.77726 0.49018 0.48801 0.0
N695 N 0.78628 0.52973 0.51792 0.0
N696 N 0.74587 0.50783 0.45319 0.0
C697 C 0.74146 0.54793 0.46476 0.0
C698 C 0.76368 0.55969 0.4997 0.0
C699 C 0.12835 0.98365 0.7432 0.0
C700 C 0.15506 0.01394 0.75906 0.0
C701 C 0.13854 0.96172 0.70844 0.0
C702 C 0.17616 0.969 0.6885 0.0
H703 H 0.10078 0.97463 0.7595 0.0
H704 H 0.11853 0.93653 0.69929 0.0
S705 S 0.25357 0.04993 0.71481 0.0
N706 N 0.21805 0.0535 0.75009 0.0
N707 N 0.23739 0.01319 0.68435 0.0
C708 C 0.20116 1.00216 0.7021 0.0
C709 C 0.19068 0.02433 0.7376 0.0
C710 C 0.78193 0.38353 0.99435 0.0
C711 C 0.75691 0.41146 0.01568 0.0
C712 C 0.8027 0.39567 0.95951 0.0
C713 C 0.7995 0.43642 0.94499 0.0
H714 H 0.78787 0.35292 0.00628 0.0
H715 H 0.8239 0.37391 0.94581 0.0
S716 S 0.73276 0.51938 0.9875 0.0
N717 N 0.72654 0.47988 0.01815 0.0
N718 N 0.76461 0.50306 0.95233 0.0
C719 C 0.77149 0.46349 0.96437 0.0
C720 C 0.75058 0.451 0.99995 0.0
C721 C 0.30788 0.01955 0.21156 0.0
C722 C 0.33606 0.04711 0.19297 0.0
C723 C 0.31784 0.99893 0.2471 0.0
C724 C 0.35662 1.00441 0.26488 0.0
H725 H 0.27666 0.01616 0.20027 0.0
H726 H 0.29421 0.98078 0.26199 0.0
S727 S 0.44366 0.06773 0.22629 0.0
N728 N 0.40621 0.07471 0.19355 0.0
N729 N 0.42482 0.03554 0.25993 0.0
C730 C 0.38627 0.02879 0.24508 0.0
C731 C 0.37615 0.05005 0.20907 0.0
C732 C 0.27093 0.45998 0.5419 0.0
C733 C 0.29746 0.4321 0.56202 0.0
C734 C 0.25054 0.44871 0.5066 0.0
C735 C 0.25511 0.4089 0.4907 0.0
H736 H 0.26821 0.4918 0.55176 0.0
H737 H 0.23331 0.472 0.49039 0.0
S738 S 0.3162 0.32263 0.53346 0.0
N739 N 0.32359 0.36146 0.56466 0.0
N740 N 0.2847 0.34043 0.49881 0.0
C741 C 0.27855 0.37975 0.512 0.0
C742 C 0.29968 0.39121 0.54768 0.0
C743 C 0.88184 0.04236 0.25642 0.0
C744 C 0.85742 0.00965 0.24168 0.0
C745 C 0.87222 0.06214 0.29242 0.0
C746 C 0.83725 0.0504 0.31472 0.0
H747 H 0.9075 0.05413 0.2389 0.0
H748 H 0.89034 0.08892 0.301 0.0
S749 S 0.76638 0.96294 0.29118 0.0
N750 N 0.79964 0.96349 0.25375 0.0
N751 N 0.78076 1.00069 0.32136 0.0
C752 C 0.81443 0.01555 0.30166 0.0
C753 C 0.82462 0.9952 0.26508 0.0
C754 C 0.21104 0.61819 0.04278 0.0
C755 C 0.21689 0.57893 0.05996 0.0
C756 C 0.23161 0.62931 0.00757 0.0
C757 C 0.25906 0.60185 0.98854 0.0
H758 H 0.18807 0.63926 0.05472 0.0
H759 H 0.22398 0.65863 0.99372 0.0
S760 S 0.2904 0.4983 0.02411 0.0
N761 N 0.25659 0.51461 0.05756 0.0
N762 N 0.29449 0.53592 0.99105 0.0
C763 C 0.26793 0.5641 0.00687 0.0
C764 C 0.24714 0.55263 0.04281 0.0
C765 C 0.6324 0.99586 0.77069 0.0
C766 C 0.66139 0.01907 0.74867 0.0
C767 C 0.64435 0.973 0.80432 0.0
C768 C 0.68586 0.97245 0.81702 0.0
H769 H 0.60101 0.99239 0.75976 0.0
H770 H 0.62164 0.953 0.81828 0.0
S771 S 0.77196 0.03414 0.77296 0.0
N772 N 0.73183 0.04412 0.74413 0.0
N773 N 0.75461 1.00275 0.80802 0.0
C774 C 0.71412 0.99921 0.79749 0.0
C775 C 0.70187 0.02198 0.763 0.0
C776 C 0.50299 0.2215 0.07297 0.0
C777 C 0.47077 0.23188 0.09947 0.0
C778 C 0.54094 0.24281 0.07322 0.0
C779 C 0.54836 0.27527 0.10012 0.0
H780 H 0.4983 0.19731 0.05111 0.0
H781 H 0.56445 0.23451 0.05163 0.0
S782 S 0.47385 0.31657 0.17405 0.0
N783 N 0.4485 0.27834 0.15225 0.0
N784 N 0.52024 0.31769 0.15321 0.0
C785 C 0.5168 0.28574 0.12715 0.0
C786 C 0.47792 0.26421 0.12675 0.0
C787 C 0.49705 0.7224 0.37186 0.0
C788 C 0.53476 0.71835 0.35103 0.0
C789 C 0.4749 0.7601 0.37175 0.0
C790 C 0.48998 0.79495 0.3511 0.0
H791 H 0.48365 0.69573 0.38655 0.0
H792 H 0.44498 0.76147 0.3863 0.0
S793 S 0.5887 0.80124 0.29502 0.0
N794 N 0.58708 0.753 0.3113 0.0
N795 N 0.54597 0.82356 0.31154 0.0
C796 C 0.52835 0.79157 0.33163 0.0
C797 C 0.55061 0.75339 0.33152 0.0
C798 C 0.99545 0.72661 0.62368 0.0
C799 C 0.96164 0.74628 0.60502 0.0
C800 C 0.03518 0.74515 0.62437 0.0
C801 C 0.04244 0.78373 0.6061 0.0
H802 H 0.99174 0.69577 0.63578 0.0
H803 H 0.06085 0.72823 0.63717 0.0
S804 S 0.96418 0.8489 0.55567 0.0
N805 N 0.93803 0.80752 0.57002 0.0
N806 N 0.01231 0.84162 0.57074 0.0
C807 C 0.00864 0.80417 0.58877 0.0
C808 C 0.96843 0.78562 0.58832 0.0
C809 C 0.96138 0.25896 0.83431 0.0
C810 C 0.97714 0.29322 0.8552 0.0
C811 C 0.98152 0.22044 0.83503 0.0
C812 C 0.0184 0.21453 0.85655 0.0
H813 H 0.93396 0.26249 0.81611 0.0
H814 H 0.9691 0.19535 0.8173 0.0
S815 S 0.07348 0.29473 0.91506 0.0
N816 N 0.03215 0.3189 0.89775 0.0
N817 N 0.07035 0.24657 0.89867 0.0
C818 C 0.03411 0.24826 0.87831 0.0
C819 C 0.01339 0.28757 0.87776 0.0
C820 C 0.53707 0.75201 0.88709 0.0
C821 C 0.54165 0.79031 0.90668 0.0
C822 C 0.49884 0.73068 0.88739 0.0
C823 C 0.46377 0.74735 0.90667 0.0
H824 H 0.56377 0.73752 0.87339 0.0
H825 H 0.49736 0.7001 0.87431 0.0
S826 S 0.45922 0.84808 0.95951 0.0
N827 N 0.50776 0.84462 0.94422 0.0
N828 N 0.43598 0.80553 0.94382 0.0
C829 C 0.46786 0.78636 0.92488 0.0
C830 C 0.50669 0.80761 0.92505 0.0
C831 C 0.52753 0.29404 0.66608 0.0
C832 C 0.49002 0.30027 0.6457 0.0
C833 C 0.54692 0.25513 0.66691 0.0
C834 C 0.52975 0.22069 0.6473 0.0
H835 H 0.54101 0.31918 0.68301 0.0
H836 H 0.57475 0.2514 0.68448 0.0
S837 S 0.43176 0.22008 0.59005 0.0
N838 N 0.43627 0.26847 0.60552 0.0
N839 N 0.47311 0.19538 0.60664 0.0
C840 C 0.49303 0.22669 0.62558 0.0
C841 C 0.47305 0.26644 0.62492 0.0
C842 C 0.03544 0.24683 0.38588 0.0
C843 C 0.04043 0.28603 0.40367 0.0
C844 C 0.99693 0.22602 0.38702 0.0
C845 C 0.9621 0.24397 0.4056 0.0
H846 H 0.06197 0.2313 0.37298 0.0
H847 H 0.99492 0.19494 0.37512 0.0
S848 S 0.95835 0.34729 0.45348 0.0
N849 N 1.00684 0.34265 0.43834 0.0
N850 N 0.9348 0.30413 0.43994 0.0
C851 C 0.96652 0.28377 0.42193 0.0
C852 C 1.00552 0.30466 0.42105 0.0
C853 C 0.03649 0.74686 0.13238 0.0
C854 C 0.02556 0.71419 0.15814 0.0
C855 C 0.01491 0.78494 0.13316 0.0
C856 C 0.98179 0.79163 0.15984 0.0
H857 H 0.06297 0.74356 0.11283 0.0
H858 H 0.02552 0.8099 0.11424 0.0
S859 S 0.9396 0.71494 0.23134 0.0
N860 N 0.97832 0.69046 0.20942 0.0
N861 N 0.93806 0.76145 0.21098 0.0
C862 C 0.96997 0.75866 0.18471 0.0
C863 C 0.99176 0.72016 0.18386 0.0
C864 C 0.24648 0.2911 0.10645 0.0
C865 C 0.22387 0.25579 0.09493 0.0
C866 C 0.22869 0.3305 0.10491 0.0
C867 C 0.18814 0.33578 0.09117 0.0
H868 H 0.27777 0.28819 0.11771 0.0
H869 H 0.24677 0.35713 0.11399 0.0
S870 S 0.11636 0.25412 0.05661 0.0
N871 N 0.15882 0.22883 0.06932 0.0
N872 N 0.12601 0.30361 0.0651 0.0
C873 C 0.16538 0.30111 0.07903 0.0
C874 C 0.18311 0.26083 0.08132 0.0
C875 C 0.46066 0.41551 0.32055 0.0
C876 C 0.42696 0.43273 0.34128 0.0
C877 C 0.49976 0.43439 0.32154 0.0
C878 C 0.50562 0.47181 0.34204 0.0
H879 H 0.45665 0.38715 0.30379 0.0
H880 H 0.52543 0.41983 0.30614 0.0
S881 S 0.4269 0.52903 0.40095 0.0
N882 N 0.40171 0.48878 0.38273 0.0
N883 N 0.47488 0.52479 0.38435 0.0
C884 C 0.47196 0.4894 0.3626 0.0
C885 C 0.4326 0.46972 0.36224 0.0
C886 C 0.28267 0.7361 0.56077 0.0
C887 C 0.29656 0.7632 0.5906 0.0
C888 C 0.29532 0.69457 0.56025 0.0
C889 C 0.32206 0.67891 0.58958 0.0
H890 H 0.2604 0.74656 0.53889 0.0
H891 H 0.2825 0.67393 0.53806 0.0
S892 S 0.3649 0.73645 0.67545 0.0
N893 N 0.33788 0.77116 0.65053 0.0
N894 N 0.36078 0.69307 0.64979 0.0
C895 C 0.33706 0.70592 0.61881 0.0
C896 C 0.32453 0.74817 0.61922 0.0
C897 C 0.0199 0.58146 0.84821 0.0
C898 C 0.01136 0.53966 0.83926 0.0
C899 C 0.06007 0.59747 0.84486 0.0
C900 C 0.09299 0.5723 0.83238 0.0
H901 H 0.99567 0.60178 0.859 0.0
H902 H 0.06546 0.62966 0.85215 0.0
S903 S 0.08734 0.46192 0.80289 0.0
N904 N 0.03936 0.47414 0.81523 0.0
N905 N 0.11474 0.50456 0.80926 0.0
C906 C 0.08479 0.5311 0.82182 0.0
C907 C 0.044 0.51468 0.8252 0.0
C908 C 0.82854 0.75115 0.92507 0.0
C909 C 0.78757 0.75499 0.9114 0.0
C910 C 0.84725 0.71218 0.92837 0.0
C911 C 0.82592 0.67629 0.91696 0.0
H912 H 0.84626 0.77842 0.93304 0.0
H913 H 0.87873 0.70999 0.93924 0.0
S914 S 0.71873 0.66934 0.87912 0.0
N915 N 0.7263 0.71933 0.88665 0.0
N916 N 0.76225 0.64625 0.89222 0.0
C917 C 0.78513 0.67956 0.90343 0.0
C918 C 0.76571 0.71896 0.90081 0.0
C919 C 0.57857 0.53077 0.67641 0.0
C920 C 0.58813 0.57265 0.67066 0.0
C921 C 0.53776 0.51671 0.67411 0.0
C922 C 0.50483 0.54412 0.66615 0.0
H923 H 0.60309 0.50858 0.68168 0.0
H924 H 0.53235 0.48378 0.67736 0.0
S925 S 0.51376 0.65822 0.6552 0.0
N926 N 0.56193 0.64227 0.66129 0.0
N927 N 0.48469 0.61615 0.65685 0.0
C928 C 0.51396 0.58663 0.66262 0.0
C929 C 0.55577 0.60084 0.66481 0.0
C930 C 0.73947 0.28582 0.43187 0.0
C931 C 0.71584 0.2529 0.41645 0.0
C932 C 0.72343 0.3259 0.43386 0.0
C933 C 0.68329 0.33473 0.4204 0.0
H934 H 0.77113 0.28098 0.44141 0.0
H935 H 0.74297 0.35054 0.44508 0.0
S936 S 0.60667 0.25939 0.38206 0.0
N937 N 0.64869 0.23156 0.3903 0.0
N938 N 0.61855 0.30723 0.39513 0.0
C939 C 0.65847 0.30208 0.40677 0.0
C940 C 0.67474 0.26106 0.40461 0.0
C941 C 0.93504 0.47843 0.17858 0.0
C942 C 0.9276 0.43692 0.16878 0.0
C943 C 0.97506 0.49488 0.17689 0.0
C944 C 0.00905 0.47013 0.16572 0.0
H945 H 0.9095 0.49841 0.18684 0.0
H946 H 0.97909 0.52751 0.18331 0.0
S947 S 1.00542 0.35762 0.14228 0.0
N948 N 0.95675 0.3703 0.15131 0.0
N949 N 0.03247 0.40064 0.14791 0.0
C950 C 1.00197 0.42779 0.15778 0.0
C951 C 0.96107 0.41131 0.15931 0.0
C952 C 0.72701 0.78279 0.56334 0.0
C953 C 0.71039 0.75338 0.58965 0.0
C954 C 0.71354 0.82396 0.56422 0.0
C955 C 0.68328 0.8371 0.59157 0.0
H956 H 0.75233 0.77455 0.54367 0.0
H957 H 0.72882 0.8464 0.54527 0.0
S958 S 0.62922 0.77199 0.66604 0.0
N959 N 0.66031 0.73971 0.64239 0.0
N960 N 0.63637 0.81751 0.64479 0.0
C961 C 0.66466 0.80757 0.61638 0.0
C962 C 0.67787 0.7655 0.61517 0.0
C963 C 0.93269 0.97961 0.83144 0.0
C964 C 0.92572 0.93706 0.83583 0.0
C965 C 0.97271 0.99596 0.83385 0.0
C966 C 0.00725 0.97016 0.84041 0.0
H967 H 0.90681 1.00037 0.82677 0.0
H968 H 0.97631 0.02922 0.83162 0.0
S969 S 1.00481 0.85546 0.84868 0.0
N970 N 0.95573 0.86887 0.84359 0.0
N971 N 0.03152 0.89909 0.84763 0.0
C972 C 1.00055 0.9271 0.84302 0.0
C973 C 0.95961 0.91065 0.84088 0.0
C974 C 0.84707 0.20749 0.07128 0.0
C975 C 0.82878 0.17289 0.08952 0.0
C976 C 0.82868 0.24672 0.07416 0.0
C977 C 0.79079 0.25192 0.09417 0.0
H978 H 0.876 0.20414 0.05525 0.0
H979 H 0.84407 0.27305 0.06068 0.0
S980 S 0.73073 0.17049 0.14666 0.0
N981 N 0.77122 0.14591 0.12802 0.0
N982 N 0.73606 0.21934 0.13308 0.0
C983 C 0.77203 0.21727 0.11205 0.0
C984 C 0.79119 0.17773 0.10979 0.0
C985 C 0.52086 0.0754 0.34795 0.0
C986 C 0.51189 0.0336 0.3395 0.0
C987 C 0.56132 0.09066 0.34515 0.0
C988 C 0.59404 0.06466 0.33384 0.0
H989 H 0.49679 0.09625 0.35809 0.0
H990 H 0.56709 0.12286 0.35209 0.0
S991 S 0.58698 0.95418 0.30489 0.0
N992 N 0.53902 0.9674 0.31624 0.0
N993 N 0.61505 0.99633 0.31156 0.0
C994 C 0.58535 0.02353 0.32336 0.0
C995 C 0.54425 0.00792 0.32607 0.0
C996 C 0.32717 0.24621 0.43073 0.0
C997 C 0.28724 0.25028 0.4146 0.0
C998 C 0.34636 0.20739 0.4329 0.0
C999 C 0.32669 0.17199 0.41778 0.0
H1000 H 0.34372 0.27321 0.44141 0.0
H1001 H 0.377 0.20497 0.44576 0.0
S1002 S 0.22251 0.16594 0.37264 0.0
N1003 N 0.22858 0.21538 0.38376 0.0
N1004 N 0.26543 0.14269 0.38722 0.0
C1005 C 0.28686 0.17551 0.40189 0.0
C1006 C 0.26689 0.21468 0.40046 0.0
C1007 C 0.0458 0.0137 0.1777 0.0
C1008 C 0.01211 0.03977 0.16899 0.0
C1009 C 0.08593 0.02947 0.18053 0.0
C1010 C 0.09381 0.07172 0.17464 0.0
H1011 H 0.04154 0.98058 0.18083 0.0
H1012 H 0.11128 0.00833 0.18617 0.0
S1013 S 0.01642 0.15407 0.157 0.0
N1014 N 0.98907 0.11086 0.15842 0.0
N1015 N 0.06504 0.14016 0.16429 0.0
C1016 C 0.0605 0.09855 0.16807 0.0
C1017 C 0.01946 0.08263 0.16518 0.0
C1018 C 0.22556 0.82774 0.94187 0.0
C1019 C 0.19101 0.84076 0.91983 0.0
C1020 C 0.23864 0.78646 0.9411 0.0
C1021 C 0.21749 0.75681 0.91822 0.0
H1022 H 0.24422 0.85032 0.95755 0.0
H1023 H 0.26702 0.77838 0.9564 0.0
S1024 S 0.12294 0.77482 0.85777 0.0
N1025 N 0.13463 0.82066 0.87628 0.0
N1026 N 0.15779 0.74267 0.87596 0.0
C1027 C 0.1807 0.7688 0.89882 0.0
C1028 C 0.16781 0.81098 0.89924 0.0
C1029 C 0.45142 0.9236 0.65531 0.0
C1030 C 0.42092 0.94761 0.67421 0.0
C1031 C 0.49326 0.93512 0.65681 0.0
C1032 C 0.50581 0.97139 0.67676 0.0
H1033 H 0.44263 0.89777 0.63663 0.0
H1034 H 0.51522 0.91746 0.63931 0.0
S1035 S 0.43841 0.04061 0.73649 0.0
N1036 N 0.40647 1.00573 0.71779 0.0
N1037 N 0.48502 0.02788 0.72027 0.0
C1038 C 0.47598 0.99353 0.69858 0.0
C1039 C 0.43353 0.98158 0.69726 0.0
loop_
_geom_bond_atom_site_label_1
_geom_bond_atom_site_label_2
_geom_bond_distance
_geom_bond_site_symmetry_2
_ccdc_geom_bond_type
Zn0 O1 2.055 . S
Zn0 O8 2.046 . S
Zn0 N16 2.036 . S
Zn0 O28 2.053 . S
Zn0 O30 2.066 . S
O1 Zn0 2.055 . S
O1 C4 1.259 . S
C2 O30 1.256 . S
C2 O31 1.244 . S
Zn3 O5 2.046 . S
Zn3 O7 2.055 . S
Zn3 N9 2.036 . S
Zn3 O27 2.066 . S
Zn3 O31 2.053 . S
C4 O1 1.259 . S
C4 O5 1.254 . S
O5 Zn3 2.046 . S
O5 C4 1.254 . S
C6 O27 1.256 . S
C6 O28 1.244 . S
O7 Zn3 2.055 . S
O7 C29 1.259 . S
O8 Zn0 2.046 . S
O8 C29 1.254 . S
N9 Zn3 2.036 . S
N9 C10 1.298 . S
N9 N12 1.398 . S
C10 N9 1.298 . S
C10 N13 1.367 . S
C10 C23 1.481 . S
C11 N12 1.299 . S
C11 N13 1.379 . S
N12 N9 1.398 . S
N12 C11 1.299 . S
N13 C10 1.367 . S
N13 C11 1.379 . S
C14 N16 1.298 . S
C14 N18 1.367 . S
C14 C22 1.481 . S
C15 N17 1.299 . S
C15 N18 1.379 . S
N16 Zn0 2.036 . S
N16 C14 1.298 . S
N16 N17 1.398 . S
N17 C15 1.299 . S
N17 N16 1.398 . S
N18 C14 1.367 . S
N18 C15 1.379 . S
H19 C22 0.980 . S
H20 C22 0.981 . S
H21 C22 0.981 . S
C22 C14 1.481 . S
C22 H19 0.980 . S
C22 H20 0.981 . S
C22 H21 0.981 . S
C23 C10 1.481 . S
C23 H24 0.980 . S
C23 H25 0.981 . S
C23 H26 0.981 . S
H24 C23 0.980 . S
H25 C23 0.981 . S
H26 C23 0.981 . S
O27 Zn3 2.066 . S
O27 C6 1.256 . S
O28 Zn0 2.053 . S
O28 C6 1.244 . S
C29 O7 1.259 . S
C29 O8 1.254 . S
O30 Zn0 2.066 . S
O30 C2 1.256 . S
O31 C2 1.244 . S
O31 Zn3 2.053 . S
Zn32 O33 2.055 . S
Zn32 O40 2.046 . S
Zn32 N48 2.036 . S
Zn32 O60 2.053 . S
Zn32 O62 2.066 . S
O33 Zn32 2.055 . S
O33 C36 1.259 . S
C34 O62 1.256 . S
C34 O63 1.244 . S
Zn35 O37 2.046 . S
Zn35 O39 2.055 . S
Zn35 N41 2.036 . S
Zn35 O59 2.066 . S
Zn35 O63 2.053 . S
C36 O33 1.259 . S
C36 O37 1.254 . S
O37 Zn35 2.046 . S
O37 C36 1.254 . S
C38 O59 1.256 . S
C38 O60 1.244 . S
O39 Zn35 2.055 . S
O39 C61 1.259 . S
O40 Zn32 2.046 . S
O40 C61 1.254 . S
N41 Zn35 2.036 . S
N41 C42 1.298 . S
N41 N44 1.398 . S
C42 N41 1.298 . S
C42 N45 1.367 . S
C42 C55 1.481 . S
C43 N44 1.299 . S
C43 N45 1.379 . S
N44 N41 1.398 . S
N44 C43 1.299 . S
N45 C42 1.367 . S
N45 C43 1.379 . S
C46 N48 1.298 . S
C46 N50 1.367 . S
C46 C54 1.481 . S
C47 N49 1.299 . S
C47 N50 1.379 . S
N48 Zn32 2.036 . S
N48 C46 1.298 . S
N48 N49 1.398 . S
N49 C47 1.299 . S
N49 N48 1.398 . S
N50 C46 1.367 . S
N50 C47 1.379 . S
H51 C54 0.980 . S
H52 C54 0.981 . S
H53 C54 0.981 . S
C54 C46 1.481 . S
C54 H51 0.980 . S
C54 H52 0.981 . S
C54 H53 0.981 . S
C55 C42 1.481 . S
C55 H56 0.980 . S
C55 H57 0.981 . S
C55 H58 0.981 . S
H56 C55 0.980 . S
H57 C55 0.981 . S
H58 C55 0.981 . S
O59 Zn35 2.066 . S
O59 C38 1.256 . S
O60 Zn32 2.053 . S
O60 C38 1.244 . S
C61 O39 1.259 . S
C61 O40 1.254 . S
O62 Zn32 2.066 . S
O62 C34 1.256 . S
O63 C34 1.244 . S
O63 Zn35 2.053 . S
Zn64 O65 2.055 . S
Zn64 O72 2.046 . S
Zn64 N80 2.036 . S
Zn64 O92 2.053 . S
Zn64 O94 2.066 . S
O65 Zn64 2.055 . S
O65 C68 1.259 . S
C66 O94 1.256 . S
C66 O95 1.244 . S
Zn67 O69 2.046 . S
Zn67 O71 2.055 . S
Zn67 N73 2.036 . S
Zn67 O91 2.066 . S
Zn67 O95 2.053 . S
C68 O65 1.259 . S
C68 O69 1.254 . S
O69 Zn67 2.046 . S
O69 C68 1.254 . S
C70 O91 1.256 . S
C70 O92 1.244 . S
O71 Zn67 2.055 . S
O71 C93 1.259 . S
O72 Zn64 2.046 . S
O72 C93 1.254 . S
N73 Zn67 2.036 . S
N73 C74 1.298 . S
N73 N76 1.398 . S
C74 N73 1.298 . S
C74 N77 1.367 . S
C74 C87 1.481 . S
C75 N76 1.299 . S
C75 N77 1.379 . S
N76 N73 1.398 . S
N76 C75 1.299 . S
N77 C74 1.367 . S
N77 C75 1.379 . S
C78 N80 1.298 . S
C78 N82 1.367 . S
C78 C86 1.481 . S
C79 N81 1.299 . S
C79 N82 1.379 . S
N80 Zn64 2.036 . S
N80 C78 1.298 . S
N80 N81 1.398 . S
N81 C79 1.299 . S
N81 N80 1.398 . S
N82 C78 1.367 . S
N82 C79 1.379 . S
H83 C86 0.980 . S
H84 C86 0.981 . S
H85 C86 0.981 . S
C86 C78 1.481 . S
C86 H83 0.980 . S
C86 H84 0.981 . S
C86 H85 0.981 . S
C87 C74 1.481 . S
C87 H88 0.980 . S
C87 H89 0.981 . S
C87 H90 0.981 . S
H88 C87 0.980 . S
H89 C87 0.981 . S
H90 C87 0.981 . S
O91 Zn67 2.066 . S
O91 C70 1.256 . S
O92 Zn64 2.053 . S
O92 C70 1.244 . S
C93 O71 1.259 . S
C93 O72 1.254 . S
O94 Zn64 2.066 . S
O94 C66 1.256 . S
O95 C66 1.244 . S
O95 Zn67 2.053 . S
Zn96 O97 2.055 . S
Zn96 O104 2.046 . S
Zn96 N112 2.036 . S
Zn96 O124 2.053 . S
Zn96 O126 2.066 . S
O97 Zn96 2.055 . S
O97 C100 1.259 . S
C98 O126 1.256 . S
C98 O127 1.244 . S
Zn99 O101 2.046 . S
Zn99 O103 2.055 . S
Zn99 N105 2.036 . S
Zn99 O123 2.066 . S
Zn99 O127 2.053 . S
C100 O97 1.259 . S
C100 O101 1.254 . S
O101 Zn99 2.046 . S
O101 C100 1.254 . S
C102 O123 1.256 . S
C102 O124 1.244 . S
O103 Zn99 2.055 . S
O103 C125 1.259 . S
O104 Zn96 2.046 . S
O104 C125 1.254 . S
N105 Zn99 2.036 . S
N105 C106 1.298 . S
N105 N108 1.398 . S
C106 N105 1.298 . S
C106 N109 1.367 . S
C106 C119 1.481 . S
C107 N108 1.299 . S
C107 N109 1.379 . S
N108 N105 1.398 . S
N108 C107 1.299 . S
N109 C106 1.367 . S
N109 C107 1.379 . S
C110 N112 1.298 . S
C110 N114 1.367 . S
C110 C118 1.481 . S
C111 N113 1.299 . S
C111 N114 1.379 . S
N112 Zn96 2.036 . S
N112 C110 1.298 . S
N112 N113 1.398 . S
N113 C111 1.299 . S
N113 N112 1.398 . S
N114 C110 1.367 . S
N114 C111 1.379 . S
H115 C118 0.980 . S
H116 C118 0.981 . S
H117 C118 0.981 . S
C118 C110 1.481 . S
C118 H115 0.980 . S
C118 H116 0.981 . S
C118 H117 0.981 . S
C119 C106 1.481 . S
C119 H120 0.980 . S
C119 H121 0.981 . S
C119 H122 0.981 . S
H120 C119 0.980 . S
H121 C119 0.981 . S
H122 C119 0.981 . S
O123 Zn99 2.066 . S
O123 C102 1.256 . S
O124 Zn96 2.053 . S
O124 C102 1.244 . S
C125 O103 1.259 . S
C125 O104 1.254 . S
O126 Zn96 2.066 . S
O126 C98 1.256 . S
O127 C98 1.244 . S
O127 Zn99 2.053 . S
Zn128 O129 2.055 . S
Zn128 O136 2.046 . S
Zn128 N144 2.036 . S
Zn128 O156 2.053 . S
Zn128 O158 2.066 . S
O129 Zn128 2.055 . S
O129 C132 1.259 . S
C130 O158 1.256 . S
C130 O159 1.244 . S
Zn131 O133 2.046 . S
Zn131 O135 2.055 . S
Zn131 N137 2.036 . S
Zn131 O155 2.066 . S
Zn131 O159 2.053 . S
C132 O129 1.259 . S
C132 O133 1.254 . S
O133 Zn131 2.046 . S
O133 C132 1.254 . S
C134 O155 1.256 . S
C134 O156 1.244 . S
O135 Zn131 2.055 . S
O135 C157 1.259 . S
O136 Zn128 2.046 . S
O136 C157 1.254 . S
N137 Zn131 2.036 . S
N137 C138 1.298 . S
N137 N140 1.398 . S
C138 N137 1.298 . S
C138 N141 1.367 . S
C138 C151 1.481 . S
C139 N140 1.299 . S
C139 N141 1.379 . S
N140 N137 1.398 . S
N140 C139 1.299 . S
N141 C138 1.367 . S
N141 C139 1.379 . S
C142 N144 1.298 . S
C142 N146 1.367 . S
C142 C150 1.481 . S
C143 N145 1.299 . S
C143 N146 1.379 . S
N144 Zn128 2.036 . S
N144 C142 1.298 . S
N144 N145 1.398 . S
N145 C143 1.299 . S
N145 N144 1.398 . S
N146 C142 1.367 . S
N146 C143 1.379 . S
H147 C150 0.980 . S
H148 C150 0.981 . S
H149 C150 0.981 . S
C150 C142 1.481 . S
C150 H147 0.980 . S
C150 H148 0.981 . S
C150 H149 0.981 . S
C151 C138 1.481 . S
C151 H152 0.980 . S
C151 H153 0.981 . S
C151 H154 0.981 . S
H152 C151 0.980 . S
H153 C151 0.981 . S
H154 C151 0.981 . S
O155 Zn131 2.066 . S
O155 C134 1.256 . S
O156 Zn128 2.053 . S
O156 C134 1.244 . S
C157 O135 1.259 . S
C157 O136 1.254 . S
O158 Zn128 2.066 . S
O158 C130 1.256 . S
O159 C130 1.244 . S
O159 Zn131 2.053 . S
Zn160 O161 2.055 . S
Zn160 O168 2.046 . S
Zn160 N176 2.036 . S
Zn160 O188 2.053 . S
Zn160 O190 2.066 . S
O161 Zn160 2.055 . S
O161 C164 1.259 . S
C162 O190 1.256 . S
C162 O191 1.244 . S
Zn163 O165 2.046 . S
Zn163 O167 2.055 . S
Zn163 N169 2.036 . S
Zn163 O187 2.066 . S
Zn163 O191 2.053 . S
C164 O161 1.259 . S
C164 O165 1.254 . S
O165 Zn163 2.046 . S
O165 C164 1.254 . S
C166 O187 1.256 . S
C166 O188 1.244 . S
O167 Zn163 2.055 . S
O167 C189 1.259 . S
O168 Zn160 2.046 . S
O168 C189 1.254 . S
N169 Zn163 2.036 . S
N169 C170 1.298 . S
N169 N172 1.398 . S
C170 N169 1.298 . S
C170 N173 1.367 . S
C170 C183 1.481 . S
C171 N172 1.299 . S
C171 N173 1.379 . S
N172 N169 1.398 . S
N172 C171 1.299 . S
N173 C170 1.367 . S
N173 C171 1.379 . S
C174 N176 1.298 . S
C174 N178 1.367 . S
C174 C182 1.481 . S
C175 N177 1.299 . S
C175 N178 1.379 . S
N176 Zn160 2.036 . S
N176 C174 1.298 . S
N176 N177 1.398 . S
N177 C175 1.299 . S
N177 N176 1.398 . S
N178 C174 1.367 . S
N178 C175 1.379 . S
H179 C182 0.980 . S
H180 C182 0.981 . S
H181 C182 0.981 . S
C182 C174 1.481 . S
C182 H179 0.980 . S
C182 H180 0.981 . S
C182 H181 0.981 . S
C183 C170 1.481 . S
C183 H184 0.980 . S
C183 H185 0.981 . S
C183 H186 0.981 . S
H184 C183 0.980 . S
H185 C183 0.981 . S
H186 C183 0.981 . S
O187 Zn163 2.066 . S
O187 C166 1.256 . S
O188 Zn160 2.053 . S
O188 C166 1.244 . S
C189 O167 1.259 . S
C189 O168 1.254 . S
O190 Zn160 2.066 . S
O190 C162 1.256 . S
O191 C162 1.244 . S
O191 Zn163 2.053 . S
Zn192 O193 2.055 . S
Zn192 O200 2.046 . S
Zn192 N208 2.036 . S
Zn192 O220 2.053 . S
Zn192 O222 2.066 . S
O193 Zn192 2.055 . S
O193 C196 1.259 . S
C194 O222 1.256 . S
C194 O223 1.244 . S
Zn195 O197 2.046 . S
Zn195 O199 2.055 . S
Zn195 N201 2.036 . S
Zn195 O219 2.066 . S
Zn195 O223 2.053 . S
C196 O193 1.259 . S
C196 O197 1.254 . S
O197 Zn195 2.046 . S
O197 C196 1.254 . S
C198 O219 1.256 . S
C198 O220 1.244 . S
O199 Zn195 2.055 . S
O199 C221 1.259 . S
O200 Zn192 2.046 . S
O200 C221 1.254 . S
N201 Zn195 2.036 . S
N201 C202 1.298 . S
N201 N204 1.398 . S
C202 N201 1.298 . S
C202 N205 1.367 . S
C202 C215 1.481 . S
C203 N204 1.299 . S
C203 N205 1.379 . S
N204 N201 1.398 . S
N204 C203 1.299 . S
N205 C202 1.367 . S
N205 C203 1.379 . S
C206 N208 1.298 . S
C206 N210 1.367 . S
C206 C214 1.481 . S
C207 N209 1.299 . S
C207 N210 1.379 . S
N208 Zn192 2.036 . S
N208 C206 1.298 . S
N208 N209 1.398 . S
N209 C207 1.299 . S
N209 N208 1.398 . S
N210 C206 1.367 . S
N210 C207 1.379 . S
H211 C214 0.980 . S
H212 C214 0.981 . S
H213 C214 0.981 . S
C214 C206 1.481 . S
C214 H211 0.980 . S
C214 H212 0.981 . S
C214 H213 0.981 . S
C215 C202 1.481 . S
C215 H216 0.980 . S
C215 H217 0.981 . S
C215 H218 0.981 . S
H216 C215 0.980 . S
H217 C215 0.981 . S
H218 C215 0.981 . S
O219 Zn195 2.066 . S
O219 C198 1.256 . S
O220 Zn192 2.053 . S
O220 C198 1.244 . S
C221 O199 1.259 . S
C221 O200 1.254 . S
O222 Zn192 2.066 . S
O222 C194 1.256 . S
O223 C194 1.244 . S
O223 Zn195 2.053 . S
Zn224 O225 2.055 . S
Zn224 O232 2.046 . S
Zn224 N240 2.036 . S
Zn224 O252 2.053 . S
Zn224 O254 2.066 . S
O225 Zn224 2.055 . S
O225 C228 1.259 . S
C226 O254 1.256 . S
C226 O255 1.244 . S
Zn227 O229 2.046 . S
Zn227 O231 2.055 . S
Zn227 N233 2.036 . S
Zn227 O251 2.066 . S
Zn227 O255 2.053 . S
C228 O225 1.259 . S
C228 O229 1.254 . S
O229 Zn227 2.046 . S
O229 C228 1.254 . S
C230 O251 1.256 . S
C230 O252 1.244 . S
O231 Zn227 2.055 . S
O231 C253 1.259 . S
O232 Zn224 2.046 . S
O232 C253 1.254 . S
N233 Zn227 2.036 . S
N233 C234 1.298 . S
N233 N236 1.398 . S
C234 N233 1.298 . S
C234 N237 1.367 . S
C234 C247 1.481 . S
C235 N236 1.299 . S
C235 N237 1.379 . S
N236 N233 1.398 . S
N236 C235 1.299 . S
N237 C234 1.367 . S
N237 C235 1.379 . S
C238 N240 1.298 . S
C238 N242 1.367 . S
C238 C246 1.481 . S
C239 N241 1.299 . S
C239 N242 1.379 . S
N240 Zn224 2.036 . S
N240 C238 1.298 . S
N240 N241 1.398 . S
N241 C239 1.299 . S
N241 N240 1.398 . S
N242 C238 1.367 . S
N242 C239 1.379 . S
H243 C246 0.980 . S
H244 C246 0.981 . S
H245 C246 0.981 . S
C246 C238 1.481 . S
C246 H243 0.980 . S
C246 H244 0.981 . S
C246 H245 0.981 . S
C247 C234 1.481 . S
C247 H248 0.980 . S
C247 H249 0.981 . S
C247 H250 0.981 . S
H248 C247 0.980 . S
H249 C247 0.981 . S
H250 C247 0.981 . S
O251 Zn227 2.066 . S
O251 C230 1.256 . S
O252 Zn224 2.053 . S
O252 C230 1.244 . S
C253 O231 1.259 . S
C253 O232 1.254 . S
O254 Zn224 2.066 . S
O254 C226 1.256 . S
O255 C226 1.244 . S
O255 Zn227 2.053 . S
Zn256 O257 2.055 . S
Zn256 O264 2.046 . S
Zn256 N272 2.036 . S
Zn256 O284 2.053 . S
Zn256 O286 2.066 . S
O257 Zn256 2.055 . S
O257 C260 1.259 . S
C258 O286 1.256 . S
C258 O287 1.244 . S
Zn259 O261 2.046 . S
Zn259 O263 2.055 . S
Zn259 N265 2.036 . S
Zn259 O283 2.066 . S
Zn259 O287 2.053 . S
C260 O257 1.259 . S
C260 O261 1.254 . S
O261 Zn259 2.046 . S
O261 C260 1.254 . S
C262 O283 1.256 . S
C262 O284 1.244 . S
O263 Zn259 2.055 . S
O263 C285 1.259 . S
O264 Zn256 2.046 . S
O264 C285 1.254 . S
N265 Zn259 2.036 . S
N265 C266 1.298 . S
N265 N268 1.398 . S
C266 N265 1.298 . S
C266 N269 1.367 . S
C266 C279 1.481 . S
C267 N268 1.299 . S
C267 N269 1.379 . S
N268 N265 1.398 . S
N268 C267 1.299 . S
N269 C266 1.367 . S
N269 C267 1.379 . S
C270 N272 1.298 . S
C270 N274 1.367 . S
C270 C278 1.481 . S
C271 N273 1.299 . S
C271 N274 1.379 . S
N272 Zn256 2.036 . S
N272 C270 1.298 . S
N272 N273 1.398 . S
N273 C271 1.299 . S
N273 N272 1.398 . S
N274 C270 1.367 . S
N274 C271 1.379 . S
H275 C278 0.980 . S
H276 C278 0.981 . S
H277 C278 0.981 . S
C278 C270 1.481 . S
C278 H275 0.980 . S
C278 H276 0.981 . S
C278 H277 0.981 . S
C279 C266 1.481 . S
C279 H280 0.980 . S
C279 H281 0.981 . S
C279 H282 0.981 . S
H280 C279 0.980 . S
H281 C279 0.981 . S
H282 C279 0.981 . S
O283 Zn259 2.066 . S
O283 C262 1.256 . S
O284 Zn256 2.053 . S
O284 C262 1.244 . S
C285 O263 1.259 . S
C285 O264 1.254 . S
O286 Zn256 2.066 . S
O286 C258 1.256 . S
O287 C258 1.244 . S
O287 Zn259 2.053 . S
Zn288 O289 2.055 . S
Zn288 O296 2.046 . S
Zn288 N304 2.036 . S
Zn288 O316 2.053 . S
Zn288 O318 2.066 . S
O289 Zn288 2.055 . S
O289 C292 1.259 . S
C290 O318 1.256 . S
C290 O319 1.244 . S
Zn291 O293 2.046 . S
Zn291 O295 2.055 . S
Zn291 N297 2.036 . S
Zn291 O315 2.066 . S
Zn291 O319 2.053 1_565 S
C292 O289 1.259 . S
C292 O293 1.254 1_545 S
O293 Zn291 2.046 . S
O293 C292 1.254 1_565 S
C294 O315 1.256 1_545 S
C294 O316 1.244 . S
O295 Zn291 2.055 . S
O295 C317 1.259 . S
O296 Zn288 2.046 . S
O296 C317 1.254 1_545 S
N297 Zn291 2.036 . S
N297 C298 1.298 . S
N297 N300 1.398 . S
C298 N297 1.298 . S
C298 N301 1.367 . S
C298 C311 1.481 . S
C299 N300 1.299 . S
C299 N301 1.379 . S
N300 N297 1.398 . S
N300 C299 1.299 . S
N301 C298 1.367 . S
N301 C299 1.379 . S
C302 N304 1.298 . S
C302 N306 1.367 . S
C302 C310 1.481 . S
C303 N305 1.299 . S
C303 N306 1.379 . S
N304 Zn288 2.036 . S
N304 C302 1.298 . S
N304 N305 1.398 . S
N305 C303 1.299 . S
N305 N304 1.398 . S
N306 C302 1.367 . S
N306 C303 1.379 . S
H307 C310 0.980 . S
H308 C310 0.981 . S
H309 C310 0.981 . S
C310 C302 1.481 . S
C310 H307 0.980 . S
C310 H308 0.981 . S
C310 H309 0.981 . S
C311 C298 1.481 . S
C311 H312 0.980 . S
C311 H313 0.981 . S
C311 H314 0.981 . S
H312 C311 0.980 . S
H313 C311 0.981 . S
H314 C311 0.981 . S
O315 Zn291 2.066 . S
O315 C294 1.256 1_565 S
O316 Zn288 2.053 . S
O316 C294 1.244 . S
C317 O295 1.259 . S
C317 O296 1.254 1_565 S
O318 Zn288 2.066 . S
O318 C290 1.256 . S
O319 C290 1.244 . S
O319 Zn291 2.053 1_545 S
Zn320 O321 2.055 . S
Zn320 O328 2.046 . S
Zn320 N336 2.036 . S
Zn320 O348 2.053 . S
Zn320 O350 2.066 . S
O321 Zn320 2.055 . S
O321 C324 1.259 . S
C322 O350 1.256 . S
C322 O351 1.244 . S
Zn323 O325 2.046 . S
Zn323 O327 2.055 . S
Zn323 N329 2.036 . S
Zn323 O347 2.066 . S
Zn323 O351 2.053 . S
C324 O321 1.259 . S
C324 O325 1.254 . S
O325 Zn323 2.046 . S
O325 C324 1.254 . S
C326 O347 1.256 . S
C326 O348 1.244 . S
O327 Zn323 2.055 . S
O327 C349 1.259 . S
O328 Zn320 2.046 . S
O328 C349 1.254 . S
N329 Zn323 2.036 . S
N329 C330 1.298 . S
N329 N332 1.398 . S
C330 N329 1.298 . S
C330 N333 1.367 . S
C330 C343 1.481 . S
C331 N332 1.299 . S
C331 N333 1.379 . S
N332 N329 1.398 . S
N332 C331 1.299 . S
N333 C330 1.367 . S
N333 C331 1.379 . S
C334 N336 1.298 . S
C334 N338 1.367 . S
C334 C342 1.481 . S
C335 N337 1.299 . S
C335 N338 1.379 . S
N336 Zn320 2.036 . S
N336 C334 1.298 . S
N336 N337 1.398 . S
N337 C335 1.299 . S
N337 N336 1.398 . S
N338 C334 1.367 . S
N338 C335 1.379 . S
H339 C342 0.980 . S
H340 C342 0.981 . S
H341 C342 0.981 . S
C342 C334 1.481 . S
C342 H339 0.980 . S
C342 H340 0.981 . S
C342 H341 0.981 . S
C343 C330 1.481 . S
C343 H344 0.980 . S
C343 H345 0.981 . S
C343 H346 0.981 . S
H344 C343 0.980 . S
H345 C343 0.981 . S
H346 C343 0.981 . S
O347 Zn323 2.066 . S
O347 C326 1.256 . S
O348 Zn320 2.053 . S
O348 C326 1.244 . S
C349 O327 1.259 . S
C349 O328 1.254 . S
O350 Zn320 2.066 . S
O350 C322 1.256 . S
O351 C322 1.244 . S
O351 Zn323 2.053 . S
Zn352 O353 2.055 . S
Zn352 O360 2.046 . S
Zn352 N368 2.036 . S
Zn352 O380 2.053 1_545 S
Zn352 O382 2.066 . S
O353 Zn352 2.055 . S
O353 C356 1.259 . S
C354 O382 1.256 1_565 S
C354 O383 1.244 . S
Zn355 O357 2.046 . S
Zn355 O359 2.055 . S
Zn355 N361 2.036 . S
Zn355 O379 2.066 . S
Zn355 O383 2.053 . S
C356 O353 1.259 . S
C356 O357 1.254 1_545 S
O357 Zn355 2.046 . S
O357 C356 1.254 1_565 S
C358 O379 1.256 . S
C358 O380 1.244 . S
O359 Zn355 2.055 . S
O359 C381 1.259 . S
O360 Zn352 2.046 . S
O360 C381 1.254 1_545 S
N361 Zn355 2.036 . S
N361 C362 1.298 . S
N361 N364 1.398 . S
C362 N361 1.298 . S
C362 N365 1.367 . S
C362 C375 1.481 . S
C363 N364 1.299 . S
C363 N365 1.379 . S
N364 N361 1.398 . S
N364 C363 1.299 . S
N365 C362 1.367 . S
N365 C363 1.379 . S
C366 N368 1.298 . S
C366 N370 1.367 . S
C366 C374 1.481 . S
C367 N369 1.299 . S
C367 N370 1.379 . S
N368 Zn352 2.036 . S
N368 C366 1.298 . S
N368 N369 1.398 . S
N369 C367 1.299 . S
N369 N368 1.398 . S
N370 C366 1.367 . S
N370 C367 1.379 . S
H371 C374 0.980 . S
H372 C374 0.981 . S
H373 C374 0.981 . S
C374 C366 1.481 . S
C374 H371 0.980 . S
C374 H372 0.981 . S
C374 H373 0.981 . S
C375 C362 1.481 . S
C375 H376 0.980 . S
C375 H377 0.981 . S
C375 H378 0.981 . S
H376 C375 0.980 . S
H377 C375 0.981 . S
H378 C375 0.981 . S
O379 Zn355 2.066 . S
O379 C358 1.256 . S
O380 Zn352 2.053 1_565 S
O380 C358 1.244 . S
C381 O359 1.259 . S
C381 O360 1.254 1_565 S
O382 Zn352 2.066 . S
O382 C354 1.256 1_545 S
O383 C354 1.244 . S
O383 Zn355 2.053 . S
Zn384 O385 2.055 . S
Zn384 O392 2.046 . S
Zn384 N400 2.036 . S
Zn384 O412 2.053 . S
Zn384 O414 2.066 . S
O385 Zn384 2.055 . S
O385 C388 1.259 . S
C386 O414 1.256 . S
C386 O415 1.244 . S
Zn387 O389 2.046 . S
Zn387 O391 2.055 . S
Zn387 N393 2.036 . S
Zn387 O411 2.066 . S
Zn387 O415 2.053 . S
C388 O385 1.259 . S
C388 O389 1.254 . S
O389 Zn387 2.046 . S
O389 C388 1.254 . S
C390 O411 1.256 . S
C390 O412 1.244 . S
O391 Zn387 2.055 . S
O391 C413 1.259 . S
O392 Zn384 2.046 . S
O392 C413 1.254 . S
N393 Zn387 2.036 . S
N393 C394 1.298 . S
N393 N396 1.398 . S
C394 N393 1.298 . S
C394 N397 1.367 . S
C394 C407 1.481 . S
C395 N396 1.299 . S
C395 N397 1.379 . S
N396 N393 1.398 . S
N396 C395 1.299 . S
N397 C394 1.367 . S
N397 C395 1.379 . S
C398 N400 1.298 . S
C398 N402 1.367 . S
C398 C406 1.481 . S
C399 N401 1.299 . S
C399 N402 1.379 . S
N400 Zn384 2.036 . S
N400 C398 1.298 . S
N400 N401 1.398 . S
N401 C399 1.299 . S
N401 N400 1.398 . S
N402 C398 1.367 . S
N402 C399 1.379 . S
H403 C406 0.980 . S
H404 C406 0.981 . S
H405 C406 0.981 . S
C406 C398 1.481 . S
C406 H403 0.980 . S
C406 H404 0.981 . S
C406 H405 0.981 . S
C407 C394 1.481 . S
C407 H408 0.980 . S
C407 H409 0.981 . S
C407 H410 0.981 . S
H408 C407 0.980 . S
H409 C407 0.981 . S
H410 C407 0.981 . S
O411 Zn387 2.066 . S
O411 C390 1.256 . S
O412 Zn384 2.053 . S
O412 C390 1.244 . S
C413 O391 1.259 . S
C413 O392 1.254 . S
O414 Zn384 2.066 . S
O414 C386 1.256 . S
O415 C386 1.244 . S
O415 Zn387 2.053 . S
Zn416 O417 2.055 . S
Zn416 O424 2.046 . S
Zn416 N432 2.036 . S
Zn416 O444 2.053 . S
Zn416 O446 2.066 . S
O417 Zn416 2.055 . S
O417 C420 1.259 . S
C418 O446 1.256 . S
C418 O447 1.244 . S
Zn419 O421 2.046 . S
Zn419 O423 2.055 . S
Zn419 N425 2.036 . S
Zn419 O443 2.066 . S
Zn419 O447 2.053 1_545 S
C420 O417 1.259 . S
C420 O421 1.254 1_565 S
O421 Zn419 2.046 . S
O421 C420 1.254 1_545 S
C422 O443 1.256 1_565 S
C422 O444 1.244 . S
O423 Zn419 2.055 . S
O423 C445 1.259 . S
O424 Zn416 2.046 . S
O424 C445 1.254 1_565 S
N425 Zn419 2.036 . S
N425 C426 1.298 . S
N425 N428 1.398 . S
C426 N425 1.298 . S
C426 N429 1.367 . S
C426 C439 1.481 . S
C427 N428 1.299 . S
C427 N429 1.379 . S
N428 N425 1.398 . S
N428 C427 1.299 . S
N429 C426 1.367 . S
N429 C427 1.379 . S
C430 N432 1.298 . S
C430 N434 1.367 . S
C430 C438 1.481 . S
C431 N433 1.299 . S
C431 N434 1.379 . S
N432 Zn416 2.036 . S
N432 C430 1.298 . S
N432 N433 1.398 . S
N433 C431 1.299 . S
N433 N432 1.398 . S
N434 C430 1.367 . S
N434 C431 1.379 . S
H435 C438 0.980 . S
H436 C438 0.981 . S
H437 C438 0.981 . S
C438 C430 1.481 . S
C438 H435 0.980 . S
C438 H436 0.981 . S
C438 H437 0.981 . S
C439 C426 1.481 . S
C439 H440 0.980 . S
C439 H441 0.981 . S
C439 H442 0.981 . S
H440 C439 0.980 . S
H441 C439 0.981 . S
H442 C439 0.981 . S
O443 Zn419 2.066 . S
O443 C422 1.256 1_545 S
O444 Zn416 2.053 . S
O444 C422 1.244 . S
C445 O423 1.259 . S
C445 O424 1.254 1_545 S
O446 Zn416 2.066 . S
O446 C418 1.256 . S
O447 C418 1.244 . S
O447 Zn419 2.053 1_565 S
Zn448 O449 2.055 . S
Zn448 O456 2.046 . S
Zn448 N464 2.036 . S
Zn448 O476 2.053 . S
Zn448 O478 2.066 . S
O449 Zn448 2.055 . S
O449 C452 1.259 . S
C450 O478 1.256 . S
C450 O479 1.244 . S
Zn451 O453 2.046 . S
Zn451 O455 2.055 . S
Zn451 N457 2.036 . S
Zn451 O475 2.066 . S
Zn451 O479 2.053 . S
C452 O449 1.259 . S
C452 O453 1.254 . S
O453 Zn451 2.046 . S
O453 C452 1.254 . S
C454 O475 1.256 . S
C454 O476 1.244 . S
O455 Zn451 2.055 . S
O455 C477 1.259 . S
O456 Zn448 2.046 . S
O456 C477 1.254 . S
N457 Zn451 2.036 . S
N457 C458 1.298 . S
N457 N460 1.398 . S
C458 N457 1.298 . S
C458 N461 1.367 . S
C458 C471 1.481 . S
C459 N460 1.299 . S
C459 N461 1.379 . S
N460 N457 1.398 . S
N460 C459 1.299 . S
N461 C458 1.367 . S
N461 C459 1.379 . S
C462 N464 1.298 . S
C462 N466 1.367 . S
C462 C470 1.481 . S
C463 N465 1.299 . S
C463 N466 1.379 . S
N464 Zn448 2.036 . S
N464 C462 1.298 . S
N464 N465 1.398 . S
N465 C463 1.299 . S
N465 N464 1.398 . S
N466 C462 1.367 . S
N466 C463 1.379 . S
H467 C470 0.980 . S
H468 C470 0.981 . S
H469 C470 0.981 . S
C470 C462 1.481 . S
C470 H467 0.980 . S
C470 H468 0.981 . S
C470 H469 0.981 . S
C471 C458 1.481 . S
C471 H472 0.980 . S
C471 H473 0.981 . S
C471 H474 0.981 . S
H472 C471 0.980 . S
H473 C471 0.981 . S
H474 C471 0.981 . S
O475 Zn451 2.066 . S
O475 C454 1.256 . S
O476 Zn448 2.053 . S
O476 C454 1.244 . S
C477 O455 1.259 . S
C477 O456 1.254 . S
O478 Zn448 2.066 . S
O478 C450 1.256 . S
O479 C450 1.244 . S
O479 Zn451 2.053 . S
Zn480 O481 2.055 . S
Zn480 O488 2.046 . S
Zn480 N496 2.036 . S
Zn480 O508 2.053 1_565 S
Zn480 O510 2.066 . S
O481 Zn480 2.055 . S
O481 C484 1.259 . S
C482 O510 1.256 1_545 S
C482 O511 1.244 . S
Zn483 O485 2.046 . S
Zn483 O487 2.055 . S
Zn483 N489 2.036 . S
Zn483 O507 2.066 . S
Zn483 O511 2.053 . S
C484 O481 1.259 . S
C484 O485 1.254 1_565 S
O485 Zn483 2.046 . S
O485 C484 1.254 1_545 S
C486 O507 1.256 . S
C486 O508 1.244 . S
O487 Zn483 2.055 . S
O487 C509 1.259 . S
O488 Zn480 2.046 . S
O488 C509 1.254 1_565 S
N489 Zn483 2.036 . S
N489 C490 1.298 . S
N489 N492 1.398 . S
C490 N489 1.298 . S
C490 N493 1.367 . S
C490 C503 1.481 . S
C491 N492 1.299 . S
C491 N493 1.379 . S
N492 N489 1.398 . S
N492 C491 1.299 . S
N493 C490 1.367 . S
N493 C491 1.379 . S
C494 N496 1.298 . S
C494 N498 1.367 . S
C494 C502 1.481 . S
C495 N497 1.299 . S
C495 N498 1.379 . S
N496 Zn480 2.036 . S
N496 C494 1.298 . S
N496 N497 1.398 . S
N497 C495 1.299 . S
N497 N496 1.398 . S
N498 C494 1.367 . S
N498 C495 1.379 . S
H499 C502 0.980 . S
H500 C502 0.981 . S
H501 C502 0.981 . S
C502 C494 1.481 . S
C502 H499 0.980 . S
C502 H500 0.981 . S
C502 H501 0.981 . S
C503 C490 1.481 . S
C503 H504 0.980 . S
C503 H505 0.981 . S
C503 H506 0.981 . S
H504 C503 0.980 . S
H505 C503 0.981 . S
H506 C503 0.981 . S
O507 Zn483 2.066 . S
O507 C486 1.256 . S
O508 Zn480 2.053 1_545 S
O508 C486 1.244 . S
C509 O487 1.259 . S
C509 O488 1.254 1_545 S
O510 Zn480 2.066 . S
O510 C482 1.256 1_565 S
O511 C482 1.244 . S
O511 Zn483 2.053 . S
C512 C513 1.369 . S
C512 C514 1.419 . S
C512 H516 0.930 . S
C513 C512 1.369 . S
C513 C522 1.429 . S
C514 C512 1.419 . S
C514 C515 1.363 . S
C514 H517 0.929 . S
C515 C514 1.363 . S
C515 C521 1.428 . S
H516 C512 0.930 . S
H517 C514 0.929 . S
S518 N519 1.613 . S
S518 N520 1.610 . S
N519 S518 1.613 . S
N519 C522 1.350 . S
N520 S518 1.610 . S
N520 C521 1.351 . S
C521 C515 1.428 . S
C521 N520 1.351 . S
C521 C522 1.434 . S
C522 C513 1.429 . S
C522 N519 1.350 . S
C522 C521 1.434 . S
C523 C524 1.369 . S
C523 C525 1.419 . S
C523 H527 0.930 . S
C524 C523 1.369 . S
C524 C533 1.429 . S
C525 C523 1.419 . S
C525 C526 1.363 . S
C525 H528 0.929 . S
C526 C525 1.363 . S
C526 C532 1.428 . S
H527 C523 0.930 . S
H528 C525 0.929 . S
S529 N530 1.613 . S
S529 N531 1.610 . S
N530 S529 1.613 . S
N530 C533 1.350 . S
N531 S529 1.610 . S
N531 C532 1.351 . S
C532 C526 1.428 . S
C532 N531 1.351 . S
C532 C533 1.434 . S
C533 C524 1.429 . S
C533 N530 1.350 . S
C533 C532 1.434 . S
C534 C535 1.369 . S
C534 C536 1.419 . S
C534 H538 0.930 . S
C535 C534 1.369 . S
C535 C544 1.429 . S
C536 C534 1.419 . S
C536 C537 1.363 . S
C536 H539 0.929 . S
C537 C536 1.363 . S
C537 C543 1.428 . S
H538 C534 0.930 . S
H539 C536 0.929 . S
S540 N541 1.613 . S
S540 N542 1.610 . S
N541 S540 1.613 . S
N541 C544 1.350 . S
N542 S540 1.610 . S
N542 C543 1.351 . S
C543 C537 1.428 . S
C543 N542 1.351 . S
C543 C544 1.434 . S
C544 C535 1.429 . S
C544 N541 1.350 . S
C544 C543 1.434 . S
C545 C546 1.369 . S
C545 C547 1.419 1_656 S
C545 H549 0.930 . S
C546 C545 1.369 . S
C546 C555 1.429 . S
C547 C545 1.419 1_454 S
C547 C548 1.363 . S
C547 H550 0.929 . S
C548 C547 1.363 . S
C548 C554 1.428 . S
H549 C545 0.930 . S
H550 C547 0.929 . S
S551 N552 1.613 1_454 S
S551 N553 1.610 . S
N552 S551 1.613 1_656 S
N552 C555 1.350 . S
N553 S551 1.610 . S
N553 C554 1.351 . S
C554 C548 1.428 . S
C554 N553 1.351 . S
C554 C555 1.434 1_454 S
C555 C546 1.429 . S
C555 N552 1.350 . S
C555 C554 1.434 1_656 S
C556 C557 1.369 . S
C556 C558 1.419 . S
C556 H560 0.930 . S
C557 C556 1.369 . S
C557 C566 1.429 . S
C558 C556 1.419 . S
C558 C559 1.363 . S
C558 H561 0.929 . S
C559 C558 1.363 . S
C559 C565 1.428 . S
H560 C556 0.930 . S
H561 C558 0.929 . S
S562 N563 1.613 . S
S562 N564 1.610 . S
N563 S562 1.613 . S
N563 C566 1.350 . S
N564 S562 1.610 . S
N564 C565 1.351 . S
C565 C559 1.428 . S
C565 N564 1.351 . S
C565 C566 1.434 . S
C566 C557 1.429 . S
C566 N563 1.350 . S
C566 C565 1.434 . S
C567 C568 1.369 . S
C567 C569 1.419 . S
C567 H571 0.930 . S
C568 C567 1.369 . S
C568 C577 1.429 . S
C569 C567 1.419 . S
C569 C570 1.363 . S
C569 H572 0.929 . S
C570 C569 1.363 . S
C570 C576 1.428 . S
H571 C567 0.930 . S
H572 C569 0.929 . S
S573 N574 1.613 . S
S573 N575 1.610 . S
N574 S573 1.613 . S
N574 C577 1.350 . S
N575 S573 1.610 . S
N575 C576 1.351 . S
C576 C570 1.428 . S
C576 N575 1.351 . S
C576 C577 1.434 . S
C577 C568 1.429 . S
C577 N574 1.350 . S
C577 C576 1.434 . S
C578 C579 1.369 1_545 S
C578 C580 1.419 1_654 S
C578 H582 0.930 . S
C579 C578 1.369 1_565 S
C579 C588 1.429 . S
C580 C578 1.419 1_456 S
C580 C581 1.363 . S
C580 H583 0.929 . S
C581 C580 1.363 . S
C581 C587 1.428 1_545 S
H582 C578 0.930 . S
H583 C580 0.929 . S
S584 N585 1.614 1_455 S
S584 N586 1.610 1_554 S
N585 S584 1.614 1_655 S
N585 C588 1.350 . S
N586 S584 1.610 1_556 S
N586 C587 1.351 . S
C587 C581 1.428 1_565 S
C587 N586 1.351 . S
C587 C588 1.434 1_456 S
C588 C579 1.429 . S
C588 N585 1.350 . S
C588 C587 1.434 1_654 S
C589 C590 1.369 . S
C589 C591 1.419 . S
C589 H593 0.930 . S
C590 C589 1.369 . S
C590 C599 1.429 1_565 S
C591 C589 1.419 . S
C591 C592 1.363 1_565 S
C591 H594 0.929 . S
C592 C591 1.363 1_545 S
C592 C598 1.428 . S
H593 C589 0.930 . S
H594 C591 0.929 . S
S595 N596 1.613 . S
S595 N597 1.610 . S
N596 S595 1.613 . S
N596 C599 1.350 . S
N597 S595 1.610 . S
N597 C598 1.351 . S
C598 C592 1.428 . S
C598 N597 1.351 . S
C598 C599 1.434 . S
C599 C590 1.429 1_545 S
C599 N596 1.350 . S
C599 C598 1.434 . S
C600 C601 1.369 . S
C600 C602 1.419 1_556 S
C600 H604 0.930 . S
C601 C600 1.369 . S
C601 C610 1.429 . S
C602 C600 1.419 1_554 S
C602 C603 1.363 . S
C602 H605 0.929 . S
C603 C602 1.363 . S
C603 C609 1.428 1_554 S
H604 C600 0.930 . S
H605 C602 0.929 . S
S606 N607 1.613 . S
S606 N608 1.610 . S
N607 S606 1.613 . S
N607 C610 1.350 . S
N608 S606 1.610 . S
N608 C609 1.351 . S
C609 C603 1.428 1_556 S
C609 N608 1.351 . S
C609 C610 1.434 . S
C610 C601 1.429 . S
C610 N607 1.350 . S
C610 C609 1.434 . S
C611 C612 1.369 . S
C611 C613 1.419 . S
C611 H615 0.930 . S
C612 C611 1.369 . S
C612 C621 1.429 . S
C613 C611 1.419 . S
C613 C614 1.363 . S
C613 H616 0.929 . S
C614 C613 1.363 . S
C614 C620 1.428 . S
H615 C611 0.930 . S
H616 C613 0.929 . S
S617 N618 1.613 . S
S617 N619 1.610 . S
N618 S617 1.613 . S
N618 C621 1.350 . S
N619 S617 1.610 . S
N619 C620 1.351 . S
C620 C614 1.428 . S
C620 N619 1.351 . S
C620 C621 1.434 . S
C621 C612 1.429 . S
C621 N618 1.350 . S
C621 C620 1.434 . S
C622 C623 1.369 . S
C622 C624 1.419 . S
C622 H626 0.930 . S
C623 C622 1.369 . S
C623 C632 1.429 . S
C624 C622 1.419 . S
C624 C625 1.363 . S
C624 H627 0.929 . S
C625 C624 1.363 . S
C625 C631 1.428 . S
H626 C622 0.930 . S
H627 C624 0.929 . S
S628 N629 1.613 . S
S628 N630 1.610 . S
N629 S628 1.613 . S
N629 C632 1.350 . S
N630 S628 1.610 . S
N630 C631 1.351 . S
C631 C625 1.428 . S
C631 N630 1.351 . S
C631 C632 1.434 . S
C632 C623 1.429 . S
C632 N629 1.350 . S
C632 C631 1.434 . S
C633 C634 1.369 . S
C633 C635 1.419 . S
C633 H637 0.930 . S
C634 C633 1.369 . S
C634 C643 1.429 . S
C635 C633 1.419 . S
C635 C636 1.363 . S
C635 H638 0.929 . S
C636 C635 1.363 . S
C636 C642 1.428 . S
H637 C633 0.930 . S
H638 C635 0.929 . S
S639 N640 1.613 . S
S639 N641 1.610 . S
N640 S639 1.613 . S
N640 C643 1.350 . S
N641 S639 1.610 . S
N641 C642 1.351 . S
C642 C636 1.428 . S
C642 N641 1.351 . S
C642 C643 1.434 . S
C643 C634 1.429 . S
C643 N640 1.350 . S
C643 C642 1.434 . S
C644 C645 1.369 . S
C644 C646 1.419 1_554 S
C644 H648 0.930 1_554 S
C645 C644 1.369 . S
C645 C654 1.429 . S
C646 C644 1.419 1_556 S
C646 C647 1.363 . S
C646 H649 0.929 . S
C647 C646 1.363 . S
C647 C653 1.428 1_556 S
H648 C644 0.930 1_556 S
H649 C646 0.929 . S
S650 N651 1.613 . S
S650 N652 1.610 . S
N651 S650 1.613 . S
N651 C654 1.350 . S
N652 S650 1.610 . S
N652 C653 1.351 . S
C653 C647 1.428 1_554 S
C653 N652 1.351 . S
C653 C654 1.434 . S
C654 C645 1.429 . S
C654 N651 1.350 . S
C654 C653 1.434 . S
C655 C656 1.369 . S
C655 C657 1.419 . S
C655 H659 0.930 . S
C656 C655 1.369 . S
C656 C665 1.429 . S
C657 C655 1.419 . S
C657 C658 1.363 . S
C657 H660 0.929 . S
C658 C657 1.363 . S
C658 C664 1.428 . S
H659 C655 0.930 . S
H660 C657 0.929 . S
S661 N662 1.613 . S
S661 N663 1.610 . S
N662 S661 1.613 . S
N662 C665 1.350 . S
N663 S661 1.610 . S
N663 C664 1.351 . S
C664 C658 1.428 . S
C664 N663 1.351 . S
C664 C665 1.434 . S
C665 C656 1.429 . S
C665 N662 1.350 . S
C665 C664 1.434 . S
C666 C667 1.369 . S
C666 C668 1.419 . S
C666 H670 0.930 . S
C667 C666 1.369 . S
C667 C676 1.429 . S
C668 C666 1.419 . S
C668 C669 1.363 . S
C668 H671 0.929 . S
C669 C668 1.363 . S
C669 C675 1.428 . S
H670 C666 0.930 . S
H671 C668 0.929 . S
S672 N673 1.613 . S
S672 N674 1.610 . S
N673 S672 1.613 . S
N673 C676 1.350 . S
N674 S672 1.610 . S
N674 C675 1.351 . S
C675 C669 1.428 . S
C675 N674 1.351 . S
C675 C676 1.434 . S
C676 C667 1.429 . S
C676 N673 1.350 . S
C676 C675 1.434 . S
C677 C678 1.369 . S
C677 C679 1.419 . S
C677 H681 0.930 . S
C678 C677 1.369 . S
C678 C687 1.429 . S
C679 C677 1.419 . S
C679 C680 1.363 . S
C679 H682 0.929 . S
C680 C679 1.363 . S
C680 C686 1.428 . S
H681 C677 0.930 . S
H682 C679 0.929 . S
S683 N684 1.613 . S
S683 N685 1.610 . S
N684 S683 1.613 . S
N684 C687 1.350 . S
N685 S683 1.610 . S
N685 C686 1.351 . S
C686 C680 1.428 . S
C686 N685 1.351 . S
C686 C687 1.434 . S
C687 C678 1.429 . S
C687 N684 1.350 . S
C687 C686 1.434 . S
C688 C689 1.369 . S
C688 C690 1.419 . S
C688 H692 0.930 . S
C689 C688 1.369 . S
C689 C698 1.429 . S
C690 C688 1.419 . S
C690 C691 1.363 . S
C690 H693 0.929 . S
C691 C690 1.363 . S
C691 C697 1.428 . S
H692 C688 0.930 . S
H693 C690 0.929 . S
S694 N695 1.613 . S
S694 N696 1.610 . S
N695 S694 1.613 . S
N695 C698 1.350 . S
N696 S694 1.610 . S
N696 C697 1.351 . S
C697 C691 1.428 . S
C697 N696 1.351 . S
C697 C698 1.434 . S
C698 C689 1.429 . S
C698 N695 1.350 . S
C698 C697 1.434 . S
C699 C700 1.369 . S
C699 C701 1.419 . S
C699 H703 0.930 . S
C700 C699 1.369 . S
C700 C709 1.429 . S
C701 C699 1.419 . S
C701 C702 1.363 . S
C701 H704 0.929 . S
C702 C701 1.363 . S
C702 C708 1.428 . S
H703 C699 0.930 . S
H704 C701 0.929 . S
S705 N706 1.613 . S
S705 N707 1.610 1_545 S
N706 S705 1.613 . S
N706 C709 1.350 1_545 S
N707 S705 1.610 1_565 S
N707 C708 1.351 . S
C708 C702 1.428 . S
C708 N707 1.351 . S
C708 C709 1.434 . S
C709 C700 1.429 . S
C709 N706 1.350 1_565 S
C709 C708 1.434 . S
C710 C711 1.369 . S
C710 C712 1.419 1_554 S
C710 H714 0.930 . S
C711 C710 1.369 . S
C711 C720 1.429 1_554 S
C712 C710 1.419 1_556 S
C712 C713 1.363 . S
C712 H715 0.929 . S
C713 C712 1.363 . S
C713 C719 1.428 . S
H714 C710 0.930 . S
H715 C712 0.929 . S
S716 N717 1.613 . S
S716 N718 1.610 . S
N717 S716 1.613 . S
N717 C720 1.350 . S
N718 S716 1.610 . S
N718 C719 1.351 . S
C719 C713 1.428 . S
C719 N718 1.351 . S
C719 C720 1.434 . S
C720 C711 1.429 1_556 S
C720 N717 1.350 . S
C720 C719 1.434 . S
C721 C722 1.369 . S
C721 C723 1.419 . S
C721 H725 0.930 . S
C722 C721 1.369 . S
C722 C731 1.429 . S
C723 C721 1.419 . S
C723 C724 1.363 . S
C723 H726 0.929 1_545 S
C724 C723 1.363 . S
C724 C730 1.428 . S
H725 C721 0.930 . S
H726 C723 0.929 1_565 S
S727 N728 1.613 . S
S727 N729 1.610 . S
N728 S727 1.613 . S
N728 C731 1.350 . S
N729 S727 1.610 . S
N729 C730 1.351 . S
C730 C724 1.428 . S
C730 N729 1.351 . S
C730 C731 1.434 . S
C731 C722 1.429 . S
C731 N728 1.350 . S
C731 C730 1.434 . S
C732 C733 1.369 . S
C732 C734 1.419 . S
C732 H736 0.930 . S
C733 C732 1.369 . S
C733 C742 1.429 . S
C734 C732 1.419 . S
C734 C735 1.363 . S
C734 H737 0.929 . S
C735 C734 1.363 . S
C735 C741 1.428 . S
H736 C732 0.930 . S
H737 C734 0.929 . S
S738 N739 1.613 . S
S738 N740 1.610 . S
N739 S738 1.613 . S
N739 C742 1.350 . S
N740 S738 1.610 . S
N740 C741 1.351 . S
C741 C735 1.428 . S
C741 N740 1.351 . S
C741 C742 1.434 . S
C742 C733 1.429 . S
C742 N739 1.350 . S
C742 C741 1.434 . S
C743 C744 1.369 . S
C743 C745 1.419 . S
C743 H747 0.930 . S
C744 C743 1.369 . S
C744 C753 1.432 . S
C745 C743 1.419 . S
C745 C746 1.363 . S
C745 H748 0.929 . S
C746 C745 1.363 . S
C746 C752 1.428 . S
H747 C743 0.930 . S
H748 C745 0.929 . S
S749 N750 1.613 . S
S749 N751 1.610 1_565 S
N750 S749 1.613 . S
N750 C753 1.341 1_565 S
N751 S749 1.610 1_545 S
N751 C752 1.351 . S
C752 C746 1.428 . S
C752 N751 1.351 . S
C752 C753 1.440 . S
C753 C744 1.432 . S
C753 N750 1.341 1_545 S
C753 C752 1.440 . S
C754 C755 1.369 . S
C754 C756 1.419 . S
C754 H758 0.930 . S
C755 C754 1.369 . S
C755 C764 1.429 . S
C756 C754 1.419 . S
C756 C757 1.363 1_554 S
C756 H759 0.929 . S
C757 C756 1.363 1_556 S
C757 C763 1.428 . S
H758 C754 0.930 . S
H759 C756 0.929 . S
S760 N761 1.613 . S
S760 N762 1.610 . S
N761 S760 1.613 . S
N761 C764 1.350 1_556 S
N762 S760 1.610 . S
N762 C763 1.351 . S
C763 C757 1.428 . S
C763 N762 1.351 . S
C763 C764 1.434 1_556 S
C764 C755 1.429 . S
C764 N761 1.350 1_554 S
C764 C763 1.434 1_554 S
C765 C766 1.369 . S
C765 C767 1.419 . S
C765 H769 0.930 . S
C766 C765 1.369 . S
C766 C775 1.429 . S
C767 C765 1.419 . S
C767 C768 1.363 . S
C767 H770 0.929 . S
C768 C767 1.363 . S
C768 C774 1.428 . S
H769 C765 0.930 . S
H770 C767 0.929 . S
S771 N772 1.613 . S
S771 N773 1.610 . S
N772 S771 1.613 . S
N772 C775 1.350 . S
N773 S771 1.610 . S
N773 C774 1.351 . S
C774 C768 1.428 . S
C774 N773 1.351 . S
C774 C775 1.434 . S
C775 C766 1.429 . S
C775 N772 1.350 . S
C775 C774 1.434 . S
C776 C777 1.369 . S
C776 C778 1.419 . S
C776 H780 0.930 . S
C777 C776 1.369 . S
C777 C786 1.429 . S
C778 C776 1.419 . S
C778 C779 1.363 . S
C778 H781 0.929 . S
C779 C778 1.363 . S
C779 C785 1.428 . S
H780 C776 0.930 . S
H781 C778 0.929 . S
S782 N783 1.613 . S
S782 N784 1.610 . S
N783 S782 1.613 . S
N783 C786 1.350 . S
N784 S782 1.610 . S
N784 C785 1.351 . S
C785 C779 1.428 . S
C785 N784 1.351 . S
C785 C786 1.434 . S
C786 C777 1.429 . S
C786 N783 1.350 . S
C786 C785 1.434 . S
C787 C788 1.369 . S
C787 C789 1.419 . S
C787 H791 0.930 . S
C788 C787 1.369 . S
C788 C797 1.429 . S
C789 C787 1.419 . S
C789 C790 1.363 . S
C789 H792 0.929 . S
C790 C789 1.363 . S
C790 C796 1.428 . S
H791 C787 0.930 . S
H792 C789 0.929 . S
S793 N794 1.613 . S
S793 N795 1.610 . S
N794 S793 1.613 . S
N794 C797 1.350 . S
N795 S793 1.610 . S
N795 C796 1.351 . S
C796 C790 1.428 . S
C796 N795 1.351 . S
C796 C797 1.434 . S
C797 C788 1.429 . S
C797 N794 1.350 . S
C797 C796 1.434 . S
C798 C799 1.369 . S
C798 C800 1.419 1_655 S
C798 H802 0.930 . S
C799 C798 1.369 . S
C799 C808 1.429 . S
C800 C798 1.419 1_455 S
C800 C801 1.363 . S
C800 H803 0.929 . S
C801 C800 1.363 . S
C801 C807 1.428 . S
H802 C798 0.930 . S
H803 C800 0.929 . S
S804 N805 1.613 . S
S804 N806 1.610 1_655 S
N805 S804 1.613 . S
N805 C808 1.350 . S
N806 S804 1.610 1_455 S
N806 C807 1.351 . S
C807 C801 1.428 . S
C807 N806 1.351 . S
C807 C808 1.434 1_455 S
C808 C799 1.429 . S
C808 N805 1.350 . S
C808 C807 1.434 1_655 S
C809 C810 1.369 . S
C809 C811 1.419 . S
C809 H813 0.930 . S
C810 C809 1.369 . S
C810 C819 1.429 1_655 S
C811 C809 1.419 . S
C811 C812 1.363 1_655 S
C811 H814 0.929 . S
C812 C811 1.363 1_455 S
C812 C818 1.428 . S
H813 C809 0.930 . S
H814 C811 0.929 . S
S815 N816 1.613 . S
S815 N817 1.610 . S
N816 S815 1.613 . S
N816 C819 1.350 . S
N817 S815 1.610 . S
N817 C818 1.351 . S
C818 C812 1.428 . S
C818 N817 1.351 . S
C818 C819 1.434 . S
C819 C810 1.429 1_455 S
C819 N816 1.350 . S
C819 C818 1.434 . S
C820 C821 1.369 . S
C820 C822 1.419 . S
C820 H824 0.930 . S
C821 C820 1.369 . S
C821 C830 1.429 . S
C822 C820 1.419 . S
C822 C823 1.363 . S
C822 H825 0.929 . S
C823 C822 1.363 . S
C823 C829 1.428 . S
H824 C820 0.930 . S
H825 C822 0.929 . S
S826 N827 1.613 . S
S826 N828 1.610 . S
N827 S826 1.613 . S
N827 C830 1.350 . S
N828 S826 1.610 . S
N828 C829 1.351 . S
C829 C823 1.428 . S
C829 N828 1.351 . S
C829 C830 1.434 . S
C830 C821 1.429 . S
C830 N827 1.350 . S
C830 C829 1.434 . S
C831 C832 1.369 . S
C831 C833 1.419 . S
C831 H835 0.930 . S
C832 C831 1.369 . S
C832 C841 1.429 . S
C833 C831 1.419 . S
C833 C834 1.363 . S
C833 H836 0.929 . S
C834 C833 1.363 . S
C834 C840 1.428 . S
H835 C831 0.930 . S
H836 C833 0.929 . S
S837 N838 1.613 . S
S837 N839 1.610 . S
N838 S837 1.613 . S
N838 C841 1.350 . S
N839 S837 1.610 . S
N839 C840 1.351 . S
C840 C834 1.428 . S
C840 N839 1.351 . S
C840 C841 1.434 . S
C841 C832 1.429 . S
C841 N838 1.350 . S
C841 C840 1.434 . S
C842 C843 1.369 . S
C842 C844 1.421 . S
C842 H846 0.930 . S
C843 C842 1.369 . S
C843 C852 1.429 1_455 S
C844 C842 1.421 . S
C844 C845 1.360 1_455 S
C844 H847 0.929 . S
C845 C844 1.360 1_655 S
C845 C851 1.428 . S
H846 C842 0.930 . S
H847 C844 0.929 . S
S848 N849 1.613 . S
S848 N850 1.610 . S
N849 S848 1.613 . S
N849 C852 1.350 . S
N850 S848 1.610 . S
N850 C851 1.351 . S
C851 C845 1.428 . S
C851 N850 1.351 . S
C851 C852 1.434 . S
C852 C843 1.429 1_655 S
C852 N849 1.350 . S
C852 C851 1.434 . S
C853 C854 1.369 . S
C853 C855 1.419 1_455 S
C853 H857 0.930 . S
C854 C853 1.369 . S
C854 C863 1.429 . S
C855 C853 1.419 1_655 S
C855 C856 1.363 . S
C855 H858 0.929 . S
C856 C855 1.363 . S
C856 C862 1.428 . S
H857 C853 0.930 . S
H858 C855 0.929 . S
S859 N860 1.602 1_655 S
S859 N861 1.610 . S
N860 S859 1.602 1_455 S
N860 C863 1.351 . S
N861 S859 1.610 . S
N861 C862 1.351 . S
C862 C856 1.428 . S
C862 N861 1.351 . S
C862 C863 1.434 1_655 S
C863 C854 1.429 . S
C863 N860 1.351 . S
C863 C862 1.434 1_455 S
C864 C865 1.369 . S
C864 C866 1.419 . S
C864 H868 0.930 . S
C865 C864 1.369 . S
C865 C874 1.429 . S
C866 C864 1.419 . S
C866 C867 1.363 . S
C866 H869 0.929 . S
C867 C866 1.363 . S
C867 C873 1.428 . S
H868 C864 0.930 . S
H869 C866 0.929 . S
S870 N871 1.613 . S
S870 N872 1.610 . S
N871 S870 1.613 . S
N871 C874 1.350 . S
N872 S870 1.610 . S
N872 C873 1.351 . S
C873 C867 1.428 . S
C873 N872 1.351 . S
C873 C874 1.434 . S
C874 C865 1.429 . S
C874 N871 1.350 . S
C874 C873 1.434 . S
C875 C876 1.369 . S
C875 C877 1.419 . S
C875 H879 0.930 . S
C876 C875 1.369 . S
C876 C885 1.429 . S
C877 C875 1.419 . S
C877 C878 1.363 . S
C877 H880 0.929 . S
C878 C877 1.363 . S
C878 C884 1.428 . S
H879 C875 0.930 . S
H880 C877 0.929 . S
S881 N882 1.613 . S
S881 N883 1.610 . S
N882 S881 1.613 . S
N882 C885 1.350 . S
N883 S881 1.610 . S
N883 C884 1.351 . S
C884 C878 1.428 . S
C884 N883 1.351 . S
C884 C885 1.434 . S
C885 C876 1.429 . S
C885 N882 1.350 . S
C885 C884 1.434 . S
C886 C887 1.369 . S
C886 C888 1.419 . S
C886 H890 0.930 . S
C887 C886 1.369 . S
C887 C896 1.429 . S
C888 C886 1.419 . S
C888 C889 1.363 . S
C888 H891 0.929 . S
C889 C888 1.363 . S
C889 C895 1.428 . S
H890 C886 0.930 . S
H891 C888 0.929 . S
S892 N893 1.613 . S
S892 N894 1.610 . S
N893 S892 1.613 . S
N893 C896 1.350 . S
N894 S892 1.610 . S
N894 C895 1.351 . S
C895 C889 1.428 . S
C895 N894 1.351 . S
C895 C896 1.434 . S
C896 C887 1.429 . S
C896 N893 1.350 . S
C896 C895 1.434 . S
C897 C898 1.369 1_455 S
C897 C899 1.419 . S
C897 H901 0.930 1_455 S
C898 C897 1.369 1_655 S
C898 C907 1.429 1_655 S
C899 C897 1.419 . S
C899 C900 1.363 . S
C899 H902 0.929 . S
C900 C899 1.363 . S
C900 C906 1.428 . S
H901 C897 0.930 1_655 S
H902 C899 0.929 . S
S903 N904 1.613 . S
S903 N905 1.610 . S
N904 S903 1.613 . S
N904 C907 1.350 . S
N905 S903 1.610 . S
N905 C906 1.351 . S
C906 C900 1.428 . S
C906 N905 1.351 . S
C906 C907 1.434 . S
C907 C898 1.429 1_455 S
C907 N904 1.350 . S
C907 C906 1.434 . S
C908 C909 1.369 . S
C908 C910 1.419 . S
C908 H912 0.930 . S
C909 C908 1.369 . S
C909 C918 1.429 . S
C910 C908 1.419 . S
C910 C911 1.363 . S
C910 H913 0.929 . S
C911 C910 1.363 . S
C911 C917 1.428 . S
H912 C908 0.930 . S
H913 C910 0.929 . S
S914 N915 1.613 . S
S914 N916 1.610 . S
N915 S914 1.613 . S
N915 C918 1.350 . S
N916 S914 1.610 . S
N916 C917 1.351 . S
C917 C911 1.428 . S
C917 N916 1.351 . S
C917 C918 1.434 . S
C918 C909 1.429 . S
C918 N915 1.350 . S
C918 C917 1.434 . S
C919 C920 1.369 . S
C919 C921 1.419 . S
C919 H923 0.930 . S
C920 C919 1.369 . S
C920 C929 1.429 . S
C921 C919 1.419 . S
C921 C922 1.363 . S
C921 H924 0.929 . S
C922 C921 1.363 . S
C922 C928 1.428 . S
H923 C919 0.930 . S
H924 C921 0.929 . S
S925 N926 1.613 . S
S925 N927 1.610 . S
N926 S925 1.613 . S
N926 C929 1.350 . S
N927 S925 1.610 . S
N927 C928 1.351 . S
C928 C922 1.428 . S
C928 N927 1.351 . S
C928 C929 1.434 . S
C929 C920 1.429 . S
C929 N926 1.350 . S
C929 C928 1.434 . S
C930 C931 1.369 . S
C930 C932 1.419 . S
C930 H934 0.930 . S
C931 C930 1.369 . S
C931 C940 1.429 . S
C932 C930 1.419 . S
C932 C933 1.363 . S
C932 H935 0.929 . S
C933 C932 1.363 . S
C933 C939 1.428 . S
H934 C930 0.930 . S
H935 C932 0.929 . S
S936 N937 1.613 . S
S936 N938 1.610 . S
N937 S936 1.613 . S
N937 C940 1.350 . S
N938 S936 1.610 . S
N938 C939 1.351 . S
C939 C933 1.428 . S
C939 N938 1.351 . S
C939 C940 1.434 . S
C940 C931 1.429 . S
C940 N937 1.350 . S
C940 C939 1.434 . S
C941 C942 1.369 . S
C941 C943 1.419 . S
C941 H945 0.930 . S
C942 C941 1.369 . S
C942 C951 1.429 . S
C943 C941 1.419 . S
C943 C944 1.363 1_655 S
C943 H946 0.929 . S
C944 C943 1.363 1_455 S
C944 C950 1.428 1_455 S
H945 C941 0.930 . S
H946 C943 0.929 . S
S947 N948 1.613 1_455 S
S947 N949 1.610 . S
N948 S947 1.613 1_655 S
N948 C951 1.350 . S
N949 S947 1.610 . S
N949 C950 1.351 1_455 S
C950 C944 1.428 1_655 S
C950 N949 1.351 1_655 S
C950 C951 1.434 . S
C951 C942 1.429 . S
C951 N948 1.350 . S
C951 C950 1.434 . S
C952 C953 1.369 . S
C952 C954 1.419 . S
C952 H956 0.930 . S
C953 C952 1.369 . S
C953 C962 1.429 . S
C954 C952 1.419 . S
C954 C955 1.363 . S
C954 H957 0.929 . S
C955 C954 1.363 . S
C955 C961 1.428 . S
H956 C952 0.930 . S
H957 C954 0.929 . S
S958 N959 1.613 . S
S958 N960 1.610 . S
N959 S958 1.613 . S
N959 C962 1.350 . S
N960 S958 1.610 . S
N960 C961 1.351 . S
C961 C955 1.428 . S
C961 N960 1.351 . S
C961 C962 1.434 . S
C962 C953 1.429 . S
C962 N959 1.350 . S
C962 C961 1.434 . S
C963 C964 1.369 . S
C963 C965 1.419 . S
C963 H967 0.930 . S
C964 C963 1.369 . S
C964 C973 1.429 . S
C965 C963 1.419 . S
C965 C966 1.363 1_655 S
C965 H968 0.929 1_565 S
C966 C965 1.363 1_455 S
C966 C972 1.428 1_455 S
H967 C963 0.930 . S
H968 C965 0.929 1_545 S
S969 N970 1.613 1_455 S
S969 N971 1.610 . S
N970 S969 1.613 1_655 S
N970 C973 1.350 . S
N971 S969 1.610 . S
N971 C972 1.351 1_455 S
C972 C966 1.428 1_655 S
C972 N971 1.351 1_655 S
C972 C973 1.434 . S
C973 C964 1.429 . S
C973 N970 1.350 . S
C973 C972 1.434 . S
C974 C975 1.369 . S
C974 C976 1.419 . S
C974 H978 0.930 . S
C975 C974 1.369 . S
C975 C984 1.429 . S
C976 C974 1.419 . S
C976 C977 1.363 . S
C976 H979 0.929 . S
C977 C976 1.363 . S
C977 C983 1.428 . S
H978 C974 0.930 . S
H979 C976 0.929 . S
S980 N981 1.613 . S
S980 N982 1.610 . S
N981 S980 1.613 . S
N981 C984 1.350 . S
N982 S980 1.610 . S
N982 C983 1.351 . S
C983 C977 1.428 . S
C983 N982 1.351 . S
C983 C984 1.434 . S
C984 C975 1.429 . S
C984 N981 1.350 . S
C984 C983 1.434 . S
C985 C986 1.369 . S
C985 C987 1.419 . S
C985 H989 0.930 . S
C986 C985 1.369 . S
C986 C995 1.429 . S
C987 C985 1.419 . S
C987 C988 1.363 . S
C987 H990 0.929 . S
C988 C987 1.363 . S
C988 C994 1.428 . S
H989 C985 0.930 . S
H990 C987 0.929 . S
S991 N992 1.613 . S
S991 N993 1.610 . S
N992 S991 1.613 . S
N992 C995 1.350 1_565 S
N993 S991 1.610 . S
N993 C994 1.351 1_565 S
C994 C988 1.428 . S
C994 N993 1.351 1_545 S
C994 C995 1.434 . S
C995 C986 1.429 . S
C995 N992 1.350 1_545 S
C995 C994 1.434 . S
C996 C997 1.369 . S
C996 C998 1.419 . S
C996 H1000 0.930 . S
C997 C996 1.369 . S
C997 C1006 1.429 . S
C998 C996 1.419 . S
C998 C999 1.363 . S
C998 H1001 0.929 . S
C999 C998 1.363 . S
C999 C1005 1.428 . S
H1000 C996 0.930 . S
H1001 C998 0.929 . S
S1002 N1003 1.613 . S
S1002 N1004 1.610 . S
N1003 S1002 1.613 . S
N1003 C1006 1.350 . S
N1004 S1002 1.610 . S
N1004 C1005 1.351 . S
C1005 C999 1.428 . S
C1005 N1004 1.351 . S
C1005 C1006 1.434 . S
C1006 C997 1.429 . S
C1006 N1003 1.350 . S
C1006 C1005 1.434 . S
C1007 C1008 1.369 1_455 S
C1007 C1009 1.419 . S
C1007 H1011 0.930 1_545 S
C1008 C1007 1.369 1_655 S
C1008 C1017 1.429 1_655 S
C1009 C1007 1.419 . S
C1009 C1010 1.363 . S
C1009 H1012 0.929 . S
C1010 C1009 1.363 . S
C1010 C1016 1.428 . S
H1011 C1007 0.930 1_565 S
H1012 C1009 0.929 . S
S1013 N1014 1.613 1_455 S
S1013 N1015 1.610 . S
N1014 S1013 1.613 1_655 S
N1014 C1017 1.350 1_655 S
N1015 S1013 1.610 . S
N1015 C1016 1.351 . S
C1016 C1010 1.428 . S
C1016 N1015 1.351 . S
C1016 C1017 1.434 . S
C1017 C1008 1.429 1_455 S
C1017 N1014 1.350 1_455 S
C1017 C1016 1.434 . S
C1018 C1019 1.369 . S
C1018 C1020 1.419 . S
C1018 H1022 0.930 . S
C1019 C1018 1.369 . S
C1019 C1028 1.429 . S
C1020 C1018 1.419 . S
C1020 C1021 1.363 . S
C1020 H1023 0.929 . S
C1021 C1020 1.363 . S
C1021 C1027 1.428 . S
H1022 C1018 0.930 . S
H1023 C1020 0.929 . S
S1024 N1025 1.613 . S
S1024 N1026 1.610 . S
N1025 S1024 1.613 . S
N1025 C1028 1.350 . S
N1026 S1024 1.610 . S
N1026 C1027 1.351 . S
C1027 C1021 1.428 . S
C1027 N1026 1.351 . S
C1027 C1028 1.434 . S
C1028 C1019 1.429 . S
C1028 N1025 1.350 . S
C1028 C1027 1.434 . S
C1029 C1030 1.369 . S
C1029 C1031 1.419 . S
C1029 H1033 0.930 . S
C1030 C1029 1.369 . S
C1030 C1039 1.429 . S
C1031 C1029 1.419 . S
C1031 C1032 1.363 . S
C1031 H1034 0.929 . S
C1032 C1031 1.363 . S
C1032 C1038 1.428 . S
H1033 C1029 0.930 . S
H1034 C1031 0.929 . S
S1035 N1036 1.613 . S
S1035 N1037 1.610 . S
N1036 S1035 1.613 . S
N1036 C1039 1.350 . S
N1037 S1035 1.610 . S
N1037 C1038 1.351 . S
C1038 C1032 1.428 . S
C1038 N1037 1.351 . S
C1038 C1039 1.434 . S
C1039 C1030 1.429 . S
C1039 N1036 1.350 . S
C1039 C1038 1.434 . S
C513 C4 1.031 . S
C515 C413 1.012 . S
C524 C189 1.029 . S
C526 C36 1.014 . S
C535 C68 1.016 . S
C537 C452 1.023 . S
C546 C125 1.028 . S
C548 C253 1.016 . S
C557 C157 1.019 . S
C559 C260 1.022 . S
C568 C349 1.029 . S
C570 C196 1.015 . S
C579 C420 1.020 . S
C581 C292 1.021 . S
C590 C381 1.010 . S
C592 C509 1.029 . S
C601 C290 1.910 . S
C603 C6 1.861 . S
C612 C38 1.860 . S
C614 C326 1.911 . S
C623 C70 1.856 . S
C625 C358 1.910 . S
C634 C258 1.910 . S
C636 C98 1.857 . S
C645 C418 1.912 . S
C647 C130 1.862 . S
C656 C450 1.909 . S
C658 C162 1.860 . S
C667 C198 1.855 . S
C669 C486 1.909 . S
C678 C390 1.912 . S
C680 C226 1.861 . S
C689 C262 1.858 . S
C691 C34 1.909 . S
C700 C294 1.863 1_565 S
C702 C66 1.911 . S
C711 C322 1.863 . S
C713 C102 1.911 . S
C722 C2 1.910 . S
C724 C354 1.857 1_545 S
C733 C166 1.909 . S
C735 C386 1.856 . S
C744 C422 1.861 1_545 S
C746 C194 1.910 . S
C755 C230 1.909 . S
C757 C454 1.859 . S
C766 C482 1.858 1_565 S
C768 C134 1.909 . S
C777 N18 1.343 . S
C779 N333 1.349 . S
C788 N50 1.349 . S
C790 N365 1.340 . S
C799 N274 1.340 . S
C801 N82 1.344 . S
C810 N109 1.339 . S
C812 N306 1.348 . S
C821 N141 1.344 . S
C823 N466 1.341 . S
C832 N173 1.350 . S
C834 N493 1.344 . S
C843 N397 1.344 . S
C845 N210 1.341 . S
C854 N237 1.339 . S
C856 N434 1.345 . S
C865 C29 1.134 . S
C867 N242 1.176 . S
C876 N402 1.181 . S
C878 C61 1.121 . S
C887 C93 1.120 . S
C889 N178 1.183 . S
C898 C100 1.126 . S
C900 N461 1.178 . S
C909 C132 1.120 . S
C911 N114 1.181 . S
C920 N269 1.178 . S
C922 C164 1.130 . S
C931 C221 1.125 . S
C933 N45 1.181 . S
C942 N338 1.179 . S
C944 C228 1.129 . S
C953 C285 1.124 . S
C955 N498 1.182 . S
C964 N146 1.181 . S
C966 C317 1.127 . S
C975 N429 1.179 . S
C977 C324 1.123 . S
C986 C356 1.121 . S
C988 N205 1.180 . S
C997 C388 1.119 . S
C999 N370 1.181 . S
C1008 C445 1.121 . S
C1010 N13 1.182 . S
C1019 N301 1.183 . S
C1021 C477 1.122 . S
C1030 N77 1.176 . S
C1032 C484 1.129 . S
