# Generated by pormake.
# Topology vcc, (6)-cn, num edge types: 1
# Building blocks:
#     Node 0, Type 0, BuildingBlock: VOLQOD_clean_sbu_1, # of connection points: 6
#     Node 1, Type 0, BuildingBlock: VOLQOD_clean_sbu_1, # of connection points: 6
#     Node 2, Type 0, BuildingBlock: VOLQOD_clean_sbu_1, # of connection points: 6
#     Node 3, Type 0, BuildingBlock: VOLQOD_clean_sbu_1, # of connection points: 6
#     Node 4, Type 0, BuildingBlock: VOLQOD_clean_sbu_1, # of connection points: 6
#     Node 5, Type 0, BuildingBlock: VOLQOD_clean_sbu_1, # of connection points: 6
#     Node 6, Type 0, BuildingBlock: VOLQOD_clean_sbu_1, # of connection points: 6
#     Node 7, Type 0, BuildingBlock: VOLQOD_clean_sbu_1, # of connection points: 6
#     Node 8, Type 0, BuildingBlock: VOLQOD_clean_sbu_1, # of connection points: 6
#     Node 9, Type 0, BuildingBlock: VOLQOD_clean_sbu_1, # of connection points: 6
#     Node 10, Type 0, BuildingBlock: VOLQOD_clean_sbu_1, # of connection points: 6
#     Node 11, Type 0, BuildingBlock: VOLQOD_clean_sbu_1, # of connection points: 6
#     Node 12, Type 0, BuildingBlock: VOLQOD_clean_sbu_1, # of connection points: 6
#     Node 13, Type 0, BuildingBlock: VOLQOD_clean_sbu_1, # of connection points: 6
#     Node 14, Type 0, BuildingBlock: VOLQOD_clean_sbu_1, # of connection points: 6
#     Node 15, Type 0, BuildingBlock: VOLQOD_clean_sbu_1, # of connection points: 6
#     Node 16, Type 0, BuildingBlock: VOLQOD_clean_sbu_1, # of connection points: 6
#     Node 17, Type 0, BuildingBlock: VOLQOD_clean_sbu_1, # of connection points: 6
#     Node 18, Type 0, BuildingBlock: VOLQOD_clean_sbu_1, # of connection points: 6
#     Node 19, Type 0, BuildingBlock: VOLQOD_clean_sbu_1, # of connection points: 6
#     Node 20, Type 0, BuildingBlock: VOLQOD_clean_sbu_1, # of connection points: 6
#     Node 21, Type 0, BuildingBlock: VOLQOD_clean_sbu_1, # of connection points: 6
#     Node 22, Type 0, BuildingBlock: VOLQOD_clean_sbu_1, # of connection points: 6
#     Node 23, Type 0, BuildingBlock: VOLQOD_clean_sbu_1, # of connection points: 6
#     Node 24, Type 0, BuildingBlock: VOLQOD_clean_sbu_1, # of connection points: 6
#     Node 25, Type 0, BuildingBlock: VOLQOD_clean_sbu_1, # of connection points: 6
#     Node 26, Type 0, BuildingBlock: VOLQOD_clean_sbu_1, # of connection points: 6
#     Node 27, Type 0, BuildingBlock: VOLQOD_clean_sbu_1, # of connection points: 6
#     Node 28, Type 0, BuildingBlock: VOLQOD_clean_sbu_1, # of connection points: 6
#     Node 29, Type 0, BuildingBlock: VOLQOD_clean_sbu_1, # of connection points: 6
#     Node 30, Type 0, BuildingBlock: VOLQOD_clean_sbu_1, # of connection points: 6
#     Node 31, Type 0, BuildingBlock: VOLQOD_clean_sbu_1, # of connection points: 6
#     Edge 32, Type (0, 0), BuildingBlock: OJICUG_clean_linker_0, # of connection points: 2
#     Edge 33, Type (0, 0), BuildingBlock: OJICUG_clean_linker_0, # of connection points: 2
#     Edge 34, Type (0, 0), BuildingBlock: OJICUG_clean_linker_0, # of connection points: 2
#     Edge 35, Type (0, 0), BuildingBlock: OJICUG_clean_linker_0, # of connection points: 2
#     Edge 36, Type (0, 0), BuildingBlock: OJICUG_clean_linker_0, # of connection points: 2
#     Edge 37, Type (0, 0), BuildingBlock: OJICUG_clean_linker_0, # of connection points: 2
#     Edge 38, Type (0, 0), BuildingBlock: OJICUG_clean_linker_0, # of connection points: 2
#     Edge 39, Type (0, 0), BuildingBlock: OJICUG_clean_linker_0, # of connection points: 2
#     Edge 40, Type (0, 0), BuildingBlock: OJICUG_clean_linker_0, # of connection points: 2
#     Edge 41, Type (0, 0), BuildingBlock: OJICUG_clean_linker_0, # of connection points: 2
#     Edge 42, Type (0, 0), BuildingBlock: OJICUG_clean_linker_0, # of connection points: 2
#     Edge 43, Type (0, 0), BuildingBlock: OJICUG_clean_linker_0, # of connection points: 2
#     Edge 44, Type (0, 0), BuildingBlock: OJICUG_clean_linker_0, # of connection points: 2
#     Edge 45, Type (0, 0), BuildingBlock: OJICUG_clean_linker_0, # of connection points: 2
#     Edge 46, Type (0, 0), BuildingBlock: OJICUG_clean_linker_0, # of connection points: 2
#     Edge 47, Type (0, 0), BuildingBlock: OJICUG_clean_linker_0, # of connection points: 2
#     Edge 48, Type (0, 0), BuildingBlock: OJICUG_clean_linker_0, # of connection points: 2
#     Edge 49, Type (0, 0), BuildingBlock: OJICUG_clean_linker_0, # of connection points: 2
#     Edge 50, Type (0, 0), BuildingBlock: OJICUG_clean_linker_0, # of connection points: 2
#     Edge 51, Type (0, 0), BuildingBlock: OJICUG_clean_linker_0, # of connection points: 2
#     Edge 52, Type (0, 0), BuildingBlock: OJICUG_clean_linker_0, # of connection points: 2
#     Edge 53, Type (0, 0), BuildingBlock: OJICUG_clean_linker_0, # of connection points: 2
#     Edge 54, Type (0, 0), BuildingBlock: OJICUG_clean_linker_0, # of connection points: 2
#     Edge 55, Type (0, 0), BuildingBlock: OJICUG_clean_linker_0, # of connection points: 2
#     Edge 56, Type (0, 0), BuildingBlock: OJICUG_clean_linker_0, # of connection points: 2
#     Edge 57, Type (0, 0), BuildingBlock: OJICUG_clean_linker_0, # of connection points: 2
#     Edge 58, Type (0, 0), BuildingBlock: OJICUG_clean_linker_0, # of connection points: 2
#     Edge 59, Type (0, 0), BuildingBlock: OJICUG_clean_linker_0, # of connection points: 2
#     Edge 60, Type (0, 0), BuildingBlock: OJICUG_clean_linker_0, # of connection points: 2
#     Edge 61, Type (0, 0), BuildingBlock: OJICUG_clean_linker_0, # of connection points: 2
#     Edge 62, Type (0, 0), BuildingBlock: OJICUG_clean_linker_0, # of connection points: 2
#     Edge 63, Type (0, 0), BuildingBlock: OJICUG_clean_linker_0, # of connection points: 2
#     Edge 64, Type (0, 0), BuildingBlock: OJICUG_clean_linker_0, # of connection points: 2
#     Edge 65, Type (0, 0), BuildingBlock: OJICUG_clean_linker_0, # of connection points: 2
#     Edge 66, Type (0, 0), BuildingBlock: OJICUG_clean_linker_0, # of connection points: 2
#     Edge 67, Type (0, 0), BuildingBlock: OJICUG_clean_linker_0, # of connection points: 2
#     Edge 68, Type (0, 0), BuildingBlock: OJICUG_clean_linker_0, # of connection points: 2
#     Edge 69, Type (0, 0), BuildingBlock: OJICUG_clean_linker_0, # of connection points: 2
#     Edge 70, Type (0, 0), BuildingBlock: OJICUG_clean_linker_0, # of connection points: 2
#     Edge 71, Type (0, 0), BuildingBlock: OJICUG_clean_linker_0, # of connection points: 2
#     Edge 72, Type (0, 0), BuildingBlock: OJICUG_clean_linker_0, # of connection points: 2
#     Edge 73, Type (0, 0), BuildingBlock: OJICUG_clean_linker_0, # of connection points: 2
#     Edge 74, Type (0, 0), BuildingBlock: OJICUG_clean_linker_0, # of connection points: 2
#     Edge 75, Type (0, 0), BuildingBlock: OJICUG_clean_linker_0, # of connection points: 2
#     Edge 76, Type (0, 0), BuildingBlock: OJICUG_clean_linker_0, # of connection points: 2
#     Edge 77, Type (0, 0), BuildingBlock: OJICUG_clean_linker_0, # of connection points: 2
#     Edge 78, Type (0, 0), BuildingBlock: OJICUG_clean_linker_0, # of connection points: 2
#     Edge 79, Type (0, 0), BuildingBlock: OJICUG_clean_linker_0, # of connection points: 2
#     Edge 80, Type (0, 0), BuildingBlock: OJICUG_clean_linker_0, # of connection points: 2
#     Edge 81, Type (0, 0), BuildingBlock: OJICUG_clean_linker_0, # of connection points: 2
#     Edge 82, Type (0, 0), BuildingBlock: OJICUG_clean_linker_0, # of connection points: 2
#     Edge 83, Type (0, 0), BuildingBlock: OJICUG_clean_linker_0, # of connection points: 2
#     Edge 84, Type (0, 0), BuildingBlock: OJICUG_clean_linker_0, # of connection points: 2
#     Edge 85, Type (0, 0), BuildingBlock: OJICUG_clean_linker_0, # of connection points: 2
#     Edge 86, Type (0, 0), BuildingBlock: OJICUG_clean_linker_0, # of connection points: 2
#     Edge 87, Type (0, 0), BuildingBlock: OJICUG_clean_linker_0, # of connection points: 2
#     Edge 88, Type (0, 0), BuildingBlock: OJICUG_clean_linker_0, # of connection points: 2
#     Edge 89, Type (0, 0), BuildingBlock: OJICUG_clean_linker_0, # of connection points: 2
#     Edge 90, Type (0, 0), BuildingBlock: OJICUG_clean_linker_0, # of connection points: 2
#     Edge 91, Type (0, 0), BuildingBlock: OJICUG_clean_linker_0, # of connection points: 2
#     Edge 92, Type (0, 0), BuildingBlock: OJICUG_clean_linker_0, # of connection points: 2
#     Edge 93, Type (0, 0), BuildingBlock: OJICUG_clean_linker_0, # of connection points: 2
#     Edge 94, Type (0, 0), BuildingBlock: OJICUG_clean_linker_0, # of connection points: 2
#     Edge 95, Type (0, 0), BuildingBlock: OJICUG_clean_linker_0, # of connection points: 2
#     Edge 96, Type (0, 0), BuildingBlock: OJICUG_clean_linker_0, # of connection points: 2
#     Edge 97, Type (0, 0), BuildingBlock: OJICUG_clean_linker_0, # of connection points: 2
#     Edge 98, Type (0, 0), BuildingBlock: OJICUG_clean_linker_0, # of connection points: 2
#     Edge 99, Type (0, 0), BuildingBlock: OJICUG_clean_linker_0, # of connection points: 2
#     Edge 100, Type (0, 0), BuildingBlock: OJICUG_clean_linker_0, # of connection points: 2
#     Edge 101, Type (0, 0), BuildingBlock: OJICUG_clean_linker_0, # of connection points: 2
#     Edge 102, Type (0, 0), BuildingBlock: OJICUG_clean_linker_0, # of connection points: 2
#     Edge 103, Type (0, 0), BuildingBlock: OJICUG_clean_linker_0, # of connection points: 2
#     Edge 104, Type (0, 0), BuildingBlock: OJICUG_clean_linker_0, # of connection points: 2
#     Edge 105, Type (0, 0), BuildingBlock: OJICUG_clean_linker_0, # of connection points: 2
#     Edge 106, Type (0, 0), BuildingBlock: OJICUG_clean_linker_0, # of connection points: 2
#     Edge 107, Type (0, 0), BuildingBlock: OJICUG_clean_linker_0, # of connection points: 2
#     Edge 108, Type (0, 0), BuildingBlock: OJICUG_clean_linker_0, # of connection points: 2
#     Edge 109, Type (0, 0), BuildingBlock: OJICUG_clean_linker_0, # of connection points: 2
#     Edge 110, Type (0, 0), BuildingBlock: OJICUG_clean_linker_0, # of connection points: 2
#     Edge 111, Type (0, 0), BuildingBlock: OJICUG_clean_linker_0, # of connection points: 2
#     Edge 112, Type (0, 0), BuildingBlock: OJICUG_clean_linker_0, # of connection points: 2
#     Edge 113, Type (0, 0), BuildingBlock: OJICUG_clean_linker_0, # of connection points: 2
#     Edge 114, Type (0, 0), BuildingBlock: OJICUG_clean_linker_0, # of connection points: 2
#     Edge 115, Type (0, 0), BuildingBlock: OJICUG_clean_linker_0, # of connection points: 2
#     Edge 116, Type (0, 0), BuildingBlock: OJICUG_clean_linker_0, # of connection points: 2
#     Edge 117, Type (0, 0), BuildingBlock: OJICUG_clean_linker_0, # of connection points: 2
#     Edge 118, Type (0, 0), BuildingBlock: OJICUG_clean_linker_0, # of connection points: 2
#     Edge 119, Type (0, 0), BuildingBlock: OJICUG_clean_linker_0, # of connection points: 2
#     Edge 120, Type (0, 0), BuildingBlock: OJICUG_clean_linker_0, # of connection points: 2
#     Edge 121, Type (0, 0), BuildingBlock: OJICUG_clean_linker_0, # of connection points: 2
#     Edge 122, Type (0, 0), BuildingBlock: OJICUG_clean_linker_0, # of connection points: 2
#     Edge 123, Type (0, 0), BuildingBlock: OJICUG_clean_linker_0, # of connection points: 2
#     Edge 124, Type (0, 0), BuildingBlock: OJICUG_clean_linker_0, # of connection points: 2
#     Edge 125, Type (0, 0), BuildingBlock: OJICUG_clean_linker_0, # of connection points: 2
#     Edge 126, Type (0, 0), BuildingBlock: OJICUG_clean_linker_0, # of connection points: 2
#     Edge 127, Type (0, 0), BuildingBlock: OJICUG_clean_linker_0, # of connection points: 2
# Relax obj value: 0.034
# Max RMSD: 0.059
# Mean RMSD: 0.059
data_MOF--net-vcc--node1-VOLQOD_clean_sbu_1--edge1-OJICUG_clean_linker_0
_symmetry_space_group_name_H-M    P1
_symmetry_Int_Tables_number       1
_symmetry_cell_setting            triclinic
loop_
_symmetry_equiv_pos_as_xyz
'x, y, z'
_cell_length_a     44.303852
_cell_length_b     51.779926
_cell_length_c     29.14545
_cell_angle_alpha  89.988621
_cell_angle_beta   90.000699
_cell_angle_gamma 89.999887
loop_
_atom_site_label
_atom_site_type_symbol
_atom_site_fract_x
_atom_site_fract_y
_atom_site_fract_z
_atom_type_partial_charge
O0 O 0.28437 0.95801 0.01996 0.0
Zn1 Zn 0.31582 0.95389 0.07086 0.0
O2 O 0.34711 -0.01964 0.06747 0.0
Zn3 Zn 0.38497 0.965 0.04758 0.0
Zn4 Zn 0.3328 0.00657 0.02526 0.0
Zn5 Zn 0.35405 -0.00289 0.1257 0.0
O6 O 0.42041 0.97564 0.08938 0.0
O7 O 0.39559 -0.00946 0.15023 0.0
O8 O 0.3344 0.91778 0.06897 0.0
O9 O 0.38246 0.9264 0.0534 0.0
O10 O 0.38993 0.97277 0.97946 0.0
O11 O 0.35781 0.00549 0.97027 0.0
O12 O 0.33414 0.04255 0.05034 0.0
O13 O 0.29338 0.95939 0.12994 0.0
O14 O 0.35038 0.03553 0.12109 0.0
O15 O 0.322 -0.01312 0.1694 0.0
C16 C 0.27663 0.9779 -0.00314 0.0
C17 C 0.42011 -0.01621 0.13087 0.0
C18 C 0.37757 -0.00986 0.95462 0.0
C19 C 0.36147 0.91027 0.06176 0.0
C20 C 0.342 0.05088 0.08957 0.0
C21 C 0.29852 0.9729 0.16567 0.0
O22 O 0.29166 -0.0012 -0.0006 0.0
O23 O 0.97003 0.2523 0.02162 0.0
Zn24 Zn 0.93851 0.25629 0.07252 0.0
O25 O 0.90726 0.22978 0.06894 0.0
Zn26 Zn 0.86937 0.24507 0.04904 0.0
Zn27 Zn 0.92168 0.2037 0.02662 0.0
Zn28 Zn 0.90031 0.21285 0.12703 0.0
O29 O 0.83399 0.2345 0.09098 0.0
O30 O 0.85885 0.21957 0.15179 0.0
O31 O 0.9198 0.29239 0.0708 0.0
O32 O 0.87182 0.28363 0.05491 0.0
O33 O 0.86428 0.23732 0.98092 0.0
O34 O 0.89679 0.20492 0.97156 0.0
O35 O 0.92022 0.16767 0.05132 0.0
O36 O 0.96093 0.25068 0.1316 0.0
O37 O 0.90376 0.17441 0.12204 0.0
O38 O 0.93248 0.22288 0.17068 0.0
C39 C 0.97784 0.23243 -0.00145 0.0
C40 C 0.83432 0.2264 0.13251 0.0
C41 C 0.87682 0.22009 0.956 0.0
C42 C 0.89271 0.29981 0.06348 0.0
C43 C 0.91219 0.15918 0.09037 0.0
C44 C 0.95589 0.23697 0.16714 0.0
O45 O 0.96286 0.2115 0.00105 0.0
O46 O 0.28622 0.25303 0.19573 0.0
Zn47 Zn 0.31754 0.25705 0.14457 0.0
O48 O 0.34906 0.2308 0.14813 0.0
Zn49 Zn 0.38675 0.24646 0.16801 0.0
Zn50 Zn 0.33505 0.20459 0.19052 0.0
Zn51 Zn 0.35611 0.21399 0.08993 0.0
O52 O 0.42233 0.2359 0.12643 0.0
O53 O 0.39775 0.22051 0.06574 0.0
O54 O 0.33585 0.29325 0.14561 0.0
O55 O 0.38394 0.28504 0.16165 0.0
O56 O 0.39178 0.2387 0.23614 0.0
O57 O 0.36073 0.20519 0.24483 0.0
O58 O 0.33561 0.16871 0.16507 0.0
O59 O 0.29507 0.25118 0.08567 0.0
O60 O 0.35215 0.17557 0.09443 0.0
O61 O 0.3242 0.22422 0.04593 0.0
C62 C 0.27891 0.23328 0.21951 0.0
C63 C 0.42218 0.22752 0.08509 0.0
C64 C 0.38009 0.22086 0.26066 0.0
C65 C 0.36284 0.30097 0.15276 0.0
C66 C 0.34341 0.16031 0.12587 0.0
C67 C 0.30046 0.23786 0.04979 0.0
O68 O 0.29424 0.21253 0.21737 0.0
O69 O 0.9682 0.95662 0.19407 0.0
Zn70 Zn 0.93684 0.95272 0.14289 0.0
O71 O 0.90535 0.97902 0.14662 0.0
Zn72 Zn 0.86761 0.96342 0.16649 0.0
Zn73 Zn 0.91946 0.00511 0.1891 0.0
Zn74 Zn 0.8983 -0.004 0.08856 0.0
O75 O 0.83211 0.97391 0.12474 0.0
O76 O 0.85675 -0.01067 0.06411 0.0
O77 O 0.9184 0.91655 0.14374 0.0
O78 O 0.87039 0.92488 0.16013 0.0
O79 O 0.8624 0.9712 0.23461 0.0
O80 O 0.89388 0.00439 0.24346 0.0
O81 O 0.91879 0.04103 0.16402 0.0
O82 O 0.95931 0.95872 0.08399 0.0
O83 O 0.90203 0.03444 0.09342 0.0
O84 O 0.93033 -0.01402 0.04463 0.0
C85 C 0.97557 0.97636 0.21784 0.0
C86 C 0.83231 -0.01775 0.08337 0.0
C87 C 0.87427 -0.01107 0.25918 0.0
C88 C 0.8914 0.9089 0.15103 0.0
C89 C 0.91082 0.04959 0.125 0.0
C90 C 0.954 0.97223 0.04831 0.0
O91 O 0.96029 -0.00287 0.21573 0.0
O92 O 0.71818 0.00186 0.94427 0.0
Zn93 Zn 0.68681 0.00608 0.89332 0.0
O94 O 0.65534 0.97979 0.89665 0.0
Zn95 Zn 0.61762 -0.00459 0.91646 0.0
Zn96 Zn 0.66936 0.95351 0.93899 0.0
Zn97 Zn 0.64837 0.96307 0.83837 0.0
O98 O 0.58208 -0.01519 0.87481 0.0
O99 O 0.60676 0.96958 0.81407 0.0
O100 O 0.66855 0.04228 0.89504 0.0
O101 O 0.62039 0.03401 0.91041 0.0
O102 O 0.61265 -0.01228 -0.01542 0.0
O103 O 0.644 0.95446 -0.00633 0.0
O104 O 0.66832 0.91758 0.91364 0.0
O105 O 0.70922 0.0005 0.83432 0.0
O106 O 0.65224 0.92465 0.84281 0.0
O107 O 0.68034 0.97338 0.79452 0.0
C108 C 0.72564 -0.01798 0.9677 0.0
C109 C 0.58228 0.9765 0.83343 0.0
C110 C 0.62457 0.97011 0.00936 0.0
C111 C 0.64154 0.04998 0.90207 0.0
C112 C 0.66065 0.90928 0.8743 0.0
C113 C 0.70395 -0.01282 0.79841 0.0
O114 O 0.71038 0.96124 0.96538 0.0
O115 O 0.03444 0.7072 0.94053 0.0
Zn116 Zn 0.06594 0.70341 0.88955 0.0
O117 O 0.09728 0.72982 0.8935 0.0
Zn118 Zn 0.1351 0.71437 0.91337 0.0
Zn119 Zn 0.08291 0.7558 0.93603 0.0
Zn120 Zn 0.10433 0.74692 0.83556 0.0
O121 O 0.17053 0.72484 0.87147 0.0
O122 O 0.1458 0.74019 0.81087 0.0
O123 O 0.08452 0.66728 0.8908 0.0
O124 O 0.13246 0.67582 0.90732 0.0
O125 O 0.14033 0.72213 -0.01852 0.0
O126 O 0.10809 0.75474 -0.00923 0.0
O127 O 0.08397 0.79182 0.9114 0.0
O128 O 0.04355 0.70934 0.83055 0.0
O129 O 0.10081 0.78535 0.8408 0.0
O130 O 0.07221 0.73707 0.79167 0.0
C131 C 0.0268 0.72693 0.9641 0.0
C132 C 0.17027 0.73312 0.83007 0.0
C133 C 0.12802 0.73952 0.00631 0.0
C134 C 0.11154 0.65974 0.89833 0.0
C135 C 0.09209 0.80045 0.8725 0.0
C136 C 0.0487 0.7231 0.7951 0.0
O137 O 0.0419 0.74781 0.96198 0.0
O138 O 0.71827 0.70736 0.76642 0.0
Zn139 Zn 0.68696 0.70312 0.81755 0.0
O140 O 0.65551 0.72946 0.81438 0.0
Zn141 Zn 0.61774 0.71396 0.79448 0.0
Zn142 Zn 0.66955 0.7558 0.77223 0.0
Zn143 Zn 0.64856 0.74608 0.87273 0.0
O144 O 0.58222 0.72459 0.83615 0.0
O145 O 0.60696 0.73956 0.89703 0.0
O146 O 0.66853 0.66695 0.81605 0.0
O147 O 0.62041 0.67537 0.80059 0.0
O148 O 0.61279 0.72177 0.72636 0.0
O149 O 0.64412 0.75508 0.71766 0.0
O150 O 0.66861 0.79167 0.79781 0.0
O151 O 0.70949 0.7087 0.87651 0.0
O152 O 0.65241 0.78452 0.86854 0.0
O153 O 0.68054 0.7357 0.91646 0.0
C154 C 0.72572 0.72725 0.74312 0.0
C155 C 0.58246 0.73279 0.8776 0.0
C156 C 0.62469 0.73949 0.7018 0.0
C157 C 0.64148 0.65933 0.80907 0.0
C158 C 0.66087 0.79992 0.83715 0.0
C159 C 0.7042 0.72196 0.91248 0.0
O160 O 0.71051 0.74805 0.74568 0.0
O161 O 0.03436 0.0034 0.77019 0.0
Zn162 Zn 0.06583 0.00719 0.82129 0.0
O163 O 0.09712 -0.01928 0.81747 0.0
Zn164 Zn 0.13499 -0.00395 0.79752 0.0
Zn165 Zn 0.0827 0.95471 0.77508 0.0
Zn166 Zn 0.10415 0.96369 0.87546 0.0
O167 O 0.17041 -0.0145 0.83939 0.0
O168 O 0.14562 0.97042 0.90015 0.0
O169 O 0.08459 0.04328 0.82024 0.0
O170 O 0.1325 0.03459 0.80371 0.0
O171 O 0.14015 -0.01176 0.72939 0.0
O172 O 0.10787 0.95564 0.72034 0.0
O173 O 0.08374 0.91871 0.79983 0.0
O174 O 0.04335 0.0013 0.88026 0.0
O175 O 0.10063 0.92525 0.87038 0.0
O176 O 0.07202 0.97362 0.91925 0.0
C177 C 0.02668 -0.01639 0.74678 0.0
C178 C 0.17012 0.97734 0.88087 0.0
C179 C 0.12781 0.97081 0.70468 0.0
C180 C 0.11166 0.05073 0.81281 0.0
C181 C 0.09189 0.91012 0.83874 0.0
C182 C 0.04851 -0.01242 0.91576 0.0
O183 O 0.04172 0.96272 0.7491 0.0
O184 O 0.28486 0.45651 0.51844 0.0
Zn185 Zn 0.31627 0.45256 0.5696 0.0
O186 O 0.34764 0.47897 0.566 0.0
Zn187 Zn 0.38547 0.46357 0.54605 0.0
Zn188 Zn 0.33338 0.5051 0.5237 0.0
Zn189 Zn 0.35465 0.49587 0.62411 0.0
O190 O 0.42093 0.47413 0.58785 0.0
O191 O 0.39616 0.48918 0.64865 0.0
O192 O 0.33492 0.41644 0.56855 0.0
O193 O 0.38289 0.42502 0.55231 0.0
O194 O 0.3906 0.47141 0.47793 0.0
O195 O 0.3587 0.5043 0.46909 0.0
O196 O 0.33434 0.54103 0.54873 0.0
O197 O 0.29376 0.45838 0.62855 0.0
O198 O 0.35103 0.53432 0.61933 0.0
O199 O 0.32257 0.48578 0.66788 0.0
C200 C 0.27731 0.47635 0.49504 0.0
C201 C 0.42066 0.4823 0.62932 0.0
C202 C 0.37846 0.489 0.45334 0.0
C203 C 0.36199 0.40893 0.56129 0.0
C204 C 0.34236 0.54952 0.58776 0.0
C205 C 0.29898 0.47193 0.66422 0.0
O206 O 0.29245 0.49719 0.49744 0.0
O207 O 0.96828 0.75337 0.51659 0.0
Zn208 Zn 0.93695 0.75744 0.56777 0.0
O209 O 0.90552 0.73109 0.56439 0.0
Zn210 Zn 0.86774 0.74657 0.54442 0.0
Zn211 Zn 0.91965 0.70483 0.52222 0.0
Zn212 Zn 0.89851 0.71437 0.62266 0.0
O213 O 0.83221 0.73595 0.58608 0.0
O214 O 0.85692 0.72092 0.64696 0.0
O215 O 0.91844 0.79359 0.56658 0.0
O216 O 0.87039 0.78515 0.55064 0.0
O217 O 0.86275 0.73873 0.4763 0.0
O218 O 0.89417 0.70547 0.46771 0.0
O219 O 0.91884 0.66896 0.54771 0.0
O220 O 0.95949 0.75169 0.6267 0.0
O221 O 0.90233 0.67594 0.61832 0.0
O222 O 0.93048 0.72464 0.66647 0.0
C223 C 0.97574 0.73352 0.49316 0.0
C224 C 0.83243 0.72774 0.62754 0.0
C225 C 0.87466 0.72098 0.45183 0.0
C226 C 0.89139 0.80119 0.55944 0.0
C227 C 0.91097 0.66062 0.58693 0.0
C228 C 0.95417 0.73835 0.66259 0.0
O229 O 0.96054 0.71271 0.49563 0.0
O230 O 0.28447 0.75218 0.69071 0.0
Zn231 Zn 0.31596 0.75614 0.63982 0.0
O232 O 0.34731 0.72974 0.64356 0.0
Zn233 Zn 0.38512 0.74521 0.66338 0.0
Zn234 Zn 0.33302 0.70368 0.68605 0.0
Zn235 Zn 0.35431 0.71274 0.58553 0.0
O236 O 0.42055 0.73473 0.62149 0.0
O237 O 0.3958 0.71946 0.56086 0.0
O238 O 0.33446 0.79229 0.64139 0.0
O239 O 0.38247 0.78378 0.65744 0.0
O240 O 0.39028 0.7375 0.7315 0.0
O241 O 0.3581 0.70485 0.74092 0.0
O242 O 0.33427 0.66765 0.66136 0.0
O243 O 0.29359 0.75039 0.58077 0.0
O244 O 0.35078 0.67431 0.59063 0.0
O245 O 0.32218 0.7227 0.54172 0.0
C246 C 0.2768 0.73239 0.71412 0.0
C247 C 0.42028 0.72648 0.58007 0.0
C248 C 0.37796 0.72015 0.75642 0.0
C249 C 0.36148 0.79985 0.64877 0.0
C250 C 0.34225 0.65912 0.62233 0.0
C251 C 0.29871 0.73671 0.54524 0.0
O252 O 0.29191 0.71152 0.7119 0.0
O253 O 0.96867 0.45834 0.69255 0.0
Zn254 Zn 0.93723 0.45427 0.64167 0.0
O255 O 0.90585 0.48063 0.64521 0.0
Zn256 Zn 0.86808 0.46508 0.66504 0.0
Zn257 Zn 0.92003 0.5068 0.68761 0.0
Zn258 Zn 0.89886 0.49747 0.58703 0.0
O259 O 0.83258 0.47565 0.6233 0.0
O260 O 0.85728 0.4909 0.5626 0.0
O261 O 0.91887 0.41811 0.6434 0.0
O262 O 0.87078 0.42648 0.65909 0.0
O263 O 0.86308 0.47276 0.73316 0.0
O264 O 0.89484 0.50572 0.74243 0.0
O265 O 0.91889 0.54279 0.66253 0.0
O266 O 0.95961 0.45992 0.58263 0.0
O267 O 0.90261 0.53588 0.59175 0.0
O268 O 0.93087 0.48731 0.54316 0.0
C269 C 0.97627 0.47814 0.71596 0.0
C270 C 0.83281 0.48395 0.58191 0.0
C271 C 0.87522 0.49022 0.75803 0.0
C272 C 0.89186 0.41047 0.65063 0.0
C273 C 0.91107 0.55118 0.62331 0.0
C274 C 0.95441 0.47341 0.54689 0.0
O275 O 0.96112 0.49899 0.7137 0.0
O276 O 0.7187 0.50338 0.44233 0.0
Zn277 Zn 0.68727 0.50714 0.39121 0.0
O278 O 0.65586 0.48079 0.39517 0.0
Zn279 Zn 0.61808 0.49631 0.41504 0.0
Zn280 Zn 0.67013 0.45479 0.43772 0.0
Zn281 Zn 0.64878 0.46371 0.33722 0.0
O282 O 0.58261 0.48585 0.37323 0.0
O283 O 0.60727 0.47042 0.31265 0.0
O284 O 0.66873 0.54329 0.39207 0.0
O285 O 0.62079 0.53485 0.40875 0.0
O286 O 0.61285 0.48854 0.48316 0.0
O287 O 0.64471 0.45563 0.49223 0.0
O288 O 0.66935 0.41881 0.41293 0.0
O289 O 0.70971 0.50109 0.33228 0.0
O290 O 0.65241 0.42527 0.34238 0.0
O291 O 0.68085 0.47359 0.29327 0.0
C292 C 0.7262 0.48368 0.4661 0.0
C293 C 0.58283 0.47753 0.33186 0.0
C294 C 0.62493 0.47096 0.50785 0.0
C295 C 0.64172 0.55088 0.39954 0.0
C296 C 0.66126 0.41019 0.37402 0.0
C297 C 0.70446 0.48743 0.29677 0.0
O298 O 0.71102 0.46285 0.46406 0.0
O299 O 0.03623 0.20772 0.44591 0.0
Zn300 Zn 0.06753 0.20354 0.39483 0.0
O301 O 0.09907 0.22978 0.39817 0.0
Zn302 Zn 0.13676 0.21408 0.41798 0.0
Zn303 Zn 0.08516 0.25606 0.44054 0.0
Zn304 Zn 0.10606 0.24651 0.33988 0.0
O305 O 0.17233 0.22466 0.37637 0.0
O306 O 0.1477 0.24 0.31566 0.0
O307 O 0.08575 0.16732 0.3962 0.0
O308 O 0.13392 0.17549 0.41173 0.0
O309 O 0.14178 0.22178 0.4861 0.0
O310 O 0.11076 0.25529 0.49495 0.0
O311 O 0.08593 0.29194 0.41503 0.0
O312 O 0.04508 0.20925 0.33589 0.0
O313 O 0.10212 0.28493 0.34425 0.0
O314 O 0.07412 0.2362 0.29597 0.0
C315 C 0.02891 0.22753 0.46954 0.0
C316 C 0.17216 0.23303 0.33502 0.0
C317 C 0.13007 0.23956 0.51073 0.0
C318 C 0.11275 0.15957 0.40318 0.0
C319 C 0.09359 0.30027 0.3757 0.0
C320 C 0.05043 0.22251 0.29993 0.0
O321 O 0.04426 0.24827 0.46729 0.0
O322 O 0.72003 0.20723 0.2718 0.0
Zn323 Zn 0.68849 0.2034 0.32277 0.0
O324 O 0.65727 0.22993 0.31896 0.0
Zn325 Zn 0.61937 0.21468 0.29899 0.0
Zn326 Zn 0.6718 0.25595 0.27662 0.0
Zn327 Zn 0.65026 0.24694 0.37695 0.0
O328 O 0.58397 0.22523 0.3409 0.0
O329 O 0.60881 0.24018 0.40171 0.0
O330 O 0.66969 0.16734 0.32137 0.0
O331 O 0.62179 0.17613 0.30497 0.0
O332 O 0.61428 0.22249 0.23087 0.0
O333 O 0.64687 0.25484 0.22163 0.0
O334 O 0.6705 0.29198 0.30124 0.0
O335 O 0.71093 0.20917 0.38181 0.0
O336 O 0.65369 0.28537 0.37182 0.0
O337 O 0.68242 0.237 0.42068 0.0
C338 C 0.72786 0.22706 0.2486 0.0
C339 C 0.58429 0.23333 0.38242 0.0
C340 C 0.62684 0.23974 0.20603 0.0
C341 C 0.64261 0.15994 0.31387 0.0
C342 C 0.66232 0.30054 0.34015 0.0
C343 C 0.70585 0.22294 0.41726 0.0
O344 O 0.71292 0.248 0.25101 0.0
O345 O 0.03486 0.50226 0.2682 0.0
Zn346 Zn 0.06625 0.50652 0.31917 0.0
O347 O 0.09763 0.48013 0.31602 0.0
Zn348 Zn 0.13544 0.49557 0.29612 0.0
Zn349 Zn 0.08349 0.45381 0.2739 0.0
Zn350 Zn 0.10455 0.46349 0.37437 0.0
O351 O 0.17092 0.48492 0.33788 0.0
O352 O 0.14612 0.47003 0.39878 0.0
O353 O 0.08472 0.54268 0.31728 0.0
O354 O 0.13284 0.53417 0.30199 0.0
O355 O 0.1404 0.48777 0.22802 0.0
O356 O 0.10866 0.45477 0.21906 0.0
O357 O 0.08475 0.41789 0.29929 0.0
O358 O 0.04377 0.50107 0.37822 0.0
O359 O 0.10081 0.42506 0.37008 0.0
O360 O 0.07253 0.47385 0.41803 0.0
C361 C 0.02726 0.48232 0.24513 0.0
C362 C 0.17064 0.47677 0.37937 0.0
C363 C 0.12825 0.47024 0.20331 0.0
C364 C 0.11178 0.55025 0.31023 0.0
C365 C 0.09249 0.40964 0.33864 0.0
C366 C 0.04897 0.48772 0.41412 0.0
O367 O 0.04239 0.46148 0.24776 0.0
O368 O 0.78436 0.9582 0.5199 0.0
Zn369 Zn 0.81582 0.95402 0.57078 0.0
O370 O 0.84713 -0.01953 0.56744 0.0
Zn371 Zn 0.88497 0.96509 0.54756 0.0
Zn372 Zn 0.83286 0.0067 0.52524 0.0
Zn373 Zn 0.85407 -0.00279 0.62568 0.0
O374 O 0.92041 0.97569 0.58938 0.0
O375 O 0.89559 -0.00942 0.65025 0.0
O376 O 0.83436 0.91789 0.56884 0.0
O377 O 0.88243 0.9265 0.55339 0.0
O378 O 0.88993 0.97284 0.47944 0.0
O379 O 0.85782 0.00555 0.47021 0.0
O380 O 0.83431 0.04268 0.55029 0.0
O381 O 0.79339 0.95949 0.62986 0.0
O382 O 0.85047 0.03564 0.62108 0.0
O383 O 0.82198 -0.01301 0.66934 0.0
C384 C 0.77662 0.97812 0.49688 0.0
C385 C 0.92011 -0.01619 0.63088 0.0
C386 C 0.87757 -0.00982 0.45457 0.0
C387 C 0.86143 0.91037 0.56169 0.0
C388 C 0.84216 0.05101 0.58953 0.0
C389 C 0.79851 0.973 0.6656 0.0
O390 O 0.79167 -0.00099 0.49946 0.0
O391 O 0.47002 0.25247 0.52165 0.0
Zn392 Zn 0.4385 0.2564 0.57257 0.0
O393 O 0.40727 0.22988 0.56895 0.0
Zn394 Zn 0.36936 0.24515 0.54905 0.0
Zn395 Zn 0.42172 0.20381 0.52663 0.0
Zn396 Zn 0.40032 0.21294 0.62703 0.0
O397 O 0.33398 0.23456 0.591 0.0
O398 O 0.35886 0.2196 0.65177 0.0
O399 O 0.41976 0.29248 0.57087 0.0
O400 O 0.3718 0.28372 0.55489 0.0
O401 O 0.36427 0.23736 0.48095 0.0
O402 O 0.39677 0.20495 0.47163 0.0
O403 O 0.42037 0.16778 0.55136 0.0
O404 O 0.46094 0.25077 0.63165 0.0
O405 O 0.40384 0.17451 0.62205 0.0
O406 O 0.43246 0.22299 0.67071 0.0
C407 C 0.47782 0.23262 0.4985 0.0
C408 C 0.33432 0.22643 0.6325 0.0
C409 C 0.37679 0.22011 0.45606 0.0
C410 C 0.39267 0.2999 0.56349 0.0
C411 C 0.41234 0.15929 0.5904 0.0
C412 C 0.45587 0.23707 0.66719 0.0
O413 O 0.46286 0.21169 0.50095 0.0
O414 O 0.78619 0.25309 0.69576 0.0
Zn415 Zn 0.81749 0.25718 0.6446 0.0
O416 O 0.84904 0.23095 0.64809 0.0
Zn417 Zn 0.88672 0.24663 0.66797 0.0
Zn418 Zn 0.83507 0.20471 0.69046 0.0
Zn419 Zn 0.85608 0.21416 0.58987 0.0
O420 O 0.92229 0.23611 0.62634 0.0
O421 O 0.8977 0.22074 0.56563 0.0
O422 O 0.83576 0.29339 0.64568 0.0
O423 O 0.88386 0.2852 0.66164 0.0
O424 O 0.8918 0.23884 0.73608 0.0
O425 O 0.86073 0.20535 0.74478 0.0
O426 O 0.83572 0.16884 0.665 0.0
O427 O 0.79502 0.25132 0.5857 0.0
O428 O 0.85221 0.17572 0.59434 0.0
O429 O 0.82413 0.22437 0.54593 0.0
C430 C 0.77889 0.23331 0.71948 0.0
C431 C 0.92213 0.22775 0.58498 0.0
C432 C 0.88011 0.221 0.7606 0.0
C433 C 0.86275 0.30113 0.6528 0.0
C434 C 0.84353 0.16045 0.62579 0.0
C435 C 0.80039 0.23801 0.54981 0.0
O436 O 0.79423 0.21258 0.71728 0.0
O437 O 0.46819 0.95667 0.694 0.0
Zn438 Zn 0.43681 0.95283 0.64283 0.0
O439 O 0.40535 0.97914 0.64664 0.0
Zn440 Zn 0.3676 0.96356 0.66652 0.0
Zn441 Zn 0.4195 0.00521 0.68915 0.0
Zn442 Zn 0.39828 -0.00386 0.5886 0.0
O443 O 0.33209 0.97408 0.62479 0.0
O444 O 0.35672 -0.01047 0.56418 0.0
O445 O 0.41834 0.91667 0.64367 0.0
O446 O 0.37034 0.92502 0.66014 0.0
O447 O 0.36242 0.97133 0.73463 0.0
O448 O 0.39391 0.00451 0.74351 0.0
O449 O 0.4189 0.04114 0.66407 0.0
O450 O 0.45926 0.95884 0.58392 0.0
O451 O 0.40208 0.03458 0.59349 0.0
O452 O 0.43028 -0.01388 0.54461 0.0
C453 C 0.47558 0.97638 0.71783 0.0
C454 C 0.33228 -0.01755 0.58344 0.0
C455 C 0.3743 -0.01095 0.75922 0.0
C456 C 0.39133 0.90903 0.651 0.0
C457 C 0.41092 0.04971 0.62506 0.0
C458 C 0.45395 0.97237 0.54826 0.0
O459 O 0.46031 -0.00283 0.71577 0.0
O460 O 0.21817 0.00206 0.44426 0.0
Zn461 Zn 0.18682 0.00625 0.39329 0.0
O462 O 0.15535 0.97995 0.39663 0.0
Zn463 Zn 0.11762 -0.00444 0.41645 0.0
Zn464 Zn 0.16938 0.95367 0.43895 0.0
Zn465 Zn 0.14838 0.96324 0.33835 0.0
O466 O 0.08208 -0.01503 0.37479 0.0
O467 O 0.10676 0.96973 0.31406 0.0
O468 O 0.16854 0.04244 0.39498 0.0
O469 O 0.12039 0.03417 0.41045 0.0
O470 O 0.11263 -0.01218 0.48456 0.0
O471 O 0.14397 0.95454 0.49357 0.0
O472 O 0.16842 0.91776 0.41354 0.0
O473 O 0.20924 0.00064 0.33429 0.0
O474 O 0.15226 0.92482 0.34276 0.0
O475 O 0.18032 0.97355 0.29449 0.0
C476 C 0.22562 -0.01777 0.46773 0.0
C477 C 0.08229 0.97664 0.33341 0.0
C478 C 0.12453 0.97018 0.50928 0.0
C479 C 0.14153 0.05015 0.40206 0.0
C480 C 0.16072 0.90946 0.37421 0.0
C481 C 0.20396 -0.01268 0.29838 0.0
O482 O 0.21037 0.96144 0.46542 0.0
O483 O 0.53447 0.70747 0.44059 0.0
Zn484 Zn 0.56598 0.70366 0.38964 0.0
O485 O 0.59731 0.73007 0.39355 0.0
Zn486 Zn 0.63513 0.71461 0.41342 0.0
Zn487 Zn 0.58295 0.75605 0.43609 0.0
Zn488 Zn 0.60436 0.74717 0.33561 0.0
O489 O 0.67056 0.72507 0.37152 0.0
O490 O 0.64583 0.74041 0.31091 0.0
O491 O 0.58454 0.66753 0.39093 0.0
O492 O 0.63249 0.67606 0.40736 0.0
O493 O 0.64034 0.72234 0.48154 0.0
O494 O 0.60809 0.75495 0.49087 0.0
O495 O 0.58408 0.79208 0.41149 0.0
O496 O 0.5436 0.70955 0.33063 0.0
O497 O 0.60085 0.7856 0.34086 0.0
O498 O 0.57223 0.7373 0.29174 0.0
C499 C 0.52681 0.72722 0.46411 0.0
C500 C 0.6703 0.73334 0.33011 0.0
C501 C 0.62801 0.73971 0.5064 0.0
C502 C 0.61157 0.65999 0.39841 0.0
C503 C 0.59218 0.80071 0.37258 0.0
C504 C 0.54874 0.72331 0.29517 0.0
O505 O 0.54191 0.7481 0.46198 0.0
O506 O 0.21827 0.70749 0.2665 0.0
Zn507 Zn 0.18694 0.70329 0.3176 0.0
O508 O 0.15551 0.72964 0.31437 0.0
Zn509 Zn 0.11773 0.71415 0.29447 0.0
Zn510 Zn 0.16958 0.75596 0.27219 0.0
Zn511 Zn 0.14856 0.74628 0.37271 0.0
O512 O 0.08221 0.72481 0.33611 0.0
O513 O 0.10694 0.73979 0.39699 0.0
O514 O 0.16848 0.66712 0.3161 0.0
O515 O 0.12037 0.67556 0.30063 0.0
O516 O 0.11281 0.72192 0.22634 0.0
O517 O 0.1442 0.75519 0.21755 0.0
O518 O 0.16863 0.79184 0.29771 0.0
O519 O 0.20945 0.70886 0.37657 0.0
O520 O 0.15244 0.78471 0.36846 0.0
O521 O 0.18052 0.7359 0.41648 0.0
C522 C 0.22576 0.72737 0.2432 0.0
C523 C 0.08244 0.73302 0.37756 0.0
C524 C 0.12475 0.7396 0.20172 0.0
C525 C 0.14143 0.65951 0.30911 0.0
C526 C 0.16091 0.8001 0.33705 0.0
C527 C 0.20416 0.72214 0.41253 0.0
O528 O 0.21056 0.74818 0.24572 0.0
O529 O 0.53433 0.0036 0.27014 0.0
Zn530 Zn 0.56578 0.00743 0.32127 0.0
O531 O 0.5971 -0.01902 0.31749 0.0
Zn532 Zn 0.63496 -0.00367 0.29754 0.0
Zn533 Zn 0.58272 0.95494 0.27513 0.0
Zn534 Zn 0.60414 0.96397 0.3755 0.0
O535 O 0.67038 -0.01418 0.33945 0.0
O536 O 0.64559 0.97074 0.40021 0.0
O537 O 0.58451 0.04354 0.32021 0.0
O538 O 0.63243 0.03486 0.3037 0.0
O539 O 0.64016 -0.01151 0.22943 0.0
O540 O 0.60792 0.95586 0.22042 0.0
O541 O 0.58378 0.91896 0.29991 0.0
O542 O 0.54329 0.00153 0.38024 0.0
O543 O 0.60066 0.92552 0.37046 0.0
O544 O 0.57198 0.97389 0.41925 0.0
C545 C 0.52668 -0.0162 0.24675 0.0
C546 C 0.67008 0.97767 0.38094 0.0
C547 C 0.62785 0.97103 0.20476 0.0
C548 C 0.61158 0.05099 0.31278 0.0
C549 C 0.59194 0.91038 0.33882 0.0
C550 C 0.54845 -0.01218 0.41574 0.0
O551 O 0.54174 0.96292 0.2491 0.0
O552 O 0.78484 0.45634 0.01853 0.0
Zn553 Zn 0.81625 0.45245 0.06972 0.0
O554 O 0.84761 0.47886 0.06606 0.0
Zn555 Zn 0.88545 0.46348 0.04611 0.0
Zn556 Zn 0.83333 0.50498 0.02374 0.0
Zn557 Zn 0.85463 0.49578 0.12415 0.0
O558 O 0.9209 0.47406 0.08791 0.0
O559 O 0.89615 0.48915 0.14868 0.0
O560 O 0.83493 0.41633 0.06872 0.0
O561 O 0.88289 0.42493 0.05236 0.0
O562 O 0.89059 0.47134 0.978 0.0
O563 O 0.85871 0.50425 0.96918 0.0
O564 O 0.83416 0.5409 0.0488 0.0
O565 O 0.79372 0.45831 0.12866 0.0
O566 O 0.85095 0.53422 0.11936 0.0
O567 O 0.82258 0.4857 0.16795 0.0
C568 C 0.77731 0.47615 -0.00496 0.0
C569 C 0.92064 0.48226 0.12936 0.0
C570 C 0.87847 0.48896 0.95343 0.0
C571 C 0.86199 0.40883 0.0614 0.0
C572 C 0.8422 0.54941 0.08782 0.0
C573 C 0.79897 0.47187 0.16431 0.0
O574 O 0.79244 0.49699 -0.00261 0.0
O575 O 0.46829 0.75321 0.01656 0.0
Zn576 Zn 0.43697 0.75732 0.06773 0.0
O577 O 0.40552 0.73098 0.0644 0.0
Zn578 Zn 0.36776 0.74648 0.04446 0.0
Zn579 Zn 0.41962 0.70471 0.02222 0.0
Zn580 Zn 0.39853 0.71427 0.12268 0.0
O581 O 0.33223 0.73589 0.08615 0.0
O582 O 0.35695 0.72086 0.14702 0.0
O583 O 0.41849 0.79349 0.06651 0.0
O584 O 0.37042 0.78506 0.0507 0.0
O585 O 0.36275 0.73867 0.97634 0.0
O586 O 0.39417 0.70542 0.96769 0.0
O587 O 0.41873 0.66884 0.04767 0.0
O588 O 0.45951 0.75161 0.12666 0.0
O589 O 0.4023 0.67582 0.11833 0.0
O590 O 0.43054 0.72453 0.16645 0.0
C591 C 0.47575 0.73334 -0.00682 0.0
C592 C 0.33246 0.72769 0.12761 0.0
C593 C 0.37467 0.72094 0.95182 0.0
C594 C 0.39144 0.80109 0.05944 0.0
C595 C 0.41088 0.66049 0.0869 0.0
C596 C 0.45421 0.73826 0.16255 0.0
O597 O 0.46054 0.71254 -0.00432 0.0
O598 O 0.78448 0.75215 0.19063 0.0
Zn599 Zn 0.81599 0.75604 0.13974 0.0
O600 O 0.8473 0.72961 0.14355 0.0
Zn601 Zn 0.88514 0.74507 0.16336 0.0
Zn602 Zn 0.83297 0.70359 0.18608 0.0
Zn603 Zn 0.8543 0.71259 0.08554 0.0
O604 O 0.92056 0.73453 0.12149 0.0
O605 O 0.8958 0.71923 0.06089 0.0
O606 O 0.83452 0.79217 0.14129 0.0
O607 O 0.88252 0.78363 0.15738 0.0
O608 O 0.89027 0.73737 0.23148 0.0
O609 O 0.85808 0.70474 0.24093 0.0
O610 O 0.83413 0.66755 0.16141 0.0
O611 O 0.79362 0.75028 0.08069 0.0
O612 O 0.85067 0.67417 0.09069 0.0
O613 O 0.82221 0.72257 0.04168 0.0
C614 C 0.7768 0.73239 0.21411 0.0
C615 C 0.92029 0.72624 0.0801 0.0
C616 C 0.87794 0.72004 0.25642 0.0
C617 C 0.86155 0.79972 0.14869 0.0
C618 C 0.8421 0.659 0.12239 0.0
C619 C 0.79875 0.73659 0.04517 0.0
O620 O 0.79189 0.71151 0.21196 0.0
O621 O 0.46869 0.45828 0.19262 0.0
Zn622 Zn 0.43728 0.45416 0.14171 0.0
O623 O 0.40586 0.48049 0.14517 0.0
Zn624 Zn 0.3681 0.46491 0.16498 0.0
Zn625 Zn 0.41998 0.50669 0.18755 0.0
Zn626 Zn 0.39887 0.49732 0.08698 0.0
O627 O 0.33261 0.47544 0.1232 0.0
O628 O 0.35732 0.49069 0.0625 0.0
O629 O 0.41896 0.41797 0.14345 0.0
O630 O 0.37085 0.42632 0.15906 0.0
O631 O 0.36306 0.47261 0.23309 0.0
O632 O 0.39477 0.5056 0.24234 0.0
O633 O 0.41879 0.54267 0.16245 0.0
O634 O 0.45967 0.4598 0.08268 0.0
O635 O 0.40256 0.53574 0.09166 0.0
O636 O 0.43092 0.48717 0.04317 0.0
C637 C 0.47625 0.47811 0.216 0.0
C638 C 0.33285 0.48372 0.0818 0.0
C639 C 0.37516 0.49009 0.25794 0.0
C640 C 0.39195 0.41031 0.15064 0.0
C641 C 0.41098 0.55105 0.12322 0.0
C642 C 0.45447 0.47328 0.04693 0.0
O643 O 0.46107 0.49894 0.21369 0.0
O644 O 0.2187 0.50313 0.9423 0.0
Zn645 Zn 0.18726 0.5069 0.89121 0.0
O646 O 0.15586 0.48055 0.89516 0.0
Zn647 Zn 0.11809 0.49608 0.91503 0.0
Zn648 Zn 0.17013 0.45456 0.93773 0.0
Zn649 Zn 0.14878 0.46346 0.83721 0.0
O650 O 0.08262 0.48562 0.87322 0.0
O651 O 0.10728 0.47021 0.81262 0.0
O652 O 0.16874 0.54305 0.89208 0.0
O653 O 0.12079 0.53461 0.9087 0.0
O654 O 0.11288 0.48835 -0.01684 0.0
O655 O 0.14477 0.45547 -0.0077 0.0
O656 O 0.16927 0.41856 0.91298 0.0
O657 O 0.20969 0.50088 0.83228 0.0
O658 O 0.15237 0.42502 0.84241 0.0
O659 O 0.18088 0.47333 0.79327 0.0
C660 C 0.22623 0.48341 0.96602 0.0
C661 C 0.08284 0.47733 0.83184 0.0
C662 C 0.12499 0.47081 0.0079 0.0
C663 C 0.14172 0.55064 0.89951 0.0
C664 C 0.16118 0.40993 0.87408 0.0
C665 C 0.20447 0.4872 0.79677 0.0
O666 O 0.21105 0.46257 0.96396 0.0
O667 O 0.53623 0.20751 0.9459 0.0
Zn668 Zn 0.56752 0.20337 0.89478 0.0
O669 O 0.59905 0.22961 0.89814 0.0
Zn670 Zn 0.63675 0.21392 0.91794 0.0
Zn671 Zn 0.58513 0.25588 0.9405 0.0
Zn672 Zn 0.60604 0.24635 0.83985 0.0
O673 O 0.67231 0.22451 0.87632 0.0
O674 O 0.64768 0.23988 0.81563 0.0
O675 O 0.58576 0.16715 0.8961 0.0
O676 O 0.63391 0.17533 0.91173 0.0
O677 O 0.64179 0.22167 -0.01395 0.0
O678 O 0.61082 0.25522 -0.00517 0.0
O679 O 0.58578 0.29176 0.91494 0.0
O680 O 0.54505 0.20911 0.83585 0.0
O681 O 0.60205 0.28476 0.8442 0.0
O682 O 0.57412 0.23603 0.79593 0.0
C683 C 0.52894 0.22729 0.96961 0.0
C684 C 0.67214 0.2329 0.83498 0.0
C685 C 0.63013 0.2395 0.01062 0.0
C686 C 0.61275 0.1594 0.90314 0.0
C687 C 0.59346 0.30009 0.87562 0.0
C688 C 0.55041 0.22237 0.79989 0.0
O689 O 0.54429 0.24803 0.96739 0.0
O690 O 0.22006 0.20703 0.77178 0.0
Zn691 Zn 0.18855 0.20316 0.82277 0.0
O692 O 0.1573 0.22967 0.81902 0.0
Zn693 Zn 0.1194 0.2144 0.79906 0.0
Zn694 Zn 0.17178 0.25571 0.7767 0.0
Zn695 Zn 0.15029 0.24666 0.87703 0.0
O696 O 0.08401 0.22493 0.84101 0.0
O697 O 0.10886 0.23988 0.90181 0.0
O698 O 0.16978 0.16708 0.82137 0.0
O699 O 0.12187 0.17585 0.80502 0.0
O700 O 0.11426 0.22223 0.73095 0.0
O701 O 0.14682 0.25461 0.72174 0.0
O702 O 0.17045 0.29173 0.80133 0.0
O703 O 0.21101 0.20893 0.88181 0.0
O704 O 0.15368 0.2851 0.87193 0.0
O705 O 0.18247 0.23673 0.92072 0.0
C706 C 0.22786 0.22687 0.74859 0.0
C707 C 0.08434 0.23302 0.88253 0.0
C708 C 0.12679 0.23952 0.70614 0.0
C709 C 0.1427 0.15967 0.8139 0.0
C710 C 0.16228 0.30028 0.84026 0.0
C711 C 0.20592 0.22269 0.91727 0.0
O712 O 0.21289 0.2478 0.75103 0.0
O713 O 0.53488 0.50212 0.76823 0.0
Zn714 Zn 0.56628 0.50636 0.81918 0.0
O715 O 0.59764 0.47994 0.81599 0.0
Zn716 Zn 0.63546 0.49537 0.79611 0.0
Zn717 Zn 0.58348 0.45365 0.77384 0.0
Zn718 Zn 0.60456 0.46328 0.87432 0.0
O719 O 0.67094 0.48469 0.83783 0.0
O720 O 0.64615 0.46977 0.89871 0.0
O721 O 0.58478 0.5425 0.81729 0.0
O722 O 0.63289 0.53398 0.80201 0.0
O723 O 0.64038 0.48761 0.72799 0.0
O724 O 0.60865 0.45461 0.71899 0.0
O725 O 0.58469 0.41772 0.7992 0.0
O726 O 0.54382 0.50091 0.87824 0.0
O727 O 0.60075 0.42486 0.87001 0.0
O728 O 0.57257 0.47366 0.91802 0.0
C729 C 0.52727 0.48221 0.74511 0.0
C730 C 0.67067 0.4765 0.8793 0.0
C731 C 0.62823 0.4701 0.70325 0.0
C732 C 0.61184 0.55006 0.81026 0.0
C733 C 0.5924 0.40946 0.83855 0.0
C734 C 0.54903 0.48755 0.91414 0.0
O735 O 0.5424 0.46137 0.7477 0.0
C736 C 0.35355 0.83719 0.06161 0.0
C737 C 0.3839 0.82905 0.06125 0.0
H738 H 0.32263 0.86902 0.06246 0.0
C739 C 0.40672 0.84787 0.06211 0.0
H740 H 0.33534 0.82323 0.06121 0.0
C741 C 0.39938 0.87416 0.06251 0.0
C742 C 0.36902 0.8823 0.06254 0.0
H743 H 0.4303 0.84233 0.06186 0.0
H744 H 0.41758 0.88812 0.06276 0.0
C745 C 0.34621 0.86347 0.06248 0.0
C746 C 0.84704 0.36198 0.06419 0.0
C747 C 0.86972 0.38092 0.06326 0.0
H748 H 0.83646 0.32167 0.06481 0.0
C749 C 0.90013 0.37293 0.06352 0.0
H750 H 0.82343 0.3674 0.06403 0.0
C751 C 0.90767 0.34668 0.06433 0.0
C752 C 0.88498 0.32774 0.06441 0.0
H753 H 0.91824 0.38698 0.06308 0.0
H754 H 0.93128 0.34126 0.06421 0.0
C755 C 0.85457 0.33573 0.06452 0.0
C756 C 0.35434 0.37399 0.14969 0.0
C757 C 0.38462 0.38231 0.14978 0.0
H758 H 0.32367 0.34198 0.1502 0.0
C759 C 0.40759 0.36361 0.14988 0.0
H760 H 0.33602 0.38785 0.1494 0.0
C761 C 0.40046 0.33728 0.15069 0.0
C762 C 0.37017 0.32897 0.15095 0.0
H763 H 0.43112 0.36929 0.14998 0.0
H764 H 0.41877 0.32343 0.15114 0.0
C765 C 0.3472 0.34766 0.15004 0.0
C766 C 0.84623 0.84649 0.14782 0.0
C767 C 0.86907 0.82768 0.14778 0.0
H768 H 0.83533 0.88673 0.14913 0.0
C769 C 0.89941 0.83584 0.14776 0.0
H770 H 0.82266 0.84093 0.14786 0.0
C771 C 0.90673 0.86214 0.14816 0.0
C772 C 0.88389 0.88094 0.14908 0.0
H773 H 0.91763 0.8219 0.1475 0.0
H774 H 0.9303 0.8677 0.14841 0.0
C775 C 0.85355 0.87278 0.14871 0.0
C776 C 0.65731 0.09666 0.90089 0.0
C777 C 0.63429 0.07801 0.90103 0.0
H778 H 0.66862 0.13682 0.90168 0.0
C779 C 0.60403 0.08639 0.90091 0.0
H780 H 0.68082 0.09093 0.90101 0.0
C781 C 0.59698 0.11274 0.90097 0.0
C782 C 0.62 0.13139 0.90162 0.0
H783 H 0.58567 0.07257 0.90081 0.0
H784 H 0.57346 0.11847 0.90112 0.0
C785 C 0.65026 0.12301 0.90142 0.0
C786 C 0.09636 0.61294 0.89687 0.0
C787 C 0.11914 0.6318 0.8971 0.0
H788 H 0.08559 0.57268 0.89768 0.0
C789 C 0.14951 0.62371 0.897 0.0
H790 H 0.07277 0.61845 0.89696 0.0
C791 C 0.15691 0.59743 0.89708 0.0
C792 C 0.13414 0.57858 0.89775 0.0
H793 H 0.16768 0.6377 0.89693 0.0
H794 H 0.1805 0.59193 0.89729 0.0
C795 C 0.10376 0.58667 0.89744 0.0
C796 C 0.6037 0.62314 0.81081 0.0
C797 C 0.63402 0.63135 0.81057 0.0
H798 H 0.57288 0.59124 0.81128 0.0
C799 C 0.6569 0.61257 0.8112 0.0
H800 H 0.58544 0.63705 0.81056 0.0
C801 C 0.64964 0.58626 0.81129 0.0
C802 C 0.61931 0.57805 0.81123 0.0
H803 H 0.68045 0.61817 0.81103 0.0
H804 H 0.66789 0.57234 0.8114 0.0
C805 C 0.59644 0.59683 0.81136 0.0
C806 C 0.15752 0.11277 0.81529 0.0
C807 C 0.1349 0.13176 0.8151 0.0
H808 H 0.16797 0.07245 0.81449 0.0
C809 C 0.10446 0.12385 0.81525 0.0
H810 H 0.18115 0.11815 0.81517 0.0
C811 C 0.09684 0.09761 0.8152 0.0
C812 C 0.11947 0.07862 0.8145 0.0
H813 H 0.08639 0.13794 0.81535 0.0
H814 H 0.07322 0.09224 0.81503 0.0
C815 C 0.14991 0.08654 0.81475 0.0
C816 C 0.40764 0.34677 0.56435 0.0
C817 C 0.38495 0.32783 0.56438 0.0
H818 H 0.41822 0.38707 0.56312 0.0
C819 C 0.35454 0.33582 0.56441 0.0
H820 H 0.43125 0.34134 0.56431 0.0
C821 C 0.34701 0.36208 0.56404 0.0
C822 C 0.3697 0.38101 0.56317 0.0
H823 H 0.33643 0.32177 0.56465 0.0
H824 H 0.3234 0.3675 0.56381 0.0
C825 C 0.40011 0.37302 0.56351 0.0
C826 C 0.89932 0.87426 0.56255 0.0
C827 C 0.86897 0.8824 0.56248 0.0
H828 H 0.93024 0.84243 0.56201 0.0
C829 C 0.84615 0.86358 0.56233 0.0
H830 H 0.91753 0.88822 0.56287 0.0
C831 C 0.8535 0.83729 0.56148 0.0
C832 C 0.88385 0.82914 0.56123 0.0
H833 H 0.82258 0.86912 0.56223 0.0
H834 H 0.83529 0.82333 0.56102 0.0
C835 C 0.90667 0.84797 0.56217 0.0
C836 C 0.40666 0.86227 0.64812 0.0
C837 C 0.38382 0.88108 0.64907 0.0
H838 H 0.41755 0.82203 0.64746 0.0
C839 C 0.35347 0.87292 0.64878 0.0
H840 H 0.43022 0.86783 0.6483 0.0
C841 C 0.34615 0.84663 0.64793 0.0
C842 C 0.36899 0.82782 0.64784 0.0
H843 H 0.33525 0.88686 0.64923 0.0
H844 H 0.32259 0.84106 0.64803 0.0
C845 C 0.39934 0.83598 0.64775 0.0
C846 C 0.8471 0.34781 0.65015 0.0
C847 C 0.87007 0.32912 0.65099 0.0
H848 H 0.83592 0.38801 0.64956 0.0
C849 C 0.90036 0.33743 0.65064 0.0
H850 H 0.82357 0.34214 0.65038 0.0
C851 C 0.90749 0.36376 0.64981 0.0
C852 C 0.88452 0.38246 0.64978 0.0
H853 H 0.91867 0.32358 0.65103 0.0
H854 H 0.93102 0.36944 0.64985 0.0
C855 C 0.85424 0.37415 0.64979 0.0
C856 C 0.60377 0.58691 0.39755 0.0
C857 C 0.63414 0.57882 0.3978 0.0
H858 H 0.57279 0.6187 0.39712 0.0
C859 C 0.65692 0.59767 0.3971 0.0
H860 H 0.58559 0.57292 0.39782 0.0
C861 C 0.64952 0.62395 0.39704 0.0
C862 C 0.61915 0.63204 0.39719 0.0
H863 H 0.6805 0.59216 0.39727 0.0
H864 H 0.6677 0.63794 0.39693 0.0
C865 C 0.59637 0.61319 0.397 0.0
C866 C 0.10402 0.08655 0.40099 0.0
C867 C 0.13428 0.07817 0.40104 0.0
H868 H 0.07346 0.11863 0.40127 0.0
C869 C 0.1573 0.09682 0.40084 0.0
H870 H 0.08566 0.07273 0.40093 0.0
C871 C 0.15025 0.12317 0.40138 0.0
C872 C 0.12 0.13155 0.40165 0.0
H873 H 0.18082 0.09109 0.4009 0.0
H874 H 0.16861 0.13698 0.40159 0.0
C875 C 0.09697 0.1129 0.40106 0.0
C876 C 0.60436 0.12412 0.31516 0.0
C877 C 0.6348 0.13203 0.31507 0.0
H878 H 0.57312 0.09251 0.31489 0.0
C879 C 0.65743 0.11305 0.31532 0.0
H880 H 0.5863 0.13821 0.31522 0.0
C881 C 0.64981 0.08681 0.31478 0.0
C882 C 0.61937 0.0789 0.31447 0.0
H883 H 0.68105 0.11842 0.31525 0.0
H884 H 0.66788 0.07272 0.31457 0.0
C885 C 0.59675 0.09788 0.3151 0.0
C886 C 0.15683 0.61276 0.31123 0.0
C887 C 0.13396 0.63154 0.31061 0.0
H888 H 0.16782 0.57253 0.31141 0.0
C889 C 0.10363 0.62333 0.31082 0.0
H890 H 0.18039 0.61835 0.31108 0.0
C891 C 0.09637 0.59702 0.31135 0.0
C892 C 0.11924 0.57823 0.31122 0.0
H893 H 0.08538 0.63725 0.31057 0.0
H894 H 0.07281 0.59142 0.31126 0.0
C895 C 0.14957 0.58644 0.31131 0.0
C896 C 0.24657 0.96376 0.19446 0.0
C897 C 0.27486 0.97542 0.20086 0.0
H898 H 0.2017 0.95894 0.21955 0.0
C899 C 0.27929 -0.00823 0.23878 0.0
H900 H 0.2423 0.95131 0.16531 0.0
C901 C 0.2559 -0.00357 0.26958 0.0
C902 C 0.22761 -0.01522 0.26319 0.0
H903 H 0.30076 0.00125 0.24451 0.0
H904 H 0.26017 0.00889 0.29872 0.0
C905 C 0.22317 0.96843 0.22526 0.0
C906 C 0.99853 0.21334 0.27099 0.0
C907 C 0.02678 0.22508 0.26471 0.0
H908 H 0.9537 0.20845 0.2458 0.0
C909 C 0.0312 0.24151 0.22687 0.0
H910 H 0.99428 0.20081 0.30005 0.0
C911 C 0.0078 0.24617 0.19605 0.0
C912 C 0.97955 0.23442 0.20233 0.0
H913 H 0.05263 0.25106 0.22125 0.0
H914 H 0.01205 0.25869 0.16697 0.0
C915 C 0.97514 0.21799 0.24016 0.0
C916 C 0.22509 0.24186 -0.00983 0.0
C917 C 0.22959 0.22541 0.9524 0.0
H918 H 0.24414 0.25924 0.04993 0.0
C919 C 0.25794 0.21384 0.9461 0.0
H920 H 0.20358 0.25128 -0.00418 0.0
C921 C 0.28133 0.21869 0.97684 0.0
C922 C 0.27681 0.23514 0.01462 0.0
H923 H 0.26226 0.20131 0.91707 0.0
H924 H 0.30284 0.20926 0.97121 0.0
C925 C 0.24847 0.24671 0.02091 0.0
C926 C 0.97314 -0.00846 0.97545 0.0
C927 C 0.97765 0.97502 0.01315 0.0
H928 H 0.99218 0.009 0.91573 0.0
C929 C 0.00599 0.96343 0.01936 0.0
H930 H 0.95163 0.00098 0.96988 0.0
C931 C 0.02936 0.96831 -0.01139 0.0
C932 C 0.02485 -0.01518 0.95091 0.0
H933 H 0.01032 0.95084 0.04832 0.0
H934 H 0.05087 0.95887 -0.0058 0.0
C935 C 0.99651 -0.00358 0.9447 0.0
C936 C 0.75584 -0.00356 0.76954 0.0
C937 C 0.7276 -0.01531 0.7632 0.0
H938 H 0.80066 0.00139 0.74439 0.0
C939 C 0.7232 0.96831 0.72529 0.0
H940 H 0.76007 0.00892 0.79866 0.0
C941 C 0.7466 0.96372 0.69445 0.0
C942 C 0.77484 0.97547 0.7008 0.0
H943 H 0.70177 0.95876 0.71962 0.0
H944 H 0.74237 0.95124 0.66532 0.0
C945 C 0.77924 -0.00816 0.73871 0.0
C946 C 0.02956 0.74235 0.7222 0.0
C947 C 0.02504 0.72588 0.75997 0.0
H948 H 0.01051 0.75973 0.66241 0.0
C949 C 0.99668 0.71434 0.76628 0.0
H950 H 0.05109 0.75174 0.71655 0.0
C951 C 0.9733 0.71922 0.73555 0.0
C952 C 0.97782 0.73565 0.69776 0.0
H953 H 0.99234 0.70181 0.79531 0.0
H954 H 0.95178 0.70981 0.74122 0.0
C955 C 0.00618 0.74721 0.69145 0.0
C956 C 0.75615 0.71284 0.94135 0.0
C957 C 0.72786 0.72451 0.94767 0.0
H958 H 0.80101 0.70806 0.9665 0.0
C959 C 0.72341 0.7409 -0.01446 0.0
H960 H 0.76042 0.70035 0.91226 0.0
C961 C 0.7468 0.74562 0.01633 0.0
C962 C 0.77509 0.73396 0.01 0.0
H963 H 0.70194 0.7504 -0.00878 0.0
H964 H 0.74252 0.75812 0.04541 0.0
C965 C 0.77954 0.71755 0.97216 0.0
C966 C 0.25645 0.49602 0.76783 0.0
C967 C 0.22812 0.4844 0.76163 0.0
H968 H 0.30132 0.50062 0.74265 0.0
C969 C 0.22363 0.46787 0.72397 0.0
H970 H 0.26077 0.50861 0.79677 0.0
C971 C 0.24701 0.46301 0.6932 0.0
C972 C 0.27533 0.47465 0.69939 0.0
H973 H 0.20213 0.4584 0.71841 0.0
H974 H 0.2427 0.45043 0.66424 0.0
C975 C 0.27982 0.49116 0.73708 0.0
C976 C 0.25609 0.71297 0.44143 0.0
C977 C 0.22781 0.72467 0.44773 0.0
H978 H 0.30094 0.70815 0.46661 0.0
C979 C 0.22338 0.74108 0.48558 0.0
H980 H 0.26035 0.70046 0.41236 0.0
C981 C 0.24677 0.74578 0.51638 0.0
C982 C 0.27505 0.73409 0.51007 0.0
H983 H 0.20193 0.7506 0.49124 0.0
H984 H 0.2425 0.75829 0.54544 0.0
C985 C 0.27948 0.71766 0.47225 0.0
C986 C 0.02973 0.46889 0.48726 0.0
C987 C 0.02531 0.48525 0.44933 0.0
H988 H 0.01059 0.45178 0.5472 0.0
C989 C 0.99705 0.49696 0.44296 0.0
H990 H 0.05117 0.45937 0.49297 0.0
C991 C 0.97365 0.49234 0.47379 0.0
C992 C 0.97807 0.47596 0.5117 0.0
H993 H 0.9928 0.50943 0.41382 0.0
H994 H 0.9522 0.50186 0.4681 0.0
C995 C 0.00633 0.46425 0.51807 0.0
C996 C 0.77987 0.49113 0.23719 0.0
C997 C 0.77531 0.47465 0.19947 0.0
H998 H 0.76087 0.50863 0.29688 0.0
C999 C 0.74693 0.46313 0.19321 0.0
H1000 H 0.80141 0.5005 0.24281 0.0
C1001 C 0.72356 0.46807 0.22394 0.0
C1002 C 0.72812 0.48457 0.26164 0.0
H1003 H 0.74257 0.45058 0.16422 0.0
H1004 H 0.70201 0.4587 0.21833 0.0
C1005 C 0.7565 0.49607 0.2679 0.0
C1006 C 0.72504 0.24211 0.49015 0.0
C1007 C 0.72952 0.22564 0.4524 0.0
H1008 H 0.74411 0.25948 0.5499 0.0
C1009 C 0.75784 0.21401 0.44614 0.0
H1010 H 0.70354 0.25157 0.49577 0.0
C1011 C 0.78122 0.21883 0.47689 0.0
C1012 C 0.77674 0.23531 0.51464 0.0
H1013 H 0.76214 0.20146 0.41713 0.0
H1014 H 0.80271 0.20937 0.47128 0.0
C1015 C 0.74842 0.24693 0.5209 0.0
C1016 C 0.53123 0.24138 0.72683 0.0
C1017 C 0.52676 0.22498 0.76469 0.0
H1018 H 0.51213 0.2586 0.66693 0.0
C1019 C 0.49845 0.21334 0.77103 0.0
H1020 H 0.55271 0.25085 0.72116 0.0
C1021 C 0.47507 0.21807 0.74023 0.0
C1022 C 0.47953 0.23447 0.70237 0.0
H1023 H 0.49416 0.20085 0.80012 0.0
H1024 H 0.45359 0.2086 0.74591 0.0
C1025 C 0.50784 0.24611 0.69603 0.0
C1026 C 0.50595 0.96362 0.51932 0.0
C1027 C 0.47759 0.97518 0.5131 0.0
H1028 H 0.55084 0.95912 0.49418 0.0
C1029 C 0.47306 -0.00831 0.4754 0.0
H1030 H 0.5103 0.95104 0.54829 0.0
C1031 C 0.49643 -0.0034 0.44465 0.0
C1032 C 0.52479 -0.01496 0.45088 0.0
H1033 H 0.45153 0.0011 0.46981 0.0
H1034 H 0.49209 0.00917 0.41568 0.0
C1035 C 0.52932 0.96853 0.48858 0.0
C1036 C 0.47339 0.71917 0.23552 0.0
C1037 C 0.47786 0.73563 0.19773 0.0
H1038 H 0.49248 0.70183 0.2953 0.0
C1039 C 0.50617 0.74728 0.19147 0.0
H1040 H 0.45191 0.70969 0.24114 0.0
C1041 C 0.52955 0.7425 0.22226 0.0
C1042 C 0.52508 0.72602 0.26002 0.0
H1043 H 0.51046 0.75983 0.16244 0.0
H1044 H 0.55103 0.75198 0.21665 0.0
C1045 C 0.49677 0.71438 0.26628 0.0
C1046 C 0.50641 0.46413 0.01813 0.0
C1047 C 0.47814 0.47583 0.01175 0.0
H1048 H 0.55124 0.45924 -0.00697 0.0
C1049 C 0.47372 0.49219 0.97382 0.0
H1050 H 0.51066 0.45166 0.04727 0.0
C1051 C 0.49712 0.49681 0.94299 0.0
C1052 C 0.52538 0.4851 0.94936 0.0
H1053 H 0.45227 0.50171 0.96812 0.0
H1054 H 0.49287 0.50927 0.91383 0.0
C1055 C 0.5298 0.46876 -0.01269 0.0
C1056 C 0.37868 0.96596 0.88101 0.0
C1057 C 0.38028 -0.01042 0.90457 0.0
H1058 H 0.3737 0.94726 0.81575 0.0
C1059 C 0.37727 0.01277 0.88011 0.0
H1060 H 0.37997 0.94782 0.89943 0.0
C1061 C 0.37301 0.01244 0.83287 0.0
C1062 C 0.37124 -0.0111 0.80921 0.0
H1063 H 0.37771 0.03119 0.89775 0.0
H1064 H 0.37169 0.03063 0.81458 0.0
C1065 C 0.374 0.96562 0.83357 0.0
C1066 C 0.87704 0.1974 0.88161 0.0
C1067 C 0.87399 0.22061 0.90598 0.0
H1068 H 0.88268 0.17947 0.81616 0.0
C1069 C 0.87554 0.2442 0.88233 0.0
H1070 H 0.87665 0.17899 0.89933 0.0
C1071 C 0.88023 0.24449 0.83488 0.0
C1072 C 0.88304 0.22119 0.81061 0.0
H1073 H 0.87423 0.26236 0.90068 0.0
H1074 H 0.88051 0.26284 0.81699 0.0
C1075 C 0.8813 0.19768 0.83437 0.0
C1076 C 0.38118 0.19759 0.33449 0.0
C1077 C 0.38299 0.22108 0.31068 0.0
H1078 H 0.37648 0.17896 0.3995 0.0
C1079 C 0.38023 0.24441 0.33489 0.0
H1080 H 0.38251 0.17936 0.31633 0.0
C1081 C 0.37554 0.24416 0.38234 0.0
C1082 C 0.37394 0.22059 0.40604 0.0
H1083 H 0.38057 0.26274 0.31696 0.0
H1084 H 0.37429 0.26233 0.40065 0.0
C1085 C 0.37692 0.19735 0.38173 0.0
C1086 C 0.87291 0.01237 0.33276 0.0
C1087 C 0.87119 -0.01119 0.30916 0.0
H1088 H 0.87757 0.03119 0.39759 0.0
C1089 C 0.87401 0.96556 0.33357 0.0
H1090 H 0.87153 0.03055 0.31442 0.0
C1091 C 0.87871 0.96595 0.38102 0.0
C1092 C 0.88025 -0.01042 0.40452 0.0
H1093 H 0.87376 0.94719 0.31579 0.0
H1094 H 0.88004 0.94782 0.39948 0.0
C1095 C 0.87717 0.01275 0.38 0.0
C1096 C 0.62439 0.94743 0.08382 0.0
C1097 C 0.62187 0.97068 0.05941 0.0
H1098 H 0.62959 0.92945 0.14932 0.0
C1099 C 0.62395 -0.00575 0.08302 0.0
H1100 H 0.62356 0.92903 0.06615 0.0
C1101 C 0.62864 -0.0055 0.13046 0.0
C1102 C 0.63091 0.97117 0.15477 0.0
H1103 H 0.62305 0.01243 0.06463 0.0
H1104 H 0.62932 0.01284 0.14832 0.0
C1105 C 0.62865 0.94767 0.13107 0.0
C1106 C 0.12863 0.76257 0.08032 0.0
C1107 C 0.13104 0.73919 0.0563 0.0
H1108 H 0.12344 0.78091 0.14549 0.0
C1109 C 0.12891 0.71575 0.08031 0.0
H1110 H 0.12946 0.78088 0.06232 0.0
C1111 C 0.12423 0.71577 0.12776 0.0
C1112 C 0.122 0.73923 0.15168 0.0
H1113 H 0.12972 0.69748 0.06221 0.0
H1114 H 0.12345 0.69751 0.14591 0.0
C1115 C 0.12437 0.76259 0.12757 0.0
C1116 C 0.62418 0.76259 0.62777 0.0
C1117 C 0.62191 0.73918 0.65176 0.0
H1118 H 0.62921 0.78099 0.56261 0.0
C1119 C 0.62425 0.71576 0.62773 0.0
H1120 H 0.62316 0.78088 0.64578 0.0
C1121 C 0.62895 0.71583 0.58029 0.0
C1122 C 0.63098 0.73932 0.5564 0.0
H1123 H 0.62356 0.69748 0.6458 0.0
H1124 H 0.62985 0.6976 0.5621 0.0
C1125 C 0.62845 0.76265 0.58053 0.0
C1126 C 0.12866 -0.00562 0.63049 0.0
C1127 C 0.13083 0.971 0.6547 0.0
H1128 H 0.12316 0.01242 0.56474 0.0
C1129 C 0.12846 0.94755 0.63088 0.0
H1130 H 0.12943 0.01269 0.64843 0.0
C1131 C 0.1242 0.94739 0.58364 0.0
C1132 C 0.12179 0.97069 0.55933 0.0
H1133 H 0.12932 0.9293 0.64905 0.0
H1134 H 0.1233 0.92902 0.56588 0.0
C1135 C 0.12398 -0.00578 0.58304 0.0
C1136 C 0.37936 0.51241 0.37968 0.0
C1137 C 0.38147 0.48888 0.40334 0.0
H1138 H 0.37439 0.53113 0.3148 0.0
C1139 C 0.37904 0.46559 0.37899 0.0
H1140 H 0.38043 0.53061 0.39797 0.0
C1141 C 0.37434 0.46589 0.33154 0.0
C1142 C 0.37241 0.48949 0.30798 0.0
H1143 H 0.37961 0.44723 0.39681 0.0
H1144 H 0.37332 0.44774 0.31312 0.0
C1145 C 0.37509 0.51271 0.33244 0.0
C1146 C 0.87381 0.69762 0.3781 0.0
C1147 C 0.87177 0.72113 0.40181 0.0
H1148 H 0.87867 0.67895 0.31317 0.0
C1149 C 0.87431 0.74444 0.3775 0.0
H1150 H 0.87265 0.67941 0.39634 0.0
C1151 C 0.879 0.74417 0.33005 0.0
C1152 C 0.88081 0.72059 0.30644 0.0
H1153 H 0.8738 0.76279 0.39535 0.0
H1154 H 0.88007 0.76233 0.31165 0.0
C1155 C 0.87806 0.69735 0.33085 0.0
C1156 C 0.37811 0.69742 0.83079 0.0
C1157 C 0.38084 0.72067 0.80644 0.0
H1158 H 0.37271 0.67941 0.89622 0.0
C1159 C 0.37899 0.74424 0.83011 0.0
H1160 H 0.37875 0.67903 0.81306 0.0
C1161 C 0.3743 0.74447 0.87756 0.0
C1162 C 0.37178 0.72113 0.90181 0.0
H1163 H 0.38004 0.76241 0.81176 0.0
H1164 H 0.37376 0.7628 0.89545 0.0
C1165 C 0.37385 0.69764 0.87803 0.0
C1166 C 0.87432 0.46596 0.83158 0.0
C1167 C 0.87249 0.48959 0.80807 0.0
H1168 H 0.87949 0.44723 0.8968 0.0
C1169 C 0.87525 0.51278 0.83259 0.0
H1170 H 0.87323 0.44783 0.81311 0.0
C1171 C 0.8795 0.51243 0.87984 0.0
C1172 C 0.88152 0.48888 0.90344 0.0
H1173 H 0.87462 0.53122 0.81501 0.0
H1174 H 0.88063 0.53061 0.89818 0.0
C1175 C 0.87901 0.46561 0.87903 0.0
C1176 C 0.62908 0.49421 0.62954 0.0
C1177 C 0.63091 0.47063 0.6532 0.0
H1178 H 0.62392 0.5128 0.5642 0.0
C1179 C 0.62811 0.44739 0.62883 0.0
H1180 H 0.6302 0.51238 0.64789 0.0
C1181 C 0.62385 0.44764 0.58159 0.0
C1182 C 0.62185 0.47114 0.55783 0.0
H1183 H 0.62874 0.42899 0.64654 0.0
H1184 H 0.6227 0.42942 0.56337 0.0
C1185 C 0.62439 0.49446 0.5821 0.0
C1186 C 0.12565 0.21575 0.63215 0.0
C1187 C 0.12384 0.23921 0.65614 0.0
H1188 H 0.13086 0.19746 0.56657 0.0
C1189 C 0.12659 0.26257 0.6321 0.0
H1190 H 0.12458 0.1975 0.65026 0.0
C1191 C 0.13084 0.26255 0.58485 0.0
C1192 C 0.13288 0.23916 0.56076 0.0
H1193 H 0.126 0.28088 0.65009 0.0
H1194 H 0.13203 0.28086 0.56691 0.0
C1195 C 0.13034 0.21572 0.5847 0.0
C1196 C 0.6303 0.21577 0.08469 0.0
C1197 C 0.63299 0.23916 0.06065 0.0
H1198 H 0.62443 0.19766 0.15032 0.0
C1199 C 0.63109 0.26259 0.08463 0.0
H1200 H 0.63071 0.19748 0.06663 0.0
C1201 C 0.62684 0.26269 0.13188 0.0
C1202 C 0.62394 0.23938 0.15602 0.0
H1203 H 0.63238 0.28087 0.06661 0.0
H1204 H 0.62635 0.28104 0.14978 0.0
C1205 C 0.62561 0.21588 0.13213 0.0
C1206 C 0.12438 0.49442 0.08204 0.0
C1207 C 0.12194 0.47105 0.05789 0.0
H1208 H 0.1301 0.51244 0.14776 0.0
C1209 C 0.12403 0.44759 0.08176 0.0
H1210 H 0.12384 0.51273 0.06406 0.0
C1211 C 0.12828 0.44742 0.129 0.0
C1212 C 0.13098 0.47071 0.15326 0.0
H1213 H 0.12295 0.42934 0.06363 0.0
H1214 H 0.12897 0.42905 0.1468 0.0
C1215 C 0.12907 0.49424 0.12949 0.0
C1216 C 0.34238 0.12314 0.07122 0.0
C1217 C 0.34246 0.13233 0.1166 0.0
H1218 H 0.3418 0.09014 0.02708 0.0
C1219 C 0.34187 0.11455 0.15296 0.0
H1220 H 0.34267 0.13641 0.04249 0.0
C1221 C 0.34174 0.08807 0.14413 0.0
C1222 C 0.34168 0.07888 0.09877 0.0
H1223 H 0.34198 0.12107 0.18828 0.0
H1224 H 0.34154 0.0748 0.17288 0.0
C1225 C 0.34175 0.09666 0.06239 0.0
C1226 C 0.9117 0.08702 0.07092 0.0
C1227 C 0.91166 0.07761 0.11614 0.0
H1228 H 0.91229 0.12025 0.02729 0.0
C1229 C 0.91221 0.09521 0.15278 0.0
H1230 H 0.91144 0.07389 0.04198 0.0
C1231 C 0.91233 0.12173 0.14437 0.0
C1232 C 0.91241 0.13115 0.09915 0.0
H1233 H 0.91211 0.08851 0.188 0.0
H1234 H 0.91252 0.13485 0.17332 0.0
C1235 C 0.91233 0.11355 0.0625 0.0
C1236 C 0.66139 0.83697 0.89206 0.0
C1237 C 0.66147 0.82789 0.84662 0.0
H1238 H 0.66143 0.86987 0.93647 0.0
C1239 C 0.66174 0.84577 0.81039 0.0
H1240 H 0.66133 0.82363 0.9207 0.0
C1241 C 0.66143 0.87223 0.81943 0.0
C1242 C 0.66133 0.88131 0.86487 0.0
H1243 H 0.66173 0.83934 0.77502 0.0
H1244 H 0.66141 0.88557 0.79079 0.0
C1245 C 0.66157 0.86343 0.9011 0.0
C1246 C 0.09151 0.83802 0.81876 0.0
C1247 C 0.09154 0.8285 0.86391 0.0
H1248 H 0.09123 0.87136 0.7754 0.0
C1249 C 0.0913 0.846 0.9007 0.0
H1250 H 0.09155 0.82497 0.78972 0.0
C1251 C 0.0915 0.87255 0.8925 0.0
C1252 C 0.09142 0.88207 0.84735 0.0
H1253 H 0.0914 0.83921 0.93586 0.0
H1254 H 0.09153 0.88561 0.92154 0.0
C1255 C 0.0912 0.86457 0.81056 0.0
C1256 C 0.34163 0.61349 0.65022 0.0
C1257 C 0.34177 0.63109 0.61356 0.0
H1258 H 0.34201 0.57383 0.67076 0.0
C1259 C 0.34173 0.62168 0.56835 0.0
H1260 H 0.34174 0.62019 0.68543 0.0
C1261 C 0.3415 0.59515 0.55995 0.0
C1262 C 0.34182 0.57755 0.5966 0.0
H1263 H 0.34169 0.6348 0.53939 0.0
H1264 H 0.34152 0.58845 0.52473 0.0
C1265 C 0.3419 0.58696 0.64182 0.0
C1266 C 0.91154 0.62344 0.6416 0.0
C1267 C 0.91163 0.63263 0.59622 0.0
H1268 H 0.91166 0.59043 0.68577 0.0
C1269 C 0.91199 0.61484 0.55987 0.0
H1270 H 0.9114 0.63672 0.67033 0.0
C1271 C 0.91176 0.58836 0.56872 0.0
C1272 C 0.91167 0.57917 0.61409 0.0
H1273 H 0.91199 0.62136 0.52455 0.0
H1274 H 0.91181 0.5751 0.53998 0.0
C1275 C 0.91181 0.59696 0.65046 0.0
C1276 C 0.66243 0.33808 0.39392 0.0
C1277 C 0.66259 0.32858 0.34877 0.0
H1278 H 0.66224 0.3714 0.43732 0.0
C1279 C 0.66267 0.34611 0.31199 0.0
H1280 H 0.66251 0.32502 0.42295 0.0
C1281 C 0.66212 0.37265 0.32022 0.0
C1282 C 0.66201 0.38215 0.36538 0.0
H1283 H 0.6627 0.33933 0.27683 0.0
H1284 H 0.66198 0.38572 0.2912 0.0
C1285 C 0.6624 0.36463 0.40215 0.0
C1286 C 0.09226 0.3461 0.40251 0.0
C1287 C 0.09272 0.32824 0.36626 0.0
H1288 H 0.0921 0.38589 0.42214 0.0
C1289 C 0.09261 0.33734 0.32083 0.0
H1290 H 0.0924 0.33965 0.43787 0.0
C1291 C 0.09206 0.3638 0.31181 0.0
C1292 C 0.09211 0.38166 0.34806 0.0
H1293 H 0.0928 0.32401 0.29218 0.0
H1294 H 0.09208 0.37025 0.27645 0.0
C1295 C 0.0922 0.37256 0.39349 0.0
C1296 C 0.84194 0.0882 0.64408 0.0
C1297 C 0.84189 0.079 0.59872 0.0
H1298 H 0.84216 0.1212 0.68822 0.0
C1299 C 0.84196 0.09679 0.56234 0.0
H1300 H 0.84175 0.07494 0.67283 0.0
C1301 C 0.84258 0.12327 0.57116 0.0
C1302 C 0.84263 0.13246 0.61653 0.0
H1303 H 0.84201 0.09026 0.52703 0.0
H1304 H 0.84285 0.13654 0.54242 0.0
C1305 C 0.84206 0.11468 0.6529 0.0
C1306 C 0.4125 0.12185 0.64442 0.0
C1307 C 0.41259 0.13126 0.5992 0.0
H1308 H 0.41225 0.08863 0.68806 0.0
C1309 C 0.41252 0.11366 0.56255 0.0
H1310 H 0.41269 0.13497 0.67336 0.0
C1311 C 0.41188 0.08713 0.57098 0.0
C1312 C 0.41181 0.07772 0.6162 0.0
H1313 H 0.41249 0.12036 0.52734 0.0
H1314 H 0.41162 0.074 0.54204 0.0
C1315 C 0.41237 0.09532 0.65284 0.0
C1316 C 0.16178 0.84595 0.31029 0.0
C1317 C 0.16153 0.82807 0.34651 0.0
H1318 H 0.16143 0.88575 0.29069 0.0
C1319 C 0.1615 0.83715 0.39196 0.0
H1320 H 0.16173 0.83952 0.27492 0.0
C1321 C 0.16169 0.86361 0.401 0.0
C1322 C 0.16142 0.88149 0.36477 0.0
H1323 H 0.16146 0.82381 0.42059 0.0
H1324 H 0.16158 0.87004 0.43637 0.0
C1325 C 0.16148 0.87241 0.31933 0.0
C1326 C 0.59142 0.84626 0.40079 0.0
C1327 C 0.59165 0.82876 0.36399 0.0
H1328 H 0.59165 0.88587 0.42163 0.0
C1329 C 0.5916 0.83828 0.31885 0.0
H1330 H 0.59154 0.83947 0.43595 0.0
C1331 C 0.59127 0.86483 0.31065 0.0
C1332 C 0.5915 0.88234 0.34744 0.0
H1333 H 0.59162 0.82523 0.2898 0.0
H1334 H 0.59128 0.87162 0.27549 0.0
C1335 C 0.59161 0.87281 0.39259 0.0
C1336 C 0.84171 0.58684 0.14188 0.0
C1337 C 0.84161 0.57743 0.09666 0.0
H1338 H 0.84158 0.62008 0.18549 0.0
C1339 C 0.84125 0.59504 0.06001 0.0
H1340 H 0.84184 0.57371 0.17082 0.0
C1341 C 0.84149 0.62156 0.06841 0.0
C1342 C 0.84157 0.63097 0.11362 0.0
H1343 H 0.84125 0.58834 0.02479 0.0
H1344 H 0.84144 0.63468 0.03945 0.0
C1345 C 0.84144 0.61337 0.15029 0.0
C1346 C 0.41169 0.59682 0.15039 0.0
C1347 C 0.41154 0.57904 0.11401 0.0
H1348 H 0.41131 0.63658 0.17029 0.0
C1349 C 0.41161 0.58824 0.06865 0.0
H1350 H 0.41156 0.59029 0.1857 0.0
C1351 C 0.41184 0.61472 0.05981 0.0
C1352 C 0.4115 0.63251 0.09618 0.0
H1353 H 0.41165 0.57498 0.0399 0.0
H1354 H 0.41182 0.62125 0.0245 0.0
C1355 C 0.41142 0.62331 0.14155 0.0
C1356 C 0.16199 0.37239 0.8203 0.0
C1357 C 0.16191 0.38189 0.86545 0.0
H1358 H 0.16256 0.33906 0.77692 0.0
C1359 C 0.16234 0.36437 0.90223 0.0
H1360 H 0.16182 0.38545 0.79127 0.0
C1361 C 0.16238 0.33783 0.89402 0.0
C1362 C 0.16252 0.32832 0.84887 0.0
H1363 H 0.1622 0.37115 0.9374 0.0
H1364 H 0.16249 0.32477 0.92305 0.0
C1365 C 0.16255 0.34585 0.81208 0.0
C1366 C 0.59247 0.33715 0.82074 0.0
C1367 C 0.59255 0.32806 0.86618 0.0
H1368 H 0.59199 0.37007 0.77636 0.0
C1369 C 0.59206 0.34591 0.90242 0.0
H1370 H 0.59269 0.32383 0.79209 0.0
C1371 C 0.59202 0.37238 0.8934 0.0
C1372 C 0.59198 0.38148 0.84796 0.0
H1373 H 0.59217 0.33947 0.93778 0.0
H1374 H 0.59189 0.3857 0.92205 0.0
C1375 C 0.59194 0.36362 0.81172 0.0
C1376 C 0.24772 -0.00617 0.92822 0.0
C1377 C 0.25001 0.97685 0.96586 0.0
H1378 H 0.22109 0.00692 0.87118 0.0
C1379 C 0.22649 0.95922 0.97372 0.0
H1380 H 0.26559 0.00752 0.92096 0.0
C1381 C 0.20084 0.95918 0.94561 0.0
C1382 C 0.19838 0.97635 0.9083 0.0
H1383 H 0.22755 0.94589 0.00232 0.0
H1384 H 0.1828 0.94573 0.95328 0.0
C1385 C 0.22235 -0.00661 0.89946 0.0
C1386 C 0.03209 0.21702 0.90109 0.0
C1387 C 0.05609 0.23401 0.90999 0.0
H1388 H 0.98883 0.20293 0.92253 0.0
C1389 C 0.05367 0.25113 0.94738 0.0
H1390 H 0.03332 0.20353 0.87275 0.0
C1391 C 0.02801 0.25109 0.97549 0.0
C1392 C 0.00447 0.2335 0.96755 0.0
H1393 H 0.07174 0.26454 0.95509 0.0
H1394 H 0.02698 0.26438 0.00415 0.0
C1395 C 0.00672 0.21658 0.92985 0.0
C1396 C 0.22861 0.25166 0.24259 0.0
C1397 C 0.25231 0.23423 0.25059 0.0
H1398 H 0.18471 0.26477 0.26274 0.0
C1399 C 0.25014 0.21727 0.28827 0.0
H1400 H 0.22956 0.26498 0.21395 0.0
C1401 C 0.22468 0.21748 0.31687 0.0
C1402 C 0.20051 0.23428 0.30783 0.0
H1403 H 0.26815 0.20373 0.29565 0.0
H1404 H 0.22352 0.20394 0.34515 0.0
C1405 C 0.20289 0.25148 0.27054 0.0
C1406 C 0.0259 0.95799 0.24089 0.0
C1407 C 0.00216 0.97537 0.24894 0.0
H1408 H 0.06983 0.94495 0.26103 0.0
C1409 C 0.00427 -0.00771 0.28668 0.0
H1410 H 0.02498 0.94471 0.21221 0.0
C1411 C 0.02973 -0.00791 0.31529 0.0
C1412 C 0.05394 0.97536 0.3062 0.0
H1413 H 0.98623 0.00578 0.29409 0.0
H1414 H 0.03085 0.0056 0.34361 0.0
C1415 C 0.05162 0.95819 0.26886 0.0
C1416 C 0.80152 0.00053 0.01882 0.0
C1417 C 0.804 -0.01669 0.05606 0.0
H1418 H 0.77478 0.01394 0.96226 0.0
C1419 C 0.78 0.96631 0.06492 0.0
H1420 H 0.81958 0.01396 0.01115 0.0
C1421 C 0.75457 0.96595 0.03626 0.0
C1422 C 0.75228 -0.01702 -0.00132 0.0
H1423 H 0.78126 0.95274 0.09315 0.0
H1424 H 0.73668 0.95229 0.04352 0.0
C1425 C 0.77583 0.00057 -0.00919 0.0
C1426 C 0.97663 0.70822 -0.0129 0.0
C1427 C 1.0002 0.72578 -0.00486 0.0
H1428 H 0.93288 0.69479 0.0074 0.0
C1429 C 0.99797 0.74263 0.03296 0.0
H1430 H 0.97764 0.69499 0.95836 0.0
C1431 C 0.97259 0.74217 0.06169 0.0
C1432 C 0.94855 0.72523 0.05267 0.0
H1433 H 0.01588 0.75625 0.04037 0.0
H1434 H 0.97139 0.75562 0.0901 0.0
C1435 C 0.95097 0.70816 0.01521 0.0
C1436 C 0.80172 0.70917 0.69191 0.0
C1437 C 0.80409 0.72645 0.65475 0.0
H1438 H 0.77506 0.69554 0.74841 0.0
C1439 C 0.77994 0.7433 0.64587 0.0
H1440 H 0.81989 0.69585 0.69958 0.0
C1441 C 0.75449 0.74346 0.67451 0.0
C1442 C 0.75233 0.7264 0.71205 0.0
H1443 H 0.7811 0.7569 0.61769 0.0
H1444 H 0.73649 0.75703 0.66727 0.0
C1445 C 0.77601 0.70893 0.71989 0.0
C1446 C 0.97255 0.96817 0.64917 0.0
C1447 C 0.94841 -0.01503 0.65824 0.0
H1448 H 0.01595 0.9543 0.67046 0.0
C1449 C 0.95074 0.00207 0.69568 0.0
H1450 H 0.97142 0.95471 0.62078 0.0
C1451 C 0.97642 0.00215 0.72374 0.0
C1452 C 1.0001 -0.0153 0.71569 0.0
H1453 H 0.93256 0.01535 0.70351 0.0
H1454 H 0.97736 0.01538 0.75249 0.0
C1455 C 0.99796 0.96784 0.67787 0.0
C1456 C 0.22696 0.45803 0.47195 0.0
C1457 C 0.25072 0.4754 0.46395 0.0
H1458 H 0.18301 0.44503 0.45175 0.0
C1459 C 0.24863 0.49235 0.42623 0.0
H1460 H 0.22786 0.44473 0.50062 0.0
C1461 C 0.22319 0.49218 0.39759 0.0
C1462 C 0.19896 0.47545 0.40663 0.0
H1463 H 0.26668 0.50583 0.41886 0.0
H1464 H 0.22209 0.5057 0.36928 0.0
C1465 C 0.20125 0.45826 0.44396 0.0
C1466 C 0.05177 0.75159 0.44199 0.0
C1467 C 0.05409 0.73435 0.40476 0.0
H1468 H 0.02514 0.76518 0.49856 0.0
C1469 C 0.02989 0.71758 0.3958 0.0
H1470 H 0.06998 0.76485 0.44972 0.0
C1471 C 0.00444 0.71743 0.42443 0.0
C1472 C 0.00233 0.73443 0.46206 0.0
H1473 H 0.03102 0.70402 0.36756 0.0
H1474 H 0.98641 0.70391 0.41713 0.0
C1475 C 0.02606 0.75184 0.46997 0.0
C1476 C 0.24788 0.71657 0.78282 0.0
C1477 C 0.25017 0.73349 0.7451 0.0
H1478 H 0.22124 0.70356 0.8399 0.0
C1479 C 0.22666 0.75111 0.73714 0.0
H1480 H 0.26575 0.7029 0.79017 0.0
C1481 C 0.201 0.75119 0.76523 0.0
C1482 C 0.19853 0.73407 0.80262 0.0
H1483 H 0.22772 0.7644 0.70847 0.0
H1484 H 0.18296 0.76463 0.75749 0.0
C1485 C 0.2225 0.71705 0.81156 0.0
C1486 C 0.03064 0.49349 0.81332 0.0
C1487 C 0.05456 0.47641 0.80443 0.0
H1488 H 0.98742 0.50771 0.7919 0.0
C1489 C 0.05204 0.45927 0.7671 0.0
H1490 H 0.03194 0.507 0.84162 0.0
C1491 C 0.02638 0.45938 0.73902 0.0
C1492 C 0.0029 0.47705 0.74694 0.0
H1493 H 0.07003 0.44579 0.75939 0.0
H1494 H 0.02528 0.44607 0.7104 0.0
C1495 C 0.00525 0.494 0.7846 0.0
C1496 C 0.77644 0.50224 0.48911 0.0
C1497 C 0.75278 0.48478 0.49719 0.0
H1498 H 0.82028 0.51549 0.50929 0.0
C1499 C 0.75495 0.46793 0.53503 0.0
H1500 H 0.77548 0.51548 0.46036 0.0
C1501 C 0.78036 0.46827 0.5637 0.0
C1502 C 0.80449 0.4851 0.5546 0.0
H1503 H 0.73697 0.45438 0.54247 0.0
H1504 H 0.78152 0.45481 0.5921 0.0
C1505 C 0.80212 0.50219 0.51715 0.0
C1506 C 0.97863 0.20914 0.49264 0.0
C1507 C 0.00228 0.22663 0.50056 0.0
H1508 H 0.93478 0.19596 0.51286 0.0
C1509 C 1.00006 0.24365 0.53814 0.0
H1510 H 0.97962 0.19578 0.46409 0.0
C1511 C 0.9746 0.24342 0.56673 0.0
C1512 C 0.95049 0.22655 0.55779 0.0
H1513 H 0.01803 0.25723 0.54544 0.0
H1514 H 0.97339 0.257 0.59495 0.0
C1515 C 0.95291 0.2093 0.52059 0.0
C1516 C 0.77803 0.20835 0.22556 0.0
C1517 C 0.75446 0.22591 0.21756 0.0
H1518 H 0.82178 0.19493 0.20521 0.0
C1519 C 0.75668 0.24279 0.17976 0.0
H1520 H 0.77702 0.19511 0.25429 0.0
C1521 C 0.78204 0.24233 0.15099 0.0
C1522 C 0.80608 0.22539 0.15997 0.0
H1523 H 0.73877 0.25641 0.17239 0.0
H1524 H 0.78324 0.25579 0.12259 0.0
C1525 C 0.80368 0.20831 0.19744 0.0
C1526 C 0.95135 0.50067 0.19386 0.0
C1527 C 0.94893 0.48341 0.15669 0.0
H1528 H 0.97805 0.51418 0.25041 0.0
C1529 C 0.97298 0.46644 0.1479 0.0
H1530 H 0.93325 0.51407 0.20147 0.0
C1531 C 0.99839 0.46616 0.1766 0.0
C1532 C 1.00063 0.48323 0.21412 0.0
H1533 H 0.97177 0.45285 0.11972 0.0
H1534 H 0.01632 0.45252 0.16941 0.0
C1535 C 0.97703 0.50079 0.2219 0.0
C1536 C 0.72647 0.95949 0.47374 0.0
C1537 C 0.74998 0.97712 0.4659 0.0
H1538 H 0.68277 0.94602 0.45328 0.0
C1539 C 0.74769 -0.00587 0.42831 0.0
H1540 H 0.72753 0.94613 0.50231 0.0
C1541 C 0.72231 -0.00629 0.39956 0.0
C1542 C 0.69834 0.97667 0.40837 0.0
H1543 H 0.76556 0.00782 0.42108 0.0
H1544 H 0.72105 0.00727 0.37131 0.0
C1545 C 0.70081 0.95947 0.44565 0.0
C1546 C 0.50668 0.21685 0.42972 0.0
C1547 C 0.50443 0.23374 0.46747 0.0
H1548 H 0.53326 0.20385 0.37258 0.0
C1549 C 0.52797 0.25134 0.47543 0.0
H1550 H 0.48879 0.2032 0.42239 0.0
C1551 C 0.55362 0.25141 0.4473 0.0
C1552 C 0.55604 0.23431 0.40988 0.0
H1553 H 0.52694 0.2646 0.50412 0.0
H1554 H 0.57169 0.26482 0.45504 0.0
C1555 C 0.53204 0.21733 0.40094 0.0
C1556 C 0.72858 0.25165 0.74261 0.0
C1557 C 0.75229 0.23422 0.75056 0.0
H1558 H 0.68468 0.26472 0.76281 0.0
C1559 C 0.75013 0.21721 0.78818 0.0
H1560 H 0.72952 0.265 0.71403 0.0
C1561 C 0.72467 0.21739 0.81678 0.0
C1562 C 0.70049 0.23419 0.80779 0.0
H1563 H 0.76814 0.20368 0.79551 0.0
H1564 H 0.72351 0.20382 0.84501 0.0
C1565 C 0.70286 0.25143 0.77057 0.0
C1566 C 0.52589 0.95796 0.74083 0.0
C1567 C 0.50216 0.97535 0.74892 0.0
H1568 H 0.56981 0.94487 0.76094 0.0
C1569 C 0.50429 -0.00776 0.78672 0.0
H1570 H 0.52497 0.94471 0.71211 0.0
C1571 C 0.52974 -0.00801 0.81533 0.0
C1572 C 0.55394 0.97525 0.8062 0.0
H1573 H 0.48626 0.00573 0.79416 0.0
H1574 H 0.53087 0.00547 0.84369 0.0
C1575 C 0.5516 0.95812 0.76881 0.0
C1576 C 0.25454 0.96617 0.53632 0.0
C1577 C 0.25225 -0.0168 0.49875 0.0
H1578 H 0.28121 0.95295 0.59322 0.0
C1579 C 0.2758 0.0008 0.49089 0.0
H1580 H 0.23664 0.95251 0.54358 0.0
C1581 C 0.30149 0.00075 0.51891 0.0
C1582 C 0.30396 -0.01647 0.55614 0.0
H1583 H 0.27476 0.01416 0.46233 0.0
H1584 H 0.31955 0.01418 0.51124 0.0
C1585 C 0.27996 0.96653 0.565 0.0
C1586 C 0.45098 0.70843 0.51517 0.0
C1587 C 0.44854 0.7255 0.55264 0.0
H1588 H 0.47767 0.69527 0.45834 0.0
C1589 C 0.47256 0.74245 0.56166 0.0
H1590 H 0.4329 0.69504 0.50737 0.0
C1591 C 0.49795 0.74293 0.53294 0.0
C1592 C 0.5002 0.72607 0.49513 0.0
H1593 H 0.47134 0.7559 0.59007 0.0
H1594 H 0.51585 0.75655 0.54035 0.0
C1595 C 0.47664 0.70851 0.48708 0.0
C1596 C 0.30175 0.7092 0.19205 0.0
C1597 C 0.30413 0.72645 0.15484 0.0
H1598 H 0.27507 0.69563 0.24858 0.0
C1599 C 0.28 0.74331 0.14594 0.0
H1600 H 0.3199 0.69587 0.19974 0.0
C1601 C 0.25456 0.74352 0.17458 0.0
C1602 C 0.25237 0.72648 0.21215 0.0
H1603 H 0.28118 0.7569 0.11773 0.0
H1604 H 0.23657 0.75709 0.16731 0.0
C1605 C 0.27604 0.709 0.22003 0.0
C1606 C 0.4764 0.00227 0.22366 0.0
C1607 C 0.5001 -0.01515 0.21564 0.0
H1608 H 0.43252 0.0154 0.2034 0.0
C1609 C 0.49799 0.96795 0.17786 0.0
H1610 H 0.47732 0.01552 0.25237 0.0
C1611 C 0.47259 0.96823 0.14916 0.0
C1612 C 0.44841 -0.01499 0.1582 0.0
H1613 H 0.51601 0.95443 0.17048 0.0
H1614 H 0.47147 0.95475 0.1208 0.0
C1615 C 0.45072 0.00214 0.1956 0.0
C1616 C 0.72323 0.4919 0.8975 0.0
C1617 C 0.69899 0.47518 0.90656 0.0
H1618 H 0.76672 0.50556 0.91877 0.0
C1619 C 0.70127 0.45802 0.94392 0.0
H1620 H 0.72214 0.50541 0.86916 0.0
C1621 C 0.72698 0.4578 0.97193 0.0
C1622 C 0.75073 0.47516 0.96391 0.0
H1623 H 0.68303 0.44479 0.95173 0.0
H1624 H 0.72786 0.44452 0.00063 0.0
C1625 C 0.74866 0.49208 0.92616 0.0
C1626 C 0.52991 0.71734 0.89587 0.0
C1627 C 0.55412 0.73411 0.90481 0.0
H1628 H 0.48643 0.70368 0.9172 0.0
C1629 C 0.55179 0.75137 0.94202 0.0
H1630 H 0.53104 0.70377 0.86764 0.0
C1631 C 0.52608 0.75163 0.96999 0.0
C1632 C 0.50234 0.73422 0.96209 0.0
H1633 H 0.57 0.76463 0.94974 0.0
H1634 H 0.52516 0.76498 -0.00143 0.0
C1635 C 0.50446 0.7172 0.92449 0.0
C1636 C 0.70103 0.75132 0.26519 0.0
C1637 C 0.69855 0.73424 0.30265 0.0
H1638 H 0.72775 0.76443 0.20837 0.0
C1639 C 0.7225 0.71721 0.31164 0.0
H1640 H 0.68301 0.76476 0.25742 0.0
C1641 C 0.74788 0.71668 0.28289 0.0
C1642 C 0.75018 0.73355 0.2451 0.0
H1643 H 0.72124 0.70375 0.34003 0.0
H1644 H 0.76573 0.703 0.29027 0.0
C1645 C 0.72669 0.75118 0.23708 0.0
C1646 C 0.52638 0.45943 0.23912 0.0
C1647 C 0.50288 0.47708 0.24698 0.0
H1648 H 0.57007 0.44591 0.25952 0.0
C1649 C 0.50521 0.49406 0.28459 0.0
H1650 H 0.5253 0.44609 0.21054 0.0
C1651 C 0.5306 0.49362 0.31332 0.0
C1652 C 0.55455 0.47656 0.30447 0.0
H1653 H 0.48735 0.50776 0.29186 0.0
H1654 H 0.53188 0.50716 0.34157 0.0
C1655 C 0.55205 0.45938 0.26719 0.0
C1656 C 0.28043 0.468 0.06357 0.0
C1657 C 0.30454 0.48484 0.05447 0.0
H1658 H 0.23704 0.45409 0.04235 0.0
C1659 C 0.30216 0.50194 0.01702 0.0
H1660 H 0.2816 0.45454 0.09197 0.0
C1661 C 0.27647 0.50198 -0.01101 0.0
C1662 C 0.25282 0.48451 -0.00292 0.0
H1663 H 0.3203 0.51525 0.00917 0.0
H1664 H 0.2755 0.51522 0.96024 0.0
C1665 C 0.25501 0.46764 0.0349 0.0
C1666 C 0.47467 0.24315 0.06688 0.0
C1667 C 0.45055 0.22629 0.05792 0.0
H1668 H 0.51811 0.25695 0.04559 0.0
C1669 C 0.45296 0.20905 0.0207 0.0
H1670 H 0.47347 0.25671 0.09511 0.0
C1671 C 0.47867 0.20889 -0.00725 0.0
C1672 C 0.50233 0.22637 0.00067 0.0
H1673 H 0.43481 0.19572 0.01297 0.0
H1674 H 0.47965 0.19554 0.96418 0.0
C1675 C 0.50013 0.24338 0.03828 0.0
C1676 C 0.3037 0.20824 0.69737 0.0
C1677 C 0.30607 0.22536 0.65995 0.0
H1678 H 0.27706 0.19497 0.75419 0.0
C1679 C 0.28201 0.24228 0.651 0.0
H1680 H 0.32182 0.19488 0.70511 0.0
C1681 C 0.25664 0.24268 0.67977 0.0
C1682 C 0.25445 0.22577 0.71753 0.0
H1683 H 0.28318 0.25576 0.62264 0.0
H1684 H 0.23871 0.25629 0.67243 0.0
C1685 C 0.27805 0.20824 0.72549 0.0
C1686 C 0.47705 0.50071 0.72194 0.0
C1687 C 0.50064 0.48315 0.7141 0.0
H1688 H 0.43328 0.51403 0.70155 0.0
C1689 C 0.4984 0.46612 0.67654 0.0
H1690 H 0.47807 0.51408 0.75049 0.0
C1691 C 0.47299 0.46645 0.64783 0.0
C1692 C 0.44895 0.48341 0.65667 0.0
H1693 H 0.51632 0.45249 0.6693 0.0
H1694 H 0.47177 0.45288 0.61961 0.0
C1695 C 0.45137 0.50063 0.6939 0.0
loop_
_geom_bond_atom_site_label_1
_geom_bond_atom_site_label_2
_geom_bond_distance
_geom_bond_site_symmetry_2
_ccdc_geom_bond_type
O0 Zn1 1.953 . S
O0 C16 1.225 . S
Zn1 O0 1.953 . S
Zn1 O2 1.949 1_565 S
Zn1 O8 1.919 . S
Zn1 O13 1.924 . S
O2 Zn1 1.949 1_545 S
O2 Zn3 1.923 1_545 S
O2 Zn4 1.950 . S
O2 Zn5 1.945 . S
Zn3 O2 1.923 1_565 S
Zn3 O6 1.933 . S
Zn3 O9 1.941 . S
Zn3 O10 1.972 . S
Zn4 O2 1.950 . S
Zn4 O11 1.938 1_554 S
Zn4 O12 1.906 . S
Zn4 O22 1.953 . S
Zn5 O2 1.945 . S
Zn5 O7 1.932 . S
Zn5 O14 1.977 . S
Zn5 O15 1.910 . S
O6 Zn3 1.933 . S
O6 C17 1.226 1_565 S
O7 Zn5 1.932 . S
O7 C17 1.307 . S
O8 Zn1 1.919 . S
O8 C19 1.253 . S
O9 Zn3 1.941 . S
O9 C19 1.283 . S
O10 Zn3 1.972 . S
O10 C18 1.298 1_564 S
O11 Zn4 1.938 1_556 S
O11 C18 1.247 . S
O12 Zn4 1.906 . S
O12 C20 1.304 . S
O13 Zn1 1.924 . S
O13 C21 1.311 . S
O14 Zn5 1.977 . S
O14 C20 1.272 . S
O15 Zn5 1.910 . S
O15 C21 1.231 1_545 S
C16 O0 1.225 . S
C16 O22 1.298 1_565 S
C17 O6 1.226 1_545 S
C17 O7 1.307 . S
C18 O10 1.298 1_546 S
C18 O11 1.247 . S
C19 O8 1.253 . S
C19 O9 1.283 . S
C20 O12 1.304 . S
C20 O14 1.272 . S
C21 O13 1.311 . S
C21 O15 1.231 1_565 S
O22 Zn4 1.953 . S
O22 C16 1.298 1_545 S
O23 Zn24 1.953 . S
O23 C39 1.225 . S
Zn24 O23 1.953 . S
Zn24 O25 1.949 . S
Zn24 O31 1.919 . S
Zn24 O36 1.924 . S
O25 Zn24 1.949 . S
O25 Zn26 1.923 . S
O25 Zn27 1.950 . S
O25 Zn28 1.945 . S
Zn26 O25 1.923 . S
Zn26 O29 1.933 . S
Zn26 O32 1.941 . S
Zn26 O33 1.972 . S
Zn27 O25 1.950 . S
Zn27 O34 1.938 1_554 S
Zn27 O35 1.906 . S
Zn27 O45 1.953 . S
Zn28 O25 1.945 . S
Zn28 O30 1.932 . S
Zn28 O37 1.977 . S
Zn28 O38 1.910 . S
O29 Zn26 1.933 . S
O29 C40 1.226 . S
O30 Zn28 1.932 . S
O30 C40 1.307 . S
O31 Zn24 1.919 . S
O31 C42 1.253 . S
O32 Zn26 1.941 . S
O32 C42 1.283 . S
O33 Zn26 1.972 . S
O33 C41 1.298 1_554 S
O34 Zn27 1.938 1_556 S
O34 C41 1.247 . S
O35 Zn27 1.906 . S
O35 C43 1.304 . S
O36 Zn24 1.924 . S
O36 C44 1.311 . S
O37 Zn28 1.977 . S
O37 C43 1.272 . S
O38 Zn28 1.910 . S
O38 C44 1.231 . S
C39 O23 1.225 . S
C39 O45 1.298 . S
C40 O29 1.226 . S
C40 O30 1.307 . S
C41 O33 1.298 1_556 S
C41 O34 1.247 . S
C42 O31 1.253 . S
C42 O32 1.283 . S
C43 O35 1.304 . S
C43 O37 1.272 . S
C44 O36 1.311 . S
C44 O38 1.231 . S
O45 Zn27 1.953 . S
O45 C39 1.298 . S
O46 Zn47 1.953 . S
O46 C62 1.225 . S
Zn47 O46 1.953 . S
Zn47 O48 1.949 . S
Zn47 O54 1.919 . S
Zn47 O59 1.924 . S
O48 Zn47 1.949 . S
O48 Zn49 1.923 . S
O48 Zn50 1.950 . S
O48 Zn51 1.945 . S
Zn49 O48 1.923 . S
Zn49 O52 1.933 . S
Zn49 O55 1.941 . S
Zn49 O56 1.965 . S
Zn50 O48 1.950 . S
Zn50 O57 1.938 . S
Zn50 O58 1.906 . S
Zn50 O68 1.953 . S
Zn51 O48 1.945 . S
Zn51 O53 1.932 . S
Zn51 O60 1.977 . S
Zn51 O61 1.910 . S
O52 Zn49 1.933 . S
O52 C63 1.226 . S
O53 Zn51 1.932 . S
O53 C63 1.307 . S
O54 Zn47 1.919 . S
O54 C65 1.253 . S
O55 Zn49 1.941 . S
O55 C65 1.283 . S
O56 Zn49 1.965 . S
O56 C64 1.303 . S
O57 Zn50 1.938 . S
O57 C64 1.247 . S
O58 Zn50 1.906 . S
O58 C66 1.304 . S
O59 Zn47 1.924 . S
O59 C67 1.311 . S
O60 Zn51 1.977 . S
O60 C66 1.272 . S
O61 Zn51 1.910 . S
O61 C67 1.231 . S
C62 O46 1.225 . S
C62 O68 1.298 . S
C63 O52 1.226 . S
C63 O53 1.307 . S
C64 O56 1.303 . S
C64 O57 1.247 . S
C65 O54 1.253 . S
C65 O55 1.283 . S
C66 O58 1.304 . S
C66 O60 1.272 . S
C67 O59 1.311 . S
C67 O61 1.231 . S
O68 Zn50 1.953 . S
O68 C62 1.298 . S
O69 Zn70 1.953 . S
O69 C85 1.225 . S
Zn70 O69 1.953 . S
Zn70 O71 1.949 1_565 S
Zn70 O77 1.919 . S
Zn70 O82 1.924 . S
O71 Zn70 1.949 1_545 S
O71 Zn72 1.923 1_545 S
O71 Zn73 1.950 . S
O71 Zn74 1.945 . S
Zn72 O71 1.923 1_565 S
Zn72 O75 1.933 . S
Zn72 O78 1.941 . S
Zn72 O79 1.965 . S
Zn73 O71 1.950 . S
Zn73 O80 1.938 . S
Zn73 O81 1.906 . S
Zn73 O91 1.953 . S
Zn74 O71 1.945 . S
Zn74 O76 1.932 . S
Zn74 O83 1.977 . S
Zn74 O84 1.910 . S
O75 Zn72 1.933 . S
O75 C86 1.226 1_565 S
O76 Zn74 1.932 . S
O76 C86 1.307 . S
O77 Zn70 1.919 . S
O77 C88 1.253 . S
O78 Zn72 1.941 . S
O78 C88 1.283 . S
O79 Zn72 1.965 . S
O79 C87 1.303 1_565 S
O80 Zn73 1.938 . S
O80 C87 1.247 . S
O81 Zn73 1.906 . S
O81 C89 1.304 . S
O82 Zn70 1.924 . S
O82 C90 1.311 . S
O83 Zn74 1.977 . S
O83 C89 1.272 . S
O84 Zn74 1.910 . S
O84 C90 1.231 1_545 S
C85 O69 1.225 . S
C85 O91 1.298 1_565 S
C86 O75 1.226 1_545 S
C86 O76 1.307 . S
C87 O79 1.303 1_545 S
C87 O80 1.247 . S
C88 O77 1.253 . S
C88 O78 1.283 . S
C89 O81 1.304 . S
C89 O83 1.272 . S
C90 O82 1.311 . S
C90 O84 1.231 1_565 S
O91 Zn73 1.953 . S
O91 C85 1.298 1_545 S
O92 Zn93 1.953 . S
O92 C108 1.225 . S
Zn93 O92 1.953 . S
Zn93 O94 1.949 1_545 S
Zn93 O100 1.919 . S
Zn93 O105 1.924 . S
O94 Zn93 1.949 1_565 S
O94 Zn95 1.923 1_565 S
O94 Zn96 1.950 . S
O94 Zn97 1.945 . S
Zn95 O94 1.923 1_545 S
Zn95 O98 1.933 . S
Zn95 O101 1.941 . S
Zn95 O102 1.972 . S
Zn96 O94 1.950 . S
Zn96 O103 1.938 1_556 S
Zn96 O104 1.906 . S
Zn96 O114 1.953 . S
Zn97 O94 1.945 . S
Zn97 O99 1.932 . S
Zn97 O106 1.977 . S
Zn97 O107 1.910 . S
O98 Zn95 1.933 . S
O98 C109 1.226 1_545 S
O99 Zn97 1.932 . S
O99 C109 1.307 . S
O100 Zn93 1.919 . S
O100 C111 1.253 . S
O101 Zn95 1.941 . S
O101 C111 1.283 . S
O102 Zn95 1.972 . S
O102 C110 1.298 1_546 S
O103 Zn96 1.938 1_554 S
O103 C110 1.247 . S
O104 Zn96 1.906 . S
O104 C112 1.304 . S
O105 Zn93 1.924 . S
O105 C113 1.311 . S
O106 Zn97 1.977 . S
O106 C112 1.272 . S
O107 Zn97 1.910 . S
O107 C113 1.231 1_565 S
C108 O92 1.225 . S
C108 O114 1.298 1_545 S
C109 O98 1.226 1_565 S
C109 O99 1.307 . S
C110 O102 1.298 1_564 S
C110 O103 1.247 . S
C111 O100 1.253 . S
C111 O101 1.283 . S
C112 O104 1.304 . S
C112 O106 1.272 . S
C113 O105 1.311 . S
C113 O107 1.231 1_545 S
O114 Zn96 1.953 . S
O114 C108 1.298 1_565 S
O115 Zn116 1.953 . S
O115 C131 1.225 . S
Zn116 O115 1.953 . S
Zn116 O117 1.949 . S
Zn116 O123 1.919 . S
Zn116 O128 1.924 . S
O117 Zn116 1.949 . S
O117 Zn118 1.923 . S
O117 Zn119 1.950 . S
O117 Zn120 1.945 . S
Zn118 O117 1.923 . S
Zn118 O121 1.933 . S
Zn118 O124 1.941 . S
Zn118 O125 1.972 . S
Zn119 O117 1.950 . S
Zn119 O126 1.938 1_556 S
Zn119 O127 1.906 . S
Zn119 O137 1.953 . S
Zn120 O117 1.945 . S
Zn120 O122 1.932 . S
Zn120 O129 1.977 . S
Zn120 O130 1.910 . S
O121 Zn118 1.933 . S
O121 C132 1.226 . S
O122 Zn120 1.932 . S
O122 C132 1.307 . S
O123 Zn116 1.919 . S
O123 C134 1.253 . S
O124 Zn118 1.941 . S
O124 C134 1.283 . S
O125 Zn118 1.972 . S
O125 C133 1.298 1_556 S
O126 Zn119 1.938 1_554 S
O126 C133 1.247 . S
O127 Zn119 1.906 . S
O127 C135 1.304 . S
O128 Zn116 1.924 . S
O128 C136 1.311 . S
O129 Zn120 1.977 . S
O129 C135 1.272 . S
O130 Zn120 1.910 . S
O130 C136 1.231 . S
C131 O115 1.225 . S
C131 O137 1.298 . S
C132 O121 1.226 . S
C132 O122 1.307 . S
C133 O125 1.298 1_554 S
C133 O126 1.247 . S
C134 O123 1.253 . S
C134 O124 1.283 . S
C135 O127 1.304 . S
C135 O129 1.272 . S
C136 O128 1.311 . S
C136 O130 1.231 . S
O137 Zn119 1.953 . S
O137 C131 1.298 . S
O138 Zn139 1.953 . S
O138 C154 1.225 . S
Zn139 O138 1.953 . S
Zn139 O140 1.949 . S
Zn139 O146 1.919 . S
Zn139 O151 1.924 . S
O140 Zn139 1.949 . S
O140 Zn141 1.923 . S
O140 Zn142 1.950 . S
O140 Zn143 1.945 . S
Zn141 O140 1.923 . S
Zn141 O144 1.933 . S
Zn141 O147 1.941 . S
Zn141 O148 1.965 . S
Zn142 O140 1.950 . S
Zn142 O149 1.938 . S
Zn142 O150 1.906 . S
Zn142 O160 1.953 . S
Zn143 O140 1.945 . S
Zn143 O145 1.932 . S
Zn143 O152 1.977 . S
Zn143 O153 1.910 . S
O144 Zn141 1.933 . S
O144 C155 1.226 . S
O145 Zn143 1.932 . S
O145 C155 1.307 . S
O146 Zn139 1.919 . S
O146 C157 1.253 . S
O147 Zn141 1.941 . S
O147 C157 1.283 . S
O148 Zn141 1.965 . S
O148 C156 1.303 . S
O149 Zn142 1.938 . S
O149 C156 1.247 . S
O150 Zn142 1.906 . S
O150 C158 1.304 . S
O151 Zn139 1.924 . S
O151 C159 1.311 . S
O152 Zn143 1.977 . S
O152 C158 1.272 . S
O153 Zn143 1.910 . S
O153 C159 1.231 . S
C154 O138 1.225 . S
C154 O160 1.298 . S
C155 O144 1.226 . S
C155 O145 1.307 . S
C156 O148 1.303 . S
C156 O149 1.247 . S
C157 O146 1.253 . S
C157 O147 1.283 . S
C158 O150 1.304 . S
C158 O152 1.272 . S
C159 O151 1.311 . S
C159 O153 1.231 . S
O160 Zn142 1.953 . S
O160 C154 1.298 . S
O161 Zn162 1.953 . S
O161 C177 1.225 . S
Zn162 O161 1.953 . S
Zn162 O163 1.949 1_545 S
Zn162 O169 1.919 . S
Zn162 O174 1.924 . S
O163 Zn162 1.949 1_565 S
O163 Zn164 1.923 1_565 S
O163 Zn165 1.950 . S
O163 Zn166 1.945 . S
Zn164 O163 1.923 1_545 S
Zn164 O167 1.933 . S
Zn164 O170 1.941 . S
Zn164 O171 1.965 . S
Zn165 O163 1.950 . S
Zn165 O172 1.938 . S
Zn165 O173 1.906 . S
Zn165 O183 1.953 . S
Zn166 O163 1.945 . S
Zn166 O168 1.932 . S
Zn166 O175 1.977 . S
Zn166 O176 1.910 . S
O167 Zn164 1.933 . S
O167 C178 1.226 1_545 S
O168 Zn166 1.932 . S
O168 C178 1.307 . S
O169 Zn162 1.919 . S
O169 C180 1.253 . S
O170 Zn164 1.941 . S
O170 C180 1.283 . S
O171 Zn164 1.965 . S
O171 C179 1.303 1_545 S
O172 Zn165 1.938 . S
O172 C179 1.247 . S
O173 Zn165 1.906 . S
O173 C181 1.304 . S
O174 Zn162 1.924 . S
O174 C182 1.311 . S
O175 Zn166 1.977 . S
O175 C181 1.272 . S
O176 Zn166 1.910 . S
O176 C182 1.231 1_565 S
C177 O161 1.225 . S
C177 O183 1.298 1_545 S
C178 O167 1.226 1_565 S
C178 O168 1.307 . S
C179 O171 1.303 1_565 S
C179 O172 1.247 . S
C180 O169 1.253 . S
C180 O170 1.283 . S
C181 O173 1.304 . S
C181 O175 1.272 . S
C182 O174 1.311 . S
C182 O176 1.231 1_545 S
O183 Zn165 1.953 . S
O183 C177 1.298 1_565 S
O184 Zn185 1.953 . S
O184 C200 1.225 . S
Zn185 O184 1.953 . S
Zn185 O186 1.949 . S
Zn185 O192 1.919 . S
Zn185 O197 1.924 . S
O186 Zn185 1.949 . S
O186 Zn187 1.923 . S
O186 Zn188 1.950 . S
O186 Zn189 1.945 . S
Zn187 O186 1.923 . S
Zn187 O190 1.933 . S
Zn187 O193 1.941 . S
Zn187 O194 1.965 . S
Zn188 O186 1.950 . S
Zn188 O195 1.938 . S
Zn188 O196 1.906 . S
Zn188 O206 1.953 . S
Zn189 O186 1.945 . S
Zn189 O191 1.932 . S
Zn189 O198 1.977 . S
Zn189 O199 1.910 . S
O190 Zn187 1.933 . S
O190 C201 1.226 . S
O191 Zn189 1.932 . S
O191 C201 1.307 . S
O192 Zn185 1.919 . S
O192 C203 1.253 . S
O193 Zn187 1.941 . S
O193 C203 1.283 . S
O194 Zn187 1.965 . S
O194 C202 1.303 . S
O195 Zn188 1.938 . S
O195 C202 1.247 . S
O196 Zn188 1.906 . S
O196 C204 1.304 . S
O197 Zn185 1.924 . S
O197 C205 1.311 . S
O198 Zn189 1.977 . S
O198 C204 1.272 . S
O199 Zn189 1.910 . S
O199 C205 1.231 . S
C200 O184 1.225 . S
C200 O206 1.298 . S
C201 O190 1.226 . S
C201 O191 1.307 . S
C202 O194 1.303 . S
C202 O195 1.247 . S
C203 O192 1.253 . S
C203 O193 1.283 . S
C204 O196 1.304 . S
C204 O198 1.272 . S
C205 O197 1.311 . S
C205 O199 1.231 . S
O206 Zn188 1.953 . S
O206 C200 1.298 . S
O207 Zn208 1.953 . S
O207 C223 1.225 . S
Zn208 O207 1.953 . S
Zn208 O209 1.949 . S
Zn208 O215 1.919 . S
Zn208 O220 1.924 . S
O209 Zn208 1.949 . S
O209 Zn210 1.923 . S
O209 Zn211 1.950 . S
O209 Zn212 1.945 . S
Zn210 O209 1.923 . S
Zn210 O213 1.933 . S
Zn210 O216 1.941 . S
Zn210 O217 1.965 . S
Zn211 O209 1.950 . S
Zn211 O218 1.938 . S
Zn211 O219 1.906 . S
Zn211 O229 1.953 . S
Zn212 O209 1.945 . S
Zn212 O214 1.932 . S
Zn212 O221 1.977 . S
Zn212 O222 1.910 . S
O213 Zn210 1.933 . S
O213 C224 1.226 . S
O214 Zn212 1.932 . S
O214 C224 1.307 . S
O215 Zn208 1.919 . S
O215 C226 1.253 . S
O216 Zn210 1.941 . S
O216 C226 1.283 . S
O217 Zn210 1.965 . S
O217 C225 1.303 . S
O218 Zn211 1.938 . S
O218 C225 1.247 . S
O219 Zn211 1.906 . S
O219 C227 1.304 . S
O220 Zn208 1.924 . S
O220 C228 1.311 . S
O221 Zn212 1.977 . S
O221 C227 1.272 . S
O222 Zn212 1.910 . S
O222 C228 1.231 . S
C223 O207 1.225 . S
C223 O229 1.298 . S
C224 O213 1.226 . S
C224 O214 1.307 . S
C225 O217 1.303 . S
C225 O218 1.247 . S
C226 O215 1.253 . S
C226 O216 1.283 . S
C227 O219 1.304 . S
C227 O221 1.272 . S
C228 O220 1.311 . S
C228 O222 1.231 . S
O229 Zn211 1.953 . S
O229 C223 1.298 . S
O230 Zn231 1.953 . S
O230 C246 1.225 . S
Zn231 O230 1.953 . S
Zn231 O232 1.949 . S
Zn231 O238 1.919 . S
Zn231 O243 1.924 . S
O232 Zn231 1.949 . S
O232 Zn233 1.923 . S
O232 Zn234 1.950 . S
O232 Zn235 1.945 . S
Zn233 O232 1.923 . S
Zn233 O236 1.933 . S
Zn233 O239 1.941 . S
Zn233 O240 1.965 . S
Zn234 O232 1.950 . S
Zn234 O241 1.938 . S
Zn234 O242 1.906 . S
Zn234 O252 1.953 . S
Zn235 O232 1.945 . S
Zn235 O237 1.932 . S
Zn235 O244 1.977 . S
Zn235 O245 1.910 . S
O236 Zn233 1.933 . S
O236 C247 1.226 . S
O237 Zn235 1.932 . S
O237 C247 1.307 . S
O238 Zn231 1.919 . S
O238 C249 1.253 . S
O239 Zn233 1.941 . S
O239 C249 1.283 . S
O240 Zn233 1.965 . S
O240 C248 1.303 . S
O241 Zn234 1.938 . S
O241 C248 1.247 . S
O242 Zn234 1.906 . S
O242 C250 1.304 . S
O243 Zn231 1.924 . S
O243 C251 1.311 . S
O244 Zn235 1.977 . S
O244 C250 1.272 . S
O245 Zn235 1.910 . S
O245 C251 1.231 . S
C246 O230 1.225 . S
C246 O252 1.298 . S
C247 O236 1.226 . S
C247 O237 1.307 . S
C248 O240 1.303 . S
C248 O241 1.247 . S
C249 O238 1.253 . S
C249 O239 1.283 . S
C250 O242 1.304 . S
C250 O244 1.272 . S
C251 O243 1.311 . S
C251 O245 1.231 . S
O252 Zn234 1.953 . S
O252 C246 1.298 . S
O253 Zn254 1.953 . S
O253 C269 1.225 . S
Zn254 O253 1.953 . S
Zn254 O255 1.949 . S
Zn254 O261 1.919 . S
Zn254 O266 1.924 . S
O255 Zn254 1.949 . S
O255 Zn256 1.923 . S
O255 Zn257 1.950 . S
O255 Zn258 1.945 . S
Zn256 O255 1.923 . S
Zn256 O259 1.933 . S
Zn256 O262 1.941 . S
Zn256 O263 1.965 . S
Zn257 O255 1.950 . S
Zn257 O264 1.938 . S
Zn257 O265 1.906 . S
Zn257 O275 1.953 . S
Zn258 O255 1.945 . S
Zn258 O260 1.932 . S
Zn258 O267 1.977 . S
Zn258 O268 1.910 . S
O259 Zn256 1.933 . S
O259 C270 1.226 . S
O260 Zn258 1.932 . S
O260 C270 1.307 . S
O261 Zn254 1.919 . S
O261 C272 1.253 . S
O262 Zn256 1.941 . S
O262 C272 1.283 . S
O263 Zn256 1.965 . S
O263 C271 1.303 . S
O264 Zn257 1.938 . S
O264 C271 1.247 . S
O265 Zn257 1.906 . S
O265 C273 1.304 . S
O266 Zn254 1.924 . S
O266 C274 1.311 . S
O267 Zn258 1.977 . S
O267 C273 1.272 . S
O268 Zn258 1.910 . S
O268 C274 1.231 . S
C269 O253 1.225 . S
C269 O275 1.298 . S
C270 O259 1.226 . S
C270 O260 1.307 . S
C271 O263 1.303 . S
C271 O264 1.247 . S
C272 O261 1.253 . S
C272 O262 1.283 . S
C273 O265 1.304 . S
C273 O267 1.272 . S
C274 O266 1.311 . S
C274 O268 1.231 . S
O275 Zn257 1.953 . S
O275 C269 1.298 . S
O276 Zn277 1.953 . S
O276 C292 1.225 . S
Zn277 O276 1.953 . S
Zn277 O278 1.949 . S
Zn277 O284 1.919 . S
Zn277 O289 1.924 . S
O278 Zn277 1.949 . S
O278 Zn279 1.923 . S
O278 Zn280 1.950 . S
O278 Zn281 1.945 . S
Zn279 O278 1.923 . S
Zn279 O282 1.933 . S
Zn279 O285 1.941 . S
Zn279 O286 1.965 . S
Zn280 O278 1.950 . S
Zn280 O287 1.938 . S
Zn280 O288 1.906 . S
Zn280 O298 1.953 . S
Zn281 O278 1.945 . S
Zn281 O283 1.932 . S
Zn281 O290 1.977 . S
Zn281 O291 1.910 . S
O282 Zn279 1.933 . S
O282 C293 1.226 . S
O283 Zn281 1.932 . S
O283 C293 1.307 . S
O284 Zn277 1.919 . S
O284 C295 1.253 . S
O285 Zn279 1.941 . S
O285 C295 1.283 . S
O286 Zn279 1.965 . S
O286 C294 1.303 . S
O287 Zn280 1.938 . S
O287 C294 1.247 . S
O288 Zn280 1.906 . S
O288 C296 1.304 . S
O289 Zn277 1.924 . S
O289 C297 1.311 . S
O290 Zn281 1.977 . S
O290 C296 1.272 . S
O291 Zn281 1.910 . S
O291 C297 1.231 . S
C292 O276 1.225 . S
C292 O298 1.298 . S
C293 O282 1.226 . S
C293 O283 1.307 . S
C294 O286 1.303 . S
C294 O287 1.247 . S
C295 O284 1.253 . S
C295 O285 1.283 . S
C296 O288 1.304 . S
C296 O290 1.272 . S
C297 O289 1.311 . S
C297 O291 1.231 . S
O298 Zn280 1.953 . S
O298 C292 1.298 . S
O299 Zn300 1.953 . S
O299 C315 1.225 . S
Zn300 O299 1.953 . S
Zn300 O301 1.949 . S
Zn300 O307 1.919 . S
Zn300 O312 1.924 . S
O301 Zn300 1.949 . S
O301 Zn302 1.923 . S
O301 Zn303 1.950 . S
O301 Zn304 1.945 . S
Zn302 O301 1.923 . S
Zn302 O305 1.933 . S
Zn302 O308 1.941 . S
Zn302 O309 1.965 . S
Zn303 O301 1.950 . S
Zn303 O310 1.938 . S
Zn303 O311 1.906 . S
Zn303 O321 1.953 . S
Zn304 O301 1.945 . S
Zn304 O306 1.932 . S
Zn304 O313 1.977 . S
Zn304 O314 1.910 . S
O305 Zn302 1.933 . S
O305 C316 1.226 . S
O306 Zn304 1.932 . S
O306 C316 1.307 . S
O307 Zn300 1.919 . S
O307 C318 1.253 . S
O308 Zn302 1.941 . S
O308 C318 1.283 . S
O309 Zn302 1.965 . S
O309 C317 1.303 . S
O310 Zn303 1.938 . S
O310 C317 1.247 . S
O311 Zn303 1.906 . S
O311 C319 1.304 . S
O312 Zn300 1.924 . S
O312 C320 1.311 . S
O313 Zn304 1.977 . S
O313 C319 1.272 . S
O314 Zn304 1.910 . S
O314 C320 1.231 . S
C315 O299 1.225 . S
C315 O321 1.298 . S
C316 O305 1.226 . S
C316 O306 1.307 . S
C317 O309 1.303 . S
C317 O310 1.247 . S
C318 O307 1.253 . S
C318 O308 1.283 . S
C319 O311 1.304 . S
C319 O313 1.272 . S
C320 O312 1.311 . S
C320 O314 1.231 . S
O321 Zn303 1.953 . S
O321 C315 1.298 . S
O322 Zn323 1.953 . S
O322 C338 1.225 . S
Zn323 O322 1.953 . S
Zn323 O324 1.949 . S
Zn323 O330 1.919 . S
Zn323 O335 1.924 . S
O324 Zn323 1.949 . S
O324 Zn325 1.923 . S
O324 Zn326 1.950 . S
O324 Zn327 1.945 . S
Zn325 O324 1.923 . S
Zn325 O328 1.933 . S
Zn325 O331 1.941 . S
Zn325 O332 1.965 . S
Zn326 O324 1.950 . S
Zn326 O333 1.938 . S
Zn326 O334 1.906 . S
Zn326 O344 1.953 . S
Zn327 O324 1.945 . S
Zn327 O329 1.932 . S
Zn327 O336 1.977 . S
Zn327 O337 1.910 . S
O328 Zn325 1.933 . S
O328 C339 1.226 . S
O329 Zn327 1.932 . S
O329 C339 1.307 . S
O330 Zn323 1.919 . S
O330 C341 1.253 . S
O331 Zn325 1.941 . S
O331 C341 1.283 . S
O332 Zn325 1.965 . S
O332 C340 1.303 . S
O333 Zn326 1.938 . S
O333 C340 1.247 . S
O334 Zn326 1.906 . S
O334 C342 1.304 . S
O335 Zn323 1.924 . S
O335 C343 1.311 . S
O336 Zn327 1.977 . S
O336 C342 1.272 . S
O337 Zn327 1.910 . S
O337 C343 1.231 . S
C338 O322 1.225 . S
C338 O344 1.298 . S
C339 O328 1.226 . S
C339 O329 1.307 . S
C340 O332 1.303 . S
C340 O333 1.247 . S
C341 O330 1.253 . S
C341 O331 1.283 . S
C342 O334 1.304 . S
C342 O336 1.272 . S
C343 O335 1.311 . S
C343 O337 1.231 . S
O344 Zn326 1.953 . S
O344 C338 1.298 . S
O345 Zn346 1.953 . S
O345 C361 1.225 . S
Zn346 O345 1.953 . S
Zn346 O347 1.949 . S
Zn346 O353 1.919 . S
Zn346 O358 1.924 . S
O347 Zn346 1.949 . S
O347 Zn348 1.923 . S
O347 Zn349 1.950 . S
O347 Zn350 1.945 . S
Zn348 O347 1.923 . S
Zn348 O351 1.933 . S
Zn348 O354 1.941 . S
Zn348 O355 1.965 . S
Zn349 O347 1.950 . S
Zn349 O356 1.938 . S
Zn349 O357 1.906 . S
Zn349 O367 1.953 . S
Zn350 O347 1.945 . S
Zn350 O352 1.932 . S
Zn350 O359 1.977 . S
Zn350 O360 1.910 . S
O351 Zn348 1.933 . S
O351 C362 1.226 . S
O352 Zn350 1.932 . S
O352 C362 1.307 . S
O353 Zn346 1.919 . S
O353 C364 1.253 . S
O354 Zn348 1.941 . S
O354 C364 1.283 . S
O355 Zn348 1.965 . S
O355 C363 1.303 . S
O356 Zn349 1.938 . S
O356 C363 1.247 . S
O357 Zn349 1.906 . S
O357 C365 1.304 . S
O358 Zn346 1.924 . S
O358 C366 1.311 . S
O359 Zn350 1.977 . S
O359 C365 1.272 . S
O360 Zn350 1.910 . S
O360 C366 1.231 . S
C361 O345 1.225 . S
C361 O367 1.298 . S
C362 O351 1.226 . S
C362 O352 1.307 . S
C363 O355 1.303 . S
C363 O356 1.247 . S
C364 O353 1.253 . S
C364 O354 1.283 . S
C365 O357 1.304 . S
C365 O359 1.272 . S
C366 O358 1.311 . S
C366 O360 1.231 . S
O367 Zn349 1.953 . S
O367 C361 1.298 . S
O368 Zn369 1.953 . S
O368 C384 1.225 . S
Zn369 O368 1.953 . S
Zn369 O370 1.949 1_565 S
Zn369 O376 1.919 . S
Zn369 O381 1.924 . S
O370 Zn369 1.949 1_545 S
O370 Zn371 1.923 1_545 S
O370 Zn372 1.950 . S
O370 Zn373 1.945 . S
Zn371 O370 1.923 1_565 S
Zn371 O374 1.933 . S
Zn371 O377 1.941 . S
Zn371 O378 1.965 . S
Zn372 O370 1.950 . S
Zn372 O379 1.938 . S
Zn372 O380 1.906 . S
Zn372 O390 1.953 . S
Zn373 O370 1.945 . S
Zn373 O375 1.932 . S
Zn373 O382 1.977 . S
Zn373 O383 1.910 . S
O374 Zn371 1.933 . S
O374 C385 1.226 1_565 S
O375 Zn373 1.932 . S
O375 C385 1.307 . S
O376 Zn369 1.919 . S
O376 C387 1.253 . S
O377 Zn371 1.941 . S
O377 C387 1.283 . S
O378 Zn371 1.965 . S
O378 C386 1.303 1_565 S
O379 Zn372 1.938 . S
O379 C386 1.247 . S
O380 Zn372 1.906 . S
O380 C388 1.304 . S
O381 Zn369 1.924 . S
O381 C389 1.311 . S
O382 Zn373 1.977 . S
O382 C388 1.272 . S
O383 Zn373 1.910 . S
O383 C389 1.231 1_545 S
C384 O368 1.225 . S
C384 O390 1.298 1_565 S
C385 O374 1.226 1_545 S
C385 O375 1.307 . S
C386 O378 1.303 1_545 S
C386 O379 1.247 . S
C387 O376 1.253 . S
C387 O377 1.283 . S
C388 O380 1.304 . S
C388 O382 1.272 . S
C389 O381 1.311 . S
C389 O383 1.231 1_565 S
O390 Zn372 1.953 . S
O390 C384 1.298 1_545 S
O391 Zn392 1.953 . S
O391 C407 1.225 . S
Zn392 O391 1.953 . S
Zn392 O393 1.949 . S
Zn392 O399 1.919 . S
Zn392 O404 1.924 . S
O393 Zn392 1.949 . S
O393 Zn394 1.923 . S
O393 Zn395 1.950 . S
O393 Zn396 1.945 . S
Zn394 O393 1.923 . S
Zn394 O397 1.933 . S
Zn394 O400 1.941 . S
Zn394 O401 1.965 . S
Zn395 O393 1.950 . S
Zn395 O402 1.938 . S
Zn395 O403 1.906 . S
Zn395 O413 1.953 . S
Zn396 O393 1.945 . S
Zn396 O398 1.932 . S
Zn396 O405 1.977 . S
Zn396 O406 1.910 . S
O397 Zn394 1.933 . S
O397 C408 1.226 . S
O398 Zn396 1.932 . S
O398 C408 1.307 . S
O399 Zn392 1.919 . S
O399 C410 1.253 . S
O400 Zn394 1.941 . S
O400 C410 1.283 . S
O401 Zn394 1.965 . S
O401 C409 1.303 . S
O402 Zn395 1.938 . S
O402 C409 1.247 . S
O403 Zn395 1.906 . S
O403 C411 1.304 . S
O404 Zn392 1.924 . S
O404 C412 1.311 . S
O405 Zn396 1.977 . S
O405 C411 1.272 . S
O406 Zn396 1.910 . S
O406 C412 1.231 . S
C407 O391 1.225 . S
C407 O413 1.298 . S
C408 O397 1.226 . S
C408 O398 1.307 . S
C409 O401 1.303 . S
C409 O402 1.247 . S
C410 O399 1.253 . S
C410 O400 1.283 . S
C411 O403 1.304 . S
C411 O405 1.272 . S
C412 O404 1.311 . S
C412 O406 1.231 . S
O413 Zn395 1.953 . S
O413 C407 1.298 . S
O414 Zn415 1.953 . S
O414 C430 1.225 . S
Zn415 O414 1.953 . S
Zn415 O416 1.949 . S
Zn415 O422 1.919 . S
Zn415 O427 1.924 . S
O416 Zn415 1.949 . S
O416 Zn417 1.923 . S
O416 Zn418 1.950 . S
O416 Zn419 1.945 . S
Zn417 O416 1.923 . S
Zn417 O420 1.933 . S
Zn417 O423 1.941 . S
Zn417 O424 1.965 . S
Zn418 O416 1.950 . S
Zn418 O425 1.938 . S
Zn418 O426 1.906 . S
Zn418 O436 1.953 . S
Zn419 O416 1.945 . S
Zn419 O421 1.932 . S
Zn419 O428 1.977 . S
Zn419 O429 1.910 . S
O420 Zn417 1.933 . S
O420 C431 1.226 . S
O421 Zn419 1.932 . S
O421 C431 1.307 . S
O422 Zn415 1.919 . S
O422 C433 1.253 . S
O423 Zn417 1.941 . S
O423 C433 1.283 . S
O424 Zn417 1.965 . S
O424 C432 1.303 . S
O425 Zn418 1.938 . S
O425 C432 1.247 . S
O426 Zn418 1.906 . S
O426 C434 1.304 . S
O427 Zn415 1.924 . S
O427 C435 1.311 . S
O428 Zn419 1.977 . S
O428 C434 1.272 . S
O429 Zn419 1.910 . S
O429 C435 1.231 . S
C430 O414 1.225 . S
C430 O436 1.298 . S
C431 O420 1.226 . S
C431 O421 1.307 . S
C432 O424 1.303 . S
C432 O425 1.247 . S
C433 O422 1.253 . S
C433 O423 1.283 . S
C434 O426 1.304 . S
C434 O428 1.272 . S
C435 O427 1.311 . S
C435 O429 1.231 . S
O436 Zn418 1.953 . S
O436 C430 1.298 . S
O437 Zn438 1.953 . S
O437 C453 1.225 . S
Zn438 O437 1.953 . S
Zn438 O439 1.949 1_565 S
Zn438 O445 1.919 . S
Zn438 O450 1.924 . S
O439 Zn438 1.949 1_545 S
O439 Zn440 1.923 1_545 S
O439 Zn441 1.950 . S
O439 Zn442 1.945 . S
Zn440 O439 1.923 1_565 S
Zn440 O443 1.933 . S
Zn440 O446 1.941 . S
Zn440 O447 1.965 . S
Zn441 O439 1.950 . S
Zn441 O448 1.938 . S
Zn441 O449 1.906 . S
Zn441 O459 1.953 . S
Zn442 O439 1.945 . S
Zn442 O444 1.932 . S
Zn442 O451 1.977 . S
Zn442 O452 1.910 . S
O443 Zn440 1.933 . S
O443 C454 1.226 1_565 S
O444 Zn442 1.932 . S
O444 C454 1.307 . S
O445 Zn438 1.919 . S
O445 C456 1.253 . S
O446 Zn440 1.941 . S
O446 C456 1.283 . S
O447 Zn440 1.965 . S
O447 C455 1.303 1_565 S
O448 Zn441 1.938 . S
O448 C455 1.247 . S
O449 Zn441 1.906 . S
O449 C457 1.304 . S
O450 Zn438 1.924 . S
O450 C458 1.311 . S
O451 Zn442 1.977 . S
O451 C457 1.272 . S
O452 Zn442 1.910 . S
O452 C458 1.231 1_545 S
C453 O437 1.225 . S
C453 O459 1.298 1_565 S
C454 O443 1.226 1_545 S
C454 O444 1.307 . S
C455 O447 1.303 1_545 S
C455 O448 1.247 . S
C456 O445 1.253 . S
C456 O446 1.283 . S
C457 O449 1.304 . S
C457 O451 1.272 . S
C458 O450 1.311 . S
C458 O452 1.231 1_565 S
O459 Zn441 1.953 . S
O459 C453 1.298 1_545 S
O460 Zn461 1.953 . S
O460 C476 1.225 . S
Zn461 O460 1.953 . S
Zn461 O462 1.949 1_545 S
Zn461 O468 1.919 . S
Zn461 O473 1.924 . S
O462 Zn461 1.949 1_565 S
O462 Zn463 1.923 1_565 S
O462 Zn464 1.950 . S
O462 Zn465 1.945 . S
Zn463 O462 1.923 1_545 S
Zn463 O466 1.933 . S
Zn463 O469 1.941 . S
Zn463 O470 1.965 . S
Zn464 O462 1.950 . S
Zn464 O471 1.938 . S
Zn464 O472 1.906 . S
Zn464 O482 1.953 . S
Zn465 O462 1.945 . S
Zn465 O467 1.932 . S
Zn465 O474 1.977 . S
Zn465 O475 1.910 . S
O466 Zn463 1.933 . S
O466 C477 1.226 1_545 S
O467 Zn465 1.932 . S
O467 C477 1.307 . S
O468 Zn461 1.919 . S
O468 C479 1.253 . S
O469 Zn463 1.941 . S
O469 C479 1.283 . S
O470 Zn463 1.965 . S
O470 C478 1.303 1_545 S
O471 Zn464 1.938 . S
O471 C478 1.247 . S
O472 Zn464 1.906 . S
O472 C480 1.304 . S
O473 Zn461 1.924 . S
O473 C481 1.311 . S
O474 Zn465 1.977 . S
O474 C480 1.272 . S
O475 Zn465 1.910 . S
O475 C481 1.231 1_565 S
C476 O460 1.225 . S
C476 O482 1.298 1_545 S
C477 O466 1.226 1_565 S
C477 O467 1.307 . S
C478 O470 1.303 1_565 S
C478 O471 1.247 . S
C479 O468 1.253 . S
C479 O469 1.283 . S
C480 O472 1.304 . S
C480 O474 1.272 . S
C481 O473 1.311 . S
C481 O475 1.231 1_545 S
O482 Zn464 1.953 . S
O482 C476 1.298 1_565 S
O483 Zn484 1.953 . S
O483 C499 1.225 . S
Zn484 O483 1.953 . S
Zn484 O485 1.949 . S
Zn484 O491 1.919 . S
Zn484 O496 1.924 . S
O485 Zn484 1.949 . S
O485 Zn486 1.923 . S
O485 Zn487 1.950 . S
O485 Zn488 1.945 . S
Zn486 O485 1.923 . S
Zn486 O489 1.933 . S
Zn486 O492 1.941 . S
Zn486 O493 1.965 . S
Zn487 O485 1.950 . S
Zn487 O494 1.938 . S
Zn487 O495 1.906 . S
Zn487 O505 1.953 . S
Zn488 O485 1.945 . S
Zn488 O490 1.932 . S
Zn488 O497 1.977 . S
Zn488 O498 1.910 . S
O489 Zn486 1.933 . S
O489 C500 1.226 . S
O490 Zn488 1.932 . S
O490 C500 1.307 . S
O491 Zn484 1.919 . S
O491 C502 1.253 . S
O492 Zn486 1.941 . S
O492 C502 1.283 . S
O493 Zn486 1.965 . S
O493 C501 1.303 . S
O494 Zn487 1.938 . S
O494 C501 1.247 . S
O495 Zn487 1.906 . S
O495 C503 1.304 . S
O496 Zn484 1.924 . S
O496 C504 1.311 . S
O497 Zn488 1.977 . S
O497 C503 1.272 . S
O498 Zn488 1.910 . S
O498 C504 1.231 . S
C499 O483 1.225 . S
C499 O505 1.298 . S
C500 O489 1.226 . S
C500 O490 1.307 . S
C501 O493 1.303 . S
C501 O494 1.247 . S
C502 O491 1.253 . S
C502 O492 1.283 . S
C503 O495 1.304 . S
C503 O497 1.272 . S
C504 O496 1.311 . S
C504 O498 1.231 . S
O505 Zn487 1.953 . S
O505 C499 1.298 . S
O506 Zn507 1.953 . S
O506 C522 1.225 . S
Zn507 O506 1.953 . S
Zn507 O508 1.949 . S
Zn507 O514 1.919 . S
Zn507 O519 1.924 . S
O508 Zn507 1.949 . S
O508 Zn509 1.923 . S
O508 Zn510 1.950 . S
O508 Zn511 1.945 . S
Zn509 O508 1.923 . S
Zn509 O512 1.933 . S
Zn509 O515 1.941 . S
Zn509 O516 1.965 . S
Zn510 O508 1.950 . S
Zn510 O517 1.938 . S
Zn510 O518 1.906 . S
Zn510 O528 1.953 . S
Zn511 O508 1.945 . S
Zn511 O513 1.932 . S
Zn511 O520 1.977 . S
Zn511 O521 1.910 . S
O512 Zn509 1.933 . S
O512 C523 1.226 . S
O513 Zn511 1.932 . S
O513 C523 1.307 . S
O514 Zn507 1.919 . S
O514 C525 1.253 . S
O515 Zn509 1.941 . S
O515 C525 1.283 . S
O516 Zn509 1.965 . S
O516 C524 1.303 . S
O517 Zn510 1.938 . S
O517 C524 1.247 . S
O518 Zn510 1.906 . S
O518 C526 1.304 . S
O519 Zn507 1.924 . S
O519 C527 1.311 . S
O520 Zn511 1.977 . S
O520 C526 1.272 . S
O521 Zn511 1.910 . S
O521 C527 1.231 . S
C522 O506 1.225 . S
C522 O528 1.298 . S
C523 O512 1.226 . S
C523 O513 1.307 . S
C524 O516 1.303 . S
C524 O517 1.247 . S
C525 O514 1.253 . S
C525 O515 1.283 . S
C526 O518 1.304 . S
C526 O520 1.272 . S
C527 O519 1.311 . S
C527 O521 1.231 . S
O528 Zn510 1.953 . S
O528 C522 1.298 . S
O529 Zn530 1.953 . S
O529 C545 1.225 . S
Zn530 O529 1.953 . S
Zn530 O531 1.949 1_545 S
Zn530 O537 1.919 . S
Zn530 O542 1.924 . S
O531 Zn530 1.949 1_565 S
O531 Zn532 1.923 1_565 S
O531 Zn533 1.950 . S
O531 Zn534 1.945 . S
Zn532 O531 1.923 1_545 S
Zn532 O535 1.933 . S
Zn532 O538 1.941 . S
Zn532 O539 1.965 . S
Zn533 O531 1.950 . S
Zn533 O540 1.938 . S
Zn533 O541 1.906 . S
Zn533 O551 1.953 . S
Zn534 O531 1.945 . S
Zn534 O536 1.932 . S
Zn534 O543 1.977 . S
Zn534 O544 1.910 . S
O535 Zn532 1.933 . S
O535 C546 1.226 1_545 S
O536 Zn534 1.932 . S
O536 C546 1.307 . S
O537 Zn530 1.919 . S
O537 C548 1.253 . S
O538 Zn532 1.941 . S
O538 C548 1.283 . S
O539 Zn532 1.965 . S
O539 C547 1.303 1_545 S
O540 Zn533 1.938 . S
O540 C547 1.247 . S
O541 Zn533 1.906 . S
O541 C549 1.304 . S
O542 Zn530 1.924 . S
O542 C550 1.311 . S
O543 Zn534 1.977 . S
O543 C549 1.272 . S
O544 Zn534 1.910 . S
O544 C550 1.231 1_565 S
C545 O529 1.225 . S
C545 O551 1.298 1_545 S
C546 O535 1.226 1_565 S
C546 O536 1.307 . S
C547 O539 1.303 1_565 S
C547 O540 1.247 . S
C548 O537 1.253 . S
C548 O538 1.283 . S
C549 O541 1.304 . S
C549 O543 1.272 . S
C550 O542 1.311 . S
C550 O544 1.231 1_545 S
O551 Zn533 1.953 . S
O551 C545 1.298 1_565 S
O552 Zn553 1.953 . S
O552 C568 1.225 . S
Zn553 O552 1.953 . S
Zn553 O554 1.949 . S
Zn553 O560 1.919 . S
Zn553 O565 1.924 . S
O554 Zn553 1.949 . S
O554 Zn555 1.923 . S
O554 Zn556 1.950 . S
O554 Zn557 1.945 . S
Zn555 O554 1.923 . S
Zn555 O558 1.933 . S
Zn555 O561 1.941 . S
Zn555 O562 1.973 . S
Zn556 O554 1.950 . S
Zn556 O563 1.938 1_554 S
Zn556 O564 1.906 . S
Zn556 O574 1.953 . S
Zn557 O554 1.945 . S
Zn557 O559 1.932 . S
Zn557 O566 1.977 . S
Zn557 O567 1.910 . S
O558 Zn555 1.933 . S
O558 C569 1.226 . S
O559 Zn557 1.932 . S
O559 C569 1.307 . S
O560 Zn553 1.919 . S
O560 C571 1.253 . S
O561 Zn555 1.941 . S
O561 C571 1.283 . S
O562 Zn555 1.973 . S
O562 C570 1.298 1_554 S
O563 Zn556 1.938 1_556 S
O563 C570 1.247 . S
O564 Zn556 1.906 . S
O564 C572 1.304 . S
O565 Zn553 1.924 . S
O565 C573 1.311 . S
O566 Zn557 1.977 . S
O566 C572 1.272 . S
O567 Zn557 1.910 . S
O567 C573 1.231 . S
C568 O552 1.225 . S
C568 O574 1.298 . S
C569 O558 1.226 . S
C569 O559 1.307 . S
C570 O562 1.298 1_556 S
C570 O563 1.247 . S
C571 O560 1.253 . S
C571 O561 1.283 . S
C572 O564 1.304 . S
C572 O566 1.272 . S
C573 O565 1.311 . S
C573 O567 1.231 . S
O574 Zn556 1.953 . S
O574 C568 1.298 . S
O575 Zn576 1.953 . S
O575 C591 1.225 . S
Zn576 O575 1.953 . S
Zn576 O577 1.949 . S
Zn576 O583 1.919 . S
Zn576 O588 1.924 . S
O577 Zn576 1.949 . S
O577 Zn578 1.923 . S
O577 Zn579 1.950 . S
O577 Zn580 1.945 . S
Zn578 O577 1.923 . S
Zn578 O581 1.933 . S
Zn578 O584 1.941 . S
Zn578 O585 1.972 . S
Zn579 O577 1.950 . S
Zn579 O586 1.938 1_554 S
Zn579 O587 1.906 . S
Zn579 O597 1.953 . S
Zn580 O577 1.945 . S
Zn580 O582 1.932 . S
Zn580 O589 1.977 . S
Zn580 O590 1.910 . S
O581 Zn578 1.933 . S
O581 C592 1.226 . S
O582 Zn580 1.932 . S
O582 C592 1.307 . S
O583 Zn576 1.919 . S
O583 C594 1.253 . S
O584 Zn578 1.941 . S
O584 C594 1.283 . S
O585 Zn578 1.972 . S
O585 C593 1.298 1_554 S
O586 Zn579 1.938 1_556 S
O586 C593 1.247 . S
O587 Zn579 1.906 . S
O587 C595 1.304 . S
O588 Zn576 1.924 . S
O588 C596 1.311 . S
O589 Zn580 1.977 . S
O589 C595 1.272 . S
O590 Zn580 1.910 . S
O590 C596 1.231 . S
C591 O575 1.225 . S
C591 O597 1.298 . S
C592 O581 1.226 . S
C592 O582 1.307 . S
C593 O585 1.298 1_556 S
C593 O586 1.247 . S
C594 O583 1.253 . S
C594 O584 1.283 . S
C595 O587 1.304 . S
C595 O589 1.272 . S
C596 O588 1.311 . S
C596 O590 1.231 . S
O597 Zn579 1.953 . S
O597 C591 1.298 . S
O598 Zn599 1.953 . S
O598 C614 1.225 . S
Zn599 O598 1.953 . S
Zn599 O600 1.949 . S
Zn599 O606 1.919 . S
Zn599 O611 1.924 . S
O600 Zn599 1.949 . S
O600 Zn601 1.923 . S
O600 Zn602 1.950 . S
O600 Zn603 1.945 . S
Zn601 O600 1.923 . S
Zn601 O604 1.933 . S
Zn601 O607 1.941 . S
Zn601 O608 1.965 . S
Zn602 O600 1.950 . S
Zn602 O609 1.938 . S
Zn602 O610 1.906 . S
Zn602 O620 1.953 . S
Zn603 O600 1.945 . S
Zn603 O605 1.932 . S
Zn603 O612 1.977 . S
Zn603 O613 1.910 . S
O604 Zn601 1.933 . S
O604 C615 1.226 . S
O605 Zn603 1.932 . S
O605 C615 1.307 . S
O606 Zn599 1.919 . S
O606 C617 1.253 . S
O607 Zn601 1.941 . S
O607 C617 1.283 . S
O608 Zn601 1.965 . S
O608 C616 1.303 . S
O609 Zn602 1.938 . S
O609 C616 1.247 . S
O610 Zn602 1.906 . S
O610 C618 1.304 . S
O611 Zn599 1.924 . S
O611 C619 1.311 . S
O612 Zn603 1.977 . S
O612 C618 1.272 . S
O613 Zn603 1.910 . S
O613 C619 1.231 . S
C614 O598 1.225 . S
C614 O620 1.298 . S
C615 O604 1.226 . S
C615 O605 1.307 . S
C616 O608 1.303 . S
C616 O609 1.247 . S
C617 O606 1.253 . S
C617 O607 1.283 . S
C618 O610 1.304 . S
C618 O612 1.272 . S
C619 O611 1.311 . S
C619 O613 1.231 . S
O620 Zn602 1.953 . S
O620 C614 1.298 . S
O621 Zn622 1.953 . S
O621 C637 1.225 . S
Zn622 O621 1.953 . S
Zn622 O623 1.949 . S
Zn622 O629 1.919 . S
Zn622 O634 1.924 . S
O623 Zn622 1.949 . S
O623 Zn624 1.923 . S
O623 Zn625 1.950 . S
O623 Zn626 1.945 . S
Zn624 O623 1.923 . S
Zn624 O627 1.933 . S
Zn624 O630 1.941 . S
Zn624 O631 1.965 . S
Zn625 O623 1.950 . S
Zn625 O632 1.938 . S
Zn625 O633 1.906 . S
Zn625 O643 1.953 . S
Zn626 O623 1.945 . S
Zn626 O628 1.932 . S
Zn626 O635 1.977 . S
Zn626 O636 1.910 . S
O627 Zn624 1.933 . S
O627 C638 1.226 . S
O628 Zn626 1.932 . S
O628 C638 1.307 . S
O629 Zn622 1.919 . S
O629 C640 1.253 . S
O630 Zn624 1.941 . S
O630 C640 1.283 . S
O631 Zn624 1.965 . S
O631 C639 1.303 . S
O632 Zn625 1.938 . S
O632 C639 1.247 . S
O633 Zn625 1.906 . S
O633 C641 1.304 . S
O634 Zn622 1.924 . S
O634 C642 1.311 . S
O635 Zn626 1.977 . S
O635 C641 1.272 . S
O636 Zn626 1.910 . S
O636 C642 1.231 . S
C637 O621 1.225 . S
C637 O643 1.298 . S
C638 O627 1.226 . S
C638 O628 1.307 . S
C639 O631 1.303 . S
C639 O632 1.247 . S
C640 O629 1.253 . S
C640 O630 1.283 . S
C641 O633 1.304 . S
C641 O635 1.272 . S
C642 O634 1.311 . S
C642 O636 1.231 . S
O643 Zn625 1.953 . S
O643 C637 1.298 . S
O644 Zn645 1.953 . S
O644 C660 1.225 . S
Zn645 O644 1.953 . S
Zn645 O646 1.949 . S
Zn645 O652 1.919 . S
Zn645 O657 1.924 . S
O646 Zn645 1.949 . S
O646 Zn647 1.923 . S
O646 Zn648 1.950 . S
O646 Zn649 1.945 . S
Zn647 O646 1.923 . S
Zn647 O650 1.933 . S
Zn647 O653 1.941 . S
Zn647 O654 1.973 . S
Zn648 O646 1.950 . S
Zn648 O655 1.938 1_556 S
Zn648 O656 1.906 . S
Zn648 O666 1.953 . S
Zn649 O646 1.945 . S
Zn649 O651 1.932 . S
Zn649 O658 1.977 . S
Zn649 O659 1.910 . S
O650 Zn647 1.933 . S
O650 C661 1.226 . S
O651 Zn649 1.932 . S
O651 C661 1.307 . S
O652 Zn645 1.919 . S
O652 C663 1.253 . S
O653 Zn647 1.941 . S
O653 C663 1.283 . S
O654 Zn647 1.973 . S
O654 C662 1.298 1_556 S
O655 Zn648 1.938 1_554 S
O655 C662 1.247 . S
O656 Zn648 1.906 . S
O656 C664 1.304 . S
O657 Zn645 1.924 . S
O657 C665 1.311 . S
O658 Zn649 1.977 . S
O658 C664 1.272 . S
O659 Zn649 1.910 . S
O659 C665 1.231 . S
C660 O644 1.225 . S
C660 O666 1.298 . S
C661 O650 1.226 . S
C661 O651 1.307 . S
C662 O654 1.298 1_554 S
C662 O655 1.247 . S
C663 O652 1.253 . S
C663 O653 1.283 . S
C664 O656 1.304 . S
C664 O658 1.272 . S
C665 O657 1.311 . S
C665 O659 1.231 . S
O666 Zn648 1.953 . S
O666 C660 1.298 . S
O667 Zn668 1.953 . S
O667 C683 1.225 . S
Zn668 O667 1.953 . S
Zn668 O669 1.949 . S
Zn668 O675 1.919 . S
Zn668 O680 1.924 . S
O669 Zn668 1.949 . S
O669 Zn670 1.923 . S
O669 Zn671 1.950 . S
O669 Zn672 1.945 . S
Zn670 O669 1.923 . S
Zn670 O673 1.933 . S
Zn670 O676 1.941 . S
Zn670 O677 1.972 . S
Zn671 O669 1.950 . S
Zn671 O678 1.938 1_556 S
Zn671 O679 1.906 . S
Zn671 O689 1.953 . S
Zn672 O669 1.945 . S
Zn672 O674 1.932 . S
Zn672 O681 1.977 . S
Zn672 O682 1.910 . S
O673 Zn670 1.933 . S
O673 C684 1.226 . S
O674 Zn672 1.932 . S
O674 C684 1.307 . S
O675 Zn668 1.919 . S
O675 C686 1.253 . S
O676 Zn670 1.941 . S
O676 C686 1.283 . S
O677 Zn670 1.972 . S
O677 C685 1.298 1_556 S
O678 Zn671 1.938 1_554 S
O678 C685 1.247 . S
O679 Zn671 1.906 . S
O679 C687 1.304 . S
O680 Zn668 1.924 . S
O680 C688 1.311 . S
O681 Zn672 1.977 . S
O681 C687 1.272 . S
O682 Zn672 1.910 . S
O682 C688 1.231 . S
C683 O667 1.225 . S
C683 O689 1.298 . S
C684 O673 1.226 . S
C684 O674 1.307 . S
C685 O677 1.298 1_554 S
C685 O678 1.247 . S
C686 O675 1.253 . S
C686 O676 1.283 . S
C687 O679 1.304 . S
C687 O681 1.272 . S
C688 O680 1.311 . S
C688 O682 1.231 . S
O689 Zn671 1.953 . S
O689 C683 1.298 . S
O690 Zn691 1.953 . S
O690 C706 1.225 . S
Zn691 O690 1.953 . S
Zn691 O692 1.949 . S
Zn691 O698 1.919 . S
Zn691 O703 1.924 . S
O692 Zn691 1.949 . S
O692 Zn693 1.923 . S
O692 Zn694 1.950 . S
O692 Zn695 1.945 . S
Zn693 O692 1.923 . S
Zn693 O696 1.933 . S
Zn693 O699 1.941 . S
Zn693 O700 1.965 . S
Zn694 O692 1.950 . S
Zn694 O701 1.938 . S
Zn694 O702 1.906 . S
Zn694 O712 1.953 . S
Zn695 O692 1.945 . S
Zn695 O697 1.932 . S
Zn695 O704 1.977 . S
Zn695 O705 1.910 . S
O696 Zn693 1.933 . S
O696 C707 1.226 . S
O697 Zn695 1.932 . S
O697 C707 1.307 . S
O698 Zn691 1.919 . S
O698 C709 1.253 . S
O699 Zn693 1.941 . S
O699 C709 1.283 . S
O700 Zn693 1.965 . S
O700 C708 1.303 . S
O701 Zn694 1.938 . S
O701 C708 1.247 . S
O702 Zn694 1.906 . S
O702 C710 1.304 . S
O703 Zn691 1.924 . S
O703 C711 1.311 . S
O704 Zn695 1.977 . S
O704 C710 1.272 . S
O705 Zn695 1.910 . S
O705 C711 1.231 . S
C706 O690 1.225 . S
C706 O712 1.298 . S
C707 O696 1.226 . S
C707 O697 1.307 . S
C708 O700 1.303 . S
C708 O701 1.247 . S
C709 O698 1.253 . S
C709 O699 1.283 . S
C710 O702 1.304 . S
C710 O704 1.272 . S
C711 O703 1.311 . S
C711 O705 1.231 . S
O712 Zn694 1.953 . S
O712 C706 1.298 . S
O713 Zn714 1.953 . S
O713 C729 1.225 . S
Zn714 O713 1.953 . S
Zn714 O715 1.949 . S
Zn714 O721 1.919 . S
Zn714 O726 1.924 . S
O715 Zn714 1.949 . S
O715 Zn716 1.923 . S
O715 Zn717 1.950 . S
O715 Zn718 1.945 . S
Zn716 O715 1.923 . S
Zn716 O719 1.933 . S
Zn716 O722 1.941 . S
Zn716 O723 1.965 . S
Zn717 O715 1.950 . S
Zn717 O724 1.938 . S
Zn717 O725 1.906 . S
Zn717 O735 1.953 . S
Zn718 O715 1.945 . S
Zn718 O720 1.932 . S
Zn718 O727 1.977 . S
Zn718 O728 1.910 . S
O719 Zn716 1.933 . S
O719 C730 1.226 . S
O720 Zn718 1.932 . S
O720 C730 1.307 . S
O721 Zn714 1.919 . S
O721 C732 1.253 . S
O722 Zn716 1.941 . S
O722 C732 1.283 . S
O723 Zn716 1.965 . S
O723 C731 1.303 . S
O724 Zn717 1.938 . S
O724 C731 1.247 . S
O725 Zn717 1.906 . S
O725 C733 1.304 . S
O726 Zn714 1.924 . S
O726 C734 1.311 . S
O727 Zn718 1.977 . S
O727 C733 1.272 . S
O728 Zn718 1.910 . S
O728 C734 1.231 . S
C729 O713 1.225 . S
C729 O735 1.298 . S
C730 O719 1.226 . S
C730 O720 1.307 . S
C731 O723 1.303 . S
C731 O724 1.247 . S
C732 O721 1.253 . S
C732 O722 1.283 . S
C733 O725 1.304 . S
C733 O727 1.272 . S
C734 O726 1.311 . S
C734 O728 1.231 . S
O735 Zn717 1.953 . S
O735 C729 1.298 . S
C736 C737 1.387 . S
C736 H740 0.950 . S
C736 C745 1.390 . S
C737 C736 1.387 . S
C737 C739 1.387 . S
H738 C745 0.950 . S
C739 C737 1.387 . S
C739 C741 1.390 . S
C739 H743 0.950 . S
H740 C736 0.950 . S
C741 C739 1.390 . S
C741 C742 1.387 . S
C741 H744 0.950 . S
C742 C741 1.387 . S
C742 C745 1.387 . S
H743 C739 0.950 . S
H744 C741 0.950 . S
C745 C736 1.390 . S
C745 H738 0.950 . S
C745 C742 1.387 . S
C746 C747 1.387 . S
C746 H750 0.950 . S
C746 C755 1.390 . S
C747 C746 1.387 . S
C747 C749 1.387 . S
H748 C755 0.950 . S
C749 C747 1.387 . S
C749 C751 1.390 . S
C749 H753 0.950 . S
H750 C746 0.950 . S
C751 C749 1.390 . S
C751 C752 1.387 . S
C751 H754 0.950 . S
C752 C751 1.387 . S
C752 C755 1.387 . S
H753 C749 0.950 . S
H754 C751 0.950 . S
C755 C746 1.390 . S
C755 H748 0.950 . S
C755 C752 1.387 . S
C756 C757 1.387 . S
C756 H760 0.950 . S
C756 C765 1.390 . S
C757 C756 1.387 . S
C757 C759 1.387 . S
H758 C765 0.950 . S
C759 C757 1.387 . S
C759 C761 1.390 . S
C759 H763 0.950 . S
H760 C756 0.950 . S
C761 C759 1.390 . S
C761 C762 1.387 . S
C761 H764 0.950 . S
C762 C761 1.387 . S
C762 C765 1.387 . S
H763 C759 0.950 . S
H764 C761 0.950 . S
C765 C756 1.390 . S
C765 H758 0.950 . S
C765 C762 1.387 . S
C766 C767 1.387 . S
C766 H770 0.950 . S
C766 C775 1.390 . S
C767 C766 1.387 . S
C767 C769 1.387 . S
H768 C775 0.950 . S
C769 C767 1.387 . S
C769 C771 1.390 . S
C769 H773 0.950 . S
H770 C766 0.950 . S
C771 C769 1.390 . S
C771 C772 1.387 . S
C771 H774 0.950 . S
C772 C771 1.387 . S
C772 C775 1.387 . S
H773 C769 0.950 . S
H774 C771 0.950 . S
C775 C766 1.390 . S
C775 H768 0.950 . S
C775 C772 1.387 . S
C776 C777 1.387 . S
C776 H780 0.950 . S
C776 C785 1.390 . S
C777 C776 1.387 . S
C777 C779 1.387 . S
H778 C785 0.950 . S
C779 C777 1.387 . S
C779 C781 1.390 . S
C779 H783 0.950 . S
H780 C776 0.950 . S
C781 C779 1.390 . S
C781 C782 1.387 . S
C781 H784 0.950 . S
C782 C781 1.387 . S
C782 C785 1.387 . S
H783 C779 0.950 . S
H784 C781 0.950 . S
C785 C776 1.390 . S
C785 H778 0.950 . S
C785 C782 1.387 . S
C786 C787 1.387 . S
C786 H790 0.950 . S
C786 C795 1.390 . S
C787 C786 1.387 . S
C787 C789 1.387 . S
H788 C795 0.950 . S
C789 C787 1.387 . S
C789 C791 1.390 . S
C789 H793 0.950 . S
H790 C786 0.950 . S
C791 C789 1.390 . S
C791 C792 1.387 . S
C791 H794 0.950 . S
C792 C791 1.387 . S
C792 C795 1.387 . S
H793 C789 0.950 . S
H794 C791 0.950 . S
C795 C786 1.390 . S
C795 H788 0.950 . S
C795 C792 1.387 . S
C796 C797 1.387 . S
C796 H800 0.950 . S
C796 C805 1.390 . S
C797 C796 1.387 . S
C797 C799 1.387 . S
H798 C805 0.950 . S
C799 C797 1.387 . S
C799 C801 1.390 . S
C799 H803 0.950 . S
H800 C796 0.950 . S
C801 C799 1.390 . S
C801 C802 1.387 . S
C801 H804 0.950 . S
C802 C801 1.387 . S
C802 C805 1.387 . S
H803 C799 0.950 . S
H804 C801 0.950 . S
C805 C796 1.390 . S
C805 H798 0.950 . S
C805 C802 1.387 . S
C806 C807 1.387 . S
C806 H810 0.950 . S
C806 C815 1.390 . S
C807 C806 1.387 . S
C807 C809 1.387 . S
H808 C815 0.950 . S
C809 C807 1.387 . S
C809 C811 1.390 . S
C809 H813 0.950 . S
H810 C806 0.950 . S
C811 C809 1.390 . S
C811 C812 1.387 . S
C811 H814 0.950 . S
C812 C811 1.387 . S
C812 C815 1.387 . S
H813 C809 0.950 . S
H814 C811 0.950 . S
C815 C806 1.390 . S
C815 H808 0.950 . S
C815 C812 1.387 . S
C816 C817 1.387 . S
C816 H820 0.950 . S
C816 C825 1.390 . S
C817 C816 1.387 . S
C817 C819 1.387 . S
H818 C825 0.950 . S
C819 C817 1.387 . S
C819 C821 1.390 . S
C819 H823 0.950 . S
H820 C816 0.950 . S
C821 C819 1.390 . S
C821 C822 1.387 . S
C821 H824 0.950 . S
C822 C821 1.387 . S
C822 C825 1.387 . S
H823 C819 0.950 . S
H824 C821 0.950 . S
C825 C816 1.390 . S
C825 H818 0.950 . S
C825 C822 1.387 . S
C826 C827 1.387 . S
C826 H830 0.950 . S
C826 C835 1.390 . S
C827 C826 1.387 . S
C827 C829 1.387 . S
H828 C835 0.950 . S
C829 C827 1.387 . S
C829 C831 1.390 . S
C829 H833 0.950 . S
H830 C826 0.950 . S
C831 C829 1.390 . S
C831 C832 1.387 . S
C831 H834 0.950 . S
C832 C831 1.387 . S
C832 C835 1.387 . S
H833 C829 0.950 . S
H834 C831 0.950 . S
C835 C826 1.390 . S
C835 H828 0.950 . S
C835 C832 1.387 . S
C836 C837 1.387 . S
C836 H840 0.950 . S
C836 C845 1.390 . S
C837 C836 1.387 . S
C837 C839 1.387 . S
H838 C845 0.950 . S
C839 C837 1.387 . S
C839 C841 1.390 . S
C839 H843 0.950 . S
H840 C836 0.950 . S
C841 C839 1.390 . S
C841 C842 1.387 . S
C841 H844 0.950 . S
C842 C841 1.387 . S
C842 C845 1.387 . S
H843 C839 0.950 . S
H844 C841 0.950 . S
C845 C836 1.390 . S
C845 H838 0.950 . S
C845 C842 1.387 . S
C846 C847 1.387 . S
C846 H850 0.950 . S
C846 C855 1.390 . S
C847 C846 1.387 . S
C847 C849 1.387 . S
H848 C855 0.950 . S
C849 C847 1.387 . S
C849 C851 1.390 . S
C849 H853 0.950 . S
H850 C846 0.950 . S
C851 C849 1.390 . S
C851 C852 1.387 . S
C851 H854 0.950 . S
C852 C851 1.387 . S
C852 C855 1.387 . S
H853 C849 0.950 . S
H854 C851 0.950 . S
C855 C846 1.390 . S
C855 H848 0.950 . S
C855 C852 1.387 . S
C856 C857 1.387 . S
C856 H860 0.950 . S
C856 C865 1.390 . S
C857 C856 1.387 . S
C857 C859 1.387 . S
H858 C865 0.950 . S
C859 C857 1.387 . S
C859 C861 1.390 . S
C859 H863 0.950 . S
H860 C856 0.950 . S
C861 C859 1.390 . S
C861 C862 1.387 . S
C861 H864 0.950 . S
C862 C861 1.387 . S
C862 C865 1.387 . S
H863 C859 0.950 . S
H864 C861 0.950 . S
C865 C856 1.390 . S
C865 H858 0.950 . S
C865 C862 1.387 . S
C866 C867 1.387 . S
C866 H870 0.950 . S
C866 C875 1.390 . S
C867 C866 1.387 . S
C867 C869 1.387 . S
H868 C875 0.950 . S
C869 C867 1.387 . S
C869 C871 1.390 . S
C869 H873 0.950 . S
H870 C866 0.950 . S
C871 C869 1.390 . S
C871 C872 1.387 . S
C871 H874 0.950 . S
C872 C871 1.387 . S
C872 C875 1.387 . S
H873 C869 0.950 . S
H874 C871 0.950 . S
C875 C866 1.390 . S
C875 H868 0.950 . S
C875 C872 1.387 . S
C876 C877 1.387 . S
C876 H880 0.950 . S
C876 C885 1.390 . S
C877 C876 1.387 . S
C877 C879 1.387 . S
H878 C885 0.950 . S
C879 C877 1.387 . S
C879 C881 1.390 . S
C879 H883 0.950 . S
H880 C876 0.950 . S
C881 C879 1.390 . S
C881 C882 1.387 . S
C881 H884 0.950 . S
C882 C881 1.387 . S
C882 C885 1.387 . S
H883 C879 0.950 . S
H884 C881 0.950 . S
C885 C876 1.390 . S
C885 H878 0.950 . S
C885 C882 1.387 . S
C886 C887 1.387 . S
C886 H890 0.950 . S
C886 C895 1.390 . S
C887 C886 1.387 . S
C887 C889 1.387 . S
H888 C895 0.950 . S
C889 C887 1.387 . S
C889 C891 1.390 . S
C889 H893 0.950 . S
H890 C886 0.950 . S
C891 C889 1.390 . S
C891 C892 1.387 . S
C891 H894 0.950 . S
C892 C891 1.387 . S
C892 C895 1.387 . S
H893 C889 0.950 . S
H894 C891 0.950 . S
C895 C886 1.390 . S
C895 H888 0.950 . S
C895 C892 1.387 . S
C896 C897 1.387 . S
C896 H900 0.950 . S
C896 C905 1.390 . S
C897 C896 1.387 . S
C897 C899 1.387 1_565 S
H898 C905 0.950 . S
C899 C897 1.387 1_545 S
C899 C901 1.390 . S
C899 H903 0.950 . S
H900 C896 0.950 . S
C901 C899 1.390 . S
C901 C902 1.387 . S
C901 H904 0.950 . S
C902 C901 1.387 . S
C902 C905 1.387 1_545 S
H903 C899 0.950 . S
H904 C901 0.950 . S
C905 C896 1.390 . S
C905 H898 0.950 . S
C905 C902 1.387 1_565 S
C906 C907 1.387 . S
C906 H910 0.950 . S
C906 C915 1.390 1_455 S
C907 C906 1.387 . S
C907 C909 1.387 . S
H908 C915 0.950 . S
C909 C907 1.387 . S
C909 C911 1.390 1_455 S
C909 H913 0.950 . S
H910 C906 0.950 . S
C911 C909 1.390 1_655 S
C911 C912 1.387 . S
C911 H914 0.950 . S
C912 C911 1.387 . S
C912 C915 1.387 . S
H913 C909 0.950 . S
H914 C911 0.950 . S
C915 C906 1.390 1_655 S
C915 H908 0.950 . S
C915 C912 1.387 . S
C916 C917 1.387 1_554 S
C916 H920 0.950 . S
C916 C925 1.390 . S
C917 C916 1.387 1_556 S
C917 C919 1.387 . S
H918 C925 0.950 . S
C919 C917 1.387 . S
C919 C921 1.390 . S
C919 H923 0.950 . S
H920 C916 0.950 . S
C921 C919 1.390 . S
C921 C922 1.387 1_556 S
C921 H924 0.950 . S
C922 C921 1.387 1_554 S
C922 C925 1.387 . S
H923 C919 0.950 . S
H924 C921 0.950 . S
C925 C916 1.390 . S
C925 H918 0.950 . S
C925 C922 1.387 . S
C926 C927 1.387 1_545 S
C926 H930 0.950 . S
C926 C935 1.390 1_654 S
C927 C926 1.387 1_565 S
C927 C929 1.387 . S
H928 C935 0.950 . S
C929 C927 1.387 . S
C929 C931 1.390 1_654 S
C929 H933 0.950 . S
H930 C926 0.950 . S
C931 C929 1.390 1_456 S
C931 C932 1.387 1_565 S
C931 H934 0.950 . S
C932 C931 1.387 1_545 S
C932 C935 1.387 . S
H933 C929 0.950 . S
H934 C931 0.950 . S
C935 C926 1.390 1_456 S
C935 H928 0.950 . S
C935 C932 1.387 . S
C936 C937 1.387 . S
C936 H940 0.950 . S
C936 C945 1.390 . S
C937 C936 1.387 . S
C937 C939 1.387 1_545 S
H938 C945 0.950 . S
C939 C937 1.387 1_565 S
C939 C941 1.390 . S
C939 H943 0.950 . S
H940 C936 0.950 . S
C941 C939 1.390 . S
C941 C942 1.387 . S
C941 H944 0.950 . S
C942 C941 1.387 . S
C942 C945 1.387 1_565 S
H943 C939 0.950 . S
H944 C941 0.950 . S
C945 C936 1.390 . S
C945 H938 0.950 . S
C945 C942 1.387 1_545 S
C946 C947 1.387 . S
C946 H950 0.950 . S
C946 C955 1.390 1_455 S
C947 C946 1.387 . S
C947 C949 1.387 . S
H948 C955 0.950 . S
C949 C947 1.387 . S
C949 C951 1.390 1_455 S
C949 H953 0.950 . S
H950 C946 0.950 . S
C951 C949 1.390 1_655 S
C951 C952 1.387 . S
C951 H954 0.950 . S
C952 C951 1.387 . S
C952 C955 1.387 . S
H953 C949 0.950 . S
H954 C951 0.950 . S
C955 C946 1.390 1_655 S
C955 H948 0.950 . S
C955 C952 1.387 . S
C956 C957 1.387 . S
C956 H960 0.950 . S
C956 C965 1.390 1_556 S
C957 C956 1.387 . S
C957 C959 1.387 . S
H958 C965 0.950 . S
C959 C957 1.387 . S
C959 C961 1.390 1_556 S
C959 H963 0.950 . S
H960 C956 0.950 . S
C961 C959 1.390 1_554 S
C961 C962 1.387 . S
C961 H964 0.950 . S
C962 C961 1.387 . S
C962 C965 1.387 . S
H963 C959 0.950 . S
H964 C961 0.950 . S
C965 C956 1.390 1_554 S
C965 H958 0.950 . S
C965 C962 1.387 . S
C966 C967 1.387 . S
C966 H970 0.950 . S
C966 C975 1.390 . S
C967 C966 1.387 . S
C967 C969 1.387 . S
H968 C975 0.950 . S
C969 C967 1.387 . S
C969 C971 1.390 . S
C969 H973 0.950 . S
H970 C966 0.950 . S
C971 C969 1.390 . S
C971 C972 1.387 . S
C971 H974 0.950 . S
C972 C971 1.387 . S
C972 C975 1.387 . S
H973 C969 0.950 . S
H974 C971 0.950 . S
C975 C966 1.390 . S
C975 H968 0.950 . S
C975 C972 1.387 . S
C976 C977 1.387 . S
C976 H980 0.950 . S
C976 C985 1.390 . S
C977 C976 1.387 . S
C977 C979 1.387 . S
H978 C985 0.950 . S
C979 C977 1.387 . S
C979 C981 1.390 . S
C979 H983 0.950 . S
H980 C976 0.950 . S
C981 C979 1.390 . S
C981 C982 1.387 . S
C981 H984 0.950 . S
C982 C981 1.387 . S
C982 C985 1.387 . S
H983 C979 0.950 . S
H984 C981 0.950 . S
C985 C976 1.390 . S
C985 H978 0.950 . S
C985 C982 1.387 . S
C986 C987 1.387 . S
C986 H990 0.950 . S
C986 C995 1.390 1_455 S
C987 C986 1.387 . S
C987 C989 1.387 . S
H988 C995 0.950 . S
C989 C987 1.387 . S
C989 C991 1.390 1_455 S
C989 H993 0.950 . S
H990 C986 0.950 . S
C991 C989 1.390 1_655 S
C991 C992 1.387 . S
C991 H994 0.950 . S
C992 C991 1.387 . S
C992 C995 1.387 . S
H993 C989 0.950 . S
H994 C991 0.950 . S
C995 C986 1.390 1_655 S
C995 H988 0.950 . S
C995 C992 1.387 . S
C996 C997 1.387 . S
C996 H1000 0.950 . S
C996 C1005 1.390 . S
C997 C996 1.387 . S
C997 C999 1.387 . S
H998 C1005 0.950 . S
C999 C997 1.387 . S
C999 C1001 1.390 . S
C999 H1003 0.950 . S
H1000 C996 0.950 . S
C1001 C999 1.390 . S
C1001 C1002 1.387 . S
C1001 H1004 0.950 . S
C1002 C1001 1.387 . S
C1002 C1005 1.387 . S
H1003 C999 0.950 . S
H1004 C1001 0.950 . S
C1005 C996 1.390 . S
C1005 H998 0.950 . S
C1005 C1002 1.387 . S
C1006 C1007 1.387 . S
C1006 H1010 0.950 . S
C1006 C1015 1.390 . S
C1007 C1006 1.387 . S
C1007 C1009 1.387 . S
H1008 C1015 0.950 . S
C1009 C1007 1.387 . S
C1009 C1011 1.390 . S
C1009 H1013 0.950 . S
H1010 C1006 0.950 . S
C1011 C1009 1.390 . S
C1011 C1012 1.387 . S
C1011 H1014 0.950 . S
C1012 C1011 1.387 . S
C1012 C1015 1.387 . S
H1013 C1009 0.950 . S
H1014 C1011 0.950 . S
C1015 C1006 1.390 . S
C1015 H1008 0.950 . S
C1015 C1012 1.387 . S
C1016 C1017 1.387 . S
C1016 H1020 0.950 . S
C1016 C1025 1.390 . S
C1017 C1016 1.387 . S
C1017 C1019 1.387 . S
H1018 C1025 0.950 . S
C1019 C1017 1.387 . S
C1019 C1021 1.390 . S
C1019 H1023 0.950 . S
H1020 C1016 0.950 . S
C1021 C1019 1.390 . S
C1021 C1022 1.387 . S
C1021 H1024 0.950 . S
C1022 C1021 1.387 . S
C1022 C1025 1.387 . S
H1023 C1019 0.950 . S
H1024 C1021 0.950 . S
C1025 C1016 1.390 . S
C1025 H1018 0.950 . S
C1025 C1022 1.387 . S
C1026 C1027 1.387 . S
C1026 H1030 0.950 . S
C1026 C1035 1.390 . S
C1027 C1026 1.387 . S
C1027 C1029 1.387 1_565 S
H1028 C1035 0.950 . S
C1029 C1027 1.387 1_545 S
C1029 C1031 1.390 . S
C1029 H1033 0.950 . S
H1030 C1026 0.950 . S
C1031 C1029 1.390 . S
C1031 C1032 1.387 . S
C1031 H1034 0.950 . S
C1032 C1031 1.387 . S
C1032 C1035 1.387 1_545 S
H1033 C1029 0.950 . S
H1034 C1031 0.950 . S
C1035 C1026 1.390 . S
C1035 H1028 0.950 . S
C1035 C1032 1.387 1_565 S
C1036 C1037 1.387 . S
C1036 H1040 0.950 . S
C1036 C1045 1.390 . S
C1037 C1036 1.387 . S
C1037 C1039 1.387 . S
H1038 C1045 0.950 . S
C1039 C1037 1.387 . S
C1039 C1041 1.390 . S
C1039 H1043 0.950 . S
H1040 C1036 0.950 . S
C1041 C1039 1.390 . S
C1041 C1042 1.387 . S
C1041 H1044 0.950 . S
C1042 C1041 1.387 . S
C1042 C1045 1.387 . S
H1043 C1039 0.950 . S
H1044 C1041 0.950 . S
C1045 C1036 1.390 . S
C1045 H1038 0.950 . S
C1045 C1042 1.387 . S
C1046 C1047 1.387 . S
C1046 H1050 0.950 . S
C1046 C1055 1.390 1_554 S
C1047 C1046 1.387 . S
C1047 C1049 1.387 . S
H1048 C1055 0.950 . S
C1049 C1047 1.387 . S
C1049 C1051 1.390 1_554 S
C1049 H1053 0.950 . S
H1050 C1046 0.950 . S
C1051 C1049 1.390 1_556 S
C1051 C1052 1.387 . S
C1051 H1054 0.950 . S
C1052 C1051 1.387 . S
C1052 C1055 1.387 . S
H1053 C1049 0.950 . S
H1054 C1051 0.950 . S
C1055 C1046 1.390 1_556 S
C1055 H1048 0.950 . S
C1055 C1052 1.387 . S
C1056 C1057 1.387 1_565 S
C1056 H1060 0.950 . S
C1056 C1065 1.390 . S
C1057 C1056 1.387 1_545 S
C1057 C1059 1.387 . S
H1058 C1065 0.950 . S
C1059 C1057 1.387 . S
C1059 C1061 1.390 . S
C1059 H1063 0.950 . S
H1060 C1056 0.950 . S
C1061 C1059 1.390 . S
C1061 C1062 1.387 . S
C1061 H1064 0.950 . S
C1062 C1061 1.387 . S
C1062 C1065 1.387 1_545 S
H1063 C1059 0.950 . S
H1064 C1061 0.950 . S
C1065 C1056 1.390 . S
C1065 H1058 0.950 . S
C1065 C1062 1.387 1_565 S
C1066 C1067 1.387 . S
C1066 H1070 0.950 . S
C1066 C1075 1.390 . S
C1067 C1066 1.387 . S
C1067 C1069 1.387 . S
H1068 C1075 0.950 . S
C1069 C1067 1.387 . S
C1069 C1071 1.390 . S
C1069 H1073 0.950 . S
H1070 C1066 0.950 . S
C1071 C1069 1.390 . S
C1071 C1072 1.387 . S
C1071 H1074 0.950 . S
C1072 C1071 1.387 . S
C1072 C1075 1.387 . S
H1073 C1069 0.950 . S
H1074 C1071 0.950 . S
C1075 C1066 1.390 . S
C1075 H1068 0.950 . S
C1075 C1072 1.387 . S
C1076 C1077 1.387 . S
C1076 H1080 0.950 . S
C1076 C1085 1.390 . S
C1077 C1076 1.387 . S
C1077 C1079 1.387 . S
H1078 C1085 0.950 . S
C1079 C1077 1.387 . S
C1079 C1081 1.390 . S
C1079 H1083 0.950 . S
H1080 C1076 0.950 . S
C1081 C1079 1.390 . S
C1081 C1082 1.387 . S
C1081 H1084 0.950 . S
C1082 C1081 1.387 . S
C1082 C1085 1.387 . S
H1083 C1079 0.950 . S
H1084 C1081 0.950 . S
C1085 C1076 1.390 . S
C1085 H1078 0.950 . S
C1085 C1082 1.387 . S
C1086 C1087 1.387 . S
C1086 H1090 0.950 . S
C1086 C1095 1.390 . S
C1087 C1086 1.387 . S
C1087 C1089 1.387 1_545 S
H1088 C1095 0.950 . S
C1089 C1087 1.387 1_565 S
C1089 C1091 1.390 . S
C1089 H1093 0.950 . S
H1090 C1086 0.950 . S
C1091 C1089 1.390 . S
C1091 C1092 1.387 1_565 S
C1091 H1094 0.950 . S
C1092 C1091 1.387 1_545 S
C1092 C1095 1.387 . S
H1093 C1089 0.950 . S
H1094 C1091 0.950 . S
C1095 C1086 1.390 . S
C1095 H1088 0.950 . S
C1095 C1092 1.387 . S
C1096 C1097 1.387 . S
C1096 H1100 0.950 . S
C1096 C1105 1.390 . S
C1097 C1096 1.387 . S
C1097 C1099 1.387 1_565 S
H1098 C1105 0.950 . S
C1099 C1097 1.387 1_545 S
C1099 C1101 1.390 . S
C1099 H1103 0.950 . S
H1100 C1096 0.950 . S
C1101 C1099 1.390 . S
C1101 C1102 1.387 1_545 S
C1101 H1104 0.950 . S
C1102 C1101 1.387 1_565 S
C1102 C1105 1.387 . S
H1103 C1099 0.950 . S
H1104 C1101 0.950 . S
C1105 C1096 1.390 . S
C1105 H1098 0.950 . S
C1105 C1102 1.387 . S
C1106 C1107 1.387 . S
C1106 H1110 0.950 . S
C1106 C1115 1.390 . S
C1107 C1106 1.387 . S
C1107 C1109 1.387 . S
H1108 C1115 0.950 . S
C1109 C1107 1.387 . S
C1109 C1111 1.390 . S
C1109 H1113 0.950 . S
H1110 C1106 0.950 . S
C1111 C1109 1.390 . S
C1111 C1112 1.387 . S
C1111 H1114 0.950 . S
C1112 C1111 1.387 . S
C1112 C1115 1.387 . S
H1113 C1109 0.950 . S
H1114 C1111 0.950 . S
C1115 C1106 1.390 . S
C1115 H1108 0.950 . S
C1115 C1112 1.387 . S
C1116 C1117 1.387 . S
C1116 H1120 0.950 . S
C1116 C1125 1.390 . S
C1117 C1116 1.387 . S
C1117 C1119 1.387 . S
H1118 C1125 0.950 . S
C1119 C1117 1.387 . S
C1119 C1121 1.390 . S
C1119 H1123 0.950 . S
H1120 C1116 0.950 . S
C1121 C1119 1.390 . S
C1121 C1122 1.387 . S
C1121 H1124 0.950 . S
C1122 C1121 1.387 . S
C1122 C1125 1.387 . S
H1123 C1119 0.950 . S
H1124 C1121 0.950 . S
C1125 C1116 1.390 . S
C1125 H1118 0.950 . S
C1125 C1122 1.387 . S
C1126 C1127 1.387 1_545 S
C1126 H1130 0.950 . S
C1126 C1135 1.390 . S
C1127 C1126 1.387 1_565 S
C1127 C1129 1.387 . S
H1128 C1135 0.950 . S
C1129 C1127 1.387 . S
C1129 C1131 1.390 . S
C1129 H1133 0.950 . S
H1130 C1126 0.950 . S
C1131 C1129 1.390 . S
C1131 C1132 1.387 . S
C1131 H1134 0.950 . S
C1132 C1131 1.387 . S
C1132 C1135 1.387 1_565 S
H1133 C1129 0.950 . S
H1134 C1131 0.950 . S
C1135 C1126 1.390 . S
C1135 H1128 0.950 . S
C1135 C1132 1.387 1_545 S
C1136 C1137 1.387 . S
C1136 H1140 0.950 . S
C1136 C1145 1.390 . S
C1137 C1136 1.387 . S
C1137 C1139 1.387 . S
H1138 C1145 0.950 . S
C1139 C1137 1.387 . S
C1139 C1141 1.390 . S
C1139 H1143 0.950 . S
H1140 C1136 0.950 . S
C1141 C1139 1.390 . S
C1141 C1142 1.387 . S
C1141 H1144 0.950 . S
C1142 C1141 1.387 . S
C1142 C1145 1.387 . S
H1143 C1139 0.950 . S
H1144 C1141 0.950 . S
C1145 C1136 1.390 . S
C1145 H1138 0.950 . S
C1145 C1142 1.387 . S
C1146 C1147 1.387 . S
C1146 H1150 0.950 . S
C1146 C1155 1.390 . S
C1147 C1146 1.387 . S
C1147 C1149 1.387 . S
H1148 C1155 0.950 . S
C1149 C1147 1.387 . S
C1149 C1151 1.390 . S
C1149 H1153 0.950 . S
H1150 C1146 0.950 . S
C1151 C1149 1.390 . S
C1151 C1152 1.387 . S
C1151 H1154 0.950 . S
C1152 C1151 1.387 . S
C1152 C1155 1.387 . S
H1153 C1149 0.950 . S
H1154 C1151 0.950 . S
C1155 C1146 1.390 . S
C1155 H1148 0.950 . S
C1155 C1152 1.387 . S
C1156 C1157 1.387 . S
C1156 H1160 0.950 . S
C1156 C1165 1.390 . S
C1157 C1156 1.387 . S
C1157 C1159 1.387 . S
H1158 C1165 0.950 . S
C1159 C1157 1.387 . S
C1159 C1161 1.390 . S
C1159 H1163 0.950 . S
H1160 C1156 0.950 . S
C1161 C1159 1.390 . S
C1161 C1162 1.387 . S
C1161 H1164 0.950 . S
C1162 C1161 1.387 . S
C1162 C1165 1.387 . S
H1163 C1159 0.950 . S
H1164 C1161 0.950 . S
C1165 C1156 1.390 . S
C1165 H1158 0.950 . S
C1165 C1162 1.387 . S
C1166 C1167 1.387 . S
C1166 H1170 0.950 . S
C1166 C1175 1.390 . S
C1167 C1166 1.387 . S
C1167 C1169 1.387 . S
H1168 C1175 0.950 . S
C1169 C1167 1.387 . S
C1169 C1171 1.390 . S
C1169 H1173 0.950 . S
H1170 C1166 0.950 . S
C1171 C1169 1.390 . S
C1171 C1172 1.387 . S
C1171 H1174 0.950 . S
C1172 C1171 1.387 . S
C1172 C1175 1.387 . S
H1173 C1169 0.950 . S
H1174 C1171 0.950 . S
C1175 C1166 1.390 . S
C1175 H1168 0.950 . S
C1175 C1172 1.387 . S
C1176 C1177 1.387 . S
C1176 H1180 0.950 . S
C1176 C1185 1.390 . S
C1177 C1176 1.387 . S
C1177 C1179 1.387 . S
H1178 C1185 0.950 . S
C1179 C1177 1.387 . S
C1179 C1181 1.390 . S
C1179 H1183 0.950 . S
H1180 C1176 0.950 . S
C1181 C1179 1.390 . S
C1181 C1182 1.387 . S
C1181 H1184 0.950 . S
C1182 C1181 1.387 . S
C1182 C1185 1.387 . S
H1183 C1179 0.950 . S
H1184 C1181 0.950 . S
C1185 C1176 1.390 . S
C1185 H1178 0.950 . S
C1185 C1182 1.387 . S
C1186 C1187 1.387 . S
C1186 H1190 0.950 . S
C1186 C1195 1.390 . S
C1187 C1186 1.387 . S
C1187 C1189 1.387 . S
H1188 C1195 0.950 . S
C1189 C1187 1.387 . S
C1189 C1191 1.390 . S
C1189 H1193 0.950 . S
H1190 C1186 0.950 . S
C1191 C1189 1.390 . S
C1191 C1192 1.387 . S
C1191 H1194 0.950 . S
C1192 C1191 1.387 . S
C1192 C1195 1.387 . S
H1193 C1189 0.950 . S
H1194 C1191 0.950 . S
C1195 C1186 1.390 . S
C1195 H1188 0.950 . S
C1195 C1192 1.387 . S
C1196 C1197 1.387 . S
C1196 H1200 0.950 . S
C1196 C1205 1.390 . S
C1197 C1196 1.387 . S
C1197 C1199 1.387 . S
H1198 C1205 0.950 . S
C1199 C1197 1.387 . S
C1199 C1201 1.390 . S
C1199 H1203 0.950 . S
H1200 C1196 0.950 . S
C1201 C1199 1.390 . S
C1201 C1202 1.387 . S
C1201 H1204 0.950 . S
C1202 C1201 1.387 . S
C1202 C1205 1.387 . S
H1203 C1199 0.950 . S
H1204 C1201 0.950 . S
C1205 C1196 1.390 . S
C1205 H1198 0.950 . S
C1205 C1202 1.387 . S
C1206 C1207 1.387 . S
C1206 H1210 0.950 . S
C1206 C1215 1.390 . S
C1207 C1206 1.387 . S
C1207 C1209 1.387 . S
H1208 C1215 0.950 . S
C1209 C1207 1.387 . S
C1209 C1211 1.390 . S
C1209 H1213 0.950 . S
H1210 C1206 0.950 . S
C1211 C1209 1.390 . S
C1211 C1212 1.387 . S
C1211 H1214 0.950 . S
C1212 C1211 1.387 . S
C1212 C1215 1.387 . S
H1213 C1209 0.950 . S
H1214 C1211 0.950 . S
C1215 C1206 1.390 . S
C1215 H1208 0.950 . S
C1215 C1212 1.387 . S
C1216 C1217 1.387 . S
C1216 H1220 0.950 . S
C1216 C1225 1.390 . S
C1217 C1216 1.387 . S
C1217 C1219 1.387 . S
H1218 C1225 0.950 . S
C1219 C1217 1.387 . S
C1219 C1221 1.390 . S
C1219 H1223 0.950 . S
H1220 C1216 0.950 . S
C1221 C1219 1.390 . S
C1221 C1222 1.387 . S
C1221 H1224 0.950 . S
C1222 C1221 1.387 . S
C1222 C1225 1.387 . S
H1223 C1219 0.950 . S
H1224 C1221 0.950 . S
C1225 C1216 1.390 . S
C1225 H1218 0.950 . S
C1225 C1222 1.387 . S
C1226 C1227 1.387 . S
C1226 H1230 0.950 . S
C1226 C1235 1.390 . S
C1227 C1226 1.387 . S
C1227 C1229 1.387 . S
H1228 C1235 0.950 . S
C1229 C1227 1.387 . S
C1229 C1231 1.390 . S
C1229 H1233 0.950 . S
H1230 C1226 0.950 . S
C1231 C1229 1.390 . S
C1231 C1232 1.387 . S
C1231 H1234 0.950 . S
C1232 C1231 1.387 . S
C1232 C1235 1.387 . S
H1233 C1229 0.950 . S
H1234 C1231 0.950 . S
C1235 C1226 1.390 . S
C1235 H1228 0.950 . S
C1235 C1232 1.387 . S
C1236 C1237 1.387 . S
C1236 H1240 0.950 . S
C1236 C1245 1.390 . S
C1237 C1236 1.387 . S
C1237 C1239 1.387 . S
H1238 C1245 0.950 . S
C1239 C1237 1.387 . S
C1239 C1241 1.390 . S
C1239 H1243 0.950 . S
H1240 C1236 0.950 . S
C1241 C1239 1.390 . S
C1241 C1242 1.387 . S
C1241 H1244 0.950 . S
C1242 C1241 1.387 . S
C1242 C1245 1.387 . S
H1243 C1239 0.950 . S
H1244 C1241 0.950 . S
C1245 C1236 1.390 . S
C1245 H1238 0.950 . S
C1245 C1242 1.387 . S
C1246 C1247 1.387 . S
C1246 H1250 0.950 . S
C1246 C1255 1.390 . S
C1247 C1246 1.387 . S
C1247 C1249 1.387 . S
H1248 C1255 0.950 . S
C1249 C1247 1.387 . S
C1249 C1251 1.390 . S
C1249 H1253 0.950 . S
H1250 C1246 0.950 . S
C1251 C1249 1.390 . S
C1251 C1252 1.387 . S
C1251 H1254 0.950 . S
C1252 C1251 1.387 . S
C1252 C1255 1.387 . S
H1253 C1249 0.950 . S
H1254 C1251 0.950 . S
C1255 C1246 1.390 . S
C1255 H1248 0.950 . S
C1255 C1252 1.387 . S
C1256 C1257 1.387 . S
C1256 H1260 0.950 . S
C1256 C1265 1.390 . S
C1257 C1256 1.387 . S
C1257 C1259 1.387 . S
H1258 C1265 0.950 . S
C1259 C1257 1.387 . S
C1259 C1261 1.390 . S
C1259 H1263 0.950 . S
H1260 C1256 0.950 . S
C1261 C1259 1.390 . S
C1261 C1262 1.387 . S
C1261 H1264 0.950 . S
C1262 C1261 1.387 . S
C1262 C1265 1.387 . S
H1263 C1259 0.950 . S
H1264 C1261 0.950 . S
C1265 C1256 1.390 . S
C1265 H1258 0.950 . S
C1265 C1262 1.387 . S
C1266 C1267 1.387 . S
C1266 H1270 0.950 . S
C1266 C1275 1.390 . S
C1267 C1266 1.387 . S
C1267 C1269 1.387 . S
H1268 C1275 0.950 . S
C1269 C1267 1.387 . S
C1269 C1271 1.390 . S
C1269 H1273 0.950 . S
H1270 C1266 0.950 . S
C1271 C1269 1.390 . S
C1271 C1272 1.387 . S
C1271 H1274 0.950 . S
C1272 C1271 1.387 . S
C1272 C1275 1.387 . S
H1273 C1269 0.950 . S
H1274 C1271 0.950 . S
C1275 C1266 1.390 . S
C1275 H1268 0.950 . S
C1275 C1272 1.387 . S
C1276 C1277 1.387 . S
C1276 H1280 0.950 . S
C1276 C1285 1.390 . S
C1277 C1276 1.387 . S
C1277 C1279 1.387 . S
H1278 C1285 0.950 . S
C1279 C1277 1.387 . S
C1279 C1281 1.390 . S
C1279 H1283 0.950 . S
H1280 C1276 0.950 . S
C1281 C1279 1.390 . S
C1281 C1282 1.387 . S
C1281 H1284 0.950 . S
C1282 C1281 1.387 . S
C1282 C1285 1.387 . S
H1283 C1279 0.950 . S
H1284 C1281 0.950 . S
C1285 C1276 1.390 . S
C1285 H1278 0.950 . S
C1285 C1282 1.387 . S
C1286 C1287 1.387 . S
C1286 H1290 0.950 . S
C1286 C1295 1.390 . S
C1287 C1286 1.387 . S
C1287 C1289 1.387 . S
H1288 C1295 0.950 . S
C1289 C1287 1.387 . S
C1289 C1291 1.390 . S
C1289 H1293 0.950 . S
H1290 C1286 0.950 . S
C1291 C1289 1.390 . S
C1291 C1292 1.387 . S
C1291 H1294 0.950 . S
C1292 C1291 1.387 . S
C1292 C1295 1.387 . S
H1293 C1289 0.950 . S
H1294 C1291 0.950 . S
C1295 C1286 1.390 . S
C1295 H1288 0.950 . S
C1295 C1292 1.387 . S
C1296 C1297 1.387 . S
C1296 H1300 0.950 . S
C1296 C1305 1.390 . S
C1297 C1296 1.387 . S
C1297 C1299 1.387 . S
H1298 C1305 0.950 . S
C1299 C1297 1.387 . S
C1299 C1301 1.390 . S
C1299 H1303 0.950 . S
H1300 C1296 0.950 . S
C1301 C1299 1.390 . S
C1301 C1302 1.387 . S
C1301 H1304 0.950 . S
C1302 C1301 1.387 . S
C1302 C1305 1.387 . S
H1303 C1299 0.950 . S
H1304 C1301 0.950 . S
C1305 C1296 1.390 . S
C1305 H1298 0.950 . S
C1305 C1302 1.387 . S
C1306 C1307 1.387 . S
C1306 H1310 0.950 . S
C1306 C1315 1.390 . S
C1307 C1306 1.387 . S
C1307 C1309 1.387 . S
H1308 C1315 0.950 . S
C1309 C1307 1.387 . S
C1309 C1311 1.390 . S
C1309 H1313 0.950 . S
H1310 C1306 0.950 . S
C1311 C1309 1.390 . S
C1311 C1312 1.387 . S
C1311 H1314 0.950 . S
C1312 C1311 1.387 . S
C1312 C1315 1.387 . S
H1313 C1309 0.950 . S
H1314 C1311 0.950 . S
C1315 C1306 1.390 . S
C1315 H1308 0.950 . S
C1315 C1312 1.387 . S
C1316 C1317 1.387 . S
C1316 H1320 0.950 . S
C1316 C1325 1.390 . S
C1317 C1316 1.387 . S
C1317 C1319 1.387 . S
H1318 C1325 0.950 . S
C1319 C1317 1.387 . S
C1319 C1321 1.390 . S
C1319 H1323 0.950 . S
H1320 C1316 0.950 . S
C1321 C1319 1.390 . S
C1321 C1322 1.387 . S
C1321 H1324 0.950 . S
C1322 C1321 1.387 . S
C1322 C1325 1.387 . S
H1323 C1319 0.950 . S
H1324 C1321 0.950 . S
C1325 C1316 1.390 . S
C1325 H1318 0.950 . S
C1325 C1322 1.387 . S
C1326 C1327 1.387 . S
C1326 H1330 0.950 . S
C1326 C1335 1.390 . S
C1327 C1326 1.387 . S
C1327 C1329 1.387 . S
H1328 C1335 0.950 . S
C1329 C1327 1.387 . S
C1329 C1331 1.390 . S
C1329 H1333 0.950 . S
H1330 C1326 0.950 . S
C1331 C1329 1.390 . S
C1331 C1332 1.387 . S
C1331 H1334 0.950 . S
C1332 C1331 1.387 . S
C1332 C1335 1.387 . S
H1333 C1329 0.950 . S
H1334 C1331 0.950 . S
C1335 C1326 1.390 . S
C1335 H1328 0.950 . S
C1335 C1332 1.387 . S
C1336 C1337 1.387 . S
C1336 H1340 0.950 . S
C1336 C1345 1.390 . S
C1337 C1336 1.387 . S
C1337 C1339 1.387 . S
H1338 C1345 0.950 . S
C1339 C1337 1.387 . S
C1339 C1341 1.390 . S
C1339 H1343 0.950 . S
H1340 C1336 0.950 . S
C1341 C1339 1.390 . S
C1341 C1342 1.387 . S
C1341 H1344 0.950 . S
C1342 C1341 1.387 . S
C1342 C1345 1.387 . S
H1343 C1339 0.950 . S
H1344 C1341 0.950 . S
C1345 C1336 1.390 . S
C1345 H1338 0.950 . S
C1345 C1342 1.387 . S
C1346 C1347 1.387 . S
C1346 H1350 0.950 . S
C1346 C1355 1.390 . S
C1347 C1346 1.387 . S
C1347 C1349 1.387 . S
H1348 C1355 0.950 . S
C1349 C1347 1.387 . S
C1349 C1351 1.390 . S
C1349 H1353 0.950 . S
H1350 C1346 0.950 . S
C1351 C1349 1.390 . S
C1351 C1352 1.387 . S
C1351 H1354 0.950 . S
C1352 C1351 1.387 . S
C1352 C1355 1.387 . S
H1353 C1349 0.950 . S
H1354 C1351 0.950 . S
C1355 C1346 1.390 . S
C1355 H1348 0.950 . S
C1355 C1352 1.387 . S
C1356 C1357 1.387 . S
C1356 H1360 0.950 . S
C1356 C1365 1.390 . S
C1357 C1356 1.387 . S
C1357 C1359 1.387 . S
H1358 C1365 0.950 . S
C1359 C1357 1.387 . S
C1359 C1361 1.390 . S
C1359 H1363 0.950 . S
H1360 C1356 0.950 . S
C1361 C1359 1.390 . S
C1361 C1362 1.387 . S
C1361 H1364 0.950 . S
C1362 C1361 1.387 . S
C1362 C1365 1.387 . S
H1363 C1359 0.950 . S
H1364 C1361 0.950 . S
C1365 C1356 1.390 . S
C1365 H1358 0.950 . S
C1365 C1362 1.387 . S
C1366 C1367 1.387 . S
C1366 H1370 0.950 . S
C1366 C1375 1.390 . S
C1367 C1366 1.387 . S
C1367 C1369 1.387 . S
H1368 C1375 0.950 . S
C1369 C1367 1.387 . S
C1369 C1371 1.390 . S
C1369 H1373 0.950 . S
H1370 C1366 0.950 . S
C1371 C1369 1.390 . S
C1371 C1372 1.387 . S
C1371 H1374 0.950 . S
C1372 C1371 1.387 . S
C1372 C1375 1.387 . S
H1373 C1369 0.950 . S
H1374 C1371 0.950 . S
C1375 C1366 1.390 . S
C1375 H1368 0.950 . S
C1375 C1372 1.387 . S
C1376 C1377 1.387 1_545 S
C1376 H1380 0.950 . S
C1376 C1385 1.390 . S
C1377 C1376 1.387 1_565 S
C1377 C1379 1.387 . S
H1378 C1385 0.950 . S
C1379 C1377 1.387 . S
C1379 C1381 1.390 . S
C1379 H1383 0.950 . S
H1380 C1376 0.950 . S
C1381 C1379 1.390 . S
C1381 C1382 1.387 . S
C1381 H1384 0.950 . S
C1382 C1381 1.387 . S
C1382 C1385 1.387 1_565 S
H1383 C1379 0.950 . S
H1384 C1381 0.950 . S
C1385 C1376 1.390 . S
C1385 H1378 0.950 . S
C1385 C1382 1.387 1_545 S
C1386 C1387 1.387 . S
C1386 H1390 0.950 . S
C1386 C1395 1.390 . S
C1387 C1386 1.387 . S
C1387 C1389 1.387 . S
H1388 C1395 0.950 . S
C1389 C1387 1.387 . S
C1389 C1391 1.390 . S
C1389 H1393 0.950 . S
H1390 C1386 0.950 . S
C1391 C1389 1.390 . S
C1391 C1392 1.387 . S
C1391 H1394 0.950 . S
C1392 C1391 1.387 . S
C1392 C1395 1.387 . S
H1393 C1389 0.950 . S
H1394 C1391 0.950 . S
C1395 C1386 1.390 . S
C1395 H1388 0.950 . S
C1395 C1392 1.387 . S
C1396 C1397 1.387 . S
C1396 H1400 0.950 . S
C1396 C1405 1.390 . S
C1397 C1396 1.387 . S
C1397 C1399 1.387 . S
H1398 C1405 0.950 . S
C1399 C1397 1.387 . S
C1399 C1401 1.390 . S
C1399 H1403 0.950 . S
H1400 C1396 0.950 . S
C1401 C1399 1.390 . S
C1401 C1402 1.387 . S
C1401 H1404 0.950 . S
C1402 C1401 1.387 . S
C1402 C1405 1.387 . S
H1403 C1399 0.950 . S
H1404 C1401 0.950 . S
C1405 C1396 1.390 . S
C1405 H1398 0.950 . S
C1405 C1402 1.387 . S
C1406 C1407 1.387 . S
C1406 H1410 0.950 . S
C1406 C1415 1.390 . S
C1407 C1406 1.387 . S
C1407 C1409 1.387 1_565 S
H1408 C1415 0.950 . S
C1409 C1407 1.387 1_545 S
C1409 C1411 1.390 . S
C1409 H1413 0.950 . S
H1410 C1406 0.950 . S
C1411 C1409 1.390 . S
C1411 C1412 1.387 1_545 S
C1411 H1414 0.950 . S
C1412 C1411 1.387 1_565 S
C1412 C1415 1.387 . S
H1413 C1409 0.950 . S
H1414 C1411 0.950 . S
C1415 C1406 1.390 . S
C1415 H1408 0.950 . S
C1415 C1412 1.387 . S
C1416 C1417 1.387 . S
C1416 H1420 0.950 . S
C1416 C1425 1.390 . S
C1417 C1416 1.387 . S
C1417 C1419 1.387 1_545 S
H1418 C1425 0.950 . S
C1419 C1417 1.387 1_565 S
C1419 C1421 1.390 . S
C1419 H1423 0.950 . S
H1420 C1416 0.950 . S
C1421 C1419 1.390 . S
C1421 C1422 1.387 1_565 S
C1421 H1424 0.950 . S
C1422 C1421 1.387 1_545 S
C1422 C1425 1.387 . S
H1423 C1419 0.950 . S
H1424 C1421 0.950 . S
C1425 C1416 1.390 . S
C1425 H1418 0.950 . S
C1425 C1422 1.387 . S
C1426 C1427 1.387 . S
C1426 H1430 0.950 . S
C1426 C1435 1.390 . S
C1427 C1426 1.387 . S
C1427 C1429 1.387 . S
H1428 C1435 0.950 . S
C1429 C1427 1.387 . S
C1429 C1431 1.390 . S
C1429 H1433 0.950 . S
H1430 C1426 0.950 . S
C1431 C1429 1.390 . S
C1431 C1432 1.387 . S
C1431 H1434 0.950 . S
C1432 C1431 1.387 . S
C1432 C1435 1.387 . S
H1433 C1429 0.950 . S
H1434 C1431 0.950 . S
C1435 C1426 1.390 . S
C1435 H1428 0.950 . S
C1435 C1432 1.387 . S
C1436 C1437 1.387 . S
C1436 H1440 0.950 . S
C1436 C1445 1.390 . S
C1437 C1436 1.387 . S
C1437 C1439 1.387 . S
H1438 C1445 0.950 . S
C1439 C1437 1.387 . S
C1439 C1441 1.390 . S
C1439 H1443 0.950 . S
H1440 C1436 0.950 . S
C1441 C1439 1.390 . S
C1441 C1442 1.387 . S
C1441 H1444 0.950 . S
C1442 C1441 1.387 . S
C1442 C1445 1.387 . S
H1443 C1439 0.950 . S
H1444 C1441 0.950 . S
C1445 C1436 1.390 . S
C1445 H1438 0.950 . S
C1445 C1442 1.387 . S
C1446 C1447 1.387 1_565 S
C1446 H1450 0.950 . S
C1446 C1455 1.390 . S
C1447 C1446 1.387 1_545 S
C1447 C1449 1.387 . S
H1448 C1455 0.950 . S
C1449 C1447 1.387 . S
C1449 C1451 1.390 . S
C1449 H1453 0.950 . S
H1450 C1446 0.950 . S
C1451 C1449 1.390 . S
C1451 C1452 1.387 . S
C1451 H1454 0.950 . S
C1452 C1451 1.387 . S
C1452 C1455 1.387 1_545 S
H1453 C1449 0.950 . S
H1454 C1451 0.950 . S
C1455 C1446 1.390 . S
C1455 H1448 0.950 . S
C1455 C1452 1.387 1_565 S
C1456 C1457 1.387 . S
C1456 H1460 0.950 . S
C1456 C1465 1.390 . S
C1457 C1456 1.387 . S
C1457 C1459 1.387 . S
H1458 C1465 0.950 . S
C1459 C1457 1.387 . S
C1459 C1461 1.390 . S
C1459 H1463 0.950 . S
H1460 C1456 0.950 . S
C1461 C1459 1.390 . S
C1461 C1462 1.387 . S
C1461 H1464 0.950 . S
C1462 C1461 1.387 . S
C1462 C1465 1.387 . S
H1463 C1459 0.950 . S
H1464 C1461 0.950 . S
C1465 C1456 1.390 . S
C1465 H1458 0.950 . S
C1465 C1462 1.387 . S
C1466 C1467 1.387 . S
C1466 H1470 0.950 . S
C1466 C1475 1.390 . S
C1467 C1466 1.387 . S
C1467 C1469 1.387 . S
H1468 C1475 0.950 . S
C1469 C1467 1.387 . S
C1469 C1471 1.390 . S
C1469 H1473 0.950 . S
H1470 C1466 0.950 . S
C1471 C1469 1.390 . S
C1471 C1472 1.387 . S
C1471 H1474 0.950 . S
C1472 C1471 1.387 . S
C1472 C1475 1.387 . S
H1473 C1469 0.950 . S
H1474 C1471 0.950 . S
C1475 C1466 1.390 . S
C1475 H1468 0.950 . S
C1475 C1472 1.387 . S
C1476 C1477 1.387 . S
C1476 H1480 0.950 . S
C1476 C1485 1.390 . S
C1477 C1476 1.387 . S
C1477 C1479 1.387 . S
H1478 C1485 0.950 . S
C1479 C1477 1.387 . S
C1479 C1481 1.390 . S
C1479 H1483 0.950 . S
H1480 C1476 0.950 . S
C1481 C1479 1.390 . S
C1481 C1482 1.387 . S
C1481 H1484 0.950 . S
C1482 C1481 1.387 . S
C1482 C1485 1.387 . S
H1483 C1479 0.950 . S
H1484 C1481 0.950 . S
C1485 C1476 1.390 . S
C1485 H1478 0.950 . S
C1485 C1482 1.387 . S
C1486 C1487 1.387 . S
C1486 H1490 0.950 . S
C1486 C1495 1.390 . S
C1487 C1486 1.387 . S
C1487 C1489 1.387 . S
H1488 C1495 0.950 . S
C1489 C1487 1.387 . S
C1489 C1491 1.390 . S
C1489 H1493 0.950 . S
H1490 C1486 0.950 . S
C1491 C1489 1.390 . S
C1491 C1492 1.387 . S
C1491 H1494 0.950 . S
C1492 C1491 1.387 . S
C1492 C1495 1.387 . S
H1493 C1489 0.950 . S
H1494 C1491 0.950 . S
C1495 C1486 1.390 . S
C1495 H1488 0.950 . S
C1495 C1492 1.387 . S
C1496 C1497 1.387 . S
C1496 H1500 0.950 . S
C1496 C1505 1.390 . S
C1497 C1496 1.387 . S
C1497 C1499 1.387 . S
H1498 C1505 0.950 . S
C1499 C1497 1.387 . S
C1499 C1501 1.390 . S
C1499 H1503 0.950 . S
H1500 C1496 0.950 . S
C1501 C1499 1.390 . S
C1501 C1502 1.387 . S
C1501 H1504 0.950 . S
C1502 C1501 1.387 . S
C1502 C1505 1.387 . S
H1503 C1499 0.950 . S
H1504 C1501 0.950 . S
C1505 C1496 1.390 . S
C1505 H1498 0.950 . S
C1505 C1502 1.387 . S
C1506 C1507 1.387 . S
C1506 H1510 0.950 . S
C1506 C1515 1.390 . S
C1507 C1506 1.387 . S
C1507 C1509 1.387 . S
H1508 C1515 0.950 . S
C1509 C1507 1.387 . S
C1509 C1511 1.390 . S
C1509 H1513 0.950 . S
H1510 C1506 0.950 . S
C1511 C1509 1.390 . S
C1511 C1512 1.387 . S
C1511 H1514 0.950 . S
C1512 C1511 1.387 . S
C1512 C1515 1.387 . S
H1513 C1509 0.950 . S
H1514 C1511 0.950 . S
C1515 C1506 1.390 . S
C1515 H1508 0.950 . S
C1515 C1512 1.387 . S
C1516 C1517 1.387 . S
C1516 H1520 0.950 . S
C1516 C1525 1.390 . S
C1517 C1516 1.387 . S
C1517 C1519 1.387 . S
H1518 C1525 0.950 . S
C1519 C1517 1.387 . S
C1519 C1521 1.390 . S
C1519 H1523 0.950 . S
H1520 C1516 0.950 . S
C1521 C1519 1.390 . S
C1521 C1522 1.387 . S
C1521 H1524 0.950 . S
C1522 C1521 1.387 . S
C1522 C1525 1.387 . S
H1523 C1519 0.950 . S
H1524 C1521 0.950 . S
C1525 C1516 1.390 . S
C1525 H1518 0.950 . S
C1525 C1522 1.387 . S
C1526 C1527 1.387 . S
C1526 H1530 0.950 . S
C1526 C1535 1.390 . S
C1527 C1526 1.387 . S
C1527 C1529 1.387 . S
H1528 C1535 0.950 . S
C1529 C1527 1.387 . S
C1529 C1531 1.390 . S
C1529 H1533 0.950 . S
H1530 C1526 0.950 . S
C1531 C1529 1.390 . S
C1531 C1532 1.387 . S
C1531 H1534 0.950 . S
C1532 C1531 1.387 . S
C1532 C1535 1.387 . S
H1533 C1529 0.950 . S
H1534 C1531 0.950 . S
C1535 C1526 1.390 . S
C1535 H1528 0.950 . S
C1535 C1532 1.387 . S
C1536 C1537 1.387 . S
C1536 H1540 0.950 . S
C1536 C1545 1.390 . S
C1537 C1536 1.387 . S
C1537 C1539 1.387 1_565 S
H1538 C1545 0.950 . S
C1539 C1537 1.387 1_545 S
C1539 C1541 1.390 . S
C1539 H1543 0.950 . S
H1540 C1536 0.950 . S
C1541 C1539 1.390 . S
C1541 C1542 1.387 1_545 S
C1541 H1544 0.950 . S
C1542 C1541 1.387 1_565 S
C1542 C1545 1.387 . S
H1543 C1539 0.950 . S
H1544 C1541 0.950 . S
C1545 C1536 1.390 . S
C1545 H1538 0.950 . S
C1545 C1542 1.387 . S
C1546 C1547 1.387 . S
C1546 H1550 0.950 . S
C1546 C1555 1.390 . S
C1547 C1546 1.387 . S
C1547 C1549 1.387 . S
H1548 C1555 0.950 . S
C1549 C1547 1.387 . S
C1549 C1551 1.390 . S
C1549 H1553 0.950 . S
H1550 C1546 0.950 . S
C1551 C1549 1.390 . S
C1551 C1552 1.387 . S
C1551 H1554 0.950 . S
C1552 C1551 1.387 . S
C1552 C1555 1.387 . S
H1553 C1549 0.950 . S
H1554 C1551 0.950 . S
C1555 C1546 1.390 . S
C1555 H1548 0.950 . S
C1555 C1552 1.387 . S
C1556 C1557 1.387 . S
C1556 H1560 0.950 . S
C1556 C1565 1.390 . S
C1557 C1556 1.387 . S
C1557 C1559 1.387 . S
H1558 C1565 0.950 . S
C1559 C1557 1.387 . S
C1559 C1561 1.390 . S
C1559 H1563 0.950 . S
H1560 C1556 0.950 . S
C1561 C1559 1.390 . S
C1561 C1562 1.387 . S
C1561 H1564 0.950 . S
C1562 C1561 1.387 . S
C1562 C1565 1.387 . S
H1563 C1559 0.950 . S
H1564 C1561 0.950 . S
C1565 C1556 1.390 . S
C1565 H1558 0.950 . S
C1565 C1562 1.387 . S
C1566 C1567 1.387 . S
C1566 H1570 0.950 . S
C1566 C1575 1.390 . S
C1567 C1566 1.387 . S
C1567 C1569 1.387 1_565 S
H1568 C1575 0.950 . S
C1569 C1567 1.387 1_545 S
C1569 C1571 1.390 . S
C1569 H1573 0.950 . S
H1570 C1566 0.950 . S
C1571 C1569 1.390 . S
C1571 C1572 1.387 1_545 S
C1571 H1574 0.950 . S
C1572 C1571 1.387 1_565 S
C1572 C1575 1.387 . S
H1573 C1569 0.950 . S
H1574 C1571 0.950 . S
C1575 C1566 1.390 . S
C1575 H1568 0.950 . S
C1575 C1572 1.387 . S
C1576 C1577 1.387 1_565 S
C1576 H1580 0.950 . S
C1576 C1585 1.390 . S
C1577 C1576 1.387 1_545 S
C1577 C1579 1.387 . S
H1578 C1585 0.950 . S
C1579 C1577 1.387 . S
C1579 C1581 1.390 . S
C1579 H1583 0.950 . S
H1580 C1576 0.950 . S
C1581 C1579 1.390 . S
C1581 C1582 1.387 . S
C1581 H1584 0.950 . S
C1582 C1581 1.387 . S
C1582 C1585 1.387 1_545 S
H1583 C1579 0.950 . S
H1584 C1581 0.950 . S
C1585 C1576 1.390 . S
C1585 H1578 0.950 . S
C1585 C1582 1.387 1_565 S
C1586 C1587 1.387 . S
C1586 H1590 0.950 . S
C1586 C1595 1.390 . S
C1587 C1586 1.387 . S
C1587 C1589 1.387 . S
H1588 C1595 0.950 . S
C1589 C1587 1.387 . S
C1589 C1591 1.390 . S
C1589 H1593 0.950 . S
H1590 C1586 0.950 . S
C1591 C1589 1.390 . S
C1591 C1592 1.387 . S
C1591 H1594 0.950 . S
C1592 C1591 1.387 . S
C1592 C1595 1.387 . S
H1593 C1589 0.950 . S
H1594 C1591 0.950 . S
C1595 C1586 1.390 . S
C1595 H1588 0.950 . S
C1595 C1592 1.387 . S
C1596 C1597 1.387 . S
C1596 H1600 0.950 . S
C1596 C1605 1.390 . S
C1597 C1596 1.387 . S
C1597 C1599 1.387 . S
H1598 C1605 0.950 . S
C1599 C1597 1.387 . S
C1599 C1601 1.390 . S
C1599 H1603 0.950 . S
H1600 C1596 0.950 . S
C1601 C1599 1.390 . S
C1601 C1602 1.387 . S
C1601 H1604 0.950 . S
C1602 C1601 1.387 . S
C1602 C1605 1.387 . S
H1603 C1599 0.950 . S
H1604 C1601 0.950 . S
C1605 C1596 1.390 . S
C1605 H1598 0.950 . S
C1605 C1602 1.387 . S
C1606 C1607 1.387 . S
C1606 H1610 0.950 . S
C1606 C1615 1.390 . S
C1607 C1606 1.387 . S
C1607 C1609 1.387 1_545 S
H1608 C1615 0.950 . S
C1609 C1607 1.387 1_565 S
C1609 C1611 1.390 . S
C1609 H1613 0.950 . S
H1610 C1606 0.950 . S
C1611 C1609 1.390 . S
C1611 C1612 1.387 1_565 S
C1611 H1614 0.950 . S
C1612 C1611 1.387 1_545 S
C1612 C1615 1.387 . S
H1613 C1609 0.950 . S
H1614 C1611 0.950 . S
C1615 C1606 1.390 . S
C1615 H1608 0.950 . S
C1615 C1612 1.387 . S
C1616 C1617 1.387 . S
C1616 H1620 0.950 . S
C1616 C1625 1.390 . S
C1617 C1616 1.387 . S
C1617 C1619 1.387 . S
H1618 C1625 0.950 . S
C1619 C1617 1.387 . S
C1619 C1621 1.390 . S
C1619 H1623 0.950 . S
H1620 C1616 0.950 . S
C1621 C1619 1.390 . S
C1621 C1622 1.387 . S
C1621 H1624 0.950 . S
C1622 C1621 1.387 . S
C1622 C1625 1.387 . S
H1623 C1619 0.950 . S
H1624 C1621 0.950 . S
C1625 C1616 1.390 . S
C1625 H1618 0.950 . S
C1625 C1622 1.387 . S
C1626 C1627 1.387 . S
C1626 H1630 0.950 . S
C1626 C1635 1.390 . S
C1627 C1626 1.387 . S
C1627 C1629 1.387 . S
H1628 C1635 0.950 . S
C1629 C1627 1.387 . S
C1629 C1631 1.390 . S
C1629 H1633 0.950 . S
H1630 C1626 0.950 . S
C1631 C1629 1.390 . S
C1631 C1632 1.387 . S
C1631 H1634 0.950 . S
C1632 C1631 1.387 . S
C1632 C1635 1.387 . S
H1633 C1629 0.950 . S
H1634 C1631 0.950 . S
C1635 C1626 1.390 . S
C1635 H1628 0.950 . S
C1635 C1632 1.387 . S
C1636 C1637 1.387 . S
C1636 H1640 0.950 . S
C1636 C1645 1.390 . S
C1637 C1636 1.387 . S
C1637 C1639 1.387 . S
H1638 C1645 0.950 . S
C1639 C1637 1.387 . S
C1639 C1641 1.390 . S
C1639 H1643 0.950 . S
H1640 C1636 0.950 . S
C1641 C1639 1.390 . S
C1641 C1642 1.387 . S
C1641 H1644 0.950 . S
C1642 C1641 1.387 . S
C1642 C1645 1.387 . S
H1643 C1639 0.950 . S
H1644 C1641 0.950 . S
C1645 C1636 1.390 . S
C1645 H1638 0.950 . S
C1645 C1642 1.387 . S
C1646 C1647 1.387 . S
C1646 H1650 0.950 . S
C1646 C1655 1.390 . S
C1647 C1646 1.387 . S
C1647 C1649 1.387 . S
H1648 C1655 0.950 . S
C1649 C1647 1.387 . S
C1649 C1651 1.390 . S
C1649 H1653 0.950 . S
H1650 C1646 0.950 . S
C1651 C1649 1.390 . S
C1651 C1652 1.387 . S
C1651 H1654 0.950 . S
C1652 C1651 1.387 . S
C1652 C1655 1.387 . S
H1653 C1649 0.950 . S
H1654 C1651 0.950 . S
C1655 C1646 1.390 . S
C1655 H1648 0.950 . S
C1655 C1652 1.387 . S
C1656 C1657 1.387 . S
C1656 H1660 0.950 . S
C1656 C1665 1.390 . S
C1657 C1656 1.387 . S
C1657 C1659 1.387 . S
H1658 C1665 0.950 . S
C1659 C1657 1.387 . S
C1659 C1661 1.390 . S
C1659 H1663 0.950 . S
H1660 C1656 0.950 . S
C1661 C1659 1.390 . S
C1661 C1662 1.387 . S
C1661 H1664 0.950 . S
C1662 C1661 1.387 . S
C1662 C1665 1.387 . S
H1663 C1659 0.950 . S
H1664 C1661 0.950 . S
C1665 C1656 1.390 . S
C1665 H1658 0.950 . S
C1665 C1662 1.387 . S
C1666 C1667 1.387 . S
C1666 H1670 0.950 . S
C1666 C1675 1.390 . S
C1667 C1666 1.387 . S
C1667 C1669 1.387 . S
H1668 C1675 0.950 . S
C1669 C1667 1.387 . S
C1669 C1671 1.390 . S
C1669 H1673 0.950 . S
H1670 C1666 0.950 . S
C1671 C1669 1.390 . S
C1671 C1672 1.387 . S
C1671 H1674 0.950 . S
C1672 C1671 1.387 . S
C1672 C1675 1.387 . S
H1673 C1669 0.950 . S
H1674 C1671 0.950 . S
C1675 C1666 1.390 . S
C1675 H1668 0.950 . S
C1675 C1672 1.387 . S
C1676 C1677 1.387 . S
C1676 H1680 0.950 . S
C1676 C1685 1.390 . S
C1677 C1676 1.387 . S
C1677 C1679 1.387 . S
H1678 C1685 0.950 . S
C1679 C1677 1.387 . S
C1679 C1681 1.390 . S
C1679 H1683 0.950 . S
H1680 C1676 0.950 . S
C1681 C1679 1.390 . S
C1681 C1682 1.387 . S
C1681 H1684 0.950 . S
C1682 C1681 1.387 . S
C1682 C1685 1.387 . S
H1683 C1679 0.950 . S
H1684 C1681 0.950 . S
C1685 C1676 1.390 . S
C1685 H1678 0.950 . S
C1685 C1682 1.387 . S
C1686 C1687 1.387 . S
C1686 H1690 0.950 . S
C1686 C1695 1.390 . S
C1687 C1686 1.387 . S
C1687 C1689 1.387 . S
H1688 C1695 0.950 . S
C1689 C1687 1.387 . S
C1689 C1691 1.390 . S
C1689 H1693 0.950 . S
H1690 C1686 0.950 . S
C1691 C1689 1.390 . S
C1691 C1692 1.387 . S
C1691 H1694 0.950 . S
C1692 C1691 1.387 . S
C1692 C1695 1.387 . S
H1693 C1689 0.950 . S
H1694 C1691 0.950 . S
C1695 C1686 1.390 . S
C1695 H1688 0.950 . S
C1695 C1692 1.387 . S
C737 C594 1.632 . S
C742 C19 1.632 . S
C747 C571 1.631 . S
C752 C42 1.631 . S
C757 C640 1.631 . S
C762 C65 1.631 . S
C767 C617 1.632 . S
C772 C88 1.632 . S
C777 C111 1.632 . S
C782 C686 1.632 . S
C787 C134 1.632 . S
C792 C663 1.632 . S
C797 C157 1.631 . S
C802 C732 1.631 . S
C807 C709 1.632 . S
C812 C180 1.632 . S
C817 C410 1.632 . S
C822 C203 1.632 . S
C827 C387 1.631 . S
C832 C226 1.631 . S
C837 C456 1.632 . S
C842 C249 1.632 . S
C847 C433 1.631 . S
C852 C272 1.631 . S
C857 C295 1.631 . S
C862 C502 1.631 . S
C867 C479 1.631 . S
C872 C318 1.631 . S
C877 C341 1.632 . S
C882 C548 1.632 . S
C887 C525 1.632 . S
C892 C364 1.632 . S
C897 C21 1.270 . S
C902 C481 1.270 . S
C907 C320 1.268 . S
C912 C44 1.268 . S
C917 C711 1.269 . S
C922 C67 1.269 . S
C927 C90 1.268 . S
C932 C182 1.268 . S
C937 C113 1.268 . S
C942 C389 1.268 . S
C947 C136 1.270 . S
C952 C228 1.270 . S
C957 C159 1.268 . S
C962 C619 1.268 . S
C967 C665 1.268 . S
C972 C205 1.268 . S
C977 C527 1.268 . S
C982 C251 1.268 . S
C987 C366 1.270 . S
C992 C274 1.270 . S
C997 C573 1.268 . S
C1002 C297 1.268 . S
C1007 C343 1.270 . S
C1012 C435 1.270 . S
C1017 C688 1.270 . S
C1022 C412 1.270 . S
C1027 C458 1.270 . S
C1032 C550 1.270 . S
C1037 C596 1.268 . S
C1042 C504 1.268 . S
C1047 C642 1.270 . S
C1052 C734 1.270 . S
C1057 C18 1.314 . S
C1062 C455 1.314 . S
C1067 C41 1.313 . S
C1072 C432 1.313 . S
C1077 C64 1.313 . S
C1082 C409 1.313 . S
C1087 C87 1.313 . S
C1092 C386 1.313 . S
C1097 C110 1.314 . S
C1102 C547 1.314 . S
C1107 C133 1.314 . S
C1112 C524 1.314 . S
C1117 C156 1.314 . S
C1122 C501 1.314 . S
C1127 C179 1.313 . S
C1132 C478 1.313 . S
C1137 C202 1.313 . S
C1142 C639 1.313 . S
C1147 C225 1.313 . S
C1152 C616 1.313 . S
C1157 C248 1.313 . S
C1162 C593 1.313 . S
C1167 C271 1.314 . S
C1172 C570 1.314 . S
C1177 C731 1.313 . S
C1182 C294 1.313 . S
C1187 C708 1.313 . S
C1192 C317 1.313 . S
C1197 C685 1.313 . S
C1202 C340 1.313 . S
C1207 C662 1.313 . S
C1212 C363 1.313 . S
C1217 C66 1.321 . S
C1222 C20 1.321 . S
C1227 C89 1.321 . S
C1232 C43 1.321 . S
C1237 C158 1.323 . S
C1242 C112 1.322 . S
C1247 C135 1.321 . S
C1252 C181 1.321 . S
C1257 C250 1.321 . S
C1262 C204 1.321 . S
C1267 C227 1.321 . S
C1272 C273 1.321 . S
C1277 C342 1.322 . S
C1282 C296 1.322 . S
C1287 C319 1.321 . S
C1292 C365 1.321 . S
C1297 C388 1.321 . S
C1302 C434 1.321 . S
C1307 C411 1.321 . S
C1312 C457 1.321 . S
C1317 C526 1.322 . S
C1322 C480 1.322 . S
C1327 C503 1.322 . S
C1332 C549 1.322 . S
C1337 C572 1.321 . S
C1342 C618 1.321 . S
C1347 C641 1.321 . S
C1352 C595 1.321 . S
C1357 C664 1.321 . S
C1362 C710 1.321 . S
C1367 C687 1.321 . S
C1372 C733 1.321 . S
C1377 C16 1.614 1_556 S
C1382 C178 1.615 . S
C1387 C707 1.615 . S
C1392 C39 1.614 1_456 S
C1397 C62 1.614 . S
C1402 C316 1.615 . S
C1407 C85 1.614 1_455 S
C1412 C477 1.615 . S
C1417 C86 1.615 . S
C1422 C108 1.614 1_554 S
C1427 C131 1.614 1_654 S
C1432 C615 1.615 . S
C1437 C224 1.615 . S
C1442 C154 1.614 . S
C1447 C385 1.615 . S
C1452 C177 1.614 1_655 S
C1457 C200 1.614 . S
C1462 C362 1.615 . S
C1467 C523 1.615 . S
C1472 C223 1.614 1_455 S
C1477 C246 1.614 . S
C1482 C132 1.615 . S
C1487 C661 1.615 . S
C1492 C269 1.614 1_455 S
C1497 C292 1.614 . S
C1502 C270 1.615 . S
C1507 C315 1.614 1_655 S
C1512 C431 1.615 . S
C1517 C338 1.614 . S
C1522 C40 1.615 . S
C1527 C569 1.615 . S
C1532 C361 1.614 1_655 S
C1537 C384 1.614 . S
C1542 C546 1.615 . S
C1547 C407 1.614 . S
C1552 C339 1.615 . S
C1557 C430 1.614 . S
C1562 C684 1.615 . S
C1567 C453 1.614 . S
C1572 C109 1.615 . S
C1577 C476 1.614 . S
C1582 C454 1.615 . S
C1587 C247 1.615 . S
C1592 C499 1.614 . S
C1597 C592 1.615 . S
C1602 C522 1.614 . S
C1607 C545 1.614 . S
C1612 C17 1.615 . S
C1617 C730 1.615 . S
C1622 C568 1.614 1_556 S
C1627 C155 1.615 . S
C1632 C591 1.614 1_556 S
C1637 C500 1.615 . S
C1642 C614 1.614 . S
C1647 C637 1.614 . S
C1652 C293 1.615 . S
C1657 C638 1.615 . S
C1662 C660 1.614 1_554 S
C1667 C63 1.615 . S
C1672 C683 1.614 1_554 S
C1677 C408 1.615 . S
C1682 C706 1.614 . S
C1687 C729 1.614 . S
C1692 C201 1.615 . S
