# Generated by pormake.
# Topology umq, (4)-cn, num edge types: 1
# Building blocks:
#     Node 0, Type 0, BuildingBlock: CEKHIL_clean_sbu_0, # of connection points: 4
#     Node 1, Type 0, BuildingBlock: CEKHIL_clean_sbu_0, # of connection points: 4
#     Node 2, Type 0, BuildingBlock: CEKHIL_clean_sbu_0, # of connection points: 4
#     Node 3, Type 0, BuildingBlock: CEKHIL_clean_sbu_0, # of connection points: 4
#     Node 4, Type 0, BuildingBlock: CEKHIL_clean_sbu_0, # of connection points: 4
#     Node 5, Type 0, BuildingBlock: CEKHIL_clean_sbu_0, # of connection points: 4
#     Node 6, Type 0, BuildingBlock: CEKHIL_clean_sbu_0, # of connection points: 4
#     Node 7, Type 0, BuildingBlock: CEKHIL_clean_sbu_0, # of connection points: 4
#     Node 8, Type 0, BuildingBlock: CEKHIL_clean_sbu_0, # of connection points: 4
#     Node 9, Type 0, BuildingBlock: CEKHIL_clean_sbu_0, # of connection points: 4
#     Node 10, Type 0, BuildingBlock: CEKHIL_clean_sbu_0, # of connection points: 4
#     Node 11, Type 0, BuildingBlock: CEKHIL_clean_sbu_0, # of connection points: 4
#     Node 12, Type 0, BuildingBlock: CEKHIL_clean_sbu_0, # of connection points: 4
#     Node 13, Type 0, BuildingBlock: CEKHIL_clean_sbu_0, # of connection points: 4
#     Node 14, Type 0, BuildingBlock: CEKHIL_clean_sbu_0, # of connection points: 4
#     Node 15, Type 0, BuildingBlock: CEKHIL_clean_sbu_0, # of connection points: 4
#     Node 16, Type 0, BuildingBlock: CEKHIL_clean_sbu_0, # of connection points: 4
#     Node 17, Type 0, BuildingBlock: CEKHIL_clean_sbu_0, # of connection points: 4
#     Node 18, Type 0, BuildingBlock: CEKHIL_clean_sbu_0, # of connection points: 4
#     Node 19, Type 0, BuildingBlock: CEKHIL_clean_sbu_0, # of connection points: 4
#     Node 20, Type 0, BuildingBlock: CEKHIL_clean_sbu_0, # of connection points: 4
#     Node 21, Type 0, BuildingBlock: CEKHIL_clean_sbu_0, # of connection points: 4
#     Node 22, Type 0, BuildingBlock: CEKHIL_clean_sbu_0, # of connection points: 4
#     Node 23, Type 0, BuildingBlock: CEKHIL_clean_sbu_0, # of connection points: 4
#     Node 24, Type 0, BuildingBlock: CEKHIL_clean_sbu_0, # of connection points: 4
#     Node 25, Type 0, BuildingBlock: CEKHIL_clean_sbu_0, # of connection points: 4
#     Node 26, Type 0, BuildingBlock: CEKHIL_clean_sbu_0, # of connection points: 4
#     Node 27, Type 0, BuildingBlock: CEKHIL_clean_sbu_0, # of connection points: 4
#     Node 28, Type 0, BuildingBlock: CEKHIL_clean_sbu_0, # of connection points: 4
#     Node 29, Type 0, BuildingBlock: CEKHIL_clean_sbu_0, # of connection points: 4
#     Node 30, Type 0, BuildingBlock: CEKHIL_clean_sbu_0, # of connection points: 4
#     Node 31, Type 0, BuildingBlock: CEKHIL_clean_sbu_0, # of connection points: 4
#     Edge 32, Type (0, 0), BuildingBlock: EZIPEK_clean_linker_0, # of connection points: 2
#     Edge 33, Type (0, 0), BuildingBlock: EZIPEK_clean_linker_0, # of connection points: 2
#     Edge 34, Type (0, 0), BuildingBlock: EZIPEK_clean_linker_0, # of connection points: 2
#     Edge 35, Type (0, 0), BuildingBlock: EZIPEK_clean_linker_0, # of connection points: 2
#     Edge 36, Type (0, 0), BuildingBlock: EZIPEK_clean_linker_0, # of connection points: 2
#     Edge 37, Type (0, 0), BuildingBlock: EZIPEK_clean_linker_0, # of connection points: 2
#     Edge 38, Type (0, 0), BuildingBlock: EZIPEK_clean_linker_0, # of connection points: 2
#     Edge 39, Type (0, 0), BuildingBlock: EZIPEK_clean_linker_0, # of connection points: 2
#     Edge 40, Type (0, 0), BuildingBlock: EZIPEK_clean_linker_0, # of connection points: 2
#     Edge 41, Type (0, 0), BuildingBlock: EZIPEK_clean_linker_0, # of connection points: 2
#     Edge 42, Type (0, 0), BuildingBlock: EZIPEK_clean_linker_0, # of connection points: 2
#     Edge 43, Type (0, 0), BuildingBlock: EZIPEK_clean_linker_0, # of connection points: 2
#     Edge 44, Type (0, 0), BuildingBlock: EZIPEK_clean_linker_0, # of connection points: 2
#     Edge 45, Type (0, 0), BuildingBlock: EZIPEK_clean_linker_0, # of connection points: 2
#     Edge 46, Type (0, 0), BuildingBlock: EZIPEK_clean_linker_0, # of connection points: 2
#     Edge 47, Type (0, 0), BuildingBlock: EZIPEK_clean_linker_0, # of connection points: 2
#     Edge 48, Type (0, 0), BuildingBlock: EZIPEK_clean_linker_0, # of connection points: 2
#     Edge 49, Type (0, 0), BuildingBlock: EZIPEK_clean_linker_0, # of connection points: 2
#     Edge 50, Type (0, 0), BuildingBlock: EZIPEK_clean_linker_0, # of connection points: 2
#     Edge 51, Type (0, 0), BuildingBlock: EZIPEK_clean_linker_0, # of connection points: 2
#     Edge 52, Type (0, 0), BuildingBlock: EZIPEK_clean_linker_0, # of connection points: 2
#     Edge 53, Type (0, 0), BuildingBlock: EZIPEK_clean_linker_0, # of connection points: 2
#     Edge 54, Type (0, 0), BuildingBlock: EZIPEK_clean_linker_0, # of connection points: 2
#     Edge 55, Type (0, 0), BuildingBlock: EZIPEK_clean_linker_0, # of connection points: 2
#     Edge 56, Type (0, 0), BuildingBlock: EZIPEK_clean_linker_0, # of connection points: 2
#     Edge 57, Type (0, 0), BuildingBlock: EZIPEK_clean_linker_0, # of connection points: 2
#     Edge 58, Type (0, 0), BuildingBlock: EZIPEK_clean_linker_0, # of connection points: 2
#     Edge 59, Type (0, 0), BuildingBlock: EZIPEK_clean_linker_0, # of connection points: 2
#     Edge 60, Type (0, 0), BuildingBlock: EZIPEK_clean_linker_0, # of connection points: 2
#     Edge 61, Type (0, 0), BuildingBlock: EZIPEK_clean_linker_0, # of connection points: 2
#     Edge 62, Type (0, 0), BuildingBlock: EZIPEK_clean_linker_0, # of connection points: 2
#     Edge 63, Type (0, 0), BuildingBlock: EZIPEK_clean_linker_0, # of connection points: 2
#     Edge 64, Type (0, 0), BuildingBlock: EZIPEK_clean_linker_0, # of connection points: 2
#     Edge 65, Type (0, 0), BuildingBlock: EZIPEK_clean_linker_0, # of connection points: 2
#     Edge 66, Type (0, 0), BuildingBlock: EZIPEK_clean_linker_0, # of connection points: 2
#     Edge 67, Type (0, 0), BuildingBlock: EZIPEK_clean_linker_0, # of connection points: 2
#     Edge 68, Type (0, 0), BuildingBlock: EZIPEK_clean_linker_0, # of connection points: 2
#     Edge 69, Type (0, 0), BuildingBlock: EZIPEK_clean_linker_0, # of connection points: 2
#     Edge 70, Type (0, 0), BuildingBlock: EZIPEK_clean_linker_0, # of connection points: 2
#     Edge 71, Type (0, 0), BuildingBlock: EZIPEK_clean_linker_0, # of connection points: 2
#     Edge 72, Type (0, 0), BuildingBlock: EZIPEK_clean_linker_0, # of connection points: 2
#     Edge 73, Type (0, 0), BuildingBlock: EZIPEK_clean_linker_0, # of connection points: 2
#     Edge 74, Type (0, 0), BuildingBlock: EZIPEK_clean_linker_0, # of connection points: 2
#     Edge 75, Type (0, 0), BuildingBlock: EZIPEK_clean_linker_0, # of connection points: 2
#     Edge 76, Type (0, 0), BuildingBlock: EZIPEK_clean_linker_0, # of connection points: 2
#     Edge 77, Type (0, 0), BuildingBlock: EZIPEK_clean_linker_0, # of connection points: 2
#     Edge 78, Type (0, 0), BuildingBlock: EZIPEK_clean_linker_0, # of connection points: 2
#     Edge 79, Type (0, 0), BuildingBlock: EZIPEK_clean_linker_0, # of connection points: 2
#     Edge 80, Type (0, 0), BuildingBlock: EZIPEK_clean_linker_0, # of connection points: 2
#     Edge 81, Type (0, 0), BuildingBlock: EZIPEK_clean_linker_0, # of connection points: 2
#     Edge 82, Type (0, 0), BuildingBlock: EZIPEK_clean_linker_0, # of connection points: 2
#     Edge 83, Type (0, 0), BuildingBlock: EZIPEK_clean_linker_0, # of connection points: 2
#     Edge 84, Type (0, 0), BuildingBlock: EZIPEK_clean_linker_0, # of connection points: 2
#     Edge 85, Type (0, 0), BuildingBlock: EZIPEK_clean_linker_0, # of connection points: 2
#     Edge 86, Type (0, 0), BuildingBlock: EZIPEK_clean_linker_0, # of connection points: 2
#     Edge 87, Type (0, 0), BuildingBlock: EZIPEK_clean_linker_0, # of connection points: 2
#     Edge 88, Type (0, 0), BuildingBlock: EZIPEK_clean_linker_0, # of connection points: 2
#     Edge 89, Type (0, 0), BuildingBlock: EZIPEK_clean_linker_0, # of connection points: 2
#     Edge 90, Type (0, 0), BuildingBlock: EZIPEK_clean_linker_0, # of connection points: 2
#     Edge 91, Type (0, 0), BuildingBlock: EZIPEK_clean_linker_0, # of connection points: 2
#     Edge 92, Type (0, 0), BuildingBlock: EZIPEK_clean_linker_0, # of connection points: 2
#     Edge 93, Type (0, 0), BuildingBlock: EZIPEK_clean_linker_0, # of connection points: 2
#     Edge 94, Type (0, 0), BuildingBlock: EZIPEK_clean_linker_0, # of connection points: 2
#     Edge 95, Type (0, 0), BuildingBlock: EZIPEK_clean_linker_0, # of connection points: 2
# Relax obj value: 0.076
# Max RMSD: 0.061
# Mean RMSD: 0.061
data_MOF--net-umq--node1-CEKHIL_clean_sbu_0--edge1-EZIPEK_clean_linker_0
_symmetry_space_group_name_H-M    P1
_symmetry_Int_Tables_number       1
_symmetry_cell_setting            triclinic
loop_
_symmetry_equiv_pos_as_xyz
'x, y, z'
_cell_length_a     48.168468
_cell_length_b     48.16895
_cell_length_c     32.022116
_cell_angle_alpha  89.969169
_cell_angle_beta   90.015341
_cell_angle_gamma 89.99743
loop_
_atom_site_label
_atom_site_type_symbol
_atom_site_fract_x
_atom_site_fract_y
_atom_site_fract_z
_atom_type_partial_charge
Co0 Co 0.24349 0.09555 0.16495 0.0
O1 O 0.22226 0.06238 0.17843 0.0
O2 O 0.25882 0.07669 0.21378 0.0
C3 C 0.24698 0.08658 0.09533 0.0
O4 O 0.27182 0.1276 0.15921 0.0
Co5 Co 0.21993 0.1405 0.10486 0.0
O6 O 0.25688 0.15811 0.11074 0.0
C7 C 0.19979 0.13848 0.19167 0.0
C8 C 0.23989 0.05776 0.20826 0.0
C9 C 0.27501 0.14983 0.13693 0.0
O10 O 0.21804 0.11971 0.20087 0.0
O11 O 0.19585 0.14762 0.15463 0.0
O12 O 0.2635 0.07464 0.12184 0.0
O13 O 0.2275 0.10135 0.11189 0.0
Co14 Co 0.91445 0.24372 0.16707 0.0
O15 O 0.94716 0.22166 0.18012 0.0
O16 O 0.93367 0.25833 0.21594 0.0
C17 C 0.92349 0.24711 0.09725 0.0
O18 O 0.88313 0.27283 0.16223 0.0
Co19 Co 0.86864 0.22236 0.10627 0.0
O20 O 0.85341 0.26046 0.11109 0.0
C21 C 0.87073 0.20075 0.19266 0.0
C22 C 0.9522 0.23908 0.21008 0.0
C23 C 0.86165 0.27745 0.13894 0.0
O24 O 0.88972 0.2186 0.20257 0.0
O25 O 0.86169 0.19749 0.15538 0.0
O26 O 0.93583 0.26324 0.12386 0.0
O27 O 0.90795 0.22831 0.11394 0.0
Co28 Co 0.76544 0.91476 0.16564 0.0
O29 O 0.78696 0.94763 0.17955 0.0
O30 O 0.74981 0.93377 0.21397 0.0
C31 C 0.76276 0.92334 0.09595 0.0
O32 O 0.73654 0.88341 0.15937 0.0
Co33 Co 0.78887 0.86896 0.1075 0.0
O34 O 0.75218 0.85096 0.11466 0.0
C35 C 0.80895 0.87194 0.19386 0.0
C36 C 0.76911 0.95238 0.20903 0.0
C37 C 0.73349 0.86046 0.13891 0.0
O38 O 0.7903 0.89045 0.2024 0.0
O39 O 0.81333 0.86265 0.15708 0.0
O40 O 0.74612 0.93569 0.12187 0.0
O41 O 0.78193 0.90841 0.11307 0.0
Co42 Co 0.09486 0.76701 0.16652 0.0
O43 O 0.06221 0.78923 0.17928 0.0
O44 O 0.07525 0.75224 0.21487 0.0
C45 C 0.08653 0.76378 0.09655 0.0
O46 O 0.1258 0.73746 0.16169 0.0
Co47 Co 0.14145 0.78884 0.10786 0.0
O48 O 0.15699 0.75092 0.11339 0.0
C49 C 0.13845 0.80998 0.19397 0.0
C50 C 0.05689 0.77165 0.20896 0.0
C51 C 0.14794 0.73325 0.13971 0.0
O52 O 0.11942 0.7919 0.20283 0.0
O53 O 0.14814 0.81355 0.15718 0.0
O54 O 0.07366 0.74785 0.12289 0.0
O55 O 0.10197 0.78257 0.1136 0.0
Co56 Co 0.24485 0.91496 0.34425 0.0
O57 O 0.22324 0.94808 0.33177 0.0
O58 O 0.25962 0.93432 0.29555 0.0
C59 C 0.24862 0.92341 0.41414 0.0
O60 O 0.27352 0.88312 0.34853 0.0
Co61 Co 0.22267 0.86913 0.40401 0.0
O62 O 0.25993 0.85225 0.39737 0.0
C63 C 0.20134 0.87186 0.31773 0.0
C64 C 0.24058 0.95304 0.30169 0.0
C65 C 0.27738 0.86082 0.37038 0.0
O66 O 0.21931 0.89086 0.30836 0.0
O67 O 0.19796 0.86241 0.35473 0.0
O68 O 0.2649 0.9357 0.38764 0.0
O69 O 0.22934 0.90846 0.39745 0.0
Co70 Co 0.09522 0.24382 0.34523 0.0
O71 O 0.0622 0.22212 0.33276 0.0
O72 O 0.07548 0.25899 0.29716 0.0
C73 C 0.08751 0.24707 0.41509 0.0
O74 O 0.12668 0.27283 0.35006 0.0
Co75 Co 0.14175 0.22077 0.40244 0.0
O76 O 0.15943 0.25755 0.39465 0.0
C77 C 0.13788 0.20027 0.31638 0.0
C78 C 0.05697 0.23971 0.30309 0.0
C79 C 0.14975 0.27606 0.37022 0.0
O80 O 0.11908 0.21872 0.3082 0.0
O81 O 0.14772 0.19618 0.35294 0.0
O82 O 0.07482 0.26346 0.38918 0.0
O83 O 0.10225 0.22777 0.39793 0.0
Co84 Co 0.76545 0.09518 0.34491 0.0
O85 O 0.78582 0.06095 0.33472 0.0
O86 O 0.75044 0.07547 0.29683 0.0
C87 C 0.76095 0.08863 0.41505 0.0
O88 O 0.73818 0.1282 0.34586 0.0
Co89 Co 0.78781 0.14188 0.40259 0.0
O90 O 0.75009 0.15795 0.39693 0.0
C91 C 0.80918 0.13741 0.3162 0.0
C92 C 0.7688 0.05627 0.30407 0.0
C93 C 0.73351 0.14997 0.36836 0.0
O94 O 0.79216 0.11729 0.30831 0.0
O95 O 0.81173 0.14858 0.35226 0.0
O96 O 0.74409 0.07655 0.38912 0.0
O97 O 0.78089 0.10249 0.39803 0.0
Co98 Co 0.91434 0.76626 0.34457 0.0
O99 O 0.9471 0.78815 0.33155 0.0
O100 O 0.93356 0.75144 0.29581 0.0
C101 C 0.9231 0.76266 0.41408 0.0
O102 O 0.88292 0.73729 0.34997 0.0
Co103 Co 0.86871 0.78885 0.40405 0.0
O104 O 0.85112 0.75204 0.39654 0.0
C105 C 0.8709 0.80943 0.31763 0.0
C106 C 0.95209 0.77073 0.30162 0.0
C107 C 0.86028 0.73387 0.37114 0.0
O108 O 0.8899 0.79142 0.30855 0.0
O109 O 0.8615 0.81312 0.35454 0.0
O110 O 0.93539 0.74639 0.38761 0.0
O111 O 0.90807 0.78201 0.39763 0.0
Co112 Co 0.76822 0.91675 0.84507 0.0
O113 O 0.79006 0.94994 0.83364 0.0
O114 O 0.75433 0.93622 0.79594 0.0
C115 C 0.76353 0.92491 0.91486 0.0
O116 O 0.73905 0.8851 0.84759 0.0
Co117 Co 0.78763 0.86993 0.90451 0.0
O118 O 0.74951 0.85556 0.89975 0.0
C119 C 0.80925 0.8712 0.81777 0.0
C120 C 0.7733 0.95488 0.80275 0.0
C121 C 0.7334 0.86381 0.87084 0.0
O122 O 0.79477 0.89325 0.81017 0.0
O123 O 0.80888 0.85911 0.85335 0.0
O124 O 0.74766 0.93732 0.88789 0.0
O125 O 0.78279 0.90964 0.89872 0.0
Co126 Co 0.09554 0.7662 0.84533 0.0
O127 O 0.06273 0.78806 0.83234 0.0
O128 O 0.0764 0.75147 0.79646 0.0
C129 C 0.08677 0.76259 0.91512 0.0
O130 O 0.1272 0.73743 0.8501 0.0
Co131 Co 0.14119 0.78851 0.90525 0.0
O132 O 0.15813 0.75128 0.89868 0.0
C133 C 0.13904 0.80919 0.81862 0.0
C134 C 0.05787 0.77076 0.80218 0.0
C135 C 0.14954 0.73371 0.87189 0.0
O136 O 0.11992 0.79135 0.80946 0.0
O137 O 0.14839 0.81281 0.85563 0.0
O138 O 0.07447 0.74637 0.88858 0.0
O139 O 0.10187 0.78181 0.89851 0.0
Co140 Co 0.2424 0.09357 0.84402 0.0
O141 O 0.22046 0.0605 0.83292 0.0
O142 O 0.25654 0.07387 0.79549 0.0
C143 C 0.24672 0.08583 0.91404 0.0
O144 O 0.27119 0.12521 0.84607 0.0
Co145 Co 0.22226 0.14066 0.903 0.0
O146 O 0.26055 0.15528 0.89746 0.0
C147 C 0.20036 0.13781 0.81667 0.0
C148 C 0.23744 0.05536 0.80241 0.0
C149 C 0.27674 0.14665 0.86883 0.0
O150 O 0.21674 0.1173 0.80815 0.0
O151 O 0.19827 0.14863 0.85305 0.0
O152 O 0.2626 0.07313 0.88745 0.0
O153 O 0.22761 0.10106 0.89738 0.0
Co154 Co 0.91597 0.24333 0.84589 0.0
O155 O 0.9497 0.22271 0.83367 0.0
O156 O 0.93551 0.25941 0.79837 0.0
C157 C 0.92302 0.24631 0.9159 0.0
O158 O 0.88355 0.27137 0.85061 0.0
Co159 Co 0.86966 0.21839 0.90139 0.0
O160 O 0.85095 0.25466 0.89423 0.0
C161 C 0.87407 0.19964 0.81445 0.0
C162 C 0.95447 0.24054 0.80415 0.0
C163 C 0.86024 0.27371 0.87043 0.0
O164 O 0.89343 0.21776 0.8079 0.0
O165 O 0.86338 0.19529 0.85039 0.0
O166 O 0.93539 0.26325 0.89045 0.0
O167 O 0.90902 0.22665 0.89821 0.0
Co168 Co 0.76604 0.09716 0.66597 0.0
O169 O 0.78834 0.06404 0.67589 0.0
O170 O 0.75313 0.07716 0.71516 0.0
C171 C 0.76046 0.08974 0.59614 0.0
O172 O 0.73686 0.12845 0.66605 0.0
Co173 Co 0.78459 0.14428 0.60611 0.0
O174 O 0.74747 0.16063 0.6177 0.0
C175 C 0.81083 0.13948 0.68878 0.0
C176 C 0.77214 0.05873 0.70731 0.0
C177 C 0.73139 0.15094 0.64574 0.0
O178 O 0.79257 0.12123 0.70023 0.0
O179 O 0.81338 0.14784 0.65103 0.0
O180 O 0.74462 0.07711 0.62296 0.0
O181 O 0.77991 0.1047 0.61203 0.0
Co182 Co 0.91607 0.76705 0.66441 0.0
O183 O 0.94948 0.78853 0.67572 0.0
O184 O 0.93528 0.75303 0.71361 0.0
C185 C 0.92444 0.7622 0.59477 0.0
O186 O 0.88414 0.73822 0.662 0.0
Co187 Co 0.86955 0.78661 0.60473 0.0
O188 O 0.85536 0.74838 0.60878 0.0
C189 C 0.87087 0.80853 0.69131 0.0
C190 C 0.95418 0.77173 0.70664 0.0
C191 C 0.86319 0.73245 0.63818 0.0
O192 O 0.89283 0.79396 0.69903 0.0
O193 O 0.85875 0.80807 0.65575 0.0
O194 O 0.9365 0.74618 0.62188 0.0
O195 O 0.90924 0.78161 0.61069 0.0
Co196 Co 0.24361 0.91387 0.66535 0.0
O197 O 0.22089 0.94609 0.67815 0.0
O198 O 0.25795 0.93343 0.71395 0.0
C199 C 0.24698 0.9224 0.59549 0.0
O200 O 0.27349 0.88329 0.66051 0.0
Co201 Co 0.22228 0.86718 0.60659 0.0
O202 O 0.26032 0.85195 0.61225 0.0
C203 C 0.20097 0.86999 0.69257 0.0
C204 C 0.23821 0.95145 0.70813 0.0
C205 C 0.2779 0.86117 0.63857 0.0
O206 O 0.21897 0.88906 0.70143 0.0
O207 O 0.19747 0.86026 0.65579 0.0
O208 O 0.26266 0.93541 0.62201 0.0
O209 O 0.22828 0.90673 0.61231 0.0
Co210 Co 0.09605 0.24464 0.66624 0.0
O211 O 0.06327 0.22293 0.6799 0.0
O212 O 0.07713 0.25983 0.71494 0.0
C213 C 0.08703 0.24762 0.59642 0.0
O214 O 0.1276 0.2734 0.66048 0.0
Co215 Co 0.14146 0.22182 0.60591 0.0
O216 O 0.15748 0.25959 0.61042 0.0
C217 C 0.13927 0.2014 0.69283 0.0
C218 C 0.05851 0.24058 0.70964 0.0
C219 C 0.14932 0.27723 0.6374 0.0
O220 O 0.12063 0.2197 0.70224 0.0
O221 O 0.14816 0.19744 0.65563 0.0
O222 O 0.07473 0.26398 0.62276 0.0
O223 O 0.10231 0.22872 0.61342 0.0
Co224 Co 0.74543 0.59504 0.66477 0.0
O225 O 0.72445 0.56165 0.67804 0.0
O226 O 0.76067 0.57631 0.71366 0.0
C227 C 0.74881 0.58637 0.59503 0.0
O228 O 0.77389 0.6269 0.65958 0.0
Co229 Co 0.72257 0.64052 0.60506 0.0
O230 O 0.75932 0.65836 0.61234 0.0
C231 C 0.70183 0.63807 0.69148 0.0
C232 C 0.74201 0.55714 0.70805 0.0
C233 C 0.77731 0.64947 0.63828 0.0
O234 O 0.7199 0.61913 0.70074 0.0
O235 O 0.69822 0.64746 0.65452 0.0
O236 O 0.76542 0.5743 0.62135 0.0
O237 O 0.72947 0.6012 0.61178 0.0
Co238 Co 0.41665 0.7443 0.66255 0.0
O239 O 0.44964 0.7227 0.67579 0.0
O240 O 0.43619 0.7599 0.71045 0.0
C241 C 0.42443 0.74687 0.59268 0.0
O242 O 0.3853 0.77328 0.65694 0.0
Co243 Co 0.37016 0.72094 0.60539 0.0
O244 O 0.3521 0.75749 0.6136 0.0
C245 C 0.37399 0.70095 0.69171 0.0
C246 C 0.4547 0.74054 0.70518 0.0
C247 C 0.36199 0.77626 0.63738 0.0
O248 O 0.39262 0.71957 0.69988 0.0
O249 O 0.3644 0.69653 0.65511 0.0
O250 O 0.43717 0.7635 0.61819 0.0
O251 O 0.40966 0.72778 0.61025 0.0
Co252 Co 0.26669 0.41596 0.66287 0.0
O253 O 0.28809 0.44919 0.67505 0.0
O254 O 0.25121 0.43574 0.71056 0.0
C255 C 0.26359 0.42324 0.59296 0.0
O256 O 0.23793 0.38422 0.65822 0.0
Co257 Co 0.29027 0.36921 0.60692 0.0
O258 O 0.25346 0.35151 0.61384 0.0
C259 C 0.30972 0.37317 0.69361 0.0
C260 C 0.27043 0.45431 0.70465 0.0
C261 C 0.23482 0.36114 0.63806 0.0
O262 O 0.2919 0.39274 0.70055 0.0
O263 O 0.31371 0.36254 0.65753 0.0
O264 O 0.24701 0.43593 0.61858 0.0
O265 O 0.28301 0.40876 0.61041 0.0
Co266 Co 0.59373 0.26789 0.66577 0.0
O267 O 0.55998 0.28916 0.67563 0.0
O268 O 0.57346 0.25344 0.71368 0.0
C269 C 0.58759 0.26348 0.59551 0.0
O270 O 0.62595 0.23977 0.66541 0.0
Co271 Co 0.64151 0.28862 0.60861 0.0
O272 O 0.65617 0.2503 0.61428 0.0
C273 C 0.63679 0.31066 0.69461 0.0
C274 C 0.55477 0.2723 0.7063 0.0
C275 C 0.64757 0.23421 0.64309 0.0
O276 O 0.61634 0.29404 0.7025 0.0
O277 O 0.64822 0.3128 0.65868 0.0
O278 O 0.57481 0.24701 0.62129 0.0
O279 O 0.60189 0.28301 0.61273 0.0
Co280 Co 0.74482 0.41381 0.84405 0.0
O281 O 0.72445 0.44751 0.83049 0.0
O282 O 0.76007 0.43186 0.79453 0.0
C283 C 0.74887 0.42309 0.91358 0.0
O284 O 0.77245 0.38114 0.84968 0.0
Co285 Co 0.72083 0.36968 0.90513 0.0
O286 O 0.7575 0.35145 0.89924 0.0
C287 C 0.69998 0.37171 0.81865 0.0
C288 C 0.74181 0.45144 0.80009 0.0
C289 C 0.77549 0.3591 0.87242 0.0
O290 O 0.71854 0.39004 0.80887 0.0
O291 O 0.69612 0.36294 0.85592 0.0
O292 O 0.76557 0.4345 0.88676 0.0
O293 O 0.72907 0.40862 0.89734 0.0
Co294 Co 0.59689 0.74466 0.84234 0.0
O295 O 0.56395 0.72289 0.82936 0.0
O296 O 0.57736 0.7599 0.79416 0.0
C297 C 0.58885 0.74751 0.91225 0.0
O298 O 0.62812 0.77386 0.84742 0.0
Co299 Co 0.64343 0.72211 0.90002 0.0
O300 O 0.66073 0.75912 0.89262 0.0
C301 C 0.63959 0.70107 0.81421 0.0
C302 C 0.55887 0.74057 0.79972 0.0
C303 C 0.65101 0.77742 0.86787 0.0
O304 O 0.62102 0.71966 0.80553 0.0
O305 O 0.64921 0.69711 0.85093 0.0
O306 O 0.5762 0.76399 0.88639 0.0
O307 O 0.60385 0.72849 0.89498 0.0
Co308 Co 0.26741 0.59627 0.84135 0.0
O309 O 0.28917 0.56343 0.82819 0.0
O310 O 0.25246 0.57727 0.7926 0.0
C311 C 0.26388 0.58751 0.9111 0.0
O312 O 0.2385 0.62768 0.84652 0.0
Co313 Co 0.28992 0.64196 0.90136 0.0
O314 O 0.25273 0.65887 0.89443 0.0
C315 C 0.31074 0.63957 0.81495 0.0
C316 C 0.27162 0.55862 0.7983 0.0
C317 C 0.23491 0.65006 0.86817 0.0
O318 O 0.29262 0.62073 0.80556 0.0
O319 O 0.31435 0.6489 0.85194 0.0
O320 O 0.24775 0.57509 0.88457 0.0
O321 O 0.28298 0.6027 0.8944 0.0
Co322 Co 0.41285 0.26594 0.8433 0.0
O323 O 0.44561 0.2885 0.8323 0.0
O324 O 0.43271 0.25255 0.79436 0.0
C325 C 0.42078 0.26156 0.91322 0.0
O326 O 0.38201 0.23634 0.84451 0.0
Co327 Co 0.3657 0.28439 0.90308 0.0
O328 O 0.35046 0.24652 0.89394 0.0
C329 C 0.36968 0.30968 0.81942 0.0
C330 C 0.45095 0.27188 0.8014 0.0
C331 C 0.36009 0.23043 0.86588 0.0
O332 O 0.38832 0.29171 0.80843 0.0
O333 O 0.36105 0.31227 0.85704 0.0
O334 O 0.43343 0.24548 0.88677 0.0
O335 O 0.40535 0.28049 0.89683 0.0
Co336 Co 0.2664 0.41487 0.34198 0.0
O337 O 0.28824 0.44764 0.32849 0.0
O338 O 0.25145 0.43387 0.29312 0.0
C339 C 0.26323 0.4239 0.41171 0.0
O340 O 0.23745 0.38344 0.34743 0.0
Co341 Co 0.28861 0.36929 0.40269 0.0
O342 O 0.25079 0.3535 0.39773 0.0
C343 C 0.30937 0.37121 0.31599 0.0
C344 C 0.27068 0.45248 0.29862 0.0
C345 C 0.23336 0.36173 0.37047 0.0
O346 O 0.29148 0.39022 0.30637 0.0
O347 O 0.31284 0.36197 0.3531 0.0
O348 O 0.24698 0.43624 0.38523 0.0
O349 O 0.28211 0.40851 0.39493 0.0
Co350 Co 0.59554 0.26691 0.34405 0.0
O351 O 0.56113 0.28695 0.3336 0.0
O352 O 0.57602 0.25166 0.29592 0.0
C353 C 0.58892 0.26247 0.41416 0.0
O354 O 0.62876 0.23999 0.34516 0.0
Co355 Co 0.64196 0.28943 0.40199 0.0
O356 O 0.65771 0.25149 0.39744 0.0
C357 C 0.6376 0.31077 0.31553 0.0
C358 C 0.55664 0.26987 0.30299 0.0
C359 C 0.65018 0.23513 0.3683 0.0
O360 O 0.61755 0.2937 0.30748 0.0
O361 O 0.6487 0.31333 0.35164 0.0
O362 O 0.57713 0.24535 0.38831 0.0
O363 O 0.60258 0.28253 0.39714 0.0
Co364 Co 0.74359 0.59481 0.34387 0.0
O365 O 0.72137 0.56214 0.33135 0.0
O366 O 0.75793 0.57545 0.29502 0.0
C367 C 0.74752 0.58614 0.41373 0.0
O368 O 0.77281 0.62604 0.3482 0.0
Co369 Co 0.72201 0.6409 0.40372 0.0
O370 O 0.75988 0.65649 0.39795 0.0
C371 C 0.70066 0.6386 0.31747 0.0
C372 C 0.73861 0.55704 0.30117 0.0
C373 C 0.77713 0.64795 0.37066 0.0
O374 O 0.71836 0.61936 0.30822 0.0
O375 O 0.69752 0.64833 0.35434 0.0
O376 O 0.76333 0.57356 0.38695 0.0
O377 O 0.72849 0.60153 0.39719 0.0
Co378 Co 0.41481 0.74249 0.34162 0.0
O379 O 0.44739 0.72019 0.32891 0.0
O380 O 0.43425 0.75696 0.29287 0.0
C381 C 0.42345 0.74608 0.41143 0.0
O382 O 0.3837 0.77181 0.34634 0.0
Co383 Co 0.36869 0.7207 0.40151 0.0
O384 O 0.35218 0.75802 0.39409 0.0
C385 C 0.37098 0.69973 0.31516 0.0
C386 C 0.45259 0.73753 0.29889 0.0
C387 C 0.36124 0.77567 0.36775 0.0
O388 O 0.39014 0.71752 0.30583 0.0
O389 O 0.36151 0.69631 0.35212 0.0
O390 O 0.43612 0.762 0.38486 0.0
O391 O 0.40804 0.72714 0.39476 0.0
Co392 Co 0.26561 0.59495 0.16219 0.0
O393 O 0.28739 0.56201 0.17492 0.0
O394 O 0.25026 0.57515 0.21003 0.0
C395 C 0.26287 0.58738 0.09231 0.0
O396 O 0.2365 0.62624 0.15708 0.0
Co397 Co 0.28864 0.64173 0.10536 0.0
O398 O 0.25205 0.65966 0.1139 0.0
C399 C 0.30901 0.63751 0.19141 0.0
C400 C 0.26968 0.55676 0.20442 0.0
C401 C 0.23338 0.64962 0.13771 0.0
O402 O 0.29041 0.61886 0.19955 0.0
O403 O 0.31329 0.64728 0.15488 0.0
O404 O 0.24633 0.57455 0.11786 0.0
O405 O 0.28197 0.60218 0.10982 0.0
Co406 Co 0.41498 0.2658 0.16441 0.0
O407 O 0.44803 0.28724 0.17779 0.0
O408 O 0.43416 0.25031 0.21275 0.0
C409 C 0.42306 0.26276 0.09448 0.0
O410 O 0.38334 0.2371 0.15882 0.0
Co411 Co 0.36906 0.28966 0.10632 0.0
O412 O 0.35088 0.25315 0.11432 0.0
C413 C 0.37246 0.30958 0.19273 0.0
C414 C 0.45281 0.26953 0.2075 0.0
C415 C 0.36021 0.23439 0.13867 0.0
O416 O 0.39096 0.29088 0.20116 0.0
O417 O 0.36307 0.31404 0.15601 0.0
O418 O 0.43564 0.2463 0.12044 0.0
O419 O 0.40835 0.28201 0.11175 0.0
Co420 Co 0.74368 0.41507 0.16454 0.0
O421 O 0.72144 0.4477 0.17708 0.0
O422 O 0.75807 0.43445 0.21335 0.0
C423 C 0.74754 0.42364 0.09472 0.0
O424 O 0.7729 0.38386 0.1601 0.0
Co425 Co 0.72205 0.36892 0.10471 0.0
O426 O 0.75951 0.3526 0.11172 0.0
C427 C 0.70067 0.37147 0.19093 0.0
C428 C 0.73869 0.45283 0.20724 0.0
C429 C 0.77696 0.36157 0.13841 0.0
O430 O 0.71857 0.39051 0.20031 0.0
O431 O 0.6973 0.36206 0.15391 0.0
O432 O 0.76337 0.43631 0.1214 0.0
O433 O 0.72851 0.40828 0.11129 0.0
Co434 Co 0.59533 0.74256 0.16385 0.0
O435 O 0.56276 0.72013 0.17619 0.0
O436 O 0.57545 0.75709 0.21208 0.0
C437 C 0.58739 0.74593 0.09377 0.0
O438 O 0.6262 0.77215 0.15953 0.0
Co439 Co 0.64228 0.72097 0.10555 0.0
O440 O 0.65765 0.75895 0.1114 0.0
C441 C 0.63896 0.69982 0.19169 0.0
C442 C 0.55727 0.73755 0.20598 0.0
C443 C 0.64844 0.77646 0.13782 0.0
O444 O 0.61985 0.71781 0.20039 0.0
O445 O 0.6489 0.69634 0.15504 0.0
O446 O 0.57428 0.76175 0.11998 0.0
O447 O 0.60277 0.72715 0.11096 0.0
C448 C 0.33645 0.19433 0.10302 0.0
C449 C 0.34369 0.20796 0.14094 0.0
C450 C 0.30856 0.18007 0.17832 0.0
C451 C 0.30099 0.16691 0.1402 0.0
N452 N 0.31158 0.15734 0.06807 0.0
N453 N 0.34145 0.20883 0.21624 0.0
C454 C 0.31628 0.17272 0.10322 0.0
C455 C 0.33148 0.19902 0.17914 0.0
N456 N 0.34825 0.20275 0.06628 0.0
N457 N 0.29262 0.17612 0.21315 0.0
H458 H 0.35766 0.22303 0.2183 0.0
H459 H 0.33545 0.20101 0.24517 0.0
H460 H 0.27581 0.16252 0.2141 0.0
H461 H 0.29465 0.18781 0.2403 0.0
H462 H 0.34117 0.19684 0.0369 0.0
H463 H 0.36455 0.2169 0.0649 0.0
H464 H 0.32425 0.15774 0.04176 0.0
H465 H 0.29598 0.14249 0.06619 0.0
C466 C 0.84269 0.32176 0.10929 0.0
C467 C 0.84502 0.30349 0.1439 0.0
C468 C 0.80821 0.32967 0.18025 0.0
C469 C 0.80317 0.34515 0.14316 0.0
N470 N 0.81554 0.35625 0.07216 0.0
N471 N 0.82968 0.28915 0.21219 0.0
C472 C 0.82068 0.3415 0.10782 0.0
C473 C 0.82811 0.30758 0.17977 0.0
N474 N 0.86179 0.32019 0.07782 0.0
N475 N 0.79351 0.3356 0.21565 0.0
H476 H 0.84428 0.2732 0.21342 0.0
H477 H 0.81562 0.28854 0.23683 0.0
H478 H 0.77789 0.35055 0.2167 0.0
H479 H 0.79804 0.32722 0.24482 0.0
H480 H 0.86329 0.33445 0.05351 0.0
H481 H 0.87778 0.30566 0.07794 0.0
H482 H 0.82502 0.35228 0.04361 0.0
H483 H 0.8006 0.37184 0.07051 0.0
C484 C 0.67013 0.81825 0.10471 0.0
C485 C 0.66435 0.80312 0.14169 0.0
C486 C 0.69745 0.83289 0.17996 0.0
C487 C 0.70685 0.84427 0.14138 0.0
N488 N 0.70161 0.84791 0.06643 0.0
N489 N 0.67203 0.79618 0.21535 0.0
C490 C 0.69277 0.83722 0.1037 0.0
C491 C 0.67742 0.81089 0.17978 0.0
N492 N 0.65356 0.81467 0.07049 0.0
N493 N 0.70784 0.84271 0.21682 0.0
H494 H 0.65649 0.78124 0.21728 0.0
H495 H 0.68375 0.79778 0.24255 0.0
H496 H 0.72314 0.85788 0.21861 0.0
H497 H 0.69973 0.83751 0.24592 0.0
H498 H 0.65432 0.82729 0.04411 0.0
H499 H 0.63708 0.80068 0.07014 0.0
H500 H 0.69496 0.84065 0.03749 0.0
H501 H 0.71683 0.86314 0.06411 0.0
C502 C 0.19272 0.67354 0.10334 0.0
C503 C 0.20665 0.66564 0.14077 0.0
C504 C 0.17661 0.69775 0.18055 0.0
C505 C 0.16377 0.70644 0.14269 0.0
N506 N 0.15335 0.69631 0.07089 0.0
N507 N 0.20731 0.66546 0.21625 0.0
C508 C 0.16987 0.69221 0.10507 0.0
C509 C 0.19693 0.676 0.17982 0.0
N510 N 0.20192 0.66401 0.06561 0.0
N511 N 0.17063 0.71132 0.21688 0.0
H512 H 0.22289 0.65054 0.2174 0.0
H513 H 0.19903 0.66984 0.24552 0.0
H514 H 0.15459 0.72566 0.21946 0.0
H515 H 0.18215 0.70921 0.2442 0.0
H516 H 0.19564 0.67238 0.03718 0.0
H517 H 0.21713 0.64881 0.06251 0.0
H518 H 0.15452 0.6844 0.04382 0.0
H519 H 0.13654 0.70991 0.07118 0.0
C520 C 0.30838 0.82872 0.32811 0.0
C521 C 0.30334 0.84393 0.36545 0.0
C522 C 0.34112 0.81848 0.40061 0.0
C523 C 0.34514 0.80218 0.36411 0.0
N524 N 0.33678 0.79507 0.29071 0.0
N525 N 0.31763 0.85687 0.43474 0.0
C526 C 0.3303 0.8086 0.32693 0.0
C527 C 0.32077 0.83998 0.4008 0.0
N528 N 0.29097 0.8321 0.29475 0.0
N529 N 0.35623 0.8126 0.4357 0.0
H530 H 0.302 0.87168 0.43661 0.0
H531 H 0.33115 0.85756 0.46003 0.0
H532 H 0.37218 0.79802 0.43605 0.0
H533 H 0.35278 0.82137 0.46487 0.0
H534 H 0.29094 0.81936 0.26855 0.0
H535 H 0.27529 0.847 0.29398 0.0
H536 H 0.32891 0.80051 0.26158 0.0
H537 H 0.35167 0.77943 0.28907 0.0
C538 C 0.19139 0.3401 0.40319 0.0
C539 C 0.20721 0.34508 0.36661 0.0
C540 C 0.178 0.31132 0.3288 0.0
C541 C 0.16589 0.3027 0.36727 0.0
N542 N 0.16196 0.30878 0.44204 0.0
N543 N 0.21679 0.33414 0.29454 0.0
C544 C 0.17263 0.3173 0.40462 0.0
C545 C 0.20051 0.33074 0.32912 0.0
N546 N 0.19418 0.35745 0.43667 0.0
N547 N 0.16842 0.30071 0.29197 0.0
H548 H 0.23316 0.34824 0.29317 0.0
H549 H 0.21536 0.32163 0.26813 0.0
H550 H 0.15244 0.28624 0.29025 0.0
H551 H 0.17449 0.3082 0.26286 0.0
H552 H 0.18106 0.35707 0.46251 0.0
H553 H 0.20799 0.37408 0.43675 0.0
H554 H 0.16907 0.31596 0.47078 0.0
H555 H 0.14714 0.29318 0.44474 0.0
C556 C 0.68219 0.16237 0.36406 0.0
C557 C 0.71047 0.1695 0.35731 0.0
C558 C 0.69737 0.21835 0.34677 0.0
C559 C 0.66953 0.21182 0.35786 0.0
N560 N 0.63385 0.1773 0.36676 0.0
N561 N 0.74374 0.20194 0.32983 0.0
C562 C 0.66139 0.18364 0.36298 0.0
C563 C 0.71761 0.19684 0.34472 0.0
N564 N 0.67547 0.13545 0.37274 0.0
N565 N 0.70453 0.24536 0.33901 0.0
H566 H 0.7589 0.18654 0.32774 0.0
H567 H 0.7499 0.22057 0.31626 0.0
H568 H 0.68994 0.26127 0.3364 0.0
H569 H 0.72488 0.25236 0.33631 0.0
H570 H 0.65611 0.12895 0.38327 0.0
H571 H 0.68969 0.1193 0.36964 0.0
H572 H 0.62602 0.1572 0.36771 0.0
H573 H 0.61829 0.1923 0.366 0.0
C574 C 0.80929 0.67949 0.32915 0.0
C575 C 0.80336 0.66441 0.3663 0.0
C576 C 0.83827 0.69176 0.40433 0.0
C577 C 0.84385 0.7075 0.36759 0.0
N578 N 0.83838 0.71312 0.29309 0.0
N579 N 0.81735 0.65088 0.4354 0.0
C580 C 0.83081 0.70006 0.32925 0.0
C581 C 0.81965 0.66887 0.40256 0.0
N582 N 0.79315 0.67551 0.29456 0.0
N583 N 0.8499 0.69936 0.44158 0.0
H584 H 0.80361 0.6342 0.43513 0.0
H585 H 0.8307 0.65082 0.46099 0.0
H586 H 0.86453 0.71512 0.44433 0.0
H587 H 0.84383 0.69126 0.47031 0.0
H588 H 0.79355 0.68832 0.2684 0.0
H589 H 0.77817 0.65997 0.29261 0.0
H590 H 0.83211 0.70663 0.26357 0.0
H591 H 0.85247 0.72949 0.29205 0.0
C592 C 0.69038 0.8428 0.90093 0.0
C593 C 0.70717 0.84749 0.86524 0.0
C594 C 0.67962 0.8126 0.82695 0.0
C595 C 0.66674 0.80429 0.86499 0.0
N596 N 0.66095 0.81122 0.93928 0.0
N597 N 0.71891 0.83562 0.79425 0.0
C598 C 0.67221 0.81956 0.90216 0.0
C599 C 0.70174 0.83247 0.82789 0.0
N600 N 0.69187 0.86077 0.93384 0.0
N601 N 0.67119 0.80123 0.79001 0.0
H602 H 0.73514 0.84991 0.79346 0.0
H603 H 0.71832 0.82275 0.76814 0.0
H604 H 0.65554 0.7864 0.78801 0.0
H605 H 0.67787 0.80835 0.761 0.0
H606 H 0.67824 0.86039 0.95907 0.0
H607 H 0.70512 0.87785 0.93379 0.0
H608 H 0.66712 0.81909 0.9681 0.0
H609 H 0.64673 0.79507 0.94174 0.0
C610 C 0.18164 0.70295 0.82934 0.0
C611 C 0.16656 0.70788 0.86684 0.0
C612 C 0.19234 0.67021 0.90169 0.0
C613 C 0.20846 0.66628 0.86498 0.0
N614 N 0.21521 0.67474 0.79151 0.0
N615 N 0.15407 0.69357 0.93633 0.0
C616 C 0.20183 0.68113 0.8279 0.0
C617 C 0.17077 0.69048 0.90216 0.0
N618 N 0.17809 0.72042 0.79607 0.0
N619 N 0.19841 0.65505 0.93667 0.0
H620 H 0.13925 0.70918 0.93844 0.0
H621 H 0.15357 0.68007 0.96165 0.0
H622 H 0.21308 0.63918 0.93684 0.0
H623 H 0.18972 0.65836 0.96591 0.0
H624 H 0.19077 0.72054 0.76978 0.0
H625 H 0.16316 0.73606 0.79546 0.0
H626 H 0.20954 0.68256 0.76245 0.0
H627 H 0.23094 0.65996 0.78966 0.0
C628 C 0.34937 0.17886 0.86902 0.0
C629 C 0.34271 0.20586 0.8545 0.0
C630 C 0.29517 0.19108 0.83882 0.0
C631 C 0.30065 0.16498 0.85791 0.0
N632 N 0.33338 0.13196 0.88516 0.0
N633 N 0.3141 0.23372 0.81003 0.0
C634 C 0.32809 0.15809 0.87067 0.0
C635 C 0.31702 0.2107 0.83451 0.0
N636 N 0.37612 0.17323 0.88019 0.0
N637 N 0.2688 0.19751 0.82629 0.0
H638 H 0.33075 0.24704 0.80428 0.0
H639 H 0.29671 0.2378 0.79172 0.0
H640 H 0.25244 0.18336 0.82747 0.0
H641 H 0.26272 0.21727 0.81679 0.0
H642 H 0.38302 0.15439 0.89214 0.0
H643 H 0.39209 0.18738 0.87475 0.0
H644 H 0.35231 0.12536 0.89714 0.0
H645 H 0.31844 0.11634 0.88439 0.0
C646 C 0.83612 0.3136 0.9063 0.0
C647 C 0.84345 0.30001 0.86836 0.0
C648 C 0.80836 0.32806 0.83104 0.0
C649 C 0.80116 0.34157 0.86903 0.0
N650 N 0.81268 0.35171 0.94062 0.0
N651 N 0.84105 0.29914 0.79307 0.0
C652 C 0.81657 0.33575 0.90585 0.0
C653 C 0.83121 0.30902 0.83018 0.0
N654 N 0.8471 0.30468 0.94336 0.0
N655 N 0.79216 0.3318 0.79642 0.0
H656 H 0.8572 0.28488 0.79105 0.0
H657 H 0.83499 0.30697 0.76416 0.0
H658 H 0.77526 0.34528 0.79564 0.0
H659 H 0.79405 0.31995 0.76939 0.0
H660 H 0.8397 0.31082 0.97248 0.0
H661 H 0.86269 0.28979 0.94533 0.0
H662 H 0.8258 0.35128 0.96644 0.0
H663 H 0.79766 0.36715 0.94231 0.0
C664 C 0.69306 0.21668 0.67084 0.0
C665 C 0.66619 0.21067 0.65486 0.0
C666 C 0.67964 0.16171 0.64572 0.0
C667 C 0.70712 0.16858 0.65782 0.0
N668 N 0.73626 0.19837 0.69853 0.0
N669 N 0.63133 0.1763 0.63981 0.0
C670 C 0.71262 0.19484 0.67564 0.0
C671 C 0.65858 0.1827 0.64648 0.0
N672 N 0.70011 0.2434 0.68057 0.0
N673 N 0.67389 0.1353 0.63301 0.0
H674 H 0.61562 0.19108 0.64206 0.0
H675 H 0.62393 0.15618 0.63591 0.0
H676 H 0.68804 0.11914 0.63691 0.0
H677 H 0.65543 0.12943 0.61864 0.0
H678 H 0.72031 0.24961 0.68746 0.0
H679 H 0.68593 0.25975 0.67989 0.0
H680 H 0.74088 0.21634 0.7152 0.0
H681 H 0.7495 0.18176 0.70493 0.0
C682 C 0.82042 0.67039 0.60652 0.0
C683 C 0.80351 0.66605 0.64238 0.0
C684 C 0.82996 0.70221 0.67985 0.0
C685 C 0.84672 0.70637 0.64384 0.0
N686 N 0.86294 0.6893 0.57772 0.0
N687 N 0.79574 0.67387 0.71592 0.0
C688 C 0.84357 0.68863 0.60887 0.0
C689 C 0.80971 0.68042 0.68012 0.0
N690 N 0.8137 0.65804 0.56945 0.0
N691 N 0.83193 0.7203 0.71259 0.0
H692 H 0.77986 0.6592 0.71702 0.0
H693 H 0.80123 0.68144 0.74523 0.0
H694 H 0.8466 0.73618 0.71384 0.0
H695 H 0.81798 0.72074 0.73741 0.0
H696 H 0.82298 0.66315 0.5411 0.0
H697 H 0.7974 0.64405 0.56628 0.0
H698 H 0.86364 0.67506 0.55328 0.0
H699 H 0.87999 0.70256 0.57873 0.0
C700 C 0.31347 0.83283 0.67968 0.0
C701 C 0.30479 0.84554 0.64172 0.0
C702 C 0.33795 0.81671 0.60265 0.0
C703 C 0.34586 0.80292 0.6402 0.0
N704 N 0.34597 0.80253 0.71569 0.0
N705 N 0.31499 0.85585 0.56989 0.0
C706 C 0.33538 0.81268 0.67915 0.0
C707 C 0.31914 0.83945 0.60418 0.0
N708 N 0.29975 0.83872 0.71591 0.0
N709 N 0.34764 0.80749 0.56502 0.0
H710 H 0.30127 0.87257 0.57003 0.0
H711 H 0.32694 0.8547 0.54286 0.0
H712 H 0.36293 0.79237 0.56209 0.0
H713 H 0.33933 0.81368 0.5365 0.0
H714 H 0.30188 0.82724 0.74327 0.0
H715 H 0.28523 0.85461 0.71836 0.0
H716 H 0.34149 0.8109 0.74488 0.0
H717 H 0.36103 0.78709 0.71704 0.0
C718 C 0.1805 0.30988 0.67863 0.0
C719 C 0.16616 0.30324 0.64112 0.0
C720 C 0.19381 0.33802 0.60332 0.0
C721 C 0.20824 0.34487 0.64079 0.0
N722 N 0.21002 0.34224 0.71608 0.0
N723 N 0.15387 0.31626 0.57098 0.0
C724 C 0.19965 0.3326 0.67915 0.0
C725 C 0.17112 0.31913 0.60459 0.0
N726 N 0.17743 0.29332 0.713 0.0
N727 N 0.20239 0.34873 0.56595 0.0
H728 H 0.13737 0.30229 0.57069 0.0
H729 H 0.1542 0.32946 0.54521 0.0
H730 H 0.21796 0.36358 0.56335 0.0
H731 H 0.19532 0.34158 0.53716 0.0
H732 H 0.18993 0.29483 0.73943 0.0
H733 H 0.16377 0.27655 0.71406 0.0
H734 H 0.20255 0.33599 0.74512 0.0
H735 H 0.22416 0.3585 0.71791 0.0
C736 C 0.22395 0.07462 0.02739 0.0
C737 C 0.24855 0.08185 0.04922 0.0
C738 C 0.27397 0.08339 0.98237 0.0
C739 C 0.24828 0.08137 0.96039 0.0
N740 N 0.1991 0.07145 0.96185 0.0
N741 N 0.29779 0.09135 0.04811 0.0
C742 C 0.22338 0.07596 0.98296 0.0
C743 C 0.27391 0.08516 0.02695 0.0
N744 N 0.20168 0.06452 0.04917 0.0
N745 N 0.2985 0.08365 0.96094 0.0
H746 H 0.29901 0.09284 0.08044 0.0
H747 H 0.31622 0.09739 0.03382 0.0
H748 H 0.29989 0.08407 0.92865 0.0
H749 H 0.31786 0.08124 0.97489 0.0
H750 H 0.18396 0.05632 0.03527 0.0
H751 H 0.20198 0.06147 0.08141 0.0
H752 H 0.17961 0.07218 0.97584 0.0
H753 H 0.19831 0.06731 0.92992 0.0
C754 C 0.93437 0.22336 0.98435 0.0
C755 C 0.92679 0.24773 0.96217 0.0
C756 C 0.92631 0.27372 0.02844 0.0
C757 C 0.92821 0.24827 0.05097 0.0
N758 N 0.93744 0.19895 0.05027 0.0
N759 N 0.91492 0.29648 0.96318 0.0
C760 C 0.93315 0.22312 0.0288 0.0
C761 C 0.92307 0.27311 0.98414 0.0
N762 N 0.94462 0.20099 0.96298 0.0
N763 N 0.92782 0.29859 0.04882 0.0
H764 H 0.91196 0.29722 0.931 0.0
H765 H 0.90836 0.31455 0.97804 0.0
H766 H 0.92868 0.30064 0.08106 0.0
H767 H 0.93038 0.31748 0.03348 0.0
H768 H 0.95311 0.18355 0.9773 0.0
H769 H 0.94755 0.20098 0.93072 0.0
H770 H 0.93647 0.17939 0.03651 0.0
H771 H 0.94159 0.19833 0.08221 0.0
C772 C 0.78668 0.93485 0.98386 0.0
C773 C 0.76181 0.92958 0.9611 0.0
C774 C 0.73636 0.9241 0.02734 0.0
C775 C 0.76153 0.92784 0.04984 0.0
N776 N 0.80821 0.94576 0.05041 0.0
N777 N 0.71152 0.92829 0.96192 0.0
C778 C 0.78605 0.93571 0.02832 0.0
C779 C 0.73617 0.92727 0.983 0.0
N780 N 0.81093 0.93972 0.9629 0.0
N781 N 0.71284 0.91595 0.04788 0.0
H782 H 0.70986 0.92893 0.9296 0.0
H783 H 0.69239 0.93056 0.97666 0.0
H784 H 0.71184 0.91317 0.08008 0.0
H785 H 0.69487 0.90938 0.03276 0.0
H786 H 0.83041 0.93906 0.97697 0.0
H787 H 0.8117 0.9441 0.93104 0.0
H788 H 0.82578 0.95442 0.03672 0.0
H789 H 0.80794 0.94823 0.08276 0.0
C790 C 0.08436 0.736 0.98394 0.0
C791 C 0.0819 0.76132 0.96129 0.0
C792 C 0.07755 0.78714 0.02727 0.0
C793 C 0.08231 0.76222 0.05016 0.0
N794 N 0.08316 0.71191 0.05042 0.0
N795 N 0.06613 0.80872 0.96094 0.0
C796 C 0.08322 0.73632 0.02858 0.0
C797 C 0.07574 0.78629 0.98288 0.0
N798 N 0.08926 0.71172 0.9631 0.0
N799 N 0.07404 0.81171 0.048 0.0
H800 H 0.0626 0.80822 0.92881 0.0
H801 H 0.05868 0.82681 0.97469 0.0
H802 H 0.07009 0.81292 0.07994 0.0
H803 H 0.07537 0.83106 0.03362 0.0
H804 H 0.09494 0.69324 0.97759 0.0
H805 H 0.08976 0.71009 0.93075 0.0
H806 H 0.07919 0.69267 0.03696 0.0
H807 H 0.08582 0.71052 0.08254 0.0
C808 C 0.22477 0.934 0.48189 0.0
C809 C 0.24984 0.92815 0.46035 0.0
C810 C 0.27461 0.92631 0.52778 0.0
C811 C 0.24863 0.92689 0.54918 0.0
N812 N 0.1991 0.9349 0.54682 0.0
N813 N 0.29951 0.92132 0.46234 0.0
C814 C 0.22376 0.93174 0.52621 0.0
C815 C 0.27511 0.92569 0.48312 0.0
N816 N 0.20239 0.94378 0.46 0.0
N817 N 0.29893 0.92616 0.54986 0.0
H818 H 0.30128 0.92132 0.43 0.0
H819 H 0.31801 0.91567 0.47679 0.0
H820 H 0.30017 0.92308 0.58192 0.0
H821 H 0.31823 0.93033 0.53672 0.0
H822 H 0.18423 0.95101 0.47378 0.0
H823 H 0.20302 0.94769 0.42797 0.0
H824 H 0.17982 0.93361 0.53224 0.0
H825 H 0.19774 0.93848 0.57884 0.0
C826 C 0.07724 0.22387 0.52784 0.0
C827 C 0.08266 0.2489 0.55009 0.0
C828 C 0.08737 0.27396 0.48327 0.0
C829 C 0.08348 0.24861 0.46129 0.0
N830 N 0.06572 0.20188 0.46189 0.0
N831 N 0.08496 0.29916 0.54859 0.0
C832 C 0.07595 0.2242 0.48339 0.0
C833 C 0.08499 0.27441 0.52773 0.0
N834 N 0.07264 0.19973 0.54925 0.0
N835 N 0.09494 0.29741 0.46204 0.0
H836 H 0.08586 0.301 0.58087 0.0
H837 H 0.08239 0.31826 0.53387 0.0
H838 H 0.09712 0.29825 0.42973 0.0
H839 H 0.1016 0.31558 0.4765 0.0
H840 H 0.07326 0.18017 0.53547 0.0
H841 H 0.06856 0.19912 0.58121 0.0
H842 H 0.05725 0.18438 0.47604 0.0
H843 H 0.06288 0.20193 0.4296 0.0
C844 C 0.77946 0.07168 0.52848 0.0
C845 C 0.75809 0.08601 0.55003 0.0
C846 C 0.73555 0.09698 0.48303 0.0
C847 C 0.7587 0.08571 0.46137 0.0
N848 N 0.80288 0.06213 0.4629 0.0
N849 N 0.71656 0.11369 0.54851 0.0
C850 C 0.78069 0.07295 0.484 0.0
C851 C 0.73612 0.09871 0.52748 0.0
N852 N 0.79804 0.05604 0.55066 0.0
N853 N 0.71305 0.10622 0.46111 0.0
H854 H 0.71605 0.11462 0.5809 0.0
H855 H 0.70199 0.12649 0.5342 0.0
H856 H 0.71241 0.10644 0.4287 0.0
H857 H 0.69427 0.11182 0.4748 0.0
H858 H 0.81252 0.04281 0.53707 0.0
H859 H 0.79746 0.05439 0.58315 0.0
H860 H 0.82126 0.05596 0.47725 0.0
H861 H 0.80345 0.06028 0.43047 0.0
C862 C 0.92786 0.73518 0.52641 0.0
C863 C 0.92968 0.76072 0.54867 0.0
C864 C 0.93572 0.78545 0.48188 0.0
C865 C 0.92796 0.76104 0.46003 0.0
N866 N 0.91702 0.71211 0.46119 0.0
N867 N 0.93976 0.80986 0.54767 0.0
C868 C 0.92467 0.73563 0.4821 0.0
C869 C 0.9349 0.78576 0.52632 0.0
N870 N 0.92948 0.71041 0.54708 0.0
N871 N 0.94562 0.80781 0.46008 0.0
H872 H 0.94427 0.81034 0.57952 0.0
H873 H 0.93906 0.82945 0.53397 0.0
H874 H 0.94813 0.80773 0.42773 0.0
H875 H 0.95414 0.82538 0.47399 0.0
H876 H 0.93199 0.69142 0.53201 0.0
H877 H 0.93063 0.70853 0.57933 0.0
H878 H 0.91075 0.69391 0.47602 0.0
H879 H 0.91435 0.71123 0.42896 0.0
C880 C 0.72531 0.57472 0.52732 0.0
C881 C 0.75007 0.58177 0.54888 0.0
C882 C 0.77508 0.58307 0.48173 0.0
C883 C 0.74926 0.58153 0.46003 0.0
N884 N 0.69995 0.57229 0.46217 0.0
N885 N 0.79911 0.59212 0.54687 0.0
C886 C 0.72443 0.57636 0.48292 0.0
C887 C 0.77524 0.58522 0.52624 0.0
N888 N 0.70314 0.5646 0.54929 0.0
N889 N 0.79959 0.58245 0.46023 0.0
H890 H 0.80047 0.59393 0.57918 0.0
H891 H 0.81721 0.59851 0.53193 0.0
H892 H 0.80109 0.58331 0.42791 0.0
H893 H 0.81878 0.57932 0.47444 0.0
H894 H 0.68533 0.5565 0.53551 0.0
H895 H 0.70363 0.56139 0.5815 0.0
H896 H 0.68059 0.57318 0.47655 0.0
H897 H 0.69885 0.56836 0.4302 0.0
C898 C 0.43385 0.72289 0.48027 0.0
C899 C 0.42791 0.74767 0.45767 0.0
C900 C 0.42342 0.7732 0.52404 0.0
C901 C 0.42806 0.74813 0.54642 0.0
N902 N 0.44631 0.70159 0.54639 0.0
N903 N 0.42471 0.79787 0.45814 0.0
C904 C 0.43564 0.72363 0.52465 0.0
C905 C 0.42536 0.77331 0.47954 0.0
N906 N 0.43843 0.69861 0.45924 0.0
N907 N 0.41553 0.79665 0.54498 0.0
H908 H 0.42351 0.79934 0.42582 0.0
H909 H 0.42699 0.81716 0.47239 0.0
H910 H 0.41361 0.79767 0.57732 0.0
H911 H 0.4084 0.81457 0.53029 0.0
H912 H 0.43823 0.67917 0.47347 0.0
H913 H 0.44198 0.69772 0.42716 0.0
H914 H 0.45485 0.68407 0.5324 0.0
H915 H 0.4494 0.70193 0.57862 0.0
C916 C 0.28693 0.43361 0.48032 0.0
C917 C 0.2619 0.42831 0.458 0.0
C918 C 0.23682 0.42339 0.52468 0.0
C919 C 0.26216 0.42721 0.54675 0.0
N920 N 0.30887 0.44506 0.54634 0.0
N921 N 0.21163 0.42628 0.45937 0.0
C922 C 0.28657 0.43481 0.52476 0.0
C923 C 0.23639 0.42599 0.48026 0.0
N924 N 0.3111 0.4382 0.45899 0.0
N925 N 0.21335 0.4157 0.54576 0.0
H926 H 0.20979 0.4257 0.42707 0.0
H927 H 0.19254 0.42883 0.47412 0.0
H928 H 0.21249 0.41332 0.57804 0.0
H929 H 0.19521 0.40909 0.53115 0.0
H930 H 0.33065 0.43749 0.47284 0.0
H931 H 0.31175 0.44232 0.42704 0.0
H932 H 0.32636 0.45357 0.53223 0.0
H933 H 0.30879 0.44788 0.57862 0.0
C934 C 0.59531 0.23766 0.52759 0.0
C935 C 0.58496 0.26132 0.54911 0.0
C936 C 0.57217 0.28263 0.48185 0.0
C937 C 0.58557 0.26061 0.4604 0.0
N938 N 0.61104 0.21761 0.46216 0.0
N939 N 0.56354 0.30659 0.5472 0.0
C940 C 0.59711 0.23803 0.48308 0.0
C941 C 0.57338 0.28387 0.5263 0.0
N942 N 0.60357 0.21485 0.5497 0.0
N943 N 0.55717 0.30172 0.45962 0.0
H944 H 0.5614 0.30728 0.57959 0.0
H945 H 0.55849 0.32527 0.5327 0.0
H946 H 0.55531 0.30109 0.42718 0.0
H947 H 0.5445 0.31669 0.47322 0.0
H948 H 0.60836 0.1958 0.5362 0.0
H949 H 0.60385 0.21433 0.58214 0.0
H950 H 0.62309 0.20247 0.47663 0.0
H951 H 0.61193 0.21671 0.42974 0.0
C952 C 0.7257 0.43548 0.98114 0.0
C953 C 0.75039 0.42815 0.95965 0.0
C954 C 0.77525 0.426 0.02696 0.0
C955 C 0.74939 0.42802 0.04844 0.0
N956 N 0.70026 0.43811 0.04618 0.0
N957 N 0.79955 0.41831 0.96158 0.0
C958 C 0.72471 0.43374 0.0255 0.0
C959 C 0.77556 0.42458 0.98234 0.0
N960 N 0.70372 0.446 0.95911 0.0
N961 N 0.7996 0.42523 0.04891 0.0
H962 H 0.80105 0.4172 0.92924 0.0
H963 H 0.81778 0.41199 0.9762 0.0
H964 H 0.80075 0.42314 0.08116 0.0
H965 H 0.81903 0.42808 0.03541 0.0
H966 H 0.68598 0.45428 0.97282 0.0
H967 H 0.70439 0.44939 0.92695 0.0
H968 H 0.68091 0.43766 0.0317 0.0
H969 H 0.69914 0.44181 0.0782 0.0
C970 C 0.57877 0.72275 0.0243 0.0
C971 C 0.58357 0.7476 0.04732 0.0
C972 C 0.58774 0.77363 0.98121 0.0
C973 C 0.58446 0.7485 0.95846 0.0
N974 N 0.56764 0.70143 0.95771 0.0
N975 N 0.58485 0.79791 0.04727 0.0
C976 C 0.57746 0.72366 0.97986 0.0
C977 C 0.58537 0.77343 0.02569 0.0
N978 N 0.57475 0.69821 0.04493 0.0
N979 N 0.59471 0.79754 0.96068 0.0
H980 H 0.58595 0.79936 0.07959 0.0
H981 H 0.58177 0.81713 0.03314 0.0
H982 H 0.59673 0.7989 0.92839 0.0
H983 H 0.60098 0.81565 0.97568 0.0
H984 H 0.5759 0.67887 0.03052 0.0
H985 H 0.57063 0.69702 0.07683 0.0
H986 H 0.55954 0.68357 0.97135 0.0
H987 H 0.56468 0.70189 0.92545 0.0
C988 C 0.28616 0.57575 0.02448 0.0
C989 C 0.26168 0.58356 0.0461 0.0
C990 C 0.23654 0.58597 0.97918 0.0
C991 C 0.26219 0.5832 0.95737 0.0
N992 N 0.31119 0.5724 0.95912 0.0
N993 N 0.21321 0.59624 0.04448 0.0
C994 C 0.28693 0.57725 0.98007 0.0
C995 C 0.23664 0.58816 0.02365 0.0
N996 N 0.30814 0.56513 0.04639 0.0
N997 N 0.21199 0.58659 0.95778 0.0
H998 H 0.21217 0.59825 0.07681 0.0
H999 H 0.19534 0.60339 0.0297 0.0
H1000 H 0.2105 0.58768 0.92546 0.0
H1001 H 0.1927 0.58442 0.97207 0.0
H1002 H 0.32564 0.55644 0.03256 0.0
H1003 H 0.30779 0.56226 0.07867 0.0
H1004 H 0.33063 0.57257 0.97335 0.0
H1005 H 0.31205 0.56859 0.92711 0.0
C1006 C 0.41704 0.23618 0.9823 0.0
C1007 C 0.42503 0.26009 0.95937 0.0
C1008 C 0.43453 0.28477 0.0251 0.0
C1009 C 0.42636 0.26083 0.04812 0.0
N1010 N 0.41698 0.21145 0.0481 0.0
N1011 N 0.44793 0.30449 0.9582 0.0
C1012 C 0.42012 0.23575 0.02658 0.0
C1013 C 0.43562 0.28367 0.98062 0.0
N1014 N 0.40473 0.21448 0.96211 0.0
N1015 N 0.44159 0.30858 0.04578 0.0
H1016 H 0.44983 0.30397 0.92576 0.0
H1017 H 0.45859 0.32101 0.97165 0.0
H1018 H 0.44466 0.3094 0.07799 0.0
H1019 H 0.44366 0.3278 0.03123 0.0
H1020 H 0.39507 0.19801 0.9774 0.0
H1021 H 0.40213 0.21413 0.92992 0.0
H1022 H 0.41606 0.19212 0.0336 0.0
H1023 H 0.41681 0.21014 0.08051 0.0
C1024 C 0.23843 0.03115 0.27664 0.0
C1025 C 0.2397 0.03098 0.23236 0.0
C1026 C 0.23827 0.9797 0.23347 0.0
C1027 C 0.23992 0.97986 0.27773 0.0
N1028 N 0.24691 0.00615 0.34112 0.0
N1029 N 0.2463 1.00467 0.16888 0.0
C1030 C 0.24137 0.00572 0.29925 0.0
C1031 C 0.24103 1.00512 0.21082 0.0
N1032 N 0.23339 0.05548 0.29722 0.0
N1033 N 0.23304 0.95537 0.21298 0.0
H1034 H 0.24924 0.02257 0.15116 0.0
H1035 H 0.2505 0.98651 0.1524 0.0
H1036 H 0.23052 0.93646 0.2284 0.0
H1037 H 0.22855 0.95437 0.18119 0.0
H1038 H 0.22917 0.05649 0.32908 0.0
H1039 H 0.23079 0.0744 0.28184 0.0
H1040 H 0.25123 0.0243 0.35755 0.0
H1041 H 0.24992 0.98824 0.3588 0.0
C1042 C 0.97891 0.23683 0.27822 0.0
C1043 C 0.97903 0.23844 0.23396 0.0
C1044 C 0.03031 0.23755 0.23491 0.0
C1045 C 0.03015 0.23891 0.27919 0.0
N1046 N 1.00387 0.24504 0.34278 0.0
N1047 N 1.00519 0.24559 0.17046 0.0
C1048 C 1.00432 0.23986 0.30081 0.0
C1049 C 1.00484 0.24014 0.21235 0.0
N1050 N 0.95463 0.23142 0.29874 0.0
N1051 N 0.05469 0.23277 0.2143 0.0
H1052 H 0.98724 0.24827 0.15275 0.0
H1053 H 0.02327 0.25012 0.15398 0.0
H1054 H 0.07365 0.23042 0.22964 0.0
H1055 H 0.05573 0.22849 0.18245 0.0
H1056 H 0.95365 0.22695 0.33054 0.0
H1057 H 0.93573 0.22874 0.28332 0.0
H1058 H 0.98569 0.24899 0.35935 0.0
H1059 H 0.02176 0.24811 0.36046 0.0
C1060 C 0.76731 1.00365 0.30087 0.0
C1061 C 0.76948 0.02962 0.27982 0.0
C1062 C 0.76891 1.00496 0.21245 0.0
C1063 C 0.76952 0.97893 0.23358 0.0
N1064 N 0.77448 0.95378 0.29822 0.0
N1065 N 0.77785 0.05449 0.21571 0.0
C1066 C 0.77015 0.97837 0.27791 0.0
C1067 C 0.77181 0.03012 0.23562 0.0
N1068 N 0.7612 1.003 0.34254 0.0
N1069 N 0.76418 0.00585 0.17038 0.0
H1070 H 0.78059 0.07322 0.23151 0.0
H1071 H 0.78282 0.05563 0.1841 0.0
H1072 H 0.76113 0.98816 0.15225 0.0
H1073 H 0.76049 0.02422 0.15412 0.0
H1074 H 0.75638 0.98481 0.35856 0.0
H1075 H 0.75826 0.02085 0.3604 0.0
H1076 H 0.77819 0.95243 0.3302 0.0
H1077 H 0.77702 0.93496 0.2826 0.0
C1078 C 0.03011 0.7734 0.27694 0.0
C1079 C 0.03002 0.77233 0.23266 0.0
C1080 C 0.97874 0.77342 0.23348 0.0
C1081 C 0.97887 0.77153 0.27771 0.0
N1082 N 1.00509 0.76448 0.3412 0.0
N1083 N 1.00389 0.7661 0.16888 0.0
C1084 C 1.00469 0.77019 0.29938 0.0
C1085 C 1.00422 0.77102 0.21092 0.0
N1086 N 0.05439 0.77847 0.29768 0.0
N1087 N 0.95438 0.77848 0.21296 0.0
H1088 H 0.02185 0.76357 0.15116 0.0
H1089 H 0.98581 0.76186 0.15223 0.0
H1090 H 0.93541 0.78063 0.22834 0.0
H1091 H 0.95335 0.78314 0.18123 0.0
H1092 H 0.05534 0.78254 0.3296 0.0
H1093 H 0.07331 0.78128 0.28241 0.0
H1094 H 0.02324 0.76021 0.35769 0.0
H1095 H 0.98718 0.76127 0.35877 0.0
C1096 C 0.77581 0.98085 0.73393 0.0
C1097 C 0.77452 0.98148 0.77824 0.0
C1098 C 0.77632 0.03269 0.77577 0.0
C1099 C 0.7741 0.03208 0.73157 0.0
N1100 N 0.76681 1.00505 0.66894 0.0
N1101 N 0.76834 0.00858 0.84108 0.0
C1102 C 0.77265 0.006 0.71069 0.0
C1103 C 0.7735 0.00757 0.79913 0.0
N1104 N 0.78097 0.95633 0.71393 0.0
N1105 N 0.78205 0.05717 0.79553 0.0
H1106 H 0.76525 0.99094 0.85934 0.0
H1107 H 0.76436 0.02699 0.85704 0.0
H1108 H 0.78483 0.07583 0.77953 0.0
H1109 H 0.78684 0.05845 0.8272 0.0
H1110 H 0.78509 0.955 0.68206 0.0
H1111 H 0.78392 0.93764 0.72979 0.0
H1112 H 0.76248 0.98668 0.65308 0.0
H1113 H 0.7636 0.02273 0.6508 0.0
C1114 C 0.00683 0.77068 0.71008 0.0
C1115 C 0.98079 0.77258 0.73101 0.0
C1116 C 0.00528 0.77106 0.79851 0.0
C1117 C 0.03137 0.77182 0.77757 0.0
N1118 N 0.05666 0.77795 0.71332 0.0
N1119 N 0.95578 0.78022 0.79514 0.0
C1120 C 0.03204 0.77322 0.7333 0.0
C1121 C 0.98019 0.77438 0.77525 0.0
N1122 N 0.00764 0.76504 0.66827 0.0
N1123 N 1.00426 0.76578 0.84043 0.0
H1124 H 0.93712 0.78327 0.77924 0.0
H1125 H 0.95454 0.78476 0.82689 0.0
H1126 H 0.0219 0.7624 0.85858 0.0
H1127 H 0.98583 0.76198 0.85645 0.0
H1128 H 0.02591 0.7604 0.65234 0.0
H1129 H 0.9899 0.76225 0.65014 0.0
H1130 H 0.05806 0.7822 0.68149 0.0
H1131 H 0.07543 0.78032 0.72916 0.0
C1132 C 0.23554 0.97749 0.77664 0.0
C1133 C 0.23682 0.97802 0.73237 0.0
C1134 C 0.23437 0.02917 0.73416 0.0
C1135 C 0.2363 0.0287 0.77837 0.0
N1136 N 0.24375 1.00212 0.84144 0.0
N1137 N 0.24261 1.00485 0.66915 0.0
C1138 C 0.23812 1.00276 0.7996 0.0
C1139 C 0.23751 1.004 0.71113 0.0
N1140 N 0.23094 0.95291 0.79685 0.0
N1141 N 0.22862 0.05355 0.71409 0.0
H1142 H 0.24576 0.98714 0.6511 0.0
H1143 H 0.24642 0.02319 0.6529 0.0
H1144 H 0.22578 0.07229 0.72984 0.0
H1145 H 0.22398 0.05471 0.68236 0.0
H1146 H 0.22679 0.95159 0.82871 0.0
H1147 H 0.22859 0.93408 0.78117 0.0
H1148 H 0.24837 0.98393 0.85759 0.0
H1149 H 0.24647 0.01995 0.8594 0.0
C1150 C 0.00706 0.24145 0.80116 0.0
C1151 C 0.98111 0.24023 0.77989 0.0
C1152 C 0.00595 0.24166 0.71271 0.0
C1153 C 0.0319 0.24012 0.73396 0.0
N1154 N 0.0568 0.23339 0.79842 0.0
N1155 N 0.9562 0.23385 0.71532 0.0
C1156 C 0.03234 0.23859 0.77822 0.0
C1157 C 0.98066 0.23887 0.73561 0.0
N1158 N 0.00771 0.24665 0.84311 0.0
N1159 N 0.0053 0.24711 0.67082 0.0
H1160 H 0.93736 0.23131 0.73089 0.0
H1161 H 0.95501 0.22957 0.68349 0.0
H1162 H 0.02312 0.24995 0.6529 0.0
H1163 H 0.98708 0.25152 0.65459 0.0
H1164 H 0.02596 0.25075 0.85946 0.0
H1165 H 0.98988 0.2496 0.861 0.0
H1166 H 0.05801 0.22899 0.83022 0.0
H1167 H 0.07561 0.23085 0.78275 0.0
C1168 C 0.76729 0.51581 0.73994 0.0
C1169 C 0.74202 0.53028 0.73224 0.0
C1170 C 0.71659 0.49057 0.76232 0.0
C1171 C 0.74196 0.47811 0.77539 0.0
N1172 N 0.79141 0.48408 0.78574 0.0
N1173 N 0.69272 0.53338 0.74527 0.0
C1174 C 0.76732 0.49217 0.76677 0.0
C1175 C 0.71667 0.5182 0.74602 0.0
N1176 N 0.79119 0.52354 0.72014 0.0
N1177 N 0.69246 0.47572 0.76375 0.0
H1178 H 0.69206 0.55407 0.73576 0.0
H1179 H 0.67424 0.52644 0.75857 0.0
H1180 H 0.69168 0.45503 0.7732 0.0
H1181 H 0.67389 0.48292 0.75101 0.0
H1182 H 0.80943 0.51194 0.72191 0.0
H1183 H 0.79204 0.53939 0.69803 0.0
H1184 H 0.80979 0.49541 0.78331 0.0
H1185 H 0.79239 0.46823 0.80782 0.0
C1186 C 0.53261 0.73834 0.73119 0.0
C1187 C 0.53219 0.73989 0.77546 0.0
C1188 C 0.48093 0.73862 0.77377 0.0
C1189 C 0.48136 0.73995 0.72948 0.0
N1190 N 0.50797 0.74625 0.66624 0.0
N1191 N 0.50562 0.74665 0.83863 0.0
C1192 C 0.50732 0.74112 0.70823 0.0
C1193 C 0.50624 0.74133 0.79671 0.0
N1194 N 0.55707 0.73322 0.711 0.0
N1195 N 0.45643 0.73375 0.79403 0.0
H1196 H 0.52347 0.74939 0.85656 0.0
H1197 H 0.48743 0.751 0.85492 0.0
H1198 H 0.43758 0.73135 0.7784 0.0
H1199 H 0.45518 0.72948 0.82586 0.0
H1200 H 0.5583 0.72879 0.67922 0.0
H1201 H 0.57591 0.73076 0.72666 0.0
H1202 H 0.52619 0.75039 0.6499 0.0
H1203 H 0.49014 0.74905 0.64828 0.0
C1204 C 0.27281 0.48066 0.77297 0.0
C1205 C 0.27123 0.481 0.72871 0.0
C1206 C 0.27339 0.5322 0.72997 0.0
C1207 C 0.27203 0.5319 0.77425 0.0
N1208 N 0.26507 0.50555 0.83764 0.0
N1209 N 0.26481 0.50748 0.66534 0.0
C1210 C 0.27036 0.50604 0.79571 0.0
C1211 C 0.27019 0.50689 0.70725 0.0
N1212 N 0.27765 0.4562 0.79337 0.0
N1213 N 0.27872 0.55655 0.70955 0.0
H1214 H 0.26163 0.48963 0.64759 0.0
H1215 H 0.2608 0.5257 0.6489 0.0
H1216 H 0.28153 0.57538 0.72506 0.0
H1217 H 0.28299 0.55763 0.67771 0.0
H1218 H 0.28208 0.45504 0.82516 0.0
H1219 H 0.2799 0.43729 0.77789 0.0
H1220 H 0.26057 0.48742 0.85403 0.0
H1221 H 0.26245 0.52344 0.85548 0.0
C1222 C 0.47694 0.27539 0.73285 0.0
C1223 C 0.47755 0.2736 0.77711 0.0
C1224 C 0.52874 0.27532 0.77487 0.0
C1225 C 0.52814 0.27366 0.7306 0.0
N1226 N 0.50118 0.26716 0.6677 0.0
N1227 N 0.50453 0.26684 0.83995 0.0
C1228 C 0.50209 0.27249 0.70961 0.0
C1229 C 0.5036 0.27233 0.79808 0.0
N1230 N 0.45242 0.28078 0.71294 0.0
N1231 N 0.55322 0.28073 0.79485 0.0
H1232 H 0.48685 0.26378 0.85812 0.0
H1233 H 0.52289 0.26261 0.85592 0.0
H1234 H 0.57193 0.28359 0.77902 0.0
H1235 H 0.5545 0.28514 0.82664 0.0
H1236 H 0.45111 0.28526 0.68117 0.0
H1237 H 0.43373 0.28354 0.72886 0.0
H1238 H 0.48282 0.26306 0.65166 0.0
H1239 H 0.51889 0.26411 0.64957 0.0
C1240 C 0.26959 0.50413 0.20726 0.0
C1241 C 0.27057 0.53006 0.2286 0.0
C1242 C 0.26951 0.50509 0.29573 0.0
C1243 C 0.27115 0.47918 0.27441 0.0
N1244 N 0.27796 0.45444 0.20988 0.0
N1245 N 0.27681 0.55493 0.29317 0.0
C1246 C 0.27264 0.47883 0.23014 0.0
C1247 C 0.27202 0.53044 0.27286 0.0
N1248 N 0.26439 0.50349 0.1653 0.0
N1249 N 0.26418 0.50564 0.33765 0.0
H1250 H 0.27909 0.57382 0.27759 0.0
H1251 H 0.28117 0.55614 0.32498 0.0
H1252 H 0.26154 0.48777 0.35556 0.0
H1253 H 0.25969 0.52379 0.35395 0.0
H1254 H 0.2604 0.48525 0.14891 0.0
H1255 H 0.26137 0.52132 0.14742 0.0
H1256 H 0.28233 0.45329 0.17807 0.0
H1257 H 0.28063 0.43561 0.2255 0.0
C1258 C 0.50402 0.2682 0.29954 0.0
C1259 C 0.53001 0.27032 0.27858 0.0
C1260 C 0.50541 0.2694 0.21112 0.0
C1261 C 0.47936 0.27008 0.23213 0.0
N1262 N 0.45415 0.27536 0.29664 0.0
N1263 N 0.55492 0.27845 0.21446 0.0
C1264 C 0.47875 0.27093 0.27646 0.0
C1265 C 0.53054 0.27245 0.23436 0.0
N1266 N 0.50332 0.26225 0.34128 0.0
N1267 N 0.50635 0.26447 0.16911 0.0
H1268 H 0.57362 0.28133 0.23028 0.0
H1269 H 0.55608 0.28327 0.18279 0.0
H1270 H 0.48867 0.26131 0.15096 0.0
H1271 H 0.52474 0.26073 0.15296 0.0
H1272 H 0.4851 0.25748 0.35726 0.0
H1273 H 0.52114 0.25936 0.35923 0.0
H1274 H 0.45278 0.27922 0.32857 0.0
H1275 H 0.43534 0.27784 0.28093 0.0
C1276 C 0.7388 0.50441 0.29844 0.0
C1277 C 0.73758 0.53035 0.27708 0.0
C1278 C 0.73897 0.50544 0.20998 0.0
C1279 C 0.73763 0.47951 0.23133 0.0
N1280 N 0.73072 0.45469 0.29581 0.0
N1281 N 0.73095 0.55517 0.21252 0.0
C1282 C 0.73596 0.47912 0.27556 0.0
C1283 C 0.73608 0.53073 0.23283 0.0
N1284 N 0.74409 0.50375 0.34037 0.0
N1285 N 0.74439 0.50608 0.16809 0.0
H1286 H 0.72834 0.57399 0.22812 0.0
H1287 H 0.72661 0.55634 0.1807 0.0
H1288 H 0.74734 0.48827 0.1502 0.0
H1289 H 0.74865 0.52432 0.15181 0.0
H1290 H 0.74826 0.4855 0.35668 0.0
H1291 H 0.74704 0.52155 0.35829 0.0
H1292 H 0.72625 0.45353 0.32759 0.0
H1293 H 0.72815 0.43587 0.28018 0.0
C1294 C 0.50521 0.73789 0.29661 0.0
C1295 C 0.47938 0.73655 0.27501 0.0
C1296 C 0.50461 0.73765 0.20813 0.0
C1297 C 0.53044 0.73645 0.22976 0.0
N1298 N 0.55497 0.72996 0.29459 0.0
N1299 N 0.45484 0.72977 0.21027 0.0
C1300 C 0.53062 0.73501 0.27402 0.0
C1301 C 0.4792 0.73491 0.23076 0.0
N1302 N 0.50566 0.74331 0.3385 0.0
N1303 N 0.50418 0.74281 0.16615 0.0
H1304 H 0.43593 0.72732 0.22572 0.0
H1305 H 0.45379 0.7253 0.17849 0.0
H1306 H 0.52209 0.74559 0.1484 0.0
H1307 H 0.48604 0.74699 0.1496 0.0
H1308 H 0.52381 0.74758 0.35497 0.0
H1309 H 0.48777 0.74623 0.35622 0.0
H1310 H 0.55601 0.72564 0.32643 0.0
H1311 H 0.57388 0.7274 0.27919 0.0
C1312 C 0.16255 0.14012 0.24744 0.0
C1313 C 0.18453 0.15325 0.22551 0.0
C1314 C 0.17237 0.19798 0.25787 0.0
C1315 C 0.1515 0.1846 0.28185 0.0
N1316 N 0.12833 0.14261 0.30319 0.0
N1317 N 0.21374 0.1933 0.21524 0.0
C1318 C 0.14709 0.15552 0.27771 0.0
C1319 C 0.19029 0.18184 0.23215 0.0
N1320 N 0.15587 0.11322 0.23826 0.0
N1321 N 0.17513 0.2262 0.25973 0.0
H1322 H 0.22762 0.18209 0.19678 0.0
H1323 H 0.22094 0.2131 0.22246 0.0
H1324 H 0.16331 0.2386 0.27954 0.0
H1325 H 0.18762 0.23763 0.23952 0.0
H1326 H 0.13824 0.10323 0.24955 0.0
H1327 H 0.16719 0.10126 0.21712 0.0
H1328 H 0.12634 0.12115 0.30549 0.0
H1329 H 0.11552 0.15347 0.32378 0.0
C1330 C 0.86991 0.1648 0.2507 0.0
C1331 C 0.85589 0.18481 0.22586 0.0
C1332 C 0.81107 0.1689 0.25393 0.0
C1333 C 0.82513 0.15069 0.28162 0.0
N1334 N 0.86805 0.13287 0.3095 0.0
N1335 N 0.81382 0.21008 0.21074 0.0
C1336 C 0.85464 0.14916 0.28094 0.0
C1337 C 0.82663 0.18793 0.22932 0.0
N1338 N 0.89754 0.15998 0.24429 0.0
N1339 N 0.78276 0.1681 0.25103 0.0
H1340 H 0.82453 0.22507 0.1936 0.0
H1341 H 0.79312 0.21529 0.21589 0.0
H1342 H 0.77042 0.15497 0.26903 0.0
H1343 H 0.7716 0.1787 0.22816 0.0
H1344 H 0.90838 0.14366 0.25805 0.0
H1345 H 0.90934 0.17118 0.2228 0.0
H1346 H 0.88943 0.13332 0.31419 0.0
H1347 H 0.85753 0.11978 0.33009 0.0
C1348 C 0.86888 0.84772 0.2636 0.0
C1349 C 0.85623 0.82473 0.28374 0.0
C1350 C 0.81163 0.83599 0.25028 0.0
C1351 C 0.82458 0.858 0.22813 0.0
N1352 N 0.86597 0.88325 0.20974 0.0
N1353 N 0.81723 0.79376 0.29081 0.0
C1354 C 0.85339 0.86339 0.23365 0.0
C1355 C 0.82802 0.81803 0.27561 0.0
N1356 N 0.89536 0.8551 0.27415 0.0
N1357 N 0.78357 0.83224 0.24708 0.0
H1358 H 0.82873 0.77985 0.30885 0.0
H1359 H 0.79782 0.78603 0.28253 0.0
H1360 H 0.77104 0.84421 0.22759 0.0
H1361 H 0.7723 0.81872 0.26595 0.0
H1362 H 0.90487 0.87337 0.26429 0.0
H1363 H 0.90744 0.84359 0.29495 0.0
H1364 H 0.88737 0.88611 0.20843 0.0
H1365 H 0.85498 0.89612 0.18939 0.0
C1366 C 0.19144 0.82847 0.27751 0.0
C1367 C 0.18585 0.85711 0.28406 0.0
C1368 C 0.1483 0.85492 0.23196 0.0
C1369 C 0.1525 0.8258 0.22802 0.0
N1370 N 0.17597 0.78416 0.25027 0.0
N1371 N 0.15739 0.89727 0.27116 0.0
C1372 C 0.17337 0.81239 0.25197 0.0
C1373 C 0.16391 0.87032 0.2621 0.0
N1374 N 0.21486 0.81689 0.29435 0.0
N1375 N 0.12958 0.86788 0.20645 0.0
H1376 H 0.16878 0.9092 0.29227 0.0
H1377 H 0.13981 0.90733 0.25985 0.0
H1378 H 0.11671 0.85705 0.18592 0.0
H1379 H 0.12772 0.88935 0.20403 0.0
H1380 H 0.22195 0.79707 0.28708 0.0
H1381 H 0.2288 0.828 0.31284 0.0
H1382 H 0.1884 0.77269 0.27053 0.0
H1383 H 0.16407 0.77184 0.23048 0.0
C1384 C 0.84136 0.84997 0.71216 0.0
C1385 C 0.85829 0.82702 0.72436 0.0
C1386 C 0.85041 0.84146 0.79667 0.0
C1387 C 0.82748 0.85844 0.78457 0.0
N1388 N 0.79805 0.87283 0.72652 0.0
N1389 N 0.87281 0.79787 0.78268 0.0
C1390 C 0.822 0.86117 0.74107 0.0
C1391 C 0.86126 0.82182 0.76791 0.0
N1392 N 0.84428 0.86198 0.6738 0.0
N1393 N 0.86269 0.84456 0.8348 0.0
H1394 H 0.87809 0.78108 0.76389 0.0
H1395 H 0.87351 0.7933 0.81452 0.0
H1396 H 0.85778 0.86085 0.85492 0.0
H1397 H 0.8804 0.83345 0.84335 0.0
H1398 H 0.83322 0.8797 0.66515 0.0
H1399 H 0.86043 0.85688 0.65351 0.0
H1400 H 0.79325 0.87332 0.69474 0.0
H1401 H 0.78148 0.87847 0.7455 0.0
C1402 C 0.15597 0.86045 0.73049 0.0
C1403 C 0.18509 0.85619 0.72674 0.0
C1404 C 0.18256 0.81849 0.77834 0.0
C1405 C 0.15391 0.82422 0.78464 0.0
N1406 N 0.11368 0.85227 0.77028 0.0
N1407 N 0.2268 0.83324 0.74997 0.0
C1408 C 0.14063 0.84557 0.7615 0.0
C1409 C 0.19857 0.83591 0.75173 0.0
N1410 N 0.14296 0.87854 0.70403 0.0
N1411 N 0.19418 0.79549 0.79638 0.0
H1412 H 0.23906 0.84447 0.72924 0.0
H1413 H 0.23831 0.8214 0.77094 0.0
H1414 H 0.18314 0.78199 0.81567 0.0
H1415 H 0.214 0.78824 0.7894 0.0
H1416 H 0.12149 0.8803 0.70154 0.0
H1417 H 0.15373 0.89093 0.68275 0.0
H1418 H 0.10356 0.86952 0.75797 0.0
H1419 H 0.1018 0.84147 0.79214 0.0
C1420 C 0.13968 0.16634 0.75208 0.0
C1421 C 0.15393 0.18574 0.72648 0.0
C1422 C 0.19861 0.16922 0.75421 0.0
C1423 C 0.18439 0.15159 0.78255 0.0
N1424 N 0.1413 0.13506 0.81165 0.0
N1425 N 0.19633 0.21017 0.71046 0.0
C1426 C 0.15485 0.15073 0.78248 0.0
C1427 C 0.18325 0.18837 0.72954 0.0
N1428 N 0.11191 0.16203 0.74622 0.0
N1429 N 0.22685 0.16771 0.75064 0.0
H1430 H 0.18573 0.22531 0.69344 0.0
H1431 H 0.21718 0.21498 0.71518 0.0
H1432 H 0.23905 0.15435 0.76848 0.0
H1433 H 0.23799 0.1779 0.72736 0.0
H1434 H 0.10084 0.14611 0.76058 0.0
H1435 H 0.10018 0.17324 0.72464 0.0
H1436 H 0.11998 0.13607 0.81671 0.0
H1437 H 0.15167 0.12195 0.83239 0.0
C1438 C 0.86154 0.15453 0.77876 0.0
C1439 C 0.86148 0.18411 0.77875 0.0
C1440 C 0.82707 0.18395 0.72211 0.0
C1441 C 0.82798 0.15437 0.72069 0.0
N1442 N 0.84956 0.1117 0.74271 0.0
N1443 N 0.84789 0.22697 0.74528 0.0
C1444 C 0.84613 0.13967 0.74778 0.0
C1445 C 0.84559 0.19876 0.7486 0.0
N1446 N 0.87632 0.14063 0.80863 0.0
N1447 N 0.80728 0.19806 0.69993 0.0
H1448 H 0.85975 0.23905 0.76538 0.0
H1449 H 0.83982 0.23831 0.72039 0.0
H1450 H 0.79322 0.18853 0.67989 0.0
H1451 H 0.80297 0.21905 0.70414 0.0
H1452 H 0.8745 0.1194 0.81407 0.0
H1453 H 0.88972 0.15063 0.82934 0.0
H1454 H 0.86453 0.1001 0.75835 0.0
H1455 H 0.83882 0.10026 0.72027 0.0
C1456 C 0.69342 0.68118 0.73295 0.0
C1457 C 0.68658 0.65296 0.72519 0.0
C1458 C 0.64779 0.65637 0.77494 0.0
C1459 C 0.65337 0.68517 0.78011 0.0
N1460 N 0.67941 0.72589 0.76069 0.0
N1461 N 0.65586 0.61412 0.735 0.0
C1462 C 0.67551 0.69783 0.75792 0.0
C1463 C 0.66342 0.6406 0.7453 0.0
N1464 N 0.71776 0.69176 0.71768 0.0
N1465 N 0.62777 0.64407 0.79888 0.0
H1466 H 0.66731 0.60189 0.71436 0.0
H1467 H 0.63752 0.60479 0.74489 0.0
H1468 H 0.61497 0.65528 0.81903 0.0
H1469 H 0.62472 0.6227 0.80041 0.0
H1470 H 0.72561 0.71116 0.72577 0.0
H1471 H 0.73158 0.68014 0.69971 0.0
H1472 H 0.69303 0.73697 0.74174 0.0
H1473 H 0.66743 0.7386 0.77986 0.0
C1474 C 0.34948 0.6414 0.76174 0.0
C1475 C 0.32633 0.65414 0.78133 0.0
C1476 C 0.338 0.69864 0.74793 0.0
C1477 C 0.3601 0.68556 0.7262 0.0
N1478 N 0.38543 0.64409 0.70855 0.0
N1479 N 0.29548 0.69328 0.7878 0.0
C1480 C 0.36541 0.65677 0.73201 0.0
C1481 C 0.31981 0.68237 0.77301 0.0
N1482 N 0.35671 0.61492 0.77259 0.0
N1483 N 0.3344 0.72672 0.74457 0.0
H1484 H 0.28143 0.68188 0.80571 0.0
H1485 H 0.28789 0.71271 0.77933 0.0
H1486 H 0.34661 0.73917 0.72533 0.0
H1487 H 0.32077 0.73807 0.76312 0.0
H1488 H 0.37504 0.60536 0.76315 0.0
H1489 H 0.345 0.60291 0.79322 0.0
H1490 H 0.38827 0.62269 0.70743 0.0
H1491 H 0.39847 0.65503 0.68838 0.0
C1492 C 0.32532 0.32525 0.78502 0.0
C1493 C 0.35486 0.3266 0.78715 0.0
C1494 C 0.35475 0.36052 0.72952 0.0
C1495 C 0.32518 0.36016 0.72905 0.0
N1496 N 0.28223 0.34561 0.76112 0.0
N1497 N 0.39742 0.34887 0.76627 0.0
C1498 C 0.3105 0.34376 0.7585 0.0
C1499 C 0.36955 0.3451 0.76058 0.0
N1500 N 0.31134 0.30512 0.80663 0.0
N1501 N 0.36871 0.37557 0.70002 0.0
H1502 H 0.40883 0.33814 0.78875 0.0
H1503 H 0.40893 0.36412 0.75108 0.0
H1504 H 0.35871 0.38886 0.67914 0.0
H1505 H 0.39 0.37401 0.69498 0.0
H1506 H 0.29044 0.30054 0.80198 0.0
H1507 H 0.32094 0.29107 0.82664 0.0
H1508 H 0.2707 0.33709 0.78547 0.0
H1509 H 0.27024 0.35752 0.74092 0.0
C1510 C 0.6481 0.35588 0.73078 0.0
C1511 C 0.6502 0.32644 0.72919 0.0
C1512 C 0.68776 0.3279 0.78095 0.0
C1513 C 0.68411 0.35704 0.7853 0.0
N1514 N 0.65828 0.3984 0.76881 0.0
N1515 N 0.66861 0.28397 0.75803 0.0
C1516 C 0.66363 0.371 0.7613 0.0
C1517 C 0.66888 0.31233 0.75608 0.0
N1518 N 0.63142 0.36938 0.70285 0.0
N1519 N 0.71016 0.31525 0.79909 0.0
H1520 H 0.65547 0.27172 0.73991 0.0
H1521 H 0.67964 0.27264 0.78022 0.0
H1522 H 0.72494 0.32602 0.81655 0.0
H1523 H 0.71573 0.29471 0.79336 0.0
H1524 H 0.63138 0.39084 0.69894 0.0
H1525 H 0.61854 0.35889 0.68193 0.0
H1526 H 0.64172 0.40916 0.75559 0.0
H1527 H 0.66932 0.40998 0.79076 0.0
C1528 C 0.33712 0.31182 0.24998 0.0
C1529 C 0.35858 0.32511 0.2271 0.0
C1530 C 0.34753 0.36947 0.26178 0.0
C1531 C 0.32498 0.35647 0.28254 0.0
N1532 N 0.29513 0.31672 0.29118 0.0
N1533 N 0.38273 0.36691 0.20746 0.0
C1534 C 0.31898 0.328 0.27527 0.0
C1535 C 0.36333 0.35408 0.23192 0.0
N1536 N 0.33403 0.28365 0.24749 0.0
N1537 N 0.3544 0.3962 0.2717 0.0
H1538 H 0.39576 0.35603 0.18723 0.0
H1539 H 0.38505 0.38836 0.20561 0.0
H1540 H 0.34285 0.40817 0.29255 0.0
H1541 H 0.37237 0.40602 0.26134 0.0
H1542 H 0.32101 0.27223 0.26693 0.0
H1543 H 0.34606 0.27123 0.22797 0.0
H1544 H 0.28781 0.29706 0.28341 0.0
H1545 H 0.28113 0.32797 0.30937 0.0
C1546 C 0.67072 0.31235 0.25538 0.0
C1547 C 0.65118 0.32638 0.28094 0.0
C1548 C 0.66398 0.37079 0.24772 0.0
C1549 C 0.68497 0.35694 0.22461 0.0
N1550 N 0.71231 0.31572 0.21309 0.0
N1551 N 0.63095 0.36918 0.30513 0.0
C1552 C 0.68938 0.32801 0.23023 0.0
C1553 C 0.64836 0.35572 0.2782 0.0
N1554 N 0.67151 0.28397 0.25507 0.0
N1555 N 0.6583 0.39805 0.23946 0.0
H1556 H 0.61806 0.35867 0.32601 0.0
H1557 H 0.63029 0.39068 0.30832 0.0
H1558 H 0.66962 0.40974 0.21796 0.0
H1559 H 0.64134 0.40862 0.2518 0.0
H1560 H 0.68315 0.2725 0.23379 0.0
H1561 H 0.65874 0.27167 0.27373 0.0
H1562 H 0.71842 0.29545 0.21969 0.0
H1563 H 0.72696 0.32662 0.19555 0.0
C1564 C 0.66029 0.64184 0.2672 0.0
C1565 C 0.68523 0.65316 0.28358 0.0
C1566 C 0.67741 0.69629 0.24406 0.0
C1567 C 0.65319 0.6845 0.22601 0.0
N1568 N 0.62281 0.64537 0.21641 0.0
N1569 N 0.71954 0.68955 0.28449 0.0
C1570 C 0.64495 0.65705 0.23652 0.0
C1571 C 0.69428 0.68 0.27118 0.0
N1572 N 0.6509 0.61691 0.28195 0.0
N1573 N 0.68408 0.72331 0.23549 0.0
H1574 H 0.73218 0.67851 0.30506 0.0
H1575 H 0.72904 0.70742 0.27312 0.0
H1576 H 0.67297 0.73541 0.21432 0.0
H1577 H 0.69942 0.73442 0.25107 0.0
H1578 H 0.63145 0.60871 0.27498 0.0
H1579 H 0.66209 0.60495 0.30329 0.0
H1580 H 0.61739 0.62453 0.2189 0.0
H1581 H 0.61052 0.65637 0.19525 0.0
C1582 C 0.3116 0.67307 0.24822 0.0
C1583 C 0.32457 0.65114 0.22594 0.0
C1584 C 0.36887 0.66136 0.26135 0.0
C1585 C 0.35624 0.68436 0.28148 0.0
N1586 N 0.31721 0.71529 0.28866 0.0
N1587 N 0.36594 0.62593 0.20742 0.0
C1588 C 0.328 0.69102 0.27347 0.0
C1589 C 0.35337 0.64574 0.23141 0.0
N1590 N 0.28352 0.67673 0.24521 0.0
N1591 N 0.39535 0.65395 0.27189 0.0
H1592 H 0.35492 0.61309 0.18706 0.0
H1593 H 0.38734 0.62307 0.20608 0.0
H1594 H 0.40744 0.6654 0.29274 0.0
H1595 H 0.40484 0.63569 0.26201 0.0
H1596 H 0.27227 0.6902 0.26416 0.0
H1597 H 0.27096 0.66471 0.22585 0.0
H1598 H 0.29778 0.72299 0.28041 0.0
H1599 H 0.32871 0.72922 0.30664 0.0
loop_
_geom_bond_atom_site_label_1
_geom_bond_atom_site_label_2
_geom_bond_distance
_geom_bond_site_symmetry_2
_ccdc_geom_bond_type
Co0 O1 2.216 . S
Co0 O2 2.091 . S
Co0 O4 2.004 . S
Co0 O10 2.021 . S
Co0 O12 2.137 . S
Co0 O13 2.244 . S
O1 Co0 2.216 . S
O1 C8 1.247 . S
O2 Co0 2.091 . S
O2 C8 1.261 . S
C3 O12 1.247 . S
C3 O13 1.272 . S
O4 Co0 2.004 . S
O4 C9 1.259 . S
Co5 O6 2.061 . S
Co5 O11 2.052 . S
Co5 O13 2.135 . S
O6 Co5 2.061 . S
O6 C9 1.235 . S
C7 O10 1.238 . S
C7 O11 1.241 . S
C8 O1 1.247 . S
C8 O2 1.261 . S
C9 O4 1.259 . S
C9 O6 1.235 . S
O10 Co0 2.021 . S
O10 C7 1.238 . S
O11 Co5 2.052 . S
O11 C7 1.241 . S
O12 Co0 2.137 . S
O12 C3 1.247 . S
O13 Co0 2.244 . S
O13 C3 1.272 . S
O13 Co5 2.135 . S
Co14 O15 2.216 . S
Co14 O16 2.091 . S
Co14 O18 2.004 . S
Co14 O24 2.021 . S
Co14 O26 2.137 . S
Co14 O27 2.244 . S
O15 Co14 2.216 . S
O15 C22 1.247 . S
O16 Co14 2.091 . S
O16 C22 1.261 . S
C17 O26 1.247 . S
C17 O27 1.272 . S
O18 Co14 2.004 . S
O18 C23 1.259 . S
Co19 O20 2.061 . S
Co19 O25 2.052 . S
Co19 O27 2.135 . S
O20 Co19 2.061 . S
O20 C23 1.235 . S
C21 O24 1.238 . S
C21 O25 1.241 . S
C22 O15 1.247 . S
C22 O16 1.261 . S
C23 O18 1.259 . S
C23 O20 1.235 . S
O24 Co14 2.021 . S
O24 C21 1.238 . S
O25 Co19 2.052 . S
O25 C21 1.241 . S
O26 Co14 2.137 . S
O26 C17 1.247 . S
O27 Co14 2.244 . S
O27 C17 1.272 . S
O27 Co19 2.135 . S
Co28 O29 2.216 . S
Co28 O30 2.091 . S
Co28 O32 2.004 . S
Co28 O38 2.021 . S
Co28 O40 2.137 . S
Co28 O41 2.244 . S
O29 Co28 2.216 . S
O29 C36 1.247 . S
O30 Co28 2.091 . S
O30 C36 1.261 . S
C31 O40 1.247 . S
C31 O41 1.272 . S
O32 Co28 2.004 . S
O32 C37 1.259 . S
Co33 O34 2.061 . S
Co33 O39 2.052 . S
Co33 O41 2.135 . S
O34 Co33 2.061 . S
O34 C37 1.235 . S
C35 O38 1.238 . S
C35 O39 1.241 . S
C36 O29 1.247 . S
C36 O30 1.261 . S
C37 O32 1.259 . S
C37 O34 1.235 . S
O38 Co28 2.021 . S
O38 C35 1.238 . S
O39 Co33 2.052 . S
O39 C35 1.241 . S
O40 Co28 2.137 . S
O40 C31 1.247 . S
O41 Co28 2.244 . S
O41 C31 1.272 . S
O41 Co33 2.135 . S
Co42 O43 2.216 . S
Co42 O44 2.091 . S
Co42 O46 2.004 . S
Co42 O52 2.021 . S
Co42 O54 2.137 . S
Co42 O55 2.244 . S
O43 Co42 2.216 . S
O43 C50 1.247 . S
O44 Co42 2.091 . S
O44 C50 1.261 . S
C45 O54 1.247 . S
C45 O55 1.272 . S
O46 Co42 2.004 . S
O46 C51 1.259 . S
Co47 O48 2.061 . S
Co47 O53 2.052 . S
Co47 O55 2.135 . S
O48 Co47 2.061 . S
O48 C51 1.235 . S
C49 O52 1.238 . S
C49 O53 1.241 . S
C50 O43 1.247 . S
C50 O44 1.261 . S
C51 O46 1.259 . S
C51 O48 1.235 . S
O52 Co42 2.021 . S
O52 C49 1.238 . S
O53 Co47 2.052 . S
O53 C49 1.241 . S
O54 Co42 2.137 . S
O54 C45 1.247 . S
O55 Co42 2.244 . S
O55 C45 1.272 . S
O55 Co47 2.135 . S
Co56 O57 2.216 . S
Co56 O58 2.091 . S
Co56 O60 2.004 . S
Co56 O66 2.021 . S
Co56 O68 2.137 . S
Co56 O69 2.244 . S
O57 Co56 2.216 . S
O57 C64 1.247 . S
O58 Co56 2.091 . S
O58 C64 1.261 . S
C59 O68 1.247 . S
C59 O69 1.272 . S
O60 Co56 2.004 . S
O60 C65 1.259 . S
Co61 O62 2.061 . S
Co61 O67 2.052 . S
Co61 O69 2.135 . S
O62 Co61 2.061 . S
O62 C65 1.235 . S
C63 O66 1.238 . S
C63 O67 1.241 . S
C64 O57 1.247 . S
C64 O58 1.261 . S
C65 O60 1.259 . S
C65 O62 1.235 . S
O66 Co56 2.021 . S
O66 C63 1.238 . S
O67 Co61 2.052 . S
O67 C63 1.241 . S
O68 Co56 2.137 . S
O68 C59 1.247 . S
O69 Co56 2.244 . S
O69 C59 1.272 . S
O69 Co61 2.135 . S
Co70 O71 2.216 . S
Co70 O72 2.091 . S
Co70 O74 2.004 . S
Co70 O80 2.021 . S
Co70 O82 2.137 . S
Co70 O83 2.244 . S
O71 Co70 2.216 . S
O71 C78 1.247 . S
O72 Co70 2.091 . S
O72 C78 1.261 . S
C73 O82 1.247 . S
C73 O83 1.272 . S
O74 Co70 2.004 . S
O74 C79 1.259 . S
Co75 O76 2.061 . S
Co75 O81 2.052 . S
Co75 O83 2.135 . S
O76 Co75 2.061 . S
O76 C79 1.235 . S
C77 O80 1.238 . S
C77 O81 1.241 . S
C78 O71 1.247 . S
C78 O72 1.261 . S
C79 O74 1.259 . S
C79 O76 1.235 . S
O80 Co70 2.021 . S
O80 C77 1.238 . S
O81 Co75 2.052 . S
O81 C77 1.241 . S
O82 Co70 2.137 . S
O82 C73 1.247 . S
O83 Co70 2.244 . S
O83 C73 1.272 . S
O83 Co75 2.135 . S
Co84 O85 2.216 . S
Co84 O86 2.091 . S
Co84 O88 2.004 . S
Co84 O94 2.021 . S
Co84 O96 2.137 . S
Co84 O97 2.244 . S
O85 Co84 2.216 . S
O85 C92 1.247 . S
O86 Co84 2.091 . S
O86 C92 1.261 . S
C87 O96 1.247 . S
C87 O97 1.272 . S
O88 Co84 2.004 . S
O88 C93 1.259 . S
Co89 O90 2.061 . S
Co89 O95 2.052 . S
Co89 O97 2.135 . S
O90 Co89 2.061 . S
O90 C93 1.235 . S
C91 O94 1.238 . S
C91 O95 1.241 . S
C92 O85 1.247 . S
C92 O86 1.261 . S
C93 O88 1.259 . S
C93 O90 1.235 . S
O94 Co84 2.021 . S
O94 C91 1.238 . S
O95 Co89 2.052 . S
O95 C91 1.241 . S
O96 Co84 2.137 . S
O96 C87 1.247 . S
O97 Co84 2.244 . S
O97 C87 1.272 . S
O97 Co89 2.135 . S
Co98 O99 2.216 . S
Co98 O100 2.091 . S
Co98 O102 2.004 . S
Co98 O108 2.021 . S
Co98 O110 2.137 . S
Co98 O111 2.244 . S
O99 Co98 2.216 . S
O99 C106 1.247 . S
O100 Co98 2.091 . S
O100 C106 1.261 . S
C101 O110 1.247 . S
C101 O111 1.272 . S
O102 Co98 2.004 . S
O102 C107 1.259 . S
Co103 O104 2.061 . S
Co103 O109 2.052 . S
Co103 O111 2.135 . S
O104 Co103 2.061 . S
O104 C107 1.235 . S
C105 O108 1.238 . S
C105 O109 1.241 . S
C106 O99 1.247 . S
C106 O100 1.261 . S
C107 O102 1.259 . S
C107 O104 1.235 . S
O108 Co98 2.021 . S
O108 C105 1.238 . S
O109 Co103 2.052 . S
O109 C105 1.241 . S
O110 Co98 2.137 . S
O110 C101 1.247 . S
O111 Co98 2.244 . S
O111 C101 1.272 . S
O111 Co103 2.135 . S
Co112 O113 2.216 . S
Co112 O114 2.091 . S
Co112 O116 2.004 . S
Co112 O122 2.021 . S
Co112 O124 2.137 . S
Co112 O125 2.244 . S
O113 Co112 2.216 . S
O113 C120 1.247 . S
O114 Co112 2.091 . S
O114 C120 1.261 . S
C115 O124 1.247 . S
C115 O125 1.272 . S
O116 Co112 2.004 . S
O116 C121 1.259 . S
Co117 O118 2.061 . S
Co117 O123 2.052 . S
Co117 O125 2.135 . S
O118 Co117 2.061 . S
O118 C121 1.235 . S
C119 O122 1.238 . S
C119 O123 1.241 . S
C120 O113 1.247 . S
C120 O114 1.261 . S
C121 O116 1.259 . S
C121 O118 1.235 . S
O122 Co112 2.021 . S
O122 C119 1.238 . S
O123 Co117 2.052 . S
O123 C119 1.241 . S
O124 Co112 2.137 . S
O124 C115 1.247 . S
O125 Co112 2.244 . S
O125 C115 1.272 . S
O125 Co117 2.135 . S
Co126 O127 2.216 . S
Co126 O128 2.091 . S
Co126 O130 2.004 . S
Co126 O136 2.021 . S
Co126 O138 2.137 . S
Co126 O139 2.244 . S
O127 Co126 2.216 . S
O127 C134 1.247 . S
O128 Co126 2.091 . S
O128 C134 1.261 . S
C129 O138 1.247 . S
C129 O139 1.272 . S
O130 Co126 2.004 . S
O130 C135 1.259 . S
Co131 O132 2.061 . S
Co131 O137 2.052 . S
Co131 O139 2.135 . S
O132 Co131 2.061 . S
O132 C135 1.235 . S
C133 O136 1.238 . S
C133 O137 1.241 . S
C134 O127 1.247 . S
C134 O128 1.261 . S
C135 O130 1.259 . S
C135 O132 1.235 . S
O136 Co126 2.021 . S
O136 C133 1.238 . S
O137 Co131 2.052 . S
O137 C133 1.241 . S
O138 Co126 2.137 . S
O138 C129 1.247 . S
O139 Co126 2.244 . S
O139 C129 1.272 . S
O139 Co131 2.135 . S
Co140 O141 2.216 . S
Co140 O142 2.091 . S
Co140 O144 2.004 . S
Co140 O150 2.021 . S
Co140 O152 2.137 . S
Co140 O153 2.244 . S
O141 Co140 2.216 . S
O141 C148 1.247 . S
O142 Co140 2.091 . S
O142 C148 1.261 . S
C143 O152 1.247 . S
C143 O153 1.272 . S
O144 Co140 2.004 . S
O144 C149 1.259 . S
Co145 O146 2.061 . S
Co145 O151 2.052 . S
Co145 O153 2.135 . S
O146 Co145 2.061 . S
O146 C149 1.235 . S
C147 O150 1.238 . S
C147 O151 1.241 . S
C148 O141 1.247 . S
C148 O142 1.261 . S
C149 O144 1.259 . S
C149 O146 1.235 . S
O150 Co140 2.021 . S
O150 C147 1.238 . S
O151 Co145 2.052 . S
O151 C147 1.241 . S
O152 Co140 2.137 . S
O152 C143 1.247 . S
O153 Co140 2.244 . S
O153 C143 1.272 . S
O153 Co145 2.135 . S
Co154 O155 2.216 . S
Co154 O156 2.091 . S
Co154 O158 2.004 . S
Co154 O164 2.021 . S
Co154 O166 2.137 . S
Co154 O167 2.244 . S
O155 Co154 2.216 . S
O155 C162 1.247 . S
O156 Co154 2.091 . S
O156 C162 1.261 . S
C157 O166 1.247 . S
C157 O167 1.272 . S
O158 Co154 2.004 . S
O158 C163 1.259 . S
Co159 O160 2.061 . S
Co159 O165 2.052 . S
Co159 O167 2.135 . S
O160 Co159 2.061 . S
O160 C163 1.235 . S
C161 O164 1.238 . S
C161 O165 1.241 . S
C162 O155 1.247 . S
C162 O156 1.261 . S
C163 O158 1.259 . S
C163 O160 1.235 . S
O164 Co154 2.021 . S
O164 C161 1.238 . S
O165 Co159 2.052 . S
O165 C161 1.241 . S
O166 Co154 2.137 . S
O166 C157 1.247 . S
O167 Co154 2.244 . S
O167 C157 1.272 . S
O167 Co159 2.135 . S
Co168 O169 2.216 . S
Co168 O170 2.091 . S
Co168 O172 2.004 . S
Co168 O178 2.021 . S
Co168 O180 2.137 . S
Co168 O181 2.244 . S
O169 Co168 2.216 . S
O169 C176 1.247 . S
O170 Co168 2.091 . S
O170 C176 1.261 . S
C171 O180 1.247 . S
C171 O181 1.272 . S
O172 Co168 2.004 . S
O172 C177 1.259 . S
Co173 O174 2.061 . S
Co173 O179 2.052 . S
Co173 O181 2.135 . S
O174 Co173 2.061 . S
O174 C177 1.235 . S
C175 O178 1.238 . S
C175 O179 1.241 . S
C176 O169 1.247 . S
C176 O170 1.261 . S
C177 O172 1.259 . S
C177 O174 1.235 . S
O178 Co168 2.021 . S
O178 C175 1.238 . S
O179 Co173 2.052 . S
O179 C175 1.241 . S
O180 Co168 2.137 . S
O180 C171 1.247 . S
O181 Co168 2.244 . S
O181 C171 1.272 . S
O181 Co173 2.135 . S
Co182 O183 2.216 . S
Co182 O184 2.091 . S
Co182 O186 2.004 . S
Co182 O192 2.021 . S
Co182 O194 2.137 . S
Co182 O195 2.244 . S
O183 Co182 2.216 . S
O183 C190 1.247 . S
O184 Co182 2.091 . S
O184 C190 1.261 . S
C185 O194 1.247 . S
C185 O195 1.272 . S
O186 Co182 2.004 . S
O186 C191 1.259 . S
Co187 O188 2.061 . S
Co187 O193 2.052 . S
Co187 O195 2.135 . S
O188 Co187 2.061 . S
O188 C191 1.235 . S
C189 O192 1.238 . S
C189 O193 1.241 . S
C190 O183 1.247 . S
C190 O184 1.261 . S
C191 O186 1.259 . S
C191 O188 1.235 . S
O192 Co182 2.021 . S
O192 C189 1.238 . S
O193 Co187 2.052 . S
O193 C189 1.241 . S
O194 Co182 2.137 . S
O194 C185 1.247 . S
O195 Co182 2.244 . S
O195 C185 1.272 . S
O195 Co187 2.135 . S
Co196 O197 2.216 . S
Co196 O198 2.091 . S
Co196 O200 2.004 . S
Co196 O206 2.021 . S
Co196 O208 2.137 . S
Co196 O209 2.244 . S
O197 Co196 2.216 . S
O197 C204 1.247 . S
O198 Co196 2.091 . S
O198 C204 1.261 . S
C199 O208 1.247 . S
C199 O209 1.272 . S
O200 Co196 2.004 . S
O200 C205 1.259 . S
Co201 O202 2.061 . S
Co201 O207 2.052 . S
Co201 O209 2.135 . S
O202 Co201 2.061 . S
O202 C205 1.235 . S
C203 O206 1.238 . S
C203 O207 1.241 . S
C204 O197 1.247 . S
C204 O198 1.261 . S
C205 O200 1.259 . S
C205 O202 1.235 . S
O206 Co196 2.021 . S
O206 C203 1.238 . S
O207 Co201 2.052 . S
O207 C203 1.241 . S
O208 Co196 2.137 . S
O208 C199 1.247 . S
O209 Co196 2.244 . S
O209 C199 1.272 . S
O209 Co201 2.135 . S
Co210 O211 2.216 . S
Co210 O212 2.091 . S
Co210 O214 2.004 . S
Co210 O220 2.021 . S
Co210 O222 2.137 . S
Co210 O223 2.244 . S
O211 Co210 2.216 . S
O211 C218 1.247 . S
O212 Co210 2.091 . S
O212 C218 1.261 . S
C213 O222 1.247 . S
C213 O223 1.272 . S
O214 Co210 2.004 . S
O214 C219 1.259 . S
Co215 O216 2.061 . S
Co215 O221 2.052 . S
Co215 O223 2.135 . S
O216 Co215 2.061 . S
O216 C219 1.235 . S
C217 O220 1.238 . S
C217 O221 1.241 . S
C218 O211 1.247 . S
C218 O212 1.261 . S
C219 O214 1.259 . S
C219 O216 1.235 . S
O220 Co210 2.021 . S
O220 C217 1.238 . S
O221 Co215 2.052 . S
O221 C217 1.241 . S
O222 Co210 2.137 . S
O222 C213 1.247 . S
O223 Co210 2.244 . S
O223 C213 1.272 . S
O223 Co215 2.135 . S
Co224 O225 2.216 . S
Co224 O226 2.091 . S
Co224 O228 2.004 . S
Co224 O234 2.021 . S
Co224 O236 2.137 . S
Co224 O237 2.244 . S
O225 Co224 2.216 . S
O225 C232 1.247 . S
O226 Co224 2.091 . S
O226 C232 1.261 . S
C227 O236 1.247 . S
C227 O237 1.272 . S
O228 Co224 2.004 . S
O228 C233 1.259 . S
Co229 O230 2.061 . S
Co229 O235 2.052 . S
Co229 O237 2.135 . S
O230 Co229 2.061 . S
O230 C233 1.235 . S
C231 O234 1.238 . S
C231 O235 1.241 . S
C232 O225 1.247 . S
C232 O226 1.261 . S
C233 O228 1.259 . S
C233 O230 1.235 . S
O234 Co224 2.021 . S
O234 C231 1.238 . S
O235 Co229 2.052 . S
O235 C231 1.241 . S
O236 Co224 2.137 . S
O236 C227 1.247 . S
O237 Co224 2.244 . S
O237 C227 1.272 . S
O237 Co229 2.135 . S
Co238 O239 2.216 . S
Co238 O240 2.091 . S
Co238 O242 2.004 . S
Co238 O248 2.021 . S
Co238 O250 2.137 . S
Co238 O251 2.244 . S
O239 Co238 2.216 . S
O239 C246 1.247 . S
O240 Co238 2.091 . S
O240 C246 1.261 . S
C241 O250 1.247 . S
C241 O251 1.272 . S
O242 Co238 2.004 . S
O242 C247 1.259 . S
Co243 O244 2.061 . S
Co243 O249 2.052 . S
Co243 O251 2.135 . S
O244 Co243 2.061 . S
O244 C247 1.235 . S
C245 O248 1.238 . S
C245 O249 1.241 . S
C246 O239 1.247 . S
C246 O240 1.261 . S
C247 O242 1.259 . S
C247 O244 1.235 . S
O248 Co238 2.021 . S
O248 C245 1.238 . S
O249 Co243 2.052 . S
O249 C245 1.241 . S
O250 Co238 2.137 . S
O250 C241 1.247 . S
O251 Co238 2.244 . S
O251 C241 1.272 . S
O251 Co243 2.135 . S
Co252 O253 2.216 . S
Co252 O254 2.091 . S
Co252 O256 2.004 . S
Co252 O262 2.021 . S
Co252 O264 2.137 . S
Co252 O265 2.244 . S
O253 Co252 2.216 . S
O253 C260 1.247 . S
O254 Co252 2.091 . S
O254 C260 1.261 . S
C255 O264 1.247 . S
C255 O265 1.272 . S
O256 Co252 2.004 . S
O256 C261 1.259 . S
Co257 O258 2.061 . S
Co257 O263 2.052 . S
Co257 O265 2.135 . S
O258 Co257 2.061 . S
O258 C261 1.235 . S
C259 O262 1.238 . S
C259 O263 1.241 . S
C260 O253 1.247 . S
C260 O254 1.261 . S
C261 O256 1.259 . S
C261 O258 1.235 . S
O262 Co252 2.021 . S
O262 C259 1.238 . S
O263 Co257 2.052 . S
O263 C259 1.241 . S
O264 Co252 2.137 . S
O264 C255 1.247 . S
O265 Co252 2.244 . S
O265 C255 1.272 . S
O265 Co257 2.135 . S
Co266 O267 2.216 . S
Co266 O268 2.091 . S
Co266 O270 2.004 . S
Co266 O276 2.021 . S
Co266 O278 2.137 . S
Co266 O279 2.244 . S
O267 Co266 2.216 . S
O267 C274 1.247 . S
O268 Co266 2.091 . S
O268 C274 1.261 . S
C269 O278 1.247 . S
C269 O279 1.272 . S
O270 Co266 2.004 . S
O270 C275 1.259 . S
Co271 O272 2.061 . S
Co271 O277 2.052 . S
Co271 O279 2.135 . S
O272 Co271 2.061 . S
O272 C275 1.235 . S
C273 O276 1.238 . S
C273 O277 1.241 . S
C274 O267 1.247 . S
C274 O268 1.261 . S
C275 O270 1.259 . S
C275 O272 1.235 . S
O276 Co266 2.021 . S
O276 C273 1.238 . S
O277 Co271 2.052 . S
O277 C273 1.241 . S
O278 Co266 2.137 . S
O278 C269 1.247 . S
O279 Co266 2.244 . S
O279 C269 1.272 . S
O279 Co271 2.135 . S
Co280 O281 2.216 . S
Co280 O282 2.091 . S
Co280 O284 2.004 . S
Co280 O290 2.021 . S
Co280 O292 2.137 . S
Co280 O293 2.244 . S
O281 Co280 2.216 . S
O281 C288 1.247 . S
O282 Co280 2.091 . S
O282 C288 1.261 . S
C283 O292 1.247 . S
C283 O293 1.272 . S
O284 Co280 2.004 . S
O284 C289 1.259 . S
Co285 O286 2.061 . S
Co285 O291 2.052 . S
Co285 O293 2.135 . S
O286 Co285 2.061 . S
O286 C289 1.235 . S
C287 O290 1.238 . S
C287 O291 1.241 . S
C288 O281 1.247 . S
C288 O282 1.261 . S
C289 O284 1.259 . S
C289 O286 1.235 . S
O290 Co280 2.021 . S
O290 C287 1.238 . S
O291 Co285 2.052 . S
O291 C287 1.241 . S
O292 Co280 2.137 . S
O292 C283 1.247 . S
O293 Co280 2.244 . S
O293 C283 1.272 . S
O293 Co285 2.135 . S
Co294 O295 2.216 . S
Co294 O296 2.091 . S
Co294 O298 2.004 . S
Co294 O304 2.021 . S
Co294 O306 2.137 . S
Co294 O307 2.244 . S
O295 Co294 2.216 . S
O295 C302 1.247 . S
O296 Co294 2.091 . S
O296 C302 1.261 . S
C297 O306 1.247 . S
C297 O307 1.272 . S
O298 Co294 2.004 . S
O298 C303 1.259 . S
Co299 O300 2.061 . S
Co299 O305 2.052 . S
Co299 O307 2.135 . S
O300 Co299 2.061 . S
O300 C303 1.235 . S
C301 O304 1.238 . S
C301 O305 1.241 . S
C302 O295 1.247 . S
C302 O296 1.261 . S
C303 O298 1.259 . S
C303 O300 1.235 . S
O304 Co294 2.021 . S
O304 C301 1.238 . S
O305 Co299 2.052 . S
O305 C301 1.241 . S
O306 Co294 2.137 . S
O306 C297 1.247 . S
O307 Co294 2.244 . S
O307 C297 1.272 . S
O307 Co299 2.135 . S
Co308 O309 2.216 . S
Co308 O310 2.091 . S
Co308 O312 2.004 . S
Co308 O318 2.021 . S
Co308 O320 2.137 . S
Co308 O321 2.244 . S
O309 Co308 2.216 . S
O309 C316 1.247 . S
O310 Co308 2.091 . S
O310 C316 1.261 . S
C311 O320 1.247 . S
C311 O321 1.272 . S
O312 Co308 2.004 . S
O312 C317 1.259 . S
Co313 O314 2.061 . S
Co313 O319 2.052 . S
Co313 O321 2.135 . S
O314 Co313 2.061 . S
O314 C317 1.235 . S
C315 O318 1.238 . S
C315 O319 1.241 . S
C316 O309 1.247 . S
C316 O310 1.261 . S
C317 O312 1.259 . S
C317 O314 1.235 . S
O318 Co308 2.021 . S
O318 C315 1.238 . S
O319 Co313 2.052 . S
O319 C315 1.241 . S
O320 Co308 2.137 . S
O320 C311 1.247 . S
O321 Co308 2.244 . S
O321 C311 1.272 . S
O321 Co313 2.135 . S
Co322 O323 2.216 . S
Co322 O324 2.091 . S
Co322 O326 2.004 . S
Co322 O332 2.021 . S
Co322 O334 2.137 . S
Co322 O335 2.244 . S
O323 Co322 2.216 . S
O323 C330 1.247 . S
O324 Co322 2.091 . S
O324 C330 1.261 . S
C325 O334 1.247 . S
C325 O335 1.272 . S
O326 Co322 2.004 . S
O326 C331 1.259 . S
Co327 O328 2.061 . S
Co327 O333 2.052 . S
Co327 O335 2.135 . S
O328 Co327 2.061 . S
O328 C331 1.235 . S
C329 O332 1.238 . S
C329 O333 1.241 . S
C330 O323 1.247 . S
C330 O324 1.261 . S
C331 O326 1.259 . S
C331 O328 1.235 . S
O332 Co322 2.021 . S
O332 C329 1.238 . S
O333 Co327 2.052 . S
O333 C329 1.241 . S
O334 Co322 2.137 . S
O334 C325 1.247 . S
O335 Co322 2.244 . S
O335 C325 1.272 . S
O335 Co327 2.135 . S
Co336 O337 2.216 . S
Co336 O338 2.091 . S
Co336 O340 2.004 . S
Co336 O346 2.021 . S
Co336 O348 2.137 . S
Co336 O349 2.244 . S
O337 Co336 2.216 . S
O337 C344 1.247 . S
O338 Co336 2.091 . S
O338 C344 1.261 . S
C339 O348 1.247 . S
C339 O349 1.272 . S
O340 Co336 2.004 . S
O340 C345 1.259 . S
Co341 O342 2.061 . S
Co341 O347 2.052 . S
Co341 O349 2.135 . S
O342 Co341 2.061 . S
O342 C345 1.235 . S
C343 O346 1.238 . S
C343 O347 1.241 . S
C344 O337 1.247 . S
C344 O338 1.261 . S
C345 O340 1.259 . S
C345 O342 1.235 . S
O346 Co336 2.021 . S
O346 C343 1.238 . S
O347 Co341 2.052 . S
O347 C343 1.241 . S
O348 Co336 2.137 . S
O348 C339 1.247 . S
O349 Co336 2.244 . S
O349 C339 1.272 . S
O349 Co341 2.135 . S
Co350 O351 2.216 . S
Co350 O352 2.091 . S
Co350 O354 2.004 . S
Co350 O360 2.021 . S
Co350 O362 2.137 . S
Co350 O363 2.244 . S
O351 Co350 2.216 . S
O351 C358 1.247 . S
O352 Co350 2.091 . S
O352 C358 1.261 . S
C353 O362 1.247 . S
C353 O363 1.272 . S
O354 Co350 2.004 . S
O354 C359 1.259 . S
Co355 O356 2.061 . S
Co355 O361 2.052 . S
Co355 O363 2.135 . S
O356 Co355 2.061 . S
O356 C359 1.235 . S
C357 O360 1.238 . S
C357 O361 1.241 . S
C358 O351 1.247 . S
C358 O352 1.261 . S
C359 O354 1.259 . S
C359 O356 1.235 . S
O360 Co350 2.021 . S
O360 C357 1.238 . S
O361 Co355 2.052 . S
O361 C357 1.241 . S
O362 Co350 2.137 . S
O362 C353 1.247 . S
O363 Co350 2.244 . S
O363 C353 1.272 . S
O363 Co355 2.135 . S
Co364 O365 2.216 . S
Co364 O366 2.091 . S
Co364 O368 2.004 . S
Co364 O374 2.021 . S
Co364 O376 2.137 . S
Co364 O377 2.244 . S
O365 Co364 2.216 . S
O365 C372 1.247 . S
O366 Co364 2.091 . S
O366 C372 1.261 . S
C367 O376 1.247 . S
C367 O377 1.272 . S
O368 Co364 2.004 . S
O368 C373 1.259 . S
Co369 O370 2.061 . S
Co369 O375 2.052 . S
Co369 O377 2.135 . S
O370 Co369 2.061 . S
O370 C373 1.235 . S
C371 O374 1.238 . S
C371 O375 1.241 . S
C372 O365 1.247 . S
C372 O366 1.261 . S
C373 O368 1.259 . S
C373 O370 1.235 . S
O374 Co364 2.021 . S
O374 C371 1.238 . S
O375 Co369 2.052 . S
O375 C371 1.241 . S
O376 Co364 2.137 . S
O376 C367 1.247 . S
O377 Co364 2.244 . S
O377 C367 1.272 . S
O377 Co369 2.135 . S
Co378 O379 2.216 . S
Co378 O380 2.091 . S
Co378 O382 2.004 . S
Co378 O388 2.021 . S
Co378 O390 2.137 . S
Co378 O391 2.244 . S
O379 Co378 2.216 . S
O379 C386 1.247 . S
O380 Co378 2.091 . S
O380 C386 1.261 . S
C381 O390 1.247 . S
C381 O391 1.272 . S
O382 Co378 2.004 . S
O382 C387 1.259 . S
Co383 O384 2.061 . S
Co383 O389 2.052 . S
Co383 O391 2.135 . S
O384 Co383 2.061 . S
O384 C387 1.235 . S
C385 O388 1.238 . S
C385 O389 1.241 . S
C386 O379 1.247 . S
C386 O380 1.261 . S
C387 O382 1.259 . S
C387 O384 1.235 . S
O388 Co378 2.021 . S
O388 C385 1.238 . S
O389 Co383 2.052 . S
O389 C385 1.241 . S
O390 Co378 2.137 . S
O390 C381 1.247 . S
O391 Co378 2.244 . S
O391 C381 1.272 . S
O391 Co383 2.135 . S
Co392 O393 2.216 . S
Co392 O394 2.091 . S
Co392 O396 2.004 . S
Co392 O402 2.021 . S
Co392 O404 2.137 . S
Co392 O405 2.244 . S
O393 Co392 2.216 . S
O393 C400 1.247 . S
O394 Co392 2.091 . S
O394 C400 1.261 . S
C395 O404 1.247 . S
C395 O405 1.272 . S
O396 Co392 2.004 . S
O396 C401 1.259 . S
Co397 O398 2.061 . S
Co397 O403 2.052 . S
Co397 O405 2.135 . S
O398 Co397 2.061 . S
O398 C401 1.235 . S
C399 O402 1.238 . S
C399 O403 1.241 . S
C400 O393 1.247 . S
C400 O394 1.261 . S
C401 O396 1.259 . S
C401 O398 1.235 . S
O402 Co392 2.021 . S
O402 C399 1.238 . S
O403 Co397 2.052 . S
O403 C399 1.241 . S
O404 Co392 2.137 . S
O404 C395 1.247 . S
O405 Co392 2.244 . S
O405 C395 1.272 . S
O405 Co397 2.135 . S
Co406 O407 2.216 . S
Co406 O408 2.091 . S
Co406 O410 2.004 . S
Co406 O416 2.021 . S
Co406 O418 2.137 . S
Co406 O419 2.244 . S
O407 Co406 2.216 . S
O407 C414 1.247 . S
O408 Co406 2.091 . S
O408 C414 1.261 . S
C409 O418 1.247 . S
C409 O419 1.272 . S
O410 Co406 2.004 . S
O410 C415 1.259 . S
Co411 O412 2.061 . S
Co411 O417 2.052 . S
Co411 O419 2.135 . S
O412 Co411 2.061 . S
O412 C415 1.235 . S
C413 O416 1.238 . S
C413 O417 1.241 . S
C414 O407 1.247 . S
C414 O408 1.261 . S
C415 O410 1.259 . S
C415 O412 1.235 . S
O416 Co406 2.021 . S
O416 C413 1.238 . S
O417 Co411 2.052 . S
O417 C413 1.241 . S
O418 Co406 2.137 . S
O418 C409 1.247 . S
O419 Co406 2.244 . S
O419 C409 1.272 . S
O419 Co411 2.135 . S
Co420 O421 2.216 . S
Co420 O422 2.091 . S
Co420 O424 2.004 . S
Co420 O430 2.021 . S
Co420 O432 2.137 . S
Co420 O433 2.244 . S
O421 Co420 2.216 . S
O421 C428 1.247 . S
O422 Co420 2.091 . S
O422 C428 1.261 . S
C423 O432 1.247 . S
C423 O433 1.272 . S
O424 Co420 2.004 . S
O424 C429 1.259 . S
Co425 O426 2.061 . S
Co425 O431 2.052 . S
Co425 O433 2.135 . S
O426 Co425 2.061 . S
O426 C429 1.235 . S
C427 O430 1.238 . S
C427 O431 1.241 . S
C428 O421 1.247 . S
C428 O422 1.261 . S
C429 O424 1.259 . S
C429 O426 1.235 . S
O430 Co420 2.021 . S
O430 C427 1.238 . S
O431 Co425 2.052 . S
O431 C427 1.241 . S
O432 Co420 2.137 . S
O432 C423 1.247 . S
O433 Co420 2.244 . S
O433 C423 1.272 . S
O433 Co425 2.135 . S
Co434 O435 2.216 . S
Co434 O436 2.091 . S
Co434 O438 2.004 . S
Co434 O444 2.021 . S
Co434 O446 2.137 . S
Co434 O447 2.244 . S
O435 Co434 2.216 . S
O435 C442 1.247 . S
O436 Co434 2.091 . S
O436 C442 1.261 . S
C437 O446 1.247 . S
C437 O447 1.272 . S
O438 Co434 2.004 . S
O438 C443 1.259 . S
Co439 O440 2.061 . S
Co439 O445 2.052 . S
Co439 O447 2.135 . S
O440 Co439 2.061 . S
O440 C443 1.235 . S
C441 O444 1.238 . S
C441 O445 1.241 . S
C442 O435 1.247 . S
C442 O436 1.261 . S
C443 O438 1.259 . S
C443 O440 1.235 . S
O444 Co434 2.021 . S
O444 C441 1.238 . S
O445 Co439 2.052 . S
O445 C441 1.241 . S
O446 Co434 2.137 . S
O446 C437 1.247 . S
O447 Co434 2.244 . S
O447 C437 1.272 . S
O447 Co439 2.135 . S
C448 C449 1.363 . S
C448 C454 1.379 . S
C448 N456 1.356 . S
C449 C448 1.363 . S
C449 C455 1.363 . S
C450 C451 1.363 . S
C450 C455 1.379 . S
C450 N457 1.356 . S
C451 C450 1.363 . S
C451 C454 1.363 . S
N452 C454 1.356 . S
N452 H464 0.984 . S
N452 H465 0.985 . S
N453 C455 1.356 . S
N453 H458 0.984 . S
N453 H459 0.985 . S
C454 C448 1.379 . S
C454 C451 1.363 . S
C454 N452 1.356 . S
C455 C449 1.363 . S
C455 C450 1.379 . S
C455 N453 1.356 . S
N456 C448 1.356 . S
N456 H462 0.984 . S
N456 H463 0.984 . S
N457 C450 1.356 . S
N457 H460 0.984 . S
N457 H461 0.985 . S
H458 N453 0.984 . S
H459 N453 0.985 . S
H460 N457 0.984 . S
H461 N457 0.985 . S
H462 N456 0.984 . S
H463 N456 0.984 . S
H464 N452 0.984 . S
H465 N452 0.985 . S
C466 C467 1.363 . S
C466 C472 1.379 . S
C466 N474 1.356 . S
C467 C466 1.363 . S
C467 C473 1.363 . S
C468 C469 1.363 . S
C468 C473 1.379 . S
C468 N475 1.356 . S
C469 C468 1.363 . S
C469 C472 1.363 . S
N470 C472 1.356 . S
N470 H482 0.984 . S
N470 H483 0.985 . S
N471 C473 1.356 . S
N471 H476 0.984 . S
N471 H477 0.985 . S
C472 C466 1.379 . S
C472 C469 1.363 . S
C472 N470 1.356 . S
C473 C467 1.363 . S
C473 C468 1.379 . S
C473 N471 1.356 . S
N474 C466 1.356 . S
N474 H480 0.984 . S
N474 H481 0.984 . S
N475 C468 1.356 . S
N475 H478 0.984 . S
N475 H479 0.985 . S
H476 N471 0.984 . S
H477 N471 0.985 . S
H478 N475 0.984 . S
H479 N475 0.985 . S
H480 N474 0.984 . S
H481 N474 0.984 . S
H482 N470 0.984 . S
H483 N470 0.985 . S
C484 C485 1.363 . S
C484 C490 1.379 . S
C484 N492 1.356 . S
C485 C484 1.363 . S
C485 C491 1.363 . S
C486 C487 1.363 . S
C486 C491 1.379 . S
C486 N493 1.356 . S
C487 C486 1.363 . S
C487 C490 1.363 . S
N488 C490 1.356 . S
N488 H500 0.984 . S
N488 H501 0.985 . S
N489 C491 1.356 . S
N489 H494 0.984 . S
N489 H495 0.985 . S
C490 C484 1.379 . S
C490 C487 1.363 . S
C490 N488 1.356 . S
C491 C485 1.363 . S
C491 C486 1.379 . S
C491 N489 1.356 . S
N492 C484 1.356 . S
N492 H498 0.984 . S
N492 H499 0.984 . S
N493 C486 1.356 . S
N493 H496 0.984 . S
N493 H497 0.985 . S
H494 N489 0.984 . S
H495 N489 0.985 . S
H496 N493 0.984 . S
H497 N493 0.985 . S
H498 N492 0.984 . S
H499 N492 0.984 . S
H500 N488 0.984 . S
H501 N488 0.985 . S
C502 C503 1.363 . S
C502 C508 1.379 . S
C502 N510 1.356 . S
C503 C502 1.363 . S
C503 C509 1.363 . S
C504 C505 1.363 . S
C504 C509 1.379 . S
C504 N511 1.356 . S
C505 C504 1.363 . S
C505 C508 1.363 . S
N506 C508 1.356 . S
N506 H518 0.984 . S
N506 H519 0.985 . S
N507 C509 1.356 . S
N507 H512 0.984 . S
N507 H513 0.985 . S
C508 C502 1.379 . S
C508 C505 1.363 . S
C508 N506 1.356 . S
C509 C503 1.363 . S
C509 C504 1.379 . S
C509 N507 1.356 . S
N510 C502 1.356 . S
N510 H516 0.984 . S
N510 H517 0.984 . S
N511 C504 1.356 . S
N511 H514 0.984 . S
N511 H515 0.985 . S
H512 N507 0.984 . S
H513 N507 0.985 . S
H514 N511 0.984 . S
H515 N511 0.985 . S
H516 N510 0.984 . S
H517 N510 0.984 . S
H518 N506 0.984 . S
H519 N506 0.985 . S
C520 C521 1.363 . S
C520 C526 1.379 . S
C520 N528 1.356 . S
C521 C520 1.363 . S
C521 C527 1.363 . S
C522 C523 1.363 . S
C522 C527 1.379 . S
C522 N529 1.356 . S
C523 C522 1.363 . S
C523 C526 1.363 . S
N524 C526 1.356 . S
N524 H536 0.984 . S
N524 H537 0.985 . S
N525 C527 1.356 . S
N525 H530 0.984 . S
N525 H531 0.985 . S
C526 C520 1.379 . S
C526 C523 1.363 . S
C526 N524 1.356 . S
C527 C521 1.363 . S
C527 C522 1.379 . S
C527 N525 1.356 . S
N528 C520 1.356 . S
N528 H534 0.984 . S
N528 H535 0.984 . S
N529 C522 1.356 . S
N529 H532 0.984 . S
N529 H533 0.985 . S
H530 N525 0.984 . S
H531 N525 0.985 . S
H532 N529 0.984 . S
H533 N529 0.985 . S
H534 N528 0.984 . S
H535 N528 0.984 . S
H536 N524 0.984 . S
H537 N524 0.985 . S
C538 C539 1.363 . S
C538 C544 1.379 . S
C538 N546 1.356 . S
C539 C538 1.363 . S
C539 C545 1.363 . S
C540 C541 1.363 . S
C540 C545 1.379 . S
C540 N547 1.356 . S
C541 C540 1.363 . S
C541 C544 1.363 . S
N542 C544 1.356 . S
N542 H554 0.984 . S
N542 H555 0.985 . S
N543 C545 1.356 . S
N543 H548 0.984 . S
N543 H549 0.985 . S
C544 C538 1.379 . S
C544 C541 1.363 . S
C544 N542 1.356 . S
C545 C539 1.363 . S
C545 C540 1.379 . S
C545 N543 1.356 . S
N546 C538 1.356 . S
N546 H552 0.984 . S
N546 H553 0.984 . S
N547 C540 1.356 . S
N547 H550 0.984 . S
N547 H551 0.985 . S
H548 N543 0.984 . S
H549 N543 0.985 . S
H550 N547 0.984 . S
H551 N547 0.985 . S
H552 N546 0.984 . S
H553 N546 0.984 . S
H554 N542 0.984 . S
H555 N542 0.985 . S
C556 C557 1.363 . S
C556 C562 1.379 . S
C556 N564 1.356 . S
C557 C556 1.363 . S
C557 C563 1.363 . S
C558 C559 1.363 . S
C558 C563 1.379 . S
C558 N565 1.356 . S
C559 C558 1.363 . S
C559 C562 1.363 . S
N560 C562 1.356 . S
N560 H572 0.984 . S
N560 H573 0.985 . S
N561 C563 1.356 . S
N561 H566 0.984 . S
N561 H567 0.985 . S
C562 C556 1.379 . S
C562 C559 1.363 . S
C562 N560 1.356 . S
C563 C557 1.363 . S
C563 C558 1.379 . S
C563 N561 1.356 . S
N564 C556 1.356 . S
N564 H570 0.984 . S
N564 H571 0.984 . S
N565 C558 1.356 . S
N565 H568 0.984 . S
N565 H569 0.985 . S
H566 N561 0.984 . S
H567 N561 0.985 . S
H568 N565 0.984 . S
H569 N565 0.985 . S
H570 N564 0.984 . S
H571 N564 0.984 . S
H572 N560 0.984 . S
H573 N560 0.985 . S
C574 C575 1.363 . S
C574 C580 1.379 . S
C574 N582 1.356 . S
C575 C574 1.363 . S
C575 C581 1.363 . S
C576 C577 1.363 . S
C576 C581 1.379 . S
C576 N583 1.356 . S
C577 C576 1.363 . S
C577 C580 1.363 . S
N578 C580 1.356 . S
N578 H590 0.984 . S
N578 H591 0.985 . S
N579 C581 1.356 . S
N579 H584 0.984 . S
N579 H585 0.985 . S
C580 C574 1.379 . S
C580 C577 1.363 . S
C580 N578 1.356 . S
C581 C575 1.363 . S
C581 C576 1.379 . S
C581 N579 1.356 . S
N582 C574 1.356 . S
N582 H588 0.984 . S
N582 H589 0.984 . S
N583 C576 1.356 . S
N583 H586 0.984 . S
N583 H587 0.985 . S
H584 N579 0.984 . S
H585 N579 0.985 . S
H586 N583 0.984 . S
H587 N583 0.985 . S
H588 N582 0.984 . S
H589 N582 0.984 . S
H590 N578 0.984 . S
H591 N578 0.985 . S
C592 C593 1.363 . S
C592 C598 1.379 . S
C592 N600 1.356 . S
C593 C592 1.363 . S
C593 C599 1.363 . S
C594 C595 1.363 . S
C594 C599 1.379 . S
C594 N601 1.356 . S
C595 C594 1.363 . S
C595 C598 1.363 . S
N596 C598 1.356 . S
N596 H608 0.984 . S
N596 H609 0.985 . S
N597 C599 1.356 . S
N597 H602 0.984 . S
N597 H603 0.985 . S
C598 C592 1.379 . S
C598 C595 1.363 . S
C598 N596 1.356 . S
C599 C593 1.363 . S
C599 C594 1.379 . S
C599 N597 1.356 . S
N600 C592 1.356 . S
N600 H606 0.984 . S
N600 H607 0.984 . S
N601 C594 1.356 . S
N601 H604 0.984 . S
N601 H605 0.985 . S
H602 N597 0.984 . S
H603 N597 0.985 . S
H604 N601 0.984 . S
H605 N601 0.985 . S
H606 N600 0.984 . S
H607 N600 0.984 . S
H608 N596 0.984 . S
H609 N596 0.985 . S
C610 C611 1.363 . S
C610 C616 1.379 . S
C610 N618 1.356 . S
C611 C610 1.363 . S
C611 C617 1.363 . S
C612 C613 1.363 . S
C612 C617 1.379 . S
C612 N619 1.356 . S
C613 C612 1.363 . S
C613 C616 1.363 . S
N614 C616 1.356 . S
N614 H626 0.984 . S
N614 H627 0.985 . S
N615 C617 1.356 . S
N615 H620 0.984 . S
N615 H621 0.985 . S
C616 C610 1.379 . S
C616 C613 1.363 . S
C616 N614 1.356 . S
C617 C611 1.363 . S
C617 C612 1.379 . S
C617 N615 1.356 . S
N618 C610 1.356 . S
N618 H624 0.984 . S
N618 H625 0.984 . S
N619 C612 1.356 . S
N619 H622 0.984 . S
N619 H623 0.985 . S
H620 N615 0.984 . S
H621 N615 0.985 . S
H622 N619 0.984 . S
H623 N619 0.985 . S
H624 N618 0.984 . S
H625 N618 0.984 . S
H626 N614 0.984 . S
H627 N614 0.985 . S
C628 C629 1.363 . S
C628 C634 1.379 . S
C628 N636 1.356 . S
C629 C628 1.363 . S
C629 C635 1.363 . S
C630 C631 1.363 . S
C630 C635 1.379 . S
C630 N637 1.356 . S
C631 C630 1.363 . S
C631 C634 1.363 . S
N632 C634 1.356 . S
N632 H644 0.984 . S
N632 H645 0.985 . S
N633 C635 1.356 . S
N633 H638 0.984 . S
N633 H639 0.985 . S
C634 C628 1.379 . S
C634 C631 1.363 . S
C634 N632 1.356 . S
C635 C629 1.363 . S
C635 C630 1.379 . S
C635 N633 1.356 . S
N636 C628 1.356 . S
N636 H642 0.984 . S
N636 H643 0.984 . S
N637 C630 1.356 . S
N637 H640 0.984 . S
N637 H641 0.985 . S
H638 N633 0.984 . S
H639 N633 0.985 . S
H640 N637 0.984 . S
H641 N637 0.985 . S
H642 N636 0.984 . S
H643 N636 0.984 . S
H644 N632 0.984 . S
H645 N632 0.985 . S
C646 C647 1.363 . S
C646 C652 1.379 . S
C646 N654 1.356 . S
C647 C646 1.363 . S
C647 C653 1.363 . S
C648 C649 1.363 . S
C648 C653 1.379 . S
C648 N655 1.356 . S
C649 C648 1.363 . S
C649 C652 1.363 . S
N650 C652 1.356 . S
N650 H662 0.984 . S
N650 H663 0.985 . S
N651 C653 1.356 . S
N651 H656 0.984 . S
N651 H657 0.985 . S
C652 C646 1.379 . S
C652 C649 1.363 . S
C652 N650 1.356 . S
C653 C647 1.363 . S
C653 C648 1.379 . S
C653 N651 1.356 . S
N654 C646 1.356 . S
N654 H660 0.984 . S
N654 H661 0.984 . S
N655 C648 1.356 . S
N655 H658 0.984 . S
N655 H659 0.985 . S
H656 N651 0.984 . S
H657 N651 0.985 . S
H658 N655 0.984 . S
H659 N655 0.985 . S
H660 N654 0.984 . S
H661 N654 0.984 . S
H662 N650 0.984 . S
H663 N650 0.985 . S
C664 C665 1.363 . S
C664 C670 1.379 . S
C664 N672 1.356 . S
C665 C664 1.363 . S
C665 C671 1.363 . S
C666 C667 1.363 . S
C666 C671 1.379 . S
C666 N673 1.356 . S
C667 C666 1.363 . S
C667 C670 1.363 . S
N668 C670 1.356 . S
N668 H680 0.984 . S
N668 H681 0.985 . S
N669 C671 1.356 . S
N669 H674 0.984 . S
N669 H675 0.985 . S
C670 C664 1.379 . S
C670 C667 1.363 . S
C670 N668 1.356 . S
C671 C665 1.363 . S
C671 C666 1.379 . S
C671 N669 1.356 . S
N672 C664 1.356 . S
N672 H678 0.984 . S
N672 H679 0.984 . S
N673 C666 1.356 . S
N673 H676 0.984 . S
N673 H677 0.985 . S
H674 N669 0.984 . S
H675 N669 0.985 . S
H676 N673 0.984 . S
H677 N673 0.985 . S
H678 N672 0.984 . S
H679 N672 0.984 . S
H680 N668 0.984 . S
H681 N668 0.985 . S
C682 C683 1.363 . S
C682 C688 1.379 . S
C682 N690 1.356 . S
C683 C682 1.363 . S
C683 C689 1.363 . S
C684 C685 1.363 . S
C684 C689 1.379 . S
C684 N691 1.356 . S
C685 C684 1.363 . S
C685 C688 1.363 . S
N686 C688 1.356 . S
N686 H698 0.984 . S
N686 H699 0.985 . S
N687 C689 1.356 . S
N687 H692 0.984 . S
N687 H693 0.985 . S
C688 C682 1.379 . S
C688 C685 1.363 . S
C688 N686 1.356 . S
C689 C683 1.363 . S
C689 C684 1.379 . S
C689 N687 1.356 . S
N690 C682 1.356 . S
N690 H696 0.984 . S
N690 H697 0.984 . S
N691 C684 1.356 . S
N691 H694 0.984 . S
N691 H695 0.985 . S
H692 N687 0.984 . S
H693 N687 0.985 . S
H694 N691 0.984 . S
H695 N691 0.985 . S
H696 N690 0.984 . S
H697 N690 0.984 . S
H698 N686 0.984 . S
H699 N686 0.985 . S
C700 C701 1.363 . S
C700 C706 1.379 . S
C700 N708 1.356 . S
C701 C700 1.363 . S
C701 C707 1.363 . S
C702 C703 1.363 . S
C702 C707 1.379 . S
C702 N709 1.356 . S
C703 C702 1.363 . S
C703 C706 1.363 . S
N704 C706 1.356 . S
N704 H716 0.984 . S
N704 H717 0.985 . S
N705 C707 1.356 . S
N705 H710 0.984 . S
N705 H711 0.985 . S
C706 C700 1.379 . S
C706 C703 1.363 . S
C706 N704 1.356 . S
C707 C701 1.363 . S
C707 C702 1.379 . S
C707 N705 1.356 . S
N708 C700 1.356 . S
N708 H714 0.984 . S
N708 H715 0.984 . S
N709 C702 1.356 . S
N709 H712 0.984 . S
N709 H713 0.985 . S
H710 N705 0.984 . S
H711 N705 0.985 . S
H712 N709 0.984 . S
H713 N709 0.985 . S
H714 N708 0.984 . S
H715 N708 0.984 . S
H716 N704 0.984 . S
H717 N704 0.985 . S
C718 C719 1.363 . S
C718 C724 1.379 . S
C718 N726 1.356 . S
C719 C718 1.363 . S
C719 C725 1.363 . S
C720 C721 1.363 . S
C720 C725 1.379 . S
C720 N727 1.356 . S
C721 C720 1.363 . S
C721 C724 1.363 . S
N722 C724 1.356 . S
N722 H734 0.984 . S
N722 H735 0.985 . S
N723 C725 1.356 . S
N723 H728 0.984 . S
N723 H729 0.985 . S
C724 C718 1.379 . S
C724 C721 1.363 . S
C724 N722 1.356 . S
C725 C719 1.363 . S
C725 C720 1.379 . S
C725 N723 1.356 . S
N726 C718 1.356 . S
N726 H732 0.984 . S
N726 H733 0.984 . S
N727 C720 1.356 . S
N727 H730 0.984 . S
N727 H731 0.985 . S
H728 N723 0.984 . S
H729 N723 0.985 . S
H730 N727 0.984 . S
H731 N727 0.985 . S
H732 N726 0.984 . S
H733 N726 0.984 . S
H734 N722 0.984 . S
H735 N722 0.985 . S
C736 C737 1.363 . S
C736 C742 1.379 1_554 S
C736 N744 1.356 . S
C737 C736 1.363 . S
C737 C743 1.363 . S
C738 C739 1.363 . S
C738 C743 1.379 1_556 S
C738 N745 1.356 . S
C739 C738 1.363 . S
C739 C742 1.363 . S
N740 C742 1.356 . S
N740 H752 0.984 . S
N740 H753 0.985 . S
N741 C743 1.356 . S
N741 H746 0.984 . S
N741 H747 0.985 . S
C742 C736 1.379 1_556 S
C742 C739 1.363 . S
C742 N740 1.356 . S
C743 C737 1.363 . S
C743 C738 1.379 1_554 S
C743 N741 1.356 . S
N744 C736 1.356 . S
N744 H750 0.984 . S
N744 H751 0.984 . S
N745 C738 1.356 . S
N745 H748 0.984 . S
N745 H749 0.985 . S
H746 N741 0.984 . S
H747 N741 0.985 . S
H748 N745 0.984 . S
H749 N745 0.985 . S
H750 N744 0.984 . S
H751 N744 0.984 . S
H752 N740 0.984 . S
H753 N740 0.985 . S
C754 C755 1.363 . S
C754 C760 1.379 1_556 S
C754 N762 1.356 . S
C755 C754 1.363 . S
C755 C761 1.363 . S
C756 C757 1.363 . S
C756 C761 1.379 1_554 S
C756 N763 1.356 . S
C757 C756 1.363 . S
C757 C760 1.363 . S
N758 C760 1.356 . S
N758 H770 0.984 . S
N758 H771 0.985 . S
N759 C761 1.356 . S
N759 H764 0.984 . S
N759 H765 0.985 . S
C760 C754 1.379 1_554 S
C760 C757 1.363 . S
C760 N758 1.356 . S
C761 C755 1.363 . S
C761 C756 1.379 1_556 S
C761 N759 1.356 . S
N762 C754 1.356 . S
N762 H768 0.984 . S
N762 H769 0.984 . S
N763 C756 1.356 . S
N763 H766 0.984 . S
N763 H767 0.985 . S
H764 N759 0.984 . S
H765 N759 0.985 . S
H766 N763 0.984 . S
H767 N763 0.985 . S
H768 N762 0.984 . S
H769 N762 0.984 . S
H770 N758 0.984 . S
H771 N758 0.985 . S
C772 C773 1.363 . S
C772 C778 1.379 1_556 S
C772 N780 1.356 . S
C773 C772 1.363 . S
C773 C779 1.363 . S
C774 C775 1.363 . S
C774 C779 1.379 1_554 S
C774 N781 1.356 . S
C775 C774 1.363 . S
C775 C778 1.363 . S
N776 C778 1.356 . S
N776 H788 0.984 . S
N776 H789 0.985 . S
N777 C779 1.356 . S
N777 H782 0.984 . S
N777 H783 0.985 . S
C778 C772 1.379 1_554 S
C778 C775 1.363 . S
C778 N776 1.356 . S
C779 C773 1.363 . S
C779 C774 1.379 1_556 S
C779 N777 1.356 . S
N780 C772 1.356 . S
N780 H786 0.984 . S
N780 H787 0.984 . S
N781 C774 1.356 . S
N781 H784 0.984 . S
N781 H785 0.985 . S
H782 N777 0.984 . S
H783 N777 0.985 . S
H784 N781 0.984 . S
H785 N781 0.985 . S
H786 N780 0.984 . S
H787 N780 0.984 . S
H788 N776 0.984 . S
H789 N776 0.985 . S
C790 C791 1.363 . S
C790 C796 1.379 1_556 S
C790 N798 1.356 . S
C791 C790 1.363 . S
C791 C797 1.363 . S
C792 C793 1.363 . S
C792 C797 1.379 1_554 S
C792 N799 1.356 . S
C793 C792 1.363 . S
C793 C796 1.363 . S
N794 C796 1.356 . S
N794 H806 0.984 . S
N794 H807 0.985 . S
N795 C797 1.356 . S
N795 H800 0.984 . S
N795 H801 0.985 . S
C796 C790 1.379 1_554 S
C796 C793 1.363 . S
C796 N794 1.356 . S
C797 C791 1.363 . S
C797 C792 1.379 1_556 S
C797 N795 1.356 . S
N798 C790 1.356 . S
N798 H804 0.984 . S
N798 H805 0.984 . S
N799 C792 1.356 . S
N799 H802 0.984 . S
N799 H803 0.985 . S
H800 N795 0.984 . S
H801 N795 0.985 . S
H802 N799 0.984 . S
H803 N799 0.985 . S
H804 N798 0.984 . S
H805 N798 0.984 . S
H806 N794 0.984 . S
H807 N794 0.985 . S
C808 C809 1.363 . S
C808 C814 1.379 . S
C808 N816 1.356 . S
C809 C808 1.363 . S
C809 C815 1.363 . S
C810 C811 1.363 . S
C810 C815 1.379 . S
C810 N817 1.356 . S
C811 C810 1.363 . S
C811 C814 1.363 . S
N812 C814 1.356 . S
N812 H824 0.984 . S
N812 H825 0.985 . S
N813 C815 1.356 . S
N813 H818 0.984 . S
N813 H819 0.985 . S
C814 C808 1.379 . S
C814 C811 1.363 . S
C814 N812 1.356 . S
C815 C809 1.363 . S
C815 C810 1.379 . S
C815 N813 1.356 . S
N816 C808 1.356 . S
N816 H822 0.984 . S
N816 H823 0.984 . S
N817 C810 1.356 . S
N817 H820 0.984 . S
N817 H821 0.985 . S
H818 N813 0.984 . S
H819 N813 0.985 . S
H820 N817 0.984 . S
H821 N817 0.985 . S
H822 N816 0.984 . S
H823 N816 0.984 . S
H824 N812 0.984 . S
H825 N812 0.985 . S
C826 C827 1.363 . S
C826 C832 1.379 . S
C826 N834 1.356 . S
C827 C826 1.363 . S
C827 C833 1.363 . S
C828 C829 1.363 . S
C828 C833 1.379 . S
C828 N835 1.356 . S
C829 C828 1.363 . S
C829 C832 1.363 . S
N830 C832 1.356 . S
N830 H842 0.984 . S
N830 H843 0.985 . S
N831 C833 1.356 . S
N831 H836 0.984 . S
N831 H837 0.985 . S
C832 C826 1.379 . S
C832 C829 1.363 . S
C832 N830 1.356 . S
C833 C827 1.363 . S
C833 C828 1.379 . S
C833 N831 1.356 . S
N834 C826 1.356 . S
N834 H840 0.984 . S
N834 H841 0.984 . S
N835 C828 1.356 . S
N835 H838 0.984 . S
N835 H839 0.985 . S
H836 N831 0.984 . S
H837 N831 0.985 . S
H838 N835 0.984 . S
H839 N835 0.985 . S
H840 N834 0.984 . S
H841 N834 0.984 . S
H842 N830 0.984 . S
H843 N830 0.985 . S
C844 C845 1.363 . S
C844 C850 1.379 . S
C844 N852 1.356 . S
C845 C844 1.363 . S
C845 C851 1.363 . S
C846 C847 1.363 . S
C846 C851 1.379 . S
C846 N853 1.356 . S
C847 C846 1.363 . S
C847 C850 1.363 . S
N848 C850 1.356 . S
N848 H860 0.984 . S
N848 H861 0.985 . S
N849 C851 1.356 . S
N849 H854 0.984 . S
N849 H855 0.985 . S
C850 C844 1.379 . S
C850 C847 1.363 . S
C850 N848 1.356 . S
C851 C845 1.363 . S
C851 C846 1.379 . S
C851 N849 1.356 . S
N852 C844 1.356 . S
N852 H858 0.984 . S
N852 H859 0.984 . S
N853 C846 1.356 . S
N853 H856 0.984 . S
N853 H857 0.985 . S
H854 N849 0.984 . S
H855 N849 0.985 . S
H856 N853 0.984 . S
H857 N853 0.985 . S
H858 N852 0.984 . S
H859 N852 0.984 . S
H860 N848 0.984 . S
H861 N848 0.985 . S
C862 C863 1.363 . S
C862 C868 1.379 . S
C862 N870 1.356 . S
C863 C862 1.363 . S
C863 C869 1.363 . S
C864 C865 1.363 . S
C864 C869 1.379 . S
C864 N871 1.356 . S
C865 C864 1.363 . S
C865 C868 1.363 . S
N866 C868 1.356 . S
N866 H878 0.984 . S
N866 H879 0.985 . S
N867 C869 1.356 . S
N867 H872 0.984 . S
N867 H873 0.985 . S
C868 C862 1.379 . S
C868 C865 1.363 . S
C868 N866 1.356 . S
C869 C863 1.363 . S
C869 C864 1.379 . S
C869 N867 1.356 . S
N870 C862 1.356 . S
N870 H876 0.984 . S
N870 H877 0.984 . S
N871 C864 1.356 . S
N871 H874 0.984 . S
N871 H875 0.985 . S
H872 N867 0.984 . S
H873 N867 0.985 . S
H874 N871 0.984 . S
H875 N871 0.985 . S
H876 N870 0.984 . S
H877 N870 0.984 . S
H878 N866 0.984 . S
H879 N866 0.985 . S
C880 C881 1.363 . S
C880 C886 1.379 . S
C880 N888 1.356 . S
C881 C880 1.363 . S
C881 C887 1.363 . S
C882 C883 1.363 . S
C882 C887 1.379 . S
C882 N889 1.356 . S
C883 C882 1.363 . S
C883 C886 1.363 . S
N884 C886 1.356 . S
N884 H896 0.984 . S
N884 H897 0.985 . S
N885 C887 1.356 . S
N885 H890 0.984 . S
N885 H891 0.985 . S
C886 C880 1.379 . S
C886 C883 1.363 . S
C886 N884 1.356 . S
C887 C881 1.363 . S
C887 C882 1.379 . S
C887 N885 1.356 . S
N888 C880 1.356 . S
N888 H894 0.984 . S
N888 H895 0.984 . S
N889 C882 1.356 . S
N889 H892 0.984 . S
N889 H893 0.985 . S
H890 N885 0.984 . S
H891 N885 0.985 . S
H892 N889 0.984 . S
H893 N889 0.985 . S
H894 N888 0.984 . S
H895 N888 0.984 . S
H896 N884 0.984 . S
H897 N884 0.985 . S
C898 C899 1.363 . S
C898 C904 1.379 . S
C898 N906 1.356 . S
C899 C898 1.363 . S
C899 C905 1.363 . S
C900 C901 1.363 . S
C900 C905 1.379 . S
C900 N907 1.356 . S
C901 C900 1.363 . S
C901 C904 1.363 . S
N902 C904 1.356 . S
N902 H914 0.984 . S
N902 H915 0.985 . S
N903 C905 1.356 . S
N903 H908 0.984 . S
N903 H909 0.985 . S
C904 C898 1.379 . S
C904 C901 1.363 . S
C904 N902 1.356 . S
C905 C899 1.363 . S
C905 C900 1.379 . S
C905 N903 1.356 . S
N906 C898 1.356 . S
N906 H912 0.984 . S
N906 H913 0.984 . S
N907 C900 1.356 . S
N907 H910 0.984 . S
N907 H911 0.985 . S
H908 N903 0.984 . S
H909 N903 0.985 . S
H910 N907 0.984 . S
H911 N907 0.985 . S
H912 N906 0.984 . S
H913 N906 0.984 . S
H914 N902 0.984 . S
H915 N902 0.985 . S
C916 C917 1.363 . S
C916 C922 1.379 . S
C916 N924 1.356 . S
C917 C916 1.363 . S
C917 C923 1.363 . S
C918 C919 1.363 . S
C918 C923 1.379 . S
C918 N925 1.356 . S
C919 C918 1.363 . S
C919 C922 1.363 . S
N920 C922 1.356 . S
N920 H932 0.984 . S
N920 H933 0.985 . S
N921 C923 1.356 . S
N921 H926 0.984 . S
N921 H927 0.985 . S
C922 C916 1.379 . S
C922 C919 1.363 . S
C922 N920 1.356 . S
C923 C917 1.363 . S
C923 C918 1.379 . S
C923 N921 1.356 . S
N924 C916 1.356 . S
N924 H930 0.984 . S
N924 H931 0.984 . S
N925 C918 1.356 . S
N925 H928 0.984 . S
N925 H929 0.985 . S
H926 N921 0.984 . S
H927 N921 0.985 . S
H928 N925 0.984 . S
H929 N925 0.985 . S
H930 N924 0.984 . S
H931 N924 0.984 . S
H932 N920 0.984 . S
H933 N920 0.985 . S
C934 C935 1.363 . S
C934 C940 1.379 . S
C934 N942 1.356 . S
C935 C934 1.363 . S
C935 C941 1.363 . S
C936 C937 1.363 . S
C936 C941 1.379 . S
C936 N943 1.356 . S
C937 C936 1.363 . S
C937 C940 1.363 . S
N938 C940 1.356 . S
N938 H950 0.984 . S
N938 H951 0.985 . S
N939 C941 1.356 . S
N939 H944 0.984 . S
N939 H945 0.985 . S
C940 C934 1.379 . S
C940 C937 1.363 . S
C940 N938 1.356 . S
C941 C935 1.363 . S
C941 C936 1.379 . S
C941 N939 1.356 . S
N942 C934 1.356 . S
N942 H948 0.984 . S
N942 H949 0.984 . S
N943 C936 1.356 . S
N943 H946 0.984 . S
N943 H947 0.985 . S
H944 N939 0.984 . S
H945 N939 0.985 . S
H946 N943 0.984 . S
H947 N943 0.985 . S
H948 N942 0.984 . S
H949 N942 0.984 . S
H950 N938 0.984 . S
H951 N938 0.985 . S
C952 C953 1.363 . S
C952 C958 1.379 1_556 S
C952 N960 1.356 . S
C953 C952 1.363 . S
C953 C959 1.363 . S
C954 C955 1.363 . S
C954 C959 1.379 1_554 S
C954 N961 1.356 . S
C955 C954 1.363 . S
C955 C958 1.363 . S
N956 C958 1.356 . S
N956 H968 0.984 . S
N956 H969 0.985 . S
N957 C959 1.356 . S
N957 H962 0.984 . S
N957 H963 0.985 . S
C958 C952 1.379 1_554 S
C958 C955 1.363 . S
C958 N956 1.356 . S
C959 C953 1.363 . S
C959 C954 1.379 1_556 S
C959 N957 1.356 . S
N960 C952 1.356 . S
N960 H966 0.984 . S
N960 H967 0.984 . S
N961 C954 1.356 . S
N961 H964 0.984 . S
N961 H965 0.985 . S
H962 N957 0.984 . S
H963 N957 0.985 . S
H964 N961 0.984 . S
H965 N961 0.985 . S
H966 N960 0.984 . S
H967 N960 0.984 . S
H968 N956 0.984 . S
H969 N956 0.985 . S
C970 C971 1.363 . S
C970 C976 1.379 1_554 S
C970 N978 1.356 . S
C971 C970 1.363 . S
C971 C977 1.363 . S
C972 C973 1.363 . S
C972 C977 1.379 1_556 S
C972 N979 1.356 . S
C973 C972 1.363 . S
C973 C976 1.363 . S
N974 C976 1.356 . S
N974 H986 0.984 . S
N974 H987 0.985 . S
N975 C977 1.356 . S
N975 H980 0.984 . S
N975 H981 0.985 . S
C976 C970 1.379 1_556 S
C976 C973 1.363 . S
C976 N974 1.356 . S
C977 C971 1.363 . S
C977 C972 1.379 1_554 S
C977 N975 1.356 . S
N978 C970 1.356 . S
N978 H984 0.984 . S
N978 H985 0.984 . S
N979 C972 1.356 . S
N979 H982 0.984 . S
N979 H983 0.985 . S
H980 N975 0.984 . S
H981 N975 0.985 . S
H982 N979 0.984 . S
H983 N979 0.985 . S
H984 N978 0.984 . S
H985 N978 0.984 . S
H986 N974 0.984 . S
H987 N974 0.985 . S
C988 C989 1.363 . S
C988 C994 1.379 1_554 S
C988 N996 1.356 . S
C989 C988 1.363 . S
C989 C995 1.363 . S
C990 C991 1.363 . S
C990 C995 1.379 1_556 S
C990 N997 1.356 . S
C991 C990 1.363 . S
C991 C994 1.363 . S
N992 C994 1.356 . S
N992 H1004 0.984 . S
N992 H1005 0.985 . S
N993 C995 1.356 . S
N993 H998 0.984 . S
N993 H999 0.985 . S
C994 C988 1.379 1_556 S
C994 C991 1.363 . S
C994 N992 1.356 . S
C995 C989 1.363 . S
C995 C990 1.379 1_554 S
C995 N993 1.356 . S
N996 C988 1.356 . S
N996 H1002 0.984 . S
N996 H1003 0.984 . S
N997 C990 1.356 . S
N997 H1000 0.984 . S
N997 H1001 0.985 . S
H998 N993 0.984 . S
H999 N993 0.985 . S
H1000 N997 0.984 . S
H1001 N997 0.985 . S
H1002 N996 0.984 . S
H1003 N996 0.984 . S
H1004 N992 0.984 . S
H1005 N992 0.985 . S
C1006 C1007 1.363 . S
C1006 C1012 1.379 1_556 S
C1006 N1014 1.356 . S
C1007 C1006 1.363 . S
C1007 C1013 1.363 . S
C1008 C1009 1.363 . S
C1008 C1013 1.379 1_554 S
C1008 N1015 1.356 . S
C1009 C1008 1.363 . S
C1009 C1012 1.363 . S
N1010 C1012 1.356 . S
N1010 H1022 0.984 . S
N1010 H1023 0.985 . S
N1011 C1013 1.356 . S
N1011 H1016 0.984 . S
N1011 H1017 0.985 . S
C1012 C1006 1.379 1_554 S
C1012 C1009 1.363 . S
C1012 N1010 1.356 . S
C1013 C1007 1.363 . S
C1013 C1008 1.379 1_556 S
C1013 N1011 1.356 . S
N1014 C1006 1.356 . S
N1014 H1020 0.984 . S
N1014 H1021 0.984 . S
N1015 C1008 1.356 . S
N1015 H1018 0.984 . S
N1015 H1019 0.985 . S
H1016 N1011 0.984 . S
H1017 N1011 0.985 . S
H1018 N1015 0.984 . S
H1019 N1015 0.985 . S
H1020 N1014 0.984 . S
H1021 N1014 0.984 . S
H1022 N1010 0.984 . S
H1023 N1010 0.985 . S
C1024 C1025 1.363 . S
C1024 C1030 1.379 . S
C1024 N1032 1.356 . S
C1025 C1024 1.363 . S
C1025 C1031 1.363 1_545 S
C1026 C1027 1.363 . S
C1026 C1031 1.379 . S
C1026 N1033 1.356 . S
C1027 C1026 1.363 . S
C1027 C1030 1.363 1_565 S
N1028 C1030 1.356 1_565 S
N1028 H1040 0.984 1_565 S
N1028 H1041 0.985 . S
N1029 C1031 1.356 1_545 S
N1029 H1034 0.984 . S
N1029 H1035 0.985 1_545 S
C1030 C1024 1.379 . S
C1030 C1027 1.363 1_545 S
C1030 N1028 1.356 1_545 S
C1031 C1025 1.363 1_565 S
C1031 C1026 1.379 . S
C1031 N1029 1.356 1_565 S
N1032 C1024 1.356 . S
N1032 H1038 0.984 . S
N1032 H1039 0.984 . S
N1033 C1026 1.356 . S
N1033 H1036 0.984 . S
N1033 H1037 0.985 . S
H1034 N1029 0.984 . S
H1035 N1029 0.985 1_565 S
H1036 N1033 0.984 . S
H1037 N1033 0.985 . S
H1038 N1032 0.984 . S
H1039 N1032 0.984 . S
H1040 N1028 0.984 1_545 S
H1041 N1028 0.985 . S
C1042 C1043 1.363 . S
C1042 C1048 1.379 1_655 S
C1042 N1050 1.356 . S
C1043 C1042 1.363 . S
C1043 C1049 1.363 . S
C1044 C1045 1.363 . S
C1044 C1049 1.379 1_455 S
C1044 N1051 1.356 . S
C1045 C1044 1.363 . S
C1045 C1048 1.363 . S
N1046 C1048 1.356 . S
N1046 H1058 0.984 . S
N1046 H1059 0.985 . S
N1047 C1049 1.356 . S
N1047 H1052 0.984 . S
N1047 H1053 0.985 . S
C1048 C1042 1.379 1_455 S
C1048 C1045 1.363 . S
C1048 N1046 1.356 . S
C1049 C1043 1.363 . S
C1049 C1044 1.379 1_655 S
C1049 N1047 1.356 . S
N1050 C1042 1.356 . S
N1050 H1056 0.984 . S
N1050 H1057 0.984 . S
N1051 C1044 1.356 . S
N1051 H1054 0.984 . S
N1051 H1055 0.985 . S
H1052 N1047 0.984 . S
H1053 N1047 0.985 . S
H1054 N1051 0.984 . S
H1055 N1051 0.985 . S
H1056 N1050 0.984 . S
H1057 N1050 0.984 . S
H1058 N1046 0.984 . S
H1059 N1046 0.985 . S
C1060 C1061 1.363 1_565 S
C1060 C1066 1.379 . S
C1060 N1068 1.356 1_565 S
C1061 C1060 1.363 1_545 S
C1061 C1067 1.363 . S
C1062 C1063 1.363 1_545 S
C1062 C1067 1.379 . S
C1062 N1069 1.356 1_545 S
C1063 C1062 1.363 1_565 S
C1063 C1066 1.363 . S
N1064 C1066 1.356 . S
N1064 H1076 0.984 . S
N1064 H1077 0.985 . S
N1065 C1067 1.356 . S
N1065 H1070 0.984 . S
N1065 H1071 0.985 . S
C1066 C1060 1.379 . S
C1066 C1063 1.363 . S
C1066 N1064 1.356 . S
C1067 C1061 1.363 . S
C1067 C1062 1.379 . S
C1067 N1065 1.356 . S
N1068 C1060 1.356 1_545 S
N1068 H1074 0.984 1_545 S
N1068 H1075 0.984 . S
N1069 C1062 1.356 1_565 S
N1069 H1072 0.984 . S
N1069 H1073 0.985 1_565 S
H1070 N1065 0.984 . S
H1071 N1065 0.985 . S
H1072 N1069 0.984 . S
H1073 N1069 0.985 1_545 S
H1074 N1068 0.984 1_565 S
H1075 N1068 0.984 . S
H1076 N1064 0.984 . S
H1077 N1064 0.985 . S
C1078 C1079 1.363 . S
C1078 C1084 1.379 1_455 S
C1078 N1086 1.356 . S
C1079 C1078 1.363 . S
C1079 C1085 1.363 . S
C1080 C1081 1.363 . S
C1080 C1085 1.379 1_655 S
C1080 N1087 1.356 . S
C1081 C1080 1.363 . S
C1081 C1084 1.363 . S
N1082 C1084 1.356 . S
N1082 H1094 0.984 . S
N1082 H1095 0.985 . S
N1083 C1085 1.356 . S
N1083 H1088 0.984 . S
N1083 H1089 0.985 . S
C1084 C1078 1.379 1_655 S
C1084 C1081 1.363 . S
C1084 N1082 1.356 . S
C1085 C1079 1.363 . S
C1085 C1080 1.379 1_455 S
C1085 N1083 1.356 . S
N1086 C1078 1.356 . S
N1086 H1092 0.984 . S
N1086 H1093 0.984 . S
N1087 C1080 1.356 . S
N1087 H1090 0.984 . S
N1087 H1091 0.985 . S
H1088 N1083 0.984 . S
H1089 N1083 0.985 . S
H1090 N1087 0.984 . S
H1091 N1087 0.985 . S
H1092 N1086 0.984 . S
H1093 N1086 0.984 . S
H1094 N1082 0.984 . S
H1095 N1082 0.985 . S
C1096 C1097 1.363 . S
C1096 C1102 1.379 . S
C1096 N1104 1.356 . S
C1097 C1096 1.363 . S
C1097 C1103 1.363 1_565 S
C1098 C1099 1.363 . S
C1098 C1103 1.379 . S
C1098 N1105 1.356 . S
C1099 C1098 1.363 . S
C1099 C1102 1.363 1_545 S
N1100 C1102 1.356 1_545 S
N1100 H1112 0.984 1_545 S
N1100 H1113 0.985 . S
N1101 C1103 1.356 1_565 S
N1101 H1106 0.984 . S
N1101 H1107 0.985 1_565 S
C1102 C1096 1.379 . S
C1102 C1099 1.363 1_565 S
C1102 N1100 1.356 1_565 S
C1103 C1097 1.363 1_545 S
C1103 C1098 1.379 . S
C1103 N1101 1.356 1_545 S
N1104 C1096 1.356 . S
N1104 H1110 0.984 . S
N1104 H1111 0.984 . S
N1105 C1098 1.356 . S
N1105 H1108 0.984 . S
N1105 H1109 0.985 . S
H1106 N1101 0.984 . S
H1107 N1101 0.985 1_545 S
H1108 N1105 0.984 . S
H1109 N1105 0.985 . S
H1110 N1104 0.984 . S
H1111 N1104 0.984 . S
H1112 N1100 0.984 1_565 S
H1113 N1100 0.985 . S
C1114 C1115 1.363 . S
C1114 C1120 1.379 1_655 S
C1114 N1122 1.356 . S
C1115 C1114 1.363 . S
C1115 C1121 1.363 . S
C1116 C1117 1.363 . S
C1116 C1121 1.379 1_455 S
C1116 N1123 1.356 . S
C1117 C1116 1.363 . S
C1117 C1120 1.363 . S
N1118 C1120 1.356 . S
N1118 H1130 0.984 . S
N1118 H1131 0.985 . S
N1119 C1121 1.356 . S
N1119 H1124 0.984 . S
N1119 H1125 0.985 . S
C1120 C1114 1.379 1_455 S
C1120 C1117 1.363 . S
C1120 N1118 1.356 . S
C1121 C1115 1.363 . S
C1121 C1116 1.379 1_655 S
C1121 N1119 1.356 . S
N1122 C1114 1.356 . S
N1122 H1128 0.984 . S
N1122 H1129 0.984 . S
N1123 C1116 1.356 . S
N1123 H1126 0.984 . S
N1123 H1127 0.985 . S
H1124 N1119 0.984 . S
H1125 N1119 0.985 . S
H1126 N1123 0.984 . S
H1127 N1123 0.985 . S
H1128 N1122 0.984 . S
H1129 N1122 0.984 . S
H1130 N1118 0.984 . S
H1131 N1118 0.985 . S
C1132 C1133 1.363 . S
C1132 C1138 1.379 . S
C1132 N1140 1.356 . S
C1133 C1132 1.363 . S
C1133 C1139 1.363 1_565 S
C1134 C1135 1.363 . S
C1134 C1139 1.379 . S
C1134 N1141 1.356 . S
C1135 C1134 1.363 . S
C1135 C1138 1.363 1_545 S
N1136 C1138 1.356 1_545 S
N1136 H1148 0.984 1_545 S
N1136 H1149 0.985 . S
N1137 C1139 1.356 1_565 S
N1137 H1142 0.984 . S
N1137 H1143 0.985 1_565 S
C1138 C1132 1.379 . S
C1138 C1135 1.363 1_565 S
C1138 N1136 1.356 1_565 S
C1139 C1133 1.363 1_545 S
C1139 C1134 1.379 . S
C1139 N1137 1.356 1_545 S
N1140 C1132 1.356 . S
N1140 H1146 0.984 . S
N1140 H1147 0.984 . S
N1141 C1134 1.356 . S
N1141 H1144 0.984 . S
N1141 H1145 0.985 . S
H1142 N1137 0.984 . S
H1143 N1137 0.985 1_545 S
H1144 N1141 0.984 . S
H1145 N1141 0.985 . S
H1146 N1140 0.984 . S
H1147 N1140 0.984 . S
H1148 N1136 0.984 1_565 S
H1149 N1136 0.985 . S
C1150 C1151 1.363 . S
C1150 C1156 1.379 1_655 S
C1150 N1158 1.356 . S
C1151 C1150 1.363 . S
C1151 C1157 1.363 . S
C1152 C1153 1.363 . S
C1152 C1157 1.379 1_455 S
C1152 N1159 1.356 . S
C1153 C1152 1.363 . S
C1153 C1156 1.363 . S
N1154 C1156 1.356 . S
N1154 H1166 0.984 . S
N1154 H1167 0.985 . S
N1155 C1157 1.356 . S
N1155 H1160 0.984 . S
N1155 H1161 0.985 . S
C1156 C1150 1.379 1_455 S
C1156 C1153 1.363 . S
C1156 N1154 1.356 . S
C1157 C1151 1.363 . S
C1157 C1152 1.379 1_655 S
C1157 N1155 1.356 . S
N1158 C1150 1.356 . S
N1158 H1164 0.984 . S
N1158 H1165 0.984 . S
N1159 C1152 1.356 . S
N1159 H1162 0.984 . S
N1159 H1163 0.985 . S
H1160 N1155 0.984 . S
H1161 N1155 0.985 . S
H1162 N1159 0.984 . S
H1163 N1159 0.985 . S
H1164 N1158 0.984 . S
H1165 N1158 0.984 . S
H1166 N1154 0.984 . S
H1167 N1154 0.985 . S
C1168 C1169 1.363 . S
C1168 C1174 1.379 . S
C1168 N1176 1.356 . S
C1169 C1168 1.363 . S
C1169 C1175 1.363 . S
C1170 C1171 1.363 . S
C1170 C1175 1.379 . S
C1170 N1177 1.356 . S
C1171 C1170 1.363 . S
C1171 C1174 1.363 . S
N1172 C1174 1.356 . S
N1172 H1184 0.984 . S
N1172 H1185 0.985 . S
N1173 C1175 1.356 . S
N1173 H1178 0.984 . S
N1173 H1179 0.985 . S
C1174 C1168 1.379 . S
C1174 C1171 1.363 . S
C1174 N1172 1.356 . S
C1175 C1169 1.363 . S
C1175 C1170 1.379 . S
C1175 N1173 1.356 . S
N1176 C1168 1.356 . S
N1176 H1182 0.984 . S
N1176 H1183 0.984 . S
N1177 C1170 1.356 . S
N1177 H1180 0.984 . S
N1177 H1181 0.985 . S
H1178 N1173 0.984 . S
H1179 N1173 0.985 . S
H1180 N1177 0.984 . S
H1181 N1177 0.985 . S
H1182 N1176 0.984 . S
H1183 N1176 0.984 . S
H1184 N1172 0.984 . S
H1185 N1172 0.985 . S
C1186 C1187 1.363 . S
C1186 C1192 1.379 . S
C1186 N1194 1.356 . S
C1187 C1186 1.363 . S
C1187 C1193 1.363 . S
C1188 C1189 1.363 . S
C1188 C1193 1.379 . S
C1188 N1195 1.356 . S
C1189 C1188 1.363 . S
C1189 C1192 1.363 . S
N1190 C1192 1.356 . S
N1190 H1202 0.984 . S
N1190 H1203 0.985 . S
N1191 C1193 1.356 . S
N1191 H1196 0.984 . S
N1191 H1197 0.985 . S
C1192 C1186 1.379 . S
C1192 C1189 1.363 . S
C1192 N1190 1.356 . S
C1193 C1187 1.363 . S
C1193 C1188 1.379 . S
C1193 N1191 1.356 . S
N1194 C1186 1.356 . S
N1194 H1200 0.984 . S
N1194 H1201 0.984 . S
N1195 C1188 1.356 . S
N1195 H1198 0.984 . S
N1195 H1199 0.985 . S
H1196 N1191 0.984 . S
H1197 N1191 0.985 . S
H1198 N1195 0.984 . S
H1199 N1195 0.985 . S
H1200 N1194 0.984 . S
H1201 N1194 0.984 . S
H1202 N1190 0.984 . S
H1203 N1190 0.985 . S
C1204 C1205 1.363 . S
C1204 C1210 1.379 . S
C1204 N1212 1.356 . S
C1205 C1204 1.363 . S
C1205 C1211 1.363 . S
C1206 C1207 1.363 . S
C1206 C1211 1.379 . S
C1206 N1213 1.356 . S
C1207 C1206 1.363 . S
C1207 C1210 1.363 . S
N1208 C1210 1.356 . S
N1208 H1220 0.984 . S
N1208 H1221 0.985 . S
N1209 C1211 1.356 . S
N1209 H1214 0.984 . S
N1209 H1215 0.985 . S
C1210 C1204 1.379 . S
C1210 C1207 1.363 . S
C1210 N1208 1.356 . S
C1211 C1205 1.363 . S
C1211 C1206 1.379 . S
C1211 N1209 1.356 . S
N1212 C1204 1.356 . S
N1212 H1218 0.984 . S
N1212 H1219 0.984 . S
N1213 C1206 1.356 . S
N1213 H1216 0.984 . S
N1213 H1217 0.985 . S
H1214 N1209 0.984 . S
H1215 N1209 0.985 . S
H1216 N1213 0.984 . S
H1217 N1213 0.985 . S
H1218 N1212 0.984 . S
H1219 N1212 0.984 . S
H1220 N1208 0.984 . S
H1221 N1208 0.985 . S
C1222 C1223 1.363 . S
C1222 C1228 1.379 . S
C1222 N1230 1.356 . S
C1223 C1222 1.363 . S
C1223 C1229 1.363 . S
C1224 C1225 1.363 . S
C1224 C1229 1.379 . S
C1224 N1231 1.356 . S
C1225 C1224 1.363 . S
C1225 C1228 1.363 . S
N1226 C1228 1.356 . S
N1226 H1238 0.984 . S
N1226 H1239 0.985 . S
N1227 C1229 1.356 . S
N1227 H1232 0.984 . S
N1227 H1233 0.985 . S
C1228 C1222 1.379 . S
C1228 C1225 1.363 . S
C1228 N1226 1.356 . S
C1229 C1223 1.363 . S
C1229 C1224 1.379 . S
C1229 N1227 1.356 . S
N1230 C1222 1.356 . S
N1230 H1236 0.984 . S
N1230 H1237 0.984 . S
N1231 C1224 1.356 . S
N1231 H1234 0.984 . S
N1231 H1235 0.985 . S
H1232 N1227 0.984 . S
H1233 N1227 0.985 . S
H1234 N1231 0.984 . S
H1235 N1231 0.985 . S
H1236 N1230 0.984 . S
H1237 N1230 0.984 . S
H1238 N1226 0.984 . S
H1239 N1226 0.985 . S
C1240 C1241 1.363 . S
C1240 C1246 1.379 . S
C1240 N1248 1.356 . S
C1241 C1240 1.363 . S
C1241 C1247 1.363 . S
C1242 C1243 1.363 . S
C1242 C1247 1.379 . S
C1242 N1249 1.356 . S
C1243 C1242 1.363 . S
C1243 C1246 1.363 . S
N1244 C1246 1.356 . S
N1244 H1256 0.984 . S
N1244 H1257 0.985 . S
N1245 C1247 1.356 . S
N1245 H1250 0.984 . S
N1245 H1251 0.985 . S
C1246 C1240 1.379 . S
C1246 C1243 1.363 . S
C1246 N1244 1.356 . S
C1247 C1241 1.363 . S
C1247 C1242 1.379 . S
C1247 N1245 1.356 . S
N1248 C1240 1.356 . S
N1248 H1254 0.984 . S
N1248 H1255 0.984 . S
N1249 C1242 1.356 . S
N1249 H1252 0.984 . S
N1249 H1253 0.985 . S
H1250 N1245 0.984 . S
H1251 N1245 0.985 . S
H1252 N1249 0.984 . S
H1253 N1249 0.985 . S
H1254 N1248 0.984 . S
H1255 N1248 0.984 . S
H1256 N1244 0.984 . S
H1257 N1244 0.985 . S
C1258 C1259 1.363 . S
C1258 C1264 1.379 . S
C1258 N1266 1.356 . S
C1259 C1258 1.363 . S
C1259 C1265 1.363 . S
C1260 C1261 1.363 . S
C1260 C1265 1.379 . S
C1260 N1267 1.356 . S
C1261 C1260 1.363 . S
C1261 C1264 1.363 . S
N1262 C1264 1.356 . S
N1262 H1274 0.984 . S
N1262 H1275 0.985 . S
N1263 C1265 1.356 . S
N1263 H1268 0.984 . S
N1263 H1269 0.985 . S
C1264 C1258 1.379 . S
C1264 C1261 1.363 . S
C1264 N1262 1.356 . S
C1265 C1259 1.363 . S
C1265 C1260 1.379 . S
C1265 N1263 1.356 . S
N1266 C1258 1.356 . S
N1266 H1272 0.984 . S
N1266 H1273 0.984 . S
N1267 C1260 1.356 . S
N1267 H1270 0.984 . S
N1267 H1271 0.985 . S
H1268 N1263 0.984 . S
H1269 N1263 0.985 . S
H1270 N1267 0.984 . S
H1271 N1267 0.985 . S
H1272 N1266 0.984 . S
H1273 N1266 0.984 . S
H1274 N1262 0.984 . S
H1275 N1262 0.985 . S
C1276 C1277 1.363 . S
C1276 C1282 1.379 . S
C1276 N1284 1.356 . S
C1277 C1276 1.363 . S
C1277 C1283 1.363 . S
C1278 C1279 1.363 . S
C1278 C1283 1.379 . S
C1278 N1285 1.356 . S
C1279 C1278 1.363 . S
C1279 C1282 1.363 . S
N1280 C1282 1.356 . S
N1280 H1292 0.984 . S
N1280 H1293 0.985 . S
N1281 C1283 1.356 . S
N1281 H1286 0.984 . S
N1281 H1287 0.985 . S
C1282 C1276 1.379 . S
C1282 C1279 1.363 . S
C1282 N1280 1.356 . S
C1283 C1277 1.363 . S
C1283 C1278 1.379 . S
C1283 N1281 1.356 . S
N1284 C1276 1.356 . S
N1284 H1290 0.984 . S
N1284 H1291 0.984 . S
N1285 C1278 1.356 . S
N1285 H1288 0.984 . S
N1285 H1289 0.985 . S
H1286 N1281 0.984 . S
H1287 N1281 0.985 . S
H1288 N1285 0.984 . S
H1289 N1285 0.985 . S
H1290 N1284 0.984 . S
H1291 N1284 0.984 . S
H1292 N1280 0.984 . S
H1293 N1280 0.985 . S
C1294 C1295 1.363 . S
C1294 C1300 1.379 . S
C1294 N1302 1.356 . S
C1295 C1294 1.363 . S
C1295 C1301 1.363 . S
C1296 C1297 1.363 . S
C1296 C1301 1.379 . S
C1296 N1303 1.356 . S
C1297 C1296 1.363 . S
C1297 C1300 1.363 . S
N1298 C1300 1.356 . S
N1298 H1310 0.984 . S
N1298 H1311 0.985 . S
N1299 C1301 1.356 . S
N1299 H1304 0.984 . S
N1299 H1305 0.985 . S
C1300 C1294 1.379 . S
C1300 C1297 1.363 . S
C1300 N1298 1.356 . S
C1301 C1295 1.363 . S
C1301 C1296 1.379 . S
C1301 N1299 1.356 . S
N1302 C1294 1.356 . S
N1302 H1308 0.984 . S
N1302 H1309 0.984 . S
N1303 C1296 1.356 . S
N1303 H1306 0.984 . S
N1303 H1307 0.985 . S
H1304 N1299 0.984 . S
H1305 N1299 0.985 . S
H1306 N1303 0.984 . S
H1307 N1303 0.985 . S
H1308 N1302 0.984 . S
H1309 N1302 0.984 . S
H1310 N1298 0.984 . S
H1311 N1298 0.985 . S
C1312 C1313 1.363 . S
C1312 C1318 1.379 . S
C1312 N1320 1.356 . S
C1313 C1312 1.363 . S
C1313 C1319 1.363 . S
C1314 C1315 1.363 . S
C1314 C1319 1.379 . S
C1314 N1321 1.356 . S
C1315 C1314 1.363 . S
C1315 C1318 1.363 . S
N1316 C1318 1.356 . S
N1316 H1328 0.984 . S
N1316 H1329 0.985 . S
N1317 C1319 1.356 . S
N1317 H1322 0.984 . S
N1317 H1323 0.985 . S
C1318 C1312 1.379 . S
C1318 C1315 1.363 . S
C1318 N1316 1.356 . S
C1319 C1313 1.363 . S
C1319 C1314 1.379 . S
C1319 N1317 1.356 . S
N1320 C1312 1.356 . S
N1320 H1326 0.984 . S
N1320 H1327 0.984 . S
N1321 C1314 1.356 . S
N1321 H1324 0.984 . S
N1321 H1325 0.985 . S
H1322 N1317 0.984 . S
H1323 N1317 0.985 . S
H1324 N1321 0.984 . S
H1325 N1321 0.985 . S
H1326 N1320 0.984 . S
H1327 N1320 0.984 . S
H1328 N1316 0.984 . S
H1329 N1316 0.985 . S
C1330 C1331 1.363 . S
C1330 C1336 1.379 . S
C1330 N1338 1.356 . S
C1331 C1330 1.363 . S
C1331 C1337 1.363 . S
C1332 C1333 1.363 . S
C1332 C1337 1.379 . S
C1332 N1339 1.356 . S
C1333 C1332 1.363 . S
C1333 C1336 1.363 . S
N1334 C1336 1.356 . S
N1334 H1346 0.984 . S
N1334 H1347 0.985 . S
N1335 C1337 1.356 . S
N1335 H1340 0.984 . S
N1335 H1341 0.985 . S
C1336 C1330 1.379 . S
C1336 C1333 1.363 . S
C1336 N1334 1.356 . S
C1337 C1331 1.363 . S
C1337 C1332 1.379 . S
C1337 N1335 1.356 . S
N1338 C1330 1.356 . S
N1338 H1344 0.984 . S
N1338 H1345 0.984 . S
N1339 C1332 1.356 . S
N1339 H1342 0.984 . S
N1339 H1343 0.985 . S
H1340 N1335 0.984 . S
H1341 N1335 0.985 . S
H1342 N1339 0.984 . S
H1343 N1339 0.985 . S
H1344 N1338 0.984 . S
H1345 N1338 0.984 . S
H1346 N1334 0.984 . S
H1347 N1334 0.985 . S
C1348 C1349 1.363 . S
C1348 C1354 1.379 . S
C1348 N1356 1.356 . S
C1349 C1348 1.363 . S
C1349 C1355 1.363 . S
C1350 C1351 1.363 . S
C1350 C1355 1.379 . S
C1350 N1357 1.356 . S
C1351 C1350 1.363 . S
C1351 C1354 1.363 . S
N1352 C1354 1.356 . S
N1352 H1364 0.984 . S
N1352 H1365 0.985 . S
N1353 C1355 1.356 . S
N1353 H1358 0.984 . S
N1353 H1359 0.985 . S
C1354 C1348 1.379 . S
C1354 C1351 1.363 . S
C1354 N1352 1.356 . S
C1355 C1349 1.363 . S
C1355 C1350 1.379 . S
C1355 N1353 1.356 . S
N1356 C1348 1.356 . S
N1356 H1362 0.984 . S
N1356 H1363 0.984 . S
N1357 C1350 1.356 . S
N1357 H1360 0.984 . S
N1357 H1361 0.985 . S
H1358 N1353 0.984 . S
H1359 N1353 0.985 . S
H1360 N1357 0.984 . S
H1361 N1357 0.985 . S
H1362 N1356 0.984 . S
H1363 N1356 0.984 . S
H1364 N1352 0.984 . S
H1365 N1352 0.985 . S
C1366 C1367 1.363 . S
C1366 C1372 1.379 . S
C1366 N1374 1.356 . S
C1367 C1366 1.363 . S
C1367 C1373 1.363 . S
C1368 C1369 1.363 . S
C1368 C1373 1.379 . S
C1368 N1375 1.356 . S
C1369 C1368 1.363 . S
C1369 C1372 1.363 . S
N1370 C1372 1.356 . S
N1370 H1382 0.984 . S
N1370 H1383 0.985 . S
N1371 C1373 1.356 . S
N1371 H1376 0.984 . S
N1371 H1377 0.985 . S
C1372 C1366 1.379 . S
C1372 C1369 1.363 . S
C1372 N1370 1.356 . S
C1373 C1367 1.363 . S
C1373 C1368 1.379 . S
C1373 N1371 1.356 . S
N1374 C1366 1.356 . S
N1374 H1380 0.984 . S
N1374 H1381 0.984 . S
N1375 C1368 1.356 . S
N1375 H1378 0.984 . S
N1375 H1379 0.985 . S
H1376 N1371 0.984 . S
H1377 N1371 0.985 . S
H1378 N1375 0.984 . S
H1379 N1375 0.985 . S
H1380 N1374 0.984 . S
H1381 N1374 0.984 . S
H1382 N1370 0.984 . S
H1383 N1370 0.985 . S
C1384 C1385 1.363 . S
C1384 C1390 1.379 . S
C1384 N1392 1.356 . S
C1385 C1384 1.363 . S
C1385 C1391 1.363 . S
C1386 C1387 1.363 . S
C1386 C1391 1.379 . S
C1386 N1393 1.356 . S
C1387 C1386 1.363 . S
C1387 C1390 1.363 . S
N1388 C1390 1.356 . S
N1388 H1400 0.984 . S
N1388 H1401 0.985 . S
N1389 C1391 1.356 . S
N1389 H1394 0.984 . S
N1389 H1395 0.985 . S
C1390 C1384 1.379 . S
C1390 C1387 1.363 . S
C1390 N1388 1.356 . S
C1391 C1385 1.363 . S
C1391 C1386 1.379 . S
C1391 N1389 1.356 . S
N1392 C1384 1.356 . S
N1392 H1398 0.984 . S
N1392 H1399 0.984 . S
N1393 C1386 1.356 . S
N1393 H1396 0.984 . S
N1393 H1397 0.985 . S
H1394 N1389 0.984 . S
H1395 N1389 0.985 . S
H1396 N1393 0.984 . S
H1397 N1393 0.985 . S
H1398 N1392 0.984 . S
H1399 N1392 0.984 . S
H1400 N1388 0.984 . S
H1401 N1388 0.985 . S
C1402 C1403 1.363 . S
C1402 C1408 1.379 . S
C1402 N1410 1.356 . S
C1403 C1402 1.363 . S
C1403 C1409 1.363 . S
C1404 C1405 1.363 . S
C1404 C1409 1.379 . S
C1404 N1411 1.356 . S
C1405 C1404 1.363 . S
C1405 C1408 1.363 . S
N1406 C1408 1.356 . S
N1406 H1418 0.984 . S
N1406 H1419 0.985 . S
N1407 C1409 1.356 . S
N1407 H1412 0.984 . S
N1407 H1413 0.985 . S
C1408 C1402 1.379 . S
C1408 C1405 1.363 . S
C1408 N1406 1.356 . S
C1409 C1403 1.363 . S
C1409 C1404 1.379 . S
C1409 N1407 1.356 . S
N1410 C1402 1.356 . S
N1410 H1416 0.984 . S
N1410 H1417 0.984 . S
N1411 C1404 1.356 . S
N1411 H1414 0.984 . S
N1411 H1415 0.985 . S
H1412 N1407 0.984 . S
H1413 N1407 0.985 . S
H1414 N1411 0.984 . S
H1415 N1411 0.985 . S
H1416 N1410 0.984 . S
H1417 N1410 0.984 . S
H1418 N1406 0.984 . S
H1419 N1406 0.985 . S
C1420 C1421 1.363 . S
C1420 C1426 1.379 . S
C1420 N1428 1.356 . S
C1421 C1420 1.363 . S
C1421 C1427 1.363 . S
C1422 C1423 1.363 . S
C1422 C1427 1.379 . S
C1422 N1429 1.356 . S
C1423 C1422 1.363 . S
C1423 C1426 1.363 . S
N1424 C1426 1.356 . S
N1424 H1436 0.984 . S
N1424 H1437 0.985 . S
N1425 C1427 1.356 . S
N1425 H1430 0.984 . S
N1425 H1431 0.985 . S
C1426 C1420 1.379 . S
C1426 C1423 1.363 . S
C1426 N1424 1.356 . S
C1427 C1421 1.363 . S
C1427 C1422 1.379 . S
C1427 N1425 1.356 . S
N1428 C1420 1.356 . S
N1428 H1434 0.984 . S
N1428 H1435 0.984 . S
N1429 C1422 1.356 . S
N1429 H1432 0.984 . S
N1429 H1433 0.985 . S
H1430 N1425 0.984 . S
H1431 N1425 0.985 . S
H1432 N1429 0.984 . S
H1433 N1429 0.985 . S
H1434 N1428 0.984 . S
H1435 N1428 0.984 . S
H1436 N1424 0.984 . S
H1437 N1424 0.985 . S
C1438 C1439 1.363 . S
C1438 C1444 1.379 . S
C1438 N1446 1.356 . S
C1439 C1438 1.363 . S
C1439 C1445 1.363 . S
C1440 C1441 1.363 . S
C1440 C1445 1.379 . S
C1440 N1447 1.356 . S
C1441 C1440 1.363 . S
C1441 C1444 1.363 . S
N1442 C1444 1.356 . S
N1442 H1454 0.984 . S
N1442 H1455 0.985 . S
N1443 C1445 1.356 . S
N1443 H1448 0.984 . S
N1443 H1449 0.985 . S
C1444 C1438 1.379 . S
C1444 C1441 1.363 . S
C1444 N1442 1.356 . S
C1445 C1439 1.363 . S
C1445 C1440 1.379 . S
C1445 N1443 1.356 . S
N1446 C1438 1.356 . S
N1446 H1452 0.984 . S
N1446 H1453 0.984 . S
N1447 C1440 1.356 . S
N1447 H1450 0.984 . S
N1447 H1451 0.985 . S
H1448 N1443 0.984 . S
H1449 N1443 0.985 . S
H1450 N1447 0.984 . S
H1451 N1447 0.985 . S
H1452 N1446 0.984 . S
H1453 N1446 0.984 . S
H1454 N1442 0.984 . S
H1455 N1442 0.985 . S
C1456 C1457 1.363 . S
C1456 C1462 1.379 . S
C1456 N1464 1.356 . S
C1457 C1456 1.363 . S
C1457 C1463 1.363 . S
C1458 C1459 1.363 . S
C1458 C1463 1.379 . S
C1458 N1465 1.356 . S
C1459 C1458 1.363 . S
C1459 C1462 1.363 . S
N1460 C1462 1.356 . S
N1460 H1472 0.984 . S
N1460 H1473 0.985 . S
N1461 C1463 1.356 . S
N1461 H1466 0.984 . S
N1461 H1467 0.985 . S
C1462 C1456 1.379 . S
C1462 C1459 1.363 . S
C1462 N1460 1.356 . S
C1463 C1457 1.363 . S
C1463 C1458 1.379 . S
C1463 N1461 1.356 . S
N1464 C1456 1.356 . S
N1464 H1470 0.984 . S
N1464 H1471 0.984 . S
N1465 C1458 1.356 . S
N1465 H1468 0.984 . S
N1465 H1469 0.985 . S
H1466 N1461 0.984 . S
H1467 N1461 0.985 . S
H1468 N1465 0.984 . S
H1469 N1465 0.985 . S
H1470 N1464 0.984 . S
H1471 N1464 0.984 . S
H1472 N1460 0.984 . S
H1473 N1460 0.985 . S
C1474 C1475 1.363 . S
C1474 C1480 1.379 . S
C1474 N1482 1.356 . S
C1475 C1474 1.363 . S
C1475 C1481 1.363 . S
C1476 C1477 1.363 . S
C1476 C1481 1.379 . S
C1476 N1483 1.356 . S
C1477 C1476 1.363 . S
C1477 C1480 1.363 . S
N1478 C1480 1.356 . S
N1478 H1490 0.984 . S
N1478 H1491 0.985 . S
N1479 C1481 1.356 . S
N1479 H1484 0.984 . S
N1479 H1485 0.985 . S
C1480 C1474 1.379 . S
C1480 C1477 1.363 . S
C1480 N1478 1.356 . S
C1481 C1475 1.363 . S
C1481 C1476 1.379 . S
C1481 N1479 1.356 . S
N1482 C1474 1.356 . S
N1482 H1488 0.984 . S
N1482 H1489 0.984 . S
N1483 C1476 1.356 . S
N1483 H1486 0.984 . S
N1483 H1487 0.985 . S
H1484 N1479 0.984 . S
H1485 N1479 0.985 . S
H1486 N1483 0.984 . S
H1487 N1483 0.985 . S
H1488 N1482 0.984 . S
H1489 N1482 0.984 . S
H1490 N1478 0.984 . S
H1491 N1478 0.985 . S
C1492 C1493 1.363 . S
C1492 C1498 1.379 . S
C1492 N1500 1.356 . S
C1493 C1492 1.363 . S
C1493 C1499 1.363 . S
C1494 C1495 1.363 . S
C1494 C1499 1.379 . S
C1494 N1501 1.356 . S
C1495 C1494 1.363 . S
C1495 C1498 1.363 . S
N1496 C1498 1.356 . S
N1496 H1508 0.984 . S
N1496 H1509 0.985 . S
N1497 C1499 1.356 . S
N1497 H1502 0.984 . S
N1497 H1503 0.985 . S
C1498 C1492 1.379 . S
C1498 C1495 1.363 . S
C1498 N1496 1.356 . S
C1499 C1493 1.363 . S
C1499 C1494 1.379 . S
C1499 N1497 1.356 . S
N1500 C1492 1.356 . S
N1500 H1506 0.984 . S
N1500 H1507 0.984 . S
N1501 C1494 1.356 . S
N1501 H1504 0.984 . S
N1501 H1505 0.985 . S
H1502 N1497 0.984 . S
H1503 N1497 0.985 . S
H1504 N1501 0.984 . S
H1505 N1501 0.985 . S
H1506 N1500 0.984 . S
H1507 N1500 0.984 . S
H1508 N1496 0.984 . S
H1509 N1496 0.985 . S
C1510 C1511 1.363 . S
C1510 C1516 1.379 . S
C1510 N1518 1.356 . S
C1511 C1510 1.363 . S
C1511 C1517 1.363 . S
C1512 C1513 1.363 . S
C1512 C1517 1.379 . S
C1512 N1519 1.356 . S
C1513 C1512 1.363 . S
C1513 C1516 1.363 . S
N1514 C1516 1.356 . S
N1514 H1526 0.984 . S
N1514 H1527 0.985 . S
N1515 C1517 1.356 . S
N1515 H1520 0.984 . S
N1515 H1521 0.985 . S
C1516 C1510 1.379 . S
C1516 C1513 1.363 . S
C1516 N1514 1.356 . S
C1517 C1511 1.363 . S
C1517 C1512 1.379 . S
C1517 N1515 1.356 . S
N1518 C1510 1.356 . S
N1518 H1524 0.984 . S
N1518 H1525 0.984 . S
N1519 C1512 1.356 . S
N1519 H1522 0.984 . S
N1519 H1523 0.985 . S
H1520 N1515 0.984 . S
H1521 N1515 0.985 . S
H1522 N1519 0.984 . S
H1523 N1519 0.985 . S
H1524 N1518 0.984 . S
H1525 N1518 0.984 . S
H1526 N1514 0.984 . S
H1527 N1514 0.985 . S
C1528 C1529 1.363 . S
C1528 C1534 1.379 . S
C1528 N1536 1.356 . S
C1529 C1528 1.363 . S
C1529 C1535 1.363 . S
C1530 C1531 1.363 . S
C1530 C1535 1.379 . S
C1530 N1537 1.356 . S
C1531 C1530 1.363 . S
C1531 C1534 1.363 . S
N1532 C1534 1.356 . S
N1532 H1544 0.984 . S
N1532 H1545 0.985 . S
N1533 C1535 1.356 . S
N1533 H1538 0.984 . S
N1533 H1539 0.985 . S
C1534 C1528 1.379 . S
C1534 C1531 1.363 . S
C1534 N1532 1.356 . S
C1535 C1529 1.363 . S
C1535 C1530 1.379 . S
C1535 N1533 1.356 . S
N1536 C1528 1.356 . S
N1536 H1542 0.984 . S
N1536 H1543 0.984 . S
N1537 C1530 1.356 . S
N1537 H1540 0.984 . S
N1537 H1541 0.985 . S
H1538 N1533 0.984 . S
H1539 N1533 0.985 . S
H1540 N1537 0.984 . S
H1541 N1537 0.985 . S
H1542 N1536 0.984 . S
H1543 N1536 0.984 . S
H1544 N1532 0.984 . S
H1545 N1532 0.985 . S
C1546 C1547 1.363 . S
C1546 C1552 1.379 . S
C1546 N1554 1.356 . S
C1547 C1546 1.363 . S
C1547 C1553 1.363 . S
C1548 C1549 1.363 . S
C1548 C1553 1.379 . S
C1548 N1555 1.356 . S
C1549 C1548 1.363 . S
C1549 C1552 1.363 . S
N1550 C1552 1.356 . S
N1550 H1562 0.984 . S
N1550 H1563 0.985 . S
N1551 C1553 1.356 . S
N1551 H1556 0.984 . S
N1551 H1557 0.985 . S
C1552 C1546 1.379 . S
C1552 C1549 1.363 . S
C1552 N1550 1.356 . S
C1553 C1547 1.363 . S
C1553 C1548 1.379 . S
C1553 N1551 1.356 . S
N1554 C1546 1.356 . S
N1554 H1560 0.984 . S
N1554 H1561 0.984 . S
N1555 C1548 1.356 . S
N1555 H1558 0.984 . S
N1555 H1559 0.985 . S
H1556 N1551 0.984 . S
H1557 N1551 0.985 . S
H1558 N1555 0.984 . S
H1559 N1555 0.985 . S
H1560 N1554 0.984 . S
H1561 N1554 0.984 . S
H1562 N1550 0.984 . S
H1563 N1550 0.985 . S
C1564 C1565 1.363 . S
C1564 C1570 1.379 . S
C1564 N1572 1.356 . S
C1565 C1564 1.363 . S
C1565 C1571 1.363 . S
C1566 C1567 1.363 . S
C1566 C1571 1.379 . S
C1566 N1573 1.356 . S
C1567 C1566 1.363 . S
C1567 C1570 1.363 . S
N1568 C1570 1.356 . S
N1568 H1580 0.984 . S
N1568 H1581 0.985 . S
N1569 C1571 1.356 . S
N1569 H1574 0.984 . S
N1569 H1575 0.985 . S
C1570 C1564 1.379 . S
C1570 C1567 1.363 . S
C1570 N1568 1.356 . S
C1571 C1565 1.363 . S
C1571 C1566 1.379 . S
C1571 N1569 1.356 . S
N1572 C1564 1.356 . S
N1572 H1578 0.984 . S
N1572 H1579 0.984 . S
N1573 C1566 1.356 . S
N1573 H1576 0.984 . S
N1573 H1577 0.985 . S
H1574 N1569 0.984 . S
H1575 N1569 0.985 . S
H1576 N1573 0.984 . S
H1577 N1573 0.985 . S
H1578 N1572 0.984 . S
H1579 N1572 0.984 . S
H1580 N1568 0.984 . S
H1581 N1568 0.985 . S
C1582 C1583 1.363 . S
C1582 C1588 1.379 . S
C1582 N1590 1.356 . S
C1583 C1582 1.363 . S
C1583 C1589 1.363 . S
C1584 C1585 1.363 . S
C1584 C1589 1.379 . S
C1584 N1591 1.356 . S
C1585 C1584 1.363 . S
C1585 C1588 1.363 . S
N1586 C1588 1.356 . S
N1586 H1598 0.984 . S
N1586 H1599 0.985 . S
N1587 C1589 1.356 . S
N1587 H1592 0.984 . S
N1587 H1593 0.985 . S
C1588 C1582 1.379 . S
C1588 C1585 1.363 . S
C1588 N1586 1.356 . S
C1589 C1583 1.363 . S
C1589 C1584 1.379 . S
C1589 N1587 1.356 . S
N1590 C1582 1.356 . S
N1590 H1596 0.984 . S
N1590 H1597 0.984 . S
N1591 C1584 1.356 . S
N1591 H1594 0.984 . S
N1591 H1595 0.985 . S
H1592 N1587 0.984 . S
H1593 N1587 0.985 . S
H1594 N1591 0.984 . S
H1595 N1591 0.985 . S
H1596 N1590 0.984 . S
H1597 N1590 0.984 . S
H1598 N1586 0.984 . S
H1599 N1586 0.985 . S
C449 C415 1.541 . S
C451 C9 1.541 . S
C467 C23 1.541 . S
C469 C429 1.541 . S
C485 C443 1.541 . S
C487 C37 1.541 . S
C503 C401 1.541 . S
C505 C51 1.541 . S
C521 C65 1.541 . S
C523 C387 1.541 . S
C539 C345 1.541 . S
C541 C79 1.541 . S
C557 C93 1.541 . S
C559 C359 1.541 . S
C575 C373 1.541 . S
C577 C107 1.541 . S
C593 C121 1.541 . S
C595 C303 1.541 . S
C611 C135 1.541 . S
C613 C317 1.541 . S
C629 C331 1.541 . S
C631 C149 1.541 . S
C647 C163 1.541 . S
C649 C289 1.541 . S
C665 C275 1.541 . S
C667 C177 1.541 . S
C683 C233 1.541 . S
C685 C191 1.541 . S
C701 C205 1.541 . S
C703 C247 1.541 . S
C719 C219 1.541 . S
C721 C261 1.541 . S
C737 C3 1.439 . S
C739 C143 1.439 . S
C755 C157 1.439 . S
C757 C17 1.439 . S
C773 C115 1.439 . S
C775 C31 1.439 . S
C791 C129 1.439 . S
C793 C45 1.439 . S
C809 C59 1.439 . S
C811 C199 1.439 . S
C827 C213 1.439 . S
C829 C73 1.439 . S
C845 C171 1.439 . S
C847 C87 1.439 . S
C863 C185 1.439 . S
C865 C101 1.439 . S
C881 C227 1.439 . S
C883 C367 1.439 . S
C899 C381 1.439 . S
C901 C241 1.439 . S
C917 C339 1.439 . S
C919 C255 1.439 . S
C935 C269 1.439 . S
C937 C353 1.439 . S
C953 C283 1.439 . S
C955 C423 1.439 . S
C971 C437 1.439 . S
C973 C297 1.439 . S
C989 C395 1.439 . S
C991 C311 1.439 . S
C1007 C325 1.439 . S
C1009 C409 1.439 . S
C1025 C8 1.533 . S
C1027 C64 1.533 . S
C1043 C22 1.533 . S
C1045 C78 1.533 . S
C1061 C92 1.533 . S
C1063 C36 1.533 . S
C1079 C50 1.533 . S
C1081 C106 1.533 . S
C1097 C120 1.533 . S
C1099 C176 1.533 . S
C1115 C190 1.533 . S
C1117 C134 1.533 . S
C1133 C204 1.533 . S
C1135 C148 1.533 . S
C1151 C162 1.533 . S
C1153 C218 1.533 . S
C1169 C232 1.533 . S
C1171 C288 1.533 . S
C1187 C302 1.533 . S
C1189 C246 1.533 . S
C1205 C260 1.533 . S
C1207 C316 1.533 . S
C1223 C330 1.533 . S
C1225 C274 1.533 . S
C1241 C400 1.533 . S
C1243 C344 1.533 . S
C1259 C358 1.533 . S
C1261 C414 1.533 . S
C1277 C372 1.533 . S
C1279 C428 1.533 . S
C1295 C386 1.533 . S
C1297 C442 1.533 . S
C1313 C7 1.370 . S
C1315 C77 1.370 . S
C1331 C21 1.370 . S
C1333 C91 1.370 . S
C1349 C105 1.370 . S
C1351 C35 1.370 . S
C1367 C63 1.370 . S
C1369 C49 1.370 . S
C1385 C189 1.370 . S
C1387 C119 1.370 . S
C1403 C203 1.370 . S
C1405 C133 1.370 . S
C1421 C217 1.370 . S
C1423 C147 1.370 . S
C1439 C161 1.370 . S
C1441 C175 1.370 . S
C1457 C231 1.370 . S
C1459 C301 1.370 . S
C1475 C315 1.370 . S
C1477 C245 1.370 . S
C1493 C329 1.370 . S
C1495 C259 1.370 . S
C1511 C273 1.370 . S
C1513 C287 1.370 . S
C1529 C413 1.370 . S
C1531 C343 1.370 . S
C1547 C357 1.370 . S
C1549 C427 1.370 . S
C1565 C371 1.370 . S
C1567 C441 1.370 . S
C1583 C399 1.370 . S
C1585 C385 1.370 . S
