# Generated by pormake.
# Topology sxe, (6)-cn, num edge types: 1
# Building blocks:
#     Node 0, Type 0, BuildingBlock: IZENUY_clean_sbu_0, # of connection points: 6
#     Node 1, Type 0, BuildingBlock: IZENUY_clean_sbu_0, # of connection points: 6
#     Node 2, Type 0, BuildingBlock: IZENUY_clean_sbu_0, # of connection points: 6
#     Node 3, Type 0, BuildingBlock: IZENUY_clean_sbu_0, # of connection points: 6
#     Node 4, Type 0, BuildingBlock: IZENUY_clean_sbu_0, # of connection points: 6
#     Node 5, Type 0, BuildingBlock: IZENUY_clean_sbu_0, # of connection points: 6
#     Node 6, Type 0, BuildingBlock: IZENUY_clean_sbu_0, # of connection points: 6
#     Node 7, Type 0, BuildingBlock: IZENUY_clean_sbu_0, # of connection points: 6
#     Node 8, Type 0, BuildingBlock: IZENUY_clean_sbu_0, # of connection points: 6
#     Node 9, Type 0, BuildingBlock: IZENUY_clean_sbu_0, # of connection points: 6
#     Node 10, Type 0, BuildingBlock: IZENUY_clean_sbu_0, # of connection points: 6
#     Node 11, Type 0, BuildingBlock: IZENUY_clean_sbu_0, # of connection points: 6
#     Node 12, Type 0, BuildingBlock: IZENUY_clean_sbu_0, # of connection points: 6
#     Node 13, Type 0, BuildingBlock: IZENUY_clean_sbu_0, # of connection points: 6
#     Node 14, Type 0, BuildingBlock: IZENUY_clean_sbu_0, # of connection points: 6
#     Node 15, Type 0, BuildingBlock: IZENUY_clean_sbu_0, # of connection points: 6
#     Node 16, Type 0, BuildingBlock: IZENUY_clean_sbu_0, # of connection points: 6
#     Node 17, Type 0, BuildingBlock: IZENUY_clean_sbu_0, # of connection points: 6
#     Node 18, Type 0, BuildingBlock: IZENUY_clean_sbu_0, # of connection points: 6
#     Node 19, Type 0, BuildingBlock: IZENUY_clean_sbu_0, # of connection points: 6
#     Node 20, Type 0, BuildingBlock: IZENUY_clean_sbu_0, # of connection points: 6
#     Node 21, Type 0, BuildingBlock: IZENUY_clean_sbu_0, # of connection points: 6
#     Node 22, Type 0, BuildingBlock: IZENUY_clean_sbu_0, # of connection points: 6
#     Node 23, Type 0, BuildingBlock: IZENUY_clean_sbu_0, # of connection points: 6
#     Edge 24, Type (0, 0), BuildingBlock: EZIPEK_clean_linker_0, # of connection points: 2
#     Edge 25, Type (0, 0), BuildingBlock: EZIPEK_clean_linker_0, # of connection points: 2
#     Edge 26, Type (0, 0), BuildingBlock: EZIPEK_clean_linker_0, # of connection points: 2
#     Edge 27, Type (0, 0), BuildingBlock: EZIPEK_clean_linker_0, # of connection points: 2
#     Edge 28, Type (0, 0), BuildingBlock: EZIPEK_clean_linker_0, # of connection points: 2
#     Edge 29, Type (0, 0), BuildingBlock: EZIPEK_clean_linker_0, # of connection points: 2
#     Edge 30, Type (0, 0), BuildingBlock: EZIPEK_clean_linker_0, # of connection points: 2
#     Edge 31, Type (0, 0), BuildingBlock: EZIPEK_clean_linker_0, # of connection points: 2
#     Edge 32, Type (0, 0), BuildingBlock: EZIPEK_clean_linker_0, # of connection points: 2
#     Edge 33, Type (0, 0), BuildingBlock: EZIPEK_clean_linker_0, # of connection points: 2
#     Edge 34, Type (0, 0), BuildingBlock: EZIPEK_clean_linker_0, # of connection points: 2
#     Edge 35, Type (0, 0), BuildingBlock: EZIPEK_clean_linker_0, # of connection points: 2
#     Edge 36, Type (0, 0), BuildingBlock: EZIPEK_clean_linker_0, # of connection points: 2
#     Edge 37, Type (0, 0), BuildingBlock: EZIPEK_clean_linker_0, # of connection points: 2
#     Edge 38, Type (0, 0), BuildingBlock: EZIPEK_clean_linker_0, # of connection points: 2
#     Edge 39, Type (0, 0), BuildingBlock: EZIPEK_clean_linker_0, # of connection points: 2
#     Edge 40, Type (0, 0), BuildingBlock: EZIPEK_clean_linker_0, # of connection points: 2
#     Edge 41, Type (0, 0), BuildingBlock: EZIPEK_clean_linker_0, # of connection points: 2
#     Edge 42, Type (0, 0), BuildingBlock: EZIPEK_clean_linker_0, # of connection points: 2
#     Edge 43, Type (0, 0), BuildingBlock: EZIPEK_clean_linker_0, # of connection points: 2
#     Edge 44, Type (0, 0), BuildingBlock: EZIPEK_clean_linker_0, # of connection points: 2
#     Edge 45, Type (0, 0), BuildingBlock: EZIPEK_clean_linker_0, # of connection points: 2
#     Edge 46, Type (0, 0), BuildingBlock: EZIPEK_clean_linker_0, # of connection points: 2
#     Edge 47, Type (0, 0), BuildingBlock: EZIPEK_clean_linker_0, # of connection points: 2
#     Edge 48, Type (0, 0), BuildingBlock: EZIPEK_clean_linker_0, # of connection points: 2
#     Edge 49, Type (0, 0), BuildingBlock: EZIPEK_clean_linker_0, # of connection points: 2
#     Edge 50, Type (0, 0), BuildingBlock: EZIPEK_clean_linker_0, # of connection points: 2
#     Edge 51, Type (0, 0), BuildingBlock: EZIPEK_clean_linker_0, # of connection points: 2
#     Edge 52, Type (0, 0), BuildingBlock: EZIPEK_clean_linker_0, # of connection points: 2
#     Edge 53, Type (0, 0), BuildingBlock: EZIPEK_clean_linker_0, # of connection points: 2
#     Edge 54, Type (0, 0), BuildingBlock: EZIPEK_clean_linker_0, # of connection points: 2
#     Edge 55, Type (0, 0), BuildingBlock: EZIPEK_clean_linker_0, # of connection points: 2
#     Edge 56, Type (0, 0), BuildingBlock: EZIPEK_clean_linker_0, # of connection points: 2
#     Edge 57, Type (0, 0), BuildingBlock: EZIPEK_clean_linker_0, # of connection points: 2
#     Edge 58, Type (0, 0), BuildingBlock: EZIPEK_clean_linker_0, # of connection points: 2
#     Edge 59, Type (0, 0), BuildingBlock: EZIPEK_clean_linker_0, # of connection points: 2
#     Edge 60, Type (0, 0), BuildingBlock: EZIPEK_clean_linker_0, # of connection points: 2
#     Edge 61, Type (0, 0), BuildingBlock: EZIPEK_clean_linker_0, # of connection points: 2
#     Edge 62, Type (0, 0), BuildingBlock: EZIPEK_clean_linker_0, # of connection points: 2
#     Edge 63, Type (0, 0), BuildingBlock: EZIPEK_clean_linker_0, # of connection points: 2
#     Edge 64, Type (0, 0), BuildingBlock: EZIPEK_clean_linker_0, # of connection points: 2
#     Edge 65, Type (0, 0), BuildingBlock: EZIPEK_clean_linker_0, # of connection points: 2
#     Edge 66, Type (0, 0), BuildingBlock: EZIPEK_clean_linker_0, # of connection points: 2
#     Edge 67, Type (0, 0), BuildingBlock: EZIPEK_clean_linker_0, # of connection points: 2
#     Edge 68, Type (0, 0), BuildingBlock: EZIPEK_clean_linker_0, # of connection points: 2
#     Edge 69, Type (0, 0), BuildingBlock: EZIPEK_clean_linker_0, # of connection points: 2
#     Edge 70, Type (0, 0), BuildingBlock: EZIPEK_clean_linker_0, # of connection points: 2
#     Edge 71, Type (0, 0), BuildingBlock: EZIPEK_clean_linker_0, # of connection points: 2
#     Edge 72, Type (0, 0), BuildingBlock: EZIPEK_clean_linker_0, # of connection points: 2
#     Edge 73, Type (0, 0), BuildingBlock: EZIPEK_clean_linker_0, # of connection points: 2
#     Edge 74, Type (0, 0), BuildingBlock: EZIPEK_clean_linker_0, # of connection points: 2
#     Edge 75, Type (0, 0), BuildingBlock: EZIPEK_clean_linker_0, # of connection points: 2
#     Edge 76, Type (0, 0), BuildingBlock: EZIPEK_clean_linker_0, # of connection points: 2
#     Edge 77, Type (0, 0), BuildingBlock: EZIPEK_clean_linker_0, # of connection points: 2
#     Edge 78, Type (0, 0), BuildingBlock: EZIPEK_clean_linker_0, # of connection points: 2
#     Edge 79, Type (0, 0), BuildingBlock: EZIPEK_clean_linker_0, # of connection points: 2
#     Edge 80, Type (0, 0), BuildingBlock: EZIPEK_clean_linker_0, # of connection points: 2
#     Edge 81, Type (0, 0), BuildingBlock: EZIPEK_clean_linker_0, # of connection points: 2
#     Edge 82, Type (0, 0), BuildingBlock: EZIPEK_clean_linker_0, # of connection points: 2
#     Edge 83, Type (0, 0), BuildingBlock: EZIPEK_clean_linker_0, # of connection points: 2
#     Edge 84, Type (0, 0), BuildingBlock: EZIPEK_clean_linker_0, # of connection points: 2
#     Edge 85, Type (0, 0), BuildingBlock: EZIPEK_clean_linker_0, # of connection points: 2
#     Edge 86, Type (0, 0), BuildingBlock: EZIPEK_clean_linker_0, # of connection points: 2
#     Edge 87, Type (0, 0), BuildingBlock: EZIPEK_clean_linker_0, # of connection points: 2
#     Edge 88, Type (0, 0), BuildingBlock: EZIPEK_clean_linker_0, # of connection points: 2
#     Edge 89, Type (0, 0), BuildingBlock: EZIPEK_clean_linker_0, # of connection points: 2
#     Edge 90, Type (0, 0), BuildingBlock: EZIPEK_clean_linker_0, # of connection points: 2
#     Edge 91, Type (0, 0), BuildingBlock: EZIPEK_clean_linker_0, # of connection points: 2
#     Edge 92, Type (0, 0), BuildingBlock: EZIPEK_clean_linker_0, # of connection points: 2
#     Edge 93, Type (0, 0), BuildingBlock: EZIPEK_clean_linker_0, # of connection points: 2
#     Edge 94, Type (0, 0), BuildingBlock: EZIPEK_clean_linker_0, # of connection points: 2
#     Edge 95, Type (0, 0), BuildingBlock: EZIPEK_clean_linker_0, # of connection points: 2
# Relax obj value: 0.306
# Max RMSD: 0.231
# Mean RMSD: 0.230
data_MOF--net-sxe--node1-IZENUY_clean_sbu_0--edge1-EZIPEK_clean_linker_0
_symmetry_space_group_name_H-M    P1
_symmetry_Int_Tables_number       1
_symmetry_cell_setting            triclinic
loop_
_symmetry_equiv_pos_as_xyz
'x, y, z'
_cell_length_a     35.246051
_cell_length_b     35.343871
_cell_length_c     35.350319
_cell_angle_alpha  90.121765
_cell_angle_beta   90.025009
_cell_angle_gamma 90.083592
loop_
_atom_site_label
_atom_site_type_symbol
_atom_site_fract_x
_atom_site_fract_y
_atom_site_fract_z
_atom_type_partial_charge
Fe0 Fe 0.16082 0.45336 0.27657 0.0
Fe1 Fe 0.19591 0.39139 0.22789 0.0
O2 O 0.19306 0.43976 0.24046 0.0
Fe3 Fe 0.22261 0.47311 0.2169 0.0
O4 O 0.23236 0.50163 0.25966 0.0
O5 O 0.19795 0.47545 0.30405 0.0
O6 O 0.16967 0.41112 0.30528 0.0
C7 C 0.19617 0.38686 0.30457 0.0
C8 C 0.15551 0.51375 0.22336 0.0
O9 O 0.21399 0.37955 0.27436 0.0
C10 C 0.19323 0.4245 0.15822 0.0
O11 O 0.1198 0.43205 0.25258 0.0
O12 O 0.14806 0.3789 0.24236 0.0
O13 O 0.1832 0.50307 0.20353 0.0
O14 O 0.14739 0.49774 0.25424 0.0
C15 C 0.27174 0.41345 0.21823 0.0
O16 O 0.17796 0.40172 0.18126 0.0
O17 O 0.21685 0.44921 0.1703 0.0
C18 C 0.11776 0.39757 0.24378 0.0
O19 O 0.2443 0.39228 0.21031 0.0
O20 O 0.2661 0.4472 0.22788 0.0
C21 C 0.22569 0.49573 0.29446 0.0
Fe22 Fe 0.36062 0.5609 0.77705 0.0
Fe23 Fe 0.32243 0.62342 0.73114 0.0
O24 O 0.32741 0.57479 0.74222 0.0
Fe25 Fe 0.29956 0.54068 0.71761 0.0
O26 O 0.29428 0.50816 0.7583 0.0
O27 O 0.32472 0.53682 0.80456 0.0
O28 O 0.35132 0.60214 0.80775 0.0
C29 C 0.32543 0.62715 0.80804 0.0
C30 C 0.37024 0.50603 0.71852 0.0
O31 O 0.30613 0.63411 0.77866 0.0
C32 C 0.32281 0.59223 0.65994 0.0
O33 O 0.39997 0.58445 0.75271 0.0
O34 O 0.37063 0.6377 0.74436 0.0
O35 O 0.34117 0.51608 0.70043 0.0
O36 O 0.37488 0.51711 0.7524 0.0
C37 C 0.24729 0.59674 0.72476 0.0
O38 O 0.33862 0.61495 0.68295 0.0
O39 O 0.30033 0.56715 0.67261 0.0
C40 C 0.40124 0.61978 0.74834 0.0
O41 O 0.27304 0.61997 0.71632 0.0
O42 O 0.25518 0.5628 0.73219 0.0
C43 C 0.30122 0.51243 0.79329 0.0
Fe44 Fe 0.71279 0.04236 0.79939 0.0
Fe45 Fe 0.65474 0.06356 0.7382 0.0
O46 O 0.68698 0.07757 0.77442 0.0
Fe47 Fe 0.69345 0.12605 0.78558 0.0
O48 O 0.74422 0.12388 0.77804 0.0
O49 O 0.755 0.07164 0.80933 0.0
O50 O 0.73585 0.02679 0.75568 0.0
C51 C 0.7179 0.01473 0.72703 0.0
C52 C 0.69188 0.0895 0.85758 0.0
O53 O 0.68277 0.02188 0.72338 0.0
C54 C 0.61781 0.1284 0.76976 0.0
O55 O 0.67561 1.00587 0.79527 0.0
O56 O 0.62666 0.03605 0.77162 0.0
O57 O 0.69841 0.1178 0.83651 0.0
O58 O 0.69131 0.05628 0.84424 0.0
C59 C 0.68993 0.12426 0.70529 0.0
O60 O 0.6215 0.10313 0.7447 0.0
O61 O 0.64324 0.13351 0.79418 0.0
C62 C 0.64016 0.00854 0.78995 0.0
O63 O 0.68015 0.09008 0.70281 0.0
O64 O 0.68995 0.14192 0.73642 0.0
C65 C 0.76657 0.10253 0.79556 0.0
Fe66 Fe 0.85815 0.94526 0.23933 0.0
Fe67 Fe 0.82447 0.88767 0.29412 0.0
O68 O 0.82748 0.93465 0.2772 0.0
Fe69 Fe 0.79996 0.97065 0.29896 0.0
O70 O 0.79382 0.99948 0.25522 0.0
O71 O 0.82021 0.9646 0.21114 0.0
O72 O 0.84865 0.90025 0.2143 0.0
C73 C 0.82226 0.87603 0.21784 0.0
C74 C 0.86905 0.00647 0.29129 0.0
O75 O 0.80606 0.87077 0.24923 0.0
C76 C 0.82644 0.92618 0.36093 0.0
O77 O 0.89953 0.92673 0.26384 0.0
O78 O 0.87305 0.87388 0.2808 0.0
O79 O 0.84182 0.99729 0.31251 0.0
O80 O 0.87162 0.9919 0.25851 0.0
C81 C 0.74893 0.91272 0.29798 0.0
O82 O 0.84259 0.90236 0.33965 0.0
O83 O 0.80208 0.94863 0.34668 0.0
C84 C 0.90253 0.89252 0.27277 0.0
O85 O 0.77519 0.8917 0.31011 0.0
O86 O 0.7559 0.94604 0.28709 0.0
C87 C 0.79967 0.99202 0.22046 0.0
Fe88 Fe 0.21442 0.21526 0.4677 0.0
Fe89 Fe 0.27484 0.15427 0.45303 0.0
O90 O 0.23824 0.18422 0.43606 0.0
Fe91 Fe 0.22586 0.1822 0.3876 0.0
O92 O 0.23484 0.23196 0.38065 0.0
O93 O 0.20776 0.25335 0.43263 0.0
O94 O 0.25876 0.23827 0.48147 0.0
C95 C 0.28646 0.22107 0.49606 0.0
C96 C 0.15419 0.1917 0.42419 0.0
O97 O 0.28996 0.18573 0.49181 0.0
C98 C 0.23888 0.10749 0.39828 0.0
O99 O 0.21644 0.18175 0.50785 0.0
O100 O 0.24128 0.12982 0.48361 0.0
O101 O 0.17532 0.19006 0.39547 0.0
O102 O 0.16792 0.19568 0.45684 0.0
C103 C 0.30607 0.1817 0.38785 0.0
O104 O 0.26777 0.11661 0.41752 0.0
O105 O 0.21508 0.13242 0.39028 0.0
C106 C 0.22218 0.14623 0.50917 0.0
O107 O 0.30969 0.17778 0.42321 0.0
O108 O 0.2749 0.17438 0.37138 0.0
C109 C 0.22058 0.25852 0.39954 0.0
Fe110 Fe 0.29266 0.83086 0.88738 0.0
Fe111 Fe 0.30181 0.80396 0.97008 0.0
O112 O 0.27836 0.83203 0.9354 0.0
Fe113 Fe 0.24068 0.86215 0.94906 0.0
O114 O 0.20755 0.837 0.91915 0.0
O115 O 0.24415 0.83648 0.86857 0.0
O116 O 0.28502 0.78027 0.88376 0.0
C117 C 0.30009 0.75559 0.90448 0.0
C118 C 0.27776 0.90661 0.89312 0.0
O119 O 0.3122 0.76391 0.93737 0.0
C120 C 0.28877 0.87435 0.00819 0.0
O121 O 0.34323 0.82462 0.89826 0.0
O122 O 0.34705 0.826 0.96034 0.0
O123 O 0.24876 0.89843 0.91254 0.0
O124 O 0.30186 0.88131 0.88649 0.0
C125 C 0.22921 0.7968 0.99527 0.0
O126 O 0.29607 0.83911 0.0086 0.0
O127 O 0.27184 0.88898 0.98032 0.0
C128 C 0.36264 0.82673 0.92842 0.0
O129 O 0.25825 0.77965 0.9835 0.0
O130 O 0.22464 0.83152 0.98747 0.0
C131 C 0.21224 0.83112 0.88434 0.0
Fe132 Fe 0.71919 0.28827 0.53908 0.0
Fe133 Fe 0.77912 0.34797 0.55996 0.0
O134 O 0.74243 0.3163 0.57378 0.0
Fe135 Fe 0.72961 0.31197 0.62203 0.0
O136 O 0.7397 0.26173 0.62224 0.0
O137 O 0.70994 0.24764 0.56987 0.0
O138 O 0.76373 0.26555 0.52577 0.0
C139 C 0.79192 0.28358 0.51311 0.0
C140 C 0.65854 0.30803 0.58296 0.0
O141 O 0.79575 0.31851 0.52046 0.0
C142 C 0.74323 0.38765 0.62111 0.0
O143 O 0.72371 0.3236 0.50148 0.0
O144 O 0.74718 0.37434 0.52906 0.0
O145 O 0.67887 0.30387 0.6123 0.0
O146 O 0.67319 0.30881 0.55035 0.0
C147 C 0.81013 0.31675 0.62378 0.0
O148 O 0.76995 0.38284 0.59763 0.0
O149 O 0.71878 0.36212 0.6262 0.0
C150 C 0.72954 0.35898 0.50189 0.0
O151 O 0.81383 0.32393 0.58911 0.0
O152 O 0.77816 0.31879 0.63995 0.0
C153 C 0.7248 0.23754 0.60064 0.0
Fe154 Fe 0.79743 0.71614 0.03913 0.0
Fe155 Fe 0.73446 0.65854 0.05631 0.0
O156 O 0.77342 0.68655 0.07162 0.0
Fe157 Fe 0.78787 0.68429 0.1193 0.0
O158 O 0.78113 0.7343 0.12629 0.0
O159 O 0.80839 0.75399 0.07395 0.0
O160 O 0.75408 0.74166 0.0282 0.0
C161 C 0.72494 0.72609 0.01456 0.0
C162 C 0.85808 0.68977 0.07938 0.0
O163 O 0.71976 0.69084 0.01817 0.0
C164 C 0.76844 0.61132 0.11245 0.0
O165 O 0.79119 0.68292 0.99896 0.0
O166 O 0.7652 0.63205 0.02438 0.0
O167 O 0.83856 0.69039 0.10943 0.0
O168 O 0.84253 0.69319 0.04758 0.0
C169 C 0.70794 0.68855 0.12237 0.0
O170 O 0.74044 0.62088 0.09217 0.0
O171 O 0.79584 0.63369 0.11591 0.0
C172 C 0.78386 0.64761 0.99798 0.0
O173 O 0.70232 0.68417 0.08736 0.0
O174 O 0.7392 0.679 0.13732 0.0
C175 C 0.79569 0.76032 0.10697 0.0
Fe176 Fe 0.46522 0.21537 0.22173 0.0
Fe177 Fe 0.4531 0.27356 0.15794 0.0
O178 O 0.43484 0.23991 0.19018 0.0
Fe179 Fe 0.38553 0.23047 0.19052 0.0
O180 O 0.38336 0.21706 0.24062 0.0
O181 O 0.43932 0.2316 0.26339 0.0
O182 O 0.49829 0.25591 0.22883 0.0
C183 C 0.49597 0.29075 0.22016 0.0
C184 C 0.41264 0.15898 0.19616 0.0
O185 O 0.473 0.30188 0.19542 0.0
C186 C 0.39896 0.24445 0.11227 0.0
O187 O 0.49328 0.19627 0.18334 0.0
O188 O 0.49857 0.24842 0.15016 0.0
O189 O 0.39364 0.18172 0.17613 0.0
O190 O 0.43741 0.17106 0.2194 0.0
C191 C 0.38601 0.30746 0.18696 0.0
O192 O 0.43411 0.24797 0.11736 0.0
O193 O 0.37712 0.24254 0.14056 0.0
C194 C 0.51046 0.21577 0.15912 0.0
O195 O 0.41127 0.30515 0.16133 0.0
O196 O 0.37558 0.27857 0.20518 0.0
C197 C 0.4047 0.2241 0.26841 0.0
Fe198 Fe 0.97338 0.29514 0.79703 0.0
Fe199 Fe 0.94989 0.23671 0.85712 0.0
O200 O 0.93719 0.27193 0.82358 0.0
Fe201 Fe 0.88861 0.28375 0.81709 0.0
O202 O 0.89036 0.27333 0.76701 0.0
O203 O 0.94461 0.30106 0.75396 0.0
O204 O 0.99088 0.25032 0.77723 0.0
C205 C 1.00166 0.22245 0.79698 0.0
C206 C 0.92613 0.35577 0.81266 0.0
O207 O 0.9919 0.2202 0.83136 0.0
C208 C 0.88602 0.2714 0.89298 0.0
O209 O 0.00866 0.29381 0.83545 0.0
O210 O 0.97764 0.27093 0.8843 0.0
O211 O 0.89732 0.33451 0.80882 0.0
O212 O 0.95914 0.34185 0.81445 0.0
C213 C 0.88841 0.20325 0.82349 0.0
O214 O 0.90993 0.24508 0.8894 0.0
O215 O 0.88176 0.29523 0.86691 0.0
C216 C 1.00561 0.28886 0.87085 0.0
O217 O 0.92308 0.20045 0.83206 0.0
O218 O 0.87159 0.23493 0.82372 0.0
C219 C 0.91273 0.28813 0.7436 0.0
Fe220 Fe 0.62569 0.73375 0.32353 0.0
Fe221 Fe 0.54406 0.72037 0.2942 0.0
O222 O 0.57682 0.74584 0.32285 0.0
Fe223 Fe 0.56021 0.78352 0.35158 0.0
O224 O 0.58959 0.81766 0.32649 0.0
O225 O 0.64194 0.78318 0.32787 0.0
O226 O 0.63043 0.73958 0.27267 0.0
C227 C 0.61062 0.7236 0.24765 0.0
C228 C 0.61783 0.75151 0.39836 0.0
O229 O 0.57797 0.71062 0.25534 0.0
C230 C 0.504 0.73141 0.36367 0.0
O231 O 0.61728 0.68256 0.3191 0.0
O232 O 0.5553 0.67603 0.31686 0.0
O233 O 0.59653 0.77842 0.38833 0.0
O234 O 0.62622 0.72659 0.37441 0.0
C235 C 0.51546 0.79144 0.28521 0.0
O236 O 0.50437 0.72446 0.32837 0.0
O237 O 0.53017 0.75109 0.37842 0.0
C238 C 0.58779 0.66196 0.32035 0.0
O239 O 0.5299 0.76307 0.26897 0.0
O240 O 0.52065 0.79685 0.32022 0.0
C241 C 0.62511 0.81444 0.32232 0.0
Fe242 Fe 0.04826 0.79278 0.72185 0.0
Fe243 Fe 0.06174 0.728 0.66473 0.0
O244 O 0.07937 0.76578 0.69294 0.0
Fe245 Fe 0.12852 0.77652 0.6922 0.0
O246 O 0.13063 0.79366 0.74113 0.0
O247 O 0.07444 0.78178 0.76492 0.0
O248 O 0.01693 0.75247 0.73315 0.0
C249 C 0.02137 0.71684 0.73102 0.0
C250 C 0.10117 0.84808 0.69348 0.0
O251 O 0.04274 0.7034 0.7057 0.0
C252 C 0.11439 0.75586 0.61556 0.0
O253 O 0.01904 0.80633 0.68175 0.0
O254 O 0.01573 0.75023 0.65482 0.0
O255 O 0.11944 0.82395 0.67446 0.0
O256 O 0.07485 0.8376 0.71572 0.0
C257 C 0.13079 0.69935 0.69436 0.0
O258 O 0.07961 0.74961 0.62132 0.0
O259 O 0.13654 0.76118 0.64319 0.0
C260 C 1.00307 0.78342 0.65942 0.0
O261 O 0.10432 0.69834 0.67009 0.0
O262 O 0.14035 0.72998 0.71015 0.0
C263 C 0.10913 0.78923 0.76928 0.0
Fe264 Fe 0.81726 0.62376 0.7764 0.0
Fe265 Fe 0.85262 0.55926 0.72973 0.0
O266 O 0.82079 0.57492 0.76545 0.0
Fe267 Fe 0.79256 0.54143 0.79003 0.0
O268 O 0.75178 0.57336 0.79743 0.0
O269 O 0.76688 0.62467 0.76638 0.0
O270 O 0.8246 0.63947 0.72725 0.0
C271 C 0.82177 0.62203 0.69598 0.0
C272 C 0.8117 0.58807 0.84883 0.0
O273 O 0.82848 0.58699 0.69361 0.0
C274 C 0.86395 0.50352 0.78211 0.0
O275 O 0.86752 0.6272 0.78744 0.0
O276 O 0.88784 0.59734 0.73703 0.0
O277 O 0.81273 0.55494 0.83547 0.0
O278 O 0.80865 0.61655 0.82729 0.0
C279 C 0.78816 0.51153 0.71892 0.0
O280 O 0.87884 0.53049 0.76384 0.0
O281 O 0.82834 0.50309 0.78779 0.0
C282 C 0.89332 0.62082 0.76362 0.0
O283 O 0.82328 0.51837 0.71487 0.0
O284 O 0.77004 0.52583 0.74623 0.0
C285 C 0.74235 0.60462 0.78281 0.0
Fe286 Fe 0.71471 0.47418 0.29726 0.0
Fe287 Fe 0.6878 0.39264 0.28813 0.0
O288 O 0.68557 0.44026 0.27364 0.0
Fe289 Fe 0.6543 0.45298 0.23647 0.0
O290 O 0.69178 0.47547 0.20907 0.0
O291 O 0.72225 0.50371 0.25559 0.0
O292 O 0.75821 0.44933 0.28386 0.0
C293 C 0.76431 0.41534 0.2924 0.0
C294 C 0.64741 0.51384 0.28989 0.0
O295 O 0.73745 0.3946 0.30348 0.0
C296 C 0.61024 0.39824 0.26769 0.0
O297 O 0.71261 0.44965 0.34383 0.0
O298 O 0.67003 0.40537 0.33454 0.0
O299 O 0.64087 0.49756 0.25863 0.0
O300 O 0.67396 0.50262 0.31137 0.0
C301 C 0.68829 0.3839 0.21147 0.0
O302 O 0.63951 0.37933 0.27469 0.0
O303 O 0.61318 0.43278 0.26023 0.0
C304 C 0.69027 0.42447 0.35687 0.0
O305 O 0.70521 0.37873 0.24251 0.0
O306 O 0.66294 0.40928 0.20832 0.0
C307 C 0.71525 0.49992 0.22069 0.0
Fe308 Fe 0.28947 0.96862 0.22233 0.0
Fe309 Fe 0.31677 0.88672 0.22971 0.0
O310 O 0.31943 0.93476 0.2438 0.0
Fe311 Fe 0.35149 0.94919 0.28006 0.0
O312 O 0.32077 0.98689 0.29852 0.0
O313 O 0.2672 0.97935 0.26769 0.0
O314 O 0.25001 0.9362 0.21284 0.0
C315 C 0.24101 0.90483 0.22708 0.0
C316 C 0.35874 0.009 0.23216 0.0
O317 O 0.26652 0.88358 0.24006 0.0
C318 C 0.39259 0.89007 0.24248 0.0
O319 O 0.30962 0.95962 0.17571 0.0
O320 O 0.30767 0.89731 0.17954 0.0
O321 O 0.37598 0.98209 0.24839 0.0
O322 O 0.32316 0.00774 0.22743 0.0
C323 C 0.32142 0.88417 0.30977 0.0
O324 O 0.36699 0.88556 0.21811 0.0
O325 O 0.38759 0.91283 0.26976 0.0
C326 C 0.30995 0.92738 0.1601 0.0
O327 O 0.32459 0.8681 0.27781 0.0
O328 O 0.329 0.91861 0.31405 0.0
C329 C 0.28523 0.99157 0.29614 0.0
Fe330 Fe 0.19231 0.12235 0.72378 0.0
Fe331 Fe 0.16467 0.06218 0.77967 0.0
O332 O 0.19208 0.07497 0.73956 0.0
Fe333 Fe 0.22111 0.04155 0.7162 0.0
O334 O 0.26416 0.06892 0.72571 0.0
O335 O 0.24047 0.12199 0.70482 0.0
O336 O 0.21294 0.13703 0.76844 0.0
C337 C 0.19814 0.13234 0.80054 0.0
C338 C 0.18973 0.08556 0.65596 0.0
O339 O 0.17221 0.10782 0.80442 0.0
C340 C 0.15732 0.99879 0.72914 0.0
O341 O 0.14402 0.13347 0.74019 0.0
O342 O 0.12045 0.07918 0.75841 0.0
O343 O 0.21462 0.06342 0.66951 0.0
O344 O 0.17303 0.1088 0.67779 0.0
C345 C 0.2317 0.02285 0.79324 0.0
O346 O 0.15317 0.01424 0.76145 0.0
O347 O 0.18078 0.01153 0.70536 0.0
C348 C 0.11571 0.11345 0.74934 0.0
O349 O 0.20625 0.045 0.80506 0.0
O350 O 0.23236 0.01403 0.75859 0.0
C351 C 0.26851 0.10273 0.71533 0.0
Fe352 Fe 0.77873 0.81843 0.62759 0.0
Fe353 Fe 0.73726 0.85607 0.5622 0.0
O354 O 0.77208 0.82414 0.57843 0.0
Fe355 Fe 0.80025 0.79848 0.54576 0.0
O356 O 0.78596 0.75267 0.56511 0.0
O357 O 0.79402 0.76898 0.62454 0.0
O358 O 0.73057 0.80136 0.63357 0.0
C359 C 0.702 0.82108 0.62498 0.0
C360 C 0.85221 0.81905 0.60478 0.0
O361 O 0.70489 0.8479 0.60164 0.0
C362 C 0.79652 0.86565 0.50821 0.0
O363 O 0.7645 0.86664 0.6405 0.0
O364 O 0.76012 0.89605 0.58634 0.0
O365 O 0.84314 0.79956 0.5759 0.0
O366 O 0.8272 0.83544 0.62431 0.0
C367 C 0.72575 0.79759 0.51309 0.0
O368 O 0.76235 0.86937 0.51843 0.0
O369 O 0.81753 0.84188 0.52436 0.0
C370 C 0.76311 0.8972 0.62201 0.0
O371 O 0.71231 0.81837 0.53866 0.0
O372 O 0.76151 0.79311 0.51002 0.0
C373 C 0.79046 0.74382 0.59941 0.0
Fe374 Fe 0.73524 0.18203 0.12695 0.0
Fe375 Fe 0.78007 0.15622 0.05689 0.0
O376 O 0.74352 0.18399 0.07764 0.0
Fe377 Fe 0.71449 0.21433 0.04987 0.0
O378 O 0.73003 0.25662 0.07637 0.0
O379 O 0.71764 0.23018 0.13032 0.0
O380 O 0.78218 0.2001 0.13644 0.0
C381 C 0.81319 0.18793 0.12333 0.0
C382 C 0.66224 0.1838 0.10376 0.0
O383 O 0.81393 0.16479 0.09576 0.0
C384 C 0.71761 0.15038 1.00508 0.0
O385 O 0.75174 0.13407 0.13456 0.0
O386 O 0.76253 0.11205 0.07791 0.0
O387 O 0.6718 0.20877 0.07978 0.0
O388 O 0.68733 0.1638 0.11969 0.0
C389 C 0.78638 0.22027 0.01261 0.0
O390 O 0.752 0.14475 0.01443 0.0
O391 O 0.69732 0.1744 0.02221 0.0
C392 C 0.75766 0.10662 0.11285 0.0
O393 O 0.80215 0.19648 0.03382 0.0
O394 O 0.75091 0.22555 0.01415 0.0
C395 C 0.72517 0.25955 0.1117 0.0
Fe396 Fe 0.29476 0.71874 0.47147 0.0
Fe397 Fe 0.28932 0.69203 0.38931 0.0
O398 O 0.27358 0.68932 0.43679 0.0
Fe399 Fe 0.2373 0.65705 0.44931 0.0
O400 O 0.20744 0.6943 0.46792 0.0
O401 O 0.25133 0.72359 0.50094 0.0
O402 O 0.28083 0.76174 0.44653 0.0
C403 C 0.29118 0.76826 0.41297 0.0
C404 C 0.28932 0.65309 0.51165 0.0
O405 O 0.30261 0.7418 0.39185 0.0
C406 C 0.27225 0.6135 0.39652 0.0
O407 O 0.34196 0.71856 0.44885 0.0
O408 O 0.33721 0.67755 0.40261 0.0
O409 O 0.25716 0.6464 0.49678 0.0
O410 O 0.31071 0.67817 0.49812 0.0
C411 C 0.21242 0.68876 0.37945 0.0
O412 O 0.27831 0.64276 0.37694 0.0
O413 O 0.26424 0.61687 0.43111 0.0
C414 C 0.35768 0.69557 0.4261 0.0
O415 O 0.24269 0.70702 0.3736 0.0
O416 O 0.21087 0.66299 0.40447 0.0
C417 C 0.21662 0.71614 0.49451 0.0
Fe418 Fe 0.227 0.32353 0.88942 0.0
Fe419 Fe 0.27882 0.3562 0.95162 0.0
O420 O 0.2422 0.32477 0.93729 0.0
Fe421 Fe 0.22087 0.29402 0.97072 0.0
O422 O 0.23633 0.25203 0.94438 0.0
O423 O 0.21573 0.27317 0.88967 0.0
O424 O 0.27392 0.31043 0.87344 0.0
C425 C 0.3044 0.32736 0.88128 0.0
C426 C 0.15829 0.31507 0.92335 0.0
O427 O 0.30597 0.35197 0.90732 0.0
C428 C 0.2253 0.35929 0.0124 0.0
O429 O 0.23684 0.3736 0.87969 0.0
O430 O 0.25303 0.39729 0.93447 0.0
O431 O 0.17399 0.29381 0.94765 0.0
O432 O 0.17837 0.33574 0.90202 0.0
C433 C 0.29828 0.29499 0.99456 0.0
O434 O 0.25813 0.3655 0.99889 0.0
O435 O 0.20422 0.33396 0.99837 0.0
C436 C 0.24511 0.40188 0.90007 0.0
O437 O 0.30798 0.31785 0.96916 0.0
O438 O 0.26347 0.2886 1.00088 0.0
C439 C 0.22846 0.24659 0.90988 0.0
Fe440 Fe 0.56611 0.73993 0.85956 0.0
Fe441 Fe 0.54219 0.79843 0.80013 0.0
O442 O 0.57822 0.77725 0.82809 0.0
Fe443 Fe 0.62587 0.7928 0.82516 0.0
O444 O 0.64593 0.74475 0.83005 0.0
O445 O 0.59591 0.70708 0.83394 0.0
O446 O 0.52562 0.72226 0.83149 0.0
C447 C 0.51883 0.72477 0.79642 0.0
C448 C 0.62428 0.7779 0.90044 0.0
O449 O 0.53071 0.75303 0.77812 0.0
C450 C 0.58285 0.8615 0.82095 0.0
O451 O 0.53582 0.77147 0.88673 0.0
O452 O 0.5054 0.7932 0.83676 0.0
O453 O 0.62821 0.80253 0.87537 0.0
O454 O 0.60429 0.74897 0.89379 0.0
C455 C 0.60555 0.79768 0.75022 0.0
O456 O 0.55103 0.84524 0.81943 0.0
O457 O 0.61352 0.84284 0.8193 0.0
C458 C 0.50831 0.78931 0.87235 0.0
O459 O 0.57255 0.80847 0.75904 0.0
O460 O 0.62816 0.78509 0.77463 0.0
C461 C 0.63051 0.7124 0.82646 0.0
Fe462 Fe 0.04418 0.71492 0.20918 0.0
Fe463 Fe 0.1249 0.72728 0.17498 0.0
O464 O 0.07617 0.73949 0.17886 0.0
Fe465 Fe 0.05878 0.77726 0.15096 0.0
O466 O 0.01936 0.78959 0.18131 0.0
O467 O 0.02882 0.75843 0.23336 0.0
O468 O 0.07912 0.70775 0.24769 0.0
C469 C 0.11382 0.71658 0.25197 0.0
C470 C 1.00427 0.72412 0.13902 0.0
O471 O 0.13304 0.73046 0.22539 0.0
C472 C 0.11463 0.74845 0.10164 0.0
O473 O 0.05558 0.66914 0.18908 0.0
O474 O 0.11669 0.67641 0.17815 0.0
O475 O 0.02972 0.74447 0.12401 0.0
O476 O 1.00461 0.71715 0.17448 0.0
C477 C 0.12283 0.8075 0.1813 0.0
O478 O 0.12298 0.72182 0.12357 0.0
O479 O 0.09449 0.77471 0.11432 0.0
C480 C 0.08795 0.65555 0.18284 0.0
O481 O 0.14035 0.77718 0.17269 0.0
O482 O 0.08734 0.8107 0.1773 0.0
C483 C 0.01395 0.78599 0.21623 0.0
Fe484 Fe 0.38898 0.28831 0.68788 0.0
Fe485 Fe 0.45137 0.23652 0.65663 0.0
O486 O 0.43731 0.27523 0.68555 0.0
Fe487 Fe 0.47188 0.30061 0.71183 0.0
O488 O 0.44041 0.31201 0.75197 0.0
O489 O 0.38737 0.28218 0.73856 0.0
O490 O 0.37127 0.23916 0.68443 0.0
C491 C 0.38763 0.20759 0.6895 0.0
C492 C 0.42783 0.35965 0.6883 0.0
O493 O 0.42275 0.20369 0.68382 0.0
C494 C 0.50866 0.28595 0.64132 0.0
O495 O 0.38661 0.2956 0.63706 0.0
O496 O 0.4128 0.24187 0.62149 0.0
O497 O 0.46036 0.34485 0.68836 0.0
O498 O 0.39834 0.33946 0.69265 0.0
C499 C 0.49866 0.22902 0.72137 0.0
O500 O 0.48111 0.26733 0.62775 0.0
O501 O 0.50969 0.29424 0.67628 0.0
C502 C 0.39023 0.26871 0.61403 0.0
O503 O 0.492 0.2228 0.68666 0.0
O504 O 0.48566 0.25815 0.7374 0.0
C505 C 0.40863 0.29863 0.76196 0.0
Fe506 Fe 0.97239 0.21972 0.28824 0.0
Fe507 Fe 0.88847 0.23064 0.30794 0.0
O508 O 0.93679 0.24248 0.3154 0.0
Fe509 Fe 0.94796 0.27791 0.34949 0.0
O510 O 0.97329 0.30738 0.31555 0.0
O511 O 1.00106 0.26226 0.28259 0.0
O512 O 0.95053 0.23271 0.24326 0.0
C513 C 0.9169 0.22555 0.23405 0.0
C514 C 0.00923 0.2255 0.35739 0.0
O515 O 0.89308 0.21616 0.2587 0.0
C516 C 0.88967 0.24561 0.38701 0.0
O517 O 0.94828 0.17322 0.29001 0.0
O518 O 0.89575 0.18218 0.32342 0.0
O519 O 0.99211 0.25598 0.36488 0.0
O520 O 0.99929 0.20515 0.32968 0.0
C521 C 0.88288 0.30722 0.31129 0.0
O522 O 0.8721 0.24302 0.35596 0.0
O523 O 0.92485 0.251 0.38671 0.0
C524 C 0.92002 0.16023 0.30853 0.0
O525 O 0.88011 0.27805 0.29099 0.0
O526 O 0.90476 0.3068 0.33991 0.0
C527 C 0.99783 0.29679 0.29164 0.0
C528 C 0.279 0.54029 0.31728 0.0
C529 C 0.24672 0.51737 0.32509 0.0
C530 C 0.23634 0.55168 0.38428 0.0
C531 C 0.26705 0.5766 0.37596 0.0
N532 N 0.32511 0.58575 0.34107 0.0
N533 N 0.21493 0.48734 0.37787 0.0
C534 C 0.29074 0.56814 0.34434 0.0
C535 C 0.2318 0.51844 0.36238 0.0
N536 N 0.29928 0.53467 0.28488 0.0
N537 N 0.20949 0.56025 0.41081 0.0
H538 H 0.21614 0.46074 0.36511 0.0
H539 H 0.20564 0.48675 0.40588 0.0
H540 H 0.20837 0.58549 0.42584 0.0
H541 H 0.18529 0.54364 0.41456 0.0
H542 H 0.3189 0.55405 0.27441 0.0
H543 H 0.29706 0.50994 0.26894 0.0
H544 H 0.34525 0.57893 0.32065 0.0
H545 H 0.3351 0.60471 0.36133 0.0
C546 C 0.29539 0.44826 0.87952 0.0
C547 C 0.25645 0.43742 0.87989 0.0
C548 C 0.24531 0.48065 0.82628 0.0
C549 C 0.28513 0.48573 0.82201 0.0
N550 N 0.34818 0.46593 0.83984 0.0
N551 N 0.19409 0.44291 0.8527 0.0
C552 C 0.31018 0.46738 0.84746 0.0
C553 C 0.23133 0.45364 0.85295 0.0
N554 N 0.31871 0.44035 0.90934 0.0
N555 N 0.22078 0.50248 0.80594 0.0
H556 H 0.18241 0.42565 0.87363 0.0
H557 H 0.17532 0.44982 0.83103 0.0
H558 H 0.22992 0.52272 0.78665 0.0
H559 H 0.1916 0.50287 0.81057 0.0
H560 H 0.34641 0.45059 0.91114 0.0
H561 H 0.30957 0.42816 0.93444 0.0
H562 H 0.36702 0.44922 0.85519 0.0
H563 H 0.36017 0.47743 0.81549 0.0
C564 C 0.77596 0.93475 0.68101 0.0
C565 C 0.75879 0.93313 0.64453 0.0
C566 C 0.72818 0.99354 0.65952 0.0
C567 C 0.73651 0.98902 0.69859 0.0
N568 N 0.7655 0.94973 0.74677 0.0
N569 N 0.71252 0.96132 0.60164 0.0
C570 C 0.76002 0.95832 0.70953 0.0
C571 C 0.73343 0.96273 0.63416 0.0
N572 N 0.80771 0.91396 0.68843 0.0
N573 N 0.71685 0.0278 0.64613 0.0
H574 H 0.71328 0.93933 0.58217 0.0
H575 H 0.69115 0.98087 0.59587 0.0
H576 H 0.71781 0.05183 0.66305 0.0
H577 H 0.71279 0.03322 0.61742 0.0
H578 H 0.82268 0.91625 0.71378 0.0
H579 H 0.82153 0.89834 0.66751 0.0
H580 H 0.7797 0.92537 0.7554 0.0
H581 H 0.75258 0.96424 0.76892 0.0
C582 C 0.81396 0.03284 0.16339 0.0
C583 C 0.78692 0.01836 0.18972 0.0
C584 C 0.7372 0.05535 0.15779 0.0
C585 C 0.76436 0.06918 0.13139 0.0
N586 N 0.82525 0.06012 0.10169 0.0
N587 N 0.7212 0.00885 0.20589 0.0
C588 C 0.80151 0.05407 0.1316 0.0
C589 C 0.74797 0.02753 0.1851 0.0
N590 N 0.85196 0.02878 0.16991 0.0
N591 N 0.70113 0.0694 0.15702 0.0
H592 H 0.72807 0.98805 0.22561 0.0
H593 H 0.69214 0.01154 0.20135 0.0
H594 H 0.69164 0.0871 0.1354 0.0
H595 H 0.68122 0.06458 0.17823 0.0
H596 H 0.87268 0.04275 0.15419 0.0
H597 H 0.86299 0.015 0.19337 0.0
H598 H 0.85141 0.04669 0.09893 0.0
H599 H 0.81723 0.07493 0.07759 0.0
C600 C 0.37649 0.25612 0.54495 0.0
C601 C 0.36268 0.26404 0.58196 0.0
C602 C 0.29757 0.24928 0.56066 0.0
C603 C 0.31156 0.24066 0.52401 0.0
N604 N 0.36227 0.24325 0.47873 0.0
N605 N 0.30834 0.27532 0.6229 0.0
C606 C 0.35048 0.24633 0.51544 0.0
C607 C 0.32274 0.2632 0.58904 0.0
N608 N 0.41465 0.25766 0.53813 0.0
N609 N 0.26047 0.24183 0.56925 0.0
H610 H 0.32446 0.28223 0.64647 0.0
H611 H 0.27969 0.28103 0.62716 0.0
H612 H 0.24032 0.23432 0.54909 0.0
H613 H 0.24988 0.24098 0.59673 0.0
H614 H 0.42737 0.24758 0.51356 0.0
H615 H 0.43409 0.26813 0.55782 0.0
H616 H 0.38939 0.25017 0.46942 0.0
H617 H 0.34372 0.23667 0.4567 0.0
C618 C 0.16121 0.72864 0.0491 0.0
C619 C 0.13862 0.75661 0.06747 0.0
C620 C 0.18193 0.80487 0.04644 0.0
C621 C 0.20203 0.77938 0.0231 0.0
N622 N 0.20688 0.71492 0.99949 0.0
N623 N 0.11826 0.82199 0.06083 0.0
C624 C 0.19076 0.7404 0.02358 0.0
C625 C 0.14574 0.79497 0.05879 0.0
N626 N 0.15389 0.69122 0.05507 0.0
N627 N 0.19775 0.83798 0.05835 0.0
H628 H 0.08957 0.81528 0.06363 0.0
H629 H 0.12377 0.85015 0.05372 0.0
H630 H 0.22658 0.84355 0.05467 0.0
H631 H 0.18344 0.85654 0.07632 0.0
H632 H 0.1722 0.66969 0.04664 0.0
H633 H 0.1295 0.6819 0.06893 0.0
H634 H 0.19646 0.68759 0.99559 0.0
H635 H 0.22949 0.7214 0.98195 0.0
C636 C 0.87833 0.27658 0.45127 0.0
C637 C 0.86753 0.24994 0.42291 0.0
C638 C 0.80606 0.2425 0.45477 0.0
C639 C 0.81861 0.26624 0.48499 0.0
N640 N 0.87298 0.29262 0.51731 0.0
N641 N 0.82578 0.19814 0.40642 0.0
C642 C 0.85692 0.27861 0.48508 0.0
C643 C 0.83297 0.2297 0.4276 0.0
N644 N 0.90659 0.30242 0.44535 0.0
N645 N 0.76852 0.23424 0.44976 0.0
H646 H 0.84564 0.18674 0.38774 0.0
H647 H 0.80215 0.18095 0.41098 0.0
H648 H 0.74688 0.24483 0.46666 0.0
H649 H 0.75849 0.22005 0.42587 0.0
H650 H 0.91267 0.3239 0.46472 0.0
H651 H 0.92032 0.30624 0.41962 0.0
H652 H 0.90171 0.29952 0.51913 0.0
H653 H 0.85876 0.29261 0.54311 0.0
C654 C 0.63441 0.76276 0.96907 0.0
C655 C 0.6489 0.77802 0.93489 0.0
C656 C 0.71372 0.76463 0.95565 0.0
C657 C 0.69937 0.74783 0.98918 0.0
N658 N 0.6474 0.74154 0.03297 0.0
N659 N 0.70246 0.80986 0.90589 0.0
C660 C 0.66003 0.75022 0.99753 0.0
C661 C 0.68856 0.78442 0.93141 0.0
N662 N 0.59606 0.76012 0.97405 0.0
N663 N 0.75085 0.76 0.94552 0.0
H664 H 0.68532 0.82821 0.89059 0.0
H665 H 0.73111 0.81704 0.90438 0.0
H666 H 0.77049 0.74528 0.96182 0.0
H667 H 0.76131 0.76783 0.9191 0.0
H668 H 0.58339 0.74473 0.99573 0.0
H669 H 0.57683 0.77294 0.95564 0.0
H670 H 0.61961 0.74562 0.04202 0.0
H671 H 0.66579 0.73381 0.0546 0.0
C672 C 0.54392 0.34163 0.2072 0.0
C673 C 0.52446 0.31887 0.23408 0.0
C674 C 0.55847 0.35213 0.28505 0.0
C675 C 0.57515 0.3768 0.25798 0.0
N676 N 0.5739 0.40132 0.19392 0.0
N677 N 0.5079 0.30752 0.29926 0.0
C678 C 0.56444 0.37383 0.2194 0.0
C679 C 0.53021 0.3255 0.27331 0.0
N680 N 0.54509 0.33127 0.16996 0.0
N681 N 0.56987 0.35397 0.32194 0.0
H682 H 0.48676 0.28829 0.29165 0.0
H683 H 0.50819 0.31399 0.32801 0.0
H684 H 0.58841 0.37481 0.33186 0.0
H685 H 0.56232 0.33393 0.34215 0.0
H686 H 0.56248 0.3445 0.15013 0.0
H687 H 0.53264 0.30668 0.1597 0.0
H688 H 0.56326 0.40174 0.1664 0.0
H689 H 0.58834 0.42601 0.20083 0.0
C690 C 0.0587 0.18084 0.80737 0.0
C691 C 0.0301 0.19403 0.78234 0.0
C692 C 0.05553 0.15015 0.73401 0.0
C693 C 0.08064 0.13434 0.76116 0.0
N694 N 0.09442 0.12647 0.8275 0.0
N695 N 0.99697 0.18464 0.72311 0.0
C696 C 0.07829 0.14691 0.79908 0.0
C697 C 0.02725 0.17689 0.74583 0.0
N698 N 0.06927 0.20192 0.83797 0.0
N699 N 0.05864 0.13958 0.69703 0.0
H700 H 0.97522 0.20277 0.73124 0.0
H701 H 0.9917 0.17037 0.69783 0.0
H702 H 0.07713 0.11823 0.68835 0.0
H703 H 0.04421 0.15307 0.67516 0.0
H704 H 0.09227 0.1946 0.85497 0.0
H705 H 0.05894 0.22911 0.84272 0.0
H706 H 0.09164 0.13388 0.85595 0.0
H707 H 0.10555 0.09956 0.82302 0.0
C708 C 0.44957 0.7996 0.25884 0.0
C709 C 0.48627 0.81479 0.26546 0.0
C710 C 0.46298 0.87843 0.24917 0.0
C711 C 0.42578 0.86354 0.24404 0.0
N712 N 0.38577 0.80792 0.23561 0.0
N713 N 0.5303 0.86628 0.2592 0.0
C714 C 0.41981 0.82355 0.24586 0.0
C715 C 0.49366 0.85357 0.25818 0.0
N716 N 0.44229 0.76257 0.26741 0.0
N717 N 0.46878 0.91653 0.2458 0.0
H718 H 0.55309 0.84846 0.26513 0.0
H719 H 0.53869 0.89336 0.25133 0.0
H720 H 0.44795 0.93492 0.23578 0.0
H721 H 0.49371 0.93025 0.25366 0.0
H722 H 0.41508 0.75137 0.27009 0.0
H723 H 0.46339 0.74311 0.27385 0.0
H724 H 0.38205 0.77909 0.23078 0.0
H725 H 0.36148 0.82307 0.2291 0.0
C726 C 0.96457 0.62727 0.75723 0.0
C727 C 0.92868 0.64452 0.76343 0.0
C728 C 0.9611 0.70577 0.76874 0.0
C729 C 0.99403 0.69057 0.75142 0.0
N730 N 0.03032 0.63402 0.7382 0.0
N731 N 0.893 0.70303 0.76981 0.0
C732 C 0.9968 0.65035 0.74845 0.0
C733 C 0.92695 0.6845 0.76823 0.0
N734 N 0.96819 0.589 0.76146 0.0
N735 N 0.9625 0.73981 0.78696 0.0
H736 H 0.86683 0.68977 0.76662 0.0
H737 H 0.89115 0.73248 0.76981 0.0
H738 H 0.98806 0.7537 0.79238 0.0
H739 H 0.93943 0.75082 0.80179 0.0
H740 H 0.99403 0.57481 0.76064 0.0
H741 H 0.94569 0.57171 0.76973 0.0
H742 H 0.03271 0.60599 0.72938 0.0
H743 H 0.05598 0.64856 0.73903 0.0
C744 C 0.75127 0.45734 0.63207 0.0
C745 C 0.74574 0.42078 0.64754 0.0
C746 C 0.75876 0.44663 0.71119 0.0
C747 C 0.77009 0.4816 0.69481 0.0
N748 N 0.77899 0.51971 0.63894 0.0
N749 N 0.74782 0.37976 0.70249 0.0
C750 C 0.7667 0.48682 0.65504 0.0
C751 C 0.74966 0.4153 0.68735 0.0
N752 N 0.74093 0.46402 0.59542 0.0
N753 N 0.75727 0.44276 0.74965 0.0
H754 H 0.7395 0.35581 0.68764 0.0
H755 H 0.75703 0.37336 0.72973 0.0
H756 H 0.76672 0.46321 0.76864 0.0
H757 H 0.74403 0.42005 0.76299 0.0
H758 H 0.74068 0.4908 0.58322 0.0
H759 H 0.72883 0.44315 0.5783 0.0
H760 H 0.78178 0.52353 0.60988 0.0
H761 H 0.78865 0.54257 0.65478 0.0
C762 C 0.7376 0.56591 0.20394 0.0
C763 C 0.73266 0.52734 0.19335 0.0
C764 C 0.75532 0.54305 0.12939 0.0
C765 C 0.76272 0.5808 0.1411 0.0
N766 N 0.77322 0.62323 0.19445 0.0
N767 N 0.74905 0.47773 0.14919 0.0
C768 C 0.75832 0.59053 0.17997 0.0
C769 C 0.74501 0.51538 0.15691 0.0
N770 N 0.72047 0.58018 0.23559 0.0
N771 N 0.75838 0.53348 0.09208 0.0
H772 H 0.74507 0.45685 0.1696 0.0
H773 H 0.76075 0.46757 0.12409 0.0
H774 H 0.76825 0.55233 0.07161 0.0
H775 H 0.74922 0.50753 0.08136 0.0
H776 H 0.72177 0.60865 0.24315 0.0
H777 H 0.70078 0.56525 0.25163 0.0
H778 H 0.77384 0.62898 0.22338 0.0
H779 H 0.78916 0.64252 0.17908 0.0
C780 C 0.22397 0.06948 0.33955 0.0
C781 C 0.23879 0.07085 0.37683 0.0
C782 C 0.27264 0.01162 0.36389 0.0
C783 C 0.26624 0.01679 0.32434 0.0
N784 N 0.23986 0.05633 0.27475 0.0
N785 N 0.27062 0.0383 0.42729 0.0
C786 C 0.24264 0.04699 0.31213 0.0
C787 C 0.26098 0.04017 0.3899 0.0
N788 N 0.19152 0.08837 0.33036 0.0
N789 N 0.28876 0.97903 0.37673 0.0
H790 H 0.25785 0.0555 0.44766 0.0
H791 H 0.29129 0.02025 0.43801 0.0
H792 H 0.29699 0.95739 0.35877 0.0
H793 H 0.29085 0.97179 0.40517 0.0
H794 H 0.17891 0.08621 0.30375 0.0
H795 H 0.17405 0.10068 0.35071 0.0
H796 H 0.2256 0.08047 0.26557 0.0
H797 H 0.25527 0.04308 0.25341 0.0
C798 C 0.25833 0.97552 0.88566 0.0
C799 C 0.27896 0.94372 0.87205 0.0
C800 C 0.28285 0.97352 0.80935 0.0
C801 C 0.25592 1.00117 0.82124 0.0
N802 N 0.24174 0.04107 0.8746 0.0
N803 N 0.32912 0.92665 0.82855 0.0
C804 C 0.25053 1.00613 0.86072 0.0
C805 C 0.29685 0.94669 0.83606 0.0
N806 N 0.24728 0.97714 0.92261 0.0
N807 N 0.29654 0.97383 0.77325 0.0
H808 H 0.34417 0.91237 0.84941 0.0
H809 H 0.34452 0.92909 0.80356 0.0
H810 H 0.29531 0.99772 0.75608 0.0
H811 H 0.31023 0.95077 0.76096 0.0
H812 H 0.22783 0.99689 0.93275 0.0
H813 H 0.25767 0.95856 0.94302 0.0
H814 H 0.23966 0.04718 0.90336 0.0
H815 H 0.24265 0.06505 0.85747 0.0
C816 C 0.69937 0.74455 0.47116 0.0
C817 C 0.69839 0.78273 0.48415 0.0
C818 C 0.63548 0.78925 0.45583 0.0
C819 C 0.64064 0.75581 0.43441 0.0
N820 N 0.67504 0.69692 0.42793 0.0
N821 N 0.66771 0.84404 0.47981 0.0
C822 C 0.672 0.73198 0.44379 0.0
C823 C 0.66705 0.80583 0.47388 0.0
N824 N 0.72461 0.71966 0.48659 0.0
N825 N 0.60026 0.80466 0.46005 0.0
H826 H 0.69192 0.85849 0.48874 0.0
H827 H 0.64577 0.86175 0.47105 0.0
H828 H 0.5758 0.79072 0.45084 0.0
H829 H 0.59519 0.82804 0.47739 0.0
H830 H 0.72419 0.69069 0.48123 0.0
H831 H 0.74395 0.72723 0.50754 0.0
H832 H 0.69997 0.68112 0.42834 0.0
H833 H 0.65217 0.68321 0.41526 0.0
C834 C 0.86969 0.26896 0.96247 0.0
C835 C 0.85752 0.26798 0.92418 0.0
C836 C 0.79852 0.23654 0.94379 0.0
C837 C 0.80963 0.23911 0.98241 0.0
N838 N 0.8522 0.26567 0.02884 0.0
N839 N 0.80517 0.26082 0.88034 0.0
C840 C 0.84419 0.25776 0.99185 0.0
C841 C 0.82015 0.25542 0.91557 0.0
N842 N 0.90591 0.28008 0.97072 0.0
N843 N 0.76916 0.21348 0.93334 0.0
H844 H 0.81939 0.27471 0.85867 0.0
H845 H 0.77683 0.25538 0.87391 0.0
H846 H 0.754 0.19703 0.95241 0.0
H847 H 0.7627 0.20717 0.90526 0.0
H848 H 0.91821 0.27696 0.99732 0.0
H849 H 0.92431 0.29087 0.95027 0.0
H850 H 0.87512 0.28221 0.03742 0.0
H851 H 0.83381 0.25868 0.05081 0.0
C852 C 0.13042 0.71326 0.56059 0.0
C853 C 0.13205 0.74968 0.5775 0.0
C854 C 0.18312 0.76689 0.5329 0.0
C855 C 0.18649 0.72836 0.52186 0.0
N856 N 0.16677 0.66332 0.53179 0.0
N857 N 0.15924 0.81219 0.57885 0.0
C858 C 0.16077 0.70119 0.53706 0.0
C859 C 0.15814 0.77686 0.56317 0.0
N860 N 0.10059 0.68951 0.56744 0.0
N861 N 0.20282 0.79408 0.5137 0.0
H862 H 0.13916 0.82138 0.5985 0.0
H863 H 0.18065 0.83177 0.57339 0.0
H864 H 0.22049 0.78785 0.49088 0.0
H865 H 0.19896 0.82297 0.51799 0.0
H866 H 0.09663 0.66422 0.55272 0.0
H867 H 0.07743 0.6966 0.58415 0.0
H868 H 0.15161 0.64252 0.54619 0.0
H869 H 0.18952 0.6523 0.51673 0.0
C870 C 0.35608 0.30422 0.03609 0.0
C871 C 0.32798 0.27966 0.02069 0.0
C872 C 0.3526 0.22812 0.06046 0.0
C873 C 0.38137 0.25254 0.07461 0.0
N874 N 0.41805 0.30977 0.06452 0.0
N875 N 0.30662 0.2155 0.01085 0.0
C876 C 0.38597 0.28895 0.05823 0.0
C877 C 0.32838 0.24069 0.03063 0.0
N878 N 0.35274 0.34261 0.03261 0.0
N879 N 0.34817 0.193 0.07589 0.0
H880 H 0.28978 0.22348 0.98799 0.0
H881 H 0.30822 0.18632 0.01454 0.0
H882 H 0.36724 0.18192 0.09556 0.0
H883 H 0.3249 0.17565 0.07033 0.0
H884 H 0.37024 0.36161 0.04698 0.0
H885 H 0.32984 0.35583 0.01962 0.0
H886 H 0.42359 0.33504 0.05038 0.0
H887 H 0.44121 0.30008 0.07985 0.0
C888 C 0.49685 0.6573 0.78712 0.0
C889 C 0.49286 0.6963 0.77836 0.0
C890 C 0.43906 0.67934 0.7379 0.0
C891 C 0.43703 0.64257 0.75434 0.0
N892 N 0.46368 0.59968 0.80158 0.0
N893 N 0.45356 0.74486 0.75 0.0
C894 C 0.46602 0.63203 0.78059 0.0
C895 C 0.46238 0.70754 0.7547 0.0
N896 N 0.53038 0.64397 0.80095 0.0
N897 N 0.41885 0.68751 0.70605 0.0
H898 H 0.46751 0.76682 0.76391 0.0
H899 H 0.42928 0.75367 0.73565 0.0
H900 H 0.403 0.66712 0.69183 0.0
H901 H 0.42175 0.71299 0.6915 0.0
H902 H 0.53569 0.61523 0.80486 0.0
H903 H 0.55428 0.66107 0.80343 0.0
H904 H 0.48245 0.59392 0.82363 0.0
H905 H 0.4415 0.58041 0.80047 0.0
C906 C 0.98909 0.82663 0.27177 0.0
C907 C 0.9856 0.81228 0.23419 0.0
C908 C 0.9392 0.8618 0.22112 0.0
C909 C 0.93644 0.87078 0.25996 0.0
N910 N 0.95765 0.85934 0.32361 0.0
N911 N 0.94539 0.80945 0.17858 0.0
C912 C 0.96083 0.85213 0.28587 0.0
C913 C 0.95701 0.82782 0.21051 0.0
N914 N 0.02018 0.81828 0.29308 0.0
N915 N 0.92548 0.88558 0.19406 0.0
H916 H 0.95329 0.78163 0.17276 0.0
H917 H 0.92381 0.81975 0.16125 0.0
H918 H 0.91612 0.91281 0.20024 0.0
H919 H 0.92887 0.88029 0.16521 0.0
H920 H 0.02529 0.83039 0.3195 0.0
H921 H 0.04289 0.80287 0.28244 0.0
H922 H 0.97203 0.84379 0.34412 0.0
H923 H 0.93921 0.87987 0.33406 0.0
C924 C 0.51908 0.16659 0.74919 0.0
C925 C 0.52728 0.20513 0.74116 0.0
C926 C 0.59399 0.1951 0.7587 0.0
C927 C 0.58608 0.15616 0.76588 0.0
N928 N 0.54013 0.10704 0.77655 0.0
N929 N 0.57025 0.25819 0.74673 0.0
C930 C 0.54822 0.14261 0.76369 0.0
C931 C 0.5639 0.22005 0.74888 0.0
N932 N 0.48339 0.15292 0.74265 0.0
N933 N 0.63056 0.2081 0.75854 0.0
H934 H 0.55015 0.27756 0.73744 0.0
H935 H 0.59465 0.27124 0.75711 0.0
H936 H 0.65362 0.19276 0.76828 0.0
H937 H 0.63859 0.2339 0.74681 0.0
H938 H 0.47637 0.12432 0.74307 0.0
H939 H 0.4607 0.17042 0.73564 0.0
H940 H 0.5128 0.09614 0.7789 0.0
H941 H 0.56077 0.08937 0.78813 0.0
C942 C 0.04591 0.38966 0.25882 0.0
C943 C 0.08114 0.37521 0.24524 0.0
C944 C 0.06151 0.3115 0.26205 0.0
C945 C 0.02565 0.32458 0.27509 0.0
N946 N 0.97966 0.37541 0.27144 0.0
N947 N 0.10819 0.32083 0.21356 0.0
C948 C 0.01649 0.3636 0.26948 0.0
C949 C 0.08392 0.33562 0.23971 0.0
N950 N 0.03967 0.42768 0.26038 0.0
N951 N 0.07613 0.27743 0.27291 0.0
H952 H 0.12295 0.33791 0.19455 0.0
H953 H 0.10944 0.29188 0.20782 0.0
H954 H 0.06475 0.26116 0.29466 0.0
H955 H 0.10306 0.26852 0.26452 0.0
H956 H 0.0171 0.43954 0.27529 0.0
H957 H 0.05664 0.44725 0.24633 0.0
H958 H 0.97118 0.40284 0.26485 0.0
H959 H 0.95694 0.35684 0.27469 0.0
C960 C 0.21916 0.41891 0.05277 0.0
C961 C 0.21276 0.37932 0.04765 0.0
C962 C 0.17542 0.37966 0.10577 0.0
C963 C 0.19127 0.41486 0.1166 0.0
N964 N 0.22106 0.47266 0.09574 0.0
N965 N 0.19031 0.32068 0.07578 0.0
C966 C 0.21116 0.43599 0.08868 0.0
C967 C 0.19219 0.35928 0.07581 0.0
N968 N 0.23054 0.44058 0.0229 0.0
N969 N 0.14351 0.36623 0.12292 0.0
H970 H 0.20573 0.30372 0.05722 0.0
H971 H 0.17736 0.30562 0.09762 0.0
H972 H 0.12761 0.38293 0.14142 0.0
H973 H 0.13013 0.34131 0.11428 0.0
H974 H 0.23266 0.46994 0.02391 0.0
H975 H 0.23395 0.42971 0.99576 0.0
H976 H 0.24063 0.4876 0.0795 0.0
H977 H 0.20903 0.48829 0.11772 0.0
C978 C 0.32094 0.65557 0.57576 0.0
C979 C 0.30071 0.63445 0.54799 0.0
C980 C 0.30223 0.57944 0.59088 0.0
C981 C 0.32274 0.60139 0.61809 0.0
N982 N 0.37042 0.65012 0.62215 0.0
N983 N 0.283 0.57237 0.52519 0.0
C984 C 0.3381 0.63629 0.60613 0.0
C985 C 0.29426 0.59517 0.55439 0.0
N986 N 0.32243 0.69417 0.57478 0.0
N987 N 0.29161 0.54322 0.59898 0.0
H988 H 0.27936 0.58216 0.49767 0.0
H989 H 0.28122 0.54303 0.52715 0.0
H990 H 0.30358 0.5277 0.62094 0.0
H991 H 0.27132 0.52843 0.58339 0.0
H992 H 0.3354 0.70994 0.59618 0.0
H993 H 0.30663 0.7104 0.55594 0.0
H994 H 0.38344 0.67495 0.61284 0.0
H995 H 0.38703 0.63332 0.63983 0.0
C996 C 0.71341 0.09239 0.96381 0.0
C997 C 0.70248 0.13048 0.97082 0.0
C998 C 0.66868 0.12974 0.91031 0.0
C999 C 0.68877 0.09695 0.89909 0.0
N1000 N 0.73262 0.04695 0.91655 0.0
N1001 N 0.67271 0.1875 0.94597 0.0
C1002 C 0.71129 0.07766 0.92635 0.0
C1003 C 0.68027 0.14968 0.94316 0.0
N1004 N 0.72522 0.07008 0.99299 0.0
N1005 N 0.63883 0.14213 0.88912 0.0
H1006 H 0.68297 0.20497 0.96733 0.0
H1007 H 0.65974 0.20265 0.92425 0.0
H1008 H 0.62887 0.12684 0.86585 0.0
H1009 H 0.62145 0.16447 0.89748 0.0
H1010 H 0.73063 0.04125 0.98989 0.0
H1011 H 0.72493 0.07935 0.02101 0.0
H1012 H 0.75286 0.03528 0.93457 0.0
H1013 H 0.73246 0.03464 0.88984 0.0
C1014 C 0.79899 0.92388 0.46621 0.0
C1015 C 0.81027 0.88583 0.47359 0.0
C1016 C 0.84903 0.88812 0.41646 0.0
C1017 C 0.82854 0.91979 0.40315 0.0
N1018 N 0.79094 0.97427 0.42022 0.0
N1019 N 0.84189 0.82945 0.44933 0.0
C1020 C 0.8055 0.93978 0.42952 0.0
C1021 C 0.83457 0.86734 0.44727 0.0
N1022 N 0.78402 0.94537 0.49469 0.0
N1023 N 0.88273 0.87834 0.40032 0.0
H1024 H 0.82842 0.81119 0.46807 0.0
H1025 H 0.85762 0.81534 0.42868 0.0
H1026 H 0.896 0.89593 0.38069 0.0
H1027 H 0.89954 0.85637 0.41062 0.0
H1028 H 0.77795 0.97405 0.49205 0.0
H1029 H 0.7815 0.93558 0.52237 0.0
H1030 H 0.76926 0.98734 0.43537 0.0
H1031 H 0.80133 0.99014 0.39766 0.0
C1032 C 0.09933 0.23537 0.41736 0.0
C1033 C 0.11302 0.19778 0.41742 0.0
C1034 C 0.05348 0.1772 0.3876 0.0
C1035 C 0.04407 0.21561 0.37976 0.0
N1036 N 0.06523 0.28124 0.38073 0.0
N1037 N 0.10383 0.13232 0.40105 0.0
C1038 C 0.06865 0.24483 0.39326 0.0
C1039 C 0.09024 0.16844 0.40209 0.0
N1040 N 0.11631 0.26244 0.4392 0.0
N1041 N 0.02706 0.14929 0.3828 0.0
H1042 H 0.12965 0.1248 0.4134 0.0
H1043 H 0.09039 0.11052 0.38631 0.0
H1044 H 0.99907 0.15478 0.37503 0.0
H1045 H 0.03168 0.12133 0.39087 0.0
H1046 H 0.10526 0.28961 0.44237 0.0
H1047 H 0.13841 0.25653 0.45778 0.0
H1048 H 0.08399 0.3027 0.38848 0.0
H1049 H 0.04749 0.28929 0.35867 0.0
C1050 C 0.42065 0.78629 0.93533 0.0
C1051 C 0.40437 0.82178 0.92561 0.0
C1052 C 0.46394 0.83966 0.89501 0.0
C1053 C 0.47593 0.80138 0.89632 0.0
N1054 N 0.46348 0.73684 0.91536 0.0
N1055 N 0.41105 0.88343 0.89769 0.0
C1056 C 0.45417 0.77437 0.91654 0.0
C1057 C 0.42635 0.84898 0.90609 0.0
N1058 N 0.40356 0.76324 0.96122 0.0
N1059 N 0.48895 0.86709 0.88424 0.0
H1060 H 0.38454 0.89188 0.90777 0.0
H1061 H 0.42394 0.90279 0.87959 0.0
H1062 H 0.51742 0.86107 0.87913 0.0
H1063 H 0.48279 0.89589 0.88503 0.0
H1064 H 0.41622 0.73869 0.97146 0.0
H1065 H 0.37887 0.77041 0.97562 0.0
H1066 H 0.44564 0.71556 0.92535 0.0
H1067 H 0.4873 0.72637 0.90146 0.0
C1068 C 0.56201 0.26498 0.59759 0.0
C1069 C 0.54308 0.29417 0.61797 0.0
C1070 C 0.59799 0.33607 0.60807 0.0
C1071 C 0.61654 0.30692 0.58769 0.0
N1072 N 0.60996 0.24959 0.55114 0.0
N1073 N 0.53832 0.36087 0.63145 0.0
C1074 C 0.59636 0.27348 0.57827 0.0
C1075 C 0.55965 0.33085 0.61971 0.0
N1076 N 0.54932 0.22845 0.59901 0.0
N1077 N 0.61717 0.36858 0.61665 0.0
H1078 H 0.50959 0.35819 0.63785 0.0
H1079 H 0.54775 0.38879 0.63062 0.0
H1080 H 0.64418 0.37438 0.60603 0.0
H1081 H 0.60694 0.38891 0.63541 0.0
H1082 H 0.56478 0.20577 0.58818 0.0
H1083 H 0.52551 0.21992 0.61414 0.0
H1084 H 0.59441 0.2267 0.54077 0.0
H1085 H 0.63482 0.25488 0.53615 0.0
C1086 C 0.95678 0.67459 0.119 0.0
C1087 C 0.97068 0.71224 0.11607 0.0
C1088 C 0.91875 0.72642 0.07208 0.0
C1089 C 0.9001 0.69251 0.08306 0.0
N1090 N 0.90223 0.6328 0.1155 0.0
N1091 N 0.96088 0.77608 0.09265 0.0
C1092 C 0.91956 0.666 0.10593 0.0
C1093 C 0.95106 0.73862 0.09281 0.0
N1094 N 0.97965 0.64679 0.13296 0.0
N1095 N 0.90521 0.7478 0.04291 0.0
H1096 H 0.98288 0.78754 0.10859 0.0
H1097 H 0.94429 0.79682 0.07986 0.0
H1098 H 0.88207 0.7401 0.02637 0.0
H1099 H 0.91995 0.77095 0.03208 0.0
H1100 H 0.97218 0.61827 0.13314 0.0
H1101 H 0.00789 0.65177 0.14005 0.0
H1102 H 0.91287 0.61442 0.13591 0.0
H1103 H 0.8763 0.62447 0.10385 0.0
C1104 C 0.40823 0.05073 0.20016 0.0
C1105 C 0.37744 0.04631 0.22568 0.0
C1106 C 0.36533 0.11429 0.22334 0.0
C1107 C 0.3985 0.11977 0.20142 0.0
N1108 N 0.45468 0.09361 0.17264 0.0
N1109 N 0.33713 0.07631 0.27196 0.0
C1110 C 0.42113 0.08806 0.19111 0.0
C1111 C 0.35917 0.07886 0.24039 0.0
N1112 N 0.42413 0.01966 0.18356 0.0
N1113 N 0.33922 0.14247 0.22786 0.0
H1114 H 0.33577 0.05167 0.28778 0.0
H1115 H 0.32521 0.09973 0.28539 0.0
H1116 H 0.34079 0.16834 0.21408 0.0
H1117 H 0.31326 0.13822 0.24134 0.0
H1118 H 0.44398 0.02131 0.16181 0.0
H1119 H 0.41563 0.99213 0.18994 0.0
H1120 H 0.47428 0.07209 0.16787 0.0
H1121 H 0.46373 0.12032 0.16386 0.0
C1122 C 0.89231 0.41431 0.83628 0.0
C1123 C 0.91985 0.39795 0.81198 0.0
C1124 C 0.91524 0.45325 0.7702 0.0
C1125 C 0.8871 0.46966 0.79415 0.0
N1126 N 0.86068 0.47152 0.85707 0.0
N1127 N 0.96895 0.41082 0.76599 0.0
C1128 C 0.8792 0.45188 0.82941 0.0
C1129 C 0.93541 0.42055 0.78261 0.0
N1130 N 0.87882 0.39402 0.86622 0.0
N1131 N 0.92086 0.46642 0.7343 0.0
H1132 H 0.98483 0.38745 0.77421 0.0
H1133 H 0.9829 0.42836 0.74681 0.0
H1134 H 0.90479 0.48775 0.72201 0.0
H1135 H 0.93862 0.45297 0.71494 0.0
H1136 H 0.85515 0.40208 0.88192 0.0
H1137 H 0.8909 0.36845 0.87457 0.0
H1138 H 0.85668 0.46127 0.88439 0.0
H1139 H 0.85357 0.49993 0.85412 0.0
C1140 C 0.60756 0.57121 0.27075 0.0
C1141 C 0.62532 0.54901 0.29957 0.0
C1142 C 0.61043 0.59914 0.34556 0.0
C1143 C 0.59233 0.62021 0.31681 0.0
N1144 N 0.5591 0.61734 0.25688 0.0
N1145 N 0.62661 0.5362 0.36674 0.0
C1146 C 0.58515 0.60273 0.28142 0.0
C1147 C 0.62178 0.56124 0.33786 0.0
N1148 N 0.61468 0.56534 0.23314 0.0
N1149 N 0.61619 0.61497 0.3803 0.0
H1150 H 0.62927 0.50724 0.36185 0.0
H1151 H 0.62221 0.54327 0.39504 0.0
H1152 H 0.60536 0.64151 0.38746 0.0
H1153 H 0.63283 0.60226 0.40108 0.0
H1154 H 0.60297 0.58204 0.21189 0.0
H1155 H 0.637 0.54915 0.22284 0.0
H1156 H 0.55107 0.60337 0.23213 0.0
H1157 H 0.5422 0.64062 0.2631 0.0
C1158 C 0.16164 0.92824 0.73217 0.0
C1159 C 0.14069 0.96067 0.72151 0.0
C1160 C 0.09353 0.91934 0.69063 0.0
C1161 C 0.11673 0.88728 0.69815 0.0
N1162 N 0.17851 0.86384 0.71784 0.0
N1163 N 0.08888 0.988 0.68676 0.0
C1164 C 0.15257 0.89252 0.71615 0.0
C1165 C 0.10722 0.95649 0.69953 0.0
N1166 N 0.18962 0.93121 0.75876 0.0
N1167 N 0.05841 0.91425 0.67504 0.0
H1168 H 0.09738 0.01536 0.69409 0.0
H1169 H 0.06672 0.98716 0.66729 0.0
H1170 H 0.04864 0.88789 0.66585 0.0
H1171 H 0.03836 0.93573 0.67276 0.0
H1172 H 0.20377 0.90801 0.77014 0.0
H1173 H 0.19512 0.95622 0.77324 0.0
H1174 H 0.2063 0.8678 0.72709 0.0
H1175 H 0.17452 0.83723 0.70606 0.0
C1176 C 0.77618 0.58339 0.91051 0.0
C1177 C 0.80927 0.59447 0.89048 0.0
C1178 C 0.83035 0.62945 0.94673 0.0
C1179 C 0.79357 0.62579 0.9629 0.0
N1180 N 0.72904 0.60291 0.956 0.0
N1181 N 0.86884 0.6279 0.88991 0.0
C1182 C 0.76591 0.60325 0.94402 0.0
C1183 C 0.83668 0.61748 0.90877 0.0
N1184 N 0.75429 0.55418 0.8977 0.0
N1185 N 0.85968 0.64266 0.96823 0.0
H1186 H 0.87592 0.61698 0.8634 0.0
H1187 H 0.88754 0.64848 0.89992 0.0
H1188 H 0.85661 0.64836 0.99694 0.0
H1189 H 0.88774 0.64326 0.95901 0.0
H1190 H 0.73208 0.54276 0.91346 0.0
H1191 H 0.76052 0.53878 0.87338 0.0
H1192 H 0.70734 0.5896 0.941 0.0
H1193 H 0.71901 0.61915 0.97845 0.0
C1194 C 0.70072 0.41358 0.46453 0.0
C1195 C 0.72261 0.37994 0.46601 0.0
C1196 C 0.71627 0.37246 0.39775 0.0
C1197 C 0.6983 0.40841 0.39501 0.0
N1198 N 0.67976 0.46642 0.4261 0.0
N1199 N 0.76393 0.3379 0.43146 0.0
C1200 C 0.69271 0.43017 0.42852 0.0
C1201 C 0.73428 0.36266 0.43184 0.0
N1202 N 0.68632 0.42882 0.49699 0.0
N1203 N 0.71612 0.3469 0.36866 0.0
H1204 H 0.78048 0.33326 0.45526 0.0
H1205 H 0.77541 0.32684 0.4066 0.0
H1206 H 0.70157 0.3503 0.34341 0.0
H1207 H 0.72667 0.31951 0.37169 0.0
H1208 H 0.66709 0.45117 0.49713 0.0
H1209 H 0.69128 0.41715 0.52359 0.0
H1210 H 0.67853 0.48469 0.44923 0.0
H1211 H 0.67305 0.47899 0.40036 0.0
C1212 C 0.33805 0.90489 0.09872 0.0
C1213 C 0.30832 0.92372 0.1181 0.0
C1214 C 0.26735 0.91752 0.06205 0.0
C1215 C 0.29671 0.89715 0.04312 0.0
N1216 N 0.36338 0.88334 0.03862 0.0
N1217 N 0.24906 0.9577 0.1147 0.0
C1218 C 0.33316 0.89454 0.06006 0.0
C1219 C 0.27458 0.93354 0.09845 0.0
N1220 N 0.37082 0.89642 0.11752 0.0
N1221 N 0.23168 0.91937 0.04689 0.0
H1222 H 0.25247 0.96911 0.14163 0.0
H1223 H 0.2262 0.96937 0.1002 0.0
H1224 H 0.22429 0.90829 0.02065 0.0
H1225 H 0.20812 0.92905 0.06176 0.0
H1226 H 0.39158 0.87843 0.10678 0.0
H1227 H 0.37656 0.90639 0.14473 0.0
H1228 H 0.39132 0.88368 0.04817 0.0
H1229 H 0.36091 0.87778 0.00975 0.0
C1230 C 0.16409 0.11769 0.59623 0.0
C1231 C 0.1891 0.09152 0.61366 0.0
C1232 C 0.23282 0.0968 0.56031 0.0
C1233 C 0.20928 0.12467 0.54335 0.0
N1234 N 0.14569 0.14956 0.53841 0.0
N1235 N 0.23205 0.0404 0.59851 0.0
C1236 C 0.1728 0.13172 0.55937 0.0
C1237 C 0.21859 0.07583 0.59128 0.0
N1238 N 0.13137 0.12793 0.61408 0.0
N1239 N 0.26945 0.09149 0.5489 0.0
H1240 H 0.21883 0.02234 0.61775 0.0
H1241 H 0.25214 0.0272 0.58133 0.0
H1242 H 0.28317 0.10873 0.52938 0.0
H1243 H 0.28768 0.07267 0.56245 0.0
H1244 H 0.11493 0.151 0.60598 0.0
H1245 H 0.12055 0.11266 0.63685 0.0
H1246 H 0.11776 0.1532 0.54721 0.0
H1247 H 0.14992 0.15647 0.51017 0.0
C1248 C 0.93223 0.7765 0.66133 0.0
C1249 C 0.96479 0.79303 0.6444 0.0
C1250 C 0.92323 0.82839 0.60118 0.0
C1251 C 0.89095 0.81438 0.62079 0.0
N1252 N 0.86617 0.78338 0.67683 0.0
N1253 N 0.99158 0.83841 0.6012 0.0
C1254 C 0.89587 0.79126 0.65322 0.0
C1255 C 0.96037 0.82031 0.6153 0.0
N1256 N 0.93551 0.74566 0.68426 0.0
N1257 N 0.91836 0.84913 0.56898 0.0
H1258 H 0.01915 0.83187 0.6097 0.0
H1259 H 0.99004 0.86135 0.58284 0.0
H1260 H 0.89166 0.85732 0.55922 0.0
H1261 H 0.94051 0.8566 0.551 0.0
H1262 H 0.9123 0.73038 0.6942 0.0
H1263 H 0.96105 0.73229 0.68956 0.0
H1264 H 0.86959 0.77017 0.70294 0.0
H1265 H 0.83887 0.79368 0.67316 0.0
C1266 C 0.55482 0.19596 0.10637 0.0
C1267 C 0.54839 0.20266 0.14548 0.0
C1268 C 0.61647 0.19376 0.15816 0.0
C1269 C 0.62279 0.18539 0.11925 0.0
N1270 N 0.59679 0.17064 0.05798 0.0
N1271 N 0.57221 0.19875 0.20982 0.0
C1272 C 0.59151 0.18417 0.09385 0.0
C1273 C 0.57879 0.19834 0.17169 0.0
N1274 N 0.52589 0.20098 0.08112 0.0
N1275 N 0.64628 0.20033 0.18211 0.0
H1276 H 0.54604 0.20422 0.22207 0.0
H1277 H 0.59242 0.19036 0.22961 0.0
H1278 H 0.67458 0.19666 0.17497 0.0
H1279 H 0.64311 0.21262 0.20874 0.0
H1280 H 0.52972 0.20114 0.05192 0.0
H1281 H 0.49815 0.20699 0.08941 0.0
H1282 H 0.57475 0.16565 0.03899 0.0
H1283 H 0.62301 0.16089 0.04838 0.0
C1284 C 0.41914 0.67166 0.39594 0.0
C1285 C 0.40028 0.69737 0.42037 0.0
C1286 C 0.45319 0.74208 0.41438 0.0
C1287 C 0.47061 0.7183 0.38686 0.0
N1288 N 0.47804 0.65395 0.36536 0.0
N1289 N 0.4134 0.74253 0.47008 0.0
C1290 C 0.45579 0.68108 0.3815 0.0
C1291 C 0.42166 0.72809 0.43523 0.0
N1292 N 0.40301 0.63739 0.38828 0.0
N1293 N 0.46507 0.77851 0.41973 0.0
H1294 H 0.39392 0.72965 0.48815 0.0
H1295 H 0.42991 0.76331 0.4831 0.0
H1296 H 0.48524 0.7918 0.40288 0.0
H1297 H 0.45184 0.797 0.43855 0.0
H1298 H 0.41181 0.61973 0.36637 0.0
H1299 H 0.38099 0.62654 0.40474 0.0
H1300 H 0.4702 0.62569 0.36249 0.0
H1301 H 0.5065 0.65875 0.35958 0.0
C1302 C 0.09995 0.27322 0.91629 0.0
C1303 C 0.11663 0.31004 0.91531 0.0
C1304 C 0.05562 0.33526 0.8927 0.0
C1305 C 0.03925 0.29851 0.8949 0.0
N1306 N 0.04268 0.23645 0.92355 0.0
N1307 N 0.10624 0.37749 0.91286 0.0
C1308 C 0.06013 0.26905 0.91224 0.0
C1309 C 0.09321 0.34159 0.90661 0.0
N1310 N 0.12213 0.24161 0.91734 0.0
N1311 N 0.0352 0.3641 0.87715 0.0
H1312 H 0.13279 0.38311 0.92464 0.0
H1313 H 0.08936 0.40147 0.91008 0.0
H1314 H 1.00658 0.36121 0.87015 0.0
H1315 H 0.04694 0.39023 0.87016 0.0
H1316 H 0.11136 0.21418 0.91609 0.0
H1317 H 0.15131 0.24244 0.91383 0.0
H1318 H 0.05657 0.21576 0.93929 0.0
H1319 H 0.01361 0.23188 0.92162 0.0
C1320 C 0.5949 0.9553 0.77292 0.0
C1321 C 0.61572 0.97574 0.80072 0.0
C1322 C 0.60548 0.92411 0.8461 0.0
C1323 C 0.58542 0.90353 0.81806 0.0
N1324 N 0.5496 0.90552 0.7597 0.0
N1325 N 0.62967 0.98507 0.86676 0.0
C1326 C 0.57574 0.92146 0.78343 0.0
C1327 C 0.6174 0.96184 0.83837 0.0
N1328 N 0.59606 0.96595 0.73577 0.0
N1329 N 0.61381 0.90723 0.87981 0.0
H1330 H 0.63649 0.01336 0.86201 0.0
H1331 H 0.62898 0.9777 0.89526 0.0
H1332 H 0.60313 0.88068 0.88718 0.0
H1333 H 0.63235 0.91884 0.89965 0.0
H1334 H 0.58567 0.94909 0.71387 0.0
H1335 H 0.61041 0.98976 0.72607 0.0
H1336 H 0.53918 0.91928 0.73582 0.0
H1337 H 0.53532 0.88047 0.76572 0.0
C1338 C 0.12044 0.57376 0.23964 0.0
C1339 C 0.13347 0.54785 0.2117 0.0
C1340 C 0.11031 0.59101 0.16235 0.0
C1341 C 0.09496 0.61491 0.19063 0.0
N1342 N 0.07304 0.62013 0.25534 0.0
N1343 N 0.12986 0.52727 0.14635 0.0
C1344 C 0.09547 0.60306 0.2289 0.0
C1345 C 0.12517 0.55503 0.17288 0.0
N1346 N 0.13408 0.57274 0.27584 0.0
N1347 N 0.11087 0.60271 0.12558 0.0
H1348 H 0.13786 0.49974 0.15322 0.0
H1349 H 0.12154 0.53035 0.11824 0.0
H1350 H 0.09813 0.6279 0.1169 0.0
H1351 H 0.12551 0.58833 0.10437 0.0
H1352 H 0.12715 0.59309 0.29608 0.0
H1353 H 0.15631 0.55535 0.28436 0.0
H1354 H 0.07108 0.61045 0.28312 0.0
H1355 H 0.0527 0.64028 0.24857 0.0
C1356 C 0.44061 0.42475 0.71687 0.0
C1357 C 0.42344 0.4018 0.68819 0.0
C1358 C 0.38577 0.45664 0.66799 0.0
C1359 C 0.3954 0.47543 0.70223 0.0
N1360 N 0.448 0.48769 0.74374 0.0
N1361 N 0.38362 0.39767 0.63289 0.0
C1362 C 0.42784 0.46268 0.72211 0.0
C1363 C 0.39749 0.4185 0.66242 0.0
N1364 N 0.46678 0.40979 0.74114 0.0
N1365 N 0.36886 0.47637 0.63944 0.0
H1366 H 0.39438 0.37111 0.62578 0.0
H1367 H 0.36077 0.40621 0.6163 0.0
H1368 H 0.36617 0.50573 0.64038 0.0
H1369 H 0.36313 0.46503 0.61284 0.0
H1370 H 0.47571 0.42341 0.76573 0.0
H1371 H 0.47791 0.3827 0.7386 0.0
H1372 H 0.47382 0.48129 0.7565 0.0
H1373 H 0.44167 0.5165 0.74434 0.0
C1374 C 0.91619 0.09854 0.27257 0.0
C1375 C 0.9121 0.11857 0.30722 0.0
C1376 C 0.88962 0.05955 0.3369 0.0
C1377 C 0.8927 0.04076 0.30121 0.0
N1378 N 0.9317 0.03824 0.24509 0.0
N1379 N 0.90484 0.11523 0.37494 0.0
C1380 C 0.91352 0.05879 0.27228 0.0
C1381 C 0.90166 0.09821 0.34033 0.0
N1382 N 0.91952 0.11724 0.23913 0.0
N1383 N 0.8766 0.04016 0.36762 0.0
H1384 H 0.91501 0.14276 0.37836 0.0
H1385 H 0.90057 0.10131 0.40049 0.0
H1386 H 0.87508 0.01069 0.36811 0.0
H1387 H 0.86816 0.05307 0.39273 0.0
H1388 H 0.91983 0.10325 0.21313 0.0
H1389 H 0.91627 0.14633 0.23724 0.0
H1390 H 0.94877 0.05081 0.22452 0.0
H1391 H 0.93454 0.00891 0.24685 0.0
C1392 C 0.23302 0.35671 0.3574 0.0
C1393 C 0.19921 0.3595 0.33581 0.0
C1394 C 0.18004 0.29677 0.35578 0.0
C1395 C 0.21247 0.29435 0.37953 0.0
N1396 N 0.26547 0.32556 0.40939 0.0
N1397 N 0.13477 0.33787 0.32599 0.0
C1398 C 0.23757 0.32561 0.38261 0.0
C1399 C 0.17063 0.33168 0.33924 0.0
N1400 N 0.26087 0.38327 0.35327 0.0
N1401 N 0.15955 0.26537 0.34649 0.0
H1402 H 0.12572 0.36351 0.315 0.0
H1403 H 0.11252 0.31899 0.33028 0.0
H1404 H 0.16785 0.23846 0.35399 0.0
H1405 H 0.13764 0.26538 0.32672 0.0
H1406 H 0.28783 0.38055 0.36503 0.0
H1407 H 0.25743 0.40721 0.33636 0.0
H1408 H 0.28274 0.34887 0.41492 0.0
H1409 H 0.26924 0.30316 0.42819 0.0
C1410 C 0.34511 0.71157 0.87037 0.0
C1411 C 0.30891 0.71802 0.88692 0.0
C1412 C 0.28573 0.65886 0.85805 0.0
C1413 C 0.32174 0.65342 0.84089 0.0
N1414 N 0.38904 0.66785 0.84186 0.0
N1415 N 0.24678 0.69472 0.90225 0.0
C1416 C 0.35253 0.67733 0.85088 0.0
C1417 C 0.27985 0.69047 0.88265 0.0
N1418 N 0.3719 0.73934 0.87068 0.0
N1419 N 0.25727 0.63364 0.85059 0.0
H1420 H 0.24209 0.7178 0.91994 0.0
H1421 H 0.2251 0.67476 0.90304 0.0
H1422 H 0.262 0.60863 0.83558 0.0
H1423 H 0.2292 0.63733 0.8588 0.0
H1424 H 0.39643 0.73884 0.85423 0.0
H1425 H 0.36802 0.76442 0.885 0.0
H1426 H 0.4126 0.6823 0.85237 0.0
H1427 H 0.39664 0.64337 0.8276 0.0
C1428 C 0.74848 0.18206 0.63761 0.0
C1429 C 0.71933 0.19845 0.61546 0.0
C1430 C 0.67198 0.15858 0.64614 0.0
C1431 C 0.70044 0.14505 0.67088 0.0
N1432 N 0.76658 0.13383 0.68303 0.0
N1433 N 0.65908 0.18633 0.58517 0.0
C1434 C 0.73913 0.1535 0.66422 0.0
C1435 C 0.68274 0.18174 0.61531 0.0
N1436 N 0.78491 0.19421 0.63298 0.0
N1437 N 0.63464 0.15066 0.65282 0.0
H1438 H 0.66815 0.19842 0.55993 0.0
H1439 H 0.63292 0.17273 0.58292 0.0
H1440 H 0.62568 0.13293 0.6746 0.0
H1441 H 0.61255 0.16375 0.63826 0.0
H1442 H 0.8072 0.18732 0.651 0.0
H1443 H 0.79236 0.21163 0.61041 0.0
H1444 H 0.79548 0.13673 0.67782 0.0
H1445 H 0.76004 0.11202 0.70177 0.0
C1446 C 0.78262 0.82677 0.12987 0.0
C1447 C 0.80681 0.79485 0.12823 0.0
C1448 C 0.83807 0.81463 0.18666 0.0
C1449 C 0.81609 0.84813 0.18714 0.0
N1450 N 0.77144 0.88942 0.15612 0.0
N1451 N 0.86462 0.76519 0.14793 0.0
C1452 C 0.78965 0.85538 0.15762 0.0
C1453 C 0.83686 0.79113 0.15441 0.0
N1454 N 0.75242 0.82905 0.1058 0.0
N1455 N 0.85924 0.8045 0.21736 0.0
H1456 H 0.86688 0.75216 0.12178 0.0
H1457 H 0.88766 0.7605 0.16567 0.0
H1458 H 0.85976 0.82011 0.24222 0.0
H1459 H 0.87293 0.77853 0.21977 0.0
H1460 H 0.73116 0.84933 0.1083 0.0
H1461 H 0.74782 0.80923 0.08433 0.0
H1462 H 0.75445 0.89767 0.1335 0.0
H1463 H 0.77545 0.9105 0.17643 0.0
C1464 C 0.3662 0.24376 0.32464 0.0
C1465 C 0.38936 0.21634 0.30678 0.0
C1466 C 0.36302 0.16673 0.34771 0.0
C1467 C 0.33876 0.19395 0.36446 0.0
N1468 N 0.32419 0.25932 0.37678 0.0
N1469 N 0.4182 0.15473 0.30831 0.0
C1470 C 0.34277 0.23287 0.35555 0.0
C1471 C 0.39057 0.17873 0.32077 0.0
N1472 N 0.36554 0.27983 0.31092 0.0
N1473 N 0.35875 0.12934 0.35661 0.0
H1474 H 0.43969 0.16362 0.29016 0.0
H1475 H 0.42233 0.12758 0.31884 0.0
H1476 H 0.33973 0.11994 0.37717 0.0
H1477 H 0.37258 0.10748 0.34251 0.0
H1478 H 0.34593 0.30022 0.31922 0.0
H1479 H 0.38411 0.28879 0.28981 0.0
H1480 H 0.3284 0.28833 0.37398 0.0
H1481 H 0.30707 0.25202 0.39968 0.0
C1482 C 0.16017 0.84959 0.8398 0.0
C1483 C 0.17899 0.82115 0.86086 0.0
C1484 C 0.14054 0.77196 0.83035 0.0
C1485 C 0.12443 0.79998 0.80685 0.0
N1486 N 0.10786 0.86513 0.79781 0.0
N1487 N 0.17945 0.75755 0.88517 0.0
C1488 C 0.13073 0.83885 0.81444 0.0
C1489 C 0.1666 0.78296 0.8591 0.0
N1490 N 0.17073 0.88661 0.84393 0.0
N1491 N 0.1316 0.73489 0.82425 0.0
H1492 H 0.19805 0.76516 0.90684 0.0
H1493 H 0.16944 0.72994 0.88742 0.0
H1494 H 0.10987 0.72701 0.80582 0.0
H1495 H 0.1457 0.7123 0.8368 0.0
H1496 H 0.1601 0.90865 0.82767 0.0
H1497 H 0.19123 0.89541 0.86332 0.0
H1498 H 0.10938 0.89409 0.80289 0.0
H1499 H 0.08432 0.85721 0.78181 0.0
C1500 C 0.86224 0.27587 0.64933 0.0
C1501 C 0.84437 0.31166 0.64747 0.0
C1502 C 0.88622 0.3349 0.69753 0.0
C1503 C 0.89724 0.29715 0.70548 0.0
N1504 N 0.898 0.23152 0.68754 0.0
N1505 N 0.84032 0.37645 0.66845 0.0
C1506 C 0.88621 0.26758 0.68064 0.0
C1507 C 0.85688 0.34164 0.67099 0.0
N1508 N 0.85661 0.25015 0.62105 0.0
N1509 N 0.90428 0.36441 0.71467 0.0
H1510 H 0.82151 0.38348 0.64693 0.0
H1511 H 0.84402 0.39777 0.68853 0.0
H1512 H 0.9275 0.36053 0.7322 0.0
H1513 H 0.8996 0.39259 0.70763 0.0
H1514 H 0.87132 0.22469 0.61906 0.0
H1515 H 0.8396 0.25594 0.59764 0.0
H1516 H 0.88744 0.20791 0.67334 0.0
H1517 H 0.91763 0.22542 0.70869 0.0
C1518 C 0.63593 0.74159 0.18314 0.0
C1519 C 0.6294 0.71354 0.21105 0.0
C1520 C 0.66279 0.66734 0.17132 0.0
C1521 C 0.67567 0.69672 0.1478 0.0
N1522 N 0.67702 0.7631 0.13233 0.0
N1523 N 0.64446 0.65121 0.23424 0.0
C1524 C 0.66261 0.73428 0.15362 0.0
C1525 C 0.64443 0.67663 0.20556 0.0
N1526 N 0.6164 0.77483 0.18466 0.0
N1527 N 0.6688 0.63048 0.16133 0.0
H1528 H 0.63372 0.65755 0.26053 0.0
H1529 H 0.65912 0.62577 0.23314 0.0
H1530 H 0.68153 0.62287 0.13582 0.0
H1531 H 0.65752 0.60771 0.17625 0.0
H1532 H 0.61785 0.79532 0.16356 0.0
H1533 H 0.5958 0.78 0.20523 0.0
H1534 H 0.67165 0.79153 0.13798 0.0
H1535 H 0.69647 0.75854 0.11055 0.0
C1536 C 0.34016 0.35674 0.16327 0.0
C1537 C 0.36421 0.343 0.19235 0.0
C1538 C 0.3347 0.38663 0.23769 0.0
C1539 C 0.31005 0.39922 0.20876 0.0
N1540 N 0.29905 0.40738 0.14224 0.0
N1541 N 0.39301 0.35361 0.25324 0.0
C1542 C 0.31645 0.38816 0.17083 0.0
C1543 C 0.36436 0.36093 0.22834 0.0
N1544 N 0.33755 0.33814 0.12951 0.0
N1545 N 0.32844 0.39749 0.27423 0.0
H1546 H 0.41539 0.33543 0.24662 0.0
H1547 H 0.39633 0.36799 0.27878 0.0
H1548 H 0.30781 0.41739 0.28147 0.0
H1549 H 0.34248 0.38558 0.29724 0.0
H1550 H 0.31722 0.34445 0.10908 0.0
H1551 H 0.35337 0.31415 0.12334 0.0
H1552 H 0.30447 0.40233 0.1137 0.0
H1553 H 0.28267 0.43136 0.1475 0.0
C1554 C 0.86055 0.15203 0.78249 0.0
C1555 C 0.86501 0.16865 0.81874 0.0
C1556 C 0.81144 0.13177 0.84294 0.0
C1557 C 0.80462 0.11787 0.80574 0.0
N1558 N 0.82912 0.10415 0.74398 0.0
N1559 N 0.85344 0.1657 0.88566 0.0
C1560 C 0.83137 0.12467 0.77666 0.0
C1561 C 0.84321 0.15565 0.84972 0.0
N1562 N 0.88355 0.16332 0.75356 0.0
N1563 N 0.78679 0.12334 0.87146 0.0
H1564 H 0.87749 0.18189 0.89129 0.0
H1565 H 0.84068 0.15515 0.90999 0.0
H1566 H 0.76599 0.10275 0.86874 0.0
H1567 H 0.78652 0.13691 0.89761 0.0
H1568 H 0.87934 0.1557 0.72542 0.0
H1569 H 0.90658 0.18139 0.75789 0.0
H1570 H 0.8491 0.10548 0.72237 0.0
H1571 H 0.80877 0.08298 0.74018 0.0
C1572 C 0.69253 0.87953 0.27051 0.0
C1573 C 0.70951 0.89858 0.30151 0.0
C1574 C 0.66383 0.86972 0.3451 0.0
C1575 C 0.64874 0.84837 0.31455 0.0
N1576 N 0.64103 0.83975 0.24759 0.0
N1577 N 0.70599 0.92035 0.36577 0.0
C1578 C 0.66054 0.85572 0.27694 0.0
C1579 C 0.69314 0.89656 0.33803 0.0
N1580 N 0.70834 0.88279 0.23537 0.0
N1581 N 0.65122 0.86307 0.38101 0.0
H1582 H 0.72703 0.94052 0.36076 0.0
H1583 H 0.69388 0.92258 0.39252 0.0
H1584 H 0.62834 0.84529 0.38678 0.0
H1585 H 0.66399 0.87414 0.40512 0.0
H1586 H 0.7006 0.86624 0.21223 0.0
H1587 H 0.73042 0.90164 0.22973 0.0
H1588 H 0.64602 0.84597 0.21927 0.0
H1589 H 0.61744 0.82246 0.25195 0.0
C1590 C 0.19861 0.6169 0.6793 0.0
C1591 C 0.20794 0.6088 0.71724 0.0
C1592 C 0.15684 0.65036 0.73859 0.0
C1593 C 0.15396 0.66505 0.7013 0.0
N1594 N 0.1743 0.66349 0.63591 0.0
N1595 N 0.19408 0.61377 0.78338 0.0
C1596 C 0.17477 0.64809 0.67131 0.0
C1597 C 0.18593 0.6238 0.74704 0.0
N1598 N 0.21343 0.59507 0.65108 0.0
N1599 N 0.13157 0.66163 0.76558 0.0
H1600 H 0.2138 0.59268 0.78958 0.0
H1601 H 0.18214 0.62671 0.80701 0.0
H1602 H 0.10988 0.68079 0.75981 0.0
H1603 H 0.12999 0.64978 0.79245 0.0
H1604 H 0.20585 0.59778 0.62272 0.0
H1605 H 0.2299 0.57131 0.65701 0.0
H1606 H 0.19224 0.65474 0.61419 0.0
H1607 H 0.15855 0.68734 0.62912 0.0
C1608 C 0.77817 0.64858 0.64641 0.0
C1609 C 0.81538 0.64472 0.66114 0.0
C1610 C 0.83729 0.69462 0.61829 0.0
C1611 C 0.79899 0.70428 0.61082 0.0
N1612 N 0.7327 0.68914 0.61444 0.0
N1613 N 0.88178 0.66027 0.65795 0.0
C1614 C 0.76934 0.68034 0.62326 0.0
C1615 C 0.84553 0.66637 0.64575 0.0
N1616 N 0.75153 0.62177 0.65442 0.0
N1617 N 0.86547 0.71253 0.59879 0.0
H1618 H 0.88876 0.63834 0.67631 0.0
H1619 H 0.90486 0.67705 0.65055 0.0
H1620 H 0.85945 0.73124 0.57687 0.0
H1621 H 0.89416 0.70616 0.60128 0.0
H1622 H 0.72478 0.62099 0.64191 0.0
H1623 H 0.75746 0.59849 0.67148 0.0
H1624 H 0.70927 0.67578 0.62641 0.0
H1625 H 0.72598 0.71097 0.59577 0.0
C1626 C 0.70986 0.33173 0.11758 0.0
C1627 C 0.72168 0.2963 0.1332 0.0
C1628 C 0.70005 0.31713 0.19502 0.0
C1629 C 0.69401 0.35425 0.18192 0.0
N1630 N 0.69771 0.39845 0.12996 0.0
N1631 N 0.74386 0.26616 0.19072 0.0
C1632 C 0.70007 0.36218 0.14286 0.0
C1633 C 0.72212 0.29274 0.17321 0.0
N1634 N 0.70726 0.33671 0.07942 0.0
N1635 N 0.68458 0.3048 0.22818 0.0
H1636 H 0.76493 0.25154 0.17636 0.0
H1637 H 0.74407 0.26241 0.21994 0.0
H1638 H 0.66539 0.32101 0.24364 0.0
H1639 H 0.68695 0.2768 0.2372 0.0
H1640 H 0.69397 0.36007 0.06734 0.0
H1641 H 0.71717 0.31737 0.05965 0.0
H1642 H 0.7062 0.4064 0.10288 0.0
H1643 H 0.68963 0.42102 0.14708 0.0
C1644 C 0.33698 0.81559 0.39037 0.0
C1645 C 0.299 0.80706 0.39973 0.0
C1646 C 0.27838 0.86034 0.36122 0.0
C1647 C 0.31475 0.8611 0.3439 0.0
N1648 N 0.38012 0.84067 0.34359 0.0
N1649 N 0.23268 0.82227 0.39568 0.0
C1650 C 0.34468 0.83931 0.35916 0.0
C1651 C 0.26937 0.83025 0.3863 0.0
N1652 N 0.36551 0.80134 0.41198 0.0
N1653 N 0.2528 0.88832 0.3541 0.0
H1654 H 0.22565 0.80106 0.41496 0.0
H1655 H 0.20952 0.83549 0.38302 0.0
H1656 H 0.25834 0.91028 0.33524 0.0
H1657 H 0.22728 0.89094 0.36875 0.0
H1658 H 0.39377 0.80898 0.40838 0.0
H1659 H 0.35974 0.78619 0.43657 0.0
H1660 H 0.4017 0.8219 0.35086 0.0
H1661 H 0.38734 0.85929 0.32195 0.0
C1662 C 0.24997 0.2091 0.85605 0.0
C1663 C 0.23147 0.20906 0.89117 0.0
C1664 C 0.19948 0.15055 0.87166 0.0
C1665 C 0.2095 0.15803 0.83285 0.0
N1666 N 0.23551 0.20625 0.79035 0.0
N1667 N 0.1879 0.17842 0.93356 0.0
C1668 C 0.23279 0.19033 0.82544 0.0
C1669 C 0.20617 0.17918 0.89956 0.0
N1670 N 0.28242 0.22942 0.85142 0.0
N1671 N 0.18502 0.11645 0.88274 0.0
H1672 H 0.19388 0.19771 0.95511 0.0
H1673 H 0.16548 0.16005 0.93931 0.0
H1674 H 0.182 0.09311 0.86518 0.0
H1675 H 0.18053 0.10961 0.91105 0.0
H1676 H 0.29781 0.22931 0.8262 0.0
H1677 H 0.29563 0.24207 0.8746 0.0
H1678 H 0.25173 0.23044 0.7853 0.0
H1679 H 0.21664 0.20042 0.76843 0.0
C1680 C 0.64978 0.78275 0.65423 0.0
C1681 C 0.66781 0.81832 0.64904 0.0
C1682 C 0.63788 0.84269 0.706 0.0
C1683 C 0.62108 0.80677 0.71242 0.0
N1684 N 0.60053 0.7472 0.68679 0.0
N1685 N 0.66551 0.88606 0.66159 0.0
C1686 C 0.62359 0.77818 0.68451 0.0
C1687 C 0.65729 0.84965 0.67189 0.0
N1688 N 0.65816 0.75341 0.6305 0.0
N1689 N 0.63716 0.86984 0.73332 0.0
H1690 H 0.67836 0.89374 0.63639 0.0
H1691 H 0.65499 0.90957 0.67599 0.0
H1692 H 0.62122 0.86683 0.7575 0.0
H1693 H 0.65405 0.89407 0.73293 0.0
H1694 H 0.64961 0.72563 0.63535 0.0
H1695 H 0.67476 0.75699 0.60632 0.0
H1696 H 0.59886 0.72654 0.66582 0.0
H1697 H 0.58053 0.7441 0.70834 0.0
C1698 C 0.91004 0.19124 0.17305 0.0
C1699 C 0.9044 0.22467 0.19405 0.0
C1700 C 0.85087 0.24022 0.15316 0.0
C1701 C 0.84898 0.20165 0.1415 0.0
N1702 N 0.87896 0.13964 0.14076 0.0
N1703 N 0.87365 0.28477 0.20035 0.0
C1704 C 0.87974 0.17704 0.15052 0.0
C1705 C 0.87643 0.25067 0.18241 0.0
N1706 N 0.94389 0.17283 0.17554 0.0
N1707 N 0.82864 0.26674 0.13595 0.0
H1708 H 0.89414 0.29388 0.21969 0.0
H1709 H 0.85089 0.30319 0.19676 0.0
H1710 H 0.81063 0.26012 0.11348 0.0
H1711 H 0.83075 0.29563 0.14143 0.0
H1712 H 0.95089 0.14975 0.15854 0.0
H1713 H 0.96598 0.18319 0.19233 0.0
H1714 H 0.89933 0.12035 0.14978 0.0
H1715 H 0.85666 0.12686 0.1264 0.0
C1716 C 0.15603 0.72286 0.35159 0.0
C1717 C 0.18168 0.69197 0.35088 0.0
C1718 C 0.16183 0.67644 0.28654 0.0
C1719 C 0.13456 0.70619 0.2874 0.0
N1720 N 0.10015 0.75218 0.32414 0.0
N1721 N 0.20005 0.6328 0.32248 0.0
C1722 C 0.12975 0.72755 0.32116 0.0
C1723 C 0.18152 0.66659 0.31996 0.0
N1724 N 0.15737 0.7481 0.38088 0.0
N1725 N 0.17027 0.65822 0.25358 0.0
H1726 H 0.213 0.62385 0.34721 0.0
H1727 H 0.19878 0.61179 0.30183 0.0
H1728 H 0.15645 0.66355 0.22843 0.0
H1729 H 0.19325 0.63998 0.25045 0.0
H1730 H 0.14257 0.77358 0.38099 0.0
H1731 H 0.17509 0.7444 0.40425 0.0
H1732 H 0.0932 0.76638 0.34902 0.0
H1733 H 0.08054 0.75571 0.30243 0.0
C1734 C 0.36224 0.29254 0.85868 0.0
C1735 C 0.33659 0.32326 0.85488 0.0
C1736 C 0.3712 0.34487 0.79938 0.0
C1737 C 0.39126 0.31026 0.79831 0.0
N1738 N 0.40729 0.25095 0.82729 0.0
N1739 N 0.31393 0.37638 0.81842 0.0
C1740 C 0.38746 0.28408 0.82832 0.0
C1741 C 0.34053 0.34906 0.82457 0.0
N1742 N 0.36265 0.27187 0.89127 0.0
N1743 N 0.38172 0.37393 0.77647 0.0
H1744 H 0.29043 0.37993 0.83568 0.0
H1745 H 0.31334 0.39318 0.79423 0.0
H1746 H 0.40565 0.37199 0.75968 0.0
H1747 H 0.37018 0.40102 0.77812 0.0
H1748 H 0.3828 0.25116 0.89704 0.0
H1749 H 0.34437 0.2775 0.91379 0.0
H1750 H 0.40254 0.22867 0.84594 0.0
H1751 H 0.42755 0.24533 0.80648 0.0
C1752 C 0.68813 0.64676 0.76356 0.0
C1753 C 0.70448 0.62236 0.79089 0.0
C1754 C 0.66809 0.65378 0.8409 0.0
C1755 C 0.65386 0.67983 0.81406 0.0
N1756 N 0.64043 0.694 0.74888 0.0
N1757 N 0.69287 0.5909 0.85035 0.0
C1758 C 0.66082 0.67412 0.77497 0.0
C1759 C 0.68935 0.62212 0.8281 0.0
N1760 N 0.69863 0.6432 0.72662 0.0
N1761 N 0.66211 0.65957 0.87864 0.0
H1762 H 0.70316 0.56531 0.84003 0.0
H1763 H 0.67972 0.58848 0.87662 0.0
H1764 H 0.64608 0.68207 0.88908 0.0
H1765 H 0.67553 0.64365 0.89951 0.0
H1766 H 0.69232 0.66288 0.70568 0.0
H1767 H 0.7141 0.61986 0.71739 0.0
H1768 H 0.64188 0.68917 0.71988 0.0
H1769 H 0.61931 0.71311 0.75662 0.0
C1770 C 0.17943 0.89869 0.18992 0.0
C1771 C 0.20169 0.88914 0.22215 0.0
C1772 C 0.15816 0.83643 0.23471 0.0
C1773 C 0.14478 0.83929 0.1972 0.0
N1774 N 0.13872 0.8752 0.13976 0.0
N1775 N 0.20572 0.85429 0.28055 0.0
C1776 C 0.15393 0.87126 0.17503 0.0
C1777 C 0.18879 0.85969 0.24635 0.0
N1778 N 0.18072 0.93427 0.17499 0.0
N1779 N 0.14045 0.81255 0.25942 0.0
H1780 H 0.22412 0.8743 0.29178 0.0
H1781 H 0.20173 0.83042 0.29732 0.0
H1782 H 0.11609 0.79752 0.25191 0.0
H1783 H 0.14699 0.81085 0.28807 0.0
H1784 H 0.16361 0.94298 0.15263 0.0
H1785 H 0.19394 0.95681 0.18866 0.0
H1786 H 0.14753 0.89582 0.12067 0.0
H1787 H 0.11842 0.85657 0.12903 0.0
C1788 C 0.32238 0.12342 0.67451 0.0
C1789 C 0.30661 0.1199 0.71122 0.0
C1790 C 0.35022 0.1684 0.73544 0.0
C1791 C 0.36401 0.17389 0.6981 0.0
N1792 N 0.37043 0.15142 0.634 0.0
N1793 N 0.30932 0.13249 0.77795 0.0
C1794 C 0.35254 0.14949 0.66826 0.0
C1795 C 0.3221 0.14015 0.74224 0.0
N1796 N 0.3071 0.10301 0.64535 0.0
N1797 N 0.36363 0.19084 0.76403 0.0
H1798 H 0.28918 0.11152 0.78335 0.0
H1799 H 0.31991 0.1449 0.80247 0.0
H1800 H 0.38601 0.20974 0.76013 0.0
H1801 H 0.35275 0.19131 0.79134 0.0
H1802 H 0.3134 0.10765 0.61702 0.0
H1803 H 0.28687 0.08188 0.64962 0.0
H1804 H 0.3659 0.1324 0.61196 0.0
H1805 H 0.39223 0.17051 0.62835 0.0
C1806 C 0.83106 0.4035 0.31658 0.0
C1807 C 0.80225 0.3975 0.28928 0.0
C1808 C 0.824 0.3336 0.27985 0.0
C1809 C 0.85599 0.33951 0.30393 0.0
N1810 N 0.89502 0.38718 0.33534 0.0
N1811 N 0.78516 0.36383 0.23283 0.0
C1812 C 0.86134 0.37669 0.3194 0.0
C1813 C 0.80413 0.36517 0.26634 0.0
N1814 N 0.82914 0.43389 0.3403 0.0
N1815 N 0.80917 0.29851 0.27325 0.0
H1816 H 0.77237 0.38801 0.22168 0.0
H1817 H 0.78669 0.34048 0.21476 0.0
H1818 H 0.81621 0.27472 0.28908 0.0
H1819 H 0.78473 0.29483 0.25711 0.0
H1820 H 0.84734 0.43732 0.36332 0.0
H1821 H 0.80799 0.45437 0.33788 0.0
H1822 H 0.90028 0.41472 0.3446 0.0
H1823 H 0.91914 0.37028 0.33482 0.0
loop_
_geom_bond_atom_site_label_1
_geom_bond_atom_site_label_2
_geom_bond_distance
_geom_bond_site_symmetry_2
_ccdc_geom_bond_type
Fe0 O2 1.918 . S
Fe0 O5 1.997 . S
Fe0 O6 2.002 . S
Fe0 O11 1.976 . S
Fe0 O14 1.996 . S
Fe1 O2 1.918 . S
Fe1 O9 1.997 . S
Fe1 O12 1.996 . S
Fe1 O16 1.976 . S
Fe1 O19 2.002 . S
O2 Fe0 1.918 . S
O2 Fe1 1.918 . S
O2 Fe3 1.918 . S
Fe3 O2 1.918 . S
Fe3 O4 2.002 . S
Fe3 O13 1.976 . S
Fe3 O17 1.996 . S
Fe3 O20 1.997 . S
O4 Fe3 2.002 . S
O4 C21 1.295 . S
O5 Fe0 1.997 . S
O5 C21 1.235 . S
O6 Fe0 2.002 . S
O6 C7 1.295 . S
C7 O6 1.295 . S
C7 O9 1.235 . S
C8 O13 1.287 . S
C8 O14 1.255 . S
O9 Fe1 1.997 . S
O9 C7 1.235 . S
C10 O16 1.287 . S
C10 O17 1.255 . S
O11 Fe0 1.976 . S
O11 C18 1.287 . S
O12 Fe1 1.996 . S
O12 C18 1.255 . S
O13 Fe3 1.976 . S
O13 C8 1.287 . S
O14 Fe0 1.996 . S
O14 C8 1.255 . S
C15 O19 1.295 . S
C15 O20 1.235 . S
O16 Fe1 1.976 . S
O16 C10 1.287 . S
O17 Fe3 1.996 . S
O17 C10 1.255 . S
C18 O11 1.287 . S
C18 O12 1.255 . S
O19 Fe1 2.002 . S
O19 C15 1.295 . S
O20 Fe3 1.997 . S
O20 C15 1.235 . S
C21 O4 1.295 . S
C21 O5 1.235 . S
Fe22 O24 1.918 . S
Fe22 O27 1.997 . S
Fe22 O28 2.002 . S
Fe22 O33 1.976 . S
Fe22 O36 1.996 . S
Fe23 O24 1.918 . S
Fe23 O31 1.997 . S
Fe23 O34 1.996 . S
Fe23 O38 1.976 . S
Fe23 O41 2.002 . S
O24 Fe22 1.918 . S
O24 Fe23 1.918 . S
O24 Fe25 1.918 . S
Fe25 O24 1.918 . S
Fe25 O26 2.002 . S
Fe25 O35 1.976 . S
Fe25 O39 1.996 . S
Fe25 O42 1.997 . S
O26 Fe25 2.002 . S
O26 C43 1.295 . S
O27 Fe22 1.997 . S
O27 C43 1.235 . S
O28 Fe22 2.002 . S
O28 C29 1.295 . S
C29 O28 1.295 . S
C29 O31 1.235 . S
C30 O35 1.287 . S
C30 O36 1.255 . S
O31 Fe23 1.997 . S
O31 C29 1.235 . S
C32 O38 1.287 . S
C32 O39 1.255 . S
O33 Fe22 1.976 . S
O33 C40 1.287 . S
O34 Fe23 1.996 . S
O34 C40 1.255 . S
O35 Fe25 1.976 . S
O35 C30 1.287 . S
O36 Fe22 1.996 . S
O36 C30 1.255 . S
C37 O41 1.295 . S
C37 O42 1.235 . S
O38 Fe23 1.976 . S
O38 C32 1.287 . S
O39 Fe25 1.996 . S
O39 C32 1.255 . S
C40 O33 1.287 . S
C40 O34 1.255 . S
O41 Fe23 2.002 . S
O41 C37 1.295 . S
O42 Fe25 1.997 . S
O42 C37 1.235 . S
C43 O26 1.295 . S
C43 O27 1.235 . S
Fe44 O46 1.918 . S
Fe44 O49 1.997 . S
Fe44 O50 2.002 . S
Fe44 O55 1.976 . S
Fe44 O58 1.996 . S
Fe45 O46 1.918 . S
Fe45 O53 1.997 . S
Fe45 O56 1.996 . S
Fe45 O60 1.976 . S
Fe45 O63 2.002 . S
O46 Fe44 1.918 . S
O46 Fe45 1.918 . S
O46 Fe47 1.918 . S
Fe47 O46 1.918 . S
Fe47 O48 2.002 . S
Fe47 O57 1.976 . S
Fe47 O61 1.996 . S
Fe47 O64 1.997 . S
O48 Fe47 2.002 . S
O48 C65 1.295 . S
O49 Fe44 1.997 . S
O49 C65 1.235 . S
O50 Fe44 2.002 . S
O50 C51 1.295 . S
C51 O50 1.295 . S
C51 O53 1.235 . S
C52 O57 1.287 . S
C52 O58 1.255 . S
O53 Fe45 1.997 . S
O53 C51 1.235 . S
C54 O60 1.287 . S
C54 O61 1.255 . S
O55 Fe44 1.976 . S
O55 C62 1.287 . S
O56 Fe45 1.996 . S
O56 C62 1.255 . S
O57 Fe47 1.976 . S
O57 C52 1.287 . S
O58 Fe44 1.996 . S
O58 C52 1.255 . S
C59 O63 1.295 . S
C59 O64 1.235 . S
O60 Fe45 1.976 . S
O60 C54 1.287 . S
O61 Fe47 1.996 . S
O61 C54 1.255 . S
C62 O55 1.287 . S
C62 O56 1.255 . S
O63 Fe45 2.002 . S
O63 C59 1.295 . S
O64 Fe47 1.997 . S
O64 C59 1.235 . S
C65 O48 1.295 . S
C65 O49 1.235 . S
Fe66 O68 1.918 . S
Fe66 O71 1.997 . S
Fe66 O72 2.002 . S
Fe66 O77 1.976 . S
Fe66 O80 1.996 . S
Fe67 O68 1.918 . S
Fe67 O75 1.997 . S
Fe67 O78 1.996 . S
Fe67 O82 1.976 . S
Fe67 O85 2.002 . S
O68 Fe66 1.918 . S
O68 Fe67 1.918 . S
O68 Fe69 1.918 . S
Fe69 O68 1.918 . S
Fe69 O70 2.002 . S
Fe69 O79 1.976 . S
Fe69 O83 1.996 . S
Fe69 O86 1.997 . S
O70 Fe69 2.002 . S
O70 C87 1.295 . S
O71 Fe66 1.997 . S
O71 C87 1.235 . S
O72 Fe66 2.002 . S
O72 C73 1.295 . S
C73 O72 1.295 . S
C73 O75 1.235 . S
C74 O79 1.287 . S
C74 O80 1.255 . S
O75 Fe67 1.997 . S
O75 C73 1.235 . S
C76 O82 1.287 . S
C76 O83 1.255 . S
O77 Fe66 1.976 . S
O77 C84 1.287 . S
O78 Fe67 1.996 . S
O78 C84 1.255 . S
O79 Fe69 1.976 . S
O79 C74 1.287 . S
O80 Fe66 1.996 . S
O80 C74 1.255 . S
C81 O85 1.295 . S
C81 O86 1.235 . S
O82 Fe67 1.976 . S
O82 C76 1.287 . S
O83 Fe69 1.996 . S
O83 C76 1.255 . S
C84 O77 1.287 . S
C84 O78 1.255 . S
O85 Fe67 2.002 . S
O85 C81 1.295 . S
O86 Fe69 1.997 . S
O86 C81 1.235 . S
C87 O70 1.295 . S
C87 O71 1.235 . S
Fe88 O90 1.918 . S
Fe88 O93 1.997 . S
Fe88 O94 2.002 . S
Fe88 O99 1.976 . S
Fe88 O102 1.996 . S
Fe89 O90 1.918 . S
Fe89 O97 1.997 . S
Fe89 O100 1.996 . S
Fe89 O104 1.976 . S
Fe89 O107 2.002 . S
O90 Fe88 1.918 . S
O90 Fe89 1.918 . S
O90 Fe91 1.918 . S
Fe91 O90 1.918 . S
Fe91 O92 2.002 . S
Fe91 O101 1.976 . S
Fe91 O105 1.996 . S
Fe91 O108 1.997 . S
O92 Fe91 2.002 . S
O92 C109 1.295 . S
O93 Fe88 1.997 . S
O93 C109 1.235 . S
O94 Fe88 2.002 . S
O94 C95 1.295 . S
C95 O94 1.295 . S
C95 O97 1.235 . S
C96 O101 1.287 . S
C96 O102 1.255 . S
O97 Fe89 1.997 . S
O97 C95 1.235 . S
C98 O104 1.287 . S
C98 O105 1.255 . S
O99 Fe88 1.976 . S
O99 C106 1.287 . S
O100 Fe89 1.996 . S
O100 C106 1.255 . S
O101 Fe91 1.976 . S
O101 C96 1.287 . S
O102 Fe88 1.996 . S
O102 C96 1.255 . S
C103 O107 1.295 . S
C103 O108 1.235 . S
O104 Fe89 1.976 . S
O104 C98 1.287 . S
O105 Fe91 1.996 . S
O105 C98 1.255 . S
C106 O99 1.287 . S
C106 O100 1.255 . S
O107 Fe89 2.002 . S
O107 C103 1.295 . S
O108 Fe91 1.997 . S
O108 C103 1.235 . S
C109 O92 1.295 . S
C109 O93 1.235 . S
Fe110 O112 1.918 . S
Fe110 O115 1.997 . S
Fe110 O116 2.002 . S
Fe110 O121 1.976 . S
Fe110 O124 1.996 . S
Fe111 O112 1.918 . S
Fe111 O119 1.997 . S
Fe111 O122 1.996 . S
Fe111 O126 1.976 . S
Fe111 O129 2.002 . S
O112 Fe110 1.918 . S
O112 Fe111 1.918 . S
O112 Fe113 1.918 . S
Fe113 O112 1.918 . S
Fe113 O114 2.002 . S
Fe113 O123 1.976 . S
Fe113 O127 1.996 . S
Fe113 O130 1.997 . S
O114 Fe113 2.002 . S
O114 C131 1.295 . S
O115 Fe110 1.997 . S
O115 C131 1.235 . S
O116 Fe110 2.002 . S
O116 C117 1.295 . S
C117 O116 1.295 . S
C117 O119 1.235 . S
C118 O123 1.287 . S
C118 O124 1.255 . S
O119 Fe111 1.997 . S
O119 C117 1.235 . S
C120 O126 1.287 . S
C120 O127 1.255 . S
O121 Fe110 1.976 . S
O121 C128 1.287 . S
O122 Fe111 1.996 . S
O122 C128 1.255 . S
O123 Fe113 1.976 . S
O123 C118 1.287 . S
O124 Fe110 1.996 . S
O124 C118 1.255 . S
C125 O129 1.295 . S
C125 O130 1.235 . S
O126 Fe111 1.976 . S
O126 C120 1.287 . S
O127 Fe113 1.996 . S
O127 C120 1.255 . S
C128 O121 1.287 . S
C128 O122 1.255 . S
O129 Fe111 2.002 . S
O129 C125 1.295 . S
O130 Fe113 1.997 . S
O130 C125 1.235 . S
C131 O114 1.295 . S
C131 O115 1.235 . S
Fe132 O134 1.918 . S
Fe132 O137 1.997 . S
Fe132 O138 2.002 . S
Fe132 O143 1.976 . S
Fe132 O146 1.996 . S
Fe133 O134 1.918 . S
Fe133 O141 1.997 . S
Fe133 O144 1.996 . S
Fe133 O148 1.976 . S
Fe133 O151 2.002 . S
O134 Fe132 1.918 . S
O134 Fe133 1.918 . S
O134 Fe135 1.918 . S
Fe135 O134 1.918 . S
Fe135 O136 2.002 . S
Fe135 O145 1.976 . S
Fe135 O149 1.996 . S
Fe135 O152 1.997 . S
O136 Fe135 2.002 . S
O136 C153 1.295 . S
O137 Fe132 1.997 . S
O137 C153 1.235 . S
O138 Fe132 2.002 . S
O138 C139 1.295 . S
C139 O138 1.295 . S
C139 O141 1.235 . S
C140 O145 1.287 . S
C140 O146 1.255 . S
O141 Fe133 1.997 . S
O141 C139 1.235 . S
C142 O148 1.287 . S
C142 O149 1.255 . S
O143 Fe132 1.976 . S
O143 C150 1.287 . S
O144 Fe133 1.996 . S
O144 C150 1.255 . S
O145 Fe135 1.976 . S
O145 C140 1.287 . S
O146 Fe132 1.996 . S
O146 C140 1.255 . S
C147 O151 1.295 . S
C147 O152 1.235 . S
O148 Fe133 1.976 . S
O148 C142 1.287 . S
O149 Fe135 1.996 . S
O149 C142 1.255 . S
C150 O143 1.287 . S
C150 O144 1.255 . S
O151 Fe133 2.002 . S
O151 C147 1.295 . S
O152 Fe135 1.997 . S
O152 C147 1.235 . S
C153 O136 1.295 . S
C153 O137 1.235 . S
Fe154 O156 1.918 . S
Fe154 O159 1.997 . S
Fe154 O160 2.002 . S
Fe154 O165 1.976 . S
Fe154 O168 1.996 . S
Fe155 O156 1.918 . S
Fe155 O163 1.997 . S
Fe155 O166 1.996 . S
Fe155 O170 1.976 . S
Fe155 O173 2.002 . S
O156 Fe154 1.918 . S
O156 Fe155 1.918 . S
O156 Fe157 1.918 . S
Fe157 O156 1.918 . S
Fe157 O158 2.002 . S
Fe157 O167 1.976 . S
Fe157 O171 1.996 . S
Fe157 O174 1.997 . S
O158 Fe157 2.002 . S
O158 C175 1.295 . S
O159 Fe154 1.997 . S
O159 C175 1.235 . S
O160 Fe154 2.002 . S
O160 C161 1.295 . S
C161 O160 1.295 . S
C161 O163 1.235 . S
C162 O167 1.287 . S
C162 O168 1.255 . S
O163 Fe155 1.997 . S
O163 C161 1.235 . S
C164 O170 1.287 . S
C164 O171 1.255 . S
O165 Fe154 1.976 . S
O165 C172 1.287 . S
O166 Fe155 1.996 . S
O166 C172 1.255 . S
O167 Fe157 1.976 . S
O167 C162 1.287 . S
O168 Fe154 1.996 . S
O168 C162 1.255 . S
C169 O173 1.295 . S
C169 O174 1.235 . S
O170 Fe155 1.976 . S
O170 C164 1.287 . S
O171 Fe157 1.996 . S
O171 C164 1.255 . S
C172 O165 1.287 . S
C172 O166 1.255 . S
O173 Fe155 2.002 . S
O173 C169 1.295 . S
O174 Fe157 1.997 . S
O174 C169 1.235 . S
C175 O158 1.295 . S
C175 O159 1.235 . S
Fe176 O178 1.918 . S
Fe176 O181 1.997 . S
Fe176 O182 2.002 . S
Fe176 O187 1.976 . S
Fe176 O190 1.996 . S
Fe177 O178 1.918 . S
Fe177 O185 1.997 . S
Fe177 O188 1.996 . S
Fe177 O192 1.976 . S
Fe177 O195 2.002 . S
O178 Fe176 1.918 . S
O178 Fe177 1.918 . S
O178 Fe179 1.918 . S
Fe179 O178 1.918 . S
Fe179 O180 2.002 . S
Fe179 O189 1.976 . S
Fe179 O193 1.996 . S
Fe179 O196 1.997 . S
O180 Fe179 2.002 . S
O180 C197 1.295 . S
O181 Fe176 1.997 . S
O181 C197 1.235 . S
O182 Fe176 2.002 . S
O182 C183 1.295 . S
C183 O182 1.295 . S
C183 O185 1.235 . S
C184 O189 1.287 . S
C184 O190 1.255 . S
O185 Fe177 1.997 . S
O185 C183 1.235 . S
C186 O192 1.287 . S
C186 O193 1.255 . S
O187 Fe176 1.976 . S
O187 C194 1.287 . S
O188 Fe177 1.996 . S
O188 C194 1.255 . S
O189 Fe179 1.976 . S
O189 C184 1.287 . S
O190 Fe176 1.996 . S
O190 C184 1.255 . S
C191 O195 1.295 . S
C191 O196 1.235 . S
O192 Fe177 1.976 . S
O192 C186 1.287 . S
O193 Fe179 1.996 . S
O193 C186 1.255 . S
C194 O187 1.287 . S
C194 O188 1.255 . S
O195 Fe177 2.002 . S
O195 C191 1.295 . S
O196 Fe179 1.997 . S
O196 C191 1.235 . S
C197 O180 1.295 . S
C197 O181 1.235 . S
Fe198 O200 1.918 . S
Fe198 O203 1.997 . S
Fe198 O204 2.002 . S
Fe198 O209 1.976 . S
Fe198 O212 1.996 . S
Fe199 O200 1.918 . S
Fe199 O207 1.997 . S
Fe199 O210 1.996 . S
Fe199 O214 1.976 . S
Fe199 O217 2.002 . S
O200 Fe198 1.918 . S
O200 Fe199 1.918 . S
O200 Fe201 1.918 . S
Fe201 O200 1.918 . S
Fe201 O202 2.002 . S
Fe201 O211 1.976 . S
Fe201 O215 1.996 . S
Fe201 O218 1.997 . S
O202 Fe201 2.002 . S
O202 C219 1.295 . S
O203 Fe198 1.997 . S
O203 C219 1.235 . S
O204 Fe198 2.002 . S
O204 C205 1.295 . S
C205 O204 1.295 . S
C205 O207 1.235 . S
C206 O211 1.287 . S
C206 O212 1.255 . S
O207 Fe199 1.997 . S
O207 C205 1.235 . S
C208 O214 1.287 . S
C208 O215 1.255 . S
O209 Fe198 1.976 . S
O209 C216 1.287 . S
O210 Fe199 1.996 . S
O210 C216 1.255 . S
O211 Fe201 1.976 . S
O211 C206 1.287 . S
O212 Fe198 1.996 . S
O212 C206 1.255 . S
C213 O217 1.295 . S
C213 O218 1.235 . S
O214 Fe199 1.976 . S
O214 C208 1.287 . S
O215 Fe201 1.996 . S
O215 C208 1.255 . S
C216 O209 1.287 . S
C216 O210 1.255 . S
O217 Fe199 2.002 . S
O217 C213 1.295 . S
O218 Fe201 1.997 . S
O218 C213 1.235 . S
C219 O202 1.295 . S
C219 O203 1.235 . S
Fe220 O222 1.918 . S
Fe220 O225 1.997 . S
Fe220 O226 2.002 . S
Fe220 O231 1.976 . S
Fe220 O234 1.996 . S
Fe221 O222 1.918 . S
Fe221 O229 1.997 . S
Fe221 O232 1.996 . S
Fe221 O236 1.976 . S
Fe221 O239 2.002 . S
O222 Fe220 1.918 . S
O222 Fe221 1.918 . S
O222 Fe223 1.918 . S
Fe223 O222 1.918 . S
Fe223 O224 2.002 . S
Fe223 O233 1.976 . S
Fe223 O237 1.996 . S
Fe223 O240 1.997 . S
O224 Fe223 2.002 . S
O224 C241 1.295 . S
O225 Fe220 1.997 . S
O225 C241 1.235 . S
O226 Fe220 2.002 . S
O226 C227 1.295 . S
C227 O226 1.295 . S
C227 O229 1.235 . S
C228 O233 1.287 . S
C228 O234 1.255 . S
O229 Fe221 1.997 . S
O229 C227 1.235 . S
C230 O236 1.287 . S
C230 O237 1.255 . S
O231 Fe220 1.976 . S
O231 C238 1.287 . S
O232 Fe221 1.996 . S
O232 C238 1.255 . S
O233 Fe223 1.976 . S
O233 C228 1.287 . S
O234 Fe220 1.996 . S
O234 C228 1.255 . S
C235 O239 1.295 . S
C235 O240 1.235 . S
O236 Fe221 1.976 . S
O236 C230 1.287 . S
O237 Fe223 1.996 . S
O237 C230 1.255 . S
C238 O231 1.287 . S
C238 O232 1.255 . S
O239 Fe221 2.002 . S
O239 C235 1.295 . S
O240 Fe223 1.997 . S
O240 C235 1.235 . S
C241 O224 1.295 . S
C241 O225 1.235 . S
Fe242 O244 1.918 . S
Fe242 O247 1.997 . S
Fe242 O248 2.002 . S
Fe242 O253 1.976 . S
Fe242 O256 1.996 . S
Fe243 O244 1.918 . S
Fe243 O251 1.997 . S
Fe243 O254 1.996 . S
Fe243 O258 1.976 . S
Fe243 O261 2.002 . S
O244 Fe242 1.918 . S
O244 Fe243 1.918 . S
O244 Fe245 1.918 . S
Fe245 O244 1.918 . S
Fe245 O246 2.002 . S
Fe245 O255 1.976 . S
Fe245 O259 1.996 . S
Fe245 O262 1.997 . S
O246 Fe245 2.002 . S
O246 C263 1.295 . S
O247 Fe242 1.997 . S
O247 C263 1.235 . S
O248 Fe242 2.002 . S
O248 C249 1.295 . S
C249 O248 1.295 . S
C249 O251 1.235 . S
C250 O255 1.287 . S
C250 O256 1.255 . S
O251 Fe243 1.997 . S
O251 C249 1.235 . S
C252 O258 1.287 . S
C252 O259 1.255 . S
O253 Fe242 1.976 . S
O253 C260 1.287 . S
O254 Fe243 1.996 . S
O254 C260 1.255 . S
O255 Fe245 1.976 . S
O255 C250 1.287 . S
O256 Fe242 1.996 . S
O256 C250 1.255 . S
C257 O261 1.295 . S
C257 O262 1.235 . S
O258 Fe243 1.976 . S
O258 C252 1.287 . S
O259 Fe245 1.996 . S
O259 C252 1.255 . S
C260 O253 1.287 . S
C260 O254 1.255 . S
O261 Fe243 2.002 . S
O261 C257 1.295 . S
O262 Fe245 1.997 . S
O262 C257 1.235 . S
C263 O246 1.295 . S
C263 O247 1.235 . S
Fe264 O266 1.918 . S
Fe264 O269 1.997 . S
Fe264 O270 2.002 . S
Fe264 O275 1.976 . S
Fe264 O278 1.996 . S
Fe265 O266 1.918 . S
Fe265 O273 1.997 . S
Fe265 O276 1.996 . S
Fe265 O280 1.976 . S
Fe265 O283 2.002 . S
O266 Fe264 1.918 . S
O266 Fe265 1.918 . S
O266 Fe267 1.918 . S
Fe267 O266 1.918 . S
Fe267 O268 2.002 . S
Fe267 O277 1.976 . S
Fe267 O281 1.996 . S
Fe267 O284 1.997 . S
O268 Fe267 2.002 . S
O268 C285 1.295 . S
O269 Fe264 1.997 . S
O269 C285 1.235 . S
O270 Fe264 2.002 . S
O270 C271 1.295 . S
C271 O270 1.295 . S
C271 O273 1.235 . S
C272 O277 1.287 . S
C272 O278 1.255 . S
O273 Fe265 1.997 . S
O273 C271 1.235 . S
C274 O280 1.287 . S
C274 O281 1.255 . S
O275 Fe264 1.976 . S
O275 C282 1.287 . S
O276 Fe265 1.996 . S
O276 C282 1.255 . S
O277 Fe267 1.976 . S
O277 C272 1.287 . S
O278 Fe264 1.996 . S
O278 C272 1.255 . S
C279 O283 1.295 . S
C279 O284 1.235 . S
O280 Fe265 1.976 . S
O280 C274 1.287 . S
O281 Fe267 1.996 . S
O281 C274 1.255 . S
C282 O275 1.287 . S
C282 O276 1.255 . S
O283 Fe265 2.002 . S
O283 C279 1.295 . S
O284 Fe267 1.997 . S
O284 C279 1.235 . S
C285 O268 1.295 . S
C285 O269 1.235 . S
Fe286 O288 1.918 . S
Fe286 O291 1.997 . S
Fe286 O292 2.002 . S
Fe286 O297 1.976 . S
Fe286 O300 1.996 . S
Fe287 O288 1.918 . S
Fe287 O295 1.997 . S
Fe287 O298 1.996 . S
Fe287 O302 1.976 . S
Fe287 O305 2.002 . S
O288 Fe286 1.918 . S
O288 Fe287 1.918 . S
O288 Fe289 1.918 . S
Fe289 O288 1.918 . S
Fe289 O290 2.002 . S
Fe289 O299 1.976 . S
Fe289 O303 1.996 . S
Fe289 O306 1.997 . S
O290 Fe289 2.002 . S
O290 C307 1.295 . S
O291 Fe286 1.997 . S
O291 C307 1.235 . S
O292 Fe286 2.002 . S
O292 C293 1.295 . S
C293 O292 1.295 . S
C293 O295 1.235 . S
C294 O299 1.287 . S
C294 O300 1.255 . S
O295 Fe287 1.997 . S
O295 C293 1.235 . S
C296 O302 1.287 . S
C296 O303 1.255 . S
O297 Fe286 1.976 . S
O297 C304 1.287 . S
O298 Fe287 1.996 . S
O298 C304 1.255 . S
O299 Fe289 1.976 . S
O299 C294 1.287 . S
O300 Fe286 1.996 . S
O300 C294 1.255 . S
C301 O305 1.295 . S
C301 O306 1.235 . S
O302 Fe287 1.976 . S
O302 C296 1.287 . S
O303 Fe289 1.996 . S
O303 C296 1.255 . S
C304 O297 1.287 . S
C304 O298 1.255 . S
O305 Fe287 2.002 . S
O305 C301 1.295 . S
O306 Fe289 1.997 . S
O306 C301 1.235 . S
C307 O290 1.295 . S
C307 O291 1.235 . S
Fe308 O310 1.918 . S
Fe308 O313 1.997 . S
Fe308 O314 2.002 . S
Fe308 O319 1.976 . S
Fe308 O322 1.996 . S
Fe309 O310 1.918 . S
Fe309 O317 1.997 . S
Fe309 O320 1.996 . S
Fe309 O324 1.976 . S
Fe309 O327 2.002 . S
O310 Fe308 1.918 . S
O310 Fe309 1.918 . S
O310 Fe311 1.918 . S
Fe311 O310 1.918 . S
Fe311 O312 2.002 . S
Fe311 O321 1.976 . S
Fe311 O325 1.996 . S
Fe311 O328 1.997 . S
O312 Fe311 2.002 . S
O312 C329 1.295 . S
O313 Fe308 1.997 . S
O313 C329 1.235 . S
O314 Fe308 2.002 . S
O314 C315 1.295 . S
C315 O314 1.295 . S
C315 O317 1.235 . S
C316 O321 1.287 . S
C316 O322 1.255 . S
O317 Fe309 1.997 . S
O317 C315 1.235 . S
C318 O324 1.287 . S
C318 O325 1.255 . S
O319 Fe308 1.976 . S
O319 C326 1.287 . S
O320 Fe309 1.996 . S
O320 C326 1.255 . S
O321 Fe311 1.976 . S
O321 C316 1.287 . S
O322 Fe308 1.996 . S
O322 C316 1.255 . S
C323 O327 1.295 . S
C323 O328 1.235 . S
O324 Fe309 1.976 . S
O324 C318 1.287 . S
O325 Fe311 1.996 . S
O325 C318 1.255 . S
C326 O319 1.287 . S
C326 O320 1.255 . S
O327 Fe309 2.002 . S
O327 C323 1.295 . S
O328 Fe311 1.997 . S
O328 C323 1.235 . S
C329 O312 1.295 . S
C329 O313 1.235 . S
Fe330 O332 1.918 . S
Fe330 O335 1.997 . S
Fe330 O336 2.002 . S
Fe330 O341 1.976 . S
Fe330 O344 1.996 . S
Fe331 O332 1.918 . S
Fe331 O339 1.997 . S
Fe331 O342 1.996 . S
Fe331 O346 1.976 . S
Fe331 O349 2.002 . S
O332 Fe330 1.918 . S
O332 Fe331 1.918 . S
O332 Fe333 1.918 . S
Fe333 O332 1.918 . S
Fe333 O334 2.002 . S
Fe333 O343 1.976 . S
Fe333 O347 1.996 . S
Fe333 O350 1.997 . S
O334 Fe333 2.002 . S
O334 C351 1.295 . S
O335 Fe330 1.997 . S
O335 C351 1.235 . S
O336 Fe330 2.002 . S
O336 C337 1.295 . S
C337 O336 1.295 . S
C337 O339 1.235 . S
C338 O343 1.287 . S
C338 O344 1.255 . S
O339 Fe331 1.997 . S
O339 C337 1.235 . S
C340 O346 1.287 . S
C340 O347 1.255 . S
O341 Fe330 1.976 . S
O341 C348 1.287 . S
O342 Fe331 1.996 . S
O342 C348 1.255 . S
O343 Fe333 1.976 . S
O343 C338 1.287 . S
O344 Fe330 1.996 . S
O344 C338 1.255 . S
C345 O349 1.295 . S
C345 O350 1.235 . S
O346 Fe331 1.976 . S
O346 C340 1.287 . S
O347 Fe333 1.996 . S
O347 C340 1.255 . S
C348 O341 1.287 . S
C348 O342 1.255 . S
O349 Fe331 2.002 . S
O349 C345 1.295 . S
O350 Fe333 1.997 . S
O350 C345 1.235 . S
C351 O334 1.295 . S
C351 O335 1.235 . S
Fe352 O354 1.918 . S
Fe352 O357 1.997 . S
Fe352 O358 2.002 . S
Fe352 O363 1.976 . S
Fe352 O366 1.996 . S
Fe353 O354 1.918 . S
Fe353 O361 1.997 . S
Fe353 O364 1.996 . S
Fe353 O368 1.976 . S
Fe353 O371 2.002 . S
O354 Fe352 1.918 . S
O354 Fe353 1.918 . S
O354 Fe355 1.918 . S
Fe355 O354 1.918 . S
Fe355 O356 2.002 . S
Fe355 O365 1.976 . S
Fe355 O369 1.996 . S
Fe355 O372 1.997 . S
O356 Fe355 2.002 . S
O356 C373 1.295 . S
O357 Fe352 1.997 . S
O357 C373 1.235 . S
O358 Fe352 2.002 . S
O358 C359 1.295 . S
C359 O358 1.295 . S
C359 O361 1.235 . S
C360 O365 1.287 . S
C360 O366 1.255 . S
O361 Fe353 1.997 . S
O361 C359 1.235 . S
C362 O368 1.287 . S
C362 O369 1.255 . S
O363 Fe352 1.976 . S
O363 C370 1.287 . S
O364 Fe353 1.996 . S
O364 C370 1.255 . S
O365 Fe355 1.976 . S
O365 C360 1.287 . S
O366 Fe352 1.996 . S
O366 C360 1.255 . S
C367 O371 1.295 . S
C367 O372 1.235 . S
O368 Fe353 1.976 . S
O368 C362 1.287 . S
O369 Fe355 1.996 . S
O369 C362 1.255 . S
C370 O363 1.287 . S
C370 O364 1.255 . S
O371 Fe353 2.002 . S
O371 C367 1.295 . S
O372 Fe355 1.997 . S
O372 C367 1.235 . S
C373 O356 1.295 . S
C373 O357 1.235 . S
Fe374 O376 1.918 . S
Fe374 O379 1.997 . S
Fe374 O380 2.002 . S
Fe374 O385 1.976 . S
Fe374 O388 1.996 . S
Fe375 O376 1.918 . S
Fe375 O383 1.997 . S
Fe375 O386 1.996 . S
Fe375 O390 1.976 . S
Fe375 O393 2.002 . S
O376 Fe374 1.918 . S
O376 Fe375 1.918 . S
O376 Fe377 1.918 . S
Fe377 O376 1.918 . S
Fe377 O378 2.002 . S
Fe377 O387 1.976 . S
Fe377 O391 1.996 . S
Fe377 O394 1.997 . S
O378 Fe377 2.002 . S
O378 C395 1.295 . S
O379 Fe374 1.997 . S
O379 C395 1.235 . S
O380 Fe374 2.002 . S
O380 C381 1.295 . S
C381 O380 1.295 . S
C381 O383 1.235 . S
C382 O387 1.287 . S
C382 O388 1.255 . S
O383 Fe375 1.997 . S
O383 C381 1.235 . S
C384 O390 1.287 . S
C384 O391 1.255 . S
O385 Fe374 1.976 . S
O385 C392 1.287 . S
O386 Fe375 1.996 . S
O386 C392 1.255 . S
O387 Fe377 1.976 . S
O387 C382 1.287 . S
O388 Fe374 1.996 . S
O388 C382 1.255 . S
C389 O393 1.295 . S
C389 O394 1.235 . S
O390 Fe375 1.976 . S
O390 C384 1.287 . S
O391 Fe377 1.996 . S
O391 C384 1.255 . S
C392 O385 1.287 . S
C392 O386 1.255 . S
O393 Fe375 2.002 . S
O393 C389 1.295 . S
O394 Fe377 1.997 . S
O394 C389 1.235 . S
C395 O378 1.295 . S
C395 O379 1.235 . S
Fe396 O398 1.918 . S
Fe396 O401 1.997 . S
Fe396 O402 2.002 . S
Fe396 O407 1.976 . S
Fe396 O410 1.996 . S
Fe397 O398 1.918 . S
Fe397 O405 1.997 . S
Fe397 O408 1.996 . S
Fe397 O412 1.976 . S
Fe397 O415 2.002 . S
O398 Fe396 1.918 . S
O398 Fe397 1.918 . S
O398 Fe399 1.918 . S
Fe399 O398 1.918 . S
Fe399 O400 2.002 . S
Fe399 O409 1.976 . S
Fe399 O413 1.996 . S
Fe399 O416 1.997 . S
O400 Fe399 2.002 . S
O400 C417 1.295 . S
O401 Fe396 1.997 . S
O401 C417 1.235 . S
O402 Fe396 2.002 . S
O402 C403 1.295 . S
C403 O402 1.295 . S
C403 O405 1.235 . S
C404 O409 1.287 . S
C404 O410 1.255 . S
O405 Fe397 1.997 . S
O405 C403 1.235 . S
C406 O412 1.287 . S
C406 O413 1.255 . S
O407 Fe396 1.976 . S
O407 C414 1.287 . S
O408 Fe397 1.996 . S
O408 C414 1.255 . S
O409 Fe399 1.976 . S
O409 C404 1.287 . S
O410 Fe396 1.996 . S
O410 C404 1.255 . S
C411 O415 1.295 . S
C411 O416 1.235 . S
O412 Fe397 1.976 . S
O412 C406 1.287 . S
O413 Fe399 1.996 . S
O413 C406 1.255 . S
C414 O407 1.287 . S
C414 O408 1.255 . S
O415 Fe397 2.002 . S
O415 C411 1.295 . S
O416 Fe399 1.997 . S
O416 C411 1.235 . S
C417 O400 1.295 . S
C417 O401 1.235 . S
Fe418 O420 1.918 . S
Fe418 O423 1.997 . S
Fe418 O424 2.002 . S
Fe418 O429 1.976 . S
Fe418 O432 1.996 . S
Fe419 O420 1.918 . S
Fe419 O427 1.997 . S
Fe419 O430 1.996 . S
Fe419 O434 1.976 . S
Fe419 O437 2.002 . S
O420 Fe418 1.918 . S
O420 Fe419 1.918 . S
O420 Fe421 1.918 . S
Fe421 O420 1.918 . S
Fe421 O422 2.002 . S
Fe421 O431 1.976 . S
Fe421 O435 1.996 . S
Fe421 O438 1.997 . S
O422 Fe421 2.002 . S
O422 C439 1.295 . S
O423 Fe418 1.997 . S
O423 C439 1.235 . S
O424 Fe418 2.002 . S
O424 C425 1.295 . S
C425 O424 1.295 . S
C425 O427 1.235 . S
C426 O431 1.287 . S
C426 O432 1.255 . S
O427 Fe419 1.997 . S
O427 C425 1.235 . S
C428 O434 1.287 . S
C428 O435 1.255 . S
O429 Fe418 1.976 . S
O429 C436 1.287 . S
O430 Fe419 1.996 . S
O430 C436 1.255 . S
O431 Fe421 1.976 . S
O431 C426 1.287 . S
O432 Fe418 1.996 . S
O432 C426 1.255 . S
C433 O437 1.295 . S
C433 O438 1.235 . S
O434 Fe419 1.976 . S
O434 C428 1.287 . S
O435 Fe421 1.996 . S
O435 C428 1.255 . S
C436 O429 1.287 . S
C436 O430 1.255 . S
O437 Fe419 2.002 . S
O437 C433 1.295 . S
O438 Fe421 1.997 . S
O438 C433 1.235 . S
C439 O422 1.295 . S
C439 O423 1.235 . S
Fe440 O442 1.918 . S
Fe440 O445 1.997 . S
Fe440 O446 2.002 . S
Fe440 O451 1.976 . S
Fe440 O454 1.996 . S
Fe441 O442 1.918 . S
Fe441 O449 1.997 . S
Fe441 O452 1.996 . S
Fe441 O456 1.976 . S
Fe441 O459 2.002 . S
O442 Fe440 1.918 . S
O442 Fe441 1.918 . S
O442 Fe443 1.918 . S
Fe443 O442 1.918 . S
Fe443 O444 2.002 . S
Fe443 O453 1.976 . S
Fe443 O457 1.996 . S
Fe443 O460 1.997 . S
O444 Fe443 2.002 . S
O444 C461 1.295 . S
O445 Fe440 1.997 . S
O445 C461 1.235 . S
O446 Fe440 2.002 . S
O446 C447 1.295 . S
C447 O446 1.295 . S
C447 O449 1.235 . S
C448 O453 1.287 . S
C448 O454 1.255 . S
O449 Fe441 1.997 . S
O449 C447 1.235 . S
C450 O456 1.287 . S
C450 O457 1.255 . S
O451 Fe440 1.976 . S
O451 C458 1.287 . S
O452 Fe441 1.996 . S
O452 C458 1.255 . S
O453 Fe443 1.976 . S
O453 C448 1.287 . S
O454 Fe440 1.996 . S
O454 C448 1.255 . S
C455 O459 1.295 . S
C455 O460 1.235 . S
O456 Fe441 1.976 . S
O456 C450 1.287 . S
O457 Fe443 1.996 . S
O457 C450 1.255 . S
C458 O451 1.287 . S
C458 O452 1.255 . S
O459 Fe441 2.002 . S
O459 C455 1.295 . S
O460 Fe443 1.997 . S
O460 C455 1.235 . S
C461 O444 1.295 . S
C461 O445 1.235 . S
Fe462 O464 1.918 . S
Fe462 O467 1.997 . S
Fe462 O468 2.002 . S
Fe462 O473 1.976 . S
Fe462 O476 1.996 . S
Fe463 O464 1.918 . S
Fe463 O471 1.997 . S
Fe463 O474 1.996 . S
Fe463 O478 1.976 . S
Fe463 O481 2.002 . S
O464 Fe462 1.918 . S
O464 Fe463 1.918 . S
O464 Fe465 1.918 . S
Fe465 O464 1.918 . S
Fe465 O466 2.002 . S
Fe465 O475 1.976 . S
Fe465 O479 1.996 . S
Fe465 O482 1.997 . S
O466 Fe465 2.002 . S
O466 C483 1.295 . S
O467 Fe462 1.997 . S
O467 C483 1.235 . S
O468 Fe462 2.002 . S
O468 C469 1.295 . S
C469 O468 1.295 . S
C469 O471 1.235 . S
C470 O475 1.287 . S
C470 O476 1.255 . S
O471 Fe463 1.997 . S
O471 C469 1.235 . S
C472 O478 1.287 . S
C472 O479 1.255 . S
O473 Fe462 1.976 . S
O473 C480 1.287 . S
O474 Fe463 1.996 . S
O474 C480 1.255 . S
O475 Fe465 1.976 . S
O475 C470 1.287 . S
O476 Fe462 1.996 . S
O476 C470 1.255 . S
C477 O481 1.295 . S
C477 O482 1.235 . S
O478 Fe463 1.976 . S
O478 C472 1.287 . S
O479 Fe465 1.996 . S
O479 C472 1.255 . S
C480 O473 1.287 . S
C480 O474 1.255 . S
O481 Fe463 2.002 . S
O481 C477 1.295 . S
O482 Fe465 1.997 . S
O482 C477 1.235 . S
C483 O466 1.295 . S
C483 O467 1.235 . S
Fe484 O486 1.918 . S
Fe484 O489 1.997 . S
Fe484 O490 2.002 . S
Fe484 O495 1.976 . S
Fe484 O498 1.996 . S
Fe485 O486 1.918 . S
Fe485 O493 1.997 . S
Fe485 O496 1.996 . S
Fe485 O500 1.976 . S
Fe485 O503 2.002 . S
O486 Fe484 1.918 . S
O486 Fe485 1.918 . S
O486 Fe487 1.918 . S
Fe487 O486 1.918 . S
Fe487 O488 2.002 . S
Fe487 O497 1.976 . S
Fe487 O501 1.996 . S
Fe487 O504 1.997 . S
O488 Fe487 2.002 . S
O488 C505 1.295 . S
O489 Fe484 1.997 . S
O489 C505 1.235 . S
O490 Fe484 2.002 . S
O490 C491 1.295 . S
C491 O490 1.295 . S
C491 O493 1.235 . S
C492 O497 1.287 . S
C492 O498 1.255 . S
O493 Fe485 1.997 . S
O493 C491 1.235 . S
C494 O500 1.287 . S
C494 O501 1.255 . S
O495 Fe484 1.976 . S
O495 C502 1.287 . S
O496 Fe485 1.996 . S
O496 C502 1.255 . S
O497 Fe487 1.976 . S
O497 C492 1.287 . S
O498 Fe484 1.996 . S
O498 C492 1.255 . S
C499 O503 1.295 . S
C499 O504 1.235 . S
O500 Fe485 1.976 . S
O500 C494 1.287 . S
O501 Fe487 1.996 . S
O501 C494 1.255 . S
C502 O495 1.287 . S
C502 O496 1.255 . S
O503 Fe485 2.002 . S
O503 C499 1.295 . S
O504 Fe487 1.997 . S
O504 C499 1.235 . S
C505 O488 1.295 . S
C505 O489 1.235 . S
Fe506 O508 1.918 . S
Fe506 O511 1.997 . S
Fe506 O512 2.002 . S
Fe506 O517 1.976 . S
Fe506 O520 1.996 . S
Fe507 O508 1.918 . S
Fe507 O515 1.997 . S
Fe507 O518 1.996 . S
Fe507 O522 1.976 . S
Fe507 O525 2.002 . S
O508 Fe506 1.918 . S
O508 Fe507 1.918 . S
O508 Fe509 1.918 . S
Fe509 O508 1.918 . S
Fe509 O510 2.002 . S
Fe509 O519 1.976 . S
Fe509 O523 1.996 . S
Fe509 O526 1.997 . S
O510 Fe509 2.002 . S
O510 C527 1.295 . S
O511 Fe506 1.997 . S
O511 C527 1.235 . S
O512 Fe506 2.002 . S
O512 C513 1.295 . S
C513 O512 1.295 . S
C513 O515 1.235 . S
C514 O519 1.287 . S
C514 O520 1.255 . S
O515 Fe507 1.997 . S
O515 C513 1.235 . S
C516 O522 1.287 . S
C516 O523 1.255 . S
O517 Fe506 1.976 . S
O517 C524 1.287 . S
O518 Fe507 1.996 . S
O518 C524 1.255 . S
O519 Fe509 1.976 . S
O519 C514 1.287 . S
O520 Fe506 1.996 . S
O520 C514 1.255 . S
C521 O525 1.295 . S
C521 O526 1.235 . S
O522 Fe507 1.976 . S
O522 C516 1.287 . S
O523 Fe509 1.996 . S
O523 C516 1.255 . S
C524 O517 1.287 . S
C524 O518 1.255 . S
O525 Fe507 2.002 . S
O525 C521 1.295 . S
O526 Fe509 1.997 . S
O526 C521 1.235 . S
C527 O510 1.295 . S
C527 O511 1.235 . S
C528 C529 1.363 . S
C528 C534 1.379 . S
C528 N536 1.356 . S
C529 C528 1.363 . S
C529 C535 1.363 . S
C530 C531 1.363 . S
C530 C535 1.379 . S
C530 N537 1.356 . S
C531 C530 1.363 . S
C531 C534 1.363 . S
N532 C534 1.356 . S
N532 H544 0.984 . S
N532 H545 0.985 . S
N533 C535 1.356 . S
N533 H538 0.984 . S
N533 H539 0.985 . S
C534 C528 1.379 . S
C534 C531 1.363 . S
C534 N532 1.356 . S
C535 C529 1.363 . S
C535 C530 1.379 . S
C535 N533 1.356 . S
N536 C528 1.356 . S
N536 H542 0.984 . S
N536 H543 0.984 . S
N537 C530 1.356 . S
N537 H540 0.984 . S
N537 H541 0.985 . S
H538 N533 0.984 . S
H539 N533 0.985 . S
H540 N537 0.984 . S
H541 N537 0.985 . S
H542 N536 0.984 . S
H543 N536 0.984 . S
H544 N532 0.984 . S
H545 N532 0.985 . S
C546 C547 1.363 . S
C546 C552 1.379 . S
C546 N554 1.356 . S
C547 C546 1.363 . S
C547 C553 1.363 . S
C548 C549 1.363 . S
C548 C553 1.379 . S
C548 N555 1.356 . S
C549 C548 1.363 . S
C549 C552 1.363 . S
N550 C552 1.356 . S
N550 H562 0.984 . S
N550 H563 0.985 . S
N551 C553 1.356 . S
N551 H556 0.984 . S
N551 H557 0.985 . S
C552 C546 1.379 . S
C552 C549 1.363 . S
C552 N550 1.356 . S
C553 C547 1.363 . S
C553 C548 1.379 . S
C553 N551 1.356 . S
N554 C546 1.356 . S
N554 H560 0.984 . S
N554 H561 0.984 . S
N555 C548 1.356 . S
N555 H558 0.984 . S
N555 H559 0.985 . S
H556 N551 0.984 . S
H557 N551 0.985 . S
H558 N555 0.984 . S
H559 N555 0.985 . S
H560 N554 0.984 . S
H561 N554 0.984 . S
H562 N550 0.984 . S
H563 N550 0.985 . S
C564 C565 1.363 . S
C564 C570 1.379 . S
C564 N572 1.356 . S
C565 C564 1.363 . S
C565 C571 1.363 . S
C566 C567 1.363 . S
C566 C571 1.379 . S
C566 N573 1.356 1_565 S
C567 C566 1.363 . S
C567 C570 1.363 . S
N568 C570 1.356 . S
N568 H580 0.984 . S
N568 H581 0.985 . S
N569 C571 1.356 . S
N569 H574 0.984 . S
N569 H575 0.985 . S
C570 C564 1.379 . S
C570 C567 1.363 . S
C570 N568 1.356 . S
C571 C565 1.363 . S
C571 C566 1.379 . S
C571 N569 1.356 . S
N572 C564 1.356 . S
N572 H578 0.984 . S
N572 H579 0.984 . S
N573 C566 1.356 1_545 S
N573 H576 0.984 . S
N573 H577 0.985 . S
H574 N569 0.984 . S
H575 N569 0.985 . S
H576 N573 0.984 . S
H577 N573 0.985 . S
H578 N572 0.984 . S
H579 N572 0.984 . S
H580 N568 0.984 . S
H581 N568 0.985 . S
C582 C583 1.363 . S
C582 C588 1.379 . S
C582 N590 1.356 . S
C583 C582 1.363 . S
C583 C589 1.363 . S
C584 C585 1.363 . S
C584 C589 1.379 . S
C584 N591 1.356 . S
C585 C584 1.363 . S
C585 C588 1.363 . S
N586 C588 1.356 . S
N586 H598 0.984 . S
N586 H599 0.985 . S
N587 C589 1.356 1_565 S
N587 H592 0.984 . S
N587 H593 0.985 . S
C588 C582 1.379 . S
C588 C585 1.363 . S
C588 N586 1.356 . S
C589 C583 1.363 . S
C589 C584 1.379 . S
C589 N587 1.356 1_545 S
N590 C582 1.356 . S
N590 H596 0.984 . S
N590 H597 0.984 . S
N591 C584 1.356 . S
N591 H594 0.984 . S
N591 H595 0.985 . S
H592 N587 0.984 . S
H593 N587 0.985 . S
H594 N591 0.984 . S
H595 N591 0.985 . S
H596 N590 0.984 . S
H597 N590 0.984 . S
H598 N586 0.984 . S
H599 N586 0.985 . S
C600 C601 1.363 . S
C600 C606 1.379 . S
C600 N608 1.356 . S
C601 C600 1.363 . S
C601 C607 1.363 . S
C602 C603 1.363 . S
C602 C607 1.379 . S
C602 N609 1.356 . S
C603 C602 1.363 . S
C603 C606 1.363 . S
N604 C606 1.356 . S
N604 H616 0.984 . S
N604 H617 0.985 . S
N605 C607 1.356 . S
N605 H610 0.984 . S
N605 H611 0.985 . S
C606 C600 1.379 . S
C606 C603 1.363 . S
C606 N604 1.356 . S
C607 C601 1.363 . S
C607 C602 1.379 . S
C607 N605 1.356 . S
N608 C600 1.356 . S
N608 H614 0.984 . S
N608 H615 0.984 . S
N609 C602 1.356 . S
N609 H612 0.984 . S
N609 H613 0.985 . S
H610 N605 0.984 . S
H611 N605 0.985 . S
H612 N609 0.984 . S
H613 N609 0.985 . S
H614 N608 0.984 . S
H615 N608 0.984 . S
H616 N604 0.984 . S
H617 N604 0.985 . S
C618 C619 1.363 . S
C618 C624 1.379 . S
C618 N626 1.356 . S
C619 C618 1.363 . S
C619 C625 1.363 . S
C620 C621 1.363 . S
C620 C625 1.379 . S
C620 N627 1.356 . S
C621 C620 1.363 . S
C621 C624 1.363 . S
N622 C624 1.356 1_556 S
N622 H634 0.984 . S
N622 H635 0.985 . S
N623 C625 1.356 . S
N623 H628 0.984 . S
N623 H629 0.985 . S
C624 C618 1.379 . S
C624 C621 1.363 . S
C624 N622 1.356 1_554 S
C625 C619 1.363 . S
C625 C620 1.379 . S
C625 N623 1.356 . S
N626 C618 1.356 . S
N626 H632 0.984 . S
N626 H633 0.984 . S
N627 C620 1.356 . S
N627 H630 0.984 1_554 S
N627 H631 0.985 . S
H628 N623 0.984 . S
H629 N623 0.985 . S
H630 N627 0.984 1_556 S
H631 N627 0.985 . S
H632 N626 0.984 . S
H633 N626 0.984 . S
H634 N622 0.984 . S
H635 N622 0.985 . S
C636 C637 1.363 . S
C636 C642 1.379 . S
C636 N644 1.356 . S
C637 C636 1.363 . S
C637 C643 1.363 . S
C638 C639 1.363 . S
C638 C643 1.379 . S
C638 N645 1.356 . S
C639 C638 1.363 . S
C639 C642 1.363 . S
N640 C642 1.356 . S
N640 H652 0.984 . S
N640 H653 0.985 . S
N641 C643 1.356 . S
N641 H646 0.984 . S
N641 H647 0.985 . S
C642 C636 1.379 . S
C642 C639 1.363 . S
C642 N640 1.356 . S
C643 C637 1.363 . S
C643 C638 1.379 . S
C643 N641 1.356 . S
N644 C636 1.356 . S
N644 H650 0.984 . S
N644 H651 0.984 . S
N645 C638 1.356 . S
N645 H648 0.984 . S
N645 H649 0.985 . S
H646 N641 0.984 . S
H647 N641 0.985 . S
H648 N645 0.984 . S
H649 N645 0.985 . S
H650 N644 0.984 . S
H651 N644 0.984 . S
H652 N640 0.984 . S
H653 N640 0.985 . S
C654 C655 1.363 . S
C654 C660 1.379 . S
C654 N662 1.356 . S
C655 C654 1.363 . S
C655 C661 1.363 . S
C656 C657 1.363 . S
C656 C661 1.379 . S
C656 N663 1.356 . S
C657 C656 1.363 . S
C657 C660 1.363 . S
N658 C660 1.356 1_554 S
N658 H670 0.984 . S
N658 H671 0.985 . S
N659 C661 1.356 . S
N659 H664 0.984 . S
N659 H665 0.985 . S
C660 C654 1.379 . S
C660 C657 1.363 . S
C660 N658 1.356 1_556 S
C661 C655 1.363 . S
C661 C656 1.379 . S
C661 N659 1.356 . S
N662 C654 1.356 . S
N662 H668 0.984 . S
N662 H669 0.984 . S
N663 C656 1.356 . S
N663 H666 0.984 1_556 S
N663 H667 0.985 . S
H664 N659 0.984 . S
H665 N659 0.985 . S
H666 N663 0.984 1_554 S
H667 N663 0.985 . S
H668 N662 0.984 . S
H669 N662 0.984 . S
H670 N658 0.984 . S
H671 N658 0.985 . S
C672 C673 1.363 . S
C672 C678 1.379 . S
C672 N680 1.356 . S
C673 C672 1.363 . S
C673 C679 1.363 . S
C674 C675 1.363 . S
C674 C679 1.379 . S
C674 N681 1.356 . S
C675 C674 1.363 . S
C675 C678 1.363 . S
N676 C678 1.356 . S
N676 H688 0.984 . S
N676 H689 0.985 . S
N677 C679 1.356 . S
N677 H682 0.984 . S
N677 H683 0.985 . S
C678 C672 1.379 . S
C678 C675 1.363 . S
C678 N676 1.356 . S
C679 C673 1.363 . S
C679 C674 1.379 . S
C679 N677 1.356 . S
N680 C672 1.356 . S
N680 H686 0.984 . S
N680 H687 0.984 . S
N681 C674 1.356 . S
N681 H684 0.984 . S
N681 H685 0.985 . S
H682 N677 0.984 . S
H683 N677 0.985 . S
H684 N681 0.984 . S
H685 N681 0.985 . S
H686 N680 0.984 . S
H687 N680 0.984 . S
H688 N676 0.984 . S
H689 N676 0.985 . S
C690 C691 1.363 . S
C690 C696 1.379 . S
C690 N698 1.356 . S
C691 C690 1.363 . S
C691 C697 1.363 . S
C692 C693 1.363 . S
C692 C697 1.379 . S
C692 N699 1.356 . S
C693 C692 1.363 . S
C693 C696 1.363 . S
N694 C696 1.356 . S
N694 H706 0.984 . S
N694 H707 0.985 . S
N695 C697 1.356 1_655 S
N695 H700 0.984 . S
N695 H701 0.985 . S
C696 C690 1.379 . S
C696 C693 1.363 . S
C696 N694 1.356 . S
C697 C691 1.363 . S
C697 C692 1.379 . S
C697 N695 1.356 1_455 S
N698 C690 1.356 . S
N698 H704 0.984 . S
N698 H705 0.984 . S
N699 C692 1.356 . S
N699 H702 0.984 . S
N699 H703 0.985 . S
H700 N695 0.984 . S
H701 N695 0.985 . S
H702 N699 0.984 . S
H703 N699 0.985 . S
H704 N698 0.984 . S
H705 N698 0.984 . S
H706 N694 0.984 . S
H707 N694 0.985 . S
C708 C709 1.363 . S
C708 C714 1.379 . S
C708 N716 1.356 . S
C709 C708 1.363 . S
C709 C715 1.363 . S
C710 C711 1.363 . S
C710 C715 1.379 . S
C710 N717 1.356 . S
C711 C710 1.363 . S
C711 C714 1.363 . S
N712 C714 1.356 . S
N712 H724 0.984 . S
N712 H725 0.985 . S
N713 C715 1.356 . S
N713 H718 0.984 . S
N713 H719 0.985 . S
C714 C708 1.379 . S
C714 C711 1.363 . S
C714 N712 1.356 . S
C715 C709 1.363 . S
C715 C710 1.379 . S
C715 N713 1.356 . S
N716 C708 1.356 . S
N716 H722 0.984 . S
N716 H723 0.984 . S
N717 C710 1.356 . S
N717 H720 0.984 . S
N717 H721 0.985 . S
H718 N713 0.984 . S
H719 N713 0.985 . S
H720 N717 0.984 . S
H721 N717 0.985 . S
H722 N716 0.984 . S
H723 N716 0.984 . S
H724 N712 0.984 . S
H725 N712 0.985 . S
C726 C727 1.363 . S
C726 C732 1.379 1_655 S
C726 N734 1.356 . S
C727 C726 1.363 . S
C727 C733 1.363 . S
C728 C729 1.363 . S
C728 C733 1.379 . S
C728 N735 1.356 . S
C729 C728 1.363 . S
C729 C732 1.363 1_655 S
N730 C732 1.356 . S
N730 H742 0.984 . S
N730 H743 0.985 . S
N731 C733 1.356 . S
N731 H736 0.984 . S
N731 H737 0.985 . S
C732 C726 1.379 1_455 S
C732 C729 1.363 1_455 S
C732 N730 1.356 . S
C733 C727 1.363 . S
C733 C728 1.379 . S
C733 N731 1.356 . S
N734 C726 1.356 . S
N734 H740 0.984 1_655 S
N734 H741 0.984 . S
N735 C728 1.356 . S
N735 H738 0.984 . S
N735 H739 0.985 . S
H736 N731 0.984 . S
H737 N731 0.985 . S
H738 N735 0.984 . S
H739 N735 0.985 . S
H740 N734 0.984 1_455 S
H741 N734 0.984 . S
H742 N730 0.984 . S
H743 N730 0.985 . S
C744 C745 1.363 . S
C744 C750 1.379 . S
C744 N752 1.356 . S
C745 C744 1.363 . S
C745 C751 1.363 . S
C746 C747 1.363 . S
C746 C751 1.379 . S
C746 N753 1.356 . S
C747 C746 1.363 . S
C747 C750 1.363 . S
N748 C750 1.356 . S
N748 H760 0.984 . S
N748 H761 0.985 . S
N749 C751 1.356 . S
N749 H754 0.984 . S
N749 H755 0.985 . S
C750 C744 1.379 . S
C750 C747 1.363 . S
C750 N748 1.356 . S
C751 C745 1.363 . S
C751 C746 1.379 . S
C751 N749 1.356 . S
N752 C744 1.356 . S
N752 H758 0.984 . S
N752 H759 0.984 . S
N753 C746 1.356 . S
N753 H756 0.984 . S
N753 H757 0.985 . S
H754 N749 0.984 . S
H755 N749 0.985 . S
H756 N753 0.984 . S
H757 N753 0.985 . S
H758 N752 0.984 . S
H759 N752 0.984 . S
H760 N748 0.984 . S
H761 N748 0.985 . S
C762 C763 1.363 . S
C762 C768 1.379 . S
C762 N770 1.356 . S
C763 C762 1.363 . S
C763 C769 1.363 . S
C764 C765 1.363 . S
C764 C769 1.379 . S
C764 N771 1.356 . S
C765 C764 1.363 . S
C765 C768 1.363 . S
N766 C768 1.356 . S
N766 H778 0.984 . S
N766 H779 0.985 . S
N767 C769 1.356 . S
N767 H772 0.984 . S
N767 H773 0.985 . S
C768 C762 1.379 . S
C768 C765 1.363 . S
C768 N766 1.356 . S
C769 C763 1.363 . S
C769 C764 1.379 . S
C769 N767 1.356 . S
N770 C762 1.356 . S
N770 H776 0.984 . S
N770 H777 0.984 . S
N771 C764 1.356 . S
N771 H774 0.984 . S
N771 H775 0.985 . S
H772 N767 0.984 . S
H773 N767 0.985 . S
H774 N771 0.984 . S
H775 N771 0.985 . S
H776 N770 0.984 . S
H777 N770 0.984 . S
H778 N766 0.984 . S
H779 N766 0.985 . S
C780 C781 1.363 . S
C780 C786 1.379 . S
C780 N788 1.356 . S
C781 C780 1.363 . S
C781 C787 1.363 . S
C782 C783 1.363 . S
C782 C787 1.379 . S
C782 N789 1.356 1_545 S
C783 C782 1.363 . S
C783 C786 1.363 . S
N784 C786 1.356 . S
N784 H796 0.984 . S
N784 H797 0.985 . S
N785 C787 1.356 . S
N785 H790 0.984 . S
N785 H791 0.985 . S
C786 C780 1.379 . S
C786 C783 1.363 . S
C786 N784 1.356 . S
C787 C781 1.363 . S
C787 C782 1.379 . S
C787 N785 1.356 . S
N788 C780 1.356 . S
N788 H794 0.984 . S
N788 H795 0.984 . S
N789 C782 1.356 1_565 S
N789 H792 0.984 . S
N789 H793 0.985 . S
H790 N785 0.984 . S
H791 N785 0.985 . S
H792 N789 0.984 . S
H793 N789 0.985 . S
H794 N788 0.984 . S
H795 N788 0.984 . S
H796 N784 0.984 . S
H797 N784 0.985 . S
C798 C799 1.363 . S
C798 C804 1.379 . S
C798 N806 1.356 . S
C799 C798 1.363 . S
C799 C805 1.363 . S
C800 C801 1.363 . S
C800 C805 1.379 . S
C800 N807 1.356 . S
C801 C800 1.363 . S
C801 C804 1.363 . S
N802 C804 1.356 1_545 S
N802 H814 0.984 . S
N802 H815 0.985 . S
N803 C805 1.356 . S
N803 H808 0.984 . S
N803 H809 0.985 . S
C804 C798 1.379 . S
C804 C801 1.363 . S
C804 N802 1.356 1_565 S
C805 C799 1.363 . S
C805 C800 1.379 . S
C805 N803 1.356 . S
N806 C798 1.356 . S
N806 H812 0.984 . S
N806 H813 0.984 . S
N807 C800 1.356 . S
N807 H810 0.984 1_565 S
N807 H811 0.985 . S
H808 N803 0.984 . S
H809 N803 0.985 . S
H810 N807 0.984 1_545 S
H811 N807 0.985 . S
H812 N806 0.984 . S
H813 N806 0.984 . S
H814 N802 0.984 . S
H815 N802 0.985 . S
C816 C817 1.363 . S
C816 C822 1.379 . S
C816 N824 1.356 . S
C817 C816 1.363 . S
C817 C823 1.363 . S
C818 C819 1.363 . S
C818 C823 1.379 . S
C818 N825 1.356 . S
C819 C818 1.363 . S
C819 C822 1.363 . S
N820 C822 1.356 . S
N820 H832 0.984 . S
N820 H833 0.985 . S
N821 C823 1.356 . S
N821 H826 0.984 . S
N821 H827 0.985 . S
C822 C816 1.379 . S
C822 C819 1.363 . S
C822 N820 1.356 . S
C823 C817 1.363 . S
C823 C818 1.379 . S
C823 N821 1.356 . S
N824 C816 1.356 . S
N824 H830 0.984 . S
N824 H831 0.984 . S
N825 C818 1.356 . S
N825 H828 0.984 . S
N825 H829 0.985 . S
H826 N821 0.984 . S
H827 N821 0.985 . S
H828 N825 0.984 . S
H829 N825 0.985 . S
H830 N824 0.984 . S
H831 N824 0.984 . S
H832 N820 0.984 . S
H833 N820 0.985 . S
C834 C835 1.363 . S
C834 C840 1.379 . S
C834 N842 1.356 . S
C835 C834 1.363 . S
C835 C841 1.363 . S
C836 C837 1.363 . S
C836 C841 1.379 . S
C836 N843 1.356 . S
C837 C836 1.363 . S
C837 C840 1.363 . S
N838 C840 1.356 1_554 S
N838 H850 0.984 . S
N838 H851 0.985 . S
N839 C841 1.356 . S
N839 H844 0.984 . S
N839 H845 0.985 . S
C840 C834 1.379 . S
C840 C837 1.363 . S
C840 N838 1.356 1_556 S
C841 C835 1.363 . S
C841 C836 1.379 . S
C841 N839 1.356 . S
N842 C834 1.356 . S
N842 H848 0.984 . S
N842 H849 0.984 . S
N843 C836 1.356 . S
N843 H846 0.984 1_556 S
N843 H847 0.985 . S
H844 N839 0.984 . S
H845 N839 0.985 . S
H846 N843 0.984 1_554 S
H847 N843 0.985 . S
H848 N842 0.984 . S
H849 N842 0.984 . S
H850 N838 0.984 . S
H851 N838 0.985 . S
C852 C853 1.363 . S
C852 C858 1.379 . S
C852 N860 1.356 . S
C853 C852 1.363 . S
C853 C859 1.363 . S
C854 C855 1.363 . S
C854 C859 1.379 . S
C854 N861 1.356 . S
C855 C854 1.363 . S
C855 C858 1.363 . S
N856 C858 1.356 . S
N856 H868 0.984 . S
N856 H869 0.985 . S
N857 C859 1.356 . S
N857 H862 0.984 . S
N857 H863 0.985 . S
C858 C852 1.379 . S
C858 C855 1.363 . S
C858 N856 1.356 . S
C859 C853 1.363 . S
C859 C854 1.379 . S
C859 N857 1.356 . S
N860 C852 1.356 . S
N860 H866 0.984 . S
N860 H867 0.984 . S
N861 C854 1.356 . S
N861 H864 0.984 . S
N861 H865 0.985 . S
H862 N857 0.984 . S
H863 N857 0.985 . S
H864 N861 0.984 . S
H865 N861 0.985 . S
H866 N860 0.984 . S
H867 N860 0.984 . S
H868 N856 0.984 . S
H869 N856 0.985 . S
C870 C871 1.363 . S
C870 C876 1.379 . S
C870 N878 1.356 . S
C871 C870 1.363 . S
C871 C877 1.363 . S
C872 C873 1.363 . S
C872 C877 1.379 . S
C872 N879 1.356 . S
C873 C872 1.363 . S
C873 C876 1.363 . S
N874 C876 1.356 . S
N874 H886 0.984 . S
N874 H887 0.985 . S
N875 C877 1.356 1_556 S
N875 H880 0.984 . S
N875 H881 0.985 . S
C876 C870 1.379 . S
C876 C873 1.363 . S
C876 N874 1.356 . S
C877 C871 1.363 . S
C877 C872 1.379 . S
C877 N875 1.356 1_554 S
N878 C870 1.356 . S
N878 H884 0.984 . S
N878 H885 0.984 1_554 S
N879 C872 1.356 . S
N879 H882 0.984 . S
N879 H883 0.985 . S
H880 N875 0.984 . S
H881 N875 0.985 . S
H882 N879 0.984 . S
H883 N879 0.985 . S
H884 N878 0.984 . S
H885 N878 0.984 1_556 S
H886 N874 0.984 . S
H887 N874 0.985 . S
C888 C889 1.363 . S
C888 C894 1.379 . S
C888 N896 1.356 . S
C889 C888 1.363 . S
C889 C895 1.363 . S
C890 C891 1.363 . S
C890 C895 1.379 . S
C890 N897 1.356 . S
C891 C890 1.363 . S
C891 C894 1.363 . S
N892 C894 1.356 . S
N892 H904 0.984 . S
N892 H905 0.985 . S
N893 C895 1.356 . S
N893 H898 0.984 . S
N893 H899 0.985 . S
C894 C888 1.379 . S
C894 C891 1.363 . S
C894 N892 1.356 . S
C895 C889 1.363 . S
C895 C890 1.379 . S
C895 N893 1.356 . S
N896 C888 1.356 . S
N896 H902 0.984 . S
N896 H903 0.984 . S
N897 C890 1.356 . S
N897 H900 0.984 . S
N897 H901 0.985 . S
H898 N893 0.984 . S
H899 N893 0.985 . S
H900 N897 0.984 . S
H901 N897 0.985 . S
H902 N896 0.984 . S
H903 N896 0.984 . S
H904 N892 0.984 . S
H905 N892 0.985 . S
C906 C907 1.363 . S
C906 C912 1.379 . S
C906 N914 1.356 1_655 S
C907 C906 1.363 . S
C907 C913 1.363 . S
C908 C909 1.363 . S
C908 C913 1.379 . S
C908 N915 1.356 . S
C909 C908 1.363 . S
C909 C912 1.363 . S
N910 C912 1.356 . S
N910 H922 0.984 . S
N910 H923 0.985 . S
N911 C913 1.356 . S
N911 H916 0.984 1_655 S
N911 H917 0.985 . S
C912 C906 1.379 . S
C912 C909 1.363 . S
C912 N910 1.356 . S
C913 C907 1.363 . S
C913 C908 1.379 . S
C913 N911 1.356 . S
N914 C906 1.356 1_455 S
N914 H920 0.984 . S
N914 H921 0.984 . S
N915 C908 1.356 . S
N915 H918 0.984 . S
N915 H919 0.985 . S
H916 N911 0.984 1_455 S
H917 N911 0.985 . S
H918 N915 0.984 . S
H919 N915 0.985 . S
H920 N914 0.984 . S
H921 N914 0.984 . S
H922 N910 0.984 . S
H923 N910 0.985 . S
C924 C925 1.363 . S
C924 C930 1.379 . S
C924 N932 1.356 . S
C925 C924 1.363 . S
C925 C931 1.363 . S
C926 C927 1.363 . S
C926 C931 1.379 . S
C926 N933 1.356 . S
C927 C926 1.363 . S
C927 C930 1.363 . S
N928 C930 1.356 . S
N928 H940 0.984 . S
N928 H941 0.985 . S
N929 C931 1.356 . S
N929 H934 0.984 . S
N929 H935 0.985 . S
C930 C924 1.379 . S
C930 C927 1.363 . S
C930 N928 1.356 . S
C931 C925 1.363 . S
C931 C926 1.379 . S
C931 N929 1.356 . S
N932 C924 1.356 . S
N932 H938 0.984 . S
N932 H939 0.984 . S
N933 C926 1.356 . S
N933 H936 0.984 . S
N933 H937 0.985 . S
H934 N929 0.984 . S
H935 N929 0.985 . S
H936 N933 0.984 . S
H937 N933 0.985 . S
H938 N932 0.984 . S
H939 N932 0.984 . S
H940 N928 0.984 . S
H941 N928 0.985 . S
C942 C943 1.363 . S
C942 C948 1.379 . S
C942 N950 1.356 . S
C943 C942 1.363 . S
C943 C949 1.363 . S
C944 C945 1.363 . S
C944 C949 1.379 . S
C944 N951 1.356 . S
C945 C944 1.363 . S
C945 C948 1.363 . S
N946 C948 1.356 1_655 S
N946 H958 0.984 . S
N946 H959 0.985 . S
N947 C949 1.356 . S
N947 H952 0.984 . S
N947 H953 0.985 . S
C948 C942 1.379 . S
C948 C945 1.363 . S
C948 N946 1.356 1_455 S
C949 C943 1.363 . S
C949 C944 1.379 . S
C949 N947 1.356 . S
N950 C942 1.356 . S
N950 H956 0.984 . S
N950 H957 0.984 . S
N951 C944 1.356 . S
N951 H954 0.984 . S
N951 H955 0.985 . S
H952 N947 0.984 . S
H953 N947 0.985 . S
H954 N951 0.984 . S
H955 N951 0.985 . S
H956 N950 0.984 . S
H957 N950 0.984 . S
H958 N946 0.984 . S
H959 N946 0.985 . S
C960 C961 1.363 . S
C960 C966 1.379 . S
C960 N968 1.356 . S
C961 C960 1.363 . S
C961 C967 1.363 . S
C962 C963 1.363 . S
C962 C967 1.379 . S
C962 N969 1.356 . S
C963 C962 1.363 . S
C963 C966 1.363 . S
N964 C966 1.356 . S
N964 H976 0.984 . S
N964 H977 0.985 . S
N965 C967 1.356 . S
N965 H970 0.984 1_554 S
N965 H971 0.985 . S
C966 C960 1.379 . S
C966 C963 1.363 . S
C966 N964 1.356 . S
C967 C961 1.363 . S
C967 C962 1.379 . S
C967 N965 1.356 . S
N968 C960 1.356 . S
N968 H974 0.984 . S
N968 H975 0.984 1_554 S
N969 C962 1.356 . S
N969 H972 0.984 . S
N969 H973 0.985 . S
H970 N965 0.984 1_556 S
H971 N965 0.985 . S
H972 N969 0.984 . S
H973 N969 0.985 . S
H974 N968 0.984 . S
H975 N968 0.984 1_556 S
H976 N964 0.984 . S
H977 N964 0.985 . S
C978 C979 1.363 . S
C978 C984 1.379 . S
C978 N986 1.356 . S
C979 C978 1.363 . S
C979 C985 1.363 . S
C980 C981 1.363 . S
C980 C985 1.379 . S
C980 N987 1.356 . S
C981 C980 1.363 . S
C981 C984 1.363 . S
N982 C984 1.356 . S
N982 H994 0.984 . S
N982 H995 0.985 . S
N983 C985 1.356 . S
N983 H988 0.984 . S
N983 H989 0.985 . S
C984 C978 1.379 . S
C984 C981 1.363 . S
C984 N982 1.356 . S
C985 C979 1.363 . S
C985 C980 1.379 . S
C985 N983 1.356 . S
N986 C978 1.356 . S
N986 H992 0.984 . S
N986 H993 0.984 . S
N987 C980 1.356 . S
N987 H990 0.984 . S
N987 H991 0.985 . S
H988 N983 0.984 . S
H989 N983 0.985 . S
H990 N987 0.984 . S
H991 N987 0.985 . S
H992 N986 0.984 . S
H993 N986 0.984 . S
H994 N982 0.984 . S
H995 N982 0.985 . S
C996 C997 1.363 . S
C996 C1002 1.379 . S
C996 N1004 1.356 . S
C997 C996 1.363 . S
C997 C1003 1.363 . S
C998 C999 1.363 . S
C998 C1003 1.379 . S
C998 N1005 1.356 . S
C999 C998 1.363 . S
C999 C1002 1.363 . S
N1000 C1002 1.356 . S
N1000 H1012 0.984 . S
N1000 H1013 0.985 . S
N1001 C1003 1.356 . S
N1001 H1006 0.984 1_556 S
N1001 H1007 0.985 . S
C1002 C996 1.379 . S
C1002 C999 1.363 . S
C1002 N1000 1.356 . S
C1003 C997 1.363 . S
C1003 C998 1.379 . S
C1003 N1001 1.356 . S
N1004 C996 1.356 . S
N1004 H1010 0.984 . S
N1004 H1011 0.984 1_556 S
N1005 C998 1.356 . S
N1005 H1008 0.984 . S
N1005 H1009 0.985 . S
H1006 N1001 0.984 1_554 S
H1007 N1001 0.985 . S
H1008 N1005 0.984 . S
H1009 N1005 0.985 . S
H1010 N1004 0.984 . S
H1011 N1004 0.984 1_554 S
H1012 N1000 0.984 . S
H1013 N1000 0.985 . S
C1014 C1015 1.363 . S
C1014 C1020 1.379 . S
C1014 N1022 1.356 . S
C1015 C1014 1.363 . S
C1015 C1021 1.363 . S
C1016 C1017 1.363 . S
C1016 C1021 1.379 . S
C1016 N1023 1.356 . S
C1017 C1016 1.363 . S
C1017 C1020 1.363 . S
N1018 C1020 1.356 . S
N1018 H1030 0.984 . S
N1018 H1031 0.985 . S
N1019 C1021 1.356 . S
N1019 H1024 0.984 . S
N1019 H1025 0.985 . S
C1020 C1014 1.379 . S
C1020 C1017 1.363 . S
C1020 N1018 1.356 . S
C1021 C1015 1.363 . S
C1021 C1016 1.379 . S
C1021 N1019 1.356 . S
N1022 C1014 1.356 . S
N1022 H1028 0.984 . S
N1022 H1029 0.984 . S
N1023 C1016 1.356 . S
N1023 H1026 0.984 . S
N1023 H1027 0.985 . S
H1024 N1019 0.984 . S
H1025 N1019 0.985 . S
H1026 N1023 0.984 . S
H1027 N1023 0.985 . S
H1028 N1022 0.984 . S
H1029 N1022 0.984 . S
H1030 N1018 0.984 . S
H1031 N1018 0.985 . S
C1032 C1033 1.363 . S
C1032 C1038 1.379 . S
C1032 N1040 1.356 . S
C1033 C1032 1.363 . S
C1033 C1039 1.363 . S
C1034 C1035 1.363 . S
C1034 C1039 1.379 . S
C1034 N1041 1.356 . S
C1035 C1034 1.363 . S
C1035 C1038 1.363 . S
N1036 C1038 1.356 . S
N1036 H1048 0.984 . S
N1036 H1049 0.985 . S
N1037 C1039 1.356 . S
N1037 H1042 0.984 . S
N1037 H1043 0.985 . S
C1038 C1032 1.379 . S
C1038 C1035 1.363 . S
C1038 N1036 1.356 . S
C1039 C1033 1.363 . S
C1039 C1034 1.379 . S
C1039 N1037 1.356 . S
N1040 C1032 1.356 . S
N1040 H1046 0.984 . S
N1040 H1047 0.984 . S
N1041 C1034 1.356 . S
N1041 H1044 0.984 1_455 S
N1041 H1045 0.985 . S
H1042 N1037 0.984 . S
H1043 N1037 0.985 . S
H1044 N1041 0.984 1_655 S
H1045 N1041 0.985 . S
H1046 N1040 0.984 . S
H1047 N1040 0.984 . S
H1048 N1036 0.984 . S
H1049 N1036 0.985 . S
C1050 C1051 1.363 . S
C1050 C1056 1.379 . S
C1050 N1058 1.356 . S
C1051 C1050 1.363 . S
C1051 C1057 1.363 . S
C1052 C1053 1.363 . S
C1052 C1057 1.379 . S
C1052 N1059 1.356 . S
C1053 C1052 1.363 . S
C1053 C1056 1.363 . S
N1054 C1056 1.356 . S
N1054 H1066 0.984 . S
N1054 H1067 0.985 . S
N1055 C1057 1.356 . S
N1055 H1060 0.984 . S
N1055 H1061 0.985 . S
C1056 C1050 1.379 . S
C1056 C1053 1.363 . S
C1056 N1054 1.356 . S
C1057 C1051 1.363 . S
C1057 C1052 1.379 . S
C1057 N1055 1.356 . S
N1058 C1050 1.356 . S
N1058 H1064 0.984 . S
N1058 H1065 0.984 . S
N1059 C1052 1.356 . S
N1059 H1062 0.984 . S
N1059 H1063 0.985 . S
H1060 N1055 0.984 . S
H1061 N1055 0.985 . S
H1062 N1059 0.984 . S
H1063 N1059 0.985 . S
H1064 N1058 0.984 . S
H1065 N1058 0.984 . S
H1066 N1054 0.984 . S
H1067 N1054 0.985 . S
C1068 C1069 1.363 . S
C1068 C1074 1.379 . S
C1068 N1076 1.356 . S
C1069 C1068 1.363 . S
C1069 C1075 1.363 . S
C1070 C1071 1.363 . S
C1070 C1075 1.379 . S
C1070 N1077 1.356 . S
C1071 C1070 1.363 . S
C1071 C1074 1.363 . S
N1072 C1074 1.356 . S
N1072 H1084 0.984 . S
N1072 H1085 0.985 . S
N1073 C1075 1.356 . S
N1073 H1078 0.984 . S
N1073 H1079 0.985 . S
C1074 C1068 1.379 . S
C1074 C1071 1.363 . S
C1074 N1072 1.356 . S
C1075 C1069 1.363 . S
C1075 C1070 1.379 . S
C1075 N1073 1.356 . S
N1076 C1068 1.356 . S
N1076 H1082 0.984 . S
N1076 H1083 0.984 . S
N1077 C1070 1.356 . S
N1077 H1080 0.984 . S
N1077 H1081 0.985 . S
H1078 N1073 0.984 . S
H1079 N1073 0.985 . S
H1080 N1077 0.984 . S
H1081 N1077 0.985 . S
H1082 N1076 0.984 . S
H1083 N1076 0.984 . S
H1084 N1072 0.984 . S
H1085 N1072 0.985 . S
C1086 C1087 1.363 . S
C1086 C1092 1.379 . S
C1086 N1094 1.356 . S
C1087 C1086 1.363 . S
C1087 C1093 1.363 . S
C1088 C1089 1.363 . S
C1088 C1093 1.379 . S
C1088 N1095 1.356 . S
C1089 C1088 1.363 . S
C1089 C1092 1.363 . S
N1090 C1092 1.356 . S
N1090 H1102 0.984 . S
N1090 H1103 0.985 . S
N1091 C1093 1.356 . S
N1091 H1096 1.011 . S
N1091 H1097 0.985 . S
C1092 C1086 1.379 . S
C1092 C1089 1.363 . S
C1092 N1090 1.356 . S
C1093 C1087 1.363 . S
C1093 C1088 1.379 . S
C1093 N1091 1.356 . S
N1094 C1086 1.356 . S
N1094 H1100 0.984 . S
N1094 H1101 0.984 1_655 S
N1095 C1088 1.356 . S
N1095 H1098 0.984 . S
N1095 H1099 0.985 . S
H1096 N1091 1.011 . S
H1097 N1091 0.985 . S
H1098 N1095 0.984 . S
H1099 N1095 0.985 . S
H1100 N1094 0.984 . S
H1101 N1094 0.984 1_455 S
H1102 N1090 0.984 . S
H1103 N1090 0.985 . S
C1104 C1105 1.363 . S
C1104 C1110 1.379 . S
C1104 N1112 1.352 1_545 S
C1105 C1104 1.363 . S
C1105 C1111 1.363 . S
C1106 C1107 1.363 . S
C1106 C1111 1.379 . S
C1106 N1113 1.356 . S
C1107 C1106 1.363 . S
C1107 C1110 1.363 . S
N1108 C1110 1.356 . S
N1108 H1120 0.984 . S
N1108 H1121 0.985 . S
N1109 C1111 1.356 . S
N1109 H1114 0.984 . S
N1109 H1115 0.985 . S
C1110 C1104 1.379 . S
C1110 C1107 1.363 . S
C1110 N1108 1.356 . S
C1111 C1105 1.363 . S
C1111 C1106 1.379 . S
C1111 N1109 1.356 . S
N1112 C1104 1.352 1_565 S
N1112 H1118 0.985 . S
N1112 H1119 0.988 . S
N1113 C1106 1.356 . S
N1113 H1116 0.984 . S
N1113 H1117 0.985 . S
H1114 N1109 0.984 . S
H1115 N1109 0.985 . S
H1116 N1113 0.984 . S
H1117 N1113 0.985 . S
H1118 N1112 0.985 . S
H1119 N1112 0.988 . S
H1120 N1108 0.984 . S
H1121 N1108 0.985 . S
C1122 C1123 1.363 . S
C1122 C1128 1.379 . S
C1122 N1130 1.356 . S
C1123 C1122 1.363 . S
C1123 C1129 1.363 . S
C1124 C1125 1.363 . S
C1124 C1129 1.379 . S
C1124 N1131 1.356 . S
C1125 C1124 1.363 . S
C1125 C1128 1.363 . S
N1126 C1128 1.356 . S
N1126 H1138 0.984 . S
N1126 H1139 0.985 . S
N1127 C1129 1.356 . S
N1127 H1132 0.984 . S
N1127 H1133 0.985 . S
C1128 C1122 1.379 . S
C1128 C1125 1.363 . S
C1128 N1126 1.356 . S
C1129 C1123 1.363 . S
C1129 C1124 1.379 . S
C1129 N1127 1.356 . S
N1130 C1122 1.356 . S
N1130 H1136 0.984 . S
N1130 H1137 0.984 . S
N1131 C1124 1.356 . S
N1131 H1134 0.984 . S
N1131 H1135 0.985 . S
H1132 N1127 0.984 . S
H1133 N1127 0.985 . S
H1134 N1131 0.984 . S
H1135 N1131 0.985 . S
H1136 N1130 0.984 . S
H1137 N1130 0.984 . S
H1138 N1126 0.984 . S
H1139 N1126 0.985 . S
C1140 C1141 1.363 . S
C1140 C1146 1.379 . S
C1140 N1148 1.356 . S
C1141 C1140 1.363 . S
C1141 C1147 1.363 . S
C1142 C1143 1.363 . S
C1142 C1147 1.379 . S
C1142 N1149 1.356 . S
C1143 C1142 1.363 . S
C1143 C1146 1.363 . S
N1144 C1146 1.356 . S
N1144 H1156 0.984 . S
N1144 H1157 0.985 . S
N1145 C1147 1.356 . S
N1145 H1150 0.984 . S
N1145 H1151 0.985 . S
C1146 C1140 1.379 . S
C1146 C1143 1.363 . S
C1146 N1144 1.356 . S
C1147 C1141 1.363 . S
C1147 C1142 1.379 . S
C1147 N1145 1.356 . S
N1148 C1140 1.356 . S
N1148 H1154 0.984 . S
N1148 H1155 0.984 . S
N1149 C1142 1.356 . S
N1149 H1152 0.984 . S
N1149 H1153 0.985 . S
H1150 N1145 0.984 . S
H1151 N1145 0.985 . S
H1152 N1149 0.984 . S
H1153 N1149 0.985 . S
H1154 N1148 0.984 . S
H1155 N1148 0.984 . S
H1156 N1144 0.984 . S
H1157 N1144 0.985 . S
C1158 C1159 1.363 . S
C1158 C1164 1.379 . S
C1158 N1166 1.356 . S
C1159 C1158 1.363 . S
C1159 C1165 1.363 . S
C1160 C1161 1.363 . S
C1160 C1165 1.379 . S
C1160 N1167 1.356 . S
C1161 C1160 1.363 . S
C1161 C1164 1.363 . S
N1162 C1164 1.356 . S
N1162 H1174 0.984 . S
N1162 H1175 0.985 . S
N1163 C1165 1.385 . S
N1163 H1168 0.960 1_565 S
N1163 H1169 0.982 1_565 S
C1164 C1158 1.379 . S
C1164 C1161 1.363 . S
C1164 N1162 1.356 . S
C1165 C1159 1.363 . S
C1165 C1160 1.379 . S
C1165 N1163 1.385 . S
N1166 C1158 1.356 . S
N1166 H1172 0.984 . S
N1166 H1173 0.984 . S
N1167 C1160 1.356 . S
N1167 H1170 0.984 . S
N1167 H1171 0.985 . S
H1168 N1163 0.960 1_545 S
H1169 N1163 0.982 1_545 S
H1170 N1167 0.984 . S
H1171 N1167 0.985 . S
H1172 N1166 0.984 . S
H1173 N1166 0.984 . S
H1174 N1162 0.984 . S
H1175 N1162 0.985 . S
C1176 C1177 1.363 . S
C1176 C1182 1.379 . S
C1176 N1184 1.356 . S
C1177 C1176 1.363 . S
C1177 C1183 1.363 . S
C1178 C1179 1.363 . S
C1178 C1183 1.379 . S
C1178 N1185 1.356 . S
C1179 C1178 1.363 . S
C1179 C1182 1.363 . S
N1180 C1182 1.356 . S
N1180 H1192 0.984 . S
N1180 H1193 0.985 1_556 S
N1181 C1183 1.356 . S
N1181 H1186 0.984 . S
N1181 H1187 0.985 . S
C1182 C1176 1.379 . S
C1182 C1179 1.363 . S
C1182 N1180 1.356 . S
C1183 C1177 1.363 . S
C1183 C1178 1.379 . S
C1183 N1181 1.356 . S
N1184 C1176 1.356 . S
N1184 H1190 0.984 . S
N1184 H1191 0.984 . S
N1185 C1178 1.356 . S
N1185 H1188 0.984 1_556 S
N1185 H1189 0.985 . S
H1186 N1181 0.984 . S
H1187 N1181 0.985 . S
H1188 N1185 0.984 1_554 S
H1189 N1185 0.985 . S
H1190 N1184 0.984 . S
H1191 N1184 0.984 . S
H1192 N1180 0.984 . S
H1193 N1180 0.985 1_554 S
C1194 C1195 1.363 . S
C1194 C1200 1.379 . S
C1194 N1202 1.356 . S
C1195 C1194 1.363 . S
C1195 C1201 1.363 . S
C1196 C1197 1.363 . S
C1196 C1201 1.379 . S
C1196 N1203 1.356 . S
C1197 C1196 1.363 . S
C1197 C1200 1.363 . S
N1198 C1200 1.356 . S
N1198 H1210 0.984 . S
N1198 H1211 0.985 . S
N1199 C1201 1.356 . S
N1199 H1204 0.984 . S
N1199 H1205 0.985 . S
C1200 C1194 1.379 . S
C1200 C1197 1.363 . S
C1200 N1198 1.356 . S
C1201 C1195 1.363 . S
C1201 C1196 1.379 . S
C1201 N1199 1.356 . S
N1202 C1194 1.356 . S
N1202 H1208 0.984 . S
N1202 H1209 0.984 . S
N1203 C1196 1.356 . S
N1203 H1206 0.984 . S
N1203 H1207 0.985 . S
H1204 N1199 0.984 . S
H1205 N1199 0.985 . S
H1206 N1203 0.984 . S
H1207 N1203 0.985 . S
H1208 N1202 0.984 . S
H1209 N1202 0.984 . S
H1210 N1198 0.984 . S
H1211 N1198 0.985 . S
C1212 C1213 1.363 . S
C1212 C1218 1.379 . S
C1212 N1220 1.356 . S
C1213 C1212 1.363 . S
C1213 C1219 1.363 . S
C1214 C1215 1.363 . S
C1214 C1219 1.379 . S
C1214 N1221 1.356 . S
C1215 C1214 1.363 . S
C1215 C1218 1.363 . S
N1216 C1218 1.356 . S
N1216 H1228 0.985 . S
N1216 H1229 0.985 1_554 S
N1217 C1219 1.356 . S
N1217 H1222 0.984 . S
N1217 H1223 0.985 . S
C1218 C1212 1.379 . S
C1218 C1215 1.363 . S
C1218 N1216 1.356 . S
C1219 C1213 1.363 . S
C1219 C1214 1.379 . S
C1219 N1217 1.356 . S
N1220 C1212 1.356 . S
N1220 H1226 0.984 . S
N1220 H1227 0.984 . S
N1221 C1214 1.356 . S
N1221 H1224 0.984 . S
N1221 H1225 0.985 . S
H1222 N1217 0.984 . S
H1223 N1217 0.985 . S
H1224 N1221 0.984 . S
H1225 N1221 0.985 . S
H1226 N1220 0.984 . S
H1227 N1220 0.984 . S
H1228 N1216 0.985 . S
H1229 N1216 0.985 1_556 S
C1230 C1231 1.363 . S
C1230 C1236 1.379 . S
C1230 N1238 1.356 . S
C1231 C1230 1.363 . S
C1231 C1237 1.363 . S
C1232 C1233 1.363 . S
C1232 C1237 1.379 . S
C1232 N1239 1.356 . S
C1233 C1232 1.363 . S
C1233 C1236 1.363 . S
N1234 C1236 1.356 . S
N1234 H1246 0.984 . S
N1234 H1247 0.985 . S
N1235 C1237 1.356 . S
N1235 H1240 0.984 . S
N1235 H1241 0.985 . S
C1236 C1230 1.379 . S
C1236 C1233 1.363 . S
C1236 N1234 1.356 . S
C1237 C1231 1.363 . S
C1237 C1232 1.379 . S
C1237 N1235 1.356 . S
N1238 C1230 1.356 . S
N1238 H1244 0.984 . S
N1238 H1245 0.984 . S
N1239 C1232 1.356 . S
N1239 H1242 0.984 . S
N1239 H1243 0.985 . S
H1240 N1235 0.984 . S
H1241 N1235 0.985 . S
H1242 N1239 0.984 . S
H1243 N1239 0.985 . S
H1244 N1238 0.984 . S
H1245 N1238 0.984 . S
H1246 N1234 0.984 . S
H1247 N1234 0.985 . S
C1248 C1249 1.363 . S
C1248 C1254 1.379 . S
C1248 N1256 1.356 . S
C1249 C1248 1.363 . S
C1249 C1255 1.363 . S
C1250 C1251 1.363 . S
C1250 C1255 1.379 . S
C1250 N1257 1.356 . S
C1251 C1250 1.363 . S
C1251 C1254 1.363 . S
N1252 C1254 1.356 . S
N1252 H1264 0.984 . S
N1252 H1265 0.985 . S
N1253 C1255 1.351 1_455 S
N1253 H1258 0.989 . S
N1253 H1259 0.985 . S
C1254 C1248 1.379 . S
C1254 C1251 1.363 . S
C1254 N1252 1.356 . S
C1255 C1249 1.363 . S
C1255 C1250 1.379 . S
C1255 N1253 1.351 1_655 S
N1256 C1248 1.356 . S
N1256 H1262 0.984 . S
N1256 H1263 0.984 . S
N1257 C1250 1.356 . S
N1257 H1260 0.984 . S
N1257 H1261 0.985 . S
H1258 N1253 0.989 . S
H1259 N1253 0.985 . S
H1260 N1257 0.984 . S
H1261 N1257 0.985 . S
H1262 N1256 0.984 . S
H1263 N1256 0.984 . S
H1264 N1252 0.984 . S
H1265 N1252 0.985 . S
C1266 C1267 1.363 . S
C1266 C1272 1.379 . S
C1266 N1274 1.356 . S
C1267 C1266 1.363 . S
C1267 C1273 1.363 . S
C1268 C1269 1.363 . S
C1268 C1273 1.379 . S
C1268 N1275 1.356 . S
C1269 C1268 1.363 . S
C1269 C1272 1.363 . S
N1270 C1272 1.356 . S
N1270 H1282 0.984 . S
N1270 H1283 0.985 . S
N1271 C1273 1.356 . S
N1271 H1276 0.984 . S
N1271 H1277 0.985 . S
C1272 C1266 1.379 . S
C1272 C1269 1.363 . S
C1272 N1270 1.356 . S
C1273 C1267 1.363 . S
C1273 C1268 1.379 . S
C1273 N1271 1.356 . S
N1274 C1266 1.356 . S
N1274 H1280 0.984 . S
N1274 H1281 0.984 . S
N1275 C1268 1.356 . S
N1275 H1278 0.984 . S
N1275 H1279 0.985 . S
H1276 N1271 0.984 . S
H1277 N1271 0.985 . S
H1278 N1275 0.984 . S
H1279 N1275 0.985 . S
H1280 N1274 0.984 . S
H1281 N1274 0.984 . S
H1282 N1270 0.984 . S
H1283 N1270 0.985 . S
C1284 C1285 1.363 . S
C1284 C1290 1.379 . S
C1284 N1292 1.356 . S
C1285 C1284 1.363 . S
C1285 C1291 1.363 . S
C1286 C1287 1.363 . S
C1286 C1291 1.379 . S
C1286 N1293 1.356 . S
C1287 C1286 1.363 . S
C1287 C1290 1.363 . S
N1288 C1290 1.356 . S
N1288 H1300 0.984 . S
N1288 H1301 0.985 . S
N1289 C1291 1.356 . S
N1289 H1294 0.984 . S
N1289 H1295 0.985 . S
C1290 C1284 1.379 . S
C1290 C1287 1.363 . S
C1290 N1288 1.356 . S
C1291 C1285 1.363 . S
C1291 C1286 1.379 . S
C1291 N1289 1.356 . S
N1292 C1284 1.356 . S
N1292 H1298 0.984 . S
N1292 H1299 0.984 . S
N1293 C1286 1.356 . S
N1293 H1296 0.984 . S
N1293 H1297 0.985 . S
H1294 N1289 0.984 . S
H1295 N1289 0.985 . S
H1296 N1293 0.984 . S
H1297 N1293 0.985 . S
H1298 N1292 0.984 . S
H1299 N1292 0.984 . S
H1300 N1288 0.984 . S
H1301 N1288 0.985 . S
C1302 C1303 1.363 . S
C1302 C1308 1.379 . S
C1302 N1310 1.356 . S
C1303 C1302 1.363 . S
C1303 C1309 1.363 . S
C1304 C1305 1.363 . S
C1304 C1309 1.379 . S
C1304 N1311 1.356 . S
C1305 C1304 1.363 . S
C1305 C1308 1.363 . S
N1306 C1308 1.356 . S
N1306 H1318 0.984 . S
N1306 H1319 0.985 . S
N1307 C1309 1.356 . S
N1307 H1312 0.984 . S
N1307 H1313 0.985 . S
C1308 C1302 1.379 . S
C1308 C1305 1.363 . S
C1308 N1306 1.356 . S
C1309 C1303 1.363 . S
C1309 C1304 1.379 . S
C1309 N1307 1.356 . S
N1310 C1302 1.356 . S
N1310 H1316 0.984 . S
N1310 H1317 0.984 . S
N1311 C1304 1.356 . S
N1311 H1314 0.984 1_455 S
N1311 H1315 0.985 . S
H1312 N1307 0.984 . S
H1313 N1307 0.985 . S
H1314 N1311 0.984 1_655 S
H1315 N1311 0.985 . S
H1316 N1310 0.984 . S
H1317 N1310 0.984 . S
H1318 N1306 0.984 . S
H1319 N1306 0.985 . S
C1320 C1321 1.363 . S
C1320 C1326 1.379 . S
C1320 N1328 1.356 . S
C1321 C1320 1.363 . S
C1321 C1327 1.363 . S
C1322 C1323 1.363 . S
C1322 C1327 1.379 . S
C1322 N1329 1.356 . S
C1323 C1322 1.363 . S
C1323 C1326 1.363 . S
N1324 C1326 1.356 . S
N1324 H1336 0.984 . S
N1324 H1337 0.985 . S
N1325 C1327 1.356 . S
N1325 H1330 0.984 1_565 S
N1325 H1331 0.985 . S
C1326 C1320 1.379 . S
C1326 C1323 1.363 . S
C1326 N1324 1.356 . S
C1327 C1321 1.363 . S
C1327 C1322 1.379 . S
C1327 N1325 1.356 . S
N1328 C1320 1.356 . S
N1328 H1334 0.984 . S
N1328 H1335 0.984 . S
N1329 C1322 1.356 . S
N1329 H1332 0.984 . S
N1329 H1333 0.985 . S
H1330 N1325 0.984 1_545 S
H1331 N1325 0.985 . S
H1332 N1329 0.984 . S
H1333 N1329 0.985 . S
H1334 N1328 0.984 . S
H1335 N1328 0.984 . S
H1336 N1324 0.984 . S
H1337 N1324 0.985 . S
C1338 C1339 1.363 . S
C1338 C1344 1.379 . S
C1338 N1346 1.356 . S
C1339 C1338 1.363 . S
C1339 C1345 1.363 . S
C1340 C1341 1.363 . S
C1340 C1345 1.379 . S
C1340 N1347 1.356 . S
C1341 C1340 1.363 . S
C1341 C1344 1.363 . S
N1342 C1344 1.356 . S
N1342 H1354 0.984 . S
N1342 H1355 0.985 . S
N1343 C1345 1.356 . S
N1343 H1348 0.984 . S
N1343 H1349 0.985 . S
C1344 C1338 1.379 . S
C1344 C1341 1.363 . S
C1344 N1342 1.356 . S
C1345 C1339 1.363 . S
C1345 C1340 1.379 . S
C1345 N1343 1.356 . S
N1346 C1338 1.356 . S
N1346 H1352 0.984 . S
N1346 H1353 0.984 . S
N1347 C1340 1.356 . S
N1347 H1350 0.984 . S
N1347 H1351 0.985 . S
H1348 N1343 0.984 . S
H1349 N1343 0.985 . S
H1350 N1347 0.984 . S
H1351 N1347 0.985 . S
H1352 N1346 0.984 . S
H1353 N1346 0.984 . S
H1354 N1342 0.984 . S
H1355 N1342 0.985 . S
C1356 C1357 1.363 . S
C1356 C1362 1.379 . S
C1356 N1364 1.356 . S
C1357 C1356 1.363 . S
C1357 C1363 1.363 . S
C1358 C1359 1.363 . S
C1358 C1363 1.379 . S
C1358 N1365 1.356 . S
C1359 C1358 1.363 . S
C1359 C1362 1.363 . S
N1360 C1362 1.356 . S
N1360 H1372 0.984 . S
N1360 H1373 0.985 . S
N1361 C1363 1.356 . S
N1361 H1366 0.984 . S
N1361 H1367 0.985 . S
C1362 C1356 1.379 . S
C1362 C1359 1.363 . S
C1362 N1360 1.356 . S
C1363 C1357 1.363 . S
C1363 C1358 1.379 . S
C1363 N1361 1.356 . S
N1364 C1356 1.356 . S
N1364 H1370 0.984 . S
N1364 H1371 0.984 . S
N1365 C1358 1.356 . S
N1365 H1368 0.984 . S
N1365 H1369 0.985 . S
H1366 N1361 0.984 . S
H1367 N1361 0.985 . S
H1368 N1365 0.984 . S
H1369 N1365 0.985 . S
H1370 N1364 0.984 . S
H1371 N1364 0.984 . S
H1372 N1360 0.984 . S
H1373 N1360 0.985 . S
C1374 C1375 1.363 . S
C1374 C1380 1.379 . S
C1374 N1382 1.356 . S
C1375 C1374 1.363 . S
C1375 C1381 1.363 . S
C1376 C1377 1.363 . S
C1376 C1381 1.379 . S
C1376 N1383 1.354 . S
C1377 C1376 1.363 . S
C1377 C1380 1.363 . S
N1378 C1380 1.356 . S
N1378 H1390 0.984 . S
N1378 H1391 0.985 . S
N1379 C1381 1.356 . S
N1379 H1384 0.984 . S
N1379 H1385 0.985 . S
C1380 C1374 1.379 . S
C1380 C1377 1.363 . S
C1380 N1378 1.356 . S
C1381 C1375 1.363 . S
C1381 C1376 1.379 . S
C1381 N1379 1.356 . S
N1382 C1374 1.356 . S
N1382 H1388 0.984 . S
N1382 H1389 0.984 . S
N1383 C1376 1.354 . S
N1383 H1386 0.986 1_545 S
N1383 H1387 0.985 1_545 S
H1384 N1379 0.984 . S
H1385 N1379 0.985 . S
H1386 N1383 0.986 1_565 S
H1387 N1383 0.985 1_565 S
H1388 N1382 0.984 . S
H1389 N1382 0.984 . S
H1390 N1378 0.984 . S
H1391 N1378 0.985 . S
C1392 C1393 1.363 . S
C1392 C1398 1.379 . S
C1392 N1400 1.356 . S
C1393 C1392 1.363 . S
C1393 C1399 1.363 . S
C1394 C1395 1.363 . S
C1394 C1399 1.379 . S
C1394 N1401 1.356 . S
C1395 C1394 1.363 . S
C1395 C1398 1.363 . S
N1396 C1398 1.356 . S
N1396 H1408 0.984 . S
N1396 H1409 0.985 . S
N1397 C1399 1.356 . S
N1397 H1402 0.984 . S
N1397 H1403 0.985 . S
C1398 C1392 1.379 . S
C1398 C1395 1.363 . S
C1398 N1396 1.356 . S
C1399 C1393 1.363 . S
C1399 C1394 1.379 . S
C1399 N1397 1.356 . S
N1400 C1392 1.356 . S
N1400 H1406 0.984 . S
N1400 H1407 0.984 . S
N1401 C1394 1.356 . S
N1401 H1404 0.984 . S
N1401 H1405 0.985 . S
H1402 N1397 0.984 . S
H1403 N1397 0.985 . S
H1404 N1401 0.984 . S
H1405 N1401 0.985 . S
H1406 N1400 0.984 . S
H1407 N1400 0.984 . S
H1408 N1396 0.984 . S
H1409 N1396 0.985 . S
C1410 C1411 1.363 . S
C1410 C1416 1.379 . S
C1410 N1418 1.356 . S
C1411 C1410 1.363 . S
C1411 C1417 1.363 . S
C1412 C1413 1.363 . S
C1412 C1417 1.379 . S
C1412 N1419 1.356 . S
C1413 C1412 1.363 . S
C1413 C1416 1.363 . S
N1414 C1416 1.356 . S
N1414 H1426 0.984 . S
N1414 H1427 0.985 . S
N1415 C1417 1.356 . S
N1415 H1420 0.984 . S
N1415 H1421 0.985 . S
C1416 C1410 1.379 . S
C1416 C1413 1.363 . S
C1416 N1414 1.356 . S
C1417 C1411 1.363 . S
C1417 C1412 1.379 . S
C1417 N1415 1.356 . S
N1418 C1410 1.356 . S
N1418 H1424 0.984 . S
N1418 H1425 0.984 . S
N1419 C1412 1.356 . S
N1419 H1422 0.984 . S
N1419 H1423 0.985 . S
H1420 N1415 0.984 . S
H1421 N1415 0.985 . S
H1422 N1419 0.984 . S
H1423 N1419 0.985 . S
H1424 N1418 0.984 . S
H1425 N1418 0.984 . S
H1426 N1414 0.984 . S
H1427 N1414 0.985 . S
C1428 C1429 1.363 . S
C1428 C1434 1.379 . S
C1428 N1436 1.356 . S
C1429 C1428 1.363 . S
C1429 C1435 1.363 . S
C1430 C1431 1.363 . S
C1430 C1435 1.379 . S
C1430 N1437 1.356 . S
C1431 C1430 1.363 . S
C1431 C1434 1.363 . S
N1432 C1434 1.356 . S
N1432 H1444 0.984 . S
N1432 H1445 0.985 . S
N1433 C1435 1.356 . S
N1433 H1438 0.984 . S
N1433 H1439 0.985 . S
C1434 C1428 1.379 . S
C1434 C1431 1.363 . S
C1434 N1432 1.356 . S
C1435 C1429 1.363 . S
C1435 C1430 1.379 . S
C1435 N1433 1.356 . S
N1436 C1428 1.356 . S
N1436 H1442 0.984 . S
N1436 H1443 0.984 . S
N1437 C1430 1.356 . S
N1437 H1440 0.984 . S
N1437 H1441 0.985 . S
H1438 N1433 0.984 . S
H1439 N1433 0.985 . S
H1440 N1437 0.984 . S
H1441 N1437 0.985 . S
H1442 N1436 0.984 . S
H1443 N1436 0.984 . S
H1444 N1432 0.984 . S
H1445 N1432 0.985 . S
C1446 C1447 1.363 . S
C1446 C1452 1.379 . S
C1446 N1454 1.356 . S
C1447 C1446 1.363 . S
C1447 C1453 1.363 . S
C1448 C1449 1.363 . S
C1448 C1453 1.379 . S
C1448 N1455 1.356 . S
C1449 C1448 1.363 . S
C1449 C1452 1.363 . S
N1450 C1452 1.356 . S
N1450 H1462 0.984 . S
N1450 H1463 0.985 . S
N1451 C1453 1.356 . S
N1451 H1456 0.984 . S
N1451 H1457 0.985 . S
C1452 C1446 1.379 . S
C1452 C1449 1.363 . S
C1452 N1450 1.356 . S
C1453 C1447 1.363 . S
C1453 C1448 1.379 . S
C1453 N1451 1.356 . S
N1454 C1446 1.356 . S
N1454 H1460 0.984 . S
N1454 H1461 0.984 . S
N1455 C1448 1.356 . S
N1455 H1458 0.984 . S
N1455 H1459 0.985 . S
H1456 N1451 0.984 . S
H1457 N1451 0.985 . S
H1458 N1455 0.984 . S
H1459 N1455 0.985 . S
H1460 N1454 0.984 . S
H1461 N1454 0.984 . S
H1462 N1450 0.984 . S
H1463 N1450 0.985 . S
C1464 C1465 1.363 . S
C1464 C1470 1.379 . S
C1464 N1472 1.356 . S
C1465 C1464 1.363 . S
C1465 C1471 1.363 . S
C1466 C1467 1.363 . S
C1466 C1471 1.379 . S
C1466 N1473 1.356 . S
C1467 C1466 1.363 . S
C1467 C1470 1.363 . S
N1468 C1470 1.356 . S
N1468 H1480 0.984 . S
N1468 H1481 0.985 . S
N1469 C1471 1.356 . S
N1469 H1474 0.984 . S
N1469 H1475 0.985 . S
C1470 C1464 1.379 . S
C1470 C1467 1.363 . S
C1470 N1468 1.356 . S
C1471 C1465 1.363 . S
C1471 C1466 1.379 . S
C1471 N1469 1.356 . S
N1472 C1464 1.356 . S
N1472 H1478 0.984 . S
N1472 H1479 0.984 . S
N1473 C1466 1.356 . S
N1473 H1476 0.984 . S
N1473 H1477 0.985 . S
H1474 N1469 0.984 . S
H1475 N1469 0.985 . S
H1476 N1473 0.984 . S
H1477 N1473 0.985 . S
H1478 N1472 0.984 . S
H1479 N1472 0.984 . S
H1480 N1468 0.984 . S
H1481 N1468 0.985 . S
C1482 C1483 1.363 . S
C1482 C1488 1.379 . S
C1482 N1490 1.356 . S
C1483 C1482 1.363 . S
C1483 C1489 1.363 . S
C1484 C1485 1.363 . S
C1484 C1489 1.379 . S
C1484 N1491 1.356 . S
C1485 C1484 1.363 . S
C1485 C1488 1.363 . S
N1486 C1488 1.356 . S
N1486 H1498 0.984 . S
N1486 H1499 0.985 . S
N1487 C1489 1.356 . S
N1487 H1492 0.984 . S
N1487 H1493 0.985 . S
C1488 C1482 1.379 . S
C1488 C1485 1.363 . S
C1488 N1486 1.356 . S
C1489 C1483 1.363 . S
C1489 C1484 1.379 . S
C1489 N1487 1.356 . S
N1490 C1482 1.356 . S
N1490 H1496 0.984 . S
N1490 H1497 0.984 . S
N1491 C1484 1.356 . S
N1491 H1494 0.984 . S
N1491 H1495 0.985 . S
H1492 N1487 0.984 . S
H1493 N1487 0.985 . S
H1494 N1491 0.984 . S
H1495 N1491 0.985 . S
H1496 N1490 0.984 . S
H1497 N1490 0.984 . S
H1498 N1486 0.984 . S
H1499 N1486 0.985 . S
C1500 C1501 1.363 . S
C1500 C1506 1.379 . S
C1500 N1508 1.356 . S
C1501 C1500 1.363 . S
C1501 C1507 1.363 . S
C1502 C1503 1.363 . S
C1502 C1507 1.379 . S
C1502 N1509 1.356 . S
C1503 C1502 1.363 . S
C1503 C1506 1.363 . S
N1504 C1506 1.356 . S
N1504 H1516 0.984 . S
N1504 H1517 0.985 . S
N1505 C1507 1.356 . S
N1505 H1510 0.984 . S
N1505 H1511 0.985 . S
C1506 C1500 1.379 . S
C1506 C1503 1.363 . S
C1506 N1504 1.356 . S
C1507 C1501 1.363 . S
C1507 C1502 1.379 . S
C1507 N1505 1.356 . S
N1508 C1500 1.356 . S
N1508 H1514 0.984 . S
N1508 H1515 0.984 . S
N1509 C1502 1.356 . S
N1509 H1512 0.984 . S
N1509 H1513 0.985 . S
H1510 N1505 0.984 . S
H1511 N1505 0.985 . S
H1512 N1509 0.984 . S
H1513 N1509 0.985 . S
H1514 N1508 0.984 . S
H1515 N1508 0.984 . S
H1516 N1504 0.984 . S
H1517 N1504 0.985 . S
C1518 C1519 1.363 . S
C1518 C1524 1.379 . S
C1518 N1526 1.356 . S
C1519 C1518 1.363 . S
C1519 C1525 1.363 . S
C1520 C1521 1.363 . S
C1520 C1525 1.379 . S
C1520 N1527 1.356 . S
C1521 C1520 1.363 . S
C1521 C1524 1.363 . S
N1522 C1524 1.356 . S
N1522 H1534 0.984 . S
N1522 H1535 0.985 . S
N1523 C1525 1.356 . S
N1523 H1528 0.984 . S
N1523 H1529 0.985 . S
C1524 C1518 1.379 . S
C1524 C1521 1.363 . S
C1524 N1522 1.356 . S
C1525 C1519 1.363 . S
C1525 C1520 1.379 . S
C1525 N1523 1.356 . S
N1526 C1518 1.356 . S
N1526 H1532 0.984 . S
N1526 H1533 0.984 . S
N1527 C1520 1.356 . S
N1527 H1530 0.984 . S
N1527 H1531 0.985 . S
H1528 N1523 0.984 . S
H1529 N1523 0.985 . S
H1530 N1527 0.984 . S
H1531 N1527 0.985 . S
H1532 N1526 0.984 . S
H1533 N1526 0.984 . S
H1534 N1522 0.984 . S
H1535 N1522 0.985 . S
C1536 C1537 1.363 . S
C1536 C1542 1.379 . S
C1536 N1544 1.356 . S
C1537 C1536 1.363 . S
C1537 C1543 1.363 . S
C1538 C1539 1.363 . S
C1538 C1543 1.379 . S
C1538 N1545 1.356 . S
C1539 C1538 1.363 . S
C1539 C1542 1.363 . S
N1540 C1542 1.356 . S
N1540 H1552 0.984 . S
N1540 H1553 0.985 . S
N1541 C1543 1.356 . S
N1541 H1546 0.984 . S
N1541 H1547 0.985 . S
C1542 C1536 1.379 . S
C1542 C1539 1.363 . S
C1542 N1540 1.356 . S
C1543 C1537 1.363 . S
C1543 C1538 1.379 . S
C1543 N1541 1.356 . S
N1544 C1536 1.356 . S
N1544 H1550 0.984 . S
N1544 H1551 0.984 . S
N1545 C1538 1.356 . S
N1545 H1548 0.984 . S
N1545 H1549 0.985 . S
H1546 N1541 0.984 . S
H1547 N1541 0.985 . S
H1548 N1545 0.984 . S
H1549 N1545 0.985 . S
H1550 N1544 0.984 . S
H1551 N1544 0.984 . S
H1552 N1540 0.984 . S
H1553 N1540 0.985 . S
C1554 C1555 1.363 . S
C1554 C1560 1.379 . S
C1554 N1562 1.356 . S
C1555 C1554 1.363 . S
C1555 C1561 1.363 . S
C1556 C1557 1.363 . S
C1556 C1561 1.379 . S
C1556 N1563 1.356 . S
C1557 C1556 1.363 . S
C1557 C1560 1.363 . S
N1558 C1560 1.356 . S
N1558 H1570 0.984 . S
N1558 H1571 0.985 . S
N1559 C1561 1.356 . S
N1559 H1564 0.984 . S
N1559 H1565 0.985 . S
C1560 C1554 1.379 . S
C1560 C1557 1.363 . S
C1560 N1558 1.356 . S
C1561 C1555 1.363 . S
C1561 C1556 1.379 . S
C1561 N1559 1.356 . S
N1562 C1554 1.356 . S
N1562 H1568 0.984 . S
N1562 H1569 0.984 . S
N1563 C1556 1.356 . S
N1563 H1566 0.984 . S
N1563 H1567 0.985 . S
H1564 N1559 0.984 . S
H1565 N1559 0.985 . S
H1566 N1563 0.984 . S
H1567 N1563 0.985 . S
H1568 N1562 0.984 . S
H1569 N1562 0.984 . S
H1570 N1558 0.984 . S
H1571 N1558 0.985 . S
C1572 C1573 1.363 . S
C1572 C1578 1.379 . S
C1572 N1580 1.356 . S
C1573 C1572 1.363 . S
C1573 C1579 1.363 . S
C1574 C1575 1.363 . S
C1574 C1579 1.379 . S
C1574 N1581 1.356 . S
C1575 C1574 1.363 . S
C1575 C1578 1.363 . S
N1576 C1578 1.356 . S
N1576 H1588 0.984 . S
N1576 H1589 0.985 . S
N1577 C1579 1.356 . S
N1577 H1582 0.984 . S
N1577 H1583 0.985 . S
C1578 C1572 1.379 . S
C1578 C1575 1.363 . S
C1578 N1576 1.356 . S
C1579 C1573 1.363 . S
C1579 C1574 1.379 . S
C1579 N1577 1.356 . S
N1580 C1572 1.356 . S
N1580 H1586 0.984 . S
N1580 H1587 0.984 . S
N1581 C1574 1.356 . S
N1581 H1584 0.984 . S
N1581 H1585 0.985 . S
H1582 N1577 0.984 . S
H1583 N1577 0.985 . S
H1584 N1581 0.984 . S
H1585 N1581 0.985 . S
H1586 N1580 0.984 . S
H1587 N1580 0.984 . S
H1588 N1576 0.984 . S
H1589 N1576 0.985 . S
C1590 C1591 1.363 . S
C1590 C1596 1.379 . S
C1590 N1598 1.356 . S
C1591 C1590 1.363 . S
C1591 C1597 1.363 . S
C1592 C1593 1.363 . S
C1592 C1597 1.379 . S
C1592 N1599 1.356 . S
C1593 C1592 1.363 . S
C1593 C1596 1.363 . S
N1594 C1596 1.356 . S
N1594 H1606 0.984 . S
N1594 H1607 0.985 . S
N1595 C1597 1.356 . S
N1595 H1600 0.984 . S
N1595 H1601 0.985 . S
C1596 C1590 1.379 . S
C1596 C1593 1.363 . S
C1596 N1594 1.356 . S
C1597 C1591 1.363 . S
C1597 C1592 1.379 . S
C1597 N1595 1.356 . S
N1598 C1590 1.356 . S
N1598 H1604 0.984 . S
N1598 H1605 0.984 . S
N1599 C1592 1.356 . S
N1599 H1602 0.984 . S
N1599 H1603 0.985 . S
H1600 N1595 0.984 . S
H1601 N1595 0.985 . S
H1602 N1599 0.984 . S
H1603 N1599 0.985 . S
H1604 N1598 0.984 . S
H1605 N1598 0.984 . S
H1606 N1594 0.984 . S
H1607 N1594 0.985 . S
C1608 C1609 1.363 . S
C1608 C1614 1.379 . S
C1608 N1616 1.356 . S
C1609 C1608 1.363 . S
C1609 C1615 1.363 . S
C1610 C1611 1.363 . S
C1610 C1615 1.379 . S
C1610 N1617 1.356 . S
C1611 C1610 1.363 . S
C1611 C1614 1.363 . S
N1612 C1614 1.356 . S
N1612 H1624 0.984 . S
N1612 H1625 0.985 . S
N1613 C1615 1.356 . S
N1613 H1618 0.984 . S
N1613 H1619 0.985 . S
C1614 C1608 1.379 . S
C1614 C1611 1.363 . S
C1614 N1612 1.356 . S
C1615 C1609 1.363 . S
C1615 C1610 1.379 . S
C1615 N1613 1.356 . S
N1616 C1608 1.356 . S
N1616 H1622 0.984 . S
N1616 H1623 0.984 . S
N1617 C1610 1.356 . S
N1617 H1620 0.984 . S
N1617 H1621 0.985 . S
H1618 N1613 0.984 . S
H1619 N1613 0.985 . S
H1620 N1617 0.984 . S
H1621 N1617 0.985 . S
H1622 N1616 0.984 . S
H1623 N1616 0.984 . S
H1624 N1612 0.984 . S
H1625 N1612 0.985 . S
C1626 C1627 1.363 . S
C1626 C1632 1.379 . S
C1626 N1634 1.356 . S
C1627 C1626 1.363 . S
C1627 C1633 1.363 . S
C1628 C1629 1.363 . S
C1628 C1633 1.379 . S
C1628 N1635 1.356 . S
C1629 C1628 1.363 . S
C1629 C1632 1.363 . S
N1630 C1632 1.356 . S
N1630 H1642 0.984 . S
N1630 H1643 0.985 . S
N1631 C1633 1.356 . S
N1631 H1636 0.984 . S
N1631 H1637 0.985 . S
C1632 C1626 1.379 . S
C1632 C1629 1.363 . S
C1632 N1630 1.356 . S
C1633 C1627 1.363 . S
C1633 C1628 1.379 . S
C1633 N1631 1.356 . S
N1634 C1626 1.356 . S
N1634 H1640 0.984 . S
N1634 H1641 0.984 . S
N1635 C1628 1.356 . S
N1635 H1638 0.984 . S
N1635 H1639 0.985 . S
H1636 N1631 0.984 . S
H1637 N1631 0.985 . S
H1638 N1635 0.984 . S
H1639 N1635 0.985 . S
H1640 N1634 0.984 . S
H1641 N1634 0.984 . S
H1642 N1630 0.984 . S
H1643 N1630 0.985 . S
C1644 C1645 1.363 . S
C1644 C1650 1.379 . S
C1644 N1652 1.356 . S
C1645 C1644 1.363 . S
C1645 C1651 1.363 . S
C1646 C1647 1.363 . S
C1646 C1651 1.379 . S
C1646 N1653 1.356 . S
C1647 C1646 1.363 . S
C1647 C1650 1.363 . S
N1648 C1650 1.356 . S
N1648 H1660 0.984 . S
N1648 H1661 0.985 . S
N1649 C1651 1.356 . S
N1649 H1654 0.984 . S
N1649 H1655 0.985 . S
C1650 C1644 1.379 . S
C1650 C1647 1.363 . S
C1650 N1648 1.356 . S
C1651 C1645 1.363 . S
C1651 C1646 1.379 . S
C1651 N1649 1.356 . S
N1652 C1644 1.356 . S
N1652 H1658 0.984 . S
N1652 H1659 0.984 . S
N1653 C1646 1.356 . S
N1653 H1656 0.984 . S
N1653 H1657 0.985 . S
H1654 N1649 0.984 . S
H1655 N1649 0.985 . S
H1656 N1653 0.984 . S
H1657 N1653 0.985 . S
H1658 N1652 0.984 . S
H1659 N1652 0.984 . S
H1660 N1648 0.984 . S
H1661 N1648 0.985 . S
C1662 C1663 1.363 . S
C1662 C1668 1.379 . S
C1662 N1670 1.356 . S
C1663 C1662 1.363 . S
C1663 C1669 1.363 . S
C1664 C1665 1.363 . S
C1664 C1669 1.379 . S
C1664 N1671 1.356 . S
C1665 C1664 1.363 . S
C1665 C1668 1.363 . S
N1666 C1668 1.356 . S
N1666 H1678 0.984 . S
N1666 H1679 0.985 . S
N1667 C1669 1.356 . S
N1667 H1672 0.984 . S
N1667 H1673 0.985 . S
C1668 C1662 1.379 . S
C1668 C1665 1.363 . S
C1668 N1666 1.356 . S
C1669 C1663 1.363 . S
C1669 C1664 1.379 . S
C1669 N1667 1.356 . S
N1670 C1662 1.356 . S
N1670 H1676 0.984 . S
N1670 H1677 0.984 . S
N1671 C1664 1.356 . S
N1671 H1674 0.984 . S
N1671 H1675 0.985 . S
H1672 N1667 0.984 . S
H1673 N1667 0.985 . S
H1674 N1671 0.984 . S
H1675 N1671 0.985 . S
H1676 N1670 0.984 . S
H1677 N1670 0.984 . S
H1678 N1666 0.984 . S
H1679 N1666 0.985 . S
C1680 C1681 1.363 . S
C1680 C1686 1.379 . S
C1680 N1688 1.356 . S
C1681 C1680 1.363 . S
C1681 C1687 1.363 . S
C1682 C1683 1.363 . S
C1682 C1687 1.379 . S
C1682 N1689 1.356 . S
C1683 C1682 1.363 . S
C1683 C1686 1.363 . S
N1684 C1686 1.356 . S
N1684 H1696 0.984 . S
N1684 H1697 0.985 . S
N1685 C1687 1.356 . S
N1685 H1690 0.984 . S
N1685 H1691 0.985 . S
C1686 C1680 1.379 . S
C1686 C1683 1.363 . S
C1686 N1684 1.356 . S
C1687 C1681 1.363 . S
C1687 C1682 1.379 . S
C1687 N1685 1.356 . S
N1688 C1680 1.356 . S
N1688 H1694 0.984 . S
N1688 H1695 0.984 . S
N1689 C1682 1.356 . S
N1689 H1692 0.984 . S
N1689 H1693 0.985 . S
H1690 N1685 0.984 . S
H1691 N1685 0.985 . S
H1692 N1689 0.984 . S
H1693 N1689 0.985 . S
H1694 N1688 0.984 . S
H1695 N1688 0.984 . S
H1696 N1684 0.984 . S
H1697 N1684 0.985 . S
C1698 C1699 1.363 . S
C1698 C1704 1.379 . S
C1698 N1706 1.356 . S
C1699 C1698 1.363 . S
C1699 C1705 1.363 . S
C1700 C1701 1.363 . S
C1700 C1705 1.379 . S
C1700 N1707 1.356 . S
C1701 C1700 1.363 . S
C1701 C1704 1.363 . S
N1702 C1704 1.356 . S
N1702 H1714 0.984 . S
N1702 H1715 0.985 . S
N1703 C1705 1.356 . S
N1703 H1708 0.984 . S
N1703 H1709 0.985 . S
C1704 C1698 1.379 . S
C1704 C1701 1.363 . S
C1704 N1702 1.356 . S
C1705 C1699 1.363 . S
C1705 C1700 1.379 . S
C1705 N1703 1.356 . S
N1706 C1698 1.356 . S
N1706 H1712 0.984 . S
N1706 H1713 0.984 . S
N1707 C1700 1.356 . S
N1707 H1710 0.984 . S
N1707 H1711 0.985 . S
H1708 N1703 0.984 . S
H1709 N1703 0.985 . S
H1710 N1707 0.984 . S
H1711 N1707 0.985 . S
H1712 N1706 0.984 . S
H1713 N1706 0.984 . S
H1714 N1702 0.984 . S
H1715 N1702 0.985 . S
C1716 C1717 1.363 . S
C1716 C1722 1.379 . S
C1716 N1724 1.356 . S
C1717 C1716 1.363 . S
C1717 C1723 1.363 . S
C1718 C1719 1.363 . S
C1718 C1723 1.379 . S
C1718 N1725 1.356 . S
C1719 C1718 1.363 . S
C1719 C1722 1.363 . S
N1720 C1722 1.356 . S
N1720 H1732 0.984 . S
N1720 H1733 0.985 . S
N1721 C1723 1.356 . S
N1721 H1726 0.984 . S
N1721 H1727 0.985 . S
C1722 C1716 1.379 . S
C1722 C1719 1.363 . S
C1722 N1720 1.356 . S
C1723 C1717 1.363 . S
C1723 C1718 1.379 . S
C1723 N1721 1.356 . S
N1724 C1716 1.356 . S
N1724 H1730 0.984 . S
N1724 H1731 0.984 . S
N1725 C1718 1.356 . S
N1725 H1728 0.984 . S
N1725 H1729 0.985 . S
H1726 N1721 0.984 . S
H1727 N1721 0.985 . S
H1728 N1725 0.984 . S
H1729 N1725 0.985 . S
H1730 N1724 0.984 . S
H1731 N1724 0.984 . S
H1732 N1720 0.984 . S
H1733 N1720 0.985 . S
C1734 C1735 1.363 . S
C1734 C1740 1.379 . S
C1734 N1742 1.356 . S
C1735 C1734 1.363 . S
C1735 C1741 1.363 . S
C1736 C1737 1.363 . S
C1736 C1741 1.379 . S
C1736 N1743 1.356 . S
C1737 C1736 1.363 . S
C1737 C1740 1.363 . S
N1738 C1740 1.356 . S
N1738 H1750 0.984 . S
N1738 H1751 0.985 . S
N1739 C1741 1.356 . S
N1739 H1744 0.984 . S
N1739 H1745 0.985 . S
C1740 C1734 1.379 . S
C1740 C1737 1.363 . S
C1740 N1738 1.356 . S
C1741 C1735 1.363 . S
C1741 C1736 1.379 . S
C1741 N1739 1.356 . S
N1742 C1734 1.356 . S
N1742 H1748 0.984 . S
N1742 H1749 0.984 . S
N1743 C1736 1.356 . S
N1743 H1746 0.984 . S
N1743 H1747 0.985 . S
H1744 N1739 0.984 . S
H1745 N1739 0.985 . S
H1746 N1743 0.984 . S
H1747 N1743 0.985 . S
H1748 N1742 0.984 . S
H1749 N1742 0.984 . S
H1750 N1738 0.984 . S
H1751 N1738 0.985 . S
C1752 C1753 1.363 . S
C1752 C1758 1.379 . S
C1752 N1760 1.356 . S
C1753 C1752 1.363 . S
C1753 C1759 1.363 . S
C1754 C1755 1.363 . S
C1754 C1759 1.379 . S
C1754 N1761 1.356 . S
C1755 C1754 1.363 . S
C1755 C1758 1.363 . S
N1756 C1758 1.356 . S
N1756 H1768 0.984 . S
N1756 H1769 0.985 . S
N1757 C1759 1.356 . S
N1757 H1762 0.984 . S
N1757 H1763 0.985 . S
C1758 C1752 1.379 . S
C1758 C1755 1.363 . S
C1758 N1756 1.356 . S
C1759 C1753 1.363 . S
C1759 C1754 1.379 . S
C1759 N1757 1.356 . S
N1760 C1752 1.356 . S
N1760 H1766 0.984 . S
N1760 H1767 0.984 . S
N1761 C1754 1.356 . S
N1761 H1764 0.984 . S
N1761 H1765 0.985 . S
H1762 N1757 0.984 . S
H1763 N1757 0.985 . S
H1764 N1761 0.984 . S
H1765 N1761 0.985 . S
H1766 N1760 0.984 . S
H1767 N1760 0.984 . S
H1768 N1756 0.984 . S
H1769 N1756 0.985 . S
C1770 C1771 1.363 . S
C1770 C1776 1.379 . S
C1770 N1778 1.356 . S
C1771 C1770 1.363 . S
C1771 C1777 1.363 . S
C1772 C1773 1.363 . S
C1772 C1777 1.379 . S
C1772 N1779 1.356 . S
C1773 C1772 1.363 . S
C1773 C1776 1.363 . S
N1774 C1776 1.356 . S
N1774 H1786 0.984 . S
N1774 H1787 0.985 . S
N1775 C1777 1.356 . S
N1775 H1780 0.984 . S
N1775 H1781 0.985 . S
C1776 C1770 1.379 . S
C1776 C1773 1.363 . S
C1776 N1774 1.356 . S
C1777 C1771 1.363 . S
C1777 C1772 1.379 . S
C1777 N1775 1.356 . S
N1778 C1770 1.356 . S
N1778 H1784 0.984 . S
N1778 H1785 0.984 . S
N1779 C1772 1.356 . S
N1779 H1782 0.984 . S
N1779 H1783 0.985 . S
H1780 N1775 0.984 . S
H1781 N1775 0.985 . S
H1782 N1779 0.984 . S
H1783 N1779 0.985 . S
H1784 N1778 0.984 . S
H1785 N1778 0.984 . S
H1786 N1774 0.984 . S
H1787 N1774 0.985 . S
C1788 C1789 1.363 . S
C1788 C1794 1.379 . S
C1788 N1796 1.356 . S
C1789 C1788 1.363 . S
C1789 C1795 1.363 . S
C1790 C1791 1.363 . S
C1790 C1795 1.379 . S
C1790 N1797 1.356 . S
C1791 C1790 1.363 . S
C1791 C1794 1.363 . S
N1792 C1794 1.356 . S
N1792 H1804 0.984 . S
N1792 H1805 0.985 . S
N1793 C1795 1.356 . S
N1793 H1798 0.984 . S
N1793 H1799 0.985 . S
C1794 C1788 1.379 . S
C1794 C1791 1.363 . S
C1794 N1792 1.356 . S
C1795 C1789 1.363 . S
C1795 C1790 1.379 . S
C1795 N1793 1.356 . S
N1796 C1788 1.356 . S
N1796 H1802 0.984 . S
N1796 H1803 0.984 . S
N1797 C1790 1.356 . S
N1797 H1800 0.984 . S
N1797 H1801 0.985 . S
H1798 N1793 0.984 . S
H1799 N1793 0.985 . S
H1800 N1797 0.984 . S
H1801 N1797 0.985 . S
H1802 N1796 0.984 . S
H1803 N1796 0.984 . S
H1804 N1792 0.984 . S
H1805 N1792 0.985 . S
C1806 C1807 1.363 . S
C1806 C1812 1.379 . S
C1806 N1814 1.356 . S
C1807 C1806 1.363 . S
C1807 C1813 1.363 . S
C1808 C1809 1.363 . S
C1808 C1813 1.379 . S
C1808 N1815 1.356 . S
C1809 C1808 1.363 . S
C1809 C1812 1.363 . S
N1810 C1812 1.356 . S
N1810 H1822 0.984 . S
N1810 H1823 0.985 . S
N1811 C1813 1.356 . S
N1811 H1816 0.984 . S
N1811 H1817 0.985 . S
C1812 C1806 1.379 . S
C1812 C1809 1.363 . S
C1812 N1810 1.356 . S
C1813 C1807 1.363 . S
C1813 C1808 1.379 . S
C1813 N1811 1.356 . S
N1814 C1806 1.356 . S
N1814 H1820 0.984 . S
N1814 H1821 0.984 . S
N1815 C1808 1.356 . S
N1815 H1818 0.984 . S
N1815 H1819 0.985 . S
H1816 N1811 0.984 . S
H1817 N1811 0.985 . S
H1818 N1815 0.984 . S
H1819 N1815 0.985 . S
H1820 N1814 0.984 . S
H1821 N1814 0.984 . S
H1822 N1810 0.984 . S
H1823 N1810 0.985 . S
C529 C21 1.560 . S
C531 C406 1.536 . S
C547 C436 1.536 . S
C549 C43 1.560 . S
C565 C370 1.536 . S
C567 C51 1.560 1_565 S
C583 C87 1.560 1_545 S
C585 C392 1.536 . S
C601 C502 1.536 . S
C603 C95 1.560 . S
C619 C472 1.536 . S
C621 C125 1.560 1_554 S
C637 C516 1.536 . S
C639 C139 1.560 . S
C655 C448 1.536 . S
C657 C161 1.560 1_556 S
C673 C183 1.560 . S
C675 C296 1.536 . S
C691 C205 1.560 1_455 S
C693 C348 1.536 . S
C709 C235 1.560 . S
C711 C318 1.536 . S
C727 C282 1.536 . S
C729 C249 1.560 1_655 S
C745 C142 1.532 . S
C747 C279 1.555 . S
C763 C307 1.555 . S
C765 C164 1.532 . S
C781 C98 1.532 . S
C783 C329 1.555 1_545 S
C799 C118 1.532 . S
C801 C345 1.555 1_565 S
C817 C367 1.555 . S
C819 C228 1.532 . S
C835 C208 1.532 . S
C837 C389 1.555 1_556 S
C853 C252 1.532 . S
C855 C417 1.555 . S
C871 C433 1.555 1_554 S
C873 C186 1.532 . S
C889 C447 1.555 . S
C891 C40 1.532 . S
C907 C483 1.555 1_655 S
C909 C84 1.532 . S
C925 C499 1.555 . S
C927 C54 1.532 . S
C943 C18 1.532 . S
C945 C527 1.555 1_455 S
C961 C428 1.268 1_554 S
C963 C10 1.262 . S
C979 C404 1.268 . S
C981 C32 1.262 . S
C997 C384 1.268 1_556 S
C999 C52 1.262 . S
C1015 C362 1.268 . S
C1017 C76 1.262 . S
C1033 C96 1.262 . S
C1035 C514 1.268 1_455 S
C1051 C128 1.262 . S
C1053 C458 1.268 . S
C1069 C494 1.268 . S
C1071 C140 1.262 . S
C1087 C470 1.268 1_655 S
C1089 C162 1.262 . S
C1105 C316 1.268 1_545 S
C1107 C184 1.262 . S
C1123 C206 1.262 . S
C1125 C274 1.268 . S
C1141 C294 1.268 . S
C1143 C238 1.262 . S
C1159 C340 1.268 1_565 S
C1161 C250 1.262 . S
C1177 C272 1.267 . S
C1179 C172 1.277 1_556 S
C1195 C150 1.277 . S
C1197 C304 1.267 . S
C1213 C326 1.267 . S
C1215 C120 1.277 1_554 S
C1231 C338 1.267 . S
C1233 C106 1.277 . S
C1249 C260 1.277 1_655 S
C1251 C360 1.267 . S
C1267 C194 1.277 . S
C1269 C382 1.267 . S
C1285 C414 1.267 . S
C1287 C230 1.277 . S
C1303 C426 1.267 . S
C1305 C216 1.277 1_455 S
C1321 C62 1.277 1_565 S
C1323 C450 1.267 . S
C1339 C8 1.277 . S
C1341 C480 1.267 . S
C1357 C492 1.267 . S
C1359 C30 1.277 . S
C1375 C524 1.267 . S
C1377 C74 1.277 1_545 S
C1393 C7 1.128 . S
C1395 C109 1.116 . S
C1411 C117 1.116 . S
C1413 C29 1.128 . S
C1429 C153 1.116 . S
C1431 C59 1.128 . S
C1447 C175 1.116 . S
C1449 C73 1.128 . S
C1465 C197 1.116 . S
C1467 C103 1.128 . S
C1483 C131 1.128 . S
C1485 C263 1.116 . S
C1501 C147 1.128 . S
C1503 C219 1.116 . S
C1519 C227 1.116 . S
C1521 C169 1.128 . S
C1537 C191 1.128 . S
C1539 C15 1.116 . S
C1555 C213 1.128 . S
C1557 C65 1.116 . S
C1573 C81 1.116 . S
C1575 C241 1.128 . S
C1591 C37 1.116 . S
C1593 C257 1.128 . S
C1609 C271 1.127 . S
C1611 C373 1.121 . S
C1627 C395 1.121 . S
C1629 C301 1.127 . S
C1645 C403 1.121 . S
C1647 C323 1.127 . S
C1663 C439 1.121 . S
C1665 C337 1.127 . S
C1681 C359 1.127 . S
C1683 C455 1.121 . S
C1699 C513 1.121 . S
C1701 C381 1.127 . S
C1717 C411 1.127 . S
C1719 C469 1.121 . S
C1735 C425 1.127 . S
C1737 C505 1.121 . S
C1753 C285 1.121 . S
C1755 C461 1.127 . S
C1771 C315 1.121 . S
C1773 C477 1.127 . S
C1789 C351 1.121 . S
C1791 C491 1.127 . S
C1807 C293 1.121 . S
C1809 C521 1.127 . S
