# Generated by pormake.
# Topology bcg, (8)-cn, num edge types: 1
# Building blocks:
#     Node 0, Type 0, BuildingBlock: TAGTUT_clean_sbu_3, # of connection points: 8
#     Node 1, Type 0, BuildingBlock: TAGTUT_clean_sbu_3, # of connection points: 8
#     Node 2, Type 0, BuildingBlock: TAGTUT_clean_sbu_3, # of connection points: 8
#     Node 3, Type 0, BuildingBlock: TAGTUT_clean_sbu_3, # of connection points: 8
#     Edge 4, Type (0, 0), BuildingBlock: ZUJKAS_clean_linker_0, # of connection points: 2
#     Edge 5, Type (0, 0), BuildingBlock: ZUJKAS_clean_linker_0, # of connection points: 2
#     Edge 6, Type (0, 0), BuildingBlock: ZUJKAS_clean_linker_0, # of connection points: 2
#     Edge 7, Type (0, 0), BuildingBlock: ZUJKAS_clean_linker_0, # of connection points: 2
#     Edge 8, Type (0, 0), BuildingBlock: ZUJKAS_clean_linker_0, # of connection points: 2
#     Edge 9, Type (0, 0), BuildingBlock: ZUJKAS_clean_linker_0, # of connection points: 2
#     Edge 10, Type (0, 0), BuildingBlock: ZUJKAS_clean_linker_0, # of connection points: 2
#     Edge 11, Type (0, 0), BuildingBlock: ZUJKAS_clean_linker_0, # of connection points: 2
#     Edge 12, Type (0, 0), BuildingBlock: ZUJKAS_clean_linker_0, # of connection points: 2
#     Edge 13, Type (0, 0), BuildingBlock: ZUJKAS_clean_linker_0, # of connection points: 2
#     Edge 14, Type (0, 0), BuildingBlock: ZUJKAS_clean_linker_0, # of connection points: 2
#     Edge 15, Type (0, 0), BuildingBlock: ZUJKAS_clean_linker_0, # of connection points: 2
#     Edge 16, Type (0, 0), BuildingBlock: ZUJKAS_clean_linker_0, # of connection points: 2
#     Edge 17, Type (0, 0), BuildingBlock: ZUJKAS_clean_linker_0, # of connection points: 2
#     Edge 18, Type (0, 0), BuildingBlock: ZUJKAS_clean_linker_0, # of connection points: 2
#     Edge 19, Type (0, 0), BuildingBlock: ZUJKAS_clean_linker_0, # of connection points: 2
# Relax obj value: 0.119
# Max RMSD: 0.246
# Mean RMSD: 0.246
data_MOF--net-bcg--node1-TAGTUT_clean_sbu_3--edge1-ZUJKAS_clean_linker_0
_symmetry_space_group_name_H-M    P1
_symmetry_Int_Tables_number       1
_symmetry_cell_setting            triclinic
loop_
_symmetry_equiv_pos_as_xyz
'x, y, z'
_cell_length_a     19.100097
_cell_length_b     35.636187
_cell_length_c     40.682372
_cell_angle_alpha  90.689165
_cell_angle_beta   89.955181
_cell_angle_gamma 90.016353
loop_
_atom_site_label
_atom_site_type_symbol
_atom_site_fract_x
_atom_site_fract_y
_atom_site_fract_z
_atom_type_partial_charge
C0 C 0.38253 0.21387 0.01038 0.0
C1 C 0.27453 0.25736 0.12412 0.0
C2 C 0.08103 0.24671 0.07444 0.0
Mg3 Mg 0.31992 0.21978 0.93666 0.0
Mg4 Mg 0.21692 0.29014 0.91559 0.0
O5 O 0.23255 0.25003 0.94402 0.0
Mg6 Mg 0.24062 0.25847 0.99272 0.0
O7 O 0.2531 0.2627 0.04142 0.0
Mg8 Mg 0.23879 0.20898 0.054 0.0
Mg9 Mg 0.20581 0.29925 0.06569 0.0
C10 C 0.09563 0.30142 0.96871 0.0
O11 O 0.27957 0.31975 0.99003 0.0
O12 O 0.28021 0.20867 0.88331 0.0
O13 O 0.23787 0.34703 0.03649 0.0
O14 O 0.38155 0.27108 0.9186 0.0
O15 O 0.20767 0.25634 0.87143 0.0
O16 O 0.31361 0.32134 0.9121 0.0
O17 O 0.20351 0.19842 0.9998 0.0
O18 O 0.25408 0.17119 0.95606 0.0
C19 C 0.21511 0.16948 0.98164 0.0
C20 C 0.23788 0.22531 0.8637 0.0
O21 O 0.12948 0.28277 0.99046 0.0
O22 O 0.27281 0.22647 0.10736 0.0
O23 O 0.12157 0.30954 0.94043 0.0
O24 O 0.12374 0.21934 0.07022 0.0
O25 O 0.25398 0.28864 0.11228 0.0
O26 O 0.10021 0.28068 0.07058 0.0
O27 O 0.34821 0.23418 0.99041 0.0
O28 O 0.35429 0.20196 0.03693 0.0
C29 C 0.3739 0.30577 0.91175 0.0
C30 C 0.27016 0.34868 0.00879 0.0
C31 C 0.88928 0.71219 0.01723 0.0
C32 C 0.77444 0.76242 0.12771 0.0
C33 C 0.58477 0.74888 0.07597 0.0
Mg34 Mg 0.82934 0.71349 0.94272 0.0
Mg35 Mg 0.72756 0.78286 0.91837 0.0
O36 O 0.74073 0.74335 0.94784 0.0
Mg37 Mg 0.74798 0.75495 0.99611 0.0
O38 O 0.75906 0.76263 0.0446 0.0
Mg39 Mg 0.74342 0.70983 0.05951 0.0
Mg40 Mg 0.71028 0.80085 0.06624 0.0
C41 C 0.60382 0.79643 0.96962 0.0
O42 O 0.78741 0.81535 0.99041 0.0
O43 O 0.79191 0.69973 0.88931 0.0
O44 O 0.74389 0.84659 0.03459 0.0
O45 O 0.8909 0.76439 0.92349 0.0
O46 O 0.72412 0.74838 0.87435 0.0
O47 O 0.8235 0.81478 0.91681 0.0
O48 O 0.71121 0.69563 0.00559 0.0
O49 O 0.76465 0.66538 0.96422 0.0
C50 C 0.72398 0.66536 0.98934 0.0
C51 C 0.75323 0.7166 0.86825 0.0
O52 O 0.63723 0.77917 0.99234 0.0
O53 O 0.77384 0.73071 0.1122 0.0
O54 O 0.63011 0.80275 0.94106 0.0
O55 O 0.62764 0.72129 0.07391 0.0
O56 O 0.75504 0.79308 0.11427 0.0
O57 O 0.6042 0.78243 0.07021 0.0
O58 O 0.85545 0.73084 0.9959 0.0
O59 O 0.8601 0.70204 0.04416 0.0
C60 C 0.88366 0.79913 0.91667 0.0
C61 C 0.77738 0.84569 0.00715 0.0
C62 C 0.38284 0.77791 0.49745 0.0
C63 C 0.27195 0.73515 0.38371 0.0
C64 C 0.08006 0.74498 0.43498 0.0
Mg65 Mg 0.31978 0.77348 0.57142 0.0
Mg66 Mg 0.21704 0.70297 0.5931 0.0
O67 O 0.23287 0.74266 0.56424 0.0
Mg68 Mg 0.24103 0.73357 0.51563 0.0
O69 O 0.25323 0.72906 0.46679 0.0
Mg70 Mg 0.23814 0.78279 0.45438 0.0
Mg71 Mg 0.20553 0.69261 0.44248 0.0
C72 C 0.09615 0.69072 0.53993 0.0
O73 O 0.27975 0.67225 0.51843 0.0
O74 O 0.27895 0.78542 0.62464 0.0
O75 O 0.23864 0.64504 0.47179 0.0
O76 O 0.38098 0.7227 0.59054 0.0
O77 O 0.20697 0.73753 0.63676 0.0
O78 O 0.3141 0.67212 0.59751 0.0
O79 O 0.20413 0.79336 0.50847 0.0
O80 O 0.25563 0.82225 0.55095 0.0
C81 C 0.21573 0.82303 0.52566 0.0
C82 C 0.23657 0.76879 0.6443 0.0
O83 O 0.12998 0.7092 0.51804 0.0
O84 O 0.27073 0.76567 0.40095 0.0
O85 O 0.12185 0.68308 0.56835 0.0
O86 O 0.12284 0.77237 0.43886 0.0
O87 O 0.25197 0.70359 0.39529 0.0
O88 O 0.09947 0.71103 0.43866 0.0
O89 O 0.3488 0.75793 0.51781 0.0
O90 O 0.35408 0.78963 0.47095 0.0
C91 C 0.37401 0.68813 0.59795 0.0
C92 C 0.27061 0.64336 0.49957 0.0
C93 C 0.88351 0.27833 0.49496 0.0
C94 C 0.77466 0.23115 0.38255 0.0
C95 C 0.58179 0.2427 0.43257 0.0
Mg96 Mg 0.82151 0.27464 0.5689 0.0
Mg97 Mg 0.71909 0.20464 0.59146 0.0
O98 O 0.73374 0.2444 0.56249 0.0
Mg99 Mg 0.74198 0.23421 0.51407 0.0
O100 O 0.75435 0.22829 0.46546 0.0
Mg101 Mg 0.73937 0.28153 0.45163 0.0
Mg102 Mg 0.70713 0.19085 0.44219 0.0
C103 C 0.59708 0.19209 0.53922 0.0
O104 O 0.78102 0.17314 0.51835 0.0
O105 O 0.78195 0.2872 0.62224 0.0
O106 O 0.73957 0.14416 0.47263 0.0
O107 O 0.8829 0.22368 0.5878 0.0
O108 O 0.7114 0.23902 0.6353 0.0
O109 O 0.81544 0.17326 0.59443 0.0
O110 O 0.70516 0.29388 0.50565 0.0
O111 O 0.75716 0.3231 0.54792 0.0
C112 C 0.71725 0.32374 0.52259 0.0
C113 C 0.7408 0.27046 0.64239 0.0
O114 O 0.63088 0.21005 0.51698 0.0
O115 O 0.77277 0.26247 0.39866 0.0
O116 O 0.62319 0.18473 0.56759 0.0
O117 O 0.62431 0.27029 0.43603 0.0
O118 O 0.75468 0.20012 0.39513 0.0
O119 O 0.60127 0.20893 0.4372 0.0
O120 O 0.84953 0.25857 0.5155 0.0
O121 O 0.85497 0.28933 0.46818 0.0
C122 C 0.87557 0.18898 0.5947 0.0
C123 C 0.77176 0.14357 0.50038 0.0
H124 H 0.45482 0.21872 0.95299 0.0
H125 H 0.57888 0.2333 0.9471 0.0
H126 H 0.60757 0.22046 0.05151 0.0
H127 H 0.48277 0.2063 0.0577 0.0
H128 H 0.6485 0.29152 0.02609 0.0
H129 H 0.76238 0.17351 0.95364 0.0
H130 H 0.68271 0.19202 0.93692 0.0
H131 H 0.68123 0.16935 0.97615 0.0
C132 C 0.48785 0.21797 0.97457 0.0
C133 C 0.45901 0.2117 0.00583 0.0
C134 C 0.5588 0.22617 0.97115 0.0
C135 C 0.60217 0.22798 0.99888 0.0
C136 C 0.5747 0.21913 0.02984 0.0
H137 H 0.02524 0.30607 0.02702 0.0
H138 H 0.9011 0.29303 0.03505 0.0
C139 C 0.5036 0.21072 0.03327 0.0
C140 C 0.67368 0.2433 0.99589 0.0
H141 H 0.83005 0.22943 0.95733 0.0
C142 C 0.68857 0.27785 0.01132 0.0
C143 C 0.72519 0.22553 0.9763 0.0
C144 C 0.71248 0.18789 0.96001 0.0
C145 C 0.75352 0.29555 0.00711 0.0
C146 C 0.80495 0.27787 0.98734 0.0
C147 C 0.79012 0.24316 0.97215 0.0
C148 C 0.87597 0.29361 0.98317 0.0
C149 C 0.76588 0.33333 0.02321 0.0
C150 C 0.90265 0.29953 0.9515 0.0
C151 C 0.97399 0.3063 0.94692 0.0
C152 C 0.01974 0.30685 0.97399 0.0
C153 C 0.99156 0.30472 0.0058 0.0
C154 C 0.92037 0.29775 0.01039 0.0
H155 H 0.7158 0.34787 0.02894 0.0
H156 H 0.79434 0.32934 0.04668 0.0
H157 H 0.79804 0.35167 0.0073 0.0
H158 H 0.86904 0.29658 0.93017 0.0
H159 H -0.0061 0.30785 0.92204 0.0
H160 H 0.98697 0.7138 0.06615 0.0
H161 H 0.1101 0.73147 0.05992 0.0
H162 H 0.08784 0.72702 0.95442 0.0
H163 H 0.96458 0.7102 0.96049 0.0
H164 H 0.22677 0.7037 0.02968 0.0
H165 H 0.14324 0.83544 0.97035 0.0
H166 H 0.0818 0.8038 0.98919 0.0
H167 H 0.11426 0.79448 0.94834 0.0
C168 C 0.00889 0.71546 0.04165 0.0
C169 C 0.96607 0.71114 0.01379 0.0
C170 C 0.07906 0.7259 0.03812 0.0
C171 C 0.1072 0.73188 0.00673 0.0
C172 C 0.06638 0.7238 0.97889 0.0
H173 H 0.50076 0.79052 0.92382 0.0
H174 H 0.37644 0.78054 0.93503 0.0
C175 C -0.00378 0.71379 0.98238 0.0
C176 C 0.17783 0.74842 0.00304 0.0
H177 H 0.26564 0.8215 0.9683 0.0
C178 C 0.23529 0.72962 0.01655 0.0
C179 C 0.18854 0.78257 0.98625 0.0
C180 C 0.12855 0.80546 0.97304 0.0
C181 C 0.30366 0.7432 0.01249 0.0
C182 C 0.31443 0.77663 0.99472 0.0
C183 C 0.25694 0.79589 0.98186 0.0
C184 C 0.38557 0.79044 0.98743 0.0
C185 C 0.36399 0.72104 0.02634 0.0
C186 C 0.43048 0.80184 0.01288 0.0
C187 C 0.50141 0.8078 0.00648 0.0
C188 C 0.52819 0.80235 0.97463 0.0
C189 C 0.48161 0.79491 0.94864 0.0
C190 C 0.41068 0.78891 0.95504 0.0
H191 H 0.34789 0.69238 0.0337 0.0
H192 H 0.40719 0.71861 0.00816 0.0
H193 H 0.38465 0.73583 0.04844 0.0
H194 H 0.41136 0.80421 0.03789 0.0
H195 H 0.53594 0.81483 0.02664 0.0
H196 H 0.45725 0.7754 0.55432 0.0
H197 H 0.58113 0.75976 0.55968 0.0
H198 H 0.60465 0.76429 0.45429 0.0
H199 H 0.48113 0.78084 0.44888 0.0
H200 H 0.63332 0.69538 0.53466 0.0
H201 H 0.78139 0.81562 0.48414 0.0
H202 H 0.68998 0.81895 0.49505 0.0
H203 H 0.71584 0.79767 0.45659 0.0
C204 C 0.4894 0.77429 0.5324 0.0
C205 C 0.45956 0.77923 0.50119 0.0
C206 C 0.56006 0.76518 0.53547 0.0
C207 C 0.60212 0.7608 0.5074 0.0
C208 C 0.57356 0.76817 0.47634 0.0
H209 H 0.02807 0.68038 0.48154 0.0
H210 H 0.90336 0.69129 0.47177 0.0
C211 C 0.5029 0.77772 0.47327 0.0
C212 C 0.67311 0.74454 0.51047 0.0
H213 H 0.84546 0.75953 0.49308 0.0
C214 C 0.67978 0.7095 0.52568 0.0
C215 C 0.73346 0.76276 0.4984 0.0
C216 C 0.73006 0.80098 0.4829 0.0
C217 C 0.74524 0.69225 0.52929 0.0
C218 C 0.80556 0.71067 0.51756 0.0
C219 C 0.79886 0.74536 0.50183 0.0
C220 C 0.87689 0.69613 0.52337 0.0
C221 C 0.74924 0.65443 0.54544 0.0
C222 C 0.90258 0.69362 0.55557 0.0
C223 C 0.97386 0.68774 0.5611 0.0
C224 C 0.02054 0.68475 0.53446 0.0
C225 C -0.00645 0.68375 0.50236 0.0
C226 C 0.92234 0.68973 0.49681 0.0
H227 H 0.69834 0.63937 0.54412 0.0
H228 H 0.79026 0.63659 0.53385 0.0
H229 H 0.7627 0.65842 0.57179 0.0
H230 H 0.86852 0.69895 0.57641 0.0
H231 H 0.99303 0.68884 0.58615 0.0
H232 H 0.98318 0.28425 0.4471 0.0
H233 H 0.10788 0.26978 0.45325 0.0
H234 H 0.08071 0.26121 0.55811 0.0
H235 H 0.95648 0.27588 0.55228 0.0
H236 H 0.21159 0.29778 0.53416 0.0
H237 H 0.15365 0.15725 0.47916 0.0
H238 H 0.12544 0.19764 0.45658 0.0
H239 H 0.08594 0.18753 0.49551 0.0
C240 C 0.00424 0.28057 0.47156 0.0
C241 C 0.96001 0.28067 0.4992 0.0
C242 C 0.07521 0.27193 0.47498 0.0
C243 C 0.10263 0.26366 0.50603 0.0
C244 C 0.06006 0.26718 0.53393 0.0
H245 H 0.49572 0.18931 0.5864 0.0
H246 H 0.37133 0.20193 0.57805 0.0
C247 C 0.9892 0.27557 0.53054 0.0
C248 C 0.17376 0.24817 0.50936 0.0
H249 H 0.27033 0.16899 0.49512 0.0
C250 C 0.22467 0.2697 0.52559 0.0
C251 C 0.18999 0.21143 0.49823 0.0
C252 C 0.13596 0.18685 0.48157 0.0
C253 C 0.29215 0.25553 0.53073 0.0
C254 C 0.30817 0.21855 0.52005 0.0
C255 C 0.25741 0.19715 0.50351 0.0
C256 C 0.37845 0.20241 0.52498 0.0
C257 C 0.34612 0.28048 0.54705 0.0
C258 C 0.42186 0.19537 0.49782 0.0
C259 C 0.49269 0.18756 0.50254 0.0
C260 C 0.52106 0.18703 0.53436 0.0
C261 C 0.47565 0.18979 0.56151 0.0
C262 C 0.40471 0.19746 0.55681 0.0
H263 H 0.33028 0.31047 0.54692 0.0
H264 H 0.35262 0.27197 0.57302 0.0
H265 H 0.39767 0.2777 0.53461 0.0
H266 H 0.40209 0.19838 0.47304 0.0
H267 H 0.52604 0.18423 0.48131 0.0
H268 H 0.61307 0.65759 0.0316 0.0
H269 H 0.53458 0.60358 0.03581 0.0
H270 H 0.66134 0.54242 0.96566 0.0
H271 H 0.74048 0.59581 0.96161 0.0
H272 H 0.45907 0.57372 0.98254 0.0
H273 H 0.62995 0.46559 0.03772 0.0
H274 H 0.65105 0.51498 0.03909 0.0
H275 H 0.66771 0.48766 0.00246 0.0
C276 C 0.62525 0.63234 0.01767 0.0
C277 C 0.68305 0.63107 0.99621 0.0
C278 C 0.5801 0.6016 0.01998 0.0
C279 C 0.59243 0.56898 1.00118 0.0
C280 C 0.65152 0.5671 0.98078 0.0
H281 H 0.37681 0.35931 0.965 0.0
H282 H 0.44981 0.41514 0.95958 0.0
C283 C 0.69657 0.59776 0.97841 0.0
C284 C 0.54089 0.538 1.00082 0.0
H285 H 0.52316 0.44413 0.01391 0.0
C286 C 0.47279 0.54542 0.98965 0.0
C287 C 0.55926 0.50113 0.00987 0.0
C288 C 0.63077 0.49183 0.02325 0.0
C289 C 0.42283 0.5167 0.98667 0.0
C290 C 0.44139 0.4798 0.99551 0.0
C291 C 0.50937 0.47244 0.00683 0.0
C292 C 0.39057 0.44849 0.99461 0.0
C293 C 0.35114 0.52591 0.97347 0.0
C294 C 0.33197 0.44916 0.01538 0.0
C295 C 0.28974 0.41739 0.0183 0.0
C296 C 0.30569 0.38429 1.00064 0.0
C297 C 0.36234 0.38442 0.97854 0.0
C298 C 0.40455 0.41622 0.97564 0.0
H299 H 0.35124 0.55264 0.95969 0.0
H300 H 0.33162 0.5031 0.95705 0.0
H301 H 0.314 0.52901 0.99431 0.0
H302 H 0.32091 0.47359 0.03062 0.0
H303 H 0.24656 0.41824 0.03557 0.0
H304 H 0.60891 0.33298 0.47918 0.0
H305 H 0.53194 0.38758 0.47475 0.0
H306 H 0.65516 0.44645 0.54766 0.0
H307 H 0.7328 0.3925 0.55194 0.0
H308 H 0.45327 0.41721 0.52711 0.0
H309 H 0.63177 0.5248 0.47627 0.0
H310 H 0.6515 0.47526 0.47463 0.0
H311 H 0.6659 0.50185 0.51187 0.0
C312 C 0.62063 0.35784 0.49372 0.0
C313 C 0.67704 0.35832 0.51595 0.0
C314 C 0.57635 0.38893 0.49127 0.0
C315 C 0.58817 0.42109 0.51073 0.0
C316 C 0.6458 0.42215 0.53203 0.0
H317 H 0.37401 0.63207 0.54496 0.0
H318 H 0.44598 0.57596 0.55115 0.0
C319 C 0.68999 0.39115 0.53452 0.0
C320 C 0.53758 0.45253 0.51068 0.0
H321 H 0.52362 0.54673 0.49831 0.0
C322 C 0.46841 0.4455 0.52058 0.0
C323 C 0.55776 0.48939 0.50241 0.0
C324 C 0.6306 0.49831 0.49041 0.0
C325 C 0.41903 0.47457 0.52296 0.0
C326 C 0.43933 0.51145 0.51481 0.0
C327 C 0.50845 0.51844 0.50485 0.0
C328 C 0.38919 0.54308 0.51491 0.0
C329 C 0.34604 0.46573 0.53477 0.0
C330 C 0.33235 0.54282 0.49313 0.0
C331 C 0.29079 0.57474 0.48971 0.0
C332 C 0.30563 0.60765 0.50788 0.0
C333 C 0.36051 0.60715 0.53091 0.0
C334 C 0.4021 0.57518 0.53429 0.0
H335 H 0.34438 0.43896 0.54847 0.0
H336 H 0.32552 0.48858 0.55088 0.0
H337 H 0.31074 0.46287 0.51324 0.0
H338 H 0.32218 0.51855 0.47757 0.0
H339 H 0.24898 0.57414 0.47174 0.0
H340 H 0.11901 0.14826 0.93732 0.0
H341 H 0.03832 0.09524 0.93995 0.0
H342 H 0.12812 0.06355 0.03303 0.0
H343 H 0.2057 0.11862 0.03133 0.0
H344 H 0.0581 0.02531 0.93832 0.0
H345 H 0.92852 0.05786 0.05689 0.0
H346 H 0.9867 0.09054 0.03732 0.0
H347 H 0.02123 0.05303 0.06187 0.0
C348 C 0.12083 0.13007 0.95847 0.0
C349 C 0.16796 0.13723 0.98418 0.0
C350 C 0.07494 0.09976 0.95994 0.0
C351 C 0.07622 0.07553 0.98689 0.0
C352 C 0.12446 0.08241 0.01245 0.0
H353 H 0.90498 0.85045 0.97829 0.0
H354 H 0.97507 0.90678 0.97085 0.0
C355 C 0.1692 0.11354 0.0114 0.0
C356 C 0.02832 0.04265 0.98737 0.0
H357 H 0.9097 0.99643 0.03471 0.0
C358 C 0.02511 0.01925 0.95932 0.0
C359 C 0.98409 0.03502 0.0144 0.0
C360 C 0.97968 0.06069 0.04413 0.0
C361 C 0.97961 0.98837 0.95764 0.0
C362 C 0.93858 0.97942 0.98546 0.0
C363 C 0.94132 0.00302 0.01338 0.0
C364 C 0.89366 0.94538 0.98673 0.0
C365 C 0.975 0.96645 0.92569 0.0
C366 C 0.82464 0.94792 0.99863 0.0
C367 C 0.7853 0.91551 0.004 0.0
C368 C 0.81369 0.88005 0.99683 0.0
C369 C 0.8813 0.87753 0.98339 0.0
C370 C 0.92138 0.90983 0.97896 0.0
H371 H 0.98742 0.98451 0.90438 0.0
H372 H 0.014 0.94338 0.92585 0.0
H373 H 0.92212 0.95421 0.92191 0.0
H374 H 0.80192 0.97496 0.00477 0.0
H375 H 0.73333 0.91811 0.01448 0.0
H376 H 0.74314 0.07261 0.47813 0.0
H377 H 0.81535 0.01667 0.48509 0.0
H378 H 0.95456 0.07917 0.54874 0.0
H379 H 0.88281 0.13513 0.54189 0.0
H380 H 0.95412 0.01472 0.46511 0.0
H381 H 0.932 0.98045 0.59749 0.0
H382 H 0.87029 0.0106 0.577 0.0
H383 H 0.95422 0.02848 0.58959 0.0
C384 C 0.78819 0.07423 0.49424 0.0
C385 C 0.80705 0.10831 0.5096 0.0
C386 C 0.8294 0.04225 0.49815 0.0
C387 C 0.89003 0.04373 0.51755 0.0
C388 C 0.90722 0.07719 0.53418 0.0
H389 H 0.23588 0.89284 0.55242 0.0
H390 H 0.15881 0.94723 0.54814 0.0
C391 C 0.86592 0.10918 0.53034 0.0
C392 C 0.93901 0.01157 0.51749 0.0
H393 H 0.02134 0.94905 0.56711 0.0
C394 C 0.96849 0.00014 0.48737 0.0
C395 C 0.95809 0.99297 0.54661 0.0
C396 C 0.92662 0.00348 0.57949 0.0
C397 C 0.01747 0.97088 0.48561 0.0
C398 C 0.03637 0.95212 0.5147 0.0
C399 C 0.00683 0.96356 0.54484 0.0
C400 C 0.08627 0.92033 0.51452 0.0
C401 C 0.04976 0.96099 0.45276 0.0
C402 C 0.07171 0.88741 0.4965 0.0
C403 C 0.11605 0.85635 0.49862 0.0
C404 C 0.17519 0.85752 0.51919 0.0
C405 C 0.19073 0.89097 0.53638 0.0
C406 C 0.14663 0.92205 0.53408 0.0
H407 H 0.04518 0.98444 0.43514 0.0
H408 H 0.10594 0.95362 0.45541 0.0
H409 H 0.02204 0.93637 0.44204 0.0
H410 H 0.02469 0.88522 0.48174 0.0
H411 H 0.1021 0.83091 0.48534 0.0
H412 H 0.52651 0.30948 0.41219 0.0
H413 H 0.44641 0.31642 0.36603 0.0
H414 H 0.40843 0.19712 0.36527 0.0
H415 H 0.48671 0.18999 0.41183 0.0
H416 H 0.49285 0.28237 0.31059 0.0
H417 H 0.22137 0.23562 0.33433 0.0
H418 H 0.28088 0.2486 0.36705 0.0
H419 H 0.28516 0.20259 0.34843 0.0
C420 C 0.49872 0.28491 0.40323 0.0
C421 C 0.51491 0.24899 0.415 0.0
C422 C 0.45293 0.28895 0.37674 0.0
C423 C 0.42224 0.25723 0.36184 0.0
C424 C 0.431 0.22207 0.37642 0.0
H425 H 0.3025 0.19639 0.16282 0.0
H426 H 0.33518 0.19693 0.22116 0.0
C427 C 0.47639 0.21803 0.40305 0.0
C428 C 0.39511 0.25949 0.32778 0.0
H429 H 0.25888 0.23477 0.27763 0.0
C430 C 0.44116 0.27257 0.30352 0.0
C431 C 0.32827 0.246 0.31847 0.0
C432 C 0.27585 0.23274 0.34351 0.0
C433 C 0.42291 0.27182 0.2702 0.0
C434 C 0.35649 0.258 0.26085 0.0
C435 C 0.30996 0.24518 0.28498 0.0
C436 C 0.33457 0.25743 0.22601 0.0
C437 C 0.47557 0.28489 0.24511 0.0
C438 C 0.32355 0.29125 0.20964 0.0
C439 C 0.30529 0.2911 0.17646 0.0
C440 C 0.29754 0.25704 0.15892 0.0
C441 C 0.30857 0.22309 0.17548 0.0
C442 C 0.32667 0.22332 0.20883 0.0
H443 H 0.5291 0.28725 0.2556 0.0
H444 H 0.47717 0.26534 0.22366 0.0
H445 H 0.45991 0.31294 0.23612 0.0
H446 H 0.32912 0.31783 0.22258 0.0
H447 H 0.297 0.31779 0.16463 0.0
H448 H 0.48575 0.80187 0.0913 0.0
H449 H 0.40526 0.79848 0.13768 0.0
H450 H 0.45196 0.681 0.14827 0.0
H451 H 0.53249 0.68383 0.10174 0.0
H452 H 0.29879 0.71549 0.16802 0.0
H453 H 0.54118 0.77684 0.22309 0.0
H454 H 0.50818 0.79699 0.1858 0.0
H455 H 0.54286 0.75025 0.18507 0.0
C456 C 0.47675 0.77484 0.10244 0.0
C457 C 0.51749 0.7434 0.09348 0.0
C458 C 0.43056 0.77301 0.12899 0.0
C459 C 0.4241 0.73972 0.1467 0.0
C460 C 0.45674 0.70701 0.13493 0.0
H461 H 0.2858 0.67638 0.34021 0.0
H462 H 0.31658 0.67887 0.28208 0.0
C463 C 0.50291 0.70875 0.1083 0.0
C464 C 0.39726 0.74105 0.18075 0.0
H465 H 0.44694 0.76599 0.25854 0.0
C466 C 0.33077 0.72665 0.18787 0.0
C467 C 0.43951 0.7556 0.20644 0.0
C468 C 0.51211 0.77068 0.2 0.0
C469 C 0.3052 0.72659 0.22031 0.0
C470 C 0.34805 0.7406 0.24611 0.0
C471 C 0.41419 0.75535 0.23875 0.0
C472 C 0.32668 0.73931 0.28111 0.0
C473 C 0.23238 0.71195 0.22664 0.0
C474 C 0.32442 0.77239 0.30019 0.0
C475 C 0.30774 0.77108 0.33363 0.0
C476 C 0.29327 0.73659 0.34868 0.0
C477 C 0.29636 0.70347 0.32949 0.0
C478 C 0.31318 0.70483 0.2961 0.0
H479 H 0.19966 0.71259 0.20408 0.0
H480 H 0.23575 0.68238 0.23473 0.0
H481 H 0.20587 0.72855 0.24628 0.0
H482 H 0.33545 0.79927 0.28915 0.0
H483 H 0.30565 0.79713 0.34757 0.0
H484 H 0.38039 0.61753 0.62501 0.0
H485 H 0.46881 0.5962 0.6642 0.0
H486 H 0.5911 0.6956 0.64584 0.0
H487 H 0.50627 0.71567 0.60552 0.0
H488 H 0.67484 0.64188 0.66405 0.0
H489 H 0.44886 0.64724 0.75101 0.0
H490 H 0.44451 0.61182 0.71942 0.0
H491 H 0.44012 0.66066 0.70874 0.0
C492 C 0.42731 0.63416 0.62853 0.0
C493 C 0.43481 0.66908 0.61312 0.0
C494 C 0.47752 0.62212 0.65121 0.0
C495 C 0.53481 0.64526 0.65928 0.0
C496 C 0.54674 0.67752 0.64064 0.0
H497 H 0.72987 0.75111 0.81018 0.0
H498 H 0.69075 0.72238 0.75853 0.0
C499 C 0.49764 0.68913 0.61759 0.0
C500 C 0.57627 0.64001 0.68986 0.0
H501 H 0.56027 0.64704 0.77344 0.0
C502 C 0.64976 0.64205 0.68798 0.0
C503 C 0.54369 0.64042 0.72127 0.0
C504 C 0.46506 0.64019 0.72544 0.0
C505 C 0.69075 0.64744 0.71632 0.0
C506 C 0.6576 0.65012 0.74724 0.0
C507 C 0.58519 0.64472 0.74952 0.0
C508 C 0.69397 0.66554 0.77647 0.0
C509 C 0.76872 0.65262 0.71301 0.0
C510 C 0.70971 0.6429 0.80346 0.0
C511 C 0.73312 0.65926 0.83299 0.0
C512 C 0.73903 0.6985 0.83606 0.0
C513 C 0.72542 0.72083 0.80857 0.0
C514 C 0.70356 0.70446 0.77901 0.0
H515 H 0.7883 0.64225 0.68883 0.0
H516 H 0.78138 0.68294 0.71534 0.0
H517 H 0.79665 0.63775 0.73294 0.0
H518 H 0.70161 0.61284 0.80202 0.0
H519 H 0.74286 0.64144 0.85388 0.0
H520 H 0.50845 0.28084 0.90695 0.0
H521 H 0.59487 0.30193 0.86793 0.0
H522 H 0.46638 0.39785 0.84537 0.0
H523 H 0.37719 0.37566 0.88366 0.0
H524 H 0.48418 0.35954 0.7933 0.0
H525 H 0.74647 0.37157 0.84647 0.0
H526 H 0.71067 0.32825 0.86049 0.0
H527 H 0.66921 0.37204 0.87212 0.0
C528 C 0.49927 0.30714 0.89458 0.0
C529 C 0.43471 0.32585 0.89761 0.0
C530 C 0.54966 0.31957 0.87243 0.0
C531 C 0.53748 0.35153 0.85339 0.0
C532 C 0.47693 0.37297 0.85958 0.0
H533 H 0.77127 0.34236 0.66389 0.0
H534 H 0.7311 0.37294 0.71508 0.0
C535 C 0.42587 0.36024 0.88153 0.0
C536 C 0.57831 0.35654 0.82256 0.0
H537 H 0.74126 0.34032 0.79064 0.0
C538 C 0.54074 0.35694 0.79286 0.0
C539 C 0.65228 0.35349 0.82146 0.0
C540 C 0.69671 0.35676 0.85197 0.0
C541 C 0.57397 0.35004 0.7627 0.0
C542 C 0.64632 0.3421 0.76221 0.0
C543 C 0.68538 0.34572 0.79124 0.0
C544 C 0.67817 0.32367 0.73313 0.0
C545 C 0.53051 0.34813 0.73177 0.0
C546 C 0.66275 0.28583 0.7269 0.0
C547 C 0.68514 0.26841 0.69793 0.0
C548 C 0.72364 0.28848 0.67447 0.0
C549 C 0.74165 0.32612 0.68141 0.0
C550 C 0.71891 0.34363 0.7106 0.0
H551 H 0.48005 0.36331 0.73477 0.0
H552 H 0.55955 0.36021 0.71073 0.0
H553 H 0.5188 0.31832 0.72574 0.0
H554 H 0.63144 0.27002 0.74413 0.0
H555 H 0.67077 0.23936 0.69366 0.0
H556 H 0.98653 0.69309 0.41125 0.0
H557 H 0.90798 0.7032 0.36511 0.0
H558 H 0.94093 0.82259 0.37354 0.0
H559 H 0.02156 0.81278 0.41921 0.0
H560 H 0.79252 0.74548 0.34324 0.0
H561 H 0.04447 0.79269 0.28859 0.0
H562 H 0.03973 0.77126 0.32841 0.0
H563 H 0.01525 0.8196 0.32357 0.0
C564 C 0.97539 0.72167 0.40414 0.0
C565 C 0.01281 0.75202 0.41797 0.0
C566 C 0.9302 0.72737 0.3777 0.0
C567 C 0.92107 0.76349 0.36511 0.0
C568 C 0.94915 0.79436 0.38233 0.0
H569 H 0.79962 0.82439 0.16623 0.0
H570 H 0.8276 0.82646 0.22481 0.0
C571 C -0.005 0.78868 0.40857 0.0
C572 C 0.89406 0.76774 0.33123 0.0
H573 H 0.9473 0.78979 0.25363 0.0
C574 C 0.82599 0.75553 0.32368 0.0
C575 C 0.93845 0.78025 0.30564 0.0
C576 C 0.01373 0.79139 0.31175 0.0
C577 C 0.80117 0.75554 0.29114 0.0
C578 C 0.84586 0.76775 0.2657 0.0
C579 C 0.91324 0.78063 0.27333 0.0
C580 C 0.82513 0.76626 0.23069 0.0
C581 C 0.72757 0.74241 0.28411 0.0
C582 C 0.81583 0.73162 0.21454 0.0
C583 C 0.80064 0.73024 0.18092 0.0
C584 C 0.79434 0.76355 0.16291 0.0
C585 C 0.80401 0.79819 0.17929 0.0
C586 C 0.81969 0.79948 0.2128 0.0
H587 H 0.69509 0.74178 0.30677 0.0
H588 H 0.7019 0.76087 0.26592 0.0
H589 H 0.72937 0.7136 0.27349 0.0
H590 H 0.82126 0.70564 0.22785 0.0
H591 H 0.79322 0.70311 0.16915 0.0
H592 H 0.79589 0.1699 0.34275 0.0
H593 H 0.82713 0.16881 0.28463 0.0
H594 H 0.83423 0.28969 0.28449 0.0
H595 H 0.80248 0.29129 0.34292 0.0
H596 H 0.75703 0.25151 0.22888 0.0
H597 H 0.02678 0.19815 0.25043 0.0
H598 H 0.9572 0.17296 0.27019 0.0
H599 H 0.97554 0.22052 0.28241 0.0
C600 C 0.80423 0.19636 0.33052 0.0
C601 C 0.79706 0.23073 0.34764 0.0
C602 C 0.82198 0.19561 0.29726 0.0
C603 C 0.83303 0.22914 0.28041 0.0
C604 C 0.82567 0.26353 0.29718 0.0
H605 H 0.98471 0.29849 0.09571 0.0
H606 H 0.90588 0.29009 0.14193 0.0
C607 C 0.8081 0.26435 0.33059 0.0
C608 C 0.8545 0.22806 0.2455 0.0
H609 H 0.99077 0.20383 0.19558 0.0
C610 C 0.80801 0.24102 0.22145 0.0
C611 C 0.92078 0.21411 0.23604 0.0
C612 C 0.97337 0.20086 0.26104 0.0
C613 C 0.82636 0.24039 0.18796 0.0
C614 C 0.89323 0.22701 0.17855 0.0
C615 C 0.93908 0.21359 0.20271 0.0
C616 C 0.92077 0.22999 0.14459 0.0
C617 C 0.77399 0.25388 0.16303 0.0
C618 C 0.95232 0.19871 0.12936 0.0
C619 C -0.00152 0.20349 0.10309 0.0
C620 C 0.01415 0.23972 0.09184 0.0
C621 C 0.97482 0.27024 0.10409 0.0
C622 C 0.92909 0.26546 0.13052 0.0
H623 H 0.71947 0.25047 0.17207 0.0
H624 H 0.7827 0.2842 0.15865 0.0
H625 H 0.77956 0.23855 0.13924 0.0
H626 H 0.94614 0.17101 0.13967 0.0
H627 H 0.0269 0.17924 0.09389 0.0
H628 H 0.15639 0.25399 0.8151 0.0
H629 H 0.11784 0.22298 0.7647 0.0
H630 H 0.2393 0.12512 0.78849 0.0
H631 H 0.2787 0.15602 0.83959 0.0
H632 H 0.24103 0.15613 0.71605 0.0
H633 H 0.98118 0.12674 0.7705 0.0
H634 H 0.01256 0.17341 0.77903 0.0
H635 H 0.05908 0.13377 0.79505 0.0
C636 C 0.17561 0.22599 0.80971 0.0
C637 C 0.22019 0.2074 0.83166 0.0
C638 C 0.15348 0.20834 0.78081 0.0
C639 C 0.17526 0.17173 0.77315 0.0
C640 C 0.22191 0.1534 0.79414 0.0
H641 H 0.8804 0.11827 0.62121 0.0
H642 H 0.96995 0.09564 0.65905 0.0
C643 C 0.24421 0.17111 0.82328 0.0
C644 C 0.1453 0.15283 0.74386 0.0
H645 H 0.98525 0.1327 0.71178 0.0
C646 C 0.1855 0.14983 0.7151 0.0
C647 C 0.07353 0.1435 0.74293 0.0
C648 C 0.02908 0.14412 0.77361 0.0
C649 C 0.15375 0.14169 0.68465 0.0
C650 C 0.08 0.13758 0.68309 0.0
C651 C 0.04162 0.13624 0.71256 0.0
C652 C 0.03983 0.14279 0.65214 0.0
C653 C 0.19924 0.1393 0.65441 0.0
C654 C 0.05139 0.17533 0.63377 0.0
C655 C 0.00082 0.18801 0.61188 0.0
C656 C 0.9367 0.16896 0.60849 0.0
C657 C 0.92866 0.13401 0.62374 0.0
C658 C 0.97995 0.12101 0.6454 0.0
H659 H 0.24925 0.12486 0.66009 0.0
H660 H 0.17289 0.12406 0.63391 0.0
H661 H 0.21265 0.16806 0.64632 0.0
H662 H 0.09608 0.19321 0.63869 0.0
H663 H 0.00946 0.21471 0.60008 0.0
H664 H 0.15188 0.74077 0.69204 0.0
H665 H 0.11497 0.77108 0.743 0.0
H666 H 0.2424 0.86745 0.72119 0.0
H667 H 0.28019 0.83722 0.66945 0.0
H668 H 0.24427 0.83433 0.79237 0.0
H669 H 0.9836 0.86897 0.74166 0.0
H670 H 0.01202 0.82216 0.73154 0.0
H671 H 0.05996 0.86165 0.71606 0.0
C672 C 0.17264 0.76833 0.69792 0.0
C673 C 0.21864 0.78665 0.67638 0.0
C674 C 0.15139 0.7856 0.72714 0.0
C675 C 0.17545 0.82157 0.7356 0.0
C676 C 0.22317 0.83968 0.71492 0.0
H677 H 0.88999 0.87121 0.89294 0.0
H678 H 0.97823 0.89478 0.85475 0.0
C679 C 0.24454 0.82236 0.68541 0.0
C680 C 0.14755 0.83983 0.76569 0.0
H681 H 0.98964 0.8601 0.80015 0.0
C682 C 0.18905 0.84118 0.7941 0.0
C683 C 0.07618 0.84983 0.76771 0.0
C684 C 0.03039 0.85099 0.73754 0.0
C685 C 0.15888 0.84822 0.82512 0.0
C686 C 0.08538 0.85296 0.82761 0.0
C687 C 0.04583 0.85606 0.79864 0.0
C688 C 0.0464 0.84648 0.85873 0.0
C689 C 0.20565 0.84868 0.85496 0.0
C690 C 0.05748 0.81279 0.87551 0.0
C691 C 0.00759 0.79949 0.89748 0.0
C692 C 0.94468 0.81916 0.90269 0.0
C693 C 0.93729 0.85501 0.889 0.0
C694 C 0.98785 0.86856 0.86717 0.0
H695 H 0.256 0.86284 0.8493 0.0
H696 H 0.18072 0.8632 0.87624 0.0
H697 H 0.21821 0.8194 0.86186 0.0
H698 H 0.10111 0.79469 0.86925 0.0
H699 H 0.01568 0.77201 0.90793 0.0
loop_
_geom_bond_atom_site_label_1
_geom_bond_atom_site_label_2
_geom_bond_distance
_geom_bond_site_symmetry_2
_ccdc_geom_bond_type
C0 O27 1.312 1_554 S
C0 O28 1.208 . S
C1 O22 1.331 . S
C1 O25 1.244 . S
C2 O24 1.264 . S
C2 O26 1.273 . S
Mg3 O5 1.936 . S
Mg3 O12 2.081 . S
Mg3 O14 2.023 . S
Mg3 O18 2.031 . S
Mg3 O27 2.291 . S
Mg4 O5 1.963 . S
Mg4 O15 1.942 . S
Mg4 O16 1.955 . S
Mg4 O23 1.986 . S
O5 Mg3 1.936 . S
O5 Mg4 1.963 . S
O5 Mg6 1.915 1_556 S
Mg6 O5 1.915 1_554 S
Mg6 O7 1.915 . S
Mg6 O11 2.013 1_554 S
Mg6 O17 2.114 . S
Mg6 O21 2.013 . S
Mg6 O27 2.114 1_554 S
O7 Mg6 1.915 . S
O7 Mg8 1.936 . S
O7 Mg9 1.963 . S
Mg8 O7 1.936 . S
Mg8 O17 2.291 . S
Mg8 O22 2.081 . S
Mg8 O24 2.023 . S
Mg8 O28 2.031 . S
Mg9 O7 1.963 . S
Mg9 O13 1.986 . S
Mg9 O25 1.942 . S
Mg9 O26 1.955 . S
C10 O21 1.191 1_556 S
C10 O23 1.307 . S
O11 Mg6 2.013 1_556 S
O11 C30 1.191 1_556 S
O12 Mg3 2.081 . S
O12 C20 1.331 . S
O13 Mg9 1.986 . S
O13 C30 1.307 . S
O14 Mg3 2.023 . S
O14 C29 1.264 . S
O15 Mg4 1.942 . S
O15 C20 1.244 . S
O16 Mg4 1.955 . S
O16 C29 1.273 . S
O17 Mg6 2.114 . S
O17 Mg8 2.291 . S
O17 C19 1.312 1_554 S
O18 Mg3 2.031 . S
O18 C19 1.208 . S
C19 O17 1.312 1_556 S
C19 O18 1.208 . S
C20 O12 1.331 . S
C20 O15 1.244 . S
O21 Mg6 2.013 . S
O21 C10 1.191 1_554 S
O22 C1 1.331 . S
O22 Mg8 2.081 . S
O23 Mg4 1.986 . S
O23 C10 1.307 . S
O24 C2 1.264 . S
O24 Mg8 2.023 . S
O25 C1 1.244 . S
O25 Mg9 1.942 . S
O26 C2 1.273 . S
O26 Mg9 1.955 . S
O27 C0 1.312 1_556 S
O27 Mg3 2.291 . S
O27 Mg6 2.114 1_556 S
O28 C0 1.208 . S
O28 Mg8 2.031 . S
C29 O14 1.264 . S
C29 O16 1.273 . S
C30 O11 1.191 1_554 S
C30 O13 1.307 . S
C31 O58 1.312 1_554 S
C31 O59 1.208 . S
C32 O53 1.331 . S
C32 O56 1.244 . S
C33 O55 1.264 . S
C33 O57 1.273 . S
Mg34 O36 1.936 . S
Mg34 O43 2.081 . S
Mg34 O45 2.023 . S
Mg34 O49 2.031 . S
Mg34 O58 2.291 . S
Mg35 O36 1.963 . S
Mg35 O46 1.942 . S
Mg35 O47 1.955 . S
Mg35 O54 1.986 . S
O36 Mg34 1.936 . S
O36 Mg35 1.963 . S
O36 Mg37 1.915 1_556 S
Mg37 O36 1.915 1_554 S
Mg37 O38 1.915 . S
Mg37 O42 2.013 1_554 S
Mg37 O48 2.114 . S
Mg37 O52 2.013 . S
Mg37 O58 2.114 1_554 S
O38 Mg37 1.915 . S
O38 Mg39 1.936 . S
O38 Mg40 1.963 . S
Mg39 O38 1.936 . S
Mg39 O48 2.291 . S
Mg39 O53 2.081 . S
Mg39 O55 2.023 . S
Mg39 O59 2.031 . S
Mg40 O38 1.963 . S
Mg40 O44 1.986 . S
Mg40 O56 1.942 . S
Mg40 O57 1.955 . S
C41 O52 1.191 1_556 S
C41 O54 1.307 . S
O42 Mg37 2.013 1_556 S
O42 C61 1.191 1_556 S
O43 Mg34 2.081 . S
O43 C51 1.331 . S
O44 Mg40 1.986 . S
O44 C61 1.307 . S
O45 Mg34 2.023 . S
O45 C60 1.264 . S
O46 Mg35 1.942 . S
O46 C51 1.244 . S
O47 Mg35 1.955 . S
O47 C60 1.273 . S
O48 Mg37 2.114 . S
O48 Mg39 2.291 . S
O48 C50 1.312 1_554 S
O49 Mg34 2.031 . S
O49 C50 1.208 . S
C50 O48 1.312 1_556 S
C50 O49 1.208 . S
C51 O43 1.331 . S
C51 O46 1.244 . S
O52 Mg37 2.013 . S
O52 C41 1.191 1_554 S
O53 C32 1.331 . S
O53 Mg39 2.081 . S
O54 Mg35 1.986 . S
O54 C41 1.307 . S
O55 C33 1.264 . S
O55 Mg39 2.023 . S
O56 C32 1.244 . S
O56 Mg40 1.942 . S
O57 C33 1.273 . S
O57 Mg40 1.955 . S
O58 C31 1.312 1_556 S
O58 Mg34 2.291 . S
O58 Mg37 2.114 1_556 S
O59 C31 1.208 . S
O59 Mg39 2.031 . S
C60 O45 1.264 . S
C60 O47 1.273 . S
C61 O42 1.191 1_554 S
C61 O44 1.307 . S
C62 O89 1.312 . S
C62 O90 1.208 . S
C63 O84 1.331 . S
C63 O87 1.244 . S
C64 O86 1.264 . S
C64 O88 1.273 . S
Mg65 O67 1.936 . S
Mg65 O74 2.081 . S
Mg65 O76 2.023 . S
Mg65 O80 2.031 . S
Mg65 O89 2.291 . S
Mg66 O67 1.963 . S
Mg66 O77 1.942 . S
Mg66 O78 1.955 . S
Mg66 O85 1.986 . S
O67 Mg65 1.936 . S
O67 Mg66 1.963 . S
O67 Mg68 1.915 . S
Mg68 O67 1.915 . S
Mg68 O69 1.915 . S
Mg68 O73 2.013 . S
Mg68 O79 2.114 . S
Mg68 O83 2.013 . S
Mg68 O89 2.114 . S
O69 Mg68 1.915 . S
O69 Mg70 1.936 . S
O69 Mg71 1.963 . S
Mg70 O69 1.936 . S
Mg70 O79 2.291 . S
Mg70 O84 2.081 . S
Mg70 O86 2.023 . S
Mg70 O90 2.031 . S
Mg71 O69 1.963 . S
Mg71 O75 1.986 . S
Mg71 O87 1.942 . S
Mg71 O88 1.955 . S
C72 O83 1.191 . S
C72 O85 1.307 . S
O73 Mg68 2.013 . S
O73 C92 1.191 . S
O74 Mg65 2.081 . S
O74 C82 1.331 . S
O75 Mg71 1.986 . S
O75 C92 1.307 . S
O76 Mg65 2.023 . S
O76 C91 1.264 . S
O77 Mg66 1.942 . S
O77 C82 1.244 . S
O78 Mg66 1.955 . S
O78 C91 1.273 . S
O79 Mg68 2.114 . S
O79 Mg70 2.291 . S
O79 C81 1.312 . S
O80 Mg65 2.031 . S
O80 C81 1.208 . S
C81 O79 1.312 . S
C81 O80 1.208 . S
C82 O74 1.331 . S
C82 O77 1.244 . S
O83 Mg68 2.013 . S
O83 C72 1.191 . S
O84 C63 1.331 . S
O84 Mg70 2.081 . S
O85 Mg66 1.986 . S
O85 C72 1.307 . S
O86 C64 1.264 . S
O86 Mg70 2.023 . S
O87 C63 1.244 . S
O87 Mg71 1.942 . S
O88 C64 1.273 . S
O88 Mg71 1.955 . S
O89 C62 1.312 . S
O89 Mg65 2.291 . S
O89 Mg68 2.114 . S
O90 C62 1.208 . S
O90 Mg70 2.031 . S
C91 O76 1.264 . S
C91 O78 1.273 . S
C92 O73 1.191 . S
C92 O75 1.307 . S
C93 O120 1.312 . S
C93 O121 1.208 . S
C94 O115 1.331 . S
C94 O118 1.244 . S
C95 O117 1.264 . S
C95 O119 1.273 . S
Mg96 O98 1.936 . S
Mg96 O105 2.081 . S
Mg96 O107 2.023 . S
Mg96 O111 2.031 . S
Mg96 O120 2.291 . S
Mg97 O98 1.963 . S
Mg97 O108 1.942 . S
Mg97 O109 1.955 . S
Mg97 O116 1.986 . S
O98 Mg96 1.936 . S
O98 Mg97 1.963 . S
O98 Mg99 1.915 . S
Mg99 O98 1.915 . S
Mg99 O100 1.915 . S
Mg99 O104 2.013 . S
Mg99 O110 2.114 . S
Mg99 O114 2.013 . S
Mg99 O120 2.114 . S
O100 Mg99 1.915 . S
O100 Mg101 1.936 . S
O100 Mg102 1.963 . S
Mg101 O100 1.936 . S
Mg101 O110 2.291 . S
Mg101 O115 2.081 . S
Mg101 O117 2.023 . S
Mg101 O121 2.031 . S
Mg102 O100 1.963 . S
Mg102 O106 1.986 . S
Mg102 O118 1.942 . S
Mg102 O119 1.955 . S
C103 O114 1.191 . S
C103 O116 1.307 . S
O104 Mg99 2.013 . S
O104 C123 1.191 . S
O105 Mg96 2.081 . S
O105 C113 1.331 . S
O106 Mg102 1.986 . S
O106 C123 1.307 . S
O107 Mg96 2.023 . S
O107 C122 1.264 . S
O108 Mg97 1.942 . S
O108 C113 1.244 . S
O109 Mg97 1.955 . S
O109 C122 1.273 . S
O110 Mg99 2.114 . S
O110 Mg101 2.291 . S
O110 C112 1.312 . S
O111 Mg96 2.031 . S
O111 C112 1.208 . S
C112 O110 1.312 . S
C112 O111 1.208 . S
C113 O105 1.331 . S
C113 O108 1.244 . S
O114 Mg99 2.013 . S
O114 C103 1.191 . S
O115 C94 1.331 . S
O115 Mg101 2.081 . S
O116 Mg97 1.986 . S
O116 C103 1.307 . S
O117 C95 1.264 . S
O117 Mg101 2.023 . S
O118 C94 1.244 . S
O118 Mg102 1.942 . S
O119 C95 1.273 . S
O119 Mg102 1.955 . S
O120 C93 1.312 . S
O120 Mg96 2.291 . S
O120 Mg99 2.114 . S
O121 C93 1.208 . S
O121 Mg101 2.031 . S
C122 O107 1.264 . S
C122 O109 1.273 . S
C123 O104 1.191 . S
C123 O106 1.307 . S
H124 C132 0.929 . S
H125 C134 0.930 . S
H126 C136 0.930 . S
H127 C139 0.929 . S
H128 C142 0.930 . S
H129 C144 0.960 . S
H130 C144 0.960 . S
H131 C144 0.960 . S
C132 H124 0.929 . S
C132 C133 1.378 . S
C132 C134 1.384 . S
C133 C132 1.378 . S
C133 C139 1.389 1_554 S
C134 H125 0.930 . S
C134 C132 1.384 . S
C134 C135 1.373 . S
C135 C134 1.373 . S
C135 C136 1.398 1_554 S
C135 C140 1.491 . S
C136 H126 0.930 . S
C136 C135 1.398 1_556 S
C136 C139 1.386 . S
H137 C153 0.930 . S
H138 C154 0.931 . S
C139 H127 0.929 . S
C139 C133 1.389 1_556 S
C139 C136 1.386 . S
C140 C135 1.491 . S
C140 C142 1.395 . S
C140 C143 1.403 1_554 S
H141 C147 0.930 . S
C142 H128 0.930 . S
C142 C140 1.395 . S
C142 C145 1.403 . S
C143 C140 1.403 1_556 S
C143 C144 1.524 . S
C143 C147 1.400 . S
C144 H129 0.960 . S
C144 H130 0.960 . S
C144 H131 0.960 . S
C144 C143 1.524 . S
C145 C142 1.403 . S
C145 C146 1.392 . S
C145 C149 1.495 . S
C146 C145 1.392 . S
C146 C147 1.385 1_554 S
C146 C148 1.478 . S
C147 H141 0.930 . S
C147 C143 1.400 . S
C147 C146 1.385 1_556 S
C148 C146 1.478 . S
C148 C150 1.381 . S
C148 C154 1.383 . S
C149 C145 1.495 . S
C149 H155 0.959 . S
C149 H156 0.961 . S
C149 H157 0.960 . S
C150 C148 1.381 . S
C150 C151 1.394 . S
C150 H158 0.930 . S
C151 C150 1.394 . S
C151 C152 1.383 1_655 S
C151 H159 0.930 1_655 S
C152 C151 1.383 1_455 S
C152 C153 1.377 . S
C153 H137 0.930 . S
C153 C152 1.377 . S
C153 C154 1.379 1_455 S
C154 H138 0.931 . S
C154 C148 1.383 . S
C154 C153 1.379 1_655 S
H155 C149 0.959 . S
H156 C149 0.961 . S
H157 C149 0.960 . S
H158 C150 0.930 . S
H159 C151 0.930 1_455 S
H160 C168 0.929 . S
H161 C170 0.930 . S
H162 C172 0.930 . S
H163 C175 0.929 . S
H164 C178 0.930 . S
H165 C180 0.960 . S
H166 C180 0.960 . S
H167 C180 0.960 . S
C168 H160 0.929 . S
C168 C169 1.377 . S
C168 C170 1.384 1_655 S
C169 C168 1.377 . S
C169 C175 1.390 1_554 S
C170 H161 0.930 . S
C170 C168 1.384 1_455 S
C170 C171 1.372 . S
C171 C170 1.372 . S
C171 C172 1.400 1_554 S
C171 C176 1.490 . S
C172 H162 0.930 . S
C172 C171 1.400 1_556 S
C172 C175 1.386 1_455 S
H173 C189 0.930 . S
H174 C190 0.931 . S
C175 H163 0.929 . S
C175 C169 1.390 1_556 S
C175 C172 1.386 1_655 S
C176 C171 1.490 . S
C176 C178 1.395 . S
C176 C179 1.403 1_554 S
H177 C183 0.930 . S
C178 H164 0.930 . S
C178 C176 1.395 . S
C178 C181 1.403 . S
C179 C176 1.403 1_556 S
C179 C180 1.524 . S
C179 C183 1.400 . S
C180 H165 0.960 . S
C180 H166 0.960 . S
C180 H167 0.960 . S
C180 C179 1.524 . S
C181 C178 1.403 . S
C181 C182 1.392 . S
C181 C185 1.495 . S
C182 C181 1.392 . S
C182 C183 1.385 1_554 S
C182 C184 1.478 . S
C183 H177 0.930 . S
C183 C179 1.400 . S
C183 C182 1.385 1_556 S
C184 C182 1.478 . S
C184 C186 1.381 . S
C184 C190 1.383 1_554 S
C185 C181 1.495 . S
C185 H191 0.959 . S
C185 H192 0.961 . S
C185 H193 0.960 . S
C186 C184 1.381 . S
C186 C187 1.394 . S
C186 H194 0.930 . S
C187 C186 1.394 . S
C187 C188 1.383 . S
C187 H195 0.929 . S
C188 C187 1.383 . S
C188 C189 1.377 1_554 S
C189 H173 0.930 . S
C189 C188 1.377 1_556 S
C189 C190 1.379 . S
C190 H174 0.931 . S
C190 C184 1.383 1_556 S
C190 C189 1.379 . S
H191 C185 0.959 . S
H192 C185 0.961 . S
H193 C185 0.960 . S
H194 C186 0.930 . S
H195 C187 0.929 . S
H196 C204 0.929 . S
H197 C206 0.930 . S
H198 C208 0.930 . S
H199 C211 0.929 . S
H200 C214 0.930 . S
H201 C216 0.960 . S
H202 C216 0.960 . S
H203 C216 0.960 . S
C204 H196 0.929 . S
C204 C205 1.377 . S
C204 C206 1.384 . S
C205 C204 1.377 . S
C205 C211 1.390 . S
C206 H197 0.930 . S
C206 C204 1.384 . S
C206 C207 1.372 . S
C207 C206 1.372 . S
C207 C208 1.400 . S
C207 C212 1.490 . S
C208 H198 0.930 . S
C208 C207 1.400 . S
C208 C211 1.386 . S
H209 C225 0.930 . S
H210 C226 0.931 . S
C211 H199 0.929 . S
C211 C205 1.390 . S
C211 C208 1.386 . S
C212 C207 1.490 . S
C212 C214 1.395 . S
C212 C215 1.403 . S
H213 C219 0.930 . S
C214 H200 0.930 . S
C214 C212 1.395 . S
C214 C217 1.403 . S
C215 C212 1.403 . S
C215 C216 1.524 . S
C215 C219 1.400 . S
C216 H201 0.960 . S
C216 H202 0.960 . S
C216 H203 0.960 . S
C216 C215 1.524 . S
C217 C214 1.403 . S
C217 C218 1.392 . S
C217 C221 1.495 . S
C218 C217 1.392 . S
C218 C219 1.385 . S
C218 C220 1.478 . S
C219 H213 0.930 . S
C219 C215 1.400 . S
C219 C218 1.385 . S
C220 C218 1.478 . S
C220 C222 1.381 . S
C220 C226 1.383 . S
C221 C217 1.495 . S
C221 H227 0.959 . S
C221 H228 0.961 . S
C221 H229 0.960 . S
C222 C220 1.381 . S
C222 C223 1.394 1_655 S
C222 H230 0.930 . S
C223 C222 1.394 1_455 S
C223 C224 1.383 . S
C223 H231 0.929 . S
C224 C223 1.383 . S
C224 C225 1.377 . S
C225 H209 0.930 . S
C225 C224 1.377 . S
C225 C226 1.379 1_455 S
C226 H210 0.931 . S
C226 C220 1.383 . S
C226 C225 1.379 1_655 S
H227 C221 0.959 . S
H228 C221 0.961 . S
H229 C221 0.960 . S
H230 C222 0.930 . S
H231 C223 0.929 . S
H232 C240 0.932 . S
H233 C242 0.930 . S
H234 C244 0.930 . S
H235 C247 0.929 . S
H236 C250 0.930 . S
H237 C252 0.960 . S
H238 C252 0.960 . S
H239 C252 0.960 . S
C240 H232 0.932 . S
C240 C241 1.382 . S
C240 C242 1.377 1_655 S
C241 C240 1.382 . S
C241 C247 1.390 . S
C242 H233 0.930 . S
C242 C240 1.377 1_455 S
C242 C243 1.372 . S
C243 C242 1.372 . S
C243 C244 1.400 . S
C243 C248 1.490 . S
C244 H234 0.930 . S
C244 C243 1.400 . S
C244 C247 1.386 1_455 S
H245 C261 0.930 . S
H246 C262 0.931 . S
C247 H235 0.929 . S
C247 C241 1.390 . S
C247 C244 1.386 1_655 S
C248 C243 1.490 . S
C248 C250 1.395 . S
C248 C251 1.403 . S
H249 C255 0.930 . S
C250 H236 0.930 . S
C250 C248 1.395 . S
C250 C253 1.403 . S
C251 C248 1.403 . S
C251 C252 1.524 . S
C251 C255 1.400 . S
C252 H237 0.960 . S
C252 H238 0.960 . S
C252 H239 0.960 . S
C252 C251 1.524 . S
C253 C250 1.403 . S
C253 C254 1.392 . S
C253 C257 1.495 . S
C254 C253 1.392 . S
C254 C255 1.385 . S
C254 C256 1.478 . S
C255 H249 0.930 . S
C255 C251 1.400 . S
C255 C254 1.385 . S
C256 C254 1.478 . S
C256 C258 1.381 . S
C256 C262 1.383 . S
C257 C253 1.495 . S
C257 H263 0.959 . S
C257 H264 0.961 . S
C257 H265 0.960 . S
C258 C256 1.381 . S
C258 C259 1.394 . S
C258 H266 0.930 . S
C259 C258 1.394 . S
C259 C260 1.383 . S
C259 H267 0.929 . S
C260 C259 1.383 . S
C260 C261 1.377 . S
C261 H245 0.930 . S
C261 C260 1.377 . S
C261 C262 1.379 . S
C262 H246 0.931 . S
C262 C256 1.383 . S
C262 C261 1.379 . S
H263 C257 0.959 . S
H264 C257 0.961 . S
H265 C257 0.960 . S
H266 C258 0.930 . S
H267 C259 0.929 . S
H268 C276 0.929 . S
H269 C278 0.930 . S
H270 C280 0.930 . S
H271 C283 0.929 . S
H272 C286 0.930 . S
H273 C288 0.960 . S
H274 C288 0.960 1_554 S
H275 C288 0.960 . S
C276 H268 0.929 . S
C276 C277 1.377 . S
C276 C278 1.384 . S
C277 C276 1.377 . S
C277 C283 1.390 1_554 S
C278 H269 0.930 . S
C278 C276 1.384 . S
C278 C279 1.372 . S
C279 C278 1.372 . S
C279 C280 1.400 1_554 S
C279 C284 1.490 . S
C280 H270 0.930 . S
C280 C279 1.400 1_556 S
C280 C283 1.386 . S
H281 C297 0.930 . S
H282 C298 0.931 . S
C283 H271 0.929 . S
C283 C277 1.390 1_556 S
C283 C280 1.386 . S
C284 C279 1.490 . S
C284 C286 1.395 . S
C284 C287 1.403 1_554 S
H285 C291 0.930 . S
C286 H272 0.930 . S
C286 C284 1.395 . S
C286 C289 1.403 . S
C287 C284 1.403 1_556 S
C287 C288 1.524 . S
C287 C291 1.400 . S
C288 H273 0.960 . S
C288 H274 0.960 1_556 S
C288 H275 0.960 . S
C288 C287 1.524 . S
C289 C286 1.403 . S
C289 C290 1.392 . S
C289 C293 1.495 . S
C290 C289 1.392 . S
C290 C291 1.385 1_554 S
C290 C292 1.478 . S
C291 H285 0.930 . S
C291 C287 1.400 . S
C291 C290 1.385 1_556 S
C292 C290 1.478 . S
C292 C294 1.381 . S
C292 C298 1.383 1_554 S
C293 C289 1.495 . S
C293 H299 0.959 . S
C293 H300 0.961 . S
C293 H301 0.960 . S
C294 C292 1.381 . S
C294 C295 1.394 . S
C294 H302 0.930 . S
C295 C294 1.394 . S
C295 C296 1.383 . S
C295 H303 0.929 . S
C296 C295 1.383 . S
C296 C297 1.377 1_554 S
C297 H281 0.930 . S
C297 C296 1.377 1_556 S
C297 C298 1.379 . S
C298 H282 0.931 . S
C298 C292 1.383 1_556 S
C298 C297 1.379 . S
H299 C293 0.959 . S
H300 C293 0.961 . S
H301 C293 0.960 . S
H302 C294 0.930 . S
H303 C295 0.929 . S
H304 C312 0.929 . S
H305 C314 0.930 . S
H306 C316 0.930 . S
H307 C319 0.929 . S
H308 C322 0.930 . S
H309 C324 0.960 . S
H310 C324 0.960 . S
H311 C324 0.960 . S
C312 H304 0.929 . S
C312 C313 1.377 . S
C312 C314 1.384 . S
C313 C312 1.377 . S
C313 C319 1.390 . S
C314 H305 0.930 . S
C314 C312 1.384 . S
C314 C315 1.372 . S
C315 C314 1.372 . S
C315 C316 1.400 . S
C315 C320 1.490 . S
C316 H306 0.930 . S
C316 C315 1.400 . S
C316 C319 1.386 . S
H317 C333 0.930 . S
H318 C334 0.931 . S
C319 H307 0.929 . S
C319 C313 1.390 . S
C319 C316 1.386 . S
C320 C315 1.490 . S
C320 C322 1.395 . S
C320 C323 1.403 . S
H321 C327 0.930 . S
C322 H308 0.930 . S
C322 C320 1.395 . S
C322 C325 1.403 . S
C323 C320 1.403 . S
C323 C324 1.524 . S
C323 C327 1.400 . S
C324 H309 0.960 . S
C324 H310 0.960 . S
C324 H311 0.960 . S
C324 C323 1.524 . S
C325 C322 1.403 . S
C325 C326 1.392 . S
C325 C329 1.495 . S
C326 C325 1.392 . S
C326 C327 1.385 . S
C326 C328 1.478 . S
C327 H321 0.930 . S
C327 C323 1.400 . S
C327 C326 1.385 . S
C328 C326 1.478 . S
C328 C330 1.381 . S
C328 C334 1.383 . S
C329 C325 1.495 . S
C329 H335 0.959 . S
C329 H336 0.961 . S
C329 H337 0.960 . S
C330 C328 1.381 . S
C330 C331 1.394 . S
C330 H338 0.930 . S
C331 C330 1.394 . S
C331 C332 1.383 . S
C331 H339 0.929 . S
C332 C331 1.383 . S
C332 C333 1.377 . S
C333 H317 0.930 . S
C333 C332 1.377 . S
C333 C334 1.379 . S
C334 H318 0.931 . S
C334 C328 1.383 . S
C334 C333 1.379 . S
H335 C329 0.959 . S
H336 C329 0.961 . S
H337 C329 0.960 . S
H338 C330 0.930 . S
H339 C331 0.929 . S
H340 C348 0.929 . S
H341 C350 0.930 . S
H342 C352 0.930 . S
H343 C355 0.929 . S
H344 C358 0.930 . S
H345 C360 0.960 . S
H346 C360 0.960 . S
H347 C360 0.960 1_455 S
C348 H340 0.929 . S
C348 C349 1.377 1_556 S
C348 C350 1.384 . S
C349 C348 1.377 1_554 S
C349 C355 1.390 . S
C350 H341 0.930 . S
C350 C348 1.384 . S
C350 C351 1.372 1_556 S
C351 C350 1.372 1_554 S
C351 C352 1.400 . S
C351 C356 1.490 . S
C352 H342 0.930 . S
C352 C351 1.400 . S
C352 C355 1.386 . S
H353 C369 0.930 . S
H354 C370 0.931 . S
C355 H343 0.929 . S
C355 C349 1.390 . S
C355 C352 1.386 . S
C356 C351 1.490 . S
C356 C358 1.395 1_554 S
C356 C359 1.403 1_455 S
H357 C363 0.930 . S
C358 H344 0.930 . S
C358 C356 1.395 1_556 S
C358 C361 1.403 1_545 S
C359 C356 1.403 1_655 S
C359 C360 1.524 . S
C359 C363 1.400 1_545 S
C360 H345 0.960 . S
C360 H346 0.960 . S
C360 H347 0.960 1_655 S
C360 C359 1.524 . S
C361 C358 1.403 1_565 S
C361 C362 1.392 1_455 S
C361 C365 1.495 . S
C362 C361 1.392 1_655 S
C362 C363 1.385 1_556 S
C362 C364 1.478 . S
C363 H357 0.930 . S
C363 C359 1.400 1_565 S
C363 C362 1.385 1_554 S
C364 C362 1.478 . S
C364 C366 1.381 . S
C364 C370 1.383 1_556 S
C365 C361 1.495 . S
C365 H371 0.959 . S
C365 H372 0.961 . S
C365 H373 0.960 1_455 S
C366 C364 1.381 . S
C366 C367 1.394 . S
C366 H374 0.930 . S
C367 C366 1.394 . S
C367 C368 1.383 1_556 S
C367 H375 0.929 . S
C368 C367 1.383 1_554 S
C368 C369 1.377 . S
C369 H353 0.930 . S
C369 C368 1.377 . S
C369 C370 1.379 . S
C370 H354 0.931 . S
C370 C364 1.383 1_554 S
C370 C369 1.379 . S
H371 C365 0.959 . S
H372 C365 0.961 . S
H373 C365 0.960 1_655 S
H374 C366 0.930 . S
H375 C367 0.929 . S
H376 C384 0.929 . S
H377 C386 0.930 . S
H378 C388 0.930 . S
H379 C391 0.929 . S
H380 C394 0.930 . S
H381 C396 0.960 . S
H382 C396 0.960 . S
H383 C396 0.960 . S
C384 H376 0.929 . S
C384 C385 1.377 . S
C384 C386 1.384 . S
C385 C384 1.377 . S
C385 C391 1.390 . S
C386 H377 0.930 . S
C386 C384 1.384 . S
C386 C387 1.372 . S
C387 C386 1.372 . S
C387 C388 1.400 . S
C387 C392 1.490 . S
C388 H378 0.930 . S
C388 C387 1.400 . S
C388 C391 1.386 . S
H389 C405 0.930 . S
H390 C406 0.931 . S
C391 H379 0.929 . S
C391 C385 1.390 . S
C391 C388 1.386 . S
C392 C387 1.490 . S
C392 C394 1.395 1_545 S
C392 C395 1.403 1_655 S
H393 C399 0.930 . S
C394 H380 0.930 . S
C394 C392 1.395 1_565 S
C394 C397 1.403 . S
C395 C392 1.403 1_455 S
C395 C396 1.524 . S
C395 C399 1.400 1_545 S
C396 H381 0.960 . S
C396 H382 0.960 . S
C396 H383 0.960 . S
C396 C395 1.524 . S
C397 C394 1.403 . S
C397 C398 1.392 1_655 S
C397 C401 1.495 . S
C398 C397 1.392 1_455 S
C398 C399 1.385 . S
C398 C400 1.478 . S
C399 H393 0.930 . S
C399 C395 1.400 1_565 S
C399 C398 1.385 . S
C400 C398 1.478 . S
C400 C402 1.381 . S
C400 C406 1.383 . S
C401 C397 1.495 . S
C401 H407 0.959 . S
C401 H408 0.961 . S
C401 H409 0.960 . S
C402 C400 1.381 . S
C402 C403 1.394 . S
C402 H410 0.930 . S
C403 C402 1.394 . S
C403 C404 1.383 . S
C403 H411 0.929 . S
C404 C403 1.383 . S
C404 C405 1.377 . S
C405 H389 0.930 . S
C405 C404 1.377 . S
C405 C406 1.379 . S
C406 H390 0.931 . S
C406 C400 1.383 . S
C406 C405 1.379 . S
H407 C401 0.959 . S
H408 C401 0.961 . S
H409 C401 0.960 . S
H410 C402 0.930 . S
H411 C403 0.929 . S
H412 C420 0.929 . S
H413 C422 0.930 . S
H414 C424 0.930 . S
H415 C427 0.929 . S
H416 C430 0.930 . S
H417 C432 0.960 . S
H418 C432 0.960 . S
H419 C432 0.960 . S
C420 H412 0.929 . S
C420 C421 1.377 . S
C420 C422 1.384 . S
C421 C420 1.377 . S
C421 C427 1.390 . S
C422 H413 0.930 . S
C422 C420 1.384 . S
C422 C423 1.372 . S
C423 C422 1.372 . S
C423 C424 1.400 . S
C423 C428 1.490 . S
C424 H414 0.930 . S
C424 C423 1.400 . S
C424 C427 1.386 . S
H425 C441 0.930 . S
H426 C442 0.931 . S
C427 H415 0.929 . S
C427 C421 1.390 . S
C427 C424 1.386 . S
C428 C423 1.490 . S
C428 C430 1.395 . S
C428 C431 1.403 . S
H429 C435 0.930 . S
C430 H416 0.930 . S
C430 C428 1.395 . S
C430 C433 1.403 . S
C431 C428 1.403 . S
C431 C432 1.524 . S
C431 C435 1.400 . S
C432 H417 0.960 . S
C432 H418 0.960 . S
C432 H419 0.960 . S
C432 C431 1.524 . S
C433 C430 1.403 . S
C433 C434 1.392 . S
C433 C437 1.495 . S
C434 C433 1.392 . S
C434 C435 1.385 . S
C434 C436 1.478 . S
C435 H429 0.930 . S
C435 C431 1.400 . S
C435 C434 1.385 . S
C436 C434 1.478 . S
C436 C438 1.381 . S
C436 C442 1.383 . S
C437 C433 1.495 . S
C437 H443 0.959 . S
C437 H444 0.961 . S
C437 H445 0.960 . S
C438 C436 1.381 . S
C438 C439 1.394 . S
C438 H446 0.930 . S
C439 C438 1.394 . S
C439 C440 1.383 . S
C439 H447 0.929 . S
C440 C439 1.383 . S
C440 C441 1.377 . S
C441 H425 0.930 . S
C441 C440 1.377 . S
C441 C442 1.379 . S
C442 H426 0.931 . S
C442 C436 1.383 . S
C442 C441 1.379 . S
H443 C437 0.959 . S
H444 C437 0.961 . S
H445 C437 0.960 . S
H446 C438 0.930 . S
H447 C439 0.929 . S
H448 C456 0.929 . S
H449 C458 0.930 . S
H450 C460 0.930 . S
H451 C463 0.929 . S
H452 C466 0.930 . S
H453 C468 0.960 . S
H454 C468 0.960 . S
H455 C468 0.960 . S
C456 H448 0.929 . S
C456 C457 1.377 . S
C456 C458 1.384 . S
C457 C456 1.377 . S
C457 C463 1.390 . S
C458 H449 0.930 . S
C458 C456 1.384 . S
C458 C459 1.372 . S
C459 C458 1.372 . S
C459 C460 1.400 . S
C459 C464 1.490 . S
C460 H450 0.930 . S
C460 C459 1.400 . S
C460 C463 1.386 . S
H461 C477 0.930 . S
H462 C478 0.931 . S
C463 H451 0.929 . S
C463 C457 1.390 . S
C463 C460 1.386 . S
C464 C459 1.490 . S
C464 C466 1.395 . S
C464 C467 1.403 . S
H465 C471 0.930 . S
C466 H452 0.930 . S
C466 C464 1.395 . S
C466 C469 1.403 . S
C467 C464 1.403 . S
C467 C468 1.524 . S
C467 C471 1.400 . S
C468 H453 0.960 . S
C468 H454 0.960 . S
C468 H455 0.960 . S
C468 C467 1.524 . S
C469 C466 1.403 . S
C469 C470 1.392 . S
C469 C473 1.495 . S
C470 C469 1.392 . S
C470 C471 1.385 . S
C470 C472 1.478 . S
C471 H465 0.930 . S
C471 C467 1.400 . S
C471 C470 1.385 . S
C472 C470 1.478 . S
C472 C474 1.381 . S
C472 C478 1.383 . S
C473 C469 1.495 . S
C473 H479 0.959 . S
C473 H480 0.961 . S
C473 H481 0.960 . S
C474 C472 1.381 . S
C474 C475 1.394 . S
C474 H482 0.930 . S
C475 C474 1.394 . S
C475 C476 1.383 . S
C475 H483 0.929 . S
C476 C475 1.383 . S
C476 C477 1.377 . S
C477 H461 0.930 . S
C477 C476 1.377 . S
C477 C478 1.379 . S
C478 H462 0.931 . S
C478 C472 1.383 . S
C478 C477 1.379 . S
H479 C473 0.959 . S
H480 C473 0.961 . S
H481 C473 0.960 . S
H482 C474 0.930 . S
H483 C475 0.929 . S
H484 C492 0.929 . S
H485 C494 0.930 . S
H486 C496 0.930 . S
H487 C499 0.929 . S
H488 C502 0.930 . S
H489 C504 0.960 . S
H490 C504 0.960 . S
H491 C504 0.960 . S
C492 H484 0.929 . S
C492 C493 1.377 . S
C492 C494 1.384 . S
C493 C492 1.377 . S
C493 C499 1.390 . S
C494 H485 0.930 . S
C494 C492 1.384 . S
C494 C495 1.372 . S
C495 C494 1.372 . S
C495 C496 1.400 . S
C495 C500 1.490 . S
C496 H486 0.930 . S
C496 C495 1.400 . S
C496 C499 1.386 . S
H497 C513 0.930 . S
H498 C514 0.931 . S
C499 H487 0.929 . S
C499 C493 1.390 . S
C499 C496 1.386 . S
C500 C495 1.490 . S
C500 C502 1.395 . S
C500 C503 1.403 . S
H501 C507 0.930 . S
C502 H488 0.930 . S
C502 C500 1.395 . S
C502 C505 1.403 . S
C503 C500 1.403 . S
C503 C504 1.524 . S
C503 C507 1.400 . S
C504 H489 0.960 . S
C504 H490 0.960 . S
C504 H491 0.960 . S
C504 C503 1.524 . S
C505 C502 1.403 . S
C505 C506 1.392 . S
C505 C509 1.495 . S
C506 C505 1.392 . S
C506 C507 1.385 . S
C506 C508 1.478 . S
C507 H501 0.930 . S
C507 C503 1.400 . S
C507 C506 1.385 . S
C508 C506 1.478 . S
C508 C510 1.381 . S
C508 C514 1.383 . S
C509 C505 1.495 . S
C509 H515 0.959 . S
C509 H516 0.961 . S
C509 H517 0.960 . S
C510 C508 1.381 . S
C510 C511 1.394 . S
C510 H518 0.930 . S
C511 C510 1.394 . S
C511 C512 1.383 . S
C511 H519 0.929 . S
C512 C511 1.383 . S
C512 C513 1.377 . S
C513 H497 0.930 . S
C513 C512 1.377 . S
C513 C514 1.379 . S
C514 H498 0.931 . S
C514 C508 1.383 . S
C514 C513 1.379 . S
H515 C509 0.959 . S
H516 C509 0.961 . S
H517 C509 0.960 . S
H518 C510 0.930 . S
H519 C511 0.929 . S
H520 C528 0.929 . S
H521 C530 0.930 . S
H522 C532 0.930 . S
H523 C535 0.929 . S
H524 C538 0.930 . S
H525 C540 0.960 . S
H526 C540 0.960 . S
H527 C540 0.960 . S
C528 H520 0.929 . S
C528 C529 1.377 . S
C528 C530 1.384 . S
C529 C528 1.377 . S
C529 C535 1.390 . S
C530 H521 0.930 . S
C530 C528 1.384 . S
C530 C531 1.372 . S
C531 C530 1.372 . S
C531 C532 1.400 . S
C531 C536 1.490 . S
C532 H522 0.930 . S
C532 C531 1.400 . S
C532 C535 1.386 . S
H533 C549 0.930 . S
H534 C550 0.931 . S
C535 H523 0.929 . S
C535 C529 1.390 . S
C535 C532 1.386 . S
C536 C531 1.490 . S
C536 C538 1.395 . S
C536 C539 1.403 . S
H537 C543 0.930 . S
C538 H524 0.930 . S
C538 C536 1.395 . S
C538 C541 1.403 . S
C539 C536 1.403 . S
C539 C540 1.524 . S
C539 C543 1.400 . S
C540 H525 0.960 . S
C540 H526 0.960 . S
C540 H527 0.960 . S
C540 C539 1.524 . S
C541 C538 1.403 . S
C541 C542 1.392 . S
C541 C545 1.495 . S
C542 C541 1.392 . S
C542 C543 1.385 . S
C542 C544 1.478 . S
C543 H537 0.930 . S
C543 C539 1.400 . S
C543 C542 1.385 . S
C544 C542 1.478 . S
C544 C546 1.381 . S
C544 C550 1.383 . S
C545 C541 1.495 . S
C545 H551 0.959 . S
C545 H552 0.961 . S
C545 H553 0.960 . S
C546 C544 1.381 . S
C546 C547 1.394 . S
C546 H554 0.930 . S
C547 C546 1.394 . S
C547 C548 1.383 . S
C547 H555 0.929 . S
C548 C547 1.383 . S
C548 C549 1.377 . S
C549 H533 0.930 . S
C549 C548 1.377 . S
C549 C550 1.379 . S
C550 H534 0.931 . S
C550 C544 1.383 . S
C550 C549 1.379 . S
H551 C545 0.959 . S
H552 C545 0.961 . S
H553 C545 0.960 . S
H554 C546 0.930 . S
H555 C547 0.929 . S
H556 C564 0.929 . S
H557 C566 0.930 . S
H558 C568 0.930 . S
H559 C571 0.929 . S
H560 C574 0.930 . S
H561 C576 0.960 . S
H562 C576 0.960 . S
H563 C576 0.960 . S
C564 H556 0.929 . S
C564 C565 1.377 . S
C564 C566 1.384 . S
C565 C564 1.377 . S
C565 C571 1.390 . S
C566 H557 0.930 . S
C566 C564 1.384 . S
C566 C567 1.372 . S
C567 C566 1.372 . S
C567 C568 1.400 . S
C567 C572 1.490 . S
C568 H558 0.930 . S
C568 C567 1.400 . S
C568 C571 1.386 . S
H569 C585 0.930 . S
H570 C586 0.931 . S
C571 H559 0.929 . S
C571 C565 1.390 . S
C571 C568 1.386 . S
C572 C567 1.490 . S
C572 C574 1.395 1_455 S
C572 C575 1.403 . S
H573 C579 0.930 . S
C574 H560 0.930 . S
C574 C572 1.395 1_655 S
C574 C577 1.403 . S
C575 C572 1.403 . S
C575 C576 1.524 . S
C575 C579 1.400 . S
C576 H561 0.960 . S
C576 H562 0.960 . S
C576 H563 0.960 . S
C576 C575 1.524 . S
C577 C574 1.403 . S
C577 C578 1.392 . S
C577 C581 1.495 . S
C578 C577 1.392 . S
C578 C579 1.385 1_655 S
C578 C580 1.478 . S
C579 H573 0.930 . S
C579 C575 1.400 . S
C579 C578 1.385 1_455 S
C580 C578 1.478 . S
C580 C582 1.381 . S
C580 C586 1.383 . S
C581 C577 1.495 . S
C581 H587 0.959 . S
C581 H588 0.961 . S
C581 H589 0.960 . S
C582 C580 1.381 . S
C582 C583 1.394 . S
C582 H590 0.930 . S
C583 C582 1.394 . S
C583 C584 1.383 . S
C583 H591 0.929 . S
C584 C583 1.383 . S
C584 C585 1.377 . S
C585 H569 0.930 . S
C585 C584 1.377 . S
C585 C586 1.379 . S
C586 H570 0.931 . S
C586 C580 1.383 . S
C586 C585 1.379 . S
H587 C581 0.959 . S
H588 C581 0.961 . S
H589 C581 0.960 . S
H590 C582 0.930 . S
H591 C583 0.929 . S
H592 C600 0.929 . S
H593 C602 0.930 . S
H594 C604 0.930 . S
H595 C607 0.929 . S
H596 C610 0.930 . S
H597 C612 0.960 . S
H598 C612 0.960 . S
H599 C612 0.960 . S
C600 H592 0.929 . S
C600 C601 1.377 . S
C600 C602 1.384 . S
C601 C600 1.377 . S
C601 C607 1.390 . S
C602 H593 0.930 . S
C602 C600 1.384 . S
C602 C603 1.372 . S
C603 C602 1.372 . S
C603 C604 1.400 . S
C603 C608 1.490 . S
C604 H594 0.930 . S
C604 C603 1.400 . S
C604 C607 1.386 . S
H605 C621 0.930 . S
H606 C622 0.931 . S
C607 H595 0.929 . S
C607 C601 1.390 . S
C607 C604 1.386 . S
C608 C603 1.490 . S
C608 C610 1.395 . S
C608 C611 1.403 1_655 S
H609 C615 0.930 . S
C610 H596 0.930 . S
C610 C608 1.395 . S
C610 C613 1.403 . S
C611 C608 1.403 1_455 S
C611 C612 1.524 . S
C611 C615 1.400 . S
C612 H597 0.960 . S
C612 H598 0.960 . S
C612 H599 0.960 . S
C612 C611 1.524 . S
C613 C610 1.403 . S
C613 C614 1.392 1_655 S
C613 C617 1.495 . S
C614 C613 1.392 1_455 S
C614 C615 1.385 . S
C614 C616 1.478 . S
C615 H609 0.930 . S
C615 C611 1.400 . S
C615 C614 1.385 . S
C616 C614 1.478 . S
C616 C618 1.381 . S
C616 C622 1.383 . S
C617 C613 1.495 . S
C617 H623 0.959 . S
C617 H624 0.961 . S
C617 H625 0.960 . S
C618 C616 1.381 . S
C618 C619 1.394 . S
C618 H626 0.930 . S
C619 C618 1.394 . S
C619 C620 1.383 . S
C619 H627 0.929 . S
C620 C619 1.383 . S
C620 C621 1.377 . S
C621 H605 0.930 . S
C621 C620 1.377 . S
C621 C622 1.379 . S
C622 H606 0.931 . S
C622 C616 1.383 . S
C622 C621 1.379 . S
H623 C617 0.959 . S
H624 C617 0.961 . S
H625 C617 0.960 . S
H626 C618 0.930 . S
H627 C619 0.929 . S
H628 C636 0.929 . S
H629 C638 0.930 . S
H630 C640 0.930 1_655 S
H631 C643 0.929 . S
H632 C646 0.930 . S
H633 C648 0.960 . S
H634 C648 0.960 . S
H635 C648 0.960 . S
C636 H628 0.929 . S
C636 C637 1.377 . S
C636 C638 1.384 . S
C637 C636 1.377 . S
C637 C643 1.390 . S
C638 H629 0.930 . S
C638 C636 1.384 . S
C638 C639 1.372 . S
C639 C638 1.372 . S
C639 C640 1.400 . S
C639 C644 1.490 . S
C640 H630 0.930 1_455 S
C640 C639 1.400 . S
C640 C643 1.386 . S
H641 C657 0.930 . S
H642 C658 0.931 . S
C643 H631 0.929 . S
C643 C637 1.390 . S
C643 C640 1.386 . S
C644 C639 1.490 . S
C644 C646 1.395 . S
C644 C647 1.403 1_455 S
H645 C651 0.930 . S
C646 H632 0.930 . S
C646 C644 1.395 . S
C646 C649 1.403 . S
C647 C644 1.403 1_655 S
C647 C648 1.524 . S
C647 C651 1.400 . S
C648 H633 0.960 . S
C648 H634 0.960 . S
C648 H635 0.960 . S
C648 C647 1.524 . S
C649 C646 1.403 . S
C649 C650 1.392 1_455 S
C649 C653 1.495 . S
C650 C649 1.392 1_655 S
C650 C651 1.385 . S
C650 C652 1.478 . S
C651 H645 0.930 . S
C651 C647 1.400 . S
C651 C650 1.385 . S
C652 C650 1.478 . S
C652 C654 1.381 . S
C652 C658 1.383 . S
C653 C649 1.495 . S
C653 H659 0.959 . S
C653 H660 0.961 . S
C653 H661 0.960 . S
C654 C652 1.381 . S
C654 C655 1.394 . S
C654 H662 0.930 1_655 S
C655 C654 1.394 . S
C655 C656 1.383 . S
C655 H663 0.929 . S
C656 C655 1.383 . S
C656 C657 1.377 . S
C657 H641 0.930 . S
C657 C656 1.377 . S
C657 C658 1.379 . S
C658 H642 0.931 . S
C658 C652 1.383 . S
C658 C657 1.379 . S
H659 C653 0.959 . S
H660 C653 0.961 . S
H661 C653 0.960 . S
H662 C654 0.930 1_455 S
H663 C655 0.929 . S
H664 C672 0.929 . S
H665 C674 0.930 . S
H666 C676 0.930 1_655 S
H667 C679 0.929 . S
H668 C682 0.930 . S
H669 C684 0.960 . S
H670 C684 0.960 . S
H671 C684 0.960 . S
C672 H664 0.929 . S
C672 C673 1.377 . S
C672 C674 1.384 . S
C673 C672 1.377 . S
C673 C679 1.390 . S
C674 H665 0.930 . S
C674 C672 1.384 . S
C674 C675 1.372 . S
C675 C674 1.372 . S
C675 C676 1.400 . S
C675 C680 1.490 . S
C676 H666 0.930 1_455 S
C676 C675 1.400 . S
C676 C679 1.386 . S
H677 C693 0.930 . S
H678 C694 0.931 . S
C679 H667 0.929 . S
C679 C673 1.390 . S
C679 C676 1.386 . S
C680 C675 1.490 . S
C680 C682 1.395 . S
C680 C683 1.403 1_455 S
H681 C687 0.930 . S
C682 H668 0.930 . S
C682 C680 1.395 . S
C682 C685 1.403 . S
C683 C680 1.403 1_655 S
C683 C684 1.524 . S
C683 C687 1.400 . S
C684 H669 0.960 . S
C684 H670 0.960 . S
C684 H671 0.960 . S
C684 C683 1.524 . S
C685 C682 1.403 . S
C685 C686 1.392 1_455 S
C685 C689 1.495 . S
C686 C685 1.392 1_655 S
C686 C687 1.385 . S
C686 C688 1.478 . S
C687 H681 0.930 . S
C687 C683 1.400 . S
C687 C686 1.385 . S
C688 C686 1.478 . S
C688 C690 1.381 . S
C688 C694 1.383 . S
C689 C685 1.495 . S
C689 H695 0.959 . S
C689 H696 0.961 . S
C689 H697 0.960 . S
C690 C688 1.381 . S
C690 C691 1.394 . S
C690 H698 0.930 1_655 S
C691 C690 1.394 . S
C691 C692 1.383 . S
C691 H699 0.929 . S
C692 C691 1.383 . S
C692 C693 1.377 . S
C693 H677 0.930 . S
C693 C692 1.377 . S
C693 C694 1.379 . S
C694 H678 0.931 . S
C694 C688 1.383 . S
C694 C693 1.379 . S
H695 C689 0.959 . S
H696 C689 0.961 . S
H697 C689 0.960 . S
H698 C690 0.930 1_455 S
H699 C691 0.929 . S
C133 C0 1.207 . S
C152 C10 1.214 1_554 S
C169 C31 1.197 . S
C188 C41 1.189 1_554 S
C205 C62 1.205 . S
C224 C72 1.198 . S
C241 C93 1.200 . S
C260 C103 1.166 . S
C277 C50 1.540 1_554 S
C296 C30 1.536 . S
C313 C112 1.539 . S
C332 C92 1.532 . S
C349 C19 1.540 1_554 S
C368 C61 1.553 . S
C385 C123 1.546 . S
C404 C81 1.549 . S
C421 C95 1.113 . S
C440 C1 1.139 . S
C457 C33 1.103 . S
C476 C63 1.088 . S
C493 C91 1.200 . S
C512 C51 1.169 . S
C529 C29 1.196 . S
C548 C113 1.226 . S
C565 C64 1.098 . S
C584 C32 1.066 . S
C601 C94 1.115 . S
C620 C2 1.139 . S
C637 C20 1.188 . S
C656 C122 1.236 . S
C673 C82 1.188 . S
C692 C60 1.235 . S
