# Generated by pormake.
# Topology pem, (4)-cn, num edge types: 1
# Building blocks:
#     Node 0, Type 0, BuildingBlock: NAHDIM_clean_sbu_0, # of connection points: 4
#     Node 1, Type 0, BuildingBlock: NAHDIM_clean_sbu_0, # of connection points: 4
#     Node 2, Type 0, BuildingBlock: NAHDIM_clean_sbu_0, # of connection points: 4
#     Node 3, Type 0, BuildingBlock: NAHDIM_clean_sbu_0, # of connection points: 4
#     Node 4, Type 0, BuildingBlock: NAHDIM_clean_sbu_0, # of connection points: 4
#     Node 5, Type 0, BuildingBlock: NAHDIM_clean_sbu_0, # of connection points: 4
#     Node 6, Type 0, BuildingBlock: NAHDIM_clean_sbu_0, # of connection points: 4
#     Node 7, Type 0, BuildingBlock: NAHDIM_clean_sbu_0, # of connection points: 4
#     Node 8, Type 0, BuildingBlock: NAHDIM_clean_sbu_0, # of connection points: 4
#     Node 9, Type 0, BuildingBlock: NAHDIM_clean_sbu_0, # of connection points: 4
#     Node 10, Type 0, BuildingBlock: NAHDIM_clean_sbu_0, # of connection points: 4
#     Node 11, Type 0, BuildingBlock: NAHDIM_clean_sbu_0, # of connection points: 4
#     Node 12, Type 0, BuildingBlock: NAHDIM_clean_sbu_0, # of connection points: 4
#     Node 13, Type 0, BuildingBlock: NAHDIM_clean_sbu_0, # of connection points: 4
#     Node 14, Type 0, BuildingBlock: NAHDIM_clean_sbu_0, # of connection points: 4
#     Node 15, Type 0, BuildingBlock: NAHDIM_clean_sbu_0, # of connection points: 4
#     Node 16, Type 0, BuildingBlock: NAHDIM_clean_sbu_0, # of connection points: 4
#     Node 17, Type 0, BuildingBlock: NAHDIM_clean_sbu_0, # of connection points: 4
#     Node 18, Type 0, BuildingBlock: NAHDIM_clean_sbu_0, # of connection points: 4
#     Node 19, Type 0, BuildingBlock: NAHDIM_clean_sbu_0, # of connection points: 4
#     Node 20, Type 0, BuildingBlock: NAHDIM_clean_sbu_0, # of connection points: 4
#     Node 21, Type 0, BuildingBlock: NAHDIM_clean_sbu_0, # of connection points: 4
#     Node 22, Type 0, BuildingBlock: NAHDIM_clean_sbu_0, # of connection points: 4
#     Node 23, Type 0, BuildingBlock: NAHDIM_clean_sbu_0, # of connection points: 4
#     Node 24, Type 0, BuildingBlock: NAHDIM_clean_sbu_0, # of connection points: 4
#     Node 25, Type 0, BuildingBlock: NAHDIM_clean_sbu_0, # of connection points: 4
#     Node 26, Type 0, BuildingBlock: NAHDIM_clean_sbu_0, # of connection points: 4
#     Node 27, Type 0, BuildingBlock: NAHDIM_clean_sbu_0, # of connection points: 4
#     Node 28, Type 0, BuildingBlock: NAHDIM_clean_sbu_0, # of connection points: 4
#     Node 29, Type 0, BuildingBlock: NAHDIM_clean_sbu_0, # of connection points: 4
#     Node 30, Type 0, BuildingBlock: NAHDIM_clean_sbu_0, # of connection points: 4
#     Node 31, Type 0, BuildingBlock: NAHDIM_clean_sbu_0, # of connection points: 4
#     Edge 32, Type (0, 0), BuildingBlock: OJICUG_clean_linker_0, # of connection points: 2
#     Edge 33, Type (0, 0), BuildingBlock: OJICUG_clean_linker_0, # of connection points: 2
#     Edge 34, Type (0, 0), BuildingBlock: OJICUG_clean_linker_0, # of connection points: 2
#     Edge 35, Type (0, 0), BuildingBlock: OJICUG_clean_linker_0, # of connection points: 2
#     Edge 36, Type (0, 0), BuildingBlock: OJICUG_clean_linker_0, # of connection points: 2
#     Edge 37, Type (0, 0), BuildingBlock: OJICUG_clean_linker_0, # of connection points: 2
#     Edge 38, Type (0, 0), BuildingBlock: OJICUG_clean_linker_0, # of connection points: 2
#     Edge 39, Type (0, 0), BuildingBlock: OJICUG_clean_linker_0, # of connection points: 2
#     Edge 40, Type (0, 0), BuildingBlock: OJICUG_clean_linker_0, # of connection points: 2
#     Edge 41, Type (0, 0), BuildingBlock: OJICUG_clean_linker_0, # of connection points: 2
#     Edge 42, Type (0, 0), BuildingBlock: OJICUG_clean_linker_0, # of connection points: 2
#     Edge 43, Type (0, 0), BuildingBlock: OJICUG_clean_linker_0, # of connection points: 2
#     Edge 44, Type (0, 0), BuildingBlock: OJICUG_clean_linker_0, # of connection points: 2
#     Edge 45, Type (0, 0), BuildingBlock: OJICUG_clean_linker_0, # of connection points: 2
#     Edge 46, Type (0, 0), BuildingBlock: OJICUG_clean_linker_0, # of connection points: 2
#     Edge 47, Type (0, 0), BuildingBlock: OJICUG_clean_linker_0, # of connection points: 2
#     Edge 48, Type (0, 0), BuildingBlock: OJICUG_clean_linker_0, # of connection points: 2
#     Edge 49, Type (0, 0), BuildingBlock: OJICUG_clean_linker_0, # of connection points: 2
#     Edge 50, Type (0, 0), BuildingBlock: OJICUG_clean_linker_0, # of connection points: 2
#     Edge 51, Type (0, 0), BuildingBlock: OJICUG_clean_linker_0, # of connection points: 2
#     Edge 52, Type (0, 0), BuildingBlock: OJICUG_clean_linker_0, # of connection points: 2
#     Edge 53, Type (0, 0), BuildingBlock: OJICUG_clean_linker_0, # of connection points: 2
#     Edge 54, Type (0, 0), BuildingBlock: OJICUG_clean_linker_0, # of connection points: 2
#     Edge 55, Type (0, 0), BuildingBlock: OJICUG_clean_linker_0, # of connection points: 2
#     Edge 56, Type (0, 0), BuildingBlock: OJICUG_clean_linker_0, # of connection points: 2
#     Edge 57, Type (0, 0), BuildingBlock: OJICUG_clean_linker_0, # of connection points: 2
#     Edge 58, Type (0, 0), BuildingBlock: OJICUG_clean_linker_0, # of connection points: 2
#     Edge 59, Type (0, 0), BuildingBlock: OJICUG_clean_linker_0, # of connection points: 2
#     Edge 60, Type (0, 0), BuildingBlock: OJICUG_clean_linker_0, # of connection points: 2
#     Edge 61, Type (0, 0), BuildingBlock: OJICUG_clean_linker_0, # of connection points: 2
#     Edge 62, Type (0, 0), BuildingBlock: OJICUG_clean_linker_0, # of connection points: 2
#     Edge 63, Type (0, 0), BuildingBlock: OJICUG_clean_linker_0, # of connection points: 2
#     Edge 64, Type (0, 0), BuildingBlock: OJICUG_clean_linker_0, # of connection points: 2
#     Edge 65, Type (0, 0), BuildingBlock: OJICUG_clean_linker_0, # of connection points: 2
#     Edge 66, Type (0, 0), BuildingBlock: OJICUG_clean_linker_0, # of connection points: 2
#     Edge 67, Type (0, 0), BuildingBlock: OJICUG_clean_linker_0, # of connection points: 2
#     Edge 68, Type (0, 0), BuildingBlock: OJICUG_clean_linker_0, # of connection points: 2
#     Edge 69, Type (0, 0), BuildingBlock: OJICUG_clean_linker_0, # of connection points: 2
#     Edge 70, Type (0, 0), BuildingBlock: OJICUG_clean_linker_0, # of connection points: 2
#     Edge 71, Type (0, 0), BuildingBlock: OJICUG_clean_linker_0, # of connection points: 2
#     Edge 72, Type (0, 0), BuildingBlock: OJICUG_clean_linker_0, # of connection points: 2
#     Edge 73, Type (0, 0), BuildingBlock: OJICUG_clean_linker_0, # of connection points: 2
#     Edge 74, Type (0, 0), BuildingBlock: OJICUG_clean_linker_0, # of connection points: 2
#     Edge 75, Type (0, 0), BuildingBlock: OJICUG_clean_linker_0, # of connection points: 2
#     Edge 76, Type (0, 0), BuildingBlock: OJICUG_clean_linker_0, # of connection points: 2
#     Edge 77, Type (0, 0), BuildingBlock: OJICUG_clean_linker_0, # of connection points: 2
#     Edge 78, Type (0, 0), BuildingBlock: OJICUG_clean_linker_0, # of connection points: 2
#     Edge 79, Type (0, 0), BuildingBlock: OJICUG_clean_linker_0, # of connection points: 2
#     Edge 80, Type (0, 0), BuildingBlock: OJICUG_clean_linker_0, # of connection points: 2
#     Edge 81, Type (0, 0), BuildingBlock: OJICUG_clean_linker_0, # of connection points: 2
#     Edge 82, Type (0, 0), BuildingBlock: OJICUG_clean_linker_0, # of connection points: 2
#     Edge 83, Type (0, 0), BuildingBlock: OJICUG_clean_linker_0, # of connection points: 2
#     Edge 84, Type (0, 0), BuildingBlock: OJICUG_clean_linker_0, # of connection points: 2
#     Edge 85, Type (0, 0), BuildingBlock: OJICUG_clean_linker_0, # of connection points: 2
#     Edge 86, Type (0, 0), BuildingBlock: OJICUG_clean_linker_0, # of connection points: 2
#     Edge 87, Type (0, 0), BuildingBlock: OJICUG_clean_linker_0, # of connection points: 2
#     Edge 88, Type (0, 0), BuildingBlock: OJICUG_clean_linker_0, # of connection points: 2
#     Edge 89, Type (0, 0), BuildingBlock: OJICUG_clean_linker_0, # of connection points: 2
#     Edge 90, Type (0, 0), BuildingBlock: OJICUG_clean_linker_0, # of connection points: 2
#     Edge 91, Type (0, 0), BuildingBlock: OJICUG_clean_linker_0, # of connection points: 2
#     Edge 92, Type (0, 0), BuildingBlock: OJICUG_clean_linker_0, # of connection points: 2
#     Edge 93, Type (0, 0), BuildingBlock: OJICUG_clean_linker_0, # of connection points: 2
#     Edge 94, Type (0, 0), BuildingBlock: OJICUG_clean_linker_0, # of connection points: 2
#     Edge 95, Type (0, 0), BuildingBlock: OJICUG_clean_linker_0, # of connection points: 2
# Relax obj value: 0.106
# Max RMSD: 0.077
# Mean RMSD: 0.074
data_MOF--net-pem--node1-NAHDIM_clean_sbu_0--edge1-OJICUG_clean_linker_0
_symmetry_space_group_name_H-M    P1
_symmetry_Int_Tables_number       1
_symmetry_cell_setting            triclinic
loop_
_symmetry_equiv_pos_as_xyz
'x, y, z'
_cell_length_a     31.798083
_cell_length_b     31.512086
_cell_length_c     30.776314
_cell_angle_alpha  89.987669
_cell_angle_beta   89.979282
_cell_angle_gamma 94.02731
loop_
_atom_site_label
_atom_site_type_symbol
_atom_site_fract_x
_atom_site_fract_y
_atom_site_fract_z
_atom_type_partial_charge
C0 C 0.02277 0.18096 0.07883 0.0
O1 O 0.01705 0.14539 0.10095 0.0
O2 O 0.1079 0.09766 0.08867 0.0
Zn3 Zn 0.09128 0.1364 0.03906 0.0
O4 O 0.05398 0.09865 0.00408 0.0
C5 C 0.15861 0.11609 0.98738 0.0
O6 O 0.14145 0.07904 0.00019 0.0
O7 O 0.0543 0.18587 0.05319 0.0
C8 C 0.02247 0.11007 0.98311 0.0
O9 O 0.0159 0.15061 0.97961 0.0
C10 C 0.08512 0.06493 0.10116 0.0
O11 O 0.04661 0.05831 0.08605 0.0
O12 O 0.14275 0.14975 0.00094 0.0
C13 C 0.2324 0.92437 0.33079 0.0
O14 O 0.24934 0.91411 0.29369 0.0
O15 O 0.13327 0.92177 0.24391 0.0
Zn16 Zn 0.15813 0.88392 0.28997 0.0
O17 O 0.19651 0.8435 0.26572 0.0
C18 C 0.09999 0.80907 0.29474 0.0
O19 O 0.10965 0.80665 0.25335 0.0
O20 O 0.19284 0.91694 0.33634 0.0
C21 C 0.20958 0.82059 0.29628 0.0
O22 O 0.20054 0.82969 0.33671 0.0
C23 C 0.15578 0.941 0.21476 0.0
O24 O 0.19643 0.93595 0.21383 0.0
O25 O 0.11429 0.84127 0.31668 0.0
C26 C 0.449 0.8619 0.58995 0.0
O27 O 0.45984 0.8951 0.61418 0.0
O28 O 0.36644 0.95368 0.60396 0.0
Zn29 Zn 0.39047 0.91935 0.55336 0.0
O30 O 0.44146 0.95379 0.53643 0.0
C31 C 0.33516 0.94716 0.48488 0.0
O32 O 0.33942 0.98377 0.50539 0.0
O33 O 0.4163 0.86251 0.56597 0.0
C34 C 0.47188 0.93615 0.51915 0.0
O35 O 0.46526 0.89914 0.49986 0.0
C36 C 0.39317 0.97747 0.62543 0.0
O37 O 0.43338 0.97411 0.61826 0.0
O38 O 0.35286 0.91538 0.50021 0.0
C39 C 0.30116 0.11949 0.86962 0.0
O40 O 0.30522 0.08765 0.84279 0.0
O41 O 0.37907 0.12186 0.7755 0.0
Zn42 Zn 0.36746 0.16881 0.81836 0.0
O43 O 0.33399 0.20819 0.7882 0.0
C44 C 0.43615 0.23366 0.81174 0.0
O45 O 0.42542 0.23186 0.77053 0.0
O46 O 0.3261 0.15269 0.86665 0.0
C47 C 0.32595 0.24078 0.81001 0.0
O48 O 0.34261 0.24771 0.8486 0.0
C49 C 0.35039 0.10532 0.75049 0.0
O50 O 0.31194 0.11783 0.75342 0.0
O51 O 0.41813 0.20703 0.83823 0.0
C52 C 0.18917 0.89538 0.4453 0.0
O53 O 0.17378 0.86362 0.42117 0.0
O54 O 0.09379 0.9045 0.37157 0.0
Zn55 Zn 0.13323 0.9525 0.3953 0.0
O56 O 0.0944 0.98463 0.43114 0.0
C57 C 0.13525 0.00036 0.31391 0.0
O58 O 0.0976 0.98091 0.30994 0.0
O59 O 0.17722 0.93264 0.43858 0.0
C60 C 0.05684 0.98784 0.41813 0.0
O61 O 0.04628 0.97587 0.37857 0.0
C62 C 0.06781 0.88407 0.39689 0.0
O63 O 0.07095 0.89035 0.439 0.0
O64 O 0.15749 0.99261 0.34707 0.0
C65 C 0.41053 0.75305 0.60325 0.0
O66 O 0.38353 0.75408 0.57104 0.0
O67 O 0.33119 0.83805 0.58696 0.0
Zn68 Zn 0.36456 0.82469 0.64263 0.0
O69 O 0.32223 0.79893 0.68394 0.0
C70 C 0.36957 0.89828 0.70264 0.0
O71 O 0.32972 0.88593 0.70879 0.0
O72 O 0.40839 0.77961 0.63439 0.0
C73 C 0.33385 0.7917 0.72252 0.0
O74 O 0.3738 0.79875 0.73297 0.0
C75 C 0.30324 0.8652 0.58834 0.0
O76 O 0.29779 0.88565 0.62482 0.0
O77 O 0.39077 0.87843 0.6748 0.0
C78 C 0.38686 0.15122 0.93961 0.0
O79 O 0.41306 0.18518 0.9364 0.0
O80 O 0.48169 0.1544 0.85619 0.0
Zn81 Zn 0.44184 0.10432 0.8763 0.0
O82 O 0.4769 0.06977 0.91247 0.0
C83 C 0.44322 0.03674 0.80991 0.0
O84 O 0.48373 0.03898 0.81874 0.0
O85 O 0.3932 0.11835 0.91699 0.0
C86 C 0.45789 0.03744 0.92982 0.0
O87 O 0.41733 0.0295 0.9228 0.0
C88 C 0.50607 0.1736 0.88391 0.0
O89 O 0.50322 0.16202 0.92487 0.0
O90 O 0.41995 0.06295 0.82823 0.0
C91 C 0.12384 0.25239 0.09444 0.0
O92 O 0.15989 0.27444 0.08799 0.0
O93 O 0.22331 0.18094 0.06502 0.0
Zn94 Zn 0.17795 0.18287 0.11281 0.0
O95 O 0.20149 0.21831 0.15984 0.0
C96 C 0.19199 0.11613 0.1759 0.0
O97 O 0.23037 0.13448 0.17654 0.0
O98 O 0.12371 0.21226 0.10007 0.0
C99 C 0.17528 0.21942 0.19093 0.0
O100 O 0.13667 0.2025 0.18601 0.0
C101 C 0.24306 0.14786 0.05737 0.0
O102 O 0.23163 0.11243 0.07801 0.0
O103 O 0.16577 0.12799 0.14769 0.0
C104 C 0.64631 0.40011 0.94838 0.0
O105 O 0.61763 0.36933 0.93984 0.0
O106 O 0.57271 0.39604 0.85266 0.0
Zn107 Zn 0.60396 0.44889 0.87976 0.0
O108 O 0.55845 0.4765 0.91038 0.0
C109 C 0.60195 0.51431 0.81401 0.0
O110 O 0.56131 0.50613 0.82022 0.0
O111 O 0.64738 0.43441 0.92622 0.0
C112 C 0.55909 0.48344 0.9509 0.0
O113 O 0.59315 0.47714 0.97337 0.0
C114 C 0.54336 0.37704 0.87522 0.0
O115 O 0.53622 0.391 0.91455 0.0
O116 O 0.62763 0.49275 0.83511 0.0
C117 C 0.8917 0.30038 0.08595 0.0
O118 O 0.86641 0.30373 0.0526 0.0
O119 O 0.79448 0.36581 0.08853 0.0
Zn120 Zn 0.83589 0.35629 0.1381 0.0
O121 O 0.80443 0.31772 0.1785 0.0
C122 C 0.84057 0.44322 0.18322 0.0
O123 O 0.80732 0.45302 0.16112 0.0
O124 O 0.88511 0.32062 0.12086 0.0
C125 C 0.82568 0.30006 0.20737 0.0
O126 O 0.86631 0.31035 0.21074 0.0
C127 C 0.75856 0.38063 0.09384 0.0
O128 O 0.74681 0.39182 0.13284 0.0
O129 O 0.85656 0.40784 0.17594 0.0
C130 C 0.86694 0.67776 0.44851 0.0
O131 O 0.88291 0.71206 0.4286 0.0
O132 O 0.95763 0.66418 0.36009 0.0
Zn133 Zn 0.91628 0.62011 0.38801 0.0
O134 O 0.95262 0.58431 0.42065 0.0
C135 C 0.90368 0.5491 0.32766 0.0
O136 O 0.94003 0.54065 0.34465 0.0
O137 O 0.87681 0.64118 0.43589 0.0
C138 C 0.93641 0.55635 0.44624 0.0
O139 O 0.89518 0.55041 0.44912 0.0
C140 C 0.99161 0.67818 0.37876 0.0
O141 O 0.99915 0.66587 0.41862 0.0
O142 O 0.8861 0.58196 0.34093 0.0
C143 C 0.80047 0.65565 0.35733 0.0
O144 O 0.78252 0.67046 0.32266 0.0
O145 O 0.9092 0.64938 0.27822 0.0
Zn146 Zn 0.88091 0.69121 0.31742 0.0
O147 O 0.84358 0.7248 0.28322 0.0
C148 C 0.93685 0.76822 0.32423 0.0
O149 O 0.92637 0.77149 0.28314 0.0
O150 O 0.84062 0.65927 0.36077 0.0
C151 C 0.82825 0.75484 0.30404 0.0
O152 O 0.84091 0.76326 0.34394 0.0
C153 C 0.91189 0.65485 0.2373 0.0
O154 O 0.89805 0.68947 0.22029 0.0
O155 O 0.92229 0.73588 0.34577 0.0
C156 C 0.74445 0.43511 0.9081 0.0
O157 O 0.73825 0.46963 0.88574 0.0
O158 O 0.68109 0.42754 0.79672 0.0
Zn159 Zn 0.69262 0.3812 0.84207 0.0
O160 O 0.73048 0.34293 0.81484 0.0
C161 C 0.63039 0.30842 0.8325 0.0
O162 O 0.64966 0.3051 0.79501 0.0
O163 O 0.72722 0.39948 0.89578 0.0
C164 C 0.7381 0.31127 0.83837 0.0
O165 O 0.72318 0.30861 0.87818 0.0
C166 C 0.65032 0.42146 0.77031 0.0
O167 O 0.62501 0.387 0.77452 0.0
O168 O 0.64131 0.33979 0.85739 0.0
C169 C 0.93458 0.83818 0.94734 0.0
O170 O 0.93672 0.85059 0.98807 0.0
O171 O 0.81943 0.87618 0.98314 0.0
Zn172 Zn 0.86522 0.89686 0.9399 0.0
O173 O 0.90106 0.94004 0.97054 0.0
C174 C 0.82081 0.94249 0.86157 0.0
O175 O 0.78253 0.92475 0.86651 0.0
O176 O 0.90604 0.85174 0.92292 0.0
C177 C 0.89101 0.97825 0.96851 0.0
O178 O 0.85345 0.98647 0.95453 0.0
C179 C 0.79013 0.89782 0.99784 0.0
O180 O 0.7849 0.93549 0.98135 0.0
O181 O 0.85028 0.9325 0.88676 0.0
C182 C 0.78584 0.15743 0.58923 0.0
O183 O 0.81243 0.19122 0.58743 0.0
O184 O 0.88528 0.17386 0.65073 0.0
Zn185 Zn 0.83226 0.13683 0.66784 0.0
O186 O 0.80578 0.17481 0.70799 0.0
C187 C 0.85575 0.07998 0.73796 0.0
O188 O 0.87775 0.11422 0.75156 0.0
O189 O 0.79019 0.12963 0.61865 0.0
C190 C 0.78709 0.16719 0.74373 0.0
O191 O 0.7796 0.12788 0.75731 0.0
C192 C 0.90227 0.20002 0.67843 0.0
O193 O 0.88943 0.198 0.71896 0.0
O194 O 0.83716 0.08104 0.70133 0.0
C195 C 0.50831 0.13803 0.44437 0.0
O196 O 0.51161 0.12446 0.48449 0.0
O197 O 0.63998 0.12467 0.44158 0.0
Zn198 Zn 0.58498 0.09224 0.42399 0.0
O199 O 0.57526 0.05579 0.47527 0.0
C200 C 0.59405 0.01328 0.37421 0.0
O201 O 0.61306 0.00134 0.40942 0.0
O202 O 0.53571 0.12914 0.41623 0.0
C203 C 0.6042 0.03885 0.4964 0.0
O204 O 0.64362 0.04388 0.48378 0.0
C205 C 0.63857 0.14172 0.47901 0.0
O206 O 0.60188 0.14258 0.49843 0.0
O207 O 0.58283 0.05127 0.37161 0.0
C208 C 0.67895 0.82669 0.13296 0.0
O209 O 0.6863 0.7895 0.14944 0.0
O210 O 0.56612 0.76907 0.16837 0.0
Zn211 Zn 0.60666 0.81698 0.19142 0.0
O212 O 0.64649 0.79039 0.22901 0.0
C213 C 0.5547 0.88475 0.24239 0.0
O214 O 0.51926 0.8821 0.22034 0.0
O215 O 0.64545 0.84393 0.14406 0.0
C216 C 0.67339 0.81626 0.24704 0.0
O217 O 0.67002 0.85737 0.24313 0.0
C218 C 0.55421 0.73624 0.19054 0.0
O219 O 0.56644 0.73369 0.23116 0.0
O220 O 0.58453 0.86197 0.23162 0.0
C221 C 0.91508 0.00063 0.70041 0.0
O222 O 0.95076 0.02407 0.70355 0.0
O223 O 0.93727 0.10566 0.63973 0.0
Zn224 Zn 0.90136 0.05151 0.6213 0.0
O225 O 0.93966 0.02398 0.58166 0.0
C226 C 0.84998 0.08402 0.55046 0.0
O227 O 0.88514 0.10675 0.54181 0.0
O228 O 0.88931 0.00829 0.6701 0.0
C229 C 0.92856 0.00572 0.54643 0.0
O230 O 0.88836 0.99901 0.53704 0.0
C231 C 0.96382 0.12295 0.61264 0.0
O232 O 0.96579 0.10711 0.57331 0.0
O233 O 0.84817 0.06086 0.58456 0.0
C234 C 0.60116 0.17735 0.34036 0.0
O235 O 0.60479 0.17152 0.2983 0.0
O236 O 0.64697 0.07267 0.30807 0.0
Zn237 Zn 0.67142 0.12096 0.34621 0.0
O238 O 0.70524 0.15923 0.3071 0.0
C239 C 0.71932 0.07404 0.41752 0.0
O240 O 0.69853 0.03772 0.40826 0.0
O241 O 0.62483 0.15816 0.36614 0.0
C242 C 0.74515 0.16398 0.3078 0.0
O243 O 0.76658 0.14069 0.33401 0.0
C244 C 0.66744 0.04639 0.2866 0.0
O245 O 0.70842 0.04621 0.2918 0.0
O246 O 0.71163 0.10742 0.39638 0.0
C247 C 0.57978 0.94133 0.15547 0.0
O248 O 0.54478 0.95372 0.13852 0.0
O249 O 0.51936 0.82218 0.12706 0.0
Zn250 Zn 0.56177 0.86582 0.09996 0.0
O251 O 0.52829 0.90188 0.06367 0.0
C252 C 0.62074 0.80934 0.04753 0.0
O253 O 0.61067 0.77472 0.07008 0.0
O254 O 0.59213 0.90514 0.14487 0.0
C255 C 0.54852 0.9293 0.04023 0.0
O256 O 0.58991 0.93306 0.04225 0.0
C257 C 0.48863 0.80488 0.10534 0.0
O258 O 0.4856 0.81381 0.06381 0.0
O259 O 0.60428 0.84388 0.05696 0.0
C260 C 0.89187 0.73374 0.8642 0.0
O261 O 0.87814 0.73341 0.82396 0.0
O262 O 0.86461 0.85661 0.84997 0.0
Zn263 Zn 0.83438 0.80202 0.8758 0.0
O264 O 0.79625 0.78038 0.8285 0.0
C265 C 0.75669 0.82244 0.92127 0.0
O266 O 0.74929 0.84154 0.88458 0.0
O267 O 0.87719 0.75932 0.8914 0.0
C268 C 0.78033 0.80808 0.80468 0.0
O269 O 0.79166 0.8486 0.80961 0.0
C270 C 0.88123 0.85427 0.81234 0.0
O271 O 0.8808 0.81705 0.79317 0.0
O272 O 0.79225 0.80669 0.92684 0.0
C273 C 0.3644 0.47801 0.17895 0.0
O274 O 0.40394 0.47882 0.16638 0.0
O275 O 0.40571 0.59048 0.13841 0.0
Zn276 Zn 0.36495 0.54334 0.11309 0.0
O277 O 0.40363 0.5102 0.07879 0.0
C278 C 0.32095 0.59999 0.05221 0.0
O279 O 0.34967 0.62963 0.06398 0.0
O280 O 0.34026 0.50364 0.1611 0.0
C281 C 0.40341 0.50895 0.03766 0.0
O282 O 0.37249 0.5247 0.0161 0.0
C283 C 0.43567 0.60801 0.11557 0.0
O284 O 0.43815 0.59807 0.07425 0.0
O285 O 0.32044 0.56341 0.07006 0.0
C286 C 0.0659 0.73885 0.8756 0.0
O287 O 0.07196 0.73833 0.83338 0.0
O288 O 0.1134 0.63946 0.83046 0.0
Zn289 Zn 0.13686 0.68498 0.87355 0.0
O290 O 0.17401 0.72467 0.83789 0.0
C291 C 0.20199 0.63512 0.91567 0.0
O292 O 0.20385 0.6159 0.87793 0.0
O293 O 0.08947 0.71783 0.89981 0.0
C294 C 0.20951 0.74031 0.85133 0.0
O295 O 0.22031 0.73483 0.89202 0.0
C296 C 0.13221 0.63079 0.79523 0.0
O297 O 0.16927 0.65009 0.78683 0.0
O298 O 0.17489 0.66259 0.92141 0.0
C299 C 0.06372 0.49367 0.68443 0.0
O300 O 0.02321 0.48863 0.6759 0.0
O301 O 0.03845 0.36571 0.65092 0.0
Zn302 Zn 0.07014 0.41974 0.62638 0.0
O303 O 0.03028 0.44561 0.58784 0.0
C304 C 0.11947 0.37923 0.55881 0.0
O305 O 0.0861 0.35253 0.55513 0.0
O306 O 0.08837 0.46721 0.66901 0.0
C307 C 0.04536 0.47438 0.56253 0.0
O308 O 0.08585 0.48597 0.56402 0.0
C309 C 0.01136 0.3464 0.62585 0.0
O310 O 0.00583 0.36171 0.58675 0.0
O311 O 0.12023 0.40799 0.58784 0.0
C312 C 0.22421 0.31329 0.59503 0.0
O313 O 0.21782 0.27446 0.61036 0.0
O314 O 0.10179 0.28796 0.63028 0.0
Zn315 Zn 0.15109 0.33016 0.64841 0.0
O316 O 0.17957 0.30399 0.69618 0.0
C317 C 0.12167 0.38575 0.71356 0.0
O318 O 0.10597 0.34969 0.73018 0.0
O319 O 0.19831 0.34093 0.60449 0.0
C320 C 0.20936 0.32692 0.71339 0.0
O321 O 0.21991 0.3648 0.69733 0.0
C322 C 0.08611 0.26147 0.65839 0.0
O323 O 0.10019 0.26387 0.69847 0.0
O324 O 0.13782 0.38607 0.67575 0.0
C325 C 0.24342 0.60658 0.12432 0.0
O326 O 0.24599 0.64701 0.1351 0.0
O327 O 0.35251 0.6494 0.16432 0.0
Zn328 Zn 0.30594 0.60835 0.19021 0.0
O329 O 0.27041 0.6469 0.22041 0.0
C330 C 0.35983 0.56202 0.25018 0.0
O331 O 0.39118 0.5872 0.23548 0.0
O332 O 0.2678 0.58182 0.14303 0.0
C333 C 0.27382 0.65943 0.25934 0.0
O334 O 0.30013 0.642 0.28574 0.0
C335 C 0.37106 0.67942 0.1865 0.0
O336 O 0.36355 0.6815 0.22834 0.0
O337 O 0.32305 0.565 0.23481 0.0
C338 C 0.54598 0.63776 0.59823 0.0
O339 O 0.5489 0.6106 0.63011 0.0
O340 O 0.63899 0.56591 0.6147 0.0
Zn341 Zn 0.62016 0.59631 0.5588 0.0
O342 O 0.59632 0.55032 0.52108 0.0
C343 C 0.69787 0.60026 0.50581 0.0
O344 O 0.7048 0.56452 0.52556 0.0
O345 O 0.57236 0.63779 0.56689 0.0
C346 C 0.61174 0.51431 0.51926 0.0
O347 O 0.64203 0.50484 0.54574 0.0
C348 C 0.61293 0.53702 0.63011 0.0
O349 O 0.57596 0.53061 0.61127 0.0
O350 O 0.66695 0.62108 0.51811 0.0
C351 C 0.98186 0.35038 0.14014 0.0
O352 O 0.96428 0.34703 0.17872 0.0
O353 O 0.93528 0.47541 0.14113 0.0
Zn354 Zn 0.92945 0.42409 0.10005 0.0
O355 O 0.95282 0.43873 0.04318 0.0
C356 C 0.85479 0.44435 0.05874 0.0
O357 O 0.87265 0.4821 0.06777 0.0
O358 O 0.96907 0.37689 0.1128 0.0
C359 C 0.94787 0.40732 0.01722 0.0
O360 O 0.93188 0.3703 0.03093 0.0
C361 C 0.94552 0.51274 0.12698 0.0
O362 O 0.95453 0.51813 0.08561 0.0
O363 O 0.86986 0.41178 0.07604 0.0
C364 C 0.58108 0.74674 0.56412 0.0
O365 O 0.59822 0.74241 0.52569 0.0
O366 O 0.69456 0.69528 0.56325 0.0
Zn367 Zn 0.65013 0.70039 0.6114 0.0
O368 O 0.67688 0.74293 0.64957 0.0
C369 C 0.65947 0.64125 0.68574 0.0
O370 O 0.69499 0.66417 0.69223 0.0
O371 O 0.59718 0.73021 0.59733 0.0
C372 C 0.65662 0.75172 0.68341 0.0
O373 O 0.61932 0.73247 0.69089 0.0
C374 C 0.73013 0.68144 0.57317 0.0
O375 O 0.73563 0.66696 0.61258 0.0
O376 O 0.63702 0.64884 0.65245 0.0
C377 C 0.48321 0.29313 0.40944 0.0
O378 O 0.48622 0.30382 0.45064 0.0
O379 O 0.37913 0.34114 0.457 0.0
Zn380 Zn 0.42612 0.35884 0.41403 0.0
O381 O 0.47183 0.38847 0.44659 0.0
C382 C 0.38633 0.43284 0.37881 0.0
O383 O 0.3678 0.43342 0.41688 0.0
O384 O 0.45575 0.30996 0.386 0.0
C385 C 0.50227 0.403 0.42313 0.0
O386 O 0.49996 0.39965 0.38063 0.0
C387 C 0.37136 0.36262 0.49078 0.0
O388 O 0.39415 0.39816 0.4987 0.0
O389 O 0.40996 0.40304 0.3698 0.0
C390 C 0.02464 0.6264 0.91385 0.0
O391 O 0.02448 0.60923 0.95276 0.0
O392 O 0.12782 0.58076 0.95104 0.0
Zn393 Zn 0.08989 0.56837 0.89872 0.0
O394 O 0.04967 0.52083 0.91261 0.0
C395 C 0.14505 0.52344 0.8362 0.0
O396 O 0.17399 0.5198 0.86612 0.0
O397 O 0.05158 0.61567 0.88607 0.0
C398 C 0.05582 0.48206 0.90559 0.0
O399 O 0.09355 0.47072 0.89569 0.0
C400 C 0.13917 0.55269 0.97759 0.0
O401 O 0.12862 0.51237 0.97005 0.0
O402 O 0.114 0.54557 0.84381 0.0
C403 C 0.37563 0.24328 0.39021 0.0
O404 O 0.36285 0.24192 0.34961 0.0
O405 O 0.33531 0.35114 0.34741 0.0
Zn406 Zn 0.31513 0.3069 0.39312 0.0
O407 O 0.27966 0.26689 0.3591 0.0
C408 C 0.26175 0.36396 0.44405 0.0
O409 O 0.27724 0.39625 0.4207 0.0
O410 O 0.3606 0.27007 0.41587 0.0
C411 C 0.23982 0.26474 0.35745 0.0
O412 O 0.21849 0.28801 0.38373 0.0
C413 C 0.30875 0.36748 0.32238 0.0
O414 O 0.26831 0.35845 0.32902 0.0
O415 O 0.27563 0.32742 0.4389 0.0
C416 C 0.94723 0.08753 0.96823 0.0
C417 C 0.98915 0.07721 0.9733 0.0
H418 H 0.88266 0.06384 0.96377 0.0
C419 C 0.99843 0.03441 0.9758 0.0
H420 H 0.9393 0.12037 0.96663 0.0
C421 C 0.9663 0.00245 0.9754 0.0
C422 C 0.92423 0.0126 0.97176 0.0
H423 H 0.03056 0.02555 0.97956 0.0
H424 H 0.97461 0.96978 0.97786 0.0
C425 C 0.91488 0.0553 0.96739 0.0
C426 C 0.26198 0.71821 0.31143 0.0
C427 C 0.25566 0.69954 0.2704 0.0
H428 H 0.25265 0.77212 0.35167 0.0
C429 C 0.23494 0.72153 0.23787 0.0
H430 H 0.27812 0.7021 0.33692 0.0
C431 C 0.22143 0.76165 0.24588 0.0
C432 C 0.22767 0.7803 0.28679 0.0
H433 H 0.22965 0.70814 0.20575 0.0
H434 H 0.20531 0.77762 0.22025 0.0
C435 C 0.24781 0.75832 0.31966 0.0
C436 C 0.54919 0.9395 0.50442 0.0
C437 C 0.51471 0.95486 0.52634 0.0
H438 H 0.61201 0.95491 0.48217 0.0
C439 C 0.5213 0.98976 0.55458 0.0
H440 H 0.5455 0.91134 0.48421 0.0
C441 C 0.5597 0.01343 0.55464 0.0
C442 C 0.59027 0.00377 0.52436 0.0
H443 H 0.49591 0.0014 0.57351 0.0
H444 H 0.56195 0.04379 0.57136 0.0
C445 C 0.58762 0.96368 0.50436 0.0
C446 C 0.25435 0.24522 0.78342 0.0
C447 C 0.29302 0.26612 0.79463 0.0
H448 H 0.19652 0.24892 0.74962 0.0
C449 C 0.30141 0.30933 0.78555 0.0
H450 H 0.24755 0.21181 0.79095 0.0
C451 C 0.27253 0.33061 0.76123 0.0
C452 C 0.23534 0.30851 0.74647 0.0
H453 H 0.33135 0.32559 0.79438 0.0
H454 H 0.2805 0.36331 0.75181 0.0
C455 C 0.22539 0.26643 0.7598 0.0
C456 C 0.03485 0.00529 0.49305 0.0
C457 C 0.02382 0.99505 0.45003 0.0
H458 H 0.01336 0.01561 0.55746 0.0
C459 C 0.98108 0.98742 0.43894 0.0
H460 H 0.06754 0.01107 0.50262 0.0
C461 C 0.9499 0.98957 0.47055 0.0
C462 C 0.96105 0.99958 0.51362 0.0
H463 H 0.97168 0.97902 0.40604 0.0
H464 H 0.91717 0.98386 0.46114 0.0
C465 C 0.00378 0.00748 0.52454 0.0
C466 C 0.31376 0.77607 0.79972 0.0
C467 C 0.30208 0.77976 0.75595 0.0
H468 H 0.29339 0.76139 0.8646 0.0
C469 C 0.2594 0.77319 0.74441 0.0
H470 H 0.34639 0.78138 0.80963 0.0
C471 C 0.22911 0.76209 0.77583 0.0
C472 C 0.24084 0.75734 0.81945 0.0
H473 H 0.24933 0.7762 0.711 0.0
H474 H 0.19658 0.75637 0.76569 0.0
C475 C 0.28337 0.76502 0.83125 0.0
C476 C 0.45961 0.97599 0.98024 0.0
C477 C 0.48112 0.00946 0.95759 0.0
H478 H 0.46422 0.92434 0.02436 0.0
C479 C 0.52506 0.01623 0.96193 0.0
H480 H 0.42574 0.97009 0.97748 0.0
C481 C 0.54714 0.98998 0.98867 0.0
C482 C 0.52557 0.95674 0.0116 0.0
H483 H 0.54246 0.0418 0.94469 0.0
H484 H 0.581 0.99592 0.99154 0.0
C485 C 0.48165 0.94988 0.00713 0.0
C486 C 0.24625 0.22876 0.28703 0.0
C487 C 0.22034 0.2467 0.31804 0.0
H488 H 0.25267 0.20821 0.22176 0.0
C489 C 0.17833 0.25333 0.30772 0.0
H490 H 0.27866 0.22272 0.29414 0.0
C491 C 0.16327 0.24428 0.266 0.0
C492 C 0.19041 0.22944 0.23441 0.0
H493 H 0.15776 0.26706 0.33112 0.0
H494 H 0.13097 0.25007 0.25806 0.0
C495 C 0.23163 0.22094 0.24536 0.0
C496 C 0.44483 0.50207 0.96968 0.0
C497 C 0.44225 0.49934 0.01508 0.0
H498 H 0.48427 0.49998 0.9137 0.0
C499 C 0.4785 0.49178 0.03924 0.0
H500 H 0.41747 0.50814 0.9503 0.0
C501 C 0.51683 0.48782 0.01842 0.0
C502 C 0.5195 0.49092 0.97308 0.0
H503 H 0.47758 0.48979 0.07438 0.0
H504 H 0.5442 0.48194 0.03788 0.0
C505 C 0.48316 0.49783 0.94882 0.0
C506 C 0.76195 0.2557 0.23016 0.0
C507 C 0.80544 0.26582 0.23402 0.0
H508 H 0.70899 0.2153 0.25005 0.0
C509 C 0.82939 0.24181 0.26197 0.0
H510 H 0.74268 0.27357 0.20879 0.0
C511 C 0.81001 0.20807 0.28564 0.0
C512 C 0.76647 0.19805 0.28168 0.0
H513 H 0.86306 0.24883 0.26535 0.0
H514 H 0.82905 0.19012 0.30715 0.0
C515 C 0.74267 0.22216 0.25372 0.0
C516 C 0.97383 0.48397 0.53306 0.0
C517 C 0.01756 0.49425 0.53191 0.0
H518 H 0.9136 0.49561 0.50651 0.0
C519 C 0.03443 0.52364 0.50136 0.0
H520 H 0.96002 0.46121 0.55629 0.0
C521 C 0.00794 0.54303 0.4728 0.0
C522 C 0.96411 0.53348 0.47451 0.0
H523 H 0.06804 0.5319 0.4996 0.0
H524 H 0.02186 0.56601 0.44985 0.0
C525 C 0.94726 0.50353 0.50457 0.0
C526 C 0.76488 0.74906 0.25786 0.0
C527 C 0.79017 0.77254 0.28785 0.0
H528 H 0.70708 0.74372 0.22302 0.0
C529 C 0.77669 0.81051 0.30503 0.0
H530 H 0.7744 0.71942 0.24444 0.0
C531 C 0.73819 0.82489 0.2921 0.0
C532 C 0.71256 0.8007 0.26292 0.0
H533 H 0.79579 0.82891 0.32841 0.0
H534 H 0.72829 0.85453 0.30513 0.0
C535 C 0.72609 0.76267 0.24603 0.0
C536 C 0.75658 0.19793 0.81068 0.0
C537 C 0.77674 0.20355 0.77035 0.0
H538 H 0.72893 0.22842 0.86474 0.0
C539 C 0.78777 0.2449 0.7551 0.0
H540 H 0.74821 0.16639 0.82334 0.0
C541 C 0.77714 0.27999 0.77865 0.0
C542 C 0.75537 0.27449 0.81795 0.0
H543 H 0.80399 0.2504 0.72443 0.0
H544 H 0.78491 0.31145 0.76543 0.0
C545 C 0.74601 0.23333 0.83449 0.0
C546 C 0.71726 0.76138 0.78584 0.0
C547 C 0.74562 0.79601 0.77564 0.0
H548 H 0.66423 0.72134 0.76445 0.0
C549 C 0.73987 0.82011 0.73814 0.0
H550 H 0.72081 0.74309 0.81527 0.0
C551 C 0.70786 0.80766 0.70926 0.0
C552 C 0.68078 0.77186 0.71843 0.0
H553 H 0.76125 0.84731 0.73018 0.0
H554 H 0.70554 0.8246 0.67879 0.0
C555 C 0.68451 0.74963 0.75748 0.0
C556 C 0.55169 0.41468 0.48433 0.0
C557 C 0.53741 0.42718 0.44349 0.0
H558 H 0.58842 0.43298 0.54039 0.0
C559 C 0.55306 0.46565 0.42497 0.0
H560 H 0.53991 0.3848 0.49878 0.0
C561 C 0.57974 0.4934 0.44904 0.0
C562 C 0.59179 0.48209 0.49104 0.0
H563 H 0.54215 0.47566 0.39348 0.0
H564 H 0.58935 0.52445 0.43578 0.0
C565 C 0.5794 0.44191 0.50786 0.0
C566 C 0.0323 0.41253 0.93726 0.0
C567 C 0.02231 0.4504 0.91709 0.0
H568 H 0.01353 0.36721 0.98653 0.0
C569 C 0.98095 0.46316 0.91862 0.0
H570 H 0.0639 0.40181 0.93567 0.0
C571 C 0.95265 0.44386 0.9479 0.0
C572 C 0.96567 0.41132 0.97436 0.0
H573 H 0.97244 0.49165 0.90199 0.0
H574 H 0.92301 0.45789 0.95386 0.0
C575 C 0.00359 0.39275 0.96618 0.0
C576 C 0.14618 0.02605 0.12828 0.0
C577 C 0.1029 0.0324 0.12938 0.0
H578 H 0.19672 0.99231 0.15408 0.0
C579 C 0.0766 0.00645 0.15669 0.0
H580 H 0.1671 0.04482 0.10682 0.0
C581 C 0.09352 0.97618 0.18382 0.0
C582 C 0.1371 0.97085 0.18388 0.0
H583 H 0.04302 0.01023 0.15785 0.0
H584 H 0.07254 0.95753 0.20533 0.0
C585 C 0.16307 0.99563 0.15515 0.0
C586 C 0.31317 0.90719 0.41738 0.0
C587 C 0.31001 0.94281 0.44435 0.0
H588 H 0.29119 0.87403 0.36005 0.0
C589 C 0.28224 0.97372 0.43242 0.0
H590 H 0.33434 0.8829 0.42547 0.0
C591 C 0.25722 0.96837 0.39502 0.0
C592 C 0.26006 0.93234 0.36873 0.0
H593 H 0.27906 0.00151 0.45253 0.0
H594 H 0.23542 0.99205 0.38693 0.0
C595 C 0.28867 0.90219 0.37983 0.0
C596 C 0.40233 0.06906 0.70529 0.0
C597 C 0.36039 0.07306 0.71766 0.0
H598 H 0.44523 0.0362 0.66686 0.0
C599 C 0.32845 0.04604 0.69835 0.0
H600 H 0.42763 0.08958 0.71912 0.0
C601 C 0.33854 0.01489 0.66812 0.0
C602 C 0.38075 0.01039 0.65659 0.0
H603 H 0.29573 0.04846 0.70717 0.0
H604 H 0.31349 0.99408 0.65429 0.0
C605 C 0.41234 0.0383 0.67516 0.0
C606 C 0.2448 0.08003 0.91354 0.0
C607 C 0.26519 0.11877 0.90029 0.0
H608 H 0.19575 0.04888 0.95175 0.0
C609 C 0.25002 0.15699 0.9155 0.0
H610 H 0.25568 0.05012 0.90233 0.0
C611 C 0.2152 0.15641 0.94349 0.0
C612 C 0.19518 0.11758 0.95727 0.0
H613 H 0.26486 0.18743 0.90549 0.0
H614 H 0.2043 0.18632 0.95466 0.0
C615 C 0.21042 0.07943 0.94191 0.0
C616 C 0.13487 0.07957 0.22133 0.0
C617 C 0.17793 0.08657 0.2115 0.0
H618 H 0.08787 0.04686 0.26112 0.0
C619 C 0.20733 0.06662 0.23736 0.0
H620 H 0.11145 0.09525 0.20288 0.0
C621 C 0.1938 0.03927 0.27139 0.0
C622 C 0.1506 0.03122 0.28007 0.0
H623 H 0.2408 0.07179 0.23099 0.0
H624 H 0.21703 0.02367 0.29021 0.0
C625 C 0.12138 0.05203 0.25494 0.0
C626 C 0.25312 0.91001 0.54931 0.0
C627 C 0.27565 0.87313 0.55043 0.0
H628 H 0.209 0.9462 0.51529 0.0
C629 C 0.27013 0.84385 0.51606 0.0
H630 H 0.25676 0.93343 0.57503 0.0
C631 C 0.24198 0.85088 0.48197 0.0
C632 C 0.21943 0.8878 0.48102 0.0
H633 H 0.28693 0.81512 0.5159 0.0
H634 H 0.23813 0.82755 0.45618 0.0
C635 C 0.22572 0.91742 0.51494 0.0
C636 C 0.45031 0.978 0.75509 0.0
C637 C 0.42458 0.0018 0.78171 0.0
H638 H 0.45338 0.92719 0.70879 0.0
C639 C 0.38098 0.99101 0.78205 0.0
H640 H 0.48408 0.98537 0.75408 0.0
C641 C 0.36352 0.9575 0.75646 0.0
C642 C 0.38905 0.93396 0.7294 0.0
H643 H 0.36022 0.00837 0.80229 0.0
H644 H 0.32973 0.95033 0.75767 0.0
C645 C 0.43274 0.94465 0.72905 0.0
C646 C 0.33413 0.18886 0.98419 0.0
C647 C 0.35008 0.15077 0.96973 0.0
H648 H 0.28748 0.21797 0.02246 0.0
C649 C 0.33053 0.11197 0.98438 0.0
H650 H 0.34834 0.2193 0.97343 0.0
C651 C 0.29602 0.11121 0.01278 0.0
C652 C 0.27964 0.14921 0.02688 0.0
H653 H 0.34201 0.08203 0.97401 0.0
H654 H 0.28185 0.08067 0.02329 0.0
C655 C 0.29912 0.18809 0.01217 0.0
C656 C 0.95145 0.26816 0.04695 0.0
C657 C 0.92608 0.27085 0.08415 0.0
H658 H 0.00308 0.23896 0.01674 0.0
C659 C 0.93318 0.24426 0.11966 0.0
H660 H 0.94656 0.28806 0.01898 0.0
C661 C 0.96439 0.21502 0.11774 0.0
C662 C 0.99048 0.21291 0.08098 0.0
H663 H 0.91397 0.24546 0.14866 0.0
H664 H 0.96858 0.1945 0.14542 0.0
C665 C 0.98387 0.2401 0.04571 0.0
C666 C 0.51589 0.32967 0.8139 0.0
C667 C 0.51696 0.33992 0.85833 0.0
H668 H 0.48949 0.28802 0.76428 0.0
C669 C 0.49151 0.3147 0.88716 0.0
H670 H 0.53493 0.34855 0.79085 0.0
C671 C 0.46595 0.27989 0.87212 0.0
C672 C 0.46478 0.26955 0.82776 0.0
H673 H 0.49153 0.3216 0.92163 0.0
H674 H 0.44682 0.2613 0.89532 0.0
C675 C 0.4898 0.29503 0.79873 0.0
C676 C 0.05205 0.7339 0.38062 0.0
C677 C 0.02171 0.70922 0.35656 0.0
H678 H 0.10002 0.78531 0.3801 0.0
C679 C 0.01962 0.71556 0.31139 0.0
H680 H 0.05482 0.72959 0.41539 0.0
C681 C 0.04573 0.74736 0.29117 0.0
C682 C 0.07417 0.77377 0.31574 0.0
H683 H 0.99708 0.69663 0.2918 0.0
H684 H 0.04261 0.75221 0.25651 0.0
C685 C 0.07778 0.76603 0.36048 0.0
C686 C 0.04107 0.33355 0.08987 0.0
C687 C 0.01756 0.32436 0.12802 0.0
H688 H 0.09315 0.31824 0.04958 0.0
C689 C 0.02873 0.29033 0.15415 0.0
H690 H 0.03363 0.35965 0.06899 0.0
C691 C 0.06197 0.26571 0.14207 0.0
C692 C 0.0857 0.27533 0.10429 0.0
H693 H 0.01141 0.28225 0.18366 0.0
H694 H 0.06957 0.23965 0.16285 0.0
C695 C 0.07511 0.30975 0.07855 0.0
C696 C 0.51863 0.78377 0.53617 0.0
C697 C 0.54577 0.7746 0.57043 0.0
H698 H 0.46492 0.81648 0.5161 0.0
C699 C 0.53944 0.79296 0.61139 0.0
H700 H 0.52259 0.76999 0.50433 0.0
C701 C 0.50737 0.82044 0.61778 0.0
C702 C 0.47997 0.82936 0.58376 0.0
H703 H 0.5599 0.78681 0.63847 0.0
H704 H 0.50404 0.83485 0.64944 0.0
C705 C 0.48549 0.81021 0.54301 0.0
C706 C 0.97719 0.79919 0.38852 0.0
C707 C 0.96736 0.80047 0.34402 0.0
H708 H 0.01693 0.82431 0.44003 0.0
C709 C 0.98849 0.83184 0.31793 0.0
H710 H 0.96114 0.77581 0.40965 0.0
C711 C 0.02048 0.85951 0.33529 0.0
C712 C 0.03219 0.85644 0.37913 0.0
H713 H 0.98139 0.83414 0.28364 0.0
H714 H 0.03671 0.88269 0.31405 0.0
C715 C 0.0092 0.82698 0.40592 0.0
C716 C 0.54953 0.21373 0.82689 0.0
C717 C 0.53788 0.20807 0.87065 0.0
H718 H 0.58765 0.24978 0.78067 0.0
C719 C 0.55723 0.23559 0.90195 0.0
H720 H 0.53548 0.193 0.80199 0.0
C721 C 0.58681 0.26852 0.88969 0.0
C722 C 0.59817 0.27442 0.84589 0.0
H723 H 0.54909 0.23209 0.936 0.0
H724 H 0.60104 0.28904 0.9146 0.0
C725 C 0.57951 0.2463 0.81472 0.0
C726 C 0.87206 0.04042 0.80589 0.0
C727 C 0.84774 0.04324 0.76801 0.0
H728 H 0.88291 0.00644 0.86456 0.0
C729 C 0.81435 0.01222 0.76085 0.0
H730 H 0.89795 0.06369 0.81254 0.0
C731 C 0.80526 0.97953 0.79122 0.0
C732 C 0.82978 0.97679 0.82899 0.0
H733 H 0.7948 0.01358 0.73215 0.0
H734 H 0.77931 0.9562 0.78495 0.0
C735 C 0.8634 0.00751 0.83579 0.0
C736 C 0.67784 0.12355 0.54501 0.0
C737 C 0.6769 0.14641 0.50593 0.0
H738 H 0.71326 0.10806 0.60104 0.0
C739 C 0.71226 0.1728 0.4937 0.0
H740 H 0.6509 0.10293 0.55512 0.0
C741 C 0.74775 0.17694 0.52095 0.0
C742 C 0.7489 0.15335 0.55979 0.0
H743 H 0.71217 0.1906 0.46359 0.0
H744 H 0.77453 0.19795 0.51126 0.0
C745 C 0.71362 0.1264 0.57126 0.0
C746 C 0.59752 0.91433 0.30504 0.0
C747 C 0.56268 0.91705 0.27728 0.0
H748 H 0.63479 0.94256 0.35665 0.0
C749 C 0.53778 0.95201 0.28177 0.0
H750 H 0.61723 0.88776 0.30291 0.0
C751 C 0.54838 0.98408 0.31245 0.0
C752 C 0.58361 0.98134 0.33972 0.0
H753 H 0.51087 0.95523 0.26078 0.0
H754 H 0.52888 0.01079 0.31505 0.0
C755 C 0.60768 0.94585 0.33592 0.0
C756 C 0.72771 0.9026 0.04764 0.0
C757 C 0.76275 0.88106 0.03402 0.0
H758 H 0.67374 0.90255 0.08958 0.0
C759 C 0.77139 0.84323 0.05533 0.0
H760 H 0.7203 0.93204 0.0322 0.0
C761 C 0.74477 0.8264 0.08817 0.0
C762 C 0.70871 0.84689 0.10054 0.0
H763 H 0.79834 0.82605 0.0461 0.0
H764 H 0.752 0.79665 0.10309 0.0
C765 C 0.70099 0.88572 0.08057 0.0
C766 C 0.92821 0.96046 0.76962 0.0
C767 C 0.90593 0.96402 0.73032 0.0
H768 H 0.93683 0.92347 0.82751 0.0
C769 C 0.8753 0.93157 0.71916 0.0
H770 H 0.95195 0.98499 0.77922 0.0
C771 C 0.86762 0.89617 0.7461 0.0
C772 C 0.88948 0.89282 0.78546 0.0
H773 H 0.85771 0.93308 0.68913 0.0
H774 H 0.8443 0.87133 0.7362 0.0
C775 C 0.91954 0.92545 0.79734 0.0
C776 C 0.81618 0.11126 0.48323 0.0
C777 C 0.81509 0.08211 0.51794 0.0
H778 H 0.78679 0.13193 0.42506 0.0
C779 C 0.78191 0.05013 0.51946 0.0
H780 H 0.84117 0.13633 0.48089 0.0
C781 C 0.75101 0.04711 0.48671 0.0
C782 C 0.75208 0.07653 0.45221 0.0
H783 H 0.78023 0.02694 0.54548 0.0
H784 H 0.72614 0.02188 0.48857 0.0
C785 C 0.78494 0.10874 0.45109 0.0
C786 C 0.58643 0.00586 0.20328 0.0
C787 C 0.60334 0.9686 0.18801 0.0
H788 H 0.59292 0.05896 0.24666 0.0
C789 C 0.6422 0.95747 0.2049 0.0
H790 H 0.55665 0.01552 0.19103 0.0
C791 C 0.66321 0.98266 0.23687 0.0
C792 C 0.6456 0.01928 0.25288 0.0
H793 H 0.65629 0.92919 0.19358 0.0
H794 H 0.69292 0.97314 0.24947 0.0
C795 C 0.60714 0.03069 0.23544 0.0
C796 C 0.68447 0.77961 0.0126 0.0
C797 C 0.6543 0.81025 0.01376 0.0
H798 H 0.74156 0.76006 0.9834 0.0
C799 C 0.65808 0.84412 0.98397 0.0
H800 H 0.6826 0.75327 0.03529 0.0
C801 C 0.69143 0.84781 0.95439 0.0
C802 C 0.72245 0.81816 0.95412 0.0
H803 H 0.63544 0.86825 0.98381 0.0
H804 H 0.69334 0.87452 0.93214 0.0
C805 C 0.7185 0.78376 0.98331 0.0
C806 C 0.97316 0.80856 0.884 0.0
C807 C 0.96735 0.8116 0.92915 0.0
H808 H 0.00846 0.78351 0.83187 0.0
C809 C 0.99437 0.79044 0.9567 0.0
H810 H 0.95328 0.82471 0.86179 0.0
C811 C 0.02622 0.76669 0.93951 0.0
C812 C 0.03204 0.76375 0.89431 0.0
H813 H 0.99088 0.79213 0.99165 0.0
H814 H 0.0463 0.75068 0.96167 0.0
C815 C 0.00508 0.78505 0.86683 0.0
C816 C 0.49233 0.66726 0.10793 0.0
C817 C 0.46764 0.63927 0.1348 0.0
H818 H 0.53869 0.71998 0.10432 0.0
C819 C 0.47401 0.64156 0.17993 0.0
H820 H 0.48861 0.66616 0.07296 0.0
C821 C 0.50291 0.67226 0.19793 0.0
C822 C 0.526 0.70164 0.17118 0.0
H823 H 0.45663 0.61971 0.20143 0.0
H824 H 0.50627 0.67368 0.23292 0.0
C825 C 0.52101 0.69821 0.1259 0.0
C826 C 0.98187 0.29589 0.68361 0.0
C827 C 0.98534 0.30776 0.63972 0.0
H828 H 0.95289 0.25254 0.73022 0.0
C829 C 0.96233 0.28297 0.60855 0.0
H830 H 0.9991 0.31427 0.70839 0.0
C831 C 0.93631 0.24737 0.6209 0.0
C832 C 0.93226 0.23584 0.66481 0.0
H833 H 0.96439 0.29104 0.57437 0.0
H834 H 0.91887 0.22928 0.59606 0.0
C835 C 0.95532 0.26054 0.69605 0.0
C836 C 0.98337 0.66299 0.85729 0.0
C837 C 0.99135 0.65476 0.90131 0.0
H838 H 0.94544 0.69384 0.81113 0.0
C839 C 0.9661 0.67251 0.9331 0.0
H840 H 0.00211 0.64969 0.83197 0.0
C841 C 0.93382 0.6982 0.92114 0.0
C842 C 0.9256 0.70607 0.87711 0.0
H843 H 0.97147 0.66684 0.9673 0.0
H844 H 0.91519 0.71177 0.9464 0.0
C845 C 0.95067 0.68807 0.84533 0.0
C846 C 0.42775 0.18925 0.37484 0.0
C847 C 0.40782 0.2146 0.40509 0.0
H848 H 0.47525 0.14567 0.3635 0.0
C849 C 0.41975 0.21285 0.44904 0.0
H850 H 0.4193 0.18964 0.34077 0.0
C851 C 0.45175 0.18719 0.46214 0.0
C852 C 0.47271 0.1632 0.43148 0.0
H853 H 0.40486 0.23181 0.4732 0.0
H854 H 0.46088 0.18708 0.49604 0.0
C855 C 0.45996 0.16409 0.38783 0.0
C856 C 0.0048 0.16733 0.66832 0.0
C857 C 0.99385 0.15926 0.6248 0.0
H858 H 0.04241 0.20575 0.71294 0.0
C859 C 0.01339 0.18524 0.59225 0.0
H860 H 0.99061 0.14775 0.69408 0.0
C861 C 0.04284 0.21879 0.60298 0.0
C862 C 0.05392 0.22683 0.64651 0.0
H863 H 0.00569 0.17984 0.55833 0.0
H864 H 0.05708 0.23822 0.57715 0.0
C865 C 0.03465 0.20054 0.67901 0.0
C866 C 0.42629 0.74038 0.19116 0.0
C867 C 0.39994 0.71263 0.16562 0.0
H868 H 0.4749 0.79111 0.19233 0.0
C869 C 0.40122 0.71744 0.12025 0.0
H870 H 0.42588 0.73794 0.22625 0.0
C871 C 0.42929 0.74803 0.10078 0.0
C872 C 0.45693 0.77448 0.12624 0.0
H873 H 0.38072 0.69744 0.09968 0.0
H874 H 0.43001 0.75017 0.06566 0.0
C875 C 0.45448 0.77088 0.17171 0.0
C876 C 0.67399 0.48013 0.71734 0.0
C877 C 0.64194 0.45234 0.73527 0.0
H878 H 0.6903 0.52874 0.66977 0.0
C879 C 0.60097 0.45301 0.71838 0.0
H880 H 0.70597 0.48015 0.72945 0.0
C881 C 0.59201 0.48081 0.68484 0.0
C882 C 0.62377 0.50872 0.66671 0.0
H883 H 0.57548 0.43217 0.73141 0.0
H884 H 0.55985 0.48036 0.67318 0.0
C885 C 0.66503 0.50791 0.68318 0.0
C886 C 0.80415 0.47664 0.0081 0.0
C887 C 0.82404 0.44054 0.02225 0.0
H888 H 0.76378 0.50338 0.96107 0.0
C889 C 0.8177 0.40271 -0.00179 0.0
H890 H 0.8087 0.50648 0.02551 0.0
C891 C 0.7916 0.40091 0.96141 0.0
C892 C 0.77184 0.43709 0.9473 0.0
H893 H 0.83337 0.37465 0.00741 0.0
H894 H 0.78731 0.37125 0.94365 0.0
C895 C 0.7786 0.47502 0.97098 0.0
C896 C 0.94381 0.58476 0.22574 0.0
C897 C 0.92531 0.62039 0.20857 0.0
H898 H 0.96401 0.52213 0.21355 0.0
C899 C 0.91721 0.62161 0.1637 0.0
H900 H 0.95204 0.58364 0.25978 0.0
C901 C 0.9253 0.58713 0.13713 0.0
C902 C 0.94105 0.55037 0.15488 0.0
H903 H 0.90335 0.64866 0.1492 0.0
H904 H 0.91756 0.58858 0.1029 0.0
C905 C 0.95092 0.54972 0.1993 0.0
C906 C 0.78425 0.60541 0.41966 0.0
C907 C 0.77364 0.64005 0.39425 0.0
H908 H 0.76885 0.56579 0.47481 0.0
C909 C 0.73729 0.66079 0.40497 0.0
H910 H 0.81161 0.58833 0.41165 0.0
C911 C 0.7129 0.6482 0.44129 0.0
C912 C 0.72398 0.61416 0.46747 0.0
H913 H 0.72832 0.68762 0.3859 0.0
H914 H 0.68549 0.66533 0.44897 0.0
C915 C 0.75959 0.59247 0.45575 0.0
C916 C 0.65994 0.56118 0.77856 0.0
C917 C 0.61697 0.5477 0.78221 0.0
H918 H 0.70704 0.60082 0.74496 0.0
C919 C 0.58803 0.56647 0.75486 0.0
H920 H 0.68306 0.5478 0.79938 0.0
C921 C 0.60177 0.59683 0.72378 0.0
C922 C 0.6448 0.60907 0.71887 0.0
H923 H 0.55461 0.55745 0.7571 0.0
H924 H 0.57856 0.61116 0.70408 0.0
C925 C 0.67366 0.59159 0.74733 0.0
C926 C 0.72096 0.35177 0.0275 0.0
C927 C 0.73012 0.38559 0.05647 0.0
H928 H 0.6864 0.32973 0.97091 0.0
C929 C 0.7117 0.42425 0.04961 0.0
H930 H 0.73473 0.32163 0.03224 0.0
C931 C 0.68536 0.42939 0.01376 0.0
C932 C 0.67571 0.39541 0.98508 0.0
H933 H 0.71844 0.45081 0.07146 0.0
H934 H 0.67204 0.45972 0.00885 0.0
C935 C 0.69337 0.3564 0.99256 0.0
C936 C 0.85248 0.53422 0.26549 0.0
C937 C 0.88591 0.52189 0.29147 0.0
H938 H 0.81245 0.51964 0.21053 0.0
C939 C 0.90442 0.48386 0.28107 0.0
H940 H 0.8378 0.56351 0.27223 0.0
C941 C 0.89018 0.45893 0.24569 0.0
C942 C 0.8569 0.47116 0.21953 0.0
H943 H 0.93033 0.47332 0.30014 0.0
H944 H 0.9053 0.42989 0.23897 0.0
C945 C 0.83823 0.5092 0.22987 0.0
C946 C 0.80414 0.71209 0.47904 0.0
C947 C 0.83352 0.68081 0.4819 0.0
H948 H 0.7475 0.73605 0.50475 0.0
C949 C 0.82904 0.65059 0.51543 0.0
H950 H 0.80655 0.73554 0.45326 0.0
C951 C 0.79581 0.65136 0.54523 0.0
C952 C 0.76548 0.6816 0.54151 0.0
H953 H 0.85111 0.62607 0.5184 0.0
H954 H 0.79319 0.62745 0.57056 0.0
C955 C 0.77012 0.71214 0.50821 0.0
C956 C 0.48931 0.67663 0.56125 0.0
C957 C 0.51162 0.66749 0.59912 0.0
H958 H 0.43922 0.70969 0.53306 0.0
C959 C 0.49978 0.68582 0.63855 0.0
H960 H 0.49747 0.66269 0.53048 0.0
C961 C 0.4671 0.71355 0.63994 0.0
C962 C 0.44463 0.72273 0.60211 0.0
H963 H 0.51634 0.67929 0.6683 0.0
H964 H 0.4594 0.72775 0.67072 0.0
C965 C 0.45572 0.70331 0.56287 0.0
C966 C 0.40653 0.51281 0.28785 0.0
C967 C 0.36719 0.53023 0.28425 0.0
H968 H 0.44303 0.46736 0.31996 0.0
C969 C 0.33471 0.51647 0.31303 0.0
H970 H 0.43209 0.52278 0.26605 0.0
C971 C 0.34131 0.48557 0.34451 0.0
C972 C 0.38007 0.46691 0.34691 0.0
H973 H 0.30417 0.52956 0.31117 0.0
H974 H 0.31564 0.47529 0.36607 0.0
C975 C 0.41272 0.48099 0.3185 0.0
C976 C 0.18932 0.62021 0.06795 0.0
C977 C 0.21417 0.59135 0.0892 0.0
H978 H 0.14662 0.63079 0.01596 0.0
C979 C 0.21195 0.5488 0.07517 0.0
H980 H 0.18996 0.65317 0.07804 0.0
C981 C 0.18674 0.53591 0.03953 0.0
C982 C 0.1636 0.5654 0.01704 0.0
H983 H 0.2305 0.52572 0.09095 0.0
H984 H 0.18649 0.50318 0.02875 0.0
C985 C 0.16451 0.60745 0.03221 0.0
C986 C 0.09928 0.46967 0.7957 0.0
C987 C 0.13939 0.49076 0.80185 0.0
H988 H 0.06275 0.41893 0.76407 0.0
C989 C 0.17334 0.47842 0.7769 0.0
H990 H 0.07224 0.47884 0.81388 0.0
C991 C 0.16709 0.44568 0.7462 0.0
C992 C 0.12734 0.42344 0.74178 0.0
H993 H 0.20447 0.49418 0.78097 0.0
H994 H 0.19366 0.43673 0.72715 0.0
C995 C 0.09363 0.43553 0.76701 0.0
C996 C 0.28373 0.29469 0.54648 0.0
C997 C 0.26262 0.32547 0.56932 0.0
H998 H 0.33468 0.28227 0.50358 0.0
C999 C 0.27896 0.36806 0.56798 0.0
H1000 H 0.27205 0.26157 0.54712 0.0
C1001 C 0.31501 0.37982 0.54349 0.0
C1002 C 0.33524 0.34933 0.51935 0.0
H1003 H 0.26371 0.39243 0.58567 0.0
H1004 H 0.32627 0.41305 0.54244 0.0
C1005 C 0.31956 0.30653 0.52155 0.0
C1006 C 0.36397 0.39493 0.2688 0.0
C1007 C 0.32271 0.39503 0.28504 0.0
H1008 H 0.40928 0.42065 0.22274 0.0
C1009 C 0.29449 0.42129 0.26472 0.0
H1010 H 0.38633 0.3747 0.28322 0.0
C1011 C 0.30763 0.44781 0.22992 0.0
C1012 C 0.34924 0.44847 0.21437 0.0
H1013 H 0.26237 0.42201 0.27626 0.0
H1014 H 0.28536 0.46828 0.2157 0.0
C1015 C 0.37702 0.42121 0.23388 0.0
C1016 C 0.27592 0.57675 0.9881 0.0
C1017 C 0.29051 0.60885 0.01725 0.0
H1018 H 0.23722 0.56014 0.93262 0.0
C1019 C 0.27629 0.64982 0.01223 0.0
H1020 H 0.28656 0.54496 0.99092 0.0
C1021 C 0.24703 0.65816 0.97974 0.0
C1022 C 0.23245 0.62608 0.95057 0.0
H1023 H 0.28702 0.67522 0.03414 0.0
H1024 H 0.23611 0.68986 0.97719 0.0
C1025 C 0.24781 0.58548 0.95464 0.0
C1026 C 0.05433 0.55068 0.74015 0.0
C1027 C 0.08062 0.53018 0.7113 0.0
H1028 H 0.04996 0.59826 0.78954 0.0
C1029 C 0.12335 0.5447 0.7086 0.0
H1030 H 0.02124 0.54031 0.74294 0.0
C1031 C 0.13966 0.57826 0.73483 0.0
C1032 C 0.11378 0.59771 0.7649 0.0
H1033 H 0.14437 0.52982 0.68649 0.0
H1034 H 0.17293 0.588 0.7325 0.0
C1035 C 0.07078 0.58387 0.76687 0.0
C1036 C 0.16251 0.33696 0.50922 0.0
C1037 C 0.15562 0.37599 0.529 0.0
H1038 H 0.20227 0.30229 0.46844 0.0
C1039 C 0.1837 0.41149 0.52027 0.0
H1040 H 0.14159 0.30901 0.51554 0.0
C1041 C 0.21789 0.40797 0.49204 0.0
C1042 C 0.22539 0.36856 0.47329 0.0
H1043 H 0.179 0.44204 0.53494 0.0
H1044 H 0.23899 0.43577 0.4857 0.0
C1045 C 0.19739 0.33312 0.48232 0.0
C1046 C 0.512 0.25199 0.3469 0.0
C1047 C 0.51309 0.2636 0.39102 0.0
H1048 H 0.53853 0.21526 0.29636 0.0
C1049 C 0.54396 0.24731 0.41788 0.0
H1050 H 0.48885 0.26415 0.32524 0.0
C1051 C 0.57255 0.21967 0.40135 0.0
C1052 C 0.57094 0.20722 0.35753 0.0
H1053 H 0.54607 0.25572 0.45196 0.0
H1054 H 0.59577 0.20783 0.42312 0.0
C1055 C 0.54053 0.22399 0.33037 0.0
loop_
_geom_bond_atom_site_label_1
_geom_bond_atom_site_label_2
_geom_bond_distance
_geom_bond_site_symmetry_2
_ccdc_geom_bond_type
C0 O1 1.160 . S
C0 O7 1.185 . S
O1 C0 1.160 . S
O2 Zn3 1.899 . S
O2 C10 1.284 . S
Zn3 O2 1.899 . S
Zn3 O4 2.032 . S
Zn3 O7 2.086 . S
Zn3 O12 1.977 . S
O4 Zn3 2.032 . S
O4 C8 1.278 . S
C5 O6 1.203 . S
C5 O12 1.267 . S
O6 C5 1.203 . S
O7 C0 1.185 . S
O7 Zn3 2.086 . S
C8 O4 1.278 . S
C8 O9 1.211 . S
O9 C8 1.211 . S
C10 O2 1.284 . S
C10 O11 1.273 . S
O11 C10 1.273 . S
O12 Zn3 1.977 . S
O12 C5 1.267 . S
C13 O14 1.160 . S
C13 O20 1.185 . S
O14 C13 1.160 . S
O15 Zn16 1.899 . S
O15 C23 1.284 . S
Zn16 O15 1.899 . S
Zn16 O17 2.032 . S
Zn16 O20 2.086 . S
Zn16 O25 1.977 . S
O17 Zn16 2.032 . S
O17 C21 1.278 . S
C18 O19 1.203 . S
C18 O25 1.267 . S
O19 C18 1.203 . S
O20 C13 1.185 . S
O20 Zn16 2.086 . S
C21 O17 1.278 . S
C21 O22 1.211 . S
O22 C21 1.211 . S
C23 O15 1.284 . S
C23 O24 1.273 . S
O24 C23 1.273 . S
O25 Zn16 1.977 . S
O25 C18 1.267 . S
C26 O27 1.160 . S
C26 O33 1.185 . S
O27 C26 1.160 . S
O28 Zn29 1.899 . S
O28 C36 1.284 . S
Zn29 O28 1.899 . S
Zn29 O30 2.032 . S
Zn29 O33 2.086 . S
Zn29 O38 1.977 . S
O30 Zn29 2.032 . S
O30 C34 1.278 . S
C31 O32 1.203 . S
C31 O38 1.267 . S
O32 C31 1.203 . S
O33 C26 1.185 . S
O33 Zn29 2.086 . S
C34 O30 1.278 . S
C34 O35 1.211 . S
O35 C34 1.211 . S
C36 O28 1.284 . S
C36 O37 1.273 . S
O37 C36 1.273 . S
O38 Zn29 1.977 . S
O38 C31 1.267 . S
C39 O40 1.160 . S
C39 O46 1.185 . S
O40 C39 1.160 . S
O41 Zn42 1.899 . S
O41 C49 1.284 . S
Zn42 O41 1.899 . S
Zn42 O43 2.032 . S
Zn42 O46 2.086 . S
Zn42 O51 1.977 . S
O43 Zn42 2.032 . S
O43 C47 1.278 . S
C44 O45 1.203 . S
C44 O51 1.267 . S
O45 C44 1.203 . S
O46 C39 1.185 . S
O46 Zn42 2.086 . S
C47 O43 1.278 . S
C47 O48 1.211 . S
O48 C47 1.211 . S
C49 O41 1.284 . S
C49 O50 1.273 . S
O50 C49 1.273 . S
O51 Zn42 1.977 . S
O51 C44 1.267 . S
C52 O53 1.160 . S
C52 O59 1.185 . S
O53 C52 1.160 . S
O54 Zn55 1.899 . S
O54 C62 1.284 . S
Zn55 O54 1.899 . S
Zn55 O56 2.032 . S
Zn55 O59 2.086 . S
Zn55 O64 1.977 . S
O56 Zn55 2.032 . S
O56 C60 1.278 . S
C57 O58 1.203 . S
C57 O64 1.267 . S
O58 C57 1.203 . S
O59 C52 1.185 . S
O59 Zn55 2.086 . S
C60 O56 1.278 . S
C60 O61 1.211 . S
O61 C60 1.211 . S
C62 O54 1.284 . S
C62 O63 1.273 . S
O63 C62 1.273 . S
O64 Zn55 1.977 . S
O64 C57 1.267 . S
C65 O66 1.160 . S
C65 O72 1.185 . S
O66 C65 1.160 . S
O67 Zn68 1.899 . S
O67 C75 1.284 . S
Zn68 O67 1.899 . S
Zn68 O69 2.032 . S
Zn68 O72 2.086 . S
Zn68 O77 1.977 . S
O69 Zn68 2.032 . S
O69 C73 1.278 . S
C70 O71 1.203 . S
C70 O77 1.267 . S
O71 C70 1.203 . S
O72 C65 1.185 . S
O72 Zn68 2.086 . S
C73 O69 1.278 . S
C73 O74 1.211 . S
O74 C73 1.211 . S
C75 O67 1.284 . S
C75 O76 1.273 . S
O76 C75 1.273 . S
O77 Zn68 1.977 . S
O77 C70 1.267 . S
C78 O79 1.160 . S
C78 O85 1.185 . S
O79 C78 1.160 . S
O80 Zn81 1.899 . S
O80 C88 1.284 . S
Zn81 O80 1.899 . S
Zn81 O82 2.032 . S
Zn81 O85 2.086 . S
Zn81 O90 1.977 . S
O82 Zn81 2.032 . S
O82 C86 1.278 . S
C83 O84 1.203 . S
C83 O90 1.267 . S
O84 C83 1.203 . S
O85 C78 1.185 . S
O85 Zn81 2.086 . S
C86 O82 1.278 . S
C86 O87 1.211 . S
O87 C86 1.211 . S
C88 O80 1.284 . S
C88 O89 1.273 . S
O89 C88 1.273 . S
O90 Zn81 1.977 . S
O90 C83 1.267 . S
C91 O92 1.160 . S
C91 O98 1.185 . S
O92 C91 1.160 . S
O93 Zn94 1.899 . S
O93 C101 1.284 . S
Zn94 O93 1.899 . S
Zn94 O95 2.032 . S
Zn94 O98 2.086 . S
Zn94 O103 1.977 . S
O95 Zn94 2.032 . S
O95 C99 1.278 . S
C96 O97 1.203 . S
C96 O103 1.267 . S
O97 C96 1.203 . S
O98 C91 1.185 . S
O98 Zn94 2.086 . S
C99 O95 1.278 . S
C99 O100 1.211 . S
O100 C99 1.211 . S
C101 O93 1.284 . S
C101 O102 1.273 . S
O102 C101 1.273 . S
O103 Zn94 1.977 . S
O103 C96 1.267 . S
C104 O105 1.160 . S
C104 O111 1.185 . S
O105 C104 1.160 . S
O106 Zn107 1.899 . S
O106 C114 1.284 . S
Zn107 O106 1.899 . S
Zn107 O108 2.032 . S
Zn107 O111 2.086 . S
Zn107 O116 1.977 . S
O108 Zn107 2.032 . S
O108 C112 1.278 . S
C109 O110 1.203 . S
C109 O116 1.267 . S
O110 C109 1.203 . S
O111 C104 1.185 . S
O111 Zn107 2.086 . S
C112 O108 1.278 . S
C112 O113 1.211 . S
O113 C112 1.211 . S
C114 O106 1.284 . S
C114 O115 1.273 . S
O115 C114 1.273 . S
O116 Zn107 1.977 . S
O116 C109 1.267 . S
C117 O118 1.160 . S
C117 O124 1.185 . S
O118 C117 1.160 . S
O119 Zn120 1.899 . S
O119 C127 1.284 . S
Zn120 O119 1.899 . S
Zn120 O121 2.032 . S
Zn120 O124 2.086 . S
Zn120 O129 1.977 . S
O121 Zn120 2.032 . S
O121 C125 1.278 . S
C122 O123 1.203 . S
C122 O129 1.267 . S
O123 C122 1.203 . S
O124 C117 1.185 . S
O124 Zn120 2.086 . S
C125 O121 1.278 . S
C125 O126 1.211 . S
O126 C125 1.211 . S
C127 O119 1.284 . S
C127 O128 1.273 . S
O128 C127 1.273 . S
O129 Zn120 1.977 . S
O129 C122 1.267 . S
C130 O131 1.160 . S
C130 O137 1.185 . S
O131 C130 1.160 . S
O132 Zn133 1.899 . S
O132 C140 1.284 . S
Zn133 O132 1.899 . S
Zn133 O134 2.032 . S
Zn133 O137 2.086 . S
Zn133 O142 1.977 . S
O134 Zn133 2.032 . S
O134 C138 1.278 . S
C135 O136 1.203 . S
C135 O142 1.267 . S
O136 C135 1.203 . S
O137 C130 1.185 . S
O137 Zn133 2.086 . S
C138 O134 1.278 . S
C138 O139 1.211 . S
O139 C138 1.211 . S
C140 O132 1.284 . S
C140 O141 1.273 . S
O141 C140 1.273 . S
O142 Zn133 1.977 . S
O142 C135 1.267 . S
C143 O144 1.160 . S
C143 O150 1.185 . S
O144 C143 1.160 . S
O145 Zn146 1.899 . S
O145 C153 1.284 . S
Zn146 O145 1.899 . S
Zn146 O147 2.032 . S
Zn146 O150 2.086 . S
Zn146 O155 1.977 . S
O147 Zn146 2.032 . S
O147 C151 1.278 . S
C148 O149 1.203 . S
C148 O155 1.267 . S
O149 C148 1.203 . S
O150 C143 1.185 . S
O150 Zn146 2.086 . S
C151 O147 1.278 . S
C151 O152 1.211 . S
O152 C151 1.211 . S
C153 O145 1.284 . S
C153 O154 1.273 . S
O154 C153 1.273 . S
O155 Zn146 1.977 . S
O155 C148 1.267 . S
C156 O157 1.160 . S
C156 O163 1.185 . S
O157 C156 1.160 . S
O158 Zn159 1.899 . S
O158 C166 1.284 . S
Zn159 O158 1.899 . S
Zn159 O160 2.032 . S
Zn159 O163 2.086 . S
Zn159 O168 1.977 . S
O160 Zn159 2.032 . S
O160 C164 1.278 . S
C161 O162 1.203 . S
C161 O168 1.267 . S
O162 C161 1.203 . S
O163 C156 1.185 . S
O163 Zn159 2.086 . S
C164 O160 1.278 . S
C164 O165 1.211 . S
O165 C164 1.211 . S
C166 O158 1.284 . S
C166 O167 1.273 . S
O167 C166 1.273 . S
O168 Zn159 1.977 . S
O168 C161 1.267 . S
C169 O170 1.160 . S
C169 O176 1.185 . S
O170 C169 1.160 . S
O171 Zn172 1.899 . S
O171 C179 1.284 . S
Zn172 O171 1.899 . S
Zn172 O173 2.032 . S
Zn172 O176 2.086 . S
Zn172 O181 1.977 . S
O173 Zn172 2.032 . S
O173 C177 1.278 . S
C174 O175 1.203 . S
C174 O181 1.267 . S
O175 C174 1.203 . S
O176 C169 1.185 . S
O176 Zn172 2.086 . S
C177 O173 1.278 . S
C177 O178 1.211 . S
O178 C177 1.211 . S
C179 O171 1.284 . S
C179 O180 1.273 . S
O180 C179 1.273 . S
O181 Zn172 1.977 . S
O181 C174 1.267 . S
C182 O183 1.160 . S
C182 O189 1.185 . S
O183 C182 1.160 . S
O184 Zn185 1.899 . S
O184 C192 1.284 . S
Zn185 O184 1.899 . S
Zn185 O186 2.032 . S
Zn185 O189 2.086 . S
Zn185 O194 1.977 . S
O186 Zn185 2.032 . S
O186 C190 1.278 . S
C187 O188 1.203 . S
C187 O194 1.267 . S
O188 C187 1.203 . S
O189 C182 1.185 . S
O189 Zn185 2.086 . S
C190 O186 1.278 . S
C190 O191 1.211 . S
O191 C190 1.211 . S
C192 O184 1.284 . S
C192 O193 1.273 . S
O193 C192 1.273 . S
O194 Zn185 1.977 . S
O194 C187 1.267 . S
C195 O196 1.160 . S
C195 O202 1.185 . S
O196 C195 1.160 . S
O197 Zn198 1.899 . S
O197 C205 1.284 . S
Zn198 O197 1.899 . S
Zn198 O199 2.032 . S
Zn198 O202 2.086 . S
Zn198 O207 1.977 . S
O199 Zn198 2.032 . S
O199 C203 1.278 . S
C200 O201 1.203 . S
C200 O207 1.267 . S
O201 C200 1.203 . S
O202 C195 1.185 . S
O202 Zn198 2.086 . S
C203 O199 1.278 . S
C203 O204 1.211 . S
O204 C203 1.211 . S
C205 O197 1.284 . S
C205 O206 1.273 . S
O206 C205 1.273 . S
O207 Zn198 1.977 . S
O207 C200 1.267 . S
C208 O209 1.160 . S
C208 O215 1.185 . S
O209 C208 1.160 . S
O210 Zn211 1.899 . S
O210 C218 1.284 . S
Zn211 O210 1.899 . S
Zn211 O212 2.032 . S
Zn211 O215 2.086 . S
Zn211 O220 1.977 . S
O212 Zn211 2.032 . S
O212 C216 1.278 . S
C213 O214 1.203 . S
C213 O220 1.267 . S
O214 C213 1.203 . S
O215 C208 1.185 . S
O215 Zn211 2.086 . S
C216 O212 1.278 . S
C216 O217 1.211 . S
O217 C216 1.211 . S
C218 O210 1.284 . S
C218 O219 1.273 . S
O219 C218 1.273 . S
O220 Zn211 1.977 . S
O220 C213 1.267 . S
C221 O222 1.160 . S
C221 O228 1.185 . S
O222 C221 1.160 . S
O223 Zn224 1.899 . S
O223 C231 1.284 . S
Zn224 O223 1.899 . S
Zn224 O225 2.032 . S
Zn224 O228 2.086 . S
Zn224 O233 1.977 . S
O225 Zn224 2.032 . S
O225 C229 1.278 . S
C226 O227 1.203 . S
C226 O233 1.267 . S
O227 C226 1.203 . S
O228 C221 1.185 . S
O228 Zn224 2.086 . S
C229 O225 1.278 . S
C229 O230 1.211 . S
O230 C229 1.211 . S
C231 O223 1.284 . S
C231 O232 1.273 . S
O232 C231 1.273 . S
O233 Zn224 1.977 . S
O233 C226 1.267 . S
C234 O235 1.160 . S
C234 O241 1.185 . S
O235 C234 1.160 . S
O236 Zn237 1.899 . S
O236 C244 1.284 . S
Zn237 O236 1.899 . S
Zn237 O238 2.032 . S
Zn237 O241 2.086 . S
Zn237 O246 1.977 . S
O238 Zn237 2.032 . S
O238 C242 1.278 . S
C239 O240 1.203 . S
C239 O246 1.267 . S
O240 C239 1.203 . S
O241 C234 1.185 . S
O241 Zn237 2.086 . S
C242 O238 1.278 . S
C242 O243 1.211 . S
O243 C242 1.211 . S
C244 O236 1.284 . S
C244 O245 1.273 . S
O245 C244 1.273 . S
O246 Zn237 1.977 . S
O246 C239 1.267 . S
C247 O248 1.160 . S
C247 O254 1.185 . S
O248 C247 1.160 . S
O249 Zn250 1.899 . S
O249 C257 1.284 . S
Zn250 O249 1.899 . S
Zn250 O251 2.032 . S
Zn250 O254 2.086 . S
Zn250 O259 1.977 . S
O251 Zn250 2.032 . S
O251 C255 1.278 . S
C252 O253 1.203 . S
C252 O259 1.267 . S
O253 C252 1.203 . S
O254 C247 1.185 . S
O254 Zn250 2.086 . S
C255 O251 1.278 . S
C255 O256 1.211 . S
O256 C255 1.211 . S
C257 O249 1.284 . S
C257 O258 1.273 . S
O258 C257 1.273 . S
O259 Zn250 1.977 . S
O259 C252 1.267 . S
C260 O261 1.160 . S
C260 O267 1.185 . S
O261 C260 1.160 . S
O262 Zn263 1.899 . S
O262 C270 1.284 . S
Zn263 O262 1.899 . S
Zn263 O264 2.032 . S
Zn263 O267 2.086 . S
Zn263 O272 1.977 . S
O264 Zn263 2.032 . S
O264 C268 1.278 . S
C265 O266 1.203 . S
C265 O272 1.267 . S
O266 C265 1.203 . S
O267 C260 1.185 . S
O267 Zn263 2.086 . S
C268 O264 1.278 . S
C268 O269 1.211 . S
O269 C268 1.211 . S
C270 O262 1.284 . S
C270 O271 1.273 . S
O271 C270 1.273 . S
O272 Zn263 1.977 . S
O272 C265 1.267 . S
C273 O274 1.160 . S
C273 O280 1.185 . S
O274 C273 1.160 . S
O275 Zn276 1.899 . S
O275 C283 1.284 . S
Zn276 O275 1.899 . S
Zn276 O277 2.032 . S
Zn276 O280 2.086 . S
Zn276 O285 1.977 . S
O277 Zn276 2.032 . S
O277 C281 1.278 . S
C278 O279 1.203 . S
C278 O285 1.267 . S
O279 C278 1.203 . S
O280 C273 1.185 . S
O280 Zn276 2.086 . S
C281 O277 1.278 . S
C281 O282 1.211 . S
O282 C281 1.211 . S
C283 O275 1.284 . S
C283 O284 1.273 . S
O284 C283 1.273 . S
O285 Zn276 1.977 . S
O285 C278 1.267 . S
C286 O287 1.160 . S
C286 O293 1.185 . S
O287 C286 1.160 . S
O288 Zn289 1.899 . S
O288 C296 1.284 . S
Zn289 O288 1.899 . S
Zn289 O290 2.032 . S
Zn289 O293 2.086 . S
Zn289 O298 1.977 . S
O290 Zn289 2.032 . S
O290 C294 1.278 . S
C291 O292 1.203 . S
C291 O298 1.267 . S
O292 C291 1.203 . S
O293 C286 1.185 . S
O293 Zn289 2.086 . S
C294 O290 1.278 . S
C294 O295 1.211 . S
O295 C294 1.211 . S
C296 O288 1.284 . S
C296 O297 1.273 . S
O297 C296 1.273 . S
O298 Zn289 1.977 . S
O298 C291 1.267 . S
C299 O300 1.160 . S
C299 O306 1.185 . S
O300 C299 1.160 . S
O301 Zn302 1.899 . S
O301 C309 1.284 . S
Zn302 O301 1.899 . S
Zn302 O303 2.032 . S
Zn302 O306 2.086 . S
Zn302 O311 1.977 . S
O303 Zn302 2.032 . S
O303 C307 1.278 . S
C304 O305 1.203 . S
C304 O311 1.267 . S
O305 C304 1.203 . S
O306 C299 1.185 . S
O306 Zn302 2.086 . S
C307 O303 1.278 . S
C307 O308 1.211 . S
O308 C307 1.211 . S
C309 O301 1.284 . S
C309 O310 1.273 . S
O310 C309 1.273 . S
O311 Zn302 1.977 . S
O311 C304 1.267 . S
C312 O313 1.160 . S
C312 O319 1.185 . S
O313 C312 1.160 . S
O314 Zn315 1.899 . S
O314 C322 1.284 . S
Zn315 O314 1.899 . S
Zn315 O316 2.032 . S
Zn315 O319 2.086 . S
Zn315 O324 1.977 . S
O316 Zn315 2.032 . S
O316 C320 1.278 . S
C317 O318 1.203 . S
C317 O324 1.267 . S
O318 C317 1.203 . S
O319 C312 1.185 . S
O319 Zn315 2.086 . S
C320 O316 1.278 . S
C320 O321 1.211 . S
O321 C320 1.211 . S
C322 O314 1.284 . S
C322 O323 1.273 . S
O323 C322 1.273 . S
O324 Zn315 1.977 . S
O324 C317 1.267 . S
C325 O326 1.160 . S
C325 O332 1.185 . S
O326 C325 1.160 . S
O327 Zn328 1.899 . S
O327 C335 1.284 . S
Zn328 O327 1.899 . S
Zn328 O329 2.032 . S
Zn328 O332 2.086 . S
Zn328 O337 1.977 . S
O329 Zn328 2.032 . S
O329 C333 1.278 . S
C330 O331 1.203 . S
C330 O337 1.267 . S
O331 C330 1.203 . S
O332 C325 1.185 . S
O332 Zn328 2.086 . S
C333 O329 1.278 . S
C333 O334 1.211 . S
O334 C333 1.211 . S
C335 O327 1.284 . S
C335 O336 1.273 . S
O336 C335 1.273 . S
O337 Zn328 1.977 . S
O337 C330 1.267 . S
C338 O339 1.160 . S
C338 O345 1.185 . S
O339 C338 1.160 . S
O340 Zn341 1.899 . S
O340 C348 1.284 . S
Zn341 O340 1.899 . S
Zn341 O342 2.032 . S
Zn341 O345 2.086 . S
Zn341 O350 1.977 . S
O342 Zn341 2.032 . S
O342 C346 1.278 . S
C343 O344 1.203 . S
C343 O350 1.267 . S
O344 C343 1.203 . S
O345 C338 1.185 . S
O345 Zn341 2.086 . S
C346 O342 1.278 . S
C346 O347 1.211 . S
O347 C346 1.211 . S
C348 O340 1.284 . S
C348 O349 1.273 . S
O349 C348 1.273 . S
O350 Zn341 1.977 . S
O350 C343 1.267 . S
C351 O352 1.160 . S
C351 O358 1.185 . S
O352 C351 1.160 . S
O353 Zn354 1.899 . S
O353 C361 1.284 . S
Zn354 O353 1.899 . S
Zn354 O355 2.032 . S
Zn354 O358 2.086 . S
Zn354 O363 1.977 . S
O355 Zn354 2.032 . S
O355 C359 1.278 . S
C356 O357 1.203 . S
C356 O363 1.267 . S
O357 C356 1.203 . S
O358 C351 1.185 . S
O358 Zn354 2.086 . S
C359 O355 1.278 . S
C359 O360 1.211 . S
O360 C359 1.211 . S
C361 O353 1.284 . S
C361 O362 1.273 . S
O362 C361 1.273 . S
O363 Zn354 1.977 . S
O363 C356 1.267 . S
C364 O365 1.160 . S
C364 O371 1.185 . S
O365 C364 1.160 . S
O366 Zn367 1.899 . S
O366 C374 1.284 . S
Zn367 O366 1.899 . S
Zn367 O368 2.032 . S
Zn367 O371 2.086 . S
Zn367 O376 1.977 . S
O368 Zn367 2.032 . S
O368 C372 1.278 . S
C369 O370 1.203 . S
C369 O376 1.267 . S
O370 C369 1.203 . S
O371 C364 1.185 . S
O371 Zn367 2.086 . S
C372 O368 1.278 . S
C372 O373 1.211 . S
O373 C372 1.211 . S
C374 O366 1.284 . S
C374 O375 1.273 . S
O375 C374 1.273 . S
O376 Zn367 1.977 . S
O376 C369 1.267 . S
C377 O378 1.160 . S
C377 O384 1.185 . S
O378 C377 1.160 . S
O379 Zn380 1.899 . S
O379 C387 1.284 . S
Zn380 O379 1.899 . S
Zn380 O381 2.032 . S
Zn380 O384 2.086 . S
Zn380 O389 1.977 . S
O381 Zn380 2.032 . S
O381 C385 1.278 . S
C382 O383 1.203 . S
C382 O389 1.267 . S
O383 C382 1.203 . S
O384 C377 1.185 . S
O384 Zn380 2.086 . S
C385 O381 1.278 . S
C385 O386 1.211 . S
O386 C385 1.211 . S
C387 O379 1.284 . S
C387 O388 1.273 . S
O388 C387 1.273 . S
O389 Zn380 1.977 . S
O389 C382 1.267 . S
C390 O391 1.160 . S
C390 O397 1.185 . S
O391 C390 1.160 . S
O392 Zn393 1.899 . S
O392 C400 1.284 . S
Zn393 O392 1.899 . S
Zn393 O394 2.032 . S
Zn393 O397 2.086 . S
Zn393 O402 1.977 . S
O394 Zn393 2.032 . S
O394 C398 1.278 . S
C395 O396 1.203 . S
C395 O402 1.267 . S
O396 C395 1.203 . S
O397 C390 1.185 . S
O397 Zn393 2.086 . S
C398 O394 1.278 . S
C398 O399 1.211 . S
O399 C398 1.211 . S
C400 O392 1.284 . S
C400 O401 1.273 . S
O401 C400 1.273 . S
O402 Zn393 1.977 . S
O402 C395 1.267 . S
C403 O404 1.160 . S
C403 O410 1.185 . S
O404 C403 1.160 . S
O405 Zn406 1.899 . S
O405 C413 1.284 . S
Zn406 O405 1.899 . S
Zn406 O407 2.032 . S
Zn406 O410 2.086 . S
Zn406 O415 1.977 . S
O407 Zn406 2.032 . S
O407 C411 1.278 . S
C408 O409 1.203 . S
C408 O415 1.267 . S
O409 C408 1.203 . S
O410 C403 1.185 . S
O410 Zn406 2.086 . S
C411 O407 1.278 . S
C411 O412 1.211 . S
O412 C411 1.211 . S
C413 O405 1.284 . S
C413 O414 1.273 . S
O414 C413 1.273 . S
O415 Zn406 1.977 . S
O415 C408 1.267 . S
C416 C417 1.387 1_665 S
C416 H420 0.950 . S
C416 C425 1.390 . S
C417 C416 1.387 1_445 S
C417 C419 1.387 1_554 S
H418 C425 0.950 . S
C419 C417 1.387 1_556 S
C419 C421 1.390 1_455 S
C419 H423 0.950 . S
H420 C416 0.950 . S
C421 C419 1.390 1_655 S
C421 C422 1.387 1_545 S
C421 H424 0.950 . S
C422 C421 1.387 1_565 S
C422 C425 1.387 1_556 S
H423 C419 0.950 . S
H424 C421 0.950 . S
C425 C416 1.390 . S
C425 H418 0.950 . S
C425 C422 1.387 1_554 S
C426 C427 1.387 . S
C426 H430 0.950 . S
C426 C435 1.390 . S
C427 C426 1.387 . S
C427 C429 1.387 . S
H428 C435 0.950 . S
C429 C427 1.387 . S
C429 C431 1.390 . S
C429 H433 0.950 . S
H430 C426 0.950 . S
C431 C429 1.390 . S
C431 C432 1.387 . S
C431 H434 0.950 . S
C432 C431 1.387 . S
C432 C435 1.387 . S
H433 C429 0.950 . S
H434 C431 0.950 . S
C435 C426 1.390 . S
C435 H428 0.950 . S
C435 C432 1.387 . S
C436 C437 1.387 1_545 S
C436 H440 0.950 . S
C436 C445 1.390 . S
C437 C436 1.387 1_565 S
C437 C439 1.387 . S
H438 C445 0.950 . S
C439 C437 1.387 . S
C439 C441 1.390 . S
C439 H443 0.950 . S
H440 C436 0.950 . S
C441 C439 1.390 . S
C441 C442 1.387 1_565 S
C441 H444 0.950 . S
C442 C441 1.387 1_545 S
C442 C445 1.387 . S
H443 C439 0.950 . S
H444 C441 0.950 . S
C445 C436 1.390 . S
C445 H438 0.950 . S
C445 C442 1.387 . S
C446 C447 1.387 . S
C446 H450 0.950 . S
C446 C455 1.390 . S
C447 C446 1.387 . S
C447 C449 1.387 . S
H448 C455 0.950 . S
C449 C447 1.387 . S
C449 C451 1.390 . S
C449 H453 0.950 . S
H450 C446 0.950 . S
C451 C449 1.390 . S
C451 C452 1.387 . S
C451 H454 0.950 . S
C452 C451 1.387 . S
C452 C455 1.387 . S
H453 C449 0.950 . S
H454 C451 0.950 . S
C455 C446 1.390 . S
C455 H448 0.950 . S
C455 C452 1.387 . S
C456 C457 1.387 . S
C456 H460 0.950 . S
C456 C465 1.378 1_455 S
C457 C456 1.387 . S
C457 C459 1.387 1_565 S
H458 C465 0.953 . S
C459 C457 1.387 1_545 S
C459 C461 1.390 1_455 S
C459 H463 0.950 . S
H460 C456 0.950 . S
C461 C459 1.390 1_655 S
C461 C462 1.387 . S
C461 H464 0.950 . S
C462 C461 1.387 . S
C462 C465 1.397 1_545 S
H463 C459 0.950 . S
H464 C461 0.950 . S
C465 C456 1.378 1_655 S
C465 H458 0.953 . S
C465 C462 1.397 1_565 S
C466 C467 1.387 . S
C466 H470 0.950 . S
C466 C475 1.390 . S
C467 C466 1.387 . S
C467 C469 1.387 . S
H468 C475 0.950 . S
C469 C467 1.387 . S
C469 C471 1.390 . S
C469 H473 0.950 . S
H470 C466 0.950 . S
C471 C469 1.390 . S
C471 C472 1.387 . S
C471 H474 0.950 . S
C472 C471 1.387 . S
C472 C475 1.387 . S
H473 C469 0.950 . S
H474 C471 0.950 . S
C475 C466 1.390 . S
C475 H468 0.950 . S
C475 C472 1.387 . S
C476 C477 1.387 1_554 S
C476 H480 0.950 . S
C476 C485 1.390 . S
C477 C476 1.387 1_556 S
C477 C479 1.387 . S
H478 C485 0.950 . S
C479 C477 1.387 . S
C479 C481 1.390 1_545 S
C479 H483 0.950 . S
H480 C476 0.950 . S
C481 C479 1.390 1_565 S
C481 C482 1.387 1_556 S
C481 H484 0.950 . S
C482 C481 1.387 1_554 S
C482 C485 1.387 1_565 S
H483 C479 0.950 . S
H484 C481 0.950 . S
C485 C476 1.390 . S
C485 H478 0.950 . S
C485 C482 1.387 1_545 S
C486 C487 1.387 . S
C486 H490 0.950 . S
C486 C495 1.390 . S
C487 C486 1.387 . S
C487 C489 1.387 . S
H488 C495 0.950 . S
C489 C487 1.387 . S
C489 C491 1.390 . S
C489 H493 0.950 . S
H490 C486 0.950 . S
C491 C489 1.390 . S
C491 C492 1.387 . S
C491 H494 0.950 . S
C492 C491 1.387 . S
C492 C495 1.387 . S
H493 C489 0.950 . S
H494 C491 0.950 . S
C495 C486 1.390 . S
C495 H488 0.950 . S
C495 C492 1.387 . S
C496 C497 1.387 1_556 S
C496 H500 0.950 . S
C496 C505 1.390 . S
C497 C496 1.387 1_554 S
C497 C499 1.387 . S
H498 C505 0.950 . S
C499 C497 1.387 . S
C499 C501 1.390 . S
C499 H503 0.950 . S
H500 C496 0.950 . S
C501 C499 1.390 . S
C501 C502 1.387 1_554 S
C501 H504 0.950 . S
C502 C501 1.387 1_556 S
C502 C505 1.387 . S
H503 C499 0.950 . S
H504 C501 0.950 . S
C505 C496 1.390 . S
C505 H498 0.950 . S
C505 C502 1.387 . S
C506 C507 1.387 . S
C506 H510 0.950 . S
C506 C515 1.390 . S
C507 C506 1.387 . S
C507 C509 1.387 . S
H508 C515 0.950 . S
C509 C507 1.387 . S
C509 C511 1.390 . S
C509 H513 0.950 . S
H510 C506 0.950 . S
C511 C509 1.390 . S
C511 C512 1.387 . S
C511 H514 0.950 . S
C512 C511 1.387 . S
C512 C515 1.387 . S
H513 C509 0.950 . S
H514 C511 0.950 . S
C515 C506 1.390 . S
C515 H508 0.950 . S
C515 C512 1.387 . S
C516 C517 1.387 1_655 S
C516 H520 0.947 1_655 S
C516 C525 1.390 . S
C517 C516 1.387 1_455 S
C517 C519 1.387 . S
H518 C525 0.950 . S
C519 C517 1.387 . S
C519 C521 1.390 1_455 S
C519 H523 0.950 . S
H520 C516 0.947 1_455 S
C521 C519 1.390 1_655 S
C521 C522 1.387 . S
C521 H524 0.950 . S
C522 C521 1.387 . S
C522 C525 1.387 . S
H523 C519 0.950 . S
H524 C521 0.950 . S
C525 C516 1.390 . S
C525 H518 0.950 . S
C525 C522 1.387 . S
C526 C527 1.387 . S
C526 H530 0.950 . S
C526 C535 1.390 . S
C527 C526 1.387 . S
C527 C529 1.387 . S
H528 C535 0.950 . S
C529 C527 1.387 . S
C529 C531 1.390 . S
C529 H533 0.950 . S
H530 C526 0.950 . S
C531 C529 1.390 . S
C531 C532 1.387 . S
C531 H534 0.950 . S
C532 C531 1.387 . S
C532 C535 1.387 . S
H533 C529 0.950 . S
H534 C531 0.950 . S
C535 C526 1.390 . S
C535 H528 0.950 . S
C535 C532 1.387 . S
C536 C537 1.387 . S
C536 H540 0.950 . S
C536 C545 1.390 . S
C537 C536 1.387 . S
C537 C539 1.387 . S
H538 C545 0.950 . S
C539 C537 1.387 . S
C539 C541 1.390 . S
C539 H543 0.950 . S
H540 C536 0.950 . S
C541 C539 1.390 . S
C541 C542 1.387 . S
C541 H544 0.950 . S
C542 C541 1.387 . S
C542 C545 1.387 . S
H543 C539 0.950 . S
H544 C541 0.950 . S
C545 C536 1.390 . S
C545 H538 0.950 . S
C545 C542 1.387 . S
C546 C547 1.387 . S
C546 H550 0.950 . S
C546 C555 1.390 . S
C547 C546 1.387 . S
C547 C549 1.387 . S
H548 C555 0.950 . S
C549 C547 1.387 . S
C549 C551 1.390 . S
C549 H553 0.950 . S
H550 C546 0.950 . S
C551 C549 1.390 . S
C551 C552 1.387 . S
C551 H554 0.950 . S
C552 C551 1.387 . S
C552 C555 1.387 . S
H553 C549 0.950 . S
H554 C551 0.950 . S
C555 C546 1.390 . S
C555 H548 0.950 . S
C555 C552 1.387 . S
C556 C557 1.387 . S
C556 H560 0.950 . S
C556 C565 1.390 . S
C557 C556 1.387 . S
C557 C559 1.387 . S
H558 C565 0.950 . S
C559 C557 1.387 . S
C559 C561 1.390 . S
C559 H563 0.950 . S
H560 C556 0.950 . S
C561 C559 1.390 . S
C561 C562 1.387 . S
C561 H564 0.950 . S
C562 C561 1.387 . S
C562 C565 1.387 . S
H563 C559 0.950 . S
H564 C561 0.950 . S
C565 C556 1.390 . S
C565 H558 0.950 . S
C565 C562 1.387 . S
C566 C567 1.387 . S
C566 H570 0.950 . S
C566 C575 1.390 . S
C567 C566 1.387 . S
C567 C569 1.387 1_455 S
H568 C575 0.950 . S
C569 C567 1.387 1_655 S
C569 C571 1.390 1_556 S
C569 H573 0.950 . S
H570 C566 0.950 . S
C571 C569 1.390 1_554 S
C571 C572 1.387 . S
C571 H574 0.950 . S
C572 C571 1.387 . S
C572 C575 1.387 1_654 S
H573 C569 0.950 . S
H574 C571 0.950 . S
C575 C566 1.390 . S
C575 H568 0.950 . S
C575 C572 1.387 1_456 S
C576 C577 1.387 1_565 S
C576 H580 0.950 1_565 S
C576 C585 1.390 . S
C577 C576 1.387 1_545 S
C577 C579 1.387 1_545 S
H578 C585 0.950 . S
C579 C577 1.387 1_565 S
C579 C581 1.390 . S
C579 H583 0.950 1_565 S
H580 C576 0.950 1_545 S
C581 C579 1.390 . S
C581 C582 1.387 . S
C581 H584 0.950 . S
C582 C581 1.387 . S
C582 C585 1.387 . S
H583 C579 0.950 1_545 S
H584 C581 0.950 . S
C585 C576 1.390 . S
C585 H578 0.950 . S
C585 C582 1.387 . S
C586 C587 1.387 . S
C586 H590 0.950 . S
C586 C595 1.390 . S
C587 C586 1.387 . S
C587 C589 1.387 . S
H588 C595 0.950 . S
C589 C587 1.387 . S
C589 C591 1.390 . S
C589 H593 0.950 . S
H590 C586 0.950 . S
C591 C589 1.390 . S
C591 C592 1.387 . S
C591 H594 0.950 . S
C592 C591 1.387 . S
C592 C595 1.387 . S
H593 C589 0.950 . S
H594 C591 0.950 . S
C595 C586 1.390 . S
C595 H588 0.950 . S
C595 C592 1.387 . S
C596 C597 1.387 . S
C596 H600 0.950 . S
C596 C605 1.390 . S
C597 C596 1.387 . S
C597 C599 1.387 . S
H598 C605 0.950 1_565 S
C599 C597 1.387 . S
C599 C601 1.390 . S
C599 H603 0.950 . S
H600 C596 0.950 . S
C601 C599 1.390 . S
C601 C602 1.387 1_545 S
C601 H604 0.950 1_545 S
C602 C601 1.387 1_565 S
C602 C605 1.387 1_565 S
H603 C599 0.950 . S
H604 C601 0.950 1_565 S
C605 C596 1.390 . S
C605 H598 0.950 1_545 S
C605 C602 1.387 1_545 S
C606 C607 1.387 . S
C606 H610 0.950 . S
C606 C615 1.389 . S
C607 C606 1.387 . S
C607 C609 1.387 . S
H608 C615 0.950 1_554 S
C609 C607 1.387 . S
C609 C611 1.390 . S
C609 H613 0.950 . S
H610 C606 0.950 . S
C611 C609 1.390 . S
C611 C612 1.387 1_556 S
C611 H614 0.950 1_556 S
C612 C611 1.387 1_554 S
C612 C615 1.388 1_554 S
H613 C609 0.950 . S
H614 C611 0.950 1_554 S
C615 C606 1.389 . S
C615 H608 0.950 1_556 S
C615 C612 1.388 1_556 S
C616 C617 1.387 . S
C616 H620 0.950 . S
C616 C625 1.390 1_545 S
C617 C616 1.387 . S
C617 C619 1.387 . S
H618 C625 0.950 . S
C619 C617 1.387 . S
C619 C621 1.399 . S
C619 H623 0.950 . S
H620 C616 0.950 . S
C621 C619 1.399 . S
C621 C622 1.382 1_545 S
C621 H624 0.946 1_545 S
C622 C621 1.382 1_565 S
C622 C625 1.387 . S
H623 C619 0.950 . S
H624 C621 0.946 1_565 S
C625 C616 1.390 1_565 S
C625 H618 0.950 . S
C625 C622 1.387 . S
C626 C627 1.387 . S
C626 H630 0.950 . S
C626 C635 1.390 . S
C627 C626 1.387 . S
C627 C629 1.387 . S
H628 C635 0.950 . S
C629 C627 1.387 . S
C629 C631 1.390 . S
C629 H633 0.950 . S
H630 C626 0.950 . S
C631 C629 1.390 . S
C631 C632 1.387 . S
C631 H634 0.950 . S
C632 C631 1.387 . S
C632 C635 1.387 . S
H633 C629 0.950 . S
H634 C631 0.950 . S
C635 C626 1.390 . S
C635 H628 0.950 . S
C635 C632 1.387 . S
C636 C637 1.387 1_565 S
C636 H640 0.950 . S
C636 C645 1.390 . S
C637 C636 1.387 1_545 S
C637 C639 1.387 . S
H638 C645 0.950 . S
C639 C637 1.387 . S
C639 C641 1.390 1_545 S
C639 H643 0.950 . S
H640 C636 0.950 . S
C641 C639 1.390 1_565 S
C641 C642 1.387 . S
C641 H644 0.950 . S
C642 C641 1.387 . S
C642 C645 1.387 . S
H643 C639 0.950 . S
H644 C641 0.950 . S
C645 C636 1.390 . S
C645 H638 0.950 . S
C645 C642 1.387 . S
C646 C647 1.387 1_554 S
C646 H650 0.957 . S
C646 C655 1.390 . S
C647 C646 1.387 1_556 S
C647 C649 1.387 1_556 S
H648 C655 0.950 . S
C649 C647 1.387 1_554 S
C649 C651 1.390 . S
C649 H653 0.950 1_554 S
H650 C646 0.957 . S
C651 C649 1.390 . S
C651 C652 1.387 . S
C651 H654 0.950 . S
C652 C651 1.387 . S
C652 C655 1.387 . S
H653 C649 0.950 1_556 S
H654 C651 0.950 . S
C655 C646 1.390 . S
C655 H648 0.950 . S
C655 C652 1.387 . S
C656 C657 1.387 . S
C656 H660 0.950 . S
C656 C665 1.390 . S
C657 C656 1.387 . S
C657 C659 1.387 . S
H658 C665 0.950 1_455 S
C659 C657 1.387 . S
C659 C661 1.390 . S
C659 H663 0.950 . S
H660 C656 0.950 . S
C661 C659 1.390 . S
C661 C662 1.387 1_655 S
C661 H664 0.950 1_655 S
C662 C661 1.387 1_455 S
C662 C665 1.387 1_455 S
H663 C659 0.950 . S
H664 C661 0.950 1_455 S
C665 C656 1.390 . S
C665 H658 0.950 1_655 S
C665 C662 1.387 1_655 S
C666 C667 1.387 . S
C666 H670 0.950 . S
C666 C675 1.390 . S
C667 C666 1.387 . S
C667 C669 1.387 . S
H668 C675 0.950 . S
C669 C667 1.387 . S
C669 C671 1.390 . S
C669 H673 0.950 . S
H670 C666 0.950 . S
C671 C669 1.390 . S
C671 C672 1.387 . S
C671 H674 0.950 . S
C672 C671 1.387 . S
C672 C675 1.387 . S
H673 C669 0.950 . S
H674 C671 0.950 . S
C675 C666 1.390 . S
C675 H668 0.950 . S
C675 C672 1.387 . S
C676 C677 1.387 . S
C676 H680 0.950 . S
C676 C685 1.390 1_655 S
C677 C676 1.387 . S
C677 C679 1.387 . S
H678 C685 0.950 . S
C679 C677 1.387 . S
C679 C681 1.390 1_655 S
C679 H683 0.950 . S
H680 C676 0.950 . S
C681 C679 1.390 1_455 S
C681 C682 1.387 . S
C681 H684 0.950 . S
C682 C681 1.387 . S
C682 C685 1.387 . S
H683 C679 0.950 . S
H684 C681 0.950 . S
C685 C676 1.390 1_455 S
C685 H678 0.950 . S
C685 C682 1.387 . S
C686 C687 1.387 1_455 S
C686 H690 0.950 . S
C686 C695 1.390 . S
C687 C686 1.387 1_655 S
C687 C689 1.387 1_655 S
H688 C695 0.950 . S
C689 C687 1.387 1_455 S
C689 C691 1.390 . S
C689 H693 0.950 1_455 S
H690 C686 0.950 . S
C691 C689 1.390 . S
C691 C692 1.387 . S
C691 H694 0.950 . S
C692 C691 1.387 . S
C692 C695 1.387 . S
H693 C689 0.950 1_655 S
H694 C691 0.950 . S
C695 C686 1.390 . S
C695 H688 0.950 . S
C695 C692 1.387 . S
C696 C697 1.387 . S
C696 H700 0.950 . S
C696 C705 1.390 . S
C697 C696 1.387 . S
C697 C699 1.387 . S
H698 C705 0.950 . S
C699 C697 1.387 . S
C699 C701 1.390 . S
C699 H703 0.950 . S
H700 C696 0.950 . S
C701 C699 1.390 . S
C701 C702 1.387 . S
C701 H704 0.950 . S
C702 C701 1.387 . S
C702 C705 1.387 . S
H703 C699 0.950 . S
H704 C701 0.950 . S
C705 C696 1.390 . S
C705 H698 0.950 . S
C705 C702 1.387 . S
C706 C707 1.387 . S
C706 H710 0.950 . S
C706 C715 1.390 1_655 S
C707 C706 1.387 . S
C707 C709 1.387 . S
H708 C715 0.950 . S
C709 C707 1.387 . S
C709 C711 1.390 1_655 S
C709 H713 0.950 . S
H710 C706 0.950 . S
C711 C709 1.390 1_455 S
C711 C712 1.387 . S
C711 H714 0.950 . S
C712 C711 1.387 . S
C712 C715 1.387 . S
H713 C709 0.950 . S
H714 C711 0.950 . S
C715 C706 1.390 1_455 S
C715 H708 0.950 . S
C715 C712 1.387 . S
C716 C717 1.387 . S
C716 H720 0.950 . S
C716 C725 1.390 . S
C717 C716 1.387 . S
C717 C719 1.387 . S
H718 C725 0.950 . S
C719 C717 1.387 . S
C719 C721 1.390 . S
C719 H723 0.950 . S
H720 C716 0.950 . S
C721 C719 1.390 . S
C721 C722 1.387 . S
C721 H724 0.950 . S
C722 C721 1.387 . S
C722 C725 1.387 . S
H723 C719 0.950 . S
H724 C721 0.950 . S
C725 C716 1.390 . S
C725 H718 0.950 . S
C725 C722 1.387 . S
C726 C727 1.387 . S
C726 H730 0.950 . S
C726 C735 1.390 . S
C727 C726 1.387 . S
C727 C729 1.387 . S
H728 C735 0.944 1_565 S
C729 C727 1.387 . S
C729 C731 1.390 . S
C729 H733 0.950 . S
H730 C726 0.950 . S
C731 C729 1.390 . S
C731 C732 1.387 1_545 S
C731 H734 0.950 1_545 S
C732 C731 1.387 1_565 S
C732 C735 1.387 1_565 S
H733 C729 0.950 . S
H734 C731 0.950 1_565 S
C735 C726 1.390 . S
C735 H728 0.944 1_545 S
C735 C732 1.387 1_545 S
C736 C737 1.387 . S
C736 H740 0.950 . S
C736 C745 1.390 . S
C737 C736 1.387 . S
C737 C739 1.387 . S
H738 C745 0.950 . S
C739 C737 1.387 . S
C739 C741 1.390 . S
C739 H743 0.950 . S
H740 C736 0.950 . S
C741 C739 1.390 . S
C741 C742 1.387 . S
C741 H744 0.950 . S
C742 C741 1.387 . S
C742 C745 1.387 . S
H743 C739 0.950 . S
H744 C741 0.950 . S
C745 C736 1.390 . S
C745 H738 0.950 . S
C745 C742 1.387 . S
C746 C747 1.387 . S
C746 H750 0.950 . S
C746 C755 1.390 . S
C747 C746 1.387 . S
C747 C749 1.387 . S
H748 C755 0.950 1_545 S
C749 C747 1.387 . S
C749 C751 1.390 . S
C749 H753 0.950 . S
H750 C746 0.950 . S
C751 C749 1.390 . S
C751 C752 1.387 1_565 S
C751 H754 0.950 1_565 S
C752 C751 1.387 1_545 S
C752 C755 1.387 1_545 S
H753 C749 0.950 . S
H754 C751 0.950 1_545 S
C755 C746 1.390 . S
C755 H748 0.950 1_565 S
C755 C752 1.387 1_565 S
C756 C757 1.387 . S
C756 H760 0.950 . S
C756 C765 1.390 1_556 S
C757 C756 1.387 . S
C757 C759 1.387 . S
H758 C765 0.950 . S
C759 C757 1.387 . S
C759 C761 1.390 1_556 S
C759 H763 0.950 . S
H760 C756 0.950 . S
C761 C759 1.390 1_554 S
C761 C762 1.387 . S
C761 H764 0.950 . S
C762 C761 1.387 . S
C762 C765 1.387 . S
H763 C759 0.950 . S
H764 C761 0.950 . S
C765 C756 1.390 1_554 S
C765 H758 0.950 . S
C765 C762 1.387 . S
C766 C767 1.387 1_565 S
C766 H770 0.950 . S
C766 C775 1.390 . S
C767 C766 1.387 1_545 S
C767 C769 1.387 1_545 S
H768 C775 0.950 . S
C769 C767 1.387 1_565 S
C769 C771 1.390 . S
C769 H773 0.950 1_565 S
H770 C766 0.950 . S
C771 C769 1.390 . S
C771 C772 1.387 . S
C771 H774 0.950 . S
C772 C771 1.387 . S
C772 C775 1.387 . S
H773 C769 0.950 1_545 S
H774 C771 0.950 . S
C775 C766 1.390 . S
C775 H768 0.950 . S
C775 C772 1.387 . S
C776 C777 1.387 . S
C776 H780 0.950 . S
C776 C785 1.390 . S
C777 C776 1.387 . S
C777 C779 1.387 . S
H778 C785 0.950 . S
C779 C777 1.387 . S
C779 C781 1.390 . S
C779 H783 0.950 . S
H780 C776 0.950 . S
C781 C779 1.390 . S
C781 C782 1.387 . S
C781 H784 0.950 . S
C782 C781 1.387 . S
C782 C785 1.387 . S
H783 C779 0.950 . S
H784 C781 0.950 . S
C785 C776 1.390 . S
C785 H778 0.950 . S
C785 C782 1.387 . S
C786 C787 1.387 1_545 S
C786 H790 0.950 . S
C786 C795 1.390 . S
C787 C786 1.387 1_565 S
C787 C789 1.387 . S
H788 C795 0.950 . S
C789 C787 1.387 . S
C789 C791 1.390 1_565 S
C789 H793 0.950 . S
H790 C786 0.950 . S
C791 C789 1.390 1_545 S
C791 C792 1.387 . S
C791 H794 0.950 . S
C792 C791 1.387 . S
C792 C795 1.387 . S
H793 C789 0.950 . S
H794 C791 0.950 . S
C795 C786 1.390 . S
C795 H788 0.950 . S
C795 C792 1.387 . S
C796 C797 1.387 . S
C796 H800 0.950 . S
C796 C805 1.390 1_554 S
C797 C796 1.387 . S
C797 C799 1.387 . S
H798 C805 0.950 . S
C799 C797 1.387 . S
C799 C801 1.390 1_554 S
C799 H803 0.950 . S
H800 C796 0.950 . S
C801 C799 1.390 1_556 S
C801 C802 1.387 . S
C801 H804 0.950 . S
C802 C801 1.387 . S
C802 C805 1.387 . S
H803 C799 0.950 . S
H804 C801 0.950 . S
C805 C796 1.390 1_556 S
C805 H798 0.950 . S
C805 C802 1.387 . S
C806 C807 1.387 1_455 S
C806 H810 0.950 1_455 S
C806 C815 1.390 . S
C807 C806 1.387 1_655 S
C807 C809 1.387 1_655 S
H808 C815 0.950 . S
C809 C807 1.387 1_455 S
C809 C811 1.390 . S
C809 H813 0.950 1_455 S
H810 C806 0.950 1_655 S
C811 C809 1.390 . S
C811 C812 1.387 . S
C811 H814 0.950 . S
C812 C811 1.387 . S
C812 C815 1.387 . S
H813 C809 0.950 1_655 S
H814 C811 0.950 . S
C815 C806 1.390 . S
C815 H808 0.950 . S
C815 C812 1.387 . S
C816 C817 1.387 . S
C816 H820 0.950 . S
C816 C825 1.390 . S
C817 C816 1.387 . S
C817 C819 1.387 . S
H818 C825 0.950 . S
C819 C817 1.387 . S
C819 C821 1.390 . S
C819 H823 0.950 . S
H820 C816 0.950 . S
C821 C819 1.390 . S
C821 C822 1.387 . S
C821 H824 0.950 . S
C822 C821 1.387 . S
C822 C825 1.387 . S
H823 C819 0.950 . S
H824 C821 0.950 . S
C825 C816 1.390 . S
C825 H818 0.950 . S
C825 C822 1.387 . S
C826 C827 1.387 1_655 S
C826 H830 0.950 1_655 S
C826 C835 1.390 . S
C827 C826 1.387 1_455 S
C827 C829 1.387 1_455 S
H828 C835 0.950 . S
C829 C827 1.387 1_655 S
C829 C831 1.390 . S
C829 H833 0.950 1_655 S
H830 C826 0.950 1_455 S
C831 C829 1.390 . S
C831 C832 1.387 . S
C831 H834 0.950 . S
C832 C831 1.387 . S
C832 C835 1.387 . S
H833 C829 0.950 1_455 S
H834 C831 0.950 . S
C835 C826 1.390 . S
C835 H828 0.950 . S
C835 C832 1.387 . S
C836 C837 1.394 . S
C836 H840 0.960 . S
C836 C845 1.374 1_455 S
C837 C836 1.394 . S
C837 C839 1.387 1_455 S
H838 C845 0.950 . S
C839 C837 1.387 1_655 S
C839 C841 1.390 . S
C839 H843 0.943 1_655 S
H840 C836 0.960 . S
C841 C839 1.390 . S
C841 C842 1.387 . S
C841 H844 0.950 . S
C842 C841 1.387 . S
C842 C845 1.387 . S
H843 C839 0.943 1_455 S
H844 C841 0.950 . S
C845 C836 1.374 1_655 S
C845 H838 0.950 . S
C845 C842 1.387 . S
C846 C847 1.387 . S
C846 H850 0.950 . S
C846 C855 1.390 . S
C847 C846 1.387 . S
C847 C849 1.387 . S
H848 C855 0.950 . S
C849 C847 1.387 . S
C849 C851 1.390 . S
C849 H853 0.950 . S
H850 C846 0.950 . S
C851 C849 1.390 . S
C851 C852 1.387 . S
C851 H854 0.950 . S
C852 C851 1.387 . S
C852 C855 1.387 . S
H853 C849 0.950 . S
H854 C851 0.950 . S
C855 C846 1.390 . S
C855 H848 0.950 . S
C855 C852 1.387 . S
C856 C857 1.387 1_455 S
C856 H860 0.950 1_455 S
C856 C865 1.390 . S
C857 C856 1.387 1_655 S
C857 C859 1.387 1_655 S
H858 C865 0.950 . S
C859 C857 1.387 1_455 S
C859 C861 1.390 . S
C859 H863 0.950 1_455 S
H860 C856 0.950 1_655 S
C861 C859 1.390 . S
C861 C862 1.387 . S
C861 H864 0.950 . S
C862 C861 1.387 . S
C862 C865 1.387 . S
H863 C859 0.950 1_655 S
H864 C861 0.950 . S
C865 C856 1.390 . S
C865 H858 0.950 . S
C865 C862 1.387 . S
C866 C867 1.387 . S
C866 H870 0.950 . S
C866 C875 1.390 . S
C867 C866 1.387 . S
C867 C869 1.387 . S
H868 C875 0.950 . S
C869 C867 1.387 . S
C869 C871 1.390 . S
C869 H873 0.950 . S
H870 C866 0.950 . S
C871 C869 1.390 . S
C871 C872 1.387 . S
C871 H874 0.950 . S
C872 C871 1.387 . S
C872 C875 1.387 . S
H873 C869 0.950 . S
H874 C871 0.950 . S
C875 C866 1.390 . S
C875 H868 0.950 . S
C875 C872 1.387 . S
C876 C877 1.387 . S
C876 H880 0.950 . S
C876 C885 1.390 . S
C877 C876 1.387 . S
C877 C879 1.387 . S
H878 C885 0.950 . S
C879 C877 1.387 . S
C879 C881 1.390 . S
C879 H883 0.950 . S
H880 C876 0.950 . S
C881 C879 1.390 . S
C881 C882 1.387 . S
C881 H884 0.950 . S
C882 C881 1.387 . S
C882 C885 1.387 . S
H883 C879 0.950 . S
H884 C881 0.950 . S
C885 C876 1.390 . S
C885 H878 0.950 . S
C885 C882 1.387 . S
C886 C887 1.389 . S
C886 H890 0.952 . S
C886 C895 1.386 1_554 S
C887 C886 1.389 . S
C887 C889 1.387 1_554 S
H888 C895 0.950 . S
C889 C887 1.387 1_556 S
C889 C891 1.390 . S
C889 H893 0.950 1_556 S
H890 C886 0.952 . S
C891 C889 1.390 . S
C891 C892 1.387 . S
C891 H894 0.950 . S
C892 C891 1.387 . S
C892 C895 1.387 . S
H893 C889 0.950 1_554 S
H894 C891 0.950 . S
C895 C886 1.386 1_556 S
C895 H888 0.950 . S
C895 C892 1.387 . S
C896 C897 1.387 . S
C896 H900 0.950 . S
C896 C905 1.390 . S
C897 C896 1.387 . S
C897 C899 1.387 . S
H898 C905 0.950 . S
C899 C897 1.387 . S
C899 C901 1.390 . S
C899 H903 0.950 . S
H900 C896 0.950 . S
C901 C899 1.390 . S
C901 C902 1.387 . S
C901 H904 0.950 . S
C902 C901 1.387 . S
C902 C905 1.387 . S
H903 C899 0.950 . S
H904 C901 0.950 . S
C905 C896 1.390 . S
C905 H898 0.950 . S
C905 C902 1.387 . S
C906 C907 1.387 . S
C906 H910 0.950 . S
C906 C915 1.390 . S
C907 C906 1.387 . S
C907 C909 1.387 . S
H908 C915 0.950 . S
C909 C907 1.387 . S
C909 C911 1.390 . S
C909 H913 0.950 . S
H910 C906 0.950 . S
C911 C909 1.390 . S
C911 C912 1.387 . S
C911 H914 0.950 . S
C912 C911 1.387 . S
C912 C915 1.387 . S
H913 C909 0.950 . S
H914 C911 0.950 . S
C915 C906 1.390 . S
C915 H908 0.950 . S
C915 C912 1.387 . S
C916 C917 1.387 . S
C916 H920 0.950 . S
C916 C925 1.390 . S
C917 C916 1.387 . S
C917 C919 1.387 . S
H918 C925 0.950 . S
C919 C917 1.387 . S
C919 C921 1.390 . S
C919 H923 0.950 . S
H920 C916 0.950 . S
C921 C919 1.390 . S
C921 C922 1.387 . S
C921 H924 0.950 . S
C922 C921 1.387 . S
C922 C925 1.387 . S
H923 C919 0.950 . S
H924 C921 0.950 . S
C925 C916 1.390 . S
C925 H918 0.950 . S
C925 C922 1.387 . S
C926 C927 1.387 . S
C926 H930 0.950 . S
C926 C935 1.390 . S
C927 C926 1.387 . S
C927 C929 1.387 . S
H928 C935 0.950 . S
C929 C927 1.387 . S
C929 C931 1.390 . S
C929 H933 0.950 . S
H930 C926 0.950 . S
C931 C929 1.390 . S
C931 C932 1.387 1_554 S
C931 H934 0.950 1_554 S
C932 C931 1.387 1_556 S
C932 C935 1.387 1_556 S
H933 C929 0.950 . S
H934 C931 0.950 1_556 S
C935 C926 1.390 . S
C935 H928 0.950 . S
C935 C932 1.387 1_554 S
C936 C937 1.387 . S
C936 H940 0.950 . S
C936 C945 1.390 . S
C937 C936 1.387 . S
C937 C939 1.387 . S
H938 C945 0.950 . S
C939 C937 1.387 . S
C939 C941 1.390 . S
C939 H943 0.950 . S
H940 C936 0.950 . S
C941 C939 1.390 . S
C941 C942 1.387 . S
C941 H944 0.950 . S
C942 C941 1.387 . S
C942 C945 1.387 . S
H943 C939 0.950 . S
H944 C941 0.950 . S
C945 C936 1.390 . S
C945 H938 0.950 . S
C945 C942 1.387 . S
C946 C947 1.387 . S
C946 H950 0.950 . S
C946 C955 1.390 . S
C947 C946 1.387 . S
C947 C949 1.387 . S
H948 C955 0.950 . S
C949 C947 1.387 . S
C949 C951 1.390 . S
C949 H953 0.950 . S
H950 C946 0.950 . S
C951 C949 1.390 . S
C951 C952 1.387 . S
C951 H954 0.950 . S
C952 C951 1.387 . S
C952 C955 1.387 . S
H953 C949 0.950 . S
H954 C951 0.950 . S
C955 C946 1.390 . S
C955 H948 0.950 . S
C955 C952 1.387 . S
C956 C957 1.387 . S
C956 H960 0.950 . S
C956 C965 1.390 . S
C957 C956 1.387 . S
C957 C959 1.387 . S
H958 C965 0.950 . S
C959 C957 1.387 . S
C959 C961 1.390 . S
C959 H963 0.950 . S
H960 C956 0.950 . S
C961 C959 1.390 . S
C961 C962 1.387 . S
C961 H964 0.950 . S
C962 C961 1.387 . S
C962 C965 1.387 . S
H963 C959 0.950 . S
H964 C961 0.950 . S
C965 C956 1.390 . S
C965 H958 0.950 . S
C965 C962 1.387 . S
C966 C967 1.387 . S
C966 H970 0.950 . S
C966 C975 1.390 . S
C967 C966 1.387 . S
C967 C969 1.387 . S
H968 C975 0.950 . S
C969 C967 1.387 . S
C969 C971 1.390 . S
C969 H973 0.950 . S
H970 C966 0.950 . S
C971 C969 1.390 . S
C971 C972 1.387 . S
C971 H974 0.950 . S
C972 C971 1.387 . S
C972 C975 1.387 . S
H973 C969 0.950 . S
H974 C971 0.950 . S
C975 C966 1.390 . S
C975 H968 0.950 . S
C975 C972 1.387 . S
C976 C977 1.387 . S
C976 H980 0.950 . S
C976 C985 1.390 1_554 S
C977 C976 1.387 . S
C977 C979 1.387 . S
H978 C985 0.950 . S
C979 C977 1.387 . S
C979 C981 1.390 1_554 S
C979 H983 0.950 . S
H980 C976 0.950 . S
C981 C979 1.390 1_556 S
C981 C982 1.387 . S
C981 H984 0.950 . S
C982 C981 1.387 . S
C982 C985 1.387 . S
H983 C979 0.950 . S
H984 C981 0.950 . S
C985 C976 1.390 1_556 S
C985 H978 0.950 . S
C985 C982 1.387 . S
C986 C987 1.387 . S
C986 H990 0.950 . S
C986 C995 1.390 . S
C987 C986 1.387 . S
C987 C989 1.387 . S
H988 C995 0.950 . S
C989 C987 1.387 . S
C989 C991 1.390 . S
C989 H993 0.950 . S
H990 C986 0.950 . S
C991 C989 1.390 . S
C991 C992 1.387 . S
C991 H994 0.950 . S
C992 C991 1.387 . S
C992 C995 1.387 . S
H993 C989 0.950 . S
H994 C991 0.950 . S
C995 C986 1.390 . S
C995 H988 0.950 . S
C995 C992 1.387 . S
C996 C997 1.387 . S
C996 H1000 0.950 . S
C996 C1005 1.390 . S
C997 C996 1.387 . S
C997 C999 1.387 . S
H998 C1005 0.950 . S
C999 C997 1.387 . S
C999 C1001 1.390 . S
C999 H1003 0.950 . S
H1000 C996 0.950 . S
C1001 C999 1.390 . S
C1001 C1002 1.387 . S
C1001 H1004 0.950 . S
C1002 C1001 1.387 . S
C1002 C1005 1.387 . S
H1003 C999 0.950 . S
H1004 C1001 0.950 . S
C1005 C996 1.390 . S
C1005 H998 0.950 . S
C1005 C1002 1.387 . S
C1006 C1007 1.387 . S
C1006 H1010 0.950 . S
C1006 C1015 1.390 . S
C1007 C1006 1.387 . S
C1007 C1009 1.387 . S
H1008 C1015 0.950 . S
C1009 C1007 1.387 . S
C1009 C1011 1.390 . S
C1009 H1013 0.950 . S
H1010 C1006 0.950 . S
C1011 C1009 1.390 . S
C1011 C1012 1.387 . S
C1011 H1014 0.950 . S
C1012 C1011 1.387 . S
C1012 C1015 1.387 . S
H1013 C1009 0.950 . S
H1014 C1011 0.950 . S
C1015 C1006 1.390 . S
C1015 H1008 0.950 . S
C1015 C1012 1.387 . S
C1016 C1017 1.387 . S
C1016 H1020 0.950 . S
C1016 C1025 1.390 1_554 S
C1017 C1016 1.387 . S
C1017 C1019 1.387 . S
H1018 C1025 0.950 . S
C1019 C1017 1.387 . S
C1019 C1021 1.390 1_554 S
C1019 H1023 0.950 . S
H1020 C1016 0.950 . S
C1021 C1019 1.390 1_556 S
C1021 C1022 1.387 . S
C1021 H1024 0.950 . S
C1022 C1021 1.387 . S
C1022 C1025 1.387 . S
H1023 C1019 0.950 . S
H1024 C1021 0.950 . S
C1025 C1016 1.390 1_556 S
C1025 H1018 0.950 . S
C1025 C1022 1.387 . S
C1026 C1027 1.387 . S
C1026 H1030 0.950 . S
C1026 C1035 1.390 . S
C1027 C1026 1.387 . S
C1027 C1029 1.387 . S
H1028 C1035 0.950 . S
C1029 C1027 1.387 . S
C1029 C1031 1.390 . S
C1029 H1033 0.950 . S
H1030 C1026 0.950 . S
C1031 C1029 1.390 . S
C1031 C1032 1.387 . S
C1031 H1034 0.950 . S
C1032 C1031 1.387 . S
C1032 C1035 1.387 . S
H1033 C1029 0.950 . S
H1034 C1031 0.950 . S
C1035 C1026 1.390 . S
C1035 H1028 0.950 . S
C1035 C1032 1.387 . S
C1036 C1037 1.387 . S
C1036 H1040 0.950 . S
C1036 C1045 1.390 . S
C1037 C1036 1.387 . S
C1037 C1039 1.387 . S
H1038 C1045 0.950 . S
C1039 C1037 1.387 . S
C1039 C1041 1.390 . S
C1039 H1043 0.950 . S
H1040 C1036 0.950 . S
C1041 C1039 1.390 . S
C1041 C1042 1.387 . S
C1041 H1044 0.950 . S
C1042 C1041 1.387 . S
C1042 C1045 1.387 . S
H1043 C1039 0.950 . S
H1044 C1041 0.950 . S
C1045 C1036 1.390 . S
C1045 H1038 0.950 . S
C1045 C1042 1.387 . S
C1046 C1047 1.387 . S
C1046 H1050 0.950 . S
C1046 C1055 1.390 . S
C1047 C1046 1.387 . S
C1047 C1049 1.387 . S
H1048 C1055 0.950 . S
C1049 C1047 1.387 . S
C1049 C1051 1.390 . S
C1049 H1053 0.950 . S
H1050 C1046 0.950 . S
C1051 C1049 1.390 . S
C1051 C1052 1.387 . S
C1051 H1054 0.950 . S
C1052 C1051 1.387 . S
C1052 C1055 1.387 . S
H1053 C1049 0.950 . S
H1054 C1051 0.950 . S
C1055 C1046 1.390 . S
C1055 H1048 0.950 . S
C1055 C1052 1.387 . S
C417 C8 1.057 . S
C422 C177 1.070 . S
C427 C333 1.358 . S
C432 C21 1.352 . S
C437 C34 1.056 . S
C442 C203 1.071 . S
C447 C47 1.350 . S
C452 C320 1.357 . S
C457 C60 1.419 . S
C462 C229 1.436 . S
C467 C73 1.137 . S
C472 C294 1.142 . S
C477 C86 1.419 . S
C482 C255 1.436 . S
C487 C411 1.145 . S
C492 C99 1.136 . S
C497 C281 1.436 . S
C502 C112 1.418 . S
C507 C125 1.135 . S
C512 C242 1.144 . S
C517 C307 1.436 . S
C522 C138 1.419 . S
C527 C151 1.349 . S
C532 C216 1.357 . S
C537 C190 1.358 . S
C542 C164 1.351 . S
C547 C268 1.145 . S
C552 C372 1.135 . S
C557 C385 1.071 . S
C562 C346 1.056 . S
C567 C398 1.071 . S
C572 C359 1.060 . S
C577 C10 1.578 . S
C582 C23 1.580 . S
C587 C31 1.497 . S
C592 C13 1.554 . S
C597 C49 1.577 . S
C602 C36 1.580 . S
C607 C39 1.554 . S
C612 C5 1.497 . S
C617 C96 1.422 . S
C622 C57 1.425 . S
C627 C75 1.517 . S
C632 C52 1.601 . S
C637 C83 1.423 . S
C642 C70 1.421 . S
C647 C78 1.600 . S
C652 C101 1.520 . S
C657 C117 1.589 . S
C662 C0 1.597 . S
C667 C114 1.493 . S
C672 C44 1.514 . S
C677 C140 1.495 . S
C682 C18 1.514 . S
C687 C351 1.597 . S
C692 C91 1.589 . S
C697 C364 1.589 . S
C702 C26 1.597 . S
C707 C148 1.514 . S
C712 C62 1.495 . S
C717 C88 1.493 . S
C722 C161 1.514 . S
C727 C187 1.604 . S
C732 C174 1.583 . S
C737 C205 1.453 . S
C742 C182 1.495 . S
C747 C213 1.603 . S
C752 C200 1.585 . S
C757 C179 1.453 . S
C762 C208 1.495 . S
C767 C221 1.492 . S
C772 C270 1.453 . S
C777 C226 1.638 . S
C782 C239 1.610 . S
C787 C247 1.492 . S
C792 C244 1.454 . S
C797 C252 1.638 . S
C802 C265 1.610 . S
C807 C169 1.501 . S
C812 C286 1.495 . S
C817 C283 1.528 . S
C822 C218 1.529 . S
C827 C309 1.531 . S
C832 C192 1.526 . S
C837 C390 1.501 . S
C842 C260 1.495 . S
C847 C403 1.496 . S
C852 C195 1.502 . S
C857 C231 1.531 . S
C862 C322 1.526 . S
C867 C335 1.526 . S
C872 C257 1.530 . S
C877 C166 1.580 . S
C882 C348 1.578 . S
C887 C356 1.497 . S
C892 C156 1.554 . S
C897 C153 1.577 . S
C902 C361 1.580 . S
C907 C143 1.554 . S
C912 C343 1.497 . S
C917 C109 1.424 . S
C922 C369 1.422 . S
C927 C127 1.519 . S
C932 C104 1.600 . S
C937 C135 1.425 . S
C942 C122 1.423 . S
C947 C130 1.600 . S
C952 C374 1.519 . S
C957 C338 1.597 . S
C962 C65 1.589 . S
C967 C330 1.604 . S
C972 C382 1.583 . S
C977 C325 1.496 . S
C982 C400 1.455 . S
C987 C395 1.583 . S
C992 C317 1.604 . S
C997 C312 1.496 . S
C1002 C387 1.455 . S
C1007 C413 1.453 . S
C1012 C273 1.492 . S
C1017 C278 1.636 . S
C1022 C291 1.613 . S
C1027 C299 1.492 . S
C1032 C296 1.453 . S
C1037 C304 1.638 . S
C1042 C408 1.610 . S
C1047 C377 1.501 . S
C1052 C234 1.495 . S
