# Generated by pormake.
# Topology svj, (7)-cn, num edge types: 1
# Building blocks:
#     Node 0, Type 0, BuildingBlock: HICVOG_clean_sbu_0, # of connection points: 7
#     Node 1, Type 0, BuildingBlock: HICVOG_clean_sbu_0, # of connection points: 7
#     Node 2, Type 0, BuildingBlock: HICVOG_clean_sbu_0, # of connection points: 7
#     Node 3, Type 0, BuildingBlock: HICVOG_clean_sbu_0, # of connection points: 7
#     Node 4, Type 0, BuildingBlock: HICVOG_clean_sbu_0, # of connection points: 7
#     Node 5, Type 0, BuildingBlock: HICVOG_clean_sbu_0, # of connection points: 7
#     Edge 6, Type (0, 0), BuildingBlock: UVAHIK_clean_linker_0, # of connection points: 2
#     Edge 7, Type (0, 0), BuildingBlock: UVAHIK_clean_linker_0, # of connection points: 2
#     Edge 8, Type (0, 0), BuildingBlock: UVAHIK_clean_linker_0, # of connection points: 2
#     Edge 9, Type (0, 0), BuildingBlock: UVAHIK_clean_linker_0, # of connection points: 2
#     Edge 10, Type (0, 0), BuildingBlock: UVAHIK_clean_linker_0, # of connection points: 2
#     Edge 11, Type (0, 0), BuildingBlock: UVAHIK_clean_linker_0, # of connection points: 2
#     Edge 12, Type (0, 0), BuildingBlock: UVAHIK_clean_linker_0, # of connection points: 2
#     Edge 13, Type (0, 0), BuildingBlock: UVAHIK_clean_linker_0, # of connection points: 2
#     Edge 14, Type (0, 0), BuildingBlock: UVAHIK_clean_linker_0, # of connection points: 2
#     Edge 15, Type (0, 0), BuildingBlock: UVAHIK_clean_linker_0, # of connection points: 2
#     Edge 16, Type (0, 0), BuildingBlock: UVAHIK_clean_linker_0, # of connection points: 2
#     Edge 17, Type (0, 0), BuildingBlock: UVAHIK_clean_linker_0, # of connection points: 2
#     Edge 18, Type (0, 0), BuildingBlock: UVAHIK_clean_linker_0, # of connection points: 2
#     Edge 19, Type (0, 0), BuildingBlock: UVAHIK_clean_linker_0, # of connection points: 2
#     Edge 20, Type (0, 0), BuildingBlock: UVAHIK_clean_linker_0, # of connection points: 2
#     Edge 21, Type (0, 0), BuildingBlock: UVAHIK_clean_linker_0, # of connection points: 2
#     Edge 22, Type (0, 0), BuildingBlock: UVAHIK_clean_linker_0, # of connection points: 2
#     Edge 23, Type (0, 0), BuildingBlock: UVAHIK_clean_linker_0, # of connection points: 2
#     Edge 24, Type (0, 0), BuildingBlock: UVAHIK_clean_linker_0, # of connection points: 2
#     Edge 25, Type (0, 0), BuildingBlock: UVAHIK_clean_linker_0, # of connection points: 2
#     Edge 26, Type (0, 0), BuildingBlock: UVAHIK_clean_linker_0, # of connection points: 2
# Relax obj value: 0.269
# Max RMSD: 0.258
# Mean RMSD: 0.241
data_MOF--net-svj--node1-HICVOG_clean_sbu_0--edge1-UVAHIK_clean_linker_0
_symmetry_space_group_name_H-M    P1
_symmetry_Int_Tables_number       1
_symmetry_cell_setting            triclinic
loop_
_symmetry_equiv_pos_as_xyz
'x, y, z'
_cell_length_a     52.102828
_cell_length_b     52.158069
_cell_length_c     24.866172
_cell_angle_alpha  89.962516
_cell_angle_beta   90.000482
_cell_angle_gamma 119.87609
loop_
_atom_site_label
_atom_site_type_symbol
_atom_site_fract_x
_atom_site_fract_y
_atom_site_fract_z
_atom_type_partial_charge
Zn0 Zn 0.18761 0.4399 0.97975 0.0
C1 C 0.12493 0.44942 0.05482 0.0
N2 N 0.13082 0.46944 0.0158 0.0
C3 C 0.15383 0.47 0.99018 0.0
N4 N 0.16175 0.45151 0.0129 0.0
N5 N 0.14376 0.43876 0.05405 0.0
C6 C 0.08925 0.36966 0.09915 0.0
O7 O 0.09954 0.37234 0.04999 0.0
O8 O 0.22507 0.47526 0.95206 0.0
Zn9 Zn 0.148 0.4172 0.11327 0.0
N10 N 0.16544 0.41373 0.92212 0.0
C11 C 0.12883 0.36496 0.89777 0.0
C12 C 0.14587 0.38551 0.93682 0.0
C13 C 0.16865 0.42249 0.86987 0.0
N14 N 0.13205 0.37353 0.84556 0.0
C15 C 0.15143 0.4018 0.83012 0.0
O16 O 0.17421 0.39883 0.10222 0.0
C17 C 0.19371 0.40083 0.0689 0.0
O18 O 0.19946 0.41603 0.0261 0.0
H19 H 0.14367 0.37908 0.97866 0.0
H20 H 0.18475 0.44508 0.85977 0.0
C21 C 0.15933 0.43898 0.22209 0.0
C22 C 0.17395 0.46076 0.26176 0.0
C23 C 0.20166 0.49544 0.19333 0.0
C24 C 0.18758 0.47366 0.15444 0.0
N25 N 0.16658 0.44599 0.16953 0.0
N26 N 0.1946 0.4885 0.24587 0.0
H27 H 0.14229 0.41679 0.23236 0.0
C28 C 0.24677 0.48682 0.98456 0.0
O29 O 0.24327 0.47589 0.03336 0.0
O30 O 0.10667 0.38611 0.13585 0.0
H31 H 0.19321 0.47876 0.11244 0.0
H32 H 0.11319 0.34237 0.90877 0.0
H33 H 0.21824 0.51764 0.18197 0.0
Zn34 Zn 0.66085 0.1175 0.26215 0.0
C35 C 0.70933 0.20044 0.22516 0.0
N36 N 0.68857 0.20303 0.25292 0.0
C37 C 0.66662 0.17484 0.25739 0.0
N38 N 0.67394 0.15613 0.23379 0.0
N39 N 0.70031 0.17217 0.21162 0.0
C40 C 0.77348 0.19067 0.17407 0.0
O41 O 0.76248 0.17819 0.22073 0.0
O42 O 0.61626 0.09503 0.27358 0.0
Zn43 Zn 0.71178 0.15979 0.14606 0.0
N44 N 0.68334 0.12229 0.32753 0.0
C45 C 0.72981 0.12963 0.35806 0.0
C46 C 0.7108 0.12673 0.3164 0.0
C47 C 0.67423 0.12131 0.37938 0.0
N48 N 0.72073 0.12821 0.40954 0.0
C49 C 0.69353 0.12425 0.42191 0.0
O50 O 0.70206 0.1166 0.14586 0.0
C51 C 0.68631 0.09326 0.17344 0.0
O52 O 0.67148 0.09324 0.21405 0.0
H53 H 0.7178 0.12781 0.27515 0.0
H54 H 0.65228 0.11778 0.38726 0.0
C55 C 0.69501 0.16103 0.03349 0.0
C56 C 0.67832 0.16491 0.99259 0.0
C57 C 0.65334 0.17675 0.05957 0.0
C58 C 0.6697 0.17282 0.09944 0.0
N59 N 0.6903 0.16514 0.08608 0.0
N60 N 0.658 0.17273 0.00751 0.0
H61 H 0.7117 0.15519 0.024 0.0
C62 C 0.60149 0.07842 0.2346 0.0
O63 O 0.6156 0.07767 0.19143 0.0
O64 O 0.75593 0.18592 0.13494 0.0
H65 H 0.66584 0.17599 0.14075 0.0
H66 H 0.75163 0.13296 0.34963 0.0
H67 H 0.63696 0.18291 0.06987 0.0
Zn68 Zn 0.59285 0.73271 0.10282 0.0
C69 C 0.5388 0.68451 0.98277 0.0
N70 N 0.53978 0.66247 0.00899 0.0
C71 C 0.56085 0.67709 0.04608 0.0
N72 N 0.57177 0.70654 0.04372 0.0
N73 N 0.55804 0.7112 0.00343 0.0
C74 C 0.52192 0.75972 0.97396 0.0
O75 O 0.53273 0.76673 0.02288 0.0
O76 O 0.62516 0.72435 0.12622 0.0
Zn77 Zn 0.56923 0.74816 0.96888 0.0
N78 N 0.56377 0.7215 0.159 0.0
C79 C 0.51367 0.70474 0.18266 0.0
C80 C 0.53567 0.71339 0.14382 0.0
C81 C 0.57093 0.72168 0.21158 0.0
N82 N 0.52076 0.70506 0.23522 0.0
C83 C 0.54889 0.71351 0.25121 0.0
O84 O 0.59289 0.78416 0.01421 0.0
C85 C 0.60781 0.79403 0.05717 0.0
O86 O 0.60993 0.77697 0.09134 0.0
H87 H 0.53041 0.71356 0.10181 0.0
H88 H 0.59345 0.72788 0.22189 0.0
C89 C 0.58671 0.74619 0.85911 0.0
C90 C 0.60757 0.74988 0.81943 0.0
C91 C 0.64452 0.76479 0.88704 0.0
C92 C 0.62382 0.76115 0.92601 0.0
N93 N 0.59546 0.75201 0.91131 0.0
N94 N 0.63596 0.75918 0.83487 0.0
H95 H 0.56402 0.73941 0.84895 0.0
C96 C 0.64406 0.72675 0.0913 0.0
O97 O 0.64275 0.73614 0.04292 0.0
O98 O 0.53362 0.74986 0.9411 0.0
H99 H 0.63026 0.76572 0.96776 0.0
H100 H 0.49115 0.69802 0.17122 0.0
H101 H 0.66722 0.77212 0.89806 0.0
Zn102 Zn 0.88866 0.54166 0.26024 0.0
C103 C 0.80591 0.51274 0.22089 0.0
N104 N 0.80141 0.48892 0.24931 0.0
C105 C 0.82896 0.49349 0.256 0.0
N106 N 0.84918 0.51905 0.23305 0.0
N107 N 0.83478 0.53078 0.20912 0.0
C108 C 0.82379 0.59047 0.1686 0.0
O109 O 0.83692 0.59242 0.21475 0.0
O110 O 0.90704 0.516 0.27268 0.0
Zn111 Zn 0.84938 0.55429 0.14341 0.0
N112 N 0.88691 0.56163 0.32505 0.0
C113 C 0.8859 0.60438 0.3553 0.0
C114 C 0.88628 0.58681 0.31374 0.0
C115 C 0.8865 0.55284 0.37697 0.0
N116 N 0.88589 0.59599 0.40685 0.0
C117 C 0.88606 0.57065 0.41941 0.0
O118 O 0.89358 0.58489 0.1438 0.0
C119 C 0.91663 0.59001 0.17032 0.0
O120 O 0.9154 0.57444 0.21066 0.0
H121 H 0.88623 0.59325 0.27244 0.0
H122 H 0.88702 0.53271 0.38492 0.0
C123 C 0.84669 0.53558 0.03113 0.0
C124 C 0.84129 0.51458 0.99028 0.0
C125 C 0.8271 0.47744 0.05739 0.0
C126 C 0.83256 0.49817 0.09725 0.0
N127 N 0.84213 0.52682 0.08376 0.0
N128 N 0.83156 0.48608 0.00527 0.0
H129 H 0.85405 0.55844 0.02158 0.0
C130 C 0.9339 0.52727 0.28723 0.0
O131 O 0.94887 0.5556 0.29881 0.0
O132 O 0.82626 0.57543 0.13079 0.0
H133 H 0.82912 0.49124 0.13865 0.0
H134 H 0.88561 0.62457 0.34674 0.0
H135 H 0.81942 0.4546 0.06777 0.0
Zn136 Zn 0.27596 0.85917 0.10123 0.0
C137 C 0.32466 0.85551 0.97835 0.0
N138 N 0.34627 0.88012 0.00154 0.0
C139 C 0.33185 0.88494 0.04158 0.0
N140 N 0.30293 0.86409 0.04339 0.0
N141 N 0.29839 0.84589 0.00295 0.0
C142 C 0.24902 0.76093 0.97512 0.0
O143 O 0.24125 0.76478 0.02339 0.0
O144 O 0.28718 0.90039 0.12667 0.0
Zn145 Zn 0.26135 0.81997 0.96872 0.0
N146 N 0.28238 0.83707 0.15645 0.0
C147 C 0.29235 0.79849 0.17807 0.0
C148 C 0.28726 0.81502 0.14002 0.0
C149 C 0.28193 0.84308 0.20949 0.0
N150 N 0.29201 0.80447 0.23107 0.0
C151 C 0.28676 0.82625 0.24823 0.0
O152 O 0.22492 0.80837 0.01277 0.0
C153 C 0.21488 0.81516 0.05356 0.0
O154 O 0.23185 0.83518 0.08644 0.0
H155 H 0.28732 0.81044 0.09763 0.0
H156 H 0.27838 0.86109 0.22082 0.0
C157 C 0.26245 0.8378 0.85794 0.0
C158 C 0.25962 0.85531 0.81784 0.0
C159 C 0.24862 0.88066 0.88533 0.0
C160 C 0.25144 0.86329 0.9247 0.0
N161 N 0.2582 0.84225 0.91026 0.0
N162 N 0.25268 0.87623 0.83304 0.0
H163 H 0.26739 0.82053 0.84807 0.0
C164 C 0.28987 0.91842 0.08965 0.0
O165 O 0.28292 0.9085 0.04019 0.0
O166 O 0.2595 0.78244 0.94219 0.0
H167 H 0.24816 0.86639 0.9666 0.0
H168 H 0.29647 0.78099 0.16567 0.0
H169 H 0.24317 0.89747 0.89612 0.0
Zn170 Zn 0.45591 0.29524 0.14495 0.0
C171 C 0.51922 0.34159 0.24854 0.0
N172 N 0.52558 0.31969 0.24363 0.0
C173 C 0.50117 0.29814 0.21973 0.0
N174 N 0.48112 0.30666 0.20883 0.0
N175 N 0.49218 0.33359 0.22875 0.0
C176 C 0.49158 0.40438 0.2271 0.0
O177 O 0.47964 0.38839 0.18378 0.0
O178 O 0.43831 0.25133 0.13224 0.0
Zn179 Zn 0.46719 0.34655 0.26097 0.0
N180 N 0.48133 0.31729 0.08389 0.0
C181 C 0.52936 0.35364 0.05391 0.0
C182 C 0.51053 0.33585 0.09443 0.0
C183 C 0.47037 0.31545 0.03325 0.0
N184 N 0.51843 0.3521 0.0039 0.0
C185 C 0.48947 0.33343 0.9919 0.0
O186 O 0.43138 0.33637 0.21601 0.0
C187 C 0.41549 0.32114 0.17672 0.0
O188 O 0.42218 0.30489 0.14841 0.0
H189 H 0.51937 0.33725 0.13405 0.0
H190 H 0.44706 0.30075 0.0257 0.0
C191 C 0.45858 0.33125 0.37837 0.0
C192 C 0.44371 0.31009 0.41951 0.0
C193 C 0.41481 0.27467 0.35278 0.0
C194 C 0.42943 0.29544 0.3128 0.0
N195 N 0.45088 0.32324 0.32597 0.0
N196 N 0.42224 0.28246 0.40475 0.0
H197 H 0.47615 0.35338 0.38737 0.0
C198 C 0.42349 0.23323 0.16947 0.0
O199 O 0.41959 0.24353 0.21505 0.0
O200 O 0.48948 0.39108 0.27122 0.0
H201 H 0.42383 0.28948 0.27111 0.0
H202 H 0.55252 0.36865 0.06215 0.0
H203 H 0.39771 0.25246 0.34272 0.0
C204 C 0.37385 0.32802 0.20764 0.0
C205 C 0.38828 0.32248 0.1653 0.0
C206 C 0.34976 0.33207 0.19771 0.0
C207 C 0.295 0.32478 0.09294 0.0
H208 H 0.29138 0.38438 0.18066 0.0
C209 C 0.22671 0.38143 0.03872 0.0
C210 C 0.21121 0.38608 0.08043 0.0
C211 C 0.24531 0.3699 0.04961 0.0
C212 C 0.29182 0.36739 0.1563 0.0
H213 H 0.38822 0.316 0.07932 0.0
H214 H 0.34663 0.32421 0.06134 0.0
H215 H 0.32982 0.37195 0.19729 0.0
H216 H 0.20257 0.38149 0.16618 0.0
H217 H 0.23553 0.36173 0.18534 0.0
H218 H 0.25752 0.32139 0.05057 0.0
C219 C 0.35353 0.32476 0.10259 0.0
C220 C 0.31386 0.36013 0.16587 0.0
C221 C 0.37745 0.32015 0.11275 0.0
C222 C 0.21414 0.37814 0.13316 0.0
C223 C 0.23313 0.367 0.14416 0.0
C224 C 0.27313 0.33237 0.08291 0.0
C225 C 0.3397 0.33134 0.14493 0.0
C226 C 0.31579 0.33866 0.13446 0.0
C227 C 0.2492 0.3631 0.10256 0.0
C228 C 0.27132 0.35377 0.11453 0.0
H229 H 0.38137 0.32945 0.24874 0.0
H230 H 0.33922 0.33609 0.23163 0.0
H231 H 0.29544 0.30788 0.06834 0.0
H232 H 0.22485 0.38716 0.99758 0.0
H233 H 0.25753 0.36737 0.01678 0.0
C234 C 0.04549 0.34749 0.16183 0.0
C235 C 0.05714 0.35056 0.10968 0.0
C236 C 0.0149 0.33079 0.17065 0.0
C237 C 0.94356 0.30375 0.10167 0.0
H238 H 0.91148 0.24582 0.21641 0.0
C239 C 0.81861 0.21899 0.11644 0.0
C240 C 0.80583 0.21038 0.16772 0.0
C241 C 0.84927 0.23697 0.11067 0.0
C242 C 0.92001 0.26222 0.18469 0.0
H243 H 0.04571 0.33842 0.026 0.0
H244 H 0.99257 0.30953 0.04145 0.0
H245 H 0.96498 0.27563 0.2049 0.0
H246 H 0.8151 0.2147 0.25328 0.0
H247 H 0.86835 0.24663 0.24336 0.0
H248 H 0.8988 0.2908 0.0817 0.0
C249 C 0.00704 0.32007 0.07546 0.0
C250 C 0.95071 0.27924 0.17806 0.0
C251 C 0.03755 0.33645 0.06672 0.0
C252 C 0.8243 0.22062 0.21314 0.0
C253 C 0.8549 0.23884 0.20741 0.0
C254 C 0.91289 0.28697 0.1086 0.0
C255 C 0.99534 0.31715 0.12743 0.0
C256 C 0.96281 0.29997 0.13613 0.0
C257 C 0.86787 0.24707 0.15608 0.0
C258 C 0.90064 0.26575 0.14988 0.0
H259 H 0.05995 0.35824 0.19574 0.0
H260 H 0.0065 0.32908 0.21112 0.0
H261 H 0.95225 0.31989 0.06948 0.0
H262 H 0.805 0.21141 0.08064 0.0
H263 H 0.8584 0.24243 0.07045 0.0
C264 C 0.62842 0.84594 0.02434 0.0
C265 C 0.62237 0.82627 0.06743 0.0
C266 C 0.64002 0.87614 0.03352 0.0
C267 C 0.67457 0.93487 0.13888 0.0
H268 H 0.64424 0.97457 0.04886 0.0
C269 C 0.67702 0.04295 0.19828 0.0
C270 C 0.6849 0.06502 0.15892 0.0
C271 C 0.67371 0.01547 0.18499 0.0
C272 C 0.65326 0.96393 0.07381 0.0
H273 H 0.62432 0.82302 0.15401 0.0
H274 H 0.64361 0.87562 0.17043 0.0
H275 H 0.62984 0.92331 0.03066 0.0
H276 H 0.69598 0.07568 0.07481 0.0
H277 H 0.68951 0.02709 0.05119 0.0
H278 H 0.69687 0.97538 0.18346 0.0
C279 C 0.6401 0.86788 0.12926 0.0
C280 C 0.64508 0.93448 0.06338 0.0
C281 C 0.6289 0.83764 0.11995 0.0
C282 C 0.68996 0.05915 0.106 0.0
C283 C 0.68613 0.03134 0.09247 0.0
C284 C 0.68244 0.96422 0.1497 0.0
C285 C 0.64544 0.88752 0.08617 0.0
C286 C 0.65541 0.91941 0.09601 0.0
C287 C 0.67777 0.00917 0.13184 0.0
C288 C 0.67166 0.97898 0.11756 0.0
H289 H 0.62401 0.83796 0.98327 0.0
H290 H 0.64453 0.89053 0.99916 0.0
H291 H 0.68348 0.92431 0.16428 0.0
H292 H 0.67313 0.04681 0.23952 0.0
H293 H 0.66699 0.99878 0.21607 0.0
C294 C 0.79559 0.6135 0.20694 0.0
C295 C 0.80519 0.60437 0.16182 0.0
C296 C 0.77779 0.62639 0.20081 0.0
C297 C 0.7297 0.63612 0.1012 0.0
H298 H 0.7404 0.69918 0.19751 0.0
C299 C 0.67969 0.71101 0.05955 0.0
C300 C 0.6642 0.71491 0.10212 0.0
C301 C 0.69668 0.69748 0.06832 0.0
C302 C 0.73703 0.68144 0.17062 0.0
H303 H 0.80373 0.60167 0.07483 0.0
H304 H 0.77365 0.62511 0.06384 0.0
H305 H 0.77053 0.67575 0.20922 0.0
H306 H 0.65488 0.70811 0.18758 0.0
H307 H 0.68525 0.68502 0.20307 0.0
H308 H 0.69677 0.64257 0.06175 0.0
C309 C 0.77914 0.62165 0.10419 0.0
C310 C 0.7542 0.66787 0.17738 0.0
C311 C 0.79661 0.60839 0.11041 0.0
C312 C 0.66667 0.70558 0.15399 0.0
C313 C 0.68404 0.69238 0.16289 0.0
C314 C 0.71285 0.64996 0.09405 0.0
C315 C 0.76943 0.63082 0.14932 0.0
C316 C 0.75083 0.64505 0.14267 0.0
C317 C 0.6989 0.68786 0.11996 0.0
C318 C 0.71639 0.67281 0.12856 0.0
H319 H 0.8015 0.61035 0.24718 0.0
H320 H 0.77031 0.63255 0.2366 0.0
H321 H 0.72592 0.61823 0.07439 0.0
H322 H 0.67818 0.71779 0.01904 0.0
H323 H 0.70813 0.69455 0.0346 0.0
C324 C 0.16281 0.78191 0.02273 0.0
C325 C 0.18269 0.79763 0.06451 0.0
C326 C 0.1329 0.76251 0.03368 0.0
C327 C 0.08637 0.71354 0.13877 0.0
H328 H 0.02042 0.70926 0.05888 0.0
C329 C 0.96712 0.62927 0.19742 0.0
C330 C 0.94574 0.61586 0.15683 0.0
C331 C 0.995 0.65318 0.18584 0.0
C332 C 0.03857 0.70984 0.0811 0.0
H333 H 0.18657 0.80602 0.15035 0.0
H334 H 0.13431 0.77159 0.16959 0.0
H335 H 0.07086 0.74867 0.03927 0.0
H336 H 0.9367 0.61729 0.07223 0.0
H337 H 0.98609 0.6584 0.05116 0.0
H338 H 0.05484 0.67422 0.1789 0.0
C339 C 0.14196 0.77451 0.12834 0.0
C340 C 0.06743 0.73257 0.07008 0.0
C341 C 0.1718 0.79432 0.11727 0.0
C342 C 0.95276 0.62722 0.10432 0.0
C343 C 0.98103 0.65091 0.09242 0.0
C344 C 0.0577 0.69059 0.14913 0.0
C345 C 0.12234 0.75806 0.08675 0.0
C346 C 0.09157 0.73471 0.09909 0.0
C347 C 1.00266 0.66404 0.13303 0.0
C348 C 0.03329 0.68847 0.12079 0.0
H349 H 0.1705 0.78406 0.98161 0.0
H350 H 0.1183 0.75001 1.00093 0.0
H351 H 0.10463 0.7143 0.16095 0.0
H352 H 0.96222 0.62142 0.23856 0.0
H353 H 0.01054 0.66315 0.21864 0.0
C354 C 0.31023 0.97029 0.05712 0.0
C355 C 0.30344 0.95054 0.1003 0.0
C356 C 0.32389 1.00069 0.06601 0.0
C357 C 0.36676 0.05911 0.16718 0.0
H358 H 0.3439 0.10511 0.07696 0.0
C359 C 0.40171 0.18203 0.20715 0.0
C360 C 0.41138 0.20104 0.16237 0.0
C361 C 0.3897 0.15153 0.20059 0.0
C362 C 0.35071 0.0926 0.10214 0.0
H363 H 0.30599 0.94735 0.18685 0.0
H364 H 0.32908 1.00056 0.20268 0.0
H365 H 0.3199 0.0518 0.06498 0.0
H366 H 0.41648 0.20301 0.07568 0.0
H367 H 0.39501 0.14965 0.06416 0.0
H368 H 0.39713 0.10017 0.20511 0.0
C369 C 0.32425 0.99251 0.16172 0.0
C370 C 0.33701 0.06201 0.09524 0.0
C371 C 0.31075 0.96197 0.15274 0.0
C372 C 0.40912 0.18894 0.11095 0.0
C373 C 0.39673 0.1584 0.10433 0.0
C374 C 0.38024 0.08975 0.17449 0.0
C375 C 0.33091 0.01228 0.11841 0.0
C376 C 0.34499 0.04482 0.12733 0.0
C377 C 0.38674 0.13935 0.14905 0.0
C378 C 0.37249 0.10683 0.14175 0.0
H379 H 0.30534 0.96233 0.0161 0.0
H380 H 0.32928 0.01515 0.03149 0.0
H381 H 0.37381 0.04673 0.19213 0.0
H382 H 0.4034 0.1907 0.24737 0.0
H383 H 0.38206 0.1374 0.23576 0.0
C384 C 0.14724 0.38735 0.73358 0.0
C385 C 0.15395 0.40948 0.77219 0.0
C386 C 0.14838 0.39363 0.67884 0.0
C387 C 0.17996 0.45471 0.58098 0.0
H388 H 0.1187 0.39705 0.48775 0.0
C389 C 0.17343 0.47741 0.3558 0.0
C390 C 0.16814 0.4544 0.32006 0.0
C391 C 0.17013 0.47239 0.41118 0.0
C392 C 0.13608 0.41326 0.5132 0.0
H393 H 0.16652 0.45561 0.78315 0.0
H394 H 0.16868 0.46655 0.68741 0.0
H395 H 0.1164 0.38781 0.58422 0.0
H396 H 0.1556 0.40799 0.31519 0.0
H397 H 0.14961 0.39928 0.41153 0.0
H398 H 0.19975 0.48005 0.50983 0.0
C399 C 0.16302 0.44443 0.69972 0.0
C400 C 0.13479 0.40797 0.56845 0.0
C401 C 0.1619 0.43815 0.75466 0.0
C402 C 0.15911 0.42611 0.3411 0.0
C403 C 0.15578 0.4211 0.39652 0.0
C404 C 0.18124 0.46001 0.52569 0.0
C405 C 0.15611 0.42217 0.66125 0.0
C406 C 0.15686 0.4285 0.60289 0.0
C407 C 0.16153 0.44425 0.43219 0.0
C408 C 0.15944 0.43922 0.49115 0.0
H409 H 0.14123 0.36509 0.74562 0.0
H410 H 0.14345 0.37612 0.65023 0.0
H411 H 0.19749 0.47078 0.60636 0.0
H412 H 0.1803 0.49944 0.34098 0.0
H413 H 0.17435 0.49059 0.43759 0.0
C414 C 0.67072 0.13761 0.49884 0.0
C415 C 0.68588 0.12347 0.47966 0.0
C416 C 0.66794 0.14047 0.55437 0.0
C417 C 0.67359 0.11165 0.68798 0.0
H418 H 0.69462 0.19 0.73834 0.0
C419 C 0.69252 0.14281 0.91461 0.0
C420 C 0.68163 0.16094 0.93397 0.0
C421 C 0.6931 0.13797 0.85916 0.0
C422 C 0.68831 0.16785 0.72512 0.0
H423 H 0.70871 0.10008 0.50354 0.0
H424 H 0.70356 0.10475 0.59973 0.0
H425 H 0.69224 0.18036 0.64215 0.0
H426 H 0.6633 0.1885 0.90926 0.0
H427 H 0.6637 0.17957 0.81401 0.0
H428 H 0.66945 0.09904 0.77092 0.0
C429 C 0.69386 0.11367 0.57225 0.0
C430 C 0.68688 0.16234 0.66983 0.0
C431 C 0.69693 0.11113 0.51703 0.0
C432 C 0.67181 0.17434 0.89628 0.0
C433 C 0.67229 0.16944 0.84122 0.0
C434 C 0.6748 0.1171 0.74335 0.0
C435 C 0.67993 0.12895 0.59169 0.0
C436 C 0.6796 0.1342 0.65054 0.0
C437 C 0.68276 0.15106 0.82174 0.0
C438 C 0.68222 0.14531 0.76273 0.0
H439 H 0.66228 0.14767 0.47115 0.0
H440 H 0.65686 0.15216 0.56812 0.0
H441 H 0.6677 0.08966 0.67444 0.0
H442 H 0.69988 0.13167 0.94201 0.0
H443 H 0.70161 0.1239 0.84564 0.0
C444 C 0.57142 0.72352 0.74404 0.0
C445 C 0.59994 0.74462 0.76153 0.0
C446 C 0.5652 0.71836 0.68911 0.0
C447 C 0.60201 0.72778 0.55763 0.0
H448 H 0.52893 0.71879 0.49951 0.0
C449 C 0.58335 0.73422 0.33062 0.0
C450 C 0.5553 0.71427 0.30952 0.0
C451 C 0.58836 0.73589 0.38602 0.0
C452 C 0.54926 0.72086 0.51524 0.0
H453 H 0.64411 0.77696 0.73494 0.0
H454 H 0.63316 0.76817 0.63957 0.0
H455 H 0.53813 0.72567 0.59605 0.0
H456 H 0.51069 0.68022 0.33034 0.0
H457 H 0.51954 0.68316 0.42692 0.0
H458 H 0.6133 0.72334 0.47676 0.0
C459 C 0.61574 0.75528 0.66818 0.0
C460 C 0.55452 0.7248 0.57053 0.0
C461 C 0.62197 0.76041 0.72291 0.0
C462 C 0.53253 0.69592 0.34519 0.0
C463 C 0.53754 0.69764 0.40056 0.0
C464 C 0.59677 0.7239 0.50238 0.0
C465 C 0.58736 0.7341 0.65062 0.0
C466 C 0.58108 0.72858 0.59226 0.0
C467 C 0.56545 0.7178 0.4216 0.0
C468 C 0.57045 0.72063 0.48054 0.0
H469 H 0.55407 0.71043 0.77257 0.0
H470 H 0.5432 0.7016 0.67682 0.0
H471 H 0.62245 0.73007 0.57326 0.0
H472 H 0.60125 0.74932 0.3048 0.0
H473 H 0.60998 0.75201 0.40112 0.0
C474 C 0.83084 0.49895 0.8939 0.0
C475 C 0.84566 0.52183 0.93164 0.0
C476 C 0.83592 0.50419 0.83882 0.0
C477 C 0.89061 0.55666 0.74093 0.0
H478 H 0.82617 0.51526 0.63978 0.0
C479 C 0.89951 0.58616 0.51492 0.0
C480 C 0.88553 0.56315 0.47725 0.0
C481 C 0.89628 0.58035 0.57008 0.0
C482 C 0.8445 0.52666 0.66743 0.0
H483 H 0.87771 0.56859 0.93971 0.0
H484 H 0.88588 0.57791 0.84336 0.0
H485 H 0.81638 0.50821 0.73601 0.0
H486 H 0.85757 0.51574 0.46832 0.0
H487 H 0.85196 0.50549 0.56513 0.0
H488 H 0.91859 0.5755 0.67204 0.0
C489 C 0.8705 0.55568 0.85684 0.0
C490 C 0.83889 0.52269 0.72275 0.0
C491 C 0.86546 0.5504 0.91229 0.0
C492 C 0.86893 0.53394 0.49617 0.0
C493 C 0.86543 0.52813 0.55164 0.0
C494 C 0.89618 0.56076 0.68556 0.0
C495 C 0.85595 0.53256 0.81937 0.0
C496 C 0.86187 0.53759 0.76034 0.0
C497 C 0.87873 0.55135 0.58924 0.0
C498 C 0.87318 0.54582 0.6481 0.0
H499 H 0.81538 0.47663 0.90688 0.0
H500 H 0.8246 0.4857 0.81154 0.0
H501 H 0.90897 0.5681 0.76847 0.0
H502 H 0.91248 0.60892 0.50171 0.0
H503 H 0.90662 0.59879 0.59775 0.0
C504 C 0.26867 0.84233 0.32838 0.0
C505 C 0.28627 0.83137 0.3068 0.0
C506 C 0.26751 0.84574 0.38387 0.0
C507 C 0.27942 0.81859 0.5129 0.0
H508 H 0.27882 0.88726 0.57095 0.0
C509 C 0.28231 0.84136 0.7416 0.0
C510 C 0.26337 0.85152 0.7598 0.0
C511 C 0.28623 0.8391 0.6865 0.0
C512 C 0.2787 0.86783 0.55531 0.0
H513 H 0.31654 0.81556 0.32682 0.0
H514 H 0.31458 0.82167 0.42358 0.0
H515 H 0.28393 0.88349 0.47429 0.0
H516 H 0.23353 0.86693 0.73426 0.0
H517 H 0.24023 0.86279 0.63862 0.0
H518 H 0.27397 0.80285 0.59399 0.0
C519 C 0.3015 0.82737 0.39755 0.0
C520 C 0.28164 0.86568 0.49996 0.0
C521 C 0.30268 0.82396 0.34208 0.0
C522 C 0.24844 0.85923 0.7217 0.0
C523 C 0.25236 0.85697 0.66681 0.0
C524 C 0.27648 0.82074 0.56832 0.0
C525 C 0.28379 0.83816 0.41908 0.0
C526 C 0.28179 0.84093 0.47809 0.0
C527 C 0.27143 0.84707 0.64856 0.0
C528 C 0.27582 0.84526 0.59005 0.0
H529 H 0.25507 0.8475 0.30277 0.0
H530 H 0.25323 0.8536 0.39931 0.0
H531 H 0.27909 0.79906 0.4972 0.0
H532 H 0.29474 0.83589 0.76964 0.0
H533 H 0.30136 0.83175 0.67361 0.0
C534 C 0.46407 0.34471 0.50027 0.0
C535 C 0.4501 0.31602 0.4782 0.0
C536 C 0.46753 0.34883 0.55622 0.0
C537 C 0.43503 0.30984 0.6838 0.0
H538 H 0.51031 0.36536 0.74788 0.0
C539 C 0.45996 0.30623 0.90992 0.0
C540 C 0.47962 0.33286 0.93568 0.0
C541 C 0.45454 0.30581 0.85458 0.0
C542 C 0.48892 0.35011 0.73083 0.0
H543 H 0.42978 0.26934 0.49862 0.0
H544 H 0.43554 0.27666 0.5948 0.0
H545 H 0.50518 0.36266 0.65027 0.0
H546 H 0.50769 0.38009 0.92434 0.0
H547 H 0.49748 0.37956 0.8288 0.0
H548 H 0.41862 0.29724 0.764 0.0
C549 C 0.44347 0.29591 0.56908 0.0
C550 C 0.48607 0.34856 0.67475 0.0
C551 C 0.44028 0.2918 0.51361 0.0
C552 C 0.49262 0.35916 0.90552 0.0
C553 C 0.48695 0.35882 0.85055 0.0
C554 C 0.43778 0.31156 0.73983 0.0
C555 C 0.45678 0.32438 0.59118 0.0
C556 C 0.45924 0.32807 0.65062 0.0
C557 C 0.46846 0.33206 0.82392 0.0
C558 C 0.46488 0.33142 0.7642 0.0
H559 H 0.47162 0.36398 0.47486 0.0
H560 H 0.47787 0.37108 0.57223 0.0
H561 H 0.41392 0.29409 0.66635 0.0
H562 H 0.44995 0.28553 0.93182 0.0
H563 H 0.44042 0.2847 0.83552 0.0
C564 C 0.25863 0.72792 0.91454 0.0
C565 C 0.2441 0.73153 0.95915 0.0
C566 C 0.25306 0.69965 0.89966 0.0
C567 C 0.19539 0.6223 0.90785 0.0
H568 H 0.25683 0.60098 0.90543 0.0
C569 C 0.20061 0.51642 0.97412 0.0
C570 C 0.17289 0.49483 0.95479 0.0
C571 C 0.21441 0.54506 0.95306 0.0
C572 C 0.23947 0.60666 0.90517 0.0
H573 H 0.2126 0.70851 0.02321 0.0
H574 H 0.20254 0.6595 0.99667 0.0
H575 H 0.27037 0.65316 0.91316 0.0
H576 H 0.1388 0.48523 0.89586 0.0
H577 H 0.16318 0.53511 0.85778 0.0
H578 H 0.16433 0.57623 0.90333 0.0
C579 C 0.21823 0.6784 0.97329 0.0
C580 C 0.24724 0.63649 0.90933 0.0
C581 C 0.22414 0.7065 0.98865 0.0
C582 C 0.16042 0.50147 0.91079 0.0
C583 C 0.17426 0.53009 0.88947 0.0
C584 C 0.18764 0.59268 0.90334 0.0
C585 C 0.23242 0.67463 0.92852 0.0
C586 C 0.22515 0.64436 0.91292 0.0
C587 C 0.20044 0.55268 0.91277 0.0
C588 C 0.20949 0.58432 0.90404 0.0
H589 H 0.27431 0.7469 0.89134 0.0
H590 H 0.26436 0.69725 0.86513 0.0
H591 H 0.17796 0.62787 0.91012 0.0
H592 H 0.21007 0.51212 0.00944 0.0
H593 H 0.23437 0.56183 0.97243 0.0
C594 C 0.48234 0.24516 0.23893 0.0
C595 C 0.49888 0.26974 0.20567 0.0
C596 C 0.48831 0.22179 0.24005 0.0
C597 C 0.5356 0.19385 0.17883 0.0
H598 H 0.54842 0.18089 0.32762 0.0
C599 C 0.61377 0.14997 0.22886 0.0
C600 C 0.63581 0.16811 0.26578 0.0
C601 C 0.58749 0.15096 0.22484 0.0
C602 C 0.54479 0.18403 0.28583 0.0
H603 H 0.53341 0.28875 0.14572 0.0
H604 H 0.54401 0.24827 0.14739 0.0
H605 H 0.51865 0.20364 0.30683 0.0
H606 H 0.64693 0.20009 0.32955 0.0
H607 H 0.6013 0.20199 0.32279 0.0
H608 H 0.56368 0.17638 0.15802 0.0
C609 C 0.52594 0.24637 0.17182 0.0
C610 C 0.52736 0.19677 0.27377 0.0
C611 C 0.51988 0.26963 0.17066 0.0
C612 C 0.63011 0.18553 0.30136 0.0
C613 C 0.60387 0.18656 0.29739 0.0
C614 C 0.55309 0.18116 0.19089 0.0
C615 C 0.51132 0.2229 0.2086 0.0
C616 C 0.52357 0.203 0.22019 0.0
C617 C 0.58284 0.17035 0.25736 0.0
C618 C 0.55893 0.17724 0.24466 0.0
H619 H 0.46667 0.24522 0.26749 0.0
H620 H 0.47633 0.20389 0.26829 0.0
H621 H 0.53278 0.19791 0.13711 0.0
H622 H 0.61791 0.13704 0.19971 0.0
H623 H 0.57163 0.13791 0.19404 0.0
C624 C 0.27912 0.52893 0.92253 0.0
C625 C 0.27599 0.5113 0.96768 0.0
C626 C 0.30721 0.55167 0.90688 0.0
C627 C 0.38488 0.57206 0.91354 0.0
H628 H 0.40538 0.6544 0.90745 0.0
C629 C 0.49188 0.68457 0.96989 0.0
C630 C 0.51317 0.67829 0.94915 0.0
C631 C 0.46268 0.66918 0.95139 0.0
C632 C 0.39991 0.63146 0.90825 0.0
H633 H 0.29968 0.50379 0.03188 0.0
H634 H 0.34839 0.54279 0.00395 0.0
H635 H 0.35339 0.61569 0.91818 0.0
H636 H 0.52157 0.65293 0.89021 0.0
H637 H 0.47073 0.62647 0.85662 0.0
H638 H 0.43102 0.5873 0.90682 0.0
C639 C 0.32924 0.53916 0.98079 0.0
C640 C 0.3702 0.60937 0.91413 0.0
C641 C 0.30132 0.51693 0.99692 0.0
C642 C 0.50557 0.65845 0.90616 0.0
C643 C 0.4764 0.64311 0.88744 0.0
C644 C 0.41438 0.59396 0.90724 0.0
C645 C 0.33253 0.55662 0.93549 0.0
C646 C 0.36265 0.57958 0.91888 0.0
C647 C 0.45423 0.6469 0.91232 0.0
C648 C 0.42245 0.62403 0.90641 0.0
H649 H 0.25991 0.5252 0.8995 0.0
H650 H 0.30923 0.56496 0.87192 0.0
H651 H 0.37957 0.54921 0.91673 0.0
H652 H 0.49694 0.6989 0.00451 0.0
H653 H 0.44625 0.67254 0.97188 0.0
C654 C 0.85116 0.46262 0.23009 0.0
C655 C 0.83363 0.46823 0.26593 0.0
C656 C 0.84711 0.43408 0.22528 0.0
C657 C 0.78455 0.36229 0.22524 0.0
H658 H 0.8358 0.32813 0.22451 0.0
C659 C 0.73525 0.24345 0.16481 0.0
C660 C 0.73661 0.22668 0.20755 0.0
C661 C 0.7556 0.2737 0.16169 0.0
C662 C 0.82141 0.33757 0.22401 0.0
H663 H 0.80014 0.44925 0.32793 0.0
H664 H 0.79311 0.39948 0.31964 0.0
H665 H 0.85612 0.38062 0.24877 0.0
H666 H 0.76147 0.22724 0.27759 0.0
H667 H 0.7973 0.28005 0.27196 0.0
H668 H 0.74984 0.31988 0.20104 0.0
C669 C 0.80999 0.41711 0.29546 0.0
C670 C 0.83297 0.36742 0.23805 0.0
C671 C 0.81414 0.44559 0.30046 0.0
C672 C 0.76043 0.23974 0.24365 0.0
C673 C 0.78087 0.27 0.2405 0.0
C674 C 0.77321 0.33289 0.21037 0.0
C675 C 0.82529 0.41081 0.25587 0.0
C676 C 0.81437 0.37974 0.2399 0.0
C677 C 0.77736 0.2876 0.20169 0.0
C678 C 0.79133 0.32001 0.21019 0.0
H679 H 0.86575 0.47942 0.20188 0.0
H680 H 0.85899 0.42969 0.19422 0.0
H681 H 0.76987 0.37142 0.22555 0.0
H682 H 0.71673 0.2339 0.13715 0.0
H683 H 0.75261 0.28671 0.13095 0.0
C684 C 0.48031 0.75115 0.91146 0.0
C685 C 0.49762 0.76486 0.95728 0.0
C686 C 0.45788 0.75705 0.89583 0.0
C687 C 0.43812 0.81479 0.90498 0.0
H688 H 0.35557 0.75382 0.89594 0.0
C689 C 0.32544 0.80911 0.9628 0.0
C690 C 0.3319 0.83706 0.94398 0.0
C691 C 0.34094 0.79564 0.94309 0.0
C692 C 0.37857 0.77107 0.89756 0.0
H693 H 0.50485 0.79521 0.02274 0.0
H694 H 0.46638 0.80585 0.99495 0.0
H695 H 0.39393 0.73987 0.90564 0.0
H696 H 0.35773 0.87187 0.88712 0.0
H697 H 0.38446 0.84811 0.85151 0.0
H698 H 0.42325 0.84607 0.90028 0.0
C699 C 0.47004 0.79055 0.97119 0.0
C700 C 0.40047 0.76306 0.90284 0.0
C701 C 0.49195 0.7843 0.98726 0.0
C702 C 0.35213 0.85012 0.90171 0.0
C703 C 0.36759 0.83661 0.88178 0.0
C704 C 0.41641 0.82277 0.89933 0.0
C705 C 0.45294 0.77721 0.92518 0.0
C706 C 0.43031 0.78493 0.90874 0.0
C707 C 0.3635 0.81013 0.90469 0.0
C708 C 0.38625 0.80107 0.89757 0.0
H709 H 0.48407 0.73587 0.88786 0.0
H710 H 0.44485 0.74641 0.86034 0.0
H711 H 0.46102 0.83205 0.90904 0.0
H712 H 0.31086 0.79918 0.99693 0.0
H713 H 0.33736 0.77544 0.96215 0.0
C714 C 0.77141 0.53181 0.23264 0.0
C715 C 0.78084 0.51559 0.20166 0.0
C716 C 0.7419 0.52526 0.23061 0.0
C717 C 0.66828 0.47498 0.16632 0.0
H718 H 0.64066 0.46295 0.31396 0.0
C719 C 0.54695 0.39303 0.21347 0.0
C720 C 0.54321 0.37255 0.25372 0.0
C721 C 0.57362 0.4197 0.20864 0.0
C722 C 0.64793 0.46627 0.27245 0.0
H723 H 0.76778 0.48131 0.14186 0.0
H724 H 0.71642 0.46957 0.13824 0.0
H725 H 0.69301 0.49453 0.29495 0.0
H726 H 0.5641 0.36402 0.32106 0.0
H727 H 0.61088 0.41021 0.31247 0.0
H728 H 0.62354 0.44473 0.14425 0.0
C729 C 0.7316 0.48786 0.16328 0.0
C730 C 0.678 0.48479 0.26136 0.0
C731 C 0.76112 0.49461 0.16509 0.0
C732 C 0.56617 0.37978 0.29056 0.0
C733 C 0.59297 0.40634 0.28555 0.0
C734 C 0.63822 0.45633 0.17745 0.0
C735 C 0.72121 0.50187 0.19842 0.0
C736 C 0.68877 0.48841 0.20832 0.0
C737 C 0.59745 0.42612 0.24319 0.0
C738 C 0.62786 0.45076 0.23087 0.0
H739 H 0.78604 0.54754 0.26224 0.0
H740 H 0.73483 0.5369 0.25744 0.0
H741 H 0.67569 0.47761 0.12495 0.0
H742 H 0.53024 0.3874 0.18284 0.0
H743 H 0.57614 0.43446 0.17586 0.0
C744 C 0.93473 0.48117 0.26136 0.0
C745 C 0.94933 0.50992 0.28286 0.0
C746 C 0.95043 0.46657 0.24947 0.0
C747 C 0.02222 0.46847 0.26861 0.0
H748 H 0.00927 0.43971 0.12189 0.0
C749 C 0.11188 0.4641 0.14079 0.0
C750 C 0.1035 0.44431 0.09763 0.0
C751 C 0.09041 0.4644 0.17409 0.0
C752 C 0.01283 0.44683 0.16344 0.0
H753 H 0.9915 0.54502 0.31216 0.0
H754 H 0.01885 0.51962 0.29132 0.0
H755 H 0.97616 0.45444 0.16168 0.0
H756 H 0.06659 0.40871 0.0559 0.0
H757 H 0.02895 0.40793 0.11566 0.0
H758 H 0.05943 0.46153 0.2698 0.0
C759 C 0.99525 0.5083 0.28373 0.0
C760 C 0.99378 0.45541 0.18626 0.0
C761 C 0.97958 0.52295 0.29538 0.0
C762 C 0.07351 0.42374 0.08979 0.0
C763 C 0.052 0.42367 0.12354 0.0
C764 C 0.0412 0.45964 0.2459 0.0
C765 C 0.98105 0.48031 0.25912 0.0
C766 C 0.99871 0.4671 0.23856 0.0
C767 C 0.06008 0.44492 0.16464 0.0
C768 C 0.03727 0.44951 0.19241 0.0
H769 H 0.91141 0.47036 0.25159 0.0
H770 H 0.93876 0.44485 0.23121 0.0
H771 H 0.02635 0.47701 0.30929 0.0
H772 H 0.13489 0.48072 0.14651 0.0
H773 H 0.0976 0.48136 0.20466 0.0
C774 C 0.55552 0.03307 0.20803 0.0
C775 C 0.56899 0.05982 0.23652 0.0
C776 C 0.52484 0.01585 0.20562 0.0
C777 C 0.45843 0.01995 0.20101 0.0
H778 H 0.42208 0.93481 0.21424 0.0
C779 C 0.3486 0.90138 0.13567 0.0
C780 C 0.34773 0.90843 0.0816 0.0
C781 C 0.36898 0.92261 0.17097 0.0
C782 C 0.43137 0.95853 0.21156 0.0
H783 H 0.56106 0.08963 0.28516 0.0
H784 H 0.50665 0.05958 0.27942 0.0
H785 H 0.47174 0.96634 0.24838 0.0
H786 H 0.36627 0.94333 0.02219 0.0
H787 H 0.4024 0.98032 0.08306 0.0
H788 H 0.4185 0.01199 0.16151 0.0
C789 C 0.52014 0.05189 0.25982 0.0
C790 C 0.46002 0.97658 0.23081 0.0
C791 C 0.55112 0.06894 0.26328 0.0
C792 C 0.36639 0.93749 0.06399 0.0
C793 C 0.38691 0.95873 0.09909 0.0
C794 C 0.42966 1.00181 0.18149 0.0
C795 C 0.5068 0.02517 0.23089 0.0
C796 C 0.47431 0.00733 0.22355 0.0
C797 C 0.3894 0.95115 0.15241 0.0
C798 C 0.41631 0.9708 0.18444 0.0
H799 H 0.56876 0.0255 0.18708 0.0
H800 H 0.51518 0.99559 0.1824 0.0
H801 H 0.469 0.04362 0.19488 0.0
H802 H 0.33542 0.87895 0.14966 0.0
H803 H 0.37008 0.91607 0.21187 0.0
C804 C 0.51988 0.45551 0.26773 0.0
C805 C 0.50823 0.43704 0.22252 0.0
C806 C 0.53474 0.4864 0.2618 0.0
C807 C 0.57016 0.54534 0.15762 0.0
H808 H 0.54583 0.58997 0.24785 0.0
C809 C 0.54524 0.64522 0.12699 0.0
C810 C 0.56706 0.6614 0.08858 0.0
C811 C 0.54686 0.62373 0.15807 0.0
C812 C 0.55293 0.57789 0.22224 0.0
H813 H 0.50372 0.43658 0.13565 0.0
H814 H 0.52891 0.48963 0.12559 0.0
H815 H 0.53136 0.53916 0.27184 0.0
H816 H 0.60797 0.66869 0.05306 0.0
H817 H 0.61243 0.63313 0.11033 0.0
H818 H 0.58941 0.58257 0.10542 0.0
C819 C 0.52711 0.48062 0.16556 0.0
C820 C 0.54494 0.54884 0.23647 0.0
C821 C 0.51229 0.45003 0.17146 0.0
C822 C 0.59148 0.6572 0.08392 0.0
C823 C 0.59357 0.63626 0.11593 0.0
C824 C 0.57779 0.57411 0.14305 0.0
C825 C 0.53844 0.49927 0.21052 0.0
C826 C 0.55233 0.53181 0.2029 0.0
C827 C 0.57043 0.61804 0.15134 0.0
C828 C 0.56821 0.59041 0.17387 0.0
H829 H 0.51721 0.44613 0.30759 0.0
H830 H 0.54328 0.50018 0.29722 0.0
H831 H 0.57686 0.53307 0.13158 0.0
H832 H 0.52586 0.64772 0.13027 0.0
H833 H 0.52836 0.61009 0.18411 0.0
loop_
_geom_bond_atom_site_label_1
_geom_bond_atom_site_label_2
_geom_bond_distance
_geom_bond_site_symmetry_2
_ccdc_geom_bond_type
Zn0 N4 2.020 . S
Zn0 O8 2.019 1_554 S
Zn0 N10 2.119 1_554 S
Zn0 O18 1.975 . S
C1 N2 1.334 . S
C1 N5 1.336 . S
N2 C1 1.334 . S
N2 C3 1.334 . S
C3 N2 1.334 . S
C3 N4 1.336 . S
N4 Zn0 2.020 . S
N4 C3 1.336 . S
N4 N5 1.354 . S
N5 C1 1.336 . S
N5 N4 1.354 . S
N5 Zn9 2.020 . S
C6 O7 1.244 . S
C6 O30 1.257 . S
O7 C6 1.244 . S
O8 Zn0 2.019 1_556 S
O8 C28 1.257 1_556 S
Zn9 N5 2.020 . S
Zn9 O16 1.975 . S
Zn9 N25 2.119 . S
Zn9 O30 2.019 . S
N10 Zn0 2.119 1_556 S
N10 C12 1.334 . S
N10 C13 1.328 . S
C11 C12 1.391 . S
C11 N14 1.329 . S
C11 H32 0.930 . S
C12 N10 1.334 . S
C12 C11 1.391 . S
C12 H19 0.930 . S
C13 N10 1.328 . S
C13 C15 1.392 . S
C13 H20 0.930 . S
N14 C11 1.329 . S
N14 C15 1.331 . S
C15 C13 1.392 . S
C15 N14 1.331 . S
O16 Zn9 1.975 . S
O16 C17 1.252 . S
C17 O16 1.252 . S
C17 O18 1.252 . S
O18 Zn0 1.975 . S
O18 C17 1.252 . S
H19 C12 0.930 . S
H20 C13 0.930 . S
C21 C22 1.392 . S
C21 N25 1.328 . S
C21 H27 0.930 . S
C22 C21 1.392 . S
C22 N26 1.331 . S
C23 C24 1.391 . S
C23 N26 1.329 . S
C23 H33 0.930 . S
C24 C23 1.391 . S
C24 N25 1.334 . S
C24 H31 0.930 . S
N25 Zn9 2.119 . S
N25 C21 1.328 . S
N25 C24 1.334 . S
N26 C22 1.331 . S
N26 C23 1.329 . S
H27 C21 0.930 . S
C28 O8 1.257 1_554 S
C28 O29 1.244 . S
O29 C28 1.244 . S
O30 C6 1.257 . S
O30 Zn9 2.019 . S
H31 C24 0.930 . S
H32 C11 0.930 . S
H33 C23 0.930 . S
Zn34 N38 2.020 . S
Zn34 O42 2.019 . S
Zn34 N44 2.119 . S
Zn34 O52 1.975 . S
C35 N36 1.334 . S
C35 N39 1.336 . S
N36 C35 1.334 . S
N36 C37 1.334 . S
C37 N36 1.334 . S
C37 N38 1.336 . S
N38 Zn34 2.020 . S
N38 C37 1.336 . S
N38 N39 1.354 . S
N39 C35 1.336 . S
N39 N38 1.354 . S
N39 Zn43 2.020 . S
C40 O41 1.244 . S
C40 O64 1.257 . S
O41 C40 1.244 . S
O42 Zn34 2.019 . S
O42 C62 1.257 . S
Zn43 N39 2.020 . S
Zn43 O50 1.975 . S
Zn43 N59 2.119 . S
Zn43 O64 2.019 . S
N44 Zn34 2.119 . S
N44 C46 1.334 . S
N44 C47 1.328 . S
C45 C46 1.391 . S
C45 N48 1.329 . S
C45 H66 0.930 . S
C46 N44 1.334 . S
C46 C45 1.391 . S
C46 H53 0.930 . S
C47 N44 1.328 . S
C47 C49 1.392 . S
C47 H54 0.930 . S
N48 C45 1.329 . S
N48 C49 1.331 . S
C49 C47 1.392 . S
C49 N48 1.331 . S
O50 Zn43 1.975 . S
O50 C51 1.252 . S
C51 O50 1.252 . S
C51 O52 1.252 . S
O52 Zn34 1.975 . S
O52 C51 1.252 . S
H53 C46 0.930 . S
H54 C47 0.930 . S
C55 C56 1.392 1_554 S
C55 N59 1.328 . S
C55 H61 0.930 . S
C56 C55 1.392 1_556 S
C56 N60 1.331 . S
C57 C58 1.391 . S
C57 N60 1.329 1_554 S
C57 H67 0.930 1_554 S
C58 C57 1.391 . S
C58 N59 1.334 . S
C58 H65 0.930 . S
N59 Zn43 2.119 . S
N59 C55 1.328 . S
N59 C58 1.334 . S
N60 C56 1.331 . S
N60 C57 1.329 1_556 S
H61 C55 0.930 . S
C62 O42 1.257 . S
C62 O63 1.244 . S
O63 C62 1.244 . S
O64 C40 1.257 . S
O64 Zn43 2.019 . S
H65 C58 0.930 . S
H66 C45 0.930 . S
H67 C57 0.930 1_556 S
Zn68 N72 2.020 . S
Zn68 O76 2.019 . S
Zn68 N78 2.119 . S
Zn68 O86 1.975 . S
C69 N70 1.334 . S
C69 N73 1.336 . S
N70 C69 1.334 . S
N70 C71 1.334 . S
C71 N70 1.334 . S
C71 N72 1.336 . S
N72 Zn68 2.020 . S
N72 C71 1.336 . S
N72 N73 1.354 . S
N73 C69 1.336 . S
N73 N72 1.354 . S
N73 Zn77 2.020 . S
C74 O75 1.244 . S
C74 O98 1.257 1_554 S
O75 C74 1.244 . S
O76 Zn68 2.019 . S
O76 C96 1.257 . S
Zn77 N73 2.020 . S
Zn77 O84 1.975 . S
Zn77 N93 2.119 1_554 S
Zn77 O98 2.019 1_554 S
N78 Zn68 2.119 . S
N78 C80 1.334 . S
N78 C81 1.328 . S
C79 C80 1.391 . S
C79 N82 1.329 . S
C79 H100 0.930 . S
C80 N78 1.334 . S
C80 C79 1.391 . S
C80 H87 0.930 . S
C81 N78 1.328 . S
C81 C83 1.392 . S
C81 H88 0.930 . S
N82 C79 1.329 . S
N82 C83 1.331 . S
C83 C81 1.392 . S
C83 N82 1.331 . S
O84 Zn77 1.975 . S
O84 C85 1.252 . S
C85 O84 1.252 . S
C85 O86 1.252 . S
O86 Zn68 1.975 . S
O86 C85 1.252 . S
H87 C80 0.930 . S
H88 C81 0.930 . S
C89 C90 1.392 . S
C89 N93 1.328 . S
C89 H95 0.930 . S
C90 C89 1.392 . S
C90 N94 1.331 . S
C91 C92 1.391 . S
C91 N94 1.329 . S
C91 H101 0.930 . S
C92 C91 1.391 . S
C92 N93 1.334 . S
C92 H99 0.930 . S
N93 Zn77 2.119 1_556 S
N93 C89 1.328 . S
N93 C92 1.334 . S
N94 C90 1.331 . S
N94 C91 1.329 . S
H95 C89 0.930 . S
C96 O76 1.257 . S
C96 O97 1.244 . S
O97 C96 1.244 . S
O98 C74 1.257 1_556 S
O98 Zn77 2.019 1_556 S
H99 C92 0.930 . S
H100 C79 0.930 . S
H101 C91 0.930 . S
Zn102 N106 2.020 . S
Zn102 O110 2.019 . S
Zn102 N112 2.119 . S
Zn102 O120 1.975 . S
C103 N104 1.334 . S
C103 N107 1.336 . S
N104 C103 1.334 . S
N104 C105 1.334 . S
C105 N104 1.334 . S
C105 N106 1.336 . S
N106 Zn102 2.020 . S
N106 C105 1.336 . S
N106 N107 1.354 . S
N107 C103 1.336 . S
N107 N106 1.354 . S
N107 Zn111 2.020 . S
C108 O109 1.244 . S
C108 O132 1.257 . S
O109 C108 1.244 . S
O110 Zn102 2.019 . S
O110 C130 1.257 . S
Zn111 N107 2.020 . S
Zn111 O118 1.975 . S
Zn111 N127 2.119 . S
Zn111 O132 2.019 . S
N112 Zn102 2.119 . S
N112 C114 1.334 . S
N112 C115 1.328 . S
C113 C114 1.391 . S
C113 N116 1.329 . S
C113 H134 0.930 . S
C114 N112 1.334 . S
C114 C113 1.391 . S
C114 H121 0.930 . S
C115 N112 1.328 . S
C115 C117 1.392 . S
C115 H122 0.930 . S
N116 C113 1.329 . S
N116 C117 1.331 . S
C117 C115 1.392 . S
C117 N116 1.331 . S
O118 Zn111 1.975 . S
O118 C119 1.252 . S
C119 O118 1.252 . S
C119 O120 1.252 . S
O120 Zn102 1.975 . S
O120 C119 1.252 . S
H121 C114 0.930 . S
H122 C115 0.930 . S
C123 C124 1.392 1_554 S
C123 N127 1.328 . S
C123 H129 0.930 . S
C124 C123 1.392 1_556 S
C124 N128 1.331 . S
C125 C126 1.391 . S
C125 N128 1.329 1_554 S
C125 H135 0.930 1_554 S
C126 C125 1.391 . S
C126 N127 1.334 . S
C126 H133 0.930 . S
N127 Zn111 2.119 . S
N127 C123 1.328 . S
N127 C126 1.334 . S
N128 C124 1.331 . S
N128 C125 1.329 1_556 S
H129 C123 0.930 . S
C130 O110 1.257 . S
C130 O131 1.244 . S
O131 C130 1.244 . S
O132 C108 1.257 . S
O132 Zn111 2.019 . S
H133 C126 0.930 . S
H134 C113 0.930 . S
H135 C125 0.930 1_556 S
Zn136 N140 2.020 . S
Zn136 O144 2.019 . S
Zn136 N146 2.119 . S
Zn136 O154 1.975 . S
C137 N138 1.334 . S
C137 N141 1.336 . S
N138 C137 1.334 . S
N138 C139 1.334 . S
C139 N138 1.334 . S
C139 N140 1.336 . S
N140 Zn136 2.020 . S
N140 C139 1.336 . S
N140 N141 1.354 . S
N141 C137 1.336 . S
N141 N140 1.354 . S
N141 Zn145 2.020 . S
C142 O143 1.244 . S
C142 O166 1.257 1_554 S
O143 C142 1.244 . S
O144 Zn136 2.019 . S
O144 C164 1.257 . S
Zn145 N141 2.020 . S
Zn145 O152 1.975 . S
Zn145 N161 2.119 1_554 S
Zn145 O166 2.019 1_554 S
N146 Zn136 2.119 . S
N146 C148 1.334 . S
N146 C149 1.328 . S
C147 C148 1.391 . S
C147 N150 1.329 . S
C147 H168 0.930 . S
C148 N146 1.334 . S
C148 C147 1.391 . S
C148 H155 0.930 . S
C149 N146 1.328 . S
C149 C151 1.392 . S
C149 H156 0.930 . S
N150 C147 1.329 . S
N150 C151 1.331 . S
C151 C149 1.392 . S
C151 N150 1.331 . S
O152 Zn145 1.975 . S
O152 C153 1.252 . S
C153 O152 1.252 . S
C153 O154 1.252 . S
O154 Zn136 1.975 . S
O154 C153 1.252 . S
H155 C148 0.930 . S
H156 C149 0.930 . S
C157 C158 1.392 . S
C157 N161 1.328 . S
C157 H163 0.930 . S
C158 C157 1.392 . S
C158 N162 1.331 . S
C159 C160 1.391 . S
C159 N162 1.329 . S
C159 H169 0.930 . S
C160 C159 1.391 . S
C160 N161 1.334 . S
C160 H167 0.930 . S
N161 Zn145 2.119 1_556 S
N161 C157 1.328 . S
N161 C160 1.334 . S
N162 C158 1.331 . S
N162 C159 1.329 . S
H163 C157 0.930 . S
C164 O144 1.257 . S
C164 O165 1.244 . S
O165 C164 1.244 . S
O166 C142 1.257 1_556 S
O166 Zn145 2.019 1_556 S
H167 C160 0.930 . S
H168 C147 0.930 . S
H169 C159 0.930 . S
Zn170 N174 2.020 . S
Zn170 O178 2.019 . S
Zn170 N180 2.119 . S
Zn170 O188 1.975 . S
C171 N172 1.334 . S
C171 N175 1.336 . S
N172 C171 1.334 . S
N172 C173 1.334 . S
C173 N172 1.334 . S
C173 N174 1.336 . S
N174 Zn170 2.020 . S
N174 C173 1.336 . S
N174 N175 1.354 . S
N175 C171 1.336 . S
N175 N174 1.354 . S
N175 Zn179 2.020 . S
C176 O177 1.244 . S
C176 O200 1.257 . S
O177 C176 1.244 . S
O178 Zn170 2.019 . S
O178 C198 1.257 . S
Zn179 N175 2.020 . S
Zn179 O186 1.975 . S
Zn179 N195 2.119 . S
Zn179 O200 2.019 . S
N180 Zn170 2.119 . S
N180 C182 1.334 . S
N180 C183 1.328 . S
C181 C182 1.391 . S
C181 N184 1.329 1_554 S
C181 H202 0.930 1_554 S
C182 N180 1.334 . S
C182 C181 1.391 . S
C182 H189 0.930 . S
C183 N180 1.328 . S
C183 C185 1.392 1_554 S
C183 H190 0.930 . S
N184 C181 1.329 1_556 S
N184 C185 1.331 . S
C185 C183 1.392 1_556 S
C185 N184 1.331 . S
O186 Zn179 1.975 . S
O186 C187 1.252 . S
C187 O186 1.252 . S
C187 O188 1.252 . S
O188 Zn170 1.975 . S
O188 C187 1.252 . S
H189 C182 0.930 . S
H190 C183 0.930 . S
C191 C192 1.392 . S
C191 N195 1.328 . S
C191 H197 0.930 . S
C192 C191 1.392 . S
C192 N196 1.331 . S
C193 C194 1.391 . S
C193 N196 1.329 . S
C193 H203 0.930 . S
C194 C193 1.391 . S
C194 N195 1.334 . S
C194 H201 0.930 . S
N195 Zn179 2.119 . S
N195 C191 1.328 . S
N195 C194 1.334 . S
N196 C192 1.331 . S
N196 C193 1.329 . S
H197 C191 0.930 . S
C198 O178 1.257 . S
C198 O199 1.244 . S
O199 C198 1.244 . S
O200 C176 1.257 . S
O200 Zn179 2.019 . S
H201 C194 0.930 . S
H202 C181 0.930 1_556 S
H203 C193 0.930 . S
C204 C205 1.349 . S
C204 C206 1.327 . S
C204 H229 0.950 . S
C205 C204 1.349 . S
C205 C221 1.349 . S
C206 C204 1.327 . S
C206 C225 1.429 . S
C206 H230 0.950 . S
C207 C224 1.574 . S
C207 C226 1.368 . S
C207 H231 0.949 . S
H208 C212 0.949 . S
C209 C210 1.349 . S
C209 C211 1.327 . S
C209 H232 0.950 1_554 S
C210 C209 1.349 . S
C210 C222 1.349 . S
C211 C209 1.327 . S
C211 C227 1.429 . S
C211 H233 0.950 . S
C212 H208 0.949 . S
C212 C220 1.574 . S
C212 C228 1.368 . S
H213 C221 0.950 . S
H214 C219 0.950 . S
H215 C220 0.949 . S
H216 C222 0.950 . S
H217 C223 0.950 . S
H218 C224 0.949 . S
C219 H214 0.950 . S
C219 C221 1.327 . S
C219 C225 1.429 . S
C220 C212 1.574 . S
C220 H215 0.949 . S
C220 C226 1.368 . S
C221 C205 1.349 . S
C221 H213 0.950 . S
C221 C219 1.327 . S
C222 C210 1.349 . S
C222 H216 0.950 . S
C222 C223 1.327 . S
C223 H217 0.950 . S
C223 C222 1.327 . S
C223 C227 1.429 . S
C224 C207 1.574 . S
C224 H218 0.949 . S
C224 C228 1.368 . S
C225 C206 1.429 . S
C225 C219 1.429 . S
C225 C226 1.523 . S
C226 C207 1.368 . S
C226 C220 1.368 . S
C226 C225 1.523 . S
C227 C211 1.429 . S
C227 C223 1.429 . S
C227 C228 1.523 . S
C228 C212 1.368 . S
C228 C224 1.368 . S
C228 C227 1.523 . S
H229 C204 0.950 . S
H230 C206 0.950 . S
H231 C207 0.949 . S
H232 C209 0.950 1_556 S
H233 C211 0.950 . S
C234 C235 1.349 . S
C234 C236 1.327 . S
C234 H259 0.950 . S
C235 C234 1.349 . S
C235 C251 1.349 . S
C236 C234 1.327 . S
C236 C255 1.429 1_455 S
C236 H260 0.950 . S
C237 C254 1.574 . S
C237 C256 1.368 . S
C237 H261 0.949 . S
H238 C242 0.949 . S
C239 C240 1.349 . S
C239 C241 1.327 . S
C239 H262 0.950 . S
C240 C239 1.349 . S
C240 C252 1.349 . S
C241 C239 1.327 . S
C241 C257 1.429 . S
C241 H263 0.950 . S
C242 H238 0.949 . S
C242 C250 1.574 . S
C242 C258 1.368 . S
H243 C251 0.950 . S
H244 C249 0.950 1_655 S
H245 C250 0.949 . S
H246 C252 0.950 . S
H247 C253 0.950 . S
H248 C254 0.949 . S
C249 H244 0.950 1_455 S
C249 C251 1.327 . S
C249 C255 1.429 1_455 S
C250 C242 1.574 . S
C250 H245 0.949 . S
C250 C256 1.368 . S
C251 C235 1.349 . S
C251 H243 0.950 . S
C251 C249 1.327 . S
C252 C240 1.349 . S
C252 H246 0.950 . S
C252 C253 1.327 . S
C253 H247 0.950 . S
C253 C252 1.327 . S
C253 C257 1.429 . S
C254 C237 1.574 . S
C254 H248 0.949 . S
C254 C258 1.368 . S
C255 C236 1.429 1_655 S
C255 C249 1.429 1_655 S
C255 C256 1.523 . S
C256 C237 1.368 . S
C256 C250 1.368 . S
C256 C255 1.523 . S
C257 C241 1.429 . S
C257 C253 1.429 . S
C257 C258 1.523 . S
C258 C242 1.368 . S
C258 C254 1.368 . S
C258 C257 1.523 . S
H259 C234 0.950 . S
H260 C236 0.950 . S
H261 C237 0.949 . S
H262 C239 0.950 . S
H263 C241 0.950 . S
C264 C265 1.349 . S
C264 C266 1.327 . S
C264 H289 0.950 . S
C265 C264 1.349 . S
C265 C281 1.349 . S
C266 C264 1.327 . S
C266 C285 1.429 . S
C266 H290 0.950 . S
C267 C284 1.574 . S
C267 C286 1.368 . S
C267 H291 0.949 . S
H268 C272 0.949 . S
C269 C270 1.349 . S
C269 C271 1.327 . S
C269 H292 0.950 . S
C270 C269 1.349 . S
C270 C282 1.349 . S
C271 C269 1.327 . S
C271 C287 1.422 1_545 S
C271 H293 0.950 . S
C272 H268 0.949 . S
C272 C280 1.574 . S
C272 C288 1.368 . S
H273 C281 0.950 . S
H274 C279 0.950 . S
H275 C280 0.949 . S
H276 C282 0.950 . S
H277 C283 0.950 . S
H278 C284 0.949 . S
C279 H274 0.950 . S
C279 C281 1.327 . S
C279 C285 1.429 . S
C280 C272 1.574 . S
C280 H275 0.949 . S
C280 C286 1.368 . S
C281 C265 1.349 . S
C281 H273 0.950 . S
C281 C279 1.327 . S
C282 C270 1.349 . S
C282 H276 0.950 . S
C282 C283 1.327 . S
C283 H277 0.950 . S
C283 C282 1.327 . S
C283 C287 1.405 1_545 S
C284 C267 1.574 . S
C284 H278 0.949 . S
C284 C288 1.368 . S
C285 C266 1.429 . S
C285 C279 1.429 . S
C285 C286 1.523 . S
C286 C267 1.368 . S
C286 C280 1.368 . S
C286 C285 1.523 . S
C287 C271 1.422 1_565 S
C287 C283 1.405 1_565 S
C287 C288 1.552 . S
C288 C272 1.368 . S
C288 C284 1.368 . S
C288 C287 1.552 . S
H289 C264 0.950 . S
H290 C266 0.950 . S
H291 C267 0.949 . S
H292 C269 0.950 . S
H293 C271 0.950 . S
C294 C295 1.349 . S
C294 C296 1.327 . S
C294 H319 0.950 . S
C295 C294 1.349 . S
C295 C311 1.349 . S
C296 C294 1.327 . S
C296 C315 1.429 . S
C296 H320 0.950 . S
C297 C314 1.574 . S
C297 C316 1.368 . S
C297 H321 0.949 . S
H298 C302 0.949 . S
C299 C300 1.349 . S
C299 C301 1.327 . S
C299 H322 0.950 . S
C300 C299 1.349 . S
C300 C312 1.349 . S
C301 C299 1.327 . S
C301 C317 1.429 . S
C301 H323 0.950 . S
C302 H298 0.949 . S
C302 C310 1.574 . S
C302 C318 1.368 . S
H303 C311 0.950 . S
H304 C309 0.950 . S
H305 C310 0.949 . S
H306 C312 0.950 . S
H307 C313 0.950 . S
H308 C314 0.949 . S
C309 H304 0.950 . S
C309 C311 1.327 . S
C309 C315 1.429 . S
C310 C302 1.574 . S
C310 H305 0.949 . S
C310 C316 1.368 . S
C311 C295 1.349 . S
C311 H303 0.950 . S
C311 C309 1.327 . S
C312 C300 1.349 . S
C312 H306 0.950 . S
C312 C313 1.327 . S
C313 H307 0.950 . S
C313 C312 1.327 . S
C313 C317 1.429 . S
C314 C297 1.574 . S
C314 H308 0.949 . S
C314 C318 1.368 . S
C315 C296 1.429 . S
C315 C309 1.429 . S
C315 C316 1.523 . S
C316 C297 1.368 . S
C316 C310 1.368 . S
C316 C315 1.523 . S
C317 C301 1.429 . S
C317 C313 1.429 . S
C317 C318 1.523 . S
C318 C302 1.368 . S
C318 C314 1.368 . S
C318 C317 1.523 . S
H319 C294 0.950 . S
H320 C296 0.950 . S
H321 C297 0.949 . S
H322 C299 0.950 . S
H323 C301 0.950 . S
C324 C325 1.349 . S
C324 C326 1.327 . S
C324 H349 0.950 1_554 S
C325 C324 1.349 . S
C325 C341 1.349 . S
C326 C324 1.327 . S
C326 C345 1.429 . S
C326 H350 0.950 . S
C327 C344 1.574 . S
C327 C346 1.368 . S
C327 H351 0.949 . S
H328 C332 0.949 . S
C329 C330 1.349 . S
C329 C331 1.327 . S
C329 H352 0.950 . S
C330 C329 1.349 . S
C330 C342 1.349 . S
C331 C329 1.327 . S
C331 C347 1.429 1_655 S
C331 H353 0.950 1_655 S
C332 H328 0.949 . S
C332 C340 1.574 . S
C332 C348 1.368 . S
H333 C341 0.950 . S
H334 C339 0.950 . S
H335 C340 0.949 . S
H336 C342 0.950 . S
H337 C343 0.950 . S
H338 C344 0.949 . S
C339 H334 0.950 . S
C339 C341 1.327 . S
C339 C345 1.429 . S
C340 C332 1.574 . S
C340 H335 0.949 . S
C340 C346 1.368 . S
C341 C325 1.349 . S
C341 H333 0.950 . S
C341 C339 1.327 . S
C342 C330 1.349 . S
C342 H336 0.950 . S
C342 C343 1.327 . S
C343 H337 0.950 . S
C343 C342 1.327 . S
C343 C347 1.406 1_655 S
C344 C327 1.574 . S
C344 H338 0.949 . S
C344 C348 1.368 . S
C345 C326 1.429 . S
C345 C339 1.429 . S
C345 C346 1.523 . S
C346 C327 1.368 . S
C346 C340 1.368 . S
C346 C345 1.523 . S
C347 C331 1.429 1_455 S
C347 C343 1.406 1_455 S
C347 C348 1.543 . S
C348 C332 1.368 . S
C348 C344 1.368 . S
C348 C347 1.543 . S
H349 C324 0.950 1_556 S
H350 C326 0.950 . S
H351 C327 0.949 . S
H352 C329 0.950 . S
H353 C331 0.950 1_455 S
C354 C355 1.349 . S
C354 C356 1.327 . S
C354 H379 0.950 . S
C355 C354 1.349 . S
C355 C371 1.349 . S
C356 C354 1.327 . S
C356 C375 1.429 1_565 S
C356 H380 0.950 1_565 S
C357 C374 1.574 . S
C357 C376 1.368 . S
C357 H381 0.949 . S
H358 C362 0.949 . S
C359 C360 1.349 . S
C359 C361 1.327 . S
C359 H382 0.950 . S
C360 C359 1.349 . S
C360 C372 1.349 . S
C361 C359 1.327 . S
C361 C377 1.429 . S
C361 H383 0.950 . S
C362 H358 0.949 . S
C362 C370 1.574 . S
C362 C378 1.368 . S
H363 C371 0.950 . S
H364 C369 0.950 . S
H365 C370 0.949 . S
H366 C372 0.950 . S
H367 C373 0.950 . S
H368 C374 0.949 . S
C369 H364 0.950 . S
C369 C371 1.327 . S
C369 C375 1.429 1_565 S
C370 C362 1.574 . S
C370 H365 0.949 . S
C370 C376 1.368 . S
C371 C355 1.349 . S
C371 H363 0.950 . S
C371 C369 1.327 . S
C372 C360 1.349 . S
C372 H366 0.950 . S
C372 C373 1.327 . S
C373 H367 0.950 . S
C373 C372 1.327 . S
C373 C377 1.429 . S
C374 C357 1.574 . S
C374 H368 0.949 . S
C374 C378 1.368 . S
C375 C356 1.429 1_545 S
C375 C369 1.429 1_545 S
C375 C376 1.523 . S
C376 C357 1.368 . S
C376 C370 1.368 . S
C376 C375 1.523 . S
C377 C361 1.429 . S
C377 C373 1.429 . S
C377 C378 1.523 . S
C378 C362 1.368 . S
C378 C374 1.368 . S
C378 C377 1.523 . S
H379 C354 0.950 . S
H380 C356 0.950 1_545 S
H381 C357 0.949 . S
H382 C359 0.950 . S
H383 C361 0.950 . S
C384 C385 1.349 . S
C384 C386 1.327 . S
C384 H409 0.950 . S
C385 C384 1.349 . S
C385 C401 1.349 . S
C386 C384 1.327 . S
C386 C405 1.429 . S
C386 H410 0.950 . S
C387 C404 1.574 . S
C387 C406 1.368 . S
C387 H411 0.949 . S
H388 C392 0.949 . S
C389 C390 1.349 . S
C389 C391 1.327 . S
C389 H412 0.950 . S
C390 C389 1.349 . S
C390 C402 1.349 . S
C391 C389 1.327 . S
C391 C407 1.429 . S
C391 H413 0.950 . S
C392 H388 0.949 . S
C392 C400 1.574 . S
C392 C408 1.368 . S
H393 C401 0.950 . S
H394 C399 0.950 . S
H395 C400 0.949 . S
H396 C402 0.950 . S
H397 C403 0.950 . S
H398 C404 0.949 . S
C399 H394 0.950 . S
C399 C401 1.327 . S
C399 C405 1.429 . S
C400 C392 1.574 . S
C400 H395 0.949 . S
C400 C406 1.368 . S
C401 C385 1.349 . S
C401 H393 0.950 . S
C401 C399 1.327 . S
C402 C390 1.349 . S
C402 H396 0.950 . S
C402 C403 1.327 . S
C403 H397 0.950 . S
C403 C402 1.327 . S
C403 C407 1.429 . S
C404 C387 1.574 . S
C404 H398 0.949 . S
C404 C408 1.368 . S
C405 C386 1.429 . S
C405 C399 1.429 . S
C405 C406 1.523 . S
C406 C387 1.368 . S
C406 C400 1.368 . S
C406 C405 1.523 . S
C407 C391 1.429 . S
C407 C403 1.429 . S
C407 C408 1.523 . S
C408 C392 1.368 . S
C408 C404 1.368 . S
C408 C407 1.523 . S
H409 C384 0.950 . S
H410 C386 0.950 . S
H411 C387 0.949 . S
H412 C389 0.950 . S
H413 C391 0.950 . S
C414 C415 1.349 . S
C414 C416 1.327 . S
C414 H439 0.950 . S
C415 C414 1.349 . S
C415 C431 1.349 . S
C416 C414 1.327 . S
C416 C435 1.429 . S
C416 H440 0.950 . S
C417 C434 1.574 . S
C417 C436 1.368 . S
C417 H441 0.949 . S
H418 C422 0.949 . S
C419 C420 1.349 . S
C419 C421 1.327 . S
C419 H442 0.950 . S
C420 C419 1.349 . S
C420 C432 1.349 . S
C421 C419 1.327 . S
C421 C437 1.429 . S
C421 H443 0.950 . S
C422 H418 0.949 . S
C422 C430 1.574 . S
C422 C438 1.368 . S
H423 C431 0.950 . S
H424 C429 0.950 . S
H425 C430 0.949 . S
H426 C432 0.950 . S
H427 C433 0.950 . S
H428 C434 0.949 . S
C429 H424 0.950 . S
C429 C431 1.327 . S
C429 C435 1.429 . S
C430 C422 1.574 . S
C430 H425 0.949 . S
C430 C436 1.368 . S
C431 C415 1.349 . S
C431 H423 0.950 . S
C431 C429 1.327 . S
C432 C420 1.349 . S
C432 H426 0.950 . S
C432 C433 1.327 . S
C433 H427 0.950 . S
C433 C432 1.327 . S
C433 C437 1.429 . S
C434 C417 1.574 . S
C434 H428 0.949 . S
C434 C438 1.368 . S
C435 C416 1.429 . S
C435 C429 1.429 . S
C435 C436 1.523 . S
C436 C417 1.368 . S
C436 C430 1.368 . S
C436 C435 1.523 . S
C437 C421 1.429 . S
C437 C433 1.429 . S
C437 C438 1.523 . S
C438 C422 1.368 . S
C438 C434 1.368 . S
C438 C437 1.523 . S
H439 C414 0.950 . S
H440 C416 0.950 . S
H441 C417 0.949 . S
H442 C419 0.950 . S
H443 C421 0.950 . S
C444 C445 1.349 . S
C444 C446 1.327 . S
C444 H469 0.950 . S
C445 C444 1.349 . S
C445 C461 1.349 . S
C446 C444 1.327 . S
C446 C465 1.429 . S
C446 H470 0.950 . S
C447 C464 1.574 . S
C447 C466 1.368 . S
C447 H471 0.949 . S
H448 C452 0.949 . S
C449 C450 1.349 . S
C449 C451 1.327 . S
C449 H472 0.950 . S
C450 C449 1.349 . S
C450 C462 1.349 . S
C451 C449 1.327 . S
C451 C467 1.429 . S
C451 H473 0.950 . S
C452 H448 0.949 . S
C452 C460 1.574 . S
C452 C468 1.368 . S
H453 C461 0.950 . S
H454 C459 0.950 . S
H455 C460 0.949 . S
H456 C462 0.950 . S
H457 C463 0.950 . S
H458 C464 0.949 . S
C459 H454 0.950 . S
C459 C461 1.327 . S
C459 C465 1.429 . S
C460 C452 1.574 . S
C460 H455 0.949 . S
C460 C466 1.368 . S
C461 C445 1.349 . S
C461 H453 0.950 . S
C461 C459 1.327 . S
C462 C450 1.349 . S
C462 H456 0.950 . S
C462 C463 1.327 . S
C463 H457 0.950 . S
C463 C462 1.327 . S
C463 C467 1.429 . S
C464 C447 1.574 . S
C464 H458 0.949 . S
C464 C468 1.368 . S
C465 C446 1.429 . S
C465 C459 1.429 . S
C465 C466 1.523 . S
C466 C447 1.368 . S
C466 C460 1.368 . S
C466 C465 1.523 . S
C467 C451 1.429 . S
C467 C463 1.429 . S
C467 C468 1.523 . S
C468 C452 1.368 . S
C468 C464 1.368 . S
C468 C467 1.523 . S
H469 C444 0.950 . S
H470 C446 0.950 . S
H471 C447 0.949 . S
H472 C449 0.950 . S
H473 C451 0.950 . S
C474 C475 1.349 . S
C474 C476 1.327 . S
C474 H499 0.950 . S
C475 C474 1.349 . S
C475 C491 1.349 . S
C476 C474 1.327 . S
C476 C495 1.429 . S
C476 H500 0.950 . S
C477 C494 1.574 . S
C477 C496 1.368 . S
C477 H501 0.949 . S
H478 C482 0.949 . S
C479 C480 1.349 . S
C479 C481 1.327 . S
C479 H502 0.950 . S
C480 C479 1.349 . S
C480 C492 1.349 . S
C481 C479 1.327 . S
C481 C497 1.429 . S
C481 H503 0.950 . S
C482 H478 0.949 . S
C482 C490 1.574 . S
C482 C498 1.368 . S
H483 C491 0.950 . S
H484 C489 0.950 . S
H485 C490 0.949 . S
H486 C492 0.950 . S
H487 C493 0.950 . S
H488 C494 0.949 . S
C489 H484 0.950 . S
C489 C491 1.327 . S
C489 C495 1.429 . S
C490 C482 1.574 . S
C490 H485 0.949 . S
C490 C496 1.368 . S
C491 C475 1.349 . S
C491 H483 0.950 . S
C491 C489 1.327 . S
C492 C480 1.349 . S
C492 H486 0.950 . S
C492 C493 1.327 . S
C493 H487 0.950 . S
C493 C492 1.327 . S
C493 C497 1.429 . S
C494 C477 1.574 . S
C494 H488 0.949 . S
C494 C498 1.368 . S
C495 C476 1.429 . S
C495 C489 1.429 . S
C495 C496 1.523 . S
C496 C477 1.368 . S
C496 C490 1.368 . S
C496 C495 1.523 . S
C497 C481 1.429 . S
C497 C493 1.429 . S
C497 C498 1.523 . S
C498 C482 1.368 . S
C498 C494 1.368 . S
C498 C497 1.523 . S
H499 C474 0.950 . S
H500 C476 0.950 . S
H501 C477 0.949 . S
H502 C479 0.950 . S
H503 C481 0.950 . S
C504 C505 1.349 . S
C504 C506 1.327 . S
C504 H529 0.950 . S
C505 C504 1.349 . S
C505 C521 1.349 . S
C506 C504 1.327 . S
C506 C525 1.429 . S
C506 H530 0.950 . S
C507 C524 1.574 . S
C507 C526 1.368 . S
C507 H531 0.949 . S
H508 C512 0.949 . S
C509 C510 1.349 . S
C509 C511 1.327 . S
C509 H532 0.950 . S
C510 C509 1.349 . S
C510 C522 1.349 . S
C511 C509 1.327 . S
C511 C527 1.429 . S
C511 H533 0.950 . S
C512 H508 0.949 . S
C512 C520 1.574 . S
C512 C528 1.368 . S
H513 C521 0.950 . S
H514 C519 0.950 . S
H515 C520 0.949 . S
H516 C522 0.950 . S
H517 C523 0.950 . S
H518 C524 0.949 . S
C519 H514 0.950 . S
C519 C521 1.327 . S
C519 C525 1.429 . S
C520 C512 1.574 . S
C520 H515 0.949 . S
C520 C526 1.368 . S
C521 C505 1.349 . S
C521 H513 0.950 . S
C521 C519 1.327 . S
C522 C510 1.349 . S
C522 H516 0.950 . S
C522 C523 1.327 . S
C523 H517 0.950 . S
C523 C522 1.327 . S
C523 C527 1.429 . S
C524 C507 1.574 . S
C524 H518 0.949 . S
C524 C528 1.368 . S
C525 C506 1.429 . S
C525 C519 1.429 . S
C525 C526 1.523 . S
C526 C507 1.368 . S
C526 C520 1.368 . S
C526 C525 1.523 . S
C527 C511 1.429 . S
C527 C523 1.429 . S
C527 C528 1.523 . S
C528 C512 1.368 . S
C528 C524 1.368 . S
C528 C527 1.523 . S
H529 C504 0.950 . S
H530 C506 0.950 . S
H531 C507 0.949 . S
H532 C509 0.950 . S
H533 C511 0.950 . S
C534 C535 1.349 . S
C534 C536 1.327 . S
C534 H559 0.950 . S
C535 C534 1.349 . S
C535 C551 1.349 . S
C536 C534 1.327 . S
C536 C555 1.429 . S
C536 H560 0.950 . S
C537 C554 1.574 . S
C537 C556 1.368 . S
C537 H561 0.949 . S
H538 C542 0.949 . S
C539 C540 1.349 . S
C539 C541 1.327 . S
C539 H562 0.950 . S
C540 C539 1.349 . S
C540 C552 1.349 . S
C541 C539 1.327 . S
C541 C557 1.429 . S
C541 H563 0.950 . S
C542 H538 0.949 . S
C542 C550 1.574 . S
C542 C558 1.368 . S
H543 C551 0.950 . S
H544 C549 0.950 . S
H545 C550 0.949 . S
H546 C552 0.950 . S
H547 C553 0.950 . S
H548 C554 0.949 . S
C549 H544 0.950 . S
C549 C551 1.327 . S
C549 C555 1.429 . S
C550 C542 1.574 . S
C550 H545 0.949 . S
C550 C556 1.368 . S
C551 C535 1.349 . S
C551 H543 0.950 . S
C551 C549 1.327 . S
C552 C540 1.349 . S
C552 H546 0.950 . S
C552 C553 1.327 . S
C553 H547 0.950 . S
C553 C552 1.327 . S
C553 C557 1.429 . S
C554 C537 1.574 . S
C554 H548 0.949 . S
C554 C558 1.368 . S
C555 C536 1.429 . S
C555 C549 1.429 . S
C555 C556 1.523 . S
C556 C537 1.368 . S
C556 C550 1.368 . S
C556 C555 1.523 . S
C557 C541 1.429 . S
C557 C553 1.429 . S
C557 C558 1.523 . S
C558 C542 1.368 . S
C558 C554 1.368 . S
C558 C557 1.523 . S
H559 C534 0.950 . S
H560 C536 0.950 . S
H561 C537 0.949 . S
H562 C539 0.950 . S
H563 C541 0.950 . S
C564 C565 1.349 1_556 S
C564 C566 1.327 . S
C564 H589 0.950 . S
C565 C564 1.349 1_554 S
C565 C581 1.349 . S
C566 C564 1.327 . S
C566 C585 1.429 1_556 S
C566 H590 0.950 . S
C567 C584 1.574 . S
C567 C586 1.368 . S
C567 H591 0.949 . S
H568 C572 0.949 . S
C569 C570 1.349 . S
C569 C571 1.327 . S
C569 H592 0.950 . S
C570 C569 1.349 . S
C570 C582 1.349 1_554 S
C571 C569 1.327 . S
C571 C587 1.429 . S
C571 H593 0.950 . S
C572 H568 0.949 . S
C572 C580 1.574 . S
C572 C588 1.368 1_556 S
H573 C581 0.950 . S
H574 C579 0.950 . S
H575 C580 0.949 . S
H576 C582 0.950 . S
H577 C583 0.950 . S
H578 C584 0.949 . S
C579 H574 0.950 . S
C579 C581 1.327 . S
C579 C585 1.429 . S
C580 C572 1.574 . S
C580 H575 0.949 . S
C580 C586 1.368 1_556 S
C581 C565 1.349 . S
C581 H573 0.950 . S
C581 C579 1.327 . S
C582 C570 1.349 1_556 S
C582 H576 0.950 . S
C582 C583 1.327 . S
C583 H577 0.950 . S
C583 C582 1.327 . S
C583 C587 1.429 1_556 S
C584 C567 1.574 . S
C584 H578 0.949 . S
C584 C588 1.368 . S
C585 C566 1.429 1_554 S
C585 C579 1.429 . S
C585 C586 1.523 . S
C586 C567 1.368 . S
C586 C580 1.368 1_554 S
C586 C585 1.523 . S
C587 C571 1.429 . S
C587 C583 1.429 1_554 S
C587 C588 1.523 . S
C588 C572 1.368 1_554 S
C588 C584 1.368 . S
C588 C587 1.523 . S
H589 C564 0.950 . S
H590 C566 0.950 . S
H591 C567 0.949 . S
H592 C569 0.950 . S
H593 C571 0.950 . S
C594 C595 1.349 . S
C594 C596 1.327 . S
C594 H619 0.950 . S
C595 C594 1.349 . S
C595 C611 1.349 . S
C596 C594 1.327 . S
C596 C615 1.429 . S
C596 H620 0.950 . S
C597 C614 1.574 . S
C597 C616 1.368 . S
C597 H621 0.949 . S
H598 C602 0.949 . S
C599 C600 1.349 . S
C599 C601 1.327 . S
C599 H622 0.950 . S
C600 C599 1.349 . S
C600 C612 1.349 . S
C601 C599 1.327 . S
C601 C617 1.429 . S
C601 H623 0.950 . S
C602 H598 0.949 . S
C602 C610 1.574 . S
C602 C618 1.368 . S
H603 C611 0.950 . S
H604 C609 0.950 . S
H605 C610 0.949 . S
H606 C612 0.950 . S
H607 C613 0.950 . S
H608 C614 0.949 . S
C609 H604 0.950 . S
C609 C611 1.327 . S
C609 C615 1.429 . S
C610 C602 1.574 . S
C610 H605 0.949 . S
C610 C616 1.368 . S
C611 C595 1.349 . S
C611 H603 0.950 . S
C611 C609 1.327 . S
C612 C600 1.349 . S
C612 H606 0.950 . S
C612 C613 1.327 . S
C613 H607 0.950 . S
C613 C612 1.327 . S
C613 C617 1.429 . S
C614 C597 1.574 . S
C614 H608 0.949 . S
C614 C618 1.368 . S
C615 C596 1.429 . S
C615 C609 1.429 . S
C615 C616 1.523 . S
C616 C597 1.368 . S
C616 C610 1.368 . S
C616 C615 1.523 . S
C617 C601 1.429 . S
C617 C613 1.429 . S
C617 C618 1.523 . S
C618 C602 1.368 . S
C618 C614 1.368 . S
C618 C617 1.523 . S
H619 C594 0.950 . S
H620 C596 0.950 . S
H621 C597 0.949 . S
H622 C599 0.950 . S
H623 C601 0.950 . S
C624 C625 1.349 1_556 S
C624 C626 1.327 . S
C624 H649 0.950 . S
C625 C624 1.349 1_554 S
C625 C641 1.349 . S
C626 C624 1.327 . S
C626 C645 1.429 1_556 S
C626 H650 0.950 . S
C627 C644 1.574 . S
C627 C646 1.368 . S
C627 H651 0.949 . S
H628 C632 0.949 . S
C629 C630 1.349 . S
C629 C631 1.327 . S
C629 H652 0.950 . S
C630 C629 1.349 . S
C630 C642 1.349 1_554 S
C631 C629 1.327 . S
C631 C647 1.429 . S
C631 H653 0.950 . S
C632 H628 0.949 . S
C632 C640 1.574 . S
C632 C648 1.368 1_556 S
H633 C641 0.950 . S
H634 C639 0.950 . S
H635 C640 0.949 . S
H636 C642 0.950 . S
H637 C643 0.950 . S
H638 C644 0.949 . S
C639 H634 0.950 . S
C639 C641 1.327 . S
C639 C645 1.429 . S
C640 C632 1.574 . S
C640 H635 0.949 . S
C640 C646 1.368 1_556 S
C641 C625 1.349 . S
C641 H633 0.950 . S
C641 C639 1.327 . S
C642 C630 1.349 1_556 S
C642 H636 0.950 . S
C642 C643 1.327 . S
C643 H637 0.950 . S
C643 C642 1.327 . S
C643 C647 1.429 1_556 S
C644 C627 1.574 . S
C644 H638 0.949 . S
C644 C648 1.368 . S
C645 C626 1.429 1_554 S
C645 C639 1.429 . S
C645 C646 1.523 . S
C646 C627 1.368 . S
C646 C640 1.368 1_554 S
C646 C645 1.523 . S
C647 C631 1.429 . S
C647 C643 1.429 1_554 S
C647 C648 1.523 . S
C648 C632 1.368 1_554 S
C648 C644 1.368 . S
C648 C647 1.523 . S
H649 C624 0.950 . S
H650 C626 0.950 . S
H651 C627 0.949 . S
H652 C629 0.950 . S
H653 C631 0.950 . S
C654 C655 1.349 . S
C654 C656 1.327 . S
C654 H679 0.950 . S
C655 C654 1.349 . S
C655 C671 1.349 . S
C656 C654 1.327 . S
C656 C675 1.429 . S
C656 H680 0.950 . S
C657 C674 1.574 . S
C657 C676 1.368 . S
C657 H681 0.949 . S
H658 C662 0.949 . S
C659 C660 1.349 . S
C659 C661 1.327 . S
C659 H682 0.950 . S
C660 C659 1.349 . S
C660 C672 1.349 . S
C661 C659 1.327 . S
C661 C677 1.429 . S
C661 H683 0.950 . S
C662 H658 0.949 . S
C662 C670 1.574 . S
C662 C678 1.368 . S
H663 C671 0.950 . S
H664 C669 0.950 . S
H665 C670 0.949 . S
H666 C672 0.950 . S
H667 C673 0.950 . S
H668 C674 0.949 . S
C669 H664 0.950 . S
C669 C671 1.327 . S
C669 C675 1.429 . S
C670 C662 1.574 . S
C670 H665 0.949 . S
C670 C676 1.368 . S
C671 C655 1.349 . S
C671 H663 0.950 . S
C671 C669 1.327 . S
C672 C660 1.349 . S
C672 H666 0.950 . S
C672 C673 1.327 . S
C673 H667 0.950 . S
C673 C672 1.327 . S
C673 C677 1.429 . S
C674 C657 1.574 . S
C674 H668 0.949 . S
C674 C678 1.368 . S
C675 C656 1.429 . S
C675 C669 1.429 . S
C675 C676 1.523 . S
C676 C657 1.368 . S
C676 C670 1.368 . S
C676 C675 1.523 . S
C677 C661 1.429 . S
C677 C673 1.429 . S
C677 C678 1.523 . S
C678 C662 1.368 . S
C678 C674 1.368 . S
C678 C677 1.523 . S
H679 C654 0.950 . S
H680 C656 0.950 . S
H681 C657 0.949 . S
H682 C659 0.950 . S
H683 C661 0.950 . S
C684 C685 1.349 1_556 S
C684 C686 1.327 . S
C684 H709 0.950 . S
C685 C684 1.349 1_554 S
C685 C701 1.349 . S
C686 C684 1.327 . S
C686 C705 1.429 1_556 S
C686 H710 0.950 . S
C687 C704 1.574 . S
C687 C706 1.368 . S
C687 H711 0.949 . S
H688 C692 0.949 . S
C689 C690 1.349 . S
C689 C691 1.327 . S
C689 H712 0.950 . S
C690 C689 1.349 . S
C690 C702 1.349 1_554 S
C691 C689 1.327 . S
C691 C707 1.429 . S
C691 H713 0.950 . S
C692 H688 0.949 . S
C692 C700 1.574 . S
C692 C708 1.368 1_556 S
H693 C701 0.950 . S
H694 C699 0.950 . S
H695 C700 0.949 . S
H696 C702 0.950 . S
H697 C703 0.950 . S
H698 C704 0.949 . S
C699 H694 0.950 . S
C699 C701 1.327 . S
C699 C705 1.429 . S
C700 C692 1.574 . S
C700 H695 0.949 . S
C700 C706 1.368 1_556 S
C701 C685 1.349 . S
C701 H693 0.950 . S
C701 C699 1.327 . S
C702 C690 1.349 1_556 S
C702 H696 0.950 . S
C702 C703 1.327 . S
C703 H697 0.950 . S
C703 C702 1.327 . S
C703 C707 1.429 1_556 S
C704 C687 1.574 . S
C704 H698 0.949 . S
C704 C708 1.368 . S
C705 C686 1.429 1_554 S
C705 C699 1.429 . S
C705 C706 1.523 . S
C706 C687 1.368 . S
C706 C700 1.368 1_554 S
C706 C705 1.523 . S
C707 C691 1.429 . S
C707 C703 1.429 1_554 S
C707 C708 1.523 . S
C708 C692 1.368 1_554 S
C708 C704 1.368 . S
C708 C707 1.523 . S
H709 C684 0.950 . S
H710 C686 0.950 . S
H711 C687 0.949 . S
H712 C689 0.950 . S
H713 C691 0.950 . S
C714 C715 1.349 . S
C714 C716 1.327 . S
C714 H739 0.950 . S
C715 C714 1.349 . S
C715 C731 1.349 . S
C716 C714 1.327 . S
C716 C735 1.429 . S
C716 H740 0.950 . S
C717 C734 1.574 . S
C717 C736 1.368 . S
C717 H741 0.949 . S
H718 C722 0.949 . S
C719 C720 1.349 . S
C719 C721 1.327 . S
C719 H742 0.950 . S
C720 C719 1.349 . S
C720 C732 1.349 . S
C721 C719 1.327 . S
C721 C737 1.429 . S
C721 H743 0.950 . S
C722 H718 0.949 . S
C722 C730 1.574 . S
C722 C738 1.368 . S
H723 C731 0.950 . S
H724 C729 0.950 . S
H725 C730 0.949 . S
H726 C732 0.950 . S
H727 C733 0.950 . S
H728 C734 0.949 . S
C729 H724 0.950 . S
C729 C731 1.327 . S
C729 C735 1.429 . S
C730 C722 1.574 . S
C730 H725 0.949 . S
C730 C736 1.368 . S
C731 C715 1.349 . S
C731 H723 0.950 . S
C731 C729 1.327 . S
C732 C720 1.349 . S
C732 H726 0.950 . S
C732 C733 1.327 . S
C733 H727 0.950 . S
C733 C732 1.327 . S
C733 C737 1.429 . S
C734 C717 1.574 . S
C734 H728 0.949 . S
C734 C738 1.368 . S
C735 C716 1.429 . S
C735 C729 1.429 . S
C735 C736 1.523 . S
C736 C717 1.368 . S
C736 C730 1.368 . S
C736 C735 1.523 . S
C737 C721 1.429 . S
C737 C733 1.429 . S
C737 C738 1.523 . S
C738 C722 1.368 . S
C738 C734 1.368 . S
C738 C737 1.523 . S
H739 C714 0.950 . S
H740 C716 0.950 . S
H741 C717 0.949 . S
H742 C719 0.950 . S
H743 C721 0.950 . S
C744 C745 1.349 . S
C744 C746 1.327 . S
C744 H769 0.950 . S
C745 C744 1.349 . S
C745 C761 1.349 . S
C746 C744 1.327 . S
C746 C765 1.429 . S
C746 H770 0.950 . S
C747 C764 1.574 . S
C747 C766 1.368 . S
C747 H771 0.949 . S
H748 C752 0.949 . S
C749 C750 1.349 . S
C749 C751 1.327 . S
C749 H772 0.950 . S
C750 C749 1.349 . S
C750 C762 1.349 . S
C751 C749 1.327 . S
C751 C767 1.429 . S
C751 H773 0.950 . S
C752 H748 0.949 . S
C752 C760 1.574 1_455 S
C752 C768 1.368 . S
H753 C761 0.950 . S
H754 C759 0.950 1_455 S
H755 C760 0.949 . S
H756 C762 0.950 . S
H757 C763 0.950 . S
H758 C764 0.949 . S
C759 H754 0.950 1_655 S
C759 C761 1.327 . S
C759 C765 1.429 . S
C760 C752 1.574 1_655 S
C760 H755 0.949 . S
C760 C766 1.368 1_655 S
C761 C745 1.349 . S
C761 H753 0.950 . S
C761 C759 1.327 . S
C762 C750 1.349 . S
C762 H756 0.950 . S
C762 C763 1.327 . S
C763 H757 0.950 . S
C763 C762 1.327 . S
C763 C767 1.429 . S
C764 C747 1.574 . S
C764 H758 0.949 . S
C764 C768 1.368 . S
C765 C746 1.429 . S
C765 C759 1.429 . S
C765 C766 1.523 1_655 S
C766 C747 1.368 . S
C766 C760 1.368 1_455 S
C766 C765 1.523 1_455 S
C767 C751 1.429 . S
C767 C763 1.429 . S
C767 C768 1.523 . S
C768 C752 1.368 . S
C768 C764 1.368 . S
C768 C767 1.523 . S
H769 C744 0.950 . S
H770 C746 0.950 . S
H771 C747 0.949 . S
H772 C749 0.950 . S
H773 C751 0.950 . S
C774 C775 1.349 . S
C774 C776 1.327 . S
C774 H799 0.950 . S
C775 C774 1.349 . S
C775 C791 1.349 . S
C776 C774 1.327 . S
C776 C795 1.429 . S
C776 H800 0.950 . S
C777 C794 1.574 . S
C777 C796 1.368 . S
C777 H801 0.957 . S
H778 C782 0.949 . S
C779 C780 1.349 . S
C779 C781 1.327 . S
C779 H802 0.950 . S
C780 C779 1.349 . S
C780 C792 1.349 . S
C781 C779 1.327 . S
C781 C797 1.429 . S
C781 H803 0.950 . S
C782 H778 0.949 . S
C782 C790 1.574 . S
C782 C798 1.368 . S
H783 C791 0.950 . S
H784 C789 0.950 . S
H785 C790 0.949 . S
H786 C792 0.950 . S
H787 C793 0.950 . S
H788 C794 0.949 . S
C789 H784 0.950 . S
C789 C791 1.327 . S
C789 C795 1.429 . S
C790 C782 1.574 . S
C790 H785 0.949 . S
C790 C796 1.368 . S
C791 C775 1.349 . S
C791 H783 0.950 . S
C791 C789 1.327 . S
C792 C780 1.349 . S
C792 H786 0.950 . S
C792 C793 1.327 . S
C793 H787 0.950 . S
C793 C792 1.327 . S
C793 C797 1.429 . S
C794 C777 1.574 . S
C794 H788 0.949 . S
C794 C798 1.368 . S
C795 C776 1.429 . S
C795 C789 1.429 . S
C795 C796 1.523 1_545 S
C796 C777 1.368 . S
C796 C790 1.368 . S
C796 C795 1.523 1_565 S
C797 C781 1.429 . S
C797 C793 1.429 . S
C797 C798 1.523 . S
C798 C782 1.368 . S
C798 C794 1.368 . S
C798 C797 1.523 . S
H799 C774 0.950 . S
H800 C776 0.950 . S
H801 C777 0.957 . S
H802 C779 0.950 . S
H803 C781 0.950 . S
C804 C805 1.349 . S
C804 C806 1.327 . S
C804 H829 0.950 . S
C805 C804 1.349 . S
C805 C821 1.349 . S
C806 C804 1.327 . S
C806 C825 1.429 . S
C806 H830 0.950 . S
C807 C824 1.574 . S
C807 C826 1.368 . S
C807 H831 0.949 . S
H808 C812 0.949 . S
C809 C810 1.349 . S
C809 C811 1.327 . S
C809 H832 0.950 . S
C810 C809 1.349 . S
C810 C822 1.349 . S
C811 C809 1.327 . S
C811 C827 1.429 . S
C811 H833 0.950 . S
C812 H808 0.949 . S
C812 C820 1.574 . S
C812 C828 1.368 . S
H813 C821 0.950 . S
H814 C819 0.950 . S
H815 C820 0.949 . S
H816 C822 0.950 . S
H817 C823 0.950 . S
H818 C824 0.949 . S
C819 H814 0.950 . S
C819 C821 1.327 . S
C819 C825 1.429 . S
C820 C812 1.574 . S
C820 H815 0.949 . S
C820 C826 1.368 . S
C821 C805 1.349 . S
C821 H813 0.950 . S
C821 C819 1.327 . S
C822 C810 1.349 . S
C822 H816 0.950 . S
C822 C823 1.327 . S
C823 H817 0.950 . S
C823 C822 1.327 . S
C823 C827 1.429 . S
C824 C807 1.574 . S
C824 H818 0.949 . S
C824 C828 1.368 . S
C825 C806 1.429 . S
C825 C819 1.429 . S
C825 C826 1.523 . S
C826 C807 1.368 . S
C826 C820 1.368 . S
C826 C825 1.523 . S
C827 C811 1.429 . S
C827 C823 1.429 . S
C827 C828 1.523 . S
C828 C812 1.368 . S
C828 C824 1.368 . S
C828 C827 1.523 . S
H829 C804 0.950 . S
H830 C806 0.950 . S
H831 C807 0.949 . S
H832 C809 0.950 . S
H833 C811 0.950 . S
C205 C187 1.289 . S
C210 C17 1.263 . S
C235 C6 1.120 . S
C240 C40 1.133 . S
C265 C85 1.263 . S
C270 C51 1.288 . S
C295 C108 1.133 . S
C300 C96 1.120 . S
C325 C153 1.263 . S
C330 C119 1.288 . S
C355 C164 1.120 . S
C360 C198 1.133 . S
C385 C15 1.619 . S
C390 C22 1.621 . S
C415 C49 1.755 . S
C420 C56 1.758 . S
C445 C90 1.619 . S
C450 C83 1.621 . S
C475 C124 1.758 . S
C480 C117 1.755 . S
C505 C151 1.621 . S
C510 C158 1.619 . S
C535 C192 1.755 . S
C540 C185 1.758 . S
C565 C142 1.406 . S
C570 C3 1.271 . S
C595 C173 1.861 . S
C600 C37 1.877 . S
C625 C28 1.406 . S
C630 C69 1.271 . S
C655 C105 1.877 . S
C660 C35 1.862 . S
C685 C74 1.406 . S
C690 C137 1.271 . S
C715 C103 1.862 . S
C720 C171 1.877 . S
C745 C130 1.392 . S
C750 C1 1.279 . S
C775 C62 1.391 . S
C780 C139 1.278 . S
C805 C176 1.391 . S
C810 C71 1.278 . S
