# Generated by pormake.
# Topology uod, (4)-cn, num edge types: 1
# Building blocks:
#     Node 0, Type 0, BuildingBlock: CEKHIL_clean_sbu_0, # of connection points: 4
#     Node 1, Type 0, BuildingBlock: CEKHIL_clean_sbu_0, # of connection points: 4
#     Node 2, Type 0, BuildingBlock: CEKHIL_clean_sbu_0, # of connection points: 4
#     Node 3, Type 0, BuildingBlock: CEKHIL_clean_sbu_0, # of connection points: 4
#     Node 4, Type 0, BuildingBlock: CEKHIL_clean_sbu_0, # of connection points: 4
#     Node 5, Type 0, BuildingBlock: CEKHIL_clean_sbu_0, # of connection points: 4
#     Node 6, Type 0, BuildingBlock: CEKHIL_clean_sbu_0, # of connection points: 4
#     Node 7, Type 0, BuildingBlock: CEKHIL_clean_sbu_0, # of connection points: 4
#     Node 8, Type 0, BuildingBlock: CEKHIL_clean_sbu_0, # of connection points: 4
#     Node 9, Type 0, BuildingBlock: CEKHIL_clean_sbu_0, # of connection points: 4
#     Node 10, Type 0, BuildingBlock: CEKHIL_clean_sbu_0, # of connection points: 4
#     Node 11, Type 0, BuildingBlock: CEKHIL_clean_sbu_0, # of connection points: 4
#     Node 12, Type 0, BuildingBlock: CEKHIL_clean_sbu_0, # of connection points: 4
#     Node 13, Type 0, BuildingBlock: CEKHIL_clean_sbu_0, # of connection points: 4
#     Node 14, Type 0, BuildingBlock: CEKHIL_clean_sbu_0, # of connection points: 4
#     Node 15, Type 0, BuildingBlock: CEKHIL_clean_sbu_0, # of connection points: 4
#     Node 16, Type 0, BuildingBlock: CEKHIL_clean_sbu_0, # of connection points: 4
#     Node 17, Type 0, BuildingBlock: CEKHIL_clean_sbu_0, # of connection points: 4
#     Node 18, Type 0, BuildingBlock: CEKHIL_clean_sbu_0, # of connection points: 4
#     Node 19, Type 0, BuildingBlock: CEKHIL_clean_sbu_0, # of connection points: 4
#     Node 20, Type 0, BuildingBlock: CEKHIL_clean_sbu_0, # of connection points: 4
#     Node 21, Type 0, BuildingBlock: CEKHIL_clean_sbu_0, # of connection points: 4
#     Node 22, Type 0, BuildingBlock: CEKHIL_clean_sbu_0, # of connection points: 4
#     Node 23, Type 0, BuildingBlock: CEKHIL_clean_sbu_0, # of connection points: 4
#     Node 24, Type 0, BuildingBlock: CEKHIL_clean_sbu_0, # of connection points: 4
#     Node 25, Type 0, BuildingBlock: CEKHIL_clean_sbu_0, # of connection points: 4
#     Node 26, Type 0, BuildingBlock: CEKHIL_clean_sbu_0, # of connection points: 4
#     Node 27, Type 0, BuildingBlock: CEKHIL_clean_sbu_0, # of connection points: 4
#     Node 28, Type 0, BuildingBlock: CEKHIL_clean_sbu_0, # of connection points: 4
#     Node 29, Type 0, BuildingBlock: CEKHIL_clean_sbu_0, # of connection points: 4
#     Node 30, Type 0, BuildingBlock: CEKHIL_clean_sbu_0, # of connection points: 4
#     Node 31, Type 0, BuildingBlock: CEKHIL_clean_sbu_0, # of connection points: 4
#     Edge 32, Type (0, 0), BuildingBlock: KIFKEQ_clean_linker_1, # of connection points: 2
#     Edge 33, Type (0, 0), BuildingBlock: KIFKEQ_clean_linker_1, # of connection points: 2
#     Edge 34, Type (0, 0), BuildingBlock: KIFKEQ_clean_linker_1, # of connection points: 2
#     Edge 35, Type (0, 0), BuildingBlock: KIFKEQ_clean_linker_1, # of connection points: 2
#     Edge 36, Type (0, 0), BuildingBlock: KIFKEQ_clean_linker_1, # of connection points: 2
#     Edge 37, Type (0, 0), BuildingBlock: KIFKEQ_clean_linker_1, # of connection points: 2
#     Edge 38, Type (0, 0), BuildingBlock: KIFKEQ_clean_linker_1, # of connection points: 2
#     Edge 39, Type (0, 0), BuildingBlock: KIFKEQ_clean_linker_1, # of connection points: 2
#     Edge 40, Type (0, 0), BuildingBlock: KIFKEQ_clean_linker_1, # of connection points: 2
#     Edge 41, Type (0, 0), BuildingBlock: KIFKEQ_clean_linker_1, # of connection points: 2
#     Edge 42, Type (0, 0), BuildingBlock: KIFKEQ_clean_linker_1, # of connection points: 2
#     Edge 43, Type (0, 0), BuildingBlock: KIFKEQ_clean_linker_1, # of connection points: 2
#     Edge 44, Type (0, 0), BuildingBlock: KIFKEQ_clean_linker_1, # of connection points: 2
#     Edge 45, Type (0, 0), BuildingBlock: KIFKEQ_clean_linker_1, # of connection points: 2
#     Edge 46, Type (0, 0), BuildingBlock: KIFKEQ_clean_linker_1, # of connection points: 2
#     Edge 47, Type (0, 0), BuildingBlock: KIFKEQ_clean_linker_1, # of connection points: 2
#     Edge 48, Type (0, 0), BuildingBlock: KIFKEQ_clean_linker_1, # of connection points: 2
#     Edge 49, Type (0, 0), BuildingBlock: KIFKEQ_clean_linker_1, # of connection points: 2
#     Edge 50, Type (0, 0), BuildingBlock: KIFKEQ_clean_linker_1, # of connection points: 2
#     Edge 51, Type (0, 0), BuildingBlock: KIFKEQ_clean_linker_1, # of connection points: 2
#     Edge 52, Type (0, 0), BuildingBlock: KIFKEQ_clean_linker_1, # of connection points: 2
#     Edge 53, Type (0, 0), BuildingBlock: KIFKEQ_clean_linker_1, # of connection points: 2
#     Edge 54, Type (0, 0), BuildingBlock: KIFKEQ_clean_linker_1, # of connection points: 2
#     Edge 55, Type (0, 0), BuildingBlock: KIFKEQ_clean_linker_1, # of connection points: 2
#     Edge 56, Type (0, 0), BuildingBlock: KIFKEQ_clean_linker_1, # of connection points: 2
#     Edge 57, Type (0, 0), BuildingBlock: KIFKEQ_clean_linker_1, # of connection points: 2
#     Edge 58, Type (0, 0), BuildingBlock: KIFKEQ_clean_linker_1, # of connection points: 2
#     Edge 59, Type (0, 0), BuildingBlock: KIFKEQ_clean_linker_1, # of connection points: 2
#     Edge 60, Type (0, 0), BuildingBlock: KIFKEQ_clean_linker_1, # of connection points: 2
#     Edge 61, Type (0, 0), BuildingBlock: KIFKEQ_clean_linker_1, # of connection points: 2
#     Edge 62, Type (0, 0), BuildingBlock: KIFKEQ_clean_linker_1, # of connection points: 2
#     Edge 63, Type (0, 0), BuildingBlock: KIFKEQ_clean_linker_1, # of connection points: 2
#     Edge 64, Type (0, 0), BuildingBlock: KIFKEQ_clean_linker_1, # of connection points: 2
#     Edge 65, Type (0, 0), BuildingBlock: KIFKEQ_clean_linker_1, # of connection points: 2
#     Edge 66, Type (0, 0), BuildingBlock: KIFKEQ_clean_linker_1, # of connection points: 2
#     Edge 67, Type (0, 0), BuildingBlock: KIFKEQ_clean_linker_1, # of connection points: 2
#     Edge 68, Type (0, 0), BuildingBlock: KIFKEQ_clean_linker_1, # of connection points: 2
#     Edge 69, Type (0, 0), BuildingBlock: KIFKEQ_clean_linker_1, # of connection points: 2
#     Edge 70, Type (0, 0), BuildingBlock: KIFKEQ_clean_linker_1, # of connection points: 2
#     Edge 71, Type (0, 0), BuildingBlock: KIFKEQ_clean_linker_1, # of connection points: 2
#     Edge 72, Type (0, 0), BuildingBlock: KIFKEQ_clean_linker_1, # of connection points: 2
#     Edge 73, Type (0, 0), BuildingBlock: KIFKEQ_clean_linker_1, # of connection points: 2
#     Edge 74, Type (0, 0), BuildingBlock: KIFKEQ_clean_linker_1, # of connection points: 2
#     Edge 75, Type (0, 0), BuildingBlock: KIFKEQ_clean_linker_1, # of connection points: 2
#     Edge 76, Type (0, 0), BuildingBlock: KIFKEQ_clean_linker_1, # of connection points: 2
#     Edge 77, Type (0, 0), BuildingBlock: KIFKEQ_clean_linker_1, # of connection points: 2
#     Edge 78, Type (0, 0), BuildingBlock: KIFKEQ_clean_linker_1, # of connection points: 2
#     Edge 79, Type (0, 0), BuildingBlock: KIFKEQ_clean_linker_1, # of connection points: 2
#     Edge 80, Type (0, 0), BuildingBlock: KIFKEQ_clean_linker_1, # of connection points: 2
#     Edge 81, Type (0, 0), BuildingBlock: KIFKEQ_clean_linker_1, # of connection points: 2
#     Edge 82, Type (0, 0), BuildingBlock: KIFKEQ_clean_linker_1, # of connection points: 2
#     Edge 83, Type (0, 0), BuildingBlock: KIFKEQ_clean_linker_1, # of connection points: 2
#     Edge 84, Type (0, 0), BuildingBlock: KIFKEQ_clean_linker_1, # of connection points: 2
#     Edge 85, Type (0, 0), BuildingBlock: KIFKEQ_clean_linker_1, # of connection points: 2
#     Edge 86, Type (0, 0), BuildingBlock: KIFKEQ_clean_linker_1, # of connection points: 2
#     Edge 87, Type (0, 0), BuildingBlock: KIFKEQ_clean_linker_1, # of connection points: 2
#     Edge 88, Type (0, 0), BuildingBlock: KIFKEQ_clean_linker_1, # of connection points: 2
#     Edge 89, Type (0, 0), BuildingBlock: KIFKEQ_clean_linker_1, # of connection points: 2
#     Edge 90, Type (0, 0), BuildingBlock: KIFKEQ_clean_linker_1, # of connection points: 2
#     Edge 91, Type (0, 0), BuildingBlock: KIFKEQ_clean_linker_1, # of connection points: 2
#     Edge 92, Type (0, 0), BuildingBlock: KIFKEQ_clean_linker_1, # of connection points: 2
#     Edge 93, Type (0, 0), BuildingBlock: KIFKEQ_clean_linker_1, # of connection points: 2
#     Edge 94, Type (0, 0), BuildingBlock: KIFKEQ_clean_linker_1, # of connection points: 2
#     Edge 95, Type (0, 0), BuildingBlock: KIFKEQ_clean_linker_1, # of connection points: 2
# Relax obj value: 0.168
# Max RMSD: 0.163
# Mean RMSD: 0.163
data_MOF--net-uod--node1-CEKHIL_clean_sbu_0--edge1-KIFKEQ_clean_linker_1
_symmetry_space_group_name_H-M    P1
_symmetry_Int_Tables_number       1
_symmetry_cell_setting            triclinic
loop_
_symmetry_equiv_pos_as_xyz
'x, y, z'
_cell_length_a     92.177329
_cell_length_b     27.015105
_cell_length_c     60.505103
_cell_angle_alpha  90.010235
_cell_angle_beta   90.01955
_cell_angle_gamma 90.006217
loop_
_atom_site_label
_atom_site_type_symbol
_atom_site_fract_x
_atom_site_fract_y
_atom_site_fract_z
_atom_type_partial_charge
Co0 Co 0.05972 0.36573 0.09023 0.0
O1 O 0.0422 0.36436 0.07285 0.0
O2 O 0.06231 0.40334 0.06314 0.0
C3 C 0.06017 0.28556 0.09991 0.0
O4 O 0.07997 0.37351 0.10415 0.0
Co5 Co 0.05717 0.34479 0.14062 0.0
O6 O 0.07872 0.34642 0.13933 0.0
C7 C 0.04562 0.4367 0.1226 0.0
C8 C 0.04872 0.39351 0.05904 0.0
C9 C 0.08598 0.36232 0.12282 0.0
O10 O 0.05267 0.42758 0.1048 0.0
O11 O 0.04481 0.40598 0.13865 0.0
O12 O 0.06507 0.29891 0.08061 0.0
O13 O 0.05372 0.31973 0.11105 0.0
Co14 Co 0.22228 0.85978 0.09163 0.0
O15 O 0.24049 0.86228 0.07608 0.0
O16 O 0.22094 0.82356 0.06386 0.0
C17 C 0.22113 0.93957 0.1018 0.0
O18 O 0.20152 0.85075 0.10355 0.0
Co19 Co 0.22272 0.87988 0.14245 0.0
O20 O 0.20138 0.87329 0.13951 0.0
C21 C 0.2351 0.78851 0.1251 0.0
C22 C 0.23466 0.83382 0.06127 0.0
C23 C 0.19489 0.8587 0.12207 0.0
O24 O 0.22908 0.79778 0.10645 0.0
O25 O 0.23489 0.8184 0.14149 0.0
O26 O 0.21708 0.92668 0.08198 0.0
O27 O 0.22725 0.90533 0.11331 0.0
Co28 Co 0.0592 0.86351 0.1744 0.0
O29 O 0.04125 0.86626 0.19055 0.0
O30 O 0.06106 0.82865 0.20245 0.0
C31 C 0.05999 0.94282 0.16341 0.0
O32 O 0.07971 0.85456 0.16168 0.0
Co33 Co 0.05743 0.87999 0.12354 0.0
O34 O 0.07888 0.87382 0.12538 0.0
C35 C 0.04546 0.79014 0.14282 0.0
C36 C 0.04735 0.83859 0.20539 0.0
C37 C 0.08587 0.86106 0.14268 0.0
O38 O 0.05247 0.80036 0.16054 0.0
O39 O 0.04473 0.81982 0.12638 0.0
O40 O 0.06437 0.93099 0.18319 0.0
O41 O 0.05371 0.90786 0.15251 0.0
Co42 Co 0.22282 0.36428 0.17176 0.0
O43 O 0.24095 0.3632 0.18755 0.0
O44 O 0.22132 0.40243 0.19903 0.0
C45 C 0.22195 0.28374 0.16273 0.0
O46 O 0.20209 0.37196 0.15937 0.0
Co47 Co 0.22359 0.34023 0.1213 0.0
O48 O 0.20219 0.34102 0.12474 0.0
C49 C 0.23549 0.43365 0.1373 0.0
C50 C 0.23505 0.39254 0.20192 0.0
C51 C 0.19548 0.35874 0.14141 0.0
O52 O 0.22961 0.42529 0.15614 0.0
O53 O 0.23528 0.40282 0.12126 0.0
O54 O 0.2177 0.29786 0.18227 0.0
O55 O 0.22804 0.31741 0.15086 0.0
Co56 Co 0.97224 0.61564 0.92414 0.0
O57 O 0.99032 0.61753 0.93991 0.0
O58 O 0.97061 0.57982 0.95204 0.0
C59 C 0.97164 0.69536 0.91372 0.0
O60 O 0.9516 0.60772 0.91158 0.0
Co61 Co 0.97383 0.63414 0.87337 0.0
O62 O 0.95234 0.63369 0.87615 0.0
C63 C 0.9856 0.54307 0.89187 0.0
C64 C 0.98437 0.58945 0.95471 0.0
C65 C 0.94531 0.61869 0.89306 0.0
O66 O 0.97871 0.55287 0.90975 0.0
O67 O 0.98628 0.5732 0.87559 0.0
O68 O 0.96732 0.68308 0.93347 0.0
O69 O 0.97771 0.66048 0.90253 0.0
Co70 Co 0.81118 0.11385 0.92595 0.0
O71 O 0.7934 0.11325 0.94272 0.0
O72 O 0.81356 0.15103 0.95318 0.0
C73 C 0.81142 0.03385 0.91619 0.0
O74 O 0.83165 0.12082 0.91271 0.0
Co75 Co 0.80901 0.09385 0.87536 0.0
O76 O 0.83052 0.09725 0.877 0.0
C77 C 0.79738 0.18526 0.89366 0.0
C78 C 0.79989 0.14181 0.95684 0.0
C79 C 0.83772 0.11133 0.89389 0.0
O80 O 0.80462 0.17617 0.91128 0.0
O81 O 0.79645 0.15453 0.87762 0.0
O82 O 0.81599 0.04669 0.93574 0.0
O83 O 0.80533 0.06834 0.90477 0.0
Co84 Co 0.97309 0.11754 0.84005 0.0
O85 O 0.99054 0.11562 0.82255 0.0
O86 O 0.97043 0.15469 0.81284 0.0
C87 C 0.97256 0.03763 0.85002 0.0
O88 O 0.95293 0.12569 0.85414 0.0
Co89 Co 0.97597 0.09756 0.89048 0.0
O90 O 0.95442 0.09837 0.88927 0.0
C91 C 0.98729 0.18936 0.87205 0.0
C92 C 0.984 0.14458 0.80867 0.0
C93 C 0.94704 0.1142 0.87287 0.0
O94 O 0.98025 0.17962 0.85431 0.0
O95 O 0.98817 0.15908 0.88825 0.0
O96 O 0.96762 0.0507 0.8307 0.0
O97 O 0.97915 0.07184 0.86096 0.0
Co98 Co 0.80922 0.61115 0.84155 0.0
O99 O 0.79138 0.61191 0.82491 0.0
O100 O 0.8115 0.5744 0.81415 0.0
C101 C 0.80951 0.69099 0.85156 0.0
O102 O 0.82974 0.60422 0.85468 0.0
Co103 Co 0.80711 0.63024 0.89221 0.0
O104 O 0.82862 0.62723 0.89047 0.0
C105 C 0.7957 0.5387 0.87376 0.0
C106 C 0.7978 0.58362 0.81064 0.0
C107 C 0.83582 0.61355 0.87352 0.0
O108 O 0.80276 0.5485 0.85604 0.0
O109 O 0.79477 0.56904 0.88993 0.0
O110 O 0.81398 0.67845 0.83193 0.0
O111 O 0.80343 0.65635 0.86289 0.0
Co112 Co 0.05789 0.86413 0.5896 0.0
O113 O 0.04062 0.86193 0.57166 0.0
O114 O 0.06065 0.90221 0.56268 0.0
C115 C 0.05869 0.78389 0.59907 0.0
O116 O 0.07791 0.87296 0.60416 0.0
Co117 Co 0.05484 0.84228 0.63985 0.0
O118 O 0.0764 0.84425 0.63906 0.0
C119 C 0.04343 0.93463 0.62201 0.0
C120 C 0.04719 0.89155 0.55809 0.0
C121 C 0.08377 0.86122 0.62289 0.0
O122 O 0.05036 0.92537 0.60411 0.0
O123 O 0.0427 0.904 0.6381 0.0
O124 O 0.06373 0.79786 0.57995 0.0
O125 O 0.05187 0.81741 0.61012 0.0
Co126 Co 0.22522 0.3613 0.59628 0.0
O127 O 0.24329 0.36237 0.58038 0.0
O128 O 0.22369 0.32237 0.56926 0.0
C129 C 0.22411 0.442 0.60485 0.0
O130 O 0.20455 0.35344 0.60883 0.0
Co131 Co 0.22604 0.38658 0.64659 0.0
O132 O 0.20464 0.38578 0.6432 0.0
C133 C 0.23784 0.29257 0.63116 0.0
C134 C 0.23738 0.3325 0.56622 0.0
C135 C 0.19794 0.36731 0.62668 0.0
O136 O 0.23214 0.30087 0.61218 0.0
O137 O 0.23753 0.32353 0.64714 0.0
O138 O 0.2199 0.42712 0.5854 0.0
O139 O 0.23037 0.40898 0.6169 0.0
Co140 Co 0.06116 0.36186 0.67337 0.0
O141 O 0.04296 0.3644 0.68878 0.0
O142 O 0.0626 0.32733 0.70161 0.0
C143 C 0.06181 0.44114 0.66229 0.0
O144 O 0.08189 0.35345 0.6613 0.0
Co145 Co 0.05995 0.37792 0.62244 0.0
O146 O 0.08141 0.37628 0.62543 0.0
C147 C 0.0479 0.28803 0.64165 0.0
C148 C 0.04881 0.33706 0.70394 0.0
C149 C 0.0883 0.36259 0.6427 0.0
O150 O 0.05481 0.29839 0.65944 0.0
O151 O 0.04727 0.31758 0.62515 0.0
O152 O 0.06599 0.42967 0.6822 0.0
O153 O 0.05584 0.40577 0.65126 0.0
Co154 Co 0.22023 0.86683 0.67447 0.0
O155 O 0.23834 0.86414 0.69023 0.0
O156 O 0.21883 0.90318 0.70227 0.0
C157 C 0.21927 0.78697 0.66436 0.0
O158 O 0.19954 0.87572 0.66205 0.0
Co159 Co 0.22131 0.84671 0.62371 0.0
O160 O 0.1999 0.84808 0.62686 0.0
C161 C 0.23349 0.93806 0.64142 0.0
C162 C 0.23254 0.89274 0.70497 0.0
C163 C 0.19307 0.86429 0.64372 0.0
O164 O 0.22715 0.92881 0.65982 0.0
O165 O 0.23345 0.90829 0.62498 0.0
O166 O 0.21499 0.79987 0.68405 0.0
O167 O 0.22543 0.82133 0.65297 0.0
Co168 Co 0.97132 0.11059 0.42097 0.0
O169 O 0.98938 0.11273 0.43689 0.0
O170 O 0.96982 0.07322 0.44845 0.0
C171 C 0.9703 0.1908 0.4115 0.0
O172 O 0.95067 0.10201 0.40842 0.0
Co173 Co 0.97233 0.13269 0.37039 0.0
O174 O 0.95092 0.13172 0.37358 0.0
C175 C 0.98446 0.04045 0.38726 0.0
C176 C 0.98351 0.08361 0.45136 0.0
C177 C 0.94414 0.11454 0.3903 0.0
O178 O 0.97831 0.04924 0.40586 0.0
O179 O 0.9843 0.07067 0.371 0.0
O180 O 0.96601 0.17706 0.43107 0.0
O181 O 0.97652 0.15701 0.39984 0.0
Co182 Co 0.8105 0.61492 0.42654 0.0
O183 O 0.79215 0.61192 0.44152 0.0
O184 O 0.81164 0.64913 0.45484 0.0
C185 C 0.81144 0.5359 0.41523 0.0
O186 O 0.83133 0.62394 0.41511 0.0
Co187 Co 0.80991 0.59984 0.37554 0.0
O188 O 0.83128 0.60678 0.37855 0.0
C189 C 0.79733 0.68867 0.39478 0.0
C190 C 0.79784 0.63926 0.45684 0.0
C191 C 0.83788 0.61854 0.39635 0.0
O192 O 0.8042 0.67846 0.41262 0.0
O193 O 0.79687 0.65919 0.37824 0.0
O194 O 0.81536 0.54717 0.4353 0.0
O195 O 0.80552 0.57126 0.40414 0.0
Co196 Co 0.97336 0.6171 0.34373 0.0
O197 O 0.99086 0.61512 0.32625 0.0
O198 O 0.97098 0.65613 0.31706 0.0
C199 C 0.97218 0.53667 0.35264 0.0
O200 O 0.95313 0.62603 0.35749 0.0
Co201 Co 0.97526 0.59318 0.394 0.0
O202 O 0.95383 0.59945 0.39282 0.0
C203 C 0.98725 0.68585 0.37747 0.0
C204 C 0.98447 0.64541 0.31274 0.0
C205 C 0.94692 0.6161 0.37614 0.0
O206 O 0.98098 0.67748 0.35893 0.0
O207 O 0.98722 0.65523 0.39358 0.0
O208 O 0.96747 0.55145 0.33343 0.0
O209 O 0.97892 0.56953 0.3642 0.0
Co210 Co 0.80767 0.11368 0.3418 0.0
O211 O 0.78963 0.11619 0.32593 0.0
O212 O 0.80923 0.07725 0.31407 0.0
C213 C 0.80867 0.19351 0.35189 0.0
O214 O 0.82825 0.10488 0.35443 0.0
Co215 Co 0.80618 0.13326 0.39248 0.0
O216 O 0.82766 0.13092 0.38985 0.0
C217 C 0.79427 0.04182 0.37452 0.0
C218 C 0.79552 0.08757 0.31127 0.0
C219 C 0.83459 0.11535 0.37296 0.0
O220 O 0.8009 0.05152 0.35641 0.0
O221 O 0.7938 0.07208 0.39078 0.0
O222 O 0.81295 0.18053 0.3322 0.0
O223 O 0.80239 0.15928 0.36322 0.0
Co224 Co 0.55861 0.36316 0.59039 0.0
O225 O 0.54121 0.36157 0.57267 0.0
O226 O 0.56143 0.40015 0.56316 0.0
C227 C 0.55898 0.28313 0.6004 0.0
O228 O 0.57876 0.37105 0.60461 0.0
Co229 Co 0.55576 0.34278 0.64083 0.0
O230 O 0.57731 0.34334 0.63968 0.0
C231 C 0.54465 0.4352 0.62256 0.0
C232 C 0.54788 0.39023 0.5588 0.0
C233 C 0.58467 0.35939 0.62331 0.0
O234 O 0.5515 0.42537 0.60465 0.0
O235 O 0.5438 0.40481 0.63873 0.0
O236 O 0.564 0.29609 0.58111 0.0
O237 O 0.55244 0.31752 0.61128 0.0
Co238 Co 0.72162 0.86284 0.59058 0.0
O239 O 0.73911 0.8644 0.57318 0.0
O240 O 0.71898 0.82543 0.56345 0.0
C241 C 0.72115 0.94286 0.60039 0.0
O242 O 0.70142 0.85496 0.60452 0.0
Co243 Co 0.7243 0.88338 0.64099 0.0
O244 O 0.70275 0.88241 0.63964 0.0
C245 C 0.73571 0.79142 0.62281 0.0
C246 C 0.73256 0.83531 0.55935 0.0
C247 C 0.69545 0.86648 0.62317 0.0
O248 O 0.72869 0.80088 0.60501 0.0
O249 O 0.73654 0.82192 0.63894 0.0
O250 O 0.71624 0.92967 0.58107 0.0
O251 O 0.72766 0.90866 0.61145 0.0
Co252 Co 0.55984 0.86243 0.67623 0.0
O253 O 0.54232 0.86389 0.69358 0.0
O254 O 0.56255 0.82606 0.70363 0.0
C255 C 0.56008 0.94225 0.66589 0.0
O256 O 0.58011 0.85482 0.66244 0.0
Co257 Co 0.55728 0.88158 0.62566 0.0
O258 O 0.57882 0.88138 0.62718 0.0
C259 C 0.54606 0.78969 0.64427 0.0
C260 C 0.54894 0.83565 0.70767 0.0
C261 C 0.58611 0.86607 0.64378 0.0
O262 O 0.55299 0.79971 0.66211 0.0
O263 O 0.54519 0.81988 0.62803 0.0
O264 O 0.56499 0.92985 0.68532 0.0
O265 O 0.55372 0.90741 0.65503 0.0
Co266 Co 0.72101 0.36448 0.67501 0.0
O267 O 0.73913 0.36266 0.69066 0.0
O268 O 0.7194 0.39987 0.70304 0.0
C269 C 0.72047 0.28491 0.66438 0.0
O270 O 0.70032 0.37214 0.66257 0.0
Co271 Co 0.72261 0.3467 0.62418 0.0
O272 O 0.70113 0.34717 0.62699 0.0
C273 C 0.73426 0.43769 0.64293 0.0
C274 C 0.73319 0.39039 0.70559 0.0
C275 C 0.69407 0.36158 0.64397 0.0
O276 O 0.72736 0.42758 0.66076 0.0
O277 O 0.73501 0.40772 0.62659 0.0
O278 O 0.71619 0.29687 0.68419 0.0
O279 O 0.72649 0.32001 0.65326 0.0
Co280 Co 0.47265 0.60887 0.42038 0.0
O281 O 0.49081 0.61017 0.43608 0.0
O282 O 0.47115 0.57159 0.44788 0.0
C283 C 0.47184 0.68915 0.41089 0.0
O284 O 0.45188 0.6012 0.40814 0.0
Co285 Co 0.47336 0.63132 0.36978 0.0
O286 O 0.45198 0.63078 0.37328 0.0
C287 C 0.48523 0.53834 0.38632 0.0
C288 C 0.48489 0.58139 0.45065 0.0
C289 C 0.44527 0.61383 0.3901 0.0
O290 O 0.47932 0.54726 0.4051 0.0
O291 O 0.48506 0.56875 0.37013 0.0
O292 O 0.46764 0.67564 0.43054 0.0
O293 O 0.47788 0.65508 0.39918 0.0
Co294 Co 0.31118 0.11395 0.42699 0.0
O295 O 0.29361 0.11205 0.44428 0.0
O296 O 0.31388 0.14922 0.45466 0.0
C297 C 0.31144 0.03453 0.416 0.0
O298 O 0.33149 0.12195 0.41345 0.0
Co299 Co 0.3088 0.09702 0.37624 0.0
O300 O 0.33029 0.10224 0.37725 0.0
C301 C 0.29734 0.18762 0.39563 0.0
C302 C 0.30026 0.1397 0.4586 0.0
C303 C 0.33747 0.11494 0.39437 0.0
O304 O 0.30439 0.17728 0.4133 0.0
O305 O 0.2964 0.1578 0.37927 0.0
O306 O 0.31627 0.04619 0.43556 0.0
O307 O 0.30511 0.06977 0.40536 0.0
Co308 Co 0.47318 0.11332 0.34028 0.0
O309 O 0.49088 0.11111 0.32324 0.0
O310 O 0.47103 0.15132 0.31326 0.0
C311 C 0.47211 0.03311 0.34974 0.0
O312 O 0.45278 0.12228 0.3535 0.0
Co313 Co 0.4746 0.09079 0.39077 0.0
O314 O 0.4532 0.09741 0.38911 0.0
C315 C 0.48667 0.18312 0.37393 0.0
C316 C 0.48458 0.14069 0.30932 0.0
C317 C 0.44643 0.11324 0.37213 0.0
O318 O 0.48054 0.17437 0.3553 0.0
O319 O 0.48657 0.15273 0.39013 0.0
O320 O 0.46754 0.04705 0.33033 0.0
O321 O 0.47863 0.06661 0.3612 0.0
Co322 Co 0.30925 0.61354 0.34035 0.0
O323 O 0.29169 0.61477 0.32299 0.0
O324 O 0.31184 0.57621 0.31317 0.0
C325 C 0.30966 0.69375 0.35016 0.0
O326 O 0.32954 0.60581 0.35411 0.0
Co327 Co 0.30701 0.63473 0.39081 0.0
O328 O 0.32855 0.63372 0.38918 0.0
C329 C 0.2957 0.54195 0.37312 0.0
C330 C 0.29826 0.58597 0.30905 0.0
C331 C 0.33569 0.61742 0.37263 0.0
O332 O 0.3023 0.5515 0.35495 0.0
O333 O 0.29506 0.57261 0.38921 0.0
O334 O 0.31452 0.68057 0.33081 0.0
O335 O 0.30327 0.65942 0.36128 0.0
Co336 Co 0.55821 0.86226 0.09062 0.0
O337 O 0.54016 0.86069 0.07465 0.0
O338 O 0.5598 0.90002 0.06326 0.0
C339 C 0.55915 0.78189 0.09988 0.0
O340 O 0.57887 0.87037 0.10321 0.0
Co341 Co 0.55722 0.83886 0.14114 0.0
O342 O 0.57862 0.83948 0.13784 0.0
C343 C 0.54547 0.93225 0.12483 0.0
C344 C 0.54611 0.88986 0.06025 0.0
C345 C 0.5854 0.8572 0.12124 0.0
O346 O 0.55132 0.92345 0.106 0.0
O347 O 0.54565 0.9017 0.14098 0.0
O348 O 0.56345 0.7958 0.08033 0.0
O349 O 0.55295 0.81561 0.11159 0.0
Co350 Co 0.72367 0.36307 0.09219 0.0
O351 O 0.74167 0.36558 0.07625 0.0
O352 O 0.72203 0.32685 0.06443 0.0
C353 C 0.7227 0.44284 0.1024 0.0
O354 O 0.70312 0.35428 0.10488 0.0
Co355 Co 0.72529 0.38208 0.14288 0.0
O356 O 0.7038 0.38007 0.14034 0.0
C357 C 0.73721 0.29099 0.12464 0.0
C358 C 0.73574 0.33704 0.06159 0.0
C359 C 0.69682 0.36471 0.12343 0.0
O360 O 0.73045 0.30077 0.10666 0.0
O361 O 0.73774 0.32109 0.14096 0.0
O362 O 0.71841 0.42999 0.08271 0.0
O363 O 0.72901 0.40854 0.11367 0.0
Co364 Co 0.56003 0.35818 0.17096 0.0
O365 O 0.54195 0.35967 0.18683 0.0
O366 O 0.56166 0.32118 0.19852 0.0
C367 C 0.56077 0.43834 0.16129 0.0
O368 O 0.58072 0.35033 0.1585 0.0
Co369 Co 0.55908 0.38016 0.12031 0.0
O370 O 0.58048 0.37978 0.12362 0.0
C371 C 0.54724 0.28744 0.1372 0.0
C372 C 0.54794 0.33101 0.2014 0.0
C373 C 0.58726 0.3629 0.1404 0.0
O374 O 0.55327 0.29645 0.15588 0.0
O375 O 0.54733 0.31771 0.12095 0.0
O376 O 0.56509 0.42505 0.18092 0.0
O377 O 0.55469 0.40412 0.14972 0.0
Co378 Co 0.72057 0.86622 0.17486 0.0
O379 O 0.73789 0.86424 0.19265 0.0
O380 O 0.71771 0.9032 0.20206 0.0
C381 C 0.72016 0.78634 0.1648 0.0
O382 O 0.7005 0.87446 0.16047 0.0
Co383 Co 0.72373 0.84677 0.12446 0.0
O384 O 0.70216 0.84852 0.12515 0.0
C385 C 0.73525 0.93774 0.14343 0.0
C386 C 0.73124 0.89314 0.20644 0.0
C387 C 0.69472 0.86386 0.14157 0.0
O388 O 0.72782 0.92837 0.16083 0.0
O389 O 0.73628 0.90741 0.12726 0.0
O390 O 0.71507 0.7993 0.18403 0.0
O391 O 0.72678 0.82069 0.15397 0.0
Co392 Co 0.47152 0.11026 0.92197 0.0
O393 O 0.48911 0.11178 0.93929 0.0
O394 O 0.46918 0.07147 0.94877 0.0
C395 C 0.47068 0.19077 0.91301 0.0
O396 O 0.45119 0.10209 0.9083 0.0
Co397 Co 0.47334 0.13429 0.87169 0.0
O398 O 0.45186 0.13278 0.87369 0.0
C399 C 0.48518 0.04127 0.88819 0.0
C400 C 0.48271 0.0819 0.95295 0.0
C401 C 0.44488 0.11498 0.89007 0.0
O402 O 0.47893 0.04961 0.90675 0.0
O403 O 0.48516 0.07195 0.87209 0.0
O404 O 0.46591 0.17633 0.93224 0.0
O405 O 0.47721 0.15745 0.90146 0.0
Co406 Co 0.30867 0.62058 0.92063 0.0
O407 O 0.29117 0.61818 0.93808 0.0
O408 O 0.31143 0.65545 0.94841 0.0
C409 C 0.30876 0.54129 0.90948 0.0
O410 O 0.32896 0.62898 0.90698 0.0
Co411 Co 0.30661 0.60299 0.86984 0.0
O412 O 0.3281 0.60159 0.87183 0.0
C413 C 0.2957 0.69538 0.88873 0.0
C414 C 0.29783 0.64567 0.95243 0.0
C415 C 0.33519 0.61727 0.88854 0.0
O416 O 0.30169 0.68389 0.90717 0.0
O417 O 0.2955 0.66668 0.87192 0.0
O418 O 0.31388 0.55267 0.92891 0.0
O419 O 0.30247 0.57676 0.89897 0.0
Co420 Co 0.47238 0.61588 0.84345 0.0
O421 O 0.4906 0.61362 0.82799 0.0
O422 O 0.47114 0.65298 0.8159 0.0
C423 C 0.47119 0.53578 0.85308 0.0
O424 O 0.45161 0.62468 0.85539 0.0
Co425 Co 0.47276 0.59421 0.89409 0.0
O426 O 0.45139 0.59576 0.89035 0.0
C427 C 0.48502 0.68649 0.87745 0.0
C428 C 0.48486 0.64263 0.81334 0.0
C429 C 0.44484 0.61273 0.87337 0.0
O430 O 0.47919 0.67737 0.85864 0.0
O431 O 0.48465 0.65642 0.89377 0.0
O432 O 0.46715 0.54932 0.83335 0.0
O433 O 0.47731 0.56965 0.86482 0.0
Co434 Co 0.3087 0.11718 0.84005 0.0
O435 O 0.29118 0.11762 0.82262 0.0
O436 O 0.31097 0.0756 0.81401 0.0
C437 C 0.30937 0.19859 0.84712 0.0
O438 O 0.32898 0.10952 0.85394 0.0
Co439 Co 0.3072 0.14727 0.88958 0.0
O440 O 0.32868 0.14518 0.88757 0.0
C441 C 0.29544 0.05181 0.87565 0.0
C442 C 0.29748 0.08625 0.80956 0.0
C443 C 0.33547 0.12452 0.87169 0.0
O444 O 0.30109 0.05848 0.85651 0.0
O445 O 0.29586 0.08397 0.89115 0.0
O446 O 0.31459 0.18197 0.82854 0.0
O447 O 0.30287 0.16666 0.85943 0.0
H448 H 0.0304 0.74987 0.10794 0.0
H449 H 0.04564 0.71753 0.174 0.0
H450 H 0.02353 0.66329 0.10335 0.0
H451 H 0.03955 0.63156 0.16905 0.0
H452 H 0.03137 0.47639 0.15841 0.0
H453 H 0.02443 0.56281 0.16348 0.0
H454 H 0.03872 0.59522 0.09693 0.0
H455 H 0.04487 0.50947 0.09155 0.0
C456 C 0.03214 0.72451 0.12154 0.0
C457 C 0.03903 0.74024 0.14102 0.0
C458 C 0.02821 0.6749 0.11892 0.0
C459 C 0.0313 0.64013 0.13561 0.0
C460 C 0.03693 0.65703 0.15582 0.0
C461 C 0.04066 0.70652 0.15854 0.0
C462 C 0.03271 0.50186 0.14474 0.0
C463 C 0.03914 0.48642 0.12486 0.0
C464 C 0.02875 0.55138 0.14764 0.0
C465 C 0.03132 0.58629 0.1308 0.0
C466 C 0.03649 0.56963 0.11027 0.0
C467 C 0.04027 0.52028 0.1073 0.0
H468 H 0.24885 0.73377 0.0939 0.0
H469 H 0.23588 0.73278 0.16247 0.0
H470 H 0.25545 0.64662 0.09641 0.0
H471 H 0.24161 0.6453 0.16479 0.0
H472 H 0.25013 0.48862 0.1674 0.0
H473 H 0.25656 0.57582 0.16433 0.0
H474 H 0.24071 0.5765 0.09696 0.0
H475 H 0.23518 0.48888 0.09978 0.0
C476 C 0.2476 0.71488 0.10959 0.0
C477 C 0.24161 0.73939 0.1279 0.0
C478 C 0.25132 0.665 0.11102 0.0
C479 C 0.24876 0.63852 0.13062 0.0
C480 C 0.24388 0.66437 0.14944 0.0
C481 C 0.24046 0.71454 0.14813 0.0
C482 C 0.24841 0.50738 0.15178 0.0
C483 C 0.24192 0.48268 0.13393 0.0
C484 C 0.25203 0.55729 0.15004 0.0
C485 C 0.24883 0.58362 0.13061 0.0
C486 C 0.24346 0.55756 0.11215 0.0
C487 C 0.24016 0.50733 0.11376 0.0
H488 H 0.98769 0.26154 0.8407 0.0
H489 H 1.00149 0.23041 0.90762 0.0
H490 H 0.99331 0.34778 0.84582 0.0
H491 H 1.00793 0.31735 0.91241 0.0
H492 H 0.98574 0.47015 0.92288 0.0
H493 H 0.99231 0.38466 0.9179 0.0
H494 H 1.00789 0.41739 0.85206 0.0
H495 H 1.00053 0.50352 0.85669 0.0
C496 C 0.99226 0.2729 0.85641 0.0
C497 C 0.9936 0.2394 0.87407 0.0
C498 C 0.99573 0.32256 0.85923 0.0
C499 C 1.00081 0.33988 0.8797 0.0
C500 C 1.00365 0.30539 0.89661 0.0
C501 C 0.99999 0.25557 0.89387 0.0
C502 C 0.9907 0.45947 0.90737 0.0
C503 C 0.99211 0.49333 0.88986 0.0
C504 C 0.99473 0.41027 0.90464 0.0
C505 C 1.00041 0.39376 0.88441 0.0
C506 C 1.00318 0.42869 0.86766 0.0
C507 C 0.99898 0.47803 0.8703 0.0
H508 H 0.79549 0.46633 0.84249 0.0
H509 H 0.78139 0.49777 0.90922 0.0
H510 H 0.78978 0.38015 0.84757 0.0
H511 H 0.77487 0.41089 0.91397 0.0
H512 H 0.79702 0.25806 0.9247 0.0
H513 H 0.79044 0.34351 0.91966 0.0
H514 H 0.7751 0.31067 0.85367 0.0
H515 H 0.78248 0.22457 0.85837 0.0
C516 C 0.79085 0.45505 0.85815 0.0
C517 C 0.78944 0.48861 0.87578 0.0
C518 C 0.78732 0.40543 0.86094 0.0
C519 C 0.78213 0.38821 0.88136 0.0
C520 C 0.77923 0.42277 0.89822 0.0
C521 C 0.78295 0.47255 0.89551 0.0
C522 C 0.79211 0.26871 0.90914 0.0
C523 C 0.7908 0.23485 0.8916 0.0
C524 C 0.78807 0.31788 0.90638 0.0
C525 C 0.78246 0.33435 0.88609 0.0
C526 C 0.77975 0.29939 0.86932 0.0
C527 C 0.78397 0.25007 0.872 0.0
H528 H 0.03075 0.97645 0.65869 0.0
H529 H 0.04179 0.00621 0.5905 0.0
H530 H 0.02509 0.06387 0.66398 0.0
H531 H 0.03697 0.0929 0.59603 0.0
H532 H 0.03151 0.24957 0.60775 0.0
H533 H 0.02341 0.16405 0.60371 0.0
H534 H 0.04154 0.12948 0.66785 0.0
H535 H 0.04887 0.21442 0.6723 0.0
C536 C 0.03177 0.0014 0.64477 0.0
C537 C 0.03722 0.98472 0.62443 0.0
C538 C 0.02857 0.05152 0.6478 0.0
C539 C 0.03096 0.08574 0.63062 0.0
C540 C 0.03496 0.06792 0.60968 0.0
C541 C 0.03797 0.01799 0.6066 0.0
C542 C 0.03351 0.22379 0.62112 0.0
C543 C 0.04124 0.23844 0.64002 0.0
C544 C 0.02886 0.17481 0.61883 0.0
C545 C 0.03206 0.13954 0.63526 0.0
C546 C 0.03874 0.1554 0.65489 0.0
C547 C 0.0432 0.20426 0.65729 0.0
H548 H 0.23521 -0.00478 0.6045 0.0
H549 H 0.24729 -0.00989 0.67341 0.0
H550 H 0.24202 0.08198 0.60299 0.0
H551 H 0.25493 0.07635 0.67175 0.0
H552 H 0.25271 0.23697 0.6016 0.0
H553 H 0.25806 0.14889 0.60446 0.0
H554 H 0.24108 0.14875 0.67116 0.0
H555 H 0.23659 0.23711 0.66857 0.0
C556 C 0.2398 0.01236 0.6191 0.0
C557 C 0.24042 0.98666 0.63917 0.0
C558 C 0.24384 0.06206 0.61826 0.0
C559 C 0.24881 0.08654 0.63741 0.0
C560 C 0.25076 0.05907 0.6569 0.0
C561 C 0.24644 0.00972 0.65784 0.0
C562 C 0.25055 0.21812 0.61707 0.0
C563 C 0.244 0.24322 0.63475 0.0
C564 C 0.25353 0.16771 0.61868 0.0
C565 C 0.24965 0.14136 0.6378 0.0
C566 C 0.24432 0.1677 0.6562 0.0
C567 C 0.24164 0.21839 0.65473 0.0
H568 H 0.99902 0.98825 0.41838 0.0
H569 H 0.98511 0.98328 0.35028 0.0
H570 H 1.00634 0.90173 0.41634 0.0
H571 H 0.99155 0.89622 0.34845 0.0
H572 H 0.9874 0.74185 0.41479 0.0
H573 H 0.99231 0.83 0.41683 0.0
H574 H 1.00715 0.82833 0.34895 0.0
H575 H 1.00135 0.7405 0.3467 0.0
C576 C 0.99771 0.9686 0.40288 0.0
C577 C 0.99127 -0.00822 0.38458 0.0
C578 C 1.00184 0.91907 0.40173 0.0
C579 C 0.99925 0.89154 0.38242 0.0
C580 C 0.99387 0.91614 0.36357 0.0
C581 C 0.99005 0.96603 0.3646 0.0
C582 C 0.99208 0.76018 0.40055 0.0
C583 C 0.9937 0.73499 0.38048 0.0
C584 C 0.995 0.81076 0.40169 0.0
C585 C 0.99985 0.83666 0.38286 0.0
C586 C 1.00301 0.8099 0.36354 0.0
C587 C 0.99977 0.75961 0.36227 0.0
H588 H 0.79777 0.76193 0.42564 0.0
H589 H 0.78145 0.72735 0.3604 0.0
H590 H 0.7908 0.84712 0.42089 0.0
H591 H 0.77368 0.81312 0.35604 0.0
H592 H 0.7931 0.96954 0.34326 0.0
H593 H 0.7878 0.88321 0.34882 0.0
H594 H 0.77487 0.91382 0.41619 0.0
H595 H 0.781 0.00086 0.4109 0.0
C596 C 0.79238 0.77227 0.41041 0.0
C597 C 0.79065 0.7382 0.39304 0.0
C598 C 0.78813 0.82129 0.40782 0.0
C599 C 0.78188 0.83738 0.3879 0.0
C600 C 0.77882 0.80218 0.37138 0.0
C601 C 0.78327 0.75305 0.37386 0.0
C602 C 0.78896 0.9582 0.35923 0.0
C603 C 0.78803 -0.00822 0.37693 0.0
C604 C 0.78567 0.90848 0.36233 0.0
C605 C 0.78119 0.89119 0.38312 0.0
C606 C 0.7787 0.92575 0.40013 0.0
C607 C 0.78218 0.97564 0.39711 0.0
H608 H 0.54665 0.7158 0.67486 0.0
H609 H 0.53102 0.75023 0.60921 0.0
H610 H 0.54044 0.63 0.66947 0.0
H611 H 0.52409 0.66382 0.60417 0.0
H612 H 0.54447 0.5085 0.59169 0.0
H613 H 0.53905 0.59481 0.5974 0.0
H614 H 0.52461 0.56267 0.66388 0.0
H615 H 0.53076 0.47569 0.65848 0.0
C616 C 0.54158 0.70528 0.6594 0.0
C617 C 0.5398 0.73961 0.64214 0.0
C618 C 0.53778 0.65591 0.65643 0.0
C619 C 0.53196 0.63971 0.63623 0.0
C620 C 0.52888 0.67494 0.61975 0.0
C621 C 0.53284 0.72445 0.62262 0.0
C622 C 0.53997 0.51951 0.60749 0.0
C623 C 0.53855 0.48546 0.62492 0.0
C624 C 0.53663 0.56919 0.61065 0.0
C625 C 0.53163 0.58597 0.63126 0.0
C626 C 0.52879 0.55107 0.64798 0.0
C627 C 0.53229 0.50123 0.64488 0.0
H628 H 0.74963 0.75073 0.65869 0.0
H629 H 0.73645 0.71911 0.59153 0.0
H630 H 0.75609 0.66387 0.6637 0.0
H631 H 0.7421 0.63294 0.59685 0.0
H632 H 0.74946 0.47733 0.60805 0.0
H633 H 0.75673 0.56356 0.60348 0.0
H634 H 0.74042 0.59645 0.6689 0.0
H635 H 0.73393 0.51085 0.67384 0.0
C636 C 0.74828 0.72548 0.64494 0.0
C637 C 0.74205 0.74147 0.625 0.0
C638 C 0.75195 0.67571 0.6478 0.0
C639 C 0.74928 0.6411 0.63088 0.0
C640 C 0.74438 0.65826 0.61028 0.0
C641 C 0.74089 0.70787 0.60734 0.0
C642 C 0.74772 0.50288 0.62159 0.0
C643 C 0.74068 0.48758 0.641 0.0
C644 C 0.75188 0.55228 0.61898 0.0
C645 C 0.74889 0.58726 0.63563 0.0
C646 C 0.74301 0.57078 0.65574 0.0
C647 C 0.73904 0.52152 0.65843 0.0
H648 H 0.49959 0.48382 0.41691 0.0
H649 H 0.48534 0.48258 0.34893 0.0
H650 H 0.50646 0.39699 0.41402 0.0
H651 H 0.4913 0.39529 0.34628 0.0
H652 H 0.5004 0.23894 0.34312 0.0
H653 H 0.50646 0.32649 0.34593 0.0
H654 H 0.4922 0.32603 0.41411 0.0
H655 H 0.48707 0.23816 0.41151 0.0
C656 C 0.4981 0.46491 0.40127 0.0
C657 C 0.4917 0.48926 0.38323 0.0
C658 C 0.50197 0.4152 0.39963 0.0
C659 C 0.49914 0.38867 0.38011 0.0
C660 C 0.49379 0.41439 0.36155 0.0
C661 C 0.49024 0.46443 0.36305 0.0
C662 C 0.49898 0.25753 0.35885 0.0
C663 C 0.49304 0.23238 0.37701 0.0
C664 C 0.50236 0.30766 0.36044 0.0
C665 C 0.49948 0.33376 0.38005 0.0
C666 C 0.4947 0.30731 0.39876 0.0
C667 C 0.49163 0.25689 0.39729 0.0
H668 H 0.28245 0.50202 0.4097 0.0
H669 H 0.29502 0.46813 0.3425 0.0
H670 H 0.27642 0.41513 0.41564 0.0
H671 H 0.2897 0.38189 0.3487 0.0
H672 H 0.28162 0.22682 0.36123 0.0
H673 H 0.27471 0.31325 0.3563 0.0
H674 H 0.29236 0.3477 0.42074 0.0
H675 H 0.29858 0.26183 0.42606 0.0
C676 C 0.28376 0.47626 0.39613 0.0
C677 C 0.28965 0.49172 0.37587 0.0
C678 C 0.28032 0.42647 0.39953 0.0
C679 C 0.28287 0.3913 0.38281 0.0
C680 C 0.28751 0.40774 0.36196 0.0
C681 C 0.29079 0.45738 0.3585 0.0
C682 C 0.28374 0.25275 0.3745 0.0
C683 C 0.29106 0.23773 0.39373 0.0
C684 C 0.27979 0.30226 0.37168 0.0
C685 C 0.28324 0.33765 0.38792 0.0
C686 C 0.28942 0.32163 0.4079 0.0
C687 C 0.29321 0.27223 0.41082 0.0
H688 H 0.54666 0.23165 0.09983 0.0
H689 H 0.5332 0.23303 0.16817 0.0
H690 H 0.54064 0.14437 0.09737 0.0
H691 H 0.5263 0.14619 0.1655 0.0
H692 H 0.5313 0.9881 0.09451 0.0
H693 H 0.52534 0.0757 0.09751 0.0
H694 H 0.54069 0.0753 0.16515 0.0
H695 H 0.54576 0.98739 0.16239 0.0
C696 C 0.54192 0.21354 0.11408 0.0
C697 C 0.5407 0.2384 0.13429 0.0
C698 C 0.53834 0.16351 0.11268 0.0
C699 C 0.53321 0.13785 0.1314 0.0
C700 C 0.53062 0.1644 0.15098 0.0
C701 C 0.53451 0.2141 0.1525 0.0
C702 C 0.533 0.00673 0.11017 0.0
C703 C 0.53923 0.9816 0.12812 0.0
C704 C 0.52966 0.05686 0.11187 0.0
C705 C 0.53286 0.08296 0.13137 0.0
C706 C 0.53795 0.05655 0.1499 0.0
C707 C 0.54098 0.00613 0.14833 0.0
H708 H 0.75084 0.97738 0.10892 0.0
H709 H 0.73521 0.01001 0.17474 0.0
H710 H 0.75841 0.06344 0.10481 0.0
H711 H 0.74195 0.09543 0.17024 0.0
H712 H 0.75091 0.24984 0.16065 0.0
H713 H 0.75747 0.163 0.16544 0.0
H714 H 0.74403 0.13313 0.09822 0.0
H715 H 0.73833 0.21928 0.09313 0.0
C716 C 0.74915 0.00268 0.12256 0.0
C717 C 0.74196 0.98724 0.14182 0.0
C718 C 0.75347 0.052 0.12022 0.0
C719 C 0.7505 0.08676 0.13698 0.0
C720 C 0.74453 0.07 0.15698 0.0
C721 C 0.7404 0.02083 0.15941 0.0
C722 C 0.7497 0.22482 0.14678 0.0
C723 C 0.7436 0.24109 0.12679 0.0
C724 C 0.75343 0.17505 0.14951 0.0
C725 C 0.75093 0.1407 0.13241 0.0
C726 C 0.74618 0.1582 0.11179 0.0
C727 C 0.74265 0.20782 0.10898 0.0
H728 H 0.49944 0.74033 0.84671 0.0
H729 H 0.48516 0.74298 0.91465 0.0
H730 H 0.50603 0.82749 0.8491 0.0
H731 H 0.49089 0.83053 0.91682 0.0
H732 H 0.48567 0.98534 0.85084 0.0
H733 H 0.49129 0.89767 0.84865 0.0
H734 H 0.50589 0.9 0.91666 0.0
H735 H 0.49939 0.98722 0.91906 0.0
C736 C 0.49791 0.75959 0.86226 0.0
C737 C 0.49155 0.73554 0.8804 0.0
C738 C 0.50162 0.80949 0.86361 0.0
C739 C 0.49869 0.83646 0.88295 0.0
C740 C 0.49344 0.81107 0.90167 0.0
C741 C 0.49003 0.76087 0.90045 0.0
C742 C 0.49042 0.96726 0.8651 0.0
C743 C 0.49179 -0.00763 0.88522 0.0
C744 C 0.49375 0.91699 0.86387 0.0
C745 C 0.49878 0.89137 0.88267 0.0
C746 C 0.50163 0.91818 0.90209 0.0
C747 C 0.49798 0.96812 0.90345 0.0
H748 H 0.29386 0.75187 0.85164 0.0
H749 H 0.2841 0.75181 0.92145 0.0
H750 H 0.28853 0.83964 0.84987 0.0
H751 H 0.27791 0.83937 0.91957 0.0
H752 H 0.27955 -0.00406 0.84748 0.0
H753 H 0.27352 0.90863 0.85161 0.0
H754 H 0.29232 0.9101 0.9172 0.0
H755 H 0.2974 -0.00206 0.91342 0.0
C756 C 0.2901 0.77041 0.86645 0.0
C757 C 0.28968 0.74552 0.88674 0.0
C758 C 0.28691 0.82077 0.86546 0.0
C759 C 0.28297 0.84695 0.88469 0.0
C760 C 0.28128 0.82072 0.90458 0.0
C761 C 0.28477 0.77057 0.90565 0.0
C762 C 0.28196 0.97765 0.863 0.0
C763 C 0.28912 0.00304 0.88004 0.0
C764 C 0.27861 0.92766 0.86533 0.0
C765 C 0.28277 0.90188 0.88449 0.0
C766 C 0.28884 0.9286 0.90224 0.0
C767 C 0.29185 0.97896 0.90009 0.0
H768 H 0.97602 0.52862 0.98912 0.0
H769 H 1.01378 0.59167 0.9577 0.0
H770 H 0.99179 0.48173 0.014 0.0
H771 H 0.02944 0.54331 0.9814 0.0
H772 H 0.055 0.48214 0.03944 0.0
H773 H 0.03924 0.53171 0.01592 0.0
H774 H 1.0074 0.4141 0.01614 0.0
H775 H 0.02291 0.36599 0.04067 0.0
C776 C 0.98767 0.53267 0.98759 0.0
C777 C 0.99358 0.56422 0.9715 0.0
C778 C 0.99677 0.50526 1.00167 0.0
C779 C 1.01203 0.50814 0.99978 0.0
C780 C 0.01784 0.54041 0.98382 0.0
C781 C 1.00878 0.5682 0.97006 0.0
C782 C 0.04474 0.46661 0.03415 0.0
C783 C 0.04027 0.41997 0.04179 0.0
C784 C 0.03562 0.49509 0.02062 0.0
C785 C 0.02187 0.47738 0.01405 0.0
C786 C 0.01768 0.42983 0.02117 0.0
C787 C 0.02669 0.40178 0.035 0.0
H788 H 0.27176 0.61807 0.96991 0.0
H789 H 0.30484 0.73048 0.97475 0.0
H790 H 0.25666 0.66377 0.99588 0.0
H791 H 0.28951 0.77779 0.99981 0.0
H792 H 0.26415 0.83242 0.05927 0.0
H793 H 0.27959 0.78543 0.0346 0.0
H794 H 0.24168 0.73253 0.99972 0.0
H795 H 0.22615 0.77786 0.02544 0.0
C796 C 0.27585 0.6525 0.97666 0.0
C797 C 0.28957 0.67038 0.97041 0.0
C798 C 0.26708 0.67922 0.99135 0.0
C799 C 0.27167 0.72511 0.99994 0.0
C800 C 0.28558 0.7424 0.99394 0.0
C801 C 0.29444 0.71521 0.97952 0.0
C802 C 0.25907 0.81114 0.04621 0.0
C803 C 0.24387 0.80915 0.04432 0.0
C804 C 0.26799 0.78414 0.03191 0.0
C805 C 0.26202 0.75474 0.01498 0.0
C806 C 0.24677 0.75376 0.01276 0.0
C807 C 0.23781 0.78029 0.02735 0.0
H808 H 0.05625 0.78048 0.24035 0.0
H809 H 0.01795 0.83947 0.20886 0.0
H810 H 0.04092 0.7344 0.26613 0.0
H811 H 1.00272 0.79183 0.2335 0.0
H812 H 0.97793 0.73316 0.29263 0.0
H813 H 0.99334 0.78217 0.26842 0.0
H814 H 0.02564 0.66606 0.26942 0.0
H815 H 1.01046 0.6185 0.29465 0.0
C816 C 0.04458 0.78382 0.239 0.0
C817 C 0.03837 0.81401 0.22263 0.0
C818 C 0.03573 0.75685 0.2536 0.0
C819 C 0.02046 0.75882 0.25198 0.0
C820 C 1.01435 0.78972 0.23572 0.0
C821 C 0.02316 0.8171 0.22143 0.0
C822 C 0.98823 0.71784 0.28742 0.0
C823 C 0.99291 0.67177 0.29545 0.0
C824 C 0.99714 0.746 0.27348 0.0
C825 C 1.01089 0.72851 0.26684 0.0
C826 C 1.01533 0.68159 0.27445 0.0
C827 C 1.00652 0.65385 0.2887 0.0
H828 H 0.22643 0.45114 0.23688 0.0
H829 H 0.2645 0.39362 0.2043 0.0
H830 H 0.24192 0.49766 0.26228 0.0
H831 H 0.27991 0.4417 0.2286 0.0
H832 H 0.30505 0.49945 0.28794 0.0
H833 H 0.28966 0.45104 0.26337 0.0
H834 H 0.25708 0.56612 0.26567 0.0
H835 H 0.27223 0.61299 0.29118 0.0
C836 C 0.2381 0.44832 0.23518 0.0
C837 C 0.24419 0.41826 0.21866 0.0
C838 C 0.24704 0.47551 0.24958 0.0
C839 C 0.2623 0.47398 0.2476 0.0
C840 C 0.2683 0.44345 0.23111 0.0
C841 C 0.2594 0.41582 0.21701 0.0
C842 C 0.29469 0.51469 0.28292 0.0
C843 C 0.28992 0.56021 0.29143 0.0
C844 C 0.2858 0.48687 0.26877 0.0
C845 C 0.27195 0.50417 0.26244 0.0
C846 C 0.26745 0.55067 0.27047 0.0
C847 C 0.27625 0.57803 0.28489 0.0
H848 H 0.80629 0.22977 0.97689 0.0
H849 H 0.77387 0.11475 0.97463 0.0
H850 H 0.79057 0.27921 1.0005 0.0
H851 H 0.7584 0.16266 0.99929 0.0
H852 H 0.7273 0.27727 0.02688 0.0
H853 H 0.74299 0.23058 1.00183 0.0
H854 H 0.78073 0.29016 0.03497 0.0
H855 H 0.76515 0.33841 0.05882 0.0
C856 C 0.79595 0.21445 0.98197 0.0
C857 C 0.79138 0.16818 0.97402 0.0
C858 C 0.78687 0.24285 0.99555 0.0
C859 C 0.77305 0.22538 1.00191 0.0
C860 C 0.76874 0.17821 0.99445 0.0
C861 C 0.77772 0.15026 0.98054 0.0
C862 C 0.73895 0.28092 0.02849 0.0
C863 C 0.74492 0.31191 0.04476 0.0
C864 C 0.748 0.25362 0.01431 0.0
C865 C 0.76326 0.25602 0.0163 0.0
C866 C 0.76913 0.28768 0.03246 0.0
C867 C 0.76012 0.31542 0.04631 0.0
H868 H 0.97785 0.23312 0.78887 0.0
H869 H 1.00966 0.11609 0.79022 0.0
H870 H 0.99371 0.28205 0.76521 0.0
H871 H 0.02526 0.16357 0.76562 0.0
H872 H 0.05694 0.27701 0.73873 0.0
H873 H 0.04101 0.23101 0.76368 0.0
H874 H 1.00358 0.29283 0.73058 0.0
H875 H 0.0194 0.3403 0.70677 0.0
C876 C 0.98807 0.21726 0.78357 0.0
C877 C 0.99243 0.17058 0.7913 0.0
C878 C 0.99724 0.24538 0.76999 0.0
C879 C 1.01094 0.22723 0.76346 0.0
C880 C 1.01502 0.17962 0.77063 0.0
C881 C 1.00595 0.15192 0.7845 0.0
C882 C 0.04531 0.28133 0.73711 0.0
C883 C 0.0395 0.31262 0.72082 0.0
C884 C 0.03612 0.25442 0.75122 0.0
C885 C 0.02087 0.2576 0.74919 0.0
C886 C 1.01517 0.28971 0.73308 0.0
C887 C 0.02432 0.31698 0.71926 0.0
H888 H 0.76261 0.38937 0.70807 0.0
H889 H 0.72486 0.44946 0.74065 0.0
H890 H 0.77827 0.43713 0.73198 0.0
H891 H 0.74066 0.49567 0.76577 0.0
H892 H 0.77168 0.61094 0.79327 0.0
H893 H 0.75608 0.56357 0.76857 0.0
H894 H 0.78829 0.44723 0.76638 0.0
H895 H 0.80412 0.49614 0.79007 0.0
C896 C 0.75761 0.41203 0.72072 0.0
C897 C 0.74242 0.41536 0.72243 0.0
C898 C 0.76668 0.43948 0.73462 0.0
C899 C 0.76088 0.47069 0.751 0.0
C900 C 0.74562 0.47296 0.75313 0.0
C901 C 0.73651 0.44593 0.73891 0.0
C902 C 0.77551 0.5756 0.78715 0.0
C903 C 0.78922 0.55759 0.79342 0.0
C904 C 0.76646 0.54795 0.77321 0.0
C905 C 0.77073 0.50099 0.76546 0.0
C906 C 0.7846 0.48343 0.77156 0.0
C907 C 0.79375 0.51154 0.78519 0.0
H908 H 0.97504 0.02358 0.48592 0.0
H909 H 1.01293 0.0853 0.45437 0.0
H910 H 0.99069 0.97748 0.51126 0.0
H911 H 0.0285 0.03775 0.47862 0.0
H912 H 0.05356 0.97961 0.53799 0.0
H913 H 0.03802 0.02793 0.5136 0.0
H914 H 1.00632 0.90988 0.51398 0.0
H915 H 0.02161 0.863 0.53928 0.0
C916 C 0.9867 0.02746 0.48445 0.0
C917 C 0.99269 0.05848 0.46821 0.0
C918 C 0.99572 0.00052 0.4988 0.0
C919 C 1.01099 0.00335 0.49706 0.0
C920 C 0.01688 0.03496 0.48091 0.0
C921 C 1.00789 0.06229 0.46685 0.0
C922 C 0.04338 0.96371 0.53256 0.0
C923 C 0.03888 0.91733 0.54047 0.0
C924 C 0.03439 -0.00853 0.51854 0.0
C925 C 0.02074 0.97327 0.51176 0.0
C926 C 0.01653 0.92596 0.51916 0.0
C927 C 0.02541 0.89862 0.53345 0.0
H928 H 0.30726 0.22512 0.48036 0.0
H929 H 0.27416 0.11266 0.47622 0.0
H930 H 0.29196 0.2732 0.50514 0.0
H931 H 0.25909 0.15913 0.50199 0.0
H932 H 0.22868 0.27444 0.53113 0.0
H933 H 0.24411 0.2278 0.50571 0.0
H934 H 0.28216 0.28208 0.53981 0.0
H935 H 0.26683 0.33036 0.56412 0.0
C936 C 0.29686 0.21001 0.48525 0.0
C937 C 0.29198 0.16492 0.47641 0.0
C938 C 0.28802 0.23763 0.49952 0.0
C939 C 0.27412 0.22054 0.50567 0.0
C940 C 0.26951 0.17442 0.49734 0.0
C941 C 0.27825 0.14727 0.48278 0.0
C942 C 0.24035 0.27685 0.53293 0.0
C943 C 0.24648 0.30654 0.54954 0.0
C944 C 0.24925 0.24959 0.51851 0.0
C945 C 0.26451 0.25065 0.52059 0.0
C946 C 0.27055 0.28073 0.53722 0.0
C947 C 0.26169 0.30847 0.55132 0.0
H948 H 0.26194 0.88887 0.70819 0.0
H949 H 0.22439 0.95393 0.73934 0.0
H950 H 0.27776 0.93613 0.73216 0.0
H951 H 0.24029 -0.0002 0.76441 0.0
H952 H 0.27184 0.11441 0.79091 0.0
H953 H 0.25622 0.06672 0.76641 0.0
H954 H 0.28744 0.94724 0.767 0.0
H955 H 0.30333 -0.00367 0.7906 0.0
C956 C 0.25702 0.91256 0.72053 0.0
C957 C 0.24184 0.91742 0.72183 0.0
C958 C 0.26616 0.93971 0.73444 0.0
C959 C 0.26045 0.97226 0.75037 0.0
C960 C 0.2452 0.97602 0.7521 0.0
C961 C 0.23602 0.94921 0.73791 0.0
C962 C 0.27546 0.07823 0.78549 0.0
C963 C 0.2889 0.05939 0.79254 0.0
C964 C 0.26638 0.05045 0.77165 0.0
C965 C 0.27036 0.00255 0.76473 0.0
C966 C 0.28398 0.98412 0.77158 0.0
C967 C 0.29316 0.01231 0.78515 0.0
H968 H 0.8057 0.69942 0.49167 0.0
H969 H 0.76839 0.63634 0.45899 0.0
H970 H 0.7896 0.7463 0.51601 0.0
H971 H 0.7524 0.68467 0.48223 0.0
H972 H 0.72632 0.74653 0.53984 0.0
H973 H 0.74223 0.6966 0.51668 0.0
H974 H 0.77401 0.81437 0.51695 0.0
H975 H 0.75835 0.8629 0.54104 0.0
C976 C 0.79408 0.69531 0.48977 0.0
C977 C 0.78838 0.66387 0.47345 0.0
C978 C 0.78479 0.72273 0.50353 0.0
C979 C 0.76957 0.71992 0.50109 0.0
C980 C 0.76397 0.68756 0.485 0.0
C981 C 0.77321 0.65977 0.47152 0.0
C982 C 0.73659 0.76202 0.53461 0.0
C983 C 0.74102 0.80879 0.54216 0.0
C984 C 0.74579 0.73332 0.52132 0.0
C985 C 0.75958 0.75097 0.51494 0.0
C986 C 0.7637 0.79871 0.52188 0.0
C987 C 0.75461 0.82699 0.53546 0.0
H988 H 0.7567 0.86456 0.22553 0.0
H989 H 0.72504 0.98209 0.22579 0.0
H990 H 0.77217 0.91236 0.25024 0.0
H991 H 0.74077 0.03132 0.24951 0.0
H992 H 0.76613 0.09104 0.30797 0.0
H993 H 0.75041 0.04299 0.28421 0.0
H994 H 0.78799 0.9795 0.25217 0.0
H995 H 0.8038 0.02608 0.2771 0.0
C996 C 0.753 0.90057 0.23104 0.0
C997 C 0.73956 0.91928 0.22391 0.0
C998 C 0.76199 0.92844 0.24497 0.0
C999 C 0.75792 0.97628 0.25185 0.0
C1000 C 0.74429 -0.00553 0.24498 0.0
C1001 C 0.73519 0.96618 0.23135 0.0
C1002 C 0.7711 0.06721 0.29572 0.0
C1003 C 0.78628 0.06258 0.29445 0.0
C1004 C 0.76201 0.0396 0.28193 0.0
C1005 C 0.76779 0.00689 0.26613 0.0
C1006 C 0.78304 0.00339 0.26439 0.0
C1007 C 0.79217 0.03061 0.27849 0.0
H1008 H 0.47626 0.52326 0.48574 0.0
H1009 H 0.51435 0.58094 0.45327 0.0
H1010 H 0.49174 0.47733 0.51136 0.0
H1011 H 0.52975 0.53348 0.47783 0.0
H1012 H 0.55471 0.4767 0.53764 0.0
H1013 H 0.53938 0.52468 0.51279 0.0
H1014 H 0.50697 0.40899 0.51479 0.0
H1015 H 0.52205 0.36254 0.54053 0.0
C1016 C 0.48792 0.52626 0.48411 0.0
C1017 C 0.49402 0.55615 0.46755 0.0
C1018 C 0.49686 0.49941 0.49864 0.0
C1019 C 0.51213 0.50114 0.49676 0.0
C1020 C 0.51813 0.53156 0.48024 0.0
C1021 C 0.50923 0.55883 0.466 0.0
C1022 C 0.5444 0.46124 0.53248 0.0
C1023 C 0.53965 0.41567 0.54098 0.0
C1024 C 0.53554 0.4888 0.51819 0.0
C1025 C 0.52176 0.4712 0.51171 0.0
C1026 C 0.51729 0.42465 0.5197 0.0
C1027 C 0.52605 0.39753 0.53426 0.0
H1028 H 0.55558 0.74871 0.72852 0.0
H1029 H 0.52306 0.86331 0.72569 0.0
H1030 H 0.54 0.7001 0.75273 0.0
H1031 H 0.50773 0.81623 0.75083 0.0
H1032 H 0.47663 0.7015 0.77829 0.0
H1033 H 0.49241 0.7479 0.75331 0.0
H1034 H 0.53003 0.6902 0.7874 0.0
H1035 H 0.51434 0.64225 0.8113 0.0
C1036 C 0.54526 0.76414 0.73359 0.0
C1037 C 0.54061 0.80999 0.72528 0.0
C1038 C 0.53625 0.73621 0.7475 0.0
C1039 C 0.52243 0.75374 0.75378 0.0
C1040 C 0.51807 0.80062 0.74603 0.0
C1041 C 0.52698 0.8281 0.73184 0.0
C1042 C 0.48828 0.69824 0.78017 0.0
C1043 C 0.49418 0.66782 0.7967 0.0
C1044 C 0.49738 0.72537 0.76602 0.0
C1045 C 0.51263 0.72338 0.76827 0.0
C1046 C 0.51844 0.69234 0.78472 0.0
C1047 C 0.50937 0.66478 0.79858 0.0
H1048 H 0.51083 0.11352 0.29218 0.0
H1049 H 0.47801 0.22691 0.2879 0.0
H1050 H 0.52611 0.15979 0.26662 0.0
H1051 H 0.4935 0.2747 0.26333 0.0
H1052 H 0.5185 0.32965 0.20384 0.0
H1053 H 0.50319 0.2824 0.22851 0.0
H1054 H 0.54125 0.22827 0.26262 0.0
H1055 H 0.55668 0.27395 0.23682 0.0
C1056 C 0.50685 0.14832 0.28568 0.0
C1057 C 0.49312 0.16624 0.2919 0.0
C1058 C 0.51571 0.17533 0.27121 0.0
C1059 C 0.51121 0.22153 0.26285 0.0
C1060 C 0.49736 0.23903 0.26897 0.0
C1061 C 0.4884 0.21158 0.28313 0.0
C1062 C 0.52365 0.30805 0.21672 0.0
C1063 C 0.53887 0.30587 0.21837 0.0
C1064 C 0.5148 0.28091 0.23104 0.0
C1065 C 0.52084 0.25117 0.24778 0.0
C1066 C 0.53611 0.24986 0.24974 0.0
C1067 C 0.54501 0.27656 0.23511 0.0
H1068 H 0.50872 0.10925 0.97079 0.0
H1069 H 0.47623 -0.00547 0.97355 0.0
H1070 H 0.52399 0.06244 0.99617 0.0
H1071 H 0.49174 0.94621 0.99796 0.0
H1072 H 0.51668 0.88981 0.0574 0.0
H1073 H 0.5013 0.93726 0.03285 0.0
H1074 H 0.53932 -0.00562 0.99967 0.0
H1075 H 0.55479 0.94848 0.02533 0.0
C1076 C 0.50481 0.07404 0.97693 0.0
C1077 C 0.49118 0.0559 0.97034 0.0
C1078 C 0.51367 0.04672 0.99128 0.0
C1079 C 0.50928 -2e-05 0.99916 0.0
C1080 C 0.4955 0.98226 0.99269 0.0
C1081 C 0.48655 0.01002 0.97863 0.0
C1082 C 0.52181 0.91213 0.04474 0.0
C1083 C 0.53702 0.9151 0.04332 0.0
C1084 C 0.51292 0.93938 0.0305 0.0
C1085 C 0.51893 0.97005 0.01408 0.0
C1086 C 0.5342 0.97209 0.01231 0.0
C1087 C 0.54312 0.94526 0.02686 0.0
H1088 H 0.17558 0.39359 0.17206 0.0
H1089 H 0.17874 0.33591 0.10559 0.0
H1090 H 0.14922 0.40035 0.16764 0.0
H1091 H 0.15272 0.34167 0.10146 0.0
H1092 H 0.10647 0.3924 0.09234 0.0
H1093 H 0.13274 0.39745 0.09734 0.0
H1094 H 0.12809 0.34792 0.16483 0.0
H1095 H 0.10198 0.34398 0.16008 0.0
C1096 C 0.17072 0.38238 0.15656 0.0
C1097 C 0.1794 0.3641 0.13927 0.0
C1098 C 0.15558 0.38608 0.15402 0.0
C1099 C 0.14877 0.37172 0.13412 0.0
C1100 C 0.15751 0.35398 0.11685 0.0
C1101 C 0.17253 0.35026 0.11937 0.0
C1102 C 0.11103 0.3829 0.10828 0.0
C1103 C 0.10201 0.36746 0.1257 0.0
C1104 C 0.12613 0.38558 0.11115 0.0
C1105 C 0.13262 0.37289 0.13151 0.0
C1106 C 0.12354 0.3586 0.14903 0.0
C1107 C 0.1085 0.35592 0.14618 0.0
H1108 H 0.10723 0.87335 0.17394 0.0
H1109 H 0.10052 0.83333 0.10566 0.0
H1110 H 0.13343 0.86954 0.16834 0.0
H1111 H 0.12655 0.82681 0.10023 0.0
H1112 H 0.17387 0.87469 0.09058 0.0
H1113 H 0.14759 0.87242 0.0958 0.0
H1114 H 0.15383 0.82152 0.16292 0.0
H1115 H 0.17992 0.82661 0.15792 0.0
C1116 C 0.11136 0.86279 0.15785 0.0
C1117 C 0.10179 0.85398 0.14025 0.0
C1118 C 0.12642 0.86036 0.15458 0.0
C1119 C 0.1323 0.8481 0.13371 0.0
C1120 C 0.1226 0.83762 0.11637 0.0
C1121 C 0.1076 0.84094 0.11954 0.0
C1122 C 0.16957 0.86254 0.10633 0.0
C1123 C 0.17897 0.85117 0.12385 0.0
C1124 C 0.15446 0.86107 0.10939 0.0
C1125 C 0.1484 0.84725 0.12994 0.0
C1126 C 0.15793 0.83376 0.14708 0.0
C1127 C 0.17296 0.83617 0.14414 0.0
H1128 H 0.85176 0.62924 0.911 0.0
H1129 H 0.85647 0.58781 0.84237 0.0
H1130 H 0.87782 0.6264 0.91573 0.0
H1131 H 0.88279 0.58374 0.84734 0.0
H1132 H 0.92881 0.64452 0.85735 0.0
H1133 H 0.90281 0.63868 0.85267 0.0
H1134 H 0.89893 0.57511 0.9179 0.0
H1135 H 0.92522 0.58207 0.92288 0.0
C1136 C 0.85832 0.61904 0.89688 0.0
C1137 C 0.85189 0.60908 0.87619 0.0
C1138 C 0.87336 0.61699 0.89971 0.0
C1139 C 0.88252 0.60486 0.88197 0.0
C1140 C 0.87611 0.5939 0.86135 0.0
C1141 C 0.86099 0.59599 0.85849 0.0
C1142 C 0.92251 0.62909 0.87079 0.0
C1143 C 0.92924 0.61391 0.8906 0.0
C1144 C 0.9075 0.62534 0.86796 0.0
C1145 C 0.89866 0.6062 0.88481 0.0
C1146 C 0.90536 0.59056 0.90461 0.0
C1147 C 0.92045 0.59441 0.90747 0.0
H1148 H 0.92637 0.1466 0.84309 0.0
H1149 H 0.93124 0.09236 0.90988 0.0
H1150 H 0.90013 0.15145 0.84854 0.0
H1151 H 0.9052 0.09604 0.91505 0.0
H1152 H 0.85816 0.14222 0.92444 0.0
H1153 H 0.88443 0.14856 0.91932 0.0
H1154 H 0.87982 0.09703 0.8521 0.0
H1155 H 0.85381 0.09186 0.85695 0.0
C1156 C 0.9219 0.13573 0.8589 0.0
C1157 C 0.93102 0.11888 0.87595 0.0
C1158 C 0.90682 0.13829 0.86203 0.0
C1159 C 0.90046 0.12403 0.88226 0.0
C1160 C 0.90963 0.10805 0.89937 0.0
C1161 C 0.92465 0.10555 0.89628 0.0
C1162 C 0.86275 0.13249 0.90855 0.0
C1163 C 0.85376 0.11641 0.89119 0.0
C1164 C 0.87784 0.13592 0.90561 0.0
C1165 C 0.88433 0.12334 0.88524 0.0
C1166 C 0.87528 0.10787 0.86788 0.0
C1167 C 0.86028 0.1045 0.87079 0.0
H1168 H 0.17687 0.84976 0.60652 0.0
H1169 H 0.17265 0.8908 0.67528 0.0
H1170 H 0.15087 0.85383 0.60205 0.0
H1171 H 0.14628 0.89608 0.67055 0.0
H1172 H 0.09971 0.83641 0.65945 0.0
H1173 H 0.12571 0.84252 0.66494 0.0
H1174 H 0.13031 0.90694 0.59999 0.0
H1175 H 0.10416 0.89967 0.5942 0.0
C1176 C 0.17043 0.86012 0.62075 0.0
C1177 C 0.177 0.86965 0.64138 0.0
C1178 C 0.15541 0.86293 0.61806 0.0
C1179 C 0.14636 0.87544 0.63586 0.0
C1180 C 0.15288 0.88581 0.65648 0.0
C1181 C 0.16802 0.88303 0.6592 0.0
C1182 C 0.10619 0.8521 0.64628 0.0
C1183 C 0.09973 0.86718 0.62624 0.0
C1184 C 0.12118 0.856 0.64956 0.0
C1185 C 0.13022 0.87516 0.63295 0.0
C1186 C 0.12374 0.89129 0.61307 0.0
C1187 C 0.10871 0.88728 0.60975 0.0
H1188 H 0.10845 0.3392 0.67497 0.0
H1189 H 0.10479 0.37463 0.60553 0.0
H1190 H 0.13483 0.33447 0.671 0.0
H1191 H 0.13091 0.37108 0.60177 0.0
H1192 H 0.17837 0.32655 0.59708 0.0
H1193 H 0.15204 0.31927 0.60135 0.0
H1194 H 0.15487 0.38954 0.66534 0.0
H1195 H 0.18091 0.39578 0.66138 0.0
C1196 C 0.11321 0.34589 0.65889 0.0
C1197 C 0.10439 0.3576 0.64066 0.0
C1198 C 0.12836 0.34341 0.6566 0.0
C1199 C 0.13508 0.35252 0.63603 0.0
C1200 C 0.1262 0.36314 0.61778 0.0
C1201 C 0.11113 0.36563 0.62005 0.0
C1202 C 0.17337 0.34024 0.61207 0.0
C1203 C 0.18187 0.36186 0.62879 0.0
C1204 C 0.15825 0.33622 0.61453 0.0
C1205 C 0.15125 0.35373 0.63376 0.0
C1206 C 0.15981 0.3748 0.65049 0.0
C1207 C 0.17484 0.37877 0.64807 0.0
H1208 H 0.85469 0.08514 0.3418 0.0
H1209 H 0.85102 0.13239 0.40983 0.0
H1210 H 0.881 0.07865 0.34629 0.0
H1211 H 0.87709 0.12707 0.41406 0.0
H1212 H 0.92421 0.07976 0.42086 0.0
H1213 H 0.89785 0.07369 0.41648 0.0
H1214 H 0.90142 0.13256 0.35034 0.0
H1215 H 0.92746 0.13751 0.35442 0.0
C1216 C 0.85944 0.0941 0.35768 0.0
C1217 C 0.85063 0.10958 0.37535 0.0
C1218 C 0.87456 0.09058 0.36026 0.0
C1219 C 0.88126 0.10244 0.38057 0.0
C1220 C 0.87239 0.11691 0.39829 0.0
C1221 C 0.85735 0.12041 0.39574 0.0
C1222 C 0.91936 0.09112 0.40536 0.0
C1223 C 0.92807 0.10928 0.38809 0.0
C1224 C 0.90423 0.08783 0.40285 0.0
C1225 C 0.89743 0.10258 0.383 0.0
C1226 C 0.90619 0.12001 0.3657 0.0
C1227 C 0.92123 0.12327 0.36819 0.0
H1228 H 0.93227 0.63818 0.41394 0.0
H1229 H 0.92563 0.60996 0.34449 0.0
H1230 H 0.90623 0.6448 0.4194 0.0
H1231 H 0.89945 0.61365 0.35003 0.0
H1232 H 0.85298 0.65515 0.36146 0.0
H1233 H 0.87909 0.66052 0.35677 0.0
H1234 H 0.88508 0.59971 0.42229 0.0
H1235 H 0.8588 0.59729 0.4273 0.0
C1236 C 0.9252 0.63321 0.3998 0.0
C1237 C 0.93104 0.62347 0.37876 0.0
C1238 C 0.9102 0.63655 0.40298 0.0
C1239 C 0.90052 0.62929 0.38528 0.0
C1240 C 0.90643 0.62034 0.3641 0.0
C1241 C 0.92149 0.61797 0.36085 0.0
C1242 C 0.8599 0.64345 0.37497 0.0
C1243 C 0.85382 0.62568 0.39475 0.0
C1244 C 0.87494 0.64604 0.37219 0.0
C1245 C 0.88441 0.6299 0.38896 0.0
C1246 C 0.87827 0.61318 0.40902 0.0
C1247 C 0.86316 0.61158 0.41195 0.0
H1248 H 0.60061 0.33542 0.65996 0.0
H1249 H 0.60518 0.39479 0.594 0.0
H1250 H 0.62664 0.34039 0.66523 0.0
H1251 H 0.63138 0.40088 0.59956 0.0
H1252 H 0.67793 0.34368 0.60695 0.0
H1253 H 0.65191 0.34737 0.60233 0.0
H1254 H 0.64721 0.39398 0.67024 0.0
H1255 H 0.67356 0.38915 0.67512 0.0
C1256 C 0.60713 0.34999 0.64657 0.0
C1257 C 0.60068 0.36441 0.62644 0.0
C1258 C 0.62213 0.35323 0.64973 0.0
C1259 C 0.63122 0.37104 0.63288 0.0
C1260 C 0.62478 0.38632 0.61285 0.0
C1261 C 0.60971 0.38301 0.60966 0.0
C1262 C 0.67145 0.35491 0.62101 0.0
C1263 C 0.67799 0.36591 0.64152 0.0
C1264 C 0.65643 0.35745 0.61823 0.0
C1265 C 0.64735 0.37114 0.63583 0.0
C1266 C 0.65383 0.38277 0.65633 0.0
C1267 C 0.66897 0.38022 0.65914 0.0
H1268 H 0.60213 0.88733 0.60693 0.0
H1269 H 0.6066 0.83447 0.67401 0.0
H1270 H 0.62819 0.88313 0.60207 0.0
H1271 H 0.63288 0.82916 0.66889 0.0
H1272 H 0.67949 0.88735 0.66014 0.0
H1273 H 0.65344 0.883 0.66509 0.0
H1274 H 0.64868 0.82912 0.59827 0.0
H1275 H 0.67494 0.83457 0.59306 0.0
C1276 C 0.60864 0.87437 0.62067 0.0
C1277 C 0.60215 0.86148 0.64097 0.0
C1278 C 0.62366 0.87156 0.61776 0.0
C1279 C 0.63273 0.85573 0.63503 0.0
C1280 C 0.62627 0.84212 0.65527 0.0
C1281 C 0.61117 0.84496 0.6582 0.0
C1282 C 0.67297 0.87437 0.64643 0.0
C1283 C 0.67943 0.86158 0.62609 0.0
C1284 C 0.65795 0.87148 0.64939 0.0
C1285 C 0.64886 0.85569 0.63213 0.0
C1286 C 0.6553 0.84208 0.61187 0.0
C1287 C 0.67039 0.84499 0.60889 0.0
H1288 H 0.42865 0.63142 0.35357 0.0
H1289 H 0.4252 0.58538 0.42179 0.0
H1290 H 0.40258 0.62778 0.34976 0.0
H1291 H 0.39878 0.58062 0.41771 0.0
H1292 H 0.35213 0.64081 0.40887 0.0
H1293 H 0.37821 0.63493 0.41341 0.0
H1294 H 0.38198 0.5744 0.34759 0.0
H1295 H 0.35573 0.58137 0.34277 0.0
C1296 C 0.42236 0.62007 0.36781 0.0
C1297 C 0.42917 0.60897 0.3881 0.0
C1298 C 0.40731 0.61754 0.36549 0.0
C1299 C 0.39847 0.60377 0.38335 0.0
C1300 C 0.40522 0.59189 0.40362 0.0
C1301 C 0.42039 0.59438 0.40596 0.0
C1302 C 0.35844 0.62604 0.3953 0.0
C1303 C 0.35171 0.6119 0.37533 0.0
C1304 C 0.37348 0.62227 0.39803 0.0
C1305 C 0.3823 0.60421 0.38091 0.0
C1306 C 0.37557 0.58915 0.36106 0.0
C1307 C 0.36049 0.59298 0.3583 0.0
H1308 H 0.43182 0.14224 0.40892 0.0
H1309 H 0.42513 0.10054 0.34087 0.0
H1310 H 0.40578 0.14843 0.41437 0.0
H1311 H 0.39892 0.10361 0.34651 0.0
H1312 H 0.35206 0.14341 0.35737 0.0
H1313 H 0.3781 0.14899 0.35175 0.0
H1314 H 0.38507 0.1026 0.41936 0.0
H1315 H 0.35891 0.10007 0.42519 0.0
C1316 C 0.42473 0.13424 0.39509 0.0
C1317 C 0.43054 0.12081 0.37446 0.0
C1318 C 0.40972 0.13728 0.39828 0.0
C1319 C 0.40002 0.12589 0.38104 0.0
C1320 C 0.40591 0.11343 0.3602 0.0
C1321 C 0.42098 0.11144 0.3569 0.0
C1322 C 0.35918 0.13484 0.3711 0.0
C1323 C 0.3534 0.12122 0.39174 0.0
C1324 C 0.37419 0.13758 0.36782 0.0
C1325 C 0.38392 0.12579 0.38496 0.0
C1326 C 0.37807 0.11285 0.40576 0.0
C1327 C 0.36301 0.11112 0.40916 0.0
H1328 H 0.67912 0.84722 0.10374 0.0
H1329 H 0.67389 0.8918 0.17189 0.0
H1330 H 0.65303 0.85032 0.09852 0.0
H1331 H 0.64766 0.896 0.16644 0.0
H1332 H 0.60206 0.83246 0.15687 0.0
H1333 H 0.62803 0.83907 0.16138 0.0
H1334 H 0.63165 0.90185 0.09597 0.0
H1335 H 0.60533 0.89428 0.09116 0.0
C1336 C 0.67244 0.85816 0.11763 0.0
C1337 C 0.67872 0.86882 0.13836 0.0
C1338 C 0.65741 0.86034 0.11452 0.0
C1339 C 0.64815 0.87323 0.13203 0.0
C1340 C 0.65442 0.88518 0.15263 0.0
C1341 C 0.6695 0.883 0.15576 0.0
C1342 C 0.60828 0.84789 0.14334 0.0
C1343 C 0.60146 0.86271 0.12355 0.0
C1344 C 0.62327 0.85209 0.14608 0.0
C1345 C 0.63203 0.8713 0.12915 0.0
C1346 C 0.62527 0.88649 0.10933 0.0
C1347 C 0.61016 0.8823 0.10658 0.0
H1348 H 0.67678 0.33274 0.09254 0.0
H1349 H 0.68034 0.38396 0.16002 0.0
H1350 H 0.65047 0.32617 0.09702 0.0
H1351 H 0.65426 0.37854 0.16422 0.0
H1352 H 0.60722 0.33025 0.17139 0.0
H1353 H 0.6336 0.32469 0.16717 0.0
H1354 H 0.62998 0.37997 0.10042 0.0
H1355 H 0.60392 0.38442 0.10435 0.0
C1356 C 0.672 0.34259 0.1083 0.0
C1357 C 0.68078 0.35913 0.12582 0.0
C1358 C 0.65689 0.339 0.11087 0.0
C1359 C 0.65016 0.3519 0.13102 0.0
C1360 C 0.65899 0.36755 0.14859 0.0
C1361 C 0.67403 0.37108 0.14605 0.0
C1362 C 0.61206 0.34092 0.15579 0.0
C1363 C 0.60334 0.35794 0.1383 0.0
C1364 C 0.62721 0.33794 0.15337 0.0
C1365 C 0.634 0.35183 0.1334 0.0
C1366 C 0.62522 0.36812 0.11589 0.0
C1367 C 0.61017 0.3711 0.11829 0.0
H1368 H 0.42871 0.1306 0.85282 0.0
H1369 H 0.4245 0.08779 0.92134 0.0
H1370 H 0.40259 0.12784 0.84855 0.0
H1371 H 0.39813 0.08402 0.91684 0.0
H1372 H 0.3522 0.14874 0.90744 0.0
H1373 H 0.37823 0.14087 0.91191 0.0
H1374 H 0.38139 0.07588 0.84687 0.0
H1375 H 0.35515 0.08469 0.84213 0.0
C1376 C 0.42224 0.12012 0.86701 0.0
C1377 C 0.42883 0.10981 0.88754 0.0
C1378 C 0.40718 0.11812 0.86444 0.0
C1379 C 0.39816 0.10578 0.88231 0.0
C1380 C 0.40472 0.09429 0.90276 0.0
C1381 C 0.41986 0.09619 0.90533 0.0
C1382 C 0.35836 0.13257 0.89402 0.0
C1383 C 0.35146 0.11764 0.87431 0.0
C1384 C 0.37336 0.12763 0.89672 0.0
C1385 C 0.382 0.10765 0.87981 0.0
C1386 C 0.37512 0.09197 0.86019 0.0
C1387 C 0.36004 0.09684 0.85748 0.0
H1388 H 0.42525 0.64341 0.84146 0.0
H1389 H 0.42782 0.59517 0.90947 0.0
H1390 H 0.39885 0.65022 0.84503 0.0
H1391 H 0.40175 0.60086 0.91278 0.0
H1392 H 0.35518 0.6512 0.91898 0.0
H1393 H 0.38151 0.65609 0.91478 0.0
H1394 H 0.37792 0.59739 0.8486 0.0
H1395 H 0.35177 0.59361 0.85253 0.0
C1396 C 0.42025 0.63433 0.85713 0.0
C1397 C 0.42877 0.61856 0.87509 0.0
C1398 C 0.40509 0.63801 0.85918 0.0
C1399 C 0.3981 0.62615 0.87924 0.0
C1400 C 0.40668 0.61113 0.8972 0.0
C1401 C 0.42173 0.60743 0.89517 0.0
C1402 C 0.36 0.63959 0.9035 0.0
C1403 C 0.35126 0.6218 0.88619 0.0
C1404 C 0.37513 0.64221 0.9011 0.0
C1405 C 0.38192 0.62702 0.88133 0.0
C1406 C 0.37313 0.61011 0.86393 0.0
C1407 C 0.35806 0.60756 0.86631 0.0
H1408 H 0.05378 0.97229 0.12147 0.0
H1409 H 0.07121 0.02507 0.18344 0.0
H1410 H 0.05594 0.05506 0.10591 0.0
H1411 H 0.07351 0.10812 0.16773 0.0
H1412 H 0.0536 0.25452 0.14138 0.0
H1413 H 0.05568 0.17152 0.15649 0.0
H1414 H 0.07351 0.11996 0.0946 0.0
H1415 H 0.07132 0.20361 0.07931 0.0
C1416 C 0.0582 0.00151 0.13171 0.0
C1417 C 0.06219 -0.00762 0.15376 0.0
C1418 C 0.05956 0.04884 0.12272 0.0
C1419 C 0.06486 0.08809 0.13561 0.0
C1420 C 0.06924 0.07864 0.15748 0.0
C1421 C 0.06796 0.03115 0.16646 0.0
C1422 C 0.05806 0.22563 0.131 0.0
C1423 C 0.06221 0.23546 0.1091 0.0
C1424 C 0.05937 0.17812 0.13975 0.0
C1425 C 0.06477 0.13924 0.12675 0.0
C1426 C 0.0692 0.1492 0.10494 0.0
C1427 C 0.06798 0.197 0.09621 0.0
H1428 H 0.22683 0.9706 0.1436 0.0
H1429 H 0.20982 0.02081 0.08094 0.0
H1430 H 0.22452 0.05374 0.15851 0.0
H1431 H 0.20732 0.10442 0.09604 0.0
H1432 H 0.22787 0.25094 0.12133 0.0
H1433 H 0.2251 0.16778 0.10679 0.0
H1434 H 0.20741 0.11957 0.1693 0.0
H1435 H 0.21034 0.20344 0.18407 0.0
C1436 C 0.22244 -0.00067 0.13307 0.0
C1437 C 0.21866 -0.01062 0.11101 0.0
C1438 C 0.22098 0.04691 0.14171 0.0
C1439 C 0.21577 0.08564 0.12845 0.0
C1440 C 0.21152 0.07534 0.10658 0.0
C1441 C 0.21292 0.02756 0.09794 0.0
C1442 C 0.22328 0.22279 0.13197 0.0
C1443 C 0.21944 0.23358 0.15392 0.0
C1444 C 0.22157 0.17518 0.12354 0.0
C1445 C 0.21602 0.13714 0.13687 0.0
C1446 C 0.21182 0.14813 0.1587 0.0
C1447 C 0.21348 0.19604 0.16714 0.0
H1448 H 0.96115 0.77812 0.93436 0.0
H1449 H 0.97734 0.72488 0.8717 0.0
H1450 H 0.95906 0.8615 0.91883 0.0
H1451 H 0.97537 0.80777 0.85634 0.0
H1452 H 0.97948 0.00677 0.89143 0.0
H1453 H 0.977 0.92414 0.90686 0.0
H1454 H 0.95794 0.87327 0.8457 0.0
H1455 H 0.96053 0.95641 0.83008 0.0
C1456 C 0.96417 0.78417 0.91727 0.0
C1457 C 0.96953 0.74517 0.9043 0.0
C1458 C 0.963 0.83182 0.9084 0.0
C1459 C 0.96708 0.84113 0.88638 0.0
C1460 C 0.97198 0.80167 0.87327 0.0
C1461 C 0.97323 0.75425 0.88215 0.0
C1462 C 0.97466 0.9781 0.88129 0.0
C1463 C 0.97031 0.9879 0.85947 0.0
C1464 C 0.97313 0.93083 0.89022 0.0
C1465 C 0.96728 0.89224 0.8775 0.0
C1466 C 0.9626 0.90227 0.85582 0.0
C1467 C 0.96406 0.94978 0.8469 0.0
H1468 H 0.80754 0.94697 0.93791 0.0
H1469 H 0.8189 0.00807 0.87446 0.0
H1470 H 0.80773 0.86418 0.92219 0.0
H1471 H 0.82078 0.92555 0.85904 0.0
H1472 H 0.80713 0.77866 0.82992 0.0
H1473 H 0.80833 0.86121 0.84576 0.0
H1474 H 0.8192 0.79731 0.90938 0.0
H1475 H 0.81631 0.71533 0.89378 0.0
C1476 C 0.81047 0.94232 0.92069 0.0
C1477 C 0.81313 0.9836 0.90734 0.0
C1478 C 0.81073 0.89475 0.9116 0.0
C1479 C 0.81422 0.88736 0.88911 0.0
C1480 C 0.81757 0.92915 0.87616 0.0
C1481 C 0.81671 0.9767 0.88505 0.0
C1482 C 0.80977 0.78267 0.84728 0.0
C1483 C 0.81156 0.7409 0.86068 0.0
C1484 C 0.81063 0.83009 0.85644 0.0
C1485 C 0.81385 0.83676 0.87907 0.0
C1486 C 0.81624 0.79436 0.89213 0.0
C1487 C 0.81479 0.74707 0.88314 0.0
H1488 H 0.05163 0.75141 0.64016 0.0
H1489 H 0.07125 0.70389 0.57888 0.0
H1490 H 0.0546 0.66872 0.6553 0.0
H1491 H 0.07433 0.62063 0.5942 0.0
H1492 H 0.05619 0.46975 0.62006 0.0
H1493 H 0.05753 0.55284 0.60466 0.0
H1494 H 0.07314 0.60826 0.66728 0.0
H1495 H 0.07168 0.5248 0.68283 0.0
C1496 C 0.05669 0.72335 0.62997 0.0
C1497 C 0.06111 0.734 0.60827 0.0
C1498 C 0.0585 0.67605 0.63873 0.0
C1499 C 0.06472 0.63821 0.62596 0.0
C1500 C 0.0694 0.64903 0.60436 0.0
C1501 C 0.06766 0.69661 0.59562 0.0
C1502 C 0.06003 0.49956 0.63051 0.0
C1503 C 0.06369 0.49093 0.65272 0.0
C1504 C 0.0609 0.5471 0.62162 0.0
C1505 C 0.06539 0.58707 0.63478 0.0
C1506 C 0.06949 0.57818 0.65682 0.0
C1507 C 0.0687 0.53047 0.6657 0.0
H1508 H 0.21153 0.52012 0.58326 0.0
H1509 H 0.23 0.47673 0.64598 0.0
H1510 H 0.20759 0.60377 0.59767 0.0
H1511 H 0.22622 0.55979 0.66019 0.0
H1512 H 0.20891 0.70469 0.68553 0.0
H1513 H 0.2075 0.62044 0.67079 0.0
H1514 H 0.22386 0.67243 0.60803 0.0
H1515 H 0.2251 0.75616 0.62258 0.0
C1516 C 0.21468 0.52838 0.60011 0.0
C1517 C 0.22117 0.49208 0.61343 0.0
C1518 C 0.21244 0.57617 0.60835 0.0
C1519 C 0.21658 0.58827 0.63008 0.0
C1520 C 0.22271 0.55146 0.64351 0.0
C1521 C 0.22501 0.50395 0.63527 0.0
C1522 C 0.21204 0.69808 0.66853 0.0
C1523 C 0.21726 0.73681 0.65528 0.0
C1524 C 0.21127 0.64993 0.66011 0.0
C1525 C 0.21564 0.63985 0.63828 0.0
C1526 C 0.22027 0.67907 0.62482 0.0
C1527 C 0.22111 0.727 0.63325 0.0
H1528 H 0.97861 0.50254 0.39369 0.0
H1529 H 0.95974 0.45778 0.33143 0.0
H1530 H 0.9756 0.41909 0.40792 0.0
H1531 H 0.9566 0.37376 0.34585 0.0
H1532 H 0.97581 0.22308 0.36984 0.0
H1533 H 0.97378 0.30691 0.35562 0.0
H1534 H 0.95745 0.35627 0.41881 0.0
H1535 H 0.9596 0.27188 0.4332 0.0
C1536 C 0.97369 0.47494 0.3831 0.0
C1537 C 0.96953 0.48653 0.36136 0.0
C1538 C 0.97184 0.4272 0.39135 0.0
C1539 C 0.96586 0.3899 0.37801 0.0
C1540 C 0.96135 0.40175 0.35643 0.0
C1541 C 0.96312 0.44975 0.3482 0.0
C1542 C 0.97166 0.25167 0.38067 0.0
C1543 C 0.968 0.24108 0.40271 0.0
C1544 C 0.97038 0.29964 0.37244 0.0
C1545 C 0.96549 0.33816 0.3861 0.0
C1546 C 0.96139 0.32732 0.40797 0.0
C1547 C 0.96259 0.2791 0.41619 0.0
H1548 H 0.80241 0.22507 0.39342 0.0
H1549 H 0.82065 0.27404 0.33139 0.0
H1550 H 0.80534 0.30779 0.40858 0.0
H1551 H 0.82376 0.35721 0.34674 0.0
H1552 H 0.80561 0.50705 0.37312 0.0
H1553 H 0.80708 0.42403 0.35772 0.0
H1554 H 0.82348 0.36938 0.42001 0.0
H1555 H 0.82181 0.45274 0.43559 0.0
C1556 C 0.80717 0.25345 0.38308 0.0
C1557 C 0.81119 0.24324 0.36115 0.0
C1558 C 0.80897 0.30077 0.39184 0.0
C1559 C 0.81478 0.339 0.37886 0.0
C1560 C 0.81912 0.32854 0.35706 0.0
C1561 C 0.81737 0.281 0.3483 0.0
C1562 C 0.80964 0.47743 0.3835 0.0
C1563 C 0.81345 0.48622 0.40564 0.0
C1564 C 0.8106 0.42992 0.3746 0.0
C1565 C 0.81535 0.39016 0.38767 0.0
C1566 C 0.81962 0.39926 0.40963 0.0
C1567 C 0.81871 0.44693 0.41852 0.0
H1568 H 0.55374 0.97103 0.62398 0.0
H1569 H 0.57097 0.02544 0.6858 0.0
H1570 H 0.55568 0.05341 0.60811 0.0
H1571 H 0.57298 0.10841 0.66976 0.0
H1572 H 0.55235 0.25329 0.64205 0.0
H1573 H 0.55486 0.17107 0.65788 0.0
H1574 H 0.57326 0.11824 0.59661 0.0
H1575 H 0.57067 0.20107 0.5806 0.0
C1576 C 0.55807 0.00054 0.63414 0.0
C1577 C 0.56208 -0.0081 0.65621 0.0
C1578 C 0.55929 0.04768 0.62496 0.0
C1579 C 0.56448 0.08736 0.63768 0.0
C1580 C 0.56884 0.07853 0.65963 0.0
C1581 C 0.56771 0.03112 0.66879 0.0
C1582 C 0.55703 0.2243 0.63196 0.0
C1583 C 0.56121 0.23351 0.61001 0.0
C1584 C 0.55858 0.17726 0.64113 0.0
C1585 C 0.56426 0.13823 0.6285 0.0
C1586 C 0.56874 0.14761 0.60666 0.0
C1587 C 0.56728 0.19494 0.59752 0.0
H1588 H 0.72629 0.25575 0.62231 0.0
H1589 H 0.70982 0.20212 0.68473 0.0
H1590 H 0.72426 0.17301 0.60677 0.0
H1591 H 0.70766 0.11896 0.66902 0.0
H1592 H 0.72801 0.97377 0.6418 0.0
H1593 H 0.72562 0.05643 0.65718 0.0
H1594 H 0.70684 0.10754 0.59586 0.0
H1595 H 0.70935 0.02429 0.58028 0.0
C1596 C 0.7221 0.22634 0.63266 0.0
C1597 C 0.71834 0.23525 0.65481 0.0
C1598 C 0.72082 0.17901 0.62367 0.0
C1599 C 0.71583 0.13951 0.63668 0.0
C1600 C 0.71168 0.14868 0.65868 0.0
C1601 C 0.71288 0.19621 0.66765 0.0
C1602 C 0.72327 0.00248 0.6316 0.0
C1603 C 0.71897 -0.00731 0.60976 0.0
C1604 C 0.72179 0.04978 0.64051 0.0
C1605 C 0.71603 0.08844 0.62774 0.0
C1606 C 0.71142 0.07847 0.60602 0.0
C1607 C 0.71283 0.0309 0.59712 0.0
H1608 H 0.47748 0.7208 0.36919 0.0
H1609 H 0.46066 0.77025 0.43208 0.0
H1610 H 0.47497 0.80393 0.35443 0.0
H1611 H 0.458 0.854 0.41712 0.0
H1612 H 0.47826 0.00105 0.3912 0.0
H1613 H 0.47563 0.91802 0.40601 0.0
H1614 H 0.45746 0.86895 0.34393 0.0
H1615 H 0.46023 0.95262 0.32891 0.0
C1616 C 0.4731 0.74937 0.37981 0.0
C1617 C 0.4694 0.73916 0.40188 0.0
C1618 C 0.47153 0.79695 0.37126 0.0
C1619 C 0.4663 0.83549 0.3846 0.0
C1620 C 0.46219 0.82503 0.40652 0.0
C1621 C 0.46369 0.77719 0.41507 0.0
C1622 C 0.47359 0.97273 0.38072 0.0
C1623 C 0.46958 0.98319 0.3588 0.0
C1624 C 0.47196 0.92521 0.38931 0.0
C1625 C 0.46635 0.88697 0.37615 0.0
C1626 C 0.46194 0.89768 0.35439 0.0
C1627 C 0.4635 0.94549 0.34581 0.0
H1628 H 0.30336 0.72387 0.39188 0.0
H1629 H 0.32106 0.77592 0.32998 0.0
H1630 H 0.30598 0.80612 0.40758 0.0
H1631 H 0.32375 0.85888 0.34588 0.0
H1632 H 0.30481 0.00651 0.37404 0.0
H1633 H 0.30652 0.92424 0.35791 0.0
H1634 H 0.32422 0.86825 0.41911 0.0
H1635 H 0.32241 0.95098 0.43541 0.0
C1636 C 0.30792 0.75284 0.38165 0.0
C1637 C 0.31192 0.74353 0.35963 0.0
C1638 C 0.30954 0.79992 0.39075 0.0
C1639 C 0.31509 0.83894 0.37799 0.0
C1640 C 0.31934 0.82952 0.35605 0.0
C1641 C 0.31783 0.78212 0.34697 0.0
C1642 C 0.30917 0.97678 0.38404 0.0
C1643 C 0.31335 0.98505 0.40608 0.0
C1644 C 0.31026 0.92971 0.3747 0.0
C1645 C 0.31547 0.88978 0.38724 0.0
C1646 C 0.32003 0.89829 0.40912 0.0
C1647 C 0.31902 0.94558 0.41843 0.0
H1648 H 0.5718 0.51996 0.18229 0.0
H1649 H 0.55497 0.46937 0.11956 0.0
H1650 H 0.57411 0.60371 0.1672 0.0
H1651 H 0.55713 0.55248 0.10468 0.0
H1652 H 0.57114 0.70179 0.07893 0.0
H1653 H 0.57429 0.6183 0.09397 0.0
H1654 H 0.55616 0.66673 0.15617 0.0
H1655 H 0.55316 0.74956 0.14134 0.0
C1656 C 0.5687 0.52665 0.16528 0.0
C1657 C 0.56308 0.48831 0.15218 0.0
C1658 C 0.57 0.57449 0.15666 0.0
C1659 C 0.56578 0.58462 0.13476 0.0
C1660 C 0.56065 0.54576 0.12149 0.0
C1661 C 0.55929 0.49819 0.13012 0.0
C1662 C 0.56795 0.69454 0.09585 0.0
C1663 C 0.56179 0.73201 0.10888 0.0
C1664 C 0.56974 0.64685 0.10445 0.0
C1665 C 0.56547 0.63603 0.12626 0.0
C1666 C 0.55974 0.67403 0.13943 0.0
C1667 C 0.5579 0.72143 0.13083 0.0
H1668 H 0.71133 0.52389 0.0816 0.0
H1669 H 0.72843 0.47394 0.14424 0.0
H1670 H 0.70841 0.60721 0.09683 0.0
H1671 H 0.72564 0.5569 0.15932 0.0
H1672 H 0.70904 0.70411 0.18509 0.0
H1673 H 0.70742 0.6203 0.16986 0.0
H1674 H 0.72569 0.67239 0.10837 0.0
H1675 H 0.72721 0.75566 0.12342 0.0
C1676 C 0.71438 0.53065 0.09863 0.0
C1677 C 0.72022 0.49259 0.11168 0.0
C1678 C 0.71274 0.57828 0.10732 0.0
C1679 C 0.71682 0.58854 0.12925 0.0
C1680 C 0.72224 0.55002 0.14246 0.0
C1681 C 0.72395 0.50258 0.13374 0.0
C1682 C 0.71259 0.6976 0.16827 0.0
C1683 C 0.71835 0.73626 0.15551 0.0
C1684 C 0.7117 0.6497 0.15958 0.0
C1685 C 0.71645 0.63983 0.13793 0.0
C1686 C 0.72179 0.67892 0.125 0.0
C1687 C 0.72276 0.72658 0.13371 0.0
H1688 H 0.47725 0.22389 0.87188 0.0
H1689 H 0.45879 0.27093 0.93408 0.0
H1690 H 0.47481 0.30729 0.85745 0.0
H1691 H 0.45622 0.35504 0.91943 0.0
H1692 H 0.47645 0.5038 0.89487 0.0
H1693 H 0.47379 0.42046 0.90941 0.0
H1694 H 0.45718 0.37127 0.84634 0.0
H1695 H 0.46 0.45512 0.83162 0.0
C1696 C 0.47252 0.25199 0.88242 0.0
C1697 C 0.46832 0.24101 0.9042 0.0
C1698 C 0.47101 0.29973 0.87405 0.0
C1699 C 0.46532 0.3377 0.88729 0.0
C1700 C 0.46075 0.32651 0.90892 0.0
C1701 C 0.4622 0.27847 0.91728 0.0
C1702 C 0.47212 0.47536 0.88412 0.0
C1703 C 0.46858 0.48581 0.86202 0.0
C1704 C 0.47046 0.42768 0.89255 0.0
C1705 C 0.46531 0.38932 0.87902 0.0
C1706 C 0.46132 0.40008 0.85708 0.0
C1707 C 0.46291 0.44799 0.84867 0.0
H1708 H 0.33249 0.26187 0.84333 0.0
H1709 H 0.28846 0.25116 0.86714 0.0
H1710 H 0.33406 0.34687 0.8582 0.0
H1711 H 0.28987 0.33582 0.88115 0.0
H1712 H 0.29497 0.50737 0.87302 0.0
H1713 H 0.29664 0.42545 0.85633 0.0
H1714 H 0.32809 0.38206 0.90542 0.0
H1715 H 0.32628 0.46442 0.92265 0.0
C1716 C 0.32314 0.27803 0.85141 0.0
C1717 C 0.31034 0.25051 0.85407 0.0
C1718 C 0.32407 0.32613 0.86003 0.0
C1719 C 0.31208 0.34727 0.87079 0.0
C1720 C 0.29923 0.31999 0.87295 0.0
C1721 C 0.29844 0.27181 0.86492 0.0
C1722 C 0.30233 0.4806 0.88023 0.0
C1723 C 0.3104 0.49205 0.89927 0.0
C1724 C 0.30331 0.43391 0.8706 0.0
C1725 C 0.31255 0.39805 0.87956 0.0
C1726 C 0.321 0.40964 0.89817 0.0
C1727 C 0.31986 0.45637 0.90808 0.0
loop_
_geom_bond_atom_site_label_1
_geom_bond_atom_site_label_2
_geom_bond_distance
_geom_bond_site_symmetry_2
_ccdc_geom_bond_type
Co0 O1 2.216 . S
Co0 O2 2.091 . S
Co0 O4 2.004 . S
Co0 O10 2.021 . S
Co0 O12 2.137 . S
Co0 O13 2.244 . S
O1 Co0 2.216 . S
O1 C8 1.247 . S
O2 Co0 2.091 . S
O2 C8 1.261 . S
C3 O12 1.247 . S
C3 O13 1.272 . S
O4 Co0 2.004 . S
O4 C9 1.259 . S
Co5 O6 2.061 . S
Co5 O11 2.052 . S
Co5 O13 2.135 . S
O6 Co5 2.061 . S
O6 C9 1.235 . S
C7 O10 1.238 . S
C7 O11 1.241 . S
C8 O1 1.247 . S
C8 O2 1.261 . S
C9 O4 1.259 . S
C9 O6 1.235 . S
O10 Co0 2.021 . S
O10 C7 1.238 . S
O11 Co5 2.052 . S
O11 C7 1.241 . S
O12 Co0 2.137 . S
O12 C3 1.247 . S
O13 Co0 2.244 . S
O13 C3 1.272 . S
O13 Co5 2.135 . S
Co14 O15 2.216 . S
Co14 O16 2.091 . S
Co14 O18 2.004 . S
Co14 O24 2.021 . S
Co14 O26 2.137 . S
Co14 O27 2.244 . S
O15 Co14 2.216 . S
O15 C22 1.247 . S
O16 Co14 2.091 . S
O16 C22 1.261 . S
C17 O26 1.247 . S
C17 O27 1.272 . S
O18 Co14 2.004 . S
O18 C23 1.259 . S
Co19 O20 2.061 . S
Co19 O25 2.052 . S
Co19 O27 2.135 . S
O20 Co19 2.061 . S
O20 C23 1.235 . S
C21 O24 1.238 . S
C21 O25 1.241 . S
C22 O15 1.247 . S
C22 O16 1.261 . S
C23 O18 1.259 . S
C23 O20 1.235 . S
O24 Co14 2.021 . S
O24 C21 1.238 . S
O25 Co19 2.052 . S
O25 C21 1.241 . S
O26 Co14 2.137 . S
O26 C17 1.247 . S
O27 Co14 2.244 . S
O27 C17 1.272 . S
O27 Co19 2.135 . S
Co28 O29 2.216 . S
Co28 O30 2.091 . S
Co28 O32 2.004 . S
Co28 O38 2.021 . S
Co28 O40 2.137 . S
Co28 O41 2.244 . S
O29 Co28 2.216 . S
O29 C36 1.247 . S
O30 Co28 2.091 . S
O30 C36 1.261 . S
C31 O40 1.247 . S
C31 O41 1.272 . S
O32 Co28 2.004 . S
O32 C37 1.259 . S
Co33 O34 2.061 . S
Co33 O39 2.052 . S
Co33 O41 2.135 . S
O34 Co33 2.061 . S
O34 C37 1.235 . S
C35 O38 1.238 . S
C35 O39 1.241 . S
C36 O29 1.247 . S
C36 O30 1.261 . S
C37 O32 1.259 . S
C37 O34 1.235 . S
O38 Co28 2.021 . S
O38 C35 1.238 . S
O39 Co33 2.052 . S
O39 C35 1.241 . S
O40 Co28 2.137 . S
O40 C31 1.247 . S
O41 Co28 2.244 . S
O41 C31 1.272 . S
O41 Co33 2.135 . S
Co42 O43 2.216 . S
Co42 O44 2.091 . S
Co42 O46 2.004 . S
Co42 O52 2.021 . S
Co42 O54 2.137 . S
Co42 O55 2.244 . S
O43 Co42 2.216 . S
O43 C50 1.247 . S
O44 Co42 2.091 . S
O44 C50 1.261 . S
C45 O54 1.247 . S
C45 O55 1.272 . S
O46 Co42 2.004 . S
O46 C51 1.259 . S
Co47 O48 2.061 . S
Co47 O53 2.052 . S
Co47 O55 2.135 . S
O48 Co47 2.061 . S
O48 C51 1.235 . S
C49 O52 1.238 . S
C49 O53 1.241 . S
C50 O43 1.247 . S
C50 O44 1.261 . S
C51 O46 1.259 . S
C51 O48 1.235 . S
O52 Co42 2.021 . S
O52 C49 1.238 . S
O53 Co47 2.052 . S
O53 C49 1.241 . S
O54 Co42 2.137 . S
O54 C45 1.247 . S
O55 Co42 2.244 . S
O55 C45 1.272 . S
O55 Co47 2.135 . S
Co56 O57 2.216 . S
Co56 O58 2.091 . S
Co56 O60 2.004 . S
Co56 O66 2.021 . S
Co56 O68 2.137 . S
Co56 O69 2.244 . S
O57 Co56 2.216 . S
O57 C64 1.247 . S
O58 Co56 2.091 . S
O58 C64 1.261 . S
C59 O68 1.247 . S
C59 O69 1.272 . S
O60 Co56 2.004 . S
O60 C65 1.259 . S
Co61 O62 2.061 . S
Co61 O67 2.052 . S
Co61 O69 2.135 . S
O62 Co61 2.061 . S
O62 C65 1.235 . S
C63 O66 1.238 . S
C63 O67 1.241 . S
C64 O57 1.247 . S
C64 O58 1.261 . S
C65 O60 1.259 . S
C65 O62 1.235 . S
O66 Co56 2.021 . S
O66 C63 1.238 . S
O67 Co61 2.052 . S
O67 C63 1.241 . S
O68 Co56 2.137 . S
O68 C59 1.247 . S
O69 Co56 2.244 . S
O69 C59 1.272 . S
O69 Co61 2.135 . S
Co70 O71 2.216 . S
Co70 O72 2.091 . S
Co70 O74 2.004 . S
Co70 O80 2.021 . S
Co70 O82 2.137 . S
Co70 O83 2.244 . S
O71 Co70 2.216 . S
O71 C78 1.247 . S
O72 Co70 2.091 . S
O72 C78 1.261 . S
C73 O82 1.247 . S
C73 O83 1.272 . S
O74 Co70 2.004 . S
O74 C79 1.259 . S
Co75 O76 2.061 . S
Co75 O81 2.052 . S
Co75 O83 2.135 . S
O76 Co75 2.061 . S
O76 C79 1.235 . S
C77 O80 1.238 . S
C77 O81 1.241 . S
C78 O71 1.247 . S
C78 O72 1.261 . S
C79 O74 1.259 . S
C79 O76 1.235 . S
O80 Co70 2.021 . S
O80 C77 1.238 . S
O81 Co75 2.052 . S
O81 C77 1.241 . S
O82 Co70 2.137 . S
O82 C73 1.247 . S
O83 Co70 2.244 . S
O83 C73 1.272 . S
O83 Co75 2.135 . S
Co84 O85 2.216 . S
Co84 O86 2.091 . S
Co84 O88 2.004 . S
Co84 O94 2.021 . S
Co84 O96 2.137 . S
Co84 O97 2.244 . S
O85 Co84 2.216 . S
O85 C92 1.247 . S
O86 Co84 2.091 . S
O86 C92 1.261 . S
C87 O96 1.247 . S
C87 O97 1.272 . S
O88 Co84 2.004 . S
O88 C93 1.259 . S
Co89 O90 2.061 . S
Co89 O95 2.052 . S
Co89 O97 2.135 . S
O90 Co89 2.061 . S
O90 C93 1.235 . S
C91 O94 1.238 . S
C91 O95 1.241 . S
C92 O85 1.247 . S
C92 O86 1.261 . S
C93 O88 1.259 . S
C93 O90 1.235 . S
O94 Co84 2.021 . S
O94 C91 1.238 . S
O95 Co89 2.052 . S
O95 C91 1.241 . S
O96 Co84 2.137 . S
O96 C87 1.247 . S
O97 Co84 2.244 . S
O97 C87 1.272 . S
O97 Co89 2.135 . S
Co98 O99 2.216 . S
Co98 O100 2.091 . S
Co98 O102 2.004 . S
Co98 O108 2.021 . S
Co98 O110 2.137 . S
Co98 O111 2.244 . S
O99 Co98 2.216 . S
O99 C106 1.247 . S
O100 Co98 2.091 . S
O100 C106 1.261 . S
C101 O110 1.247 . S
C101 O111 1.272 . S
O102 Co98 2.004 . S
O102 C107 1.259 . S
Co103 O104 2.061 . S
Co103 O109 2.052 . S
Co103 O111 2.135 . S
O104 Co103 2.061 . S
O104 C107 1.235 . S
C105 O108 1.238 . S
C105 O109 1.241 . S
C106 O99 1.247 . S
C106 O100 1.261 . S
C107 O102 1.259 . S
C107 O104 1.235 . S
O108 Co98 2.021 . S
O108 C105 1.238 . S
O109 Co103 2.052 . S
O109 C105 1.241 . S
O110 Co98 2.137 . S
O110 C101 1.247 . S
O111 Co98 2.244 . S
O111 C101 1.272 . S
O111 Co103 2.135 . S
Co112 O113 2.216 . S
Co112 O114 2.091 . S
Co112 O116 2.004 . S
Co112 O122 2.021 . S
Co112 O124 2.137 . S
Co112 O125 2.244 . S
O113 Co112 2.216 . S
O113 C120 1.247 . S
O114 Co112 2.091 . S
O114 C120 1.261 . S
C115 O124 1.247 . S
C115 O125 1.272 . S
O116 Co112 2.004 . S
O116 C121 1.259 . S
Co117 O118 2.061 . S
Co117 O123 2.052 . S
Co117 O125 2.135 . S
O118 Co117 2.061 . S
O118 C121 1.235 . S
C119 O122 1.238 . S
C119 O123 1.241 . S
C120 O113 1.247 . S
C120 O114 1.261 . S
C121 O116 1.259 . S
C121 O118 1.235 . S
O122 Co112 2.021 . S
O122 C119 1.238 . S
O123 Co117 2.052 . S
O123 C119 1.241 . S
O124 Co112 2.137 . S
O124 C115 1.247 . S
O125 Co112 2.244 . S
O125 C115 1.272 . S
O125 Co117 2.135 . S
Co126 O127 2.216 . S
Co126 O128 2.091 . S
Co126 O130 2.004 . S
Co126 O136 2.021 . S
Co126 O138 2.137 . S
Co126 O139 2.244 . S
O127 Co126 2.216 . S
O127 C134 1.247 . S
O128 Co126 2.091 . S
O128 C134 1.261 . S
C129 O138 1.247 . S
C129 O139 1.272 . S
O130 Co126 2.004 . S
O130 C135 1.259 . S
Co131 O132 2.061 . S
Co131 O137 2.052 . S
Co131 O139 2.135 . S
O132 Co131 2.061 . S
O132 C135 1.235 . S
C133 O136 1.238 . S
C133 O137 1.241 . S
C134 O127 1.247 . S
C134 O128 1.261 . S
C135 O130 1.259 . S
C135 O132 1.235 . S
O136 Co126 2.021 . S
O136 C133 1.238 . S
O137 Co131 2.052 . S
O137 C133 1.241 . S
O138 Co126 2.137 . S
O138 C129 1.247 . S
O139 Co126 2.244 . S
O139 C129 1.272 . S
O139 Co131 2.135 . S
Co140 O141 2.216 . S
Co140 O142 2.091 . S
Co140 O144 2.004 . S
Co140 O150 2.021 . S
Co140 O152 2.137 . S
Co140 O153 2.244 . S
O141 Co140 2.216 . S
O141 C148 1.247 . S
O142 Co140 2.091 . S
O142 C148 1.261 . S
C143 O152 1.247 . S
C143 O153 1.272 . S
O144 Co140 2.004 . S
O144 C149 1.259 . S
Co145 O146 2.061 . S
Co145 O151 2.052 . S
Co145 O153 2.135 . S
O146 Co145 2.061 . S
O146 C149 1.235 . S
C147 O150 1.238 . S
C147 O151 1.241 . S
C148 O141 1.247 . S
C148 O142 1.261 . S
C149 O144 1.259 . S
C149 O146 1.235 . S
O150 Co140 2.021 . S
O150 C147 1.238 . S
O151 Co145 2.052 . S
O151 C147 1.241 . S
O152 Co140 2.137 . S
O152 C143 1.247 . S
O153 Co140 2.244 . S
O153 C143 1.272 . S
O153 Co145 2.135 . S
Co154 O155 2.216 . S
Co154 O156 2.091 . S
Co154 O158 2.004 . S
Co154 O164 2.021 . S
Co154 O166 2.137 . S
Co154 O167 2.244 . S
O155 Co154 2.216 . S
O155 C162 1.247 . S
O156 Co154 2.091 . S
O156 C162 1.261 . S
C157 O166 1.247 . S
C157 O167 1.272 . S
O158 Co154 2.004 . S
O158 C163 1.259 . S
Co159 O160 2.061 . S
Co159 O165 2.052 . S
Co159 O167 2.135 . S
O160 Co159 2.061 . S
O160 C163 1.235 . S
C161 O164 1.238 . S
C161 O165 1.241 . S
C162 O155 1.247 . S
C162 O156 1.261 . S
C163 O158 1.259 . S
C163 O160 1.235 . S
O164 Co154 2.021 . S
O164 C161 1.238 . S
O165 Co159 2.052 . S
O165 C161 1.241 . S
O166 Co154 2.137 . S
O166 C157 1.247 . S
O167 Co154 2.244 . S
O167 C157 1.272 . S
O167 Co159 2.135 . S
Co168 O169 2.216 . S
Co168 O170 2.091 . S
Co168 O172 2.004 . S
Co168 O178 2.021 . S
Co168 O180 2.137 . S
Co168 O181 2.244 . S
O169 Co168 2.216 . S
O169 C176 1.247 . S
O170 Co168 2.091 . S
O170 C176 1.261 . S
C171 O180 1.247 . S
C171 O181 1.272 . S
O172 Co168 2.004 . S
O172 C177 1.259 . S
Co173 O174 2.061 . S
Co173 O179 2.052 . S
Co173 O181 2.135 . S
O174 Co173 2.061 . S
O174 C177 1.235 . S
C175 O178 1.238 . S
C175 O179 1.241 . S
C176 O169 1.247 . S
C176 O170 1.261 . S
C177 O172 1.259 . S
C177 O174 1.235 . S
O178 Co168 2.021 . S
O178 C175 1.238 . S
O179 Co173 2.052 . S
O179 C175 1.241 . S
O180 Co168 2.137 . S
O180 C171 1.247 . S
O181 Co168 2.244 . S
O181 C171 1.272 . S
O181 Co173 2.135 . S
Co182 O183 2.216 . S
Co182 O184 2.091 . S
Co182 O186 2.004 . S
Co182 O192 2.021 . S
Co182 O194 2.137 . S
Co182 O195 2.244 . S
O183 Co182 2.216 . S
O183 C190 1.247 . S
O184 Co182 2.091 . S
O184 C190 1.261 . S
C185 O194 1.247 . S
C185 O195 1.272 . S
O186 Co182 2.004 . S
O186 C191 1.259 . S
Co187 O188 2.061 . S
Co187 O193 2.052 . S
Co187 O195 2.135 . S
O188 Co187 2.061 . S
O188 C191 1.235 . S
C189 O192 1.238 . S
C189 O193 1.241 . S
C190 O183 1.247 . S
C190 O184 1.261 . S
C191 O186 1.259 . S
C191 O188 1.235 . S
O192 Co182 2.021 . S
O192 C189 1.238 . S
O193 Co187 2.052 . S
O193 C189 1.241 . S
O194 Co182 2.137 . S
O194 C185 1.247 . S
O195 Co182 2.244 . S
O195 C185 1.272 . S
O195 Co187 2.135 . S
Co196 O197 2.216 . S
Co196 O198 2.091 . S
Co196 O200 2.004 . S
Co196 O206 2.021 . S
Co196 O208 2.137 . S
Co196 O209 2.244 . S
O197 Co196 2.216 . S
O197 C204 1.247 . S
O198 Co196 2.091 . S
O198 C204 1.261 . S
C199 O208 1.247 . S
C199 O209 1.272 . S
O200 Co196 2.004 . S
O200 C205 1.259 . S
Co201 O202 2.061 . S
Co201 O207 2.052 . S
Co201 O209 2.135 . S
O202 Co201 2.061 . S
O202 C205 1.235 . S
C203 O206 1.238 . S
C203 O207 1.241 . S
C204 O197 1.247 . S
C204 O198 1.261 . S
C205 O200 1.259 . S
C205 O202 1.235 . S
O206 Co196 2.021 . S
O206 C203 1.238 . S
O207 Co201 2.052 . S
O207 C203 1.241 . S
O208 Co196 2.137 . S
O208 C199 1.247 . S
O209 Co196 2.244 . S
O209 C199 1.272 . S
O209 Co201 2.135 . S
Co210 O211 2.216 . S
Co210 O212 2.091 . S
Co210 O214 2.004 . S
Co210 O220 2.021 . S
Co210 O222 2.137 . S
Co210 O223 2.244 . S
O211 Co210 2.216 . S
O211 C218 1.247 . S
O212 Co210 2.091 . S
O212 C218 1.261 . S
C213 O222 1.247 . S
C213 O223 1.272 . S
O214 Co210 2.004 . S
O214 C219 1.259 . S
Co215 O216 2.061 . S
Co215 O221 2.052 . S
Co215 O223 2.135 . S
O216 Co215 2.061 . S
O216 C219 1.235 . S
C217 O220 1.238 . S
C217 O221 1.241 . S
C218 O211 1.247 . S
C218 O212 1.261 . S
C219 O214 1.259 . S
C219 O216 1.235 . S
O220 Co210 2.021 . S
O220 C217 1.238 . S
O221 Co215 2.052 . S
O221 C217 1.241 . S
O222 Co210 2.137 . S
O222 C213 1.247 . S
O223 Co210 2.244 . S
O223 C213 1.272 . S
O223 Co215 2.135 . S
Co224 O225 2.216 . S
Co224 O226 2.091 . S
Co224 O228 2.004 . S
Co224 O234 2.021 . S
Co224 O236 2.137 . S
Co224 O237 2.244 . S
O225 Co224 2.216 . S
O225 C232 1.247 . S
O226 Co224 2.091 . S
O226 C232 1.261 . S
C227 O236 1.247 . S
C227 O237 1.272 . S
O228 Co224 2.004 . S
O228 C233 1.259 . S
Co229 O230 2.061 . S
Co229 O235 2.052 . S
Co229 O237 2.135 . S
O230 Co229 2.061 . S
O230 C233 1.235 . S
C231 O234 1.238 . S
C231 O235 1.241 . S
C232 O225 1.247 . S
C232 O226 1.261 . S
C233 O228 1.259 . S
C233 O230 1.235 . S
O234 Co224 2.021 . S
O234 C231 1.238 . S
O235 Co229 2.052 . S
O235 C231 1.241 . S
O236 Co224 2.137 . S
O236 C227 1.247 . S
O237 Co224 2.244 . S
O237 C227 1.272 . S
O237 Co229 2.135 . S
Co238 O239 2.216 . S
Co238 O240 2.091 . S
Co238 O242 2.004 . S
Co238 O248 2.021 . S
Co238 O250 2.137 . S
Co238 O251 2.244 . S
O239 Co238 2.216 . S
O239 C246 1.247 . S
O240 Co238 2.091 . S
O240 C246 1.261 . S
C241 O250 1.247 . S
C241 O251 1.272 . S
O242 Co238 2.004 . S
O242 C247 1.259 . S
Co243 O244 2.061 . S
Co243 O249 2.052 . S
Co243 O251 2.135 . S
O244 Co243 2.061 . S
O244 C247 1.235 . S
C245 O248 1.238 . S
C245 O249 1.241 . S
C246 O239 1.247 . S
C246 O240 1.261 . S
C247 O242 1.259 . S
C247 O244 1.235 . S
O248 Co238 2.021 . S
O248 C245 1.238 . S
O249 Co243 2.052 . S
O249 C245 1.241 . S
O250 Co238 2.137 . S
O250 C241 1.247 . S
O251 Co238 2.244 . S
O251 C241 1.272 . S
O251 Co243 2.135 . S
Co252 O253 2.216 . S
Co252 O254 2.091 . S
Co252 O256 2.004 . S
Co252 O262 2.021 . S
Co252 O264 2.137 . S
Co252 O265 2.244 . S
O253 Co252 2.216 . S
O253 C260 1.247 . S
O254 Co252 2.091 . S
O254 C260 1.261 . S
C255 O264 1.247 . S
C255 O265 1.272 . S
O256 Co252 2.004 . S
O256 C261 1.259 . S
Co257 O258 2.061 . S
Co257 O263 2.052 . S
Co257 O265 2.135 . S
O258 Co257 2.061 . S
O258 C261 1.235 . S
C259 O262 1.238 . S
C259 O263 1.241 . S
C260 O253 1.247 . S
C260 O254 1.261 . S
C261 O256 1.259 . S
C261 O258 1.235 . S
O262 Co252 2.021 . S
O262 C259 1.238 . S
O263 Co257 2.052 . S
O263 C259 1.241 . S
O264 Co252 2.137 . S
O264 C255 1.247 . S
O265 Co252 2.244 . S
O265 C255 1.272 . S
O265 Co257 2.135 . S
Co266 O267 2.216 . S
Co266 O268 2.091 . S
Co266 O270 2.004 . S
Co266 O276 2.021 . S
Co266 O278 2.137 . S
Co266 O279 2.244 . S
O267 Co266 2.216 . S
O267 C274 1.247 . S
O268 Co266 2.091 . S
O268 C274 1.261 . S
C269 O278 1.247 . S
C269 O279 1.272 . S
O270 Co266 2.004 . S
O270 C275 1.259 . S
Co271 O272 2.061 . S
Co271 O277 2.052 . S
Co271 O279 2.135 . S
O272 Co271 2.061 . S
O272 C275 1.235 . S
C273 O276 1.238 . S
C273 O277 1.241 . S
C274 O267 1.247 . S
C274 O268 1.261 . S
C275 O270 1.259 . S
C275 O272 1.235 . S
O276 Co266 2.021 . S
O276 C273 1.238 . S
O277 Co271 2.052 . S
O277 C273 1.241 . S
O278 Co266 2.137 . S
O278 C269 1.247 . S
O279 Co266 2.244 . S
O279 C269 1.272 . S
O279 Co271 2.135 . S
Co280 O281 2.216 . S
Co280 O282 2.091 . S
Co280 O284 2.004 . S
Co280 O290 2.021 . S
Co280 O292 2.137 . S
Co280 O293 2.244 . S
O281 Co280 2.216 . S
O281 C288 1.247 . S
O282 Co280 2.091 . S
O282 C288 1.261 . S
C283 O292 1.247 . S
C283 O293 1.272 . S
O284 Co280 2.004 . S
O284 C289 1.259 . S
Co285 O286 2.061 . S
Co285 O291 2.052 . S
Co285 O293 2.135 . S
O286 Co285 2.061 . S
O286 C289 1.235 . S
C287 O290 1.238 . S
C287 O291 1.241 . S
C288 O281 1.247 . S
C288 O282 1.261 . S
C289 O284 1.259 . S
C289 O286 1.235 . S
O290 Co280 2.021 . S
O290 C287 1.238 . S
O291 Co285 2.052 . S
O291 C287 1.241 . S
O292 Co280 2.137 . S
O292 C283 1.247 . S
O293 Co280 2.244 . S
O293 C283 1.272 . S
O293 Co285 2.135 . S
Co294 O295 2.216 . S
Co294 O296 2.091 . S
Co294 O298 2.004 . S
Co294 O304 2.021 . S
Co294 O306 2.137 . S
Co294 O307 2.244 . S
O295 Co294 2.216 . S
O295 C302 1.247 . S
O296 Co294 2.091 . S
O296 C302 1.261 . S
C297 O306 1.247 . S
C297 O307 1.272 . S
O298 Co294 2.004 . S
O298 C303 1.259 . S
Co299 O300 2.061 . S
Co299 O305 2.052 . S
Co299 O307 2.135 . S
O300 Co299 2.061 . S
O300 C303 1.235 . S
C301 O304 1.238 . S
C301 O305 1.241 . S
C302 O295 1.247 . S
C302 O296 1.261 . S
C303 O298 1.259 . S
C303 O300 1.235 . S
O304 Co294 2.021 . S
O304 C301 1.238 . S
O305 Co299 2.052 . S
O305 C301 1.241 . S
O306 Co294 2.137 . S
O306 C297 1.247 . S
O307 Co294 2.244 . S
O307 C297 1.272 . S
O307 Co299 2.135 . S
Co308 O309 2.216 . S
Co308 O310 2.091 . S
Co308 O312 2.004 . S
Co308 O318 2.021 . S
Co308 O320 2.137 . S
Co308 O321 2.244 . S
O309 Co308 2.216 . S
O309 C316 1.247 . S
O310 Co308 2.091 . S
O310 C316 1.261 . S
C311 O320 1.247 . S
C311 O321 1.272 . S
O312 Co308 2.004 . S
O312 C317 1.259 . S
Co313 O314 2.061 . S
Co313 O319 2.052 . S
Co313 O321 2.135 . S
O314 Co313 2.061 . S
O314 C317 1.235 . S
C315 O318 1.238 . S
C315 O319 1.241 . S
C316 O309 1.247 . S
C316 O310 1.261 . S
C317 O312 1.259 . S
C317 O314 1.235 . S
O318 Co308 2.021 . S
O318 C315 1.238 . S
O319 Co313 2.052 . S
O319 C315 1.241 . S
O320 Co308 2.137 . S
O320 C311 1.247 . S
O321 Co308 2.244 . S
O321 C311 1.272 . S
O321 Co313 2.135 . S
Co322 O323 2.216 . S
Co322 O324 2.091 . S
Co322 O326 2.004 . S
Co322 O332 2.021 . S
Co322 O334 2.137 . S
Co322 O335 2.244 . S
O323 Co322 2.216 . S
O323 C330 1.247 . S
O324 Co322 2.091 . S
O324 C330 1.261 . S
C325 O334 1.247 . S
C325 O335 1.272 . S
O326 Co322 2.004 . S
O326 C331 1.259 . S
Co327 O328 2.061 . S
Co327 O333 2.052 . S
Co327 O335 2.135 . S
O328 Co327 2.061 . S
O328 C331 1.235 . S
C329 O332 1.238 . S
C329 O333 1.241 . S
C330 O323 1.247 . S
C330 O324 1.261 . S
C331 O326 1.259 . S
C331 O328 1.235 . S
O332 Co322 2.021 . S
O332 C329 1.238 . S
O333 Co327 2.052 . S
O333 C329 1.241 . S
O334 Co322 2.137 . S
O334 C325 1.247 . S
O335 Co322 2.244 . S
O335 C325 1.272 . S
O335 Co327 2.135 . S
Co336 O337 2.216 . S
Co336 O338 2.091 . S
Co336 O340 2.004 . S
Co336 O346 2.021 . S
Co336 O348 2.137 . S
Co336 O349 2.244 . S
O337 Co336 2.216 . S
O337 C344 1.247 . S
O338 Co336 2.091 . S
O338 C344 1.261 . S
C339 O348 1.247 . S
C339 O349 1.272 . S
O340 Co336 2.004 . S
O340 C345 1.259 . S
Co341 O342 2.061 . S
Co341 O347 2.052 . S
Co341 O349 2.135 . S
O342 Co341 2.061 . S
O342 C345 1.235 . S
C343 O346 1.238 . S
C343 O347 1.241 . S
C344 O337 1.247 . S
C344 O338 1.261 . S
C345 O340 1.259 . S
C345 O342 1.235 . S
O346 Co336 2.021 . S
O346 C343 1.238 . S
O347 Co341 2.052 . S
O347 C343 1.241 . S
O348 Co336 2.137 . S
O348 C339 1.247 . S
O349 Co336 2.244 . S
O349 C339 1.272 . S
O349 Co341 2.135 . S
Co350 O351 2.216 . S
Co350 O352 2.091 . S
Co350 O354 2.004 . S
Co350 O360 2.021 . S
Co350 O362 2.137 . S
Co350 O363 2.244 . S
O351 Co350 2.216 . S
O351 C358 1.247 . S
O352 Co350 2.091 . S
O352 C358 1.261 . S
C353 O362 1.247 . S
C353 O363 1.272 . S
O354 Co350 2.004 . S
O354 C359 1.259 . S
Co355 O356 2.061 . S
Co355 O361 2.052 . S
Co355 O363 2.135 . S
O356 Co355 2.061 . S
O356 C359 1.235 . S
C357 O360 1.238 . S
C357 O361 1.241 . S
C358 O351 1.247 . S
C358 O352 1.261 . S
C359 O354 1.259 . S
C359 O356 1.235 . S
O360 Co350 2.021 . S
O360 C357 1.238 . S
O361 Co355 2.052 . S
O361 C357 1.241 . S
O362 Co350 2.137 . S
O362 C353 1.247 . S
O363 Co350 2.244 . S
O363 C353 1.272 . S
O363 Co355 2.135 . S
Co364 O365 2.216 . S
Co364 O366 2.091 . S
Co364 O368 2.004 . S
Co364 O374 2.021 . S
Co364 O376 2.137 . S
Co364 O377 2.244 . S
O365 Co364 2.216 . S
O365 C372 1.247 . S
O366 Co364 2.091 . S
O366 C372 1.261 . S
C367 O376 1.247 . S
C367 O377 1.272 . S
O368 Co364 2.004 . S
O368 C373 1.259 . S
Co369 O370 2.061 . S
Co369 O375 2.052 . S
Co369 O377 2.135 . S
O370 Co369 2.061 . S
O370 C373 1.235 . S
C371 O374 1.238 . S
C371 O375 1.241 . S
C372 O365 1.247 . S
C372 O366 1.261 . S
C373 O368 1.259 . S
C373 O370 1.235 . S
O374 Co364 2.021 . S
O374 C371 1.238 . S
O375 Co369 2.052 . S
O375 C371 1.241 . S
O376 Co364 2.137 . S
O376 C367 1.247 . S
O377 Co364 2.244 . S
O377 C367 1.272 . S
O377 Co369 2.135 . S
Co378 O379 2.216 . S
Co378 O380 2.091 . S
Co378 O382 2.004 . S
Co378 O388 2.021 . S
Co378 O390 2.137 . S
Co378 O391 2.244 . S
O379 Co378 2.216 . S
O379 C386 1.247 . S
O380 Co378 2.091 . S
O380 C386 1.261 . S
C381 O390 1.247 . S
C381 O391 1.272 . S
O382 Co378 2.004 . S
O382 C387 1.259 . S
Co383 O384 2.061 . S
Co383 O389 2.052 . S
Co383 O391 2.135 . S
O384 Co383 2.061 . S
O384 C387 1.235 . S
C385 O388 1.238 . S
C385 O389 1.241 . S
C386 O379 1.247 . S
C386 O380 1.261 . S
C387 O382 1.259 . S
C387 O384 1.235 . S
O388 Co378 2.021 . S
O388 C385 1.238 . S
O389 Co383 2.052 . S
O389 C385 1.241 . S
O390 Co378 2.137 . S
O390 C381 1.247 . S
O391 Co378 2.244 . S
O391 C381 1.272 . S
O391 Co383 2.135 . S
Co392 O393 2.216 . S
Co392 O394 2.091 . S
Co392 O396 2.004 . S
Co392 O402 2.021 . S
Co392 O404 2.137 . S
Co392 O405 2.244 . S
O393 Co392 2.216 . S
O393 C400 1.247 . S
O394 Co392 2.091 . S
O394 C400 1.261 . S
C395 O404 1.247 . S
C395 O405 1.272 . S
O396 Co392 2.004 . S
O396 C401 1.259 . S
Co397 O398 2.061 . S
Co397 O403 2.052 . S
Co397 O405 2.135 . S
O398 Co397 2.061 . S
O398 C401 1.235 . S
C399 O402 1.238 . S
C399 O403 1.241 . S
C400 O393 1.247 . S
C400 O394 1.261 . S
C401 O396 1.259 . S
C401 O398 1.235 . S
O402 Co392 2.021 . S
O402 C399 1.238 . S
O403 Co397 2.052 . S
O403 C399 1.241 . S
O404 Co392 2.137 . S
O404 C395 1.247 . S
O405 Co392 2.244 . S
O405 C395 1.272 . S
O405 Co397 2.135 . S
Co406 O407 2.216 . S
Co406 O408 2.091 . S
Co406 O410 2.004 . S
Co406 O416 2.021 . S
Co406 O418 2.137 . S
Co406 O419 2.244 . S
O407 Co406 2.216 . S
O407 C414 1.247 . S
O408 Co406 2.091 . S
O408 C414 1.261 . S
C409 O418 1.247 . S
C409 O419 1.272 . S
O410 Co406 2.004 . S
O410 C415 1.259 . S
Co411 O412 2.061 . S
Co411 O417 2.052 . S
Co411 O419 2.135 . S
O412 Co411 2.061 . S
O412 C415 1.235 . S
C413 O416 1.238 . S
C413 O417 1.241 . S
C414 O407 1.247 . S
C414 O408 1.261 . S
C415 O410 1.259 . S
C415 O412 1.235 . S
O416 Co406 2.021 . S
O416 C413 1.238 . S
O417 Co411 2.052 . S
O417 C413 1.241 . S
O418 Co406 2.137 . S
O418 C409 1.247 . S
O419 Co406 2.244 . S
O419 C409 1.272 . S
O419 Co411 2.135 . S
Co420 O421 2.216 . S
Co420 O422 2.091 . S
Co420 O424 2.004 . S
Co420 O430 2.021 . S
Co420 O432 2.137 . S
Co420 O433 2.244 . S
O421 Co420 2.216 . S
O421 C428 1.247 . S
O422 Co420 2.091 . S
O422 C428 1.261 . S
C423 O432 1.247 . S
C423 O433 1.272 . S
O424 Co420 2.004 . S
O424 C429 1.259 . S
Co425 O426 2.061 . S
Co425 O431 2.052 . S
Co425 O433 2.135 . S
O426 Co425 2.061 . S
O426 C429 1.235 . S
C427 O430 1.238 . S
C427 O431 1.241 . S
C428 O421 1.247 . S
C428 O422 1.261 . S
C429 O424 1.259 . S
C429 O426 1.235 . S
O430 Co420 2.021 . S
O430 C427 1.238 . S
O431 Co425 2.052 . S
O431 C427 1.241 . S
O432 Co420 2.137 . S
O432 C423 1.247 . S
O433 Co420 2.244 . S
O433 C423 1.272 . S
O433 Co425 2.135 . S
Co434 O435 2.216 . S
Co434 O436 2.091 . S
Co434 O438 2.004 . S
Co434 O444 2.021 . S
Co434 O446 2.137 . S
Co434 O447 2.244 . S
O435 Co434 2.216 . S
O435 C442 1.247 . S
O436 Co434 2.091 . S
O436 C442 1.261 . S
C437 O446 1.247 . S
C437 O447 1.272 . S
O438 Co434 2.004 . S
O438 C443 1.259 . S
Co439 O440 2.061 . S
Co439 O445 2.052 . S
Co439 O447 2.135 . S
O440 Co439 2.061 . S
O440 C443 1.235 . S
C441 O444 1.238 . S
C441 O445 1.241 . S
C442 O435 1.247 . S
C442 O436 1.261 . S
C443 O438 1.259 . S
C443 O440 1.235 . S
O444 Co434 2.021 . S
O444 C441 1.238 . S
O445 Co439 2.052 . S
O445 C441 1.241 . S
O446 Co434 2.137 . S
O446 C437 1.247 . S
O447 Co434 2.244 . S
O447 C437 1.272 . S
O447 Co439 2.135 . S
H448 C456 0.950 . S
H449 C461 0.950 . S
H450 C458 0.950 . S
H451 C460 0.950 . S
H452 C462 0.950 . S
H453 C464 0.950 . S
H454 C466 0.950 . S
H455 C467 0.950 . S
C456 H448 0.950 . S
C456 C457 1.386 . S
C456 C458 1.391 . S
C457 C456 1.386 . S
C457 C461 1.393 . S
C458 H450 0.950 . S
C458 C456 1.391 . S
C458 C459 1.400 . S
C459 C458 1.400 . S
C459 C460 1.398 . S
C459 C465 1.491 . S
C460 H451 0.950 . S
C460 C459 1.398 . S
C460 C461 1.391 . S
C461 H449 0.950 . S
C461 C457 1.393 . S
C461 C460 1.391 . S
C462 H452 0.950 . S
C462 C463 1.386 . S
C462 C464 1.391 . S
C463 C462 1.386 . S
C463 C467 1.393 . S
C464 H453 0.950 . S
C464 C462 1.391 . S
C464 C465 1.400 . S
C465 C459 1.491 . S
C465 C464 1.400 . S
C465 C466 1.398 . S
C466 H454 0.950 . S
C466 C465 1.398 . S
C466 C467 1.391 . S
C467 H455 0.950 . S
C467 C463 1.393 . S
C467 C466 1.391 . S
H468 C476 0.950 . S
H469 C481 0.950 . S
H470 C478 0.950 . S
H471 C480 0.950 . S
H472 C482 0.950 . S
H473 C484 0.950 . S
H474 C486 0.950 . S
H475 C487 0.950 . S
C476 H468 0.950 . S
C476 C477 1.386 . S
C476 C478 1.391 . S
C477 C476 1.386 . S
C477 C481 1.393 . S
C478 H470 0.950 . S
C478 C476 1.391 . S
C478 C479 1.400 . S
C479 C478 1.400 . S
C479 C480 1.398 . S
C479 C485 1.491 . S
C480 H471 0.950 . S
C480 C479 1.398 . S
C480 C481 1.391 . S
C481 H469 0.950 . S
C481 C477 1.393 . S
C481 C480 1.391 . S
C482 H472 0.950 . S
C482 C483 1.386 . S
C482 C484 1.391 . S
C483 C482 1.386 . S
C483 C487 1.393 . S
C484 H473 0.950 . S
C484 C482 1.391 . S
C484 C485 1.400 . S
C485 C479 1.491 . S
C485 C484 1.400 . S
C485 C486 1.398 . S
C486 H474 0.950 . S
C486 C485 1.398 . S
C486 C487 1.391 . S
C487 H475 0.950 . S
C487 C483 1.393 . S
C487 C486 1.391 . S
H488 C496 0.950 . S
H489 C501 0.950 . S
H490 C498 0.950 . S
H491 C500 0.950 . S
H492 C502 0.950 . S
H493 C504 0.950 . S
H494 C506 0.950 . S
H495 C507 0.950 . S
C496 H488 0.950 . S
C496 C497 1.386 . S
C496 C498 1.391 . S
C497 C496 1.386 . S
C497 C501 1.393 . S
C498 H490 0.950 . S
C498 C496 1.391 . S
C498 C499 1.400 . S
C499 C498 1.400 . S
C499 C500 1.398 . S
C499 C505 1.491 . S
C500 H491 0.950 . S
C500 C499 1.398 . S
C500 C501 1.391 . S
C501 H489 0.950 . S
C501 C497 1.393 . S
C501 C500 1.391 . S
C502 H492 0.950 . S
C502 C503 1.386 . S
C502 C504 1.391 . S
C503 C502 1.386 . S
C503 C507 1.393 . S
C504 H493 0.950 . S
C504 C502 1.391 . S
C504 C505 1.400 . S
C505 C499 1.491 . S
C505 C504 1.400 . S
C505 C506 1.398 . S
C506 H494 0.950 . S
C506 C505 1.398 . S
C506 C507 1.391 . S
C507 H495 0.950 . S
C507 C503 1.393 . S
C507 C506 1.391 . S
H508 C516 0.950 . S
H509 C521 0.950 . S
H510 C518 0.950 . S
H511 C520 0.950 . S
H512 C522 0.950 . S
H513 C524 0.950 . S
H514 C526 0.950 . S
H515 C527 0.950 . S
C516 H508 0.950 . S
C516 C517 1.386 . S
C516 C518 1.391 . S
C517 C516 1.386 . S
C517 C521 1.393 . S
C518 H510 0.950 . S
C518 C516 1.391 . S
C518 C519 1.400 . S
C519 C518 1.400 . S
C519 C520 1.398 . S
C519 C525 1.491 . S
C520 H511 0.950 . S
C520 C519 1.398 . S
C520 C521 1.391 . S
C521 H509 0.950 . S
C521 C517 1.393 . S
C521 C520 1.391 . S
C522 H512 0.950 . S
C522 C523 1.386 . S
C522 C524 1.391 . S
C523 C522 1.386 . S
C523 C527 1.393 . S
C524 H513 0.950 . S
C524 C522 1.391 . S
C524 C525 1.400 . S
C525 C519 1.491 . S
C525 C524 1.400 . S
C525 C526 1.398 . S
C526 H514 0.950 . S
C526 C525 1.398 . S
C526 C527 1.391 . S
C527 H515 0.950 . S
C527 C523 1.393 . S
C527 C526 1.391 . S
H528 C536 0.950 1_565 S
H529 C541 0.949 1_565 S
H530 C538 0.950 . S
H531 C540 0.950 . S
H532 C542 0.950 . S
H533 C544 0.950 . S
H534 C546 0.950 . S
H535 C547 0.950 . S
C536 H528 0.950 1_545 S
C536 C537 1.386 1_545 S
C536 C538 1.391 . S
C537 C536 1.386 1_565 S
C537 C541 1.393 1_565 S
C538 H530 0.950 . S
C538 C536 1.391 . S
C538 C539 1.400 . S
C539 C538 1.400 . S
C539 C540 1.398 . S
C539 C545 1.491 . S
C540 H531 0.950 . S
C540 C539 1.398 . S
C540 C541 1.391 . S
C541 H529 0.949 1_545 S
C541 C537 1.393 1_545 S
C541 C540 1.391 . S
C542 H532 0.950 . S
C542 C543 1.386 . S
C542 C544 1.391 . S
C543 C542 1.386 . S
C543 C547 1.393 . S
C544 H533 0.950 . S
C544 C542 1.391 . S
C544 C545 1.400 . S
C545 C539 1.491 . S
C545 C544 1.400 . S
C545 C546 1.398 . S
C546 H534 0.950 . S
C546 C545 1.398 . S
C546 C547 1.391 . S
C547 H535 0.950 . S
C547 C543 1.393 . S
C547 C546 1.391 . S
H548 C556 0.950 1_565 S
H549 C561 0.944 1_565 S
H550 C558 0.950 . S
H551 C560 0.950 . S
H552 C562 0.950 . S
H553 C564 0.950 . S
H554 C566 0.950 . S
H555 C567 0.950 . S
C556 H548 0.950 1_545 S
C556 C557 1.386 1_545 S
C556 C558 1.391 . S
C557 C556 1.386 1_565 S
C557 C561 1.393 1_565 S
C558 H550 0.950 . S
C558 C556 1.391 . S
C558 C559 1.400 . S
C559 C558 1.400 . S
C559 C560 1.398 . S
C559 C565 1.491 . S
C560 H551 0.950 . S
C560 C559 1.398 . S
C560 C561 1.391 . S
C561 H549 0.944 1_545 S
C561 C557 1.393 1_545 S
C561 C560 1.391 . S
C562 H552 0.950 . S
C562 C563 1.386 . S
C562 C564 1.391 . S
C563 C562 1.386 . S
C563 C567 1.393 . S
C564 H553 0.950 . S
C564 C562 1.391 . S
C564 C565 1.400 . S
C565 C559 1.491 . S
C565 C564 1.400 . S
C565 C566 1.398 . S
C566 H554 0.950 . S
C566 C565 1.398 . S
C566 C567 1.391 . S
C567 H555 0.950 . S
C567 C563 1.393 . S
C567 C566 1.391 . S
H568 C576 0.950 1_545 S
H569 C581 0.943 1_545 S
H570 C578 0.950 . S
H571 C580 0.950 . S
H572 C582 0.950 . S
H573 C584 0.950 . S
H574 C586 0.950 . S
H575 C587 0.950 . S
C576 H568 0.950 1_565 S
C576 C577 1.386 1_565 S
C576 C578 1.391 . S
C577 C576 1.386 1_545 S
C577 C581 1.393 1_545 S
C578 H570 0.950 . S
C578 C576 1.391 . S
C578 C579 1.400 . S
C579 C578 1.400 . S
C579 C580 1.398 . S
C579 C585 1.491 . S
C580 H571 0.950 . S
C580 C579 1.398 . S
C580 C581 1.391 . S
C581 H569 0.943 1_565 S
C581 C577 1.393 1_565 S
C581 C580 1.391 . S
C582 H572 0.950 . S
C582 C583 1.386 . S
C582 C584 1.391 . S
C583 C582 1.386 . S
C583 C587 1.393 . S
C584 H573 0.950 . S
C584 C582 1.391 . S
C584 C585 1.400 . S
C585 C579 1.491 . S
C585 C584 1.400 . S
C585 C586 1.398 . S
C586 H574 0.950 . S
C586 C585 1.398 . S
C586 C587 1.391 . S
C587 H575 0.950 . S
C587 C583 1.393 . S
C587 C586 1.391 . S
H588 C596 0.950 . S
H589 C601 0.950 . S
H590 C598 0.950 . S
H591 C600 0.950 . S
H592 C602 0.946 1_545 S
H593 C604 0.950 . S
H594 C606 0.950 . S
H595 C607 0.950 1_545 S
C596 H588 0.950 . S
C596 C597 1.386 . S
C596 C598 1.391 . S
C597 C596 1.386 . S
C597 C601 1.393 . S
C598 H590 0.950 . S
C598 C596 1.391 . S
C598 C599 1.400 . S
C599 C598 1.400 . S
C599 C600 1.398 . S
C599 C605 1.491 . S
C600 H591 0.950 . S
C600 C599 1.398 . S
C600 C601 1.391 . S
C601 H589 0.950 . S
C601 C597 1.393 . S
C601 C600 1.391 . S
C602 H592 0.946 1_565 S
C602 C603 1.386 1_565 S
C602 C604 1.391 . S
C603 C602 1.386 1_545 S
C603 C607 1.393 1_545 S
C604 H593 0.950 . S
C604 C602 1.391 . S
C604 C605 1.400 . S
C605 C599 1.491 . S
C605 C604 1.400 . S
C605 C606 1.398 . S
C606 H594 0.950 . S
C606 C605 1.398 . S
C606 C607 1.391 . S
C607 H595 0.950 1_565 S
C607 C603 1.393 1_565 S
C607 C606 1.391 . S
H608 C616 0.950 . S
H609 C621 0.950 . S
H610 C618 0.950 . S
H611 C620 0.950 . S
H612 C622 0.950 . S
H613 C624 0.950 . S
H614 C626 0.950 . S
H615 C627 0.950 . S
C616 H608 0.950 . S
C616 C617 1.386 . S
C616 C618 1.391 . S
C617 C616 1.386 . S
C617 C621 1.393 . S
C618 H610 0.950 . S
C618 C616 1.391 . S
C618 C619 1.400 . S
C619 C618 1.400 . S
C619 C620 1.398 . S
C619 C625 1.491 . S
C620 H611 0.950 . S
C620 C619 1.398 . S
C620 C621 1.391 . S
C621 H609 0.950 . S
C621 C617 1.393 . S
C621 C620 1.391 . S
C622 H612 0.950 . S
C622 C623 1.386 . S
C622 C624 1.391 . S
C623 C622 1.386 . S
C623 C627 1.393 . S
C624 H613 0.950 . S
C624 C622 1.391 . S
C624 C625 1.400 . S
C625 C619 1.491 . S
C625 C624 1.400 . S
C625 C626 1.398 . S
C626 H614 0.950 . S
C626 C625 1.398 . S
C626 C627 1.391 . S
C627 H615 0.950 . S
C627 C623 1.393 . S
C627 C626 1.391 . S
H628 C636 0.950 . S
H629 C641 0.950 . S
H630 C638 0.950 . S
H631 C640 0.950 . S
H632 C642 0.950 . S
H633 C644 0.950 . S
H634 C646 0.950 . S
H635 C647 0.950 . S
C636 H628 0.950 . S
C636 C637 1.386 . S
C636 C638 1.391 . S
C637 C636 1.386 . S
C637 C641 1.393 . S
C638 H630 0.950 . S
C638 C636 1.391 . S
C638 C639 1.400 . S
C639 C638 1.400 . S
C639 C640 1.398 . S
C639 C645 1.491 . S
C640 H631 0.950 . S
C640 C639 1.398 . S
C640 C641 1.391 . S
C641 H629 0.950 . S
C641 C637 1.393 . S
C641 C640 1.391 . S
C642 H632 0.950 . S
C642 C643 1.386 . S
C642 C644 1.391 . S
C643 C642 1.386 . S
C643 C647 1.393 . S
C644 H633 0.950 . S
C644 C642 1.391 . S
C644 C645 1.400 . S
C645 C639 1.491 . S
C645 C644 1.400 . S
C645 C646 1.398 . S
C646 H634 0.950 . S
C646 C645 1.398 . S
C646 C647 1.391 . S
C647 H635 0.950 . S
C647 C643 1.393 . S
C647 C646 1.391 . S
H648 C656 0.950 . S
H649 C661 0.950 . S
H650 C658 0.950 . S
H651 C660 0.950 . S
H652 C662 0.950 . S
H653 C664 0.950 . S
H654 C666 0.950 . S
H655 C667 0.950 . S
C656 H648 0.950 . S
C656 C657 1.386 . S
C656 C658 1.391 . S
C657 C656 1.386 . S
C657 C661 1.393 . S
C658 H650 0.950 . S
C658 C656 1.391 . S
C658 C659 1.400 . S
C659 C658 1.400 . S
C659 C660 1.398 . S
C659 C665 1.491 . S
C660 H651 0.950 . S
C660 C659 1.398 . S
C660 C661 1.391 . S
C661 H649 0.950 . S
C661 C657 1.393 . S
C661 C660 1.391 . S
C662 H652 0.950 . S
C662 C663 1.386 . S
C662 C664 1.391 . S
C663 C662 1.386 . S
C663 C667 1.393 . S
C664 H653 0.950 . S
C664 C662 1.391 . S
C664 C665 1.400 . S
C665 C659 1.491 . S
C665 C664 1.400 . S
C665 C666 1.398 . S
C666 H654 0.950 . S
C666 C665 1.398 . S
C666 C667 1.391 . S
C667 H655 0.950 . S
C667 C663 1.393 . S
C667 C666 1.391 . S
H668 C676 0.950 . S
H669 C681 0.950 . S
H670 C678 0.950 . S
H671 C680 0.950 . S
H672 C682 0.950 . S
H673 C684 0.950 . S
H674 C686 0.950 . S
H675 C687 0.950 . S
C676 H668 0.950 . S
C676 C677 1.386 . S
C676 C678 1.391 . S
C677 C676 1.386 . S
C677 C681 1.393 . S
C678 H670 0.950 . S
C678 C676 1.391 . S
C678 C679 1.400 . S
C679 C678 1.400 . S
C679 C680 1.398 . S
C679 C685 1.491 . S
C680 H671 0.950 . S
C680 C679 1.398 . S
C680 C681 1.391 . S
C681 H669 0.950 . S
C681 C677 1.393 . S
C681 C680 1.391 . S
C682 H672 0.950 . S
C682 C683 1.386 . S
C682 C684 1.391 . S
C683 C682 1.386 . S
C683 C687 1.393 . S
C684 H673 0.950 . S
C684 C682 1.391 . S
C684 C685 1.400 . S
C685 C679 1.491 . S
C685 C684 1.400 . S
C685 C686 1.398 . S
C686 H674 0.950 . S
C686 C685 1.398 . S
C686 C687 1.391 . S
C687 H675 0.950 . S
C687 C683 1.393 . S
C687 C686 1.391 . S
H688 C696 0.950 . S
H689 C701 0.950 . S
H690 C698 0.950 . S
H691 C700 0.950 . S
H692 C702 0.940 1_565 S
H693 C704 0.950 . S
H694 C706 0.950 . S
H695 C707 0.950 1_565 S
C696 H688 0.950 . S
C696 C697 1.386 . S
C696 C698 1.391 . S
C697 C696 1.386 . S
C697 C701 1.393 . S
C698 H690 0.950 . S
C698 C696 1.391 . S
C698 C699 1.400 . S
C699 C698 1.400 . S
C699 C700 1.398 . S
C699 C705 1.491 . S
C700 H691 0.950 . S
C700 C699 1.398 . S
C700 C701 1.391 . S
C701 H689 0.950 . S
C701 C697 1.393 . S
C701 C700 1.391 . S
C702 H692 0.940 1_545 S
C702 C703 1.386 1_545 S
C702 C704 1.391 . S
C703 C702 1.386 1_565 S
C703 C707 1.393 1_565 S
C704 H693 0.950 . S
C704 C702 1.391 . S
C704 C705 1.400 . S
C705 C699 1.491 . S
C705 C704 1.400 . S
C705 C706 1.398 . S
C706 H694 0.950 . S
C706 C705 1.398 . S
C706 C707 1.391 . S
C707 H695 0.950 1_545 S
C707 C703 1.393 1_545 S
C707 C706 1.391 . S
H708 C716 0.950 1_565 S
H709 C721 0.952 . S
H710 C718 0.950 . S
H711 C720 0.950 . S
H712 C722 0.950 . S
H713 C724 0.950 . S
H714 C726 0.950 . S
H715 C727 0.950 . S
C716 H708 0.950 1_545 S
C716 C717 1.386 1_545 S
C716 C718 1.391 . S
C717 C716 1.386 1_565 S
C717 C721 1.393 1_565 S
C718 H710 0.950 . S
C718 C716 1.391 . S
C718 C719 1.400 . S
C719 C718 1.400 . S
C719 C720 1.398 . S
C719 C725 1.491 . S
C720 H711 0.950 . S
C720 C719 1.398 . S
C720 C721 1.391 . S
C721 H709 0.952 . S
C721 C717 1.393 1_545 S
C721 C720 1.391 . S
C722 H712 0.950 . S
C722 C723 1.386 . S
C722 C724 1.391 . S
C723 C722 1.386 . S
C723 C727 1.393 . S
C724 H713 0.950 . S
C724 C722 1.391 . S
C724 C725 1.400 . S
C725 C719 1.491 . S
C725 C724 1.400 . S
C725 C726 1.398 . S
C726 H714 0.950 . S
C726 C725 1.398 . S
C726 C727 1.391 . S
C727 H715 0.950 . S
C727 C723 1.393 . S
C727 C726 1.391 . S
H728 C736 0.950 . S
H729 C741 0.950 . S
H730 C738 0.950 . S
H731 C740 0.950 . S
H732 C742 0.950 1_545 S
H733 C744 0.950 . S
H734 C746 0.950 . S
H735 C747 0.942 1_545 S
C736 H728 0.950 . S
C736 C737 1.386 . S
C736 C738 1.391 . S
C737 C736 1.386 . S
C737 C741 1.393 . S
C738 H730 0.950 . S
C738 C736 1.391 . S
C738 C739 1.400 . S
C739 C738 1.400 . S
C739 C740 1.398 . S
C739 C745 1.491 . S
C740 H731 0.950 . S
C740 C739 1.398 . S
C740 C741 1.391 . S
C741 H729 0.950 . S
C741 C737 1.393 . S
C741 C740 1.391 . S
C742 H732 0.950 1_565 S
C742 C743 1.386 1_565 S
C742 C744 1.391 . S
C743 C742 1.386 1_545 S
C743 C747 1.393 1_545 S
C744 H733 0.950 . S
C744 C742 1.391 . S
C744 C745 1.400 . S
C745 C739 1.491 . S
C745 C744 1.400 . S
C745 C746 1.398 . S
C746 H734 0.950 . S
C746 C745 1.398 . S
C746 C747 1.391 . S
C747 H735 0.942 1_565 S
C747 C743 1.393 1_565 S
C747 C746 1.391 . S
H748 C756 0.950 . S
H749 C761 0.950 . S
H750 C758 0.950 . S
H751 C760 0.950 . S
H752 C762 0.950 1_545 S
H753 C764 0.950 . S
H754 C766 0.950 . S
H755 C767 0.945 1_545 S
C756 H748 0.950 . S
C756 C757 1.386 . S
C756 C758 1.391 . S
C757 C756 1.386 . S
C757 C761 1.393 . S
C758 H750 0.950 . S
C758 C756 1.391 . S
C758 C759 1.400 . S
C759 C758 1.400 . S
C759 C760 1.398 . S
C759 C765 1.491 . S
C760 H751 0.950 . S
C760 C759 1.398 . S
C760 C761 1.391 . S
C761 H749 0.950 . S
C761 C757 1.393 . S
C761 C760 1.391 . S
C762 H752 0.950 1_565 S
C762 C763 1.386 1_565 S
C762 C764 1.391 . S
C763 C762 1.386 1_545 S
C763 C767 1.393 1_545 S
C764 H753 0.950 . S
C764 C762 1.391 . S
C764 C765 1.400 . S
C765 C759 1.491 . S
C765 C764 1.400 . S
C765 C766 1.398 . S
C766 H754 0.950 . S
C766 C765 1.398 . S
C766 C767 1.391 . S
C767 H755 0.945 1_565 S
C767 C763 1.393 1_565 S
C767 C766 1.391 . S
H768 C776 0.950 . S
H769 C781 0.950 . S
H770 C778 0.950 1_554 S
H771 C780 0.950 1_455 S
H772 C782 0.950 . S
H773 C784 0.950 1_556 S
H774 C786 0.950 1_655 S
H775 C787 0.950 . S
C776 H768 0.950 . S
C776 C777 1.386 . S
C776 C778 1.391 . S
C777 C776 1.386 . S
C777 C781 1.393 . S
C778 H770 0.950 1_556 S
C778 C776 1.391 . S
C778 C779 1.400 . S
C779 C778 1.400 . S
C779 C780 1.398 . S
C779 C785 1.491 1_656 S
C780 H771 0.950 1_655 S
C780 C779 1.398 . S
C780 C781 1.391 . S
C781 H769 0.950 . S
C781 C777 1.393 . S
C781 C780 1.391 . S
C782 H772 0.950 . S
C782 C783 1.386 . S
C782 C784 1.391 . S
C783 C782 1.386 . S
C783 C787 1.393 . S
C784 H773 0.950 1_554 S
C784 C782 1.391 . S
C784 C785 1.400 . S
C785 C779 1.491 1_454 S
C785 C784 1.400 . S
C785 C786 1.398 . S
C786 H774 0.950 1_455 S
C786 C785 1.398 . S
C786 C787 1.391 . S
C787 H775 0.950 . S
C787 C783 1.393 . S
C787 C786 1.391 . S
H788 C796 0.950 . S
H789 C801 0.950 . S
H790 C798 0.950 . S
H791 C800 0.950 1_554 S
H792 C802 0.950 . S
H793 C804 0.950 . S
H794 C806 0.950 1_556 S
H795 C807 0.950 . S
C796 H788 0.950 . S
C796 C797 1.386 . S
C796 C798 1.391 . S
C797 C796 1.386 . S
C797 C801 1.393 . S
C798 H790 0.950 . S
C798 C796 1.391 . S
C798 C799 1.400 . S
C799 C798 1.400 . S
C799 C800 1.398 . S
C799 C805 1.491 1_556 S
C800 H791 0.950 1_556 S
C800 C799 1.398 . S
C800 C801 1.391 . S
C801 H789 0.950 . S
C801 C797 1.393 . S
C801 C800 1.391 . S
C802 H792 0.950 . S
C802 C803 1.386 . S
C802 C804 1.391 . S
C803 C802 1.386 . S
C803 C807 1.393 . S
C804 H793 0.950 . S
C804 C802 1.391 . S
C804 C805 1.400 . S
C805 C799 1.491 1_554 S
C805 C804 1.400 . S
C805 C806 1.398 . S
C806 H794 0.950 1_554 S
C806 C805 1.398 . S
C806 C807 1.391 . S
C807 H795 0.950 . S
C807 C803 1.393 . S
C807 C806 1.391 . S
H808 C816 0.950 . S
H809 C821 0.950 . S
H810 C818 0.950 . S
H811 C820 0.950 . S
H812 C822 0.950 . S
H813 C824 0.950 . S
H814 C826 0.950 . S
H815 C827 0.950 . S
C816 H808 0.950 . S
C816 C817 1.386 . S
C816 C818 1.391 . S
C817 C816 1.386 . S
C817 C821 1.393 . S
C818 H810 0.950 . S
C818 C816 1.391 . S
C818 C819 1.400 . S
C819 C818 1.400 . S
C819 C820 1.398 1_455 S
C819 C825 1.491 1_455 S
C820 H811 0.950 . S
C820 C819 1.398 1_655 S
C820 C821 1.391 1_655 S
C821 H809 0.950 . S
C821 C817 1.393 . S
C821 C820 1.391 1_455 S
C822 H812 0.950 . S
C822 C823 1.386 . S
C822 C824 1.391 . S
C823 C822 1.386 . S
C823 C827 1.393 . S
C824 H813 0.950 . S
C824 C822 1.391 . S
C824 C825 1.400 . S
C825 C819 1.491 1_655 S
C825 C824 1.400 . S
C825 C826 1.398 1_655 S
C826 H814 0.950 . S
C826 C825 1.398 1_455 S
C826 C827 1.391 1_455 S
C827 H815 0.950 . S
C827 C823 1.393 . S
C827 C826 1.391 1_655 S
H828 C836 0.950 . S
H829 C841 0.950 . S
H830 C838 0.950 . S
H831 C840 0.950 . S
H832 C842 0.950 . S
H833 C844 0.950 . S
H834 C846 0.950 . S
H835 C847 0.950 . S
C836 H828 0.950 . S
C836 C837 1.386 . S
C836 C838 1.391 . S
C837 C836 1.386 . S
C837 C841 1.393 . S
C838 H830 0.950 . S
C838 C836 1.391 . S
C838 C839 1.400 . S
C839 C838 1.400 . S
C839 C840 1.398 . S
C839 C845 1.491 . S
C840 H831 0.950 . S
C840 C839 1.398 . S
C840 C841 1.391 . S
C841 H829 0.950 . S
C841 C837 1.393 . S
C841 C840 1.391 . S
C842 H832 0.950 . S
C842 C843 1.386 . S
C842 C844 1.391 . S
C843 C842 1.386 . S
C843 C847 1.393 . S
C844 H833 0.950 . S
C844 C842 1.391 . S
C844 C845 1.400 . S
C845 C839 1.491 . S
C845 C844 1.400 . S
C845 C846 1.398 . S
C846 H834 0.950 . S
C846 C845 1.398 . S
C846 C847 1.391 . S
C847 H835 0.950 . S
C847 C843 1.393 . S
C847 C846 1.391 . S
H848 C856 0.950 . S
H849 C861 0.950 . S
H850 C858 0.950 . S
H851 C860 0.950 1_554 S
H852 C862 0.950 . S
H853 C864 0.950 . S
H854 C866 0.950 1_556 S
H855 C867 0.950 . S
C856 H848 0.950 . S
C856 C857 1.386 . S
C856 C858 1.391 . S
C857 C856 1.386 . S
C857 C861 1.393 . S
C858 H850 0.950 . S
C858 C856 1.391 . S
C858 C859 1.400 . S
C859 C858 1.400 . S
C859 C860 1.398 . S
C859 C865 1.491 1_556 S
C860 H851 0.950 1_556 S
C860 C859 1.398 . S
C860 C861 1.391 . S
C861 H849 0.950 . S
C861 C857 1.393 . S
C861 C860 1.391 . S
C862 H852 0.950 . S
C862 C863 1.386 . S
C862 C864 1.391 . S
C863 C862 1.386 . S
C863 C867 1.393 . S
C864 H853 0.950 . S
C864 C862 1.391 . S
C864 C865 1.400 . S
C865 C859 1.491 1_554 S
C865 C864 1.400 . S
C865 C866 1.398 . S
C866 H854 0.950 1_554 S
C866 C865 1.398 . S
C866 C867 1.391 . S
C867 H855 0.950 . S
C867 C863 1.393 . S
C867 C866 1.391 . S
H868 C876 0.950 . S
H869 C881 0.950 . S
H870 C878 0.950 . S
H871 C880 0.950 . S
H872 C882 0.950 . S
H873 C884 0.950 . S
H874 C886 0.950 . S
H875 C887 0.950 . S
C876 H868 0.950 . S
C876 C877 1.386 . S
C876 C878 1.391 . S
C877 C876 1.386 . S
C877 C881 1.393 . S
C878 H870 0.950 . S
C878 C876 1.391 . S
C878 C879 1.400 . S
C879 C878 1.400 . S
C879 C880 1.398 . S
C879 C885 1.491 1_655 S
C880 H871 0.950 . S
C880 C879 1.398 . S
C880 C881 1.391 . S
C881 H869 0.950 . S
C881 C877 1.393 . S
C881 C880 1.391 . S
C882 H872 0.950 . S
C882 C883 1.386 . S
C882 C884 1.391 . S
C883 C882 1.386 . S
C883 C887 1.393 . S
C884 H873 0.950 . S
C884 C882 1.391 . S
C884 C885 1.400 . S
C885 C879 1.491 1_455 S
C885 C884 1.400 . S
C885 C886 1.398 . S
C886 H874 0.950 . S
C886 C885 1.398 . S
C886 C887 1.391 . S
C887 H875 0.950 . S
C887 C883 1.393 . S
C887 C886 1.391 . S
H888 C896 0.950 . S
H889 C901 0.950 . S
H890 C898 0.950 . S
H891 C900 0.950 . S
H892 C902 0.950 . S
H893 C904 0.950 . S
H894 C906 0.950 . S
H895 C907 0.950 . S
C896 H888 0.950 . S
C896 C897 1.386 . S
C896 C898 1.391 . S
C897 C896 1.386 . S
C897 C901 1.393 . S
C898 H890 0.950 . S
C898 C896 1.391 . S
C898 C899 1.400 . S
C899 C898 1.400 . S
C899 C900 1.398 . S
C899 C905 1.491 . S
C900 H891 0.950 . S
C900 C899 1.398 . S
C900 C901 1.391 . S
C901 H889 0.950 . S
C901 C897 1.393 . S
C901 C900 1.391 . S
C902 H892 0.950 . S
C902 C903 1.386 . S
C902 C904 1.391 . S
C903 C902 1.386 . S
C903 C907 1.393 . S
C904 H893 0.950 . S
C904 C902 1.391 . S
C904 C905 1.400 . S
C905 C899 1.491 . S
C905 C904 1.400 . S
C905 C906 1.398 . S
C906 H894 0.950 . S
C906 C905 1.398 . S
C906 C907 1.391 . S
C907 H895 0.950 . S
C907 C903 1.393 . S
C907 C906 1.391 . S
H908 C916 0.950 1_565 S
H909 C921 0.950 . S
H910 C918 0.950 . S
H911 C920 0.950 1_455 S
H912 C922 0.950 1_545 S
H913 C924 0.950 . S
H914 C926 0.950 1_655 S
H915 C927 0.950 . S
C916 H908 0.950 1_545 S
C916 C917 1.386 . S
C916 C918 1.391 1_545 S
C917 C916 1.386 . S
C917 C921 1.393 . S
C918 H910 0.950 . S
C918 C916 1.391 1_565 S
C918 C919 1.400 1_565 S
C919 C918 1.400 1_545 S
C919 C920 1.398 . S
C919 C925 1.491 1_645 S
C920 H911 0.950 1_655 S
C920 C919 1.398 . S
C920 C921 1.391 . S
C921 H909 0.950 . S
C921 C917 1.393 . S
C921 C920 1.391 . S
C922 H912 0.950 1_565 S
C922 C923 1.386 . S
C922 C924 1.391 1_565 S
C923 C922 1.386 . S
C923 C927 1.393 . S
C924 H913 0.950 . S
C924 C922 1.391 1_545 S
C924 C925 1.400 1_545 S
C925 C919 1.491 1_465 S
C925 C924 1.400 1_565 S
C925 C926 1.398 . S
C926 H914 0.950 1_455 S
C926 C925 1.398 . S
C926 C927 1.391 . S
C927 H915 0.950 . S
C927 C923 1.393 . S
C927 C926 1.391 . S
H928 C936 0.950 . S
H929 C941 0.950 . S
H930 C938 0.950 . S
H931 C940 0.950 . S
H932 C942 0.950 . S
H933 C944 0.950 . S
H934 C946 0.950 . S
H935 C947 0.950 . S
C936 H928 0.950 . S
C936 C937 1.386 . S
C936 C938 1.391 . S
C937 C936 1.386 . S
C937 C941 1.393 . S
C938 H930 0.950 . S
C938 C936 1.391 . S
C938 C939 1.400 . S
C939 C938 1.400 . S
C939 C940 1.398 . S
C939 C945 1.491 . S
C940 H931 0.950 . S
C940 C939 1.398 . S
C940 C941 1.391 . S
C941 H929 0.950 . S
C941 C937 1.393 . S
C941 C940 1.391 . S
C942 H932 0.950 . S
C942 C943 1.386 . S
C942 C944 1.391 . S
C943 C942 1.386 . S
C943 C947 1.393 . S
C944 H933 0.950 . S
C944 C942 1.391 . S
C944 C945 1.400 . S
C945 C939 1.491 . S
C945 C944 1.400 . S
C945 C946 1.398 . S
C946 H934 0.950 . S
C946 C945 1.398 . S
C946 C947 1.391 . S
C947 H935 0.950 . S
C947 C943 1.393 . S
C947 C946 1.391 . S
H948 C956 0.950 . S
H949 C961 0.950 1_545 S
H950 C958 0.950 . S
H951 C960 0.950 . S
H952 C962 0.950 . S
H953 C964 0.950 . S
H954 C966 0.950 . S
H955 C967 0.950 1_565 S
C956 H948 0.950 . S
C956 C957 1.386 . S
C956 C958 1.391 . S
C957 C956 1.386 . S
C957 C961 1.393 . S
C958 H950 0.950 . S
C958 C956 1.391 . S
C958 C959 1.400 . S
C959 C958 1.400 . S
C959 C960 1.398 1_565 S
C959 C965 1.491 1_565 S
C960 H951 0.950 . S
C960 C959 1.398 1_545 S
C960 C961 1.391 1_545 S
C961 H949 0.950 1_565 S
C961 C957 1.393 . S
C961 C960 1.391 1_565 S
C962 H952 0.950 . S
C962 C963 1.386 . S
C962 C964 1.391 . S
C963 C962 1.386 . S
C963 C967 1.393 . S
C964 H953 0.950 . S
C964 C962 1.391 . S
C964 C965 1.400 . S
C965 C959 1.491 1_545 S
C965 C964 1.400 . S
C965 C966 1.398 1_545 S
C966 H954 0.950 . S
C966 C965 1.398 1_565 S
C966 C967 1.391 1_565 S
C967 H955 0.950 1_545 S
C967 C963 1.393 . S
C967 C966 1.391 1_545 S
H968 C976 0.950 . S
H969 C981 0.950 . S
H970 C978 0.950 . S
H971 C980 0.950 . S
H972 C982 0.950 . S
H973 C984 0.950 . S
H974 C986 0.950 . S
H975 C987 0.950 . S
C976 H968 0.950 . S
C976 C977 1.386 . S
C976 C978 1.391 . S
C977 C976 1.386 . S
C977 C981 1.393 . S
C978 H970 0.950 . S
C978 C976 1.391 . S
C978 C979 1.400 . S
C979 C978 1.400 . S
C979 C980 1.398 . S
C979 C985 1.491 . S
C980 H971 0.950 . S
C980 C979 1.398 . S
C980 C981 1.391 . S
C981 H969 0.950 . S
C981 C977 1.393 . S
C981 C980 1.391 . S
C982 H972 0.950 . S
C982 C983 1.386 . S
C982 C984 1.391 . S
C983 C982 1.386 . S
C983 C987 1.393 . S
C984 H973 0.950 . S
C984 C982 1.391 . S
C984 C985 1.400 . S
C985 C979 1.491 . S
C985 C984 1.400 . S
C985 C986 1.398 . S
C986 H974 0.950 . S
C986 C985 1.398 . S
C986 C987 1.391 . S
C987 H975 0.950 . S
C987 C983 1.393 . S
C987 C986 1.391 . S
H988 C996 0.950 . S
H989 C1001 0.950 1_545 S
H990 C998 0.950 . S
H991 C1000 0.950 . S
H992 C1002 0.950 . S
H993 C1004 0.950 . S
H994 C1006 0.950 . S
H995 C1007 0.950 1_565 S
C996 H988 0.950 . S
C996 C997 1.386 . S
C996 C998 1.391 . S
C997 C996 1.386 . S
C997 C1001 1.393 . S
C998 H990 0.950 . S
C998 C996 1.391 . S
C998 C999 1.400 . S
C999 C998 1.400 . S
C999 C1000 1.398 1_565 S
C999 C1005 1.491 1_565 S
C1000 H991 0.950 . S
C1000 C999 1.398 1_545 S
C1000 C1001 1.391 1_545 S
C1001 H989 0.950 1_565 S
C1001 C997 1.393 . S
C1001 C1000 1.391 1_565 S
C1002 H992 0.950 . S
C1002 C1003 1.386 . S
C1002 C1004 1.391 . S
C1003 C1002 1.386 . S
C1003 C1007 1.393 . S
C1004 H993 0.950 . S
C1004 C1002 1.391 . S
C1004 C1005 1.400 . S
C1005 C999 1.491 1_545 S
C1005 C1004 1.400 . S
C1005 C1006 1.398 1_545 S
C1006 H994 0.950 . S
C1006 C1005 1.398 1_565 S
C1006 C1007 1.391 1_565 S
C1007 H995 0.950 1_545 S
C1007 C1003 1.393 . S
C1007 C1006 1.391 1_545 S
H1008 C1016 0.950 . S
H1009 C1021 0.950 . S
H1010 C1018 0.950 . S
H1011 C1020 0.950 . S
H1012 C1022 0.950 . S
H1013 C1024 0.950 . S
H1014 C1026 0.950 . S
H1015 C1027 0.950 . S
C1016 H1008 0.950 . S
C1016 C1017 1.386 . S
C1016 C1018 1.391 . S
C1017 C1016 1.386 . S
C1017 C1021 1.393 . S
C1018 H1010 0.950 . S
C1018 C1016 1.391 . S
C1018 C1019 1.400 . S
C1019 C1018 1.400 . S
C1019 C1020 1.398 . S
C1019 C1025 1.491 . S
C1020 H1011 0.950 . S
C1020 C1019 1.398 . S
C1020 C1021 1.391 . S
C1021 H1009 0.950 . S
C1021 C1017 1.393 . S
C1021 C1020 1.391 . S
C1022 H1012 0.950 . S
C1022 C1023 1.386 . S
C1022 C1024 1.391 . S
C1023 C1022 1.386 . S
C1023 C1027 1.393 . S
C1024 H1013 0.950 . S
C1024 C1022 1.391 . S
C1024 C1025 1.400 . S
C1025 C1019 1.491 . S
C1025 C1024 1.400 . S
C1025 C1026 1.398 . S
C1026 H1014 0.950 . S
C1026 C1025 1.398 . S
C1026 C1027 1.391 . S
C1027 H1015 0.950 . S
C1027 C1023 1.393 . S
C1027 C1026 1.391 . S
H1028 C1036 0.950 . S
H1029 C1041 0.950 . S
H1030 C1038 0.950 . S
H1031 C1040 0.950 . S
H1032 C1042 0.950 . S
H1033 C1044 0.950 . S
H1034 C1046 0.950 . S
H1035 C1047 0.950 . S
C1036 H1028 0.950 . S
C1036 C1037 1.386 . S
C1036 C1038 1.391 . S
C1037 C1036 1.386 . S
C1037 C1041 1.393 . S
C1038 H1030 0.950 . S
C1038 C1036 1.391 . S
C1038 C1039 1.400 . S
C1039 C1038 1.400 . S
C1039 C1040 1.398 . S
C1039 C1045 1.491 . S
C1040 H1031 0.950 . S
C1040 C1039 1.398 . S
C1040 C1041 1.391 . S
C1041 H1029 0.950 . S
C1041 C1037 1.393 . S
C1041 C1040 1.391 . S
C1042 H1032 0.950 . S
C1042 C1043 1.386 . S
C1042 C1044 1.391 . S
C1043 C1042 1.386 . S
C1043 C1047 1.393 . S
C1044 H1033 0.950 . S
C1044 C1042 1.391 . S
C1044 C1045 1.400 . S
C1045 C1039 1.491 . S
C1045 C1044 1.400 . S
C1045 C1046 1.398 . S
C1046 H1034 0.950 . S
C1046 C1045 1.398 . S
C1046 C1047 1.391 . S
C1047 H1035 0.950 . S
C1047 C1043 1.393 . S
C1047 C1046 1.391 . S
H1048 C1056 0.950 . S
H1049 C1061 0.950 . S
H1050 C1058 0.950 . S
H1051 C1060 0.950 . S
H1052 C1062 0.950 . S
H1053 C1064 0.950 . S
H1054 C1066 0.950 . S
H1055 C1067 0.950 . S
C1056 H1048 0.950 . S
C1056 C1057 1.386 . S
C1056 C1058 1.391 . S
C1057 C1056 1.386 . S
C1057 C1061 1.393 . S
C1058 H1050 0.950 . S
C1058 C1056 1.391 . S
C1058 C1059 1.400 . S
C1059 C1058 1.400 . S
C1059 C1060 1.398 . S
C1059 C1065 1.491 . S
C1060 H1051 0.950 . S
C1060 C1059 1.398 . S
C1060 C1061 1.391 . S
C1061 H1049 0.950 . S
C1061 C1057 1.393 . S
C1061 C1060 1.391 . S
C1062 H1052 0.950 . S
C1062 C1063 1.386 . S
C1062 C1064 1.391 . S
C1063 C1062 1.386 . S
C1063 C1067 1.393 . S
C1064 H1053 0.950 . S
C1064 C1062 1.391 . S
C1064 C1065 1.400 . S
C1065 C1059 1.491 . S
C1065 C1064 1.400 . S
C1065 C1066 1.398 . S
C1066 H1054 0.950 . S
C1066 C1065 1.398 . S
C1066 C1067 1.391 . S
C1067 H1055 0.950 . S
C1067 C1063 1.393 . S
C1067 C1066 1.391 . S
H1068 C1076 0.950 . S
H1069 C1081 0.950 . S
H1070 C1078 0.950 . S
H1071 C1080 0.950 1_554 S
H1072 C1082 0.950 . S
H1073 C1084 0.950 . S
H1074 C1086 0.950 1_556 S
H1075 C1087 0.950 . S
C1076 H1068 0.950 . S
C1076 C1077 1.386 . S
C1076 C1078 1.391 . S
C1077 C1076 1.386 . S
C1077 C1081 1.393 . S
C1078 H1070 0.950 . S
C1078 C1076 1.391 . S
C1078 C1079 1.400 . S
C1079 C1078 1.400 . S
C1079 C1080 1.398 . S
C1079 C1085 1.491 1_546 S
C1080 H1071 0.950 1_556 S
C1080 C1079 1.398 . S
C1080 C1081 1.391 . S
C1081 H1069 0.950 . S
C1081 C1077 1.393 . S
C1081 C1080 1.391 . S
C1082 H1072 0.950 . S
C1082 C1083 1.386 . S
C1082 C1084 1.391 . S
C1083 C1082 1.386 . S
C1083 C1087 1.393 . S
C1084 H1073 0.950 . S
C1084 C1082 1.391 . S
C1084 C1085 1.400 . S
C1085 C1079 1.491 1_564 S
C1085 C1084 1.400 . S
C1085 C1086 1.398 . S
C1086 H1074 0.950 1_554 S
C1086 C1085 1.398 . S
C1086 C1087 1.391 . S
C1087 H1075 0.950 . S
C1087 C1083 1.393 . S
C1087 C1086 1.391 . S
H1088 C1096 0.950 . S
H1089 C1101 0.950 . S
H1090 C1098 0.950 . S
H1091 C1100 0.950 . S
H1092 C1102 0.950 . S
H1093 C1104 0.950 . S
H1094 C1106 0.950 . S
H1095 C1107 0.950 . S
C1096 H1088 0.950 . S
C1096 C1097 1.386 . S
C1096 C1098 1.391 . S
C1097 C1096 1.386 . S
C1097 C1101 1.393 . S
C1098 H1090 0.950 . S
C1098 C1096 1.391 . S
C1098 C1099 1.400 . S
C1099 C1098 1.400 . S
C1099 C1100 1.398 . S
C1099 C1105 1.491 . S
C1100 H1091 0.950 . S
C1100 C1099 1.398 . S
C1100 C1101 1.391 . S
C1101 H1089 0.950 . S
C1101 C1097 1.393 . S
C1101 C1100 1.391 . S
C1102 H1092 0.950 . S
C1102 C1103 1.386 . S
C1102 C1104 1.391 . S
C1103 C1102 1.386 . S
C1103 C1107 1.393 . S
C1104 H1093 0.950 . S
C1104 C1102 1.391 . S
C1104 C1105 1.400 . S
C1105 C1099 1.491 . S
C1105 C1104 1.400 . S
C1105 C1106 1.398 . S
C1106 H1094 0.950 . S
C1106 C1105 1.398 . S
C1106 C1107 1.391 . S
C1107 H1095 0.950 . S
C1107 C1103 1.393 . S
C1107 C1106 1.391 . S
H1108 C1116 0.950 . S
H1109 C1121 0.950 . S
H1110 C1118 0.950 . S
H1111 C1120 0.950 . S
H1112 C1122 0.950 . S
H1113 C1124 0.950 . S
H1114 C1126 0.950 . S
H1115 C1127 0.950 . S
C1116 H1108 0.950 . S
C1116 C1117 1.386 . S
C1116 C1118 1.391 . S
C1117 C1116 1.386 . S
C1117 C1121 1.393 . S
C1118 H1110 0.950 . S
C1118 C1116 1.391 . S
C1118 C1119 1.400 . S
C1119 C1118 1.400 . S
C1119 C1120 1.398 . S
C1119 C1125 1.491 . S
C1120 H1111 0.950 . S
C1120 C1119 1.398 . S
C1120 C1121 1.391 . S
C1121 H1109 0.950 . S
C1121 C1117 1.393 . S
C1121 C1120 1.391 . S
C1122 H1112 0.950 . S
C1122 C1123 1.386 . S
C1122 C1124 1.391 . S
C1123 C1122 1.386 . S
C1123 C1127 1.393 . S
C1124 H1113 0.950 . S
C1124 C1122 1.391 . S
C1124 C1125 1.400 . S
C1125 C1119 1.491 . S
C1125 C1124 1.400 . S
C1125 C1126 1.398 . S
C1126 H1114 0.950 . S
C1126 C1125 1.398 . S
C1126 C1127 1.391 . S
C1127 H1115 0.950 . S
C1127 C1123 1.393 . S
C1127 C1126 1.391 . S
H1128 C1136 0.950 . S
H1129 C1141 0.950 . S
H1130 C1138 0.950 . S
H1131 C1140 0.950 . S
H1132 C1142 0.950 . S
H1133 C1144 0.950 . S
H1134 C1146 0.950 . S
H1135 C1147 0.950 . S
C1136 H1128 0.950 . S
C1136 C1137 1.386 . S
C1136 C1138 1.391 . S
C1137 C1136 1.386 . S
C1137 C1141 1.393 . S
C1138 H1130 0.950 . S
C1138 C1136 1.391 . S
C1138 C1139 1.400 . S
C1139 C1138 1.400 . S
C1139 C1140 1.398 . S
C1139 C1145 1.491 . S
C1140 H1131 0.950 . S
C1140 C1139 1.398 . S
C1140 C1141 1.391 . S
C1141 H1129 0.950 . S
C1141 C1137 1.393 . S
C1141 C1140 1.391 . S
C1142 H1132 0.950 . S
C1142 C1143 1.386 . S
C1142 C1144 1.391 . S
C1143 C1142 1.386 . S
C1143 C1147 1.393 . S
C1144 H1133 0.950 . S
C1144 C1142 1.391 . S
C1144 C1145 1.400 . S
C1145 C1139 1.491 . S
C1145 C1144 1.400 . S
C1145 C1146 1.398 . S
C1146 H1134 0.950 . S
C1146 C1145 1.398 . S
C1146 C1147 1.391 . S
C1147 H1135 0.950 . S
C1147 C1143 1.393 . S
C1147 C1146 1.391 . S
H1148 C1156 0.950 . S
H1149 C1161 0.950 . S
H1150 C1158 0.950 . S
H1151 C1160 0.950 . S
H1152 C1162 0.950 . S
H1153 C1164 0.950 . S
H1154 C1166 0.950 . S
H1155 C1167 0.950 . S
C1156 H1148 0.950 . S
C1156 C1157 1.386 . S
C1156 C1158 1.391 . S
C1157 C1156 1.386 . S
C1157 C1161 1.393 . S
C1158 H1150 0.950 . S
C1158 C1156 1.391 . S
C1158 C1159 1.400 . S
C1159 C1158 1.400 . S
C1159 C1160 1.398 . S
C1159 C1165 1.491 . S
C1160 H1151 0.950 . S
C1160 C1159 1.398 . S
C1160 C1161 1.391 . S
C1161 H1149 0.950 . S
C1161 C1157 1.393 . S
C1161 C1160 1.391 . S
C1162 H1152 0.950 . S
C1162 C1163 1.386 . S
C1162 C1164 1.391 . S
C1163 C1162 1.386 . S
C1163 C1167 1.393 . S
C1164 H1153 0.950 . S
C1164 C1162 1.391 . S
C1164 C1165 1.400 . S
C1165 C1159 1.491 . S
C1165 C1164 1.400 . S
C1165 C1166 1.398 . S
C1166 H1154 0.950 . S
C1166 C1165 1.398 . S
C1166 C1167 1.391 . S
C1167 H1155 0.950 . S
C1167 C1163 1.393 . S
C1167 C1166 1.391 . S
H1168 C1176 0.950 . S
H1169 C1181 0.950 . S
H1170 C1178 0.950 . S
H1171 C1180 0.950 . S
H1172 C1182 0.950 . S
H1173 C1184 0.950 . S
H1174 C1186 0.950 . S
H1175 C1187 0.950 . S
C1176 H1168 0.950 . S
C1176 C1177 1.386 . S
C1176 C1178 1.391 . S
C1177 C1176 1.386 . S
C1177 C1181 1.393 . S
C1178 H1170 0.950 . S
C1178 C1176 1.391 . S
C1178 C1179 1.400 . S
C1179 C1178 1.400 . S
C1179 C1180 1.398 . S
C1179 C1185 1.491 . S
C1180 H1171 0.950 . S
C1180 C1179 1.398 . S
C1180 C1181 1.391 . S
C1181 H1169 0.950 . S
C1181 C1177 1.393 . S
C1181 C1180 1.391 . S
C1182 H1172 0.950 . S
C1182 C1183 1.386 . S
C1182 C1184 1.391 . S
C1183 C1182 1.386 . S
C1183 C1187 1.393 . S
C1184 H1173 0.950 . S
C1184 C1182 1.391 . S
C1184 C1185 1.400 . S
C1185 C1179 1.491 . S
C1185 C1184 1.400 . S
C1185 C1186 1.398 . S
C1186 H1174 0.950 . S
C1186 C1185 1.398 . S
C1186 C1187 1.391 . S
C1187 H1175 0.950 . S
C1187 C1183 1.393 . S
C1187 C1186 1.391 . S
H1188 C1196 0.950 . S
H1189 C1201 0.950 . S
H1190 C1198 0.950 . S
H1191 C1200 0.950 . S
H1192 C1202 0.950 . S
H1193 C1204 0.950 . S
H1194 C1206 0.950 . S
H1195 C1207 0.950 . S
C1196 H1188 0.950 . S
C1196 C1197 1.386 . S
C1196 C1198 1.391 . S
C1197 C1196 1.386 . S
C1197 C1201 1.393 . S
C1198 H1190 0.950 . S
C1198 C1196 1.391 . S
C1198 C1199 1.400 . S
C1199 C1198 1.400 . S
C1199 C1200 1.398 . S
C1199 C1205 1.491 . S
C1200 H1191 0.950 . S
C1200 C1199 1.398 . S
C1200 C1201 1.391 . S
C1201 H1189 0.950 . S
C1201 C1197 1.393 . S
C1201 C1200 1.391 . S
C1202 H1192 0.950 . S
C1202 C1203 1.386 . S
C1202 C1204 1.391 . S
C1203 C1202 1.386 . S
C1203 C1207 1.393 . S
C1204 H1193 0.950 . S
C1204 C1202 1.391 . S
C1204 C1205 1.400 . S
C1205 C1199 1.491 . S
C1205 C1204 1.400 . S
C1205 C1206 1.398 . S
C1206 H1194 0.950 . S
C1206 C1205 1.398 . S
C1206 C1207 1.391 . S
C1207 H1195 0.950 . S
C1207 C1203 1.393 . S
C1207 C1206 1.391 . S
H1208 C1216 0.950 . S
H1209 C1221 0.950 . S
H1210 C1218 0.950 . S
H1211 C1220 0.950 . S
H1212 C1222 0.950 . S
H1213 C1224 0.950 . S
H1214 C1226 0.950 . S
H1215 C1227 0.950 . S
C1216 H1208 0.950 . S
C1216 C1217 1.386 . S
C1216 C1218 1.391 . S
C1217 C1216 1.386 . S
C1217 C1221 1.393 . S
C1218 H1210 0.950 . S
C1218 C1216 1.391 . S
C1218 C1219 1.400 . S
C1219 C1218 1.400 . S
C1219 C1220 1.398 . S
C1219 C1225 1.491 . S
C1220 H1211 0.950 . S
C1220 C1219 1.398 . S
C1220 C1221 1.391 . S
C1221 H1209 0.950 . S
C1221 C1217 1.393 . S
C1221 C1220 1.391 . S
C1222 H1212 0.950 . S
C1222 C1223 1.386 . S
C1222 C1224 1.391 . S
C1223 C1222 1.386 . S
C1223 C1227 1.393 . S
C1224 H1213 0.950 . S
C1224 C1222 1.391 . S
C1224 C1225 1.400 . S
C1225 C1219 1.491 . S
C1225 C1224 1.400 . S
C1225 C1226 1.398 . S
C1226 H1214 0.950 . S
C1226 C1225 1.398 . S
C1226 C1227 1.391 . S
C1227 H1215 0.950 . S
C1227 C1223 1.393 . S
C1227 C1226 1.391 . S
H1228 C1236 0.950 . S
H1229 C1241 0.950 . S
H1230 C1238 0.950 . S
H1231 C1240 0.950 . S
H1232 C1242 0.950 . S
H1233 C1244 0.950 . S
H1234 C1246 0.950 . S
H1235 C1247 0.950 . S
C1236 H1228 0.950 . S
C1236 C1237 1.386 . S
C1236 C1238 1.391 . S
C1237 C1236 1.386 . S
C1237 C1241 1.393 . S
C1238 H1230 0.950 . S
C1238 C1236 1.391 . S
C1238 C1239 1.400 . S
C1239 C1238 1.400 . S
C1239 C1240 1.398 . S
C1239 C1245 1.491 . S
C1240 H1231 0.950 . S
C1240 C1239 1.398 . S
C1240 C1241 1.391 . S
C1241 H1229 0.950 . S
C1241 C1237 1.393 . S
C1241 C1240 1.391 . S
C1242 H1232 0.950 . S
C1242 C1243 1.386 . S
C1242 C1244 1.391 . S
C1243 C1242 1.386 . S
C1243 C1247 1.393 . S
C1244 H1233 0.950 . S
C1244 C1242 1.391 . S
C1244 C1245 1.400 . S
C1245 C1239 1.491 . S
C1245 C1244 1.400 . S
C1245 C1246 1.398 . S
C1246 H1234 0.950 . S
C1246 C1245 1.398 . S
C1246 C1247 1.391 . S
C1247 H1235 0.950 . S
C1247 C1243 1.393 . S
C1247 C1246 1.391 . S
H1248 C1256 0.950 . S
H1249 C1261 0.950 . S
H1250 C1258 0.950 . S
H1251 C1260 0.950 . S
H1252 C1262 0.950 . S
H1253 C1264 0.950 . S
H1254 C1266 0.950 . S
H1255 C1267 0.950 . S
C1256 H1248 0.950 . S
C1256 C1257 1.386 . S
C1256 C1258 1.391 . S
C1257 C1256 1.386 . S
C1257 C1261 1.393 . S
C1258 H1250 0.950 . S
C1258 C1256 1.391 . S
C1258 C1259 1.400 . S
C1259 C1258 1.400 . S
C1259 C1260 1.398 . S
C1259 C1265 1.491 . S
C1260 H1251 0.950 . S
C1260 C1259 1.398 . S
C1260 C1261 1.391 . S
C1261 H1249 0.950 . S
C1261 C1257 1.393 . S
C1261 C1260 1.391 . S
C1262 H1252 0.950 . S
C1262 C1263 1.386 . S
C1262 C1264 1.391 . S
C1263 C1262 1.386 . S
C1263 C1267 1.393 . S
C1264 H1253 0.950 . S
C1264 C1262 1.391 . S
C1264 C1265 1.400 . S
C1265 C1259 1.491 . S
C1265 C1264 1.400 . S
C1265 C1266 1.398 . S
C1266 H1254 0.950 . S
C1266 C1265 1.398 . S
C1266 C1267 1.391 . S
C1267 H1255 0.950 . S
C1267 C1263 1.393 . S
C1267 C1266 1.391 . S
H1268 C1276 0.950 . S
H1269 C1281 0.950 . S
H1270 C1278 0.950 . S
H1271 C1280 0.950 . S
H1272 C1282 0.950 . S
H1273 C1284 0.950 . S
H1274 C1286 0.950 . S
H1275 C1287 0.950 . S
C1276 H1268 0.950 . S
C1276 C1277 1.386 . S
C1276 C1278 1.391 . S
C1277 C1276 1.386 . S
C1277 C1281 1.393 . S
C1278 H1270 0.950 . S
C1278 C1276 1.391 . S
C1278 C1279 1.400 . S
C1279 C1278 1.400 . S
C1279 C1280 1.398 . S
C1279 C1285 1.491 . S
C1280 H1271 0.950 . S
C1280 C1279 1.398 . S
C1280 C1281 1.391 . S
C1281 H1269 0.950 . S
C1281 C1277 1.393 . S
C1281 C1280 1.391 . S
C1282 H1272 0.950 . S
C1282 C1283 1.386 . S
C1282 C1284 1.391 . S
C1283 C1282 1.386 . S
C1283 C1287 1.393 . S
C1284 H1273 0.950 . S
C1284 C1282 1.391 . S
C1284 C1285 1.400 . S
C1285 C1279 1.491 . S
C1285 C1284 1.400 . S
C1285 C1286 1.398 . S
C1286 H1274 0.950 . S
C1286 C1285 1.398 . S
C1286 C1287 1.391 . S
C1287 H1275 0.950 . S
C1287 C1283 1.393 . S
C1287 C1286 1.391 . S
H1288 C1296 0.950 . S
H1289 C1301 0.950 . S
H1290 C1298 0.950 . S
H1291 C1300 0.950 . S
H1292 C1302 0.950 . S
H1293 C1304 0.950 . S
H1294 C1306 0.950 . S
H1295 C1307 0.950 . S
C1296 H1288 0.950 . S
C1296 C1297 1.386 . S
C1296 C1298 1.391 . S
C1297 C1296 1.386 . S
C1297 C1301 1.393 . S
C1298 H1290 0.950 . S
C1298 C1296 1.391 . S
C1298 C1299 1.400 . S
C1299 C1298 1.400 . S
C1299 C1300 1.398 . S
C1299 C1305 1.491 . S
C1300 H1291 0.950 . S
C1300 C1299 1.398 . S
C1300 C1301 1.391 . S
C1301 H1289 0.950 . S
C1301 C1297 1.393 . S
C1301 C1300 1.391 . S
C1302 H1292 0.950 . S
C1302 C1303 1.386 . S
C1302 C1304 1.391 . S
C1303 C1302 1.386 . S
C1303 C1307 1.393 . S
C1304 H1293 0.950 . S
C1304 C1302 1.391 . S
C1304 C1305 1.400 . S
C1305 C1299 1.491 . S
C1305 C1304 1.400 . S
C1305 C1306 1.398 . S
C1306 H1294 0.950 . S
C1306 C1305 1.398 . S
C1306 C1307 1.391 . S
C1307 H1295 0.950 . S
C1307 C1303 1.393 . S
C1307 C1306 1.391 . S
H1308 C1316 0.950 . S
H1309 C1321 0.950 . S
H1310 C1318 0.950 . S
H1311 C1320 0.950 . S
H1312 C1322 0.950 . S
H1313 C1324 0.950 . S
H1314 C1326 0.950 . S
H1315 C1327 0.950 . S
C1316 H1308 0.950 . S
C1316 C1317 1.386 . S
C1316 C1318 1.391 . S
C1317 C1316 1.386 . S
C1317 C1321 1.393 . S
C1318 H1310 0.950 . S
C1318 C1316 1.391 . S
C1318 C1319 1.400 . S
C1319 C1318 1.400 . S
C1319 C1320 1.398 . S
C1319 C1325 1.491 . S
C1320 H1311 0.950 . S
C1320 C1319 1.398 . S
C1320 C1321 1.391 . S
C1321 H1309 0.950 . S
C1321 C1317 1.393 . S
C1321 C1320 1.391 . S
C1322 H1312 0.950 . S
C1322 C1323 1.386 . S
C1322 C1324 1.391 . S
C1323 C1322 1.386 . S
C1323 C1327 1.393 . S
C1324 H1313 0.950 . S
C1324 C1322 1.391 . S
C1324 C1325 1.400 . S
C1325 C1319 1.491 . S
C1325 C1324 1.400 . S
C1325 C1326 1.398 . S
C1326 H1314 0.950 . S
C1326 C1325 1.398 . S
C1326 C1327 1.391 . S
C1327 H1315 0.950 . S
C1327 C1323 1.393 . S
C1327 C1326 1.391 . S
H1328 C1336 0.950 . S
H1329 C1341 0.950 . S
H1330 C1338 0.950 . S
H1331 C1340 0.950 . S
H1332 C1342 0.950 . S
H1333 C1344 0.950 . S
H1334 C1346 0.950 . S
H1335 C1347 0.950 . S
C1336 H1328 0.950 . S
C1336 C1337 1.386 . S
C1336 C1338 1.391 . S
C1337 C1336 1.386 . S
C1337 C1341 1.393 . S
C1338 H1330 0.950 . S
C1338 C1336 1.391 . S
C1338 C1339 1.400 . S
C1339 C1338 1.400 . S
C1339 C1340 1.398 . S
C1339 C1345 1.491 . S
C1340 H1331 0.950 . S
C1340 C1339 1.398 . S
C1340 C1341 1.391 . S
C1341 H1329 0.950 . S
C1341 C1337 1.393 . S
C1341 C1340 1.391 . S
C1342 H1332 0.950 . S
C1342 C1343 1.386 . S
C1342 C1344 1.391 . S
C1343 C1342 1.386 . S
C1343 C1347 1.393 . S
C1344 H1333 0.950 . S
C1344 C1342 1.391 . S
C1344 C1345 1.400 . S
C1345 C1339 1.491 . S
C1345 C1344 1.400 . S
C1345 C1346 1.398 . S
C1346 H1334 0.950 . S
C1346 C1345 1.398 . S
C1346 C1347 1.391 . S
C1347 H1335 0.950 . S
C1347 C1343 1.393 . S
C1347 C1346 1.391 . S
H1348 C1356 0.950 . S
H1349 C1361 0.950 . S
H1350 C1358 0.950 . S
H1351 C1360 0.950 . S
H1352 C1362 0.950 . S
H1353 C1364 0.950 . S
H1354 C1366 0.950 . S
H1355 C1367 0.950 . S
C1356 H1348 0.950 . S
C1356 C1357 1.386 . S
C1356 C1358 1.391 . S
C1357 C1356 1.386 . S
C1357 C1361 1.393 . S
C1358 H1350 0.950 . S
C1358 C1356 1.391 . S
C1358 C1359 1.400 . S
C1359 C1358 1.400 . S
C1359 C1360 1.398 . S
C1359 C1365 1.491 . S
C1360 H1351 0.950 . S
C1360 C1359 1.398 . S
C1360 C1361 1.391 . S
C1361 H1349 0.950 . S
C1361 C1357 1.393 . S
C1361 C1360 1.391 . S
C1362 H1352 0.950 . S
C1362 C1363 1.386 . S
C1362 C1364 1.391 . S
C1363 C1362 1.386 . S
C1363 C1367 1.393 . S
C1364 H1353 0.950 . S
C1364 C1362 1.391 . S
C1364 C1365 1.400 . S
C1365 C1359 1.491 . S
C1365 C1364 1.400 . S
C1365 C1366 1.398 . S
C1366 H1354 0.950 . S
C1366 C1365 1.398 . S
C1366 C1367 1.391 . S
C1367 H1355 0.950 . S
C1367 C1363 1.393 . S
C1367 C1366 1.391 . S
H1368 C1376 0.950 . S
H1369 C1381 0.950 . S
H1370 C1378 0.950 . S
H1371 C1380 0.950 . S
H1372 C1382 0.950 . S
H1373 C1384 0.950 . S
H1374 C1386 0.950 . S
H1375 C1387 0.950 . S
C1376 H1368 0.950 . S
C1376 C1377 1.386 . S
C1376 C1378 1.391 . S
C1377 C1376 1.386 . S
C1377 C1381 1.393 . S
C1378 H1370 0.950 . S
C1378 C1376 1.391 . S
C1378 C1379 1.400 . S
C1379 C1378 1.400 . S
C1379 C1380 1.398 . S
C1379 C1385 1.491 . S
C1380 H1371 0.950 . S
C1380 C1379 1.398 . S
C1380 C1381 1.391 . S
C1381 H1369 0.950 . S
C1381 C1377 1.393 . S
C1381 C1380 1.391 . S
C1382 H1372 0.950 . S
C1382 C1383 1.386 . S
C1382 C1384 1.391 . S
C1383 C1382 1.386 . S
C1383 C1387 1.393 . S
C1384 H1373 0.950 . S
C1384 C1382 1.391 . S
C1384 C1385 1.400 . S
C1385 C1379 1.491 . S
C1385 C1384 1.400 . S
C1385 C1386 1.398 . S
C1386 H1374 0.950 . S
C1386 C1385 1.398 . S
C1386 C1387 1.391 . S
C1387 H1375 0.950 . S
C1387 C1383 1.393 . S
C1387 C1386 1.391 . S
H1388 C1396 0.950 . S
H1389 C1401 0.950 . S
H1390 C1398 0.950 . S
H1391 C1400 0.950 . S
H1392 C1402 0.950 . S
H1393 C1404 0.950 . S
H1394 C1406 0.950 . S
H1395 C1407 0.950 . S
C1396 H1388 0.950 . S
C1396 C1397 1.386 . S
C1396 C1398 1.391 . S
C1397 C1396 1.386 . S
C1397 C1401 1.393 . S
C1398 H1390 0.950 . S
C1398 C1396 1.391 . S
C1398 C1399 1.400 . S
C1399 C1398 1.400 . S
C1399 C1400 1.398 . S
C1399 C1405 1.491 . S
C1400 H1391 0.950 . S
C1400 C1399 1.398 . S
C1400 C1401 1.391 . S
C1401 H1389 0.950 . S
C1401 C1397 1.393 . S
C1401 C1400 1.391 . S
C1402 H1392 0.950 . S
C1402 C1403 1.386 . S
C1402 C1404 1.391 . S
C1403 C1402 1.386 . S
C1403 C1407 1.393 . S
C1404 H1393 0.950 . S
C1404 C1402 1.391 . S
C1404 C1405 1.400 . S
C1405 C1399 1.491 . S
C1405 C1404 1.400 . S
C1405 C1406 1.398 . S
C1406 H1394 0.950 . S
C1406 C1405 1.398 . S
C1406 C1407 1.391 . S
C1407 H1395 0.950 . S
C1407 C1403 1.393 . S
C1407 C1406 1.391 . S
H1408 C1416 0.950 1_565 S
H1409 C1421 0.950 . S
H1410 C1418 0.950 . S
H1411 C1420 0.950 . S
H1412 C1422 0.950 . S
H1413 C1424 0.950 . S
H1414 C1426 0.950 . S
H1415 C1427 0.950 . S
C1416 H1408 0.950 1_545 S
C1416 C1417 1.386 1_545 S
C1416 C1418 1.391 . S
C1417 C1416 1.386 1_565 S
C1417 C1421 1.393 1_565 S
C1418 H1410 0.950 . S
C1418 C1416 1.391 . S
C1418 C1419 1.400 . S
C1419 C1418 1.400 . S
C1419 C1420 1.398 . S
C1419 C1425 1.491 . S
C1420 H1411 0.950 . S
C1420 C1419 1.398 . S
C1420 C1421 1.391 . S
C1421 H1409 0.950 . S
C1421 C1417 1.393 1_545 S
C1421 C1420 1.391 . S
C1422 H1412 0.950 . S
C1422 C1423 1.386 . S
C1422 C1424 1.391 . S
C1423 C1422 1.386 . S
C1423 C1427 1.393 . S
C1424 H1413 0.950 . S
C1424 C1422 1.391 . S
C1424 C1425 1.400 . S
C1425 C1419 1.491 . S
C1425 C1424 1.400 . S
C1425 C1426 1.398 . S
C1426 H1414 0.950 . S
C1426 C1425 1.398 . S
C1426 C1427 1.391 . S
C1427 H1415 0.950 . S
C1427 C1423 1.393 . S
C1427 C1426 1.391 . S
H1428 C1436 0.940 1_565 S
H1429 C1441 0.960 . S
H1430 C1438 0.950 . S
H1431 C1440 0.950 . S
H1432 C1442 0.950 . S
H1433 C1444 0.950 . S
H1434 C1446 0.950 . S
H1435 C1447 0.950 . S
C1436 H1428 0.940 1_545 S
C1436 C1437 1.386 1_545 S
C1436 C1438 1.391 . S
C1437 C1436 1.386 1_565 S
C1437 C1441 1.393 1_565 S
C1438 H1430 0.950 . S
C1438 C1436 1.391 . S
C1438 C1439 1.400 . S
C1439 C1438 1.400 . S
C1439 C1440 1.398 . S
C1439 C1445 1.491 . S
C1440 H1431 0.950 . S
C1440 C1439 1.398 . S
C1440 C1441 1.391 . S
C1441 H1429 0.960 . S
C1441 C1437 1.393 1_545 S
C1441 C1440 1.391 . S
C1442 H1432 0.950 . S
C1442 C1443 1.386 . S
C1442 C1444 1.391 . S
C1443 C1442 1.386 . S
C1443 C1447 1.393 . S
C1444 H1433 0.950 . S
C1444 C1442 1.391 . S
C1444 C1445 1.400 . S
C1445 C1439 1.491 . S
C1445 C1444 1.400 . S
C1445 C1446 1.398 . S
C1446 H1434 0.950 . S
C1446 C1445 1.398 . S
C1446 C1447 1.391 . S
C1447 H1435 0.950 . S
C1447 C1443 1.393 . S
C1447 C1446 1.391 . S
H1448 C1456 0.950 . S
H1449 C1461 0.950 . S
H1450 C1458 0.950 . S
H1451 C1460 0.950 . S
H1452 C1462 0.950 1_545 S
H1453 C1464 0.950 . S
H1454 C1466 0.950 . S
H1455 C1467 0.950 . S
C1456 H1448 0.950 . S
C1456 C1457 1.386 . S
C1456 C1458 1.391 . S
C1457 C1456 1.386 . S
C1457 C1461 1.393 . S
C1458 H1450 0.950 . S
C1458 C1456 1.391 . S
C1458 C1459 1.400 . S
C1459 C1458 1.400 . S
C1459 C1460 1.398 . S
C1459 C1465 1.491 . S
C1460 H1451 0.950 . S
C1460 C1459 1.398 . S
C1460 C1461 1.391 . S
C1461 H1449 0.950 . S
C1461 C1457 1.393 . S
C1461 C1460 1.391 . S
C1462 H1452 0.950 1_565 S
C1462 C1463 1.386 1_565 S
C1462 C1464 1.391 . S
C1463 C1462 1.386 1_545 S
C1463 C1467 1.393 1_545 S
C1464 H1453 0.950 . S
C1464 C1462 1.391 . S
C1464 C1465 1.400 . S
C1465 C1459 1.491 . S
C1465 C1464 1.400 . S
C1465 C1466 1.398 . S
C1466 H1454 0.950 . S
C1466 C1465 1.398 . S
C1466 C1467 1.391 . S
C1467 H1455 0.950 . S
C1467 C1463 1.393 1_565 S
C1467 C1466 1.391 . S
H1468 C1476 0.950 . S
H1469 C1481 0.950 1_545 S
H1470 C1478 0.950 . S
H1471 C1480 0.950 . S
H1472 C1482 0.950 . S
H1473 C1484 0.950 . S
H1474 C1486 0.950 . S
H1475 C1487 0.950 . S
C1476 H1468 0.950 . S
C1476 C1477 1.386 1_565 S
C1476 C1478 1.391 . S
C1477 C1476 1.386 1_545 S
C1477 C1481 1.393 1_545 S
C1478 H1470 0.950 . S
C1478 C1476 1.391 . S
C1478 C1479 1.400 . S
C1479 C1478 1.400 . S
C1479 C1480 1.398 . S
C1479 C1485 1.491 . S
C1480 H1471 0.950 . S
C1480 C1479 1.398 . S
C1480 C1481 1.391 . S
C1481 H1469 0.950 1_565 S
C1481 C1477 1.393 1_565 S
C1481 C1480 1.391 . S
C1482 H1472 0.950 . S
C1482 C1483 1.386 . S
C1482 C1484 1.391 . S
C1483 C1482 1.386 . S
C1483 C1487 1.393 . S
C1484 H1473 0.950 . S
C1484 C1482 1.391 . S
C1484 C1485 1.400 . S
C1485 C1479 1.491 . S
C1485 C1484 1.400 . S
C1485 C1486 1.398 . S
C1486 H1474 0.950 . S
C1486 C1485 1.398 . S
C1486 C1487 1.391 . S
C1487 H1475 0.950 . S
C1487 C1483 1.393 . S
C1487 C1486 1.391 . S
H1488 C1496 0.950 . S
H1489 C1501 0.950 . S
H1490 C1498 0.950 . S
H1491 C1500 0.950 . S
H1492 C1502 0.950 . S
H1493 C1504 0.950 . S
H1494 C1506 0.950 . S
H1495 C1507 0.950 . S
C1496 H1488 0.950 . S
C1496 C1497 1.386 . S
C1496 C1498 1.391 . S
C1497 C1496 1.386 . S
C1497 C1501 1.393 . S
C1498 H1490 0.950 . S
C1498 C1496 1.391 . S
C1498 C1499 1.400 . S
C1499 C1498 1.400 . S
C1499 C1500 1.398 . S
C1499 C1505 1.491 . S
C1500 H1491 0.950 . S
C1500 C1499 1.398 . S
C1500 C1501 1.391 . S
C1501 H1489 0.950 . S
C1501 C1497 1.393 . S
C1501 C1500 1.391 . S
C1502 H1492 0.950 . S
C1502 C1503 1.386 . S
C1502 C1504 1.391 . S
C1503 C1502 1.386 . S
C1503 C1507 1.393 . S
C1504 H1493 0.950 . S
C1504 C1502 1.391 . S
C1504 C1505 1.400 . S
C1505 C1499 1.491 . S
C1505 C1504 1.400 . S
C1505 C1506 1.398 . S
C1506 H1494 0.950 . S
C1506 C1505 1.398 . S
C1506 C1507 1.391 . S
C1507 H1495 0.950 . S
C1507 C1503 1.393 . S
C1507 C1506 1.391 . S
H1508 C1516 0.950 . S
H1509 C1521 0.950 . S
H1510 C1518 0.950 . S
H1511 C1520 0.950 . S
H1512 C1522 0.950 . S
H1513 C1524 0.950 . S
H1514 C1526 0.950 . S
H1515 C1527 0.950 . S
C1516 H1508 0.950 . S
C1516 C1517 1.386 . S
C1516 C1518 1.391 . S
C1517 C1516 1.386 . S
C1517 C1521 1.393 . S
C1518 H1510 0.950 . S
C1518 C1516 1.391 . S
C1518 C1519 1.400 . S
C1519 C1518 1.400 . S
C1519 C1520 1.398 . S
C1519 C1525 1.491 . S
C1520 H1511 0.950 . S
C1520 C1519 1.398 . S
C1520 C1521 1.391 . S
C1521 H1509 0.950 . S
C1521 C1517 1.393 . S
C1521 C1520 1.391 . S
C1522 H1512 0.950 . S
C1522 C1523 1.386 . S
C1522 C1524 1.391 . S
C1523 C1522 1.386 . S
C1523 C1527 1.393 . S
C1524 H1513 0.950 . S
C1524 C1522 1.391 . S
C1524 C1525 1.400 . S
C1525 C1519 1.491 . S
C1525 C1524 1.400 . S
C1525 C1526 1.398 . S
C1526 H1514 0.950 . S
C1526 C1525 1.398 . S
C1526 C1527 1.391 . S
C1527 H1515 0.950 . S
C1527 C1523 1.393 . S
C1527 C1526 1.391 . S
H1528 C1536 0.950 . S
H1529 C1541 0.950 . S
H1530 C1538 0.950 . S
H1531 C1540 0.950 . S
H1532 C1542 0.950 . S
H1533 C1544 0.950 . S
H1534 C1546 0.950 . S
H1535 C1547 0.950 . S
C1536 H1528 0.950 . S
C1536 C1537 1.386 . S
C1536 C1538 1.391 . S
C1537 C1536 1.386 . S
C1537 C1541 1.393 . S
C1538 H1530 0.950 . S
C1538 C1536 1.391 . S
C1538 C1539 1.400 . S
C1539 C1538 1.400 . S
C1539 C1540 1.398 . S
C1539 C1545 1.491 . S
C1540 H1531 0.950 . S
C1540 C1539 1.398 . S
C1540 C1541 1.391 . S
C1541 H1529 0.950 . S
C1541 C1537 1.393 . S
C1541 C1540 1.391 . S
C1542 H1532 0.950 . S
C1542 C1543 1.386 . S
C1542 C1544 1.391 . S
C1543 C1542 1.386 . S
C1543 C1547 1.393 . S
C1544 H1533 0.950 . S
C1544 C1542 1.391 . S
C1544 C1545 1.400 . S
C1545 C1539 1.491 . S
C1545 C1544 1.400 . S
C1545 C1546 1.398 . S
C1546 H1534 0.950 . S
C1546 C1545 1.398 . S
C1546 C1547 1.391 . S
C1547 H1535 0.950 . S
C1547 C1543 1.393 . S
C1547 C1546 1.391 . S
H1548 C1556 0.950 . S
H1549 C1561 0.950 . S
H1550 C1558 0.950 . S
H1551 C1560 0.950 . S
H1552 C1562 0.950 . S
H1553 C1564 0.950 . S
H1554 C1566 0.950 . S
H1555 C1567 0.950 . S
C1556 H1548 0.950 . S
C1556 C1557 1.386 . S
C1556 C1558 1.391 . S
C1557 C1556 1.386 . S
C1557 C1561 1.393 . S
C1558 H1550 0.950 . S
C1558 C1556 1.391 . S
C1558 C1559 1.400 . S
C1559 C1558 1.400 . S
C1559 C1560 1.398 . S
C1559 C1565 1.491 . S
C1560 H1551 0.950 . S
C1560 C1559 1.398 . S
C1560 C1561 1.391 . S
C1561 H1549 0.950 . S
C1561 C1557 1.393 . S
C1561 C1560 1.391 . S
C1562 H1552 0.950 . S
C1562 C1563 1.386 . S
C1562 C1564 1.391 . S
C1563 C1562 1.386 . S
C1563 C1567 1.393 . S
C1564 H1553 0.950 . S
C1564 C1562 1.391 . S
C1564 C1565 1.400 . S
C1565 C1559 1.491 . S
C1565 C1564 1.400 . S
C1565 C1566 1.398 . S
C1566 H1554 0.950 . S
C1566 C1565 1.398 . S
C1566 C1567 1.391 . S
C1567 H1555 0.950 . S
C1567 C1563 1.393 . S
C1567 C1566 1.391 . S
H1568 C1576 0.950 1_565 S
H1569 C1581 0.950 . S
H1570 C1578 0.950 . S
H1571 C1580 0.950 . S
H1572 C1582 0.950 . S
H1573 C1584 0.950 . S
H1574 C1586 0.950 . S
H1575 C1587 0.950 . S
C1576 H1568 0.950 1_545 S
C1576 C1577 1.386 1_545 S
C1576 C1578 1.391 . S
C1577 C1576 1.386 1_565 S
C1577 C1581 1.393 1_565 S
C1578 H1570 0.950 . S
C1578 C1576 1.391 . S
C1578 C1579 1.400 . S
C1579 C1578 1.400 . S
C1579 C1580 1.398 . S
C1579 C1585 1.491 . S
C1580 H1571 0.950 . S
C1580 C1579 1.398 . S
C1580 C1581 1.391 . S
C1581 H1569 0.950 . S
C1581 C1577 1.393 1_545 S
C1581 C1580 1.391 . S
C1582 H1572 0.950 . S
C1582 C1583 1.386 . S
C1582 C1584 1.391 . S
C1583 C1582 1.386 . S
C1583 C1587 1.393 . S
C1584 H1573 0.950 . S
C1584 C1582 1.391 . S
C1584 C1585 1.400 . S
C1585 C1579 1.491 . S
C1585 C1584 1.400 . S
C1585 C1586 1.398 . S
C1586 H1574 0.950 . S
C1586 C1585 1.398 . S
C1586 C1587 1.391 . S
C1587 H1575 0.950 . S
C1587 C1583 1.393 . S
C1587 C1586 1.391 . S
H1588 C1596 0.950 . S
H1589 C1601 0.950 . S
H1590 C1598 0.950 . S
H1591 C1600 0.950 . S
H1592 C1602 0.950 1_565 S
H1593 C1604 0.950 . S
H1594 C1606 0.950 . S
H1595 C1607 0.950 . S
C1596 H1588 0.950 . S
C1596 C1597 1.386 . S
C1596 C1598 1.391 . S
C1597 C1596 1.386 . S
C1597 C1601 1.393 . S
C1598 H1590 0.950 . S
C1598 C1596 1.391 . S
C1598 C1599 1.400 . S
C1599 C1598 1.400 . S
C1599 C1600 1.398 . S
C1599 C1605 1.491 . S
C1600 H1591 0.950 . S
C1600 C1599 1.398 . S
C1600 C1601 1.391 . S
C1601 H1589 0.950 . S
C1601 C1597 1.393 . S
C1601 C1600 1.391 . S
C1602 H1592 0.950 1_545 S
C1602 C1603 1.386 1_545 S
C1602 C1604 1.391 . S
C1603 C1602 1.386 1_565 S
C1603 C1607 1.393 1_565 S
C1604 H1593 0.950 . S
C1604 C1602 1.391 . S
C1604 C1605 1.400 . S
C1605 C1599 1.491 . S
C1605 C1604 1.400 . S
C1605 C1606 1.398 . S
C1606 H1594 0.950 . S
C1606 C1605 1.398 . S
C1606 C1607 1.391 . S
C1607 H1595 0.950 . S
C1607 C1603 1.393 1_545 S
C1607 C1606 1.391 . S
H1608 C1616 0.950 . S
H1609 C1621 0.950 . S
H1610 C1618 0.950 . S
H1611 C1620 0.950 . S
H1612 C1622 0.950 1_545 S
H1613 C1624 0.950 . S
H1614 C1626 0.950 . S
H1615 C1627 0.950 . S
C1616 H1608 0.950 . S
C1616 C1617 1.386 . S
C1616 C1618 1.391 . S
C1617 C1616 1.386 . S
C1617 C1621 1.393 . S
C1618 H1610 0.950 . S
C1618 C1616 1.391 . S
C1618 C1619 1.400 . S
C1619 C1618 1.400 . S
C1619 C1620 1.398 . S
C1619 C1625 1.491 . S
C1620 H1611 0.950 . S
C1620 C1619 1.398 . S
C1620 C1621 1.391 . S
C1621 H1609 0.950 . S
C1621 C1617 1.393 . S
C1621 C1620 1.391 . S
C1622 H1612 0.950 1_565 S
C1622 C1623 1.386 1_565 S
C1622 C1624 1.391 . S
C1623 C1622 1.386 1_545 S
C1623 C1627 1.393 1_545 S
C1624 H1613 0.950 . S
C1624 C1622 1.391 . S
C1624 C1625 1.400 . S
C1625 C1619 1.491 . S
C1625 C1624 1.400 . S
C1625 C1626 1.398 . S
C1626 H1614 0.950 . S
C1626 C1625 1.398 . S
C1626 C1627 1.391 . S
C1627 H1615 0.950 . S
C1627 C1623 1.393 1_565 S
C1627 C1626 1.391 . S
H1628 C1636 0.950 . S
H1629 C1641 0.950 . S
H1630 C1638 0.950 . S
H1631 C1640 0.950 . S
H1632 C1642 0.949 . S
H1633 C1644 0.950 . S
H1634 C1646 0.950 . S
H1635 C1647 0.950 . S
C1636 H1628 0.950 . S
C1636 C1637 1.386 . S
C1636 C1638 1.391 . S
C1637 C1636 1.386 . S
C1637 C1641 1.393 . S
C1638 H1630 0.950 . S
C1638 C1636 1.391 . S
C1638 C1639 1.400 . S
C1639 C1638 1.400 . S
C1639 C1640 1.398 . S
C1639 C1645 1.491 . S
C1640 H1631 0.950 . S
C1640 C1639 1.398 . S
C1640 C1641 1.391 . S
C1641 H1629 0.950 . S
C1641 C1637 1.393 . S
C1641 C1640 1.391 . S
C1642 H1632 0.949 . S
C1642 C1643 1.386 1_565 S
C1642 C1644 1.391 . S
C1643 C1642 1.386 1_545 S
C1643 C1647 1.393 1_545 S
C1644 H1633 0.950 . S
C1644 C1642 1.391 . S
C1644 C1645 1.400 . S
C1645 C1639 1.491 . S
C1645 C1644 1.400 . S
C1645 C1646 1.398 . S
C1646 H1634 0.950 . S
C1646 C1645 1.398 . S
C1646 C1647 1.391 . S
C1647 H1635 0.950 . S
C1647 C1643 1.393 1_565 S
C1647 C1646 1.391 . S
H1648 C1656 0.950 . S
H1649 C1661 0.950 . S
H1650 C1658 0.950 . S
H1651 C1660 0.950 . S
H1652 C1662 0.950 . S
H1653 C1664 0.950 . S
H1654 C1666 0.950 . S
H1655 C1667 0.950 . S
C1656 H1648 0.950 . S
C1656 C1657 1.386 . S
C1656 C1658 1.391 . S
C1657 C1656 1.386 . S
C1657 C1661 1.393 . S
C1658 H1650 0.950 . S
C1658 C1656 1.391 . S
C1658 C1659 1.400 . S
C1659 C1658 1.400 . S
C1659 C1660 1.398 . S
C1659 C1665 1.491 . S
C1660 H1651 0.950 . S
C1660 C1659 1.398 . S
C1660 C1661 1.391 . S
C1661 H1649 0.950 . S
C1661 C1657 1.393 . S
C1661 C1660 1.391 . S
C1662 H1652 0.950 . S
C1662 C1663 1.386 . S
C1662 C1664 1.391 . S
C1663 C1662 1.386 . S
C1663 C1667 1.393 . S
C1664 H1653 0.950 . S
C1664 C1662 1.391 . S
C1664 C1665 1.400 . S
C1665 C1659 1.491 . S
C1665 C1664 1.400 . S
C1665 C1666 1.398 . S
C1666 H1654 0.950 . S
C1666 C1665 1.398 . S
C1666 C1667 1.391 . S
C1667 H1655 0.950 . S
C1667 C1663 1.393 . S
C1667 C1666 1.391 . S
H1668 C1676 0.950 . S
H1669 C1681 0.950 . S
H1670 C1678 0.950 . S
H1671 C1680 0.950 . S
H1672 C1682 0.950 . S
H1673 C1684 0.950 . S
H1674 C1686 0.950 . S
H1675 C1687 0.950 . S
C1676 H1668 0.950 . S
C1676 C1677 1.386 . S
C1676 C1678 1.391 . S
C1677 C1676 1.386 . S
C1677 C1681 1.393 . S
C1678 H1670 0.950 . S
C1678 C1676 1.391 . S
C1678 C1679 1.400 . S
C1679 C1678 1.400 . S
C1679 C1680 1.398 . S
C1679 C1685 1.491 . S
C1680 H1671 0.950 . S
C1680 C1679 1.398 . S
C1680 C1681 1.391 . S
C1681 H1669 0.950 . S
C1681 C1677 1.393 . S
C1681 C1680 1.391 . S
C1682 H1672 0.950 . S
C1682 C1683 1.386 . S
C1682 C1684 1.391 . S
C1683 C1682 1.386 . S
C1683 C1687 1.393 . S
C1684 H1673 0.950 . S
C1684 C1682 1.391 . S
C1684 C1685 1.400 . S
C1685 C1679 1.491 . S
C1685 C1684 1.400 . S
C1685 C1686 1.398 . S
C1686 H1674 0.950 . S
C1686 C1685 1.398 . S
C1686 C1687 1.391 . S
C1687 H1675 0.950 . S
C1687 C1683 1.393 . S
C1687 C1686 1.391 . S
H1688 C1696 0.950 . S
H1689 C1701 0.950 . S
H1690 C1698 0.950 . S
H1691 C1700 0.950 . S
H1692 C1702 0.950 . S
H1693 C1704 0.950 . S
H1694 C1706 0.950 . S
H1695 C1707 0.950 . S
C1696 H1688 0.950 . S
C1696 C1697 1.386 . S
C1696 C1698 1.391 . S
C1697 C1696 1.386 . S
C1697 C1701 1.393 . S
C1698 H1690 0.950 . S
C1698 C1696 1.391 . S
C1698 C1699 1.400 . S
C1699 C1698 1.400 . S
C1699 C1700 1.398 . S
C1699 C1705 1.491 . S
C1700 H1691 0.950 . S
C1700 C1699 1.398 . S
C1700 C1701 1.391 . S
C1701 H1689 0.950 . S
C1701 C1697 1.393 . S
C1701 C1700 1.391 . S
C1702 H1692 0.950 . S
C1702 C1703 1.386 . S
C1702 C1704 1.391 . S
C1703 C1702 1.386 . S
C1703 C1707 1.393 . S
C1704 H1693 0.950 . S
C1704 C1702 1.391 . S
C1704 C1705 1.400 . S
C1705 C1699 1.491 . S
C1705 C1704 1.400 . S
C1705 C1706 1.398 . S
C1706 H1694 0.950 . S
C1706 C1705 1.398 . S
C1706 C1707 1.391 . S
C1707 H1695 0.950 . S
C1707 C1703 1.393 . S
C1707 C1706 1.391 . S
H1708 C1716 0.950 . S
H1709 C1721 0.950 . S
H1710 C1718 0.950 . S
H1711 C1720 0.950 . S
H1712 C1722 0.950 . S
H1713 C1724 0.950 . S
H1714 C1726 0.950 . S
H1715 C1727 0.950 . S
C1716 H1708 0.950 . S
C1716 C1717 1.386 . S
C1716 C1718 1.391 . S
C1717 C1716 1.386 . S
C1717 C1721 1.393 . S
C1718 H1710 0.950 . S
C1718 C1716 1.391 . S
C1718 C1719 1.400 . S
C1719 C1718 1.400 . S
C1719 C1720 1.398 . S
C1719 C1725 1.491 . S
C1720 H1711 0.950 . S
C1720 C1719 1.398 . S
C1720 C1721 1.391 . S
C1721 H1709 0.950 . S
C1721 C1717 1.393 . S
C1721 C1720 1.391 . S
C1722 H1712 0.950 . S
C1722 C1723 1.386 . S
C1722 C1724 1.391 . S
C1723 C1722 1.386 . S
C1723 C1727 1.393 . S
C1724 H1713 0.950 . S
C1724 C1722 1.391 . S
C1724 C1725 1.400 . S
C1725 C1719 1.491 . S
C1725 C1724 1.400 . S
C1725 C1726 1.398 . S
C1726 H1714 0.950 . S
C1726 C1725 1.398 . S
C1726 C1727 1.391 . S
C1727 H1715 0.950 . S
C1727 C1723 1.393 . S
C1727 C1726 1.391 . S
C457 C35 0.363 . S
C463 C7 0.401 . S
C477 C21 0.405 . S
C483 C49 0.342 . S
C497 C91 0.351 . S
C503 C63 0.380 . S
C517 C105 0.359 . S
C523 C77 0.403 . S
C537 C119 0.353 . S
C543 C147 0.376 . S
C557 C161 0.361 . S
C563 C133 0.368 . S
C577 C175 0.367 . S
C583 C203 0.362 . S
C597 C189 0.365 . S
C603 C217 0.400 . S
C617 C259 0.389 . S
C623 C231 0.344 . S
C637 C245 0.354 . S
C643 C273 0.405 . S
C657 C287 0.342 . S
C663 C315 0.406 . S
C677 C329 0.399 . S
C683 C301 0.366 . S
C697 C371 0.379 . S
C703 C343 0.351 . S
C717 C385 0.353 . S
C723 C357 0.405 . S
C737 C427 0.365 . S
C743 C399 0.364 . S
C757 C413 0.397 . S
C763 C441 0.369 . S
C777 C64 1.599 . S
C783 C8 1.599 . S
C797 C414 1.612 . S
C803 C22 1.612 . S
C817 C36 1.613 . S
C823 C204 1.613 . S
C837 C50 1.610 . S
C843 C330 1.610 . S
C857 C78 1.610 . S
C863 C358 1.610 . S
C877 C92 1.610 . S
C883 C148 1.610 . S
C897 C274 1.599 . S
C903 C106 1.599 . S
C917 C176 1.608 . S
C923 C120 1.608 . S
C937 C302 1.605 . S
C943 C134 1.605 . S
C957 C162 1.606 . S
C963 C442 1.606 . S
C977 C190 1.600 . S
C983 C246 1.600 . S
C997 C386 1.608 . S
C1003 C218 1.608 . S
C1017 C288 1.599 . S
C1023 C232 1.599 . S
C1037 C260 1.603 . S
C1043 C428 1.603 . S
C1057 C316 1.606 . S
C1063 C372 1.606 . S
C1077 C400 1.612 . S
C1083 C344 1.612 . S
C1097 C51 1.481 . S
C1103 C9 1.480 . S
C1117 C37 1.484 . S
C1123 C23 1.483 . S
C1137 C107 1.495 . S
C1143 C65 1.494 . S
C1157 C93 1.480 . S
C1163 C79 1.481 . S
C1177 C163 1.483 . S
C1183 C121 1.484 . S
C1197 C149 1.496 . S
C1203 C135 1.496 . S
C1217 C219 1.478 . S
C1223 C177 1.479 . S
C1237 C205 1.486 . S
C1243 C191 1.485 . S
C1257 C233 1.496 . S
C1263 C275 1.496 . S
C1277 C261 1.496 . S
C1283 C247 1.496 . S
C1297 C289 1.494 . S
C1303 C331 1.494 . S
C1317 C317 1.487 . S
C1323 C303 1.486 . S
C1337 C387 1.478 . S
C1343 C345 1.478 . S
C1357 C359 1.483 . S
C1363 C373 1.482 . S
C1377 C401 1.493 . S
C1383 C443 1.492 . S
C1397 C429 1.478 . S
C1403 C415 1.478 . S
C1417 C31 1.491 . S
C1423 C3 1.487 . S
C1437 C17 1.501 . S
C1443 C45 1.499 . S
C1457 C59 1.486 . S
C1463 C87 1.497 . S
C1477 C73 1.499 . S
C1483 C101 1.487 . S
C1497 C115 1.492 . S
C1503 C143 1.486 . S
C1517 C129 1.496 . S
C1523 C157 1.502 . S
C1537 C199 1.497 . S
C1543 C171 1.502 . S
C1557 C213 1.486 . S
C1563 C185 1.492 . S
C1577 C255 1.503 . S
C1583 C227 1.493 . S
C1597 C269 1.490 . S
C1603 C241 1.488 . S
C1617 C283 1.495 . S
C1623 C311 1.502 . S
C1637 C325 1.489 . S
C1643 C297 1.488 . S
C1657 C367 1.488 . S
C1663 C339 1.489 . S
C1677 C353 1.486 . S
C1683 C381 1.493 . S
C1697 C395 1.493 . S
C1703 C423 1.503 . S
C1717 C437 1.486 . S
C1723 C409 1.497 . S
