# Generated by pormake.
# Topology gan, (5)-cn, num edge types: 1
# Building blocks:
#     Node 0, Type 0, BuildingBlock: XOMCOT_clean_sbu_1, # of connection points: 5
#     Node 1, Type 0, BuildingBlock: XOMCOT_clean_sbu_1, # of connection points: 5
#     Node 2, Type 0, BuildingBlock: XOMCOT_clean_sbu_1, # of connection points: 5
#     Node 3, Type 0, BuildingBlock: XOMCOT_clean_sbu_1, # of connection points: 5
#     Node 4, Type 0, BuildingBlock: XOMCOT_clean_sbu_1, # of connection points: 5
#     Node 5, Type 0, BuildingBlock: XOMCOT_clean_sbu_1, # of connection points: 5
#     Node 6, Type 0, BuildingBlock: XOMCOT_clean_sbu_1, # of connection points: 5
#     Node 7, Type 0, BuildingBlock: XOMCOT_clean_sbu_1, # of connection points: 5
#     Node 8, Type 0, BuildingBlock: XOMCOT_clean_sbu_1, # of connection points: 5
#     Node 9, Type 0, BuildingBlock: XOMCOT_clean_sbu_1, # of connection points: 5
#     Node 10, Type 0, BuildingBlock: XOMCOT_clean_sbu_1, # of connection points: 5
#     Node 11, Type 0, BuildingBlock: XOMCOT_clean_sbu_1, # of connection points: 5
#     Node 12, Type 0, BuildingBlock: XOMCOT_clean_sbu_1, # of connection points: 5
#     Node 13, Type 0, BuildingBlock: XOMCOT_clean_sbu_1, # of connection points: 5
#     Node 14, Type 0, BuildingBlock: XOMCOT_clean_sbu_1, # of connection points: 5
#     Node 15, Type 0, BuildingBlock: XOMCOT_clean_sbu_1, # of connection points: 5
#     Edge 16, Type (0, 0), BuildingBlock: ZUJKAS_clean_linker_0, # of connection points: 2
#     Edge 17, Type (0, 0), BuildingBlock: ZUJKAS_clean_linker_0, # of connection points: 2
#     Edge 18, Type (0, 0), BuildingBlock: ZUJKAS_clean_linker_0, # of connection points: 2
#     Edge 19, Type (0, 0), BuildingBlock: ZUJKAS_clean_linker_0, # of connection points: 2
#     Edge 20, Type (0, 0), BuildingBlock: ZUJKAS_clean_linker_0, # of connection points: 2
#     Edge 21, Type (0, 0), BuildingBlock: ZUJKAS_clean_linker_0, # of connection points: 2
#     Edge 22, Type (0, 0), BuildingBlock: ZUJKAS_clean_linker_0, # of connection points: 2
#     Edge 23, Type (0, 0), BuildingBlock: ZUJKAS_clean_linker_0, # of connection points: 2
#     Edge 24, Type (0, 0), BuildingBlock: ZUJKAS_clean_linker_0, # of connection points: 2
#     Edge 25, Type (0, 0), BuildingBlock: ZUJKAS_clean_linker_0, # of connection points: 2
#     Edge 26, Type (0, 0), BuildingBlock: ZUJKAS_clean_linker_0, # of connection points: 2
#     Edge 27, Type (0, 0), BuildingBlock: ZUJKAS_clean_linker_0, # of connection points: 2
#     Edge 28, Type (0, 0), BuildingBlock: ZUJKAS_clean_linker_0, # of connection points: 2
#     Edge 29, Type (0, 0), BuildingBlock: ZUJKAS_clean_linker_0, # of connection points: 2
#     Edge 30, Type (0, 0), BuildingBlock: ZUJKAS_clean_linker_0, # of connection points: 2
#     Edge 31, Type (0, 0), BuildingBlock: ZUJKAS_clean_linker_0, # of connection points: 2
#     Edge 32, Type (0, 0), BuildingBlock: ZUJKAS_clean_linker_0, # of connection points: 2
#     Edge 33, Type (0, 0), BuildingBlock: ZUJKAS_clean_linker_0, # of connection points: 2
#     Edge 34, Type (0, 0), BuildingBlock: ZUJKAS_clean_linker_0, # of connection points: 2
#     Edge 35, Type (0, 0), BuildingBlock: ZUJKAS_clean_linker_0, # of connection points: 2
#     Edge 36, Type (0, 0), BuildingBlock: ZUJKAS_clean_linker_0, # of connection points: 2
#     Edge 37, Type (0, 0), BuildingBlock: ZUJKAS_clean_linker_0, # of connection points: 2
#     Edge 38, Type (0, 0), BuildingBlock: ZUJKAS_clean_linker_0, # of connection points: 2
#     Edge 39, Type (0, 0), BuildingBlock: ZUJKAS_clean_linker_0, # of connection points: 2
#     Edge 40, Type (0, 0), BuildingBlock: ZUJKAS_clean_linker_0, # of connection points: 2
#     Edge 41, Type (0, 0), BuildingBlock: ZUJKAS_clean_linker_0, # of connection points: 2
#     Edge 42, Type (0, 0), BuildingBlock: ZUJKAS_clean_linker_0, # of connection points: 2
#     Edge 43, Type (0, 0), BuildingBlock: ZUJKAS_clean_linker_0, # of connection points: 2
#     Edge 44, Type (0, 0), BuildingBlock: ZUJKAS_clean_linker_0, # of connection points: 2
#     Edge 45, Type (0, 0), BuildingBlock: ZUJKAS_clean_linker_0, # of connection points: 2
#     Edge 46, Type (0, 0), BuildingBlock: ZUJKAS_clean_linker_0, # of connection points: 2
#     Edge 47, Type (0, 0), BuildingBlock: ZUJKAS_clean_linker_0, # of connection points: 2
#     Edge 48, Type (0, 0), BuildingBlock: ZUJKAS_clean_linker_0, # of connection points: 2
#     Edge 49, Type (0, 0), BuildingBlock: ZUJKAS_clean_linker_0, # of connection points: 2
#     Edge 50, Type (0, 0), BuildingBlock: ZUJKAS_clean_linker_0, # of connection points: 2
#     Edge 51, Type (0, 0), BuildingBlock: ZUJKAS_clean_linker_0, # of connection points: 2
#     Edge 52, Type (0, 0), BuildingBlock: ZUJKAS_clean_linker_0, # of connection points: 2
#     Edge 53, Type (0, 0), BuildingBlock: ZUJKAS_clean_linker_0, # of connection points: 2
#     Edge 54, Type (0, 0), BuildingBlock: ZUJKAS_clean_linker_0, # of connection points: 2
#     Edge 55, Type (0, 0), BuildingBlock: ZUJKAS_clean_linker_0, # of connection points: 2
# Relax obj value: 0.092
# Max RMSD: 0.105
# Mean RMSD: 0.097
data_MOF--net-gan--node1-XOMCOT_clean_sbu_1--edge1-ZUJKAS_clean_linker_0
_symmetry_space_group_name_H-M    P1
_symmetry_Int_Tables_number       1
_symmetry_cell_setting            triclinic
loop_
_symmetry_equiv_pos_as_xyz
'x, y, z'
_cell_length_a     53.649714
_cell_length_b     53.674028
_cell_length_c     52.725715
_cell_angle_alpha  90.172183
_cell_angle_beta   90.887347
_cell_angle_gamma 91.460502
loop_
_atom_site_label
_atom_site_type_symbol
_atom_site_fract_x
_atom_site_fract_y
_atom_site_fract_z
_atom_type_partial_charge
C0 C 0.15303 0.14626 0.22037 0.0
C1 C 0.13708 0.12962 0.20795 0.0
N2 N 0.13666 0.13487 0.18294 0.0
N3 N 0.16323 0.16226 0.20361 0.0
C4 C 0.15264 0.15501 0.18085 0.0
H5 H 0.15688 0.14673 0.24056 0.0
Co6 Co 0.1865 0.18846 0.21424 0.0
C7 C 0.22257 0.19116 0.17222 0.0
O8 O 0.24123 0.19359 0.18857 0.0
N9 N 0.20943 0.21571 0.22536 0.0
C10 C 0.22853 0.25322 0.22334 0.0
C11 C 0.21352 0.23595 0.21071 0.0
C12 C 0.22217 0.2218 0.24742 0.0
N13 N 0.23408 0.24464 0.24671 0.0
O14 O 0.163 0.21226 0.20404 0.0
H15 H 0.20569 0.23829 0.19187 0.0
H16 H 0.22213 0.21026 0.26413 0.0
O17 O 0.20026 0.18895 0.1802 0.0
C18 C 0.15048 0.22153 0.22186 0.0
O19 O 0.15542 0.21486 0.24533 0.0
N20 N 0.20851 0.16428 0.22572 0.0
C21 C 0.23303 0.12463 0.24837 0.0
C22 C 0.23172 0.12685 0.22186 0.0
C23 C 0.21882 0.14647 0.21089 0.0
C24 C 0.20937 0.16224 0.25143 0.0
C25 C 0.22186 0.14286 0.26318 0.0
H26 H 0.21597 0.14635 0.1906 0.0
H27 H 0.19884 0.17482 0.26289 0.0
H28 H 0.15671 0.16418 0.16309 0.0
H29 H 0.1262 0.11497 0.21693 0.0
H30 H 0.23475 0.27089 0.21559 0.0
H31 H 0.23957 0.11292 0.20965 0.0
H32 H 0.22125 0.14131 0.28363 0.0
C33 C 0.20746 0.85062 0.30256 0.0
C34 C 0.22319 0.83698 0.28782 0.0
N35 N 0.21927 0.81243 0.29194 0.0
N36 N 0.19297 0.83555 0.31694 0.0
C37 C 0.20085 0.81209 0.30996 0.0
H38 H 0.20625 0.87065 0.30187 0.0
Co39 Co 0.16497 0.85 0.33704 0.0
C40 C 0.16677 0.8298 0.38853 0.0
O41 O 0.14239 0.82681 0.388 0.0
N42 N 0.13628 0.86545 0.35643 0.0
C43 C 0.09691 0.87203 0.3687 0.0
C44 C 0.112 0.85842 0.35329 0.0
C45 C 0.1347 0.88435 0.3744 0.0
N46 N 0.11076 0.88863 0.38235 0.0
O47 O 0.18441 0.87954 0.34354 0.0
H48 H 0.105 0.8439 0.3408 0.0
H49 H 0.15089 0.89455 0.38184 0.0
O50 O 0.17824 0.83666 0.36854 0.0
C51 C 0.17713 0.89898 0.3322 0.0
O52 O 0.1571 0.89737 0.31755 0.0
N53 N 0.14589 0.82157 0.3288 0.0
C54 C 0.11516 0.78344 0.30911 0.0
C55 C 0.13072 0.77924 0.33025 0.0
C56 C 0.1463 0.7985 0.33961 0.0
C57 C 0.13261 0.8253 0.30699 0.0
C58 C 0.11676 0.80667 0.29706 0.0
H59 H 0.1589 0.79454 0.3551 0.0
H60 H 0.13359 0.84334 0.29792 0.0
H61 H 0.19252 0.79499 0.31704 0.0
H62 H 0.23646 0.84485 0.27462 0.0
H63 H 0.07682 0.86986 0.36954 0.0
H64 H 0.13083 0.76125 0.33949 0.0
H65 H 0.10517 0.81085 0.2807 0.0
C66 C 0.38289 0.82917 0.65663 0.0
C67 C 0.36963 0.81184 0.67062 0.0
N68 N 0.35527 0.82366 0.68738 0.0
N69 N 0.37759 0.85243 0.66416 0.0
C70 C 0.36042 0.84842 0.68296 0.0
H71 H 0.39543 0.82493 0.64147 0.0
Co72 Co 0.39263 0.88163 0.64739 0.0
C73 C 0.39644 0.91764 0.68883 0.0
O74 O 0.41998 0.92156 0.68319 0.0
N75 N 0.40766 0.91095 0.62993 0.0
C76 C 0.41088 0.95043 0.61638 0.0
C77 C 0.39705 0.9335 0.63025 0.0
C78 C 0.42806 0.91495 0.61475 0.0
N79 N 0.43059 0.93906 0.60642 0.0
O80 O 0.42374 0.87522 0.66346 0.0
H81 H 0.37994 0.93748 0.63989 0.0
H82 H 0.44092 0.90057 0.60993 0.0
O83 O 0.38306 0.90219 0.67578 0.0
C84 C 0.4386 0.86293 0.64999 0.0
O85 O 0.43128 0.85587 0.62712 0.0
N86 N 0.36278 0.8866 0.63039 0.0
C87 C 0.32007 0.88635 0.60006 0.0
C88 C 0.31856 0.89082 0.62621 0.0
C89 C 0.34035 0.89112 0.64115 0.0
C90 C 0.36453 0.88249 0.60504 0.0
C91 C 0.34344 0.88262 0.58943 0.0
H92 H 0.33904 0.89403 0.66136 0.0
H93 H 0.38241 0.87837 0.59703 0.0
H94 H 0.35187 0.86333 0.69326 0.0
H95 H 0.37014 0.79184 0.66809 0.0
H96 H 0.40633 0.96975 0.61342 0.0
H97 H 0.30072 0.89359 0.635 0.0
H98 H 0.34524 0.87863 0.56939 0.0
C99 C 0.3616 0.15436 0.90897 0.0
C100 C 0.37863 0.14227 0.92403 0.0
N101 N 0.37507 0.11735 0.92177 0.0
N102 N 0.34659 0.13778 0.89661 0.0
C103 C 0.35516 0.11515 0.90499 0.0
H104 H 0.36013 0.17435 0.90722 0.0
Co105 Co 0.32056 0.15149 0.87414 0.0
C106 C 0.30691 0.11222 0.83766 0.0
O107 O 0.30525 0.13007 0.82076 0.0
N108 N 0.29359 0.16654 0.85226 0.0
C109 C 0.25435 0.16958 0.83714 0.0
C110 C 0.27023 0.15651 0.85265 0.0
C111 C 0.29072 0.18663 0.83613 0.0
N112 N 0.26692 0.18875 0.82639 0.0
O113 O 0.29735 0.14722 0.90096 0.0
H114 H 0.26488 0.14031 0.86364 0.0
H115 H 0.30569 0.19952 0.83136 0.0
O116 O 0.31229 0.11789 0.86077 0.0
C117 C 0.29212 0.16738 0.91227 0.0
O118 O 0.30111 0.18856 0.90337 0.0
N119 N 0.34473 0.15669 0.84936 0.0
C120 C 0.38759 0.16751 0.82185 0.0
C121 C 0.38019 0.14279 0.82652 0.0
C122 C 0.35905 0.13778 0.84078 0.0
C123 C 0.35162 0.18085 0.84496 0.0
C124 C 0.37274 0.18671 0.83081 0.0
H125 H 0.35542 0.11875 0.84645 0.0
H126 H 0.34171 0.19566 0.85395 0.0
H127 H 0.34712 0.09744 0.89876 0.0
H128 H 0.39242 0.15151 0.93619 0.0
H129 H 0.23466 0.16534 0.83442 0.0
H130 H 0.39169 0.12745 0.82098 0.0
H131 H 0.3781 0.20609 0.82808 0.0
C132 C 0.69371 0.34512 0.79331 0.0
C133 C 0.70933 0.33178 0.77811 0.0
N134 N 0.71399 0.30962 0.78888 0.0
N135 N 0.68778 0.3321 0.81432 0.0
C136 C 0.70066 0.3103 0.81104 0.0
H137 H 0.68618 0.36302 0.78857 0.0
Co138 Co 0.66117 0.34514 0.8366 0.0
C139 C 0.66831 0.32474 0.88755 0.0
O140 O 0.64421 0.32031 0.88928 0.0
N141 N 0.6333 0.35911 0.85833 0.0
C142 C 0.59492 0.36227 0.87477 0.0
C143 C 0.60976 0.34931 0.85853 0.0
C144 C 0.63144 0.37899 0.8751 0.0
N145 N 0.60813 0.38123 0.88554 0.0
O146 O 0.67979 0.37527 0.84148 0.0
H147 H 0.60323 0.3332 0.8479 0.0
H148 H 0.64702 0.39142 0.87988 0.0
O149 O 0.67748 0.33226 0.86662 0.0
C150 C 0.67094 0.39348 0.82926 0.0
O151 O 0.65022 0.38989 0.81596 0.0
N152 N 0.64288 0.31621 0.82942 0.0
C153 C 0.61303 0.27775 0.8092 0.0
C154 C 0.62921 0.27339 0.82985 0.0
C155 C 0.64448 0.29287 0.83941 0.0
C156 C 0.6287 0.32026 0.8083 0.0
C157 C 0.61355 0.30137 0.79793 0.0
H158 H 0.65757 0.28898 0.8545 0.0
H159 H 0.62891 0.33856 0.79976 0.0
H160 H 0.69919 0.29468 0.82391 0.0
H161 H 0.71638 0.33789 0.75997 0.0
H162 H 0.57543 0.35802 0.8782 0.0
H163 H 0.62975 0.2553 0.83885 0.0
H164 H 0.60213 0.30537 0.7814 0.0
C165 C 0.8638 0.33609 0.14433 0.0
C166 C 0.84865 0.31897 0.15642 0.0
N167 N 0.84504 0.32641 0.18053 0.0
N168 N 0.87022 0.35496 0.16019 0.0
C169 C 0.85833 0.3486 0.18228 0.0
H170 H 0.86993 0.3348 0.12494 0.0
Co171 Co 0.89273 0.38127 0.14774 0.0
C172 C 0.88022 0.42635 0.17545 0.0
O173 O 0.88185 0.43838 0.15384 0.0
N174 N 0.91669 0.40723 0.13479 0.0
C175 C 0.94995 0.43339 0.13805 0.0
C176 C 0.93367 0.41794 0.15091 0.0
C177 C 0.92362 0.417 0.11168 0.0
N178 N 0.94397 0.43297 0.11316 0.0
O179 O 0.91903 0.3678 0.16728 0.0
H180 H 0.9345 0.41444 0.17109 0.0
H181 H 0.91468 0.41199 0.09385 0.0
O182 O 0.88387 0.4029 0.17601 0.0
C183 C 0.93145 0.35334 0.15343 0.0
O184 O 0.92428 0.35008 0.12967 0.0
N185 N 0.8669 0.39253 0.12715 0.0
C186 C 0.82696 0.39536 0.09311 0.0
C187 C 0.82373 0.40054 0.11891 0.0
C188 C 0.84398 0.39879 0.13575 0.0
C189 C 0.87019 0.3873 0.10219 0.0
C190 C 0.85066 0.38922 0.08472 0.0
H191 H 0.84068 0.40059 0.15581 0.0
H192 H 0.88752 0.37958 0.09612 0.0
H193 H 0.85979 0.35971 0.19942 0.0
H194 H 0.84069 0.30221 0.14777 0.0
H195 H 0.96523 0.44416 0.14659 0.0
H196 H 0.80549 0.40462 0.12615 0.0
H197 H 0.85363 0.38393 0.06517 0.0
C198 C 0.86483 0.65584 0.40888 0.0
C199 C 0.88093 0.64299 0.42442 0.0
N200 N 0.87733 0.61826 0.42083 0.0
N201 N 0.85045 0.63985 0.39498 0.0
C202 C 0.85866 0.61686 0.40266 0.0
H203 H 0.86338 0.67589 0.40806 0.0
Co204 Co 0.82411 0.65366 0.37295 0.0
C205 C 0.80812 0.613 0.33856 0.0
O206 O 0.80543 0.62987 0.32078 0.0
N207 N 0.7967 0.66869 0.3515 0.0
C208 C 0.75699 0.67234 0.338 0.0
C209 C 0.77326 0.65899 0.35279 0.0
C210 C 0.79347 0.68886 0.33552 0.0
N211 N 0.76935 0.69137 0.32675 0.0
O212 O 0.80174 0.65045 0.40068 0.0
H213 H 0.76808 0.64296 0.3641 0.0
H214 H 0.80835 0.70167 0.33035 0.0
O215 O 0.8149 0.61988 0.36096 0.0
C216 C 0.79457 0.67053 0.41084 0.0
O217 O 0.80096 0.69201 0.40062 0.0
N218 N 0.8474 0.65774 0.34714 0.0
C219 C 0.88748 0.66735 0.31533 0.0
C220 C 0.88068 0.64284 0.32173 0.0
C221 C 0.86086 0.63845 0.33802 0.0
C222 C 0.85411 0.6817 0.34154 0.0
C223 C 0.87375 0.68694 0.32519 0.0
H224 H 0.85738 0.61961 0.34436 0.0
H225 H 0.84513 0.69686 0.35098 0.0
H226 H 0.85061 0.59944 0.3957 0.0
H227 H 0.89442 0.65143 0.43753 0.0
H228 H 0.73715 0.66843 0.33628 0.0
H229 H 0.89128 0.62727 0.3151 0.0
H230 H 0.87916 0.70618 0.32166 0.0
C231 C 0.91196 0.88683 0.96739 0.0
C232 C 0.89893 0.86991 0.95221 0.0
N233 N 0.88787 0.88207 0.93289 0.0
N234 N 0.90973 0.90998 0.95796 0.0
C235 C 0.8946 0.90651 0.93699 0.0
H236 H 0.92237 0.88245 0.98445 0.0
Co237 Co 0.92505 0.93921 0.9739 0.0
C238 C 0.94274 0.96948 0.93054 0.0
O239 O 0.96347 0.97638 0.94248 0.0
N240 N 0.94015 0.96915 0.99031 0.0
C241 C 0.94487 1.00975 0.99983 0.0
C242 C 0.93078 0.99202 0.98669 0.0
C243 C 0.96015 0.9739 1.00638 0.0
N244 N 0.96357 0.99856 1.01233 0.0
O245 O 0.8929 0.95244 0.97705 0.0
H246 H 0.91471 0.99579 0.97482 0.0
H247 H 0.97238 0.9598 1.01345 0.0
O248 O 0.92717 0.95468 0.94112 0.0
C249 C 0.8806 0.94577 0.99635 0.0
O250 O 0.89156 0.93218 1.01374 0.0
N251 N 0.95617 0.92473 0.97162 0.0
C252 C 1.00028 0.89858 0.97411 0.0
C253 C 0.99075 0.90671 0.9507 0.0
C254 C 0.96836 0.91943 0.9498 0.0
C255 C 0.96453 0.9159 0.99429 0.0
C256 C 0.9868 0.90323 0.99608 0.0
H257 H 0.96055 0.92414 0.93151 0.0
H258 H 0.95361 0.91859 1.01111 0.0
H259 H 0.88877 0.92158 0.92486 0.0
H260 H 0.89739 0.85004 0.95551 0.0
H261 H 0.94129 0.02949 1.00025 0.0
H262 H 1.00027 0.9029 0.93319 0.0
H263 H 0.99291 0.89636 1.01439 0.0
C264 C 0.92514 0.14467 0.63162 0.0
C265 C 0.91119 0.16016 0.64642 0.0
N266 N 0.88705 0.15255 0.6456 0.0
N267 N 0.91056 0.12662 0.62082 0.0
C268 C 0.88715 0.13206 0.62972 0.0
H269 H 0.94515 0.14605 0.62956 0.0
Co270 Co 0.927 0.09938 0.60191 0.0
C271 C 0.88584 0.07108 0.57578 0.0
O272 O 0.8968 0.04983 0.5796 0.0
N273 N 0.94499 0.07146 0.58323 0.0
C274 C 0.96057 0.03316 0.57764 0.0
C275 C 0.94751 0.0484 0.59331 0.0
C276 C 0.9579 0.06908 0.5607 0.0
N277 N 0.96745 0.0457 0.55679 0.0
O278 O 0.93516 0.12238 0.57587 0.0
H279 H 0.93975 0.04205 0.61094 0.0
H280 H 0.96003 0.08412 0.54723 0.0
O281 O 0.89578 0.09135 0.58433 0.0
C282 C 0.95746 0.13097 0.57733 0.0
O283 O 0.97343 0.11954 0.59213 0.0
N284 N 0.92021 0.07883 0.62928 0.0
C285 C 0.91628 0.05713 0.67687 0.0
C286 C 0.89552 0.0576 0.6604 0.0
C287 C 0.89774 0.06908 0.63673 0.0
C288 C 0.94049 0.0785 0.64509 0.0
C289 C 0.93902 0.06753 0.66888 0.0
H290 H 0.88115 0.07115 0.62522 0.0
H291 H 0.95781 0.08732 0.63924 0.0
H292 H 0.87071 0.12057 0.62561 0.0
H293 H 0.91851 0.17587 0.65737 0.0
H294 H 0.96482 1.01392 0.58155 0.0
H295 H 0.87751 0.05031 0.66628 0.0
H296 H 0.95544 0.06757 0.68111 0.0
C297 C 0.58792 0.12354 0.40879 0.0
C298 C 0.57176 0.11015 0.42391 0.0
N299 N 0.58371 0.09077 0.43427 0.0
N300 N 0.61055 0.11321 0.40911 0.0
C301 C 0.60742 0.09311 0.42501 0.0
H302 H 0.58315 0.13957 0.3975 0.0
Co303 Co 0.63624 0.12598 0.38625 0.0
C304 C 0.68387 0.12342 0.41326 0.0
O305 O 0.68966 0.14543 0.40388 0.0
N306 N 0.66189 0.13869 0.36191 0.0
C307 C 0.69399 0.13553 0.33533 0.0
C308 C 0.67777 0.12286 0.351 0.0
C309 C 0.66948 0.16143 0.35205 0.0
N310 N 0.68902 0.16001 0.33568 0.0
O311 O 0.63433 0.09489 0.36883 0.0
H312 H 0.67812 0.10307 0.35466 0.0
H313 H 0.66107 0.17887 0.35669 0.0
O314 O 0.66245 0.11335 0.40844 0.0
C315 C 0.61722 0.09389 0.35187 0.0
O316 O 0.60441 0.11401 0.34744 0.0
N317 N 0.63601 0.15665 0.40294 0.0
C318 C 0.62971 0.20356 0.4241 0.0
C319 C 0.63975 0.18433 0.43867 0.0
C320 C 0.6422 0.16073 0.42787 0.0
C321 C 0.62507 0.17474 0.38899 0.0
C322 C 0.6222 0.19849 0.39899 0.0
H323 H 0.64846 0.14569 0.43973 0.0
H324 H 0.61854 0.17063 0.36988 0.0
H325 H 0.62186 0.07984 0.42877 0.0
H326 H 0.55236 0.11429 0.42679 0.0
H327 H 0.70885 0.12713 0.32493 0.0
H328 H 0.6448 0.18727 0.45844 0.0
H329 H 0.61404 0.2127 0.38717 0.0
C330 C 0.62333 0.91448 0.15883 0.0
C331 C 0.63969 0.90167 0.17408 0.0
N332 N 0.63522 0.87693 0.17164 0.0
N333 N 0.60819 0.89859 0.14556 0.0
C334 C 0.61551 0.87566 0.15462 0.0
H335 H 0.62182 0.93452 0.15856 0.0
Co336 Co 0.57999 0.91184 0.1245 0.0
C337 C 0.58053 0.8598 0.10562 0.0
O338 O 0.6044 0.86171 0.10048 0.0
N339 N 0.55132 0.92487 0.10453 0.0
C340 C 0.51163 0.92561 0.09079 0.0
C341 C 0.52868 0.91352 0.10582 0.0
C342 C 0.54708 0.94443 0.08817 0.0
N343 N 0.52283 0.94523 0.07925 0.0
O344 O 0.56056 0.91029 0.15435 0.0
H345 H 0.52458 0.89734 0.11735 0.0
H346 H 0.56155 0.95768 0.08273 0.0
O347 O 0.56935 0.87817 0.11531 0.0
C348 C 0.55631 0.93181 0.16325 0.0
O349 O 0.5614 0.95141 0.1492 0.0
N350 N 0.6 0.91576 0.09589 0.0
C351 C 0.63196 0.92768 0.05645 0.0
C352 C 0.61201 0.91069 0.05248 0.0
C353 C 0.59556 0.90568 0.07234 0.0
C354 C 0.61831 0.93352 0.09932 0.0
C355 C 0.63464 0.93959 0.07997 0.0
H356 H 0.5794 0.89368 0.06878 0.0
H357 H 0.62001 0.94349 0.11703 0.0
H358 H 0.60608 0.85828 0.14963 0.0
H359 H 0.65321 0.91032 0.18697 0.0
H360 H 0.49209 0.92036 0.08901 0.0
H361 H 0.60904 0.90168 0.03424 0.0
H362 H 0.64957 0.9532 0.08355 0.0
C363 C 0.4079 0.60752 0.15139 0.0
C364 C 0.3937 0.6215 0.16743 0.0
N365 N 0.3762 0.63359 0.15396 0.0
N366 N 0.39997 0.60983 0.12714 0.0
C367 C 0.38061 0.62626 0.12931 0.0
H368 H 0.42332 0.59617 0.15723 0.0
Co369 Co 0.41764 0.59105 0.10002 0.0
C370 C 0.3786 0.5732 0.06526 0.0
O371 O 0.38836 0.55104 0.06679 0.0
N372 N 0.43626 0.5729 0.07231 0.0
C373 C 0.45036 0.56993 0.03237 0.0
C374 C 0.43589 0.58303 0.04884 0.0
C375 C 0.45165 0.55276 0.06883 0.0
N376 N 0.46068 0.55065 0.04453 0.0
O377 O 0.42883 0.62184 0.08637 0.0
H378 H 0.42561 0.59939 0.04374 0.0
H379 H 0.45678 0.54016 0.08386 0.0
O380 O 0.38804 0.59133 0.07827 0.0
C381 C 0.44869 0.62872 0.09814 0.0
O382 O 0.45753 0.61412 0.11593 0.0
N383 N 0.40808 0.56127 0.1158 0.0
C384 C 0.3994 0.52933 0.15648 0.0
C385 C 0.37942 0.54006 0.14336 0.0
C386 C 0.38417 0.55621 0.12315 0.0
C387 C 0.42754 0.54985 0.12735 0.0
C388 C 0.4236 0.5335 0.14747 0.0
H389 H 0.36888 0.56662 0.11536 0.0
H390 H 0.44641 0.55569 0.12304 0.0
H391 H 0.36975 0.6325 0.11319 0.0
H392 H 0.39649 0.6229 0.18776 0.0
H393 H 0.453 0.57438 1.01256 0.0
H394 H 0.36047 0.53749 0.14985 0.0
H395 H 0.43964 0.52629 0.15747 0.0
C396 C 0.0861 0.60114 0.8889 0.0
C397 C 0.0713 0.58607 0.90361 0.0
N398 N 0.08152 0.58429 0.92699 0.0
N399 N 0.10659 0.60918 0.90198 0.0
C400 C 0.10321 0.59845 0.92548 0.0
H401 H 0.08122 0.60671 0.8699 0.0
Co402 Co 0.12894 0.63431 0.88607 0.0
C403 C 0.17573 0.60634 0.8888 0.0
O404 O 0.1771 0.60395 0.86407 0.0
N405 N 0.14969 0.66051 0.86949 0.0
C406 C 0.1552 0.69993 0.8564 0.0
C407 C 0.14046 0.68365 0.86991 0.0
C408 C 0.17056 0.6636 0.85469 0.0
N409 N 0.17428 0.68765 0.84629 0.0
O410 O 0.12841 0.61515 0.85546 0.0
H411 H 0.1234 0.6885 0.87913 0.0
H412 H 0.18228 0.64847 0.84931 0.0
O413 O 0.15751 0.61733 0.89867 0.0
C414 C 0.11414 0.62249 0.83764 0.0
O415 O 0.10226 0.64338 0.84065 0.0
N416 N 0.12861 0.65346 0.91556 0.0
C417 C 0.1257 0.69017 0.95274 0.0
C418 C 0.14854 0.67919 0.94754 0.0
C419 C 0.14967 0.661 0.92863 0.0
C420 C 0.10604 0.66267 0.92145 0.0
C421 C 0.10414 0.68106 0.93995 0.0
H422 H 0.1677 0.65423 0.92351 0.0
H423 H 0.08966 0.65692 0.91049 0.0
H424 H 0.11571 0.60196 0.94147 0.0
H425 H 0.05382 0.57739 0.89742 0.0
H426 H 0.15177 0.71958 0.85419 0.0
H427 H 0.16561 0.68545 0.95704 0.0
H428 H 0.08615 0.68924 0.94277 0.0
C429 C 0.11429 0.40796 0.66334 0.0
C430 C 0.12826 0.39376 0.67965 0.0
N431 N 0.13006 0.37052 0.67024 0.0
N432 N 0.10643 0.39439 0.64302 0.0
C433 C 0.1164 0.37135 0.6479 0.0
H434 H 0.11094 0.42752 0.66599 0.0
Co435 Co 0.08895 0.41084 0.61405 0.0
C436 C 0.04311 0.37922 0.61295 0.0
O437 O 0.02928 0.39778 0.61995 0.0
N438 N 0.07177 0.42816 0.58485 0.0
C439 C 0.06837 0.4469 0.54687 0.0
C440 C 0.0836 0.43387 0.56305 0.0
C441 C 0.04903 0.43936 0.58124 0.0
N442 N 0.0464 0.45068 0.55799 0.0
O443 O 0.06819 0.42778 0.63731 0.0
H444 H 0.10273 0.4297 0.55908 0.0
H445 H 0.03477 0.43961 0.59549 0.0
O446 O 0.06656 0.3825 0.61073 0.0
C447 C 0.0763 0.45033 0.6381 0.0
O448 O 0.09461 0.45681 0.62299 0.0
N449 N 0.11114 0.39633 0.59211 0.0
C450 C 0.14931 0.38376 0.55986 0.0
C451 C 0.12511 0.37378 0.55584 0.0
C452 C 0.10613 0.38008 0.57258 0.0
C453 C 0.13455 0.40595 0.59622 0.0
C454 C 0.15395 0.39966 0.58056 0.0
H455 H 0.08733 0.37304 0.56907 0.0
H456 H 0.13797 0.41925 0.61141 0.0
H457 H 0.11465 0.35584 0.63478 0.0
H458 H 0.13677 0.40039 0.69723 0.0
H459 H 0.07356 0.4539 0.5284 0.0
H460 H 0.12089 0.36169 0.53978 0.0
H461 H 0.17226 0.40814 0.58394 0.0
C462 C 0.63152 0.67736 0.7093 0.0
C463 C 0.61357 0.66382 0.69585 0.0
N464 N 0.62352 0.65508 0.67435 0.0
N465 N 0.65315 0.67779 0.69665 0.0
C466 C 0.64773 0.6637 0.6754 0.0
H467 H 0.62888 0.68638 0.72738 0.0
Co468 Co 0.68243 0.69593 0.70969 0.0
C469 C 0.70677 0.71226 0.6629 0.0
O470 O 0.71055 0.7347 0.67244 0.0
N471 N 0.71195 0.71392 0.72345 0.0
C472 C 0.75246 0.72173 0.73153 0.0
C473 C 0.7354 0.70836 0.71686 0.0
C474 C 0.71563 0.73099 0.74267 0.0
N475 N 0.74027 0.73604 0.74805 0.0
O476 O 0.66683 0.72643 0.70202 0.0
H477 H 0.73996 0.69471 0.70265 0.0
H478 H 0.70066 0.73878 0.75336 0.0
O479 O 0.69623 0.69524 0.67603 0.0
C480 C 0.65505 0.73665 0.71985 0.0
O481 O 0.65542 0.72638 0.74244 0.0
N482 N 0.69686 0.66612 0.71843 0.0
C483 C 0.71774 0.6232 0.73784 0.0
C484 C 0.71567 0.62674 0.71152 0.0
C485 C 0.70513 0.64847 0.70212 0.0
C486 C 0.69847 0.66287 0.74396 0.0
C487 C 0.70905 0.64164 0.75411 0.0
H488 H 0.70346 0.6509 0.68185 0.0
H489 H 0.69143 0.67696 0.75651 0.0
H490 H 0.66113 0.66007 0.66083 0.0
H491 H 0.59455 0.6604 0.70173 0.0
H492 H 0.77252 0.72071 0.73022 0.0
H493 H 0.722 0.6128 0.69837 0.0
H494 H 0.70969 0.63935 0.77451 0.0
C495 C 0.42574 0.38746 0.45727 0.0
C496 C 0.41168 0.36997 0.44385 0.0
N497 N 0.39548 0.38158 0.4284 0.0
N498 N 0.41919 0.41069 0.45053 0.0
C499 C 0.40034 0.40632 0.43301 0.0
H500 H 0.4396 0.38293 0.47136 0.0
Co501 Co 0.43192 0.44269 0.46458 0.0
C502 C 0.43814 0.44553 0.40958 0.0
O503 O 0.44838 0.42355 0.4107 0.0
N504 N 0.44375 0.47422 0.47901 0.0
C505 C 0.44766 0.51505 0.48701 0.0
C506 C 0.43508 0.49681 0.47292 0.0
C507 C 0.46185 0.47948 0.49702 0.0
N508 N 0.46468 0.50432 0.50229 0.0
O509 O 0.39824 0.45192 0.46763 0.0
H510 H 0.42047 0.4999 0.459 0.0
H511 H 0.47262 0.46533 0.50637 0.0
O512 O 0.43192 0.45645 0.43009 0.0
C513 C 0.38826 0.44312 0.4875 0.0
O514 O 0.40278 0.43306 0.50474 0.0
N515 N 0.46521 0.4331 0.46334 0.0
C516 C 0.51401 0.41738 0.46875 0.0
C517 C 0.50778 0.43471 0.45 0.0
C518 C 0.48334 0.44302 0.44818 0.0
C519 C 0.47157 0.41816 0.48311 0.0
C520 C 0.49575 0.40972 0.48596 0.0
H521 H 0.47921 0.45751 0.43474 0.0
H522 H 0.45764 0.41277 0.4968 0.0
H523 H 0.39015 0.42111 0.42399 0.0
H524 H 0.41357 0.35001 0.44539 0.0
H525 H 0.44466 0.53487 0.48572 0.0
H526 H 0.52167 0.44173 0.43695 0.0
H527 H 0.49988 0.39668 0.501 0.0
H528 H 0.24613 0.29459 0.24901 0.0
H529 H 0.27259 0.31676 0.27974 0.0
H530 H 0.28203 0.24882 0.32165 0.0
H531 H 0.25621 0.22598 0.29001 0.0
H532 H 0.26972 0.32754 0.32773 0.0
H533 H 0.35342 0.2703 0.31829 0.0
H534 H 0.32697 0.26699 0.29694 0.0
H535 H 0.32644 0.25242 0.32766 0.0
C536 C 0.25401 0.28397 0.2644 0.0
C537 C 0.24902 0.25801 0.26631 0.0
C538 C 0.26917 0.29696 0.28235 0.0
C539 C 0.28012 0.28473 0.30311 0.0
C540 C 0.27465 0.25892 0.30559 0.0
H541 H 0.3763 0.33398 0.43106 0.0
H542 H 0.34871 0.31208 0.40096 0.0
C543 C 0.25947 0.24579 0.2875 0.0
C544 C 0.29681 0.29923 0.32196 0.0
H545 H 0.35459 0.30051 0.35122 0.0
C546 C 0.28831 0.32156 0.33269 0.0
C547 C 0.32132 0.29193 0.32876 0.0
C548 C 0.33272 0.26926 0.31715 0.0
C549 C 0.30308 0.33618 0.35 0.0
C550 C 0.3275 0.32878 0.35687 0.0
C551 C 0.336 0.30647 0.34619 0.0
C552 C 0.34421 0.34326 0.37564 0.0
C553 C 0.29204 0.35917 0.36133 0.0
C554 C 0.35133 0.36855 0.37199 0.0
C555 C 0.36756 0.38137 0.3894 0.0
C556 C 0.37735 0.36928 0.41099 0.0
C557 C 0.36982 0.34411 0.41465 0.0
C558 C 0.35376 0.33139 0.39732 0.0
H559 H 0.27138 0.35885 0.35947 0.0
H560 H 0.29724 0.3611 0.38172 0.0
H561 H 0.29933 0.37586 0.35124 0.0
H562 H 0.3448 0.37831 0.35534 0.0
H563 H 0.37292 0.40054 0.38555 0.0
H564 H 0.96108 0.99882 0.53752 0.0
H565 H 0.98712 0.97635 0.50811 0.0
H566 H 0.03309 0.04243 0.49837 0.0
H567 H 1.00693 0.06506 0.52858 0.0
H568 H 0.99817 0.97813 0.4603 0.0
H569 H 0.08845 0.9953 0.51027 0.0
H570 H 0.05917 1.00327 0.52416 0.0
H571 H 0.07315 0.02315 0.50062 0.0
C572 C 0.97665 1.00884 0.52914 0.0
C573 C 0.98146 0.03413 0.5359 0.0
C574 C 0.99179 0.99574 0.51204 0.0
C575 C 1.013 1.00692 0.50079 0.0
C576 C 1.01754 0.03253 0.50687 0.0
H577 H 0.12492 0.93766 0.39458 0.0
H578 H 0.10268 0.96704 0.42208 0.0
C579 C 1.00213 0.04584 0.52401 0.0
C580 C 0.02949 0.99157 0.48278 0.0
H581 H 0.0897 0.97276 0.47172 0.0
C582 C 1.01818 0.97714 0.46305 0.0
C583 C 0.05595 0.98973 0.48542 0.0
C584 C 0.06996 1.00347 0.50636 0.0
C585 C 0.03189 0.96161 0.44648 0.0
C586 C 0.05824 0.95918 0.44951 0.0
C587 C 0.06972 0.97401 0.46889 0.0
C588 C 0.07357 0.94084 0.43346 0.0
C589 C 1.0177 0.94836 0.42529 0.0
C590 C 0.06598 0.91555 0.43077 0.0
C591 C 0.07873 0.89875 0.41504 0.0
C592 C 0.10018 0.90597 0.40118 0.0
C593 C 0.10872 0.93096 0.40473 0.0
C594 C 0.09572 0.94797 0.42055 0.0
H595 H 1.00061 0.95845 0.41984 0.0
H596 H 0.02932 0.94638 0.4082 0.0
H597 H 1.01175 0.92952 0.43178 0.0
H598 H 0.04986 0.90857 0.44086 0.0
H599 H 0.07149 0.87979 0.41359 0.0
H600 H 0.22222 0.67261 0.8359 0.0
H601 H 0.25382 0.69476 0.81001 0.0
H602 H 0.20089 0.75125 0.79224 0.0
H603 H 0.16962 0.7294 0.81706 0.0
H604 H 0.25489 0.71039 0.75747 0.0
H605 H 0.25974 0.79399 0.81911 0.0
H606 H 0.24565 0.76486 0.82924 0.0
H607 H 0.22865 0.78539 0.80881 0.0
C608 C 0.21721 0.68964 0.82637 0.0
C609 C 0.19308 0.69914 0.82943 0.0
C610 C 0.23546 0.70249 0.81154 0.0
C611 C 0.23034 0.7254 0.79942 0.0
C612 C 0.20604 0.73426 0.80179 0.0
H613 H 0.31061 0.83985 0.7061 0.0
H614 H 0.28083 0.81631 0.73275 0.0
C615 C 0.18792 0.7215 0.81629 0.0
C616 C 0.24979 0.7401 0.78411 0.0
H617 H 0.27912 0.79777 0.77905 0.0
C618 C 0.26032 0.7294 0.76244 0.0
C619 C 0.257 0.76523 0.78989 0.0
C620 C 0.24738 0.77804 0.81314 0.0
C621 C 0.27695 0.74296 0.74643 0.0
C622 C 0.28436 0.7681 0.7523 0.0
C623 C 0.27384 0.77873 0.77407 0.0
C624 C 0.3031 0.78335 0.73647 0.0
C625 C 0.28554 0.73029 0.72265 0.0
C626 C 0.32634 0.77366 0.72992 0.0
C627 C 0.34332 0.78709 0.71456 0.0
C628 C 0.3382 0.81116 0.70526 0.0
C629 C 0.31547 0.8215 0.71272 0.0
C630 C 0.29827 0.80785 0.72801 0.0
H631 H 0.27209 0.71536 0.71633 0.0
H632 H 0.28795 0.74375 0.70688 0.0
H633 H 0.30365 0.72144 0.72657 0.0
H634 H 0.33156 0.7555 0.73675 0.0
H635 H 0.3607 0.77847 0.70998 0.0
H636 H 0.36318 0.06794 0.93333 0.0
H637 H 0.38824 0.03867 0.95866 0.0
H638 H 0.44693 0.09443 0.96621 0.0
H639 H 0.42262 0.12316 0.94112 0.0
H640 H 0.43525 0.01741 0.95415 0.0
H641 H 0.4394 0.07682 0.03991 0.0
H642 H 0.41842 0.08279 1.01369 0.0
H643 H 0.4507 0.09265 1.0123 0.0
C644 C 0.38144 0.07401 0.94025 0.0
C645 C 0.39019 0.09858 0.9352 0.0
C646 C 0.39591 0.05714 0.95498 0.0
C647 C 0.41962 0.06415 0.96545 0.0
C648 C 0.42859 0.08831 0.95955 0.0
H649 H 0.53536 0.99412 0.06634 0.0
H650 H 0.5117 0.02241 0.03857 0.0
C651 C 0.41435 0.105 0.94489 0.0
C652 C 0.43522 0.0466 0.98211 0.0
H653 H 0.46659 0.04255 0.03964 0.0
C654 C 0.44184 0.02298 0.97291 0.0
C655 C 0.44455 0.05335 1.00675 0.0
C656 C 0.43775 0.07767 0.0189 0.0
C657 C 0.45747 1.00664 0.98695 0.0
C658 C 0.46665 1.01329 1.01172 0.0
C659 C 0.46004 0.03695 0.02088 0.0
C660 C 0.48213 0.99574 0.02859 0.0
C661 C 0.46469 0.98264 0.97442 0.0
C662 C 0.47402 0.97096 0.03303 0.0
C663 C 0.48766 0.95471 0.04876 0.0
C664 C 0.51012 0.9623 0.06145 0.0
C665 C 0.51845 0.98713 0.05706 0.0
C666 C 0.50465 1.00353 0.04113 0.0
H667 H 0.46418 0.98428 0.95342 0.0
H668 H 0.48368 0.97708 0.98042 0.0
H669 H 0.45117 0.96762 0.97966 0.0
H670 H 0.45665 0.96406 0.02462 0.0
H671 H 0.48029 0.93592 0.05094 0.0
H672 H 0.35524 0.62996 0.20084 0.0
H673 H 0.32791 0.65857 0.22225 0.0
H674 H 0.32735 0.70539 0.15609 0.0
H675 H 0.35455 0.67611 0.13423 0.0
H676 H 0.3308 0.7022 0.23994 0.0
H677 H 0.25574 0.70935 0.16782 0.0
H678 H 0.27999 0.68693 0.16506 0.0
H679 H 0.28547 0.71884 0.1556 0.0
C680 C 0.34931 0.64622 0.19053 0.0
C681 C 0.35757 0.65019 0.16537 0.0
C682 C 0.3334 0.6629 0.20305 0.0
C683 C 0.32462 0.68471 0.19132 0.0
C684 C 0.33271 0.68871 0.166 0.0
H685 H 0.23707 0.81378 0.24349 0.0
H686 H 0.26141 0.78324 0.22104 0.0
C687 C 0.3486 0.67178 0.15327 0.0
C688 C 0.30795 0.70303 0.20604 0.0
H689 H 0.25468 0.73797 0.20219 0.0
C690 C 0.31408 0.70972 0.23148 0.0
C691 C 0.28571 0.71353 0.1959 0.0
C692 C 0.27615 0.70664 0.16971 0.0
C693 C 0.29959 0.72631 0.24626 0.0
C694 C 0.27748 0.73691 0.23605 0.0
C695 C 0.27133 0.73028 0.21064 0.0
C696 C 0.26128 0.75559 0.25073 0.0
C697 C 0.30879 0.73296 0.27264 0.0
C698 C 0.25175 0.75099 0.27539 0.0
C699 C 0.23738 0.76889 0.28865 0.0
C700 C 0.23193 0.79233 0.27794 0.0
C701 C 0.24089 0.79646 0.25305 0.0
C702 C 0.25496 0.77864 0.23985 0.0
H703 H 0.32894 0.72922 0.27522 0.0
H704 H 0.30578 0.75292 0.27694 0.0
H705 H 0.29836 0.72149 0.28659 0.0
H706 H 0.25533 0.73341 0.28455 0.0
H707 H 0.23106 0.76455 0.30757 0.0
H708 H 0.44815 0.98697 0.60976 0.0
H709 H 0.47607 1.00948 0.58131 0.0
H710 H 0.4843 0.94279 0.53695 0.0
H711 H 0.45648 0.91978 0.56618 0.0
H712 H 0.52827 0.96819 0.53796 0.0
H713 H 0.45742 0.03744 0.51455 0.0
H714 H 0.46399 0.03705 0.54794 0.0
H715 H 0.45005 1.0099 0.53265 0.0
C716 C 0.45578 0.97691 0.59397 0.0
C717 C 0.44947 0.95138 0.59038 0.0
C718 C 0.47182 0.99002 0.57739 0.0
C719 C 0.48206 0.97847 0.55601 0.0
C720 C 0.47669 0.95262 0.55292 0.0
H721 H 0.53669 0.0712 0.42929 0.0
H722 H 0.51424 0.04323 0.4578 0.0
C723 C 0.46072 0.9393 0.5698 0.0
C724 C 0.49786 0.99354 0.53712 0.0
H725 H 0.49883 0.0476 0.50209 0.0
C726 C 0.52167 0.98549 0.53008 0.0
C727 C 0.48966 0.01615 0.52603 0.0
C728 C 0.4638 0.02552 0.53044 0.0
C729 C 0.53726 0.99929 0.51314 0.0
C730 C 0.52945 0.02246 0.50294 0.0
C731 C 0.50548 0.03022 0.50973 0.0
C732 C 0.54486 0.03848 0.48442 0.0
C733 C 0.56173 0.98834 0.50583 0.0
C734 C 0.57025 0.04554 0.48884 0.0
C735 C 0.5835 0.06159 0.47196 0.0
C736 C 0.57173 0.0716 0.45025 0.0
C737 C 0.54656 0.06421 0.44574 0.0
C738 C 0.53353 0.04807 0.4623 0.0
H739 H 0.56156 0.96781 0.50851 0.0
H740 H 0.56616 0.99244 0.48574 0.0
H741 H 0.57684 0.99648 0.5181 0.0
H742 H 0.57975 0.03933 0.50583 0.0
H743 H 0.60263 0.067 0.47648 0.0
H744 H 0.22713 0.18116 0.79392 0.0
H745 H 0.2061 0.21091 0.76675 0.0
H746 H 0.25892 0.2684 0.79053 0.0
H747 H 0.28046 0.2382 0.81772 0.0
H748 H 0.18041 0.24968 0.77346 0.0
H749 H 0.26031 0.28432 0.71772 0.0
H750 H 0.26271 0.25794 0.73862 0.0
H751 H 0.26511 0.28923 0.7511 0.0
C752 C 0.23453 0.20009 0.79352 0.0
C753 C 0.25583 0.20683 0.80852 0.0
C754 C 0.22227 0.21737 0.77768 0.0
C755 C 0.23056 0.24245 0.77574 0.0
C756 C 0.25201 0.2493 0.79061 0.0
H757 H 0.17283 0.3764 0.69867 0.0
H758 H 0.19563 0.34543 0.72274 0.0
C759 C 0.26448 0.23185 0.80647 0.0
C760 C 0.21619 0.261 0.75889 0.0
H761 H 0.22267 0.30629 0.71287 0.0
C762 C 0.18987 0.26185 0.76013 0.0
C763 C 0.22777 0.27737 0.74105 0.0
C764 C 0.25548 0.27706 0.73679 0.0
C765 C 0.17535 0.27837 0.74508 0.0
C766 C 0.18694 0.29483 0.72738 0.0
C767 C 0.21324 0.29399 0.7261 0.0
C768 C 0.1725 0.31375 0.71112 0.0
C769 C 0.14759 0.27855 0.74905 0.0
C770 C 0.15164 0.30707 0.69534 0.0
C771 C 0.13823 0.32518 0.68116 0.0
C772 C 0.14504 0.3508 0.68223 0.0
C773 C 0.16636 0.35717 0.69737 0.0
C774 C 0.17974 0.33919 0.71127 0.0
H775 H 0.14241 0.27028 0.76758 0.0
H776 H 0.14053 0.2978 0.74819 0.0
H777 H 0.13807 0.26733 0.73389 0.0
H778 H 0.14561 0.28772 0.69389 0.0
H779 H 0.12211 0.31918 0.66992 0.0
H780 H 0.1218 0.08598 0.18359 0.0
H781 H 0.09441 0.06347 0.15366 0.0
H782 H 0.08893 0.12964 0.10805 0.0
H783 H 0.11692 0.1523 0.13807 0.0
H784 H 0.04789 0.06796 0.14083 0.0
H785 H 0.1008 0.0814 0.05252 0.0
H786 H 0.11388 0.08954 0.08324 0.0
H787 H 0.09305 0.1103 0.06721 0.0
C788 C 0.11491 0.0959 0.1672 0.0
C789 C 0.12177 0.12123 0.16358 0.0
C790 C 0.0991 0.08284 0.14989 0.0
C791 C 0.0894 0.09441 0.12806 0.0
C792 C 0.09639 0.11972 0.12419 0.0
H793 H 0.98038 0.04697 1.0097 0.0
H794 H 1.01039 0.06891 0.03753 0.0
C795 C 0.11246 0.13284 0.14153 0.0
C796 C 0.07143 0.08004 0.11029 0.0
H797 H 0.05993 0.06362 0.04797 0.0
C798 C 0.05076 0.06698 0.12055 0.0
C799 C 0.07466 0.07839 0.08361 0.0
C800 C 0.09691 0.09043 0.07098 0.0
C801 C 0.0334 0.05303 0.10524 0.0
C802 C 0.0366 0.05145 0.07859 0.0
C803 C 0.0572 0.06455 0.06828 0.0
C804 C 0.01843 0.03714 0.06109 0.0
C805 C 1.01129 0.04066 0.11782 0.0
C806 C 1.0128 1.01146 0.06425 0.0
C807 C 0.99534 0.99864 0.04813 0.0
C808 C 0.98281 1.01107 0.02831 0.0
C809 C 0.98901 0.0366 0.02488 0.0
C810 C 1.00649 0.0493 0.04083 0.0
H811 H 1.00788 0.0488 0.13681 0.0
H812 H 0.99413 0.04234 0.10597 0.0
H813 H 1.01492 0.02055 0.12039 0.0
H814 H 0.02195 1.00121 0.07922 0.0
H815 H 0.99132 0.97909 0.05155 0.0
H816 H 0.89017 0.16977 0.69431 0.0
H817 H 0.85983 0.19286 0.71844 0.0
H818 H 0.80834 0.18783 0.655 0.0
H819 H 0.83857 0.16342 0.63129 0.0
H820 H 0.84133 0.23408 0.71829 0.0
H821 H 0.75699 0.17456 0.704 0.0
H822 H 0.78718 0.16463 0.69422 0.0
H823 H 0.76909 0.18491 0.67427 0.0
C824 C 0.87222 0.17311 0.6855 0.0
C825 C 0.86714 0.16406 0.66062 0.0
C826 C 0.85461 0.1867 0.69948 0.0
C827 C 0.83083 0.19244 0.6894 0.0
C828 C 0.82573 0.1834 0.66436 0.0
H829 H 0.71255 0.29519 0.73922 0.0
H830 H 0.73992 0.26685 0.71689 0.0
C831 C 0.8433 0.16931 0.65045 0.0
C832 C 0.81247 0.20846 0.70482 0.0
H833 H 0.75068 0.2149 0.72132 0.0
C834 C 0.82158 0.22941 0.71897 0.0
C835 C 0.78623 0.20331 0.70648 0.0
C836 C 0.77432 0.1805 0.69417 0.0
C837 C 0.80593 0.2449 0.7337 0.0
C838 C 0.77976 0.23997 0.73493 0.0
C839 C 0.77052 0.21918 0.72079 0.0
C840 C 0.76179 0.25661 0.7498 0.0
C841 C 0.81759 0.26706 0.74741 0.0
C842 C 0.76373 0.26055 0.77645 0.0
C843 C 0.74744 0.27671 0.78962 0.0
C844 C 0.72866 0.28994 0.77667 0.0
C845 C 0.72654 0.28556 0.75017 0.0
C846 C 0.74241 0.26916 0.73719 0.0
H847 H 0.83668 0.27156 0.74064 0.0
H848 H 0.80596 0.28373 0.74494 0.0
H849 H 0.81884 0.26292 0.76799 0.0
H850 H 0.77802 0.25117 0.78722 0.0
H851 H 0.75016 0.27952 0.80982 0.0
H852 H 0.03167 0.57692 0.93428 0.0
H853 H 1.0107 0.55103 0.96552 0.0
H854 H 0.08151 0.53484 1.00041 0.0
H855 H 0.10301 0.56081 0.96836 0.0
H856 H 1.01329 0.50112 0.97474 0.0
H857 H 0.04103 0.55218 0.06265 0.0
H858 H 0.04517 0.56546 0.03154 0.0
H859 H 0.06646 0.54277 0.04334 0.0
C860 C 0.0431 0.56789 0.94841 0.0
C861 C 0.06941 0.57104 0.94816 0.0
C862 C 0.03084 0.55295 0.96656 0.0
C863 C 0.04411 0.54061 0.98577 0.0
C864 C 0.07042 0.5442 0.98621 0.0
H865 H 0.99371 0.44488 0.11273 0.0
H866 H 1.01693 0.46961 0.08193 0.0
C867 C 0.08285 0.5592 0.96776 0.0
C868 C 0.03009 0.52371 1.00444 0.0
H869 H 1.01746 0.51487 0.06763 0.0
C870 C 1.0143 0.50422 0.99507 0.0
C871 C 0.03101 0.52727 0.03116 0.0
C872 C 0.04663 0.54815 0.04289 0.0
C873 C 1.00008 0.4883 1.01122 0.0
C874 C 1.00063 0.49208 0.03799 0.0
C875 C 1.01656 0.51156 0.04734 0.0
C876 C 0.98561 0.47588 0.05663 0.0
C877 C 0.98526 0.467 0.99923 0.0
C878 C 0.95972 0.47044 0.05343 0.0
C879 C 0.94618 0.45576 0.07124 0.0
C880 C 0.95787 0.44636 0.09327 0.0
C881 C 0.98369 0.45181 0.09636 0.0
C882 C 0.99718 0.46615 0.07852 0.0
H883 H 0.99293 0.46171 0.98057 0.0
H884 H 0.98504 0.4503 1.01161 0.0
H885 H 0.96577 0.47279 0.99593 0.0
H886 H 0.94968 0.47801 0.03739 0.0
H887 H 0.92638 0.45246 0.06816 0.0
H888 H 0.78539 0.73959 0.31479 0.0
H889 H 0.76356 0.77039 0.28833 0.0
H890 H 0.70491 0.71617 0.27243 0.0
H891 H 0.72628 0.68578 0.29834 0.0
H892 H 0.74835 0.77434 0.23862 0.0
H893 H 0.66209 0.77167 0.29432 0.0
H894 H 0.69025 0.75734 0.30539 0.0
H895 H 0.66985 0.74142 0.28286 0.0
C896 C 0.76789 0.73411 0.30565 0.0
C897 C 0.75775 0.70983 0.30959 0.0
C898 C 0.75519 0.75195 0.29041 0.0
C899 C 0.73174 0.74639 0.27855 0.0
C900 C 0.72223 0.72188 0.28178 0.0
H901 H 0.62085 0.8277 0.18125 0.0
H902 H 0.64383 0.79634 0.20581 0.0
C903 C 0.73479 0.70419 0.29685 0.0
C904 C 0.71734 0.76562 0.26263 0.0
H905 H 0.65966 0.79203 0.25436 0.0
C906 C 0.72901 0.77823 0.24236 0.0
C907 C 0.69181 0.77115 0.26671 0.0
C908 C 0.67781 0.75989 0.28864 0.0
C909 C 0.71618 0.79519 0.22621 0.0
C910 C 0.69064 0.80076 0.23032 0.0
C911 C 0.67899 0.78814 0.2506 0.0
C912 C 0.67615 0.82003 0.21451 0.0
C913 C 0.73017 0.8063 0.20421 0.0
C914 C 0.68582 0.84443 0.21082 0.0
C915 C 0.6727 0.86241 0.19664 0.0
C916 C 0.64886 0.85726 0.18547 0.0
C917 C 0.63902 0.83281 0.18912 0.0
C918 C 0.65228 0.8147 0.20347 0.0
H919 H 0.74556 0.79421 0.19829 0.0
H920 H 0.71765 0.80922 0.18758 0.0
H921 H 0.73861 0.82456 0.21004 0.0
H922 H 0.70363 0.84991 0.2193 0.0
H923 H 0.68157 0.88056 0.19446 0.0
H924 H 0.89344 0.57257 0.40396 0.0
H925 H 0.91977 0.5428 0.42725 0.0
H926 H 0.91903 0.59013 0.49324 0.0
H927 H 0.89312 0.61959 0.47025 0.0
H928 H 0.96857 0.55006 0.45052 0.0
H929 H 0.90181 0.52238 0.52485 0.0
H930 H 0.89215 0.53777 0.49605 0.0
H931 H 0.90641 0.55547 0.52164 0.0
C932 C 0.89853 0.57647 0.42354 0.0
C933 C 0.89076 0.5988 0.43495 0.0
C934 C 0.91388 0.5594 0.43696 0.0
C935 C 0.92161 0.56363 0.46251 0.0
C936 C 0.9134 0.58571 0.47391 0.0
H937 H 1.01558 0.48557 0.57918 0.0
H938 H 0.98582 0.51251 0.55664 0.0
C939 C 0.8985 0.60285 0.46049 0.0
C940 C 0.9388 0.54581 0.47702 0.0
H941 H 0.94362 0.51003 0.53116 0.0
C942 C 0.96288 0.54118 0.46801 0.0
C943 C 0.93218 0.53419 0.50034 0.0
C944 C 0.90668 0.53746 0.51127 0.0
C945 C 0.98023 0.52617 0.48148 0.0
C946 C 0.9735 0.5141 0.50463 0.0
C947 C 0.94936 0.5188 0.51364 0.0
C948 C 0.99098 0.49652 0.51932 0.0
C949 C 1.00616 0.52449 0.47104 0.0
C950 C 1.00365 0.47739 0.50682 0.0
C951 C 0.02083 0.46213 0.51973 0.0
C952 C 0.02588 0.46458 0.54606 0.0
C953 C 1.0123 0.48275 0.55906 0.0
C954 C 0.99522 0.49839 0.54595 0.0
H955 H 1.01109 0.54109 0.45943 0.0
H956 H 0.02037 0.52287 0.48643 0.0
H957 H 1.00699 0.5079 0.45851 0.0
H958 H 1.00042 0.47419 0.48676 0.0
H959 H 0.03047 0.44831 0.50887 0.0
H960 H 0.57509 0.37055 0.92307 0.0
H961 H 0.55292 0.39898 0.95059 0.0
H962 H 0.59363 0.4612 0.91875 0.0
H963 H 0.61595 0.43245 0.89081 0.0
H964 H 0.56436 0.43149 0.98849 0.0
H965 H 0.52392 0.48694 0.91054 0.0
H966 H 0.53953 0.45813 0.90482 0.0
H967 H 0.55737 0.48643 0.91072 0.0
C968 C 0.57959 0.39027 0.92183 0.0
C969 C 0.59765 0.39875 0.90424 0.0
C970 C 0.56669 0.40676 0.93786 0.0
C971 C 0.57068 0.43286 0.93701 0.0
C972 C 0.58927 0.44145 0.91991 0.0
H973 H 0.49589 0.56141 1.00907 0.0
H974 H 0.52187 0.5333 0.98525 0.0
C975 C 0.60251 0.4248 0.90396 0.0
C976 C 0.55531 0.45046 0.95384 0.0
H977 H 0.51605 0.50051 0.95213 0.0
C978 C 0.55385 0.44656 0.98035 0.0
C979 C 0.54111 0.47048 0.94404 0.0
C980 C 0.54027 0.47572 0.91597 0.0
C981 C 0.53969 0.4619 0.99683 0.0
C982 C 0.52524 0.48183 0.98701 0.0
C983 C 0.52671 0.48563 0.96044 0.0
C984 C 0.50926 0.49931 1.00353 0.0
C985 C 0.54129 0.45694 0.02492 0.0
C986 C 0.49279 0.4907 0.02276 0.0
C987 C 0.4778 0.50726 0.03707 0.0
C988 C 0.47815 0.53324 0.03253 0.0
C989 C 0.49465 0.54174 1.01345 0.0
C990 C 0.50972 0.52536 0.99948 0.0
H991 H 0.55872 0.4473 0.03012 0.0
H992 H 0.54065 0.47448 0.03607 0.0
H993 H 0.52538 0.4446 0.03039 0.0
H994 H 0.49082 0.47094 0.02637 0.0
H995 H 0.46522 0.49954 0.05102 0.0
H996 H 0.78443 0.72879 0.7727 0.0
H997 H 0.80638 0.75612 0.80297 0.0
H998 H 0.74619 0.80767 0.79876 0.0
H999 H 0.72374 0.77977 0.7685 0.0
H1000 H 0.82607 0.80026 0.79902 0.0
H1001 H 0.75509 0.80756 0.87364 0.0
H1002 H 0.75186 0.78544 0.84792 0.0
H1003 H 0.74428 0.81757 0.84306 0.0
C1004 C 0.77566 0.74588 0.77816 0.0
C1005 C 0.75213 0.75188 0.76778 0.0
C1006 C 0.78837 0.76166 0.7957 0.0
C1007 C 0.77823 0.78425 0.80378 0.0
C1008 C 0.75453 0.79025 0.79366 0.0
H1009 H 0.84808 0.90135 0.90655 0.0
H1010 H 0.82096 0.87974 0.87469 0.0
C1011 C 0.7416 0.77424 0.77614 0.0
C1012 C 0.79318 0.80143 0.82184 0.0
H1013 H 0.79158 0.83302 0.87878 0.0
C1014 C 0.81833 0.80732 0.81642 0.0
C1015 C 0.78357 0.81114 0.84478 0.0
C1016 C 0.75731 0.80496 0.85289 0.0
C1017 C 0.83382 0.82205 0.8329 0.0
C1018 C 0.82436 0.83138 0.85597 0.0
C1019 C 0.79908 0.82611 0.8612 0.0
C1020 C 0.84089 0.84518 0.87539 0.0
C1021 C 0.86037 0.82763 0.82531 0.0
C1022 C 0.86129 0.83331 0.88676 0.0
C1023 C 0.87669 0.84559 0.905 0.0
C1024 C 0.87247 0.87036 0.91268 0.0
C1025 C 0.8522 0.88245 0.90111 0.0
C1026 C 0.83651 0.86996 0.88294 0.0
H1027 H 0.86282 0.82543 0.80455 0.0
H1028 H 0.86632 0.84687 0.83089 0.0
H1029 H 0.87287 0.81444 0.83507 0.0
H1030 H 0.86519 0.81424 0.88176 0.0
H1031 H 0.89209 0.83553 0.91312 0.0
H1032 H 0.71564 0.15451 0.29226 0.0
H1033 H 0.74054 0.18544 0.26964 0.0
H1034 H 0.7184 0.24207 0.32211 0.0
H1035 H 0.69377 0.21063 0.3456 0.0
H1036 H 0.73042 0.22534 0.2435 0.0
H1037 H 0.79176 0.2579 0.32299 0.0
H1038 H 0.77143 0.23076 0.32555 0.0
H1039 H 0.75911 0.26148 0.32846 0.0
C1040 C 0.71613 0.17341 0.29944 0.0
C1041 C 0.70261 0.17954 0.32137 0.0
C1042 C 0.73047 0.19138 0.28615 0.0
C1043 C 0.73223 0.21648 0.29404 0.0
C1044 C 0.71828 0.22293 0.31562 0.0
H1045 H 0.8193 0.34363 0.222 0.0
H1046 H 0.7916 0.31909 0.25017 0.0
C1047 C 0.70376 0.20483 0.32901 0.0
C1048 C 0.74812 0.2354 0.27909 0.0
H1049 H 0.79699 0.27838 0.2837 0.0
C1050 C 0.74492 0.23687 0.25251 0.0
C1051 C 0.76724 0.251 0.29025 0.0
C1052 C 0.77284 0.25015 0.31833 0.0
C1053 C 0.75985 0.25287 0.23718 0.0
C1054 C 0.77939 0.26796 0.2482 0.0
C1055 C 0.78226 0.26705 0.27485 0.0
C1056 C 0.79758 0.28348 0.23212 0.0
C1057 C 0.75418 0.25361 0.20908 0.0
C1058 C 0.81125 0.27208 0.21288 0.0
C1059 C 0.82711 0.28605 0.19688 0.0
C1060 C 0.8303 0.31222 0.19927 0.0
C1061 C 0.81752 0.32366 0.21928 0.0
C1062 C 0.80149 0.30951 0.23545 0.0
H1063 H 0.73452 0.24786 0.20482 0.0
H1064 H 0.75763 0.27255 0.20125 0.0
H1065 H 0.76635 0.24043 0.19918 0.0
H1066 H 0.80962 0.25212 0.21007 0.0
H1067 H 0.83693 0.27608 0.18242 0.0
H1068 H 0.45747 0.54804 0.52731 0.0
H1069 H 0.48652 0.57116 0.55542 0.0
H1070 H 0.54066 0.51407 0.54655 0.0
H1071 H 0.51144 0.49066 0.51823 0.0
H1072 H 0.50959 0.55631 0.6024 0.0
H1073 H 0.58134 0.57935 0.53078 0.0
H1074 H 0.54997 0.56937 0.52195 0.0
H1075 H 0.57181 0.54708 0.53331 0.0
C1076 C 0.47557 0.54031 0.53114 0.0
C1077 C 0.4819 0.51733 0.5201 0.0
C1078 C 0.49228 0.55364 0.54743 0.0
C1079 C 0.51622 0.54484 0.55311 0.0
C1080 C 0.52259 0.52173 0.54237 0.0
H1081 H 0.6409 0.61747 0.64416 0.0
H1082 H 0.61616 0.5899 0.61523 0.0
C1083 C 0.50568 0.50813 0.52627 0.0
C1084 C 0.53395 0.55972 0.57057 0.0
H1085 H 0.58945 0.59339 0.57257 0.0
C1086 C 0.52706 0.56434 0.59578 0.0
C1087 C 0.55706 0.57021 0.56244 0.0
C1088 C 0.56557 0.56649 0.53562 0.0
C1089 C 0.5423 0.57879 0.6128 0.0
C1090 C 0.56502 0.59015 0.60446 0.0
C1091 C 0.57217 0.5851 0.57933 0.0
C1092 C 0.58095 0.60776 0.62125 0.0
C1093 C 0.53398 0.58105 0.6399 0.0
C1094 C 0.57016 0.62788 0.63392 0.0
C1095 C 0.58425 0.64346 0.6506 0.0
C1096 C 0.60997 0.64007 0.65504 0.0
C1097 C 0.62123 0.6208 0.64138 0.0
C1098 C 0.60694 0.60489 0.6248 0.0
H1099 H 0.52207 0.56479 0.64544 0.0
H1100 H 0.55011 0.58251 0.6533 0.0
H1101 H 0.52267 0.59795 0.64186 0.0
H1102 H 0.5506 0.6316 0.63102 0.0
H1103 H 0.57485 0.65834 0.66014 0.0
H1104 H 0.25994 0.12062 0.29294 0.0
H1105 H 0.26759 0.08234 0.31674 0.0
H1106 H 0.23452 0.0389 0.25542 0.0
H1107 H 0.22659 0.07665 0.23188 0.0
H1108 H 0.22983 0.05337 0.33257 0.0
H1109 H 0.29073 0.99485 0.27606 0.0
H1110 H 0.28905 0.0281 0.2712 0.0
H1111 H 0.26696 1.00696 0.25569 0.0
C1112 C 0.25483 0.10283 0.28433 0.0
C1113 C 0.24254 0.10173 0.26054 0.0
C1114 C 0.25938 0.081 0.29788 0.0
C1115 C 0.25197 0.05772 0.28773 0.0
C1116 C 0.24113 0.05655 0.26335 0.0
H1117 H 0.16057 0.94503 0.3215 0.0
H1118 H 0.18502 0.98374 0.31915 0.0
C1119 C 0.23652 0.07828 0.24987 0.0
C1120 C 0.25111 0.03515 0.30382 0.0
H1121 H 0.25684 0.97226 0.29873 0.0
C1122 C 0.23653 0.03572 0.3257 0.0
C1123 C 0.26028 1.01215 0.29536 0.0
C1124 C 0.27787 1.01057 0.27343 0.0
C1125 C 0.22826 1.01362 0.33729 0.0
C1126 C 0.23446 0.99053 0.32647 0.0
C1127 C 0.25165 0.99001 0.3067 0.0
C1128 C 0.21964 0.96757 0.3317 0.0
C1129 C 0.21149 1.01518 0.3599 0.0
C1130 C 0.23102 0.94555 0.33948 0.0
C1131 C 0.21697 0.92324 0.34087 0.0
C1132 C 0.19153 0.92268 0.33395 0.0
C1133 C 0.18015 0.9449 0.32686 0.0
C1134 C 0.19405 0.9671 0.32576 0.0
H1135 H 0.21605 0.03214 0.37136 0.0
H1136 H 0.19185 0.01643 0.3532 0.0
H1137 H 0.21307 0.99852 0.3722 0.0
H1138 H 0.25082 0.94551 0.34382 0.0
H1139 H 0.22622 0.90631 0.34627 0.0
H1140 H 0.21713 0.83423 0.39735 0.0
H1141 H 0.23829 0.84006 0.43848 0.0
H1142 H 0.16808 0.8307 0.4764 0.0
H1143 H 0.14674 0.82465 0.43552 0.0
H1144 H 0.19734 0.8772 0.48668 0.0
H1145 H 0.25117 0.79089 0.4996 0.0
H1146 H 0.25283 0.80492 0.4687 0.0
H1147 H 0.22363 0.79214 0.47948 0.0
C1148 C 0.20627 0.83284 0.41445 0.0
C1149 C 0.18025 0.82907 0.41315 0.0
C1150 C 0.21838 0.83613 0.43791 0.0
C1151 C 0.20468 0.83574 0.46036 0.0
C1152 C 0.17891 0.83097 0.45923 0.0
H1153 H 0.28017 0.85517 0.60784 0.0
H1154 H 0.24739 0.84342 0.57671 0.0
C1155 C 0.16681 0.82745 0.43583 0.0
C1156 C 0.21694 0.84272 0.48468 0.0
H1157 H 0.26244 0.82538 0.52635 0.0
C1158 C 0.21133 0.86574 0.49561 0.0
C1159 C 0.23495 0.8276 0.49627 0.0
C1160 C 0.24095 0.80239 0.48559 0.0
C1161 C 0.22424 0.87461 0.51727 0.0
C1162 C 0.24315 0.86004 0.52811 0.0
C1163 C 0.24789 0.83648 0.51791 0.0
C1164 C 0.25991 0.86982 0.54843 0.0
C1165 C 0.21806 0.89971 0.52808 0.0
C1166 C 0.27732 0.88889 0.5429 0.0
C1167 C 0.29604 0.89547 0.56048 0.0
C1168 C 0.29751 0.88317 0.5839 0.0
C1169 C 0.27918 0.86512 0.59002 0.0
C1170 C 0.2606 0.85831 0.57226 0.0
H1171 H 0.19938 0.90577 0.52155 0.0
H1172 H 0.21856 0.8993 0.54914 0.0
H1173 H 0.23215 0.91378 0.52179 0.0
H1174 H 0.27723 0.89773 0.52446 0.0
H1175 H 0.31005 0.90938 0.55536 0.0
H1176 H 0.35545 0.90572 0.71705 0.0
H1177 H 0.33642 0.93122 0.74978 0.0
H1178 H 0.39194 0.98938 0.73745 0.0
H1179 H 0.41179 0.96339 0.70599 0.0
H1180 H 0.3842 0.98548 0.7855 0.0
H1181 H 0.29163 0.98725 0.73695 0.0
H1182 H 0.30111 0.95667 0.74583 0.0
H1183 H 0.31835 0.97393 0.72237 0.0
C1184 C 0.36359 0.92392 0.72145 0.0
C1185 C 0.38502 0.93264 0.7089 0.0
C1186 C 0.3526 0.93857 0.74003 0.0
C1187 C 0.36235 0.96253 0.74576 0.0
C1188 C 0.384 0.971 0.73344 0.0
H1189 H 0.29931 0.09572 0.78939 0.0
H1190 H 0.31026 0.05584 0.77173 0.0
C1191 C 0.39533 0.95615 0.71538 0.0
C1192 C 0.35009 0.97923 0.76414 0.0
H1193 H 0.29609 1.00959 0.7751 0.0
C1194 C 0.36487 0.99065 0.78333 0.0
C1195 C 0.32482 0.98595 0.76137 0.0
C1196 C 0.30809 0.97551 0.7404 0.0
C1197 C 0.35567 1.00966 0.7987 0.0
C1198 C 0.33054 0.01671 0.79561 0.0
C1199 C 0.3153 1.00412 0.77755 0.0
C1200 C 0.32087 0.03955 0.80772 0.0
C1201 C 0.37354 0.02309 0.8168 0.0
C1202 C 0.32215 0.04356 0.83411 0.0
C1203 C 0.3163 0.06683 0.84435 0.0
C1204 C 0.30863 0.08623 0.82837 0.0
C1205 C 0.30543 0.08136 0.80229 0.0
C1206 C 0.31162 0.05842 0.79211 0.0
H1207 H 0.39328 0.01881 0.81296 0.0
H1208 H 0.37145 0.04358 0.81556 0.0
H1209 H 0.36951 0.01722 0.8365 0.0
H1210 H 0.32846 0.02904 0.84668 0.0
H1211 H 0.31876 0.06991 0.86455 0.0
H1212 H 0.28811 0.12956 0.94687 0.0
H1213 H 0.27219 0.13245 0.99005 0.0
H1214 H 0.25017 0.20793 0.97563 0.0
H1215 H 0.26686 0.20542 0.93292 0.0
H1216 H 0.27692 0.20606 0.0174 0.0
H1217 H 0.20442 0.13097 0.02104 0.0
H1218 H 0.23397 0.11977 1.0112 0.0
H1219 H 0.21764 0.14162 0.99161 0.0
C1220 C 0.27934 0.14654 0.95275 0.0
C1221 C 0.27877 0.16729 0.93657 0.0
C1222 C 0.27014 0.14816 0.97742 0.0
C1223 C 0.25975 0.17036 0.9861 0.0
C1224 C 0.25812 0.19063 0.96944 0.0
H1225 H 0.18877 0.19004 0.1327 0.0
H1226 H 0.19727 0.18545 0.08745 0.0
C1227 C 0.26763 0.18915 0.945 0.0
C1228 C 0.25287 0.17349 1.01313 0.0
H1229 H 0.2183 0.14818 0.06094 0.0
C1230 C 0.26393 0.19349 0.02681 0.0
C1231 C 0.23573 0.15728 0.02544 0.0
C1232 C 0.22206 0.13636 1.0115 0.0
C1233 C 0.25865 0.19754 0.05244 0.0
C1234 C 0.24243 0.18068 0.06508 0.0
C1235 C 0.23097 0.16093 0.05133 0.0
C1236 C 0.23726 0.18322 0.09256 0.0
C1237 C 0.27023 0.22014 0.06557 0.0
C1238 C 0.25686 0.18321 0.11051 0.0
C1239 C 0.2521 0.18613 0.13632 0.0
C1240 C 0.22757 0.18869 0.14478 0.0
C1241 C 0.20789 0.18822 0.12681 0.0
C1242 C 0.2127 0.18551 0.10094 0.0
H1243 H 0.27558 0.23486 0.05176 0.0
H1244 H 0.25728 0.22818 0.07944 0.0
H1245 H 0.2874 0.21465 0.07589 0.0
H1246 H 0.27588 0.18082 0.10458 0.0
H1247 H 0.26766 0.18607 0.14965 0.0
H1248 H 0.13014 0.2327 0.17555 0.0
H1249 H 0.09328 0.25751 0.167 0.0
H1250 H 0.08662 0.27242 0.24697 0.0
H1251 H 0.12341 0.24765 0.25577 0.0
H1252 H 0.04454 0.24572 0.19116 0.0
H1253 H 0.08121 0.3421 0.2103 0.0
H1254 H 0.10131 0.3169 0.20203 0.0
H1255 H 0.08843 0.31838 0.23315 0.0
C1256 C 0.12105 0.24153 0.19129 0.0
C1257 C 0.12962 0.23818 0.21634 0.0
C1258 C 0.10001 0.25564 0.18637 0.0
C1259 C 0.08745 0.26686 0.20637 0.0
C1260 C 0.0963 0.26411 0.2313 0.0
H1261 H 0.95148 0.35448 0.20175 0.0
H1262 H 0.98881 0.33309 0.21695 0.0
C1263 C 0.11723 0.24987 0.23627 0.0
C1264 C 0.06406 0.27993 0.20125 0.0
H1265 H 0.03842 0.33745 0.19982 0.0
C1266 C 0.04314 0.26576 0.19308 0.0
C1267 C 0.06234 0.30599 0.2042 0.0
C1268 C 0.08449 0.32189 0.21277 0.0
C1269 C 0.02048 0.27705 0.18742 0.0
C1270 C 0.01896 0.30325 0.18942 0.0
C1271 C 0.0397 0.31737 0.19829 0.0
C1272 C 0.99656 0.31637 0.18061 0.0
C1273 C 0.99837 0.26079 0.17937 0.0
C1274 C 0.98895 0.31435 0.15514 0.0
C1275 C 0.96776 0.32634 0.1465 0.0
C1276 C 0.95386 0.34086 0.16311 0.0
C1277 C 0.96175 0.3433 0.18857 0.0
C1278 C 0.98304 0.33116 0.19725 0.0
H1279 H 1.0002 0.24139 0.18633 0.0
H1280 H 0.98068 0.2683 0.18648 0.0
H1281 H 0.99722 0.26007 0.15835 0.0
H1282 H 0.99948 0.3035 0.14187 0.0
H1283 H 0.96236 0.32425 0.12671 0.0
H1284 H 0.61883 0.22703 0.80427 0.0
H1285 H 0.58634 0.19565 0.7931 0.0
H1286 H 0.5332 0.25398 0.78341 0.0
H1287 H 0.56495 0.28499 0.79479 0.0
H1288 H 0.54525 0.18758 0.82044 0.0
H1289 H 0.51458 0.21031 0.72362 0.0
H1290 H 0.54461 0.22065 0.73632 0.0
H1291 H 0.51717 0.23861 0.74164 0.0
C1292 C 0.60026 0.23311 0.79945 0.0
C1293 C 0.59452 0.25854 0.8003 0.0
C1294 C 0.58184 0.21521 0.7928 0.0
C1295 C 0.55753 0.22253 0.7867 0.0
C1296 C 0.55203 0.24792 0.78701 0.0
H1297 H 0.4218 0.20198 0.83903 0.0
H1298 H 0.46472 0.20791 0.82563 0.0
C1299 C 0.57026 0.26569 0.79369 0.0
C1300 C 0.53665 0.20414 0.78423 0.0
H1301 H 0.48058 0.19781 0.75323 0.0
C1302 C 0.53152 0.18898 0.80523 0.0
C1303 C 0.51889 0.20544 0.76417 0.0
C1304 C 0.5243 0.21945 0.74006 0.0
C1305 C 0.50781 0.17802 0.8083 0.0
C1306 C 0.48893 0.18264 0.79008 0.0
C1307 C 0.49501 0.19483 0.76747 0.0
C1308 C 0.46243 0.17938 0.79655 0.0
C1309 C 0.50253 0.16335 0.83205 0.0
C1310 C 0.44672 0.16208 0.78381 0.0
C1311 C 0.42193 0.15879 0.79129 0.0
C1312 C 0.41257 0.17302 0.81136 0.0
C1313 C 0.42824 0.19102 0.82326 0.0
C1314 C 0.45289 0.19418 0.81588 0.0
H1315 H 0.51972 0.15476 0.83965 0.0
H1316 H 0.49554 0.17609 0.84681 0.0
H1317 H 0.48813 0.14847 0.82845 0.0
H1318 H 0.45378 0.15075 0.76862 0.0
H1319 H 0.4102 0.14487 0.78172 0.0
H1320 H 0.89504 0.69996 0.27622 0.0
H1321 H 0.93529 0.71402 0.25929 0.0
H1322 H 0.97273 0.66208 0.30825 0.0
H1323 H 0.9328 0.64761 0.32448 0.0
H1324 H 0.96749 0.73728 0.28778 0.0
H1325 H 1.01595 0.65727 0.2482 0.0
H1326 H 0.98279 0.65621 0.25371 0.0
H1327 H 1.00461 0.64907 0.27889 0.0
C1328 C 0.91187 0.69109 0.28273 0.0
C1329 C 0.91085 0.67274 0.30165 0.0
C1330 C 0.93481 0.69902 0.273 0.0
C1331 C 0.95708 0.68889 0.28222 0.0
C1332 C 0.95588 0.66963 0.30014 0.0
H1333 H 0.08626 0.75375 0.33921 0.0
H1334 H 0.04971 0.72859 0.32649 0.0
C1335 C 0.93298 0.66148 0.3096 0.0
C1336 C 0.98143 0.70142 0.27715 0.0
H1337 H 0.04307 0.68963 0.26883 0.0
C1338 C 0.98384 0.72697 0.28278 0.0
C1339 C 1.00287 0.6881 0.27055 0.0
C1340 C 1.00131 0.6612 0.26223 0.0
C1341 C 1.00725 0.73899 0.28408 0.0
C1342 C 0.02877 0.72506 0.27996 0.0
C1343 C 0.02643 0.70007 0.27238 0.0
C1344 C 0.05357 0.73581 0.28642 0.0
C1345 C 1.00901 0.76618 0.29145 0.0
C1346 C 0.06821 0.74736 0.26788 0.0
C1347 C 0.08931 0.76167 0.27506 0.0
C1348 C 0.09588 0.76468 0.30089 0.0
C1349 C 0.08195 0.75165 0.31918 0.0
C1350 C 0.06099 0.73734 0.31197 0.0
H1351 H 0.99069 0.77528 0.28985 0.0
H1352 H 1.01579 0.76787 0.3114 0.0
H1353 H 0.02258 0.77633 0.2793 0.0
H1354 H 0.06262 0.74635 0.24806 0.0
H1355 H 0.0999 0.77114 0.26049 0.0
H1356 H 0.64002 0.75453 0.67373 0.0
H1357 H 0.60731 0.78445 0.66561 0.0
H1358 H 0.59973 0.796 0.7461 0.0
H1359 H 0.63202 0.76566 0.7544 0.0
H1360 H 0.5562 0.78345 0.72373 0.0
H1361 H 0.60122 0.85911 0.66861 0.0
H1362 H 0.60677 0.82904 0.65522 0.0
H1363 H 0.61893 0.83671 0.68639 0.0
C1364 C 0.6318 0.76387 0.68968 0.0
C1365 C 0.63844 0.75761 0.7147 0.0
C1366 C 0.61322 0.78112 0.68501 0.0
C1367 C 0.60126 0.79268 0.70525 0.0
C1368 C 0.60878 0.78737 0.73021 0.0
H1369 H 0.45863 0.87076 0.69766 0.0
H1370 H 0.49939 0.85744 0.71361 0.0
C1371 C 0.6272 0.77 0.73491 0.0
C1372 C 0.57885 0.80764 0.70047 0.0
H1373 H 0.55633 0.85511 0.66457 0.0
C1374 C 0.55631 0.79946 0.71123 0.0
C1375 C 0.57905 0.82849 0.68413 0.0
C1376 C 0.60286 0.839 0.67314 0.0
C1377 C 0.53374 0.81069 0.70501 0.0
C1378 C 0.53379 0.83081 0.68779 0.0
C1379 C 0.55642 0.83966 0.67778 0.0
C1380 C 0.51025 0.8411 0.67802 0.0
C1381 C 0.50984 0.8001 0.7158 0.0
C1382 C 0.50327 0.83683 0.65264 0.0
C1383 C 0.48013 0.84432 0.64353 0.0
C1384 C 0.46356 0.85634 0.65962 0.0
C1385 C 0.47094 0.86139 0.68487 0.0
C1386 C 0.49416 0.85379 0.694 0.0
H1387 H 0.51267 0.78216 0.72578 0.0
H1388 H 0.50233 0.81355 0.72957 0.0
H1389 H 0.4956 0.79705 0.70052 0.0
H1390 H 0.51547 0.82704 0.64004 0.0
H1391 H 0.47511 0.84032 0.62393 0.0
H1392 H 0.89607 1.01226 0.6916 0.0
H1393 H 0.8955 0.99505 0.7348 0.0
H1394 H 0.93131 0.06249 0.76347 0.0
H1395 H 0.93192 0.0797 0.7206 0.0
H1396 H 0.94115 0.98972 0.76634 0.0
H1397 H 0.87017 0.04876 0.81067 0.0
H1398 H 0.87183 0.04408 0.77677 0.0
H1399 H 0.89324 0.06547 0.79255 0.0
C1400 C 0.90349 0.02346 0.70723 0.0
C1401 C 0.91418 0.04719 0.70286 0.0
C1402 C 0.90321 1.01363 0.73177 0.0
C1403 C 0.91319 0.02764 0.75221 0.0
C1404 C 0.92328 0.05155 0.74793 0.0
H1405 H 0.97471 0.99389 0.89852 0.0
H1406 H 0.96633 1.00636 0.85461 0.0
C1407 C 0.9238 0.06125 0.72347 0.0
C1408 C 0.9147 0.01689 0.77787 0.0
H1409 H 0.89647 0.02614 0.83879 0.0
C1410 C 0.93116 0.99742 0.78217 0.0
C1411 C 0.90154 0.02698 0.79833 0.0
C1412 C 0.88302 0.04735 0.79442 0.0
C1413 C 0.93557 0.9884 0.80672 0.0
C1414 C 0.92329 0.9993 0.82734 0.0
C1415 C 0.90605 0.01806 0.8229 0.0
C1416 C 0.92838 0.9917 0.85374 0.0
C1417 C 0.95346 0.96745 0.8105 0.0
C1418 C 0.90964 0.97978 0.86775 0.0
C1419 C 0.91434 0.97264 0.89275 0.0
C1420 C 0.93783 0.97753 0.90422 0.0
C1421 C 0.95647 0.98983 0.89021 0.0
C1422 C 0.95177 0.99684 0.86512 0.0
H1423 H 0.95709 0.95755 0.79244 0.0
H1424 H 0.97148 0.97518 0.81804 0.0
H1425 H 0.94611 0.95378 0.82447 0.0
H1426 H 0.89143 0.97584 0.85928 0.0
H1427 H 0.89952 0.96335 0.90309 0.0
H1428 H 0.8567 0.1112 0.56635 0.0
H1429 H 0.81769 0.11181 0.54188 0.0
H1430 H 0.8208 0.03238 0.53027 0.0
H1431 H 0.86001 0.03158 0.55444 0.0
H1432 H 0.8135 0.05808 0.48617 0.0
H1433 H 0.74681 0.08843 0.5583 0.0
H1434 H 0.7741 0.10842 0.55735 0.0
H1435 H 0.77699 0.07635 0.56659 0.0
C1436 C 0.84898 0.0938 0.55882 0.0
C1437 C 0.86151 0.07136 0.56226 0.0
C1438 C 0.82655 0.09415 0.54505 0.0
C1439 C 0.81615 0.07206 0.53465 0.0
C1440 C 0.82841 0.04958 0.53836 0.0
H1441 H 0.67548 0.08472 0.44636 0.0
H1442 H 0.70587 0.0668 0.47614 0.0
C1443 C 0.85084 0.04919 0.55213 0.0
C1444 C 0.79381 0.07297 0.51792 0.0
H1445 H 0.7349 0.09537 0.51449 0.0
C1446 C 0.79613 0.06574 0.49248 0.0
C1447 C 0.77103 0.08258 0.52626 0.0
C1448 C 0.76696 0.08914 0.5537 0.0
C1449 C 0.77688 0.06956 0.47477 0.0
C1450 C 0.75494 0.08112 0.48271 0.0
C1451 C 0.75188 0.08669 0.50846 0.0
C1452 C 0.73664 0.09055 0.46414 0.0
C1453 C 0.78052 0.0621 0.4475 0.0
C1454 C 0.74397 0.10983 0.44782 0.0
C1455 C 0.7268 0.12013 0.43109 0.0
C1456 C 0.70191 0.11134 0.43033 0.0
C1457 C 0.69458 0.09175 0.44647 0.0
C1458 C 0.71184 0.08156 0.46347 0.0
H1459 H 0.7944 0.04718 0.4459 0.0
H1460 H 0.76266 0.05551 0.43855 0.0
H1461 H 0.78755 0.0785 0.43674 0.0
H1462 H 0.76294 0.11726 0.44836 0.0
H1463 H 0.73305 0.13515 0.41887 0.0
H1464 H 0.63603 0.04725 0.35953 0.0
H1465 H 0.62345 1.00846 0.33742 0.0
H1466 H 0.57087 0.04891 0.29175 0.0
H1467 H 0.58296 0.08737 0.31377 0.0
H1468 H 0.55117 1.00361 0.31174 0.0
H1469 H 0.64217 0.99119 0.26411 0.0
H1470 H 0.64246 0.99409 0.2981 0.0
H1471 H 0.63435 0.02028 0.27887 0.0
C1472 C 0.62186 0.04784 0.3447 0.0
C1473 C 0.61059 0.07041 0.33831 0.0
C1474 C 0.6147 0.02568 0.33211 0.0
C1475 C 0.5963 0.02586 0.31288 0.0
C1476 C 0.58502 0.04834 0.30662 0.0
H1477 H 0.53111 0.9686 0.1856 0.0
H1478 H 0.53794 0.98402 0.2287 0.0
C1479 C 0.59207 0.07036 0.31916 0.0
C1480 C 0.58893 1.00305 0.29843 0.0
H1481 H 0.60858 0.96571 0.25067 0.0
C1482 C 0.56384 0.99492 0.29876 0.0
C1483 C 0.60554 0.99153 0.28174 0.0
C1484 C 0.63262 0.99968 0.28044 0.0
C1485 C 0.55454 0.97679 0.28159 0.0
C1486 C 0.57069 0.96682 0.26347 0.0
C1487 C 0.5962 0.97339 0.2646 0.0
C1488 C 0.5611 0.95355 0.24048 0.0
C1489 C 0.52729 0.96929 0.2823 0.0
C1490 C 0.5711 0.93078 0.23295 0.0
C1491 C 0.56699 0.92181 0.20822 0.0
C1492 C 0.55325 0.93579 0.19065 0.0
C1493 C 0.54158 0.9574 0.19887 0.0
C1494 C 0.54542 0.96617 0.22357 0.0
H1495 H 0.52008 0.97062 0.30189 0.0
H1496 H 0.5165 0.98217 0.27021 0.0
H1497 H 0.52399 0.94998 0.27516 0.0
H1498 H 0.58346 0.92089 0.24562 0.0
H1499 H 0.57655 0.9053 0.20222 0.0
H1500 H 0.64572 0.97215 0.03573 0.0
H1501 H 0.68443 0.98141 1.01324 0.0
H1502 H 0.70122 0.90317 1.01368 0.0
H1503 H 0.66208 0.89391 0.03521 0.0
H1504 H 0.72655 0.97469 0.03632 0.0
H1505 H 0.72905 0.92203 0.94657 0.0
H1506 H 0.7003 0.92702 0.963 0.0
H1507 H 0.72003 0.90165 0.97184 0.0
C1508 C 0.65723 0.95689 0.02999 0.0
C1509 C 0.65106 0.93234 0.03709 0.0
C1510 C 0.67934 0.96217 0.01723 0.0
C1511 C 0.69577 0.94301 1.01166 0.0
C1512 C 0.68865 0.91823 0.01714 0.0
H1513 H 0.84977 0.93542 0.03568 0.0
H1514 H 0.80458 0.93901 0.03653 0.0
C1515 C 0.66631 0.91292 0.02955 0.0
C1516 C 0.72192 0.94919 1.00476 0.0
H1517 H 0.76947 0.9306 0.96742 0.0
C1518 C 0.73573 0.96549 0.02083 0.0
C1519 C 0.734 0.93749 0.98442 0.0
C1520 C 0.71994 0.9213 0.96534 0.0
C1521 C 0.7615 0.96905 0.01819 0.0
C1522 C 0.77391 0.95554 0.99937 0.0
C1523 C 0.75994 0.94064 0.98213 0.0
C1524 C 0.80144 0.9548 0.99892 0.0
C1525 C 0.77532 0.98673 0.03608 0.0
C1526 C 0.81463 0.96227 0.97737 0.0
C1527 C 0.84057 0.9602 0.9768 0.0
C1528 C 0.85362 0.95036 0.9977 0.0
C1529 C 0.84031 0.9432 0.01933 0.0
C1530 C 0.81448 0.94533 0.0199 0.0
H1531 H 0.76288 1.0013 0.04329 0.0
H1532 H 0.78236 0.97615 0.05265 0.0
H1533 H 0.79148 0.99597 0.02672 0.0
H1534 H 0.80485 0.96947 0.96094 0.0
H1535 H 0.85028 0.96571 0.95977 0.0
H1536 H 0.1602 0.72874 0.95579 0.0
H1537 H 0.15358 0.77043 0.97208 0.0
H1538 H 0.08113 0.74661 0.99865 0.0
H1539 H 0.08851 0.70446 0.98443 0.0
H1540 H 0.12162 0.79676 0.95078 0.0
H1541 H 0.09651 0.79701 0.05097 0.0
H1542 H 0.11199 0.77093 0.03702 0.0
H1543 H 0.07837 0.7725 0.03612 0.0
C1544 C 0.1434 0.73195 0.96629 0.0
C1545 C 0.12463 0.71327 0.96832 0.0
C1546 C 0.13957 0.75597 0.97546 0.0
C1547 C 0.11682 0.76185 0.98654 0.0
C1548 C 0.09906 0.74265 0.99065 0.0
H1549 H 1.01257 0.86038 0.94304 0.0
H1550 H 0.04739 0.83253 0.94783 0.0
C1551 C 0.1031 0.71853 0.98199 0.0
C1552 C 0.10933 0.7882 0.9887 0.0
H1553 H 0.07161 0.82513 0.02314 0.0
C1554 C 0.11143 0.80325 0.96702 0.0
C1555 C 0.09656 0.79729 1.00996 0.0
C1556 C 0.09605 0.78359 0.03488 0.0
C1557 C 0.09873 0.82563 0.96498 0.0
C1558 C 0.08293 0.83272 0.98478 0.0
C1559 C 0.08315 0.81929 1.0076 0.0
C1560 C 0.06352 0.85147 0.98077 0.0
C1561 C 0.10143 0.84079 0.94109 0.0
C1562 C 0.06072 0.87117 0.99794 0.0
C1563 C 0.04062 0.88709 0.99532 0.0
C1564 C 0.02296 0.88345 0.97554 0.0
C1565 C 0.02614 0.86401 0.95812 0.0
C1566 C 0.04611 0.8481 0.96082 0.0
H1567 H 0.12042 0.83909 0.93324 0.0
H1568 H 0.08792 0.83358 0.92652 0.0
H1569 H 0.09788 0.86081 0.94451 0.0
H1570 H 0.07383 0.87395 1.0136 0.0
H1571 H 0.03866 0.90201 1.00896 0.0
H1572 H 0.44273 0.65943 0.05696 0.0
H1573 H 0.46542 0.69894 0.04882 0.0
H1574 H 0.50502 0.69184 0.12019 0.0
H1575 H 0.48328 0.65244 0.12797 0.0
H1576 H 0.46735 0.74227 0.07433 0.0
H1577 H 0.56185 0.70461 0.07327 0.0
H1578 H 0.53423 0.68473 0.07161 0.0
H1579 H 0.54663 0.69536 0.10186 0.0
C1580 C 0.45641 0.66632 0.07077 0.0
C1581 C 0.46148 0.65274 0.09293 0.0
C1582 C 0.46935 0.68881 0.0661 0.0
C1583 C 0.48742 0.69795 0.08357 0.0
C1584 C 0.49185 0.6847 0.106 0.0
H1585 H 0.53701 0.84291 0.12603 0.0
H1586 H 0.51391 0.80434 0.11576 0.0
C1587 C 0.47924 0.66224 0.11051 0.0
C1588 C 0.50111 0.72182 0.07935 0.0
H1589 H 0.55932 0.74827 0.08512 0.0
C1590 C 0.48751 0.7436 0.07614 0.0
C1591 C 0.52745 0.72352 0.08094 0.0
C1592 C 0.54335 0.70072 0.0818 0.0
C1593 C 0.49946 0.76717 0.07644 0.0
C1594 C 0.52554 0.76894 0.08095 0.0
C1595 C 0.53927 0.74705 0.08222 0.0
C1596 C 0.53882 0.79305 0.08609 0.0
C1597 C 0.4839 0.78985 0.07214 0.0
C1598 C 0.56109 0.79914 0.0736 0.0
C1599 C 0.57477 0.82078 0.08008 0.0
C1600 C 0.56626 0.83685 0.09896 0.0
C1601 C 0.54387 0.83093 0.11125 0.0
C1602 C 0.53049 0.80904 0.10515 0.0
H1603 H 0.46761 0.78535 0.05953 0.0
H1604 H 0.47658 0.79623 0.09055 0.0
H1605 H 0.49494 0.80535 0.06356 0.0
H1606 H 0.56801 0.78703 0.05897 0.0
H1607 H 0.5919 0.82501 0.07018 0.0
H1608 H 1.00345 0.15275 0.57254 0.0
H1609 H 1.01325 0.19742 0.57114 0.0
H1610 H 0.93496 0.21271 0.56415 0.0
H1611 H 0.92491 0.16795 0.56566 0.0
H1612 H 1.00056 0.23866 0.53731 0.0
H1613 H 0.95876 0.24447 0.63321 0.0
H1614 H 0.96641 0.2151 0.61891 0.0
H1615 H 0.93947 0.23137 0.60809 0.0
C1616 C 0.98834 0.16556 0.56999 0.0
C1617 C 0.96341 0.15684 0.56946 0.0
C1618 C 0.99398 0.19108 0.56921 0.0
C1619 C 0.9748 0.20832 0.56804 0.0
C1620 C 0.94999 0.19965 0.56538 0.0
H1621 H 0.99329 0.36652 0.60944 0.0
H1622 H 0.97453 0.32639 0.59607 0.0
C1623 C 0.94431 0.17406 0.56601 0.0
C1624 C 0.98085 0.23508 0.5724 0.0
H1625 H 0.97866 0.28056 0.61769 0.0
C1626 C 0.99553 0.24797 0.55472 0.0
C1627 C 0.97424 0.24712 0.59515 0.0
C1628 C 0.95899 0.23387 0.61509 0.0
C1629 C 1.00419 0.27249 0.55942 0.0
C1630 C 0.99853 0.28414 0.58269 0.0
C1631 C 0.98304 0.27157 0.59992 0.0
C1632 C 1.00977 0.30865 0.59028 0.0
C1633 C 0.01943 0.28563 0.53944 0.0
C1634 C 0.03578 0.31182 0.59201 0.0
C1635 C 0.04654 0.33465 0.59961 0.0
C1636 C 0.03149 0.35477 0.60593 0.0
C1637 C 1.00541 0.35142 0.6047 0.0
C1638 C 0.99465 0.32853 0.59699 0.0
H1639 H 1.01521 0.27787 0.52024 0.0
H1640 H 1.01598 0.30594 0.53924 0.0
H1641 H 0.03953 0.28295 0.54354 0.0
H1642 H 0.04782 0.29653 0.58768 0.0
H1643 H 0.06669 0.33649 0.60054 0.0
H1644 H 0.5374 0.39707 0.42879 0.0
H1645 H 0.57095 0.36735 0.43078 0.0
H1646 H 0.57951 0.38041 0.51127 0.0
H1647 H 0.54521 0.40976 0.50947 0.0
H1648 H 0.61973 0.36258 0.44721 0.0
H1649 H 0.55357 0.30897 0.50837 0.0
H1650 H 0.54467 0.33713 0.49254 0.0
H1651 H 0.56482 0.33867 0.52009 0.0
C1652 C 0.54698 0.39426 0.44676 0.0
C1653 C 0.53844 0.40528 0.46906 0.0
C1654 C 0.56618 0.37726 0.44789 0.0
C1655 C 0.57725 0.3712 0.4713 0.0
C1656 C 0.57075 0.38438 0.49314 0.0
H1657 H 0.6619 0.23188 0.45399 0.0
H1658 H 0.65489 0.27378 0.47121 0.0
C1659 C 0.55124 0.40114 0.49208 0.0
C1660 C 0.59208 0.34837 0.47294 0.0
H1661 H 0.58589 0.28739 0.49048 0.0
C1662 C 0.61285 0.34627 0.45726 0.0
C1663 C 0.58291 0.32708 0.48603 0.0
C1664 C 0.56021 0.32786 0.5026 0.0
C1665 C 0.62339 0.32303 0.45267 0.0
C1666 C 0.61296 0.3016 0.46428 0.0
C1667 C 0.59375 0.30402 0.48172 0.0
C1668 C 0.61787 0.27637 0.45475 0.0
C1669 C 0.64408 0.32113 0.43378 0.0
C1670 C 0.59923 0.26405 0.44022 0.0
C1671 C 0.60308 0.24035 0.43056 0.0
C1672 C 0.62569 0.22845 0.43523 0.0
C1673 C 0.64427 0.24064 0.45018 0.0
C1674 C 0.6404 0.26454 0.45985 0.0
H1675 H 0.64995 0.33962 0.42618 0.0
H1676 H 0.66047 0.31247 0.44293 0.0
H1677 H 0.63788 0.30895 0.41771 0.0
H1678 H 0.58167 0.2729 0.43622 0.0
H1679 H 0.58826 0.23127 0.4195 0.0
H1680 H 0.65223 0.43721 0.81347 0.0
H1681 H 0.67491 0.47637 0.80654 0.0
H1682 H 0.74249 0.4442 0.83539 0.0
H1683 H 0.71974 0.40448 0.84239 0.0
H1684 H 0.7053 0.50753 0.84134 0.0
H1685 H 0.75738 0.46756 0.76065 0.0
H1686 H 0.72974 0.45204 0.77258 0.0
H1687 H 0.75804 0.45247 0.79113 0.0
C1688 C 0.67186 0.43846 0.81861 0.0
C1689 C 0.68429 0.41775 0.82821 0.0
C1690 C 0.68476 0.46089 0.81474 0.0
C1691 C 0.71036 0.46303 0.82026 0.0
C1692 C 0.72274 0.44276 0.83087 0.0
H1693 H 0.75003 0.617 0.77793 0.0
H1694 H 0.75809 0.57803 0.80045 0.0
C1695 C 0.70973 0.4202 0.83493 0.0
C1696 C 0.72372 0.48621 0.81297 0.0
H1697 H 0.75461 0.51103 0.76257 0.0
C1698 C 0.71683 0.50844 0.82462 0.0
C1699 C 0.73866 0.48709 0.79114 0.0
C1700 C 0.74646 0.4636 0.77798 0.0
C1701 C 0.72239 0.5316 0.8136 0.0
C1702 C 0.73559 0.5324 0.79054 0.0
C1703 C 0.74452 0.51027 0.78023 0.0
C1704 C 0.7358 0.555 0.7746 0.0
C1705 C 0.712 0.55475 0.82539 0.0
C1706 C 0.72189 0.55464 0.75183 0.0
C1707 C 0.71742 0.57673 0.73888 0.0
C1708 C 0.72673 0.59956 0.74857 0.0
C1709 C 0.74228 0.59965 0.77032 0.0
C1710 C 0.74691 0.57747 0.78317 0.0
H1711 H 0.69961 0.55038 0.84156 0.0
H1712 H 0.72758 0.56697 0.8325 0.0
H1713 H 0.70125 0.56535 0.81105 0.0
H1714 H 0.71313 0.53747 0.74491 0.0
H1715 H 0.70527 0.57609 0.72228 0.0
H1716 H 0.71882 0.3326 0.89153 0.0
H1717 H 0.74286 0.34254 0.93027 0.0
H1718 H 0.67698 0.33074 0.97486 0.0
H1719 H 0.65278 0.32051 0.93642 0.0
H1720 H 0.70837 0.38285 0.97487 0.0
H1721 H 0.75808 0.29562 0.99787 0.0
H1722 H 0.75521 0.30488 0.9651 0.0
H1723 H 0.72794 0.29518 0.98201 0.0
C1724 C 0.70956 0.33154 0.90962 0.0
C1725 C 0.68386 0.32591 0.91088 0.0
C1726 C 0.7233 0.33724 0.93168 0.0
C1727 C 0.71155 0.33743 0.95522 0.0
C1728 C 0.68627 0.33063 0.95676 0.0
H1729 H 0.78397 0.36879 0.10102 0.0
H1730 H 0.75235 0.35648 0.06906 0.0
C1731 C 0.67254 0.32471 0.93477 0.0
C1732 C 0.72515 0.34693 0.97783 0.0
H1733 H 0.76915 0.33157 0.02195 0.0
C1734 C 0.72153 0.37165 0.98536 0.0
C1735 C 0.7421 0.33212 0.99133 0.0
C1736 C 0.74614 0.3054 0.98388 0.0
C1737 C 0.73509 0.38222 1.00581 0.0
C1738 C 0.75259 0.36761 0.01888 0.0
C1739 C 0.75564 0.34265 1.01181 0.0
C1740 C 0.76906 0.37819 0.039 0.0
C1741 C 0.73086 0.40892 1.01322 0.0
C1742 C 0.78846 0.39493 0.03268 0.0
C1743 C 0.80654 0.40192 0.05082 0.0
C1744 C 0.80536 0.39235 0.07555 0.0
C1745 C 0.78509 0.37673 0.0822 0.0
C1746 C 0.76715 0.36955 0.06397 0.0
H1747 H 0.71335 0.416 1.00472 0.0
H1748 H 0.7301 0.41082 0.03418 0.0
H1749 H 0.74667 0.42079 1.00654 0.0
H1750 H 0.79031 0.40156 1.01339 0.0
H1751 H 0.82203 0.41394 0.04526 0.0
H1752 H 0.86663 0.4073 0.22185 0.0
H1753 H 0.85314 0.43085 0.25911 0.0
H1754 H 0.86395 0.49959 0.21816 0.0
H1755 H 0.87741 0.47651 0.18121 0.0
H1756 H 0.8849 0.49846 0.26964 0.0
H1757 H 0.78486 0.46812 0.26258 0.0
H1758 H 0.80845 0.44482 0.26243 0.0
H1759 H 0.80549 0.46553 0.23602 0.0
C1760 C 0.86623 0.42744 0.22088 0.0
C1761 C 0.87298 0.44003 0.19852 0.0
C1762 C 0.85843 0.44082 0.24212 0.0
C1763 C 0.8574 0.46693 0.24127 0.0
C1764 C 0.8646 0.47945 0.21918 0.0
H1765 H 0.79057 0.59226 0.29451 0.0
H1766 H 0.80103 0.55193 0.27688 0.0
C1767 C 0.87222 0.46618 0.19803 0.0
C1768 C 0.84856 0.48171 0.26298 0.0
H1769 H 0.79518 0.50101 0.29057 0.0
C1770 C 0.8654 0.49866 0.27476 0.0
C1771 C 0.82308 0.48192 0.2694 0.0
C1772 C 0.80426 0.46424 0.25698 0.0
C1773 C 0.85722 0.51687 0.29167 0.0
C1774 C 0.83151 0.51791 0.29714 0.0
C1775 C 0.81488 0.50001 0.28648 0.0
C1776 C 0.82125 0.5398 0.31025 0.0
C1777 C 0.87588 0.53598 0.30202 0.0
C1778 C 0.82807 0.54589 0.33539 0.0
C1779 C 0.8221 0.5691 0.34558 0.0
C1780 C 0.8093 0.58653 0.33072 0.0
C1781 C 0.80071 0.57942 0.30637 0.0
C1782 C 0.80661 0.55629 0.29627 0.0
H1783 H 0.89445 0.53448 0.29317 0.0
H1784 H 0.86911 0.55512 0.29886 0.0
H1785 H 0.87827 0.53329 0.32277 0.0
H1786 H 0.83904 0.53323 0.34665 0.0
H1787 H 0.82882 0.57391 0.36446 0.0
H1788 H 0.6834 0.6827 0.62745 0.0
H1789 H 0.69719 0.67354 0.58454 0.0
H1790 H 0.76411 0.71832 0.59815 0.0
H1791 H 0.74935 0.72889 0.64045 0.0
H1792 H 0.7485 0.72801 0.5545 0.0
H1793 H 0.7452 0.62534 0.56066 0.0
H1794 H 0.71509 0.63758 0.5665 0.0
H1795 H 0.74078 0.64486 0.58799 0.0
C1796 C 0.7011 0.69044 0.62126 0.0
C1797 C 0.71539 0.70639 0.63721 0.0
C1798 C 0.70913 0.685 0.5968 0.0
C1799 C 0.73209 0.69461 0.58818 0.0
C1800 C 0.74638 0.71054 0.60427 0.0
H1801 H 0.80466 0.64159 0.45186 0.0
H1802 H 0.78905 0.64693 0.49494 0.0
C1803 C 0.73798 0.7166 0.62844 0.0
C1804 C 0.74066 0.68917 0.56201 0.0
H1805 H 0.74817 0.64242 0.51883 0.0
C1806 C 0.74865 0.70922 0.54686 0.0
C1807 C 0.74133 0.66465 0.55198 0.0
C1808 C 0.73541 0.6419 0.56776 0.0
C1809 C 0.75704 0.70557 0.52209 0.0
C1810 C 0.7561 0.68126 0.51146 0.0
C1811 C 0.74843 0.66113 0.52669 0.0
C1812 C 0.76374 0.6763 0.48491 0.0
C1813 C 0.7676 0.72783 0.50803 0.0
C1814 C 0.75402 0.69021 0.46466 0.0
C1815 C 0.76345 0.68765 0.44027 0.0
C1816 C 0.78194 0.67033 0.43542 0.0
C1817 C 0.79025 0.65497 0.45514 0.0
C1818 C 0.78139 0.65808 0.47976 0.0
H1819 H 0.77473 0.74252 0.52136 0.0
H1820 H 0.78307 0.72254 0.49553 0.0
H1821 H 0.75265 0.7361 0.49624 0.0
H1822 H 0.73964 0.70361 0.46784 0.0
H1823 H 0.75661 0.69954 0.42525 0.0
H1824 H 0.37015 0.5453 0.19492 0.0
H1825 H 0.37029 0.53097 0.23887 0.0
H1826 H 0.42185 0.47379 0.21978 0.0
H1827 H 0.42142 0.48766 0.17555 0.0
H1828 H 0.38233 0.45901 0.25485 0.0
H1829 H 0.43382 0.54637 0.28323 0.0
H1830 H 0.40491 0.5499 0.26606 0.0
H1831 H 0.43089 0.53634 0.25059 0.0
C1832 C 0.38093 0.52918 0.19985 0.0
C1833 C 0.39586 0.51764 0.18173 0.0
C1834 C 0.38121 0.52122 0.22506 0.0
C1835 C 0.39643 0.50165 0.23261 0.0
C1836 C 0.41011 0.48906 0.21432 0.0
H1837 H 0.45236 0.42837 0.36359 0.0
H1838 H 0.43964 0.44296 0.32181 0.0
C1839 C 0.40989 0.49703 0.18909 0.0
C1840 C 0.39957 0.49537 0.25978 0.0
H1841 H 0.42585 0.51704 0.31528 0.0
C1842 C 0.39166 0.47174 0.26813 0.0
C1843 C 0.41163 0.51212 0.27706 0.0
C1844 C 0.421 0.53756 0.26888 0.0
C1845 C 0.39587 0.46422 0.29328 0.0
C1846 C 0.40883 0.48059 0.3103 0.0
C1847 C 0.41596 0.50454 0.30217 0.0
C1848 C 0.41684 0.47247 0.33593 0.0
C1849 C 0.38648 0.43877 0.30139 0.0
C1850 C 0.40914 0.48496 0.3578 0.0
C1851 C 0.41661 0.47678 0.38191 0.0
C1852 C 0.43202 0.45609 0.38442 0.0
C1853 C 0.44032 0.44424 0.36239 0.0
C1854 C 0.4329 0.45241 0.33844 0.0
H1855 H 0.37062 0.43202 0.28919 0.0
H1856 H 0.40171 0.4253 0.29964 0.0
H1857 H 0.38041 0.43892 0.32143 0.0
H1858 H 0.39697 0.5007 0.35622 0.0
H1859 H 0.40987 0.48628 0.39851 0.0
H1860 H 0.17413 0.59446 0.93879 0.0
H1861 H 0.20937 0.58818 0.96774 0.0
H1862 H 0.26025 0.59827 0.90579 0.0
H1863 H 0.22487 0.60341 0.87647 0.0
H1864 H 0.27576 0.56286 0.93587 0.0
H1865 H 0.2525 0.64375 0.99534 0.0
H1866 H 0.22725 0.62127 0.99395 0.0
H1867 H 0.23685 0.6371 0.96549 0.0
C1868 C 0.19283 0.59504 0.9313 0.0
C1869 C 0.19682 0.59955 0.90543 0.0
C1870 C 0.21296 0.59173 0.94791 0.0
C1871 C 0.2375 0.5936 0.93911 0.0
C1872 C 0.24148 0.59701 0.91306 0.0
H1873 H 0.36398 0.61688 0.04378 0.0
H1874 H 0.33073 0.62231 1.01204 0.0
C1875 C 0.22128 0.59985 0.8963 0.0
C1876 C 0.25893 0.59215 0.95715 0.0
H1877 H 0.28246 0.61611 1.01287 0.0
C1878 C 0.27733 0.57463 0.95261 0.0
C1879 C 0.26135 0.60796 0.97866 0.0
C1880 C 0.24358 0.62876 0.9835 0.0
C1881 C 0.29766 0.57196 0.96936 0.0
C1882 C 0.29913 0.58657 0.99179 0.0
C1883 C 0.28113 0.6046 0.99592 0.0
C1884 C 0.31906 0.58336 1.01128 0.0
C1885 C 0.31755 0.55383 0.96252 0.0
C1886 C 0.32316 0.55984 0.02189 0.0
C1887 C 0.34235 0.55666 0.03966 0.0
C1888 C 0.35739 0.57707 0.0477 0.0
C1889 C 0.35263 0.60083 0.03793 0.0
C1890 C 0.33369 0.60392 0.01977 0.0
H1891 H 0.31819 0.55082 0.94168 0.0
H1892 H 0.33628 0.56046 0.96927 0.0
H1893 H 0.31324 0.53554 0.97142 0.0
H1894 H 0.31155 0.54387 1.01639 0.0
H1895 H 0.34538 0.53818 0.04714 0.0
H1896 H 0.06869 0.61912 0.81445 0.0
H1897 H 0.05373 0.58803 0.78365 0.0
H1898 H 0.12677 0.55605 0.78304 0.0
H1899 H 0.14128 0.58619 0.81536 0.0
H1900 H 0.06336 0.57904 0.73866 0.0
H1901 H 0.0872 0.49405 0.79101 0.0
H1902 H 0.08943 0.52448 0.80557 0.0
H1903 H 0.11479 0.51302 0.78708 0.0
C1904 C 0.08158 0.60545 0.80773 0.0
C1905 C 0.10616 0.60502 0.81725 0.0
C1906 C 0.07296 0.58759 0.79017 0.0
C1907 C 0.08887 0.56919 0.78138 0.0
C1908 C 0.11378 0.56936 0.79022 0.0
H1909 H 0.08744 0.49961 0.63966 0.0
H1910 H 0.08443 0.52759 0.67541 0.0
C1911 C 0.12221 0.58681 0.80838 0.0
C1912 C 0.07969 0.55067 0.7621 0.0
H1913 H 0.08177 0.48925 0.74549 0.0
C1914 C 0.06703 0.55934 0.74046 0.0
C1915 C 0.08352 0.52475 0.76459 0.0
C1916 C 0.09419 0.51354 0.78849 0.0
C1917 C 0.05959 0.54317 0.72067 0.0
C1918 C 0.06606 0.51779 0.7219 0.0
C1919 C 0.07718 0.50877 0.74423 0.0
C1920 C 0.06455 0.50123 0.69924 0.0
C1921 C 0.04508 0.55363 0.69856 0.0
C1922 C 0.05462 0.47674 0.70058 0.0
C1923 C 0.05686 0.46026 0.68006 0.0
C1924 C 0.06916 0.46809 0.65802 0.0
C1925 C 0.07786 0.49294 0.65636 0.0
C1926 C 0.07588 0.50916 0.67678 0.0
H1927 H 0.03265 0.56855 0.70501 0.0
H1928 H 0.05826 0.56217 0.68489 0.0
H1929 H 0.03355 0.53903 0.68864 0.0
H1930 H 0.04594 0.47013 0.71779 0.0
H1931 H 0.05013 0.44117 0.68194 0.0
H1932 H 0.3621 0.42297 0.52646 0.0
H1933 H 0.31828 0.40978 0.52634 0.0
H1934 H 0.3085 0.43951 0.4511 0.0
H1935 H 0.35273 0.45266 0.45084 0.0
H1936 H 0.27009 0.45088 0.49249 0.0
H1937 H 0.28937 0.35085 0.47805 0.0
H1938 H 0.30929 0.36652 0.50111 0.0
H1939 H 0.31059 0.37565 0.4684 0.0
C1940 C 0.35066 0.42699 0.50994 0.0
C1941 C 0.36095 0.43881 0.48863 0.0
C1942 C 0.32566 0.41928 0.50986 0.0
C1943 C 0.3104 0.42327 0.48854 0.0
C1944 C 0.32015 0.43607 0.46762 0.0
H1945 H 0.14958 0.39446 0.50932 0.0
H1946 H 0.18697 0.40068 0.48348 0.0
C1947 C 0.34534 0.4437 0.4676 0.0
C1948 C 0.28424 0.414 0.48871 0.0
H1949 H 0.24988 0.36022 0.49609 0.0
C1950 C 0.26538 0.43111 0.49256 0.0
C1951 C 0.27836 0.38819 0.48869 0.0
C1952 C 0.29791 0.36918 0.48362 0.0
C1953 C 0.24111 0.423 0.49862 0.0
C1954 C 0.23561 0.39709 0.50039 0.0
C1955 C 0.25411 0.38003 0.49466 0.0
C1956 C 0.21247 0.38772 0.51249 0.0
C1957 C 0.22214 0.44223 0.50512 0.0
C1958 C 0.21431 0.37668 0.53651 0.0
C1959 C 0.19309 0.37292 0.55108 0.0
C1960 C 0.16967 0.38003 0.54181 0.0
C1961 C 0.16745 0.38869 0.51678 0.0
C1962 C 0.18879 0.39252 0.50216 0.0
H1963 H 0.23044 0.4614 0.50598 0.0
H1964 H 0.20705 0.4419 0.49049 0.0
H1965 H 0.2136 0.43793 0.52371 0.0
H1966 H 0.23238 0.37273 0.54481 0.0
H1967 H 0.19521 0.36621 0.57034 0.0
loop_
_geom_bond_atom_site_label_1
_geom_bond_atom_site_label_2
_geom_bond_distance
_geom_bond_site_symmetry_2
_ccdc_geom_bond_type
C0 C1 1.351 . S
C0 N3 1.368 . S
C0 H5 0.931 . S
C1 C0 1.351 . S
C1 N2 1.373 . S
C1 H29 0.930 . S
N2 C1 1.373 . S
N2 C4 1.340 . S
N3 C0 1.368 . S
N3 C4 1.321 . S
N3 Co6 2.135 . S
C4 N2 1.340 . S
C4 N3 1.321 . S
C4 H28 0.930 . S
H5 C0 0.931 . S
Co6 N3 2.135 . S
Co6 N9 2.121 . S
Co6 O14 2.055 . S
Co6 O17 2.039 . S
Co6 N20 2.140 . S
C7 O8 1.227 . S
C7 O17 1.265 . S
O8 C7 1.227 . S
N9 Co6 2.121 . S
N9 C11 1.375 . S
N9 C12 1.313 . S
C10 C11 1.338 . S
C10 N13 1.377 . S
C10 H30 0.930 . S
C11 N9 1.375 . S
C11 C10 1.338 . S
C11 H15 0.931 . S
C12 N9 1.313 . S
C12 N13 1.344 . S
C12 H16 0.930 . S
N13 C10 1.377 . S
N13 C12 1.344 . S
O14 Co6 2.055 . S
O14 C18 1.253 . S
H15 C11 0.931 . S
H16 C12 0.930 . S
O17 Co6 2.039 . S
O17 C7 1.265 . S
C18 O14 1.253 . S
C18 O19 1.227 . S
O19 C18 1.227 . S
N20 Co6 2.140 . S
N20 C23 1.346 . S
N20 C24 1.345 . S
C21 C22 1.387 . S
C21 C25 1.391 . S
C22 C21 1.387 . S
C22 C23 1.369 . S
C22 H31 0.929 . S
C23 N20 1.346 . S
C23 C22 1.369 . S
C23 H26 0.928 . S
C24 N20 1.345 . S
C24 C25 1.371 . S
C24 H27 0.931 . S
C25 C21 1.391 . S
C25 C24 1.371 . S
C25 H32 0.930 . S
H26 C23 0.928 . S
H27 C24 0.931 . S
H28 C4 0.930 . S
H29 C1 0.930 . S
H30 C10 0.930 . S
H31 C22 0.929 . S
H32 C25 0.930 . S
C33 C34 1.351 . S
C33 N36 1.368 . S
C33 H38 0.931 . S
C34 C33 1.351 . S
C34 N35 1.373 . S
C34 H62 0.930 . S
N35 C34 1.373 . S
N35 C37 1.340 . S
N36 C33 1.368 . S
N36 C37 1.321 . S
N36 Co39 2.135 . S
C37 N35 1.340 . S
C37 N36 1.321 . S
C37 H61 0.930 . S
H38 C33 0.931 . S
Co39 N36 2.135 . S
Co39 N42 2.121 . S
Co39 O47 2.055 . S
Co39 O50 2.039 . S
Co39 N53 2.140 . S
C40 O41 1.227 . S
C40 O50 1.265 . S
O41 C40 1.227 . S
N42 Co39 2.121 . S
N42 C44 1.375 . S
N42 C45 1.313 . S
C43 C44 1.338 . S
C43 N46 1.377 . S
C43 H63 0.930 . S
C44 N42 1.375 . S
C44 C43 1.338 . S
C44 H48 0.931 . S
C45 N42 1.313 . S
C45 N46 1.344 . S
C45 H49 0.930 . S
N46 C43 1.377 . S
N46 C45 1.344 . S
O47 Co39 2.055 . S
O47 C51 1.253 . S
H48 C44 0.931 . S
H49 C45 0.930 . S
O50 Co39 2.039 . S
O50 C40 1.265 . S
C51 O47 1.253 . S
C51 O52 1.227 . S
O52 C51 1.227 . S
N53 Co39 2.140 . S
N53 C56 1.346 . S
N53 C57 1.345 . S
C54 C55 1.387 . S
C54 C58 1.391 . S
C55 C54 1.387 . S
C55 C56 1.369 . S
C55 H64 0.929 . S
C56 N53 1.346 . S
C56 C55 1.369 . S
C56 H59 0.928 . S
C57 N53 1.345 . S
C57 C58 1.371 . S
C57 H60 0.931 . S
C58 C54 1.391 . S
C58 C57 1.371 . S
C58 H65 0.930 . S
H59 C56 0.928 . S
H60 C57 0.931 . S
H61 C37 0.930 . S
H62 C34 0.930 . S
H63 C43 0.930 . S
H64 C55 0.929 . S
H65 C58 0.930 . S
C66 C67 1.351 . S
C66 N69 1.368 . S
C66 H71 0.931 . S
C67 C66 1.351 . S
C67 N68 1.373 . S
C67 H95 0.930 . S
N68 C67 1.373 . S
N68 C70 1.340 . S
N69 C66 1.368 . S
N69 C70 1.321 . S
N69 Co72 2.135 . S
C70 N68 1.340 . S
C70 N69 1.321 . S
C70 H94 0.930 . S
H71 C66 0.931 . S
Co72 N69 2.135 . S
Co72 N75 2.121 . S
Co72 O80 2.055 . S
Co72 O83 2.039 . S
Co72 N86 2.140 . S
C73 O74 1.227 . S
C73 O83 1.265 . S
O74 C73 1.227 . S
N75 Co72 2.121 . S
N75 C77 1.375 . S
N75 C78 1.313 . S
C76 C77 1.338 . S
C76 N79 1.377 . S
C76 H96 0.930 . S
C77 N75 1.375 . S
C77 C76 1.338 . S
C77 H81 0.931 . S
C78 N75 1.313 . S
C78 N79 1.344 . S
C78 H82 0.930 . S
N79 C76 1.377 . S
N79 C78 1.344 . S
O80 Co72 2.055 . S
O80 C84 1.253 . S
H81 C77 0.931 . S
H82 C78 0.930 . S
O83 Co72 2.039 . S
O83 C73 1.265 . S
C84 O80 1.253 . S
C84 O85 1.227 . S
O85 C84 1.227 . S
N86 Co72 2.140 . S
N86 C89 1.346 . S
N86 C90 1.345 . S
C87 C88 1.387 . S
C87 C91 1.391 . S
C88 C87 1.387 . S
C88 C89 1.369 . S
C88 H97 0.929 . S
C89 N86 1.346 . S
C89 C88 1.369 . S
C89 H92 0.928 . S
C90 N86 1.345 . S
C90 C91 1.371 . S
C90 H93 0.931 . S
C91 C87 1.391 . S
C91 C90 1.371 . S
C91 H98 0.930 . S
H92 C89 0.928 . S
H93 C90 0.931 . S
H94 C70 0.930 . S
H95 C67 0.930 . S
H96 C76 0.930 . S
H97 C88 0.929 . S
H98 C91 0.930 . S
C99 C100 1.351 . S
C99 N102 1.368 . S
C99 H104 0.931 . S
C100 C99 1.351 . S
C100 N101 1.373 . S
C100 H128 0.930 . S
N101 C100 1.373 . S
N101 C103 1.340 . S
N102 C99 1.368 . S
N102 C103 1.321 . S
N102 Co105 2.135 . S
C103 N101 1.340 . S
C103 N102 1.321 . S
C103 H127 0.930 . S
H104 C99 0.931 . S
Co105 N102 2.135 . S
Co105 N108 2.121 . S
Co105 O113 2.055 . S
Co105 O116 2.039 . S
Co105 N119 2.140 . S
C106 O107 1.227 . S
C106 O116 1.265 . S
O107 C106 1.227 . S
N108 Co105 2.121 . S
N108 C110 1.375 . S
N108 C111 1.313 . S
C109 C110 1.338 . S
C109 N112 1.377 . S
C109 H129 0.930 . S
C110 N108 1.375 . S
C110 C109 1.338 . S
C110 H114 0.931 . S
C111 N108 1.313 . S
C111 N112 1.344 . S
C111 H115 0.930 . S
N112 C109 1.377 . S
N112 C111 1.344 . S
O113 Co105 2.055 . S
O113 C117 1.253 . S
H114 C110 0.931 . S
H115 C111 0.930 . S
O116 Co105 2.039 . S
O116 C106 1.265 . S
C117 O113 1.253 . S
C117 O118 1.227 . S
O118 C117 1.227 . S
N119 Co105 2.140 . S
N119 C122 1.346 . S
N119 C123 1.345 . S
C120 C121 1.387 . S
C120 C124 1.391 . S
C121 C120 1.387 . S
C121 C122 1.369 . S
C121 H130 0.929 . S
C122 N119 1.346 . S
C122 C121 1.369 . S
C122 H125 0.928 . S
C123 N119 1.345 . S
C123 C124 1.371 . S
C123 H126 0.931 . S
C124 C120 1.391 . S
C124 C123 1.371 . S
C124 H131 0.930 . S
H125 C122 0.928 . S
H126 C123 0.931 . S
H127 C103 0.930 . S
H128 C100 0.930 . S
H129 C109 0.930 . S
H130 C121 0.929 . S
H131 C124 0.930 . S
C132 C133 1.351 . S
C132 N135 1.368 . S
C132 H137 0.931 . S
C133 C132 1.351 . S
C133 N134 1.373 . S
C133 H161 0.930 . S
N134 C133 1.373 . S
N134 C136 1.340 . S
N135 C132 1.368 . S
N135 C136 1.321 . S
N135 Co138 2.135 . S
C136 N134 1.340 . S
C136 N135 1.321 . S
C136 H160 0.930 . S
H137 C132 0.931 . S
Co138 N135 2.135 . S
Co138 N141 2.121 . S
Co138 O146 2.055 . S
Co138 O149 2.039 . S
Co138 N152 2.140 . S
C139 O140 1.227 . S
C139 O149 1.265 . S
O140 C139 1.227 . S
N141 Co138 2.121 . S
N141 C143 1.375 . S
N141 C144 1.313 . S
C142 C143 1.338 . S
C142 N145 1.377 . S
C142 H162 0.930 . S
C143 N141 1.375 . S
C143 C142 1.338 . S
C143 H147 0.931 . S
C144 N141 1.313 . S
C144 N145 1.344 . S
C144 H148 0.930 . S
N145 C142 1.377 . S
N145 C144 1.344 . S
O146 Co138 2.055 . S
O146 C150 1.253 . S
H147 C143 0.931 . S
H148 C144 0.930 . S
O149 Co138 2.039 . S
O149 C139 1.265 . S
C150 O146 1.253 . S
C150 O151 1.227 . S
O151 C150 1.227 . S
N152 Co138 2.140 . S
N152 C155 1.346 . S
N152 C156 1.345 . S
C153 C154 1.387 . S
C153 C157 1.391 . S
C154 C153 1.387 . S
C154 C155 1.369 . S
C154 H163 0.929 . S
C155 N152 1.346 . S
C155 C154 1.369 . S
C155 H158 0.928 . S
C156 N152 1.345 . S
C156 C157 1.371 . S
C156 H159 0.931 . S
C157 C153 1.391 . S
C157 C156 1.371 . S
C157 H164 0.930 . S
H158 C155 0.928 . S
H159 C156 0.931 . S
H160 C136 0.930 . S
H161 C133 0.930 . S
H162 C142 0.930 . S
H163 C154 0.929 . S
H164 C157 0.930 . S
C165 C166 1.351 . S
C165 N168 1.368 . S
C165 H170 0.931 . S
C166 C165 1.351 . S
C166 N167 1.373 . S
C166 H194 0.930 . S
N167 C166 1.373 . S
N167 C169 1.340 . S
N168 C165 1.368 . S
N168 C169 1.321 . S
N168 Co171 2.135 . S
C169 N167 1.340 . S
C169 N168 1.321 . S
C169 H193 0.930 . S
H170 C165 0.931 . S
Co171 N168 2.135 . S
Co171 N174 2.121 . S
Co171 O179 2.055 . S
Co171 O182 2.039 . S
Co171 N185 2.140 . S
C172 O173 1.227 . S
C172 O182 1.265 . S
O173 C172 1.227 . S
N174 Co171 2.121 . S
N174 C176 1.375 . S
N174 C177 1.313 . S
C175 C176 1.338 . S
C175 N178 1.377 . S
C175 H195 0.930 . S
C176 N174 1.375 . S
C176 C175 1.338 . S
C176 H180 0.931 . S
C177 N174 1.313 . S
C177 N178 1.344 . S
C177 H181 0.930 . S
N178 C175 1.377 . S
N178 C177 1.344 . S
O179 Co171 2.055 . S
O179 C183 1.253 . S
H180 C176 0.931 . S
H181 C177 0.930 . S
O182 Co171 2.039 . S
O182 C172 1.265 . S
C183 O179 1.253 . S
C183 O184 1.227 . S
O184 C183 1.227 . S
N185 Co171 2.140 . S
N185 C188 1.346 . S
N185 C189 1.345 . S
C186 C187 1.387 . S
C186 C190 1.391 . S
C187 C186 1.387 . S
C187 C188 1.369 . S
C187 H196 0.929 . S
C188 N185 1.346 . S
C188 C187 1.369 . S
C188 H191 0.928 . S
C189 N185 1.345 . S
C189 C190 1.371 . S
C189 H192 0.931 . S
C190 C186 1.391 . S
C190 C189 1.371 . S
C190 H197 0.930 . S
H191 C188 0.928 . S
H192 C189 0.931 . S
H193 C169 0.930 . S
H194 C166 0.930 . S
H195 C175 0.930 . S
H196 C187 0.929 . S
H197 C190 0.930 . S
C198 C199 1.351 . S
C198 N201 1.368 . S
C198 H203 0.931 . S
C199 C198 1.351 . S
C199 N200 1.373 . S
C199 H227 0.930 . S
N200 C199 1.373 . S
N200 C202 1.340 . S
N201 C198 1.368 . S
N201 C202 1.321 . S
N201 Co204 2.135 . S
C202 N200 1.340 . S
C202 N201 1.321 . S
C202 H226 0.930 . S
H203 C198 0.931 . S
Co204 N201 2.135 . S
Co204 N207 2.121 . S
Co204 O212 2.055 . S
Co204 O215 2.039 . S
Co204 N218 2.140 . S
C205 O206 1.227 . S
C205 O215 1.265 . S
O206 C205 1.227 . S
N207 Co204 2.121 . S
N207 C209 1.375 . S
N207 C210 1.313 . S
C208 C209 1.338 . S
C208 N211 1.377 . S
C208 H228 0.930 . S
C209 N207 1.375 . S
C209 C208 1.338 . S
C209 H213 0.931 . S
C210 N207 1.313 . S
C210 N211 1.344 . S
C210 H214 0.930 . S
N211 C208 1.377 . S
N211 C210 1.344 . S
O212 Co204 2.055 . S
O212 C216 1.253 . S
H213 C209 0.931 . S
H214 C210 0.930 . S
O215 Co204 2.039 . S
O215 C205 1.265 . S
C216 O212 1.253 . S
C216 O217 1.227 . S
O217 C216 1.227 . S
N218 Co204 2.140 . S
N218 C221 1.346 . S
N218 C222 1.345 . S
C219 C220 1.387 . S
C219 C223 1.391 . S
C220 C219 1.387 . S
C220 C221 1.369 . S
C220 H229 0.929 . S
C221 N218 1.346 . S
C221 C220 1.369 . S
C221 H224 0.928 . S
C222 N218 1.345 . S
C222 C223 1.371 . S
C222 H225 0.931 . S
C223 C219 1.391 . S
C223 C222 1.371 . S
C223 H230 0.930 . S
H224 C221 0.928 . S
H225 C222 0.931 . S
H226 C202 0.930 . S
H227 C199 0.930 . S
H228 C208 0.930 . S
H229 C220 0.929 . S
H230 C223 0.930 . S
C231 C232 1.351 . S
C231 N234 1.368 . S
C231 H236 0.931 . S
C232 C231 1.351 . S
C232 N233 1.373 . S
C232 H260 0.930 . S
N233 C232 1.373 . S
N233 C235 1.340 . S
N234 C231 1.368 . S
N234 C235 1.321 . S
N234 Co237 2.135 . S
C235 N233 1.340 . S
C235 N234 1.321 . S
C235 H259 0.930 . S
H236 C231 0.931 . S
Co237 N234 2.135 . S
Co237 N240 2.121 . S
Co237 O245 2.055 . S
Co237 O248 2.039 . S
Co237 N251 2.140 . S
C238 O239 1.227 . S
C238 O248 1.265 . S
O239 C238 1.227 . S
N240 Co237 2.121 . S
N240 C242 1.375 . S
N240 C243 1.313 . S
C241 C242 1.338 . S
C241 N244 1.377 . S
C241 H261 0.930 . S
C242 N240 1.375 . S
C242 C241 1.338 . S
C242 H246 0.931 . S
C243 N240 1.313 . S
C243 N244 1.344 . S
C243 H247 0.930 . S
N244 C241 1.377 . S
N244 C243 1.344 . S
O245 Co237 2.055 . S
O245 C249 1.253 . S
H246 C242 0.931 . S
H247 C243 0.930 . S
O248 Co237 2.039 . S
O248 C238 1.265 . S
C249 O245 1.253 . S
C249 O250 1.227 . S
O250 C249 1.227 . S
N251 Co237 2.140 . S
N251 C254 1.346 . S
N251 C255 1.345 . S
C252 C253 1.387 . S
C252 C256 1.391 . S
C253 C252 1.387 . S
C253 C254 1.369 . S
C253 H262 0.929 . S
C254 N251 1.346 . S
C254 C253 1.369 . S
C254 H257 0.928 . S
C255 N251 1.345 . S
C255 C256 1.371 . S
C255 H258 0.931 . S
C256 C252 1.391 . S
C256 C255 1.371 . S
C256 H263 0.930 . S
H257 C254 0.928 . S
H258 C255 0.931 . S
H259 C235 0.930 . S
H260 C232 0.930 . S
H261 C241 0.930 . S
H262 C253 0.929 . S
H263 C256 0.930 . S
C264 C265 1.351 . S
C264 N267 1.368 . S
C264 H269 0.931 . S
C265 C264 1.351 . S
C265 N266 1.373 . S
C265 H293 0.930 . S
N266 C265 1.373 . S
N266 C268 1.340 . S
N267 C264 1.368 . S
N267 C268 1.321 . S
N267 Co270 2.135 . S
C268 N266 1.340 . S
C268 N267 1.321 . S
C268 H292 0.930 . S
H269 C264 0.931 . S
Co270 N267 2.135 . S
Co270 N273 2.121 . S
Co270 O278 2.055 . S
Co270 O281 2.039 . S
Co270 N284 2.140 . S
C271 O272 1.227 . S
C271 O281 1.265 . S
O272 C271 1.227 . S
N273 Co270 2.121 . S
N273 C275 1.375 . S
N273 C276 1.313 . S
C274 C275 1.338 . S
C274 N277 1.377 . S
C274 H294 0.930 . S
C275 N273 1.375 . S
C275 C274 1.338 . S
C275 H279 0.931 . S
C276 N273 1.313 . S
C276 N277 1.344 . S
C276 H280 0.930 . S
N277 C274 1.377 . S
N277 C276 1.344 . S
O278 Co270 2.055 . S
O278 C282 1.253 . S
H279 C275 0.931 . S
H280 C276 0.930 . S
O281 Co270 2.039 . S
O281 C271 1.265 . S
C282 O278 1.253 . S
C282 O283 1.227 . S
O283 C282 1.227 . S
N284 Co270 2.140 . S
N284 C287 1.346 . S
N284 C288 1.345 . S
C285 C286 1.387 . S
C285 C289 1.391 . S
C286 C285 1.387 . S
C286 C287 1.369 . S
C286 H295 0.929 . S
C287 N284 1.346 . S
C287 C286 1.369 . S
C287 H290 0.928 . S
C288 N284 1.345 . S
C288 C289 1.371 . S
C288 H291 0.931 . S
C289 C285 1.391 . S
C289 C288 1.371 . S
C289 H296 0.930 . S
H290 C287 0.928 . S
H291 C288 0.931 . S
H292 C268 0.930 . S
H293 C265 0.930 . S
H294 C274 0.930 . S
H295 C286 0.929 . S
H296 C289 0.930 . S
C297 C298 1.351 . S
C297 N300 1.368 . S
C297 H302 0.931 . S
C298 C297 1.351 . S
C298 N299 1.373 . S
C298 H326 0.930 . S
N299 C298 1.373 . S
N299 C301 1.340 . S
N300 C297 1.368 . S
N300 C301 1.321 . S
N300 Co303 2.135 . S
C301 N299 1.340 . S
C301 N300 1.321 . S
C301 H325 0.930 . S
H302 C297 0.931 . S
Co303 N300 2.135 . S
Co303 N306 2.121 . S
Co303 O311 2.055 . S
Co303 O314 2.039 . S
Co303 N317 2.140 . S
C304 O305 1.227 . S
C304 O314 1.265 . S
O305 C304 1.227 . S
N306 Co303 2.121 . S
N306 C308 1.375 . S
N306 C309 1.313 . S
C307 C308 1.338 . S
C307 N310 1.377 . S
C307 H327 0.930 . S
C308 N306 1.375 . S
C308 C307 1.338 . S
C308 H312 0.931 . S
C309 N306 1.313 . S
C309 N310 1.344 . S
C309 H313 0.930 . S
N310 C307 1.377 . S
N310 C309 1.344 . S
O311 Co303 2.055 . S
O311 C315 1.253 . S
H312 C308 0.931 . S
H313 C309 0.930 . S
O314 Co303 2.039 . S
O314 C304 1.265 . S
C315 O311 1.253 . S
C315 O316 1.227 . S
O316 C315 1.227 . S
N317 Co303 2.140 . S
N317 C320 1.346 . S
N317 C321 1.345 . S
C318 C319 1.387 . S
C318 C322 1.391 . S
C319 C318 1.387 . S
C319 C320 1.369 . S
C319 H328 0.929 . S
C320 N317 1.346 . S
C320 C319 1.369 . S
C320 H323 0.928 . S
C321 N317 1.345 . S
C321 C322 1.371 . S
C321 H324 0.931 . S
C322 C318 1.391 . S
C322 C321 1.371 . S
C322 H329 0.930 . S
H323 C320 0.928 . S
H324 C321 0.931 . S
H325 C301 0.930 . S
H326 C298 0.930 . S
H327 C307 0.930 . S
H328 C319 0.929 . S
H329 C322 0.930 . S
C330 C331 1.351 . S
C330 N333 1.368 . S
C330 H335 0.931 . S
C331 C330 1.351 . S
C331 N332 1.373 . S
C331 H359 0.930 . S
N332 C331 1.373 . S
N332 C334 1.340 . S
N333 C330 1.368 . S
N333 C334 1.321 . S
N333 Co336 2.135 . S
C334 N332 1.340 . S
C334 N333 1.321 . S
C334 H358 0.930 . S
H335 C330 0.931 . S
Co336 N333 2.135 . S
Co336 N339 2.121 . S
Co336 O344 2.055 . S
Co336 O347 2.039 . S
Co336 N350 2.140 . S
C337 O338 1.227 . S
C337 O347 1.265 . S
O338 C337 1.227 . S
N339 Co336 2.121 . S
N339 C341 1.375 . S
N339 C342 1.313 . S
C340 C341 1.338 . S
C340 N343 1.377 . S
C340 H360 0.930 . S
C341 N339 1.375 . S
C341 C340 1.338 . S
C341 H345 0.931 . S
C342 N339 1.313 . S
C342 N343 1.344 . S
C342 H346 0.930 . S
N343 C340 1.377 . S
N343 C342 1.344 . S
O344 Co336 2.055 . S
O344 C348 1.253 . S
H345 C341 0.931 . S
H346 C342 0.930 . S
O347 Co336 2.039 . S
O347 C337 1.265 . S
C348 O344 1.253 . S
C348 O349 1.227 . S
O349 C348 1.227 . S
N350 Co336 2.140 . S
N350 C353 1.346 . S
N350 C354 1.345 . S
C351 C352 1.387 . S
C351 C355 1.391 . S
C352 C351 1.387 . S
C352 C353 1.369 . S
C352 H361 0.929 . S
C353 N350 1.346 . S
C353 C352 1.369 . S
C353 H356 0.928 . S
C354 N350 1.345 . S
C354 C355 1.371 . S
C354 H357 0.931 . S
C355 C351 1.391 . S
C355 C354 1.371 . S
C355 H362 0.930 . S
H356 C353 0.928 . S
H357 C354 0.931 . S
H358 C334 0.930 . S
H359 C331 0.930 . S
H360 C340 0.930 . S
H361 C352 0.929 . S
H362 C355 0.930 . S
C363 C364 1.351 . S
C363 N366 1.368 . S
C363 H368 0.931 . S
C364 C363 1.351 . S
C364 N365 1.373 . S
C364 H392 0.930 . S
N365 C364 1.373 . S
N365 C367 1.340 . S
N366 C363 1.368 . S
N366 C367 1.321 . S
N366 Co369 2.135 . S
C367 N365 1.340 . S
C367 N366 1.321 . S
C367 H391 0.930 . S
H368 C363 0.931 . S
Co369 N366 2.135 . S
Co369 N372 2.121 . S
Co369 O377 2.055 . S
Co369 O380 2.039 . S
Co369 N383 2.140 . S
C370 O371 1.227 . S
C370 O380 1.265 . S
O371 C370 1.227 . S
N372 Co369 2.121 . S
N372 C374 1.375 . S
N372 C375 1.313 . S
C373 C374 1.338 . S
C373 N376 1.377 . S
C373 H393 0.930 . S
C374 N372 1.375 . S
C374 C373 1.338 . S
C374 H378 0.931 . S
C375 N372 1.313 . S
C375 N376 1.344 . S
C375 H379 0.930 . S
N376 C373 1.377 . S
N376 C375 1.344 . S
O377 Co369 2.055 . S
O377 C381 1.253 . S
H378 C374 0.931 . S
H379 C375 0.930 . S
O380 Co369 2.039 . S
O380 C370 1.265 . S
C381 O377 1.253 . S
C381 O382 1.227 . S
O382 C381 1.227 . S
N383 Co369 2.140 . S
N383 C386 1.346 . S
N383 C387 1.345 . S
C384 C385 1.387 . S
C384 C388 1.391 . S
C385 C384 1.387 . S
C385 C386 1.369 . S
C385 H394 0.929 . S
C386 N383 1.346 . S
C386 C385 1.369 . S
C386 H389 0.928 . S
C387 N383 1.345 . S
C387 C388 1.371 . S
C387 H390 0.931 . S
C388 C384 1.391 . S
C388 C387 1.371 . S
C388 H395 0.930 . S
H389 C386 0.928 . S
H390 C387 0.931 . S
H391 C367 0.930 . S
H392 C364 0.930 . S
H393 C373 0.930 . S
H394 C385 0.929 . S
H395 C388 0.930 . S
C396 C397 1.351 . S
C396 N399 1.368 . S
C396 H401 0.931 . S
C397 C396 1.351 . S
C397 N398 1.373 . S
C397 H425 0.930 . S
N398 C397 1.373 . S
N398 C400 1.340 . S
N399 C396 1.368 . S
N399 C400 1.321 . S
N399 Co402 2.135 . S
C400 N398 1.340 . S
C400 N399 1.321 . S
C400 H424 0.930 . S
H401 C396 0.931 . S
Co402 N399 2.135 . S
Co402 N405 2.121 . S
Co402 O410 2.055 . S
Co402 O413 2.039 . S
Co402 N416 2.140 . S
C403 O404 1.227 . S
C403 O413 1.265 . S
O404 C403 1.227 . S
N405 Co402 2.121 . S
N405 C407 1.375 . S
N405 C408 1.313 . S
C406 C407 1.338 . S
C406 N409 1.377 . S
C406 H426 0.930 . S
C407 N405 1.375 . S
C407 C406 1.338 . S
C407 H411 0.931 . S
C408 N405 1.313 . S
C408 N409 1.344 . S
C408 H412 0.930 . S
N409 C406 1.377 . S
N409 C408 1.344 . S
O410 Co402 2.055 . S
O410 C414 1.253 . S
H411 C407 0.931 . S
H412 C408 0.930 . S
O413 Co402 2.039 . S
O413 C403 1.265 . S
C414 O410 1.253 . S
C414 O415 1.227 . S
O415 C414 1.227 . S
N416 Co402 2.140 . S
N416 C419 1.346 . S
N416 C420 1.345 . S
C417 C418 1.387 . S
C417 C421 1.391 . S
C418 C417 1.387 . S
C418 C419 1.369 . S
C418 H427 0.929 . S
C419 N416 1.346 . S
C419 C418 1.369 . S
C419 H422 0.928 . S
C420 N416 1.345 . S
C420 C421 1.371 . S
C420 H423 0.931 . S
C421 C417 1.391 . S
C421 C420 1.371 . S
C421 H428 0.930 . S
H422 C419 0.928 . S
H423 C420 0.931 . S
H424 C400 0.930 . S
H425 C397 0.930 . S
H426 C406 0.930 . S
H427 C418 0.929 . S
H428 C421 0.930 . S
C429 C430 1.351 . S
C429 N432 1.368 . S
C429 H434 0.931 . S
C430 C429 1.351 . S
C430 N431 1.373 . S
C430 H458 0.930 . S
N431 C430 1.373 . S
N431 C433 1.340 . S
N432 C429 1.368 . S
N432 C433 1.321 . S
N432 Co435 2.135 . S
C433 N431 1.340 . S
C433 N432 1.321 . S
C433 H457 0.930 . S
H434 C429 0.931 . S
Co435 N432 2.135 . S
Co435 N438 2.121 . S
Co435 O443 2.055 . S
Co435 O446 2.039 . S
Co435 N449 2.140 . S
C436 O437 1.227 . S
C436 O446 1.265 . S
O437 C436 1.227 . S
N438 Co435 2.121 . S
N438 C440 1.375 . S
N438 C441 1.313 . S
C439 C440 1.338 . S
C439 N442 1.377 . S
C439 H459 0.930 . S
C440 N438 1.375 . S
C440 C439 1.338 . S
C440 H444 0.931 . S
C441 N438 1.313 . S
C441 N442 1.344 . S
C441 H445 0.930 . S
N442 C439 1.377 . S
N442 C441 1.344 . S
O443 Co435 2.055 . S
O443 C447 1.253 . S
H444 C440 0.931 . S
H445 C441 0.930 . S
O446 Co435 2.039 . S
O446 C436 1.265 . S
C447 O443 1.253 . S
C447 O448 1.227 . S
O448 C447 1.227 . S
N449 Co435 2.140 . S
N449 C452 1.346 . S
N449 C453 1.345 . S
C450 C451 1.387 . S
C450 C454 1.391 . S
C451 C450 1.387 . S
C451 C452 1.369 . S
C451 H460 0.929 . S
C452 N449 1.346 . S
C452 C451 1.369 . S
C452 H455 0.928 . S
C453 N449 1.345 . S
C453 C454 1.371 . S
C453 H456 0.931 . S
C454 C450 1.391 . S
C454 C453 1.371 . S
C454 H461 0.930 . S
H455 C452 0.928 . S
H456 C453 0.931 . S
H457 C433 0.930 . S
H458 C430 0.930 . S
H459 C439 0.930 . S
H460 C451 0.929 . S
H461 C454 0.930 . S
C462 C463 1.351 . S
C462 N465 1.368 . S
C462 H467 0.931 . S
C463 C462 1.351 . S
C463 N464 1.373 . S
C463 H491 0.930 . S
N464 C463 1.373 . S
N464 C466 1.340 . S
N465 C462 1.368 . S
N465 C466 1.321 . S
N465 Co468 2.135 . S
C466 N464 1.340 . S
C466 N465 1.321 . S
C466 H490 0.930 . S
H467 C462 0.931 . S
Co468 N465 2.135 . S
Co468 N471 2.121 . S
Co468 O476 2.055 . S
Co468 O479 2.039 . S
Co468 N482 2.140 . S
C469 O470 1.227 . S
C469 O479 1.265 . S
O470 C469 1.227 . S
N471 Co468 2.121 . S
N471 C473 1.375 . S
N471 C474 1.313 . S
C472 C473 1.338 . S
C472 N475 1.377 . S
C472 H492 0.930 . S
C473 N471 1.375 . S
C473 C472 1.338 . S
C473 H477 0.931 . S
C474 N471 1.313 . S
C474 N475 1.344 . S
C474 H478 0.930 . S
N475 C472 1.377 . S
N475 C474 1.344 . S
O476 Co468 2.055 . S
O476 C480 1.253 . S
H477 C473 0.931 . S
H478 C474 0.930 . S
O479 Co468 2.039 . S
O479 C469 1.265 . S
C480 O476 1.253 . S
C480 O481 1.227 . S
O481 C480 1.227 . S
N482 Co468 2.140 . S
N482 C485 1.346 . S
N482 C486 1.345 . S
C483 C484 1.387 . S
C483 C487 1.391 . S
C484 C483 1.387 . S
C484 C485 1.369 . S
C484 H493 0.929 . S
C485 N482 1.346 . S
C485 C484 1.369 . S
C485 H488 0.928 . S
C486 N482 1.345 . S
C486 C487 1.371 . S
C486 H489 0.931 . S
C487 C483 1.391 . S
C487 C486 1.371 . S
C487 H494 0.930 . S
H488 C485 0.928 . S
H489 C486 0.931 . S
H490 C466 0.930 . S
H491 C463 0.930 . S
H492 C472 0.930 . S
H493 C484 0.929 . S
H494 C487 0.930 . S
C495 C496 1.351 . S
C495 N498 1.368 . S
C495 H500 0.931 . S
C496 C495 1.351 . S
C496 N497 1.373 . S
C496 H524 0.930 . S
N497 C496 1.373 . S
N497 C499 1.340 . S
N498 C495 1.368 . S
N498 C499 1.321 . S
N498 Co501 2.135 . S
C499 N497 1.340 . S
C499 N498 1.321 . S
C499 H523 0.930 . S
H500 C495 0.931 . S
Co501 N498 2.135 . S
Co501 N504 2.121 . S
Co501 O509 2.055 . S
Co501 O512 2.039 . S
Co501 N515 2.140 . S
C502 O503 1.227 . S
C502 O512 1.265 . S
O503 C502 1.227 . S
N504 Co501 2.121 . S
N504 C506 1.375 . S
N504 C507 1.313 . S
C505 C506 1.338 . S
C505 N508 1.377 . S
C505 H525 0.930 . S
C506 N504 1.375 . S
C506 C505 1.338 . S
C506 H510 0.931 . S
C507 N504 1.313 . S
C507 N508 1.344 . S
C507 H511 0.930 . S
N508 C505 1.377 . S
N508 C507 1.344 . S
O509 Co501 2.055 . S
O509 C513 1.253 . S
H510 C506 0.931 . S
H511 C507 0.930 . S
O512 Co501 2.039 . S
O512 C502 1.265 . S
C513 O509 1.253 . S
C513 O514 1.227 . S
O514 C513 1.227 . S
N515 Co501 2.140 . S
N515 C518 1.346 . S
N515 C519 1.345 . S
C516 C517 1.387 . S
C516 C520 1.391 . S
C517 C516 1.387 . S
C517 C518 1.369 . S
C517 H526 0.929 . S
C518 N515 1.346 . S
C518 C517 1.369 . S
C518 H521 0.928 . S
C519 N515 1.345 . S
C519 C520 1.371 . S
C519 H522 0.931 . S
C520 C516 1.391 . S
C520 C519 1.371 . S
C520 H527 0.930 . S
H521 C518 0.928 . S
H522 C519 0.931 . S
H523 C499 0.930 . S
H524 C496 0.930 . S
H525 C505 0.930 . S
H526 C517 0.929 . S
H527 C520 0.930 . S
H528 C536 0.929 . S
H529 C538 0.930 . S
H530 C540 0.930 . S
H531 C543 0.929 . S
H532 C546 0.930 . S
H533 C548 0.960 . S
H534 C548 0.960 . S
H535 C548 0.960 . S
C536 H528 0.929 . S
C536 C537 1.377 . S
C536 C538 1.384 . S
C537 C536 1.377 . S
C537 C543 1.390 . S
C538 H529 0.930 . S
C538 C536 1.384 . S
C538 C539 1.372 . S
C539 C538 1.372 . S
C539 C540 1.400 . S
C539 C544 1.490 . S
C540 H530 0.930 . S
C540 C539 1.400 . S
C540 C543 1.386 . S
H541 C557 0.930 . S
H542 C558 0.931 . S
C543 H531 0.929 . S
C543 C537 1.390 . S
C543 C540 1.386 . S
C544 C539 1.490 . S
C544 C546 1.395 . S
C544 C547 1.403 . S
H545 C551 0.930 . S
C546 H532 0.930 . S
C546 C544 1.395 . S
C546 C549 1.403 . S
C547 C544 1.403 . S
C547 C548 1.524 . S
C547 C551 1.400 . S
C548 H533 0.960 . S
C548 H534 0.960 . S
C548 H535 0.960 . S
C548 C547 1.524 . S
C549 C546 1.403 . S
C549 C550 1.392 . S
C549 C553 1.495 . S
C550 C549 1.392 . S
C550 C551 1.385 . S
C550 C552 1.478 . S
C551 H545 0.930 . S
C551 C547 1.400 . S
C551 C550 1.385 . S
C552 C550 1.478 . S
C552 C554 1.381 . S
C552 C558 1.383 . S
C553 C549 1.495 . S
C553 H559 0.959 . S
C553 H560 0.961 . S
C553 H561 0.960 . S
C554 C552 1.381 . S
C554 C555 1.394 . S
C554 H562 0.930 . S
C555 C554 1.394 . S
C555 C556 1.383 . S
C555 H563 0.929 . S
C556 C555 1.383 . S
C556 C557 1.377 . S
C557 H541 0.930 . S
C557 C556 1.377 . S
C557 C558 1.379 . S
C558 H542 0.931 . S
C558 C552 1.383 . S
C558 C557 1.379 . S
H559 C553 0.959 . S
H560 C553 0.961 . S
H561 C553 0.960 . S
H562 C554 0.930 . S
H563 C555 0.929 . S
H564 C572 0.929 . S
H565 C574 0.930 . S
H566 C576 0.930 . S
H567 C579 0.929 . S
H568 C582 0.929 . S
H569 C584 0.960 . S
H570 C584 0.960 . S
H571 C584 0.960 . S
C572 H564 0.929 . S
C572 C573 1.377 . S
C572 C574 1.384 . S
C573 C572 1.377 . S
C573 C579 1.390 . S
C574 H565 0.930 . S
C574 C572 1.384 . S
C574 C575 1.372 . S
C575 C574 1.372 . S
C575 C576 1.400 . S
C575 C580 1.490 . S
C576 H566 0.930 . S
C576 C575 1.400 . S
C576 C579 1.386 . S
H577 C593 0.930 . S
H578 C594 0.931 1_545 S
C579 H567 0.929 . S
C579 C573 1.390 . S
C579 C576 1.386 . S
C580 C575 1.490 . S
C580 C582 1.395 . S
C580 C583 1.403 1_655 S
H581 C587 0.930 . S
C582 H568 0.929 . S
C582 C580 1.395 . S
C582 C585 1.403 1_545 S
C583 C580 1.403 1_455 S
C583 C584 1.524 . S
C583 C587 1.400 . S
C584 H569 0.960 . S
C584 H570 0.960 . S
C584 H571 0.960 . S
C584 C583 1.524 . S
C585 C582 1.403 1_565 S
C585 C586 1.392 1_655 S
C585 C589 1.495 . S
C586 C585 1.392 1_455 S
C586 C587 1.385 1_565 S
C586 C588 1.478 . S
C587 H581 0.930 . S
C587 C583 1.400 . S
C587 C586 1.385 1_545 S
C588 C586 1.478 . S
C588 C590 1.381 . S
C588 C594 1.383 . S
C589 C585 1.495 . S
C589 H595 0.959 . S
C589 H596 0.961 . S
C589 H597 0.960 . S
C590 C588 1.381 . S
C590 C591 1.394 . S
C590 H598 0.930 . S
C591 C590 1.394 . S
C591 C592 1.383 . S
C591 H599 0.929 . S
C592 C591 1.383 . S
C592 C593 1.377 . S
C593 H577 0.930 . S
C593 C592 1.377 . S
C593 C594 1.379 . S
C594 H578 0.931 1_565 S
C594 C588 1.383 . S
C594 C593 1.379 . S
H595 C589 0.959 . S
H596 C589 0.961 . S
H597 C589 0.960 . S
H598 C590 0.930 . S
H599 C591 0.929 . S
H600 C608 0.929 . S
H601 C610 0.930 . S
H602 C612 0.930 . S
H603 C615 0.929 . S
H604 C618 0.930 . S
H605 C620 0.960 . S
H606 C620 0.960 . S
H607 C620 0.960 . S
C608 H600 0.929 . S
C608 C609 1.377 . S
C608 C610 1.384 . S
C609 C608 1.377 . S
C609 C615 1.390 . S
C610 H601 0.930 . S
C610 C608 1.384 . S
C610 C611 1.372 . S
C611 C610 1.372 . S
C611 C612 1.400 . S
C611 C616 1.490 . S
C612 H602 0.930 . S
C612 C611 1.400 . S
C612 C615 1.386 . S
H613 C629 0.930 . S
H614 C630 0.931 . S
C615 H603 0.929 . S
C615 C609 1.390 . S
C615 C612 1.386 . S
C616 C611 1.490 . S
C616 C618 1.395 . S
C616 C619 1.403 . S
H617 C623 0.930 . S
C618 H604 0.930 . S
C618 C616 1.395 . S
C618 C621 1.403 . S
C619 C616 1.403 . S
C619 C620 1.524 . S
C619 C623 1.400 . S
C620 H605 0.960 . S
C620 H606 0.960 . S
C620 H607 0.960 . S
C620 C619 1.524 . S
C621 C618 1.403 . S
C621 C622 1.392 . S
C621 C625 1.495 . S
C622 C621 1.392 . S
C622 C623 1.385 . S
C622 C624 1.478 . S
C623 H617 0.930 . S
C623 C619 1.400 . S
C623 C622 1.385 . S
C624 C622 1.478 . S
C624 C626 1.381 . S
C624 C630 1.383 . S
C625 C621 1.495 . S
C625 H631 0.959 . S
C625 H632 0.961 . S
C625 H633 0.960 . S
C626 C624 1.381 . S
C626 C627 1.394 . S
C626 H634 0.930 . S
C627 C626 1.394 . S
C627 C628 1.383 . S
C627 H635 0.929 . S
C628 C627 1.383 . S
C628 C629 1.377 . S
C629 H613 0.930 . S
C629 C628 1.377 . S
C629 C630 1.379 . S
C630 H614 0.931 . S
C630 C624 1.383 . S
C630 C629 1.379 . S
H631 C625 0.959 . S
H632 C625 0.961 . S
H633 C625 0.960 . S
H634 C626 0.930 . S
H635 C627 0.929 . S
H636 C644 0.929 . S
H637 C646 0.930 1_565 S
H638 C648 0.930 . S
H639 C651 0.929 . S
H640 C654 0.930 . S
H641 C656 0.960 . S
H642 C656 0.960 . S
H643 C656 0.960 . S
C644 H636 0.929 . S
C644 C645 1.377 . S
C644 C646 1.384 . S
C645 C644 1.377 . S
C645 C651 1.390 . S
C646 H637 0.930 1_545 S
C646 C644 1.384 . S
C646 C647 1.372 . S
C647 C646 1.372 . S
C647 C648 1.400 . S
C647 C652 1.477 1_545 S
C648 H638 0.930 . S
C648 C647 1.400 . S
C648 C651 1.386 . S
H649 C665 0.930 . S
H650 C666 0.931 . S
C651 H639 0.929 . S
C651 C645 1.390 . S
C651 C648 1.386 . S
C652 C647 1.477 1_565 S
C652 C654 1.418 . S
C652 C655 1.393 1_566 S
H653 C659 0.930 1_545 S
C654 H640 0.930 . S
C654 C652 1.418 . S
C654 C657 1.380 1_556 S
C655 C652 1.393 1_544 S
C655 C656 1.524 . S
C655 C659 1.400 1_545 S
C656 H641 0.960 . S
C656 H642 0.960 . S
C656 H643 0.960 . S
C656 C655 1.524 . S
C657 C654 1.380 1_554 S
C657 C658 1.429 . S
C657 C661 1.483 1_554 S
C658 C657 1.429 . S
C658 C659 1.385 . S
C658 C660 1.478 . S
C659 H653 0.930 1_565 S
C659 C655 1.400 1_565 S
C659 C658 1.385 . S
C660 C658 1.478 . S
C660 C662 1.381 . S
C660 C666 1.383 . S
C661 C657 1.483 1_556 S
C661 H667 0.959 . S
C661 H668 0.961 . S
C661 H669 0.960 1_556 S
C662 C660 1.381 . S
C662 C663 1.394 . S
C662 H670 0.930 . S
C663 C662 1.394 . S
C663 C664 1.383 . S
C663 H671 0.929 . S
C664 C663 1.383 . S
C664 C665 1.377 . S
C665 H649 0.930 . S
C665 C664 1.377 . S
C665 C666 1.379 . S
C666 H650 0.931 . S
C666 C660 1.383 . S
C666 C665 1.379 . S
H667 C661 0.959 . S
H668 C661 0.961 . S
H669 C661 0.960 1_554 S
H670 C662 0.930 . S
H671 C663 0.929 . S
H672 C680 0.929 . S
H673 C682 0.930 . S
H674 C684 0.930 . S
H675 C687 0.929 . S
H676 C690 0.930 . S
H677 C692 0.960 . S
H678 C692 0.960 . S
H679 C692 0.960 . S
C680 H672 0.929 . S
C680 C681 1.377 . S
C680 C682 1.384 . S
C681 C680 1.377 . S
C681 C687 1.390 . S
C682 H673 0.930 . S
C682 C680 1.384 . S
C682 C683 1.372 . S
C683 C682 1.372 . S
C683 C684 1.400 . S
C683 C688 1.490 . S
C684 H674 0.930 . S
C684 C683 1.400 . S
C684 C687 1.386 . S
H685 C701 0.930 . S
H686 C702 0.931 . S
C687 H675 0.929 . S
C687 C681 1.390 . S
C687 C684 1.386 . S
C688 C683 1.490 . S
C688 C690 1.395 . S
C688 C691 1.403 . S
H689 C695 0.930 . S
C690 H676 0.930 . S
C690 C688 1.395 . S
C690 C693 1.403 . S
C691 C688 1.403 . S
C691 C692 1.524 . S
C691 C695 1.400 . S
C692 H677 0.960 . S
C692 H678 0.960 . S
C692 H679 0.960 . S
C692 C691 1.524 . S
C693 C690 1.403 . S
C693 C694 1.392 . S
C693 C697 1.495 . S
C694 C693 1.392 . S
C694 C695 1.385 . S
C694 C696 1.478 . S
C695 H689 0.930 . S
C695 C691 1.400 . S
C695 C694 1.385 . S
C696 C694 1.478 . S
C696 C698 1.381 . S
C696 C702 1.383 . S
C697 C693 1.495 . S
C697 H703 0.959 . S
C697 H704 0.961 . S
C697 H705 0.960 . S
C698 C696 1.381 . S
C698 C699 1.394 . S
C698 H706 0.930 . S
C699 C698 1.394 . S
C699 C700 1.383 . S
C699 H707 0.929 . S
C700 C699 1.383 . S
C700 C701 1.377 . S
C701 H685 0.930 . S
C701 C700 1.377 . S
C701 C702 1.379 . S
C702 H686 0.931 . S
C702 C696 1.383 . S
C702 C701 1.379 . S
H703 C697 0.959 . S
H704 C697 0.961 . S
H705 C697 0.960 . S
H706 C698 0.930 . S
H707 C699 0.929 . S
H708 C716 0.929 . S
H709 C718 0.930 . S
H710 C720 0.930 . S
H711 C723 0.929 . S
H712 C726 0.930 . S
H713 C728 0.960 . S
H714 C728 0.960 . S
H715 C728 0.960 . S
C716 H708 0.929 . S
C716 C717 1.377 . S
C716 C718 1.384 . S
C717 C716 1.377 . S
C717 C723 1.390 . S
C718 H709 0.930 . S
C718 C716 1.384 . S
C718 C719 1.372 . S
C719 C718 1.372 . S
C719 C720 1.400 . S
C719 C724 1.490 . S
C720 H710 0.930 . S
C720 C719 1.400 . S
C720 C723 1.386 . S
H721 C737 0.930 . S
H722 C738 0.902 1_565 S
C723 H711 0.929 . S
C723 C717 1.390 . S
C723 C720 1.386 . S
C724 C719 1.490 . S
C724 C726 1.395 . S
C724 C727 1.403 . S
H725 C731 0.930 . S
C726 H712 0.930 . S
C726 C724 1.395 . S
C726 C729 1.403 1_565 S
C727 C724 1.403 . S
C727 C728 1.524 . S
C727 C731 1.400 . S
C728 H713 0.960 . S
C728 H714 0.960 . S
C728 H715 0.960 . S
C728 C727 1.524 . S
C729 C726 1.403 1_545 S
C729 C730 1.392 . S
C729 C733 1.495 . S
C730 C729 1.392 . S
C730 C731 1.385 1_545 S
C730 C732 1.478 . S
C731 H725 0.930 . S
C731 C727 1.400 . S
C731 C730 1.385 1_565 S
C732 C730 1.478 . S
C732 C734 1.381 . S
C732 C738 1.383 . S
C733 C729 1.495 . S
C733 H739 0.959 . S
C733 H740 0.961 . S
C733 H741 0.960 . S
C734 C732 1.381 . S
C734 C735 1.394 . S
C734 H742 0.930 . S
C735 C734 1.394 . S
C735 C736 1.383 . S
C735 H743 0.929 . S
C736 C735 1.383 . S
C736 C737 1.377 . S
C737 H721 0.930 . S
C737 C736 1.377 . S
C737 C738 1.379 . S
C738 H722 0.902 1_545 S
C738 C732 1.383 . S
C738 C737 1.379 . S
H739 C733 0.959 . S
H740 C733 0.961 . S
H741 C733 0.960 . S
H742 C734 0.930 . S
H743 C735 0.929 . S
H744 C752 0.929 . S
H745 C754 0.930 . S
H746 C756 0.930 . S
H747 C759 0.929 . S
H748 C762 0.930 . S
H749 C764 0.960 . S
H750 C764 0.960 . S
H751 C764 0.960 . S
C752 H744 0.929 . S
C752 C753 1.377 . S
C752 C754 1.384 . S
C753 C752 1.377 . S
C753 C759 1.390 . S
C754 H745 0.930 . S
C754 C752 1.384 . S
C754 C755 1.372 . S
C755 C754 1.372 . S
C755 C756 1.400 . S
C755 C760 1.490 . S
C756 H746 0.930 . S
C756 C755 1.400 . S
C756 C759 1.386 . S
H757 C773 0.930 . S
H758 C774 0.931 . S
C759 H747 0.929 . S
C759 C753 1.390 . S
C759 C756 1.386 . S
C760 C755 1.490 . S
C760 C762 1.395 . S
C760 C763 1.403 . S
H761 C767 0.930 . S
C762 H748 0.930 . S
C762 C760 1.395 . S
C762 C765 1.403 . S
C763 C760 1.403 . S
C763 C764 1.524 . S
C763 C767 1.400 . S
C764 H749 0.960 . S
C764 H750 0.960 . S
C764 H751 0.960 . S
C764 C763 1.524 . S
C765 C762 1.403 . S
C765 C766 1.392 . S
C765 C769 1.495 . S
C766 C765 1.392 . S
C766 C767 1.385 . S
C766 C768 1.478 . S
C767 H761 0.930 . S
C767 C763 1.400 . S
C767 C766 1.385 . S
C768 C766 1.478 . S
C768 C770 1.381 . S
C768 C774 1.383 . S
C769 C765 1.495 . S
C769 H775 0.959 . S
C769 H776 0.961 . S
C769 H777 0.960 . S
C770 C768 1.381 . S
C770 C771 1.394 . S
C770 H778 0.930 . S
C771 C770 1.394 . S
C771 C772 1.383 . S
C771 H779 0.929 . S
C772 C771 1.383 . S
C772 C773 1.377 . S
C773 H757 0.930 . S
C773 C772 1.377 . S
C773 C774 1.379 . S
C774 H758 0.931 . S
C774 C768 1.383 . S
C774 C773 1.379 . S
H775 C769 0.959 . S
H776 C769 0.961 . S
H777 C769 0.960 . S
H778 C770 0.930 . S
H779 C771 0.929 . S
H780 C788 0.929 . S
H781 C790 0.930 . S
H782 C792 0.930 1_556 S
H783 C795 0.929 . S
H784 C798 0.930 . S
H785 C800 0.960 . S
H786 C800 0.973 . S
H787 C800 0.960 . S
C788 H780 0.929 . S
C788 C789 1.377 . S
C788 C790 1.384 . S
C789 C788 1.377 . S
C789 C795 1.390 . S
C790 H781 0.930 . S
C790 C788 1.384 . S
C790 C791 1.372 . S
C791 C790 1.372 . S
C791 C792 1.400 . S
C791 C796 1.490 . S
C792 H782 0.930 1_554 S
C792 C791 1.400 . S
C792 C795 1.386 . S
H793 C809 0.930 . S
H794 C810 0.931 1_545 S
C795 H783 0.929 . S
C795 C789 1.390 . S
C795 C792 1.386 . S
C796 C791 1.490 . S
C796 C798 1.395 1_455 S
C796 C799 1.403 1_554 S
H797 C803 0.930 1_565 S
C798 H784 0.930 . S
C798 C796 1.395 1_655 S
C798 C801 1.403 . S
C799 C796 1.403 1_556 S
C799 C800 1.524 . S
C799 C803 1.400 1_455 S
C800 H785 0.960 . S
C800 H786 0.973 . S
C800 H787 0.960 . S
C800 C799 1.524 . S
C801 C798 1.403 . S
C801 C802 1.392 1_554 S
C801 C805 1.495 . S
C802 C801 1.392 1_556 S
C802 C803 1.385 . S
C802 C804 1.478 1_545 S
C803 H797 0.930 1_545 S
C803 C799 1.400 1_655 S
C803 C802 1.385 . S
C804 C802 1.478 1_565 S
C804 C806 1.381 . S
C804 C810 1.383 . S
C805 C801 1.495 . S
C805 H811 0.959 . S
C805 H812 0.961 1_554 S
C805 H813 0.960 . S
C806 C804 1.381 . S
C806 C807 1.394 . S
C806 H814 0.930 . S
C807 C806 1.394 . S
C807 C808 1.383 . S
C807 H815 0.929 . S
C808 C807 1.383 . S
C808 C809 1.377 . S
C809 H793 0.930 . S
C809 C808 1.377 . S
C809 C810 1.379 . S
C810 H794 0.931 1_565 S
C810 C804 1.383 . S
C810 C809 1.379 . S
H811 C805 0.959 . S
H812 C805 0.961 1_556 S
H813 C805 0.960 . S
H814 C806 0.930 . S
H815 C807 0.929 . S
H816 C824 0.929 . S
H817 C826 0.930 . S
H818 C828 0.930 . S
H819 C831 0.929 . S
H820 C834 0.930 . S
H821 C836 0.960 . S
H822 C836 0.960 . S
H823 C836 0.960 . S
C824 H816 0.929 . S
C824 C825 1.377 . S
C824 C826 1.384 . S
C825 C824 1.377 . S
C825 C831 1.390 . S
C826 H817 0.930 . S
C826 C824 1.384 . S
C826 C827 1.372 . S
C827 C826 1.372 . S
C827 C828 1.400 . S
C827 C832 1.490 . S
C828 H818 0.930 . S
C828 C827 1.400 . S
C828 C831 1.386 . S
H829 C845 0.930 . S
H830 C846 0.931 . S
C831 H819 0.929 . S
C831 C825 1.390 . S
C831 C828 1.386 . S
C832 C827 1.490 . S
C832 C834 1.395 . S
C832 C835 1.403 . S
H833 C839 0.930 . S
C834 H820 0.930 . S
C834 C832 1.395 . S
C834 C837 1.403 . S
C835 C832 1.403 . S
C835 C836 1.524 . S
C835 C839 1.400 . S
C836 H821 0.960 . S
C836 H822 0.960 . S
C836 H823 0.960 . S
C836 C835 1.524 . S
C837 C834 1.403 . S
C837 C838 1.392 . S
C837 C841 1.495 . S
C838 C837 1.392 . S
C838 C839 1.385 . S
C838 C840 1.478 . S
C839 H833 0.930 . S
C839 C835 1.400 . S
C839 C838 1.385 . S
C840 C838 1.478 . S
C840 C842 1.381 . S
C840 C846 1.383 . S
C841 C837 1.495 . S
C841 H847 0.959 . S
C841 H848 0.961 . S
C841 H849 0.960 . S
C842 C840 1.381 . S
C842 C843 1.394 . S
C842 H850 0.930 . S
C843 C842 1.394 . S
C843 C844 1.383 . S
C843 H851 0.929 . S
C844 C843 1.383 . S
C844 C845 1.377 . S
C845 H829 0.930 . S
C845 C844 1.377 . S
C845 C846 1.379 . S
C846 H830 0.931 . S
C846 C840 1.383 . S
C846 C845 1.379 . S
H847 C841 0.959 . S
H848 C841 0.961 . S
H849 C841 0.960 . S
H850 C842 0.930 . S
H851 C843 0.929 . S
H852 C860 0.929 . S
H853 C862 0.930 . S
H854 C864 0.930 . S
H855 C867 0.929 . S
H856 C870 0.930 . S
H857 C872 0.960 . S
H858 C872 0.960 . S
H859 C872 0.960 . S
C860 H852 0.929 . S
C860 C861 1.377 . S
C860 C862 1.384 . S
C861 C860 1.377 . S
C861 C867 1.390 . S
C862 H853 0.930 . S
C862 C860 1.384 . S
C862 C863 1.372 . S
C863 C862 1.372 . S
C863 C864 1.400 . S
C863 C868 1.490 . S
C864 H854 0.930 . S
C864 C863 1.400 . S
C864 C867 1.386 . S
H865 C881 0.930 . S
H866 C882 0.968 . S
C867 H855 0.929 . S
C867 C861 1.390 . S
C867 C864 1.386 . S
C868 C863 1.490 . S
C868 C870 1.395 . S
C868 C871 1.403 1_556 S
H869 C875 0.930 . S
C870 H856 0.930 . S
C870 C868 1.395 . S
C870 C873 1.380 1_455 S
C871 C868 1.403 1_554 S
C871 C872 1.524 . S
C871 C875 1.400 . S
C872 H857 0.960 . S
C872 H858 0.960 . S
C872 H859 0.960 . S
C872 C871 1.524 . S
C873 C870 1.380 1_655 S
C873 C874 1.385 1_656 S
C873 C877 1.525 . S
C874 C873 1.385 1_454 S
C874 C875 1.385 . S
C874 C876 1.478 1_455 S
C875 H869 0.930 . S
C875 C871 1.400 . S
C875 C874 1.385 . S
C876 C874 1.478 1_655 S
C876 C878 1.381 . S
C876 C882 1.366 1_655 S
C877 C873 1.525 . S
C877 H883 0.959 . S
C877 H884 0.961 . S
C877 H885 0.960 . S
C878 C876 1.381 . S
C878 C879 1.394 . S
C878 H886 0.930 . S
C879 C878 1.394 . S
C879 C880 1.383 . S
C879 H887 0.929 . S
C880 C879 1.383 . S
C880 C881 1.377 . S
C881 H865 0.930 . S
C881 C880 1.377 . S
C881 C882 1.361 1_655 S
C882 H866 0.968 . S
C882 C876 1.366 1_455 S
C882 C881 1.361 1_455 S
H883 C877 0.959 . S
H884 C877 0.961 . S
H885 C877 0.960 . S
H886 C878 0.930 . S
H887 C879 0.929 . S
H888 C896 0.929 . S
H889 C898 0.930 . S
H890 C900 0.930 . S
H891 C903 0.929 . S
H892 C906 0.930 . S
H893 C908 0.960 . S
H894 C908 0.960 . S
H895 C908 0.960 . S
C896 H888 0.929 . S
C896 C897 1.377 . S
C896 C898 1.384 . S
C897 C896 1.377 . S
C897 C903 1.390 . S
C898 H889 0.930 . S
C898 C896 1.384 . S
C898 C899 1.372 . S
C899 C898 1.372 . S
C899 C900 1.400 . S
C899 C904 1.490 . S
C900 H890 0.930 . S
C900 C899 1.400 . S
C900 C903 1.386 . S
H901 C917 0.930 . S
H902 C918 0.931 . S
C903 H891 0.929 . S
C903 C897 1.390 . S
C903 C900 1.386 . S
C904 C899 1.490 . S
C904 C906 1.395 . S
C904 C907 1.403 . S
H905 C911 0.930 . S
C906 H892 0.930 . S
C906 C904 1.395 . S
C906 C909 1.403 . S
C907 C904 1.403 . S
C907 C908 1.524 . S
C907 C911 1.400 . S
C908 H893 0.960 . S
C908 H894 0.960 . S
C908 H895 0.960 . S
C908 C907 1.524 . S
C909 C906 1.403 . S
C909 C910 1.392 . S
C909 C913 1.495 . S
C910 C909 1.392 . S
C910 C911 1.385 . S
C910 C912 1.478 . S
C911 H905 0.930 . S
C911 C907 1.400 . S
C911 C910 1.385 . S
C912 C910 1.478 . S
C912 C914 1.381 . S
C912 C918 1.383 . S
C913 C909 1.495 . S
C913 H919 0.959 . S
C913 H920 0.961 . S
C913 H921 0.960 . S
C914 C912 1.381 . S
C914 C915 1.394 . S
C914 H922 0.930 . S
C915 C914 1.394 . S
C915 C916 1.383 . S
C915 H923 0.929 . S
C916 C915 1.383 . S
C916 C917 1.377 . S
C917 H901 0.930 . S
C917 C916 1.377 . S
C917 C918 1.379 . S
C918 H902 0.931 . S
C918 C912 1.383 . S
C918 C917 1.379 . S
H919 C913 0.959 . S
H920 C913 0.961 . S
H921 C913 0.960 . S
H922 C914 0.930 . S
H923 C915 0.929 . S
H924 C932 0.929 . S
H925 C934 0.930 . S
H926 C936 0.930 . S
H927 C939 0.929 . S
H928 C942 0.926 1_455 S
H929 C944 0.960 . S
H930 C944 0.960 . S
H931 C944 0.960 . S
C932 H924 0.929 . S
C932 C933 1.377 . S
C932 C934 1.384 . S
C933 C932 1.377 . S
C933 C939 1.390 . S
C934 H925 0.930 . S
C934 C932 1.384 . S
C934 C935 1.372 . S
C935 C934 1.372 . S
C935 C936 1.400 . S
C935 C940 1.490 . S
C936 H926 0.930 . S
C936 C935 1.400 . S
C936 C939 1.386 . S
H937 C953 0.930 . S
H938 C954 0.931 . S
C939 H927 0.929 . S
C939 C933 1.390 . S
C939 C936 1.386 . S
C940 C935 1.490 . S
C940 C942 1.395 . S
C940 C943 1.403 . S
H941 C947 0.930 . S
C942 H928 0.926 1_655 S
C942 C940 1.395 . S
C942 C945 1.403 1_655 S
C943 C940 1.403 . S
C943 C944 1.524 . S
C943 C947 1.400 . S
C944 H929 0.960 . S
C944 H930 0.960 . S
C944 H931 0.960 . S
C944 C943 1.524 . S
C945 C942 1.403 1_455 S
C945 C946 1.392 . S
C945 C949 1.495 . S
C946 C945 1.392 . S
C946 C947 1.385 1_455 S
C946 C948 1.478 . S
C947 H941 0.930 . S
C947 C943 1.400 . S
C947 C946 1.385 1_655 S
C948 C946 1.478 . S
C948 C950 1.381 . S
C948 C954 1.383 . S
C949 C945 1.495 . S
C949 H955 0.959 . S
C949 H956 0.961 . S
C949 H957 0.960 . S
C950 C948 1.381 . S
C950 C951 1.394 . S
C950 H958 0.930 . S
C951 C950 1.394 . S
C951 C952 1.383 . S
C951 H959 0.929 . S
C952 C951 1.383 . S
C952 C953 1.377 . S
C953 H937 0.930 . S
C953 C952 1.377 . S
C953 C954 1.379 . S
C954 H938 0.931 . S
C954 C948 1.383 . S
C954 C953 1.379 . S
H955 C949 0.959 . S
H956 C949 0.961 . S
H957 C949 0.960 . S
H958 C950 0.930 . S
H959 C951 0.929 . S
H960 C968 0.929 . S
H961 C970 0.930 . S
H962 C972 0.930 . S
H963 C975 0.929 . S
H964 C978 0.930 . S
H965 C980 0.960 . S
H966 C980 0.960 . S
H967 C980 0.960 . S
C968 H960 0.929 . S
C968 C969 1.377 . S
C968 C970 1.384 . S
C969 C968 1.377 . S
C969 C975 1.390 . S
C970 H961 0.930 . S
C970 C968 1.384 . S
C970 C971 1.372 . S
C971 C970 1.372 . S
C971 C972 1.400 . S
C971 C976 1.490 . S
C972 H962 0.930 . S
C972 C971 1.400 . S
C972 C975 1.386 . S
H973 C989 0.930 . S
H974 C990 0.931 . S
C975 H963 0.929 . S
C975 C969 1.390 . S
C975 C972 1.386 . S
C976 C971 1.490 . S
C976 C978 1.395 1_556 S
C976 C979 1.403 . S
H977 C983 0.930 . S
C978 H964 0.930 . S
C978 C976 1.395 1_554 S
C978 C981 1.403 . S
C979 C976 1.403 . S
C979 C980 1.524 . S
C979 C983 1.400 . S
C980 H965 0.960 . S
C980 H966 0.960 . S
C980 H967 0.960 . S
C980 C979 1.524 . S
C981 C978 1.403 . S
C981 C982 1.392 . S
C981 C985 1.495 . S
C982 C981 1.392 . S
C982 C983 1.385 1_554 S
C982 C984 1.478 . S
C983 H977 0.930 . S
C983 C979 1.400 . S
C983 C982 1.385 1_556 S
C984 C982 1.478 . S
C984 C986 1.381 . S
C984 C990 1.383 . S
C985 C981 1.495 . S
C985 H991 0.959 . S
C985 H992 0.961 . S
C985 H993 0.960 . S
C986 C984 1.381 . S
C986 C987 1.394 . S
C986 H994 0.930 . S
C987 C986 1.394 . S
C987 C988 1.383 . S
C987 H995 0.929 . S
C988 C987 1.383 . S
C988 C989 1.377 . S
C989 H973 0.930 . S
C989 C988 1.377 . S
C989 C990 1.379 . S
C990 H974 0.931 . S
C990 C984 1.383 . S
C990 C989 1.379 . S
H991 C985 0.959 . S
H992 C985 0.961 . S
H993 C985 0.960 . S
H994 C986 0.930 . S
H995 C987 0.929 . S
H996 C1004 0.929 . S
H997 C1006 0.930 . S
H998 C1008 0.930 . S
H999 C1011 0.929 . S
H1000 C1014 0.930 . S
H1001 C1016 0.960 . S
H1002 C1016 0.960 . S
H1003 C1016 0.960 . S
C1004 H996 0.929 . S
C1004 C1005 1.377 . S
C1004 C1006 1.384 . S
C1005 C1004 1.377 . S
C1005 C1011 1.390 . S
C1006 H997 0.930 . S
C1006 C1004 1.384 . S
C1006 C1007 1.372 . S
C1007 C1006 1.372 . S
C1007 C1008 1.400 . S
C1007 C1012 1.490 . S
C1008 H998 0.930 . S
C1008 C1007 1.400 . S
C1008 C1011 1.386 . S
H1009 C1025 0.930 . S
H1010 C1026 0.931 . S
C1011 H999 0.929 . S
C1011 C1005 1.390 . S
C1011 C1008 1.386 . S
C1012 C1007 1.490 . S
C1012 C1014 1.395 . S
C1012 C1015 1.403 . S
H1013 C1019 0.930 . S
C1014 H1000 0.930 . S
C1014 C1012 1.395 . S
C1014 C1017 1.403 . S
C1015 C1012 1.403 . S
C1015 C1016 1.524 . S
C1015 C1019 1.400 . S
C1016 H1001 0.960 . S
C1016 H1002 0.960 . S
C1016 H1003 0.960 . S
C1016 C1015 1.524 . S
C1017 C1014 1.403 . S
C1017 C1018 1.392 . S
C1017 C1021 1.495 . S
C1018 C1017 1.392 . S
C1018 C1019 1.385 . S
C1018 C1020 1.478 . S
C1019 H1013 0.930 . S
C1019 C1015 1.400 . S
C1019 C1018 1.385 . S
C1020 C1018 1.478 . S
C1020 C1022 1.381 . S
C1020 C1026 1.383 . S
C1021 C1017 1.495 . S
C1021 H1027 0.959 . S
C1021 H1028 0.961 . S
C1021 H1029 0.960 . S
C1022 C1020 1.381 . S
C1022 C1023 1.394 . S
C1022 H1030 0.930 . S
C1023 C1022 1.394 . S
C1023 C1024 1.383 . S
C1023 H1031 0.929 . S
C1024 C1023 1.383 . S
C1024 C1025 1.377 . S
C1025 H1009 0.930 . S
C1025 C1024 1.377 . S
C1025 C1026 1.379 . S
C1026 H1010 0.931 . S
C1026 C1020 1.383 . S
C1026 C1025 1.379 . S
H1027 C1021 0.959 . S
H1028 C1021 0.961 . S
H1029 C1021 0.960 . S
H1030 C1022 0.930 . S
H1031 C1023 0.929 . S
H1032 C1040 0.929 . S
H1033 C1042 0.930 . S
H1034 C1044 0.930 . S
H1035 C1047 0.929 . S
H1036 C1050 0.930 . S
H1037 C1052 0.960 . S
H1038 C1052 0.960 . S
H1039 C1052 0.960 . S
C1040 H1032 0.929 . S
C1040 C1041 1.377 . S
C1040 C1042 1.384 . S
C1041 C1040 1.377 . S
C1041 C1047 1.390 . S
C1042 H1033 0.930 . S
C1042 C1040 1.384 . S
C1042 C1043 1.372 . S
C1043 C1042 1.372 . S
C1043 C1044 1.400 . S
C1043 C1048 1.490 . S
C1044 H1034 0.930 . S
C1044 C1043 1.400 . S
C1044 C1047 1.386 . S
H1045 C1061 0.930 . S
H1046 C1062 0.931 . S
C1047 H1035 0.929 . S
C1047 C1041 1.390 . S
C1047 C1044 1.386 . S
C1048 C1043 1.490 . S
C1048 C1050 1.395 . S
C1048 C1051 1.403 . S
H1049 C1055 0.930 . S
C1050 H1036 0.930 . S
C1050 C1048 1.395 . S
C1050 C1053 1.403 . S
C1051 C1048 1.403 . S
C1051 C1052 1.524 . S
C1051 C1055 1.400 . S
C1052 H1037 0.960 . S
C1052 H1038 0.960 . S
C1052 H1039 0.960 . S
C1052 C1051 1.524 . S
C1053 C1050 1.403 . S
C1053 C1054 1.392 . S
C1053 C1057 1.495 . S
C1054 C1053 1.392 . S
C1054 C1055 1.385 . S
C1054 C1056 1.478 . S
C1055 H1049 0.930 . S
C1055 C1051 1.400 . S
C1055 C1054 1.385 . S
C1056 C1054 1.478 . S
C1056 C1058 1.381 . S
C1056 C1062 1.383 . S
C1057 C1053 1.495 . S
C1057 H1063 0.959 . S
C1057 H1064 0.961 . S
C1057 H1065 0.960 . S
C1058 C1056 1.381 . S
C1058 C1059 1.394 . S
C1058 H1066 0.930 . S
C1059 C1058 1.394 . S
C1059 C1060 1.383 . S
C1059 H1067 0.929 . S
C1060 C1059 1.383 . S
C1060 C1061 1.377 . S
C1061 H1045 0.930 . S
C1061 C1060 1.377 . S
C1061 C1062 1.379 . S
C1062 H1046 0.931 . S
C1062 C1056 1.383 . S
C1062 C1061 1.379 . S
H1063 C1057 0.959 . S
H1064 C1057 0.961 . S
H1065 C1057 0.960 . S
H1066 C1058 0.930 . S
H1067 C1059 0.929 . S
H1068 C1076 0.929 . S
H1069 C1078 0.930 . S
H1070 C1080 0.930 . S
H1071 C1083 0.929 . S
H1072 C1086 0.930 . S
H1073 C1088 0.960 . S
H1074 C1088 0.960 . S
H1075 C1088 0.960 . S
C1076 H1068 0.929 . S
C1076 C1077 1.377 . S
C1076 C1078 1.384 . S
C1077 C1076 1.377 . S
C1077 C1083 1.390 . S
C1078 H1069 0.930 . S
C1078 C1076 1.384 . S
C1078 C1079 1.372 . S
C1079 C1078 1.372 . S
C1079 C1080 1.400 . S
C1079 C1084 1.490 . S
C1080 H1070 0.930 . S
C1080 C1079 1.400 . S
C1080 C1083 1.386 . S
H1081 C1097 0.930 . S
H1082 C1098 0.931 . S
C1083 H1071 0.929 . S
C1083 C1077 1.390 . S
C1083 C1080 1.386 . S
C1084 C1079 1.490 . S
C1084 C1086 1.395 . S
C1084 C1087 1.403 . S
H1085 C1091 0.930 . S
C1086 H1072 0.930 . S
C1086 C1084 1.395 . S
C1086 C1089 1.403 . S
C1087 C1084 1.403 . S
C1087 C1088 1.524 . S
C1087 C1091 1.400 . S
C1088 H1073 0.960 . S
C1088 H1074 0.960 . S
C1088 H1075 0.960 . S
C1088 C1087 1.524 . S
C1089 C1086 1.403 . S
C1089 C1090 1.392 . S
C1089 C1093 1.495 . S
C1090 C1089 1.392 . S
C1090 C1091 1.385 . S
C1090 C1092 1.478 . S
C1091 H1085 0.930 . S
C1091 C1087 1.400 . S
C1091 C1090 1.385 . S
C1092 C1090 1.478 . S
C1092 C1094 1.381 . S
C1092 C1098 1.383 . S
C1093 C1089 1.495 . S
C1093 H1099 0.959 . S
C1093 H1100 0.961 . S
C1093 H1101 0.960 . S
C1094 C1092 1.381 . S
C1094 C1095 1.394 . S
C1094 H1102 0.930 . S
C1095 C1094 1.394 . S
C1095 C1096 1.383 . S
C1095 H1103 0.929 . S
C1096 C1095 1.383 . S
C1096 C1097 1.377 . S
C1097 H1081 0.930 . S
C1097 C1096 1.377 . S
C1097 C1098 1.379 . S
C1098 H1082 0.931 . S
C1098 C1092 1.383 . S
C1098 C1097 1.379 . S
H1099 C1093 0.959 . S
H1100 C1093 0.961 . S
H1101 C1093 0.960 . S
H1102 C1094 0.930 . S
H1103 C1095 0.929 . S
H1104 C1112 0.929 . S
H1105 C1114 0.930 . S
H1106 C1116 0.930 . S
H1107 C1119 0.929 . S
H1108 C1122 0.930 . S
H1109 C1124 0.960 1_565 S
H1110 C1124 0.960 . S
H1111 C1124 0.960 . S
C1112 H1104 0.929 . S
C1112 C1113 1.377 . S
C1112 C1114 1.384 . S
C1113 C1112 1.377 . S
C1113 C1119 1.390 . S
C1114 H1105 0.930 . S
C1114 C1112 1.384 . S
C1114 C1115 1.372 . S
C1115 C1114 1.372 . S
C1115 C1116 1.400 . S
C1115 C1120 1.490 . S
C1116 H1106 0.930 . S
C1116 C1115 1.400 . S
C1116 C1119 1.386 . S
H1117 C1133 0.930 . S
H1118 C1134 0.931 . S
C1119 H1107 0.929 . S
C1119 C1113 1.390 . S
C1119 C1116 1.386 . S
C1120 C1115 1.490 . S
C1120 C1122 1.395 . S
C1120 C1123 1.403 . S
H1121 C1127 0.930 . S
C1122 H1108 0.930 . S
C1122 C1120 1.395 . S
C1122 C1125 1.403 . S
C1123 C1120 1.403 . S
C1123 C1124 1.524 . S
C1123 C1127 1.400 1_545 S
C1124 H1109 0.960 1_545 S
C1124 H1110 0.960 . S
C1124 H1111 0.960 . S
C1124 C1123 1.524 . S
C1125 C1122 1.403 . S
C1125 C1126 1.392 1_545 S
C1125 C1129 1.495 . S
C1126 C1125 1.392 1_565 S
C1126 C1127 1.385 . S
C1126 C1128 1.478 . S
C1127 H1121 0.930 . S
C1127 C1123 1.400 1_565 S
C1127 C1126 1.385 . S
C1128 C1126 1.478 . S
C1128 C1130 1.381 . S
C1128 C1134 1.383 . S
C1129 C1125 1.495 . S
C1129 H1135 0.959 . S
C1129 H1136 0.961 1_545 S
C1129 H1137 0.960 . S
C1130 C1128 1.381 . S
C1130 C1131 1.394 . S
C1130 H1138 0.930 . S
C1131 C1130 1.394 . S
C1131 C1132 1.383 . S
C1131 H1139 0.929 . S
C1132 C1131 1.383 . S
C1132 C1133 1.377 . S
C1133 H1117 0.930 . S
C1133 C1132 1.377 . S
C1133 C1134 1.379 . S
C1134 H1118 0.931 . S
C1134 C1128 1.383 . S
C1134 C1133 1.379 . S
H1135 C1129 0.959 . S
H1136 C1129 0.961 1_565 S
H1137 C1129 0.960 . S
H1138 C1130 0.930 . S
H1139 C1131 0.929 . S
H1140 C1148 0.929 . S
H1141 C1150 0.930 . S
H1142 C1152 0.930 . S
H1143 C1155 0.929 . S
H1144 C1158 0.930 . S
H1145 C1160 0.960 . S
H1146 C1160 0.960 . S
H1147 C1160 0.960 . S
C1148 H1140 0.929 . S
C1148 C1149 1.377 . S
C1148 C1150 1.384 . S
C1149 C1148 1.377 . S
C1149 C1155 1.390 . S
C1150 H1141 0.930 . S
C1150 C1148 1.384 . S
C1150 C1151 1.372 . S
C1151 C1150 1.372 . S
C1151 C1152 1.400 . S
C1151 C1156 1.490 . S
C1152 H1142 0.930 . S
C1152 C1151 1.400 . S
C1152 C1155 1.386 . S
H1153 C1169 0.930 . S
H1154 C1170 0.931 . S
C1155 H1143 0.929 . S
C1155 C1149 1.390 . S
C1155 C1152 1.386 . S
C1156 C1151 1.490 . S
C1156 C1158 1.395 . S
C1156 C1159 1.403 . S
H1157 C1163 0.930 . S
C1158 H1144 0.930 . S
C1158 C1156 1.395 . S
C1158 C1161 1.403 . S
C1159 C1156 1.403 . S
C1159 C1160 1.524 . S
C1159 C1163 1.400 . S
C1160 H1145 0.960 . S
C1160 H1146 0.960 . S
C1160 H1147 0.960 . S
C1160 C1159 1.524 . S
C1161 C1158 1.403 . S
C1161 C1162 1.392 . S
C1161 C1165 1.495 . S
C1162 C1161 1.392 . S
C1162 C1163 1.385 . S
C1162 C1164 1.478 . S
C1163 H1157 0.930 . S
C1163 C1159 1.400 . S
C1163 C1162 1.385 . S
C1164 C1162 1.478 . S
C1164 C1166 1.381 . S
C1164 C1170 1.383 . S
C1165 C1161 1.495 . S
C1165 H1171 0.959 . S
C1165 H1172 0.961 . S
C1165 H1173 0.960 . S
C1166 C1164 1.381 . S
C1166 C1167 1.394 . S
C1166 H1174 0.930 . S
C1167 C1166 1.394 . S
C1167 C1168 1.383 . S
C1167 H1175 0.929 . S
C1168 C1167 1.383 . S
C1168 C1169 1.377 . S
C1169 H1153 0.930 . S
C1169 C1168 1.377 . S
C1169 C1170 1.379 . S
C1170 H1154 0.931 . S
C1170 C1164 1.383 . S
C1170 C1169 1.379 . S
H1171 C1165 0.959 . S
H1172 C1165 0.961 . S
H1173 C1165 0.960 . S
H1174 C1166 0.930 . S
H1175 C1167 0.929 . S
H1176 C1184 0.929 . S
H1177 C1186 0.930 . S
H1178 C1188 0.930 . S
H1179 C1191 0.929 . S
H1180 C1194 0.930 . S
H1181 C1196 0.960 . S
H1182 C1196 0.960 . S
H1183 C1196 0.960 . S
C1184 H1176 0.929 . S
C1184 C1185 1.377 . S
C1184 C1186 1.384 . S
C1185 C1184 1.377 . S
C1185 C1191 1.390 . S
C1186 H1177 0.930 . S
C1186 C1184 1.384 . S
C1186 C1187 1.372 . S
C1187 C1186 1.372 . S
C1187 C1188 1.400 . S
C1187 C1192 1.490 . S
C1188 H1178 0.930 . S
C1188 C1187 1.400 . S
C1188 C1191 1.386 . S
H1189 C1205 0.930 . S
H1190 C1206 0.931 . S
C1191 H1179 0.929 . S
C1191 C1185 1.390 . S
C1191 C1188 1.386 . S
C1192 C1187 1.490 . S
C1192 C1194 1.395 . S
C1192 C1195 1.403 . S
H1193 C1199 0.926 1_545 S
C1194 H1180 0.930 . S
C1194 C1192 1.395 . S
C1194 C1197 1.403 . S
C1195 C1192 1.403 . S
C1195 C1196 1.524 . S
C1195 C1199 1.404 . S
C1196 H1181 0.960 . S
C1196 H1182 0.960 . S
C1196 H1183 0.960 . S
C1196 C1195 1.524 . S
C1197 C1194 1.403 . S
C1197 C1198 1.392 1_565 S
C1197 C1201 1.495 . S
C1198 C1197 1.392 1_545 S
C1198 C1199 1.385 1_545 S
C1198 C1200 1.478 . S
C1199 H1193 0.926 1_565 S
C1199 C1195 1.404 . S
C1199 C1198 1.385 1_565 S
C1200 C1198 1.478 . S
C1200 C1202 1.381 . S
C1200 C1206 1.383 . S
C1201 C1197 1.495 . S
C1201 H1207 0.959 . S
C1201 H1208 0.961 1_565 S
C1201 H1209 0.960 . S
C1202 C1200 1.381 . S
C1202 C1203 1.394 . S
C1202 H1210 0.930 1_545 S
C1203 C1202 1.394 . S
C1203 C1204 1.383 . S
C1203 H1211 0.929 . S
C1204 C1203 1.383 . S
C1204 C1205 1.377 . S
C1205 H1189 0.930 . S
C1205 C1204 1.377 . S
C1205 C1206 1.379 . S
C1206 H1190 0.931 . S
C1206 C1200 1.383 . S
C1206 C1205 1.379 . S
H1207 C1201 0.959 . S
H1208 C1201 0.961 1_545 S
H1209 C1201 0.960 . S
H1210 C1202 0.930 1_565 S
H1211 C1203 0.929 . S
H1212 C1220 0.929 . S
H1213 C1222 0.930 . S
H1214 C1224 0.930 . S
H1215 C1227 0.929 . S
H1216 C1230 0.930 . S
H1217 C1232 0.960 . S
H1218 C1232 0.960 . S
H1219 C1232 0.960 . S
C1220 H1212 0.929 . S
C1220 C1221 1.377 . S
C1220 C1222 1.384 . S
C1221 C1220 1.377 . S
C1221 C1227 1.390 . S
C1222 H1213 0.930 . S
C1222 C1220 1.384 . S
C1222 C1223 1.372 . S
C1223 C1222 1.372 . S
C1223 C1224 1.400 . S
C1223 C1228 1.490 . S
C1224 H1214 0.930 . S
C1224 C1223 1.400 . S
C1224 C1227 1.386 . S
H1225 C1241 0.930 . S
H1226 C1242 0.931 . S
C1227 H1215 0.929 . S
C1227 C1221 1.390 . S
C1227 C1224 1.386 . S
C1228 C1223 1.490 . S
C1228 C1230 1.395 1_556 S
C1228 C1231 1.403 . S
H1229 C1235 0.930 . S
C1230 H1216 0.930 . S
C1230 C1228 1.395 1_554 S
C1230 C1233 1.403 . S
C1231 C1228 1.403 . S
C1231 C1232 1.524 . S
C1231 C1235 1.400 . S
C1232 H1217 0.960 . S
C1232 H1218 0.960 . S
C1232 H1219 0.960 . S
C1232 C1231 1.524 . S
C1233 C1230 1.403 . S
C1233 C1234 1.392 . S
C1233 C1237 1.495 . S
C1234 C1233 1.392 . S
C1234 C1235 1.385 1_554 S
C1234 C1236 1.478 . S
C1235 H1229 0.930 . S
C1235 C1231 1.400 . S
C1235 C1234 1.385 1_556 S
C1236 C1234 1.478 . S
C1236 C1238 1.381 . S
C1236 C1242 1.383 . S
C1237 C1233 1.495 . S
C1237 H1243 0.959 . S
C1237 H1244 0.961 . S
C1237 H1245 0.960 . S
C1238 C1236 1.381 . S
C1238 C1239 1.394 . S
C1238 H1246 0.930 . S
C1239 C1238 1.394 . S
C1239 C1240 1.383 . S
C1239 H1247 0.929 . S
C1240 C1239 1.383 . S
C1240 C1241 1.377 . S
C1241 H1225 0.930 . S
C1241 C1240 1.377 . S
C1241 C1242 1.379 . S
C1242 H1226 0.931 . S
C1242 C1236 1.383 . S
C1242 C1241 1.379 . S
H1243 C1237 0.959 . S
H1244 C1237 0.961 . S
H1245 C1237 0.960 . S
H1246 C1238 0.930 . S
H1247 C1239 0.929 . S
H1248 C1256 0.929 . S
H1249 C1258 0.930 . S
H1250 C1260 0.930 . S
H1251 C1263 0.929 . S
H1252 C1266 0.930 . S
H1253 C1268 0.960 . S
H1254 C1268 0.960 . S
H1255 C1268 0.960 . S
C1256 H1248 0.929 . S
C1256 C1257 1.377 . S
C1256 C1258 1.384 . S
C1257 C1256 1.377 . S
C1257 C1263 1.390 . S
C1258 H1249 0.930 . S
C1258 C1256 1.384 . S
C1258 C1259 1.372 . S
C1259 C1258 1.372 . S
C1259 C1260 1.400 . S
C1259 C1264 1.490 . S
C1260 H1250 0.930 . S
C1260 C1259 1.400 . S
C1260 C1263 1.386 . S
H1261 C1277 0.930 . S
H1262 C1278 0.931 . S
C1263 H1251 0.929 . S
C1263 C1257 1.390 . S
C1263 C1260 1.386 . S
C1264 C1259 1.490 . S
C1264 C1266 1.395 1_455 S
C1264 C1267 1.403 . S
H1265 C1271 0.930 . S
C1266 H1252 0.930 . S
C1266 C1264 1.395 1_655 S
C1266 C1269 1.403 . S
C1267 C1264 1.403 . S
C1267 C1268 1.524 . S
C1267 C1271 1.400 . S
C1268 H1253 0.960 . S
C1268 H1254 0.960 . S
C1268 H1255 0.960 . S
C1268 C1267 1.524 . S
C1269 C1266 1.403 . S
C1269 C1270 1.392 . S
C1269 C1273 1.495 . S
C1270 C1269 1.392 . S
C1270 C1271 1.385 1_655 S
C1270 C1272 1.478 . S
C1271 H1265 0.930 . S
C1271 C1267 1.400 . S
C1271 C1270 1.385 1_455 S
C1272 C1270 1.478 . S
C1272 C1274 1.381 . S
C1272 C1278 1.383 . S
C1273 C1269 1.495 . S
C1273 H1279 0.959 . S
C1273 H1280 0.961 . S
C1273 H1281 0.960 . S
C1274 C1272 1.381 . S
C1274 C1275 1.394 . S
C1274 H1282 0.930 . S
C1275 C1274 1.394 . S
C1275 C1276 1.383 . S
C1275 H1283 0.929 . S
C1276 C1275 1.383 . S
C1276 C1277 1.377 . S
C1277 H1261 0.930 . S
C1277 C1276 1.377 . S
C1277 C1278 1.379 . S
C1278 H1262 0.931 . S
C1278 C1272 1.383 . S
C1278 C1277 1.379 . S
H1279 C1273 0.959 . S
H1280 C1273 0.961 . S
H1281 C1273 0.960 . S
H1282 C1274 0.930 . S
H1283 C1275 0.929 . S
H1284 C1292 0.929 . S
H1285 C1294 0.930 . S
H1286 C1296 0.930 . S
H1287 C1299 0.929 . S
H1288 C1302 0.930 . S
H1289 C1304 0.960 . S
H1290 C1304 0.960 . S
H1291 C1304 0.960 . S
C1292 H1284 0.929 . S
C1292 C1293 1.377 . S
C1292 C1294 1.384 . S
C1293 C1292 1.377 . S
C1293 C1299 1.390 . S
C1294 H1285 0.930 . S
C1294 C1292 1.384 . S
C1294 C1295 1.372 . S
C1295 C1294 1.372 . S
C1295 C1296 1.400 . S
C1295 C1300 1.490 . S
C1296 H1286 0.930 . S
C1296 C1295 1.400 . S
C1296 C1299 1.386 . S
H1297 C1313 0.930 . S
H1298 C1314 0.931 . S
C1299 H1287 0.929 . S
C1299 C1293 1.390 . S
C1299 C1296 1.386 . S
C1300 C1295 1.490 . S
C1300 C1302 1.395 . S
C1300 C1303 1.403 . S
H1301 C1307 0.930 . S
C1302 H1288 0.930 . S
C1302 C1300 1.395 . S
C1302 C1305 1.403 . S
C1303 C1300 1.403 . S
C1303 C1304 1.524 . S
C1303 C1307 1.400 . S
C1304 H1289 0.960 . S
C1304 H1290 0.960 . S
C1304 H1291 0.960 . S
C1304 C1303 1.524 . S
C1305 C1302 1.403 . S
C1305 C1306 1.392 . S
C1305 C1309 1.495 . S
C1306 C1305 1.392 . S
C1306 C1307 1.385 . S
C1306 C1308 1.478 . S
C1307 H1301 0.930 . S
C1307 C1303 1.400 . S
C1307 C1306 1.385 . S
C1308 C1306 1.478 . S
C1308 C1310 1.381 . S
C1308 C1314 1.383 . S
C1309 C1305 1.495 . S
C1309 H1315 0.959 . S
C1309 H1316 0.961 . S
C1309 H1317 0.960 . S
C1310 C1308 1.381 . S
C1310 C1311 1.394 . S
C1310 H1318 0.930 . S
C1311 C1310 1.394 . S
C1311 C1312 1.383 . S
C1311 H1319 0.929 . S
C1312 C1311 1.383 . S
C1312 C1313 1.377 . S
C1313 H1297 0.930 . S
C1313 C1312 1.377 . S
C1313 C1314 1.379 . S
C1314 H1298 0.931 . S
C1314 C1308 1.383 . S
C1314 C1313 1.379 . S
H1315 C1309 0.959 . S
H1316 C1309 0.961 . S
H1317 C1309 0.960 . S
H1318 C1310 0.930 . S
H1319 C1311 0.929 . S
H1320 C1328 0.929 . S
H1321 C1330 0.930 . S
H1322 C1332 0.930 . S
H1323 C1335 0.929 . S
H1324 C1338 0.930 . S
H1325 C1340 0.960 . S
H1326 C1340 0.960 1_655 S
H1327 C1340 0.960 . S
C1328 H1320 0.929 . S
C1328 C1329 1.377 . S
C1328 C1330 1.384 . S
C1329 C1328 1.377 . S
C1329 C1335 1.390 . S
C1330 H1321 0.930 . S
C1330 C1328 1.384 . S
C1330 C1331 1.372 . S
C1331 C1330 1.372 . S
C1331 C1332 1.400 . S
C1331 C1336 1.490 . S
C1332 H1322 0.930 . S
C1332 C1331 1.400 . S
C1332 C1335 1.386 . S
H1333 C1349 0.930 . S
H1334 C1350 0.931 . S
C1335 H1323 0.929 . S
C1335 C1329 1.390 . S
C1335 C1332 1.386 . S
C1336 C1331 1.490 . S
C1336 C1338 1.395 . S
C1336 C1339 1.403 . S
H1337 C1343 0.930 . S
C1338 H1324 0.930 . S
C1338 C1336 1.395 . S
C1338 C1341 1.403 . S
C1339 C1336 1.403 . S
C1339 C1340 1.524 1_655 S
C1339 C1343 1.400 1_655 S
C1340 H1325 0.960 . S
C1340 H1326 0.960 1_455 S
C1340 H1327 0.960 . S
C1340 C1339 1.524 1_455 S
C1341 C1338 1.403 . S
C1341 C1342 1.392 1_655 S
C1341 C1345 1.495 . S
C1342 C1341 1.392 1_455 S
C1342 C1343 1.385 . S
C1342 C1344 1.478 . S
C1343 H1337 0.930 . S
C1343 C1339 1.400 1_455 S
C1343 C1342 1.385 . S
C1344 C1342 1.478 . S
C1344 C1346 1.381 . S
C1344 C1350 1.383 . S
C1345 C1341 1.495 . S
C1345 H1351 0.959 . S
C1345 H1352 0.961 . S
C1345 H1353 0.960 . S
C1346 C1344 1.381 . S
C1346 C1347 1.394 . S
C1346 H1354 0.930 . S
C1347 C1346 1.394 . S
C1347 C1348 1.383 . S
C1347 H1355 0.929 . S
C1348 C1347 1.383 . S
C1348 C1349 1.377 . S
C1349 H1333 0.930 . S
C1349 C1348 1.377 . S
C1349 C1350 1.379 . S
C1350 H1334 0.931 . S
C1350 C1344 1.383 . S
C1350 C1349 1.379 . S
H1351 C1345 0.959 . S
H1352 C1345 0.961 . S
H1353 C1345 0.960 . S
H1354 C1346 0.930 . S
H1355 C1347 0.929 . S
H1356 C1364 0.929 . S
H1357 C1366 0.930 . S
H1358 C1368 0.930 . S
H1359 C1371 0.929 . S
H1360 C1374 0.930 . S
H1361 C1376 0.960 . S
H1362 C1376 0.960 . S
H1363 C1376 0.960 . S
C1364 H1356 0.929 . S
C1364 C1365 1.377 . S
C1364 C1366 1.384 . S
C1365 C1364 1.377 . S
C1365 C1371 1.390 . S
C1366 H1357 0.930 . S
C1366 C1364 1.384 . S
C1366 C1367 1.372 . S
C1367 C1366 1.372 . S
C1367 C1368 1.400 . S
C1367 C1372 1.490 . S
C1368 H1358 0.930 . S
C1368 C1367 1.400 . S
C1368 C1371 1.386 . S
H1369 C1385 0.930 . S
H1370 C1386 0.931 . S
C1371 H1359 0.929 . S
C1371 C1365 1.390 . S
C1371 C1368 1.386 . S
C1372 C1367 1.490 . S
C1372 C1374 1.395 . S
C1372 C1375 1.403 . S
H1373 C1379 0.930 . S
C1374 H1360 0.930 . S
C1374 C1372 1.395 . S
C1374 C1377 1.403 . S
C1375 C1372 1.403 . S
C1375 C1376 1.524 . S
C1375 C1379 1.400 . S
C1376 H1361 0.960 . S
C1376 H1362 0.960 . S
C1376 H1363 0.960 . S
C1376 C1375 1.524 . S
C1377 C1374 1.403 . S
C1377 C1378 1.392 . S
C1377 C1381 1.495 . S
C1378 C1377 1.392 . S
C1378 C1379 1.385 . S
C1378 C1380 1.478 . S
C1379 H1373 0.930 . S
C1379 C1375 1.400 . S
C1379 C1378 1.385 . S
C1380 C1378 1.478 . S
C1380 C1382 1.381 . S
C1380 C1386 1.383 . S
C1381 C1377 1.495 . S
C1381 H1387 0.959 . S
C1381 H1388 0.961 . S
C1381 H1389 0.960 . S
C1382 C1380 1.381 . S
C1382 C1383 1.394 . S
C1382 H1390 0.930 . S
C1383 C1382 1.394 . S
C1383 C1384 1.383 . S
C1383 H1391 0.929 . S
C1384 C1383 1.383 . S
C1384 C1385 1.377 . S
C1385 H1369 0.930 . S
C1385 C1384 1.377 . S
C1385 C1386 1.379 . S
C1386 H1370 0.931 . S
C1386 C1380 1.383 . S
C1386 C1385 1.379 . S
H1387 C1381 0.959 . S
H1388 C1381 0.961 . S
H1389 C1381 0.960 . S
H1390 C1382 0.930 . S
H1391 C1383 0.929 . S
H1392 C1400 0.929 . S
H1393 C1402 0.930 . S
H1394 C1404 0.930 . S
H1395 C1407 0.929 . S
H1396 C1410 0.930 . S
H1397 C1412 0.960 . S
H1398 C1412 0.960 . S
H1399 C1412 0.960 . S
C1400 H1392 0.929 . S
C1400 C1401 1.377 . S
C1400 C1402 1.384 . S
C1401 C1400 1.377 . S
C1401 C1407 1.390 . S
C1402 H1393 0.930 . S
C1402 C1400 1.384 . S
C1402 C1403 1.372 . S
C1403 C1402 1.372 . S
C1403 C1404 1.400 . S
C1403 C1408 1.490 . S
C1404 H1394 0.930 . S
C1404 C1403 1.400 . S
C1404 C1407 1.386 . S
H1405 C1421 0.930 . S
H1406 C1422 0.931 . S
C1407 H1395 0.929 . S
C1407 C1401 1.390 . S
C1407 C1404 1.386 . S
C1408 C1403 1.490 . S
C1408 C1410 1.395 1_545 S
C1408 C1411 1.403 . S
H1409 C1415 0.930 . S
C1410 H1396 0.930 . S
C1410 C1408 1.395 1_565 S
C1410 C1413 1.403 . S
C1411 C1408 1.403 . S
C1411 C1412 1.524 . S
C1411 C1415 1.400 1_545 S
C1412 H1397 0.960 . S
C1412 H1398 0.960 . S
C1412 H1399 0.960 . S
C1412 C1411 1.524 . S
C1413 C1410 1.403 . S
C1413 C1414 1.392 . S
C1413 C1417 1.495 . S
C1414 C1413 1.392 . S
C1414 C1415 1.385 . S
C1414 C1416 1.478 . S
C1415 H1409 0.930 . S
C1415 C1411 1.400 1_565 S
C1415 C1414 1.385 . S
C1416 C1414 1.478 . S
C1416 C1418 1.381 . S
C1416 C1422 1.383 . S
C1417 C1413 1.495 . S
C1417 H1423 0.959 . S
C1417 H1424 0.961 . S
C1417 H1425 0.960 . S
C1418 C1416 1.381 . S
C1418 C1419 1.394 . S
C1418 H1426 0.930 . S
C1419 C1418 1.394 . S
C1419 C1420 1.383 . S
C1419 H1427 0.929 . S
C1420 C1419 1.383 . S
C1420 C1421 1.377 . S
C1421 H1405 0.930 . S
C1421 C1420 1.377 . S
C1421 C1422 1.379 . S
C1422 H1406 0.931 . S
C1422 C1416 1.383 . S
C1422 C1421 1.379 . S
H1423 C1417 0.959 . S
H1424 C1417 0.961 . S
H1425 C1417 0.960 . S
H1426 C1418 0.930 . S
H1427 C1419 0.929 . S
H1428 C1436 0.929 . S
H1429 C1438 0.930 . S
H1430 C1440 0.930 . S
H1431 C1443 0.929 . S
H1432 C1446 0.930 . S
H1433 C1448 0.960 . S
H1434 C1448 0.960 . S
H1435 C1448 0.960 . S
C1436 H1428 0.929 . S
C1436 C1437 1.377 . S
C1436 C1438 1.384 . S
C1437 C1436 1.377 . S
C1437 C1443 1.390 . S
C1438 H1429 0.930 . S
C1438 C1436 1.384 . S
C1438 C1439 1.372 . S
C1439 C1438 1.372 . S
C1439 C1440 1.400 . S
C1439 C1444 1.490 . S
C1440 H1430 0.930 . S
C1440 C1439 1.400 . S
C1440 C1443 1.386 . S
H1441 C1457 0.930 . S
H1442 C1458 0.931 . S
C1443 H1431 0.929 . S
C1443 C1437 1.390 . S
C1443 C1440 1.386 . S
C1444 C1439 1.490 . S
C1444 C1446 1.395 . S
C1444 C1447 1.403 . S
H1445 C1451 0.930 . S
C1446 H1432 0.930 . S
C1446 C1444 1.395 . S
C1446 C1449 1.403 . S
C1447 C1444 1.403 . S
C1447 C1448 1.524 . S
C1447 C1451 1.400 . S
C1448 H1433 0.960 . S
C1448 H1434 0.960 . S
C1448 H1435 0.960 . S
C1448 C1447 1.524 . S
C1449 C1446 1.403 . S
C1449 C1450 1.392 . S
C1449 C1453 1.495 . S
C1450 C1449 1.392 . S
C1450 C1451 1.385 . S
C1450 C1452 1.478 . S
C1451 H1445 0.930 . S
C1451 C1447 1.400 . S
C1451 C1450 1.385 . S
C1452 C1450 1.478 . S
C1452 C1454 1.381 . S
C1452 C1458 1.383 . S
C1453 C1449 1.495 . S
C1453 H1459 0.959 . S
C1453 H1460 0.961 . S
C1453 H1461 0.960 . S
C1454 C1452 1.381 . S
C1454 C1455 1.394 . S
C1454 H1462 0.930 . S
C1455 C1454 1.394 . S
C1455 C1456 1.383 . S
C1455 H1463 0.929 . S
C1456 C1455 1.383 . S
C1456 C1457 1.377 . S
C1457 H1441 0.930 . S
C1457 C1456 1.377 . S
C1457 C1458 1.379 . S
C1458 H1442 0.931 . S
C1458 C1452 1.383 . S
C1458 C1457 1.379 . S
H1459 C1453 0.959 . S
H1460 C1453 0.961 . S
H1461 C1453 0.960 . S
H1462 C1454 0.930 . S
H1463 C1455 0.929 . S
H1464 C1472 0.929 . S
H1465 C1474 0.930 . S
H1466 C1476 0.930 . S
H1467 C1479 0.929 . S
H1468 C1482 0.930 . S
H1469 C1484 0.960 . S
H1470 C1484 0.960 . S
H1471 C1484 0.960 . S
C1472 H1464 0.929 . S
C1472 C1473 1.377 . S
C1472 C1474 1.384 . S
C1473 C1472 1.377 . S
C1473 C1479 1.390 . S
C1474 H1465 0.930 . S
C1474 C1472 1.384 . S
C1474 C1475 1.372 . S
C1475 C1474 1.372 . S
C1475 C1476 1.400 . S
C1475 C1480 1.490 . S
C1476 H1466 0.930 . S
C1476 C1475 1.400 . S
C1476 C1479 1.386 . S
H1477 C1493 0.930 . S
H1478 C1494 0.931 . S
C1479 H1467 0.929 . S
C1479 C1473 1.390 . S
C1479 C1476 1.386 . S
C1480 C1475 1.490 . S
C1480 C1482 1.395 1_545 S
C1480 C1483 1.403 . S
H1481 C1487 0.930 . S
C1482 H1468 0.930 . S
C1482 C1480 1.395 1_565 S
C1482 C1485 1.403 . S
C1483 C1480 1.403 . S
C1483 C1484 1.524 . S
C1483 C1487 1.400 . S
C1484 H1469 0.960 . S
C1484 H1470 0.960 . S
C1484 H1471 0.960 . S
C1484 C1483 1.524 . S
C1485 C1482 1.403 . S
C1485 C1486 1.392 . S
C1485 C1489 1.495 . S
C1486 C1485 1.392 . S
C1486 C1487 1.385 1_565 S
C1486 C1488 1.478 . S
C1487 H1481 0.930 . S
C1487 C1483 1.400 . S
C1487 C1486 1.385 1_545 S
C1488 C1486 1.478 . S
C1488 C1490 1.381 . S
C1488 C1494 1.383 . S
C1489 C1485 1.495 . S
C1489 H1495 0.959 . S
C1489 H1496 0.961 . S
C1489 H1497 0.960 . S
C1490 C1488 1.381 . S
C1490 C1491 1.394 . S
C1490 H1498 0.930 . S
C1491 C1490 1.394 . S
C1491 C1492 1.383 . S
C1491 H1499 0.929 . S
C1492 C1491 1.383 . S
C1492 C1493 1.377 . S
C1493 H1477 0.930 . S
C1493 C1492 1.377 . S
C1493 C1494 1.379 . S
C1494 H1478 0.931 . S
C1494 C1488 1.383 . S
C1494 C1493 1.379 . S
H1495 C1489 0.959 . S
H1496 C1489 0.961 . S
H1497 C1489 0.960 . S
H1498 C1490 0.930 . S
H1499 C1491 0.929 . S
H1500 C1508 0.929 . S
H1501 C1510 0.930 . S
H1502 C1512 0.930 . S
H1503 C1515 0.929 . S
H1504 C1518 0.930 . S
H1505 C1520 0.960 . S
H1506 C1520 0.960 . S
H1507 C1520 0.960 . S
C1508 H1500 0.929 . S
C1508 C1509 1.377 . S
C1508 C1510 1.384 . S
C1509 C1508 1.377 . S
C1509 C1515 1.390 . S
C1510 H1501 0.930 . S
C1510 C1508 1.384 . S
C1510 C1511 1.372 . S
C1511 C1510 1.372 . S
C1511 C1512 1.400 . S
C1511 C1516 1.490 . S
C1512 H1502 0.930 . S
C1512 C1511 1.400 . S
C1512 C1515 1.386 . S
H1513 C1529 0.930 . S
H1514 C1530 0.931 . S
C1515 H1503 0.929 . S
C1515 C1509 1.390 . S
C1515 C1512 1.386 . S
C1516 C1511 1.490 . S
C1516 C1518 1.395 1_554 S
C1516 C1519 1.403 . S
H1517 C1523 0.936 . S
C1518 H1504 0.930 . S
C1518 C1516 1.395 1_556 S
C1518 C1521 1.403 . S
C1519 C1516 1.403 . S
C1519 C1520 1.524 . S
C1519 C1523 1.400 1_554 S
C1520 H1505 0.960 . S
C1520 H1506 0.960 . S
C1520 H1507 0.960 . S
C1520 C1519 1.524 . S
C1521 C1518 1.403 . S
C1521 C1522 1.392 . S
C1521 C1525 1.495 . S
C1522 C1521 1.392 . S
C1522 C1523 1.385 . S
C1522 C1524 1.478 . S
C1523 H1517 0.936 . S
C1523 C1519 1.400 1_556 S
C1523 C1522 1.385 . S
C1524 C1522 1.478 . S
C1524 C1526 1.381 . S
C1524 C1530 1.383 . S
C1525 C1521 1.495 . S
C1525 H1531 0.959 . S
C1525 H1532 0.961 . S
C1525 H1533 0.960 . S
C1526 C1524 1.381 . S
C1526 C1527 1.394 . S
C1526 H1534 0.930 . S
C1527 C1526 1.394 . S
C1527 C1528 1.383 . S
C1527 H1535 0.929 . S
C1528 C1527 1.383 . S
C1528 C1529 1.377 . S
C1529 H1513 0.930 . S
C1529 C1528 1.377 . S
C1529 C1530 1.379 . S
C1530 H1514 0.931 . S
C1530 C1524 1.383 . S
C1530 C1529 1.379 . S
H1531 C1525 0.959 . S
H1532 C1525 0.961 . S
H1533 C1525 0.960 . S
H1534 C1526 0.930 . S
H1535 C1527 0.929 . S
H1536 C1544 0.929 . S
H1537 C1546 0.930 . S
H1538 C1548 0.930 . S
H1539 C1551 0.929 . S
H1540 C1554 0.930 . S
H1541 C1556 0.960 . S
H1542 C1556 0.960 . S
H1543 C1556 0.960 . S
C1544 H1536 0.929 . S
C1544 C1545 1.377 . S
C1544 C1546 1.384 . S
C1545 C1544 1.377 . S
C1545 C1551 1.390 . S
C1546 H1537 0.930 . S
C1546 C1544 1.384 . S
C1546 C1547 1.372 . S
C1547 C1546 1.372 . S
C1547 C1548 1.400 . S
C1547 C1552 1.490 . S
C1548 H1538 0.930 . S
C1548 C1547 1.400 . S
C1548 C1551 1.386 . S
H1549 C1565 0.930 . S
H1550 C1566 0.931 . S
C1551 H1539 0.929 . S
C1551 C1545 1.390 . S
C1551 C1548 1.386 . S
C1552 C1547 1.490 . S
C1552 C1554 1.395 . S
C1552 C1555 1.403 1_455 S
H1553 C1559 0.930 . S
C1554 H1540 0.930 . S
C1554 C1552 1.395 . S
C1554 C1557 1.403 . S
C1555 C1552 1.403 1_655 S
C1555 C1556 1.524 . S
C1555 C1559 1.400 . S
C1556 H1541 0.960 . S
C1556 H1542 0.960 . S
C1556 H1543 0.960 . S
C1556 C1555 1.524 . S
C1557 C1554 1.403 . S
C1557 C1558 1.392 1_455 S
C1557 C1561 1.495 . S
C1558 C1557 1.392 1_655 S
C1558 C1559 1.385 . S
C1558 C1560 1.478 . S
C1559 H1553 0.930 . S
C1559 C1555 1.400 . S
C1559 C1558 1.385 . S
C1560 C1558 1.478 . S
C1560 C1562 1.381 . S
C1560 C1566 1.383 . S
C1561 C1557 1.495 . S
C1561 H1567 0.959 . S
C1561 H1568 0.961 . S
C1561 H1569 0.960 . S
C1562 C1560 1.381 . S
C1562 C1563 1.394 . S
C1562 H1570 0.930 . S
C1563 C1562 1.394 . S
C1563 C1564 1.383 . S
C1563 H1571 0.929 . S
C1564 C1563 1.383 . S
C1564 C1565 1.377 . S
C1565 H1549 0.930 . S
C1565 C1564 1.377 . S
C1565 C1566 1.379 . S
C1566 H1550 0.931 . S
C1566 C1560 1.383 . S
C1566 C1565 1.379 . S
H1567 C1561 0.959 . S
H1568 C1561 0.961 . S
H1569 C1561 0.960 . S
H1570 C1562 0.930 . S
H1571 C1563 0.929 . S
H1572 C1580 0.929 . S
H1573 C1582 0.930 . S
H1574 C1584 0.930 . S
H1575 C1587 0.929 . S
H1576 C1590 0.930 . S
H1577 C1592 0.960 . S
H1578 C1592 0.960 . S
H1579 C1592 0.960 . S
C1580 H1572 0.929 . S
C1580 C1581 1.377 . S
C1580 C1582 1.384 . S
C1581 C1580 1.377 . S
C1581 C1587 1.390 . S
C1582 H1573 0.930 . S
C1582 C1580 1.384 . S
C1582 C1583 1.372 . S
C1583 C1582 1.372 . S
C1583 C1584 1.400 . S
C1583 C1588 1.490 . S
C1584 H1574 0.930 . S
C1584 C1583 1.400 . S
C1584 C1587 1.386 . S
H1585 C1601 0.930 . S
H1586 C1602 0.931 . S
C1587 H1575 0.929 . S
C1587 C1581 1.390 . S
C1587 C1584 1.386 . S
C1588 C1583 1.490 . S
C1588 C1590 1.395 . S
C1588 C1591 1.403 . S
H1589 C1595 0.930 . S
C1590 H1576 0.930 . S
C1590 C1588 1.395 . S
C1590 C1593 1.403 . S
C1591 C1588 1.403 . S
C1591 C1592 1.524 . S
C1591 C1595 1.400 . S
C1592 H1577 0.960 . S
C1592 H1578 0.960 . S
C1592 H1579 0.960 . S
C1592 C1591 1.524 . S
C1593 C1590 1.403 . S
C1593 C1594 1.392 . S
C1593 C1597 1.495 . S
C1594 C1593 1.392 . S
C1594 C1595 1.385 . S
C1594 C1596 1.478 . S
C1595 H1589 0.930 . S
C1595 C1591 1.400 . S
C1595 C1594 1.385 . S
C1596 C1594 1.478 . S
C1596 C1598 1.381 . S
C1596 C1602 1.383 . S
C1597 C1593 1.495 . S
C1597 H1603 0.959 . S
C1597 H1604 0.961 . S
C1597 H1605 0.960 . S
C1598 C1596 1.381 . S
C1598 C1599 1.394 . S
C1598 H1606 0.930 . S
C1599 C1598 1.394 . S
C1599 C1600 1.383 . S
C1599 H1607 0.929 . S
C1600 C1599 1.383 . S
C1600 C1601 1.377 . S
C1601 H1585 0.930 . S
C1601 C1600 1.377 . S
C1601 C1602 1.379 . S
C1602 H1586 0.931 . S
C1602 C1596 1.383 . S
C1602 C1601 1.379 . S
H1603 C1597 0.959 . S
H1604 C1597 0.961 . S
H1605 C1597 0.960 . S
H1606 C1598 0.930 . S
H1607 C1599 0.929 . S
H1608 C1616 0.929 . S
H1609 C1618 0.930 . S
H1610 C1620 0.930 . S
H1611 C1623 0.929 . S
H1612 C1626 0.930 . S
H1613 C1628 0.960 . S
H1614 C1628 0.960 . S
H1615 C1628 0.960 . S
C1616 H1608 0.929 . S
C1616 C1617 1.377 . S
C1616 C1618 1.384 . S
C1617 C1616 1.377 . S
C1617 C1623 1.390 . S
C1618 H1609 0.930 . S
C1618 C1616 1.384 . S
C1618 C1619 1.372 . S
C1619 C1618 1.372 . S
C1619 C1620 1.400 . S
C1619 C1624 1.490 . S
C1620 H1610 0.930 . S
C1620 C1619 1.400 . S
C1620 C1623 1.386 . S
H1621 C1637 0.930 . S
H1622 C1638 0.931 . S
C1623 H1611 0.929 . S
C1623 C1617 1.390 . S
C1623 C1620 1.386 . S
C1624 C1619 1.490 . S
C1624 C1626 1.395 1_655 S
C1624 C1627 1.403 . S
H1625 C1631 0.930 . S
C1626 H1612 0.930 . S
C1626 C1624 1.395 1_455 S
C1626 C1629 1.403 . S
C1627 C1624 1.403 . S
C1627 C1628 1.524 . S
C1627 C1631 1.400 1_655 S
C1628 H1613 0.960 . S
C1628 H1614 0.960 . S
C1628 H1615 0.960 . S
C1628 C1627 1.524 . S
C1629 C1626 1.403 . S
C1629 C1630 1.392 . S
C1629 C1633 1.495 . S
C1630 C1629 1.392 . S
C1630 C1631 1.385 . S
C1630 C1632 1.478 . S
C1631 H1625 0.930 . S
C1631 C1627 1.400 1_455 S
C1631 C1630 1.385 . S
C1632 C1630 1.478 . S
C1632 C1634 1.381 . S
C1632 C1638 1.383 . S
C1633 C1629 1.495 . S
C1633 H1639 0.959 . S
C1633 H1640 0.961 . S
C1633 H1641 0.960 . S
C1634 C1632 1.381 . S
C1634 C1635 1.394 . S
C1634 H1642 0.930 . S
C1635 C1634 1.394 . S
C1635 C1636 1.383 . S
C1635 H1643 0.929 . S
C1636 C1635 1.383 . S
C1636 C1637 1.377 . S
C1637 H1621 0.930 . S
C1637 C1636 1.377 . S
C1637 C1638 1.379 . S
C1638 H1622 0.931 . S
C1638 C1632 1.383 . S
C1638 C1637 1.379 . S
H1639 C1633 0.959 . S
H1640 C1633 0.961 . S
H1641 C1633 0.960 . S
H1642 C1634 0.930 . S
H1643 C1635 0.929 . S
H1644 C1652 0.929 . S
H1645 C1654 0.930 . S
H1646 C1656 0.930 . S
H1647 C1659 0.929 . S
H1648 C1662 0.930 . S
H1649 C1664 0.960 . S
H1650 C1664 0.960 . S
H1651 C1664 0.960 . S
C1652 H1644 0.929 . S
C1652 C1653 1.377 . S
C1652 C1654 1.384 . S
C1653 C1652 1.377 . S
C1653 C1659 1.390 . S
C1654 H1645 0.930 . S
C1654 C1652 1.384 . S
C1654 C1655 1.372 . S
C1655 C1654 1.372 . S
C1655 C1656 1.400 . S
C1655 C1660 1.490 . S
C1656 H1646 0.930 . S
C1656 C1655 1.400 . S
C1656 C1659 1.386 . S
H1657 C1673 0.930 . S
H1658 C1674 0.931 . S
C1659 H1647 0.929 . S
C1659 C1653 1.390 . S
C1659 C1656 1.386 . S
C1660 C1655 1.490 . S
C1660 C1662 1.395 . S
C1660 C1663 1.403 . S
H1661 C1667 0.930 . S
C1662 H1648 0.930 . S
C1662 C1660 1.395 . S
C1662 C1665 1.403 . S
C1663 C1660 1.403 . S
C1663 C1664 1.524 . S
C1663 C1667 1.400 . S
C1664 H1649 0.960 . S
C1664 H1650 0.960 . S
C1664 H1651 0.960 . S
C1664 C1663 1.524 . S
C1665 C1662 1.403 . S
C1665 C1666 1.392 . S
C1665 C1669 1.495 . S
C1666 C1665 1.392 . S
C1666 C1667 1.385 . S
C1666 C1668 1.478 . S
C1667 H1661 0.930 . S
C1667 C1663 1.400 . S
C1667 C1666 1.385 . S
C1668 C1666 1.478 . S
C1668 C1670 1.381 . S
C1668 C1674 1.383 . S
C1669 C1665 1.495 . S
C1669 H1675 0.959 . S
C1669 H1676 0.961 . S
C1669 H1677 0.960 . S
C1670 C1668 1.381 . S
C1670 C1671 1.394 . S
C1670 H1678 0.930 . S
C1671 C1670 1.394 . S
C1671 C1672 1.383 . S
C1671 H1679 0.929 . S
C1672 C1671 1.383 . S
C1672 C1673 1.377 . S
C1673 H1657 0.930 . S
C1673 C1672 1.377 . S
C1673 C1674 1.379 . S
C1674 H1658 0.931 . S
C1674 C1668 1.383 . S
C1674 C1673 1.379 . S
H1675 C1669 0.959 . S
H1676 C1669 0.961 . S
H1677 C1669 0.960 . S
H1678 C1670 0.930 . S
H1679 C1671 0.929 . S
H1680 C1688 0.929 . S
H1681 C1690 0.930 . S
H1682 C1692 0.930 . S
H1683 C1695 0.929 . S
H1684 C1698 0.930 . S
H1685 C1700 0.960 . S
H1686 C1700 0.960 . S
H1687 C1700 0.960 . S
C1688 H1680 0.929 . S
C1688 C1689 1.377 . S
C1688 C1690 1.384 . S
C1689 C1688 1.377 . S
C1689 C1695 1.390 . S
C1690 H1681 0.930 . S
C1690 C1688 1.384 . S
C1690 C1691 1.372 . S
C1691 C1690 1.372 . S
C1691 C1692 1.400 . S
C1691 C1696 1.490 . S
C1692 H1682 0.930 . S
C1692 C1691 1.400 . S
C1692 C1695 1.386 . S
H1693 C1709 0.930 . S
H1694 C1710 0.931 . S
C1695 H1683 0.929 . S
C1695 C1689 1.390 . S
C1695 C1692 1.386 . S
C1696 C1691 1.490 . S
C1696 C1698 1.395 . S
C1696 C1699 1.403 . S
H1697 C1703 0.930 . S
C1698 H1684 0.930 . S
C1698 C1696 1.395 . S
C1698 C1701 1.403 . S
C1699 C1696 1.403 . S
C1699 C1700 1.524 . S
C1699 C1703 1.400 . S
C1700 H1685 0.960 . S
C1700 H1686 0.960 . S
C1700 H1687 0.960 . S
C1700 C1699 1.524 . S
C1701 C1698 1.403 . S
C1701 C1702 1.392 . S
C1701 C1705 1.495 . S
C1702 C1701 1.392 . S
C1702 C1703 1.385 . S
C1702 C1704 1.478 . S
C1703 H1697 0.930 . S
C1703 C1699 1.400 . S
C1703 C1702 1.385 . S
C1704 C1702 1.478 . S
C1704 C1706 1.381 . S
C1704 C1710 1.383 . S
C1705 C1701 1.495 . S
C1705 H1711 0.959 . S
C1705 H1712 0.961 . S
C1705 H1713 0.960 . S
C1706 C1704 1.381 . S
C1706 C1707 1.394 . S
C1706 H1714 0.930 . S
C1707 C1706 1.394 . S
C1707 C1708 1.383 . S
C1707 H1715 0.929 . S
C1708 C1707 1.383 . S
C1708 C1709 1.377 . S
C1709 H1693 0.930 . S
C1709 C1708 1.377 . S
C1709 C1710 1.379 . S
C1710 H1694 0.931 . S
C1710 C1704 1.383 . S
C1710 C1709 1.379 . S
H1711 C1705 0.959 . S
H1712 C1705 0.961 . S
H1713 C1705 0.960 . S
H1714 C1706 0.930 . S
H1715 C1707 0.929 . S
H1716 C1724 0.929 . S
H1717 C1726 0.930 . S
H1718 C1728 0.930 . S
H1719 C1731 0.929 . S
H1720 C1734 0.922 1_554 S
H1721 C1736 0.960 . S
H1722 C1736 0.960 . S
H1723 C1736 0.960 . S
C1724 H1716 0.929 . S
C1724 C1725 1.377 . S
C1724 C1726 1.384 . S
C1725 C1724 1.377 . S
C1725 C1731 1.390 . S
C1726 H1717 0.930 . S
C1726 C1724 1.384 . S
C1726 C1727 1.372 . S
C1727 C1726 1.372 . S
C1727 C1728 1.400 . S
C1727 C1732 1.490 . S
C1728 H1718 0.930 . S
C1728 C1727 1.400 . S
C1728 C1731 1.386 . S
H1729 C1745 0.930 . S
H1730 C1746 0.931 . S
C1731 H1719 0.929 . S
C1731 C1725 1.390 . S
C1731 C1728 1.386 . S
C1732 C1727 1.490 . S
C1732 C1734 1.395 . S
C1732 C1735 1.403 . S
H1733 C1739 0.930 . S
C1734 H1720 0.922 1_556 S
C1734 C1732 1.395 . S
C1734 C1737 1.403 1_556 S
C1735 C1732 1.403 . S
C1735 C1736 1.524 . S
C1735 C1739 1.400 . S
C1736 H1721 0.960 . S
C1736 H1722 0.960 . S
C1736 H1723 0.960 . S
C1736 C1735 1.524 . S
C1737 C1734 1.403 1_554 S
C1737 C1738 1.392 . S
C1737 C1741 1.495 . S
C1738 C1737 1.392 . S
C1738 C1739 1.385 1_554 S
C1738 C1740 1.478 . S
C1739 H1733 0.930 . S
C1739 C1735 1.400 . S
C1739 C1738 1.385 1_556 S
C1740 C1738 1.478 . S
C1740 C1742 1.381 . S
C1740 C1746 1.383 . S
C1741 C1737 1.495 . S
C1741 H1747 0.959 . S
C1741 H1748 0.961 . S
C1741 H1749 0.960 . S
C1742 C1740 1.381 . S
C1742 C1743 1.394 . S
C1742 H1750 0.930 . S
C1743 C1742 1.394 . S
C1743 C1744 1.383 . S
C1743 H1751 0.929 . S
C1744 C1743 1.383 . S
C1744 C1745 1.377 . S
C1745 H1729 0.930 . S
C1745 C1744 1.377 . S
C1745 C1746 1.379 . S
C1746 H1730 0.931 . S
C1746 C1740 1.383 . S
C1746 C1745 1.379 . S
H1747 C1741 0.959 . S
H1748 C1741 0.961 . S
H1749 C1741 0.960 . S
H1750 C1742 0.930 . S
H1751 C1743 0.929 . S
H1752 C1760 0.929 . S
H1753 C1762 0.930 . S
H1754 C1764 0.930 . S
H1755 C1767 0.929 . S
H1756 C1770 0.930 . S
H1757 C1772 0.960 . S
H1758 C1772 0.960 . S
H1759 C1772 0.960 . S
C1760 H1752 0.929 . S
C1760 C1761 1.377 . S
C1760 C1762 1.384 . S
C1761 C1760 1.377 . S
C1761 C1767 1.390 . S
C1762 H1753 0.930 . S
C1762 C1760 1.384 . S
C1762 C1763 1.372 . S
C1763 C1762 1.372 . S
C1763 C1764 1.400 . S
C1763 C1768 1.490 . S
C1764 H1754 0.930 . S
C1764 C1763 1.400 . S
C1764 C1767 1.386 . S
H1765 C1781 0.930 . S
H1766 C1782 0.931 . S
C1767 H1755 0.929 . S
C1767 C1761 1.390 . S
C1767 C1764 1.386 . S
C1768 C1763 1.490 . S
C1768 C1770 1.395 . S
C1768 C1771 1.403 . S
H1769 C1775 0.930 . S
C1770 H1756 0.930 . S
C1770 C1768 1.395 . S
C1770 C1773 1.403 . S
C1771 C1768 1.403 . S
C1771 C1772 1.524 . S
C1771 C1775 1.400 . S
C1772 H1757 0.960 . S
C1772 H1758 0.960 . S
C1772 H1759 0.960 . S
C1772 C1771 1.524 . S
C1773 C1770 1.403 . S
C1773 C1774 1.392 . S
C1773 C1777 1.495 . S
C1774 C1773 1.392 . S
C1774 C1775 1.385 . S
C1774 C1776 1.478 . S
C1775 H1769 0.930 . S
C1775 C1771 1.400 . S
C1775 C1774 1.385 . S
C1776 C1774 1.478 . S
C1776 C1778 1.381 . S
C1776 C1782 1.383 . S
C1777 C1773 1.495 . S
C1777 H1783 0.959 . S
C1777 H1784 0.961 . S
C1777 H1785 0.960 . S
C1778 C1776 1.381 . S
C1778 C1779 1.394 . S
C1778 H1786 0.930 . S
C1779 C1778 1.394 . S
C1779 C1780 1.383 . S
C1779 H1787 0.929 . S
C1780 C1779 1.383 . S
C1780 C1781 1.377 . S
C1781 H1765 0.930 . S
C1781 C1780 1.377 . S
C1781 C1782 1.379 . S
C1782 H1766 0.931 . S
C1782 C1776 1.383 . S
C1782 C1781 1.379 . S
H1783 C1777 0.959 . S
H1784 C1777 0.961 . S
H1785 C1777 0.960 . S
H1786 C1778 0.930 . S
H1787 C1779 0.929 . S
H1788 C1796 0.929 . S
H1789 C1798 0.930 . S
H1790 C1800 0.930 . S
H1791 C1803 0.929 . S
H1792 C1806 0.930 . S
H1793 C1808 0.960 . S
H1794 C1808 0.960 . S
H1795 C1808 0.960 . S
C1796 H1788 0.929 . S
C1796 C1797 1.377 . S
C1796 C1798 1.384 . S
C1797 C1796 1.377 . S
C1797 C1803 1.390 . S
C1798 H1789 0.930 . S
C1798 C1796 1.384 . S
C1798 C1799 1.372 . S
C1799 C1798 1.372 . S
C1799 C1800 1.400 . S
C1799 C1804 1.490 . S
C1800 H1790 0.930 . S
C1800 C1799 1.400 . S
C1800 C1803 1.386 . S
H1801 C1817 0.930 . S
H1802 C1818 0.931 . S
C1803 H1791 0.929 . S
C1803 C1797 1.390 . S
C1803 C1800 1.386 . S
C1804 C1799 1.490 . S
C1804 C1806 1.395 . S
C1804 C1807 1.403 . S
H1805 C1811 0.930 . S
C1806 H1792 0.930 . S
C1806 C1804 1.395 . S
C1806 C1809 1.403 . S
C1807 C1804 1.403 . S
C1807 C1808 1.524 . S
C1807 C1811 1.400 . S
C1808 H1793 0.960 . S
C1808 H1794 0.960 . S
C1808 H1795 0.960 . S
C1808 C1807 1.524 . S
C1809 C1806 1.403 . S
C1809 C1810 1.392 . S
C1809 C1813 1.495 . S
C1810 C1809 1.392 . S
C1810 C1811 1.385 . S
C1810 C1812 1.478 . S
C1811 H1805 0.930 . S
C1811 C1807 1.400 . S
C1811 C1810 1.385 . S
C1812 C1810 1.478 . S
C1812 C1814 1.381 . S
C1812 C1818 1.383 . S
C1813 C1809 1.495 . S
C1813 H1819 0.959 . S
C1813 H1820 0.961 . S
C1813 H1821 0.960 . S
C1814 C1812 1.381 . S
C1814 C1815 1.394 . S
C1814 H1822 0.930 . S
C1815 C1814 1.394 . S
C1815 C1816 1.383 . S
C1815 H1823 0.929 . S
C1816 C1815 1.383 . S
C1816 C1817 1.377 . S
C1817 H1801 0.930 . S
C1817 C1816 1.377 . S
C1817 C1818 1.379 . S
C1818 H1802 0.931 . S
C1818 C1812 1.383 . S
C1818 C1817 1.379 . S
H1819 C1813 0.959 . S
H1820 C1813 0.961 . S
H1821 C1813 0.960 . S
H1822 C1814 0.930 . S
H1823 C1815 0.929 . S
H1824 C1832 0.929 . S
H1825 C1834 0.930 . S
H1826 C1836 0.930 . S
H1827 C1839 0.929 . S
H1828 C1842 0.930 . S
H1829 C1844 0.960 . S
H1830 C1844 0.960 . S
H1831 C1844 0.960 . S
C1832 H1824 0.929 . S
C1832 C1833 1.377 . S
C1832 C1834 1.384 . S
C1833 C1832 1.377 . S
C1833 C1839 1.390 . S
C1834 H1825 0.930 . S
C1834 C1832 1.384 . S
C1834 C1835 1.372 . S
C1835 C1834 1.372 . S
C1835 C1836 1.400 . S
C1835 C1840 1.490 . S
C1836 H1826 0.930 . S
C1836 C1835 1.400 . S
C1836 C1839 1.386 . S
H1837 C1853 0.930 . S
H1838 C1854 0.931 . S
C1839 H1827 0.929 . S
C1839 C1833 1.390 . S
C1839 C1836 1.386 . S
C1840 C1835 1.490 . S
C1840 C1842 1.395 . S
C1840 C1843 1.403 . S
H1841 C1847 0.930 . S
C1842 H1828 0.930 . S
C1842 C1840 1.395 . S
C1842 C1845 1.403 . S
C1843 C1840 1.403 . S
C1843 C1844 1.524 . S
C1843 C1847 1.400 . S
C1844 H1829 0.960 . S
C1844 H1830 0.960 . S
C1844 H1831 0.960 . S
C1844 C1843 1.524 . S
C1845 C1842 1.403 . S
C1845 C1846 1.392 . S
C1845 C1849 1.495 . S
C1846 C1845 1.392 . S
C1846 C1847 1.385 . S
C1846 C1848 1.478 . S
C1847 H1841 0.930 . S
C1847 C1843 1.400 . S
C1847 C1846 1.385 . S
C1848 C1846 1.478 . S
C1848 C1850 1.381 . S
C1848 C1854 1.383 . S
C1849 C1845 1.495 . S
C1849 H1855 0.959 . S
C1849 H1856 0.961 . S
C1849 H1857 0.960 . S
C1850 C1848 1.381 . S
C1850 C1851 1.394 . S
C1850 H1858 0.930 . S
C1851 C1850 1.394 . S
C1851 C1852 1.383 . S
C1851 H1859 0.929 . S
C1852 C1851 1.383 . S
C1852 C1853 1.377 . S
C1853 H1837 0.930 . S
C1853 C1852 1.377 . S
C1853 C1854 1.379 . S
C1854 H1838 0.931 . S
C1854 C1848 1.383 . S
C1854 C1853 1.379 . S
H1855 C1849 0.959 . S
H1856 C1849 0.961 . S
H1857 C1849 0.960 . S
H1858 C1850 0.930 . S
H1859 C1851 0.929 . S
H1860 C1868 0.929 . S
H1861 C1870 0.930 . S
H1862 C1872 0.930 . S
H1863 C1875 0.929 . S
H1864 C1878 0.930 . S
H1865 C1880 0.960 . S
H1866 C1880 0.960 . S
H1867 C1880 0.960 . S
C1868 H1860 0.929 . S
C1868 C1869 1.377 . S
C1868 C1870 1.384 . S
C1869 C1868 1.377 . S
C1869 C1875 1.390 . S
C1870 H1861 0.930 . S
C1870 C1868 1.384 . S
C1870 C1871 1.372 . S
C1871 C1870 1.372 . S
C1871 C1872 1.400 . S
C1871 C1876 1.490 . S
C1872 H1862 0.930 . S
C1872 C1871 1.400 . S
C1872 C1875 1.386 . S
H1873 C1889 0.930 . S
H1874 C1890 0.931 . S
C1875 H1863 0.929 . S
C1875 C1869 1.390 . S
C1875 C1872 1.386 . S
C1876 C1871 1.490 . S
C1876 C1878 1.395 . S
C1876 C1879 1.403 1_556 S
H1877 C1883 0.930 . S
C1878 H1864 0.930 . S
C1878 C1876 1.395 . S
C1878 C1881 1.403 . S
C1879 C1876 1.403 1_554 S
C1879 C1880 1.524 . S
C1879 C1883 1.400 . S
C1880 H1865 0.960 . S
C1880 H1866 0.960 . S
C1880 H1867 0.960 . S
C1880 C1879 1.524 . S
C1881 C1878 1.403 . S
C1881 C1882 1.392 1_556 S
C1881 C1885 1.495 . S
C1882 C1881 1.392 1_554 S
C1882 C1883 1.385 . S
C1882 C1884 1.478 . S
C1883 H1877 0.930 . S
C1883 C1879 1.400 . S
C1883 C1882 1.385 . S
C1884 C1882 1.478 . S
C1884 C1886 1.381 . S
C1884 C1890 1.383 . S
C1885 C1881 1.495 . S
C1885 H1891 0.959 . S
C1885 H1892 0.961 . S
C1885 H1893 0.960 . S
C1886 C1884 1.381 . S
C1886 C1887 1.394 . S
C1886 H1894 0.930 . S
C1887 C1886 1.394 . S
C1887 C1888 1.383 . S
C1887 H1895 0.929 . S
C1888 C1887 1.383 . S
C1888 C1889 1.377 . S
C1889 H1873 0.930 . S
C1889 C1888 1.377 . S
C1889 C1890 1.379 . S
C1890 H1874 0.931 . S
C1890 C1884 1.383 . S
C1890 C1889 1.379 . S
H1891 C1885 0.959 . S
H1892 C1885 0.961 . S
H1893 C1885 0.960 . S
H1894 C1886 0.930 . S
H1895 C1887 0.929 . S
H1896 C1904 0.929 . S
H1897 C1906 0.930 . S
H1898 C1908 0.930 . S
H1899 C1911 0.929 . S
H1900 C1914 0.930 . S
H1901 C1916 0.960 . S
H1902 C1916 0.960 . S
H1903 C1916 0.960 . S
C1904 H1896 0.929 . S
C1904 C1905 1.377 . S
C1904 C1906 1.384 . S
C1905 C1904 1.377 . S
C1905 C1911 1.390 . S
C1906 H1897 0.930 . S
C1906 C1904 1.384 . S
C1906 C1907 1.372 . S
C1907 C1906 1.372 . S
C1907 C1908 1.400 . S
C1907 C1912 1.490 . S
C1908 H1898 0.930 . S
C1908 C1907 1.400 . S
C1908 C1911 1.386 . S
H1909 C1925 0.930 . S
H1910 C1926 0.931 . S
C1911 H1899 0.929 . S
C1911 C1905 1.390 . S
C1911 C1908 1.386 . S
C1912 C1907 1.490 . S
C1912 C1914 1.395 . S
C1912 C1915 1.403 . S
H1913 C1919 0.930 . S
C1914 H1900 0.930 . S
C1914 C1912 1.395 . S
C1914 C1917 1.403 . S
C1915 C1912 1.403 . S
C1915 C1916 1.524 . S
C1915 C1919 1.400 . S
C1916 H1901 0.960 . S
C1916 H1902 0.960 . S
C1916 H1903 0.960 . S
C1916 C1915 1.524 . S
C1917 C1914 1.403 . S
C1917 C1918 1.392 . S
C1917 C1921 1.495 . S
C1918 C1917 1.392 . S
C1918 C1919 1.385 . S
C1918 C1920 1.478 . S
C1919 H1913 0.930 . S
C1919 C1915 1.400 . S
C1919 C1918 1.385 . S
C1920 C1918 1.478 . S
C1920 C1922 1.381 . S
C1920 C1926 1.383 . S
C1921 C1917 1.495 . S
C1921 H1927 0.959 . S
C1921 H1928 0.961 . S
C1921 H1929 0.960 . S
C1922 C1920 1.381 . S
C1922 C1923 1.394 . S
C1922 H1930 0.930 . S
C1923 C1922 1.394 . S
C1923 C1924 1.383 . S
C1923 H1931 0.929 . S
C1924 C1923 1.383 . S
C1924 C1925 1.377 . S
C1925 H1909 0.930 . S
C1925 C1924 1.377 . S
C1925 C1926 1.379 . S
C1926 H1910 0.931 . S
C1926 C1920 1.383 . S
C1926 C1925 1.379 . S
H1927 C1921 0.959 . S
H1928 C1921 0.961 . S
H1929 C1921 0.960 . S
H1930 C1922 0.930 . S
H1931 C1923 0.929 . S
H1932 C1940 0.929 . S
H1933 C1942 0.930 . S
H1934 C1944 0.930 . S
H1935 C1947 0.929 . S
H1936 C1950 0.930 . S
H1937 C1952 0.960 . S
H1938 C1952 0.960 . S
H1939 C1952 0.960 . S
C1940 H1932 0.929 . S
C1940 C1941 1.377 . S
C1940 C1942 1.384 . S
C1941 C1940 1.377 . S
C1941 C1947 1.390 . S
C1942 H1933 0.930 . S
C1942 C1940 1.384 . S
C1942 C1943 1.372 . S
C1943 C1942 1.372 . S
C1943 C1944 1.400 . S
C1943 C1948 1.490 . S
C1944 H1934 0.930 . S
C1944 C1943 1.400 . S
C1944 C1947 1.386 . S
H1945 C1961 0.930 . S
H1946 C1962 0.931 . S
C1947 H1935 0.929 . S
C1947 C1941 1.390 . S
C1947 C1944 1.386 . S
C1948 C1943 1.490 . S
C1948 C1950 1.395 . S
C1948 C1951 1.403 . S
H1949 C1955 0.930 . S
C1950 H1936 0.930 . S
C1950 C1948 1.395 . S
C1950 C1953 1.403 . S
C1951 C1948 1.403 . S
C1951 C1952 1.524 . S
C1951 C1955 1.400 . S
C1952 H1937 0.960 . S
C1952 H1938 0.960 . S
C1952 H1939 0.960 . S
C1952 C1951 1.524 . S
C1953 C1950 1.403 . S
C1953 C1954 1.392 . S
C1953 C1957 1.495 . S
C1954 C1953 1.392 . S
C1954 C1955 1.385 . S
C1954 C1956 1.478 . S
C1955 H1949 0.930 . S
C1955 C1951 1.400 . S
C1955 C1954 1.385 . S
C1956 C1954 1.478 . S
C1956 C1958 1.381 . S
C1956 C1962 1.383 . S
C1957 C1953 1.495 . S
C1957 H1963 0.959 . S
C1957 H1964 0.961 . S
C1957 H1965 0.960 . S
C1958 C1956 1.381 . S
C1958 C1959 1.394 . S
C1958 H1966 0.930 . S
C1959 C1958 1.394 . S
C1959 C1960 1.383 . S
C1959 H1967 0.929 . S
C1960 C1959 1.383 . S
C1960 C1961 1.377 . S
C1961 H1945 0.930 . S
C1961 C1960 1.377 . S
C1961 C1962 1.379 . S
C1962 H1946 0.931 . S
C1962 C1956 1.383 . S
C1962 C1961 1.379 . S
H1963 C1957 0.959 . S
H1964 C1957 0.961 . S
H1965 C1957 0.960 . S
H1966 C1958 0.930 . S
H1967 C1959 0.929 . S
C537 N13 1.672 . S
C556 N497 1.695 . S
C573 N277 2.320 . S
C592 N46 2.316 . S
C609 N409 1.935 . S
C628 N68 1.928 . S
C645 N101 2.172 . S
C664 N343 2.121 . S
C681 N365 2.363 . S
C700 N35 2.377 . S
C717 N79 1.976 . S
C736 N299 1.996 . S
C753 N112 2.105 . S
C772 N431 2.131 . S
C789 N2 1.685 . S
C808 N244 1.680 . S
C825 N266 2.357 . S
C844 N134 2.349 . S
C861 N398 1.986 . S
C880 N178 1.978 . S
C897 N211 2.111 . S
C916 N332 2.119 . S
C933 N200 2.178 . S
C952 N442 2.154 . S
C969 N145 2.320 . S
C988 N376 2.315 . S
C1005 N475 1.679 . S
C1024 N233 1.688 . S
C1041 N310 1.943 . S
C1060 N167 1.965 . S
C1077 N508 1.662 . S
C1096 N464 1.657 . S
C1113 C21 0.769 . S
C1132 C51 0.770 . S
C1149 C40 0.787 . S
C1168 C87 0.788 . S
C1185 C73 0.996 . S
C1204 C106 0.983 . S
C1221 C117 0.994 . S
C1240 C7 0.994 . S
C1257 C18 0.361 . S
C1276 C183 0.357 . S
C1293 C153 0.392 . S
C1312 C120 0.405 . S
C1329 C219 0.389 . S
C1348 C54 0.387 . S
C1365 C480 0.362 . S
C1384 C84 0.357 . S
C1401 C285 0.278 . S
C1420 C238 0.273 . S
C1437 C271 0.811 . S
C1456 C304 0.817 . S
C1473 C315 1.130 . S
C1492 C348 1.125 . S
C1509 C351 0.523 . S
C1528 C249 0.517 . S
C1545 C417 0.563 . S
C1564 C252 0.567 . S
C1581 C381 0.858 . S
C1600 C337 0.863 . S
C1617 C282 0.856 . S
C1636 C436 0.850 . S
C1653 C516 0.559 . S
C1672 C318 0.556 . S
C1689 C150 0.769 . S
C1708 C483 0.771 . S
C1725 C139 0.787 . S
C1744 C186 0.787 . S
C1761 C172 0.996 . S
C1780 C205 0.986 . S
C1797 C469 0.988 . S
C1816 C216 0.984 . S
C1833 C384 0.275 . S
C1852 C502 0.303 . S
C1869 C403 0.812 . S
C1888 C370 0.821 . S
C1905 C414 1.128 . S
C1924 C447 1.129 . S
C1941 C513 0.520 . S
C1960 C450 0.518 . S
