# Generated by pormake.
# Topology umf, (4)-cn, num edge types: 1
# Building blocks:
#     Node 0, Type 0, BuildingBlock: ICAMEG_clean_sbu_1, # of connection points: 4
#     Node 1, Type 0, BuildingBlock: ICAMEG_clean_sbu_1, # of connection points: 4
#     Node 2, Type 0, BuildingBlock: ICAMEG_clean_sbu_1, # of connection points: 4
#     Node 3, Type 0, BuildingBlock: ICAMEG_clean_sbu_1, # of connection points: 4
#     Node 4, Type 0, BuildingBlock: ICAMEG_clean_sbu_1, # of connection points: 4
#     Node 5, Type 0, BuildingBlock: ICAMEG_clean_sbu_1, # of connection points: 4
#     Node 6, Type 0, BuildingBlock: ICAMEG_clean_sbu_1, # of connection points: 4
#     Node 7, Type 0, BuildingBlock: ICAMEG_clean_sbu_1, # of connection points: 4
#     Edge 8, Type (0, 0), BuildingBlock: AJUNOK_clean_linker_0, # of connection points: 2
#     Edge 9, Type (0, 0), BuildingBlock: AJUNOK_clean_linker_0, # of connection points: 2
#     Edge 10, Type (0, 0), BuildingBlock: AJUNOK_clean_linker_0, # of connection points: 2
#     Edge 11, Type (0, 0), BuildingBlock: AJUNOK_clean_linker_0, # of connection points: 2
#     Edge 12, Type (0, 0), BuildingBlock: AJUNOK_clean_linker_0, # of connection points: 2
#     Edge 13, Type (0, 0), BuildingBlock: AJUNOK_clean_linker_0, # of connection points: 2
#     Edge 14, Type (0, 0), BuildingBlock: AJUNOK_clean_linker_0, # of connection points: 2
#     Edge 15, Type (0, 0), BuildingBlock: AJUNOK_clean_linker_0, # of connection points: 2
#     Edge 16, Type (0, 0), BuildingBlock: AJUNOK_clean_linker_0, # of connection points: 2
#     Edge 17, Type (0, 0), BuildingBlock: AJUNOK_clean_linker_0, # of connection points: 2
#     Edge 18, Type (0, 0), BuildingBlock: AJUNOK_clean_linker_0, # of connection points: 2
#     Edge 19, Type (0, 0), BuildingBlock: AJUNOK_clean_linker_0, # of connection points: 2
#     Edge 20, Type (0, 0), BuildingBlock: AJUNOK_clean_linker_0, # of connection points: 2
#     Edge 21, Type (0, 0), BuildingBlock: AJUNOK_clean_linker_0, # of connection points: 2
#     Edge 22, Type (0, 0), BuildingBlock: AJUNOK_clean_linker_0, # of connection points: 2
#     Edge 23, Type (0, 0), BuildingBlock: AJUNOK_clean_linker_0, # of connection points: 2
# Relax obj value: 0.111
# Max RMSD: 0.200
# Mean RMSD: 0.200
data_MOF--net-umf--node1-ICAMEG_clean_sbu_1--edge1-AJUNOK_clean_linker_0
_symmetry_space_group_name_H-M    P1
_symmetry_Int_Tables_number       1
_symmetry_cell_setting            triclinic
loop_
_symmetry_equiv_pos_as_xyz
'x, y, z'
_cell_length_a     22.436085
_cell_length_b     22.533223
_cell_length_c     42.276161
_cell_angle_alpha  90.010926
_cell_angle_beta   90.010643
_cell_angle_gamma 90.077374
loop_
_atom_site_label
_atom_site_type_symbol
_atom_site_fract_x
_atom_site_fract_y
_atom_site_fract_z
_atom_type_partial_charge
Co0 Co 0.10626 0.2169 0.13946 0.0
Co1 Co 0.99201 0.24588 0.19145 0.0
O2 O 0.03746 0.26274 0.15314 0.0
C3 C 0.02756 0.21776 0.08351 0.0
O4 O 0.98423 0.2037 0.103 0.0
C5 C 0.02829 0.37036 0.19737 0.0
O6 O 0.08241 0.35074 0.19209 0.0
O7 O 0.06577 0.24363 0.2173 0.0
O8 O 0.13406 0.20588 0.18426 0.0
H9 H 0.94784 0.14284 0.29434 0.0
H10 H 0.08373 0.33472 0.11082 0.0
O11 O 0.08004 0.22591 0.09426 0.0
H12 H 0.28108 0.35115 0.16144 0.0
H13 H 0.2804 0.1717 0.06839 0.0
H14 H 0.16211 0.10402 0.15985 0.0
H15 H 0.22547 0.25668 0.16273 0.0
H16 H 0.19513 0.23061 0.08755 0.0
O17 O 0.98509 0.33362 0.19885 0.0
H18 H 0.00482 0.16324 0.24564 0.0
H19 H 0.88271 0.29865 0.22008 0.0
H20 H 0.24735 0.04399 0.14172 0.0
H21 H 0.13801 0.42994 0.10875 0.0
H22 H 0.30719 0.07778 0.09566 0.0
H23 H 0.23729 0.43864 0.13434 0.0
O24 O 0.05961 0.14234 0.14272 0.0
H25 H 0.85127 0.32982 0.11049 0.0
H26 H 0.88716 0.16548 0.18511 0.0
H27 H 0.79606 0.16517 0.15247 0.0
H28 H 0.77763 0.24782 0.11484 0.0
H29 H 0.94202 0.32815 0.14344 0.0
H30 H 0.82473 0.28043 0.26877 0.0
H31 H 0.85716 0.20192 0.30622 0.0
O32 O 0.99897 0.15785 0.18443 0.0
C33 C 0.11673 0.22085 0.21191 0.0
C34 C 0.93312 0.17705 0.27815 0.0
C35 C 0.8641 0.25432 0.26381 0.0
N36 N 0.94642 0.23114 0.2297 0.0
C37 C 0.96491 0.18839 0.25039 0.0
C38 C 0.89703 0.26438 0.23627 0.0
C39 C 0.88235 0.21031 0.28485 0.0
C40 C 0.12727 0.33796 0.12163 0.0
N41 N 0.15153 0.29013 0.13672 0.0
C42 C 0.15766 0.39206 0.12052 0.0
C43 C 0.21332 0.39694 0.13493 0.0
C44 C 0.23788 0.34789 0.15018 0.0
C45 C 0.20613 0.29454 0.15088 0.0
C46 C 0.25482 0.1566 0.08855 0.0
C47 C 0.18816 0.11919 0.13992 0.0
C48 C 0.20645 0.18974 0.09947 0.0
N49 N 0.17412 0.1711 0.12501 0.0
C50 C 0.23628 0.08493 0.1297 0.0
C51 C 0.26981 0.1039 0.10385 0.0
C52 C 0.02312 0.12413 0.16373 0.0
C53 C 0.85873 0.29365 0.12686 0.0
C54 C 0.87954 0.20151 0.16872 0.0
C55 C 0.82781 0.20116 0.15036 0.0
C56 C 0.81747 0.24758 0.12928 0.0
N57 N 0.91972 0.24695 0.16628 0.0
C58 C 0.9099 0.2926 0.14567 0.0
Co59 Co 0.77463 0.10806 0.63915 0.0
Co60 Co 0.75645 0.98547 0.68748 0.0
O61 O 0.7355 0.03403 0.6511 0.0
C62 C 0.78475 0.03095 0.58282 0.0
O63 O 0.80132 0.98879 0.60234 0.0
C64 C 0.63025 0.01684 0.69725 0.0
O65 O 0.64679 0.07212 0.69286 0.0
O66 O 0.76034 0.05616 0.71548 0.0
O67 O 0.77885 0.13476 0.68431 0.0
H68 H 0.87183 0.93482 0.78575 0.0
H69 H 0.66188 0.07219 0.60782 0.0
O70 O 0.77206 0.08229 0.59358 0.0
H71 H 0.61866 0.26408 0.65894 0.0
H72 H 0.80541 0.28518 0.56845 0.0
H73 H 0.87253 0.18248 0.66493 0.0
H74 H 0.71912 0.22013 0.66224 0.0
H75 H 0.75664 0.19268 0.58591 0.0
O76 O 0.66927 0.97577 0.69712 0.0
H77 H 0.84831 0.99271 0.73781 0.0
H78 H 0.70622 0.87494 0.71589 0.0
H79 H 0.92239 0.27515 0.64866 0.0
H80 H 0.56089 0.11467 0.6038 0.0
H81 H 0.88892 0.32711 0.59997 0.0
H82 H 0.53871 0.21119 0.62959 0.0
O83 O 0.85523 0.07143 0.64392 0.0
H84 H 0.66692 0.85392 0.60397 0.0
H85 H 0.83528 0.88089 0.67759 0.0
H86 H 0.83335 0.7936 0.64238 0.0
H87 H 0.74865 0.7797 0.60523 0.0
H88 H 0.67101 0.94084 0.63939 0.0
H89 H 0.72811 0.8159 0.76367 0.0
H90 H 0.8111 0.84609 0.79907 0.0
O91 O 0.8434 0.99462 0.67768 0.0
C92 C 0.77192 0.11103 0.71148 0.0
C93 C 0.83545 0.92135 0.77053 0.0
C94 C 0.75471 0.85465 0.75816 0.0
N95 N 0.77608 0.93707 0.724 0.0
C96 C 0.82211 0.95373 0.74326 0.0
C97 C 0.74254 0.88821 0.73114 0.0
C98 C 0.80128 0.87163 0.77804 0.0
C99 C 0.65274 0.11452 0.6188 0.0
N100 N 0.69642 0.14382 0.63507 0.0
C101 C 0.59541 0.13823 0.61657 0.0
C102 C 0.58297 0.19235 0.63108 0.0
C103 C 0.6278 0.22202 0.64757 0.0
C104 C 0.68458 0.1969 0.64938 0.0
C105 C 0.82063 0.26283 0.58962 0.0
C106 C 0.85789 0.20476 0.64376 0.0
C107 C 0.79345 0.2102 0.59949 0.0
N108 N 0.81239 0.1817 0.62619 0.0
C109 C 0.8862 0.25727 0.63465 0.0
C110 C 0.86742 0.28637 0.60733 0.0
C111 C 0.87576 0.02859 0.66053 0.0
C112 C 0.70406 0.85948 0.62005 0.0
C113 C 0.79853 0.87531 0.66134 0.0
C114 C 0.79754 0.8257 0.64155 0.0
C115 C 0.74996 0.81789 0.62074 0.0
N116 N 0.75342 0.91596 0.66047 0.0
C117 C 0.70653 0.90851 0.64022 0.0
Co118 Co 0.89287 0.7774 0.13929 0.0
Co119 Co 0.00691 0.7502 0.19142 0.0
O120 O 0.96201 0.73211 0.15309 0.0
C121 C 0.97104 0.77551 0.08318 0.0
O122 O 0.01433 0.79065 0.10248 0.0
C123 C 0.976 0.62375 0.19728 0.0
O124 O 0.92055 0.64005 0.19254 0.0
O125 O 0.93292 0.74968 0.21706 0.0
O126 O 0.86557 0.78949 0.18416 0.0
H127 H 0.04692 0.85342 0.29477 0.0
H128 H 0.9153 0.65892 0.1114 0.0
O129 O 0.91869 0.76728 0.09408 0.0
H130 H 0.71783 0.64395 0.162 0.0
H131 H 0.71815 0.82065 0.06823 0.0
H132 H 0.8367 0.89046 0.15918 0.0
H133 H 0.77394 0.73813 0.16308 0.0
H134 H 0.80372 0.76239 0.08759 0.0
O135 O 0.017 0.66287 0.19859 0.0
H136 H 0.99133 0.83219 0.24571 0.0
H137 H 0.11772 0.70072 0.22014 0.0
H138 H 0.75116 0.94985 0.14085 0.0
H139 H 0.8605 0.56397 0.10951 0.0
H140 H 0.69119 0.91499 0.09505 0.0
H141 H 0.76111 0.55604 0.13504 0.0
O142 O 0.93929 0.85216 0.14188 0.0
H143 H 0.15113 0.67101 0.11086 0.0
H144 H 0.10904 0.83409 0.18535 0.0
H145 H 0.20056 0.83726 0.15311 0.0
H146 H 0.22215 0.75521 0.11556 0.0
H147 H 0.05985 0.66992 0.14335 0.0
H148 H 0.17426 0.71971 0.26921 0.0
H149 H 0.13893 0.79658 0.30688 0.0
O150 O 0.99724 0.83805 0.18471 0.0
C151 C 0.88244 0.77359 0.21177 0.0
C152 C 0.06285 0.81987 0.27851 0.0
C153 C 0.13425 0.74476 0.26418 0.0
N154 N 0.05181 0.76609 0.22979 0.0
C155 C 0.03184 0.80807 0.25055 0.0
C156 C 0.1021 0.73426 0.23642 0.0
C157 C 0.11438 0.78788 0.28533 0.0
C158 C 0.87179 0.65595 0.12225 0.0
N159 N 0.84771 0.70405 0.13719 0.0
C160 C 0.84109 0.60202 0.12124 0.0
C161 C 0.78537 0.59757 0.13562 0.0
C162 C 0.76108 0.64687 0.15077 0.0
C163 C 0.79312 0.70004 0.15138 0.0
C164 C 0.74379 0.83621 0.08828 0.0
C165 C 0.81059 0.87481 0.13937 0.0
C166 C 0.79233 0.80345 0.09931 0.0
N167 N 0.82473 0.82267 0.12471 0.0
C168 C 0.7623 0.90871 0.12904 0.0
C169 C 0.7287 0.88915 0.10333 0.0
C170 C 0.97403 0.87121 0.16349 0.0
C171 C 0.14231 0.70692 0.12719 0.0
C172 C 0.11801 0.79834 0.16899 0.0
C173 C 0.16998 0.8003 0.15084 0.0
C174 C 0.18209 0.75423 0.12981 0.0
N175 N 0.07932 0.75169 0.16637 0.0
C176 C 0.09083 0.70641 0.14576 0.0
Co177 Co 0.22409 0.88979 0.63924 0.0
Co178 Co 0.25183 0.0102 0.688 0.0
O179 O 0.26923 0.96024 0.6515 0.0
C180 C 0.21997 0.96778 0.58311 0.0
O181 O 0.20736 0.01106 0.60278 0.0
C182 C 0.37477 0.968 0.69784 0.0
O183 O 0.35371 0.91456 0.69257 0.0
O184 O 0.24106 0.93978 0.71574 0.0
O185 O 0.21763 0.86298 0.68422 0.0
H186 H 0.13707 0.07082 0.78484 0.0
H187 H 0.33941 0.91638 0.60799 0.0
O188 O 0.22866 0.91553 0.59375 0.0
H189 H 0.36659 0.72134 0.65883 0.0
H190 H 0.17885 0.71476 0.5692 0.0
H191 H 0.11696 0.82746 0.66357 0.0
H192 H 0.27005 0.77326 0.66207 0.0
H193 H 0.23595 0.80245 0.58671 0.0
O194 O 0.33926 0.01213 0.69822 0.0
H195 H 0.15785 0.01087 0.73728 0.0
H196 H 0.31159 0.11484 0.71781 0.0
H197 H 0.05882 0.73973 0.64717 0.0
H198 H 0.4366 0.86584 0.60402 0.0
H199 H 0.08967 0.68274 0.5996 0.0
H200 H 0.45069 0.7677 0.62965 0.0
O201 O 0.14716 0.93277 0.64409 0.0
H202 H 0.35301 0.13208 0.6041 0.0
H203 H 0.18607 0.12386 0.67975 0.0
H204 H 0.19636 0.21066 0.64461 0.0
H205 H 0.28041 0.21511 0.60641 0.0
H206 H 0.34045 0.04588 0.63944 0.0
H207 H 0.29256 0.17578 0.76528 0.0
H208 H 0.20487 0.15373 0.79919 0.0
O209 O 0.16447 0.00904 0.67756 0.0
C210 C 0.22573 0.88587 0.71149 0.0
C211 C 0.17545 0.0808 0.77026 0.0
C212 C 0.26276 0.13968 0.75928 0.0
N213 N 0.23564 0.05962 0.72465 0.0
C214 C 0.18728 0.04725 0.74319 0.0
C215 C 0.27333 0.10501 0.73246 0.0
C216 C 0.21356 0.12728 0.77832 0.0
C217 C 0.34499 0.87335 0.61889 0.0
N218 N 0.299 0.84762 0.63505 0.0
C219 C 0.4002 0.84507 0.61667 0.0
C220 C 0.4081 0.79004 0.6311 0.0
C221 C 0.36095 0.76403 0.6475 0.0
C222 C 0.30641 0.79368 0.64929 0.0
C223 C 0.16496 0.73919 0.58997 0.0
C224 C 0.13077 0.80274 0.64296 0.0
C225 C 0.197 0.78899 0.59992 0.0
N226 N 0.17982 0.81997 0.62617 0.0
C227 C 0.09764 0.75316 0.63374 0.0
C228 C 0.11495 0.72124 0.60704 0.0
C229 C 0.12991 0.97735 0.66033 0.0
C230 C 0.31609 0.13058 0.62055 0.0
C231 C 0.22221 0.12521 0.66292 0.0
C232 C 0.22811 0.17463 0.64323 0.0
C233 C 0.27531 0.17713 0.62185 0.0
N234 N 0.26201 0.07951 0.66131 0.0
C235 C 0.30878 0.08191 0.64065 0.0
Co236 Co 0.10549 0.77822 0.89398 0.0
Co237 Co 0.99694 0.74679 0.83925 0.0
O238 O 0.03925 0.73028 0.87856 0.0
C239 C 0.0228 0.77292 0.94792 0.0
O240 O 0.98107 0.78666 0.92745 0.0
C241 C 0.03225 0.62149 0.83446 0.0
O242 O 0.08644 0.64007 0.84071 0.0
O243 O 0.07306 0.74881 0.81547 0.0
O244 O 0.1358 0.79221 0.84973 0.0
H245 H 0.9634 0.84783 0.73473 0.0
H246 H 0.08563 0.6585 0.92098 0.0
O247 O 0.07644 0.76662 0.93853 0.0
H248 H 0.28665 0.65208 0.87396 0.0
H249 H 0.27239 0.82739 0.96919 0.0
H250 H 0.15801 0.8944 0.87627 0.0
H251 H 0.22749 0.74425 0.87259 0.0
H252 H 0.19053 0.76616 0.94776 0.0
O253 O 0.99006 0.65904 0.83195 0.0
H254 H 0.01463 0.82926 0.78538 0.0
H255 H 0.89044 0.69344 0.80787 0.0
H256 H 0.23971 0.95684 0.89674 0.0
H257 H 0.14341 0.56546 0.92306 0.0
H258 H 0.29764 0.92335 0.94352 0.0
H259 H 0.24455 0.56181 0.89928 0.0
O260 O 0.05642 0.85088 0.89051 0.0
H261 H 0.84936 0.66378 0.91708 0.0
H262 H 0.89171 0.82708 0.84272 0.0
H263 H 0.7981 0.82787 0.87327 0.0
H264 H 0.77646 0.74578 0.9108 0.0
H265 H 0.94268 0.66501 0.88624 0.0
H266 H 0.83817 0.70995 0.75724 0.0
H267 H 0.87462 0.78767 0.7203 0.0
O268 O 0.0032 0.83498 0.84614 0.0
C269 C 0.12176 0.77553 0.82178 0.0
C270 C 0.94698 0.81393 0.75066 0.0
C271 C 0.87677 0.73648 0.76328 0.0
N272 N 0.95493 0.76111 0.79982 0.0
C273 C 0.97551 0.8036 0.77951 0.0
C274 C 0.90645 0.72742 0.79194 0.0
C275 C 0.89729 0.78004 0.74253 0.0
C276 C 0.12994 0.65743 0.91096 0.0
N277 N 0.15329 0.70677 0.89684 0.0
C278 C 0.16232 0.60457 0.91207 0.0
C279 C 0.21903 0.60252 0.89867 0.0
C280 C 0.24265 0.65313 0.88443 0.0
C281 C 0.20891 0.70516 0.88368 0.0
C282 C 0.24778 0.84226 0.94866 0.0
C283 C 0.18345 0.87922 0.8964 0.0
C284 C 0.20146 0.80774 0.93639 0.0
N285 N 0.17049 0.82605 0.91032 0.0
C286 C 0.22947 0.91491 0.90799 0.0
C287 C 0.26189 0.89612 0.93426 0.0
C288 C 0.02307 0.86879 0.86807 0.0
C289 C 0.8582 0.69968 0.90072 0.0
C290 C 0.88265 0.79125 0.85903 0.0
C291 C 0.82951 0.79187 0.87622 0.0
C292 C 0.81736 0.74576 0.89723 0.0
N293 N 0.92248 0.74589 0.86258 0.0
C294 C 0.91084 0.70048 0.88309 0.0
Co295 Co 0.22381 0.10341 0.394 0.0
Co296 Co 0.24554 0.98949 0.34089 0.0
O297 O 0.26614 0.03325 0.37915 0.0
C298 C 0.22115 0.02136 0.44804 0.0
O299 O 0.20433 0.98112 0.42743 0.0
C300 C 0.37229 0.0202 0.33338 0.0
O301 O 0.35611 0.07528 0.33869 0.0
O302 O 0.24471 0.06346 0.31567 0.0
O303 O 0.21331 0.13357 0.34959 0.0
H304 H 0.13359 0.95167 0.23979 0.0
H305 H 0.34135 0.07338 0.42159 0.0
O306 O 0.23201 0.07415 0.43874 0.0
H307 H 0.36663 0.27186 0.3743 0.0
H308 H 0.18748 0.27337 0.46877 0.0
H309 H 0.1149 0.16782 0.37409 0.0
H310 H 0.26924 0.221 0.37234 0.0
H311 H 0.24142 0.18617 0.44816 0.0
O312 O 0.33291 0.97941 0.33222 0.0
H313 H 0.15702 0.00476 0.28931 0.0
H314 H 0.29455 0.88125 0.30979 0.0
H315 H 0.05984 0.25507 0.3937 0.0
H316 H 0.43947 0.12275 0.42425 0.0
H317 H 0.09613 0.30849 0.44138 0.0
H318 H 0.45258 0.22264 0.40039 0.0
O319 O 0.14647 0.06154 0.39053 0.0
H320 H 0.32874 0.84435 0.41961 0.0
H321 H 0.16173 0.88754 0.34737 0.0
H322 H 0.15986 0.79598 0.37929 0.0
H323 H 0.24384 0.77389 0.41573 0.0
H324 H 0.3285 0.93574 0.3875 0.0
H325 H 0.27293 0.82713 0.26033 0.0
H326 H 0.19208 0.86242 0.22494 0.0
O327 O 0.15799 -0.00072 0.34927 0.0
C328 C 0.22561 0.11546 0.32168 0.0
C329 C 0.16896 0.9359 0.25502 0.0
C330 C 0.24728 0.86607 0.26652 0.0
N331 N 0.22685 0.94588 0.30254 0.0
C332 C 0.18225 0.96558 0.28318 0.0
C333 C 0.2593 0.89687 0.29449 0.0
C334 C 0.20188 0.88591 0.24666 0.0
C335 C 0.3466 0.11712 0.41147 0.0
N336 N 0.29961 0.14444 0.397 0.0
C337 C 0.4023 0.14474 0.41292 0.0
C338 C 0.40965 0.20074 0.39948 0.0
C339 C 0.36145 0.22837 0.38482 0.0
C340 C 0.30645 0.19933 0.38374 0.0
C341 C 0.17139 0.25065 0.44789 0.0
C342 C 0.13131 0.19124 0.39463 0.0
C343 C 0.20173 0.20127 0.43612 0.0
N344 N 0.18183 0.17257 0.40966 0.0
C345 C 0.09979 0.24043 0.40572 0.0
C346 C 0.12013 0.27032 0.43251 0.0
C347 C 0.12606 0.0251 0.37017 0.0
C348 C 0.292 0.85339 0.40374 0.0
C349 C 0.19837 0.87831 0.36322 0.0
C350 C 0.19712 0.82632 0.38119 0.0
C351 C 0.2443 0.81391 0.40159 0.0
N352 N 0.24534 0.91679 0.36545 0.0
C353 C 0.29173 0.90495 0.3854 0.0
Co354 Co 0.89193 0.2144 0.89448 0.0
Co355 Co 0.00049 0.24198 0.83931 0.0
O356 O 0.95964 0.2601 0.87886 0.0
C357 C 0.97513 0.21715 0.9483 0.0
O358 O 0.01624 0.20161 0.92785 0.0
C359 C 0.97227 0.36947 0.83479 0.0
O360 O 0.91675 0.35466 0.84066 0.0
O361 O 0.92379 0.24411 0.81603 0.0
O362 O 0.86069 0.20136 0.85032 0.0
H363 H 0.02733 0.13985 0.73451 0.0
H364 H 0.91597 0.33347 0.92138 0.0
O365 O 0.92172 0.22521 0.93895 0.0
H366 H 0.71415 0.34583 0.87564 0.0
H367 H 0.72405 0.17118 0.97009 0.0
H368 H 0.83581 0.0996 0.87726 0.0
H369 H 0.77084 0.25219 0.87348 0.0
H370 H 0.80769 0.22957 0.9484 0.0
O371 O 0.01185 0.32926 0.83228 0.0
H372 H 0.97735 0.1614 0.78518 0.0
H373 H 0.10917 0.29003 0.80754 0.0
H374 H 0.75224 0.04 0.89797 0.0
H375 H 0.86066 0.4279 0.92429 0.0
H376 H 0.69561 0.07581 0.9447 0.0
H377 H 0.75906 0.4345 0.90122 0.0
O378 O 0.93855 0.14014 0.8909 0.0
H379 H 0.15349 0.31663 0.91661 0.0
H380 H 0.1022 0.15698 0.84153 0.0
H381 H 0.1965 0.15156 0.87134 0.0
H382 H 0.22269 0.23182 0.90921 0.0
H383 H 0.0593 0.31995 0.88659 0.0
H384 H 0.16016 0.27062 0.75685 0.0
H385 H 0.11941 0.1948 0.72003 0.0
O386 O 0.99023 0.15411 0.84593 0.0
C387 C 0.87451 0.21851 0.82243 0.0
C388 C 0.04569 0.17281 0.75041 0.0
C389 C 0.12014 0.2463 0.76293 0.0
N390 N 0.04094 0.22604 0.79959 0.0
C391 C 0.01783 0.18485 0.77926 0.0
C392 C 0.09113 0.25704 0.79161 0.0
C393 C 0.09723 0.20378 0.74226 0.0
C394 C 0.87152 0.33587 0.9116 0.0
N395 N 0.84652 0.28734 0.89745 0.0
C396 C 0.84053 0.38951 0.91319 0.0
C397 C 0.78356 0.39321 0.90018 0.0
C398 C 0.75836 0.34349 0.8858 0.0
C399 C 0.79072 0.29063 0.88459 0.0
C400 C 0.74805 0.15534 0.94956 0.0
C401 C 0.81089 0.11584 0.89733 0.0
C402 C 0.79536 0.18826 0.93714 0.0
N403 N 0.82556 0.16875 0.91106 0.0
C404 C 0.76383 0.08173 0.90908 0.0
C405 C 0.73214 0.10181 0.93532 0.0
C406 C 0.97021 0.12094 0.86806 0.0
C407 C 0.14266 0.28149 0.90012 0.0
C408 C 0.11316 0.19198 0.85805 0.0
C409 C 0.16671 0.18874 0.8748 0.0
C410 C 0.18142 0.23383 0.89599 0.0
N411 N 0.07539 0.2389 0.86221 0.0
C412 C 0.08951 0.28327 0.88295 0.0
Co413 Co 0.77825 0.89408 0.39392 0.0
Co414 Co 0.75146 0.00757 0.34102 0.0
O415 O 0.7331 0.9626 0.37924 0.0
C416 C 0.77934 0.97654 0.44783 0.0
O417 O 0.79351 0.01735 0.427 0.0
C418 C 0.62707 0.96933 0.33353 0.0
O419 O 0.64703 0.91581 0.33952 0.0
O420 O 0.75667 0.93394 0.31561 0.0
O421 O 0.78853 0.86397 0.3495 0.0
H422 H 0.86207 0.05249 0.24036 0.0
H423 H 0.66039 0.92022 0.42225 0.0
O424 O 0.77029 0.92331 0.4387 0.0
H425 H 0.64065 0.72104 0.37501 0.0
H426 H 0.82285 0.72608 0.46867 0.0
H427 H 0.88879 0.83348 0.37325 0.0
H428 H 0.73641 0.77484 0.37275 0.0
H429 H 0.76509 0.81104 0.44831 0.0
O430 O 0.66363 0.01267 0.33213 0.0
H431 H 0.84099 -0.00248 0.28958 0.0
H432 H 0.69675 0.11318 0.31008 0.0
H433 H 0.94765 0.74853 0.3926 0.0
H434 H 0.56384 0.86788 0.42519 0.0
H435 H 0.91472 0.6942 0.44066 0.0
H436 H 0.5535 0.76768 0.40132 0.0
O437 O 0.85396 0.93861 0.38989 0.0
H438 H 0.65991 0.14694 0.4201 0.0
H439 H 0.82942 0.11391 0.34799 0.0
H440 H 0.82616 0.20494 0.38034 0.0
H441 H 0.74093 0.22189 0.41673 0.0
H442 H 0.6652 0.05629 0.38751 0.0
H443 H 0.71618 0.16928 0.26098 0.0
H444 H 0.79926 0.13888 0.22574 0.0
O445 O 0.83935 0.00252 0.3496 0.0
C446 C 0.77634 0.88213 0.32159 0.0
C447 C 0.82574 0.06613 0.25554 0.0
C448 C 0.74378 0.13163 0.26709 0.0
N449 N 0.76797 0.05243 0.30281 0.0
C450 C 0.81376 0.03538 0.28352 0.0
C451 C 0.73301 0.09974 0.29485 0.0
C452 C 0.7904 0.11453 0.2473 0.0
C453 C 0.65639 0.87631 0.41217 0.0
N454 N 0.70401 0.85045 0.39752 0.0
C455 C 0.60156 0.84701 0.41378 0.0
C456 C 0.59577 0.79082 0.40034 0.0
C457 C 0.64463 0.76465 0.38554 0.0
C458 C 0.69871 0.79534 0.3843 0.0
C459 C 0.8375 0.74922 0.44762 0.0
C460 C 0.87384 0.80964 0.39396 0.0
C461 C 0.80498 0.79733 0.43599 0.0
N462 N 0.82309 0.82655 0.40934 0.0
C463 C 0.9075 0.76176 0.4049 0.0
C464 C 0.88905 0.73136 0.43189 0.0
C465 C 0.87251 0.977 0.37007 0.0
C466 C 0.69716 0.14015 0.40425 0.0
C467 C 0.79222 0.12094 0.36379 0.0
C468 C 0.79056 0.17262 0.38201 0.0
C469 C 0.74269 0.18214 0.40238 0.0
N470 N 0.74739 0.07997 0.36574 0.0
C471 C 0.70028 0.08902 0.38564 0.0
C472 C 0.95778 0.45622 0.20111 0.0
C473 C 0.01674 0.43518 0.19923 0.0
C474 C 0.94523 0.51713 0.20096 0.0
C475 C 0.99109 0.55969 0.19912 0.0
H476 H 0.9207 0.42544 0.20216 0.0
H477 H 0.89901 0.53082 0.202 0.0
S478 S 0.15341 0.52819 0.19435 0.0
N479 N 0.12174 0.46214 0.19599 0.0
N480 N 0.09818 0.57636 0.19579 0.0
C481 C 0.0504 0.53937 0.19779 0.0
C482 C 0.0632 0.47727 0.19782 0.0
C483 C 0.46236 0.03648 0.70298 0.0
C484 C 0.44018 0.9782 0.70022 0.0
C485 C 0.52373 0.04821 0.70271 0.0
C486 C 0.56576 0.0022 0.69983 0.0
H487 H 0.43212 0.07378 0.70471 0.0
H488 H 0.53816 0.09401 0.70432 0.0
S489 S 0.53143 0.84134 0.69279 0.0
N490 N 0.46559 0.87356 0.69529 0.0
N491 N 0.58073 0.89561 0.69484 0.0
C492 C 0.54436 0.94349 0.69781 0.0
C493 C 0.48173 0.93152 0.69799 0.0
C494 C 0.94492 0.47689 0.83063 0.0
C495 C 0.98937 0.43311 0.83295 0.0
C496 C 0.95938 0.53744 0.83039 0.0
C497 C 0.01891 0.55691 0.83273 0.0
H498 H 0.89835 0.46445 0.82921 0.0
H499 H 0.92326 0.56918 0.82891 0.0
S500 S 0.15241 0.46021 0.83923 0.0
N501 N 0.09578 0.41355 0.83733 0.0
N502 N 0.12287 0.52711 0.83712 0.0
C503 C 0.06397 0.51358 0.83473 0.0
C504 C 0.04925 0.45183 0.83476 0.0
C505 C 0.47919 0.05107 0.32895 0.0
C506 C 0.43665 0.00528 0.33114 0.0
C507 C 0.54044 0.03888 0.32887 0.0
C508 C 0.56188 0.98034 0.33118 0.0
H509 H 0.46523 0.09702 0.32768 0.0
H510 H 0.57115 0.07595 0.32763 0.0
S511 S 0.46909 0.84395 0.33685 0.0
N512 N 0.42042 0.89867 0.33505 0.0
N513 N 0.53529 0.87574 0.33502 0.0
C514 C 0.51982 0.93391 0.33281 0.0
C515 C 0.45735 0.94635 0.33274 0.0
C516 C 0.94388 0.21937 1.00521 0.0
C517 C 0.98975 0.22132 0.98251 0.0
C518 C 0.95657 0.21917 0.03771 0.0
C519 C 0.01565 0.22147 0.04893 0.0
H520 H 0.89769 0.21654 0.99789 0.0
H521 H 0.91959 0.21659 0.05412 0.0
S522 S 0.15196 0.23144 0.99921 0.0
N523 N 0.0966 0.22857 0.97355 0.0
N524 N 0.12049 0.22864 0.03446 0.0
C525 C 0.06191 0.22534 0.02645 0.0
C526 C 0.04897 0.22508 0.99334 0.0
C527 C 0.78268 0.9595 0.53734 0.0
C528 C 0.78104 0.01853 0.5483 0.0
C529 C 0.7807 0.9463 0.50492 0.0
C530 C 0.77761 0.99158 0.48204 0.0
H531 H 0.78564 0.92297 0.55393 0.0
H532 H 0.7828 0.90017 0.49777 0.0
S533 S 0.77015 0.15348 0.49812 0.0
N534 N 0.77444 0.12268 0.53345 0.0
N535 N 0.77106 0.09792 0.4727 0.0
C536 C 0.77507 0.05077 0.49264 0.0
C537 C 0.77663 0.06421 0.52568 0.0
C538 C 0.04183 0.77406 0.0373 0.0
C539 C 0.98287 0.77072 0.04863 0.0
C540 C 0.05438 0.77306 1.0048 0.0
C541 C 0.00848 0.76919 0.98218 0.0
H542 H 0.07882 0.77818 0.05364 0.0
H543 H 0.10046 0.77685 0.9974 0.0
S544 S 0.84665 0.75539 0.9992 0.0
N545 N 0.8782 0.76026 0.03437 0.0
N546 N 0.9018 0.75881 0.97344 0.0
C547 C 0.94943 0.76423 0.99313 0.0
C548 C 0.93664 0.76482 0.02626 0.0
C549 C 0.22455 0.05181 0.50506 0.0
C550 C 0.22404 0.00634 0.48222 0.0
C551 C 0.22375 0.03883 0.53752 0.0
C552 C 0.22299 0.97984 0.54855 0.0
H553 H 0.22434 0.09795 0.49788 0.0
H554 H 0.22346 0.07554 0.55407 0.0
S555 S 0.22458 0.84431 0.49843 0.0
N556 N 0.22491 0.89977 0.47295 0.0
N557 N 0.22377 0.87541 0.53377 0.0
C558 C 0.22395 0.9339 0.52594 0.0
C559 C 0.22431 0.94713 0.49287 0.0
C560 C 0.13393 0.21798 0.27049 0.0
C561 C 0.15414 0.20462 0.23972 0.0
C562 C 0.16076 0.1929 0.29725 0.0
C563 C 0.20858 0.153 0.29436 0.0
H564 H 0.09495 0.2455 0.27403 0.0
H565 H 0.14103 0.20177 0.32012 0.0
S566 S 0.28658 0.11275 0.22001 0.0
N567 N 0.23161 0.15636 0.20859 0.0
N568 N 0.28095 0.10831 0.25885 0.0
C569 C 0.23274 0.14347 0.26408 0.0
C570 C 0.20587 0.16954 0.2368 0.0
C571 C 0.84928 0.22194 0.76474 0.0
C572 C 0.83621 0.20048 0.79527 0.0
C573 C 0.82405 0.19608 0.73773 0.0
C574 C 0.78544 0.14701 0.74005 0.0
H575 H 0.88177 0.25701 0.76144 0.0
H576 H 0.83821 0.2124 0.71489 0.0
S577 S 0.72656 0.08196 0.81441 0.0
N578 N 0.77358 0.13382 0.82618 0.0
N579 N 0.72773 0.08418 0.7754 0.0
C580 C 0.76754 0.12877 0.77042 0.0
C581 C 0.79247 0.15578 0.798 0.0
C582 C 0.84032 0.80388 0.29715 0.0
C583 C 0.79303 0.8444 0.29427 0.0
C584 C 0.86625 0.77778 0.27042 0.0
C585 C 0.84567 0.79076 0.23966 0.0
H586 H 0.86025 0.79512 0.32 0.0
H587 H 0.90487 0.74975 0.27394 0.0
S588 S 0.71424 0.88413 0.22005 0.0
N589 N 0.72067 0.88937 0.25883 0.0
N590 N 0.76836 0.8395 0.20863 0.0
C591 C 0.79447 0.8266 0.23679 0.0
C592 C 0.76849 0.85368 0.26405 0.0
C593 C 0.16971 0.80257 0.73699 0.0
C594 C 0.21017 0.85004 0.7398 0.0
C595 C 0.14451 0.77586 0.76375 0.0
C596 C 0.1592 0.79495 0.79454 0.0
H597 H 0.15443 0.78806 0.71397 0.0
H598 H 0.11095 0.74193 0.7601 0.0
S599 S 0.2727 0.90923 0.81476 0.0
N600 N 0.27047 0.90927 0.77575 0.0
N601 N 0.22443 0.85814 0.82604 0.0
C602 C 0.20412 0.8384 0.79766 0.0
C603 C 0.22917 0.86622 0.77034 0.0
C604 C 0.00475 0.02824 0.13583 0.0
C605 C 0.00929 0.06006 0.16436 0.0
C606 C 0.99301 0.96714 0.13577 0.0
C607 C 0.9869 0.93546 0.16424 0.0
H608 H 0.00977 0.05085 0.11337 0.0
H609 H 0.98945 0.9444 0.11326 0.0
S610 S 0.99566 -0.00206 0.24534 0.0
N611 N 0.00706 0.0553 0.2218 0.0
N612 N 0.98562 0.94049 0.22169 0.0
C613 C 0.9917 0.96667 0.19292 0.0
C614 C 0.00264 0.02901 0.19298 0.0
C615 C 0.02318 0.94588 0.66132 0.0
C616 C 0.06565 0.99177 0.65977 0.0
C617 C 0.96195 0.95824 0.66169 0.0
C618 C 0.94078 0.01689 0.65977 0.0
H619 H 0.03729 0.90007 0.66284 0.0
H620 H 0.93104 0.92145 0.66316 0.0
S621 S 0.03394 0.15284 0.65454 0.0
N622 N 0.08242 0.09791 0.65596 0.0
N623 N 0.96762 0.12121 0.65607 0.0
C624 C 0.98289 0.06306 0.65777 0.0
C625 C 0.04523 0.0505 0.65799 0.0
C626 C 0.98687 0.02445 0.89564 0.0
C627 C 0.98369 0.05672 0.8672 0.0
C628 C -0.00054 0.96361 0.89566 0.0
C629 C 0.00806 0.9325 0.8672 0.0
H630 H 0.98038 0.04651 0.91816 0.0
H631 H 0.00207 0.94066 0.91814 0.0
S632 S 0.00402 0.99598 0.78625 0.0
N633 N 0.99 0.05275 0.80977 0.0
N634 N 0.01311 0.93834 0.80985 0.0
C635 C 0.00448 0.96398 0.83857 0.0
C636 C 0.99256 0.02613 0.83856 0.0
C637 C 0.96824 0.99691 0.34199 0.0
C638 C 0.9365 0.99148 0.37052 0.0
C639 C 0.02997 0.00666 0.34204 0.0
C640 C 0.06154 0.01285 0.37061 0.0
H641 H 0.94546 0.99222 0.31953 0.0
H642 H 0.05297 0.01021 0.31958 0.0
S643 S 0.9985 0.00387 0.45157 0.0
N644 N 0.9408 0.99333 0.42796 0.0
N645 N 0.05649 0.01349 0.42807 0.0
C646 C 0.03007 0.0085 0.39925 0.0
C647 C 0.96759 -0.0027 0.3992 0.0
loop_
_geom_bond_atom_site_label_1
_geom_bond_atom_site_label_2
_geom_bond_distance
_geom_bond_site_symmetry_2
_ccdc_geom_bond_type
Co0 O2 2.143 . S
Co0 O8 2.074 . S
Co0 O11 2.093 . S
Co0 O24 2.097 . S
Co0 N41 2.151 . S
Co0 N49 2.214 . S
Co1 O2 2.160 . S
Co1 O7 2.058 . S
Co1 O17 2.057 1_455 S
Co1 O32 2.037 1_455 S
Co1 N36 2.145 1_455 S
Co1 N57 2.257 1_455 S
O2 Co0 2.143 . S
O2 Co1 2.160 . S
C3 O4 1.278 . S
C3 O11 1.224 . S
O4 C3 1.278 . S
C5 O6 1.245 . S
C5 O17 1.232 1_455 S
O6 C5 1.245 . S
O7 Co1 2.058 . S
O7 C33 1.269 . S
O8 Co0 2.074 . S
O8 C33 1.257 . S
H9 C34 0.930 . S
H10 C40 0.930 . S
O11 Co0 2.093 . S
O11 C3 1.224 . S
H12 C44 0.929 . S
H13 C46 0.930 . S
H14 C47 0.930 . S
H15 C45 0.929 . S
H16 C48 0.928 . S
O17 Co1 2.057 1_655 S
O17 C5 1.232 1_655 S
H18 C37 0.929 . S
H19 C38 0.929 . S
H20 C50 0.931 1_565 S
H21 C42 0.929 . S
H22 C51 0.930 1_565 S
H23 C43 0.931 . S
O24 Co0 2.097 . S
O24 C52 1.214 . S
H25 C53 0.929 . S
H26 C54 0.929 . S
H27 C55 0.930 . S
H28 C56 0.929 . S
H29 C58 0.930 . S
H30 C35 0.930 . S
H31 C39 0.930 . S
O32 Co1 2.037 1_655 S
O32 C52 1.234 1_655 S
C33 O7 1.269 . S
C33 O8 1.257 . S
C34 H9 0.930 . S
C34 C37 1.388 . S
C34 C39 1.418 . S
C35 H30 0.930 . S
C35 C38 1.404 . S
C35 C39 1.353 . S
N36 Co1 2.145 1_655 S
N36 C37 1.397 . S
N36 C38 1.334 . S
C37 H18 0.929 . S
C37 C34 1.388 . S
C37 N36 1.397 . S
C38 H19 0.929 . S
C38 C35 1.404 . S
C38 N36 1.334 . S
C39 H31 0.930 . S
C39 C34 1.418 . S
C39 C35 1.353 . S
C40 H10 0.930 . S
C40 N41 1.330 . S
C40 C42 1.446 . S
N41 Co0 2.151 . S
N41 C40 1.330 . S
N41 C45 1.418 . S
C42 H21 0.929 . S
C42 C40 1.446 . S
C42 C43 1.332 . S
C43 H23 0.931 . S
C43 C42 1.332 . S
C43 C44 1.267 . S
C44 H12 0.929 . S
C44 C43 1.267 . S
C44 C45 1.251 . S
C45 H15 0.929 . S
C45 N41 1.418 . S
C45 C44 1.251 . S
C46 H13 0.930 . S
C46 C48 1.406 . S
C46 C51 1.261 . S
C47 H14 0.930 . S
C47 N49 1.325 . S
C47 C50 1.357 . S
C48 H16 0.928 . S
C48 C46 1.406 . S
C48 N49 1.261 . S
N49 Co0 2.214 . S
N49 C47 1.325 . S
N49 C48 1.261 . S
C50 H20 0.931 1_545 S
C50 C47 1.357 . S
C50 C51 1.312 . S
C51 H22 0.930 1_545 S
C51 C46 1.261 . S
C51 C50 1.312 . S
C52 O24 1.214 . S
C52 O32 1.234 1_455 S
C53 H25 0.929 . S
C53 C56 1.391 . S
C53 C58 1.391 . S
C54 H26 0.929 . S
C54 C55 1.390 . S
C54 N57 1.391 . S
C55 H27 0.930 . S
C55 C54 1.390 . S
C55 C56 1.392 . S
C56 H28 0.929 . S
C56 C53 1.391 . S
C56 C55 1.392 . S
N57 Co1 2.257 1_655 S
N57 C54 1.391 . S
N57 C58 1.388 . S
C58 H29 0.930 . S
C58 C53 1.391 . S
C58 N57 1.388 . S
Co59 O61 2.143 . S
Co59 O67 2.074 . S
Co59 O70 2.093 . S
Co59 O83 2.097 . S
Co59 N100 2.151 . S
Co59 N108 2.214 . S
Co60 O61 2.160 . S
Co60 O66 2.058 . S
Co60 O76 2.057 1_545 S
Co60 O91 2.037 1_545 S
Co60 N95 2.145 1_545 S
Co60 N116 2.257 1_545 S
O61 Co59 2.143 . S
O61 Co60 2.160 . S
C62 O63 1.278 . S
C62 O70 1.224 . S
O63 C62 1.278 . S
C64 O65 1.245 . S
C64 O76 1.232 1_545 S
O65 C64 1.245 . S
O66 Co60 2.058 . S
O66 C92 1.269 . S
O67 Co59 2.074 . S
O67 C92 1.257 . S
H68 C93 0.930 . S
H69 C99 0.930 . S
O70 Co59 2.093 . S
O70 C62 1.224 . S
H71 C103 0.929 . S
H72 C105 0.930 . S
H73 C106 0.930 . S
H74 C104 0.929 . S
H75 C107 0.928 . S
O76 Co60 2.057 1_565 S
O76 C64 1.232 1_565 S
H77 C96 0.929 . S
H78 C97 0.929 . S
H79 C109 0.931 1_455 S
H80 C101 0.929 . S
H81 C110 0.930 1_455 S
H82 C102 0.931 . S
O83 Co59 2.097 . S
O83 C111 1.214 . S
H84 C112 0.929 . S
H85 C113 0.929 . S
H86 C114 0.930 . S
H87 C115 0.929 . S
H88 C117 0.930 . S
H89 C94 0.930 . S
H90 C98 0.930 . S
O91 Co60 2.037 1_565 S
O91 C111 1.234 1_565 S
C92 O66 1.269 . S
C92 O67 1.257 . S
C93 H68 0.930 . S
C93 C96 1.388 . S
C93 C98 1.418 . S
C94 H89 0.930 . S
C94 C97 1.404 . S
C94 C98 1.353 . S
N95 Co60 2.145 1_565 S
N95 C96 1.397 . S
N95 C97 1.334 . S
C96 H77 0.929 . S
C96 C93 1.388 . S
C96 N95 1.397 . S
C97 H78 0.929 . S
C97 C94 1.404 . S
C97 N95 1.334 . S
C98 H90 0.930 . S
C98 C93 1.418 . S
C98 C94 1.353 . S
C99 H69 0.930 . S
C99 N100 1.330 . S
C99 C101 1.446 . S
N100 Co59 2.151 . S
N100 C99 1.330 . S
N100 C104 1.418 . S
C101 H80 0.929 . S
C101 C99 1.446 . S
C101 C102 1.332 . S
C102 H82 0.931 . S
C102 C101 1.332 . S
C102 C103 1.267 . S
C103 H71 0.929 . S
C103 C102 1.267 . S
C103 C104 1.251 . S
C104 H74 0.929 . S
C104 N100 1.418 . S
C104 C103 1.251 . S
C105 H72 0.930 . S
C105 C107 1.406 . S
C105 C110 1.261 . S
C106 H73 0.930 . S
C106 N108 1.325 . S
C106 C109 1.357 . S
C107 H75 0.928 . S
C107 C105 1.406 . S
C107 N108 1.261 . S
N108 Co59 2.214 . S
N108 C106 1.325 . S
N108 C107 1.261 . S
C109 H79 0.931 1_655 S
C109 C106 1.357 . S
C109 C110 1.312 . S
C110 H81 0.930 1_655 S
C110 C105 1.261 . S
C110 C109 1.312 . S
C111 O83 1.214 . S
C111 O91 1.234 1_545 S
C112 H84 0.929 . S
C112 C115 1.391 . S
C112 C117 1.391 . S
C113 H85 0.929 . S
C113 C114 1.390 . S
C113 N116 1.391 . S
C114 H86 0.930 . S
C114 C113 1.390 . S
C114 C115 1.392 . S
C115 H87 0.929 . S
C115 C112 1.391 . S
C115 C114 1.392 . S
N116 Co60 2.257 1_565 S
N116 C113 1.391 . S
N116 C117 1.388 . S
C117 H88 0.930 . S
C117 C112 1.391 . S
C117 N116 1.388 . S
Co118 O120 2.143 . S
Co118 O126 2.074 . S
Co118 O129 2.093 . S
Co118 O142 2.097 . S
Co118 N159 2.151 . S
Co118 N167 2.214 . S
Co119 O120 2.160 . S
Co119 O125 2.058 . S
Co119 O135 2.057 1_655 S
Co119 O150 2.037 1_655 S
Co119 N154 2.145 1_655 S
Co119 N175 2.257 1_655 S
O120 Co118 2.143 . S
O120 Co119 2.160 . S
C121 O122 1.278 . S
C121 O129 1.224 . S
O122 C121 1.278 . S
C123 O124 1.245 . S
C123 O135 1.232 1_655 S
O124 C123 1.245 . S
O125 Co119 2.058 . S
O125 C151 1.269 . S
O126 Co118 2.074 . S
O126 C151 1.257 . S
H127 C152 0.930 . S
H128 C158 0.930 . S
O129 Co118 2.093 . S
O129 C121 1.224 . S
H130 C162 0.929 . S
H131 C164 0.930 . S
H132 C165 0.930 . S
H133 C163 0.929 . S
H134 C166 0.928 . S
O135 Co119 2.057 1_455 S
O135 C123 1.232 1_455 S
H136 C155 0.929 . S
H137 C156 0.929 . S
H138 C168 0.931 1_545 S
H139 C160 0.929 . S
H140 C169 0.930 1_545 S
H141 C161 0.931 . S
O142 Co118 2.097 . S
O142 C170 1.214 . S
H143 C171 0.929 . S
H144 C172 0.929 . S
H145 C173 0.930 . S
H146 C174 0.929 . S
H147 C176 0.930 . S
H148 C153 0.930 . S
H149 C157 0.930 . S
O150 Co119 2.037 1_455 S
O150 C170 1.234 1_455 S
C151 O125 1.269 . S
C151 O126 1.257 . S
C152 H127 0.930 . S
C152 C155 1.388 . S
C152 C157 1.418 . S
C153 H148 0.930 . S
C153 C156 1.404 . S
C153 C157 1.353 . S
N154 Co119 2.145 1_455 S
N154 C155 1.397 . S
N154 C156 1.334 . S
C155 H136 0.929 . S
C155 C152 1.388 . S
C155 N154 1.397 . S
C156 H137 0.929 . S
C156 C153 1.404 . S
C156 N154 1.334 . S
C157 H149 0.930 . S
C157 C152 1.418 . S
C157 C153 1.353 . S
C158 H128 0.930 . S
C158 N159 1.330 . S
C158 C160 1.446 . S
N159 Co118 2.151 . S
N159 C158 1.330 . S
N159 C163 1.418 . S
C160 H139 0.929 . S
C160 C158 1.446 . S
C160 C161 1.332 . S
C161 H141 0.931 . S
C161 C160 1.332 . S
C161 C162 1.267 . S
C162 H130 0.929 . S
C162 C161 1.267 . S
C162 C163 1.251 . S
C163 H133 0.929 . S
C163 N159 1.418 . S
C163 C162 1.251 . S
C164 H131 0.930 . S
C164 C166 1.406 . S
C164 C169 1.261 . S
C165 H132 0.930 . S
C165 N167 1.325 . S
C165 C168 1.357 . S
C166 H134 0.928 . S
C166 C164 1.406 . S
C166 N167 1.261 . S
N167 Co118 2.214 . S
N167 C165 1.325 . S
N167 C166 1.261 . S
C168 H138 0.931 1_565 S
C168 C165 1.357 . S
C168 C169 1.312 . S
C169 H140 0.930 1_565 S
C169 C164 1.261 . S
C169 C168 1.312 . S
C170 O142 1.214 . S
C170 O150 1.234 1_655 S
C171 H143 0.929 . S
C171 C174 1.391 . S
C171 C176 1.391 . S
C172 H144 0.929 . S
C172 C173 1.390 . S
C172 N175 1.391 . S
C173 H145 0.930 . S
C173 C172 1.390 . S
C173 C174 1.392 . S
C174 H146 0.929 . S
C174 C171 1.391 . S
C174 C173 1.392 . S
N175 Co119 2.257 1_455 S
N175 C172 1.391 . S
N175 C176 1.388 . S
C176 H147 0.930 . S
C176 C171 1.391 . S
C176 N175 1.388 . S
Co177 O179 2.143 . S
Co177 O185 2.074 . S
Co177 O188 2.093 . S
Co177 O201 2.097 . S
Co177 N218 2.151 . S
Co177 N226 2.214 . S
Co178 O179 2.160 . S
Co178 O184 2.058 . S
Co178 O194 2.057 1_565 S
Co178 O209 2.037 1_565 S
Co178 N213 2.145 1_565 S
Co178 N234 2.257 1_565 S
O179 Co177 2.143 . S
O179 Co178 2.160 . S
C180 O181 1.278 . S
C180 O188 1.224 . S
O181 C180 1.278 . S
C182 O183 1.245 . S
C182 O194 1.232 1_565 S
O183 C182 1.245 . S
O184 Co178 2.058 . S
O184 C210 1.269 . S
O185 Co177 2.074 . S
O185 C210 1.257 . S
H186 C211 0.930 . S
H187 C217 0.930 . S
O188 Co177 2.093 . S
O188 C180 1.224 . S
H189 C221 0.929 . S
H190 C223 0.930 . S
H191 C224 0.930 . S
H192 C222 0.929 . S
H193 C225 0.928 . S
O194 Co178 2.057 1_545 S
O194 C182 1.232 1_545 S
H195 C214 0.929 . S
H196 C215 0.929 . S
H197 C227 0.931 1_655 S
H198 C219 0.929 . S
H199 C228 0.930 1_655 S
H200 C220 0.931 . S
O201 Co177 2.097 . S
O201 C229 1.214 . S
H202 C230 0.929 . S
H203 C231 0.929 . S
H204 C232 0.930 . S
H205 C233 0.929 . S
H206 C235 0.930 . S
H207 C212 0.930 . S
H208 C216 0.930 . S
O209 Co178 2.037 1_545 S
O209 C229 1.234 1_545 S
C210 O184 1.269 . S
C210 O185 1.257 . S
C211 H186 0.930 . S
C211 C214 1.388 . S
C211 C216 1.418 . S
C212 H207 0.930 . S
C212 C215 1.404 . S
C212 C216 1.353 . S
N213 Co178 2.145 1_545 S
N213 C214 1.397 . S
N213 C215 1.334 . S
C214 H195 0.929 . S
C214 C211 1.388 . S
C214 N213 1.397 . S
C215 H196 0.929 . S
C215 C212 1.404 . S
C215 N213 1.334 . S
C216 H208 0.930 . S
C216 C211 1.418 . S
C216 C212 1.353 . S
C217 H187 0.930 . S
C217 N218 1.330 . S
C217 C219 1.446 . S
N218 Co177 2.151 . S
N218 C217 1.330 . S
N218 C222 1.418 . S
C219 H198 0.929 . S
C219 C217 1.446 . S
C219 C220 1.332 . S
C220 H200 0.931 . S
C220 C219 1.332 . S
C220 C221 1.267 . S
C221 H189 0.929 . S
C221 C220 1.267 . S
C221 C222 1.251 . S
C222 H192 0.929 . S
C222 N218 1.418 . S
C222 C221 1.251 . S
C223 H190 0.930 . S
C223 C225 1.406 . S
C223 C228 1.261 . S
C224 H191 0.930 . S
C224 N226 1.325 . S
C224 C227 1.357 . S
C225 H193 0.928 . S
C225 C223 1.406 . S
C225 N226 1.261 . S
N226 Co177 2.214 . S
N226 C224 1.325 . S
N226 C225 1.261 . S
C227 H197 0.931 1_455 S
C227 C224 1.357 . S
C227 C228 1.312 . S
C228 H199 0.930 1_455 S
C228 C223 1.261 . S
C228 C227 1.312 . S
C229 O201 1.214 . S
C229 O209 1.234 1_565 S
C230 H202 0.929 . S
C230 C233 1.391 . S
C230 C235 1.391 . S
C231 H203 0.929 . S
C231 C232 1.390 . S
C231 N234 1.391 . S
C232 H204 0.930 . S
C232 C231 1.390 . S
C232 C233 1.392 . S
C233 H205 0.929 . S
C233 C230 1.391 . S
C233 C232 1.392 . S
N234 Co178 2.257 1_545 S
N234 C231 1.391 . S
N234 C235 1.388 . S
C235 H206 0.930 . S
C235 C230 1.391 . S
C235 N234 1.388 . S
Co236 O238 2.143 . S
Co236 O244 2.074 . S
Co236 O247 2.093 . S
Co236 O260 2.097 . S
Co236 N277 2.151 . S
Co236 N285 2.214 . S
Co237 O238 2.160 . S
Co237 O243 2.058 . S
Co237 O253 2.057 1_455 S
Co237 O268 2.037 1_455 S
Co237 N272 2.145 1_455 S
Co237 N293 2.257 1_455 S
O238 Co236 2.143 . S
O238 Co237 2.160 . S
C239 O240 1.278 . S
C239 O247 1.224 . S
O240 C239 1.278 . S
C241 O242 1.245 . S
C241 O253 1.232 1_455 S
O242 C241 1.245 . S
O243 Co237 2.058 . S
O243 C269 1.269 . S
O244 Co236 2.074 . S
O244 C269 1.257 . S
H245 C270 0.930 . S
H246 C276 0.930 . S
O247 Co236 2.093 . S
O247 C239 1.224 . S
H248 C280 0.929 . S
H249 C282 0.930 . S
H250 C283 0.930 . S
H251 C281 0.929 . S
H252 C284 0.928 . S
O253 Co237 2.057 1_655 S
O253 C241 1.232 1_655 S
H254 C273 0.929 . S
H255 C274 0.929 . S
H256 C286 0.931 1_545 S
H257 C278 0.929 . S
H258 C287 0.930 1_545 S
H259 C279 0.931 . S
O260 Co236 2.097 . S
O260 C288 1.214 . S
H261 C289 0.929 . S
H262 C290 0.929 . S
H263 C291 0.930 . S
H264 C292 0.929 . S
H265 C294 0.930 . S
H266 C271 0.930 . S
H267 C275 0.930 . S
O268 Co237 2.037 1_655 S
O268 C288 1.234 1_655 S
C269 O243 1.269 . S
C269 O244 1.257 . S
C270 H245 0.930 . S
C270 C273 1.388 . S
C270 C275 1.418 . S
C271 H266 0.930 . S
C271 C274 1.404 . S
C271 C275 1.353 . S
N272 Co237 2.145 1_655 S
N272 C273 1.397 . S
N272 C274 1.334 . S
C273 H254 0.929 . S
C273 C270 1.388 . S
C273 N272 1.397 . S
C274 H255 0.929 . S
C274 C271 1.404 . S
C274 N272 1.334 . S
C275 H267 0.930 . S
C275 C270 1.418 . S
C275 C271 1.353 . S
C276 H246 0.930 . S
C276 N277 1.330 . S
C276 C278 1.446 . S
N277 Co236 2.151 . S
N277 C276 1.330 . S
N277 C281 1.418 . S
C278 H257 0.929 . S
C278 C276 1.446 . S
C278 C279 1.332 . S
C279 H259 0.931 . S
C279 C278 1.332 . S
C279 C280 1.267 . S
C280 H248 0.929 . S
C280 C279 1.267 . S
C280 C281 1.251 . S
C281 H251 0.929 . S
C281 N277 1.418 . S
C281 C280 1.251 . S
C282 H249 0.930 . S
C282 C284 1.406 . S
C282 C287 1.261 . S
C283 H250 0.930 . S
C283 N285 1.325 . S
C283 C286 1.357 . S
C284 H252 0.928 . S
C284 C282 1.406 . S
C284 N285 1.261 . S
N285 Co236 2.214 . S
N285 C283 1.325 . S
N285 C284 1.261 . S
C286 H256 0.931 1_565 S
C286 C283 1.357 . S
C286 C287 1.312 . S
C287 H258 0.930 1_565 S
C287 C282 1.261 . S
C287 C286 1.312 . S
C288 O260 1.214 . S
C288 O268 1.234 1_455 S
C289 H261 0.929 . S
C289 C292 1.391 . S
C289 C294 1.391 . S
C290 H262 0.929 . S
C290 C291 1.390 . S
C290 N293 1.391 . S
C291 H263 0.930 . S
C291 C290 1.390 . S
C291 C292 1.392 . S
C292 H264 0.929 . S
C292 C289 1.391 . S
C292 C291 1.392 . S
N293 Co237 2.257 1_655 S
N293 C290 1.391 . S
N293 C294 1.388 . S
C294 H265 0.930 . S
C294 C289 1.391 . S
C294 N293 1.388 . S
Co295 O297 2.143 . S
Co295 O303 2.074 . S
Co295 O306 2.093 . S
Co295 O319 2.097 . S
Co295 N336 2.151 . S
Co295 N344 2.214 . S
Co296 O297 2.160 . S
Co296 O302 2.058 . S
Co296 O312 2.057 1_545 S
Co296 O327 2.037 1_545 S
Co296 N331 2.145 1_545 S
Co296 N352 2.257 1_545 S
O297 Co295 2.143 . S
O297 Co296 2.160 . S
C298 O299 1.278 . S
C298 O306 1.224 . S
O299 C298 1.278 . S
C300 O301 1.245 . S
C300 O312 1.232 1_545 S
O301 C300 1.245 . S
O302 Co296 2.058 . S
O302 C328 1.269 . S
O303 Co295 2.074 . S
O303 C328 1.257 . S
H304 C329 0.930 . S
H305 C335 0.930 . S
O306 Co295 2.093 . S
O306 C298 1.224 . S
H307 C339 0.929 . S
H308 C341 0.930 . S
H309 C342 0.930 . S
H310 C340 0.929 . S
H311 C343 0.928 . S
O312 Co296 2.057 1_565 S
O312 C300 1.232 1_565 S
H313 C332 0.929 . S
H314 C333 0.929 . S
H315 C345 0.931 1_655 S
H316 C337 0.929 . S
H317 C346 0.930 1_655 S
H318 C338 0.931 . S
O319 Co295 2.097 . S
O319 C347 1.214 . S
H320 C348 0.929 . S
H321 C349 0.929 . S
H322 C350 0.930 . S
H323 C351 0.929 . S
H324 C353 0.930 . S
H325 C330 0.930 . S
H326 C334 0.930 . S
O327 Co296 2.037 1_565 S
O327 C347 1.234 1_565 S
C328 O302 1.269 . S
C328 O303 1.257 . S
C329 H304 0.930 . S
C329 C332 1.388 . S
C329 C334 1.418 . S
C330 H325 0.930 . S
C330 C333 1.404 . S
C330 C334 1.353 . S
N331 Co296 2.145 1_565 S
N331 C332 1.397 . S
N331 C333 1.334 . S
C332 H313 0.929 . S
C332 C329 1.388 . S
C332 N331 1.397 . S
C333 H314 0.929 . S
C333 C330 1.404 . S
C333 N331 1.334 . S
C334 H326 0.930 . S
C334 C329 1.418 . S
C334 C330 1.353 . S
C335 H305 0.930 . S
C335 N336 1.330 . S
C335 C337 1.446 . S
N336 Co295 2.151 . S
N336 C335 1.330 . S
N336 C340 1.418 . S
C337 H316 0.929 . S
C337 C335 1.446 . S
C337 C338 1.332 . S
C338 H318 0.931 . S
C338 C337 1.332 . S
C338 C339 1.267 . S
C339 H307 0.929 . S
C339 C338 1.267 . S
C339 C340 1.251 . S
C340 H310 0.929 . S
C340 N336 1.418 . S
C340 C339 1.251 . S
C341 H308 0.930 . S
C341 C343 1.406 . S
C341 C346 1.261 . S
C342 H309 0.930 . S
C342 N344 1.325 . S
C342 C345 1.357 . S
C343 H311 0.928 . S
C343 C341 1.406 . S
C343 N344 1.261 . S
N344 Co295 2.214 . S
N344 C342 1.325 . S
N344 C343 1.261 . S
C345 H315 0.931 1_455 S
C345 C342 1.357 . S
C345 C346 1.312 . S
C346 H317 0.930 1_455 S
C346 C341 1.261 . S
C346 C345 1.312 . S
C347 O319 1.214 . S
C347 O327 1.234 1_545 S
C348 H320 0.929 . S
C348 C351 1.391 . S
C348 C353 1.391 . S
C349 H321 0.929 . S
C349 C350 1.390 . S
C349 N352 1.391 . S
C350 H322 0.930 . S
C350 C349 1.390 . S
C350 C351 1.392 . S
C351 H323 0.929 . S
C351 C348 1.391 . S
C351 C350 1.392 . S
N352 Co296 2.257 1_565 S
N352 C349 1.391 . S
N352 C353 1.388 . S
C353 H324 0.930 . S
C353 C348 1.391 . S
C353 N352 1.388 . S
Co354 O356 2.143 . S
Co354 O362 2.074 . S
Co354 O365 2.093 . S
Co354 O378 2.097 . S
Co354 N395 2.151 . S
Co354 N403 2.214 . S
Co355 O356 2.160 . S
Co355 O361 2.058 . S
Co355 O371 2.057 1_655 S
Co355 O386 2.037 1_655 S
Co355 N390 2.145 1_655 S
Co355 N411 2.257 1_655 S
O356 Co354 2.143 . S
O356 Co355 2.160 . S
C357 O358 1.278 . S
C357 O365 1.224 . S
O358 C357 1.278 . S
C359 O360 1.245 . S
C359 O371 1.232 1_655 S
O360 C359 1.245 . S
O361 Co355 2.058 . S
O361 C387 1.269 . S
O362 Co354 2.074 . S
O362 C387 1.257 . S
H363 C388 0.930 . S
H364 C394 0.930 . S
O365 Co354 2.093 . S
O365 C357 1.224 . S
H366 C398 0.929 . S
H367 C400 0.930 . S
H368 C401 0.930 . S
H369 C399 0.929 . S
H370 C402 0.928 . S
O371 Co355 2.057 1_455 S
O371 C359 1.232 1_455 S
H372 C391 0.929 . S
H373 C392 0.929 . S
H374 C404 0.931 1_565 S
H375 C396 0.929 . S
H376 C405 0.930 1_565 S
H377 C397 0.931 . S
O378 Co354 2.097 . S
O378 C406 1.214 . S
H379 C407 0.929 . S
H380 C408 0.929 . S
H381 C409 0.930 . S
H382 C410 0.929 . S
H383 C412 0.930 . S
H384 C389 0.930 . S
H385 C393 0.930 . S
O386 Co355 2.037 1_455 S
O386 C406 1.234 1_455 S
C387 O361 1.269 . S
C387 O362 1.257 . S
C388 H363 0.930 . S
C388 C391 1.388 . S
C388 C393 1.418 . S
C389 H384 0.930 . S
C389 C392 1.404 . S
C389 C393 1.353 . S
N390 Co355 2.145 1_455 S
N390 C391 1.397 . S
N390 C392 1.334 . S
C391 H372 0.929 . S
C391 C388 1.388 . S
C391 N390 1.397 . S
C392 H373 0.929 . S
C392 C389 1.404 . S
C392 N390 1.334 . S
C393 H385 0.930 . S
C393 C388 1.418 . S
C393 C389 1.353 . S
C394 H364 0.930 . S
C394 N395 1.330 . S
C394 C396 1.446 . S
N395 Co354 2.151 . S
N395 C394 1.330 . S
N395 C399 1.418 . S
C396 H375 0.929 . S
C396 C394 1.446 . S
C396 C397 1.332 . S
C397 H377 0.931 . S
C397 C396 1.332 . S
C397 C398 1.267 . S
C398 H366 0.929 . S
C398 C397 1.267 . S
C398 C399 1.251 . S
C399 H369 0.929 . S
C399 N395 1.418 . S
C399 C398 1.251 . S
C400 H367 0.930 . S
C400 C402 1.406 . S
C400 C405 1.261 . S
C401 H368 0.930 . S
C401 N403 1.325 . S
C401 C404 1.357 . S
C402 H370 0.928 . S
C402 C400 1.406 . S
C402 N403 1.261 . S
N403 Co354 2.214 . S
N403 C401 1.325 . S
N403 C402 1.261 . S
C404 H374 0.931 1_545 S
C404 C401 1.357 . S
C404 C405 1.312 . S
C405 H376 0.930 1_545 S
C405 C400 1.261 . S
C405 C404 1.312 . S
C406 O378 1.214 . S
C406 O386 1.234 1_655 S
C407 H379 0.929 . S
C407 C410 1.391 . S
C407 C412 1.391 . S
C408 H380 0.929 . S
C408 C409 1.390 . S
C408 N411 1.391 . S
C409 H381 0.930 . S
C409 C408 1.390 . S
C409 C410 1.392 . S
C410 H382 0.929 . S
C410 C407 1.391 . S
C410 C409 1.392 . S
N411 Co355 2.257 1_455 S
N411 C408 1.391 . S
N411 C412 1.388 . S
C412 H383 0.930 . S
C412 C407 1.391 . S
C412 N411 1.388 . S
Co413 O415 2.143 . S
Co413 O421 2.074 . S
Co413 O424 2.093 . S
Co413 O437 2.097 . S
Co413 N454 2.151 . S
Co413 N462 2.214 . S
Co414 O415 2.160 . S
Co414 O420 2.058 . S
Co414 O430 2.057 1_565 S
Co414 O445 2.037 1_565 S
Co414 N449 2.145 1_565 S
Co414 N470 2.257 1_565 S
O415 Co413 2.143 . S
O415 Co414 2.160 . S
C416 O417 1.278 . S
C416 O424 1.224 . S
O417 C416 1.278 . S
C418 O419 1.245 . S
C418 O430 1.232 1_565 S
O419 C418 1.245 . S
O420 Co414 2.058 . S
O420 C446 1.269 . S
O421 Co413 2.074 . S
O421 C446 1.257 . S
H422 C447 0.930 . S
H423 C453 0.930 . S
O424 Co413 2.093 . S
O424 C416 1.224 . S
H425 C457 0.929 . S
H426 C459 0.930 . S
H427 C460 0.930 . S
H428 C458 0.929 . S
H429 C461 0.928 . S
O430 Co414 2.057 1_545 S
O430 C418 1.232 1_545 S
H431 C450 0.929 . S
H432 C451 0.929 . S
H433 C463 0.931 1_455 S
H434 C455 0.929 . S
H435 C464 0.930 1_455 S
H436 C456 0.931 . S
O437 Co413 2.097 . S
O437 C465 1.214 . S
H438 C466 0.929 . S
H439 C467 0.929 . S
H440 C468 0.930 . S
H441 C469 0.929 . S
H442 C471 0.930 . S
H443 C448 0.930 . S
H444 C452 0.930 . S
O445 Co414 2.037 1_545 S
O445 C465 1.234 1_545 S
C446 O420 1.269 . S
C446 O421 1.257 . S
C447 H422 0.930 . S
C447 C450 1.388 . S
C447 C452 1.418 . S
C448 H443 0.930 . S
C448 C451 1.404 . S
C448 C452 1.353 . S
N449 Co414 2.145 1_545 S
N449 C450 1.397 . S
N449 C451 1.334 . S
C450 H431 0.929 . S
C450 C447 1.388 . S
C450 N449 1.397 . S
C451 H432 0.929 . S
C451 C448 1.404 . S
C451 N449 1.334 . S
C452 H444 0.930 . S
C452 C447 1.418 . S
C452 C448 1.353 . S
C453 H423 0.930 . S
C453 N454 1.330 . S
C453 C455 1.446 . S
N454 Co413 2.151 . S
N454 C453 1.330 . S
N454 C458 1.418 . S
C455 H434 0.929 . S
C455 C453 1.446 . S
C455 C456 1.332 . S
C456 H436 0.931 . S
C456 C455 1.332 . S
C456 C457 1.267 . S
C457 H425 0.929 . S
C457 C456 1.267 . S
C457 C458 1.251 . S
C458 H428 0.929 . S
C458 N454 1.418 . S
C458 C457 1.251 . S
C459 H426 0.930 . S
C459 C461 1.406 . S
C459 C464 1.261 . S
C460 H427 0.930 . S
C460 N462 1.325 . S
C460 C463 1.357 . S
C461 H429 0.928 . S
C461 C459 1.406 . S
C461 N462 1.261 . S
N462 Co413 2.214 . S
N462 C460 1.325 . S
N462 C461 1.261 . S
C463 H433 0.931 1_655 S
C463 C460 1.357 . S
C463 C464 1.312 . S
C464 H435 0.930 1_655 S
C464 C459 1.261 . S
C464 C463 1.312 . S
C465 O437 1.214 . S
C465 O445 1.234 1_565 S
C466 H438 0.929 . S
C466 C469 1.391 . S
C466 C471 1.391 . S
C467 H439 0.929 . S
C467 C468 1.390 . S
C467 N470 1.391 . S
C468 H440 0.930 . S
C468 C467 1.390 . S
C468 C469 1.392 . S
C469 H441 0.929 . S
C469 C466 1.391 . S
C469 C468 1.392 . S
N470 Co414 2.257 1_545 S
N470 C467 1.391 . S
N470 C471 1.388 . S
C471 H442 0.930 . S
C471 C466 1.391 . S
C471 N470 1.388 . S
C472 C473 1.369 1_655 S
C472 C474 1.419 . S
C472 H476 0.930 . S
C473 C472 1.369 1_455 S
C473 C482 1.429 . S
C474 C472 1.419 . S
C474 C475 1.363 . S
C474 H477 0.929 . S
C475 C474 1.363 . S
C475 C481 1.428 1_655 S
H476 C472 0.930 . S
H477 C474 0.929 . S
S478 N479 1.613 . S
S478 N480 1.610 . S
N479 S478 1.613 . S
N479 C482 1.350 . S
N480 S478 1.610 . S
N480 C481 1.351 . S
C481 C475 1.428 1_455 S
C481 N480 1.351 . S
C481 C482 1.434 . S
C482 C473 1.429 . S
C482 N479 1.350 . S
C482 C481 1.434 . S
C483 C484 1.369 1_545 S
C483 C485 1.419 . S
C483 H487 0.930 . S
C484 C483 1.369 1_565 S
C484 C493 1.429 . S
C485 C483 1.419 . S
C485 C486 1.363 . S
C485 H488 0.929 . S
C486 C485 1.363 . S
C486 C492 1.428 1_545 S
H487 C483 0.930 . S
H488 C485 0.929 . S
S489 N490 1.613 . S
S489 N491 1.610 . S
N490 S489 1.613 . S
N490 C493 1.350 . S
N491 S489 1.610 . S
N491 C492 1.351 . S
C492 C486 1.428 1_565 S
C492 N491 1.351 . S
C492 C493 1.434 . S
C493 C484 1.429 . S
C493 N490 1.350 . S
C493 C492 1.434 . S
C494 C495 1.369 . S
C494 C496 1.419 . S
C494 H498 0.930 . S
C495 C494 1.369 . S
C495 C504 1.429 1_655 S
C496 C494 1.419 . S
C496 C497 1.363 1_655 S
C496 H499 0.929 . S
C497 C496 1.363 1_455 S
C497 C503 1.428 . S
H498 C494 0.930 . S
H499 C496 0.929 . S
S500 N501 1.613 . S
S500 N502 1.610 . S
N501 S500 1.613 . S
N501 C504 1.350 . S
N502 S500 1.610 . S
N502 C503 1.351 . S
C503 C497 1.428 . S
C503 N502 1.351 . S
C503 C504 1.434 . S
C504 C495 1.429 1_455 S
C504 N501 1.350 . S
C504 C503 1.434 . S
C505 C506 1.369 . S
C505 C507 1.419 . S
C505 H509 0.930 . S
C506 C505 1.369 . S
C506 C515 1.429 1_545 S
C507 C505 1.419 . S
C507 C508 1.363 1_545 S
C507 H510 0.929 . S
C508 C507 1.363 1_565 S
C508 C514 1.428 . S
H509 C505 0.930 . S
H510 C507 0.929 . S
S511 N512 1.613 . S
S511 N513 1.610 . S
N512 S511 1.613 . S
N512 C515 1.350 . S
N513 S511 1.610 . S
N513 C514 1.351 . S
C514 C508 1.428 . S
C514 N513 1.351 . S
C514 C515 1.434 . S
C515 C506 1.429 1_565 S
C515 N512 1.350 . S
C515 C514 1.434 . S
C516 C517 1.369 . S
C516 C518 1.419 1_656 S
C516 H520 0.930 . S
C517 C516 1.369 . S
C517 C526 1.429 1_655 S
C518 C516 1.419 1_454 S
C518 C519 1.363 . S
C518 H521 0.929 . S
C519 C518 1.363 . S
C519 C525 1.428 . S
H520 C516 0.930 . S
H521 C518 0.929 . S
S522 N523 1.613 . S
S522 N524 1.610 1_556 S
N523 S522 1.613 . S
N523 C526 1.350 . S
N524 S522 1.610 1_554 S
N524 C525 1.351 . S
C525 C519 1.428 . S
C525 N524 1.351 . S
C525 C526 1.434 1_554 S
C526 C517 1.429 1_455 S
C526 N523 1.350 . S
C526 C525 1.434 1_556 S
C527 C528 1.369 1_565 S
C527 C529 1.419 . S
C527 H531 0.930 . S
C528 C527 1.369 1_545 S
C528 C537 1.429 . S
C529 C527 1.419 . S
C529 C530 1.363 . S
C529 H532 0.929 . S
C530 C529 1.363 . S
C530 C536 1.428 1_565 S
H531 C527 0.930 . S
H532 C529 0.929 . S
S533 N534 1.613 . S
S533 N535 1.610 . S
N534 S533 1.613 . S
N534 C537 1.350 . S
N535 S533 1.610 . S
N535 C536 1.351 . S
C536 C530 1.428 1_545 S
C536 N535 1.351 . S
C536 C537 1.434 . S
C537 C528 1.429 . S
C537 N534 1.350 . S
C537 C536 1.434 . S
C538 C539 1.369 1_455 S
C538 C540 1.426 . S
C538 H542 0.930 . S
C539 C538 1.369 1_655 S
C539 C548 1.429 1_554 S
C540 C538 1.426 . S
C540 C541 1.355 1_554 S
C540 H543 0.930 . S
C541 C540 1.355 1_556 S
C541 C547 1.428 1_455 S
H542 C538 0.930 . S
H543 C540 0.930 . S
S544 N545 1.613 . S
S544 N546 1.610 . S
N545 S544 1.613 . S
N545 C548 1.350 . S
N546 S544 1.610 . S
N546 C547 1.351 . S
C547 C541 1.428 1_655 S
C547 N546 1.351 . S
C547 C548 1.434 . S
C548 C539 1.429 1_556 S
C548 N545 1.350 . S
C548 C547 1.434 . S
C549 C550 1.369 . S
C549 C551 1.419 . S
C549 H553 0.930 . S
C550 C549 1.369 . S
C550 C559 1.429 1_545 S
C551 C549 1.419 . S
C551 C552 1.363 1_545 S
C551 H554 0.929 . S
C552 C551 1.363 1_565 S
C552 C558 1.428 . S
H553 C549 0.930 . S
H554 C551 0.929 . S
S555 N556 1.613 . S
S555 N557 1.610 . S
N556 S555 1.613 . S
N556 C559 1.350 . S
N557 S555 1.610 . S
N557 C558 1.351 . S
C558 C552 1.428 . S
C558 N557 1.351 . S
C558 C559 1.434 . S
C559 C550 1.429 1_565 S
C559 N556 1.350 . S
C559 C558 1.434 . S
C560 C561 1.369 . S
C560 C562 1.419 . S
C560 H564 0.930 . S
C561 C560 1.369 . S
C561 C570 1.429 . S
C562 C560 1.419 . S
C562 C563 1.363 . S
C562 H565 0.929 . S
C563 C562 1.363 . S
C563 C569 1.428 . S
H564 C560 0.930 . S
H565 C562 0.929 . S
S566 N567 1.613 . S
S566 N568 1.610 . S
N567 S566 1.613 . S
N567 C570 1.350 . S
N568 S566 1.610 . S
N568 C569 1.351 . S
C569 C563 1.428 . S
C569 N568 1.351 . S
C569 C570 1.434 . S
C570 C561 1.429 . S
C570 N567 1.350 . S
C570 C569 1.434 . S
C571 C572 1.369 . S
C571 C573 1.419 . S
C571 H575 0.930 . S
C572 C571 1.369 . S
C572 C581 1.429 . S
C573 C571 1.419 . S
C573 C574 1.363 . S
C573 H576 0.929 . S
C574 C573 1.363 . S
C574 C580 1.428 . S
H575 C571 0.930 . S
H576 C573 0.929 . S
S577 N578 1.613 . S
S577 N579 1.610 . S
N578 S577 1.613 . S
N578 C581 1.350 . S
N579 S577 1.610 . S
N579 C580 1.351 . S
C580 C574 1.428 . S
C580 N579 1.351 . S
C580 C581 1.434 . S
C581 C572 1.429 . S
C581 N578 1.350 . S
C581 C580 1.434 . S
C582 C583 1.369 . S
C582 C584 1.419 . S
C582 H586 0.930 . S
C583 C582 1.369 . S
C583 C592 1.429 . S
C584 C582 1.419 . S
C584 C585 1.363 . S
C584 H587 0.929 . S
C585 C584 1.363 . S
C585 C591 1.428 . S
H586 C582 0.930 . S
H587 C584 0.929 . S
S588 N589 1.613 . S
S588 N590 1.610 . S
N589 S588 1.613 . S
N589 C592 1.350 . S
N590 S588 1.610 . S
N590 C591 1.351 . S
C591 C585 1.428 . S
C591 N590 1.351 . S
C591 C592 1.434 . S
C592 C583 1.429 . S
C592 N589 1.350 . S
C592 C591 1.434 . S
C593 C594 1.369 . S
C593 C595 1.419 . S
C593 H597 0.930 . S
C594 C593 1.369 . S
C594 C603 1.429 . S
C595 C593 1.419 . S
C595 C596 1.363 . S
C595 H598 0.929 . S
C596 C595 1.363 . S
C596 C602 1.428 . S
H597 C593 0.930 . S
H598 C595 0.929 . S
S599 N600 1.613 . S
S599 N601 1.610 . S
N600 S599 1.613 . S
N600 C603 1.350 . S
N601 S599 1.610 . S
N601 C602 1.351 . S
C602 C596 1.428 . S
C602 N601 1.351 . S
C602 C603 1.434 . S
C603 C594 1.429 . S
C603 N600 1.350 . S
C603 C602 1.434 . S
C604 C605 1.366 1_455 S
C604 C606 1.419 1_545 S
C604 H608 0.930 . S
C605 C604 1.366 1_655 S
C605 C614 1.432 . S
C606 C604 1.419 1_565 S
C606 C607 1.350 1_455 S
C606 H609 0.929 . S
C607 C606 1.350 1_655 S
C607 C613 1.442 . S
H608 C604 0.930 . S
H609 C606 0.929 . S
S610 N611 1.624 . S
S610 N612 1.600 1_545 S
N611 S610 1.624 . S
N611 C614 1.350 . S
N612 S610 1.600 1_565 S
N612 C613 1.351 . S
C613 C607 1.442 . S
C613 N612 1.351 . S
C613 C614 1.434 1_565 S
C614 C605 1.432 . S
C614 N611 1.350 . S
C614 C613 1.434 1_545 S
C615 C616 1.363 1_565 S
C615 C617 1.419 1_455 S
C615 H619 0.930 . S
C616 C615 1.363 1_545 S
C616 C625 1.435 . S
C617 C615 1.419 1_655 S
C617 C618 1.347 1_565 S
C617 H620 0.929 . S
C618 C617 1.347 1_545 S
C618 C624 1.444 . S
H619 C615 0.930 . S
H620 C617 0.929 . S
S621 N622 1.624 . S
S621 N623 1.599 1_455 S
N622 S621 1.624 . S
N622 C625 1.350 . S
N623 S621 1.599 1_655 S
N623 C624 1.351 . S
C624 C618 1.444 . S
C624 N623 1.351 . S
C624 C625 1.434 1_655 S
C625 C616 1.435 . S
C625 N622 1.350 . S
C625 C624 1.434 1_455 S
C626 C627 1.370 . S
C626 C628 1.419 1_545 S
C626 H630 0.930 . S
C627 C626 1.370 . S
C627 C636 1.428 1_655 S
C628 C626 1.419 1_565 S
C628 C629 1.359 1_655 S
C628 H631 0.929 . S
C629 C628 1.359 1_455 S
C629 C635 1.432 . S
H630 C626 0.930 . S
H631 C628 0.929 . S
S632 N633 1.618 . S
S632 N634 1.605 1_545 S
N633 S632 1.618 . S
N633 C636 1.350 . S
N634 S632 1.605 1_565 S
N634 C635 1.351 . S
C635 C629 1.432 . S
C635 N634 1.351 . S
C635 C636 1.434 1_565 S
C636 C627 1.428 1_455 S
C636 N633 1.350 . S
C636 C635 1.434 1_545 S
C637 C638 1.365 1_565 S
C637 C639 1.419 1_655 S
C637 H641 0.930 . S
C638 C637 1.365 1_545 S
C638 C647 1.433 . S
C639 C637 1.419 1_455 S
C639 C640 1.352 1_565 S
C639 H642 0.929 . S
C640 C639 1.352 1_545 S
C640 C646 1.440 . S
H641 C637 0.930 . S
H642 C639 0.929 . S
S643 N644 1.622 . S
S643 N645 1.602 1_655 S
N644 S643 1.622 . S
N644 C647 1.350 . S
N645 S643 1.602 1_455 S
N645 C646 1.351 . S
C646 C640 1.440 . S
C646 N645 1.351 . S
C646 C647 1.434 1_455 S
C647 C638 1.433 . S
C647 N644 1.350 . S
C647 C646 1.434 1_655 S
C473 C5 1.441 . S
C475 C123 1.443 . S
C484 C182 1.441 . S
C486 C64 1.443 . S
C495 C359 1.442 . S
C497 C241 1.440 . S
C506 C300 1.443 . S
C508 C418 1.440 . S
C517 C357 1.615 . S
C519 C3 1.622 . S
C528 C62 1.622 . S
C530 C416 1.614 . S
C539 C121 1.622 . S
C541 C239 1.616 . S
C550 C298 1.613 . S
C552 C180 1.622 . S
C561 C33 1.410 . S
C563 C328 1.407 . S
C572 C387 1.403 . S
C574 C92 1.405 . S
C583 C446 1.410 . S
C585 C151 1.409 . S
C594 C210 1.406 . S
C596 C269 1.409 . S
C605 C52 1.120 1_655 S
C607 C170 1.118 . S
C616 C229 1.119 1_545 S
C618 C111 1.118 . S
C627 C406 1.120 . S
C629 C288 1.119 . S
C638 C465 1.118 1_545 S
C640 C347 1.117 . S
