# Generated by pormake.
# Topology lcs, (4)-cn, num edge types: 1
# Building blocks:
#     Node 0, Type 0, BuildingBlock: KUFVIS_clean_sbu_0, # of connection points: 4
#     Node 1, Type 0, BuildingBlock: KUFVIS_clean_sbu_0, # of connection points: 4
#     Node 2, Type 0, BuildingBlock: KUFVIS_clean_sbu_0, # of connection points: 4
#     Node 3, Type 0, BuildingBlock: KUFVIS_clean_sbu_0, # of connection points: 4
#     Node 4, Type 0, BuildingBlock: KUFVIS_clean_sbu_0, # of connection points: 4
#     Node 5, Type 0, BuildingBlock: KUFVIS_clean_sbu_0, # of connection points: 4
#     Node 6, Type 0, BuildingBlock: KUFVIS_clean_sbu_0, # of connection points: 4
#     Node 7, Type 0, BuildingBlock: KUFVIS_clean_sbu_0, # of connection points: 4
#     Node 8, Type 0, BuildingBlock: KUFVIS_clean_sbu_0, # of connection points: 4
#     Node 9, Type 0, BuildingBlock: KUFVIS_clean_sbu_0, # of connection points: 4
#     Node 10, Type 0, BuildingBlock: KUFVIS_clean_sbu_0, # of connection points: 4
#     Node 11, Type 0, BuildingBlock: KUFVIS_clean_sbu_0, # of connection points: 4
#     Node 12, Type 0, BuildingBlock: KUFVIS_clean_sbu_0, # of connection points: 4
#     Node 13, Type 0, BuildingBlock: KUFVIS_clean_sbu_0, # of connection points: 4
#     Node 14, Type 0, BuildingBlock: KUFVIS_clean_sbu_0, # of connection points: 4
#     Node 15, Type 0, BuildingBlock: KUFVIS_clean_sbu_0, # of connection points: 4
#     Node 16, Type 0, BuildingBlock: KUFVIS_clean_sbu_0, # of connection points: 4
#     Node 17, Type 0, BuildingBlock: KUFVIS_clean_sbu_0, # of connection points: 4
#     Node 18, Type 0, BuildingBlock: KUFVIS_clean_sbu_0, # of connection points: 4
#     Node 19, Type 0, BuildingBlock: KUFVIS_clean_sbu_0, # of connection points: 4
#     Node 20, Type 0, BuildingBlock: KUFVIS_clean_sbu_0, # of connection points: 4
#     Node 21, Type 0, BuildingBlock: KUFVIS_clean_sbu_0, # of connection points: 4
#     Node 22, Type 0, BuildingBlock: KUFVIS_clean_sbu_0, # of connection points: 4
#     Node 23, Type 0, BuildingBlock: KUFVIS_clean_sbu_0, # of connection points: 4
#     Edge 24, Type (0, 0), BuildingBlock: KIFKEQ_clean_linker_1, # of connection points: 2
#     Edge 25, Type (0, 0), BuildingBlock: KIFKEQ_clean_linker_1, # of connection points: 2
#     Edge 26, Type (0, 0), BuildingBlock: KIFKEQ_clean_linker_1, # of connection points: 2
#     Edge 27, Type (0, 0), BuildingBlock: KIFKEQ_clean_linker_1, # of connection points: 2
#     Edge 28, Type (0, 0), BuildingBlock: KIFKEQ_clean_linker_1, # of connection points: 2
#     Edge 29, Type (0, 0), BuildingBlock: KIFKEQ_clean_linker_1, # of connection points: 2
#     Edge 30, Type (0, 0), BuildingBlock: KIFKEQ_clean_linker_1, # of connection points: 2
#     Edge 31, Type (0, 0), BuildingBlock: KIFKEQ_clean_linker_1, # of connection points: 2
#     Edge 32, Type (0, 0), BuildingBlock: KIFKEQ_clean_linker_1, # of connection points: 2
#     Edge 33, Type (0, 0), BuildingBlock: KIFKEQ_clean_linker_1, # of connection points: 2
#     Edge 34, Type (0, 0), BuildingBlock: KIFKEQ_clean_linker_1, # of connection points: 2
#     Edge 35, Type (0, 0), BuildingBlock: KIFKEQ_clean_linker_1, # of connection points: 2
#     Edge 36, Type (0, 0), BuildingBlock: KIFKEQ_clean_linker_1, # of connection points: 2
#     Edge 37, Type (0, 0), BuildingBlock: KIFKEQ_clean_linker_1, # of connection points: 2
#     Edge 38, Type (0, 0), BuildingBlock: KIFKEQ_clean_linker_1, # of connection points: 2
#     Edge 39, Type (0, 0), BuildingBlock: KIFKEQ_clean_linker_1, # of connection points: 2
#     Edge 40, Type (0, 0), BuildingBlock: KIFKEQ_clean_linker_1, # of connection points: 2
#     Edge 41, Type (0, 0), BuildingBlock: KIFKEQ_clean_linker_1, # of connection points: 2
#     Edge 42, Type (0, 0), BuildingBlock: KIFKEQ_clean_linker_1, # of connection points: 2
#     Edge 43, Type (0, 0), BuildingBlock: KIFKEQ_clean_linker_1, # of connection points: 2
#     Edge 44, Type (0, 0), BuildingBlock: KIFKEQ_clean_linker_1, # of connection points: 2
#     Edge 45, Type (0, 0), BuildingBlock: KIFKEQ_clean_linker_1, # of connection points: 2
#     Edge 46, Type (0, 0), BuildingBlock: KIFKEQ_clean_linker_1, # of connection points: 2
#     Edge 47, Type (0, 0), BuildingBlock: KIFKEQ_clean_linker_1, # of connection points: 2
#     Edge 48, Type (0, 0), BuildingBlock: KIFKEQ_clean_linker_1, # of connection points: 2
#     Edge 49, Type (0, 0), BuildingBlock: KIFKEQ_clean_linker_1, # of connection points: 2
#     Edge 50, Type (0, 0), BuildingBlock: KIFKEQ_clean_linker_1, # of connection points: 2
#     Edge 51, Type (0, 0), BuildingBlock: KIFKEQ_clean_linker_1, # of connection points: 2
#     Edge 52, Type (0, 0), BuildingBlock: KIFKEQ_clean_linker_1, # of connection points: 2
#     Edge 53, Type (0, 0), BuildingBlock: KIFKEQ_clean_linker_1, # of connection points: 2
#     Edge 54, Type (0, 0), BuildingBlock: KIFKEQ_clean_linker_1, # of connection points: 2
#     Edge 55, Type (0, 0), BuildingBlock: KIFKEQ_clean_linker_1, # of connection points: 2
#     Edge 56, Type (0, 0), BuildingBlock: KIFKEQ_clean_linker_1, # of connection points: 2
#     Edge 57, Type (0, 0), BuildingBlock: KIFKEQ_clean_linker_1, # of connection points: 2
#     Edge 58, Type (0, 0), BuildingBlock: KIFKEQ_clean_linker_1, # of connection points: 2
#     Edge 59, Type (0, 0), BuildingBlock: KIFKEQ_clean_linker_1, # of connection points: 2
#     Edge 60, Type (0, 0), BuildingBlock: KIFKEQ_clean_linker_1, # of connection points: 2
#     Edge 61, Type (0, 0), BuildingBlock: KIFKEQ_clean_linker_1, # of connection points: 2
#     Edge 62, Type (0, 0), BuildingBlock: KIFKEQ_clean_linker_1, # of connection points: 2
#     Edge 63, Type (0, 0), BuildingBlock: KIFKEQ_clean_linker_1, # of connection points: 2
#     Edge 64, Type (0, 0), BuildingBlock: KIFKEQ_clean_linker_1, # of connection points: 2
#     Edge 65, Type (0, 0), BuildingBlock: KIFKEQ_clean_linker_1, # of connection points: 2
#     Edge 66, Type (0, 0), BuildingBlock: KIFKEQ_clean_linker_1, # of connection points: 2
#     Edge 67, Type (0, 0), BuildingBlock: KIFKEQ_clean_linker_1, # of connection points: 2
#     Edge 68, Type (0, 0), BuildingBlock: KIFKEQ_clean_linker_1, # of connection points: 2
#     Edge 69, Type (0, 0), BuildingBlock: KIFKEQ_clean_linker_1, # of connection points: 2
#     Edge 70, Type (0, 0), BuildingBlock: KIFKEQ_clean_linker_1, # of connection points: 2
#     Edge 71, Type (0, 0), BuildingBlock: KIFKEQ_clean_linker_1, # of connection points: 2
# Relax obj value: 0.011
# Max RMSD: 0.062
# Mean RMSD: 0.054
data_MOF--net-lcs--node1-KUFVIS_clean_sbu_0--edge1-KIFKEQ_clean_linker_1
_symmetry_space_group_name_H-M    P1
_symmetry_Int_Tables_number       1
_symmetry_cell_setting            triclinic
loop_
_symmetry_equiv_pos_as_xyz
'x, y, z'
_cell_length_a     49.041017
_cell_length_b     49.733688
_cell_length_c     49.739052
_cell_angle_alpha  90.231701
_cell_angle_beta   90.912162
_cell_angle_gamma 90.898741
loop_
_atom_site_label
_atom_site_type_symbol
_atom_site_fract_x
_atom_site_fract_y
_atom_site_fract_z
_atom_type_partial_charge
Mn0 Mn 0.01658 0.26152 0.38511 0.0
Mn1 Mn 0.04333 0.2932 0.43981 0.0
C2 C 0.0578 0.24782 0.40281 0.0
C3 C 0.98816 0.22815 0.36647 0.0
C4 C 0.04483 0.31675 0.38352 0.0
O5 O 0.98445 0.28204 0.39975 0.0
O6 O 1.00326 0.29919 0.43783 0.0
C7 C 0.01691 0.26069 0.48207 0.0
N8 N 0.03997 0.27064 0.47062 0.0
C9 C 0.06836 0.24962 0.5041 0.0
C10 C 0.0449 0.23928 0.51637 0.0
C11 C 0.01907 0.24479 0.50526 0.0
C12 C 0.06493 0.26538 0.48107 0.0
H13 H 0.99703 0.26483 0.47356 0.0
C14 C 0.98286 0.29512 0.42179 0.0
O15 O 0.99491 0.24944 0.3529 0.0
O16 O 0.99728 0.22669 0.39103 0.0
N17 N 0.08185 0.28906 0.44452 0.0
C18 C 0.10248 0.2996 0.42962 0.0
C19 C 0.12965 0.29552 0.43775 0.0
C20 C 0.13533 0.28089 0.46122 0.0
C21 C 0.11378 0.27048 0.47637 0.0
C22 C 0.0871 0.27536 0.4674 0.0
H23 H 0.09825 0.31095 0.41162 0.0
O24 O 0.0509 0.24194 0.37818 0.0
O25 O 0.04017 0.26128 0.41654 0.0
O26 O 0.03376 0.29664 0.37132 0.0
O27 O 0.04843 0.31771 0.40902 0.0
C28 C 0.11771 0.25505 0.49977 0.0
C29 C 0.09502 0.24456 0.51358 0.0
H30 H 0.04648 0.22693 0.5342 0.0
H31 H 1.00088 0.23677 0.51454 0.0
H32 H 0.14618 0.30361 0.42593 0.0
H33 H 0.15632 0.27767 0.46734 0.0
H34 H 0.13811 0.25081 0.5071 0.0
H35 H 0.09831 0.23244 0.53135 0.0
Mn36 Mn 0.02341 0.77016 0.63951 0.0
Mn37 Mn 0.99096 0.79783 0.69203 0.0
C38 C 0.03644 0.81227 0.65541 0.0
C39 C 0.05808 0.74338 0.62256 0.0
C40 C 0.96718 0.79649 0.63535 0.0
O41 O 1.00368 0.73793 0.65597 0.0
O42 O 0.98396 0.7583 0.69108 0.0
C43 C 0.0232 0.77286 0.73584 0.0
N44 N 0.01376 0.7953 0.72342 0.0
C45 C 0.03665 0.82411 0.75588 0.0
C46 C 0.04646 0.80129 0.76913 0.0
C47 C 0.03974 0.77557 0.75903 0.0
C48 C 0.02016 0.82015 0.73292 0.0
H49 H 0.0182 0.75305 0.72808 0.0
C50 C 0.98911 0.73737 0.67704 0.0
O51 O 0.03604 0.748 0.60861 0.0
O52 O 0.05954 0.7536 0.64656 0.0
N53 N 0.99609 0.83593 0.69565 0.0
C54 C 0.9857 0.85588 0.68003 0.0
C55 C 0.99088 0.88285 0.68715 0.0
C56 C 1.0065 0.88904 0.71034 0.0
C57 C 0.01666 0.86817 0.7263 0.0
C58 C 0.0106 0.84167 0.71835 0.0
H59 H 0.97368 0.85126 0.66218 0.0
O60 O 0.04229 0.80502 0.63112 0.0
O61 O 0.02329 0.79464 0.66965 0.0
O62 O 0.98711 0.78452 0.62447 0.0
O63 O 0.96648 0.80202 0.66044 0.0
C64 C 0.03291 0.87262 0.74955 0.0
C65 C 0.04295 0.85061 0.7643 0.0
H66 H 0.05933 0.80329 0.78695 0.0
H67 H 0.04735 0.75787 0.76907 0.0
H68 H 0.98295 0.89885 0.67474 0.0
H69 H 0.01068 0.90986 0.71562 0.0
H70 H 0.03809 0.8929 0.75609 0.0
H71 H 0.05569 0.85428 0.78196 0.0
Mn72 Mn 0.51647 0.7631 0.88463 0.0
Mn73 Mn 0.54274 0.79497 0.93942 0.0
C74 C 0.55804 0.7503 0.90228 0.0
C75 C 0.48898 0.72896 0.86591 0.0
C76 C 0.5438 0.81886 0.88325 0.0
O77 O 0.48383 0.78278 0.89948 0.0
O78 O 0.5026 0.80048 0.93734 0.0
C79 C 0.51654 0.76176 0.98129 0.0
N80 N 0.53955 0.77196 0.96993 0.0
C81 C 0.5681 0.7498 1.0025 0.0
C82 C 0.5447 0.7392 0.01467 0.0
C83 C 0.51881 0.74517 1.00398 0.0
C84 C 0.56456 0.76625 0.97998 0.0
H85 H 0.49661 0.7662 0.97307 0.0
C86 C 0.48216 0.79595 0.92147 0.0
O87 O 0.49507 0.75047 0.85238 0.0
O88 O 0.49812 0.72778 0.89047 0.0
N89 N 0.58131 0.79115 0.94416 0.0
C90 C 0.60186 0.80243 0.92968 0.0
C91 C 0.62907 0.79814 0.93755 0.0
C92 C 0.63487 0.7825 0.96033 0.0
C93 C 0.61338 0.77148 0.97517 0.0
C94 C 0.58667 0.77663 0.96649 0.0
H95 H 0.59755 0.81448 0.91216 0.0
O96 O 0.55134 0.74439 0.87761 0.0
O97 O 0.54006 0.76325 0.91599 0.0
O98 O 0.5328 0.79871 0.87103 0.0
O99 O 0.54762 0.81974 0.90874 0.0
C100 C 0.61742 0.7553 0.99803 0.0
C101 C 0.59481 0.74439 0.01163 0.0
H102 H 0.54637 0.72633 0.03211 0.0
H103 H 0.50066 0.73697 0.01317 0.0
H104 H 0.64554 0.80676 0.92602 0.0
H105 H 0.65588 0.77901 0.96619 0.0
H106 H 0.63785 0.75089 1.00514 0.0
H107 H 0.59819 0.73171 0.02898 0.0
Mn108 Mn 0.52631 0.27249 0.13901 0.0
Mn109 Mn 0.49477 0.29923 0.1925 0.0
C110 C 0.54022 0.31411 0.15576 0.0
C111 C 0.56008 0.24521 0.12126 0.0
C112 C 0.47021 0.29852 0.13592 0.0
O113 O 0.50553 0.24038 0.15465 0.0
O114 O 0.48901 0.2595 0.19211 0.0
C115 C 0.52864 0.2756 0.2359 0.0
N116 N 0.51821 0.29763 0.22351 0.0
C117 C 0.54069 0.32735 0.25542 0.0
C118 C 0.55144 0.30495 0.26868 0.0
C119 C 0.54543 0.27898 0.25883 0.0
C120 C 0.52397 0.32273 0.23274 0.0
H121 H 0.52426 0.25562 0.22827 0.0
C122 C 0.49289 0.23906 0.17691 0.0
O123 O 0.5383 0.25105 0.10744 0.0
O124 O 0.56185 0.25452 0.14564 0.0
N125 N 0.49899 0.33747 0.1956 0.0
C126 C 0.48799 0.35698 0.17982 0.0
C127 C 0.49259 0.38414 0.18657 0.0
C128 C 0.50828 0.39096 0.20954 0.0
C129 C 0.51911 0.37054 0.22564 0.0
C130 C 0.51362 0.34382 0.21807 0.0
H131 H 0.47592 0.3519 0.16214 0.0
O132 O 0.54611 0.30709 0.13142 0.0
O133 O 0.52677 0.29641 0.16965 0.0
O134 O 0.49058 0.28803 0.12441 0.0
O135 O 0.46935 0.30256 0.16131 0.0
C136 C 0.53553 0.37565 0.24866 0.0
C137 C 0.54636 0.35407 0.2635 0.0
H138 H 0.56453 0.30748 0.28628 0.0
H139 H 0.55381 0.26161 0.26884 0.0
H140 H 0.48415 0.39979 0.17404 0.0
H141 H 0.51201 0.41193 0.21453 0.0
H142 H 0.54027 0.39611 0.2549 0.0
H143 H 0.55926 0.35826 0.28095 0.0
Mn144 Mn 0.0124 0.76193 0.14084 0.0
Mn145 Mn 0.98957 0.79793 0.08794 0.0
C146 C 0.9703 0.75162 0.12114 0.0
C147 C 0.03674 0.72546 0.15782 0.0
C148 C 0.98849 0.8186 0.14527 0.0
O149 O 0.04705 0.78058 0.12765 0.0
O150 O 0.0296 0.80294 0.09207 0.0
C151 C 0.01612 0.76699 0.04498 0.0
N152 N 0.9931 0.77688 0.05606 0.0
C153 C 0.96481 0.75572 0.02193 0.0
C154 C 0.98821 0.74547 0.01 0.0
C155 C 0.01399 0.75118 0.02157 0.0
C156 C 0.96823 0.77171 0.045 0.0
H157 H 0.03593 0.77099 0.05405 0.0
C158 C 0.04948 0.79615 0.10745 0.0
O159 O 0.03236 0.74655 0.17254 0.0
O160 O 0.02775 0.72599 0.1332 0.0
N161 N 0.95115 0.79499 0.08161 0.0
C162 C 0.93054 0.80547 0.09622 0.0
C163 C 0.90342 0.80144 0.08748 0.0
C164 C 0.89782 0.7866 0.06391 0.0
C165 C 0.91945 0.77627 0.04915 0.0
C166 C 0.94605 0.78156 0.05839 0.0
H167 H 0.93473 0.81665 0.11451 0.0
O168 O 0.97566 0.74446 0.14569 0.0
O169 O 0.98965 0.76474 0.10904 0.0
O170 O 0.99868 0.79781 0.15643 0.0
O171 O 0.98463 0.82056 0.11992 0.0
C172 C 0.91558 0.75999 0.02626 0.0
C173 C 0.93817 0.74984 0.01248 0.0
H174 H 0.9866 0.73293 0.99217 0.0
H175 H 0.03214 0.74319 0.0126 0.0
H176 H 0.88688 0.80946 0.09903 0.0
H177 H 0.87687 0.78304 0.05748 0.0
H178 H 0.89524 0.75429 0.01998 0.0
H179 H 0.93484 0.7369 0.99514 0.0
Mn180 Mn 0.51816 0.76708 0.38417 0.0
Mn181 Mn 0.50767 0.80619 0.43874 0.0
C182 C 0.55363 0.793 0.40212 0.0
C183 C 0.53042 0.72599 0.36503 0.0
C184 C 0.48913 0.82133 0.38238 0.0
O185 O 0.48279 0.75156 0.39901 0.0
O186 O 0.47861 0.77774 0.43574 0.0
C187 C 0.51724 0.76567 0.48116 0.0
N188 N 0.52318 0.79003 0.47011 0.0
C189 C 0.55567 0.80051 0.50553 0.0
C190 C 0.54976 0.7756 0.5174 0.0
C191 C 0.53052 0.75809 0.50512 0.0
C192 C 0.54166 0.80704 0.48176 0.0
H193 H 0.50249 0.75213 0.47177 0.0
C194 C 0.47048 0.75832 0.4204 0.0
O195 O 0.51579 0.74314 0.35174 0.0
O196 O 0.53693 0.7323 0.38964 0.0
N197 N 0.53422 0.83433 0.44455 0.0
C198 C 0.53937 0.85647 0.42927 0.0
C199 C 0.55902 0.8755 0.4381 0.0
C200 C 0.57301 0.8717 0.46262 0.0
C201 C 0.56726 0.84885 0.47807 0.0
C202 C 0.54737 0.83062 0.46831 0.0
H203 H 0.52881 0.85942 0.41034 0.0
O204 O 0.55412 0.78483 0.37734 0.0
O205 O 0.53235 0.78576 0.41584 0.0
O206 O 0.49794 0.80046 0.37045 0.0
O207 O 0.49152 0.82511 0.40772 0.0
C208 C 0.58113 0.84299 0.50232 0.0
C209 C 0.57536 0.81882 0.51603 0.0
H210 H 0.56008 0.7696 0.53578 0.0
H211 H 0.52595 0.73878 0.51408 0.0
H212 H 0.56346 0.893 0.42598 0.0
H213 H 0.58839 0.88626 0.4692 0.0
H214 H 0.59668 0.85665 0.51031 0.0
H215 H 0.58651 0.81431 0.53439 0.0
Mn216 Mn 0.5111 0.26402 0.63489 0.0
Mn217 Mn 0.48863 0.29971 0.58158 0.0
C218 C 0.46804 0.25482 0.61604 0.0
C219 C 0.53483 0.22773 0.65329 0.0
C220 C 0.48837 0.32105 0.63882 0.0
O221 O 0.54636 0.28159 0.62142 0.0
O222 O 0.52858 0.30262 0.58553 0.0
C223 C 0.51383 0.26729 0.5388 0.0
N224 N 0.49151 0.27905 0.54938 0.0
C225 C 0.46469 0.26928 0.50959 0.0
C226 C 0.48735 0.257 0.4982 0.0
C227 C 0.51196 0.25576 0.513 0.0
C228 C 0.46752 0.27951 0.53574 0.0
H229 H 0.53294 0.26693 0.54989 0.0
C230 C 0.54882 0.29594 0.60035 0.0
O231 O 0.53051 0.24942 0.66707 0.0
O232 O 0.52591 0.22735 0.62858 0.0
N233 N 0.45031 0.29928 0.57429 0.0
C234 C 0.43028 0.31124 0.5885 0.0
C235 C 0.40463 0.31503 0.5763 0.0
C236 C 0.40011 0.30711 0.54944 0.0
C237 C 0.42091 0.29444 0.53535 0.0
C238 C 0.44587 0.29086 0.54869 0.0
H239 H 0.43409 0.31852 0.60872 0.0
O240 O 0.47404 0.24792 0.64053 0.0
O241 O 0.48757 0.2666 0.60293 0.0
O242 O 0.49839 0.30026 0.64996 0.0
O243 O 0.48431 0.32285 0.61349 0.0
C244 C 0.41788 0.28533 0.50855 0.0
C245 C 0.43956 0.27223 0.49588 0.0
H246 H 0.48614 0.24859 0.47808 0.0
H247 H 0.52956 0.24637 0.50434 0.0
H248 H 0.38862 0.3247 0.58731 0.0
H249 H 0.38055 0.31075 0.53985 0.0
H250 H 0.39878 0.28784 0.49768 0.0
H251 H 0.43679 0.26481 0.4755 0.0
Mn252 Mn 0.02042 0.26504 0.88567 0.0
Mn253 Mn 0.00966 0.30399 0.94028 0.0
C254 C 0.0558 0.29103 0.90369 0.0
C255 C 0.03253 0.22402 0.86639 0.0
C256 C 0.99131 0.31921 0.8839 0.0
O257 O 0.98506 0.24941 0.90036 0.0
O258 O 0.98068 0.27544 0.93714 0.0
C259 C 0.01925 0.26339 0.98262 0.0
N260 N 0.02514 0.2878 0.97164 0.0
C261 C 0.0575 0.29829 1.00717 0.0
C262 C 0.05164 0.27334 0.01896 0.0
C263 C 0.03248 0.25579 1.00659 0.0
C264 C 0.04354 0.30484 0.98337 0.0
H265 H 1.00456 0.24983 0.97315 0.0
C266 C 0.97267 0.25603 0.92172 0.0
O267 O 0.01797 0.24128 0.85317 0.0
O268 O 0.03918 0.23023 0.89101 0.0
N269 N 0.03609 0.33221 0.94623 0.0
C270 C 0.04116 0.35443 0.93106 0.0
C271 C 0.0607 0.37352 0.94 0.0
C272 C 0.07466 0.36969 0.96453 0.0
C273 C 0.06897 0.34676 0.97989 0.0
C274 C 0.04919 0.32848 0.97001 0.0
H275 H 0.03062 0.35742 0.91212 0.0
O276 O 0.05636 0.28285 0.87892 0.0
O277 O 0.03453 0.28369 0.9174 0.0
O278 O 1.00023 0.2984 0.872 0.0
O279 O 0.99353 0.32295 0.90925 0.0
C280 C 0.08279 0.34088 1.00416 0.0
C281 C 0.07708 0.31665 0.01777 0.0
H282 H 0.06193 0.26733 0.03736 0.0
H283 H 0.02796 0.23644 0.01549 0.0
H284 H 0.06509 0.39109 0.92795 0.0
H285 H 0.08995 0.3843 0.9712 0.0
H286 H 0.09826 0.35458 0.01223 0.0
H287 H 0.0882 0.31213 0.03616 0.0
Mn288 Mn 0.39063 0.0225 0.25301 0.0
Mn289 Mn 0.33436 0.98346 0.26099 0.0
C290 C 0.37426 0.99626 0.21771 0.0
C291 C 0.41055 0.06388 0.24165 0.0
C292 C 0.39035 0.96795 0.28193 0.0
O293 O 0.37414 0.03787 0.28695 0.0
O294 O 0.33673 0.01134 0.29 0.0
C295 C 0.29328 0.02505 0.24951 0.0
N296 N 0.3041 1.00063 0.24397 0.0
C297 C 0.27077 0.99228 0.20877 0.0
C298 C 0.25917 0.01727 0.21421 0.0
C299 C 0.27052 0.03375 0.23463 0.0
C300 C 0.29341 0.98467 0.22429 0.0
H301 H 0.30198 0.03782 0.26513 0.0
C302 C 0.35217 0.03072 0.29854 0.0
O303 O 0.42334 0.04689 0.25689 0.0
O304 O 0.38606 0.05715 0.23379 0.0
N305 N 0.32891 0.95575 0.23451 0.0
C306 C 0.34297 0.93256 0.23127 0.0
C307 C 0.33436 0.91394 0.21148 0.0
C308 C 0.3113 0.91922 0.19538 0.0
C309 C 0.29698 0.94306 0.19928 0.0
C310 C 0.30636 0.96076 0.21949 0.0
H311 H 0.36076 0.92842 0.24351 0.0
O312 O 0.39939 1.00478 0.21822 0.0
O313 O 0.35927 1.00363 0.23773 0.0
O314 O 0.40302 0.98907 0.27396 0.0
O315 O 0.36473 0.964 0.27827 0.0
C316 C 0.27401 0.95015 0.18365 0.0
C317 C 0.26096 0.97477 0.18833 0.0
H318 H 0.24166 0.02409 0.20273 0.0
H319 H 0.26175 0.05311 0.23888 0.0
H320 H 0.34555 0.8956 0.20857 0.0
H321 H 0.30484 0.9049 0.18001 0.0
H322 H 0.2664 0.93694 0.16776 0.0
H323 H 0.24349 0.98013 0.176 0.0
Mn324 Mn 0.26536 0.13793 0.51716 0.0
Mn325 Mn 0.29135 0.19245 0.48593 0.0
C326 C 0.30731 0.15597 0.531 0.0
C327 C 0.23858 0.1193 0.55107 0.0
C328 C 0.29239 0.13628 0.46186 0.0
O329 O 0.23206 0.15273 0.4971 0.0
O330 O 0.25159 0.18962 0.47921 0.0
C331 C 0.26396 0.23371 0.51845 0.0
N332 N 0.28729 0.22294 0.50888 0.0
C333 C 0.315 0.25485 0.53388 0.0
C334 C 0.2913 0.26642 0.54385 0.0
C335 C 0.26566 0.25584 0.53603 0.0
C336 C 0.31203 0.23312 0.51603 0.0
H337 H 0.24421 0.22535 0.51289 0.0
C338 C 0.23083 0.17446 0.48354 0.0
O339 O 0.24422 0.10571 0.52954 0.0
O340 O 0.2477 0.14387 0.55238 0.0
N341 N 0.32969 0.19797 0.49095 0.0
C342 C 0.35057 0.18407 0.48005 0.0
C343 C 0.37759 0.19236 0.48555 0.0
C344 C 0.3828 0.21466 0.50236 0.0
C345 C 0.36092 0.22862 0.51325 0.0
C346 C 0.33447 0.22011 0.50622 0.0
H347 H 0.34666 0.16677 0.4673 0.0
O348 O 0.30085 0.13125 0.5365 0.0
O349 O 0.28904 0.1693 0.51759 0.0
O350 O 0.28103 0.12425 0.48152 0.0
O351 O 0.29679 0.16169 0.46141 0.0
C352 C 0.36429 0.24987 0.53177 0.0
C353 C 0.34144 0.2632 0.54189 0.0
H354 H 0.29256 0.28321 0.55779 0.0
H355 H 0.24726 0.26453 0.54378 0.0
H356 H 0.39435 0.18144 0.47709 0.0
H357 H 0.40365 0.22079 0.50687 0.0
H358 H 0.38431 0.25497 0.5395 0.0
H359 H 0.34437 0.27922 0.5565 0.0
Mn360 Mn 0.14083 0.02237 0.76959 0.0
Mn361 Mn 0.19701 0.98527 0.75931 0.0
C362 C 0.15871 0.99687 0.80428 0.0
C363 C 0.12065 0.06294 0.78151 0.0
C364 C 0.14039 0.96763 0.74066 0.0
O365 O 0.15555 0.03794 0.73475 0.0
O366 O 0.19288 0.01266 0.73052 0.0
C367 C 0.2379 0.02872 0.76928 0.0
N368 N 0.22785 1.00374 0.77496 0.0
C369 C 0.2635 0.99646 0.8078 0.0
C370 C 0.27435 0.02205 0.80219 0.0
C371 C 0.26144 0.03828 0.7829 0.0
C372 C 0.23997 0.98806 0.79363 0.0
H373 H 0.22802 0.04124 0.75448 0.0
C374 C 0.17693 0.03115 0.72227 0.0
O375 O 0.10761 0.04506 0.76693 0.0
O376 O 0.14561 0.05758 0.78834 0.0
N377 N 0.20421 0.95775 0.78514 0.0
C378 C 0.19092 0.93375 0.78847 0.0
C379 C 0.20115 0.91517 0.80712 0.0
C380 C 0.22515 0.92128 0.82184 0.0
C381 C 0.23877 0.94587 0.81769 0.0
C382 C 0.2277 0.96352 0.7987 0.0
H383 H 0.17255 0.92888 0.77711 0.0
O384 O 0.13365 1.00474 0.80476 0.0
O385 O 0.17297 1.00463 0.78375 0.0
O386 O 0.12787 0.98823 0.74928 0.0
O387 O 0.16613 0.96465 0.74335 0.0
C388 C 0.26266 0.95375 0.83193 0.0
C389 C 0.27495 0.97908 0.82707 0.0
H390 H 0.29249 0.0295 0.81266 0.0
H391 H 0.26963 0.05809 0.77854 0.0
H392 H 0.19055 0.89621 0.81018 0.0
H393 H 0.23286 0.90699 0.83636 0.0
H394 H 0.27158 0.94061 0.84687 0.0
H395 H 0.29315 0.98503 0.83834 0.0
Mn396 Mn 0.26273 0.89226 0.01754 0.0
Mn397 Mn 0.23706 0.83719 0.98565 0.0
C398 C 0.22124 0.87429 0.03023 0.0
C399 C 0.29015 0.91138 0.05152 0.0
C400 C 0.2354 0.89333 0.96178 0.0
O401 O 0.29552 0.87776 0.99787 0.0
O402 O 0.27717 0.83972 0.98016 0.0
C403 C 0.26374 0.79573 0.01902 0.0
N404 N 0.2406 0.80677 0.00872 0.0
C405 C 0.21242 0.77386 0.03085 0.0
C406 C 0.23596 0.76203 0.04155 0.0
C407 C 0.26172 0.77305 0.03565 0.0
C408 C 0.21571 0.79641 0.01439 0.0
H409 H 0.28357 0.8042 0.01462 0.0
C410 C 0.29743 0.85582 0.98466 0.0
O411 O 0.28383 0.92474 0.02997 0.0
O412 O 0.28122 0.88676 0.0529 0.0
N413 N 0.19854 0.83194 0.98932 0.0
C414 C 0.17783 0.84598 0.97774 0.0
C415 C 0.15071 0.83766 0.98182 0.0
C416 C 0.14518 0.81488 0.99753 0.0
C417 C 0.16683 0.80046 0.00882 0.0
C418 C 0.19345 0.80956 1.00387 0.0
H419 H 0.18194 0.86347 0.96559 0.0
O420 O 0.22778 0.89899 0.03622 0.0
O421 O 0.23938 0.86069 0.01736 0.0
O422 O 0.24626 0.90562 0.98194 0.0
O423 O 0.23183 0.8678 0.96086 0.0
C424 C 0.16305 0.77759 0.02504 0.0
C425 C 0.18582 0.76436 0.03614 0.0
H426 H 0.23449 0.74459 0.05445 0.0
H427 H 0.27998 0.76411 0.04393 0.0
H428 H 0.13412 0.84885 0.97296 0.0
H429 H 0.12423 0.80868 1.00086 0.0
H430 H 0.1427 0.77016 0.02933 0.0
H431 H 0.18264 0.74698 0.04882 0.0
Mn432 Mn 0.26124 0.39455 0.01293 0.0
Mn433 Mn 0.27202 0.33991 0.97404 0.0
C434 C 0.22583 0.37638 0.98707 0.0
C435 C 0.24916 0.41379 0.05398 0.0
C436 C 0.29035 0.39631 0.95877 0.0
O437 O 0.29664 0.37991 0.02853 0.0
O438 O 0.30102 0.34305 1.00258 0.0
C439 C 0.2625 0.29753 0.01461 0.0
N440 N 0.25657 0.30853 0.99023 0.0
C441 C 0.22415 0.27304 0.97977 0.0
C442 C 0.23006 0.26122 1.0047 0.0
C443 C 0.24927 0.27356 0.02222 0.0
C444 C 0.23813 0.29682 0.97321 0.0
H445 H 0.27722 0.30698 0.02815 0.0
C446 C 0.30902 0.35851 0.02196 0.0
O447 O 0.26364 0.42705 0.03671 0.0
O448 O 0.24256 0.38916 0.04775 0.0
N449 N 0.24554 0.33399 0.94586 0.0
C450 C 0.24037 0.34922 0.9237 0.0
C451 C 0.22074 0.34034 0.90467 0.0
C452 C 0.20678 0.31581 0.9085 0.0
C453 C 0.21255 0.3004 0.93138 0.0
C454 C 0.23242 0.31022 0.9496 0.0
H455 H 0.25089 0.36817 0.92073 0.0
O456 O 0.22524 0.40119 0.99517 0.0
O457 O 0.24718 0.36277 0.99437 0.0
O458 O 0.28138 0.40824 0.97955 0.0
O459 O 0.28814 0.37094 0.95507 0.0
C460 C 0.19872 0.27614 0.93727 0.0
C461 C 0.2045 0.26248 0.96146 0.0
H462 H 0.21977 0.24283 0.01072 0.0
H463 H 0.25383 0.26464 0.04155 0.0
H464 H 0.21628 0.35243 0.88715 0.0
H465 H 0.19142 0.30918 0.89394 0.0
H466 H 0.18319 0.2681 0.92361 0.0
H467 H 0.19338 0.2441 0.96599 0.0
Mn468 Mn 0.75444 0.14029 1.00721 0.0
Mn469 Mn 0.78555 0.08667 0.98022 0.0
C470 C 0.74044 0.12389 0.9655 0.0
C471 C 0.72077 0.15815 0.03454 0.0
C472 C 0.81059 0.14305 0.98126 0.0
O473 O 0.77504 0.1243 0.03925 0.0
O474 O 0.79127 0.08679 0.01996 0.0
C475 C 0.75129 0.04342 1.00356 0.0
N476 N 0.76183 0.05585 0.98161 0.0
C477 C 0.73906 0.02433 0.95169 0.0
C478 C 0.72819 0.01102 0.97399 0.0
C479 C 0.73428 0.02066 1.00003 0.0
C480 C 0.756 0.04683 0.95646 0.0
H481 H 0.75573 0.05088 0.02359 0.0
C482 C 0.78748 0.10191 0.04048 0.0
O483 O 0.74266 0.17185 0.02881 0.0
O484 O 0.71883 0.13384 0.02508 0.0
N485 N 0.78132 0.08383 0.94197 0.0
C486 C 0.79246 0.09964 0.92256 0.0
C487 C 0.78781 0.0931 0.89536 0.0
C488 C 0.7719 0.07032 0.88839 0.0
C489 C 0.76092 0.05418 0.9087 0.0
C490 C 0.76649 0.06153 0.93547 0.0
H491 H 0.8047 0.11719 0.92776 0.0
O492 O 0.73474 0.14825 0.97263 0.0
O493 O 0.75375 0.10978 0.98313 0.0
O494 O 0.79031 0.15469 0.99179 0.0
O495 O 0.81124 0.11767 0.9771 0.0
C496 C 0.74429 0.03135 0.90344 0.0
C497 C 0.73333 0.01646 0.92492 0.0
H498 H 0.71493 0.99356 0.97135 0.0
H499 H 0.7258 0.01061 0.01733 0.0
H500 H 0.79635 0.10566 0.8798 0.0
H501 H 0.76812 0.06551 0.86739 0.0
H502 H 0.73949 0.02528 0.88294 0.0
H503 H 0.72026 0.99917 0.92061 0.0
Mn504 Mn 0.13968 0.50949 0.2554 0.0
Mn505 Mn 0.08257 0.51894 0.29125 0.0
C506 C 0.12197 0.47452 0.28073 0.0
C507 C 0.16025 0.4979 0.21495 0.0
C508 C 0.13868 0.53969 0.30907 0.0
O509 O 0.1246 0.54426 0.2399 0.0
O510 O 0.08506 0.54632 0.26224 0.0
C511 C 0.04193 0.5048 0.24868 0.0
N512 N 0.05236 0.501 0.27388 0.0
C513 C 0.01824 0.46717 0.28324 0.0
C514 C 1.00695 0.47092 0.25747 0.0
C515 C 0.01892 0.48975 0.24008 0.0
C516 C 0.04117 0.48276 0.29068 0.0
H517 H 0.05116 0.51917 0.23523 0.0
C518 C 0.10179 0.55518 0.24471 0.0
O519 O 0.17303 0.51257 0.23293 0.0
O520 O 0.13533 0.4908 0.22015 0.0
N521 N 0.07697 0.49413 0.32004 0.0
C522 C 0.09096 0.49219 0.34384 0.0
C523 C 0.08188 0.47395 0.36336 0.0
C524 C 0.05837 0.45812 0.35837 0.0
C525 C 0.0441 0.46071 0.33389 0.0
C526 C 0.05399 0.47938 0.31528 0.0
H527 H 0.109 0.50435 0.34785 0.0
O528 O 0.14711 0.4743 0.27306 0.0
O529 O 0.10762 0.49491 0.2728 0.0
O530 O 0.15198 0.52983 0.28958 0.0
O531 O 0.11277 0.5374 0.31104 0.0
C532 C 0.02073 0.44516 0.32704 0.0
C533 C 0.00788 0.44831 0.30169 0.0
H534 H 0.98924 0.45931 0.25075 0.0
H535 H 0.01044 0.49263 0.2201 0.0
H536 H 0.09302 0.47205 0.3822 0.0
H537 H 0.05154 0.44394 0.3734 0.0
H538 H 0.01272 0.43044 0.34096 0.0
H539 H 0.99015 0.43598 0.2965 0.0
Mn540 Mn 0.75918 0.8946 0.51279 0.0
Mn541 Mn 0.76953 0.84007 0.47356 0.0
C542 C 0.72364 0.87678 0.48689 0.0
C543 C 0.74716 0.91385 0.55388 0.0
C544 C 0.78811 0.89643 0.45853 0.0
O545 O 0.79455 0.87967 0.52823 0.0
O546 O 0.79863 0.84298 0.50197 0.0
C547 C 0.75995 0.7976 0.51402 0.0
N548 N 0.75399 0.8087 0.48969 0.0
C549 C 0.72147 0.77332 0.47916 0.0
C550 C 0.72739 0.7614 0.50404 0.0
C551 C 0.74666 0.77364 0.52156 0.0
C552 C 0.73548 0.7971 0.47266 0.0
H553 H 0.77472 0.80695 0.52756 0.0
C554 C 0.80682 0.85828 0.5214 0.0
O555 O 0.76178 0.92703 0.53666 0.0
O556 O 0.74048 0.88925 0.54764 0.0
N557 N 0.74294 0.83435 0.44543 0.0
C558 C 0.73784 0.84964 0.42329 0.0
C559 C 0.7182 0.84084 0.40424 0.0
C560 C 0.70417 0.81634 0.40802 0.0
C561 C 0.70989 0.80086 0.43086 0.0
C562 C 0.72978 0.81059 0.44911 0.0
H563 H 0.74845 0.86854 0.42035 0.0
O564 O 0.72321 0.90155 0.49512 0.0
O565 O 0.74489 0.86298 0.49409 0.0
O566 O 0.77933 0.9083 0.47943 0.0
O567 O 0.7857 0.8711 0.45468 0.0
C568 C 0.69602 0.77661 0.43669 0.0
C569 C 0.70178 0.76286 0.46083 0.0
H570 H 0.71707 0.74301 0.51001 0.0
H571 H 0.75124 0.76463 0.54085 0.0
H572 H 0.71378 0.85297 0.38674 0.0
H573 H 0.6888 0.80978 0.39344 0.0
H574 H 0.68047 0.76864 0.423 0.0
H575 H 0.69063 0.74449 0.46531 0.0
Mn576 Mn 0.88769 0.0258 0.25795 0.0
Mn577 Mn 0.94335 0.01882 0.29807 0.0
C578 C 0.90337 0.06159 0.28383 0.0
C579 C 0.86843 0.03651 0.21607 0.0
C580 C 0.88725 0.99776 0.31293 0.0
O581 O 0.90467 0.99174 0.24349 0.0
O582 O 0.94159 0.98927 0.27077 0.0
C583 C 0.98502 0.02977 0.25694 0.0
N584 N 0.97379 0.03569 0.28108 0.0
C585 C 1.00678 0.07123 0.28929 0.0
C586 C 0.01881 0.0654 0.2646 0.0
C587 C 0.00784 0.04462 0.24833 0.0
C588 C 0.9841 0.05572 0.29683 0.0
H589 H 0.97661 0.01387 0.24433 0.0
C590 C 0.92652 0.98033 0.25132 0.0
O591 O 0.85541 0.02141 0.23303 0.0
O592 O 0.89278 0.04452 0.22311 0.0
N593 N 0.94818 0.04584 0.32534 0.0
C594 C 0.93375 0.0494 0.34824 0.0
C595 C 0.94197 0.06954 0.36665 0.0
C596 C 0.96504 0.08566 0.36144 0.0
C597 C 0.97974 0.08144 0.3379 0.0
C598 C 0.97074 0.06088 0.32042 0.0
H599 H 0.91598 0.03712 0.35234 0.0
O600 O 0.87838 0.06079 0.27493 0.0
O601 O 0.91862 0.04153 0.27706 0.0
O602 O 0.87486 1.00528 0.29148 0.0
O603 O 0.91276 1.00173 0.3173 0.0
C604 C 1.00274 0.09707 0.3309 0.0
C605 C 0.0162 0.09202 0.30657 0.0
H606 H 0.03637 0.07685 0.25785 0.0
H607 H 0.01694 0.04007 0.22919 0.0
H608 H 0.93049 0.07269 0.38477 0.0
H609 H 0.97122 0.10128 0.3756 0.0
H610 H 0.01006 0.11322 0.34393 0.0
H611 H 0.03369 0.10435 0.30127 0.0
Mn612 Mn 0.25398 0.63978 0.50812 0.0
Mn613 Mn 0.28619 0.58741 0.47991 0.0
C614 C 0.24081 0.62435 0.46587 0.0
C615 C 0.21942 0.65657 0.53515 0.0
C616 C 0.31016 0.64401 0.48171 0.0
O617 O 0.27375 0.62298 0.54015 0.0
O618 O 0.29329 0.58797 0.51944 0.0
C619 C 0.2538 0.54351 0.50456 0.0
N620 N 0.26325 0.5561 0.48221 0.0
C621 C 0.24011 0.52401 0.45317 0.0
C622 C 0.23028 0.51061 0.47588 0.0
C623 C 0.23712 0.52043 0.50168 0.0
C624 C 0.25672 0.54686 0.45729 0.0
H625 H 0.2589 0.55107 0.52442 0.0
C626 C 0.28826 0.60187 0.54051 0.0
O627 O 0.24148 0.67051 0.53061 0.0
O628 O 0.21789 0.63266 0.5247 0.0
N629 N 0.28098 0.58413 0.4418 0.0
C630 C 0.29151 0.59981 0.42197 0.0
C631 C 0.28631 0.5929 0.39495 0.0
C632 C 0.27053 0.56986 0.38859 0.0
C633 C 0.26023 0.55384 0.40934 0.0
C634 C 0.26632 0.56156 0.43589 0.0
H635 H 0.30366 0.61754 0.42672 0.0
O636 O 0.23504 0.64858 0.4734 0.0
O637 O 0.25394 0.60987 0.48333 0.0
O638 O 0.29029 0.65484 0.49382 0.0
O639 O 0.31078 0.61895 0.47596 0.0
C640 C 0.24384 0.53071 0.40471 0.0
C641 C 0.23373 0.51584 0.42661 0.0
H642 H 0.21732 0.49287 0.47375 0.0
H643 H 0.22951 0.51027 0.5193 0.0
H644 H 0.29436 0.60536 0.37905 0.0
H645 H 0.26637 0.56473 0.36773 0.0
H646 H 0.23863 0.52435 0.38439 0.0
H647 H 0.2209 0.49827 0.4228 0.0
Mn648 Mn 0.38892 0.52565 0.7577 0.0
Mn649 Mn 0.44507 0.51773 0.7969 0.0
C650 C 0.40569 0.56131 0.78319 0.0
C651 C 0.36947 0.53616 0.71589 0.0
C652 C 0.3888 0.49743 0.8125 0.0
O653 O 0.40495 0.49112 0.74321 0.0
O654 O 0.44287 0.48862 0.76911 0.0
C655 C 0.48655 0.52889 0.75563 0.0
N656 N 0.47552 0.53459 0.77992 0.0
C657 C 0.50881 0.56981 0.78834 0.0
C658 C 0.52064 0.56419 0.7635 0.0
C659 C 0.50941 0.54367 0.74706 0.0
C660 C 0.48609 0.55436 0.79585 0.0
H661 H 0.47794 0.5132 0.74289 0.0
C662 C 0.42716 0.47979 0.75007 0.0
O663 O 0.35616 0.52194 0.73336 0.0
O664 O 0.39411 0.54364 0.72252 0.0
N665 N 0.45029 0.54438 0.82449 0.0
C666 C 0.43596 0.54786 0.84746 0.0
C667 C 0.44437 0.56782 0.86599 0.0
C668 C 0.46751 0.58385 0.86082 0.0
C669 C 0.4821 0.57971 0.83719 0.0
C670 C 0.47291 0.55934 0.81959 0.0
H671 H 0.4181 0.5357 0.85151 0.0
O672 O 0.38063 0.56101 0.77449 0.0
O673 O 0.42042 0.5409 0.77634 0.0
O674 O 0.37609 0.50572 0.79154 0.0
O675 O 0.41452 0.50057 0.81622 0.0
C676 C 0.50515 0.59527 0.83022 0.0
C677 C 0.51846 0.59037 0.80578 0.0
H678 H 0.53822 0.57561 0.75677 0.0
H679 H 0.51835 0.53929 0.72781 0.0
H680 H 0.43297 0.57092 0.88416 0.0
H681 H 0.47381 0.59936 0.87506 0.0
H682 H 0.51263 0.61127 0.84336 0.0
H683 H 0.53598 0.60266 0.8005 0.0
Mn684 Mn 0.63656 0.01181 0.75382 0.0
Mn685 Mn 0.58031 0.02165 0.79092 0.0
C686 C 0.61918 0.97709 0.77969 0.0
C687 C 0.65701 0.99966 0.71343 0.0
C688 C 0.63674 0.04121 0.80834 0.0
O689 O 0.62115 0.04622 0.73775 0.0
O690 O 0.58384 0.05013 0.76311 0.0
C691 C 0.53935 0.01057 0.74778 0.0
N692 N 0.54962 1.00534 0.77277 0.0
C693 C 0.51455 0.97203 0.78058 0.0
C694 C 0.50348 0.97719 0.75498 0.0
C695 C 0.51599 0.99648 0.73848 0.0
C696 C 0.53788 0.98667 0.78872 0.0
H697 H 0.54892 0.02537 0.73504 0.0
C698 C 0.59949 0.05835 0.74436 0.0
O699 O 0.66977 0.01468 0.73113 0.0
O700 O 0.63213 0.99256 0.71881 0.0
N701 N 0.57367 0.99602 0.81876 0.0
C702 C 0.5872 0.99308 0.8427 0.0
C703 C 0.5774 0.97443 0.86149 0.0
C704 C 0.5536 0.95929 0.85567 0.0
C705 C 0.53974 0.96303 0.83113 0.0
C706 C 0.55038 0.98203 0.81326 0.0
H707 H 0.60543 1.00473 0.84735 0.0
O708 O 0.64426 0.97693 0.77187 0.0
O709 O 0.60463 0.99736 0.77172 0.0
O710 O 0.64931 0.03261 0.78777 0.0
O711 O 0.61102 0.03829 0.81132 0.0
C712 C 0.51604 0.94834 0.82352 0.0
C713 C 0.50352 0.95275 0.79822 0.0
H714 H 0.48548 0.96635 0.74773 0.0
H715 H 0.50763 1.00049 0.71866 0.0
H716 H 0.58819 0.97169 0.88041 0.0
H717 H 0.54623 0.94478 0.87013 0.0
H718 H 0.50746 0.93337 0.83685 0.0
H719 H 0.48548 0.94113 0.79247 0.0
Mn720 Mn 0.76768 0.64332 0.01592 0.0
Mn721 Mn 0.78753 0.6954 0.97719 0.0
C722 C 0.80957 0.66467 0.02392 0.0
C723 C 0.74519 0.62503 0.053 0.0
C724 C 0.7924 0.63769 0.95953 0.0
O725 O 0.73175 0.65429 0.99845 0.0
O726 O 0.74821 0.68686 0.97169 0.0
C727 C 0.75551 0.73687 1.00502 0.0
N728 N 0.77971 0.72815 0.99548 0.0
C729 C 0.8018 0.77049 1.00596 0.0
C730 C 0.77712 0.77999 0.01589 0.0
C731 C 0.75392 0.76301 0.01562 0.0
C732 C 0.80229 0.74402 0.99637 0.0
H733 H 0.73754 0.72405 1.00437 0.0
C734 C 0.72874 0.67206 0.98033 0.0
O735 O 0.75012 0.61078 0.03176 0.0
O736 O 0.75291 0.65011 0.05254 0.0
N737 N 0.8248 0.70689 0.97952 0.0
C738 C 0.84715 0.69432 0.96994 0.0
C739 C 0.87171 0.70885 0.96743 0.0
C740 C 0.87292 0.73618 0.97455 0.0
C741 C 0.84997 0.74842 0.98543 0.0
C742 C 0.82603 0.73297 0.98725 0.0
H743 H 0.84607 0.67352 0.96382 0.0
O744 O 0.80506 0.64016 0.03174 0.0
O745 O 0.78927 0.67636 0.01174 0.0
O746 O 0.78059 0.62745 0.97988 0.0
O747 O 0.7969 0.66286 0.95691 0.0
C748 C 0.84977 0.77544 0.99413 0.0
C749 C 0.82584 0.78631 1.00487 0.0
H750 H 0.77572 0.80028 0.02369 0.0
H751 H 0.73479 0.77019 0.02323 0.0
H752 H 0.88949 0.69918 0.95946 0.0
H753 H 0.89162 0.74756 0.97169 0.0
H754 H 0.86798 0.78796 0.99292 0.0
H755 H 0.82606 0.80697 0.01188 0.0
Mn756 Mn 0.89078 0.51965 0.75449 0.0
Mn757 Mn 0.8353 0.47964 0.76304 0.0
C758 C 0.87438 0.49346 0.71933 0.0
C759 C 0.90978 0.56144 0.74329 0.0
C760 C 0.89178 0.46478 0.7829 0.0
O761 O 0.87436 0.5347 0.78848 0.0
O762 O 0.83788 0.50698 0.79258 0.0
C763 C 0.79352 0.52093 0.75309 0.0
N764 N 0.80452 0.49675 0.74689 0.0
C765 C 0.77086 0.48882 0.71191 0.0
C766 C 0.75905 0.51355 0.71805 0.0
C767 C 0.77047 0.52969 0.7387 0.0
C768 C 0.79376 0.48111 0.72699 0.0
H769 H 0.80229 0.53346 0.76886 0.0
C770 C 0.85296 0.52682 0.80058 0.0
O771 O 0.92325 0.54438 0.75788 0.0
O772 O 0.88526 0.55441 0.7358 0.0
N773 N 0.8297 0.45237 0.73614 0.0
C774 C 0.84397 0.42942 0.7322 0.0
C775 C 0.83536 0.41118 0.71206 0.0
C776 C 0.81207 0.4166 0.69632 0.0
C777 C 0.79751 0.44015 0.70097 0.0
C778 C 0.80691 0.45746 0.7215 0.0
H779 H 0.86195 0.42521 0.74414 0.0
O780 O 0.89939 0.50231 0.71958 0.0
O781 O 0.85948 0.50048 0.73958 0.0
O782 O 0.90396 0.48626 0.77512 0.0
O783 O 0.86622 0.46035 0.77937 0.0
C784 C 0.77428 0.44733 0.68576 0.0
C785 C 0.76101 0.47168 0.69118 0.0
H786 H 0.74132 0.52042 0.70694 0.0
H787 H 0.76155 0.54886 0.74347 0.0
H788 H 0.84673 0.39306 0.70858 0.0
H789 H 0.80564 0.4026 0.68064 0.0
H790 H 0.76664 0.43442 0.66965 0.0
H791 H 0.74333 0.47712 0.67917 0.0
Mn792 Mn 0.76438 0.39373 0.51679 0.0
Mn793 Mn 0.73802 0.33946 0.48411 0.0
C794 C 0.7231 0.37571 0.52985 0.0
C795 C 0.79217 0.41192 0.55089 0.0
C796 C 0.73657 0.3961 0.46135 0.0
O797 O 0.79682 0.37941 0.49648 0.0
O798 O 0.77812 0.34166 0.4785 0.0
C799 C 0.76432 0.29682 0.51624 0.0
N800 N 0.7413 0.30833 0.50625 0.0
C801 C 0.71285 0.27445 0.52656 0.0
C802 C 0.73627 0.26213 0.53693 0.0
C803 C 0.76211 0.27341 0.5318 0.0
C804 C 0.71633 0.29772 0.51116 0.0
H805 H 0.78421 0.30546 0.51239 0.0
C806 C 0.79851 0.35758 0.48307 0.0
O807 O 0.78578 0.42581 0.5297 0.0
O808 O 0.78318 0.38729 0.55175 0.0
N809 N 0.69948 0.33455 0.48787 0.0
C810 C 0.67888 0.3495 0.47732 0.0
C811 C 0.65171 0.34115 0.48094 0.0
C812 C 0.64599 0.31743 0.49514 0.0
C813 C 0.66751 0.30227 0.50563 0.0
C814 C 0.69419 0.31146 0.50119 0.0
H815 H 0.68314 0.36768 0.46627 0.0
O816 O 0.72981 0.4003 0.53607 0.0
O817 O 0.74088 0.36224 0.51635 0.0
O818 O 0.74756 0.40802 0.48167 0.0
O819 O 0.73299 0.3706 0.46003 0.0
C820 C 0.66352 0.27863 0.52068 0.0
C821 C 0.68617 0.26478 0.53121 0.0
H822 H 0.73464 0.24411 0.54901 0.0
H823 H 0.78027 0.26408 0.53985 0.0
H824 H 0.6352 0.35297 0.47281 0.0
H825 H 0.62501 0.31108 0.49794 0.0
H826 H 0.64311 0.27114 0.52459 0.0
H827 H 0.68284 0.24683 0.54305 0.0
Mn828 Mn 0.64263 0.52585 0.26915 0.0
Mn829 Mn 0.69904 0.48878 0.25992 0.0
C830 C 0.65985 0.50019 0.30414 0.0
C831 C 0.62196 0.56627 0.2809 0.0
C832 C 0.64279 0.47124 0.23992 0.0
O833 O 0.6583 0.54179 0.23479 0.0
O834 O 0.69577 0.51656 0.23142 0.0
C835 C 0.73994 0.5319 0.27131 0.0
N836 N 0.7296 0.50691 0.27648 0.0
C837 C 0.7645 0.49901 0.30993 0.0
C838 C 0.77564 0.5246 0.30486 0.0
C839 C 0.76324 0.54114 0.28552 0.0
C840 C 0.74123 0.49092 0.29519 0.0
H841 H 0.73046 0.54466 0.25647 0.0
C842 C 0.68015 0.53524 0.22295 0.0
O843 O 0.60938 0.54845 0.26589 0.0
O844 O 0.6468 0.56098 0.28826 0.0
N845 N 0.70543 0.46095 0.28563 0.0
C846 C 0.69185 0.43704 0.2885 0.0
C847 C 0.70155 0.41819 0.30715 0.0
C848 C 0.72531 0.42394 0.32237 0.0
C849 C 0.73921 0.44848 0.31875 0.0
C850 C 0.72867 0.4664 0.29973 0.0
H851 H 0.67366 0.43243 0.27676 0.0
O852 O 0.63473 0.50794 0.30408 0.0
O853 O 0.6745 0.50807 0.28393 0.0
O854 O 0.63009 0.49179 0.24841 0.0
O855 O 0.66849 0.46835 0.24301 0.0
C856 C 0.76286 0.45603 0.33355 0.0
C857 C 0.77543 0.48133 0.32923 0.0
H858 H 0.7936 0.53181 0.31579 0.0
H859 H 0.77165 0.56096 0.28157 0.0
H860 H 0.69072 0.39929 0.30981 0.0
H861 H 0.73263 0.40944 0.33687 0.0
H862 H 0.77136 0.44266 0.34852 0.0
H863 H 0.79343 0.48703 0.34093 0.0
H864 H 0.14199 0.4512 0.32575 0.0
H865 H 0.07774 0.44388 0.26597 0.0
H866 H 0.12347 0.4122 0.34941 0.0
H867 H 0.05851 0.40518 0.28986 0.0
H868 H 0.0664 0.36445 0.40219 0.0
H869 H 0.08474 0.40169 0.37642 0.0
H870 H 0.0654 0.35894 0.3026 0.0
H871 H 0.04637 0.3217 0.32846 0.0
C872 C 0.12373 0.44126 0.31786 0.0
C873 C 0.11052 0.45108 0.29483 0.0
C874 C 0.11302 0.41902 0.33141 0.0
C875 C 0.08913 0.40584 0.32188 0.0
C876 C 0.07687 0.41483 0.29783 0.0
C877 C 0.08759 0.4372 0.28436 0.0
C878 C 0.06591 0.36292 0.38046 0.0
C879 C 0.05493 0.33992 0.36747 0.0
C880 C 0.07665 0.38428 0.36565 0.0
C881 C 0.07685 0.38325 0.3374 0.0
C882 C 0.06543 0.3605 0.32432 0.0
C883 C 0.05459 0.33908 0.33918 0.0
H884 H 0.96066 0.79131 0.58049 0.0
H885 H 0.92085 0.82189 0.651 0.0
H886 H 0.923 0.80714 0.55242 0.0
H887 H 0.88312 0.83709 0.62306 0.0
H888 H 0.83255 0.88505 0.56337 0.0
H889 H 0.87177 0.87053 0.58998 0.0
H890 H 0.87543 0.7979 0.54234 0.0
H891 H 0.83669 0.81258 0.51539 0.0
C892 C 0.94385 0.80122 0.59006 0.0
C893 C 0.9439 0.80524 0.61808 0.0
C894 C 0.92218 0.81023 0.57395 0.0
C895 C 0.9 0.82349 0.58543 0.0
C896 C 0.90002 0.82738 0.61344 0.0
C897 C 0.92165 0.81841 0.62952 0.0
C898 C 0.84177 0.86604 0.55845 0.0
C899 C 0.83133 0.85003 0.53717 0.0
C900 C 0.8642 0.85762 0.57384 0.0
C901 C 0.87676 0.83296 0.56841 0.0
C902 C 0.86654 0.81714 0.54692 0.0
C903 C 0.84416 0.82555 0.53152 0.0
H904 H 0.44895 0.59082 0.76609 0.0
H905 H 0.38671 0.58833 0.82627 0.0
H906 H 0.46731 0.6328 0.78555 0.0
H907 H 0.40484 0.63039 0.84583 0.0
H908 H 0.46862 0.68461 0.89114 0.0
H909 H 0.44732 0.64477 0.87062 0.0
H910 H 0.45449 0.68089 0.7922 0.0
H911 H 0.47588 0.72089 0.81275 0.0
C912 C 0.43942 0.59923 0.78367 0.0
C913 C 0.41717 0.58602 0.79543 0.0
C914 C 0.44963 0.62339 0.79457 0.0
C915 C 0.43762 0.63479 0.81735 0.0
C916 C 0.41478 0.62187 0.82855 0.0
C917 C 0.4044 0.59789 0.81741 0.0
C918 C 0.46543 0.68419 0.86954 0.0
C919 C 0.47393 0.7059 0.85356 0.0
C920 C 0.45315 0.66138 0.85781 0.0
C921 C 0.44933 0.65966 0.8298 0.0
C922 C 0.45743 0.68155 0.81383 0.0
C923 C 0.46947 0.70452 0.82561 0.0
H924 H 0.57142 0.23941 0.06806 0.0
H925 H 0.60026 0.21763 0.14741 0.0
H926 H 0.61116 0.21794 0.04838 0.0
H927 H 0.63953 0.1954 0.12748 0.0
H928 H 0.68038 0.1321 0.0619 0.0
H929 H 0.64115 0.15216 0.08408 0.0
H930 H 0.67003 0.23121 0.06198 0.0
H931 H 0.70973 0.2114 0.04056 0.0
C932 C 0.586 0.2297 0.08125 0.0
C933 C 0.58275 0.23019 0.10928 0.0
C934 C 0.60874 0.21757 0.06999 0.0
C935 C 0.62827 0.20516 0.0865 0.0
C936 C 0.62466 0.20487 0.11442 0.0
C937 C 0.60225 0.21757 0.12576 0.0
C938 C 0.67852 0.15378 0.06206 0.0
C939 C 0.69815 0.17021 0.04957 0.0
C940 C 0.65613 0.16518 0.07473 0.0
C941 C 0.65267 0.19313 0.07454 0.0
C942 C 0.67233 0.20958 0.06228 0.0
C943 C 0.69505 0.19825 0.05018 0.0
H944 H 0.1355 0.59491 0.22545 0.0
H945 H 0.05066 0.57114 0.23079 0.0
H946 H 0.12199 0.63703 0.20357 0.0
H947 H 0.03744 0.61264 0.20825 0.0
H948 H 0.03359 0.67477 0.13723 0.0
H949 H 0.05111 0.63348 0.15705 0.0
H950 H 0.08664 0.67922 0.22295 0.0
H951 H 0.06839 0.72075 0.20355 0.0
C952 C 0.11406 0.59851 0.22163 0.0
C953 C 0.09413 0.57972 0.22979 0.0
C954 C 0.10638 0.62261 0.20931 0.0
C955 C 0.07872 0.62793 0.20432 0.0
C956 C 0.05889 0.6089 0.21186 0.0
C957 C 0.06648 0.5852 0.22476 0.0
C958 C 0.04536 0.67613 0.15581 0.0
C959 C 0.04955 0.70102 0.16889 0.0
C960 C 0.05531 0.65249 0.16713 0.0
C961 C 0.0702 0.65329 0.19142 0.0
C962 C 0.07532 0.6782 0.20409 0.0
C963 C 0.06481 0.70187 0.19306 0.0
H964 H 0.57777 0.77912 0.44932 0.0
H965 H 0.587 0.83137 0.38126 0.0
H966 H 0.61714 0.79993 0.47115 0.0
H967 H 0.62864 0.85025 0.40104 0.0
H968 H 0.69048 0.89793 0.44851 0.0
H969 H 0.64885 0.87839 0.42938 0.0
H970 H 0.65993 0.80798 0.4794 0.0
H971 H 0.69931 0.82959 0.50045 0.0
C972 C 0.58833 0.79535 0.43918 0.0
C973 C 0.57843 0.80498 0.41457 0.0
C974 C 0.61155 0.80696 0.45134 0.0
C975 C 0.62636 0.82768 0.43849 0.0
C976 C 0.6174 0.83559 0.4126 0.0
C977 C 0.59363 0.8245 0.40091 0.0
C978 C 0.68376 0.87827 0.45525 0.0
C979 C 0.69884 0.86447 0.47477 0.0
C980 C 0.66 0.86672 0.44403 0.0
C981 C 0.65092 0.84082 0.45178 0.0
C982 C 0.66561 0.82781 0.47248 0.0
C983 C 0.68883 0.83984 0.48424 0.0
H984 H 0.46461 0.36777 0.6225 0.0
H985 H 0.49303 0.32674 0.69387 0.0
H986 H 0.4499 0.40512 0.64996 0.0
H987 H 0.47775 0.3642 0.72147 0.0
H988 H 0.47335 0.45002 0.75758 0.0
H989 H 0.48818 0.41152 0.73147 0.0
H990 H 0.41511 0.41576 0.68216 0.0
H991 H 0.40042 0.45452 0.70791 0.0
C992 C 0.46775 0.36664 0.64407 0.0
C993 C 0.48009 0.34411 0.65589 0.0
C994 C 0.45906 0.38806 0.65987 0.0
C995 C 0.46245 0.38764 0.68797 0.0
C996 C 0.47502 0.36528 0.69986 0.0
C997 C 0.4837 0.34374 0.68402 0.0
C998 C 0.46034 0.44273 0.74124 0.0
C999 C 0.43568 0.45556 0.73486 0.0
C1000 C 0.46882 0.42051 0.72635 0.0
C1001 C 0.45292 0.41057 0.70462 0.0
C1002 C 0.42808 0.42313 0.69849 0.0
C1003 C 0.41957 0.44531 0.71339 0.0
H1004 H 0.942 0.26208 0.96689 0.0
H1005 H 0.94788 0.21347 0.89501 0.0
H1006 H 0.90316 0.23501 0.98107 0.0
H1007 H 0.90857 0.18669 0.90905 0.0
H1008 H 0.81758 0.19783 0.98558 0.0
H1009 H 0.85587 0.22528 0.97041 0.0
H1010 H 0.89593 0.15386 0.94259 0.0
H1011 H 0.85743 0.12642 0.95719 0.0
C1012 C 0.93492 0.24577 0.95394 0.0
C1013 C 0.94821 0.24004 0.92974 0.0
C1014 C 0.91248 0.23029 0.96206 0.0
C1015 C 0.90267 0.20862 0.94624 0.0
C1016 C 0.91579 0.20299 0.92193 0.0
C1017 C 0.93826 0.21849 0.91379 0.0
C1018 C 0.83454 0.18791 0.97627 0.0
C1019 C 0.83432 0.15982 0.97271 0.0
C1020 C 0.8566 0.20369 0.96766 0.0
C1021 C 0.87905 0.19183 0.95524 0.0
C1022 C 0.87885 0.16375 0.95171 0.0
C1023 C 0.8568 0.14797 0.96032 0.0
H1024 H 0.3178 0.15448 0.41664 0.0
H1025 H 0.28727 0.08163 0.45346 0.0
H1026 H 0.33218 0.12872 0.37795 0.0
H1027 H 0.30229 0.05573 0.41477 0.0
H1028 H 0.37952 0.07198 0.32477 0.0
H1029 H 0.36559 0.0965 0.36463 0.0
H1030 H 0.29167 0.0483 0.36749 0.0
H1031 H 0.30578 0.02339 0.32797 0.0
C1032 C 0.31421 0.13294 0.4166 0.0
C1033 C 0.30126 0.12022 0.4383 0.0
C1034 C 0.32269 0.11811 0.3944 0.0
C1035 C 0.31852 0.0901 0.3932 0.0
C1036 C 0.30557 0.07731 0.41486 0.0
C1037 C 0.29707 0.09217 0.43714 0.0
C1038 C 0.36031 0.06653 0.33388 0.0
C1039 C 0.34382 0.04565 0.32302 0.0
C1040 C 0.35224 0.08071 0.35671 0.0
C1041 C 0.32745 0.07445 0.3693 0.0
C1042 C 0.31105 0.05346 0.35857 0.0
C1043 C 0.31911 0.03926 0.33574 0.0
H1044 H 0.21555 0.01675 0.68621 0.0
H1045 H 0.15345 0.07588 0.69962 0.0
H1046 H 0.22669 0.03802 0.64386 0.0
H1047 H 0.16472 0.09718 0.65682 0.0
H1048 H 0.2215 0.14404 0.59679 0.0
H1049 H 0.20394 0.12288 0.63731 0.0
H1050 H 0.20669 0.0452 0.59844 0.0
H1051 H 0.22444 0.06634 0.55792 0.0
C1052 C 0.2042 0.03429 0.68017 0.0
C1053 C 0.1836 0.0446 0.69649 0.0
C1054 C 0.21046 0.04634 0.65568 0.0
C1055 C 0.19646 0.06916 0.64685 0.0
C1056 C 0.17593 0.07964 0.66313 0.0
C1057 C 0.16945 0.0674 0.68762 0.0
C1058 C 0.218 0.12248 0.59674 0.0
C1059 C 0.22456 0.10684 0.57419 0.0
C1060 C 0.20781 0.11038 0.61994 0.0
C1061 C 0.20416 0.08234 0.62119 0.0
C1062 C 0.20966 0.06683 0.59823 0.0
C1063 C 0.21966 0.07895 0.57495 0.0
H1064 H 0.20365 0.01081 0.83431 0.0
H1065 H 0.13809 0.95233 0.82798 0.0
H1066 H 0.22281 0.98668 0.87292 0.0
H1067 H 0.15662 0.92841 0.86684 0.0
H1068 H 0.21338 0.87472 0.91418 0.0
H1069 H 0.19522 0.90067 0.87692 0.0
H1070 H 0.21579 0.97435 0.91938 0.0
H1071 H 0.23462 0.94836 0.95659 0.0
C1072 C 0.1935 0.99266 0.84119 0.0
C1073 C 0.17019 0.98262 0.82761 0.0
C1074 C 0.20418 0.97905 0.86349 0.0
C1075 C 0.19155 0.95528 0.87271 0.0
C1076 C 0.16733 0.94618 0.85983 0.0
C1077 C 0.15663 0.95989 0.83768 0.0
C1078 C 0.21419 0.89645 0.91563 0.0
C1079 C 0.22544 0.90938 0.93855 0.0
C1080 C 0.20354 0.91136 0.89427 0.0
C1081 C 0.20374 0.93962 0.89523 0.0
C1082 C 0.21545 0.95262 0.91788 0.0
C1083 C 0.22617 0.93768 0.93928 0.0
H1084 H 0.30347 0.96459 0.05872 0.0
H1085 H 0.31073 0.88674 0.09616 0.0
H1086 H 0.32532 0.98567 0.09818 0.0
H1087 H 0.33251 0.9078 0.13549 0.0
H1088 H 0.39325 0.95276 0.19124 0.0
H1089 H 0.37503 0.93264 0.14946 0.0
H1090 H 0.31291 0.99324 0.14604 0.0
H1091 H 0.33134 0.01326 0.1877 0.0
C1092 C 0.30996 0.95196 0.07524 0.0
C1093 C 0.30536 0.92401 0.07434 0.0
C1094 C 0.32228 0.96404 0.0979 0.0
C1095 C 0.33052 0.94839 0.11997 0.0
C1096 C 0.32657 0.92037 0.11873 0.0
C1097 C 0.31401 0.90833 0.09622 0.0
C1098 C 0.37564 0.96159 0.1815 0.0
C1099 C 0.36296 0.98382 0.19301 0.0
C1100 C 0.36521 0.95013 0.15768 0.0
C1101 C 0.3424 0.96123 0.14459 0.0
C1102 C 0.33055 0.98429 0.15559 0.0
C1103 C 0.3408 0.99551 0.17957 0.0
H1104 H 0.33363 0.38517 0.06464 0.0
H1105 H 0.33969 0.31333 0.01601 0.0
H1106 H 0.37274 0.37103 0.09165 0.0
H1107 H 0.37834 0.29904 0.04332 0.0
H1108 H 0.46365 0.29434 0.0811 0.0
H1109 H 0.4256 0.30964 0.0534 0.0
H1110 H 0.38501 0.33737 0.12454 0.0
H1111 H 0.42327 0.32264 0.15224 0.0
C1112 C 0.34326 0.36639 0.05965 0.0
C1113 C 0.33342 0.35046 0.03804 0.0
C1114 C 0.36561 0.35818 0.07529 0.0
C1115 C 0.37871 0.33385 0.06974 0.0
C1116 C 0.36902 0.31806 0.04799 0.0
C1117 C 0.34671 0.32625 0.03236 0.0
C1118 C 0.44663 0.30366 0.0909 0.0
C1119 C 0.44663 0.30716 0.11899 0.0
C1120 C 0.4247 0.31234 0.07498 0.0
C1121 C 0.40218 0.32477 0.08669 0.0
C1122 C 0.40216 0.32824 0.11477 0.0
C1123 C 0.42407 0.31956 0.1307 0.0
H1124 H 0.99179 0.82467 0.20052 0.0
H1125 H 0.9656 0.86527 0.12807 0.0
H1126 H 0.97628 0.86279 0.2273 0.0
H1127 H 0.95073 0.90302 0.15458 0.0
H1128 H 0.97225 0.95037 0.26082 0.0
H1129 H 0.98707 0.91067 0.23648 0.0
H1130 H 0.91506 0.91407 0.18558 0.0
H1131 H 0.9004 0.95396 0.2095 0.0
C1132 C 0.98287 0.84165 0.19028 0.0
C1133 C 0.97995 0.84172 0.16209 0.0
C1134 C 0.97407 0.86355 0.20562 0.0
C1135 C 0.96204 0.88589 0.1931 0.0
C1136 C 0.95939 0.88597 0.16496 0.0
C1137 C 0.96818 0.86427 0.14971 0.0
C1138 C 0.95949 0.94265 0.24449 0.0
C1139 C 0.93516 0.95559 0.23706 0.0
C1140 C 0.96794 0.91974 0.23065 0.0
C1141 C 0.95235 0.90924 0.20899 0.0
C1142 C 0.9278 0.92187 0.2019 0.0
C1143 C 0.91933 0.94473 0.21572 0.0
H1144 H 0.1684 0.63475 0.54064 0.0
H1145 H 0.2179 0.7041 0.56313 0.0
H1146 H 0.12931 0.65443 0.56275 0.0
H1147 H 0.17871 0.72377 0.58528 0.0
H1148 H 0.10913 0.73785 0.64435 0.0
H1149 H 0.14826 0.71591 0.62455 0.0
H1150 H 0.0989 0.69375 0.55506 0.0
H1151 H 0.05968 0.71573 0.57485 0.0
C1152 C 0.17101 0.65411 0.55048 0.0
C1153 C 0.19628 0.66787 0.55012 0.0
C1154 C 0.14854 0.66545 0.56298 0.0
C1155 C 0.15087 0.6907 0.57568 0.0
C1156 C 0.17631 0.70419 0.57585 0.0
C1157 C 0.19874 0.69296 0.56309 0.0
C1158 C 0.10654 0.72813 0.62493 0.0
C1159 C 0.08126 0.72854 0.61117 0.0
C1160 C 0.12903 0.71572 0.61352 0.0
C1161 C 0.12672 0.70316 0.58821 0.0
C1162 C 0.10128 0.70306 0.5747 0.0
C1163 C 0.07884 0.71573 0.58599 0.0
H1164 H 1.00593 0.68637 0.66463 0.0
H1165 H 0.94641 0.72927 0.71066 0.0
H1166 H 0.9874 0.64364 0.68136 0.0
H1167 H 0.92797 0.68675 0.72705 0.0
H1168 H 0.88315 0.60435 0.72241 0.0
H1169 H 0.90277 0.64649 0.70612 0.0
H1170 H 0.98339 0.61928 0.72741 0.0
H1171 H 0.9637 0.57698 0.74404 0.0
C1172 C 0.98885 0.6867 0.67817 0.0
C1173 C 0.97764 0.71125 0.68626 0.0
C1174 C 0.97841 0.66227 0.68789 0.0
C1175 C 0.95626 0.66191 0.70551 0.0
C1176 C 0.94493 0.68641 0.71337 0.0
C1177 C 0.95559 0.71077 0.70402 0.0
C1178 C 0.90506 0.60736 0.72375 0.0
C1179 C 0.92188 0.58738 0.73459 0.0
C1180 C 0.91627 0.63153 0.71447 0.0
C1181 C 0.9446 0.63613 0.71545 0.0
C1182 C 0.96149 0.61615 0.72623 0.0
C1183 C 0.95021 0.59207 0.73593 0.0
H1184 H 0.18108 0.1474 0.48158 0.0
H1185 H 0.22032 0.2227 0.46036 0.0
H1186 H 0.13823 0.1633 0.46158 0.0
H1187 H 0.17807 0.23838 0.44111 0.0
H1188 H 0.10878 0.24985 0.38325 0.0
H1189 H 0.1497 0.22946 0.40223 0.0
H1190 H 0.10227 0.19683 0.46733 0.0
H1191 H 0.06115 0.21676 0.44759 0.0
C1192 C 0.18061 0.16727 0.47278 0.0
C1193 C 0.2043 0.18356 0.47233 0.0
C1194 C 0.15607 0.17642 0.46142 0.0
C1195 C 0.15484 0.20198 0.44941 0.0
C1196 C 0.17839 0.21835 0.44957 0.0
C1197 C 0.20271 0.2093 0.46079 0.0
C1198 C 0.10724 0.23836 0.40164 0.0
C1199 C 0.0823 0.23584 0.41474 0.0
C1200 C 0.1306 0.22672 0.41257 0.0
C1201 C 0.12937 0.21197 0.43664 0.0
C1202 C 0.10394 0.20811 0.44884 0.0
C1203 C 0.08055 0.21986 0.43786 0.0
H1204 H 0.58867 0.46997 0.22394 0.0
H1205 H 0.66131 0.42173 0.22573 0.0
H1206 H 0.56317 0.4323 0.20325 0.0
H1207 H 0.63586 0.38452 0.20523 0.0
H1208 H 0.5738 0.31469 0.19926 0.0
H1209 H 0.59802 0.35334 0.21936 0.0
H1210 H 0.56283 0.4051 0.15899 0.0
H1211 H 0.53862 0.36612 0.13885 0.0
C1212 C 0.59924 0.45147 0.21988 0.0
C1213 C 0.62709 0.44897 0.22657 0.0
C1214 C 0.58464 0.42996 0.20794 0.0
C1215 C 0.59753 0.40547 0.20273 0.0
C1216 C 0.62532 0.40305 0.20928 0.0
C1217 C 0.63993 0.42451 0.22092 0.0
C1218 C 0.57109 0.33441 0.19051 0.0
C1219 C 0.55382 0.33775 0.1681 0.0
C1220 C 0.5851 0.35645 0.20182 0.0
C1221 C 0.58218 0.38226 0.19082 0.0
C1222 C 0.56514 0.38551 0.16809 0.0
C1223 C 0.55141 0.3633 0.15655 0.0
H1224 H 0.34592 0.88417 0.98839 0.0
H1225 H 0.31043 0.80996 0.95733 0.0
H1226 H 0.39031 0.87097 0.97184 0.0
H1227 H 0.35482 0.79667 0.94132 0.0
H1228 H 0.43324 0.79171 0.89392 0.0
H1229 H 0.38884 0.80746 0.90802 0.0
H1230 H 0.42525 0.83833 0.98176 0.0
H1231 H 0.46965 0.82313 0.96756 0.0
C1232 C 0.34752 0.86505 0.97807 0.0
C1233 C 0.32449 0.84816 0.97425 0.0
C1234 C 0.37304 0.85743 0.96869 0.0
C1235 C 0.37616 0.83274 0.95525 0.0
C1236 C 0.3531 0.81599 0.95123 0.0
C1237 C 0.32762 0.82358 0.96059 0.0
C1238 C 0.43184 0.80196 0.91309 0.0
C1239 C 0.45513 0.80609 0.92957 0.0
C1240 C 0.40632 0.81087 0.92124 0.0
C1241 C 0.40344 0.82414 0.94605 0.0
C1242 C 0.42676 0.82853 0.96237 0.0
C1243 C 0.45225 0.81964 0.95425 0.0
H1244 H 0.87702 0.41214 0.79028 0.0
H1245 H 0.94295 0.46903 0.80612 0.0
H1246 H 0.90272 0.37712 0.81286 0.0
H1247 H 0.9685 0.43377 0.82919 0.0
H1248 H 0.98287 0.37138 0.89862 0.0
H1249 H 0.96077 0.40655 0.87269 0.0
H1250 H 0.94736 0.35101 0.80675 0.0
H1251 H 0.96993 0.31564 0.83256 0.0
C1252 C 0.89703 0.41722 0.79849 0.0
C1253 C 0.90788 0.4435 0.79636 0.0
C1254 C 0.9118 0.39704 0.8113 0.0
C1255 C 0.93761 0.4027 0.82271 0.0
C1256 C 0.94858 0.4289 0.82062 0.0
C1257 C 0.93398 0.44904 0.80736 0.0
C1258 C 0.97537 0.36659 0.87855 0.0
C1259 C 0.97814 0.34058 0.86772 0.0
C1260 C 0.96287 0.38685 0.86365 0.0
C1261 C 0.95241 0.38153 0.83772 0.0
C1262 C 0.95518 0.35562 0.82676 0.0
C1263 C 0.96815 0.33541 0.84151 0.0
H1264 H 0.30548 0.19815 0.56534 0.0
H1265 H 0.36092 0.14218 0.5302 0.0
H1266 H 0.34359 0.22188 0.58738 0.0
H1267 H 0.39944 0.16559 0.55244 0.0
H1268 H 0.4635 0.23136 0.56662 0.0
H1269 H 0.4247 0.20596 0.54809 0.0
H1270 H 0.37884 0.2237 0.61937 0.0
H1271 H 0.4176 0.24983 0.63728 0.0
C1272 C 0.32598 0.19098 0.56241 0.0
C1273 C 0.33055 0.16921 0.54515 0.0
C1274 C 0.34785 0.20431 0.57534 0.0
C1275 C 0.37487 0.1962 0.5712 0.0
C1276 C 0.37909 0.17307 0.55539 0.0
C1277 C 0.35709 0.15956 0.5427 0.0
C1278 C 0.44474 0.23067 0.57778 0.0
C1279 C 0.44321 0.24335 0.60294 0.0
C1280 C 0.42262 0.21554 0.56748 0.0
C1281 C 0.39842 0.21256 0.58218 0.0
C1282 C 0.39686 0.22572 0.60722 0.0
C1283 C 0.41905 0.24078 0.61752 0.0
H1284 H 0.52288 0.70836 0.31298 0.0
H1285 H 0.56272 0.68813 0.38812 0.0
H1286 H 0.54449 0.6701 0.29127 0.0
H1287 H 0.58395 0.64993 0.3666 0.0
H1288 H 0.64305 0.6053 0.31418 0.0
H1289 H 0.61963 0.64336 0.33363 0.0
H1290 H 0.54585 0.62024 0.29034 0.0
H1291 H 0.56948 0.58215 0.27054 0.0
C1292 C 0.53597 0.69559 0.32493 0.0
C1293 C 0.54116 0.70139 0.35225 0.0
C1294 C 0.54832 0.67364 0.3125 0.0
C1295 C 0.56623 0.65713 0.32711 0.0
C1296 C 0.57072 0.66253 0.35461 0.0
C1297 C 0.55834 0.68434 0.36701 0.0
C1298 C 0.6219 0.60841 0.30861 0.0
C1299 C 0.60813 0.59061 0.29087 0.0
C1300 C 0.60839 0.63013 0.31994 0.0
C1301 C 0.58075 0.63469 0.31382 0.0
C1302 C 0.56717 0.61737 0.29541 0.0
C1303 C 0.58069 0.59551 0.28412 0.0
H1304 H 0.09683 0.76925 0.09963 0.0
H1305 H 0.06224 0.84838 0.09974 0.0
H1306 H 0.13919 0.7878 0.08151 0.0
H1307 H 0.10483 0.86743 0.08356 0.0
H1308 H 0.16912 0.89021 0.02401 0.0
H1309 H 0.12862 0.87089 0.04454 0.0
H1310 H 0.17898 0.81347 0.08668 0.0
H1311 H 0.21915 0.83202 0.06444 0.0
C1312 C 0.09868 0.79074 0.09645 0.0
C1313 C 0.07644 0.80745 0.10094 0.0
C1314 C 0.12292 0.80145 0.08609 0.0
C1315 C 0.12547 0.82917 0.08053 0.0
C1316 C 0.1035 0.84592 0.08661 0.0
C1317 C 0.07916 0.83512 0.09626 0.0
C1318 C 0.1713 0.87328 0.03748 0.0
C1319 C 0.19687 0.86196 0.04206 0.0
C1320 C 0.14819 0.86237 0.04961 0.0
C1321 C 0.15032 0.84057 0.06754 0.0
C1322 C 0.1763 0.82984 0.07267 0.0
C1323 C 0.19934 0.84044 0.06 0.0
H1324 H 0.75532 0.96584 0.57137 0.0
H1325 H 0.71471 0.89118 0.59187 0.0
H1326 H 0.73408 0.9879 0.60961 0.0
H1327 H 0.69384 0.91305 0.63009 0.0
H1328 H 0.63546 0.9664 0.67462 0.0
H1329 H 0.65857 0.94646 0.63664 0.0
H1330 H 0.73288 0.98903 0.65942 0.0
H1331 H 0.70957 0.00933 0.69742 0.0
C1332 C 0.74214 0.95406 0.5842 0.0
C1333 C 0.73662 0.92677 0.57848 0.0
C1334 C 0.73001 0.96669 0.60614 0.0
C1335 C 0.71199 0.95233 0.62274 0.0
C1336 C 0.70717 0.92485 0.61742 0.0
C1337 C 0.71933 0.91224 0.5956 0.0
C1338 C 0.65667 0.97171 0.67146 0.0
C1339 C 0.67068 0.9894 0.68913 0.0
C1340 C 0.67 0.96009 0.64978 0.0
C1341 C 0.69769 0.96587 0.64515 0.0
C1342 C 0.71152 0.98422 0.66235 0.0
C1343 C 0.69818 0.9958 0.68416 0.0
H1344 H 0.90237 0.99025 0.36549 0.0
H1345 H 0.83624 0.97424 0.30886 0.0
H1346 H 0.87691 0.96751 0.40059 0.0
H1347 H 0.81093 0.95106 0.34418 0.0
H1348 H 0.7964 0.8818 0.40633 0.0
H1349 H 0.81862 0.90768 0.37123 0.0
H1350 H 0.83247 0.97342 0.42692 0.0
H1351 H 0.80981 0.94764 0.46225 0.0
C1352 C 0.88238 0.98195 0.36048 0.0
C1353 C 0.87139 0.98409 0.33426 0.0
C1354 C 0.86774 0.96906 0.3807 0.0
C1355 C 0.84194 0.95758 0.37513 0.0
C1356 C 0.83085 0.95967 0.34898 0.0
C1357 C 0.84532 0.973 0.32881 0.0
C1358 C 0.80403 0.90181 0.41118 0.0
C1359 C 0.80134 0.9126 0.43721 0.0
C1360 C 0.81661 0.91669 0.39095 0.0
C1361 C 0.82722 0.94255 0.39633 0.0
C1362 C 0.82455 0.95345 0.42227 0.0
C1363 C 0.81151 0.93873 0.44245 0.0
H1364 H 0.79905 0.05041 0.05507 0.0
H1365 H 0.79957 0.13183 0.08578 0.0
H1366 H 0.81723 0.03458 0.098 0.0
H1367 H 0.81824 0.11585 0.12872 0.0
H1368 H 0.88523 0.07795 0.18451 0.0
H1369 H 0.86416 0.0941 0.14295 0.0
H1370 H 0.80211 0.03191 0.14793 0.0
H1371 H 0.82297 0.0159 0.18996 0.0
C1372 C 0.80302 0.06496 0.07097 0.0
C1373 C 0.79792 0.09244 0.06693 0.0
C1374 C 0.81328 0.05581 0.09561 0.0
C1375 C 0.81915 0.07397 0.11666 0.0
C1376 C 0.81401 0.10144 0.11275 0.0
C1377 C 0.80324 0.11055 0.08822 0.0
C1378 C 0.8671 0.06766 0.17676 0.0
C1379 C 0.8558 0.04557 0.19047 0.0
C1380 C 0.85494 0.07707 0.15307 0.0
C1381 C 0.83146 0.06433 0.14228 0.0
C1382 C 0.82026 0.04205 0.1558 0.0
C1383 C 0.83216 0.03292 0.17983 0.0
H1384 H 0.691 0.05664 0.80952 0.0
H1385 H 0.61844 0.05561 0.85787 0.0
H1386 H 0.7168 0.077 0.84718 0.0
H1387 H 0.64419 0.07578 0.89507 0.0
H1388 H 0.70647 0.0807 0.96478 0.0
H1389 H 0.68196 0.061 0.9261 0.0
H1390 H 0.71765 0.12125 0.87454 0.0
H1391 H 0.74213 0.14099 0.91356 0.0
C1392 C 0.68051 0.0608 0.82804 0.0
C1393 C 0.6526 0.05441 0.83058 0.0
C1394 C 0.69528 0.07255 0.84954 0.0
C1395 C 0.6825 0.07786 0.87406 0.0
C1396 C 0.65465 0.07164 0.87652 0.0
C1397 C 0.63987 0.06019 0.85506 0.0
C1398 C 0.70922 0.0895 0.9451 0.0
C1399 C 0.7267 0.11176 0.94182 0.0
C1400 C 0.69505 0.07843 0.92304 0.0
C1401 C 0.69803 0.08951 0.89728 0.0
C1402 C 0.71529 0.11209 0.8941 0.0
C1403 C 0.72918 0.12341 0.91632 0.0
H1404 H 0.61023 0.75495 0.88611 0.0
H1405 H 0.55934 0.71636 0.94478 0.0
H1406 H 0.65017 0.73323 0.90532 0.0
H1407 H 0.59894 0.69313 0.96336 0.0
H1408 H 0.68169 0.68041 1.00749 0.0
H1409 H 0.63926 0.69828 0.98884 0.0
H1410 H 0.67229 0.69283 0.90887 0.0
H1411 H 0.71496 0.67668 0.92788 0.0
C1412 C 0.60774 0.74166 0.90314 0.0
C1413 C 0.58212 0.73791 0.9146 0.0
C1414 C 0.6305 0.72887 0.91398 0.0
C1415 C 0.62792 0.71116 0.93591 0.0
C1416 C 0.60191 0.70691 0.94684 0.0
C1417 C 0.57922 0.72018 0.93625 0.0
C1418 C 0.67949 0.68261 0.9859 0.0
C1419 C 0.70144 0.67728 0.96906 0.0
C1420 C 0.65524 0.6929 0.97515 0.0
C1421 C 0.65242 0.69761 0.94731 0.0
C1422 C 0.67393 0.69043 0.93045 0.0
C1423 C 0.69827 0.68078 0.94125 0.0
H1424 H 0.14288 0.10208 0.8139 0.0
H1425 H 0.06808 0.07913 0.77223 0.0
H1426 H 0.12028 0.14051 0.83356 0.0
H1427 H 0.0453 0.11763 0.79225 0.0
H1428 H 0.06498 0.18605 0.88909 0.0
H1429 H 0.08535 0.14748 0.86737 0.0
H1430 H 0.04465 0.16762 0.79267 0.0
H1431 H 0.0239 0.20625 0.81457 0.0
C1432 C 0.12163 0.10531 0.80881 0.0
C1433 C 0.10726 0.08746 0.79156 0.0
C1434 C 0.1086 0.12725 0.82026 0.0
C1435 C 0.08088 0.13197 0.81475 0.0
C1436 C 0.06669 0.11461 0.79683 0.0
C1437 C 0.07973 0.09253 0.78542 0.0
C1438 C 0.06015 0.18218 0.86809 0.0
C1439 C 0.04289 0.19931 0.85354 0.0
C1440 C 0.07203 0.16016 0.85557 0.0
C1441 C 0.06691 0.15464 0.82819 0.0
C1442 C 0.04893 0.17126 0.81381 0.0
C1443 C 0.0371 0.19342 0.82634 0.0
H1444 H 0.93435 0.29216 0.39351 0.0
H1445 H 0.97025 0.32208 0.468 0.0
H1446 H 0.89009 0.30865 0.40708 0.0
H1447 H 0.92592 0.33805 0.48168 0.0
H1448 H 0.84732 0.38527 0.48748 0.0
H1449 H 0.89173 0.3715 0.47143 0.0
H1450 H 0.85546 0.298 0.43981 0.0
H1451 H 0.81107 0.31187 0.4553 0.0
C1452 C 0.93287 0.30224 0.41277 0.0
C1453 C 0.95596 0.30573 0.42964 0.0
C1454 C 0.90743 0.31158 0.4206 0.0
C1455 C 0.90443 0.32463 0.4455 0.0
C1456 C 0.92756 0.32841 0.46222 0.0
C1457 C 0.95299 0.31908 0.4544 0.0
C1458 C 0.84876 0.36622 0.47699 0.0
C1459 C 0.82552 0.34971 0.47272 0.0
C1460 C 0.87427 0.35827 0.46791 0.0
C1461 C 0.87718 0.33363 0.45435 0.0
C1462 C 0.85391 0.31728 0.44984 0.0
C1463 C 0.82843 0.3252 0.4589 0.0
H1464 H 0.57457 0.94658 0.7657 0.0
H1465 H 0.63999 0.95356 0.82427 0.0
H1466 H 0.55577 0.9078 0.7898 0.0
H1467 H 0.62183 0.91452 0.84817 0.0
H1468 H 0.56558 0.86658 0.90181 0.0
H1469 H 0.58345 0.90397 0.87587 0.0
H1470 H 0.56301 0.86145 0.8022 0.0
H1471 H 0.54445 0.82409 0.82819 0.0
C1472 C 0.58477 0.93981 0.78387 0.0
C1473 C 0.60794 0.95362 0.79393 0.0
C1474 C 0.57429 0.9174 0.79746 0.0
C1475 C 0.58698 0.9083 0.82126 0.0
C1476 C 0.61107 0.92142 0.83038 0.0
C1477 C 0.62157 0.94368 0.81669 0.0
C1478 C 0.56474 0.86513 0.88008 0.0
C1479 C 0.55359 0.84216 0.86717 0.0
C1480 C 0.57522 0.88657 0.86517 0.0
C1481 C 0.57498 0.88565 0.83691 0.0
C1482 C 0.56338 0.86293 0.82393 0.0
C1483 C 0.55281 0.84144 0.83887 0.0
H1484 H 0.96636 0.18442 0.39165 0.0
H1485 H 0.97472 0.22068 0.31336 0.0
H1486 H 0.94396 0.14523 0.37101 0.0
H1487 H 0.95228 0.18133 0.29269 0.0
H1488 H 0.8837 0.08895 0.32645 0.0
H1489 H 0.90165 0.13115 0.34593 0.0
H1490 H 0.96452 0.13334 0.28604 0.0
H1491 H 0.94635 0.0913 0.26666 0.0
C1492 C 0.96317 0.18414 0.37006 0.0
C1493 C 0.97236 0.20561 0.35412 0.0
C1494 C 0.95025 0.16171 0.35825 0.0
C1495 C 0.94651 0.16014 0.33022 0.0
C1496 C 0.95516 0.18187 0.31432 0.0
C1497 C 0.96783 0.20446 0.32617 0.0
C1498 C 0.9014 0.09854 0.31763 0.0
C1499 C 0.91439 0.08658 0.29583 0.0
C1500 C 0.91167 0.12258 0.32872 0.0
C1501 C 0.93462 0.13543 0.31763 0.0
C1502 C 0.94675 0.12399 0.29495 0.0
C1503 C 0.93665 0.0998 0.28411 0.0
H1504 H 0.62063 0.07954 0.69775 0.0
H1505 H 0.56094 0.09441 0.75888 0.0
H1506 H 0.60748 0.12118 0.6751 0.0
H1507 H 0.54799 0.13559 0.73633 0.0
H1508 H 0.55017 0.22109 0.70583 0.0
H1509 H 0.56793 0.18075 0.72712 0.0
H1510 H 0.56646 0.13995 0.65032 0.0
H1511 H 0.54872 0.18043 0.6289 0.0
C1512 C 0.60478 0.09163 0.70639 0.0
C1513 C 0.59188 0.08352 0.73018 0.0
C1514 C 0.59719 0.11542 0.69335 0.0
C1515 C 0.57681 0.13178 0.70402 0.0
C1516 C 0.56403 0.12368 0.72779 0.0
C1517 C 0.57136 0.09988 0.74061 0.0
C1518 C 0.55386 0.20363 0.6934 0.0
C1519 C 0.54785 0.20395 0.66569 0.0
C1520 C 0.56392 0.18045 0.70564 0.0
C1521 C 0.5684 0.15706 0.69046 0.0
C1522 C 0.56338 0.15768 0.66255 0.0
C1523 C 0.55309 0.18084 0.65032 0.0
H1524 H 0.19236 0.39706 0.94869 0.0
H1525 H 0.20185 0.3291 1.00101 0.0
H1526 H 0.15068 0.37722 0.92996 0.0
H1527 H 0.16243 0.30719 0.98034 0.0
H1528 H 0.0802 0.27772 0.95098 0.0
H1529 H 0.11956 0.29893 0.97249 0.0
H1530 H 0.13033 0.34885 0.90197 0.0
H1531 H 0.08872 0.32959 0.88255 0.0
C1532 C 0.18578 0.37741 0.9556 0.0
C1533 C 0.20107 0.36382 0.97511 0.0
C1534 C 0.16199 0.36568 0.9446 0.0
C1535 C 0.15306 0.33981 0.95259 0.0
C1536 C 0.16798 0.32699 0.97326 0.0
C1537 C 0.19124 0.3392 0.98479 0.0
C1538 C 0.09058 0.29396 0.9407 0.0
C1539 C 0.0805 0.30334 0.91606 0.0
C1540 C 0.11381 0.3058 0.95266 0.0
C1541 C 0.12844 0.3265 0.93958 0.0
C1542 C 0.11924 0.33421 0.91371 0.0
C1543 C 0.09549 0.3229 0.90222 0.0
H1544 H 0.44481 0.71639 0.3935 0.0
H1545 H 0.44065 0.76408 0.46615 0.0
H1546 H 0.40565 0.68966 0.40794 0.0
H1547 H 0.40198 0.737 0.48076 0.0
H1548 H 0.31678 0.69883 0.48723 0.0
H1549 H 0.35445 0.72695 0.47154 0.0
H1550 H 0.39424 0.65643 0.44117 0.0
H1551 H 0.35648 0.62843 0.45622 0.0
C1552 C 0.43559 0.72122 0.41253 0.0
C1553 C 0.44601 0.74246 0.4286 0.0
C1554 C 0.4132 0.70575 0.42091 0.0
C1555 C 0.40065 0.71107 0.44559 0.0
C1556 C 0.41086 0.73251 0.46148 0.0
C1557 C 0.4332 0.74799 0.45312 0.0
C1558 C 0.33357 0.68929 0.47726 0.0
C1559 C 0.33348 0.66129 0.47307 0.0
C1560 C 0.35525 0.70543 0.46833 0.0
C1561 C 0.37741 0.69401 0.45499 0.0
C1562 C 0.37735 0.66601 0.45094 0.0
C1563 C 0.35571 0.6499 0.45982 0.0
H1564 H 0.82771 0.50759 0.84538 0.0
H1565 H 0.85861 0.58054 0.80955 0.0
H1566 H 0.81404 0.53293 0.88492 0.0
H1567 H 0.84321 0.60629 0.84776 0.0
H1568 H 0.83606 0.64563 0.92736 0.0
H1569 H 0.85159 0.61775 0.89107 0.0
H1570 H 0.78417 0.56233 0.90399 0.0
H1571 H 0.77009 0.58952 0.9422 0.0
C1572 C 0.83133 0.52913 0.84592 0.0
C1573 C 0.84448 0.54207 0.82455 0.0
C1574 C 0.82328 0.54377 0.8685 0.0
C1575 C 0.82756 0.57185 0.86995 0.0
C1576 C 0.84025 0.58469 0.8481 0.0
C1577 C 0.84895 0.56996 0.82595 0.0
C1578 C 0.8247 0.62735 0.92272 0.0
C1579 C 0.80185 0.61981 0.93775 0.0
C1580 C 0.83341 0.6114 0.90149 0.0
C1581 C 0.81898 0.5878 0.89393 0.0
C1582 C 0.79616 0.58009 0.90922 0.0
C1583 C 0.78791 0.59576 0.93109 0.0
H1584 H 0.71984 0.5212 0.18795 0.0
H1585 H 0.65856 0.58126 0.20086 0.0
H1586 H 0.73318 0.54352 0.14682 0.0
H1587 H 0.6721 0.60369 0.15922 0.0
H1588 H 0.7305 0.65005 0.09975 0.0
H1589 H 0.71285 0.62903 0.14051 0.0
H1590 H 0.71372 0.55145 0.10132 0.0
H1591 H 0.73139 0.5723 0.06076 0.0
C1592 C 0.70915 0.53918 0.18207 0.0
C1593 C 0.68805 0.54936 0.19785 0.0
C1594 C 0.71672 0.55189 0.15829 0.0
C1595 C 0.70359 0.57527 0.14962 0.0
C1596 C 0.68267 0.58574 0.16543 0.0
C1597 C 0.67485 0.57282 0.18922 0.0
C1598 C 0.7267 0.62853 0.09978 0.0
C1599 C 0.73254 0.61283 0.07706 0.0
C1600 C 0.71646 0.61653 0.12309 0.0
C1601 C 0.71209 0.58854 0.12423 0.0
C1602 C 0.71723 0.573 0.10122 0.0
C1603 C 0.72725 0.58499 0.07792 0.0
H1604 H 0.71424 0.37802 0.41374 0.0
H1605 H 0.73566 0.45126 0.45676 0.0
H1606 H 0.69579 0.40426 0.37689 0.0
H1607 H 0.71654 0.47759 0.41987 0.0
H1608 H 0.639 0.45573 0.3279 0.0
H1609 H 0.65728 0.43191 0.36694 0.0
H1610 H 0.72325 0.49038 0.3735 0.0
H1611 H 0.70433 0.51442 0.33473 0.0
C1612 C 0.71502 0.39974 0.41542 0.0
C1613 C 0.72643 0.41245 0.43839 0.0
C1614 C 0.7042 0.41482 0.39429 0.0
C1615 C 0.70436 0.44307 0.39548 0.0
C1616 C 0.71621 0.45587 0.41819 0.0
C1617 C 0.72711 0.44075 0.4394 0.0
C1618 C 0.65742 0.46337 0.33776 0.0
C1619 C 0.67101 0.48611 0.32776 0.0
C1620 C 0.66798 0.44973 0.36002 0.0
C1621 C 0.69211 0.45887 0.37306 0.0
C1622 C 0.70471 0.4827 0.36395 0.0
C1623 C 0.69415 0.49626 0.34155 0.0
H1624 H 0.89385 0.45074 0.69212 0.0
H1625 H 0.83088 0.51023 0.69003 0.0
H1626 H 0.87603 0.43136 0.64985 0.0
H1627 H 0.81285 0.49095 0.64785 0.0
H1628 H 0.80524 0.46497 0.55947 0.0
H1629 H 0.82638 0.48513 0.59976 0.0
H1630 H 0.83361 0.40634 0.63509 0.0
H1631 H 0.81257 0.38619 0.59493 0.0
C1632 C 0.87606 0.45946 0.68261 0.0
C1633 C 0.86301 0.4812 0.69462 0.0
C1634 C 0.86587 0.44845 0.65852 0.0
C1635 C 0.84295 0.45954 0.64566 0.0
C1636 C 0.83061 0.48205 0.65723 0.0
C1637 C 0.84063 0.49282 0.6815 0.0
C1638 C 0.81163 0.45195 0.57571 0.0
C1639 C 0.80724 0.424 0.57404 0.0
C1640 C 0.82353 0.4635 0.59884 0.0
C1641 C 0.83152 0.44731 0.62059 0.0
C1642 C 0.82784 0.41931 0.61857 0.0
C1643 C 0.81572 0.40779 0.59559 0.0
H1644 H 0.39427 0.0954 0.19995 0.0
H1645 H 0.45624 0.08954 0.26225 0.0
H1646 H 0.41574 0.1368 0.18384 0.0
H1647 H 0.4775 0.13137 0.24627 0.0
H1648 H 0.48099 0.22424 0.22825 0.0
H1649 H 0.46255 0.18131 0.24376 0.0
H1650 H 0.46186 0.15099 0.16235 0.0
H1651 H 0.4808 0.19394 0.14669 0.0
C1652 C 0.41243 0.10301 0.21028 0.0
C1653 C 0.42352 0.08926 0.23245 0.0
C1654 C 0.42482 0.1266 0.2009 0.0
C1655 C 0.44832 0.13723 0.21374 0.0
C1656 C 0.45934 0.12363 0.23605 0.0
C1657 C 0.44721 0.09971 0.24515 0.0
C1658 C 0.47704 0.20843 0.2136 0.0
C1659 C 0.48231 0.21259 0.18617 0.0
C1660 C 0.46663 0.18378 0.22256 0.0
C1661 C 0.46077 0.16284 0.20427 0.0
C1662 C 0.46608 0.16687 0.17686 0.0
C1663 C 0.47701 0.1914 0.16793 0.0
H1664 H 0.03605 0.86426 0.63819 0.0
H1665 H 0.06963 0.81234 0.69906 0.0
H1666 H 0.06068 0.90289 0.65859 0.0
H1667 H 0.09422 0.85058 0.71942 0.0
H1668 H 0.15838 0.9179 0.7267 0.0
H1669 H 0.13271 0.88116 0.70564 0.0
H1670 H 0.06067 0.92988 0.70314 0.0
H1671 H 0.08641 0.96709 0.72439 0.0
C1672 C 0.0486 0.86126 0.65601 0.0
C1673 C 0.05044 0.8357 0.66764 0.0
C1674 C 0.06256 0.88325 0.66771 0.0
C1675 C 0.07922 0.87972 0.69067 0.0
C1676 C 0.0816 0.85389 0.7017 0.0
C1677 C 0.06738 0.83209 0.69025 0.0
C1678 C 0.13709 0.92097 0.72168 0.0
C1679 C 0.12449 0.94555 0.72733 0.0
C1680 C 0.12236 0.89979 0.7097 0.0
C1681 C 0.0947 0.90265 0.70284 0.0
C1682 C 0.08205 0.92724 0.70809 0.0
C1683 C 0.09676 0.94846 0.72036 0.0
H1684 H 0.4814 0.8736 0.39706 0.0
H1685 H 0.46683 0.81777 0.33136 0.0
H1686 H 0.4592 0.90889 0.37142 0.0
H1687 H 0.44409 0.8533 0.30585 0.0
H1688 H 0.37444 0.9157 0.29018 0.0
H1689 H 0.39978 0.88027 0.31261 0.0
H1690 H 0.46687 0.93574 0.32766 0.0
H1691 H 0.44173 0.97134 0.30473 0.0
C1692 C 0.47352 0.86881 0.37712 0.0
C1693 C 0.4759 0.84275 0.3663 0.0
C1694 C 0.46094 0.88915 0.36239 0.0
C1695 C 0.44998 0.88386 0.33665 0.0
C1696 C 0.45231 0.85788 0.32572 0.0
C1697 C 0.46538 0.83759 0.34028 0.0
C1698 C 0.39465 0.92043 0.2981 0.0
C1699 C 0.40601 0.94647 0.29562 0.0
C1700 C 0.40921 0.90002 0.31082 0.0
C1701 C 0.4353 0.90523 0.3218 0.0
C1702 C 0.44673 0.9312 0.31942 0.0
C1703 C 0.43235 0.95155 0.30625 0.0
H1704 H 0.86085 0.64546 0.02812 0.0
H1705 H 0.81319 0.71549 0.04473 0.0
H1706 H 0.8999 0.6659 0.05185 0.0
H1707 H 0.85259 0.73675 0.06734 0.0
H1708 H 0.97223 0.72052 0.07653 0.0
H1709 H 0.93416 0.70003 0.05125 0.0
H1710 H 0.87799 0.73208 0.10886 0.0
H1711 H 0.9164 0.75283 0.13384 0.0
C1712 C 0.85903 0.6656 0.03623 0.0
C1713 C 0.83424 0.67919 0.03399 0.0
C1714 C 0.88141 0.67737 0.0498 0.0
C1715 C 0.87947 0.70298 0.06172 0.0
C1716 C 0.85478 0.71686 0.0588 0.0
C1717 C 0.83235 0.70497 0.0453 0.0
C1718 C 0.95167 0.72329 0.08358 0.0
C1719 C 0.94701 0.7391 0.10642 0.0
C1720 C 0.92986 0.71129 0.06932 0.0
C1721 C 0.90284 0.71478 0.07765 0.0
C1722 C 0.89841 0.72961 0.10137 0.0
C1723 C 0.92034 0.74138 0.11578 0.0
H1724 H 0.56132 0.31664 0.55168 0.0
H1725 H 0.59806 0.29683 0.62858 0.0
H1726 H 0.60405 0.33546 0.53696 0.0
H1727 H 0.64164 0.31615 0.61344 0.0
H1728 H 0.71994 0.33052 0.56039 0.0
H1729 H 0.67878 0.31023 0.57984 0.0
H1730 H 0.63111 0.37536 0.54763 0.0
H1731 H 0.67203 0.39494 0.52781 0.0
C1732 C 0.57853 0.31633 0.56559 0.0
C1733 C 0.57604 0.30557 0.59158 0.0
C1734 C 0.60313 0.32724 0.55706 0.0
C1735 C 0.62612 0.32776 0.57417 0.0
C1736 C 0.62417 0.31609 0.59984 0.0
C1737 C 0.59927 0.30508 0.60852 0.0
C1738 C 0.70049 0.34015 0.5573 0.0
C1739 C 0.69864 0.36345 0.54159 0.0
C1740 C 0.67709 0.32885 0.56877 0.0
C1741 C 0.65162 0.34091 0.56483 0.0
C1742 C 0.6503 0.36517 0.55041 0.0
C1743 C 0.67364 0.37642 0.53908 0.0
H1744 H 0.25756 0.46564 0.07179 0.0
H1745 H 0.21694 0.39088 0.09198 0.0
H1746 H 0.23672 0.4874 0.11047 0.0
H1747 H 0.19648 0.41245 0.13057 0.0
H1748 H 0.1384 0.46557 0.17559 0.0
H1749 H 0.16128 0.44614 0.13724 0.0
H1750 H 0.23597 0.48772 0.1606 0.0
H1751 H 0.21289 0.50751 0.19906 0.0
C1752 C 0.24445 0.45378 0.08463 0.0
C1753 C 0.2388 0.42656 0.07872 0.0
C1754 C 0.23257 0.46624 0.10681 0.0
C1755 C 0.21467 0.45175 0.12342 0.0
C1756 C 0.20973 0.42434 0.11789 0.0
C1757 C 0.22165 0.41191 0.09586 0.0
C1758 C 0.15965 0.47077 0.1725 0.0
C1759 C 0.17384 0.48802 0.19048 0.0
C1760 C 0.17283 0.45945 0.1506 0.0
C1761 C 0.20056 0.46509 0.14604 0.0
C1762 C 0.21458 0.48303 0.16351 0.0
C1763 C 0.20137 0.49432 0.18557 0.0
H1764 H 0.40476 0.48907 0.86471 0.0
H1765 H 0.33734 0.47486 0.80914 0.0
H1766 H 0.37949 0.46643 0.90006 0.0
H1767 H 0.31229 0.45169 0.84465 0.0
H1768 H 0.29825 0.38174 0.90649 0.0
H1769 H 0.32032 0.40761 0.87127 0.0
H1770 H 0.33503 0.4731 0.92705 0.0
H1771 H 0.31241 0.44738 0.96247 0.0
C1772 C 0.38453 0.48119 0.85999 0.0
C1773 C 0.37311 0.48382 0.83399 0.0
C1774 C 0.37002 0.46835 0.88035 0.0
C1775 C 0.34393 0.45737 0.87512 0.0
C1776 C 0.33242 0.45993 0.84919 0.0
C1777 C 0.34675 0.47324 0.8289 0.0
C1778 C 0.30603 0.4017 0.91133 0.0
C1779 C 0.30356 0.41245 0.9374 0.0
C1780 C 0.31853 0.41657 0.89104 0.0
C1781 C 0.32933 0.44236 0.89641 0.0
C1782 C 0.32693 0.4532 0.92241 0.0
C1783 C 0.31393 0.43851 0.94264 0.0
H1784 H 0.33064 0.56771 0.54818 0.0
H1785 H 0.27213 0.61442 0.5917 0.0
H1786 H 0.34949 0.55128 0.59051 0.0
H1787 H 0.29107 0.59766 0.63424 0.0
H1788 H 0.31536 0.53553 0.70108 0.0
H1789 H 0.29514 0.55183 0.65888 0.0
H1790 H 0.37546 0.57218 0.63026 0.0
H1791 H 0.39559 0.55623 0.6723 0.0
C1792 C 0.32175 0.57448 0.56677 0.0
C1793 C 0.29988 0.59246 0.56651 0.0
C1794 C 0.33266 0.56511 0.59103 0.0
C1795 C 0.32175 0.57317 0.61565 0.0
C1796 C 0.29974 0.59097 0.61551 0.0
C1797 C 0.28906 0.60071 0.59118 0.0
C1798 C 0.32866 0.54335 0.6857 0.0
C1799 C 0.35706 0.54454 0.68998 0.0
C1800 C 0.31709 0.55287 0.66167 0.0
C1801 C 0.33374 0.5633 0.64132 0.0
C1802 C 0.36214 0.56409 0.6455 0.0
C1803 C 0.37365 0.555 0.66961 0.0
H1804 H 0.19261 0.55587 0.31066 0.0
H1805 H 0.11928 0.55513 0.35787 0.0
H1806 H 0.2176 0.57733 0.3482 0.0
H1807 H 0.14432 0.57627 0.39508 0.0
H1808 H 0.20716 0.58098 0.4651 0.0
H1809 H 0.18254 0.56135 0.42645 0.0
H1810 H 0.21717 0.62236 0.37509 0.0
H1811 H 0.24169 0.64213 0.41411 0.0
C1812 C 0.18179 0.56032 0.32892 0.0
C1813 C 0.15392 0.55367 0.3312 0.0
C1814 C 0.19609 0.5727 0.35034 0.0
C1815 C 0.18289 0.57834 0.37453 0.0
C1816 C 0.15505 0.57192 0.37674 0.0
C1817 C 0.1407 0.5599 0.35531 0.0
C1818 C 0.20961 0.59001 0.44548 0.0
C1819 C 0.22683 0.61248 0.44223 0.0
C1820 C 0.19538 0.57897 0.42346 0.0
C1821 C 0.19809 0.59027 0.39777 0.0
C1822 C 0.21501 0.61309 0.39462 0.0
C1823 C 0.22893 0.6244 0.41683 0.0
loop_
_geom_bond_atom_site_label_1
_geom_bond_atom_site_label_2
_geom_bond_distance
_geom_bond_site_symmetry_2
_ccdc_geom_bond_type
Mn0 O5 2.095 1_455 S
Mn0 O15 2.162 1_455 S
Mn0 O16 2.297 1_455 S
Mn0 O24 2.385 . S
Mn0 O25 2.209 . S
Mn0 O26 2.094 . S
Mn1 O6 2.121 1_455 S
Mn1 N8 2.257 . S
Mn1 N17 2.282 . S
Mn1 O25 2.215 . S
Mn1 O27 2.117 . S
C2 O24 1.234 . S
C2 O25 1.283 . S
C3 O15 1.281 . S
C3 O16 1.236 . S
C4 O26 1.240 . S
C4 O27 1.264 . S
O5 Mn0 2.095 1_655 S
O5 C14 1.250 . S
O6 Mn1 2.121 1_655 S
O6 C14 1.258 . S
C7 N8 1.326 . S
C7 C11 1.460 . S
C7 H13 0.898 1_455 S
N8 Mn1 2.257 . S
N8 C7 1.326 . S
N8 C12 1.362 . S
C9 C10 1.258 . S
C9 C12 1.431 . S
C9 C29 1.449 . S
C10 C9 1.258 . S
C10 C11 1.477 . S
C10 H30 0.931 . S
C11 C7 1.460 . S
C11 C10 1.477 . S
C11 H31 0.930 . S
C12 N8 1.362 . S
C12 C9 1.431 . S
C12 C22 1.476 . S
H13 C7 0.898 1_655 S
C14 O5 1.250 . S
C14 O6 1.258 . S
O15 Mn0 2.162 1_655 S
O15 C3 1.281 . S
O16 Mn0 2.297 1_655 S
O16 C3 1.236 . S
N17 Mn1 2.282 . S
N17 C18 1.328 . S
N17 C22 1.318 . S
C18 N17 1.328 . S
C18 C19 1.457 . S
C18 H23 0.929 . S
C19 C18 1.457 . S
C19 C20 1.291 . S
C19 H32 0.931 . S
C20 C19 1.291 . S
C20 C21 1.373 . S
C20 H33 0.929 . S
C21 C20 1.373 . S
C21 C22 1.396 . S
C21 C28 1.403 . S
C22 C12 1.476 . S
C22 N17 1.318 . S
C22 C21 1.396 . S
H23 C18 0.929 . S
O24 Mn0 2.385 . S
O24 C2 1.234 . S
O25 Mn0 2.209 . S
O25 Mn1 2.215 . S
O25 C2 1.283 . S
O26 Mn0 2.094 . S
O26 C4 1.240 . S
O27 Mn1 2.117 . S
O27 C4 1.264 . S
C28 C21 1.403 . S
C28 C29 1.399 . S
C28 H34 0.929 . S
C29 C9 1.449 . S
C29 C28 1.399 . S
C29 H35 0.930 . S
H30 C10 0.931 . S
H31 C11 0.930 . S
H32 C19 0.931 . S
H33 C20 0.929 . S
H34 C28 0.929 . S
H35 C29 0.930 . S
Mn36 O41 2.095 1_455 S
Mn36 O51 2.162 . S
Mn36 O52 2.297 . S
Mn36 O60 2.385 . S
Mn36 O61 2.209 . S
Mn36 O62 2.094 1_455 S
Mn37 O42 2.121 . S
Mn37 N44 2.257 . S
Mn37 N53 2.282 . S
Mn37 O61 2.215 1_655 S
Mn37 O63 2.117 . S
C38 O60 1.234 . S
C38 O61 1.283 . S
C39 O51 1.281 . S
C39 O52 1.236 . S
C40 O62 1.240 . S
C40 O63 1.264 . S
O41 Mn36 2.095 1_655 S
O41 C50 1.250 . S
O42 Mn37 2.121 . S
O42 C50 1.258 . S
C43 N44 1.326 . S
C43 C47 1.460 . S
C43 H49 0.929 . S
N44 Mn37 2.257 . S
N44 C43 1.326 . S
N44 C48 1.362 . S
C45 C46 1.258 . S
C45 C48 1.431 . S
C45 C65 1.449 . S
C46 C45 1.258 . S
C46 C47 1.477 . S
C46 H66 0.931 . S
C47 C43 1.460 . S
C47 C46 1.477 . S
C47 H67 0.930 . S
C48 N44 1.362 . S
C48 C45 1.431 . S
C48 C58 1.476 . S
H49 C43 0.929 . S
C50 O41 1.250 . S
C50 O42 1.258 . S
O51 Mn36 2.162 . S
O51 C39 1.281 . S
O52 Mn36 2.297 . S
O52 C39 1.236 . S
N53 Mn37 2.282 . S
N53 C54 1.328 . S
N53 C58 1.318 . S
C54 N53 1.328 . S
C54 C55 1.457 . S
C54 H59 0.929 . S
C55 C54 1.457 . S
C55 C56 1.291 . S
C55 H68 0.931 . S
C56 C55 1.291 . S
C56 C57 1.373 . S
C56 H69 0.929 . S
C57 C56 1.373 . S
C57 C58 1.396 . S
C57 C64 1.403 . S
C58 C48 1.476 . S
C58 N53 1.318 . S
C58 C57 1.396 . S
H59 C54 0.929 . S
O60 Mn36 2.385 . S
O60 C38 1.234 . S
O61 Mn36 2.209 . S
O61 Mn37 2.215 1_455 S
O61 C38 1.283 . S
O62 Mn36 2.094 1_655 S
O62 C40 1.240 . S
O63 Mn37 2.117 . S
O63 C40 1.264 . S
C64 C57 1.403 . S
C64 C65 1.399 . S
C64 H70 0.929 . S
C65 C45 1.449 . S
C65 C64 1.399 . S
C65 H71 0.930 . S
H66 C46 0.931 . S
H67 C47 0.930 . S
H68 C55 0.931 . S
H69 C56 0.929 . S
H70 C64 0.929 . S
H71 C65 0.930 . S
Mn72 O77 2.095 . S
Mn72 O87 2.162 . S
Mn72 O88 2.297 . S
Mn72 O96 2.385 . S
Mn72 O97 2.209 . S
Mn72 O98 2.094 . S
Mn73 O78 2.121 . S
Mn73 N80 2.257 . S
Mn73 N89 2.282 . S
Mn73 O97 2.215 . S
Mn73 O99 2.117 . S
C74 O96 1.234 . S
C74 O97 1.283 . S
C75 O87 1.281 . S
C75 O88 1.236 . S
C76 O98 1.240 . S
C76 O99 1.264 . S
O77 Mn72 2.095 . S
O77 C86 1.250 . S
O78 Mn73 2.121 . S
O78 C86 1.258 . S
C79 N80 1.326 . S
C79 C83 1.460 1_556 S
C79 H85 0.929 . S
N80 Mn73 2.257 . S
N80 C79 1.326 . S
N80 C84 1.362 . S
C81 C82 1.258 1_556 S
C81 C84 1.431 . S
C81 C101 1.449 1_556 S
C82 C81 1.258 1_554 S
C82 C83 1.477 . S
C82 H102 0.931 . S
C83 C79 1.460 1_554 S
C83 C82 1.477 . S
C83 H103 0.930 . S
C84 N80 1.362 . S
C84 C81 1.431 . S
C84 C94 1.476 . S
H85 C79 0.929 . S
C86 O77 1.250 . S
C86 O78 1.258 . S
O87 Mn72 2.162 . S
O87 C75 1.281 . S
O88 Mn72 2.297 . S
O88 C75 1.236 . S
N89 Mn73 2.282 . S
N89 C90 1.328 . S
N89 C94 1.318 . S
C90 N89 1.328 . S
C90 C91 1.457 . S
C90 H95 0.929 . S
C91 C90 1.457 . S
C91 C92 1.291 . S
C91 H104 0.931 . S
C92 C91 1.291 . S
C92 C93 1.373 . S
C92 H105 0.929 . S
C93 C92 1.373 . S
C93 C94 1.396 . S
C93 C100 1.403 . S
C94 C84 1.476 . S
C94 N89 1.318 . S
C94 C93 1.396 . S
H95 C90 0.929 . S
O96 Mn72 2.385 . S
O96 C74 1.234 . S
O97 Mn72 2.209 . S
O97 Mn73 2.215 . S
O97 C74 1.283 . S
O98 Mn72 2.094 . S
O98 C76 1.240 . S
O99 Mn73 2.117 . S
O99 C76 1.264 . S
C100 C93 1.403 . S
C100 C101 1.399 1_556 S
C100 H106 0.929 . S
C101 C81 1.449 1_554 S
C101 C100 1.399 1_554 S
C101 H107 0.930 . S
H102 C82 0.931 . S
H103 C83 0.930 . S
H104 C91 0.931 . S
H105 C92 0.929 . S
H106 C100 0.929 . S
H107 C101 0.930 . S
Mn108 O113 2.095 . S
Mn108 O123 2.162 . S
Mn108 O124 2.297 . S
Mn108 O132 2.385 . S
Mn108 O133 2.209 . S
Mn108 O134 2.094 . S
Mn109 O114 2.121 . S
Mn109 N116 2.257 . S
Mn109 N125 2.282 . S
Mn109 O133 2.215 . S
Mn109 O135 2.117 . S
C110 O132 1.234 . S
C110 O133 1.283 . S
C111 O123 1.281 . S
C111 O124 1.236 . S
C112 O134 1.240 . S
C112 O135 1.264 . S
O113 Mn108 2.095 . S
O113 C122 1.250 . S
O114 Mn109 2.121 . S
O114 C122 1.258 . S
C115 N116 1.326 . S
C115 C119 1.460 . S
C115 H121 0.929 . S
N116 Mn109 2.257 . S
N116 C115 1.326 . S
N116 C120 1.362 . S
C117 C118 1.258 . S
C117 C120 1.431 . S
C117 C137 1.449 . S
C118 C117 1.258 . S
C118 C119 1.477 . S
C118 H138 0.931 . S
C119 C115 1.460 . S
C119 C118 1.477 . S
C119 H139 0.930 . S
C120 N116 1.362 . S
C120 C117 1.431 . S
C120 C130 1.476 . S
H121 C115 0.929 . S
C122 O113 1.250 . S
C122 O114 1.258 . S
O123 Mn108 2.162 . S
O123 C111 1.281 . S
O124 Mn108 2.297 . S
O124 C111 1.236 . S
N125 Mn109 2.282 . S
N125 C126 1.328 . S
N125 C130 1.318 . S
C126 N125 1.328 . S
C126 C127 1.457 . S
C126 H131 0.929 . S
C127 C126 1.457 . S
C127 C128 1.291 . S
C127 H140 0.931 . S
C128 C127 1.291 . S
C128 C129 1.373 . S
C128 H141 0.929 . S
C129 C128 1.373 . S
C129 C130 1.396 . S
C129 C136 1.403 . S
C130 C120 1.476 . S
C130 N125 1.318 . S
C130 C129 1.396 . S
H131 C126 0.929 . S
O132 Mn108 2.385 . S
O132 C110 1.234 . S
O133 Mn108 2.209 . S
O133 Mn109 2.215 . S
O133 C110 1.283 . S
O134 Mn108 2.094 . S
O134 C112 1.240 . S
O135 Mn109 2.117 . S
O135 C112 1.264 . S
C136 C129 1.403 . S
C136 C137 1.399 . S
C136 H142 0.929 . S
C137 C117 1.449 . S
C137 C136 1.399 . S
C137 H143 0.930 . S
H138 C118 0.931 . S
H139 C119 0.930 . S
H140 C127 0.931 . S
H141 C128 0.929 . S
H142 C136 0.929 . S
H143 C137 0.930 . S
Mn144 O149 2.095 . S
Mn144 O159 2.162 . S
Mn144 O160 2.297 . S
Mn144 O168 2.385 1_455 S
Mn144 O169 2.209 1_455 S
Mn144 O170 2.094 1_455 S
Mn145 O150 2.121 1_655 S
Mn145 N152 2.257 . S
Mn145 N161 2.282 . S
Mn145 O169 2.215 . S
Mn145 O171 2.117 . S
C146 O168 1.234 . S
C146 O169 1.283 . S
C147 O159 1.281 . S
C147 O160 1.236 . S
C148 O170 1.240 . S
C148 O171 1.264 . S
O149 Mn144 2.095 . S
O149 C158 1.250 . S
O150 Mn145 2.121 1_455 S
O150 C158 1.258 . S
C151 N152 1.326 . S
C151 C155 1.420 1_554 S
C151 H157 0.929 1_655 S
N152 Mn145 2.257 . S
N152 C151 1.326 . S
N152 C156 1.362 . S
C153 C154 1.258 1_554 S
C153 C156 1.431 . S
C153 C173 1.449 . S
C154 C153 1.258 1_556 S
C154 C155 1.487 . S
C154 H174 0.931 . S
C155 C151 1.420 1_556 S
C155 C154 1.487 . S
C155 H175 0.960 1_655 S
C156 N152 1.362 . S
C156 C153 1.431 . S
C156 C166 1.476 . S
H157 C151 0.929 1_455 S
C158 O149 1.250 . S
C158 O150 1.258 . S
O159 Mn144 2.162 . S
O159 C147 1.281 . S
O160 Mn144 2.297 . S
O160 C147 1.236 . S
N161 Mn145 2.282 . S
N161 C162 1.328 . S
N161 C166 1.318 . S
C162 N161 1.328 . S
C162 C163 1.457 . S
C162 H167 0.929 . S
C163 C162 1.457 . S
C163 C164 1.291 . S
C163 H176 0.931 . S
C164 C163 1.291 . S
C164 C165 1.373 . S
C164 H177 0.929 . S
C165 C164 1.373 . S
C165 C166 1.396 . S
C165 C172 1.403 . S
C166 C156 1.476 . S
C166 N161 1.318 . S
C166 C165 1.396 . S
H167 C162 0.929 . S
O168 Mn144 2.385 1_655 S
O168 C146 1.234 . S
O169 Mn144 2.209 1_655 S
O169 Mn145 2.215 . S
O169 C146 1.283 . S
O170 Mn144 2.094 1_655 S
O170 C148 1.240 . S
O171 Mn145 2.117 . S
O171 C148 1.264 . S
C172 C165 1.403 . S
C172 C173 1.399 . S
C172 H178 0.929 . S
C173 C153 1.449 . S
C173 C172 1.399 . S
C173 H179 0.930 1_554 S
H174 C154 0.931 . S
H175 C155 0.960 1_455 S
H176 C163 0.931 . S
H177 C164 0.929 . S
H178 C172 0.929 . S
H179 C173 0.930 1_556 S
Mn180 O185 2.095 . S
Mn180 O195 2.162 . S
Mn180 O196 2.297 . S
Mn180 O204 2.385 . S
Mn180 O205 2.209 . S
Mn180 O206 2.094 . S
Mn181 O186 2.121 . S
Mn181 N188 2.257 . S
Mn181 N197 2.282 . S
Mn181 O205 2.215 . S
Mn181 O207 2.117 . S
C182 O204 1.234 . S
C182 O205 1.283 . S
C183 O195 1.281 . S
C183 O196 1.236 . S
C184 O206 1.240 . S
C184 O207 1.264 . S
O185 Mn180 2.095 . S
O185 C194 1.250 . S
O186 Mn181 2.121 . S
O186 C194 1.258 . S
C187 N188 1.326 . S
C187 C191 1.460 . S
C187 H193 0.929 . S
N188 Mn181 2.257 . S
N188 C187 1.326 . S
N188 C192 1.362 . S
C189 C190 1.258 . S
C189 C192 1.431 . S
C189 C209 1.449 . S
C190 C189 1.258 . S
C190 C191 1.477 . S
C190 H210 0.931 . S
C191 C187 1.460 . S
C191 C190 1.477 . S
C191 H211 0.930 . S
C192 N188 1.362 . S
C192 C189 1.431 . S
C192 C202 1.476 . S
H193 C187 0.929 . S
C194 O185 1.250 . S
C194 O186 1.258 . S
O195 Mn180 2.162 . S
O195 C183 1.281 . S
O196 Mn180 2.297 . S
O196 C183 1.236 . S
N197 Mn181 2.282 . S
N197 C198 1.328 . S
N197 C202 1.318 . S
C198 N197 1.328 . S
C198 C199 1.457 . S
C198 H203 0.929 . S
C199 C198 1.457 . S
C199 C200 1.291 . S
C199 H212 0.931 . S
C200 C199 1.291 . S
C200 C201 1.373 . S
C200 H213 0.929 . S
C201 C200 1.373 . S
C201 C202 1.396 . S
C201 C208 1.403 . S
C202 C192 1.476 . S
C202 N197 1.318 . S
C202 C201 1.396 . S
H203 C198 0.929 . S
O204 Mn180 2.385 . S
O204 C182 1.234 . S
O205 Mn180 2.209 . S
O205 Mn181 2.215 . S
O205 C182 1.283 . S
O206 Mn180 2.094 . S
O206 C184 1.240 . S
O207 Mn181 2.117 . S
O207 C184 1.264 . S
C208 C201 1.403 . S
C208 C209 1.399 . S
C208 H214 0.929 . S
C209 C189 1.449 . S
C209 C208 1.399 . S
C209 H215 0.930 . S
H210 C190 0.931 . S
H211 C191 0.930 . S
H212 C199 0.931 . S
H213 C200 0.929 . S
H214 C208 0.929 . S
H215 C209 0.930 . S
Mn216 O221 2.095 . S
Mn216 O231 2.162 . S
Mn216 O232 2.297 . S
Mn216 O240 2.385 . S
Mn216 O241 2.209 . S
Mn216 O242 2.094 . S
Mn217 O222 2.121 . S
Mn217 N224 2.257 . S
Mn217 N233 2.282 . S
Mn217 O241 2.215 . S
Mn217 O243 2.117 . S
C218 O240 1.234 . S
C218 O241 1.283 . S
C219 O231 1.281 . S
C219 O232 1.236 . S
C220 O242 1.240 . S
C220 O243 1.264 . S
O221 Mn216 2.095 . S
O221 C230 1.250 . S
O222 Mn217 2.121 . S
O222 C230 1.258 . S
C223 N224 1.326 . S
C223 C227 1.460 . S
C223 H229 0.929 . S
N224 Mn217 2.257 . S
N224 C223 1.326 . S
N224 C228 1.362 . S
C225 C226 1.258 . S
C225 C228 1.431 . S
C225 C245 1.449 . S
C226 C225 1.258 . S
C226 C227 1.477 . S
C226 H246 0.931 . S
C227 C223 1.460 . S
C227 C226 1.477 . S
C227 H247 0.930 . S
C228 N224 1.362 . S
C228 C225 1.431 . S
C228 C238 1.476 . S
H229 C223 0.929 . S
C230 O221 1.250 . S
C230 O222 1.258 . S
O231 Mn216 2.162 . S
O231 C219 1.281 . S
O232 Mn216 2.297 . S
O232 C219 1.236 . S
N233 Mn217 2.282 . S
N233 C234 1.328 . S
N233 C238 1.318 . S
C234 N233 1.328 . S
C234 C235 1.457 . S
C234 H239 0.929 . S
C235 C234 1.457 . S
C235 C236 1.291 . S
C235 H248 0.931 . S
C236 C235 1.291 . S
C236 C237 1.373 . S
C236 H249 0.929 . S
C237 C236 1.373 . S
C237 C238 1.396 . S
C237 C244 1.403 . S
C238 C228 1.476 . S
C238 N233 1.318 . S
C238 C237 1.396 . S
H239 C234 0.929 . S
O240 Mn216 2.385 . S
O240 C218 1.234 . S
O241 Mn216 2.209 . S
O241 Mn217 2.215 . S
O241 C218 1.283 . S
O242 Mn216 2.094 . S
O242 C220 1.240 . S
O243 Mn217 2.117 . S
O243 C220 1.264 . S
C244 C237 1.403 . S
C244 C245 1.399 . S
C244 H250 0.929 . S
C245 C225 1.449 . S
C245 C244 1.399 . S
C245 H251 0.930 . S
H246 C226 0.931 . S
H247 C227 0.930 . S
H248 C235 0.931 . S
H249 C236 0.929 . S
H250 C244 0.929 . S
H251 C245 0.930 . S
Mn252 O257 2.095 1_455 S
Mn252 O267 2.162 . S
Mn252 O268 2.297 . S
Mn252 O276 2.385 . S
Mn252 O277 2.209 . S
Mn252 O278 2.094 1_455 S
Mn253 O258 2.121 . S
Mn253 N260 2.257 1_655 S
Mn253 N269 2.282 1_655 S
Mn253 O277 2.215 1_655 S
Mn253 O279 2.117 . S
C254 O276 1.234 . S
C254 O277 1.283 . S
C255 O267 1.281 . S
C255 O268 1.236 . S
C256 O278 1.240 . S
C256 O279 1.264 . S
O257 Mn252 2.095 1_655 S
O257 C266 1.250 . S
O258 Mn253 2.121 . S
O258 C266 1.258 . S
C259 N260 1.337 . S
C259 C263 1.469 1_556 S
C259 H265 0.911 1_455 S
N260 Mn253 2.257 1_455 S
N260 C259 1.337 . S
N260 C264 1.362 . S
C261 C262 1.258 . S
C261 C264 1.431 1_554 S
C261 C281 1.449 . S
C262 C261 1.258 . S
C262 C263 1.477 . S
C262 H282 0.931 . S
C263 C259 1.469 1_554 S
C263 C262 1.477 . S
C263 H283 0.930 . S
C264 N260 1.362 . S
C264 C261 1.431 1_556 S
C264 C274 1.476 . S
H265 C259 0.911 1_655 S
C266 O257 1.250 . S
C266 O258 1.258 . S
O267 Mn252 2.162 . S
O267 C255 1.281 . S
O268 Mn252 2.297 . S
O268 C255 1.236 . S
N269 Mn253 2.282 1_455 S
N269 C270 1.328 . S
N269 C274 1.318 . S
C270 N269 1.328 . S
C270 C271 1.457 . S
C270 H275 0.929 . S
C271 C270 1.457 . S
C271 C272 1.291 . S
C271 H284 0.931 . S
C272 C271 1.291 . S
C272 C273 1.373 . S
C272 H285 0.929 . S
C273 C272 1.373 . S
C273 C274 1.396 . S
C273 C280 1.403 . S
C274 C264 1.476 . S
C274 N269 1.318 . S
C274 C273 1.396 . S
H275 C270 0.929 . S
O276 Mn252 2.385 . S
O276 C254 1.234 . S
O277 Mn252 2.209 . S
O277 Mn253 2.215 1_455 S
O277 C254 1.283 . S
O278 Mn252 2.094 1_655 S
O278 C256 1.240 . S
O279 Mn253 2.117 . S
O279 C256 1.264 . S
C280 C273 1.403 . S
C280 C281 1.399 1_556 S
C280 H286 0.929 . S
C281 C261 1.449 . S
C281 C280 1.399 1_554 S
C281 H287 0.930 . S
H282 C262 0.931 . S
H283 C263 0.930 . S
H284 C271 0.931 . S
H285 C272 0.929 . S
H286 C280 0.929 . S
H287 C281 0.930 . S
Mn288 O293 2.095 . S
Mn288 O303 2.162 . S
Mn288 O304 2.297 . S
Mn288 O312 2.385 1_545 S
Mn288 O313 2.209 1_545 S
Mn288 O314 2.094 1_545 S
Mn289 O294 2.121 1_565 S
Mn289 N296 2.257 . S
Mn289 N305 2.282 . S
Mn289 O313 2.215 . S
Mn289 O315 2.117 . S
C290 O312 1.234 . S
C290 O313 1.283 . S
C291 O303 1.281 . S
C291 O304 1.236 . S
C292 O314 1.240 . S
C292 O315 1.264 . S
O293 Mn288 2.095 . S
O293 C302 1.250 . S
O294 Mn289 2.121 1_545 S
O294 C302 1.258 . S
C295 N296 1.326 . S
C295 C299 1.460 . S
C295 H301 0.929 1_565 S
N296 Mn289 2.257 . S
N296 C295 1.326 . S
N296 C300 1.362 . S
C297 C298 1.258 . S
C297 C300 1.431 . S
C297 C317 1.449 . S
C298 C297 1.258 . S
C298 C299 1.477 . S
C298 H318 0.931 . S
C299 C295 1.460 . S
C299 C298 1.477 . S
C299 H319 0.930 . S
C300 N296 1.362 . S
C300 C297 1.431 . S
C300 C310 1.476 . S
H301 C295 0.929 1_545 S
C302 O293 1.250 . S
C302 O294 1.258 . S
O303 Mn288 2.162 . S
O303 C291 1.281 . S
O304 Mn288 2.297 . S
O304 C291 1.236 . S
N305 Mn289 2.282 . S
N305 C306 1.328 . S
N305 C310 1.318 . S
C306 N305 1.328 . S
C306 C307 1.457 . S
C306 H311 0.929 . S
C307 C306 1.457 . S
C307 C308 1.291 . S
C307 H320 0.931 . S
C308 C307 1.291 . S
C308 C309 1.373 . S
C308 H321 0.929 . S
C309 C308 1.373 . S
C309 C310 1.396 . S
C309 C316 1.403 . S
C310 C300 1.476 . S
C310 N305 1.318 . S
C310 C309 1.396 . S
H311 C306 0.929 . S
O312 Mn288 2.385 1_565 S
O312 C290 1.234 . S
O313 Mn288 2.209 1_565 S
O313 Mn289 2.215 . S
O313 C290 1.283 . S
O314 Mn288 2.094 1_565 S
O314 C292 1.240 . S
O315 Mn289 2.117 . S
O315 C292 1.264 . S
C316 C309 1.403 . S
C316 C317 1.399 . S
C316 H322 0.929 . S
C317 C297 1.449 . S
C317 C316 1.399 . S
C317 H323 0.930 . S
H318 C298 0.931 . S
H319 C299 0.930 . S
H320 C307 0.931 . S
H321 C308 0.929 . S
H322 C316 0.929 . S
H323 C317 0.930 . S
Mn324 O329 2.095 . S
Mn324 O339 2.162 . S
Mn324 O340 2.297 . S
Mn324 O348 2.385 . S
Mn324 O349 2.209 . S
Mn324 O350 2.094 . S
Mn325 O330 2.121 . S
Mn325 N332 2.257 . S
Mn325 N341 2.282 . S
Mn325 O349 2.215 . S
Mn325 O351 2.117 . S
C326 O348 1.234 . S
C326 O349 1.283 . S
C327 O339 1.281 . S
C327 O340 1.236 . S
C328 O350 1.240 . S
C328 O351 1.264 . S
O329 Mn324 2.095 . S
O329 C338 1.250 . S
O330 Mn325 2.121 . S
O330 C338 1.258 . S
C331 N332 1.326 . S
C331 C335 1.460 . S
C331 H337 0.929 . S
N332 Mn325 2.257 . S
N332 C331 1.326 . S
N332 C336 1.362 . S
C333 C334 1.258 . S
C333 C336 1.431 . S
C333 C353 1.449 . S
C334 C333 1.258 . S
C334 C335 1.477 . S
C334 H354 0.931 . S
C335 C331 1.460 . S
C335 C334 1.477 . S
C335 H355 0.930 . S
C336 N332 1.362 . S
C336 C333 1.431 . S
C336 C346 1.476 . S
H337 C331 0.929 . S
C338 O329 1.250 . S
C338 O330 1.258 . S
O339 Mn324 2.162 . S
O339 C327 1.281 . S
O340 Mn324 2.297 . S
O340 C327 1.236 . S
N341 Mn325 2.282 . S
N341 C342 1.328 . S
N341 C346 1.318 . S
C342 N341 1.328 . S
C342 C343 1.457 . S
C342 H347 0.929 . S
C343 C342 1.457 . S
C343 C344 1.291 . S
C343 H356 0.931 . S
C344 C343 1.291 . S
C344 C345 1.373 . S
C344 H357 0.929 . S
C345 C344 1.373 . S
C345 C346 1.396 . S
C345 C352 1.403 . S
C346 C336 1.476 . S
C346 N341 1.318 . S
C346 C345 1.396 . S
H347 C342 0.929 . S
O348 Mn324 2.385 . S
O348 C326 1.234 . S
O349 Mn324 2.209 . S
O349 Mn325 2.215 . S
O349 C326 1.283 . S
O350 Mn324 2.094 . S
O350 C328 1.240 . S
O351 Mn325 2.117 . S
O351 C328 1.264 . S
C352 C345 1.403 . S
C352 C353 1.399 . S
C352 H358 0.929 . S
C353 C333 1.449 . S
C353 C352 1.399 . S
C353 H359 0.930 . S
H354 C334 0.931 . S
H355 C335 0.930 . S
H356 C343 0.931 . S
H357 C344 0.929 . S
H358 C352 0.929 . S
H359 C353 0.930 . S
Mn360 O365 2.095 . S
Mn360 O375 2.162 . S
Mn360 O376 2.297 . S
Mn360 O384 2.385 1_545 S
Mn360 O385 2.209 1_545 S
Mn360 O386 2.094 1_545 S
Mn361 O366 2.121 1_565 S
Mn361 N368 2.257 . S
Mn361 N377 2.282 . S
Mn361 O385 2.215 . S
Mn361 O387 2.117 . S
C362 O384 1.234 . S
C362 O385 1.283 . S
C363 O375 1.281 . S
C363 O376 1.236 . S
C364 O386 1.240 . S
C364 O387 1.264 . S
O365 Mn360 2.095 . S
O365 C374 1.250 . S
O366 Mn361 2.121 1_545 S
O366 C374 1.258 . S
C367 N368 1.326 . S
C367 C371 1.460 . S
C367 H373 0.913 1_565 S
N368 Mn361 2.257 . S
N368 C367 1.326 . S
N368 C372 1.362 . S
C369 C370 1.258 . S
C369 C372 1.431 . S
C369 C389 1.449 . S
C370 C369 1.258 . S
C370 C371 1.477 . S
C370 H390 0.931 . S
C371 C367 1.460 . S
C371 C370 1.477 . S
C371 H391 0.930 . S
C372 N368 1.362 . S
C372 C369 1.431 . S
C372 C382 1.476 . S
H373 C367 0.913 1_545 S
C374 O365 1.250 . S
C374 O366 1.258 . S
O375 Mn360 2.162 . S
O375 C363 1.281 . S
O376 Mn360 2.297 . S
O376 C363 1.236 . S
N377 Mn361 2.282 . S
N377 C378 1.328 . S
N377 C382 1.318 . S
C378 N377 1.328 . S
C378 C379 1.457 . S
C378 H383 0.929 . S
C379 C378 1.457 . S
C379 C380 1.291 . S
C379 H392 0.931 . S
C380 C379 1.291 . S
C380 C381 1.373 . S
C380 H393 0.929 . S
C381 C380 1.373 . S
C381 C382 1.396 . S
C381 C388 1.403 . S
C382 C372 1.476 . S
C382 N377 1.318 . S
C382 C381 1.396 . S
H383 C378 0.929 . S
O384 Mn360 2.385 1_565 S
O384 C362 1.234 . S
O385 Mn360 2.209 1_565 S
O385 Mn361 2.215 . S
O385 C362 1.283 . S
O386 Mn360 2.094 1_565 S
O386 C364 1.240 . S
O387 Mn361 2.117 . S
O387 C364 1.264 . S
C388 C381 1.403 . S
C388 C389 1.399 . S
C388 H394 0.929 . S
C389 C369 1.449 . S
C389 C388 1.399 . S
C389 H395 0.930 . S
H390 C370 0.931 . S
H391 C371 0.930 . S
H392 C379 0.931 . S
H393 C380 0.929 . S
H394 C388 0.929 . S
H395 C389 0.930 . S
Mn396 O401 2.095 1_554 S
Mn396 O411 2.162 . S
Mn396 O412 2.297 . S
Mn396 O420 2.385 . S
Mn396 O421 2.209 . S
Mn396 O422 2.094 1_554 S
Mn397 O402 2.121 . S
Mn397 N404 2.257 . S
Mn397 N413 2.282 . S
Mn397 O421 2.215 1_556 S
Mn397 O423 2.117 . S
C398 O420 1.234 . S
C398 O421 1.283 . S
C399 O411 1.281 . S
C399 O412 1.236 . S
C400 O422 1.240 . S
C400 O423 1.264 . S
O401 Mn396 2.095 1_556 S
O401 C410 1.250 . S
O402 Mn397 2.121 . S
O402 C410 1.258 . S
C403 N404 1.326 . S
C403 C407 1.460 . S
C403 H409 0.929 . S
N404 Mn397 2.257 . S
N404 C403 1.326 . S
N404 C408 1.362 . S
C405 C406 1.258 . S
C405 C408 1.431 . S
C405 C425 1.449 . S
C406 C405 1.258 . S
C406 C407 1.477 . S
C406 H426 0.931 . S
C407 C403 1.460 . S
C407 C406 1.477 . S
C407 H427 0.930 . S
C408 N404 1.362 . S
C408 C405 1.431 . S
C408 C418 1.476 . S
H409 C403 0.929 . S
C410 O401 1.250 . S
C410 O402 1.258 . S
O411 Mn396 2.162 . S
O411 C399 1.281 . S
O412 Mn396 2.297 . S
O412 C399 1.236 . S
N413 Mn397 2.282 . S
N413 C414 1.328 . S
N413 C418 1.318 . S
C414 N413 1.328 . S
C414 C415 1.457 . S
C414 H419 0.929 . S
C415 C414 1.457 . S
C415 C416 1.291 . S
C415 H428 0.931 . S
C416 C415 1.291 . S
C416 C417 1.373 . S
C416 H429 0.929 . S
C417 C416 1.373 . S
C417 C418 1.396 . S
C417 C424 1.403 . S
C418 C408 1.476 . S
C418 N413 1.318 . S
C418 C417 1.396 . S
H419 C414 0.929 . S
O420 Mn396 2.385 . S
O420 C398 1.234 . S
O421 Mn396 2.209 . S
O421 Mn397 2.215 1_554 S
O421 C398 1.283 . S
O422 Mn396 2.094 1_556 S
O422 C400 1.240 . S
O423 Mn397 2.117 . S
O423 C400 1.264 . S
C424 C417 1.403 . S
C424 C425 1.399 . S
C424 H430 0.929 . S
C425 C405 1.449 . S
C425 C424 1.399 . S
C425 H431 0.930 . S
H426 C406 0.931 . S
H427 C407 0.930 . S
H428 C415 0.931 . S
H429 C416 0.929 . S
H430 C424 0.929 . S
H431 C425 0.930 . S
Mn432 O437 2.095 . S
Mn432 O447 2.162 . S
Mn432 O448 2.297 . S
Mn432 O456 2.385 1_554 S
Mn432 O457 2.209 1_554 S
Mn432 O458 2.094 1_554 S
Mn433 O438 2.111 1_556 S
Mn433 N440 2.257 . S
Mn433 N449 2.282 . S
Mn433 O457 2.215 . S
Mn433 O459 2.117 . S
C434 O456 1.234 . S
C434 O457 1.283 . S
C435 O447 1.281 . S
C435 O448 1.236 . S
C436 O458 1.240 . S
C436 O459 1.264 . S
O437 Mn432 2.095 . S
O437 C446 1.250 . S
O438 Mn433 2.111 1_554 S
O438 C446 1.266 . S
C439 N440 1.326 . S
C439 C443 1.460 . S
C439 H445 0.929 . S
N440 Mn433 2.257 . S
N440 C439 1.326 . S
N440 C444 1.362 . S
C441 C442 1.258 . S
C441 C444 1.431 . S
C441 C461 1.449 . S
C442 C441 1.258 . S
C442 C443 1.477 . S
C442 H462 0.931 . S
C443 C439 1.460 . S
C443 C442 1.477 . S
C443 H463 0.930 . S
C444 N440 1.362 . S
C444 C441 1.431 . S
C444 C454 1.476 . S
H445 C439 0.929 . S
C446 O437 1.250 . S
C446 O438 1.266 . S
O447 Mn432 2.162 . S
O447 C435 1.281 . S
O448 Mn432 2.297 . S
O448 C435 1.236 . S
N449 Mn433 2.282 . S
N449 C450 1.328 . S
N449 C454 1.318 . S
C450 N449 1.328 . S
C450 C451 1.457 . S
C450 H455 0.929 . S
C451 C450 1.457 . S
C451 C452 1.291 . S
C451 H464 0.931 . S
C452 C451 1.291 . S
C452 C453 1.373 . S
C452 H465 0.929 . S
C453 C452 1.373 . S
C453 C454 1.396 . S
C453 C460 1.403 . S
C454 C444 1.476 . S
C454 N449 1.318 . S
C454 C453 1.396 . S
H455 C450 0.929 . S
O456 Mn432 2.385 1_556 S
O456 C434 1.234 . S
O457 Mn432 2.209 1_556 S
O457 Mn433 2.215 . S
O457 C434 1.283 . S
O458 Mn432 2.094 1_556 S
O458 C436 1.240 . S
O459 Mn433 2.117 . S
O459 C436 1.264 . S
C460 C453 1.403 . S
C460 C461 1.399 . S
C460 H466 0.929 . S
C461 C441 1.449 . S
C461 C460 1.399 . S
C461 H467 0.930 . S
H462 C442 0.931 . S
H463 C443 0.930 . S
H464 C451 0.931 . S
H465 C452 0.929 . S
H466 C460 0.929 . S
H467 C461 0.930 . S
Mn468 O473 2.095 . S
Mn468 O483 2.162 . S
Mn468 O484 2.297 . S
Mn468 O492 2.385 1_554 S
Mn468 O493 2.209 1_554 S
Mn468 O494 2.094 1_554 S
Mn469 O474 2.121 1_556 S
Mn469 N476 2.257 . S
Mn469 N485 2.282 . S
Mn469 O493 2.215 . S
Mn469 O495 2.117 . S
C470 O492 1.234 . S
C470 O493 1.283 . S
C471 O483 1.281 . S
C471 O484 1.236 . S
C472 O494 1.240 . S
C472 O495 1.264 . S
O473 Mn468 2.095 . S
O473 C482 1.250 . S
O474 Mn469 2.121 1_554 S
O474 C482 1.258 . S
C475 N476 1.326 . S
C475 C479 1.460 . S
C475 H481 0.929 1_556 S
N476 Mn469 2.257 . S
N476 C475 1.326 . S
N476 C480 1.362 . S
C477 C478 1.258 . S
C477 C480 1.431 . S
C477 C497 1.449 . S
C478 C477 1.258 . S
C478 C479 1.477 . S
C478 H498 0.931 1_545 S
C479 C475 1.460 . S
C479 C478 1.477 . S
C479 H499 0.912 1_546 S
C480 N476 1.362 . S
C480 C477 1.431 . S
C480 C490 1.476 . S
H481 C475 0.929 1_554 S
C482 O473 1.250 . S
C482 O474 1.258 . S
O483 Mn468 2.162 . S
O483 C471 1.281 . S
O484 Mn468 2.297 . S
O484 C471 1.236 . S
N485 Mn469 2.282 . S
N485 C486 1.328 . S
N485 C490 1.318 . S
C486 N485 1.328 . S
C486 C487 1.457 . S
C486 H491 0.929 . S
C487 C486 1.457 . S
C487 C488 1.291 . S
C487 H500 0.931 . S
C488 C487 1.291 . S
C488 C489 1.373 . S
C488 H501 0.929 . S
C489 C488 1.373 . S
C489 C490 1.396 . S
C489 C496 1.403 . S
C490 C480 1.476 . S
C490 N485 1.318 . S
C490 C489 1.396 . S
H491 C486 0.929 . S
O492 Mn468 2.385 1_556 S
O492 C470 1.234 . S
O493 Mn468 2.209 1_556 S
O493 Mn469 2.215 . S
O493 C470 1.283 . S
O494 Mn468 2.094 1_556 S
O494 C472 1.240 . S
O495 Mn469 2.117 . S
O495 C472 1.264 . S
C496 C489 1.403 . S
C496 C497 1.399 . S
C496 H502 0.929 . S
C497 C477 1.449 . S
C497 C496 1.399 . S
C497 H503 0.930 1_545 S
H498 C478 0.931 1_565 S
H499 C479 0.912 1_564 S
H500 C487 0.931 . S
H501 C488 0.929 . S
H502 C496 0.929 . S
H503 C497 0.930 1_565 S
Mn504 O509 2.095 . S
Mn504 O519 2.162 . S
Mn504 O520 2.297 . S
Mn504 O528 2.385 . S
Mn504 O529 2.209 . S
Mn504 O530 2.094 . S
Mn505 O510 2.121 . S
Mn505 N512 2.257 . S
Mn505 N521 2.282 . S
Mn505 O529 2.215 . S
Mn505 O531 2.117 . S
C506 O528 1.234 . S
C506 O529 1.283 . S
C507 O519 1.281 . S
C507 O520 1.236 . S
C508 O530 1.240 . S
C508 O531 1.264 . S
O509 Mn504 2.095 . S
O509 C518 1.250 . S
O510 Mn505 2.121 . S
O510 C518 1.258 . S
C511 N512 1.326 . S
C511 C515 1.460 1_455 S
C511 H517 0.929 . S
N512 Mn505 2.257 . S
N512 C511 1.326 . S
N512 C516 1.362 . S
C513 C514 1.258 1_455 S
C513 C516 1.431 . S
C513 C533 1.449 . S
C514 C513 1.258 1_655 S
C514 C515 1.477 . S
C514 H534 0.931 . S
C515 C511 1.460 1_655 S
C515 C514 1.477 . S
C515 H535 0.930 . S
C516 N512 1.362 . S
C516 C513 1.431 . S
C516 C526 1.476 . S
H517 C511 0.929 . S
C518 O509 1.250 . S
C518 O510 1.258 . S
O519 Mn504 2.162 . S
O519 C507 1.281 . S
O520 Mn504 2.297 . S
O520 C507 1.236 . S
N521 Mn505 2.282 . S
N521 C522 1.328 . S
N521 C526 1.318 . S
C522 N521 1.328 . S
C522 C523 1.457 . S
C522 H527 0.929 . S
C523 C522 1.457 . S
C523 C524 1.291 . S
C523 H536 0.931 . S
C524 C523 1.291 . S
C524 C525 1.373 . S
C524 H537 0.929 . S
C525 C524 1.373 . S
C525 C526 1.396 . S
C525 C532 1.403 . S
C526 C516 1.476 . S
C526 N521 1.318 . S
C526 C525 1.396 . S
H527 C522 0.929 . S
O528 Mn504 2.385 . S
O528 C506 1.234 . S
O529 Mn504 2.209 . S
O529 Mn505 2.215 . S
O529 C506 1.283 . S
O530 Mn504 2.094 . S
O530 C508 1.240 . S
O531 Mn505 2.117 . S
O531 C508 1.264 . S
C532 C525 1.403 . S
C532 C533 1.399 . S
C532 H538 0.929 . S
C533 C513 1.449 . S
C533 C532 1.399 . S
C533 H539 0.930 1_455 S
H534 C514 0.931 . S
H535 C515 0.930 . S
H536 C523 0.931 . S
H537 C524 0.929 . S
H538 C532 0.929 . S
H539 C533 0.930 1_655 S
Mn540 O545 2.095 . S
Mn540 O555 2.162 . S
Mn540 O556 2.297 . S
Mn540 O564 2.385 . S
Mn540 O565 2.209 . S
Mn540 O566 2.094 . S
Mn541 O546 2.121 . S
Mn541 N548 2.257 . S
Mn541 N557 2.282 . S
Mn541 O565 2.215 . S
Mn541 O567 2.117 . S
C542 O564 1.234 . S
C542 O565 1.283 . S
C543 O555 1.281 . S
C543 O556 1.236 . S
C544 O566 1.240 . S
C544 O567 1.264 . S
O545 Mn540 2.095 . S
O545 C554 1.250 . S
O546 Mn541 2.121 . S
O546 C554 1.258 . S
C547 N548 1.326 . S
C547 C551 1.460 . S
C547 H553 0.929 . S
N548 Mn541 2.257 . S
N548 C547 1.326 . S
N548 C552 1.362 . S
C549 C550 1.258 . S
C549 C552 1.431 . S
C549 C569 1.449 . S
C550 C549 1.258 . S
C550 C551 1.477 . S
C550 H570 0.931 . S
C551 C547 1.460 . S
C551 C550 1.477 . S
C551 H571 0.930 . S
C552 N548 1.362 . S
C552 C549 1.431 . S
C552 C562 1.476 . S
H553 C547 0.929 . S
C554 O545 1.250 . S
C554 O546 1.258 . S
O555 Mn540 2.162 . S
O555 C543 1.281 . S
O556 Mn540 2.297 . S
O556 C543 1.236 . S
N557 Mn541 2.282 . S
N557 C558 1.328 . S
N557 C562 1.318 . S
C558 N557 1.328 . S
C558 C559 1.457 . S
C558 H563 0.929 . S
C559 C558 1.457 . S
C559 C560 1.291 . S
C559 H572 0.931 . S
C560 C559 1.291 . S
C560 C561 1.373 . S
C560 H573 0.929 . S
C561 C560 1.373 . S
C561 C562 1.396 . S
C561 C568 1.403 . S
C562 C552 1.476 . S
C562 N557 1.318 . S
C562 C561 1.396 . S
H563 C558 0.929 . S
O564 Mn540 2.385 . S
O564 C542 1.234 . S
O565 Mn540 2.209 . S
O565 Mn541 2.215 . S
O565 C542 1.283 . S
O566 Mn540 2.094 . S
O566 C544 1.240 . S
O567 Mn541 2.117 . S
O567 C544 1.264 . S
C568 C561 1.403 . S
C568 C569 1.399 . S
C568 H574 0.929 . S
C569 C549 1.449 . S
C569 C568 1.399 . S
C569 H575 0.930 . S
H570 C550 0.931 . S
H571 C551 0.930 . S
H572 C559 0.931 . S
H573 C560 0.929 . S
H574 C568 0.929 . S
H575 C569 0.930 . S
Mn576 O581 2.095 1_545 S
Mn576 O591 2.162 . S
Mn576 O592 2.297 . S
Mn576 O600 2.385 . S
Mn576 O601 2.209 . S
Mn576 O602 2.094 1_545 S
Mn577 O582 2.121 . S
Mn577 N584 2.257 1_565 S
Mn577 N593 2.282 1_565 S
Mn577 O601 2.215 1_565 S
Mn577 O603 2.117 . S
C578 O600 1.234 . S
C578 O601 1.283 . S
C579 O591 1.281 . S
C579 O592 1.236 . S
C580 O602 1.240 . S
C580 O603 1.264 . S
O581 Mn576 2.095 1_565 S
O581 C590 1.250 . S
O582 Mn577 2.121 . S
O582 C590 1.258 . S
C583 N584 1.326 1_565 S
C583 C587 1.460 1_665 S
C583 H589 0.929 . S
N584 Mn577 2.257 1_545 S
N584 C583 1.326 1_545 S
N584 C588 1.362 . S
C585 C586 1.258 . S
C585 C588 1.431 1_455 S
C585 C605 1.449 . S
C586 C585 1.258 . S
C586 C587 1.477 . S
C586 H606 0.931 . S
C587 C583 1.460 1_445 S
C587 C586 1.477 . S
C587 H607 0.919 1_545 S
C588 N584 1.362 . S
C588 C585 1.431 1_655 S
C588 C598 1.476 . S
H589 C583 0.929 . S
C590 O581 1.250 . S
C590 O582 1.258 . S
O591 Mn576 2.162 . S
O591 C579 1.281 . S
O592 Mn576 2.297 . S
O592 C579 1.236 . S
N593 Mn577 2.282 1_545 S
N593 C594 1.328 . S
N593 C598 1.318 . S
C594 N593 1.328 . S
C594 C595 1.457 . S
C594 H599 0.929 . S
C595 C594 1.457 . S
C595 C596 1.291 . S
C595 H608 0.931 . S
C596 C595 1.291 . S
C596 C597 1.373 . S
C596 H609 0.929 . S
C597 C596 1.373 . S
C597 C598 1.396 . S
C597 C604 1.403 . S
C598 C588 1.476 . S
C598 N593 1.318 . S
C598 C597 1.396 . S
H599 C594 0.929 . S
O600 Mn576 2.385 . S
O600 C578 1.234 . S
O601 Mn576 2.209 . S
O601 Mn577 2.215 1_545 S
O601 C578 1.283 . S
O602 Mn576 2.094 1_565 S
O602 C580 1.240 . S
O603 Mn577 2.117 . S
O603 C580 1.264 . S
C604 C597 1.403 . S
C604 C605 1.399 1_655 S
C604 H610 0.929 . S
C605 C585 1.449 . S
C605 C604 1.399 1_455 S
C605 H611 0.930 . S
H606 C586 0.931 . S
H607 C587 0.919 1_565 S
H608 C595 0.931 . S
H609 C596 0.929 . S
H610 C604 0.929 . S
H611 C605 0.930 . S
Mn612 O617 2.095 . S
Mn612 O627 2.162 . S
Mn612 O628 2.297 . S
Mn612 O636 2.385 . S
Mn612 O637 2.209 . S
Mn612 O638 2.094 . S
Mn613 O618 2.121 . S
Mn613 N620 2.257 . S
Mn613 N629 2.282 . S
Mn613 O637 2.215 . S
Mn613 O639 2.117 . S
C614 O636 1.234 . S
C614 O637 1.283 . S
C615 O627 1.281 . S
C615 O628 1.236 . S
C616 O638 1.240 . S
C616 O639 1.264 . S
O617 Mn612 2.095 . S
O617 C626 1.250 . S
O618 Mn613 2.121 . S
O618 C626 1.258 . S
C619 N620 1.326 . S
C619 C623 1.460 . S
C619 H625 0.929 . S
N620 Mn613 2.257 . S
N620 C619 1.326 . S
N620 C624 1.362 . S
C621 C622 1.258 . S
C621 C624 1.431 . S
C621 C641 1.449 . S
C622 C621 1.258 . S
C622 C623 1.477 . S
C622 H642 0.931 . S
C623 C619 1.460 . S
C623 C622 1.477 . S
C623 H643 0.930 . S
C624 N620 1.362 . S
C624 C621 1.431 . S
C624 C634 1.476 . S
H625 C619 0.929 . S
C626 O617 1.250 . S
C626 O618 1.258 . S
O627 Mn612 2.162 . S
O627 C615 1.281 . S
O628 Mn612 2.297 . S
O628 C615 1.236 . S
N629 Mn613 2.282 . S
N629 C630 1.328 . S
N629 C634 1.318 . S
C630 N629 1.328 . S
C630 C631 1.457 . S
C630 H635 0.929 . S
C631 C630 1.457 . S
C631 C632 1.291 . S
C631 H644 0.931 . S
C632 C631 1.291 . S
C632 C633 1.373 . S
C632 H645 0.929 . S
C633 C632 1.373 . S
C633 C634 1.396 . S
C633 C640 1.403 . S
C634 C624 1.476 . S
C634 N629 1.318 . S
C634 C633 1.396 . S
H635 C630 0.929 . S
O636 Mn612 2.385 . S
O636 C614 1.234 . S
O637 Mn612 2.209 . S
O637 Mn613 2.215 . S
O637 C614 1.283 . S
O638 Mn612 2.094 . S
O638 C616 1.240 . S
O639 Mn613 2.117 . S
O639 C616 1.264 . S
C640 C633 1.403 . S
C640 C641 1.399 . S
C640 H646 0.929 . S
C641 C621 1.449 . S
C641 C640 1.399 . S
C641 H647 0.930 . S
H642 C622 0.931 . S
H643 C623 0.930 . S
H644 C631 0.931 . S
H645 C632 0.929 . S
H646 C640 0.929 . S
H647 C641 0.930 . S
Mn648 O653 2.095 . S
Mn648 O663 2.162 . S
Mn648 O664 2.297 . S
Mn648 O672 2.385 . S
Mn648 O673 2.209 . S
Mn648 O674 2.094 . S
Mn649 O654 2.121 . S
Mn649 N656 2.257 . S
Mn649 N665 2.282 . S
Mn649 O673 2.215 . S
Mn649 O675 2.117 . S
C650 O672 1.234 . S
C650 O673 1.283 . S
C651 O663 1.281 . S
C651 O664 1.236 . S
C652 O674 1.240 . S
C652 O675 1.264 . S
O653 Mn648 2.095 . S
O653 C662 1.250 . S
O654 Mn649 2.121 . S
O654 C662 1.258 . S
C655 N656 1.326 . S
C655 C659 1.460 . S
C655 H661 0.929 . S
N656 Mn649 2.257 . S
N656 C655 1.326 . S
N656 C660 1.362 . S
C657 C658 1.258 . S
C657 C660 1.431 . S
C657 C677 1.449 . S
C658 C657 1.258 . S
C658 C659 1.477 . S
C658 H678 0.931 . S
C659 C655 1.460 . S
C659 C658 1.477 . S
C659 H679 0.930 . S
C660 N656 1.362 . S
C660 C657 1.431 . S
C660 C670 1.476 . S
H661 C655 0.929 . S
C662 O653 1.250 . S
C662 O654 1.258 . S
O663 Mn648 2.162 . S
O663 C651 1.281 . S
O664 Mn648 2.297 . S
O664 C651 1.236 . S
N665 Mn649 2.282 . S
N665 C666 1.328 . S
N665 C670 1.318 . S
C666 N665 1.328 . S
C666 C667 1.457 . S
C666 H671 0.929 . S
C667 C666 1.457 . S
C667 C668 1.291 . S
C667 H680 0.931 . S
C668 C667 1.291 . S
C668 C669 1.373 . S
C668 H681 0.929 . S
C669 C668 1.373 . S
C669 C670 1.396 . S
C669 C676 1.403 . S
C670 C660 1.476 . S
C670 N665 1.318 . S
C670 C669 1.396 . S
H671 C666 0.929 . S
O672 Mn648 2.385 . S
O672 C650 1.234 . S
O673 Mn648 2.209 . S
O673 Mn649 2.215 . S
O673 C650 1.283 . S
O674 Mn648 2.094 . S
O674 C652 1.240 . S
O675 Mn649 2.117 . S
O675 C652 1.264 . S
C676 C669 1.403 . S
C676 C677 1.399 . S
C676 H682 0.929 . S
C677 C657 1.449 . S
C677 C676 1.399 . S
C677 H683 0.930 . S
H678 C658 0.931 . S
H679 C659 0.930 . S
H680 C667 0.931 . S
H681 C668 0.929 . S
H682 C676 0.929 . S
H683 C677 0.930 . S
Mn684 O689 2.095 . S
Mn684 O699 2.162 1_545 S
Mn684 O700 2.297 1_545 S
Mn684 O708 2.385 1_545 S
Mn684 O709 2.209 1_545 S
Mn684 O710 2.094 . S
Mn685 O690 2.121 . S
Mn685 N692 2.257 . S
Mn685 N701 2.282 1_545 S
Mn685 O709 2.215 1_545 S
Mn685 O711 2.117 . S
C686 O708 1.234 . S
C686 O709 1.283 . S
C687 O699 1.281 . S
C687 O700 1.236 . S
C688 O710 1.240 . S
C688 O711 1.264 . S
O689 Mn684 2.095 . S
O689 C698 1.250 . S
O690 Mn685 2.121 . S
O690 C698 1.258 . S
C691 N692 1.326 . S
C691 C695 1.460 . S
C691 H697 0.929 . S
N692 Mn685 2.257 . S
N692 C691 1.326 . S
N692 C696 1.362 1_545 S
C693 C694 1.258 . S
C693 C696 1.431 . S
C693 C713 1.449 . S
C694 C693 1.258 . S
C694 C695 1.477 1_565 S
C694 H714 0.931 . S
C695 C691 1.460 . S
C695 C694 1.477 1_545 S
C695 H715 0.930 . S
C696 N692 1.362 1_565 S
C696 C693 1.431 . S
C696 C706 1.476 . S
H697 C691 0.929 . S
C698 O689 1.250 . S
C698 O690 1.258 . S
O699 Mn684 2.162 1_565 S
O699 C687 1.281 . S
O700 Mn684 2.297 1_565 S
O700 C687 1.236 . S
N701 Mn685 2.282 1_565 S
N701 C702 1.328 . S
N701 C706 1.318 . S
C702 N701 1.328 . S
C702 C703 1.457 . S
C702 H707 0.929 . S
C703 C702 1.457 . S
C703 C704 1.291 . S
C703 H716 0.931 . S
C704 C703 1.291 . S
C704 C705 1.373 . S
C704 H717 0.929 . S
C705 C704 1.373 . S
C705 C706 1.396 . S
C705 C712 1.403 . S
C706 C696 1.476 . S
C706 N701 1.318 . S
C706 C705 1.396 . S
H707 C702 0.929 . S
O708 Mn684 2.385 1_565 S
O708 C686 1.234 . S
O709 Mn684 2.209 1_565 S
O709 Mn685 2.215 1_565 S
O709 C686 1.283 . S
O710 Mn684 2.094 . S
O710 C688 1.240 . S
O711 Mn685 2.117 . S
O711 C688 1.264 . S
C712 C705 1.403 . S
C712 C713 1.399 . S
C712 H718 0.929 . S
C713 C693 1.449 . S
C713 C712 1.399 . S
C713 H719 0.930 . S
H714 C694 0.931 . S
H715 C695 0.930 . S
H716 C703 0.931 . S
H717 C704 0.929 . S
H718 C712 0.929 . S
H719 C713 0.930 . S
Mn720 O725 2.095 1_554 S
Mn720 O735 2.162 . S
Mn720 O736 2.297 . S
Mn720 O744 2.385 . S
Mn720 O745 2.209 . S
Mn720 O746 2.094 1_554 S
Mn721 O726 2.121 . S
Mn721 N728 2.257 . S
Mn721 N737 2.282 . S
Mn721 O745 2.215 1_556 S
Mn721 O747 2.117 . S
C722 O744 1.234 . S
C722 O745 1.283 . S
C723 O735 1.281 . S
C723 O736 1.236 . S
C724 O746 1.240 . S
C724 O747 1.264 . S
O725 Mn720 2.095 1_556 S
O725 C734 1.250 . S
O726 Mn721 2.121 . S
O726 C734 1.258 . S
C727 N728 1.326 . S
C727 C731 1.460 . S
C727 H733 0.929 . S
N728 Mn721 2.257 . S
N728 C727 1.326 . S
N728 C732 1.362 . S
C729 C730 1.258 . S
C729 C732 1.431 . S
C729 C749 1.449 . S
C730 C729 1.258 . S
C730 C731 1.477 . S
C730 H750 0.931 . S
C731 C727 1.460 . S
C731 C730 1.477 . S
C731 H751 0.930 . S
C732 N728 1.362 . S
C732 C729 1.431 . S
C732 C742 1.476 . S
H733 C727 0.929 . S
C734 O725 1.250 . S
C734 O726 1.258 . S
O735 Mn720 2.162 . S
O735 C723 1.281 . S
O736 Mn720 2.297 . S
O736 C723 1.236 . S
N737 Mn721 2.282 . S
N737 C738 1.328 . S
N737 C742 1.318 . S
C738 N737 1.328 . S
C738 C739 1.457 . S
C738 H743 0.929 . S
C739 C738 1.457 . S
C739 C740 1.291 . S
C739 H752 0.931 . S
C740 C739 1.291 . S
C740 C741 1.373 . S
C740 H753 0.929 . S
C741 C740 1.373 . S
C741 C742 1.396 . S
C741 C748 1.403 . S
C742 C732 1.476 . S
C742 N737 1.318 . S
C742 C741 1.396 . S
H743 C738 0.929 . S
O744 Mn720 2.385 . S
O744 C722 1.234 . S
O745 Mn720 2.209 . S
O745 Mn721 2.215 1_554 S
O745 C722 1.283 . S
O746 Mn720 2.094 1_556 S
O746 C724 1.240 . S
O747 Mn721 2.117 . S
O747 C724 1.264 . S
C748 C741 1.403 . S
C748 C749 1.399 . S
C748 H754 0.929 . S
C749 C729 1.449 . S
C749 C748 1.399 . S
C749 H755 0.930 . S
H750 C730 0.931 . S
H751 C731 0.930 . S
H752 C739 0.931 . S
H753 C740 0.929 . S
H754 C748 0.929 . S
H755 C749 0.930 . S
Mn756 O761 2.095 . S
Mn756 O771 2.162 . S
Mn756 O772 2.297 . S
Mn756 O780 2.385 . S
Mn756 O781 2.209 . S
Mn756 O782 2.094 . S
Mn757 O762 2.121 . S
Mn757 N764 2.257 . S
Mn757 N773 2.282 . S
Mn757 O781 2.215 . S
Mn757 O783 2.117 . S
C758 O780 1.234 . S
C758 O781 1.283 . S
C759 O771 1.281 . S
C759 O772 1.236 . S
C760 O782 1.240 . S
C760 O783 1.264 . S
O761 Mn756 2.095 . S
O761 C770 1.250 . S
O762 Mn757 2.121 . S
O762 C770 1.258 . S
C763 N764 1.326 . S
C763 C767 1.460 . S
C763 H769 0.929 . S
N764 Mn757 2.257 . S
N764 C763 1.326 . S
N764 C768 1.362 . S
C765 C766 1.258 . S
C765 C768 1.431 . S
C765 C785 1.449 . S
C766 C765 1.258 . S
C766 C767 1.477 . S
C766 H786 0.931 . S
C767 C763 1.460 . S
C767 C766 1.477 . S
C767 H787 0.930 . S
C768 N764 1.362 . S
C768 C765 1.431 . S
C768 C778 1.476 . S
H769 C763 0.929 . S
C770 O761 1.250 . S
C770 O762 1.258 . S
O771 Mn756 2.162 . S
O771 C759 1.281 . S
O772 Mn756 2.297 . S
O772 C759 1.236 . S
N773 Mn757 2.282 . S
N773 C774 1.328 . S
N773 C778 1.318 . S
C774 N773 1.328 . S
C774 C775 1.457 . S
C774 H779 0.929 . S
C775 C774 1.457 . S
C775 C776 1.291 . S
C775 H788 0.931 . S
C776 C775 1.291 . S
C776 C777 1.373 . S
C776 H789 0.929 . S
C777 C776 1.373 . S
C777 C778 1.396 . S
C777 C784 1.403 . S
C778 C768 1.476 . S
C778 N773 1.318 . S
C778 C777 1.396 . S
H779 C774 0.929 . S
O780 Mn756 2.385 . S
O780 C758 1.234 . S
O781 Mn756 2.209 . S
O781 Mn757 2.215 . S
O781 C758 1.283 . S
O782 Mn756 2.094 . S
O782 C760 1.240 . S
O783 Mn757 2.117 . S
O783 C760 1.264 . S
C784 C777 1.403 . S
C784 C785 1.399 . S
C784 H790 0.929 . S
C785 C765 1.449 . S
C785 C784 1.399 . S
C785 H791 0.930 . S
H786 C766 0.931 . S
H787 C767 0.930 . S
H788 C775 0.931 . S
H789 C776 0.929 . S
H790 C784 0.929 . S
H791 C785 0.930 . S
Mn792 O797 2.095 . S
Mn792 O807 2.162 . S
Mn792 O808 2.297 . S
Mn792 O816 2.385 . S
Mn792 O817 2.209 . S
Mn792 O818 2.094 . S
Mn793 O798 2.121 . S
Mn793 N800 2.257 . S
Mn793 N809 2.282 . S
Mn793 O817 2.215 . S
Mn793 O819 2.117 . S
C794 O816 1.234 . S
C794 O817 1.283 . S
C795 O807 1.281 . S
C795 O808 1.236 . S
C796 O818 1.240 . S
C796 O819 1.264 . S
O797 Mn792 2.095 . S
O797 C806 1.250 . S
O798 Mn793 2.121 . S
O798 C806 1.258 . S
C799 N800 1.326 . S
C799 C803 1.460 . S
C799 H805 0.929 . S
N800 Mn793 2.257 . S
N800 C799 1.326 . S
N800 C804 1.362 . S
C801 C802 1.258 . S
C801 C804 1.431 . S
C801 C821 1.449 . S
C802 C801 1.258 . S
C802 C803 1.477 . S
C802 H822 0.931 . S
C803 C799 1.460 . S
C803 C802 1.477 . S
C803 H823 0.930 . S
C804 N800 1.362 . S
C804 C801 1.431 . S
C804 C814 1.476 . S
H805 C799 0.929 . S
C806 O797 1.250 . S
C806 O798 1.258 . S
O807 Mn792 2.162 . S
O807 C795 1.281 . S
O808 Mn792 2.297 . S
O808 C795 1.236 . S
N809 Mn793 2.282 . S
N809 C810 1.328 . S
N809 C814 1.318 . S
C810 N809 1.328 . S
C810 C811 1.457 . S
C810 H815 0.929 . S
C811 C810 1.457 . S
C811 C812 1.291 . S
C811 H824 0.931 . S
C812 C811 1.291 . S
C812 C813 1.373 . S
C812 H825 0.929 . S
C813 C812 1.373 . S
C813 C814 1.396 . S
C813 C820 1.403 . S
C814 C804 1.476 . S
C814 N809 1.318 . S
C814 C813 1.396 . S
H815 C810 0.929 . S
O816 Mn792 2.385 . S
O816 C794 1.234 . S
O817 Mn792 2.209 . S
O817 Mn793 2.215 . S
O817 C794 1.283 . S
O818 Mn792 2.094 . S
O818 C796 1.240 . S
O819 Mn793 2.117 . S
O819 C796 1.264 . S
C820 C813 1.403 . S
C820 C821 1.399 . S
C820 H826 0.929 . S
C821 C801 1.449 . S
C821 C820 1.399 . S
C821 H827 0.930 . S
H822 C802 0.931 . S
H823 C803 0.930 . S
H824 C811 0.931 . S
H825 C812 0.929 . S
H826 C820 0.929 . S
H827 C821 0.930 . S
Mn828 O833 2.095 . S
Mn828 O843 2.162 . S
Mn828 O844 2.297 . S
Mn828 O852 2.385 . S
Mn828 O853 2.209 . S
Mn828 O854 2.094 . S
Mn829 O834 2.121 . S
Mn829 N836 2.257 . S
Mn829 N845 2.282 . S
Mn829 O853 2.215 . S
Mn829 O855 2.117 . S
C830 O852 1.234 . S
C830 O853 1.283 . S
C831 O843 1.281 . S
C831 O844 1.236 . S
C832 O854 1.240 . S
C832 O855 1.264 . S
O833 Mn828 2.095 . S
O833 C842 1.250 . S
O834 Mn829 2.121 . S
O834 C842 1.258 . S
C835 N836 1.326 . S
C835 C839 1.460 . S
C835 H841 0.929 . S
N836 Mn829 2.257 . S
N836 C835 1.326 . S
N836 C840 1.362 . S
C837 C838 1.258 . S
C837 C840 1.431 . S
C837 C857 1.449 . S
C838 C837 1.258 . S
C838 C839 1.477 . S
C838 H858 0.931 . S
C839 C835 1.460 . S
C839 C838 1.477 . S
C839 H859 0.930 . S
C840 N836 1.362 . S
C840 C837 1.431 . S
C840 C850 1.476 . S
H841 C835 0.929 . S
C842 O833 1.250 . S
C842 O834 1.258 . S
O843 Mn828 2.162 . S
O843 C831 1.281 . S
O844 Mn828 2.297 . S
O844 C831 1.236 . S
N845 Mn829 2.282 . S
N845 C846 1.328 . S
N845 C850 1.318 . S
C846 N845 1.328 . S
C846 C847 1.457 . S
C846 H851 0.929 . S
C847 C846 1.457 . S
C847 C848 1.291 . S
C847 H860 0.931 . S
C848 C847 1.291 . S
C848 C849 1.373 . S
C848 H861 0.929 . S
C849 C848 1.373 . S
C849 C850 1.396 . S
C849 C856 1.403 . S
C850 C840 1.476 . S
C850 N845 1.318 . S
C850 C849 1.396 . S
H851 C846 0.929 . S
O852 Mn828 2.385 . S
O852 C830 1.234 . S
O853 Mn828 2.209 . S
O853 Mn829 2.215 . S
O853 C830 1.283 . S
O854 Mn828 2.094 . S
O854 C832 1.240 . S
O855 Mn829 2.117 . S
O855 C832 1.264 . S
C856 C849 1.403 . S
C856 C857 1.399 . S
C856 H862 0.929 . S
C857 C837 1.449 . S
C857 C856 1.399 . S
C857 H863 0.930 . S
H858 C838 0.931 . S
H859 C839 0.930 . S
H860 C847 0.931 . S
H861 C848 0.929 . S
H862 C856 0.929 . S
H863 C857 0.930 . S
H864 C872 0.950 . S
H865 C877 0.950 . S
H866 C874 0.950 . S
H867 C876 0.950 . S
H868 C878 0.950 . S
H869 C880 0.950 . S
H870 C882 0.950 . S
H871 C883 0.950 . S
C872 H864 0.950 . S
C872 C873 1.386 . S
C872 C874 1.391 . S
C873 C872 1.386 . S
C873 C877 1.393 . S
C874 H866 0.950 . S
C874 C872 1.391 . S
C874 C875 1.400 . S
C875 C874 1.400 . S
C875 C876 1.398 . S
C875 C881 1.491 . S
C876 H867 0.950 . S
C876 C875 1.398 . S
C876 C877 1.391 . S
C877 H865 0.950 . S
C877 C873 1.393 . S
C877 C876 1.391 . S
C878 H868 0.950 . S
C878 C879 1.386 . S
C878 C880 1.391 . S
C879 C878 1.386 . S
C879 C883 1.393 . S
C880 H869 0.950 . S
C880 C878 1.391 . S
C880 C881 1.400 . S
C881 C875 1.491 . S
C881 C880 1.400 . S
C881 C882 1.398 . S
C882 H870 0.950 . S
C882 C881 1.398 . S
C882 C883 1.391 . S
C883 H871 0.950 . S
C883 C879 1.393 . S
C883 C882 1.391 . S
H884 C892 0.950 . S
H885 C897 0.950 . S
H886 C894 0.950 . S
H887 C896 0.950 . S
H888 C898 0.950 . S
H889 C900 0.950 . S
H890 C902 0.950 . S
H891 C903 0.950 . S
C892 H884 0.950 . S
C892 C893 1.386 . S
C892 C894 1.391 . S
C893 C892 1.386 . S
C893 C897 1.393 . S
C894 H886 0.950 . S
C894 C892 1.391 . S
C894 C895 1.400 . S
C895 C894 1.400 . S
C895 C896 1.398 . S
C895 C901 1.491 . S
C896 H887 0.950 . S
C896 C895 1.398 . S
C896 C897 1.391 . S
C897 H885 0.950 . S
C897 C893 1.393 . S
C897 C896 1.391 . S
C898 H888 0.950 . S
C898 C899 1.386 . S
C898 C900 1.391 . S
C899 C898 1.386 . S
C899 C903 1.393 . S
C900 H889 0.950 . S
C900 C898 1.391 . S
C900 C901 1.400 . S
C901 C895 1.491 . S
C901 C900 1.400 . S
C901 C902 1.398 . S
C902 H890 0.950 . S
C902 C901 1.398 . S
C902 C903 1.391 . S
C903 H891 0.950 . S
C903 C899 1.393 . S
C903 C902 1.391 . S
H904 C912 0.950 . S
H905 C917 0.950 . S
H906 C914 0.950 . S
H907 C916 0.950 . S
H908 C918 0.950 . S
H909 C920 0.950 . S
H910 C922 0.950 . S
H911 C923 0.950 . S
C912 H904 0.950 . S
C912 C913 1.386 . S
C912 C914 1.391 . S
C913 C912 1.386 . S
C913 C917 1.393 . S
C914 H906 0.950 . S
C914 C912 1.391 . S
C914 C915 1.400 . S
C915 C914 1.400 . S
C915 C916 1.398 . S
C915 C921 1.491 . S
C916 H907 0.950 . S
C916 C915 1.398 . S
C916 C917 1.391 . S
C917 H905 0.950 . S
C917 C913 1.393 . S
C917 C916 1.391 . S
C918 H908 0.950 . S
C918 C919 1.386 . S
C918 C920 1.391 . S
C919 C918 1.386 . S
C919 C923 1.393 . S
C920 H909 0.950 . S
C920 C918 1.391 . S
C920 C921 1.400 . S
C921 C915 1.491 . S
C921 C920 1.400 . S
C921 C922 1.398 . S
C922 H910 0.950 . S
C922 C921 1.398 . S
C922 C923 1.391 . S
C923 H911 0.950 . S
C923 C919 1.393 . S
C923 C922 1.391 . S
H924 C932 0.950 . S
H925 C937 0.950 . S
H926 C934 0.950 . S
H927 C936 0.950 . S
H928 C938 0.950 . S
H929 C940 0.950 . S
H930 C942 0.950 . S
H931 C943 0.940 1_556 S
C932 H924 0.950 . S
C932 C933 1.386 . S
C932 C934 1.391 . S
C933 C932 1.386 . S
C933 C937 1.393 . S
C934 H926 0.950 . S
C934 C932 1.391 . S
C934 C935 1.400 . S
C935 C934 1.400 . S
C935 C936 1.398 . S
C935 C941 1.491 . S
C936 H927 0.950 . S
C936 C935 1.398 . S
C936 C937 1.391 . S
C937 H925 0.950 . S
C937 C933 1.393 . S
C937 C936 1.391 . S
C938 H928 0.950 . S
C938 C939 1.386 . S
C938 C940 1.391 . S
C939 C938 1.386 . S
C939 C943 1.393 . S
C940 H929 0.950 . S
C940 C938 1.391 . S
C940 C941 1.400 . S
C941 C935 1.491 . S
C941 C940 1.400 . S
C941 C942 1.398 . S
C942 H930 0.950 . S
C942 C941 1.398 . S
C942 C943 1.391 . S
C943 H931 0.940 1_554 S
C943 C939 1.393 . S
C943 C942 1.391 . S
H944 C952 0.950 . S
H945 C957 0.950 . S
H946 C954 0.950 . S
H947 C956 0.950 . S
H948 C958 0.950 . S
H949 C960 0.950 . S
H950 C962 0.950 . S
H951 C963 0.950 . S
C952 H944 0.950 . S
C952 C953 1.386 . S
C952 C954 1.391 . S
C953 C952 1.386 . S
C953 C957 1.393 . S
C954 H946 0.950 . S
C954 C952 1.391 . S
C954 C955 1.400 . S
C955 C954 1.400 . S
C955 C956 1.398 . S
C955 C961 1.491 . S
C956 H947 0.950 . S
C956 C955 1.398 . S
C956 C957 1.391 . S
C957 H945 0.950 . S
C957 C953 1.393 . S
C957 C956 1.391 . S
C958 H948 0.950 . S
C958 C959 1.386 . S
C958 C960 1.391 . S
C959 C958 1.386 . S
C959 C963 1.393 . S
C960 H949 0.950 . S
C960 C958 1.391 . S
C960 C961 1.400 . S
C961 C955 1.491 . S
C961 C960 1.400 . S
C961 C962 1.398 . S
C962 H950 0.950 . S
C962 C961 1.398 . S
C962 C963 1.391 . S
C963 H951 0.950 . S
C963 C959 1.393 . S
C963 C962 1.391 . S
H964 C972 0.950 . S
H965 C977 0.950 . S
H966 C974 0.950 . S
H967 C976 0.950 . S
H968 C978 0.950 . S
H969 C980 0.950 . S
H970 C982 0.950 . S
H971 C983 0.950 . S
C972 H964 0.950 . S
C972 C973 1.386 . S
C972 C974 1.391 . S
C973 C972 1.386 . S
C973 C977 1.393 . S
C974 H966 0.950 . S
C974 C972 1.391 . S
C974 C975 1.400 . S
C975 C974 1.400 . S
C975 C976 1.398 . S
C975 C981 1.491 . S
C976 H967 0.950 . S
C976 C975 1.398 . S
C976 C977 1.391 . S
C977 H965 0.950 . S
C977 C973 1.393 . S
C977 C976 1.391 . S
C978 H968 0.950 . S
C978 C979 1.386 . S
C978 C980 1.391 . S
C979 C978 1.386 . S
C979 C983 1.393 . S
C980 H969 0.950 . S
C980 C978 1.391 . S
C980 C981 1.400 . S
C981 C975 1.491 . S
C981 C980 1.400 . S
C981 C982 1.398 . S
C982 H970 0.950 . S
C982 C981 1.398 . S
C982 C983 1.391 . S
C983 H971 0.950 . S
C983 C979 1.393 . S
C983 C982 1.391 . S
H984 C992 0.950 . S
H985 C997 0.950 . S
H986 C994 0.950 . S
H987 C996 0.950 . S
H988 C998 0.950 . S
H989 C1000 0.950 . S
H990 C1002 0.950 . S
H991 C1003 0.950 . S
C992 H984 0.950 . S
C992 C993 1.386 . S
C992 C994 1.391 . S
C993 C992 1.386 . S
C993 C997 1.393 . S
C994 H986 0.950 . S
C994 C992 1.391 . S
C994 C995 1.400 . S
C995 C994 1.400 . S
C995 C996 1.398 . S
C995 C1001 1.491 . S
C996 H987 0.950 . S
C996 C995 1.398 . S
C996 C997 1.391 . S
C997 H985 0.950 . S
C997 C993 1.393 . S
C997 C996 1.391 . S
C998 H988 0.950 . S
C998 C999 1.386 . S
C998 C1000 1.391 . S
C999 C998 1.386 . S
C999 C1003 1.393 . S
C1000 H989 0.950 . S
C1000 C998 1.391 . S
C1000 C1001 1.400 . S
C1001 C995 1.491 . S
C1001 C1000 1.400 . S
C1001 C1002 1.398 . S
C1002 H990 0.950 . S
C1002 C1001 1.398 . S
C1002 C1003 1.391 . S
C1003 H991 0.950 . S
C1003 C999 1.393 . S
C1003 C1002 1.391 . S
H1004 C1012 0.950 . S
H1005 C1017 0.950 . S
H1006 C1014 0.950 . S
H1007 C1016 0.950 . S
H1008 C1018 0.950 . S
H1009 C1020 0.950 . S
H1010 C1022 0.950 . S
H1011 C1023 0.950 1_554 S
C1012 H1004 0.950 . S
C1012 C1013 1.386 . S
C1012 C1014 1.391 . S
C1013 C1012 1.386 . S
C1013 C1017 1.393 . S
C1014 H1006 0.950 . S
C1014 C1012 1.391 . S
C1014 C1015 1.400 . S
C1015 C1014 1.400 . S
C1015 C1016 1.398 . S
C1015 C1021 1.491 . S
C1016 H1007 0.950 . S
C1016 C1015 1.398 . S
C1016 C1017 1.391 . S
C1017 H1005 0.950 . S
C1017 C1013 1.393 . S
C1017 C1016 1.391 . S
C1018 H1008 0.950 . S
C1018 C1019 1.386 . S
C1018 C1020 1.391 . S
C1019 C1018 1.386 . S
C1019 C1023 1.393 . S
C1020 H1009 0.950 . S
C1020 C1018 1.391 . S
C1020 C1021 1.400 . S
C1021 C1015 1.491 . S
C1021 C1020 1.400 . S
C1021 C1022 1.398 . S
C1022 H1010 0.950 . S
C1022 C1021 1.398 . S
C1022 C1023 1.391 . S
C1023 H1011 0.950 1_556 S
C1023 C1019 1.393 . S
C1023 C1022 1.391 . S
H1024 C1032 0.950 . S
H1025 C1037 0.950 . S
H1026 C1034 0.950 . S
H1027 C1036 0.950 . S
H1028 C1038 0.950 . S
H1029 C1040 0.950 . S
H1030 C1042 0.950 . S
H1031 C1043 0.950 . S
C1032 H1024 0.950 . S
C1032 C1033 1.386 . S
C1032 C1034 1.391 . S
C1033 C1032 1.386 . S
C1033 C1037 1.393 . S
C1034 H1026 0.950 . S
C1034 C1032 1.391 . S
C1034 C1035 1.400 . S
C1035 C1034 1.400 . S
C1035 C1036 1.398 . S
C1035 C1041 1.491 . S
C1036 H1027 0.950 . S
C1036 C1035 1.398 . S
C1036 C1037 1.391 . S
C1037 H1025 0.950 . S
C1037 C1033 1.393 . S
C1037 C1036 1.391 . S
C1038 H1028 0.950 . S
C1038 C1039 1.386 . S
C1038 C1040 1.391 . S
C1039 C1038 1.386 . S
C1039 C1043 1.393 . S
C1040 H1029 0.950 . S
C1040 C1038 1.391 . S
C1040 C1041 1.400 . S
C1041 C1035 1.491 . S
C1041 C1040 1.400 . S
C1041 C1042 1.398 . S
C1042 H1030 0.950 . S
C1042 C1041 1.398 . S
C1042 C1043 1.391 . S
C1043 H1031 0.950 . S
C1043 C1039 1.393 . S
C1043 C1042 1.391 . S
H1044 C1052 0.950 . S
H1045 C1057 0.950 . S
H1046 C1054 0.950 . S
H1047 C1056 0.950 . S
H1048 C1058 0.950 . S
H1049 C1060 0.950 . S
H1050 C1062 0.950 . S
H1051 C1063 0.950 . S
C1052 H1044 0.950 . S
C1052 C1053 1.386 . S
C1052 C1054 1.391 . S
C1053 C1052 1.386 . S
C1053 C1057 1.393 . S
C1054 H1046 0.950 . S
C1054 C1052 1.391 . S
C1054 C1055 1.400 . S
C1055 C1054 1.400 . S
C1055 C1056 1.398 . S
C1055 C1061 1.491 . S
C1056 H1047 0.950 . S
C1056 C1055 1.398 . S
C1056 C1057 1.391 . S
C1057 H1045 0.950 . S
C1057 C1053 1.393 . S
C1057 C1056 1.391 . S
C1058 H1048 0.950 . S
C1058 C1059 1.386 . S
C1058 C1060 1.391 . S
C1059 C1058 1.386 . S
C1059 C1063 1.393 . S
C1060 H1049 0.950 . S
C1060 C1058 1.391 . S
C1060 C1061 1.400 . S
C1061 C1055 1.491 . S
C1061 C1060 1.400 . S
C1061 C1062 1.398 . S
C1062 H1050 0.950 . S
C1062 C1061 1.398 . S
C1062 C1063 1.391 . S
C1063 H1051 0.950 . S
C1063 C1059 1.393 . S
C1063 C1062 1.391 . S
H1064 C1072 0.950 . S
H1065 C1077 0.950 . S
H1066 C1074 0.950 . S
H1067 C1076 0.950 . S
H1068 C1078 0.950 . S
H1069 C1080 0.950 . S
H1070 C1082 0.950 . S
H1071 C1083 0.950 . S
C1072 H1064 0.950 . S
C1072 C1073 1.386 . S
C1072 C1074 1.391 . S
C1073 C1072 1.386 . S
C1073 C1077 1.393 . S
C1074 H1066 0.950 . S
C1074 C1072 1.391 . S
C1074 C1075 1.400 . S
C1075 C1074 1.400 . S
C1075 C1076 1.398 . S
C1075 C1081 1.491 . S
C1076 H1067 0.950 . S
C1076 C1075 1.398 . S
C1076 C1077 1.391 . S
C1077 H1065 0.950 . S
C1077 C1073 1.393 . S
C1077 C1076 1.391 . S
C1078 H1068 0.950 . S
C1078 C1079 1.386 . S
C1078 C1080 1.391 . S
C1079 C1078 1.386 . S
C1079 C1083 1.393 . S
C1080 H1069 0.950 . S
C1080 C1078 1.391 . S
C1080 C1081 1.400 . S
C1081 C1075 1.491 . S
C1081 C1080 1.400 . S
C1081 C1082 1.398 . S
C1082 H1070 0.950 . S
C1082 C1081 1.398 . S
C1082 C1083 1.391 . S
C1083 H1071 0.950 . S
C1083 C1079 1.393 . S
C1083 C1082 1.391 . S
H1084 C1092 0.950 . S
H1085 C1097 0.950 . S
H1086 C1094 0.950 . S
H1087 C1096 0.950 . S
H1088 C1098 0.950 . S
H1089 C1100 0.950 . S
H1090 C1102 0.950 . S
H1091 C1103 0.942 1_545 S
C1092 H1084 0.950 . S
C1092 C1093 1.386 . S
C1092 C1094 1.391 . S
C1093 C1092 1.386 . S
C1093 C1097 1.393 . S
C1094 H1086 0.950 . S
C1094 C1092 1.391 . S
C1094 C1095 1.400 . S
C1095 C1094 1.400 . S
C1095 C1096 1.398 . S
C1095 C1101 1.491 . S
C1096 H1087 0.950 . S
C1096 C1095 1.398 . S
C1096 C1097 1.391 . S
C1097 H1085 0.950 . S
C1097 C1093 1.393 . S
C1097 C1096 1.391 . S
C1098 H1088 0.950 . S
C1098 C1099 1.386 . S
C1098 C1100 1.391 . S
C1099 C1098 1.386 . S
C1099 C1103 1.393 . S
C1100 H1089 0.950 . S
C1100 C1098 1.391 . S
C1100 C1101 1.400 . S
C1101 C1095 1.491 . S
C1101 C1100 1.400 . S
C1101 C1102 1.398 . S
C1102 H1090 0.950 . S
C1102 C1101 1.398 . S
C1102 C1103 1.391 . S
C1103 H1091 0.942 1_565 S
C1103 C1099 1.393 . S
C1103 C1102 1.391 . S
H1104 C1112 0.950 . S
H1105 C1117 0.950 . S
H1106 C1114 0.950 . S
H1107 C1116 0.950 . S
H1108 C1118 0.950 . S
H1109 C1120 0.950 . S
H1110 C1122 0.950 . S
H1111 C1123 0.950 . S
C1112 H1104 0.950 . S
C1112 C1113 1.386 . S
C1112 C1114 1.391 . S
C1113 C1112 1.386 . S
C1113 C1117 1.393 . S
C1114 H1106 0.950 . S
C1114 C1112 1.391 . S
C1114 C1115 1.400 . S
C1115 C1114 1.400 . S
C1115 C1116 1.398 . S
C1115 C1121 1.491 . S
C1116 H1107 0.950 . S
C1116 C1115 1.398 . S
C1116 C1117 1.391 . S
C1117 H1105 0.950 . S
C1117 C1113 1.393 . S
C1117 C1116 1.391 . S
C1118 H1108 0.950 . S
C1118 C1119 1.386 . S
C1118 C1120 1.391 . S
C1119 C1118 1.386 . S
C1119 C1123 1.393 . S
C1120 H1109 0.950 . S
C1120 C1118 1.391 . S
C1120 C1121 1.400 . S
C1121 C1115 1.491 . S
C1121 C1120 1.400 . S
C1121 C1122 1.398 . S
C1122 H1110 0.950 . S
C1122 C1121 1.398 . S
C1122 C1123 1.391 . S
C1123 H1111 0.950 . S
C1123 C1119 1.393 . S
C1123 C1122 1.391 . S
H1124 C1132 0.950 . S
H1125 C1137 0.950 1_455 S
H1126 C1134 0.950 . S
H1127 C1136 0.950 . S
H1128 C1138 0.950 . S
H1129 C1140 0.950 . S
H1130 C1142 0.950 . S
H1131 C1143 0.950 . S
C1132 H1124 0.950 . S
C1132 C1133 1.386 . S
C1132 C1134 1.391 . S
C1133 C1132 1.386 . S
C1133 C1137 1.393 . S
C1134 H1126 0.950 . S
C1134 C1132 1.391 . S
C1134 C1135 1.400 . S
C1135 C1134 1.400 . S
C1135 C1136 1.398 . S
C1135 C1141 1.491 . S
C1136 H1127 0.950 . S
C1136 C1135 1.398 . S
C1136 C1137 1.391 . S
C1137 H1125 0.950 1_655 S
C1137 C1133 1.393 . S
C1137 C1136 1.391 . S
C1138 H1128 0.950 . S
C1138 C1139 1.386 . S
C1138 C1140 1.391 . S
C1139 C1138 1.386 . S
C1139 C1143 1.393 . S
C1140 H1129 0.950 . S
C1140 C1138 1.391 . S
C1140 C1141 1.400 . S
C1141 C1135 1.491 . S
C1141 C1140 1.400 . S
C1141 C1142 1.398 . S
C1142 H1130 0.950 . S
C1142 C1141 1.398 . S
C1142 C1143 1.391 . S
C1143 H1131 0.950 . S
C1143 C1139 1.393 . S
C1143 C1142 1.391 . S
H1144 C1152 0.950 . S
H1145 C1157 0.950 . S
H1146 C1154 0.950 . S
H1147 C1156 0.950 . S
H1148 C1158 0.950 . S
H1149 C1160 0.950 . S
H1150 C1162 0.950 . S
H1151 C1163 0.950 . S
C1152 H1144 0.950 . S
C1152 C1153 1.386 . S
C1152 C1154 1.391 . S
C1153 C1152 1.386 . S
C1153 C1157 1.393 . S
C1154 H1146 0.950 . S
C1154 C1152 1.391 . S
C1154 C1155 1.400 . S
C1155 C1154 1.400 . S
C1155 C1156 1.398 . S
C1155 C1161 1.491 . S
C1156 H1147 0.950 . S
C1156 C1155 1.398 . S
C1156 C1157 1.391 . S
C1157 H1145 0.950 . S
C1157 C1153 1.393 . S
C1157 C1156 1.391 . S
C1158 H1148 0.950 . S
C1158 C1159 1.386 . S
C1158 C1160 1.391 . S
C1159 C1158 1.386 . S
C1159 C1163 1.393 . S
C1160 H1149 0.950 . S
C1160 C1158 1.391 . S
C1160 C1161 1.400 . S
C1161 C1155 1.491 . S
C1161 C1160 1.400 . S
C1161 C1162 1.398 . S
C1162 H1150 0.950 . S
C1162 C1161 1.398 . S
C1162 C1163 1.391 . S
C1163 H1151 0.950 . S
C1163 C1159 1.393 . S
C1163 C1162 1.391 . S
H1164 C1172 0.950 1_455 S
H1165 C1177 0.950 . S
H1166 C1174 0.950 . S
H1167 C1176 0.950 . S
H1168 C1178 0.950 . S
H1169 C1180 0.950 . S
H1170 C1182 0.950 . S
H1171 C1183 0.950 . S
C1172 H1164 0.950 1_655 S
C1172 C1173 1.386 . S
C1172 C1174 1.391 . S
C1173 C1172 1.386 . S
C1173 C1177 1.393 . S
C1174 H1166 0.950 . S
C1174 C1172 1.391 . S
C1174 C1175 1.400 . S
C1175 C1174 1.400 . S
C1175 C1176 1.398 . S
C1175 C1181 1.491 . S
C1176 H1167 0.950 . S
C1176 C1175 1.398 . S
C1176 C1177 1.391 . S
C1177 H1165 0.950 . S
C1177 C1173 1.393 . S
C1177 C1176 1.391 . S
C1178 H1168 0.950 . S
C1178 C1179 1.386 . S
C1178 C1180 1.391 . S
C1179 C1178 1.386 . S
C1179 C1183 1.393 . S
C1180 H1169 0.950 . S
C1180 C1178 1.391 . S
C1180 C1181 1.400 . S
C1181 C1175 1.491 . S
C1181 C1180 1.400 . S
C1181 C1182 1.398 . S
C1182 H1170 0.950 . S
C1182 C1181 1.398 . S
C1182 C1183 1.391 . S
C1183 H1171 0.950 . S
C1183 C1179 1.393 . S
C1183 C1182 1.391 . S
H1184 C1192 0.950 . S
H1185 C1197 0.950 . S
H1186 C1194 0.950 . S
H1187 C1196 0.950 . S
H1188 C1198 0.950 . S
H1189 C1200 0.950 . S
H1190 C1202 0.950 . S
H1191 C1203 0.950 . S
C1192 H1184 0.950 . S
C1192 C1193 1.386 . S
C1192 C1194 1.391 . S
C1193 C1192 1.386 . S
C1193 C1197 1.393 . S
C1194 H1186 0.950 . S
C1194 C1192 1.391 . S
C1194 C1195 1.400 . S
C1195 C1194 1.400 . S
C1195 C1196 1.398 . S
C1195 C1201 1.491 . S
C1196 H1187 0.950 . S
C1196 C1195 1.398 . S
C1196 C1197 1.391 . S
C1197 H1185 0.950 . S
C1197 C1193 1.393 . S
C1197 C1196 1.391 . S
C1198 H1188 0.950 . S
C1198 C1199 1.386 . S
C1198 C1200 1.391 . S
C1199 C1198 1.386 . S
C1199 C1203 1.393 . S
C1200 H1189 0.950 . S
C1200 C1198 1.391 . S
C1200 C1201 1.400 . S
C1201 C1195 1.491 . S
C1201 C1200 1.400 . S
C1201 C1202 1.398 . S
C1202 H1190 0.950 . S
C1202 C1201 1.398 . S
C1202 C1203 1.391 . S
C1203 H1191 0.950 . S
C1203 C1199 1.393 . S
C1203 C1202 1.391 . S
H1204 C1212 0.950 . S
H1205 C1217 0.950 . S
H1206 C1214 0.950 . S
H1207 C1216 0.950 . S
H1208 C1218 0.950 . S
H1209 C1220 0.950 . S
H1210 C1222 0.950 . S
H1211 C1223 0.950 . S
C1212 H1204 0.950 . S
C1212 C1213 1.386 . S
C1212 C1214 1.391 . S
C1213 C1212 1.386 . S
C1213 C1217 1.393 . S
C1214 H1206 0.950 . S
C1214 C1212 1.391 . S
C1214 C1215 1.400 . S
C1215 C1214 1.400 . S
C1215 C1216 1.398 . S
C1215 C1221 1.491 . S
C1216 H1207 0.950 . S
C1216 C1215 1.398 . S
C1216 C1217 1.391 . S
C1217 H1205 0.950 . S
C1217 C1213 1.393 . S
C1217 C1216 1.391 . S
C1218 H1208 0.950 . S
C1218 C1219 1.386 . S
C1218 C1220 1.391 . S
C1219 C1218 1.386 . S
C1219 C1223 1.393 . S
C1220 H1209 0.950 . S
C1220 C1218 1.391 . S
C1220 C1221 1.400 . S
C1221 C1215 1.491 . S
C1221 C1220 1.400 . S
C1221 C1222 1.398 . S
C1222 H1210 0.950 . S
C1222 C1221 1.398 . S
C1222 C1223 1.391 . S
C1223 H1211 0.950 . S
C1223 C1219 1.393 . S
C1223 C1222 1.391 . S
H1224 C1232 0.950 . S
H1225 C1237 0.950 . S
H1226 C1234 0.950 . S
H1227 C1236 0.950 . S
H1228 C1238 0.950 . S
H1229 C1240 0.950 . S
H1230 C1242 0.950 . S
H1231 C1243 0.950 . S
C1232 H1224 0.950 . S
C1232 C1233 1.386 . S
C1232 C1234 1.391 . S
C1233 C1232 1.386 . S
C1233 C1237 1.393 . S
C1234 H1226 0.950 . S
C1234 C1232 1.391 . S
C1234 C1235 1.400 . S
C1235 C1234 1.400 . S
C1235 C1236 1.398 . S
C1235 C1241 1.491 . S
C1236 H1227 0.950 . S
C1236 C1235 1.398 . S
C1236 C1237 1.391 . S
C1237 H1225 0.950 . S
C1237 C1233 1.393 . S
C1237 C1236 1.391 . S
C1238 H1228 0.950 . S
C1238 C1239 1.386 . S
C1238 C1240 1.391 . S
C1239 C1238 1.386 . S
C1239 C1243 1.393 . S
C1240 H1229 0.950 . S
C1240 C1238 1.391 . S
C1240 C1241 1.400 . S
C1241 C1235 1.491 . S
C1241 C1240 1.400 . S
C1241 C1242 1.398 . S
C1242 H1230 0.950 . S
C1242 C1241 1.398 . S
C1242 C1243 1.391 . S
C1243 H1231 0.950 . S
C1243 C1239 1.393 . S
C1243 C1242 1.391 . S
H1244 C1252 0.950 . S
H1245 C1257 0.950 . S
H1246 C1254 0.950 . S
H1247 C1256 0.950 . S
H1248 C1258 0.950 . S
H1249 C1260 0.950 . S
H1250 C1262 0.950 . S
H1251 C1263 0.950 . S
C1252 H1244 0.950 . S
C1252 C1253 1.386 . S
C1252 C1254 1.391 . S
C1253 C1252 1.386 . S
C1253 C1257 1.393 . S
C1254 H1246 0.950 . S
C1254 C1252 1.391 . S
C1254 C1255 1.400 . S
C1255 C1254 1.400 . S
C1255 C1256 1.398 . S
C1255 C1261 1.491 . S
C1256 H1247 0.950 . S
C1256 C1255 1.398 . S
C1256 C1257 1.391 . S
C1257 H1245 0.950 . S
C1257 C1253 1.393 . S
C1257 C1256 1.391 . S
C1258 H1248 0.950 . S
C1258 C1259 1.386 . S
C1258 C1260 1.391 . S
C1259 C1258 1.386 . S
C1259 C1263 1.393 . S
C1260 H1249 0.950 . S
C1260 C1258 1.391 . S
C1260 C1261 1.400 . S
C1261 C1255 1.491 . S
C1261 C1260 1.400 . S
C1261 C1262 1.398 . S
C1262 H1250 0.950 . S
C1262 C1261 1.398 . S
C1262 C1263 1.391 . S
C1263 H1251 0.950 . S
C1263 C1259 1.393 . S
C1263 C1262 1.391 . S
H1264 C1272 0.950 . S
H1265 C1277 0.950 . S
H1266 C1274 0.950 . S
H1267 C1276 0.950 . S
H1268 C1278 0.950 . S
H1269 C1280 0.950 . S
H1270 C1282 0.950 . S
H1271 C1283 0.950 . S
C1272 H1264 0.950 . S
C1272 C1273 1.386 . S
C1272 C1274 1.391 . S
C1273 C1272 1.386 . S
C1273 C1277 1.393 . S
C1274 H1266 0.950 . S
C1274 C1272 1.391 . S
C1274 C1275 1.400 . S
C1275 C1274 1.400 . S
C1275 C1276 1.398 . S
C1275 C1281 1.491 . S
C1276 H1267 0.950 . S
C1276 C1275 1.398 . S
C1276 C1277 1.391 . S
C1277 H1265 0.950 . S
C1277 C1273 1.393 . S
C1277 C1276 1.391 . S
C1278 H1268 0.950 . S
C1278 C1279 1.386 . S
C1278 C1280 1.391 . S
C1279 C1278 1.386 . S
C1279 C1283 1.393 . S
C1280 H1269 0.950 . S
C1280 C1278 1.391 . S
C1280 C1281 1.400 . S
C1281 C1275 1.491 . S
C1281 C1280 1.400 . S
C1281 C1282 1.398 . S
C1282 H1270 0.950 . S
C1282 C1281 1.398 . S
C1282 C1283 1.391 . S
C1283 H1271 0.950 . S
C1283 C1279 1.393 . S
C1283 C1282 1.391 . S
H1284 C1292 0.950 . S
H1285 C1297 0.950 . S
H1286 C1294 0.950 . S
H1287 C1296 0.950 . S
H1288 C1298 0.950 . S
H1289 C1300 0.950 . S
H1290 C1302 0.950 . S
H1291 C1303 0.950 . S
C1292 H1284 0.950 . S
C1292 C1293 1.386 . S
C1292 C1294 1.391 . S
C1293 C1292 1.386 . S
C1293 C1297 1.393 . S
C1294 H1286 0.950 . S
C1294 C1292 1.391 . S
C1294 C1295 1.400 . S
C1295 C1294 1.400 . S
C1295 C1296 1.398 . S
C1295 C1301 1.491 . S
C1296 H1287 0.950 . S
C1296 C1295 1.398 . S
C1296 C1297 1.391 . S
C1297 H1285 0.950 . S
C1297 C1293 1.393 . S
C1297 C1296 1.391 . S
C1298 H1288 0.950 . S
C1298 C1299 1.386 . S
C1298 C1300 1.391 . S
C1299 C1298 1.386 . S
C1299 C1303 1.393 . S
C1300 H1289 0.950 . S
C1300 C1298 1.391 . S
C1300 C1301 1.400 . S
C1301 C1295 1.491 . S
C1301 C1300 1.400 . S
C1301 C1302 1.398 . S
C1302 H1290 0.950 . S
C1302 C1301 1.398 . S
C1302 C1303 1.391 . S
C1303 H1291 0.950 . S
C1303 C1299 1.393 . S
C1303 C1302 1.391 . S
H1304 C1312 0.950 . S
H1305 C1317 0.950 . S
H1306 C1314 0.950 . S
H1307 C1316 0.950 . S
H1308 C1318 0.950 . S
H1309 C1320 0.950 . S
H1310 C1322 0.950 . S
H1311 C1323 0.950 . S
C1312 H1304 0.950 . S
C1312 C1313 1.386 . S
C1312 C1314 1.391 . S
C1313 C1312 1.386 . S
C1313 C1317 1.393 . S
C1314 H1306 0.950 . S
C1314 C1312 1.391 . S
C1314 C1315 1.400 . S
C1315 C1314 1.400 . S
C1315 C1316 1.398 . S
C1315 C1321 1.491 . S
C1316 H1307 0.950 . S
C1316 C1315 1.398 . S
C1316 C1317 1.391 . S
C1317 H1305 0.950 . S
C1317 C1313 1.393 . S
C1317 C1316 1.391 . S
C1318 H1308 0.950 . S
C1318 C1319 1.386 . S
C1318 C1320 1.391 . S
C1319 C1318 1.386 . S
C1319 C1323 1.393 . S
C1320 H1309 0.950 . S
C1320 C1318 1.391 . S
C1320 C1321 1.400 . S
C1321 C1315 1.491 . S
C1321 C1320 1.400 . S
C1321 C1322 1.398 . S
C1322 H1310 0.950 . S
C1322 C1321 1.398 . S
C1322 C1323 1.391 . S
C1323 H1311 0.950 . S
C1323 C1319 1.393 . S
C1323 C1322 1.391 . S
H1324 C1332 0.950 . S
H1325 C1337 0.950 . S
H1326 C1334 0.950 . S
H1327 C1336 0.950 . S
H1328 C1338 0.950 . S
H1329 C1340 0.950 . S
H1330 C1342 0.950 . S
H1331 C1343 0.950 1_545 S
C1332 H1324 0.950 . S
C1332 C1333 1.386 . S
C1332 C1334 1.391 . S
C1333 C1332 1.386 . S
C1333 C1337 1.393 . S
C1334 H1326 0.950 . S
C1334 C1332 1.391 . S
C1334 C1335 1.400 . S
C1335 C1334 1.400 . S
C1335 C1336 1.398 . S
C1335 C1341 1.491 . S
C1336 H1327 0.950 . S
C1336 C1335 1.398 . S
C1336 C1337 1.391 . S
C1337 H1325 0.950 . S
C1337 C1333 1.393 . S
C1337 C1336 1.391 . S
C1338 H1328 0.950 . S
C1338 C1339 1.386 . S
C1338 C1340 1.391 . S
C1339 C1338 1.386 . S
C1339 C1343 1.393 . S
C1340 H1329 0.950 . S
C1340 C1338 1.391 . S
C1340 C1341 1.400 . S
C1341 C1335 1.491 . S
C1341 C1340 1.400 . S
C1341 C1342 1.398 . S
C1342 H1330 0.950 . S
C1342 C1341 1.398 . S
C1342 C1343 1.391 . S
C1343 H1331 0.950 1_565 S
C1343 C1339 1.393 . S
C1343 C1342 1.391 . S
H1344 C1352 0.950 . S
H1345 C1357 0.950 1_545 S
H1346 C1354 0.950 . S
H1347 C1356 0.950 . S
H1348 C1358 0.950 . S
H1349 C1360 0.950 . S
H1350 C1362 0.950 . S
H1351 C1363 0.950 . S
C1352 H1344 0.950 . S
C1352 C1353 1.386 . S
C1352 C1354 1.391 . S
C1353 C1352 1.386 . S
C1353 C1357 1.393 . S
C1354 H1346 0.950 . S
C1354 C1352 1.391 . S
C1354 C1355 1.400 . S
C1355 C1354 1.400 . S
C1355 C1356 1.398 . S
C1355 C1361 1.491 . S
C1356 H1347 0.950 . S
C1356 C1355 1.398 . S
C1356 C1357 1.391 . S
C1357 H1345 0.950 1_565 S
C1357 C1353 1.393 . S
C1357 C1356 1.391 . S
C1358 H1348 0.950 . S
C1358 C1359 1.386 . S
C1358 C1360 1.391 . S
C1359 C1358 1.386 . S
C1359 C1363 1.393 . S
C1360 H1349 0.950 . S
C1360 C1358 1.391 . S
C1360 C1361 1.400 . S
C1361 C1355 1.491 . S
C1361 C1360 1.400 . S
C1361 C1362 1.398 . S
C1362 H1350 0.950 . S
C1362 C1361 1.398 . S
C1362 C1363 1.391 . S
C1363 H1351 0.950 . S
C1363 C1359 1.393 . S
C1363 C1362 1.391 . S
H1364 C1372 0.950 . S
H1365 C1377 0.950 . S
H1366 C1374 0.950 . S
H1367 C1376 0.950 . S
H1368 C1378 0.950 . S
H1369 C1380 0.950 . S
H1370 C1382 0.950 . S
H1371 C1383 0.950 . S
C1372 H1364 0.950 . S
C1372 C1373 1.386 . S
C1372 C1374 1.391 . S
C1373 C1372 1.386 . S
C1373 C1377 1.393 . S
C1374 H1366 0.950 . S
C1374 C1372 1.391 . S
C1374 C1375 1.400 . S
C1375 C1374 1.400 . S
C1375 C1376 1.398 . S
C1375 C1381 1.491 . S
C1376 H1367 0.950 . S
C1376 C1375 1.398 . S
C1376 C1377 1.391 . S
C1377 H1365 0.950 . S
C1377 C1373 1.393 . S
C1377 C1376 1.391 . S
C1378 H1368 0.950 . S
C1378 C1379 1.386 . S
C1378 C1380 1.391 . S
C1379 C1378 1.386 . S
C1379 C1383 1.393 . S
C1380 H1369 0.950 . S
C1380 C1378 1.391 . S
C1380 C1381 1.400 . S
C1381 C1375 1.491 . S
C1381 C1380 1.400 . S
C1381 C1382 1.398 . S
C1382 H1370 0.950 . S
C1382 C1381 1.398 . S
C1382 C1383 1.391 . S
C1383 H1371 0.950 . S
C1383 C1379 1.393 . S
C1383 C1382 1.391 . S
H1384 C1392 0.950 . S
H1385 C1397 0.950 . S
H1386 C1394 0.950 . S
H1387 C1396 0.950 . S
H1388 C1398 0.950 . S
H1389 C1400 0.950 . S
H1390 C1402 0.950 . S
H1391 C1403 0.950 . S
C1392 H1384 0.950 . S
C1392 C1393 1.386 . S
C1392 C1394 1.391 . S
C1393 C1392 1.386 . S
C1393 C1397 1.393 . S
C1394 H1386 0.950 . S
C1394 C1392 1.391 . S
C1394 C1395 1.400 . S
C1395 C1394 1.400 . S
C1395 C1396 1.398 . S
C1395 C1401 1.491 . S
C1396 H1387 0.950 . S
C1396 C1395 1.398 . S
C1396 C1397 1.391 . S
C1397 H1385 0.950 . S
C1397 C1393 1.393 . S
C1397 C1396 1.391 . S
C1398 H1388 0.950 . S
C1398 C1399 1.386 . S
C1398 C1400 1.391 . S
C1399 C1398 1.386 . S
C1399 C1403 1.393 . S
C1400 H1389 0.950 . S
C1400 C1398 1.391 . S
C1400 C1401 1.400 . S
C1401 C1395 1.491 . S
C1401 C1400 1.400 . S
C1401 C1402 1.398 . S
C1402 H1390 0.950 . S
C1402 C1401 1.398 . S
C1402 C1403 1.391 . S
C1403 H1391 0.950 . S
C1403 C1399 1.393 . S
C1403 C1402 1.391 . S
H1404 C1412 0.950 . S
H1405 C1417 0.950 . S
H1406 C1414 0.950 . S
H1407 C1416 0.950 . S
H1408 C1418 0.950 1_554 S
H1409 C1420 0.950 . S
H1410 C1422 0.950 . S
H1411 C1423 0.950 . S
C1412 H1404 0.950 . S
C1412 C1413 1.386 . S
C1412 C1414 1.391 . S
C1413 C1412 1.386 . S
C1413 C1417 1.393 . S
C1414 H1406 0.950 . S
C1414 C1412 1.391 . S
C1414 C1415 1.400 . S
C1415 C1414 1.400 . S
C1415 C1416 1.398 . S
C1415 C1421 1.491 . S
C1416 H1407 0.950 . S
C1416 C1415 1.398 . S
C1416 C1417 1.391 . S
C1417 H1405 0.950 . S
C1417 C1413 1.393 . S
C1417 C1416 1.391 . S
C1418 H1408 0.950 1_556 S
C1418 C1419 1.386 . S
C1418 C1420 1.391 . S
C1419 C1418 1.386 . S
C1419 C1423 1.393 . S
C1420 H1409 0.950 . S
C1420 C1418 1.391 . S
C1420 C1421 1.400 . S
C1421 C1415 1.491 . S
C1421 C1420 1.400 . S
C1421 C1422 1.398 . S
C1422 H1410 0.950 . S
C1422 C1421 1.398 . S
C1422 C1423 1.391 . S
C1423 H1411 0.950 . S
C1423 C1419 1.393 . S
C1423 C1422 1.391 . S
H1424 C1432 0.950 . S
H1425 C1437 0.950 . S
H1426 C1434 0.950 . S
H1427 C1436 0.950 . S
H1428 C1438 0.950 . S
H1429 C1440 0.950 . S
H1430 C1442 0.950 . S
H1431 C1443 0.950 . S
C1432 H1424 0.950 . S
C1432 C1433 1.386 . S
C1432 C1434 1.391 . S
C1433 C1432 1.386 . S
C1433 C1437 1.393 . S
C1434 H1426 0.950 . S
C1434 C1432 1.391 . S
C1434 C1435 1.400 . S
C1435 C1434 1.400 . S
C1435 C1436 1.398 . S
C1435 C1441 1.491 . S
C1436 H1427 0.950 . S
C1436 C1435 1.398 . S
C1436 C1437 1.391 . S
C1437 H1425 0.950 . S
C1437 C1433 1.393 . S
C1437 C1436 1.391 . S
C1438 H1428 0.950 . S
C1438 C1439 1.386 . S
C1438 C1440 1.391 . S
C1439 C1438 1.386 . S
C1439 C1443 1.393 . S
C1440 H1429 0.950 . S
C1440 C1438 1.391 . S
C1440 C1441 1.400 . S
C1441 C1435 1.491 . S
C1441 C1440 1.400 . S
C1441 C1442 1.398 . S
C1442 H1430 0.950 . S
C1442 C1441 1.398 . S
C1442 C1443 1.391 . S
C1443 H1431 0.950 . S
C1443 C1439 1.393 . S
C1443 C1442 1.391 . S
H1444 C1452 0.950 . S
H1445 C1457 0.950 . S
H1446 C1454 0.950 . S
H1447 C1456 0.950 . S
H1448 C1458 0.950 . S
H1449 C1460 0.950 . S
H1450 C1462 0.950 . S
H1451 C1463 0.950 . S
C1452 H1444 0.950 . S
C1452 C1453 1.386 . S
C1452 C1454 1.391 . S
C1453 C1452 1.386 . S
C1453 C1457 1.393 . S
C1454 H1446 0.950 . S
C1454 C1452 1.391 . S
C1454 C1455 1.400 . S
C1455 C1454 1.400 . S
C1455 C1456 1.398 . S
C1455 C1461 1.491 . S
C1456 H1447 0.950 . S
C1456 C1455 1.398 . S
C1456 C1457 1.391 . S
C1457 H1445 0.950 . S
C1457 C1453 1.393 . S
C1457 C1456 1.391 . S
C1458 H1448 0.950 . S
C1458 C1459 1.386 . S
C1458 C1460 1.391 . S
C1459 C1458 1.386 . S
C1459 C1463 1.393 . S
C1460 H1449 0.950 . S
C1460 C1458 1.391 . S
C1460 C1461 1.400 . S
C1461 C1455 1.491 . S
C1461 C1460 1.400 . S
C1461 C1462 1.398 . S
C1462 H1450 0.950 . S
C1462 C1461 1.398 . S
C1462 C1463 1.391 . S
C1463 H1451 0.950 . S
C1463 C1459 1.393 . S
C1463 C1462 1.391 . S
H1464 C1472 0.950 . S
H1465 C1477 0.950 . S
H1466 C1474 0.950 . S
H1467 C1476 0.950 . S
H1468 C1478 0.950 . S
H1469 C1480 0.950 . S
H1470 C1482 0.950 . S
H1471 C1483 0.950 . S
C1472 H1464 0.950 . S
C1472 C1473 1.386 . S
C1472 C1474 1.391 . S
C1473 C1472 1.386 . S
C1473 C1477 1.393 . S
C1474 H1466 0.950 . S
C1474 C1472 1.391 . S
C1474 C1475 1.400 . S
C1475 C1474 1.400 . S
C1475 C1476 1.398 . S
C1475 C1481 1.491 . S
C1476 H1467 0.950 . S
C1476 C1475 1.398 . S
C1476 C1477 1.391 . S
C1477 H1465 0.950 . S
C1477 C1473 1.393 . S
C1477 C1476 1.391 . S
C1478 H1468 0.950 . S
C1478 C1479 1.386 . S
C1478 C1480 1.391 . S
C1479 C1478 1.386 . S
C1479 C1483 1.393 . S
C1480 H1469 0.950 . S
C1480 C1478 1.391 . S
C1480 C1481 1.400 . S
C1481 C1475 1.491 . S
C1481 C1480 1.400 . S
C1481 C1482 1.398 . S
C1482 H1470 0.950 . S
C1482 C1481 1.398 . S
C1482 C1483 1.391 . S
C1483 H1471 0.950 . S
C1483 C1479 1.393 . S
C1483 C1482 1.391 . S
H1484 C1492 0.950 1_455 S
H1485 C1497 0.950 . S
H1486 C1494 0.950 . S
H1487 C1496 0.950 . S
H1488 C1498 0.950 . S
H1489 C1500 0.950 . S
H1490 C1502 0.950 . S
H1491 C1503 0.950 . S
C1492 H1484 0.950 1_655 S
C1492 C1493 1.386 . S
C1492 C1494 1.391 . S
C1493 C1492 1.386 . S
C1493 C1497 1.393 . S
C1494 H1486 0.950 . S
C1494 C1492 1.391 . S
C1494 C1495 1.400 . S
C1495 C1494 1.400 . S
C1495 C1496 1.398 . S
C1495 C1501 1.491 . S
C1496 H1487 0.950 . S
C1496 C1495 1.398 . S
C1496 C1497 1.391 . S
C1497 H1485 0.950 . S
C1497 C1493 1.393 . S
C1497 C1496 1.391 . S
C1498 H1488 0.950 . S
C1498 C1499 1.386 . S
C1498 C1500 1.391 . S
C1499 C1498 1.386 . S
C1499 C1503 1.393 . S
C1500 H1489 0.950 . S
C1500 C1498 1.391 . S
C1500 C1501 1.400 . S
C1501 C1495 1.491 . S
C1501 C1500 1.400 . S
C1501 C1502 1.398 . S
C1502 H1490 0.950 . S
C1502 C1501 1.398 . S
C1502 C1503 1.391 . S
C1503 H1491 0.950 . S
C1503 C1499 1.393 . S
C1503 C1502 1.391 . S
H1504 C1512 0.950 . S
H1505 C1517 0.950 . S
H1506 C1514 0.950 . S
H1507 C1516 0.950 . S
H1508 C1518 0.950 . S
H1509 C1520 0.950 . S
H1510 C1522 0.950 . S
H1511 C1523 0.950 . S
C1512 H1504 0.950 . S
C1512 C1513 1.386 . S
C1512 C1514 1.391 . S
C1513 C1512 1.386 . S
C1513 C1517 1.393 . S
C1514 H1506 0.950 . S
C1514 C1512 1.391 . S
C1514 C1515 1.400 . S
C1515 C1514 1.400 . S
C1515 C1516 1.398 . S
C1515 C1521 1.491 . S
C1516 H1507 0.950 . S
C1516 C1515 1.398 . S
C1516 C1517 1.391 . S
C1517 H1505 0.950 . S
C1517 C1513 1.393 . S
C1517 C1516 1.391 . S
C1518 H1508 0.950 . S
C1518 C1519 1.386 . S
C1518 C1520 1.391 . S
C1519 C1518 1.386 . S
C1519 C1523 1.393 . S
C1520 H1509 0.950 . S
C1520 C1518 1.391 . S
C1520 C1521 1.400 . S
C1521 C1515 1.491 . S
C1521 C1520 1.400 . S
C1521 C1522 1.398 . S
C1522 H1510 0.950 . S
C1522 C1521 1.398 . S
C1522 C1523 1.391 . S
C1523 H1511 0.950 . S
C1523 C1519 1.393 . S
C1523 C1522 1.391 . S
H1524 C1532 0.950 . S
H1525 C1537 0.950 . S
H1526 C1534 0.950 . S
H1527 C1536 0.950 . S
H1528 C1538 0.950 . S
H1529 C1540 0.950 . S
H1530 C1542 0.950 . S
H1531 C1543 0.950 . S
C1532 H1524 0.950 . S
C1532 C1533 1.386 . S
C1532 C1534 1.391 . S
C1533 C1532 1.386 . S
C1533 C1537 1.393 . S
C1534 H1526 0.950 . S
C1534 C1532 1.391 . S
C1534 C1535 1.400 . S
C1535 C1534 1.400 . S
C1535 C1536 1.398 . S
C1535 C1541 1.491 . S
C1536 H1527 0.950 . S
C1536 C1535 1.398 . S
C1536 C1537 1.391 . S
C1537 H1525 0.950 . S
C1537 C1533 1.393 . S
C1537 C1536 1.391 . S
C1538 H1528 0.950 . S
C1538 C1539 1.386 . S
C1538 C1540 1.391 . S
C1539 C1538 1.386 . S
C1539 C1543 1.393 . S
C1540 H1529 0.950 . S
C1540 C1538 1.391 . S
C1540 C1541 1.400 . S
C1541 C1535 1.491 . S
C1541 C1540 1.400 . S
C1541 C1542 1.398 . S
C1542 H1530 0.950 . S
C1542 C1541 1.398 . S
C1542 C1543 1.391 . S
C1543 H1531 0.950 . S
C1543 C1539 1.393 . S
C1543 C1542 1.391 . S
H1544 C1552 0.950 . S
H1545 C1557 0.950 . S
H1546 C1554 0.950 . S
H1547 C1556 0.950 . S
H1548 C1558 0.950 . S
H1549 C1560 0.950 . S
H1550 C1562 0.950 . S
H1551 C1563 0.950 . S
C1552 H1544 0.950 . S
C1552 C1553 1.386 . S
C1552 C1554 1.391 . S
C1553 C1552 1.386 . S
C1553 C1557 1.393 . S
C1554 H1546 0.950 . S
C1554 C1552 1.391 . S
C1554 C1555 1.400 . S
C1555 C1554 1.400 . S
C1555 C1556 1.398 . S
C1555 C1561 1.491 . S
C1556 H1547 0.950 . S
C1556 C1555 1.398 . S
C1556 C1557 1.391 . S
C1557 H1545 0.950 . S
C1557 C1553 1.393 . S
C1557 C1556 1.391 . S
C1558 H1548 0.950 . S
C1558 C1559 1.386 . S
C1558 C1560 1.391 . S
C1559 C1558 1.386 . S
C1559 C1563 1.393 . S
C1560 H1549 0.950 . S
C1560 C1558 1.391 . S
C1560 C1561 1.400 . S
C1561 C1555 1.491 . S
C1561 C1560 1.400 . S
C1561 C1562 1.398 . S
C1562 H1550 0.950 . S
C1562 C1561 1.398 . S
C1562 C1563 1.391 . S
C1563 H1551 0.950 . S
C1563 C1559 1.393 . S
C1563 C1562 1.391 . S
H1564 C1572 0.950 . S
H1565 C1577 0.950 . S
H1566 C1574 0.950 . S
H1567 C1576 0.950 . S
H1568 C1578 0.950 . S
H1569 C1580 0.950 . S
H1570 C1582 0.950 . S
H1571 C1583 0.950 . S
C1572 H1564 0.950 . S
C1572 C1573 1.386 . S
C1572 C1574 1.391 . S
C1573 C1572 1.386 . S
C1573 C1577 1.393 . S
C1574 H1566 0.950 . S
C1574 C1572 1.391 . S
C1574 C1575 1.400 . S
C1575 C1574 1.400 . S
C1575 C1576 1.398 . S
C1575 C1581 1.491 . S
C1576 H1567 0.950 . S
C1576 C1575 1.398 . S
C1576 C1577 1.391 . S
C1577 H1565 0.950 . S
C1577 C1573 1.393 . S
C1577 C1576 1.391 . S
C1578 H1568 0.950 . S
C1578 C1579 1.386 . S
C1578 C1580 1.391 . S
C1579 C1578 1.386 . S
C1579 C1583 1.393 . S
C1580 H1569 0.950 . S
C1580 C1578 1.391 . S
C1580 C1581 1.400 . S
C1581 C1575 1.491 . S
C1581 C1580 1.400 . S
C1581 C1582 1.398 . S
C1582 H1570 0.950 . S
C1582 C1581 1.398 . S
C1582 C1583 1.391 . S
C1583 H1571 0.950 . S
C1583 C1579 1.393 . S
C1583 C1582 1.391 . S
H1584 C1592 0.950 . S
H1585 C1597 0.950 . S
H1586 C1594 0.950 . S
H1587 C1596 0.950 . S
H1588 C1598 0.950 . S
H1589 C1600 0.950 . S
H1590 C1602 0.950 . S
H1591 C1603 0.950 . S
C1592 H1584 0.950 . S
C1592 C1593 1.386 . S
C1592 C1594 1.391 . S
C1593 C1592 1.386 . S
C1593 C1597 1.393 . S
C1594 H1586 0.950 . S
C1594 C1592 1.391 . S
C1594 C1595 1.400 . S
C1595 C1594 1.400 . S
C1595 C1596 1.398 . S
C1595 C1601 1.491 . S
C1596 H1587 0.950 . S
C1596 C1595 1.398 . S
C1596 C1597 1.391 . S
C1597 H1585 0.950 . S
C1597 C1593 1.393 . S
C1597 C1596 1.391 . S
C1598 H1588 0.950 . S
C1598 C1599 1.386 . S
C1598 C1600 1.391 . S
C1599 C1598 1.386 . S
C1599 C1603 1.393 . S
C1600 H1589 0.950 . S
C1600 C1598 1.391 . S
C1600 C1601 1.400 . S
C1601 C1595 1.491 . S
C1601 C1600 1.400 . S
C1601 C1602 1.398 . S
C1602 H1590 0.950 . S
C1602 C1601 1.398 . S
C1602 C1603 1.391 . S
C1603 H1591 0.950 . S
C1603 C1599 1.393 . S
C1603 C1602 1.391 . S
H1604 C1612 0.950 . S
H1605 C1617 0.950 . S
H1606 C1614 0.950 . S
H1607 C1616 0.950 . S
H1608 C1618 0.950 . S
H1609 C1620 0.950 . S
H1610 C1622 0.950 . S
H1611 C1623 0.950 . S
C1612 H1604 0.950 . S
C1612 C1613 1.386 . S
C1612 C1614 1.391 . S
C1613 C1612 1.386 . S
C1613 C1617 1.393 . S
C1614 H1606 0.950 . S
C1614 C1612 1.391 . S
C1614 C1615 1.400 . S
C1615 C1614 1.400 . S
C1615 C1616 1.398 . S
C1615 C1621 1.491 . S
C1616 H1607 0.950 . S
C1616 C1615 1.398 . S
C1616 C1617 1.391 . S
C1617 H1605 0.950 . S
C1617 C1613 1.393 . S
C1617 C1616 1.391 . S
C1618 H1608 0.950 . S
C1618 C1619 1.386 . S
C1618 C1620 1.391 . S
C1619 C1618 1.386 . S
C1619 C1623 1.393 . S
C1620 H1609 0.950 . S
C1620 C1618 1.391 . S
C1620 C1621 1.400 . S
C1621 C1615 1.491 . S
C1621 C1620 1.400 . S
C1621 C1622 1.398 . S
C1622 H1610 0.950 . S
C1622 C1621 1.398 . S
C1622 C1623 1.391 . S
C1623 H1611 0.950 . S
C1623 C1619 1.393 . S
C1623 C1622 1.391 . S
H1624 C1632 0.950 . S
H1625 C1637 0.950 . S
H1626 C1634 0.950 . S
H1627 C1636 0.950 . S
H1628 C1638 0.950 . S
H1629 C1640 0.950 . S
H1630 C1642 0.950 . S
H1631 C1643 0.950 . S
C1632 H1624 0.950 . S
C1632 C1633 1.386 . S
C1632 C1634 1.391 . S
C1633 C1632 1.386 . S
C1633 C1637 1.393 . S
C1634 H1626 0.950 . S
C1634 C1632 1.391 . S
C1634 C1635 1.400 . S
C1635 C1634 1.400 . S
C1635 C1636 1.398 . S
C1635 C1641 1.491 . S
C1636 H1627 0.950 . S
C1636 C1635 1.398 . S
C1636 C1637 1.391 . S
C1637 H1625 0.950 . S
C1637 C1633 1.393 . S
C1637 C1636 1.391 . S
C1638 H1628 0.950 . S
C1638 C1639 1.386 . S
C1638 C1640 1.391 . S
C1639 C1638 1.386 . S
C1639 C1643 1.393 . S
C1640 H1629 0.950 . S
C1640 C1638 1.391 . S
C1640 C1641 1.400 . S
C1641 C1635 1.491 . S
C1641 C1640 1.400 . S
C1641 C1642 1.398 . S
C1642 H1630 0.950 . S
C1642 C1641 1.398 . S
C1642 C1643 1.391 . S
C1643 H1631 0.950 . S
C1643 C1639 1.393 . S
C1643 C1642 1.391 . S
H1644 C1652 0.950 . S
H1645 C1657 0.950 . S
H1646 C1654 0.950 . S
H1647 C1656 0.950 . S
H1648 C1658 0.950 . S
H1649 C1660 0.950 . S
H1650 C1662 0.950 . S
H1651 C1663 0.950 . S
C1652 H1644 0.950 . S
C1652 C1653 1.386 . S
C1652 C1654 1.391 . S
C1653 C1652 1.386 . S
C1653 C1657 1.393 . S
C1654 H1646 0.950 . S
C1654 C1652 1.391 . S
C1654 C1655 1.400 . S
C1655 C1654 1.400 . S
C1655 C1656 1.398 . S
C1655 C1661 1.491 . S
C1656 H1647 0.950 . S
C1656 C1655 1.398 . S
C1656 C1657 1.391 . S
C1657 H1645 0.950 . S
C1657 C1653 1.393 . S
C1657 C1656 1.391 . S
C1658 H1648 0.950 . S
C1658 C1659 1.386 . S
C1658 C1660 1.391 . S
C1659 C1658 1.386 . S
C1659 C1663 1.393 . S
C1660 H1649 0.950 . S
C1660 C1658 1.391 . S
C1660 C1661 1.400 . S
C1661 C1655 1.491 . S
C1661 C1660 1.400 . S
C1661 C1662 1.398 . S
C1662 H1650 0.950 . S
C1662 C1661 1.398 . S
C1662 C1663 1.391 . S
C1663 H1651 0.950 . S
C1663 C1659 1.393 . S
C1663 C1662 1.391 . S
H1664 C1672 0.950 . S
H1665 C1677 0.950 . S
H1666 C1674 0.950 . S
H1667 C1676 0.950 . S
H1668 C1678 0.950 . S
H1669 C1680 0.950 . S
H1670 C1682 0.950 . S
H1671 C1683 0.950 . S
C1672 H1664 0.950 . S
C1672 C1673 1.386 . S
C1672 C1674 1.391 . S
C1673 C1672 1.386 . S
C1673 C1677 1.393 . S
C1674 H1666 0.950 . S
C1674 C1672 1.391 . S
C1674 C1675 1.400 . S
C1675 C1674 1.400 . S
C1675 C1676 1.398 . S
C1675 C1681 1.491 . S
C1676 H1667 0.950 . S
C1676 C1675 1.398 . S
C1676 C1677 1.391 . S
C1677 H1665 0.950 . S
C1677 C1673 1.393 . S
C1677 C1676 1.391 . S
C1678 H1668 0.950 . S
C1678 C1679 1.386 . S
C1678 C1680 1.391 . S
C1679 C1678 1.386 . S
C1679 C1683 1.393 . S
C1680 H1669 0.950 . S
C1680 C1678 1.391 . S
C1680 C1681 1.400 . S
C1681 C1675 1.491 . S
C1681 C1680 1.400 . S
C1681 C1682 1.398 . S
C1682 H1670 0.950 . S
C1682 C1681 1.398 . S
C1682 C1683 1.391 . S
C1683 H1671 0.950 . S
C1683 C1679 1.393 . S
C1683 C1682 1.391 . S
H1684 C1692 0.950 . S
H1685 C1697 0.950 . S
H1686 C1694 0.950 . S
H1687 C1696 0.950 . S
H1688 C1698 0.950 . S
H1689 C1700 0.950 . S
H1690 C1702 0.950 . S
H1691 C1703 0.950 . S
C1692 H1684 0.950 . S
C1692 C1693 1.386 . S
C1692 C1694 1.391 . S
C1693 C1692 1.386 . S
C1693 C1697 1.393 . S
C1694 H1686 0.950 . S
C1694 C1692 1.391 . S
C1694 C1695 1.400 . S
C1695 C1694 1.400 . S
C1695 C1696 1.398 . S
C1695 C1701 1.491 . S
C1696 H1687 0.950 . S
C1696 C1695 1.398 . S
C1696 C1697 1.391 . S
C1697 H1685 0.950 . S
C1697 C1693 1.393 . S
C1697 C1696 1.391 . S
C1698 H1688 0.950 . S
C1698 C1699 1.386 . S
C1698 C1700 1.391 . S
C1699 C1698 1.386 . S
C1699 C1703 1.393 . S
C1700 H1689 0.950 . S
C1700 C1698 1.391 . S
C1700 C1701 1.400 . S
C1701 C1695 1.491 . S
C1701 C1700 1.400 . S
C1701 C1702 1.398 . S
C1702 H1690 0.950 . S
C1702 C1701 1.398 . S
C1702 C1703 1.391 . S
C1703 H1691 0.950 . S
C1703 C1699 1.393 . S
C1703 C1702 1.391 . S
H1704 C1712 0.950 . S
H1705 C1717 0.950 . S
H1706 C1714 0.950 . S
H1707 C1716 0.950 . S
H1708 C1718 0.950 . S
H1709 C1720 0.950 . S
H1710 C1722 0.950 . S
H1711 C1723 0.950 . S
C1712 H1704 0.950 . S
C1712 C1713 1.386 . S
C1712 C1714 1.391 . S
C1713 C1712 1.386 . S
C1713 C1717 1.393 . S
C1714 H1706 0.950 . S
C1714 C1712 1.391 . S
C1714 C1715 1.400 . S
C1715 C1714 1.400 . S
C1715 C1716 1.398 . S
C1715 C1721 1.491 . S
C1716 H1707 0.950 . S
C1716 C1715 1.398 . S
C1716 C1717 1.391 . S
C1717 H1705 0.950 . S
C1717 C1713 1.393 . S
C1717 C1716 1.391 . S
C1718 H1708 0.950 . S
C1718 C1719 1.386 . S
C1718 C1720 1.391 . S
C1719 C1718 1.386 . S
C1719 C1723 1.393 . S
C1720 H1709 0.950 . S
C1720 C1718 1.391 . S
C1720 C1721 1.400 . S
C1721 C1715 1.491 . S
C1721 C1720 1.400 . S
C1721 C1722 1.398 . S
C1722 H1710 0.950 . S
C1722 C1721 1.398 . S
C1722 C1723 1.391 . S
C1723 H1711 0.950 . S
C1723 C1719 1.393 . S
C1723 C1722 1.391 . S
H1724 C1732 0.950 . S
H1725 C1737 0.950 . S
H1726 C1734 0.950 . S
H1727 C1736 0.950 . S
H1728 C1738 0.950 . S
H1729 C1740 0.950 . S
H1730 C1742 0.950 . S
H1731 C1743 0.950 . S
C1732 H1724 0.950 . S
C1732 C1733 1.386 . S
C1732 C1734 1.391 . S
C1733 C1732 1.386 . S
C1733 C1737 1.393 . S
C1734 H1726 0.950 . S
C1734 C1732 1.391 . S
C1734 C1735 1.400 . S
C1735 C1734 1.400 . S
C1735 C1736 1.398 . S
C1735 C1741 1.491 . S
C1736 H1727 0.950 . S
C1736 C1735 1.398 . S
C1736 C1737 1.391 . S
C1737 H1725 0.950 . S
C1737 C1733 1.393 . S
C1737 C1736 1.391 . S
C1738 H1728 0.950 . S
C1738 C1739 1.386 . S
C1738 C1740 1.391 . S
C1739 C1738 1.386 . S
C1739 C1743 1.393 . S
C1740 H1729 0.950 . S
C1740 C1738 1.391 . S
C1740 C1741 1.400 . S
C1741 C1735 1.491 . S
C1741 C1740 1.400 . S
C1741 C1742 1.398 . S
C1742 H1730 0.950 . S
C1742 C1741 1.398 . S
C1742 C1743 1.391 . S
C1743 H1731 0.950 . S
C1743 C1739 1.393 . S
C1743 C1742 1.391 . S
H1744 C1752 0.950 . S
H1745 C1757 0.950 . S
H1746 C1754 0.950 . S
H1747 C1756 0.950 . S
H1748 C1758 0.950 . S
H1749 C1760 0.950 . S
H1750 C1762 0.950 . S
H1751 C1763 0.950 . S
C1752 H1744 0.950 . S
C1752 C1753 1.386 . S
C1752 C1754 1.391 . S
C1753 C1752 1.386 . S
C1753 C1757 1.393 . S
C1754 H1746 0.950 . S
C1754 C1752 1.391 . S
C1754 C1755 1.400 . S
C1755 C1754 1.400 . S
C1755 C1756 1.398 . S
C1755 C1761 1.491 . S
C1756 H1747 0.950 . S
C1756 C1755 1.398 . S
C1756 C1757 1.391 . S
C1757 H1745 0.950 . S
C1757 C1753 1.393 . S
C1757 C1756 1.391 . S
C1758 H1748 0.950 . S
C1758 C1759 1.386 . S
C1758 C1760 1.391 . S
C1759 C1758 1.386 . S
C1759 C1763 1.393 . S
C1760 H1749 0.950 . S
C1760 C1758 1.391 . S
C1760 C1761 1.400 . S
C1761 C1755 1.491 . S
C1761 C1760 1.400 . S
C1761 C1762 1.398 . S
C1762 H1750 0.950 . S
C1762 C1761 1.398 . S
C1762 C1763 1.391 . S
C1763 H1751 0.950 . S
C1763 C1759 1.393 . S
C1763 C1762 1.391 . S
H1764 C1772 0.950 . S
H1765 C1777 0.950 . S
H1766 C1774 0.950 . S
H1767 C1776 0.950 . S
H1768 C1778 0.950 . S
H1769 C1780 0.950 . S
H1770 C1782 0.950 . S
H1771 C1783 0.950 . S
C1772 H1764 0.950 . S
C1772 C1773 1.386 . S
C1772 C1774 1.391 . S
C1773 C1772 1.386 . S
C1773 C1777 1.393 . S
C1774 H1766 0.950 . S
C1774 C1772 1.391 . S
C1774 C1775 1.400 . S
C1775 C1774 1.400 . S
C1775 C1776 1.398 . S
C1775 C1781 1.491 . S
C1776 H1767 0.950 . S
C1776 C1775 1.398 . S
C1776 C1777 1.391 . S
C1777 H1765 0.950 . S
C1777 C1773 1.393 . S
C1777 C1776 1.391 . S
C1778 H1768 0.950 . S
C1778 C1779 1.386 . S
C1778 C1780 1.391 . S
C1779 C1778 1.386 . S
C1779 C1783 1.393 . S
C1780 H1769 0.950 . S
C1780 C1778 1.391 . S
C1780 C1781 1.400 . S
C1781 C1775 1.491 . S
C1781 C1780 1.400 . S
C1781 C1782 1.398 . S
C1782 H1770 0.950 . S
C1782 C1781 1.398 . S
C1782 C1783 1.391 . S
C1783 H1771 0.950 . S
C1783 C1779 1.393 . S
C1783 C1782 1.391 . S
H1784 C1792 0.950 . S
H1785 C1797 0.950 . S
H1786 C1794 0.950 . S
H1787 C1796 0.950 . S
H1788 C1798 0.950 . S
H1789 C1800 0.950 . S
H1790 C1802 0.950 . S
H1791 C1803 0.950 . S
C1792 H1784 0.950 . S
C1792 C1793 1.386 . S
C1792 C1794 1.391 . S
C1793 C1792 1.386 . S
C1793 C1797 1.393 . S
C1794 H1786 0.950 . S
C1794 C1792 1.391 . S
C1794 C1795 1.400 . S
C1795 C1794 1.400 . S
C1795 C1796 1.398 . S
C1795 C1801 1.491 . S
C1796 H1787 0.950 . S
C1796 C1795 1.398 . S
C1796 C1797 1.391 . S
C1797 H1785 0.950 . S
C1797 C1793 1.393 . S
C1797 C1796 1.391 . S
C1798 H1788 0.950 . S
C1798 C1799 1.386 . S
C1798 C1800 1.391 . S
C1799 C1798 1.386 . S
C1799 C1803 1.393 . S
C1800 H1789 0.950 . S
C1800 C1798 1.391 . S
C1800 C1801 1.400 . S
C1801 C1795 1.491 . S
C1801 C1800 1.400 . S
C1801 C1802 1.398 . S
C1802 H1790 0.950 . S
C1802 C1801 1.398 . S
C1802 C1803 1.391 . S
C1803 H1791 0.950 . S
C1803 C1799 1.393 . S
C1803 C1802 1.391 . S
H1804 C1812 0.950 . S
H1805 C1817 0.950 . S
H1806 C1814 0.950 . S
H1807 C1816 0.950 . S
H1808 C1818 0.950 . S
H1809 C1820 0.950 . S
H1810 C1822 0.950 . S
H1811 C1823 0.950 . S
C1812 H1804 0.950 . S
C1812 C1813 1.386 . S
C1812 C1814 1.391 . S
C1813 C1812 1.386 . S
C1813 C1817 1.393 . S
C1814 H1806 0.950 . S
C1814 C1812 1.391 . S
C1814 C1815 1.400 . S
C1815 C1814 1.400 . S
C1815 C1816 1.398 . S
C1815 C1821 1.491 . S
C1816 H1807 0.950 . S
C1816 C1815 1.398 . S
C1816 C1817 1.391 . S
C1817 H1805 0.950 . S
C1817 C1813 1.393 . S
C1817 C1816 1.391 . S
C1818 H1808 0.950 . S
C1818 C1819 1.386 . S
C1818 C1820 1.391 . S
C1819 C1818 1.386 . S
C1819 C1823 1.393 . S
C1820 H1809 0.950 . S
C1820 C1818 1.391 . S
C1820 C1821 1.400 . S
C1821 C1815 1.491 . S
C1821 C1820 1.400 . S
C1821 C1822 1.398 . S
C1822 H1810 0.950 . S
C1822 C1821 1.398 . S
C1822 C1823 1.391 . S
C1823 H1811 0.950 . S
C1823 C1819 1.393 . S
C1823 C1822 1.391 . S
C873 C506 1.432 . S
C879 C4 1.457 . S
C893 C40 1.283 . S
C899 C554 1.251 . S
C913 C650 1.423 . S
C919 C75 1.453 . S
C933 C111 1.320 . S
C939 C471 1.319 . S
C953 C518 1.441 . S
C959 C147 1.470 . S
C973 C182 1.308 . S
C979 C542 1.296 . S
C993 C220 1.432 . S
C999 C662 1.396 . S
C1013 C266 1.246 . S
C1019 C472 1.281 . S
C1033 C328 1.430 . S
C1039 C302 1.392 . S
C1053 C374 1.429 . S
C1059 C327 1.471 . S
C1073 C362 1.434 . S
C1079 C400 1.449 . S
C1093 C399 1.453 . S
C1099 C290 1.429 . S
C1113 C446 1.246 . S
C1119 C112 1.280 . S
C1133 C148 1.440 . S
C1139 C590 1.414 . S
C1153 C615 1.317 . S
C1159 C39 1.319 . S
C1173 C50 1.339 . S
C1179 C759 1.385 . S
C1193 C338 1.589 . S
C1199 C2 1.604 . S
C1213 C832 1.433 . S
C1219 C110 1.435 . S
C1233 C410 1.589 . S
C1239 C86 1.581 . S
C1253 C760 1.440 . S
C1259 C256 1.439 . S
C1273 C326 1.570 . S
C1279 C218 1.579 . S
C1293 C183 1.444 . S
C1299 C831 1.445 . S
C1313 C158 1.582 . S
C1319 C398 1.609 . S
C1333 C543 1.444 . S
C1339 C687 1.444 . S
C1353 C580 1.429 . S
C1359 C544 1.431 . S
C1373 C482 1.337 . S
C1379 C579 1.384 . S
C1393 C688 1.436 . S
C1399 C470 1.438 . S
C1413 C74 1.605 . S
C1419 C734 1.596 . S
C1433 C363 1.442 . S
C1439 C255 1.445 . S
C1453 C14 1.579 . S
C1459 C806 1.574 . S
C1473 C686 1.430 . S
C1479 C76 1.456 . S
C1493 C3 1.453 . S
C1499 C578 1.432 . S
C1513 C698 1.441 . S
C1519 C219 1.469 . S
C1533 C434 1.309 . S
C1539 C254 1.310 . S
C1553 C194 1.247 . S
C1559 C616 1.280 . S
C1573 C770 1.392 . S
C1579 C724 1.431 . S
C1593 C842 1.433 . S
C1599 C723 1.471 . S
C1613 C796 1.450 . S
C1619 C830 1.447 . S
C1633 C758 1.436 . S
C1639 C795 1.451 . S
C1653 C291 1.382 . S
C1659 C122 1.359 . S
C1673 C38 1.438 . S
C1679 C364 1.436 . S
C1693 C184 1.439 . S
C1699 C292 1.432 . S
C1713 C722 1.570 . S
C1719 C146 1.571 . S
C1733 C230 1.590 . S
C1739 C794 1.610 . S
C1753 C435 1.445 . S
C1759 C507 1.443 . S
C1773 C652 1.431 . S
C1779 C436 1.429 . S
C1793 C626 1.353 . S
C1799 C651 1.382 . S
C1813 C508 1.435 . S
C1819 C614 1.437 . S
