# Generated by pormake.
# Topology uof, (4)-cn, num edge types: 1
# Building blocks:
#     Node 0, Type 0, BuildingBlock: AZAVOO_clean_sbu_0, # of connection points: 4
#     Node 1, Type 0, BuildingBlock: AZAVOO_clean_sbu_0, # of connection points: 4
#     Node 2, Type 0, BuildingBlock: AZAVOO_clean_sbu_0, # of connection points: 4
#     Node 3, Type 0, BuildingBlock: AZAVOO_clean_sbu_0, # of connection points: 4
#     Node 4, Type 0, BuildingBlock: AZAVOO_clean_sbu_0, # of connection points: 4
#     Node 5, Type 0, BuildingBlock: AZAVOO_clean_sbu_0, # of connection points: 4
#     Node 6, Type 0, BuildingBlock: AZAVOO_clean_sbu_0, # of connection points: 4
#     Node 7, Type 0, BuildingBlock: AZAVOO_clean_sbu_0, # of connection points: 4
#     Node 8, Type 0, BuildingBlock: AZAVOO_clean_sbu_0, # of connection points: 4
#     Node 9, Type 0, BuildingBlock: AZAVOO_clean_sbu_0, # of connection points: 4
#     Node 10, Type 0, BuildingBlock: AZAVOO_clean_sbu_0, # of connection points: 4
#     Node 11, Type 0, BuildingBlock: AZAVOO_clean_sbu_0, # of connection points: 4
#     Edge 12, Type (0, 0), BuildingBlock: EYOCIG_clean_linker_4, # of connection points: 2
#     Edge 13, Type (0, 0), BuildingBlock: EYOCIG_clean_linker_4, # of connection points: 2
#     Edge 14, Type (0, 0), BuildingBlock: EYOCIG_clean_linker_4, # of connection points: 2
#     Edge 15, Type (0, 0), BuildingBlock: EYOCIG_clean_linker_4, # of connection points: 2
#     Edge 16, Type (0, 0), BuildingBlock: EYOCIG_clean_linker_4, # of connection points: 2
#     Edge 17, Type (0, 0), BuildingBlock: EYOCIG_clean_linker_4, # of connection points: 2
#     Edge 18, Type (0, 0), BuildingBlock: EYOCIG_clean_linker_4, # of connection points: 2
#     Edge 19, Type (0, 0), BuildingBlock: EYOCIG_clean_linker_4, # of connection points: 2
#     Edge 20, Type (0, 0), BuildingBlock: EYOCIG_clean_linker_4, # of connection points: 2
#     Edge 21, Type (0, 0), BuildingBlock: EYOCIG_clean_linker_4, # of connection points: 2
#     Edge 22, Type (0, 0), BuildingBlock: EYOCIG_clean_linker_4, # of connection points: 2
#     Edge 23, Type (0, 0), BuildingBlock: EYOCIG_clean_linker_4, # of connection points: 2
#     Edge 24, Type (0, 0), BuildingBlock: EYOCIG_clean_linker_4, # of connection points: 2
#     Edge 25, Type (0, 0), BuildingBlock: EYOCIG_clean_linker_4, # of connection points: 2
#     Edge 26, Type (0, 0), BuildingBlock: EYOCIG_clean_linker_4, # of connection points: 2
#     Edge 27, Type (0, 0), BuildingBlock: EYOCIG_clean_linker_4, # of connection points: 2
#     Edge 28, Type (0, 0), BuildingBlock: EYOCIG_clean_linker_4, # of connection points: 2
#     Edge 29, Type (0, 0), BuildingBlock: EYOCIG_clean_linker_4, # of connection points: 2
#     Edge 30, Type (0, 0), BuildingBlock: EYOCIG_clean_linker_4, # of connection points: 2
#     Edge 31, Type (0, 0), BuildingBlock: EYOCIG_clean_linker_4, # of connection points: 2
#     Edge 32, Type (0, 0), BuildingBlock: EYOCIG_clean_linker_4, # of connection points: 2
#     Edge 33, Type (0, 0), BuildingBlock: EYOCIG_clean_linker_4, # of connection points: 2
#     Edge 34, Type (0, 0), BuildingBlock: EYOCIG_clean_linker_4, # of connection points: 2
#     Edge 35, Type (0, 0), BuildingBlock: EYOCIG_clean_linker_4, # of connection points: 2
# Relax obj value: 0.239
# Max RMSD: 0.198
# Mean RMSD: 0.198
data_MOF--net-uof--node1-AZAVOO_clean_sbu_0--edge1-EYOCIG_clean_linker_4
_symmetry_space_group_name_H-M    P1
_symmetry_Int_Tables_number       1
_symmetry_cell_setting            triclinic
loop_
_symmetry_equiv_pos_as_xyz
'x, y, z'
_cell_length_a     25.800114
_cell_length_b     25.80057
_cell_length_c     51.178514
_cell_angle_alpha  89.947189
_cell_angle_beta   89.992698
_cell_angle_gamma 119.98961
loop_
_atom_site_label
_atom_site_type_symbol
_atom_site_fract_x
_atom_site_fract_y
_atom_site_fract_z
_atom_type_partial_charge
Mg0 Mg 0.24324 0.34216 0.19954 0.0
O1 O 0.26025 0.26979 0.18287 0.0
O2 O 0.35028 0.28769 0.19663 0.0
Mg3 Mg 0.3894 0.36939 0.2233 0.0
C4 C 0.30214 0.25724 0.18367 0.0
C5 C 0.12516 0.31238 0.17097 0.0
O6 O 0.15981 0.3676 0.163 0.0
O7 O 0.22156 0.29483 0.2394 0.0
O8 O 0.31328 0.31644 0.25234 0.0
O9 O 0.2929 0.40059 0.16519 0.0
O10 O 0.33506 0.39968 0.20271 0.0
C11 C 0.25701 0.29216 0.25606 0.0
C12 C 0.34078 0.41746 0.17892 0.0
O13 O 0.14562 0.28842 0.18643 0.0
Mg14 Mg 0.89001 0.24841 0.53271 0.0
O15 O 0.97945 0.26541 0.51608 0.0
O16 O 0.05154 0.35532 0.52993 0.0
Mg17 Mg 0.00885 0.39438 0.55661 0.0
C18 C 0.0339 0.30725 0.51693 0.0
C19 C 0.80168 0.13048 0.50409 0.0
O20 O 0.78109 0.16517 0.4962 0.0
O21 O 0.9154 0.22645 0.57255 0.0
O22 O -0.01453 0.31807 0.58558 0.0
O23 O 0.88147 0.29832 0.49841 0.0
O24 O 0.92435 0.34022 0.53597 0.0
C25 C 0.95345 0.26179 0.58925 0.0
C26 C 0.91241 0.34611 0.51219 0.0
O27 O 0.84613 0.15087 0.51952 0.0
Mg28 Mg 0.63081 0.89559 0.86617 0.0
O29 O 0.70307 0.98499 0.8494 0.0
O30 O 0.68505 0.05704 0.86315 0.0
Mg31 Mg 0.60336 0.01438 0.8899 0.0
C32 C 0.71555 0.03941 0.85018 0.0
C33 C 0.66054 0.80712 0.83775 0.0
O34 O 0.60517 0.78628 0.82997 0.0
O35 O 0.67822 0.92134 0.90596 0.0
O36 O 0.6565 -0.00862 0.91889 0.0
O37 O 0.5723 0.88669 0.83187 0.0
O38 O 0.57319 0.92977 0.86937 0.0
C39 C 0.68088 0.95948 0.9226 0.0
C40 C 0.55538 0.91767 0.8456 0.0
O41 O 0.68463 0.8518 0.85304 0.0
Mg42 Mg 0.72444 0.63578 0.1993 0.0
O43 O 0.70726 0.70797 0.18249 0.0
O44 O 0.61718 0.68996 0.19627 0.0
Mg45 Mg 0.5782 0.60836 0.22308 0.0
C46 C 0.66529 0.72043 0.18326 0.0
C47 C 0.84283 0.66536 0.17103 0.0
O48 O 0.80851 0.6098 0.16346 0.0
O49 O 0.74605 0.68328 0.23907 0.0
O50 O 0.6543 0.66157 0.25204 0.0
O51 O 0.67485 0.57716 0.16506 0.0
O52 O 0.63265 0.57814 0.20256 0.0
C53 C 0.71058 0.68597 0.25572 0.0
C54 C 0.62696 0.56027 0.1788 0.0
O55 O 0.82204 0.68961 0.18613 0.0
Mg56 Mg 0.07787 0.72991 0.53278 0.0
O57 O -0.01133 0.71301 0.51591 0.0
O58 O 0.9164 0.62302 0.52969 0.0
Mg59 Mg 0.95872 0.58381 0.55654 0.0
C60 C 0.93421 0.67115 0.51667 0.0
C61 C 0.16704 0.84825 0.50454 0.0
O62 O 0.18824 0.81384 0.49701 0.0
O63 O 0.05193 0.75161 0.57252 0.0
O64 O 0.9817 0.65993 0.5855 0.0
O65 O 0.08692 0.68025 0.49855 0.0
O66 O 0.04351 0.63808 0.53604 0.0
C67 C 0.01368 0.7162 0.58917 0.0
C68 C 0.05578 0.63237 0.51229 0.0
O69 O 0.1219 0.82752 0.5196 0.0
Mg70 Mg 0.33728 0.0834 0.86607 0.0
O71 O 0.26489 -0.00584 0.84933 0.0
O72 O 0.28259 0.92189 0.86312 0.0
Mg73 Mg 0.3642 0.96425 0.88987 0.0
C74 C 0.25225 0.93969 0.85013 0.0
C75 C 0.3077 0.17177 0.83736 0.0
O76 O 0.36285 0.1921 0.82934 0.0
O77 O 0.2898 0.0577 0.90589 0.0
O78 O 0.31124 0.98746 0.91887 0.0
O79 O 0.39583 0.09221 0.83179 0.0
O80 O 0.39469 0.04896 0.86931 0.0
C81 C 0.28702 0.0195 0.92256 0.0
C82 C 0.41259 0.0611 0.84554 0.0
O83 O 0.28372 0.12747 0.8529 0.0
Mg84 Mg 0.63083 0.73011 0.43184 0.0
O85 O 0.70325 0.71312 0.44851 0.0
O86 O 0.68536 0.62311 0.43476 0.0
Mg87 Mg 0.6036 0.58398 0.4081 0.0
C88 C 0.71582 0.67124 0.44771 0.0
C89 C 0.66049 0.84823 0.4603 0.0
O90 O 0.60517 0.81364 0.46816 0.0
O91 O 0.6781 0.75183 0.39199 0.0
O92 O 0.6565 0.66013 0.37905 0.0
O93 O 0.57246 0.68043 0.4662 0.0
O94 O 0.57332 0.63829 0.42868 0.0
C95 C 0.68077 0.71639 0.37532 0.0
C96 C 0.55558 0.63255 0.45247 0.0
O97 O 0.68456 0.82771 0.44495 0.0
Mg98 Mg 0.89014 0.63634 0.76534 0.0
O99 O 0.97945 0.70875 0.78203 0.0
O100 O 0.05169 0.69106 0.76819 0.0
Mg101 Mg 0.00921 0.60942 0.74147 0.0
C102 C 0.03393 0.72141 0.78119 0.0
C103 C 0.80179 0.66595 0.79403 0.0
O104 O 0.78133 0.61075 0.80201 0.0
O105 O 0.91566 0.68378 0.72551 0.0
O106 O -0.01415 0.66233 0.71249 0.0
O107 O 0.88151 0.57782 0.79964 0.0
O108 O 0.92458 0.57894 0.76208 0.0
C109 C 0.95378 0.68654 0.70881 0.0
C110 C 0.91254 0.56104 0.78586 0.0
O111 O 0.84615 0.68993 0.77853 0.0
Mg112 Mg 0.24337 0.89527 0.09866 0.0
O113 O 0.26029 0.9845 0.11546 0.0
O114 O 0.3503 0.05674 0.10169 0.0
Mg115 Mg 0.38948 0.01437 0.07489 0.0
C116 C 0.30216 0.03895 0.11469 0.0
C117 C 0.12531 0.80684 0.1273 0.0
O118 O 0.16002 0.78634 0.13527 0.0
O119 O 0.22167 0.92113 0.05888 0.0
O120 O 0.31335 -0.00865 0.04591 0.0
O121 O 0.29305 0.88632 0.13293 0.0
O122 O 0.33521 0.92963 0.09542 0.0
C123 C 0.25709 0.95936 0.04222 0.0
C124 C 0.34093 0.91743 0.11918 0.0
O125 O 0.14574 0.85127 0.11182 0.0
Mg126 Mg 0.33774 0.24878 0.43214 0.0
O127 O 0.26535 0.26563 0.44894 0.0
O128 O 0.28302 0.35559 0.43514 0.0
Mg129 Mg 0.36462 0.39484 0.40834 0.0
C130 C 0.25269 0.30746 0.44815 0.0
C131 C 0.30825 0.13074 0.46077 0.0
O132 O 0.36347 0.16545 0.46869 0.0
O133 O 0.29022 0.22703 0.39237 0.0
O134 O 0.31161 0.31869 0.37938 0.0
O135 O 0.39632 0.29851 0.46639 0.0
O136 O 0.39514 0.34062 0.42887 0.0
C137 C 0.28739 0.26243 0.37571 0.0
C138 C 0.41306 0.34637 0.45263 0.0
O139 O 0.28421 0.15117 0.44533 0.0
Mg140 Mg 0.07792 0.34264 0.76516 0.0
O141 O -0.0114 0.27047 0.78201 0.0
O142 O 0.9165 0.28844 0.76825 0.0
Mg143 Mg 0.95905 0.36999 0.74141 0.0
C144 C 0.93418 0.258 0.78125 0.0
C145 C 0.16676 0.31317 0.79345 0.0
O146 O 0.18794 0.36874 0.801 0.0
O147 O 0.05199 0.29504 0.72542 0.0
O148 O 0.9819 0.3167 0.71246 0.0
O149 O 0.08699 0.40131 0.79939 0.0
O150 O 0.04374 0.40027 0.76191 0.0
C151 C 0.01378 0.29229 0.70878 0.0
C152 C 0.05595 0.41817 0.78566 0.0
O153 O 0.12175 0.28887 0.77834 0.0
Mg154 Mg 0.72471 0.08328 0.09868 0.0
O155 O 0.70744 -0.00629 0.11531 0.0
O156 O 0.61739 0.92183 0.10147 0.0
Mg157 Mg 0.57855 0.96477 0.07478 0.0
C158 C 0.66546 0.93932 0.11446 0.0
C159 C 0.84284 0.17148 0.1272 0.0
O160 O 0.80835 0.19237 0.135 0.0
O161 O 0.7465 0.05781 0.05884 0.0
O162 O 0.65479 0.98791 0.04582 0.0
O163 O 0.67498 0.09194 0.133 0.0
O164 O 0.63293 0.04919 0.09544 0.0
C165 C 0.71108 0.01981 0.04215 0.0
C166 C 0.62714 0.0611 0.11923 0.0
O167 O 0.82226 0.12688 0.11187 0.0
C168 C 0.95433 0.2231 0.14431 0.0
C169 C 0.90359 0.1989 0.13627 0.0
C170 C 0.01363 0.2527 0.15391 0.0
C171 C 0.06438 0.27914 0.16193 0.0
C172 C 0.74985 0.01901 0.48698 0.0
C173 C 0.77413 0.06974 0.49501 0.0
C174 C 0.72019 0.95973 0.47738 0.0
C175 C 0.69373 0.90898 0.46936 0.0
C176 C 0.72026 0.75528 0.82069 0.0
C177 C 0.69378 0.77958 0.8287 0.0
C178 C 0.74991 0.72561 0.81111 0.0
C179 C 0.7742 0.69914 0.80309 0.0
C180 C 0.95438 0.72516 0.15394 0.0
C181 C 0.90361 0.69864 0.16196 0.0
C182 C 0.01373 0.75488 0.14436 0.0
C183 C 0.06451 0.77923 0.13634 0.0
C184 C 0.24867 0.01916 0.47785 0.0
C185 C 0.27511 0.06994 0.46983 0.0
C186 C 0.219 0.95981 0.48744 0.0
C187 C 0.19467 0.90903 0.49545 0.0
C188 C 0.24815 0.22374 0.82023 0.0
C189 C 0.27456 0.1994 0.82828 0.0
C190 C 0.21854 0.25345 0.81061 0.0
C191 C 0.19428 0.27994 0.80256 0.0
C192 C 0.51542 0.50317 0.1628 0.0
C193 C 0.56826 0.52865 0.16751 0.0
C194 C 0.45231 0.47437 0.16283 0.0
C195 C 0.39948 0.44897 0.16759 0.0
C196 C 0.00136 0.52086 0.49626 0.0
C197 C 0.02872 0.57368 0.501 0.0
C198 C 0.96708 0.45775 0.49623 0.0
C199 C 0.93964 0.40488 0.50092 0.0
C200 C 0.46954 0.00649 0.82952 0.0
C201 C 0.44413 0.03393 0.83425 0.0
C202 C 0.49834 0.97218 0.82953 0.0
C203 C 0.5238 0.94479 0.83428 0.0
C204 C 0.49873 0.52102 0.46857 0.0
C205 C 0.52411 0.57386 0.46382 0.0
C206 C 0.46999 0.45792 0.4686 0.0
C207 C 0.4446 0.40508 0.4639 0.0
C208 C 0.96721 0.50407 0.8018 0.0
C209 C 0.93976 0.52949 0.79712 0.0
C210 C 0.00151 0.47525 0.80173 0.0
C211 C 0.02887 0.44978 0.79697 0.0
C212 C 0.45245 0.97204 0.13522 0.0
C213 C 0.39962 0.94459 0.13049 0.0
C214 C 0.51556 0.0064 0.13524 0.0
C215 C 0.56841 0.03385 0.13053 0.0
C216 C 0.29246 0.12004 0.14199 0.0
C217 C 0.29571 0.08207 0.1297 0.0
C218 C 0.29247 0.16634 0.15647 0.0
C219 C 0.29574 0.20761 0.16871 0.0
C220 C 0.11531 0.29761 0.48982 0.0
C221 C 0.07721 0.30084 0.50202 0.0
C222 C 0.16171 0.29763 0.47539 0.0
C223 C 0.20301 0.30092 0.46313 0.0
C224 C 0.8529 0.16713 0.80852 0.0
C225 C 0.89094 0.20838 0.79625 0.0
C226 C 0.80652 0.12076 0.82298 0.0
C227 C 0.76522 0.08269 0.83522 0.0
C228 C 0.67489 0.85775 0.14158 0.0
C229 C 0.67173 0.8959 0.12937 0.0
C230 C 0.67487 0.81134 0.15602 0.0
C231 C 0.67166 0.77007 0.16828 0.0
C232 C 0.8068 0.68091 0.47488 0.0
C233 C 0.7655 0.67765 0.46265 0.0
C234 C 0.85313 0.68091 0.48935 0.0
C235 C 0.8911 0.67765 0.50165 0.0
C236 C 0.16139 0.8586 0.82288 0.0
C237 C 0.20264 0.89657 0.83514 0.0
C238 C 0.11509 0.8123 0.80841 0.0
C239 C 0.0771 0.77103 0.79616 0.0
C240 C 0.23937 0.23506 0.32909 0.0
C241 C 0.25866 0.24016 0.35097 0.0
C242 C 0.22984 0.24441 0.30277 0.0
C243 C 0.23481 0.26355 0.28086 0.0
C244 C 0.9739 0.23443 0.63592 0.0
C245 C 0.95976 0.23944 0.61402 0.0
C246 C -0.00715 0.24402 0.66222 0.0
C247 C 0.00715 0.26341 0.68407 0.0
C248 C 0.73841 -0.0008 -0.00448 0.0
C249 C 0.73338 0.01338 0.0174 0.0
C250 C 0.72892 0.98026 0.96922 0.0
C251 C 0.70965 0.96602 0.94735 0.0
C252 C 0.73785 0.73406 0.30231 0.0
C253 C 0.73279 0.71476 0.28045 0.0
C254 C 0.72849 0.7436 0.32863 0.0
C255 C 0.70936 0.73861 0.35053 0.0
C256 C -0.00704 0.74357 0.63578 0.0
C257 C 0.00716 0.73845 0.61391 0.0
C258 C 0.97414 0.73426 0.66211 0.0
C259 C 0.96006 0.71514 0.68403 0.0
C260 C 0.2298 0.98007 -0.00443 0.0
C261 C 0.23486 0.96586 0.01746 0.0
C262 C 0.2392 -0.00105 0.96924 0.0
C263 C 0.25838 0.01311 0.94734 0.0
loop_
_geom_bond_atom_site_label_1
_geom_bond_atom_site_label_2
_geom_bond_distance
_geom_bond_site_symmetry_2
_ccdc_geom_bond_type
Mg0 O1 2.028 . S
Mg0 O7 1.986 . S
Mg0 O9 2.114 . S
Mg0 O10 2.251 . S
Mg0 O13 2.010 . S
O1 Mg0 2.028 . S
O1 C4 1.250 . S
O2 Mg3 2.028 . S
O2 C4 1.248 . S
Mg3 O2 2.028 . S
Mg3 O8 2.032 . S
Mg3 O10 2.079 . S
C4 O1 1.250 . S
C4 O2 1.248 . S
C5 O6 1.264 . S
C5 O13 1.249 . S
O6 C5 1.264 . S
O7 Mg0 1.986 . S
O7 C11 1.246 . S
O8 Mg3 2.032 . S
O8 C11 1.259 . S
O9 Mg0 2.114 . S
O9 C12 1.252 . S
O10 Mg0 2.251 . S
O10 Mg3 2.079 . S
O10 C12 1.273 . S
C11 O7 1.246 . S
C11 O8 1.259 . S
C12 O9 1.252 . S
C12 O10 1.273 . S
O13 Mg0 2.010 . S
O13 C5 1.249 . S
Mg14 O15 2.028 . S
Mg14 O21 1.986 . S
Mg14 O23 2.114 . S
Mg14 O24 2.251 . S
Mg14 O27 2.010 . S
O15 Mg14 2.028 . S
O15 C18 1.250 1_655 S
O16 Mg17 2.028 . S
O16 C18 1.248 . S
Mg17 O16 2.028 . S
Mg17 O22 2.032 . S
Mg17 O24 2.079 1_455 S
C18 O15 1.250 1_455 S
C18 O16 1.248 . S
C19 O20 1.264 . S
C19 O27 1.249 . S
O20 C19 1.264 . S
O21 Mg14 1.986 . S
O21 C25 1.246 . S
O22 Mg17 2.032 . S
O22 C25 1.259 1_455 S
O23 Mg14 2.114 . S
O23 C26 1.252 . S
O24 Mg14 2.251 . S
O24 Mg17 2.079 1_655 S
O24 C26 1.273 . S
C25 O21 1.246 . S
C25 O22 1.259 1_655 S
C26 O23 1.252 . S
C26 O24 1.273 . S
O27 Mg14 2.010 . S
O27 C19 1.249 . S
Mg28 O29 2.028 . S
Mg28 O35 1.986 . S
Mg28 O37 2.114 . S
Mg28 O38 2.251 . S
Mg28 O41 2.010 . S
O29 Mg28 2.028 . S
O29 C32 1.250 1_565 S
O30 Mg31 2.028 . S
O30 C32 1.248 . S
Mg31 O30 2.028 . S
Mg31 O36 2.032 . S
Mg31 O38 2.079 1_545 S
C32 O29 1.250 1_545 S
C32 O30 1.248 . S
C33 O34 1.264 . S
C33 O41 1.249 . S
O34 C33 1.264 . S
O35 Mg28 1.986 . S
O35 C39 1.246 . S
O36 Mg31 2.032 . S
O36 C39 1.259 1_545 S
O37 Mg28 2.114 . S
O37 C40 1.252 . S
O38 Mg28 2.251 . S
O38 Mg31 2.079 1_565 S
O38 C40 1.273 . S
C39 O35 1.246 . S
C39 O36 1.259 1_565 S
C40 O37 1.252 . S
C40 O38 1.273 . S
O41 Mg28 2.010 . S
O41 C33 1.249 . S
Mg42 O43 2.028 . S
Mg42 O49 1.986 . S
Mg42 O51 2.114 . S
Mg42 O52 2.251 . S
Mg42 O55 2.010 . S
O43 Mg42 2.028 . S
O43 C46 1.250 . S
O44 Mg45 2.028 . S
O44 C46 1.248 . S
Mg45 O44 2.028 . S
Mg45 O50 2.032 . S
Mg45 O52 2.079 . S
C46 O43 1.250 . S
C46 O44 1.248 . S
C47 O48 1.264 . S
C47 O55 1.249 . S
O48 C47 1.264 . S
O49 Mg42 1.986 . S
O49 C53 1.246 . S
O50 Mg45 2.032 . S
O50 C53 1.259 . S
O51 Mg42 2.114 . S
O51 C54 1.252 . S
O52 Mg42 2.251 . S
O52 Mg45 2.079 . S
O52 C54 1.273 . S
C53 O49 1.246 . S
C53 O50 1.259 . S
C54 O51 1.252 . S
C54 O52 1.273 . S
O55 Mg42 2.010 . S
O55 C47 1.249 . S
Mg56 O57 2.028 . S
Mg56 O63 1.986 . S
Mg56 O65 2.114 . S
Mg56 O66 2.251 . S
Mg56 O69 2.010 . S
O57 Mg56 2.028 . S
O57 C60 1.250 1_455 S
O58 Mg59 2.028 . S
O58 C60 1.248 . S
Mg59 O58 2.028 . S
Mg59 O64 2.032 . S
Mg59 O66 2.079 1_655 S
C60 O57 1.250 1_655 S
C60 O58 1.248 . S
C61 O62 1.264 . S
C61 O69 1.249 . S
O62 C61 1.264 . S
O63 Mg56 1.986 . S
O63 C67 1.246 . S
O64 Mg59 2.032 . S
O64 C67 1.259 1_655 S
O65 Mg56 2.114 . S
O65 C68 1.252 . S
O66 Mg56 2.251 . S
O66 Mg59 2.079 1_455 S
O66 C68 1.273 . S
C67 O63 1.246 . S
C67 O64 1.259 1_455 S
C68 O65 1.252 . S
C68 O66 1.273 . S
O69 Mg56 2.010 . S
O69 C61 1.249 . S
Mg70 O71 2.028 . S
Mg70 O77 1.986 . S
Mg70 O79 2.114 . S
Mg70 O80 2.251 . S
Mg70 O83 2.010 . S
O71 Mg70 2.028 . S
O71 C74 1.250 1_545 S
O72 Mg73 2.028 . S
O72 C74 1.248 . S
Mg73 O72 2.028 . S
Mg73 O78 2.032 . S
Mg73 O80 2.079 1_565 S
C74 O71 1.250 1_565 S
C74 O72 1.248 . S
C75 O76 1.264 . S
C75 O83 1.249 . S
O76 C75 1.264 . S
O77 Mg70 1.986 . S
O77 C81 1.246 . S
O78 Mg73 2.032 . S
O78 C81 1.259 1_565 S
O79 Mg70 2.114 . S
O79 C82 1.252 . S
O80 Mg70 2.251 . S
O80 Mg73 2.079 1_545 S
O80 C82 1.273 . S
C81 O77 1.246 . S
C81 O78 1.259 1_545 S
C82 O79 1.252 . S
C82 O80 1.273 . S
O83 Mg70 2.010 . S
O83 C75 1.249 . S
Mg84 O85 2.028 . S
Mg84 O91 1.986 . S
Mg84 O93 2.114 . S
Mg84 O94 2.251 . S
Mg84 O97 2.010 . S
O85 Mg84 2.028 . S
O85 C88 1.250 . S
O86 Mg87 2.028 . S
O86 C88 1.248 . S
Mg87 O86 2.028 . S
Mg87 O92 2.032 . S
Mg87 O94 2.079 . S
C88 O85 1.250 . S
C88 O86 1.248 . S
C89 O90 1.264 . S
C89 O97 1.249 . S
O90 C89 1.264 . S
O91 Mg84 1.986 . S
O91 C95 1.246 . S
O92 Mg87 2.032 . S
O92 C95 1.259 . S
O93 Mg84 2.114 . S
O93 C96 1.252 . S
O94 Mg84 2.251 . S
O94 Mg87 2.079 . S
O94 C96 1.273 . S
C95 O91 1.246 . S
C95 O92 1.259 . S
C96 O93 1.252 . S
C96 O94 1.273 . S
O97 Mg84 2.010 . S
O97 C89 1.249 . S
Mg98 O99 2.028 . S
Mg98 O105 1.986 . S
Mg98 O107 2.114 . S
Mg98 O108 2.251 . S
Mg98 O111 2.010 . S
O99 Mg98 2.028 . S
O99 C102 1.250 1_655 S
O100 Mg101 2.028 . S
O100 C102 1.248 . S
Mg101 O100 2.028 . S
Mg101 O106 2.032 . S
Mg101 O108 2.079 1_455 S
C102 O99 1.250 1_455 S
C102 O100 1.248 . S
C103 O104 1.264 . S
C103 O111 1.249 . S
O104 C103 1.264 . S
O105 Mg98 1.986 . S
O105 C109 1.246 . S
O106 Mg101 2.032 . S
O106 C109 1.259 1_455 S
O107 Mg98 2.114 . S
O107 C110 1.252 . S
O108 Mg98 2.251 . S
O108 Mg101 2.079 1_655 S
O108 C110 1.273 . S
C109 O105 1.246 . S
C109 O106 1.259 1_655 S
C110 O107 1.252 . S
C110 O108 1.273 . S
O111 Mg98 2.010 . S
O111 C103 1.249 . S
Mg112 O113 2.028 . S
Mg112 O119 1.986 . S
Mg112 O121 2.114 . S
Mg112 O122 2.251 . S
Mg112 O125 2.010 . S
O113 Mg112 2.028 . S
O113 C116 1.250 1_565 S
O114 Mg115 2.028 . S
O114 C116 1.248 . S
Mg115 O114 2.028 . S
Mg115 O120 2.032 . S
Mg115 O122 2.079 1_545 S
C116 O113 1.250 1_545 S
C116 O114 1.248 . S
C117 O118 1.264 . S
C117 O125 1.249 . S
O118 C117 1.264 . S
O119 Mg112 1.986 . S
O119 C123 1.246 . S
O120 Mg115 2.032 . S
O120 C123 1.259 1_545 S
O121 Mg112 2.114 . S
O121 C124 1.252 . S
O122 Mg112 2.251 . S
O122 Mg115 2.079 1_565 S
O122 C124 1.273 . S
C123 O119 1.246 . S
C123 O120 1.259 1_565 S
C124 O121 1.252 . S
C124 O122 1.273 . S
O125 Mg112 2.010 . S
O125 C117 1.249 . S
Mg126 O127 2.028 . S
Mg126 O133 1.986 . S
Mg126 O135 2.114 . S
Mg126 O136 2.251 . S
Mg126 O139 2.010 . S
O127 Mg126 2.028 . S
O127 C130 1.250 . S
O128 Mg129 2.028 . S
O128 C130 1.248 . S
Mg129 O128 2.028 . S
Mg129 O134 2.032 . S
Mg129 O136 2.079 . S
C130 O127 1.250 . S
C130 O128 1.248 . S
C131 O132 1.264 . S
C131 O139 1.249 . S
O132 C131 1.264 . S
O133 Mg126 1.986 . S
O133 C137 1.246 . S
O134 Mg129 2.032 . S
O134 C137 1.259 . S
O135 Mg126 2.114 . S
O135 C138 1.252 . S
O136 Mg126 2.251 . S
O136 Mg129 2.079 . S
O136 C138 1.273 . S
C137 O133 1.246 . S
C137 O134 1.259 . S
C138 O135 1.252 . S
C138 O136 1.273 . S
O139 Mg126 2.010 . S
O139 C131 1.249 . S
Mg140 O141 2.028 . S
Mg140 O147 1.986 . S
Mg140 O149 2.114 . S
Mg140 O150 2.251 . S
Mg140 O153 2.010 . S
O141 Mg140 2.028 . S
O141 C144 1.250 1_455 S
O142 Mg143 2.028 . S
O142 C144 1.248 . S
Mg143 O142 2.028 . S
Mg143 O148 2.032 . S
Mg143 O150 2.079 1_655 S
C144 O141 1.250 1_655 S
C144 O142 1.248 . S
C145 O146 1.264 . S
C145 O153 1.249 . S
O146 C145 1.264 . S
O147 Mg140 1.986 . S
O147 C151 1.246 . S
O148 Mg143 2.032 . S
O148 C151 1.259 1_655 S
O149 Mg140 2.114 . S
O149 C152 1.252 . S
O150 Mg140 2.251 . S
O150 Mg143 2.079 1_455 S
O150 C152 1.273 . S
C151 O147 1.246 . S
C151 O148 1.259 1_455 S
C152 O149 1.252 . S
C152 O150 1.273 . S
O153 Mg140 2.010 . S
O153 C145 1.249 . S
Mg154 O155 2.028 . S
Mg154 O161 1.986 . S
Mg154 O163 2.114 . S
Mg154 O164 2.251 . S
Mg154 O167 2.010 . S
O155 Mg154 2.028 . S
O155 C158 1.250 1_545 S
O156 Mg157 2.028 . S
O156 C158 1.248 . S
Mg157 O156 2.028 . S
Mg157 O162 2.032 . S
Mg157 O164 2.079 1_565 S
C158 O155 1.250 1_565 S
C158 O156 1.248 . S
C159 O160 1.264 . S
C159 O167 1.249 . S
O160 C159 1.264 . S
O161 Mg154 1.986 . S
O161 C165 1.246 . S
O162 Mg157 2.032 . S
O162 C165 1.259 1_565 S
O163 Mg154 2.114 . S
O163 C166 1.252 . S
O164 Mg154 2.251 . S
O164 Mg157 2.079 1_545 S
O164 C166 1.273 . S
C165 O161 1.246 . S
C165 O162 1.259 1_545 S
C166 O163 1.252 . S
C166 O164 1.273 . S
O167 Mg154 2.010 . S
O167 C159 1.249 . S
C168 C169 1.170 . S
C168 C170 1.380 1_655 S
C169 C168 1.170 . S
C170 C168 1.380 1_455 S
C170 C171 1.170 . S
C171 C170 1.170 . S
C172 C173 1.170 . S
C172 C174 1.380 1_545 S
C173 C172 1.170 . S
C174 C172 1.380 1_565 S
C174 C175 1.170 . S
C175 C174 1.170 . S
C176 C177 1.170 . S
C176 C178 1.380 . S
C177 C176 1.170 . S
C178 C176 1.380 . S
C178 C179 1.170 . S
C179 C178 1.170 . S
C180 C181 1.170 . S
C180 C182 1.380 1_655 S
C181 C180 1.170 . S
C182 C180 1.380 1_455 S
C182 C183 1.170 . S
C183 C182 1.170 . S
C184 C185 1.170 . S
C184 C186 1.380 1_545 S
C185 C184 1.170 . S
C186 C184 1.380 1_565 S
C186 C187 1.170 . S
C187 C186 1.170 . S
C188 C189 1.170 . S
C188 C190 1.380 . S
C189 C188 1.170 . S
C190 C188 1.380 . S
C190 C191 1.170 . S
C191 C190 1.170 . S
C192 C193 1.170 . S
C192 C194 1.380 . S
C193 C192 1.170 . S
C194 C192 1.380 . S
C194 C195 1.170 . S
C195 C194 1.170 . S
C196 C197 1.170 . S
C196 C198 1.380 1_455 S
C197 C196 1.170 . S
C198 C196 1.380 1_655 S
C198 C199 1.170 . S
C199 C198 1.170 . S
C200 C201 1.170 . S
C200 C202 1.380 1_545 S
C201 C200 1.170 . S
C202 C200 1.380 1_565 S
C202 C203 1.170 . S
C203 C202 1.170 . S
C204 C205 1.170 . S
C204 C206 1.380 . S
C205 C204 1.170 . S
C206 C204 1.380 . S
C206 C207 1.170 . S
C207 C206 1.170 . S
C208 C209 1.170 . S
C208 C210 1.380 1_655 S
C209 C208 1.170 . S
C210 C208 1.380 1_455 S
C210 C211 1.170 . S
C211 C210 1.170 . S
C212 C213 1.170 . S
C212 C214 1.380 1_565 S
C213 C212 1.170 . S
C214 C212 1.380 1_545 S
C214 C215 1.170 . S
C215 C214 1.170 . S
C216 C217 1.170 . S
C216 C218 1.380 . S
C217 C216 1.170 . S
C218 C216 1.380 . S
C218 C219 1.170 . S
C219 C218 1.170 . S
C220 C221 1.170 . S
C220 C222 1.380 . S
C221 C220 1.170 . S
C222 C220 1.380 . S
C222 C223 1.170 . S
C223 C222 1.170 . S
C224 C225 1.170 . S
C224 C226 1.380 . S
C225 C224 1.170 . S
C226 C224 1.380 . S
C226 C227 1.170 . S
C227 C226 1.170 . S
C228 C229 1.170 . S
C228 C230 1.380 . S
C229 C228 1.170 . S
C230 C228 1.380 . S
C230 C231 1.170 . S
C231 C230 1.170 . S
C232 C233 1.170 . S
C232 C234 1.380 . S
C233 C232 1.170 . S
C234 C232 1.380 . S
C234 C235 1.170 . S
C235 C234 1.170 . S
C236 C237 1.170 . S
C236 C238 1.380 . S
C237 C236 1.170 . S
C238 C236 1.380 . S
C238 C239 1.170 . S
C239 C238 1.170 . S
C240 C241 1.170 . S
C240 C242 1.380 . S
C241 C240 1.170 . S
C242 C240 1.380 . S
C242 C243 1.170 . S
C243 C242 1.170 . S
C244 C245 1.170 . S
C244 C246 1.380 1_655 S
C245 C244 1.170 . S
C246 C244 1.380 1_455 S
C246 C247 1.170 . S
C247 C246 1.170 . S
C248 C249 1.170 . S
C248 C250 1.380 1_544 S
C249 C248 1.170 . S
C250 C248 1.380 1_566 S
C250 C251 1.170 . S
C251 C250 1.170 . S
C252 C253 1.170 . S
C252 C254 1.380 . S
C253 C252 1.170 . S
C254 C252 1.380 . S
C254 C255 1.170 . S
C255 C254 1.170 . S
C256 C257 1.170 . S
C256 C258 1.380 1_455 S
C257 C256 1.170 . S
C258 C256 1.380 1_655 S
C258 C259 1.170 . S
C259 C258 1.170 . S
C260 C261 1.170 . S
C260 C262 1.380 1_564 S
C261 C260 1.170 . S
C262 C260 1.380 1_546 S
C262 C263 1.170 . S
C263 C262 1.170 . S
C169 C159 1.342 . S
C171 C5 1.341 . S
C173 C19 1.346 . S
C175 C89 1.336 . S
C177 C33 1.338 . S
C179 C103 1.345 . S
C181 C47 1.299 . S
C183 C117 1.352 . S
C185 C131 1.351 . S
C187 C61 1.298 . S
C189 C75 1.355 . S
C191 C145 1.308 . S
C193 C54 1.271 . S
C195 C12 1.272 . S
C197 C68 1.274 . S
C199 C26 1.236 . S
C201 C82 1.261 . S
C203 C40 1.278 . S
C205 C96 1.273 . S
C207 C138 1.269 . S
C209 C110 1.237 . S
C211 C152 1.275 . S
C213 C124 1.265 . S
C215 C166 1.276 . S
C217 C116 0.965 . S
C219 C4 0.945 . S
C221 C18 0.960 . S
C223 C130 0.972 . S
C225 C144 0.971 . S
C227 C32 0.954 . S
C229 C158 0.942 . S
C231 C46 0.963 . S
C233 C88 0.972 . S
C235 C60 0.959 . S
C237 C74 0.966 . S
C239 C102 0.973 . S
C241 C137 1.516 . S
C243 C11 1.508 . S
C245 C25 1.523 . S
C247 C151 1.496 . S
C249 C165 1.515 . S
C251 C39 1.490 . S
C253 C53 1.491 . S
C255 C95 1.512 . S
C257 C67 1.489 . S
C259 C109 1.520 . S
C261 C123 1.505 . S
C263 C81 1.518 . S
