# Generated by pormake.
# Topology umd, (4)-cn, num edge types: 1
# Building blocks:
#     Node 0, Type 0, BuildingBlock: ICAMEG_clean_sbu_1, # of connection points: 4
#     Node 1, Type 0, BuildingBlock: ICAMEG_clean_sbu_1, # of connection points: 4
#     Node 2, Type 0, BuildingBlock: ICAMEG_clean_sbu_1, # of connection points: 4
#     Node 3, Type 0, BuildingBlock: ICAMEG_clean_sbu_1, # of connection points: 4
#     Node 4, Type 0, BuildingBlock: ICAMEG_clean_sbu_1, # of connection points: 4
#     Node 5, Type 0, BuildingBlock: ICAMEG_clean_sbu_1, # of connection points: 4
#     Node 6, Type 0, BuildingBlock: ICAMEG_clean_sbu_1, # of connection points: 4
#     Node 7, Type 0, BuildingBlock: ICAMEG_clean_sbu_1, # of connection points: 4
#     Node 8, Type 0, BuildingBlock: ICAMEG_clean_sbu_1, # of connection points: 4
#     Node 9, Type 0, BuildingBlock: ICAMEG_clean_sbu_1, # of connection points: 4
#     Node 10, Type 0, BuildingBlock: ICAMEG_clean_sbu_1, # of connection points: 4
#     Node 11, Type 0, BuildingBlock: ICAMEG_clean_sbu_1, # of connection points: 4
#     Node 12, Type 0, BuildingBlock: ICAMEG_clean_sbu_1, # of connection points: 4
#     Node 13, Type 0, BuildingBlock: ICAMEG_clean_sbu_1, # of connection points: 4
#     Node 14, Type 0, BuildingBlock: ICAMEG_clean_sbu_1, # of connection points: 4
#     Node 15, Type 0, BuildingBlock: ICAMEG_clean_sbu_1, # of connection points: 4
#     Edge 16, Type (0, 0), BuildingBlock: AJUNOK_clean_linker_0, # of connection points: 2
#     Edge 17, Type (0, 0), BuildingBlock: AJUNOK_clean_linker_0, # of connection points: 2
#     Edge 18, Type (0, 0), BuildingBlock: AJUNOK_clean_linker_0, # of connection points: 2
#     Edge 19, Type (0, 0), BuildingBlock: AJUNOK_clean_linker_0, # of connection points: 2
#     Edge 20, Type (0, 0), BuildingBlock: AJUNOK_clean_linker_0, # of connection points: 2
#     Edge 21, Type (0, 0), BuildingBlock: AJUNOK_clean_linker_0, # of connection points: 2
#     Edge 22, Type (0, 0), BuildingBlock: AJUNOK_clean_linker_0, # of connection points: 2
#     Edge 23, Type (0, 0), BuildingBlock: AJUNOK_clean_linker_0, # of connection points: 2
#     Edge 24, Type (0, 0), BuildingBlock: AJUNOK_clean_linker_0, # of connection points: 2
#     Edge 25, Type (0, 0), BuildingBlock: AJUNOK_clean_linker_0, # of connection points: 2
#     Edge 26, Type (0, 0), BuildingBlock: AJUNOK_clean_linker_0, # of connection points: 2
#     Edge 27, Type (0, 0), BuildingBlock: AJUNOK_clean_linker_0, # of connection points: 2
#     Edge 28, Type (0, 0), BuildingBlock: AJUNOK_clean_linker_0, # of connection points: 2
#     Edge 29, Type (0, 0), BuildingBlock: AJUNOK_clean_linker_0, # of connection points: 2
#     Edge 30, Type (0, 0), BuildingBlock: AJUNOK_clean_linker_0, # of connection points: 2
#     Edge 31, Type (0, 0), BuildingBlock: AJUNOK_clean_linker_0, # of connection points: 2
#     Edge 32, Type (0, 0), BuildingBlock: AJUNOK_clean_linker_0, # of connection points: 2
#     Edge 33, Type (0, 0), BuildingBlock: AJUNOK_clean_linker_0, # of connection points: 2
#     Edge 34, Type (0, 0), BuildingBlock: AJUNOK_clean_linker_0, # of connection points: 2
#     Edge 35, Type (0, 0), BuildingBlock: AJUNOK_clean_linker_0, # of connection points: 2
#     Edge 36, Type (0, 0), BuildingBlock: AJUNOK_clean_linker_0, # of connection points: 2
#     Edge 37, Type (0, 0), BuildingBlock: AJUNOK_clean_linker_0, # of connection points: 2
#     Edge 38, Type (0, 0), BuildingBlock: AJUNOK_clean_linker_0, # of connection points: 2
#     Edge 39, Type (0, 0), BuildingBlock: AJUNOK_clean_linker_0, # of connection points: 2
#     Edge 40, Type (0, 0), BuildingBlock: AJUNOK_clean_linker_0, # of connection points: 2
#     Edge 41, Type (0, 0), BuildingBlock: AJUNOK_clean_linker_0, # of connection points: 2
#     Edge 42, Type (0, 0), BuildingBlock: AJUNOK_clean_linker_0, # of connection points: 2
#     Edge 43, Type (0, 0), BuildingBlock: AJUNOK_clean_linker_0, # of connection points: 2
#     Edge 44, Type (0, 0), BuildingBlock: AJUNOK_clean_linker_0, # of connection points: 2
#     Edge 45, Type (0, 0), BuildingBlock: AJUNOK_clean_linker_0, # of connection points: 2
#     Edge 46, Type (0, 0), BuildingBlock: AJUNOK_clean_linker_0, # of connection points: 2
#     Edge 47, Type (0, 0), BuildingBlock: AJUNOK_clean_linker_0, # of connection points: 2
# Relax obj value: 0.056
# Max RMSD: 0.154
# Mean RMSD: 0.154
data_MOF--net-umd--node1-ICAMEG_clean_sbu_1--edge1-AJUNOK_clean_linker_0
_symmetry_space_group_name_H-M    P1
_symmetry_Int_Tables_number       1
_symmetry_cell_setting            triclinic
loop_
_symmetry_equiv_pos_as_xyz
'x, y, z'
_cell_length_a     31.383421
_cell_length_b     31.384542
_cell_length_c     45.261804
_cell_angle_alpha  89.987368
_cell_angle_beta   90.017374
_cell_angle_gamma 89.985025
loop_
_atom_site_label
_atom_site_type_symbol
_atom_site_fract_x
_atom_site_fract_y
_atom_site_fract_z
_atom_type_partial_charge
Co0 Co 0.17905 0.49423 0.13012 0.0
Co1 Co 0.14904 0.39661 0.15894 0.0
O2 O 0.18063 0.43211 0.13125 0.0
C3 C 0.15038 0.46714 0.07108 0.0
O4 O 0.12499 0.44062 0.08495 0.0
C5 C 0.23952 0.3731 0.16803 0.0
O6 O 0.24804 0.41402 0.16883 0.0
O7 O 0.16621 0.4334 0.19278 0.0
O8 O 0.18318 0.49754 0.17415 0.0
H9 H 0.04805 0.36929 0.24294 0.0
H10 H 0.24166 0.44737 0.09331 0.0
O11 O 0.17457 0.49181 0.0859 0.0
H12 H 0.32751 0.53775 0.15962 0.0
H13 H 0.21879 0.63768 0.08867 0.0
H14 H 0.13448 0.56173 0.16398 0.0
H15 H 0.249 0.53991 0.16157 0.0
H16 H 0.22061 0.55921 0.09172 0.0
O17 O 0.20114 0.36059 0.16492 0.0
H18 H 0.08731 0.41353 0.20703 0.0
H19 H 0.14556 0.30306 0.17088 0.0
H20 H 0.13194 0.64022 0.16194 0.0
H21 H 0.32009 0.44447 0.09045 0.0
H22 H 0.17436 0.67873 0.12406 0.0
H23 H 0.36356 0.48976 0.12385 0.0
O24 O 0.11571 0.49483 0.13322 0.0
H25 H 0.1739 0.31662 0.06433 0.0
H26 H 0.0681 0.35472 0.14031 0.0
H27 H 0.0458 0.31165 0.09741 0.0
H28 H 0.09896 0.29236 0.05901 0.0
H29 H 0.19456 0.36006 0.10741 0.0
H30 H 0.1073 0.25767 0.20661 0.0
H31 H 0.05794 0.29078 0.24286 0.0
O32 O 0.09626 0.43178 0.15292 0.0
C33 C 0.17781 0.47214 0.19586 0.0
C34 C 0.06933 0.35448 0.22717 0.0
C35 C 0.10265 0.29184 0.20682 0.0
N36 N 0.11836 0.36086 0.1867 0.0
C37 C 0.09151 0.37934 0.20671 0.0
C38 C 0.12432 0.31771 0.1867 0.0
C39 C 0.07494 0.31043 0.22714 0.0
C40 C 0.26035 0.46753 0.10769 0.0
N41 N 0.24076 0.49394 0.12747 0.0
C42 C 0.30475 0.46562 0.10605 0.0
C43 C 0.32912 0.491 0.12483 0.0
C44 C 0.30892 0.5179 0.14492 0.0
C45 C 0.26445 0.51891 0.14597 0.0
C46 C 0.20023 0.62128 0.10531 0.0
C47 C 0.15311 0.57828 0.14752 0.0
C48 C 0.20107 0.57686 0.10709 0.0
N49 N 0.17791 0.55596 0.12815 0.0
C50 C 0.1515 0.62272 0.14643 0.0
C51 C 0.1753 0.6443 0.12517 0.0
C52 C 0.08765 0.4689 0.14287 0.0
C53 C 0.15041 0.32494 0.08085 0.0
C54 C 0.09118 0.34689 0.1235 0.0
C55 C 0.0785 0.32224 0.09937 0.0
C56 C 0.10835 0.31137 0.07786 0.0
N57 N 0.13234 0.3605 0.12611 0.0
C58 C 0.16192 0.34951 0.10531 0.0
Co59 Co 0.50901 0.1847 0.6327 0.0
Co60 Co 0.6058 0.14961 0.66005 0.0
O61 O 0.57109 0.18274 0.63281 0.0
C62 C 0.53289 0.15304 0.57371 0.0
O63 O 0.55845 0.1267 0.58761 0.0
C64 C 0.63258 0.2388 0.66905 0.0
O65 O 0.59187 0.24808 0.67035 0.0
O66 O 0.5709 0.16832 0.69445 0.0
O67 O 0.50767 0.19021 0.67672 0.0
H68 H 0.63162 0.0474 0.74362 0.0
H69 H 0.55829 0.24333 0.59425 0.0
O70 O 0.50975 0.17874 0.5885 0.0
H71 H 0.47457 0.3363 0.66014 0.0
H72 H 0.36691 0.23 0.59168 0.0
H73 H 0.43999 0.1487 0.66985 0.0
H74 H 0.46831 0.25812 0.66355 0.0
H75 H 0.4454 0.22716 0.59365 0.0
O76 O 0.64423 0.20019 0.66556 0.0
H77 H 0.5878 0.08905 0.70873 0.0
H78 H 0.69937 0.14107 0.6698 0.0
H79 H 0.36146 0.15071 0.66891 0.0
H80 H 0.56527 0.32136 0.58992 0.0
H81 H 0.32437 0.19164 0.62956 0.0
H82 H 0.52331 0.3684 0.62309 0.0
O83 O 0.50479 0.12143 0.63688 0.0
H84 H 0.68685 0.17072 0.56544 0.0
H85 H 0.63799 0.06555 0.63896 0.0
H86 H 0.67851 0.0412 0.59543 0.0
H87 H 0.7032 0.09397 0.55829 0.0
H88 H 0.64595 0.19363 0.60917 0.0
H89 H 0.74442 0.10028 0.70443 0.0
H90 H 0.71051 0.05287 0.74158 0.0
O91 O 0.56799 0.09885 0.65475 0.0
C92 C 0.53317 0.18266 0.69808 0.0
C93 C 0.64676 0.06783 0.72747 0.0
C94 C 0.71007 0.09755 0.7055 0.0
N95 N 0.64104 0.11715 0.68711 0.0
C96 C 0.62213 0.09138 0.7076 0.0
C97 C 0.68442 0.12064 0.68599 0.0
C98 C 0.69103 0.07095 0.72633 0.0
C99 C 0.53959 0.26359 0.60856 0.0
N100 N 0.51275 0.24618 0.62903 0.0
C101 C 0.5438 0.30775 0.60607 0.0
C102 C 0.52029 0.33413 0.62472 0.0
C103 C 0.49297 0.31613 0.64554 0.0
C104 C 0.48963 0.27184 0.64741 0.0
C105 C 0.38267 0.21192 0.60887 0.0
C106 C 0.42407 0.16629 0.65261 0.0
C107 C 0.42711 0.21002 0.61 0.0
N108 N 0.44725 0.18739 0.6317 0.0
C109 C 0.3796 0.16745 0.65221 0.0
C110 C 0.35882 0.19042 0.63014 0.0
C111 C 0.52988 0.09217 0.64601 0.0
C112 C 0.67636 0.14743 0.58151 0.0
C113 C 0.64862 0.08869 0.62289 0.0
C114 C 0.67161 0.07473 0.59831 0.0
C115 C 0.68547 0.10436 0.57749 0.0
N116 N 0.63976 0.13098 0.62665 0.0
C117 C 0.65335 0.16024 0.60638 0.0
Co118 Co 0.81857 0.50945 0.13257 0.0
Co119 Co 0.85554 0.60571 0.15924 0.0
O120 O 0.82071 0.57156 0.13261 0.0
C121 C 0.84579 0.53266 0.07251 0.0
O122 O 0.8735 0.55757 0.08567 0.0
C123 C 0.7677 0.63745 0.16834 0.0
O124 O 0.75616 0.59747 0.17133 0.0
O125 O 0.83532 0.57273 0.19403 0.0
O126 O 0.81717 0.50796 0.17689 0.0
H127 H 0.95786 0.62965 0.24301 0.0
H128 H 0.75644 0.55851 0.09676 0.0
O129 O 0.82046 0.51015 0.08808 0.0
H130 H 0.66998 0.47506 0.16695 0.0
H131 H 0.7696 0.36712 0.09424 0.0
H132 H 0.8601 0.44077 0.16719 0.0
H133 H 0.74835 0.46897 0.16691 0.0
H134 H 0.7721 0.44565 0.09601 0.0
O135 O 0.80679 0.64657 0.16401 0.0
H136 H 0.91456 0.58665 0.20864 0.0
H137 H 0.86907 0.69911 0.16707 0.0
H138 H 0.85828 0.36221 0.16642 0.0
H139 H 0.67814 0.56534 0.09589 0.0
H140 H 0.81282 0.32486 0.1297 0.0
H141 H 0.63438 0.5235 0.13123 0.0
O142 O 0.88182 0.50524 0.13368 0.0
H143 H 0.83753 0.68521 0.06367 0.0
H144 H 0.94094 0.63336 0.13743 0.0
H145 H 0.96677 0.67165 0.09335 0.0
H146 H 0.91487 0.69786 0.05609 0.0
H147 H 0.81313 0.64641 0.10792 0.0
H148 H 0.91154 0.74338 0.20115 0.0
H149 H 0.95651 0.7086 0.23938 0.0
O150 O 0.9049 0.56571 0.15476 0.0
C151 C 0.82307 0.53439 0.19799 0.0
C152 C 0.93848 0.64517 0.2264 0.0
C153 C 0.91244 0.709 0.20293 0.0
N154 N 0.88952 0.64036 0.18577 0.0
C155 C 0.91399 0.62099 0.20683 0.0
C156 C 0.88835 0.68379 0.18375 0.0
C157 C 0.93767 0.68947 0.22437 0.0
C158 C 0.73758 0.5399 0.11201 0.0
N159 N 0.75691 0.5132 0.13175 0.0
C160 C 0.69327 0.54403 0.1115 0.0
C161 C 0.66874 0.52059 0.13136 0.0
C162 C 0.6887 0.49342 0.15142 0.0
C163 C 0.73308 0.49017 0.15134 0.0
C164 C 0.78949 0.38301 0.11037 0.0
C165 C 0.83995 0.42474 0.15134 0.0
C166 C 0.79111 0.42746 0.11142 0.0
N167 N 0.81603 0.44773 0.1318 0.0
C168 C 0.83918 0.38025 0.15093 0.0
C169 C 0.81372 0.35932 0.13029 0.0
C170 C 0.91148 0.52865 0.14403 0.0
C171 C 0.86044 0.67403 0.07978 0.0
C172 C 0.91818 0.64458 0.1213 0.0
C173 C 0.93298 0.66634 0.09641 0.0
C174 C 0.90385 0.68106 0.07552 0.0
N175 N 0.87556 0.63775 0.1253 0.0
C176 C 0.8468 0.65221 0.10496 0.0
Co177 Co 0.49363 0.82511 0.63111 0.0
Co178 Co 0.39711 0.85537 0.66107 0.0
O179 O 0.43152 0.8236 0.63284 0.0
C180 C 0.4657 0.85293 0.57215 0.0
O181 O 0.4408 0.87915 0.58667 0.0
C182 C 0.3678 0.76589 0.66796 0.0
O183 O 0.40798 0.75461 0.67012 0.0
O184 O 0.43245 0.83428 0.69459 0.0
O185 O 0.49759 0.82266 0.67549 0.0
H186 H 0.37285 0.95141 0.74826 0.0
H187 H 0.44609 0.76122 0.59584 0.0
O188 O 0.49032 0.82809 0.58657 0.0
H189 H 0.53837 0.67785 0.66249 0.0
H190 H 0.63632 0.78431 0.58897 0.0
H191 H 0.56166 0.87059 0.66386 0.0
H192 H 0.54002 0.75641 0.66332 0.0
H193 H 0.55785 0.78289 0.59248 0.0
O194 O 0.35809 0.80509 0.66508 0.0
H195 H 0.41596 0.91127 0.71218 0.0
H196 H 0.30354 0.86544 0.67076 0.0
H197 H 0.64015 0.87271 0.66132 0.0
H198 H 0.44365 0.68269 0.5941 0.0
H199 H 0.678 0.82929 0.62368 0.0
H200 H 0.48995 0.64048 0.62766 0.0
O201 O 0.49446 0.88851 0.63308 0.0
H202 H 0.31476 0.83951 0.56647 0.0
H203 H 0.36424 0.94065 0.64235 0.0
H204 H 0.32301 0.96727 0.59983 0.0
H205 H 0.29786 0.91649 0.56152 0.0
H206 H 0.35662 0.8144 0.60916 0.0
H207 H 0.25918 0.90465 0.7066 0.0
H208 H 0.29387 0.94827 0.74559 0.0
O209 O 0.4349 0.90652 0.65743 0.0
C210 C 0.47197 0.82533 0.69743 0.0
C211 C 0.35736 0.9326 0.73134 0.0
C212 C 0.29357 0.90633 0.70797 0.0
N213 N 0.36228 0.88632 0.68924 0.0
C214 C 0.3816 0.90988 0.71081 0.0
C215 C 0.31884 0.88408 0.68779 0.0
C216 C 0.31305 0.93081 0.72983 0.0
C217 C 0.46661 0.74305 0.61032 0.0
N218 N 0.49331 0.76336 0.62955 0.0
C219 C 0.46497 0.6986 0.60932 0.0
C220 C 0.49091 0.67494 0.62818 0.0
C221 C 0.51806 0.69589 0.64774 0.0
C222 C 0.51879 0.74038 0.64817 0.0
C223 C 0.62021 0.80323 0.60555 0.0
C224 C 0.57794 0.85138 0.64757 0.0
C225 C 0.57581 0.80258 0.60762 0.0
N226 N 0.55529 0.82616 0.62864 0.0
C227 C 0.62237 0.85282 0.64616 0.0
C228 C 0.64357 0.82849 0.62502 0.0
C229 C 0.47054 0.91601 0.64555 0.0
C230 C 0.32544 0.86194 0.58306 0.0
C231 C 0.35371 0.91844 0.62572 0.0
C232 C 0.33017 0.93365 0.60173 0.0
C233 C 0.31601 0.90514 0.58028 0.0
N234 N 0.36289 0.87604 0.62829 0.0
C235 C 0.34903 0.84789 0.60735 0.0
Co236 Co 0.18433 0.5079 0.3822 0.0
Co237 Co 0.14622 0.60447 0.35634 0.0
O238 O 0.18106 0.57001 0.3827 0.0
C239 C 0.15438 0.53006 0.44184 0.0
O240 O 0.12681 0.55487 0.42844 0.0
C241 C 0.23421 0.63546 0.34672 0.0
O242 O 0.24566 0.59531 0.34503 0.0
O243 O 0.16557 0.57125 0.32139 0.0
O244 O 0.18789 0.50746 0.33804 0.0
H245 H 0.04317 0.62886 0.27306 0.0
H246 H 0.24357 0.55759 0.41996 0.0
O247 O 0.18025 0.50781 0.42655 0.0
H248 H 0.33528 0.47743 0.35115 0.0
H249 H 0.23407 0.36625 0.42139 0.0
H250 H 0.14894 0.43867 0.3449 0.0
H251 H 0.25711 0.46963 0.34928 0.0
H252 H 0.22937 0.44467 0.4201 0.0
O253 O 0.19517 0.64498 0.35092 0.0
H254 H 0.08649 0.58566 0.30735 0.0
H255 H 0.13272 0.69791 0.3487 0.0
H256 H 0.15285 0.36021 0.34514 0.0
H257 H 0.32159 0.56614 0.42272 0.0
H258 H 0.19567 0.32344 0.38366 0.0
H259 H 0.36799 0.52598 0.38808 0.0
O260 O 0.121 0.50224 0.37928 0.0
H261 H 0.16653 0.68285 0.45209 0.0
H262 H 0.06162 0.63377 0.37848 0.0
H263 H 0.03682 0.67196 0.4229 0.0
H264 H 0.08948 0.69676 0.4601 0.0
H265 H 0.18986 0.64418 0.4075 0.0
H266 H 0.09032 0.74239 0.31468 0.0
H267 H 0.04496 0.7078 0.27659 0.0
O268 O 0.09683 0.56484 0.3615 0.0
C269 C 0.18003 0.53373 0.31717 0.0
C270 C 0.06274 0.64429 0.28959 0.0
C271 C 0.08925 0.70801 0.31292 0.0
N272 N 0.11199 0.63928 0.33004 0.0
C273 C 0.08724 0.62 0.30911 0.0
C274 C 0.11333 0.68269 0.33205 0.0
C275 C 0.06379 0.68859 0.29157 0.0
C276 C 0.26357 0.53968 0.40501 0.0
N277 N 0.24582 0.51296 0.3846 0.0
C278 C 0.30772 0.54479 0.40659 0.0
C279 C 0.33373 0.52229 0.38712 0.0
C280 C 0.31539 0.49507 0.36638 0.0
C281 C 0.27111 0.49083 0.3654 0.0
C282 C 0.21518 0.38186 0.40455 0.0
C283 C 0.1675 0.42291 0.36171 0.0
C284 C 0.21222 0.42626 0.40382 0.0
N285 N 0.18851 0.44621 0.38259 0.0
C286 C 0.16967 0.37846 0.36174 0.0
C287 C 0.19367 0.35787 0.38336 0.0
C288 C 0.09104 0.52664 0.37034 0.0
C289 C 0.14329 0.67227 0.43603 0.0
C290 C 0.08468 0.64435 0.39461 0.0
C291 C 0.07048 0.66607 0.41968 0.0
C292 C 0.10004 0.68001 0.44052 0.0
N293 N 0.12712 0.63676 0.39041 0.0
C294 C 0.15632 0.65051 0.41067 0.0
Co295 Co 0.49585 0.18583 0.88478 0.0
Co296 Co 0.39955 0.15038 0.85708 0.0
O297 O 0.43374 0.18423 0.88427 0.0
C298 C 0.4714 0.15724 0.94418 0.0
O299 O 0.44627 0.13025 0.93052 0.0
C300 C 0.37073 0.23898 0.848 0.0
O301 O 0.41127 0.24882 0.84608 0.0
O302 O 0.43362 0.17031 0.82278 0.0
O303 O 0.49812 0.18837 0.84059 0.0
H304 H 0.37534 0.0489 0.77289 0.0
H305 H 0.4468 0.24743 0.92102 0.0
O306 O 0.49444 0.18271 0.92913 0.0
H307 H 0.53151 0.33504 0.85227 0.0
H308 H 0.63796 0.23283 0.9247 0.0
H309 H 0.56474 0.14411 0.8505 0.0
H310 H 0.53732 0.25666 0.85158 0.0
H311 H 0.55943 0.23114 0.9222 0.0
O312 O 0.35984 0.20023 0.85198 0.0
H313 H 0.4185 0.09099 0.80789 0.0
H314 H 0.30612 0.13967 0.84779 0.0
H315 H 0.6433 0.14513 0.85199 0.0
H316 H 0.44025 0.32573 0.92261 0.0
H317 H 0.68043 0.1897 0.88934 0.0
H318 H 0.48269 0.37006 0.88799 0.0
O319 O 0.49944 0.12264 0.88286 0.0
H320 H 0.31856 0.1687 0.95198 0.0
H321 H 0.37 0.06528 0.87812 0.0
H322 H 0.33045 0.03961 0.92171 0.0
H323 H 0.30447 0.0915 0.95903 0.0
H324 H 0.35851 0.19296 0.90817 0.0
H325 H 0.26171 0.09835 0.81308 0.0
H326 H 0.29636 0.05241 0.77538 0.0
O327 O 0.43869 0.10017 0.86178 0.0
C328 C 0.47199 0.18272 0.8193 0.0
C329 C 0.35988 0.06867 0.78929 0.0
C330 C 0.2961 0.09647 0.81182 0.0
N331 N 0.36482 0.11742 0.83001 0.0
C332 C 0.38414 0.09247 0.80922 0.0
C333 C 0.32139 0.11985 0.83138 0.0
C334 C 0.31556 0.0707 0.79068 0.0
C335 C 0.46573 0.26653 0.90611 0.0
N336 N 0.4926 0.24751 0.88636 0.0
C337 C 0.46176 0.31084 0.90703 0.0
C338 C 0.48555 0.3357 0.88757 0.0
C339 C 0.5129 0.31607 0.8675 0.0
C340 C 0.516 0.27167 0.86718 0.0
C341 C 0.62216 0.21335 0.90829 0.0
C342 C 0.58068 0.16391 0.86661 0.0
C343 C 0.57772 0.2122 0.90682 0.0
N344 N 0.55757 0.1878 0.88609 0.0
C345 C 0.62517 0.16421 0.86744 0.0
C346 C 0.64597 0.18917 0.88843 0.0
C347 C 0.4758 0.09323 0.87241 0.0
C348 C 0.3296 0.1458 0.93583 0.0
C349 C 0.35879 0.08805 0.89426 0.0
C350 C 0.33636 0.07333 0.91887 0.0
C351 C 0.32177 0.10247 0.93979 0.0
N352 N 0.36638 0.1306 0.89054 0.0
C353 C 0.35207 0.15936 0.91091 0.0
Co354 Co 0.82399 0.49182 0.38519 0.0
Co355 Co 0.85293 0.39471 0.35536 0.0
O356 O 0.82174 0.42981 0.38345 0.0
C357 C 0.85295 0.46299 0.44353 0.0
O358 O 0.8781 0.43745 0.42865 0.0
C359 C 0.76258 0.37035 0.34742 0.0
O360 O 0.75389 0.41123 0.34644 0.0
O361 O 0.83426 0.43128 0.32181 0.0
O362 O 0.82021 0.49588 0.341 0.0
H363 H 0.95158 0.36774 0.26998 0.0
H364 H 0.76068 0.44483 0.42134 0.0
O365 O 0.82834 0.48833 0.42954 0.0
H366 H 0.67621 0.53748 0.35563 0.0
H367 H 0.78592 0.63484 0.428 0.0
H368 H 0.86933 0.55941 0.35193 0.0
H369 H 0.75476 0.53892 0.35402 0.0
H370 H 0.78356 0.5564 0.42443 0.0
O371 O 0.80108 0.35803 0.35024 0.0
H372 H 0.91208 0.41197 0.30575 0.0
H373 H 0.85826 0.30111 0.34449 0.0
H374 H 0.87239 0.63786 0.35452 0.0
H375 H 0.68219 0.44259 0.42383 0.0
H376 H 0.83041 0.6761 0.39276 0.0
H377 H 0.63942 0.48902 0.39072 0.0
O378 O 0.88731 0.49191 0.3823 0.0
H379 H 0.83123 0.31223 0.44934 0.0
H380 H 0.9361 0.35767 0.37471 0.0
H381 H 0.95994 0.31491 0.41732 0.0
H382 H 0.90726 0.29181 0.455 0.0
H383 H 0.80894 0.35546 0.40654 0.0
H384 H 0.89678 0.25567 0.30892 0.0
H385 H 0.94406 0.28898 0.27144 0.0
O386 O 0.90536 0.43054 0.36011 0.0
C387 C 0.82407 0.4705 0.31906 0.0
C388 C 0.93119 0.35284 0.28626 0.0
C389 C 0.9004 0.28994 0.3081 0.0
N390 N 0.88327 0.3591 0.32737 0.0
C391 C 0.90885 0.37771 0.30663 0.0
C392 C 0.87859 0.31583 0.32814 0.0
C393 C 0.92692 0.30865 0.28708 0.0
C394 C 0.74229 0.46549 0.4071 0.0
N395 N 0.76228 0.49214 0.38767 0.0
C396 C 0.69786 0.46395 0.40853 0.0
C397 C 0.67388 0.48997 0.38991 0.0
C398 C 0.6945 0.51713 0.37019 0.0
C399 C 0.73898 0.51775 0.36934 0.0
C400 C 0.80421 0.61856 0.41116 0.0
C401 C 0.85075 0.57586 0.36848 0.0
C402 C 0.80302 0.57417 0.40906 0.0
N403 N 0.82579 0.55345 0.38771 0.0
C404 C 0.85272 0.62027 0.36991 0.0
C405 C 0.82919 0.64169 0.39139 0.0
C406 C 0.91489 0.46683 0.37104 0.0
C407 C 0.85447 0.322 0.43303 0.0
C408 C 0.9131 0.34801 0.39108 0.0
C409 C 0.92672 0.32361 0.41511 0.0
C410 C 0.89714 0.3106 0.43621 0.0
N411 N 0.87123 0.35914 0.38812 0.0
C412 C 0.84202 0.34637 0.40869 0.0
Co413 Co 0.5125 0.82557 0.88423 0.0
Co414 Co 0.61055 0.85701 0.85673 0.0
O415 O 0.57467 0.82478 0.88381 0.0
C416 C 0.53847 0.85522 0.94329 0.0
O417 O 0.56433 0.88061 0.92888 0.0
C418 C 0.63514 0.76692 0.84747 0.0
O419 O 0.59426 0.75846 0.84591 0.0
O420 O 0.57484 0.83974 0.82235 0.0
O421 O 0.51039 0.82134 0.83995 0.0
H422 H 0.63896 0.95878 0.77335 0.0
H423 H 0.55951 0.7637 0.92161 0.0
O424 O 0.51401 0.83033 0.92877 0.0
H425 H 0.47186 0.67653 0.85436 0.0
H426 H 0.36877 0.78529 0.92481 0.0
H427 H 0.44516 0.86743 0.84854 0.0
H428 H 0.46852 0.75502 0.85239 0.0
H429 H 0.44736 0.78482 0.92282 0.0
O430 O 0.64744 0.80528 0.85107 0.0
H431 H 0.59422 0.91886 0.8086 0.0
H432 H 0.70435 0.86169 0.8461 0.0
H433 H 0.36658 0.86858 0.84954 0.0
H434 H 0.56364 0.68531 0.92445 0.0
H435 H 0.32787 0.82727 0.8879 0.0
H436 H 0.51973 0.64119 0.89057 0.0
O437 O 0.51095 0.88889 0.88092 0.0
H438 H 0.6879 0.83249 0.95249 0.0
H439 H 0.65072 0.93836 0.87627 0.0
H440 H 0.69194 0.96095 0.91998 0.0
H441 H 0.71074 0.90776 0.9585 0.0
H442 H 0.64628 0.81153 0.9086 0.0
H443 H 0.75026 0.90063 0.81106 0.0
H444 H 0.71757 0.94976 0.77445 0.0
O445 O 0.57447 0.90933 0.86245 0.0
C446 C 0.53646 0.82738 0.81864 0.0
C447 C 0.65359 0.9376 0.78927 0.0
C448 C 0.71605 0.9049 0.8104 0.0
N449 N 0.64669 0.88833 0.82957 0.0
C450 C 0.62844 0.91505 0.80936 0.0
C451 C 0.68989 0.88285 0.83014 0.0
C452 C 0.69769 0.93248 0.78988 0.0
C453 C 0.53992 0.74471 0.90704 0.0
N454 N 0.51359 0.7639 0.887 0.0
C455 C 0.54254 0.70034 0.90866 0.0
C456 C 0.51793 0.6756 0.88962 0.0
C457 C 0.4911 0.69542 0.86928 0.0
C458 C 0.48937 0.73986 0.86824 0.0
C459 C 0.38527 0.80335 0.90795 0.0
C460 C 0.42852 0.84918 0.86517 0.0
C461 C 0.42975 0.80326 0.90676 0.0
N462 N 0.45076 0.8258 0.88543 0.0
C463 C 0.38403 0.85004 0.86569 0.0
C464 C 0.36234 0.8269 0.88723 0.0
C465 C 0.53682 0.91736 0.87178 0.0
C466 C 0.67982 0.85598 0.9359 0.0
C467 C 0.6584 0.91523 0.8931 0.0
C468 C 0.682 0.92809 0.91769 0.0
C469 C 0.69261 0.89822 0.93927 0.0
N470 N 0.64553 0.87389 0.89011 0.0
C471 C 0.65629 0.8443 0.91098 0.0
Co472 Co 0.81784 0.50775 0.88357 0.0
Co473 Co 0.85359 0.60438 0.85667 0.0
O474 O 0.81944 0.56981 0.88342 0.0
C475 C 0.84554 0.53162 0.9434 0.0
O476 O 0.87289 0.55666 0.93001 0.0
C477 C 0.76503 0.63329 0.84747 0.0
O478 O 0.75527 0.59279 0.84504 0.0
O479 O 0.83418 0.57076 0.82197 0.0
O480 O 0.81595 0.50606 0.83925 0.0
H481 H 0.95618 0.63003 0.77334 0.0
H482 H 0.75573 0.55633 0.9197 0.0
O483 O 0.82031 0.50869 0.92805 0.0
H484 H 0.66909 0.47229 0.84997 0.0
H485 H 0.77046 0.3652 0.92247 0.0
H486 H 0.85953 0.43925 0.84889 0.0
H487 H 0.7475 0.46669 0.84965 0.0
H488 H 0.77238 0.44374 0.92054 0.0
O489 O 0.80376 0.64414 0.85163 0.0
H490 H 0.91367 0.58626 0.80772 0.0
H491 H 0.86427 0.69794 0.84814 0.0
H492 H 0.85828 0.36068 0.8498 0.0
H493 H 0.6774 0.56263 0.92093 0.0
H494 H 0.81353 0.32313 0.88684 0.0
H495 H 0.63355 0.52051 0.88582 0.0
O496 O 0.88109 0.50416 0.88202 0.0
H497 H 0.83413 0.68385 0.95208 0.0
H498 H 0.93841 0.63366 0.87841 0.0
H499 H 0.96357 0.67253 0.92244 0.0
H500 H 0.91125 0.69786 0.95967 0.0
H501 H 0.81039 0.6446 0.90784 0.0
H502 H 0.90597 0.74294 0.81403 0.0
H503 H 0.95248 0.70895 0.77639 0.0
O504 O 0.90376 0.56516 0.86136 0.0
C505 C 0.82199 0.53239 0.8181 0.0
C506 C 0.93615 0.6452 0.78971 0.0
C507 C 0.90792 0.70858 0.81253 0.0
N508 N 0.88684 0.63955 0.83006 0.0
C509 C 0.91212 0.6206 0.80929 0.0
C510 C 0.88433 0.68295 0.83174 0.0
C511 C 0.93402 0.68949 0.79142 0.0
C512 C 0.73684 0.53754 0.90457 0.0
N513 N 0.75614 0.51097 0.88476 0.0
C514 C 0.69251 0.54137 0.9053 0.0
C515 C 0.66793 0.51777 0.88556 0.0
C516 C 0.68785 0.49074 0.86541 0.0
C517 C 0.73226 0.48777 0.8653 0.0
C518 C 0.79003 0.38118 0.9062 0.0
C519 C 0.83967 0.42313 0.86486 0.0
C520 C 0.79132 0.42563 0.90505 0.0
N521 N 0.81583 0.44602 0.88449 0.0
C522 C 0.83923 0.37864 0.86537 0.0
C523 C 0.81418 0.3576 0.88618 0.0
C524 C 0.9106 0.52791 0.87179 0.0
C525 C 0.85723 0.67308 0.93598 0.0
C526 C 0.91546 0.6446 0.8945 0.0
C527 C 0.92988 0.66664 0.91937 0.0
C528 C 0.90051 0.68088 0.94024 0.0
N529 N 0.87296 0.63704 0.89049 0.0
C530 C 0.84395 0.65101 0.91081 0.0
Co531 Co 0.49156 0.81837 0.38425 0.0
Co532 Co 0.39646 0.85549 0.35518 0.0
O533 O 0.42943 0.82158 0.383 0.0
C534 C 0.46587 0.85072 0.4427 0.0
O535 O 0.4422 0.87758 0.42774 0.0
C536 C 0.36577 0.7672 0.34643 0.0
O537 O 0.40597 0.75567 0.34575 0.0
O538 O 0.4314 0.8347 0.32145 0.0
O539 O 0.4945 0.81333 0.33995 0.0
H540 H 0.3768 0.9553 0.26945 0.0
H541 H 0.43966 0.76036 0.42148 0.0
O542 O 0.48907 0.82406 0.42872 0.0
H543 H 0.52381 0.6665 0.35645 0.0
H544 H 0.63086 0.77071 0.42841 0.0
H545 H 0.56286 0.8522 0.34815 0.0
H546 H 0.5318 0.7446 0.35365 0.0
H547 H 0.55255 0.7755 0.425 0.0
O548 O 0.35614 0.8064 0.34966 0.0
H549 H 0.41802 0.91329 0.30564 0.0
H550 H 0.3035 0.86881 0.34487 0.0
H551 H 0.64124 0.84821 0.35055 0.0
H552 H 0.43082 0.68244 0.42513 0.0
H553 H 0.67577 0.80719 0.39096 0.0
H554 H 0.47299 0.63496 0.39239 0.0
O555 O 0.49738 0.88152 0.38045 0.0
H556 H 0.31193 0.83888 0.44875 0.0
H557 H 0.36631 0.94097 0.37503 0.0
H558 H 0.32504 0.96744 0.41763 0.0
H559 H 0.29742 0.91619 0.4548 0.0
H560 H 0.35377 0.81388 0.406 0.0
H561 H 0.26099 0.90996 0.30895 0.0
H562 H 0.29771 0.95377 0.27097 0.0
O563 O 0.4359 0.90504 0.36048 0.0
C564 C 0.46913 0.82023 0.31832 0.0
C565 C 0.36044 0.93641 0.28593 0.0
C566 C 0.29544 0.91091 0.30807 0.0
N567 N 0.36315 0.88874 0.32738 0.0
C568 C 0.3836 0.91264 0.30651 0.0
C569 C 0.31965 0.88754 0.32828 0.0
C570 C 0.31606 0.93549 0.28677 0.0
C571 C 0.45843 0.73989 0.40737 0.0
N572 N 0.4864 0.75698 0.3875 0.0
C573 C 0.45316 0.6958 0.40945 0.0
C574 C 0.47679 0.66918 0.39104 0.0
C575 C 0.50529 0.68686 0.37086 0.0
C576 C 0.50965 0.7311 0.36935 0.0
C577 C 0.61621 0.78875 0.41073 0.0
C578 C 0.57764 0.83436 0.36574 0.0
C579 C 0.57188 0.79171 0.40875 0.0
N580 N 0.55316 0.8143 0.38642 0.0
C581 C 0.62205 0.83218 0.36701 0.0
C582 C 0.64139 0.80919 0.3897 0.0
C583 C 0.47355 0.91113 0.37032 0.0
C584 C 0.32365 0.86151 0.43264 0.0
C585 C 0.3546 0.91853 0.39121 0.0
C586 C 0.33111 0.93367 0.41521 0.0
C587 C 0.31556 0.90489 0.43604 0.0
N588 N 0.36239 0.87594 0.38801 0.0
C589 C 0.34725 0.84753 0.40834 0.0
Co590 Co 0.17835 0.49068 0.88265 0.0
Co591 Co 0.14673 0.39298 0.85475 0.0
O592 O 0.17897 0.42854 0.88209 0.0
C593 C 0.14985 0.4653 0.94211 0.0
O594 O 0.12405 0.43869 0.92868 0.0
C595 C 0.23686 0.36854 0.84564 0.0
O596 O 0.24527 0.40944 0.8442 0.0
O597 O 0.16394 0.42903 0.82044 0.0
O598 O 0.1822 0.49304 0.83864 0.0
H599 H 0.04401 0.36539 0.77177 0.0
H600 H 0.24042 0.44341 0.91966 0.0
O601 O 0.17418 0.48929 0.9269 0.0
H602 H 0.32734 0.53152 0.85257 0.0
H603 H 0.22043 0.63443 0.92243 0.0
H604 H 0.13479 0.55806 0.84803 0.0
H605 H 0.24888 0.53484 0.85074 0.0
H606 H 0.22103 0.55588 0.92029 0.0
O607 O 0.19847 0.35616 0.84894 0.0
H608 H 0.08444 0.40979 0.80696 0.0
H609 H 0.14225 0.29931 0.84348 0.0
H610 H 0.13351 0.63662 0.84916 0.0
H611 H 0.31881 0.43937 0.92242 0.0
H612 H 0.17659 0.67534 0.88658 0.0
H613 H 0.36282 0.48352 0.88864 0.0
O614 O 0.11498 0.49216 0.87977 0.0
H615 H 0.17152 0.31434 0.94997 0.0
H616 H 0.06553 0.35218 0.87399 0.0
H617 H 0.04314 0.31006 0.91732 0.0
H618 H 0.09639 0.2909 0.95572 0.0
H619 H 0.19228 0.35686 0.90647 0.0
H620 H 0.10287 0.25376 0.80845 0.0
H621 H 0.05312 0.28679 0.77239 0.0
O622 O 0.09441 0.42901 0.86077 0.0
C623 C 0.17614 0.46756 0.81709 0.0
C624 C 0.06547 0.35062 0.78746 0.0
C625 C 0.09856 0.28797 0.808 0.0
N626 N 0.11534 0.35713 0.82744 0.0
C627 C 0.08831 0.37557 0.80751 0.0
C628 C 0.12089 0.31393 0.82772 0.0
C629 C 0.07064 0.30652 0.78779 0.0
C630 C 0.25935 0.46307 0.9051 0.0
N631 N 0.24007 0.48948 0.88516 0.0
C632 C 0.30373 0.46052 0.90669 0.0
C633 C 0.3284 0.48526 0.8877 0.0
C634 C 0.30851 0.51216 0.86744 0.0
C635 C 0.26406 0.51383 0.86644 0.0
C636 C 0.20157 0.61794 0.906 0.0
C637 C 0.15369 0.5747 0.86431 0.0
C638 C 0.20169 0.57347 0.90475 0.0
N639 N 0.17815 0.55245 0.88395 0.0
C640 C 0.1528 0.61918 0.86488 0.0
C641 C 0.17697 0.64087 0.88588 0.0
C642 C 0.08642 0.46645 0.87053 0.0
C643 C 0.14798 0.32263 0.93346 0.0
C644 C 0.08866 0.34443 0.8908 0.0
C645 C 0.07592 0.3203 0.91517 0.0
C646 C 0.10582 0.30951 0.93668 0.0
N647 N 0.12992 0.35762 0.88796 0.0
C648 C 0.15955 0.34668 0.90876 0.0
Co649 Co 0.50827 0.17813 0.3851 0.0
Co650 Co 0.60625 0.14877 0.35691 0.0
O651 O 0.57033 0.18033 0.38436 0.0
C652 C 0.53422 0.15118 0.44473 0.0
O653 O 0.56084 0.12526 0.43141 0.0
C654 C 0.63092 0.2389 0.34848 0.0
O655 O 0.59007 0.24759 0.34694 0.0
O656 O 0.57077 0.16703 0.32267 0.0
O657 O 0.50565 0.18077 0.34097 0.0
H658 H 0.63562 0.04884 0.27262 0.0
H659 H 0.55393 0.24233 0.42128 0.0
O660 O 0.50998 0.17512 0.42938 0.0
H661 H 0.46358 0.32522 0.35311 0.0
H662 H 0.36361 0.21764 0.42456 0.0
H663 H 0.44199 0.13139 0.35151 0.0
H664 H 0.46226 0.24666 0.35231 0.0
H665 H 0.44211 0.22026 0.42221 0.0
O666 O 0.64315 0.20048 0.35194 0.0
H667 H 0.59038 0.08896 0.30743 0.0
H668 H 0.70015 0.14311 0.34745 0.0
H669 H 0.36349 0.12807 0.35285 0.0
H670 H 0.55596 0.32086 0.42302 0.0
H671 H 0.32376 0.17145 0.38958 0.0
H672 H 0.5107 0.36283 0.38867 0.0
O673 O 0.50842 0.11474 0.38306 0.0
H674 H 0.6856 0.17154 0.45204 0.0
H675 H 0.64253 0.06579 0.37731 0.0
H676 H 0.68373 0.04242 0.42077 0.0
H677 H 0.70556 0.09553 0.45854 0.0
H678 H 0.64399 0.19337 0.40836 0.0
H679 H 0.74659 0.10399 0.31282 0.0
H680 H 0.71433 0.05622 0.2752 0.0
O681 O 0.57017 0.09649 0.36146 0.0
C682 C 0.53155 0.17686 0.31939 0.0
C683 C 0.65006 0.06945 0.28897 0.0
C684 C 0.71234 0.10043 0.31152 0.0
N685 N 0.64264 0.11798 0.32964 0.0
C686 C 0.62462 0.09214 0.3088 0.0
C687 C 0.68589 0.12258 0.33102 0.0
C688 C 0.69422 0.07363 0.29042 0.0
C689 C 0.53378 0.26037 0.40649 0.0
N690 N 0.50787 0.23992 0.3868 0.0
C691 C 0.53519 0.30483 0.4075 0.0
C692 C 0.50983 0.32836 0.38819 0.0
C693 C 0.48343 0.30728 0.3682 0.0
C694 C 0.4829 0.26278 0.3678 0.0
C695 C 0.38054 0.19868 0.4084 0.0
C696 C 0.4249 0.15053 0.36744 0.0
C697 C 0.42498 0.19998 0.40702 0.0
N698 N 0.44655 0.17633 0.38655 0.0
C699 C 0.38047 0.14843 0.36815 0.0
C700 C 0.3582 0.17276 0.38877 0.0
C701 C 0.53373 0.08706 0.37215 0.0
C702 C 0.67631 0.1481 0.43572 0.0
C703 C 0.65167 0.08899 0.39369 0.0
C704 C 0.67517 0.07563 0.41822 0.0
C705 C 0.68745 0.10544 0.43938 0.0
N706 N 0.64074 0.13084 0.39029 0.0
C707 C 0.65287 0.16029 0.41088 0.0
Co708 Co 0.82277 0.49071 0.63098 0.0
Co709 Co 0.85475 0.39395 0.66033 0.0
O710 O 0.82231 0.42857 0.63257 0.0
C711 C 0.85274 0.46263 0.57266 0.0
O712 O 0.87803 0.43719 0.58752 0.0
C713 C 0.76482 0.3696 0.66988 0.0
O714 O 0.75615 0.41049 0.67058 0.0
O715 O 0.83741 0.43101 0.69399 0.0
O716 O 0.81827 0.49443 0.67508 0.0
H717 H 0.95731 0.36925 0.74385 0.0
H718 H 0.76135 0.44197 0.59435 0.0
O719 O 0.82779 0.48761 0.58665 0.0
H720 H 0.67332 0.53197 0.65952 0.0
H721 H 0.7811 0.6327 0.58807 0.0
H722 H 0.86521 0.55953 0.66487 0.0
H723 H 0.75176 0.53565 0.66172 0.0
H724 H 0.78115 0.55421 0.59146 0.0
O725 O 0.80325 0.35725 0.66677 0.0
H726 H 0.91673 0.41244 0.70801 0.0
H727 H 0.85989 0.30064 0.67279 0.0
H728 H 0.86586 0.63805 0.66247 0.0
H729 H 0.683 0.43748 0.59128 0.0
H730 H 0.82351 0.67515 0.62386 0.0
H731 H 0.63844 0.48259 0.6241 0.0
O732 O 0.88606 0.49266 0.63438 0.0
H733 H 0.83023 0.31179 0.56655 0.0
H734 H 0.93642 0.35391 0.6413 0.0
H735 H 0.95899 0.31059 0.59859 0.0
H736 H 0.90565 0.28927 0.56082 0.0
H737 H 0.80924 0.35551 0.60942 0.0
H738 H 0.89948 0.25627 0.70847 0.0
H739 H 0.94881 0.29058 0.74422 0.0
O740 O 0.90682 0.42983 0.65382 0.0
C741 C 0.82471 0.46945 0.69693 0.0
C742 C 0.93605 0.35392 0.72831 0.0
C743 C 0.90353 0.29052 0.70849 0.0
N744 N 0.88631 0.35905 0.68815 0.0
C745 C 0.91311 0.37819 0.70789 0.0
C746 C 0.8811 0.31581 0.6884 0.0
C747 C 0.93121 0.30978 0.72853 0.0
C748 C 0.74217 0.46205 0.60847 0.0
N749 N 0.76111 0.48922 0.62806 0.0
C750 C 0.69783 0.45924 0.60672 0.0
C751 C 0.67284 0.48452 0.62517 0.0
C752 C 0.69239 0.5122 0.64507 0.0
C753 C 0.73682 0.51409 0.64625 0.0
C754 C 0.79956 0.61691 0.60506 0.0
C755 C 0.84653 0.57547 0.64813 0.0
C756 C 0.79974 0.5725 0.60706 0.0
N757 N 0.82274 0.55239 0.62858 0.0
C758 C 0.84711 0.61993 0.64682 0.0
C759 C 0.82337 0.64071 0.62514 0.0
C760 C 0.91462 0.46715 0.64387 0.0
C761 C 0.85378 0.32092 0.58283 0.0
C762 C 0.91318 0.34506 0.62481 0.0
C763 C 0.92606 0.32032 0.60078 0.0
C764 C 0.8961 0.30831 0.57963 0.0
N765 N 0.87172 0.35766 0.62767 0.0
C766 C 0.84208 0.34563 0.60718 0.0
Co767 Co 0.50995 0.82101 0.13095 0.0
Co768 Co 0.60479 0.85754 0.16064 0.0
O769 O 0.57203 0.8241 0.13244 0.0
C770 C 0.53598 0.85404 0.07273 0.0
O771 O 0.55953 0.88078 0.08786 0.0
C772 C 0.63582 0.7691 0.16856 0.0
O773 O 0.59573 0.75735 0.16999 0.0
O774 O 0.5696 0.83621 0.19415 0.0
O775 O 0.50677 0.81522 0.17519 0.0
H776 H 0.62397 0.95689 0.24665 0.0
H777 H 0.56211 0.76343 0.09359 0.0
O778 O 0.5127 0.82726 0.08654 0.0
H779 H 0.47689 0.66881 0.1574 0.0
H780 H 0.37077 0.77391 0.08634 0.0
H781 H 0.43857 0.85509 0.16679 0.0
H782 H 0.46919 0.74687 0.16081 0.0
H783 H 0.44908 0.77848 0.08992 0.0
O784 O 0.64511 0.80842 0.16569 0.0
H785 H 0.58297 0.91509 0.21026 0.0
H786 H 0.69774 0.86985 0.17175 0.0
H787 H 0.36019 0.85131 0.16421 0.0
H788 H 0.57063 0.68553 0.08931 0.0
H789 H 0.32576 0.81041 0.12371 0.0
H790 H 0.52791 0.63767 0.12144 0.0
O791 O 0.50419 0.88415 0.13511 0.0
H792 H 0.68972 0.84261 0.06708 0.0
H793 H 0.63545 0.9433 0.14175 0.0
H794 H 0.67703 0.97051 0.09952 0.0
H795 H 0.70458 0.91996 0.06187 0.0
H796 H 0.64755 0.81686 0.10945 0.0
H797 H 0.74001 0.91082 0.20786 0.0
H798 H 0.70306 0.95493 0.24557 0.0
O799 O 0.56543 0.90721 0.15562 0.0
C800 C 0.53176 0.82185 0.19708 0.0
C801 C 0.64042 0.9379 0.23027 0.0
C802 C 0.70555 0.91199 0.20853 0.0
N803 N 0.63796 0.89028 0.18879 0.0
C804 C 0.61739 0.91426 0.20956 0.0
C805 C 0.68146 0.88875 0.18819 0.0
C806 C 0.68481 0.93674 0.22968 0.0
C807 C 0.54313 0.74279 0.10745 0.0
N808 N 0.51503 0.75966 0.12731 0.0
C809 C 0.54821 0.69872 0.10501 0.0
C810 C 0.52427 0.67188 0.12307 0.0
C811 C 0.49566 0.68933 0.14327 0.0
C812 C 0.49149 0.73356 0.14513 0.0
C813 C 0.38538 0.79187 0.10406 0.0
C814 C 0.42382 0.83736 0.14913 0.0
C815 C 0.4297 0.7947 0.10615 0.0
N816 N 0.44835 0.81716 0.12855 0.0
C817 C 0.37942 0.83528 0.14776 0.0
C818 C 0.36014 0.81234 0.12505 0.0
C819 C 0.52793 0.91356 0.1456 0.0
C820 C 0.67799 0.86493 0.08339 0.0
C821 C 0.6471 0.92117 0.12535 0.0
C822 C 0.67078 0.93673 0.10156 0.0
C823 C 0.68629 0.90834 0.08046 0.0
N824 N 0.63908 0.87855 0.12807 0.0
C825 C 0.6542 0.85053 0.10748 0.0
Co826 Co 0.18289 0.50664 0.63054 0.0
Co827 Co 0.14764 0.60306 0.65797 0.0
O828 O 0.18174 0.56879 0.63098 0.0
C829 C 0.15545 0.53096 0.57082 0.0
O830 O 0.12817 0.55607 0.58422 0.0
C831 C 0.23603 0.634 0.6667 0.0
O832 O 0.24742 0.59395 0.66957 0.0
O833 O 0.16806 0.56947 0.69238 0.0
O834 O 0.18438 0.50441 0.67481 0.0
H835 H 0.04707 0.62735 0.74267 0.0
H836 H 0.24567 0.55509 0.59493 0.0
O837 O 0.18074 0.50804 0.58614 0.0
H838 H 0.33103 0.46922 0.66441 0.0
H839 H 0.22942 0.36409 0.59114 0.0
H840 H 0.13987 0.43816 0.66444 0.0
H841 H 0.25257 0.46454 0.66451 0.0
H842 H 0.22844 0.44262 0.59362 0.0
O843 O 0.19692 0.64334 0.66258 0.0
H844 H 0.0893 0.58419 0.70777 0.0
H845 H 0.13523 0.69652 0.6663 0.0
H846 H 0.14014 0.3596 0.66294 0.0
H847 H 0.32408 0.56052 0.59392 0.0
H848 H 0.18512 0.32204 0.62605 0.0
H849 H 0.36729 0.51745 0.6289 0.0
O850 O 0.1197 0.50347 0.63175 0.0
H851 H 0.1649 0.68367 0.5628 0.0
H852 H 0.06214 0.63157 0.63687 0.0
H853 H 0.03599 0.67075 0.59323 0.0
H854 H 0.08755 0.69709 0.55582 0.0
H855 H 0.18963 0.644 0.6066 0.0
H856 H 0.09384 0.74094 0.70092 0.0
H857 H 0.04919 0.70631 0.73937 0.0
O858 O 0.09773 0.56366 0.65371 0.0
C859 C 0.17935 0.53077 0.69605 0.0
C860 C 0.06631 0.6428 0.72597 0.0
C861 C 0.09261 0.70656 0.70256 0.0
N862 N 0.11449 0.63783 0.68492 0.0
C863 C 0.0902 0.61854 0.70609 0.0
C864 C 0.11607 0.68126 0.68307 0.0
C865 C 0.06755 0.68711 0.72412 0.0
C866 C 0.26429 0.53597 0.61003 0.0
N867 N 0.2446 0.50937 0.62964 0.0
C868 C 0.30866 0.5393 0.60944 0.0
C869 C 0.33288 0.51517 0.6291 0.0
C870 C 0.31256 0.48812 0.64905 0.0
C871 C 0.26812 0.48567 0.64904 0.0
C872 C 0.20976 0.38007 0.60735 0.0
C873 C 0.15985 0.42203 0.64853 0.0
C874 C 0.20902 0.42452 0.60881 0.0
N875 N 0.18439 0.44491 0.6293 0.0
C876 C 0.15973 0.37755 0.6477 0.0
C877 C 0.18492 0.3565 0.62696 0.0
C878 C 0.0905 0.52697 0.6426 0.0
C879 C 0.14213 0.67245 0.57898 0.0
C880 C 0.08477 0.64287 0.62067 0.0
C881 C 0.06978 0.66511 0.59603 0.0
C882 C 0.09872 0.67991 0.57506 0.0
N883 N 0.12739 0.63565 0.62435 0.0
C884 C 0.15597 0.65014 0.60391 0.0
Co885 Co 0.49517 0.18114 0.13302 0.0
Co886 Co 0.39583 0.15171 0.15881 0.0
O887 O 0.4331 0.18372 0.13255 0.0
C888 C 0.47073 0.15501 0.07309 0.0
O889 O 0.44381 0.12921 0.0862 0.0
C890 C 0.3713 0.2418 0.16789 0.0
O891 O 0.41209 0.25034 0.17023 0.0
O892 O 0.42999 0.16886 0.19385 0.0
O893 O 0.49602 0.18312 0.17722 0.0
H894 H 0.36239 0.05065 0.24172 0.0
H895 H 0.45146 0.24619 0.09632 0.0
O896 O 0.49497 0.17865 0.08865 0.0
H897 H 0.53924 0.32737 0.167 0.0
H898 H 0.64138 0.21958 0.09598 0.0
H899 H 0.55998 0.13455 0.16814 0.0
H900 H 0.53999 0.24877 0.1673 0.0
H901 H 0.56283 0.22264 0.09695 0.0
O902 O 0.35909 0.20354 0.1637 0.0
H903 H 0.40928 0.09082 0.208 0.0
H904 H 0.30154 0.14645 0.16629 0.0
H905 H 0.6385 0.1308 0.16815 0.0
H906 H 0.45 0.32475 0.09512 0.0
H907 H 0.67973 0.17353 0.13186 0.0
H908 H 0.49399 0.36586 0.13072 0.0
O909 O 0.49474 0.11771 0.13471 0.0
H910 H 0.32088 0.17743 0.06234 0.0
H911 H 0.35986 0.06955 0.13672 0.0
H912 H 0.32053 0.04755 0.09211 0.0
H913 H 0.3008 0.10173 0.05449 0.0
H914 H 0.36059 0.19788 0.10717 0.0
H915 H 0.25346 0.10724 0.19978 0.0
H916 H 0.28387 0.05874 0.23771 0.0
O917 O 0.43172 0.09928 0.15439 0.0
C918 C 0.46895 0.17877 0.19809 0.0
C919 C 0.34875 0.07157 0.22521 0.0
C920 C 0.28762 0.10336 0.20169 0.0
N921 N 0.35814 0.12057 0.185 0.0
C922 C 0.37513 0.09429 0.206 0.0
C923 C 0.31499 0.12554 0.18283 0.0
C924 C 0.3047 0.07615 0.22297 0.0
C925 C 0.47107 0.26385 0.11166 0.0
N926 N 0.49597 0.24292 0.13174 0.0
C927 C 0.46998 0.30833 0.11095 0.0
C928 C 0.49462 0.33139 0.13096 0.0
C929 C 0.51998 0.3098 0.15135 0.0
C930 C 0.52022 0.2653 0.15145 0.0
C931 C 0.62378 0.20088 0.11194 0.0
C932 C 0.57773 0.15347 0.15243 0.0
C933 C 0.57931 0.20242 0.11255 0.0
N934 N 0.55691 0.17907 0.13274 0.0
C935 C 0.62217 0.15111 0.15248 0.0
C936 C 0.64528 0.17505 0.13209 0.0
C937 C 0.46873 0.08991 0.14461 0.0
C938 C 0.32926 0.15353 0.07857 0.0
C939 C 0.35158 0.09321 0.12043 0.0
C940 C 0.32916 0.08062 0.09524 0.0
C941 C 0.31805 0.11104 0.07417 0.0
N942 N 0.36262 0.13489 0.12455 0.0
C943 C 0.3516 0.16494 0.10406 0.0
C944 C 0.03254 0.52533 0.15037 0.0
C945 C 0.04265 0.48314 0.14266 0.0
C946 C 0.99019 0.53957 0.15092 0.0
C947 C 0.95613 0.51242 0.14326 0.0
H948 H 0.0575 0.54742 0.15653 0.0
H949 H 0.9843 0.57226 0.1574 0.0
S950 S 0.96628 0.39938 0.11957 0.0
N951 N 0.01563 0.4148 0.12612 0.0
N952 N 0.93616 0.44121 0.12674 0.0
C953 C 0.96605 0.47021 0.13499 0.0
C954 C 0.0092 0.45568 0.13482 0.0
C955 C 0.52527 0.97246 0.63467 0.0
C956 C 0.48491 0.96134 0.64608 0.0
C957 C 0.53973 0.01477 0.63493 0.0
C958 C 0.51419 0.04778 0.64614 0.0
H959 H 0.5461 0.94833 0.6255 0.0
H960 H 0.57089 0.02179 0.62586 0.0
S961 S 0.40762 0.03639 0.68049 0.0
N962 N 0.42078 0.98757 0.67052 0.0
N963 N 0.44789 0.06674 0.67023 0.0
C964 C 0.47416 0.03736 0.65784 0.0
C965 C 0.45957 0.99428 0.65804 0.0
C966 C 0.01328 0.53685 0.37992 0.0
C967 C 0.04679 0.51028 0.37074 0.0
C968 C 0.97102 0.52237 0.38019 0.0
C969 C 0.96033 0.48084 0.37082 0.0
H970 H 0.01978 0.56899 0.38733 0.0
H971 H 0.94656 0.54422 0.38765 0.0
S972 S 0.03673 0.39966 0.34285 0.0
N973 N 0.06669 0.44111 0.35126 0.0
N974 N 0.98751 0.41396 0.35092 0.0
C975 C 0.99374 0.45418 0.36113 0.0
C976 C 0.03685 0.46883 0.36135 0.0
C977 C 0.4803 0.97237 0.86368 0.0
C978 C 0.52214 0.96223 0.8723 0.0
C979 C 0.46569 0.01465 0.86368 0.0
C980 C 0.49213 0.04855 0.87279 0.0
H981 H 0.4588 0.94748 0.85643 0.0
H982 H 0.43333 0.02065 0.85648 0.0
S983 S 0.60373 0.03798 0.89966 0.0
N984 N 0.58913 0.98888 0.89151 0.0
N985 N 0.56215 0.06813 0.8919 0.0
C986 C 0.53392 0.0385 0.88205 0.0
C987 C 0.5488 0.99547 0.88168 0.0
C988 C 0.98934 0.53832 0.86398 0.0
C989 C 0.95525 0.51147 0.87209 0.0
C990 C 0.03158 0.5236 0.86382 0.0
C991 C 0.04153 0.48122 0.87124 0.0
H992 H 0.98352 0.57111 0.8577 0.0
H993 H 0.05659 0.54547 0.85737 0.0
S994 S 0.96509 0.39822 0.89552 0.0
N995 N 0.9352 0.4404 0.8889 0.0
N996 N 0.01435 0.41315 0.88815 0.0
C997 C 0.00805 0.45412 0.87959 0.0
C998 C 0.96506 0.46912 0.88015 0.0
C999 C 0.47776 0.03106 0.38046 0.0
C1000 C 0.5196 0.04166 0.37171 0.0
C1001 C 0.46312 0.98886 0.37979 0.0
C1002 C 0.48982 0.95536 0.3708 0.0
H1003 H 0.45582 0.05554 0.38774 0.0
H1004 H 0.43078 0.98238 0.38678 0.0
S1005 S 0.60122 0.96515 0.34446 0.0
N1006 N 0.58693 0.01436 0.3526 0.0
N1007 N 0.5594 0.9353 0.35214 0.0
C1008 C 0.53155 0.96519 0.36201 0.0
C1009 C 0.5464 0.00823 0.36221 0.0
C1010 C 0.96995 0.52292 0.65256 0.0
C1011 C 0.95938 0.4817 0.64294 0.0
C1012 C 0.01231 0.53719 0.65242 0.0
C1013 C 0.04576 0.51102 0.64219 0.0
H1014 H 0.94537 0.54409 0.66075 0.0
H1015 H 0.01872 0.56905 0.66048 0.0
S1016 S 0.03364 0.40128 0.61223 0.0
N1017 N 0.98488 0.41573 0.62144 0.0
N1018 N 0.06435 0.44211 0.62081 0.0
C1019 C 0.0352 0.46991 0.63185 0.0
C1020 C 0.99209 0.45537 0.63234 0.0
C1021 C 0.52476 0.0338 0.13694 0.0
C1022 C 0.48258 0.04443 0.14483 0.0
C1023 C 0.53912 0.99149 0.13738 0.0
C1024 C 0.51182 0.9579 0.14528 0.0
H1025 H 0.54719 0.05833 0.13052 0.0
H1026 H 0.57175 0.98504 0.13107 0.0
S1027 S 0.39919 0.96772 0.16902 0.0
N1028 N 0.41417 0.01705 0.16192 0.0
N1029 N 0.4412 0.93781 0.16196 0.0
C1030 C 0.46972 0.96777 0.15319 0.0
C1031 C 0.45513 0.01091 0.15321 0.0
C1032 C 0.1829 0.47503 0.27978 0.0
C1033 C 0.18503 0.51883 0.28623 0.0
C1034 C 0.18187 0.4603 0.25058 0.0
C1035 C 0.18357 0.48867 0.22647 0.0
H1036 H 0.18035 0.45181 0.29735 0.0
H1037 H 0.17875 0.42631 0.24699 0.0
S1038 S 0.19545 0.60639 0.23153 0.0
N1039 N 0.1928 0.59031 0.26619 0.0
N1040 N 0.19191 0.56276 0.21135 0.0
C1041 C 0.18838 0.53248 0.23266 0.0
C1042 C 0.18882 0.5475 0.26247 0.0
C1043 C 0.54541 0.1805 0.75284 0.0
C1044 C 0.51767 0.18848 0.72895 0.0
C1045 C 0.53078 0.18072 0.78208 0.0
C1046 C 0.48769 0.18839 0.78869 0.0
H1047 H 0.57859 0.17278 0.74902 0.0
H1048 H 0.55316 0.173 0.79949 0.0
S1049 S 0.40286 0.21676 0.73506 0.0
N1050 N 0.44564 0.20903 0.71457 0.0
N1051 N 0.41819 0.20827 0.76944 0.0
C1052 C 0.45999 0.19854 0.76532 0.0
C1053 C 0.47496 0.19894 0.73552 0.0
C1054 C 0.82058 0.475 0.23501 0.0
C1055 C 0.81814 0.51891 0.22888 0.0
C1056 C 0.82107 0.45974 0.26411 0.0
C1057 C 0.8187 0.48761 0.28849 0.0
H1058 H 0.82372 0.45213 0.21723 0.0
H1059 H 0.82439 0.42571 0.2674 0.0
S1060 S 0.80643 0.60536 0.28434 0.0
N1061 N 0.80965 0.58995 0.24956 0.0
N1062 N 0.80989 0.56137 0.30416 0.0
C1063 C 0.81386 0.53151 0.28262 0.0
C1064 C 0.8138 0.54709 0.25291 0.0
C1065 C 0.47682 0.82384 0.78166 0.0
C1066 C 0.52077 0.82189 0.78777 0.0
C1067 C 0.46142 0.82345 0.75254 0.0
C1068 C 0.4892 0.82064 0.7281 0.0
H1069 H 0.45401 0.82723 0.79945 0.0
H1070 H 0.42736 0.82647 0.74927 0.0
S1071 S 0.60706 0.80942 0.73223 0.0
N1072 N 0.59177 0.81343 0.76699 0.0
N1073 N 0.56297 0.81204 0.71245 0.0
C1074 C 0.53315 0.81635 0.734 0.0
C1075 C 0.54886 0.81718 0.7637 0.0
C1076 C 0.82192 0.47317 0.781 0.0
C1077 C 0.81734 0.51684 0.78725 0.0
C1078 C 0.82296 0.45816 0.75185 0.0
C1079 C 0.81895 0.48607 0.72757 0.0
H1080 H 0.82639 0.45039 0.7987 0.0
H1081 H 0.82795 0.42436 0.74842 0.0
S1082 S 0.80067 0.60299 0.73218 0.0
N1083 N 0.80505 0.58751 0.76689 0.0
N1084 N 0.80618 0.55939 0.71218 0.0
C1085 C 0.81191 0.52961 0.73361 0.0
C1086 C 0.81136 0.54495 0.76336 0.0
C1087 C 0.52856 0.8199 0.28128 0.0
C1088 C 0.48509 0.81416 0.28766 0.0
C1089 C 0.54345 0.82067 0.25205 0.0
C1090 C 0.51564 0.81511 0.22783 0.0
H1091 H 0.55114 0.82582 0.29887 0.0
H1092 H 0.577 0.82694 0.24851 0.0
S1093 S 0.39961 0.7922 0.23303 0.0
N1094 N 0.41496 0.79849 0.26763 0.0
N1095 N 0.44291 0.79864 0.21285 0.0
C1096 C 0.47247 0.80638 0.2341 0.0
C1097 C 0.45723 0.80628 0.2639 0.0
C1098 C 0.17648 0.45626 0.76214 0.0
C1099 C 0.18182 0.48394 0.78639 0.0
C1100 C 0.17771 0.47135 0.73299 0.0
C1101 C 0.18385 0.51486 0.72679 0.0
H1102 H 0.17028 0.42267 0.76558 0.0
H1103 H 0.17214 0.44885 0.71528 0.0
S1104 S 0.20425 0.6002 0.78178 0.0
N1105 N 0.19737 0.55677 0.80175 0.0
N1106 N 0.19893 0.58496 0.7471 0.0
C1107 C 0.1911 0.54265 0.75064 0.0
C1108 C 0.19031 0.52725 0.78035 0.0
C1109 C 0.54298 0.17841 0.26452 0.0
C1110 C 0.51495 0.18197 0.28872 0.0
C1111 C 0.528 0.17911 0.23536 0.0
C1112 C 0.48425 0.18299 0.22903 0.0
H1113 H 0.57686 0.17407 0.268 0.0
H1114 H 0.55094 0.17511 0.21771 0.0
S1115 S 0.39762 0.1978 0.28399 0.0
N1116 N 0.44129 0.19308 0.30401 0.0
N1117 N 0.41328 0.19385 0.24931 0.0
C1118 C 0.45596 0.18836 0.25288 0.0
C1119 C 0.47125 0.18802 0.28263 0.0
C1120 C 0.12488 0.43898 0.99136 0.0
C1121 C 0.15088 0.46681 0.97493 0.0
C1122 C 0.12501 0.43943 0.02231 0.0
C1123 C 0.15113 0.46773 0.03825 0.0
H1124 H 0.10417 0.41644 0.9803 0.0
H1125 H 0.10439 0.41722 0.03376 0.0
S1126 S 0.22565 0.54705 1.0059 0.0
N1127 N 0.20383 0.52343 0.97707 0.0
N1128 N 0.20406 0.52427 0.03514 0.0
C1129 C 0.17745 0.4957 0.02214 0.0
C1130 C 0.17733 0.49524 0.99056 0.0
C1131 C 0.56009 0.12608 0.49406 0.0
C1132 C 0.53281 0.15256 0.47754 0.0
C1133 C 0.55969 0.12646 0.52501 0.0
C1134 C 0.53202 0.15337 0.54087 0.0
H1135 H 0.58213 0.10476 0.48308 0.0
H1136 H 0.58149 0.10546 0.53653 0.0
S1137 S 0.45434 0.22941 0.50825 0.0
N1138 N 0.47741 0.20683 0.47948 0.0
N1139 N 0.47667 0.20754 0.53756 0.0
C1140 C 0.50461 0.18018 0.52466 0.0
C1141 C 0.505 0.17978 0.49307 0.0
C1142 C 0.87068 0.55893 0.0233 0.0
C1143 C 0.84426 0.53141 0.03966 0.0
C1144 C 0.87063 0.55867 0.99237 0.0
C1145 C 0.84417 0.53086 0.97627 0.0
H1146 H 0.89174 0.5811 0.0344 0.0
H1147 H 0.89166 0.58065 0.98106 0.0
S1148 S 0.76845 0.4525 0.00833 0.0
N1149 N 0.79048 0.47563 0.03731 0.0
N1150 N 0.7904 0.47513 0.97914 0.0
C1151 C 0.81731 0.50327 0.99227 0.0
C1152 C 0.81735 0.50354 0.02391 0.0
C1153 C 0.49374 0.82675 0.5232 0.0
C1154 C 0.46497 0.85241 0.53918 0.0
C1155 C 0.49379 0.82621 0.49211 0.0
C1156 C 0.46511 0.85136 0.47566 0.0
H1157 H 0.51664 0.80699 0.53475 0.0
H1158 H 0.51671 0.80607 0.48093 0.0
S1159 S 0.38197 0.92294 0.50674 0.0
N1160 N 0.40614 0.9028 0.53594 0.0
N1161 N 0.40627 0.90186 0.47795 0.0
C1162 C 0.43588 0.87684 0.49139 0.0
C1163 C 0.4358 0.87735 0.52297 0.0
C1164 C 0.12905 0.55654 0.49087 0.0
C1165 C 0.15575 0.52912 0.47467 0.0
C1166 C 0.1294 0.55685 0.5218 0.0
C1167 C 0.15647 0.52973 0.538 0.0
H1168 H 0.1076 0.57823 0.47965 0.0
H1169 H 0.10816 0.57871 0.53302 0.0
S1170 S 0.23304 0.45185 0.50632 0.0
N1171 N 0.21038 0.47414 0.47727 0.0
N1172 N 0.21102 0.4747 0.53539 0.0
C1173 C 0.18355 0.50219 0.52213 0.0
C1174 C 0.18319 0.50189 0.49052 0.0
C1175 C 0.44368 0.13212 0.9929 0.0
C1176 C 0.47229 0.15793 0.97699 0.0
C1177 C 0.44354 0.13155 0.02381 0.0
C1178 C 0.47204 0.15674 0.04029 0.0
H1179 H 0.42093 0.11208 0.98145 0.0
H1180 H 0.4207 0.1111 0.03481 0.0
S1181 S 0.55341 0.23033 0.00945 0.0
N1182 N 0.52989 0.20967 0.98015 0.0
N1183 N 0.52965 0.20861 0.03828 0.0
C1184 C 0.50078 0.18293 0.02473 0.0
C1185 C 0.50089 0.18353 0.99313 0.0
C1186 C 0.82898 0.49187 0.49259 0.0
C1187 C 0.85313 0.4621 0.47641 0.0
C1188 C 0.82893 0.49179 0.52363 0.0
C1189 C 0.85305 0.46194 0.53979 0.0
H1190 H 0.81002 0.51565 0.48125 0.0
H1191 H 0.80995 0.51551 0.53498 0.0
S1192 S 0.92061 0.37603 0.50808 0.0
N1193 N 0.90108 0.40118 0.47908 0.0
N1194 N 0.90099 0.40103 0.53709 0.0
C1195 C 0.87706 0.43173 0.52387 0.0
C1196 C 0.8771 0.43181 0.49231 0.0
C1197 C 0.50878 0.8294 0.02318 0.0
C1198 C 0.53711 0.85473 0.03978 0.0
C1199 C 0.50935 0.82971 0.9921 0.0
C1200 C 0.53833 0.8553 0.97626 0.0
H1201 H 0.48578 0.80921 0.03425 0.0
H1202 H 0.48679 0.80972 0.98044 0.0
S1203 S 0.62036 0.92652 0.00911 0.0
N1204 N 0.59568 0.90553 0.03779 0.0
N1205 N 0.59682 0.90605 0.9798 0.0
C1206 C 0.56706 0.88054 0.99261 0.0
C1207 C 0.56643 0.88028 0.02419 0.0
C1208 C 0.26394 0.2974 0.17151 0.0
C1209 C 0.2743 0.34094 0.16935 0.0
C1210 C 0.29553 0.26591 0.17141 0.0
C1211 C 0.33901 0.27643 0.16918 0.0
H1212 H 0.23101 0.2873 0.17309 0.0
H1213 H 0.28558 0.23293 0.17295 0.0
S1214 S 0.38347 0.38573 0.16274 0.0
N1215 N 0.33146 0.39298 0.16487 0.0
N1216 N 0.39086 0.33373 0.16472 0.0
C1217 C 0.35001 0.31987 0.16733 0.0
C1218 C 0.3177 0.35208 0.1674 0.0
C1219 C 0.74035 0.29378 0.6727 0.0
C1220 C 0.73008 0.33741 0.67106 0.0
C1221 C 0.70864 0.26238 0.67241 0.0
C1222 C 0.66518 0.27312 0.6705 0.0
H1223 H 0.77327 0.28357 0.67399 0.0
H1224 H 0.71846 0.22932 0.67353 0.0
S1225 S 0.621 0.38279 0.66547 0.0
N1226 N 0.67305 0.38975 0.66741 0.0
N1227 N 0.61349 0.33078 0.66691 0.0
C1228 C 0.65432 0.31667 0.66913 0.0
C1229 C 0.68671 0.34874 0.66941 0.0
C1230 C 0.69212 0.66195 0.175 0.0
C1231 C 0.73501 0.67186 0.16893 0.0
C1232 C 0.66045 0.69354 0.17505 0.0
C1233 C 0.67026 0.73647 0.16906 0.0
H1234 H 0.68272 0.62943 0.17967 0.0
H1235 H 0.62796 0.68408 0.17976 0.0
S1236 S 0.77755 0.77932 0.15092 0.0
N1237 N 0.78541 0.72792 0.15622 0.0
N1238 N 0.72615 0.78704 0.15632 0.0
C1239 C 0.71304 0.74687 0.16291 0.0
C1240 C 0.74529 0.71469 0.16284 0.0
C1241 C 0.31161 0.65848 0.67388 0.0
C1242 C 0.26883 0.66831 0.66732 0.0
C1243 C 0.34328 0.69012 0.67416 0.0
C1244 C 0.33355 0.733 0.66792 0.0
H1245 H 0.3209 0.62601 0.67884 0.0
H1246 H 0.37566 0.68077 0.67934 0.0
S1247 S 0.22664 0.77553 0.64817 0.0
N1248 N 0.21872 0.7242 0.65366 0.0
N1249 N 0.27788 0.78333 0.65416 0.0
C1250 C 0.2909 0.74325 0.66114 0.0
C1251 C 0.25869 0.71106 0.66085 0.0
C1252 C 0.3422 0.69077 0.34699 0.0
C1253 C 0.33163 0.73431 0.3451 0.0
C1254 C 0.3106 0.65912 0.34706 0.0
C1255 C 0.26703 0.66962 0.34526 0.0
H1256 H 0.37516 0.6809 0.34892 0.0
H1257 H 0.32051 0.62618 0.34905 0.0
S1258 S 0.22232 0.77879 0.33811 0.0
N1259 N 0.27429 0.78607 0.34011 0.0
N1260 N 0.21515 0.72681 0.34025 0.0
C1261 C 0.25604 0.71299 0.34278 0.0
C1262 C 0.28821 0.74523 0.3427 0.0
C1263 C 0.29418 0.26162 0.84524 0.0
C1264 C 0.33758 0.27286 0.84642 0.0
C1265 C 0.26209 0.29272 0.84457 0.0
C1266 C 0.27189 0.33652 0.84506 0.0
H1267 H 0.28472 0.22843 0.84496 0.0
H1268 H 0.22925 0.28215 0.84385 0.0
S1269 S 0.38062 0.38317 0.84851 0.0
N1270 N 0.38865 0.33121 0.84819 0.0
N1271 N 0.32847 0.38951 0.84695 0.0
C1272 C 0.3152 0.3483 0.84605 0.0
C1273 C 0.34794 0.31657 0.84672 0.0
C1274 C 0.7067 0.26303 0.34466 0.0
C1275 C 0.66323 0.27352 0.34712 0.0
C1276 C 0.73826 0.29455 0.34436 0.0
C1277 C 0.72788 0.33809 0.34653 0.0
H1278 H 0.71667 0.23006 0.34307 0.0
H1279 H 0.77119 0.2845 0.34258 0.0
S1280 S 0.61874 0.38282 0.35385 0.0
N1281 N 0.61139 0.33082 0.35192 0.0
N1282 N 0.67071 0.39008 0.35138 0.0
C1283 C 0.68448 0.34919 0.34878 0.0
C1284 C 0.65221 0.31696 0.34907 0.0
C1285 C 0.7422 0.70986 0.84584 0.0
C1286 C 0.73106 0.66641 0.84646 0.0
C1287 C 0.71102 0.74189 0.84579 0.0
C1288 C 0.66724 0.73199 0.84638 0.0
H1289 H 0.77537 0.7194 0.84551 0.0
H1290 H 0.72152 0.77477 0.84544 0.0
S1291 S 0.62086 0.62309 0.8486 0.0
N1292 N 0.67284 0.61518 0.84785 0.0
N1293 N 0.61439 0.67526 0.84782 0.0
C1294 C 0.65556 0.68864 0.84685 0.0
C1295 C 0.68737 0.65595 0.84687 0.0
loop_
_geom_bond_atom_site_label_1
_geom_bond_atom_site_label_2
_geom_bond_distance
_geom_bond_site_symmetry_2
_ccdc_geom_bond_type
Co0 O2 2.143 . S
Co0 O8 2.074 . S
Co0 O11 2.093 . S
Co0 O24 2.097 . S
Co0 N41 2.151 . S
Co0 N49 2.214 . S
Co1 O2 2.160 . S
Co1 O7 2.058 . S
Co1 O17 2.057 . S
Co1 O32 2.037 . S
Co1 N36 2.145 . S
Co1 N57 2.257 . S
O2 Co0 2.143 . S
O2 Co1 2.160 . S
C3 O4 1.278 . S
C3 O11 1.224 . S
O4 C3 1.278 . S
C5 O6 1.245 . S
C5 O17 1.232 . S
O6 C5 1.245 . S
O7 Co1 2.058 . S
O7 C33 1.269 . S
O8 Co0 2.074 . S
O8 C33 1.257 . S
H9 C34 0.930 . S
H10 C40 0.930 . S
O11 Co0 2.093 . S
O11 C3 1.224 . S
H12 C44 0.929 . S
H13 C46 0.930 . S
H14 C47 0.930 . S
H15 C45 0.929 . S
H16 C48 0.928 . S
O17 Co1 2.057 . S
O17 C5 1.232 . S
H18 C37 0.929 . S
H19 C38 0.929 . S
H20 C50 0.931 . S
H21 C42 0.929 . S
H22 C51 0.930 . S
H23 C43 0.931 . S
O24 Co0 2.097 . S
O24 C52 1.214 . S
H25 C53 0.929 . S
H26 C54 0.929 . S
H27 C55 0.930 . S
H28 C56 0.929 . S
H29 C58 0.930 . S
H30 C35 0.930 . S
H31 C39 0.930 . S
O32 Co1 2.037 . S
O32 C52 1.234 . S
C33 O7 1.269 . S
C33 O8 1.257 . S
C34 H9 0.930 . S
C34 C37 1.388 . S
C34 C39 1.418 . S
C35 H30 0.930 . S
C35 C38 1.404 . S
C35 C39 1.353 . S
N36 Co1 2.145 . S
N36 C37 1.397 . S
N36 C38 1.334 . S
C37 H18 0.929 . S
C37 C34 1.388 . S
C37 N36 1.397 . S
C38 H19 0.929 . S
C38 C35 1.404 . S
C38 N36 1.334 . S
C39 H31 0.930 . S
C39 C34 1.418 . S
C39 C35 1.353 . S
C40 H10 0.930 . S
C40 N41 1.330 . S
C40 C42 1.446 . S
N41 Co0 2.151 . S
N41 C40 1.330 . S
N41 C45 1.418 . S
C42 H21 0.929 . S
C42 C40 1.446 . S
C42 C43 1.332 . S
C43 H23 0.931 . S
C43 C42 1.332 . S
C43 C44 1.267 . S
C44 H12 0.929 . S
C44 C43 1.267 . S
C44 C45 1.251 . S
C45 H15 0.929 . S
C45 N41 1.418 . S
C45 C44 1.251 . S
C46 H13 0.930 . S
C46 C48 1.406 . S
C46 C51 1.261 . S
C47 H14 0.930 . S
C47 N49 1.325 . S
C47 C50 1.357 . S
C48 H16 0.928 . S
C48 C46 1.406 . S
C48 N49 1.261 . S
N49 Co0 2.214 . S
N49 C47 1.325 . S
N49 C48 1.261 . S
C50 H20 0.931 . S
C50 C47 1.357 . S
C50 C51 1.312 . S
C51 H22 0.930 . S
C51 C46 1.261 . S
C51 C50 1.312 . S
C52 O24 1.214 . S
C52 O32 1.234 . S
C53 H25 0.929 . S
C53 C56 1.391 . S
C53 C58 1.391 . S
C54 H26 0.929 . S
C54 C55 1.390 . S
C54 N57 1.391 . S
C55 H27 0.930 . S
C55 C54 1.390 . S
C55 C56 1.392 . S
C56 H28 0.929 . S
C56 C53 1.391 . S
C56 C55 1.392 . S
N57 Co1 2.257 . S
N57 C54 1.391 . S
N57 C58 1.388 . S
C58 H29 0.930 . S
C58 C53 1.391 . S
C58 N57 1.388 . S
Co59 O61 2.143 . S
Co59 O67 2.074 . S
Co59 O70 2.093 . S
Co59 O83 2.097 . S
Co59 N100 2.151 . S
Co59 N108 2.214 . S
Co60 O61 2.160 . S
Co60 O66 2.058 . S
Co60 O76 2.057 . S
Co60 O91 2.037 . S
Co60 N95 2.145 . S
Co60 N116 2.257 . S
O61 Co59 2.143 . S
O61 Co60 2.160 . S
C62 O63 1.278 . S
C62 O70 1.224 . S
O63 C62 1.278 . S
C64 O65 1.245 . S
C64 O76 1.232 . S
O65 C64 1.245 . S
O66 Co60 2.058 . S
O66 C92 1.269 . S
O67 Co59 2.074 . S
O67 C92 1.257 . S
H68 C93 0.930 . S
H69 C99 0.930 . S
O70 Co59 2.093 . S
O70 C62 1.224 . S
H71 C103 0.929 . S
H72 C105 0.930 . S
H73 C106 0.930 . S
H74 C104 0.929 . S
H75 C107 0.928 . S
O76 Co60 2.057 . S
O76 C64 1.232 . S
H77 C96 0.929 . S
H78 C97 0.929 . S
H79 C109 0.931 . S
H80 C101 0.929 . S
H81 C110 0.930 . S
H82 C102 0.931 . S
O83 Co59 2.097 . S
O83 C111 1.214 . S
H84 C112 0.929 . S
H85 C113 0.929 . S
H86 C114 0.930 . S
H87 C115 0.929 . S
H88 C117 0.930 . S
H89 C94 0.930 . S
H90 C98 0.930 . S
O91 Co60 2.037 . S
O91 C111 1.234 . S
C92 O66 1.269 . S
C92 O67 1.257 . S
C93 H68 0.930 . S
C93 C96 1.388 . S
C93 C98 1.418 . S
C94 H89 0.930 . S
C94 C97 1.404 . S
C94 C98 1.353 . S
N95 Co60 2.145 . S
N95 C96 1.397 . S
N95 C97 1.334 . S
C96 H77 0.929 . S
C96 C93 1.388 . S
C96 N95 1.397 . S
C97 H78 0.929 . S
C97 C94 1.404 . S
C97 N95 1.334 . S
C98 H90 0.930 . S
C98 C93 1.418 . S
C98 C94 1.353 . S
C99 H69 0.930 . S
C99 N100 1.330 . S
C99 C101 1.446 . S
N100 Co59 2.151 . S
N100 C99 1.330 . S
N100 C104 1.418 . S
C101 H80 0.929 . S
C101 C99 1.446 . S
C101 C102 1.332 . S
C102 H82 0.931 . S
C102 C101 1.332 . S
C102 C103 1.267 . S
C103 H71 0.929 . S
C103 C102 1.267 . S
C103 C104 1.251 . S
C104 H74 0.929 . S
C104 N100 1.418 . S
C104 C103 1.251 . S
C105 H72 0.930 . S
C105 C107 1.406 . S
C105 C110 1.261 . S
C106 H73 0.930 . S
C106 N108 1.325 . S
C106 C109 1.357 . S
C107 H75 0.928 . S
C107 C105 1.406 . S
C107 N108 1.261 . S
N108 Co59 2.214 . S
N108 C106 1.325 . S
N108 C107 1.261 . S
C109 H79 0.931 . S
C109 C106 1.357 . S
C109 C110 1.312 . S
C110 H81 0.930 . S
C110 C105 1.261 . S
C110 C109 1.312 . S
C111 O83 1.214 . S
C111 O91 1.234 . S
C112 H84 0.929 . S
C112 C115 1.391 . S
C112 C117 1.391 . S
C113 H85 0.929 . S
C113 C114 1.390 . S
C113 N116 1.391 . S
C114 H86 0.930 . S
C114 C113 1.390 . S
C114 C115 1.392 . S
C115 H87 0.929 . S
C115 C112 1.391 . S
C115 C114 1.392 . S
N116 Co60 2.257 . S
N116 C113 1.391 . S
N116 C117 1.388 . S
C117 H88 0.930 . S
C117 C112 1.391 . S
C117 N116 1.388 . S
Co118 O120 2.143 . S
Co118 O126 2.074 . S
Co118 O129 2.093 . S
Co118 O142 2.097 . S
Co118 N159 2.151 . S
Co118 N167 2.214 . S
Co119 O120 2.160 . S
Co119 O125 2.058 . S
Co119 O135 2.057 . S
Co119 O150 2.037 . S
Co119 N154 2.145 . S
Co119 N175 2.257 . S
O120 Co118 2.143 . S
O120 Co119 2.160 . S
C121 O122 1.278 . S
C121 O129 1.224 . S
O122 C121 1.278 . S
C123 O124 1.245 . S
C123 O135 1.232 . S
O124 C123 1.245 . S
O125 Co119 2.058 . S
O125 C151 1.269 . S
O126 Co118 2.074 . S
O126 C151 1.257 . S
H127 C152 0.930 . S
H128 C158 0.930 . S
O129 Co118 2.093 . S
O129 C121 1.224 . S
H130 C162 0.929 . S
H131 C164 0.930 . S
H132 C165 0.930 . S
H133 C163 0.929 . S
H134 C166 0.928 . S
O135 Co119 2.057 . S
O135 C123 1.232 . S
H136 C155 0.929 . S
H137 C156 0.929 . S
H138 C168 0.931 . S
H139 C160 0.929 . S
H140 C169 0.930 . S
H141 C161 0.931 . S
O142 Co118 2.097 . S
O142 C170 1.214 . S
H143 C171 0.929 . S
H144 C172 0.929 . S
H145 C173 0.930 . S
H146 C174 0.929 . S
H147 C176 0.930 . S
H148 C153 0.930 . S
H149 C157 0.930 . S
O150 Co119 2.037 . S
O150 C170 1.234 . S
C151 O125 1.269 . S
C151 O126 1.257 . S
C152 H127 0.930 . S
C152 C155 1.388 . S
C152 C157 1.418 . S
C153 H148 0.930 . S
C153 C156 1.404 . S
C153 C157 1.353 . S
N154 Co119 2.145 . S
N154 C155 1.397 . S
N154 C156 1.334 . S
C155 H136 0.929 . S
C155 C152 1.388 . S
C155 N154 1.397 . S
C156 H137 0.929 . S
C156 C153 1.404 . S
C156 N154 1.334 . S
C157 H149 0.930 . S
C157 C152 1.418 . S
C157 C153 1.353 . S
C158 H128 0.930 . S
C158 N159 1.330 . S
C158 C160 1.446 . S
N159 Co118 2.151 . S
N159 C158 1.330 . S
N159 C163 1.418 . S
C160 H139 0.929 . S
C160 C158 1.446 . S
C160 C161 1.332 . S
C161 H141 0.931 . S
C161 C160 1.332 . S
C161 C162 1.267 . S
C162 H130 0.929 . S
C162 C161 1.267 . S
C162 C163 1.251 . S
C163 H133 0.929 . S
C163 N159 1.418 . S
C163 C162 1.251 . S
C164 H131 0.930 . S
C164 C166 1.406 . S
C164 C169 1.261 . S
C165 H132 0.930 . S
C165 N167 1.325 . S
C165 C168 1.357 . S
C166 H134 0.928 . S
C166 C164 1.406 . S
C166 N167 1.261 . S
N167 Co118 2.214 . S
N167 C165 1.325 . S
N167 C166 1.261 . S
C168 H138 0.931 . S
C168 C165 1.357 . S
C168 C169 1.312 . S
C169 H140 0.930 . S
C169 C164 1.261 . S
C169 C168 1.312 . S
C170 O142 1.214 . S
C170 O150 1.234 . S
C171 H143 0.929 . S
C171 C174 1.391 . S
C171 C176 1.391 . S
C172 H144 0.929 . S
C172 C173 1.390 . S
C172 N175 1.391 . S
C173 H145 0.930 . S
C173 C172 1.390 . S
C173 C174 1.392 . S
C174 H146 0.929 . S
C174 C171 1.391 . S
C174 C173 1.392 . S
N175 Co119 2.257 . S
N175 C172 1.391 . S
N175 C176 1.388 . S
C176 H147 0.930 . S
C176 C171 1.391 . S
C176 N175 1.388 . S
Co177 O179 2.143 . S
Co177 O185 2.074 . S
Co177 O188 2.093 . S
Co177 O201 2.097 . S
Co177 N218 2.151 . S
Co177 N226 2.214 . S
Co178 O179 2.160 . S
Co178 O184 2.058 . S
Co178 O194 2.057 . S
Co178 O209 2.037 . S
Co178 N213 2.145 . S
Co178 N234 2.257 . S
O179 Co177 2.143 . S
O179 Co178 2.160 . S
C180 O181 1.278 . S
C180 O188 1.224 . S
O181 C180 1.278 . S
C182 O183 1.245 . S
C182 O194 1.232 . S
O183 C182 1.245 . S
O184 Co178 2.058 . S
O184 C210 1.269 . S
O185 Co177 2.074 . S
O185 C210 1.257 . S
H186 C211 0.930 . S
H187 C217 0.930 . S
O188 Co177 2.093 . S
O188 C180 1.224 . S
H189 C221 0.929 . S
H190 C223 0.930 . S
H191 C224 0.930 . S
H192 C222 0.929 . S
H193 C225 0.928 . S
O194 Co178 2.057 . S
O194 C182 1.232 . S
H195 C214 0.929 . S
H196 C215 0.929 . S
H197 C227 0.931 . S
H198 C219 0.929 . S
H199 C228 0.930 . S
H200 C220 0.931 . S
O201 Co177 2.097 . S
O201 C229 1.214 . S
H202 C230 0.929 . S
H203 C231 0.929 . S
H204 C232 0.930 . S
H205 C233 0.929 . S
H206 C235 0.930 . S
H207 C212 0.930 . S
H208 C216 0.930 . S
O209 Co178 2.037 . S
O209 C229 1.234 . S
C210 O184 1.269 . S
C210 O185 1.257 . S
C211 H186 0.930 . S
C211 C214 1.388 . S
C211 C216 1.418 . S
C212 H207 0.930 . S
C212 C215 1.404 . S
C212 C216 1.353 . S
N213 Co178 2.145 . S
N213 C214 1.397 . S
N213 C215 1.334 . S
C214 H195 0.929 . S
C214 C211 1.388 . S
C214 N213 1.397 . S
C215 H196 0.929 . S
C215 C212 1.404 . S
C215 N213 1.334 . S
C216 H208 0.930 . S
C216 C211 1.418 . S
C216 C212 1.353 . S
C217 H187 0.930 . S
C217 N218 1.330 . S
C217 C219 1.446 . S
N218 Co177 2.151 . S
N218 C217 1.330 . S
N218 C222 1.418 . S
C219 H198 0.929 . S
C219 C217 1.446 . S
C219 C220 1.332 . S
C220 H200 0.931 . S
C220 C219 1.332 . S
C220 C221 1.267 . S
C221 H189 0.929 . S
C221 C220 1.267 . S
C221 C222 1.251 . S
C222 H192 0.929 . S
C222 N218 1.418 . S
C222 C221 1.251 . S
C223 H190 0.930 . S
C223 C225 1.406 . S
C223 C228 1.261 . S
C224 H191 0.930 . S
C224 N226 1.325 . S
C224 C227 1.357 . S
C225 H193 0.928 . S
C225 C223 1.406 . S
C225 N226 1.261 . S
N226 Co177 2.214 . S
N226 C224 1.325 . S
N226 C225 1.261 . S
C227 H197 0.931 . S
C227 C224 1.357 . S
C227 C228 1.312 . S
C228 H199 0.930 . S
C228 C223 1.261 . S
C228 C227 1.312 . S
C229 O201 1.214 . S
C229 O209 1.234 . S
C230 H202 0.929 . S
C230 C233 1.391 . S
C230 C235 1.391 . S
C231 H203 0.929 . S
C231 C232 1.390 . S
C231 N234 1.391 . S
C232 H204 0.930 . S
C232 C231 1.390 . S
C232 C233 1.392 . S
C233 H205 0.929 . S
C233 C230 1.391 . S
C233 C232 1.392 . S
N234 Co178 2.257 . S
N234 C231 1.391 . S
N234 C235 1.388 . S
C235 H206 0.930 . S
C235 C230 1.391 . S
C235 N234 1.388 . S
Co236 O238 2.143 . S
Co236 O244 2.074 . S
Co236 O247 2.093 . S
Co236 O260 2.097 . S
Co236 N277 2.151 . S
Co236 N285 2.214 . S
Co237 O238 2.160 . S
Co237 O243 2.058 . S
Co237 O253 2.057 . S
Co237 O268 2.037 . S
Co237 N272 2.145 . S
Co237 N293 2.257 . S
O238 Co236 2.143 . S
O238 Co237 2.160 . S
C239 O240 1.278 . S
C239 O247 1.224 . S
O240 C239 1.278 . S
C241 O242 1.245 . S
C241 O253 1.232 . S
O242 C241 1.245 . S
O243 Co237 2.058 . S
O243 C269 1.269 . S
O244 Co236 2.074 . S
O244 C269 1.257 . S
H245 C270 0.930 . S
H246 C276 0.930 . S
O247 Co236 2.093 . S
O247 C239 1.224 . S
H248 C280 0.929 . S
H249 C282 0.930 . S
H250 C283 0.930 . S
H251 C281 0.929 . S
H252 C284 0.928 . S
O253 Co237 2.057 . S
O253 C241 1.232 . S
H254 C273 0.929 . S
H255 C274 0.929 . S
H256 C286 0.931 . S
H257 C278 0.929 . S
H258 C287 0.930 . S
H259 C279 0.931 . S
O260 Co236 2.097 . S
O260 C288 1.214 . S
H261 C289 0.929 . S
H262 C290 0.929 . S
H263 C291 0.930 . S
H264 C292 0.929 . S
H265 C294 0.930 . S
H266 C271 0.930 . S
H267 C275 0.930 . S
O268 Co237 2.037 . S
O268 C288 1.234 . S
C269 O243 1.269 . S
C269 O244 1.257 . S
C270 H245 0.930 . S
C270 C273 1.388 . S
C270 C275 1.418 . S
C271 H266 0.930 . S
C271 C274 1.404 . S
C271 C275 1.353 . S
N272 Co237 2.145 . S
N272 C273 1.397 . S
N272 C274 1.334 . S
C273 H254 0.929 . S
C273 C270 1.388 . S
C273 N272 1.397 . S
C274 H255 0.929 . S
C274 C271 1.404 . S
C274 N272 1.334 . S
C275 H267 0.930 . S
C275 C270 1.418 . S
C275 C271 1.353 . S
C276 H246 0.930 . S
C276 N277 1.330 . S
C276 C278 1.446 . S
N277 Co236 2.151 . S
N277 C276 1.330 . S
N277 C281 1.418 . S
C278 H257 0.929 . S
C278 C276 1.446 . S
C278 C279 1.332 . S
C279 H259 0.931 . S
C279 C278 1.332 . S
C279 C280 1.267 . S
C280 H248 0.929 . S
C280 C279 1.267 . S
C280 C281 1.251 . S
C281 H251 0.929 . S
C281 N277 1.418 . S
C281 C280 1.251 . S
C282 H249 0.930 . S
C282 C284 1.406 . S
C282 C287 1.261 . S
C283 H250 0.930 . S
C283 N285 1.325 . S
C283 C286 1.357 . S
C284 H252 0.928 . S
C284 C282 1.406 . S
C284 N285 1.261 . S
N285 Co236 2.214 . S
N285 C283 1.325 . S
N285 C284 1.261 . S
C286 H256 0.931 . S
C286 C283 1.357 . S
C286 C287 1.312 . S
C287 H258 0.930 . S
C287 C282 1.261 . S
C287 C286 1.312 . S
C288 O260 1.214 . S
C288 O268 1.234 . S
C289 H261 0.929 . S
C289 C292 1.391 . S
C289 C294 1.391 . S
C290 H262 0.929 . S
C290 C291 1.390 . S
C290 N293 1.391 . S
C291 H263 0.930 . S
C291 C290 1.390 . S
C291 C292 1.392 . S
C292 H264 0.929 . S
C292 C289 1.391 . S
C292 C291 1.392 . S
N293 Co237 2.257 . S
N293 C290 1.391 . S
N293 C294 1.388 . S
C294 H265 0.930 . S
C294 C289 1.391 . S
C294 N293 1.388 . S
Co295 O297 2.143 . S
Co295 O303 2.074 . S
Co295 O306 2.093 . S
Co295 O319 2.097 . S
Co295 N336 2.151 . S
Co295 N344 2.214 . S
Co296 O297 2.160 . S
Co296 O302 2.058 . S
Co296 O312 2.057 . S
Co296 O327 2.037 . S
Co296 N331 2.145 . S
Co296 N352 2.257 . S
O297 Co295 2.143 . S
O297 Co296 2.160 . S
C298 O299 1.278 . S
C298 O306 1.224 . S
O299 C298 1.278 . S
C300 O301 1.245 . S
C300 O312 1.232 . S
O301 C300 1.245 . S
O302 Co296 2.058 . S
O302 C328 1.269 . S
O303 Co295 2.074 . S
O303 C328 1.257 . S
H304 C329 0.930 . S
H305 C335 0.930 . S
O306 Co295 2.093 . S
O306 C298 1.224 . S
H307 C339 0.929 . S
H308 C341 0.930 . S
H309 C342 0.930 . S
H310 C340 0.929 . S
H311 C343 0.928 . S
O312 Co296 2.057 . S
O312 C300 1.232 . S
H313 C332 0.929 . S
H314 C333 0.929 . S
H315 C345 0.931 . S
H316 C337 0.929 . S
H317 C346 0.930 . S
H318 C338 0.931 . S
O319 Co295 2.097 . S
O319 C347 1.214 . S
H320 C348 0.929 . S
H321 C349 0.929 . S
H322 C350 0.930 . S
H323 C351 0.929 . S
H324 C353 0.930 . S
H325 C330 0.930 . S
H326 C334 0.930 . S
O327 Co296 2.037 . S
O327 C347 1.234 . S
C328 O302 1.269 . S
C328 O303 1.257 . S
C329 H304 0.930 . S
C329 C332 1.388 . S
C329 C334 1.418 . S
C330 H325 0.930 . S
C330 C333 1.404 . S
C330 C334 1.353 . S
N331 Co296 2.145 . S
N331 C332 1.397 . S
N331 C333 1.334 . S
C332 H313 0.929 . S
C332 C329 1.388 . S
C332 N331 1.397 . S
C333 H314 0.929 . S
C333 C330 1.404 . S
C333 N331 1.334 . S
C334 H326 0.930 . S
C334 C329 1.418 . S
C334 C330 1.353 . S
C335 H305 0.930 . S
C335 N336 1.330 . S
C335 C337 1.446 . S
N336 Co295 2.151 . S
N336 C335 1.330 . S
N336 C340 1.418 . S
C337 H316 0.929 . S
C337 C335 1.446 . S
C337 C338 1.332 . S
C338 H318 0.931 . S
C338 C337 1.332 . S
C338 C339 1.267 . S
C339 H307 0.929 . S
C339 C338 1.267 . S
C339 C340 1.251 . S
C340 H310 0.929 . S
C340 N336 1.418 . S
C340 C339 1.251 . S
C341 H308 0.930 . S
C341 C343 1.406 . S
C341 C346 1.261 . S
C342 H309 0.930 . S
C342 N344 1.325 . S
C342 C345 1.357 . S
C343 H311 0.928 . S
C343 C341 1.406 . S
C343 N344 1.261 . S
N344 Co295 2.214 . S
N344 C342 1.325 . S
N344 C343 1.261 . S
C345 H315 0.931 . S
C345 C342 1.357 . S
C345 C346 1.312 . S
C346 H317 0.930 . S
C346 C341 1.261 . S
C346 C345 1.312 . S
C347 O319 1.214 . S
C347 O327 1.234 . S
C348 H320 0.929 . S
C348 C351 1.391 . S
C348 C353 1.391 . S
C349 H321 0.929 . S
C349 C350 1.390 . S
C349 N352 1.391 . S
C350 H322 0.930 . S
C350 C349 1.390 . S
C350 C351 1.392 . S
C351 H323 0.929 . S
C351 C348 1.391 . S
C351 C350 1.392 . S
N352 Co296 2.257 . S
N352 C349 1.391 . S
N352 C353 1.388 . S
C353 H324 0.930 . S
C353 C348 1.391 . S
C353 N352 1.388 . S
Co354 O356 2.143 . S
Co354 O362 2.074 . S
Co354 O365 2.093 . S
Co354 O378 2.097 . S
Co354 N395 2.151 . S
Co354 N403 2.214 . S
Co355 O356 2.160 . S
Co355 O361 2.058 . S
Co355 O371 2.057 . S
Co355 O386 2.037 . S
Co355 N390 2.145 . S
Co355 N411 2.257 . S
O356 Co354 2.143 . S
O356 Co355 2.160 . S
C357 O358 1.278 . S
C357 O365 1.224 . S
O358 C357 1.278 . S
C359 O360 1.245 . S
C359 O371 1.232 . S
O360 C359 1.245 . S
O361 Co355 2.058 . S
O361 C387 1.269 . S
O362 Co354 2.074 . S
O362 C387 1.257 . S
H363 C388 0.930 . S
H364 C394 0.930 . S
O365 Co354 2.093 . S
O365 C357 1.224 . S
H366 C398 0.929 . S
H367 C400 0.930 . S
H368 C401 0.930 . S
H369 C399 0.929 . S
H370 C402 0.928 . S
O371 Co355 2.057 . S
O371 C359 1.232 . S
H372 C391 0.929 . S
H373 C392 0.929 . S
H374 C404 0.931 . S
H375 C396 0.929 . S
H376 C405 0.930 . S
H377 C397 0.931 . S
O378 Co354 2.097 . S
O378 C406 1.214 . S
H379 C407 0.929 . S
H380 C408 0.929 . S
H381 C409 0.930 . S
H382 C410 0.929 . S
H383 C412 0.930 . S
H384 C389 0.930 . S
H385 C393 0.930 . S
O386 Co355 2.037 . S
O386 C406 1.234 . S
C387 O361 1.269 . S
C387 O362 1.257 . S
C388 H363 0.930 . S
C388 C391 1.388 . S
C388 C393 1.418 . S
C389 H384 0.930 . S
C389 C392 1.404 . S
C389 C393 1.353 . S
N390 Co355 2.145 . S
N390 C391 1.397 . S
N390 C392 1.334 . S
C391 H372 0.929 . S
C391 C388 1.388 . S
C391 N390 1.397 . S
C392 H373 0.929 . S
C392 C389 1.404 . S
C392 N390 1.334 . S
C393 H385 0.930 . S
C393 C388 1.418 . S
C393 C389 1.353 . S
C394 H364 0.930 . S
C394 N395 1.330 . S
C394 C396 1.446 . S
N395 Co354 2.151 . S
N395 C394 1.330 . S
N395 C399 1.418 . S
C396 H375 0.929 . S
C396 C394 1.446 . S
C396 C397 1.332 . S
C397 H377 0.931 . S
C397 C396 1.332 . S
C397 C398 1.267 . S
C398 H366 0.929 . S
C398 C397 1.267 . S
C398 C399 1.251 . S
C399 H369 0.929 . S
C399 N395 1.418 . S
C399 C398 1.251 . S
C400 H367 0.930 . S
C400 C402 1.406 . S
C400 C405 1.261 . S
C401 H368 0.930 . S
C401 N403 1.325 . S
C401 C404 1.357 . S
C402 H370 0.928 . S
C402 C400 1.406 . S
C402 N403 1.261 . S
N403 Co354 2.214 . S
N403 C401 1.325 . S
N403 C402 1.261 . S
C404 H374 0.931 . S
C404 C401 1.357 . S
C404 C405 1.312 . S
C405 H376 0.930 . S
C405 C400 1.261 . S
C405 C404 1.312 . S
C406 O378 1.214 . S
C406 O386 1.234 . S
C407 H379 0.929 . S
C407 C410 1.391 . S
C407 C412 1.391 . S
C408 H380 0.929 . S
C408 C409 1.390 . S
C408 N411 1.391 . S
C409 H381 0.930 . S
C409 C408 1.390 . S
C409 C410 1.392 . S
C410 H382 0.929 . S
C410 C407 1.391 . S
C410 C409 1.392 . S
N411 Co355 2.257 . S
N411 C408 1.391 . S
N411 C412 1.388 . S
C412 H383 0.930 . S
C412 C407 1.391 . S
C412 N411 1.388 . S
Co413 O415 2.143 . S
Co413 O421 2.074 . S
Co413 O424 2.093 . S
Co413 O437 2.097 . S
Co413 N454 2.151 . S
Co413 N462 2.214 . S
Co414 O415 2.160 . S
Co414 O420 2.058 . S
Co414 O430 2.057 . S
Co414 O445 2.037 . S
Co414 N449 2.145 . S
Co414 N470 2.257 . S
O415 Co413 2.143 . S
O415 Co414 2.160 . S
C416 O417 1.278 . S
C416 O424 1.224 . S
O417 C416 1.278 . S
C418 O419 1.245 . S
C418 O430 1.232 . S
O419 C418 1.245 . S
O420 Co414 2.058 . S
O420 C446 1.269 . S
O421 Co413 2.074 . S
O421 C446 1.257 . S
H422 C447 0.930 . S
H423 C453 0.930 . S
O424 Co413 2.093 . S
O424 C416 1.224 . S
H425 C457 0.929 . S
H426 C459 0.930 . S
H427 C460 0.930 . S
H428 C458 0.929 . S
H429 C461 0.928 . S
O430 Co414 2.057 . S
O430 C418 1.232 . S
H431 C450 0.929 . S
H432 C451 0.929 . S
H433 C463 0.931 . S
H434 C455 0.929 . S
H435 C464 0.930 . S
H436 C456 0.931 . S
O437 Co413 2.097 . S
O437 C465 1.214 . S
H438 C466 0.929 . S
H439 C467 0.929 . S
H440 C468 0.930 . S
H441 C469 0.929 . S
H442 C471 0.930 . S
H443 C448 0.930 . S
H444 C452 0.930 . S
O445 Co414 2.037 . S
O445 C465 1.234 . S
C446 O420 1.269 . S
C446 O421 1.257 . S
C447 H422 0.930 . S
C447 C450 1.388 . S
C447 C452 1.418 . S
C448 H443 0.930 . S
C448 C451 1.404 . S
C448 C452 1.353 . S
N449 Co414 2.145 . S
N449 C450 1.397 . S
N449 C451 1.334 . S
C450 H431 0.929 . S
C450 C447 1.388 . S
C450 N449 1.397 . S
C451 H432 0.929 . S
C451 C448 1.404 . S
C451 N449 1.334 . S
C452 H444 0.930 . S
C452 C447 1.418 . S
C452 C448 1.353 . S
C453 H423 0.930 . S
C453 N454 1.330 . S
C453 C455 1.446 . S
N454 Co413 2.151 . S
N454 C453 1.330 . S
N454 C458 1.418 . S
C455 H434 0.929 . S
C455 C453 1.446 . S
C455 C456 1.332 . S
C456 H436 0.931 . S
C456 C455 1.332 . S
C456 C457 1.267 . S
C457 H425 0.929 . S
C457 C456 1.267 . S
C457 C458 1.251 . S
C458 H428 0.929 . S
C458 N454 1.418 . S
C458 C457 1.251 . S
C459 H426 0.930 . S
C459 C461 1.406 . S
C459 C464 1.261 . S
C460 H427 0.930 . S
C460 N462 1.325 . S
C460 C463 1.357 . S
C461 H429 0.928 . S
C461 C459 1.406 . S
C461 N462 1.261 . S
N462 Co413 2.214 . S
N462 C460 1.325 . S
N462 C461 1.261 . S
C463 H433 0.931 . S
C463 C460 1.357 . S
C463 C464 1.312 . S
C464 H435 0.930 . S
C464 C459 1.261 . S
C464 C463 1.312 . S
C465 O437 1.214 . S
C465 O445 1.234 . S
C466 H438 0.929 . S
C466 C469 1.391 . S
C466 C471 1.391 . S
C467 H439 0.929 . S
C467 C468 1.390 . S
C467 N470 1.391 . S
C468 H440 0.930 . S
C468 C467 1.390 . S
C468 C469 1.392 . S
C469 H441 0.929 . S
C469 C466 1.391 . S
C469 C468 1.392 . S
N470 Co414 2.257 . S
N470 C467 1.391 . S
N470 C471 1.388 . S
C471 H442 0.930 . S
C471 C466 1.391 . S
C471 N470 1.388 . S
Co472 O474 2.143 . S
Co472 O480 2.074 . S
Co472 O483 2.093 . S
Co472 O496 2.097 . S
Co472 N513 2.151 . S
Co472 N521 2.214 . S
Co473 O474 2.160 . S
Co473 O479 2.058 . S
Co473 O489 2.057 . S
Co473 O504 2.037 . S
Co473 N508 2.145 . S
Co473 N529 2.257 . S
O474 Co472 2.143 . S
O474 Co473 2.160 . S
C475 O476 1.278 . S
C475 O483 1.224 . S
O476 C475 1.278 . S
C477 O478 1.245 . S
C477 O489 1.232 . S
O478 C477 1.245 . S
O479 Co473 2.058 . S
O479 C505 1.269 . S
O480 Co472 2.074 . S
O480 C505 1.257 . S
H481 C506 0.930 . S
H482 C512 0.930 . S
O483 Co472 2.093 . S
O483 C475 1.224 . S
H484 C516 0.929 . S
H485 C518 0.930 . S
H486 C519 0.930 . S
H487 C517 0.929 . S
H488 C520 0.928 . S
O489 Co473 2.057 . S
O489 C477 1.232 . S
H490 C509 0.929 . S
H491 C510 0.929 . S
H492 C522 0.931 . S
H493 C514 0.929 . S
H494 C523 0.930 . S
H495 C515 0.931 . S
O496 Co472 2.097 . S
O496 C524 1.214 . S
H497 C525 0.929 . S
H498 C526 0.929 . S
H499 C527 0.930 . S
H500 C528 0.929 . S
H501 C530 0.930 . S
H502 C507 0.930 . S
H503 C511 0.930 . S
O504 Co473 2.037 . S
O504 C524 1.234 . S
C505 O479 1.269 . S
C505 O480 1.257 . S
C506 H481 0.930 . S
C506 C509 1.388 . S
C506 C511 1.418 . S
C507 H502 0.930 . S
C507 C510 1.404 . S
C507 C511 1.353 . S
N508 Co473 2.145 . S
N508 C509 1.397 . S
N508 C510 1.334 . S
C509 H490 0.929 . S
C509 C506 1.388 . S
C509 N508 1.397 . S
C510 H491 0.929 . S
C510 C507 1.404 . S
C510 N508 1.334 . S
C511 H503 0.930 . S
C511 C506 1.418 . S
C511 C507 1.353 . S
C512 H482 0.930 . S
C512 N513 1.330 . S
C512 C514 1.446 . S
N513 Co472 2.151 . S
N513 C512 1.330 . S
N513 C517 1.418 . S
C514 H493 0.929 . S
C514 C512 1.446 . S
C514 C515 1.332 . S
C515 H495 0.931 . S
C515 C514 1.332 . S
C515 C516 1.267 . S
C516 H484 0.929 . S
C516 C515 1.267 . S
C516 C517 1.251 . S
C517 H487 0.929 . S
C517 N513 1.418 . S
C517 C516 1.251 . S
C518 H485 0.930 . S
C518 C520 1.406 . S
C518 C523 1.261 . S
C519 H486 0.930 . S
C519 N521 1.325 . S
C519 C522 1.357 . S
C520 H488 0.928 . S
C520 C518 1.406 . S
C520 N521 1.261 . S
N521 Co472 2.214 . S
N521 C519 1.325 . S
N521 C520 1.261 . S
C522 H492 0.931 . S
C522 C519 1.357 . S
C522 C523 1.312 . S
C523 H494 0.930 . S
C523 C518 1.261 . S
C523 C522 1.312 . S
C524 O496 1.214 . S
C524 O504 1.234 . S
C525 H497 0.929 . S
C525 C528 1.391 . S
C525 C530 1.391 . S
C526 H498 0.929 . S
C526 C527 1.390 . S
C526 N529 1.391 . S
C527 H499 0.930 . S
C527 C526 1.390 . S
C527 C528 1.392 . S
C528 H500 0.929 . S
C528 C525 1.391 . S
C528 C527 1.392 . S
N529 Co473 2.257 . S
N529 C526 1.391 . S
N529 C530 1.388 . S
C530 H501 0.930 . S
C530 C525 1.391 . S
C530 N529 1.388 . S
Co531 O533 2.143 . S
Co531 O539 2.074 . S
Co531 O542 2.093 . S
Co531 O555 2.097 . S
Co531 N572 2.151 . S
Co531 N580 2.214 . S
Co532 O533 2.160 . S
Co532 O538 2.058 . S
Co532 O548 2.057 . S
Co532 O563 2.037 . S
Co532 N567 2.145 . S
Co532 N588 2.257 . S
O533 Co531 2.143 . S
O533 Co532 2.160 . S
C534 O535 1.278 . S
C534 O542 1.224 . S
O535 C534 1.278 . S
C536 O537 1.245 . S
C536 O548 1.232 . S
O537 C536 1.245 . S
O538 Co532 2.058 . S
O538 C564 1.269 . S
O539 Co531 2.074 . S
O539 C564 1.257 . S
H540 C565 0.930 . S
H541 C571 0.930 . S
O542 Co531 2.093 . S
O542 C534 1.224 . S
H543 C575 0.929 . S
H544 C577 0.930 . S
H545 C578 0.930 . S
H546 C576 0.929 . S
H547 C579 0.928 . S
O548 Co532 2.057 . S
O548 C536 1.232 . S
H549 C568 0.929 . S
H550 C569 0.929 . S
H551 C581 0.931 . S
H552 C573 0.929 . S
H553 C582 0.930 . S
H554 C574 0.931 . S
O555 Co531 2.097 . S
O555 C583 1.214 . S
H556 C584 0.929 . S
H557 C585 0.929 . S
H558 C586 0.930 . S
H559 C587 0.929 . S
H560 C589 0.930 . S
H561 C566 0.930 . S
H562 C570 0.930 . S
O563 Co532 2.037 . S
O563 C583 1.234 . S
C564 O538 1.269 . S
C564 O539 1.257 . S
C565 H540 0.930 . S
C565 C568 1.388 . S
C565 C570 1.418 . S
C566 H561 0.930 . S
C566 C569 1.404 . S
C566 C570 1.353 . S
N567 Co532 2.145 . S
N567 C568 1.397 . S
N567 C569 1.334 . S
C568 H549 0.929 . S
C568 C565 1.388 . S
C568 N567 1.397 . S
C569 H550 0.929 . S
C569 C566 1.404 . S
C569 N567 1.334 . S
C570 H562 0.930 . S
C570 C565 1.418 . S
C570 C566 1.353 . S
C571 H541 0.930 . S
C571 N572 1.330 . S
C571 C573 1.446 . S
N572 Co531 2.151 . S
N572 C571 1.330 . S
N572 C576 1.418 . S
C573 H552 0.929 . S
C573 C571 1.446 . S
C573 C574 1.332 . S
C574 H554 0.931 . S
C574 C573 1.332 . S
C574 C575 1.267 . S
C575 H543 0.929 . S
C575 C574 1.267 . S
C575 C576 1.251 . S
C576 H546 0.929 . S
C576 N572 1.418 . S
C576 C575 1.251 . S
C577 H544 0.930 . S
C577 C579 1.406 . S
C577 C582 1.261 . S
C578 H545 0.930 . S
C578 N580 1.325 . S
C578 C581 1.357 . S
C579 H547 0.928 . S
C579 C577 1.406 . S
C579 N580 1.261 . S
N580 Co531 2.214 . S
N580 C578 1.325 . S
N580 C579 1.261 . S
C581 H551 0.931 . S
C581 C578 1.357 . S
C581 C582 1.312 . S
C582 H553 0.930 . S
C582 C577 1.261 . S
C582 C581 1.312 . S
C583 O555 1.214 . S
C583 O563 1.234 . S
C584 H556 0.929 . S
C584 C587 1.391 . S
C584 C589 1.391 . S
C585 H557 0.929 . S
C585 C586 1.390 . S
C585 N588 1.391 . S
C586 H558 0.930 . S
C586 C585 1.390 . S
C586 C587 1.392 . S
C587 H559 0.929 . S
C587 C584 1.391 . S
C587 C586 1.392 . S
N588 Co532 2.257 . S
N588 C585 1.391 . S
N588 C589 1.388 . S
C589 H560 0.930 . S
C589 C584 1.391 . S
C589 N588 1.388 . S
Co590 O592 2.143 . S
Co590 O598 2.074 . S
Co590 O601 2.093 . S
Co590 O614 2.097 . S
Co590 N631 2.151 . S
Co590 N639 2.214 . S
Co591 O592 2.160 . S
Co591 O597 2.058 . S
Co591 O607 2.057 . S
Co591 O622 2.037 . S
Co591 N626 2.145 . S
Co591 N647 2.257 . S
O592 Co590 2.143 . S
O592 Co591 2.160 . S
C593 O594 1.278 . S
C593 O601 1.224 . S
O594 C593 1.278 . S
C595 O596 1.245 . S
C595 O607 1.232 . S
O596 C595 1.245 . S
O597 Co591 2.058 . S
O597 C623 1.269 . S
O598 Co590 2.074 . S
O598 C623 1.257 . S
H599 C624 0.930 . S
H600 C630 0.930 . S
O601 Co590 2.093 . S
O601 C593 1.224 . S
H602 C634 0.929 . S
H603 C636 0.930 . S
H604 C637 0.930 . S
H605 C635 0.929 . S
H606 C638 0.928 . S
O607 Co591 2.057 . S
O607 C595 1.232 . S
H608 C627 0.929 . S
H609 C628 0.929 . S
H610 C640 0.931 . S
H611 C632 0.929 . S
H612 C641 0.930 . S
H613 C633 0.931 . S
O614 Co590 2.097 . S
O614 C642 1.214 . S
H615 C643 0.929 . S
H616 C644 0.929 . S
H617 C645 0.930 . S
H618 C646 0.929 . S
H619 C648 0.930 . S
H620 C625 0.930 . S
H621 C629 0.930 . S
O622 Co591 2.037 . S
O622 C642 1.234 . S
C623 O597 1.269 . S
C623 O598 1.257 . S
C624 H599 0.930 . S
C624 C627 1.388 . S
C624 C629 1.418 . S
C625 H620 0.930 . S
C625 C628 1.404 . S
C625 C629 1.353 . S
N626 Co591 2.145 . S
N626 C627 1.397 . S
N626 C628 1.334 . S
C627 H608 0.929 . S
C627 C624 1.388 . S
C627 N626 1.397 . S
C628 H609 0.929 . S
C628 C625 1.404 . S
C628 N626 1.334 . S
C629 H621 0.930 . S
C629 C624 1.418 . S
C629 C625 1.353 . S
C630 H600 0.930 . S
C630 N631 1.330 . S
C630 C632 1.446 . S
N631 Co590 2.151 . S
N631 C630 1.330 . S
N631 C635 1.418 . S
C632 H611 0.929 . S
C632 C630 1.446 . S
C632 C633 1.332 . S
C633 H613 0.931 . S
C633 C632 1.332 . S
C633 C634 1.267 . S
C634 H602 0.929 . S
C634 C633 1.267 . S
C634 C635 1.251 . S
C635 H605 0.929 . S
C635 N631 1.418 . S
C635 C634 1.251 . S
C636 H603 0.930 . S
C636 C638 1.406 . S
C636 C641 1.261 . S
C637 H604 0.930 . S
C637 N639 1.325 . S
C637 C640 1.357 . S
C638 H606 0.928 . S
C638 C636 1.406 . S
C638 N639 1.261 . S
N639 Co590 2.214 . S
N639 C637 1.325 . S
N639 C638 1.261 . S
C640 H610 0.931 . S
C640 C637 1.357 . S
C640 C641 1.312 . S
C641 H612 0.930 . S
C641 C636 1.261 . S
C641 C640 1.312 . S
C642 O614 1.214 . S
C642 O622 1.234 . S
C643 H615 0.929 . S
C643 C646 1.391 . S
C643 C648 1.391 . S
C644 H616 0.929 . S
C644 C645 1.390 . S
C644 N647 1.391 . S
C645 H617 0.930 . S
C645 C644 1.390 . S
C645 C646 1.392 . S
C646 H618 0.929 . S
C646 C643 1.391 . S
C646 C645 1.392 . S
N647 Co591 2.257 . S
N647 C644 1.391 . S
N647 C648 1.388 . S
C648 H619 0.930 . S
C648 C643 1.391 . S
C648 N647 1.388 . S
Co649 O651 2.143 . S
Co649 O657 2.074 . S
Co649 O660 2.093 . S
Co649 O673 2.097 . S
Co649 N690 2.151 . S
Co649 N698 2.214 . S
Co650 O651 2.160 . S
Co650 O656 2.058 . S
Co650 O666 2.057 . S
Co650 O681 2.037 . S
Co650 N685 2.145 . S
Co650 N706 2.257 . S
O651 Co649 2.143 . S
O651 Co650 2.160 . S
C652 O653 1.278 . S
C652 O660 1.224 . S
O653 C652 1.278 . S
C654 O655 1.245 . S
C654 O666 1.232 . S
O655 C654 1.245 . S
O656 Co650 2.058 . S
O656 C682 1.269 . S
O657 Co649 2.074 . S
O657 C682 1.257 . S
H658 C683 0.930 . S
H659 C689 0.930 . S
O660 Co649 2.093 . S
O660 C652 1.224 . S
H661 C693 0.929 . S
H662 C695 0.930 . S
H663 C696 0.930 . S
H664 C694 0.929 . S
H665 C697 0.928 . S
O666 Co650 2.057 . S
O666 C654 1.232 . S
H667 C686 0.929 . S
H668 C687 0.929 . S
H669 C699 0.931 . S
H670 C691 0.929 . S
H671 C700 0.930 . S
H672 C692 0.931 . S
O673 Co649 2.097 . S
O673 C701 1.214 . S
H674 C702 0.929 . S
H675 C703 0.929 . S
H676 C704 0.930 . S
H677 C705 0.929 . S
H678 C707 0.930 . S
H679 C684 0.930 . S
H680 C688 0.930 . S
O681 Co650 2.037 . S
O681 C701 1.234 . S
C682 O656 1.269 . S
C682 O657 1.257 . S
C683 H658 0.930 . S
C683 C686 1.388 . S
C683 C688 1.418 . S
C684 H679 0.930 . S
C684 C687 1.404 . S
C684 C688 1.353 . S
N685 Co650 2.145 . S
N685 C686 1.397 . S
N685 C687 1.334 . S
C686 H667 0.929 . S
C686 C683 1.388 . S
C686 N685 1.397 . S
C687 H668 0.929 . S
C687 C684 1.404 . S
C687 N685 1.334 . S
C688 H680 0.930 . S
C688 C683 1.418 . S
C688 C684 1.353 . S
C689 H659 0.930 . S
C689 N690 1.330 . S
C689 C691 1.446 . S
N690 Co649 2.151 . S
N690 C689 1.330 . S
N690 C694 1.418 . S
C691 H670 0.929 . S
C691 C689 1.446 . S
C691 C692 1.332 . S
C692 H672 0.931 . S
C692 C691 1.332 . S
C692 C693 1.267 . S
C693 H661 0.929 . S
C693 C692 1.267 . S
C693 C694 1.251 . S
C694 H664 0.929 . S
C694 N690 1.418 . S
C694 C693 1.251 . S
C695 H662 0.930 . S
C695 C697 1.406 . S
C695 C700 1.261 . S
C696 H663 0.930 . S
C696 N698 1.325 . S
C696 C699 1.357 . S
C697 H665 0.928 . S
C697 C695 1.406 . S
C697 N698 1.261 . S
N698 Co649 2.214 . S
N698 C696 1.325 . S
N698 C697 1.261 . S
C699 H669 0.931 . S
C699 C696 1.357 . S
C699 C700 1.312 . S
C700 H671 0.930 . S
C700 C695 1.261 . S
C700 C699 1.312 . S
C701 O673 1.214 . S
C701 O681 1.234 . S
C702 H674 0.929 . S
C702 C705 1.391 . S
C702 C707 1.391 . S
C703 H675 0.929 . S
C703 C704 1.390 . S
C703 N706 1.391 . S
C704 H676 0.930 . S
C704 C703 1.390 . S
C704 C705 1.392 . S
C705 H677 0.929 . S
C705 C702 1.391 . S
C705 C704 1.392 . S
N706 Co650 2.257 . S
N706 C703 1.391 . S
N706 C707 1.388 . S
C707 H678 0.930 . S
C707 C702 1.391 . S
C707 N706 1.388 . S
Co708 O710 2.143 . S
Co708 O716 2.074 . S
Co708 O719 2.093 . S
Co708 O732 2.097 . S
Co708 N749 2.151 . S
Co708 N757 2.214 . S
Co709 O710 2.160 . S
Co709 O715 2.058 . S
Co709 O725 2.057 . S
Co709 O740 2.037 . S
Co709 N744 2.145 . S
Co709 N765 2.257 . S
O710 Co708 2.143 . S
O710 Co709 2.160 . S
C711 O712 1.278 . S
C711 O719 1.224 . S
O712 C711 1.278 . S
C713 O714 1.245 . S
C713 O725 1.232 . S
O714 C713 1.245 . S
O715 Co709 2.058 . S
O715 C741 1.269 . S
O716 Co708 2.074 . S
O716 C741 1.257 . S
H717 C742 0.930 . S
H718 C748 0.930 . S
O719 Co708 2.093 . S
O719 C711 1.224 . S
H720 C752 0.929 . S
H721 C754 0.930 . S
H722 C755 0.930 . S
H723 C753 0.929 . S
H724 C756 0.928 . S
O725 Co709 2.057 . S
O725 C713 1.232 . S
H726 C745 0.929 . S
H727 C746 0.929 . S
H728 C758 0.931 . S
H729 C750 0.929 . S
H730 C759 0.930 . S
H731 C751 0.931 . S
O732 Co708 2.097 . S
O732 C760 1.214 . S
H733 C761 0.929 . S
H734 C762 0.929 . S
H735 C763 0.930 . S
H736 C764 0.929 . S
H737 C766 0.930 . S
H738 C743 0.930 . S
H739 C747 0.930 . S
O740 Co709 2.037 . S
O740 C760 1.234 . S
C741 O715 1.269 . S
C741 O716 1.257 . S
C742 H717 0.930 . S
C742 C745 1.388 . S
C742 C747 1.418 . S
C743 H738 0.930 . S
C743 C746 1.404 . S
C743 C747 1.353 . S
N744 Co709 2.145 . S
N744 C745 1.397 . S
N744 C746 1.334 . S
C745 H726 0.929 . S
C745 C742 1.388 . S
C745 N744 1.397 . S
C746 H727 0.929 . S
C746 C743 1.404 . S
C746 N744 1.334 . S
C747 H739 0.930 . S
C747 C742 1.418 . S
C747 C743 1.353 . S
C748 H718 0.930 . S
C748 N749 1.330 . S
C748 C750 1.446 . S
N749 Co708 2.151 . S
N749 C748 1.330 . S
N749 C753 1.418 . S
C750 H729 0.929 . S
C750 C748 1.446 . S
C750 C751 1.332 . S
C751 H731 0.931 . S
C751 C750 1.332 . S
C751 C752 1.267 . S
C752 H720 0.929 . S
C752 C751 1.267 . S
C752 C753 1.251 . S
C753 H723 0.929 . S
C753 N749 1.418 . S
C753 C752 1.251 . S
C754 H721 0.930 . S
C754 C756 1.406 . S
C754 C759 1.261 . S
C755 H722 0.930 . S
C755 N757 1.325 . S
C755 C758 1.357 . S
C756 H724 0.928 . S
C756 C754 1.406 . S
C756 N757 1.261 . S
N757 Co708 2.214 . S
N757 C755 1.325 . S
N757 C756 1.261 . S
C758 H728 0.931 . S
C758 C755 1.357 . S
C758 C759 1.312 . S
C759 H730 0.930 . S
C759 C754 1.261 . S
C759 C758 1.312 . S
C760 O732 1.214 . S
C760 O740 1.234 . S
C761 H733 0.929 . S
C761 C764 1.391 . S
C761 C766 1.391 . S
C762 H734 0.929 . S
C762 C763 1.390 . S
C762 N765 1.391 . S
C763 H735 0.930 . S
C763 C762 1.390 . S
C763 C764 1.392 . S
C764 H736 0.929 . S
C764 C761 1.391 . S
C764 C763 1.392 . S
N765 Co709 2.257 . S
N765 C762 1.391 . S
N765 C766 1.388 . S
C766 H737 0.930 . S
C766 C761 1.391 . S
C766 N765 1.388 . S
Co767 O769 2.143 . S
Co767 O775 2.074 . S
Co767 O778 2.093 . S
Co767 O791 2.097 . S
Co767 N808 2.151 . S
Co767 N816 2.214 . S
Co768 O769 2.160 . S
Co768 O774 2.058 . S
Co768 O784 2.057 . S
Co768 O799 2.037 . S
Co768 N803 2.145 . S
Co768 N824 2.257 . S
O769 Co767 2.143 . S
O769 Co768 2.160 . S
C770 O771 1.278 . S
C770 O778 1.224 . S
O771 C770 1.278 . S
C772 O773 1.245 . S
C772 O784 1.232 . S
O773 C772 1.245 . S
O774 Co768 2.058 . S
O774 C800 1.269 . S
O775 Co767 2.074 . S
O775 C800 1.257 . S
H776 C801 0.930 . S
H777 C807 0.930 . S
O778 Co767 2.093 . S
O778 C770 1.224 . S
H779 C811 0.929 . S
H780 C813 0.930 . S
H781 C814 0.930 . S
H782 C812 0.929 . S
H783 C815 0.928 . S
O784 Co768 2.057 . S
O784 C772 1.232 . S
H785 C804 0.929 . S
H786 C805 0.929 . S
H787 C817 0.931 . S
H788 C809 0.929 . S
H789 C818 0.930 . S
H790 C810 0.931 . S
O791 Co767 2.097 . S
O791 C819 1.214 . S
H792 C820 0.929 . S
H793 C821 0.929 . S
H794 C822 0.930 . S
H795 C823 0.929 . S
H796 C825 0.930 . S
H797 C802 0.930 . S
H798 C806 0.930 . S
O799 Co768 2.037 . S
O799 C819 1.234 . S
C800 O774 1.269 . S
C800 O775 1.257 . S
C801 H776 0.930 . S
C801 C804 1.388 . S
C801 C806 1.418 . S
C802 H797 0.930 . S
C802 C805 1.404 . S
C802 C806 1.353 . S
N803 Co768 2.145 . S
N803 C804 1.397 . S
N803 C805 1.334 . S
C804 H785 0.929 . S
C804 C801 1.388 . S
C804 N803 1.397 . S
C805 H786 0.929 . S
C805 C802 1.404 . S
C805 N803 1.334 . S
C806 H798 0.930 . S
C806 C801 1.418 . S
C806 C802 1.353 . S
C807 H777 0.930 . S
C807 N808 1.330 . S
C807 C809 1.446 . S
N808 Co767 2.151 . S
N808 C807 1.330 . S
N808 C812 1.418 . S
C809 H788 0.929 . S
C809 C807 1.446 . S
C809 C810 1.332 . S
C810 H790 0.931 . S
C810 C809 1.332 . S
C810 C811 1.267 . S
C811 H779 0.929 . S
C811 C810 1.267 . S
C811 C812 1.251 . S
C812 H782 0.929 . S
C812 N808 1.418 . S
C812 C811 1.251 . S
C813 H780 0.930 . S
C813 C815 1.406 . S
C813 C818 1.261 . S
C814 H781 0.930 . S
C814 N816 1.325 . S
C814 C817 1.357 . S
C815 H783 0.928 . S
C815 C813 1.406 . S
C815 N816 1.261 . S
N816 Co767 2.214 . S
N816 C814 1.325 . S
N816 C815 1.261 . S
C817 H787 0.931 . S
C817 C814 1.357 . S
C817 C818 1.312 . S
C818 H789 0.930 . S
C818 C813 1.261 . S
C818 C817 1.312 . S
C819 O791 1.214 . S
C819 O799 1.234 . S
C820 H792 0.929 . S
C820 C823 1.391 . S
C820 C825 1.391 . S
C821 H793 0.929 . S
C821 C822 1.390 . S
C821 N824 1.391 . S
C822 H794 0.930 . S
C822 C821 1.390 . S
C822 C823 1.392 . S
C823 H795 0.929 . S
C823 C820 1.391 . S
C823 C822 1.392 . S
N824 Co768 2.257 . S
N824 C821 1.391 . S
N824 C825 1.388 . S
C825 H796 0.930 . S
C825 C820 1.391 . S
C825 N824 1.388 . S
Co826 O828 2.143 . S
Co826 O834 2.074 . S
Co826 O837 2.093 . S
Co826 O850 2.097 . S
Co826 N867 2.151 . S
Co826 N875 2.214 . S
Co827 O828 2.160 . S
Co827 O833 2.058 . S
Co827 O843 2.057 . S
Co827 O858 2.037 . S
Co827 N862 2.145 . S
Co827 N883 2.257 . S
O828 Co826 2.143 . S
O828 Co827 2.160 . S
C829 O830 1.278 . S
C829 O837 1.224 . S
O830 C829 1.278 . S
C831 O832 1.245 . S
C831 O843 1.232 . S
O832 C831 1.245 . S
O833 Co827 2.058 . S
O833 C859 1.269 . S
O834 Co826 2.074 . S
O834 C859 1.257 . S
H835 C860 0.930 . S
H836 C866 0.930 . S
O837 Co826 2.093 . S
O837 C829 1.224 . S
H838 C870 0.929 . S
H839 C872 0.930 . S
H840 C873 0.930 . S
H841 C871 0.929 . S
H842 C874 0.928 . S
O843 Co827 2.057 . S
O843 C831 1.232 . S
H844 C863 0.929 . S
H845 C864 0.929 . S
H846 C876 0.931 . S
H847 C868 0.929 . S
H848 C877 0.930 . S
H849 C869 0.931 . S
O850 Co826 2.097 . S
O850 C878 1.214 . S
H851 C879 0.929 . S
H852 C880 0.929 . S
H853 C881 0.930 . S
H854 C882 0.929 . S
H855 C884 0.930 . S
H856 C861 0.930 . S
H857 C865 0.930 . S
O858 Co827 2.037 . S
O858 C878 1.234 . S
C859 O833 1.269 . S
C859 O834 1.257 . S
C860 H835 0.930 . S
C860 C863 1.388 . S
C860 C865 1.418 . S
C861 H856 0.930 . S
C861 C864 1.404 . S
C861 C865 1.353 . S
N862 Co827 2.145 . S
N862 C863 1.397 . S
N862 C864 1.334 . S
C863 H844 0.929 . S
C863 C860 1.388 . S
C863 N862 1.397 . S
C864 H845 0.929 . S
C864 C861 1.404 . S
C864 N862 1.334 . S
C865 H857 0.930 . S
C865 C860 1.418 . S
C865 C861 1.353 . S
C866 H836 0.930 . S
C866 N867 1.330 . S
C866 C868 1.446 . S
N867 Co826 2.151 . S
N867 C866 1.330 . S
N867 C871 1.418 . S
C868 H847 0.929 . S
C868 C866 1.446 . S
C868 C869 1.332 . S
C869 H849 0.931 . S
C869 C868 1.332 . S
C869 C870 1.267 . S
C870 H838 0.929 . S
C870 C869 1.267 . S
C870 C871 1.251 . S
C871 H841 0.929 . S
C871 N867 1.418 . S
C871 C870 1.251 . S
C872 H839 0.930 . S
C872 C874 1.406 . S
C872 C877 1.261 . S
C873 H840 0.930 . S
C873 N875 1.325 . S
C873 C876 1.357 . S
C874 H842 0.928 . S
C874 C872 1.406 . S
C874 N875 1.261 . S
N875 Co826 2.214 . S
N875 C873 1.325 . S
N875 C874 1.261 . S
C876 H846 0.931 . S
C876 C873 1.357 . S
C876 C877 1.312 . S
C877 H848 0.930 . S
C877 C872 1.261 . S
C877 C876 1.312 . S
C878 O850 1.214 . S
C878 O858 1.234 . S
C879 H851 0.929 . S
C879 C882 1.391 . S
C879 C884 1.391 . S
C880 H852 0.929 . S
C880 C881 1.390 . S
C880 N883 1.391 . S
C881 H853 0.930 . S
C881 C880 1.390 . S
C881 C882 1.392 . S
C882 H854 0.929 . S
C882 C879 1.391 . S
C882 C881 1.392 . S
N883 Co827 2.257 . S
N883 C880 1.391 . S
N883 C884 1.388 . S
C884 H855 0.930 . S
C884 C879 1.391 . S
C884 N883 1.388 . S
Co885 O887 2.143 . S
Co885 O893 2.074 . S
Co885 O896 2.093 . S
Co885 O909 2.097 . S
Co885 N926 2.151 . S
Co885 N934 2.214 . S
Co886 O887 2.160 . S
Co886 O892 2.058 . S
Co886 O902 2.057 . S
Co886 O917 2.037 . S
Co886 N921 2.145 . S
Co886 N942 2.257 . S
O887 Co885 2.143 . S
O887 Co886 2.160 . S
C888 O889 1.278 . S
C888 O896 1.224 . S
O889 C888 1.278 . S
C890 O891 1.245 . S
C890 O902 1.232 . S
O891 C890 1.245 . S
O892 Co886 2.058 . S
O892 C918 1.269 . S
O893 Co885 2.074 . S
O893 C918 1.257 . S
H894 C919 0.930 . S
H895 C925 0.930 . S
O896 Co885 2.093 . S
O896 C888 1.224 . S
H897 C929 0.929 . S
H898 C931 0.930 . S
H899 C932 0.930 . S
H900 C930 0.929 . S
H901 C933 0.928 . S
O902 Co886 2.057 . S
O902 C890 1.232 . S
H903 C922 0.929 . S
H904 C923 0.929 . S
H905 C935 0.931 . S
H906 C927 0.929 . S
H907 C936 0.930 . S
H908 C928 0.931 . S
O909 Co885 2.097 . S
O909 C937 1.214 . S
H910 C938 0.929 . S
H911 C939 0.929 . S
H912 C940 0.930 . S
H913 C941 0.929 . S
H914 C943 0.930 . S
H915 C920 0.930 . S
H916 C924 0.930 . S
O917 Co886 2.037 . S
O917 C937 1.234 . S
C918 O892 1.269 . S
C918 O893 1.257 . S
C919 H894 0.930 . S
C919 C922 1.388 . S
C919 C924 1.418 . S
C920 H915 0.930 . S
C920 C923 1.404 . S
C920 C924 1.353 . S
N921 Co886 2.145 . S
N921 C922 1.397 . S
N921 C923 1.334 . S
C922 H903 0.929 . S
C922 C919 1.388 . S
C922 N921 1.397 . S
C923 H904 0.929 . S
C923 C920 1.404 . S
C923 N921 1.334 . S
C924 H916 0.930 . S
C924 C919 1.418 . S
C924 C920 1.353 . S
C925 H895 0.930 . S
C925 N926 1.330 . S
C925 C927 1.446 . S
N926 Co885 2.151 . S
N926 C925 1.330 . S
N926 C930 1.418 . S
C927 H906 0.929 . S
C927 C925 1.446 . S
C927 C928 1.332 . S
C928 H908 0.931 . S
C928 C927 1.332 . S
C928 C929 1.267 . S
C929 H897 0.929 . S
C929 C928 1.267 . S
C929 C930 1.251 . S
C930 H900 0.929 . S
C930 N926 1.418 . S
C930 C929 1.251 . S
C931 H898 0.930 . S
C931 C933 1.406 . S
C931 C936 1.261 . S
C932 H899 0.930 . S
C932 N934 1.325 . S
C932 C935 1.357 . S
C933 H901 0.928 . S
C933 C931 1.406 . S
C933 N934 1.261 . S
N934 Co885 2.214 . S
N934 C932 1.325 . S
N934 C933 1.261 . S
C935 H905 0.931 . S
C935 C932 1.357 . S
C935 C936 1.312 . S
C936 H907 0.930 . S
C936 C931 1.261 . S
C936 C935 1.312 . S
C937 O909 1.214 . S
C937 O917 1.234 . S
C938 H910 0.929 . S
C938 C941 1.391 . S
C938 C943 1.391 . S
C939 H911 0.929 . S
C939 C940 1.390 . S
C939 N942 1.391 . S
C940 H912 0.930 . S
C940 C939 1.390 . S
C940 C941 1.392 . S
C941 H913 0.929 . S
C941 C938 1.391 . S
C941 C940 1.392 . S
N942 Co886 2.257 . S
N942 C939 1.391 . S
N942 C943 1.388 . S
C943 H914 0.930 . S
C943 C938 1.391 . S
C943 N942 1.388 . S
C944 C945 1.369 . S
C944 C946 1.419 1_455 S
C944 H948 0.930 . S
C945 C944 1.369 . S
C945 C954 1.429 . S
C946 C944 1.419 1_655 S
C946 C947 1.363 . S
C946 H949 0.929 . S
C947 C946 1.363 . S
C947 C953 1.428 . S
H948 C944 0.930 . S
H949 C946 0.929 . S
S950 N951 1.613 1_655 S
S950 N952 1.610 . S
N951 S950 1.613 1_455 S
N951 C954 1.350 . S
N952 S950 1.610 . S
N952 C953 1.351 . S
C953 C947 1.428 . S
C953 N952 1.351 . S
C953 C954 1.434 1_655 S
C954 C945 1.429 . S
C954 N951 1.350 . S
C954 C953 1.434 1_455 S
C955 C956 1.369 . S
C955 C957 1.419 1_565 S
C955 H959 0.930 . S
C956 C955 1.369 . S
C956 C965 1.429 . S
C957 C955 1.419 1_545 S
C957 C958 1.363 . S
C957 H960 0.929 . S
C958 C957 1.363 . S
C958 C964 1.428 . S
H959 C955 0.930 . S
H960 C957 0.929 . S
S961 N962 1.613 . S
S961 N963 1.610 1_565 S
N962 S961 1.613 . S
N962 C965 1.350 . S
N963 S961 1.610 1_545 S
N963 C964 1.351 . S
C964 C958 1.428 . S
C964 N963 1.351 . S
C964 C965 1.434 1_545 S
C965 C956 1.429 . S
C965 N962 1.350 . S
C965 C964 1.434 1_565 S
C966 C967 1.369 . S
C966 C968 1.419 1_455 S
C966 H970 0.930 . S
C967 C966 1.369 . S
C967 C976 1.429 . S
C968 C966 1.419 1_655 S
C968 C969 1.363 . S
C968 H971 0.929 . S
C969 C968 1.363 . S
C969 C975 1.428 . S
H970 C966 0.930 . S
H971 C968 0.929 . S
S972 N973 1.613 . S
S972 N974 1.610 1_455 S
N973 S972 1.613 . S
N973 C976 1.350 . S
N974 S972 1.610 1_655 S
N974 C975 1.351 . S
C975 C969 1.428 . S
C975 N974 1.351 . S
C975 C976 1.434 1_655 S
C976 C967 1.429 . S
C976 N973 1.350 . S
C976 C975 1.434 1_455 S
C977 C978 1.369 . S
C977 C979 1.419 1_565 S
C977 H981 0.930 . S
C978 C977 1.369 . S
C978 C987 1.429 . S
C979 C977 1.419 1_545 S
C979 C980 1.363 . S
C979 H982 0.929 . S
C980 C979 1.363 . S
C980 C986 1.428 . S
H981 C977 0.930 . S
H982 C979 0.929 . S
S983 N984 1.613 1_545 S
S983 N985 1.610 . S
N984 S983 1.613 1_565 S
N984 C987 1.350 . S
N985 S983 1.610 . S
N985 C986 1.351 . S
C986 C980 1.428 . S
C986 N985 1.351 . S
C986 C987 1.434 1_545 S
C987 C978 1.429 . S
C987 N984 1.350 . S
C987 C986 1.434 1_565 S
C988 C989 1.369 . S
C988 C990 1.419 1_655 S
C988 H992 0.930 . S
C989 C988 1.369 . S
C989 C998 1.429 . S
C990 C988 1.419 1_455 S
C990 C991 1.363 . S
C990 H993 0.929 . S
C991 C990 1.363 . S
C991 C997 1.428 . S
H992 C988 0.930 . S
H993 C990 0.929 . S
S994 N995 1.613 . S
S994 N996 1.610 1_655 S
N995 S994 1.613 . S
N995 C998 1.350 . S
N996 S994 1.610 1_455 S
N996 C997 1.351 . S
C997 C991 1.428 . S
C997 N996 1.351 . S
C997 C998 1.434 1_455 S
C998 C989 1.429 . S
C998 N995 1.350 . S
C998 C997 1.434 1_655 S
C999 C1000 1.369 . S
C999 C1001 1.419 1_545 S
C999 H1003 0.930 . S
C1000 C999 1.369 . S
C1000 C1009 1.429 . S
C1001 C999 1.419 1_565 S
C1001 C1002 1.363 . S
C1001 H1004 0.929 . S
C1002 C1001 1.363 . S
C1002 C1008 1.428 . S
H1003 C999 0.930 . S
H1004 C1001 0.929 . S
S1005 N1006 1.613 1_565 S
S1005 N1007 1.610 . S
N1006 S1005 1.613 1_545 S
N1006 C1009 1.350 . S
N1007 S1005 1.610 . S
N1007 C1008 1.351 . S
C1008 C1002 1.428 . S
C1008 N1007 1.351 . S
C1008 C1009 1.434 1_565 S
C1009 C1000 1.429 . S
C1009 N1006 1.350 . S
C1009 C1008 1.434 1_545 S
C1010 C1011 1.369 . S
C1010 C1012 1.419 1_655 S
C1010 H1014 0.930 . S
C1011 C1010 1.369 . S
C1011 C1020 1.429 . S
C1012 C1010 1.419 1_455 S
C1012 C1013 1.363 . S
C1012 H1015 0.929 . S
C1013 C1012 1.363 . S
C1013 C1019 1.428 . S
H1014 C1010 0.930 . S
H1015 C1012 0.929 . S
S1016 N1017 1.613 1_455 S
S1016 N1018 1.610 . S
N1017 S1016 1.613 1_655 S
N1017 C1020 1.350 . S
N1018 S1016 1.610 . S
N1018 C1019 1.351 . S
C1019 C1013 1.428 . S
C1019 N1018 1.351 . S
C1019 C1020 1.434 1_455 S
C1020 C1011 1.429 . S
C1020 N1017 1.350 . S
C1020 C1019 1.434 1_655 S
C1021 C1022 1.369 . S
C1021 C1023 1.419 1_545 S
C1021 H1025 0.930 . S
C1022 C1021 1.369 . S
C1022 C1031 1.429 . S
C1023 C1021 1.419 1_565 S
C1023 C1024 1.363 . S
C1023 H1026 0.929 . S
C1024 C1023 1.363 . S
C1024 C1030 1.428 . S
H1025 C1021 0.930 . S
H1026 C1023 0.929 . S
S1027 N1028 1.613 1_565 S
S1027 N1029 1.610 . S
N1028 S1027 1.613 1_545 S
N1028 C1031 1.350 . S
N1029 S1027 1.610 . S
N1029 C1030 1.351 . S
C1030 C1024 1.428 . S
C1030 N1029 1.351 . S
C1030 C1031 1.434 1_565 S
C1031 C1022 1.429 . S
C1031 N1028 1.350 . S
C1031 C1030 1.434 1_545 S
C1032 C1033 1.369 . S
C1032 C1034 1.419 . S
C1032 H1036 0.930 . S
C1033 C1032 1.369 . S
C1033 C1042 1.429 . S
C1034 C1032 1.419 . S
C1034 C1035 1.363 . S
C1034 H1037 0.929 . S
C1035 C1034 1.363 . S
C1035 C1041 1.428 . S
H1036 C1032 0.930 . S
H1037 C1034 0.929 . S
S1038 N1039 1.613 . S
S1038 N1040 1.610 . S
N1039 S1038 1.613 . S
N1039 C1042 1.350 . S
N1040 S1038 1.610 . S
N1040 C1041 1.351 . S
C1041 C1035 1.428 . S
C1041 N1040 1.351 . S
C1041 C1042 1.434 . S
C1042 C1033 1.429 . S
C1042 N1039 1.350 . S
C1042 C1041 1.434 . S
C1043 C1044 1.369 . S
C1043 C1045 1.419 . S
C1043 H1047 0.930 . S
C1044 C1043 1.369 . S
C1044 C1053 1.429 . S
C1045 C1043 1.419 . S
C1045 C1046 1.363 . S
C1045 H1048 0.929 . S
C1046 C1045 1.363 . S
C1046 C1052 1.428 . S
H1047 C1043 0.930 . S
H1048 C1045 0.929 . S
S1049 N1050 1.613 . S
S1049 N1051 1.610 . S
N1050 S1049 1.613 . S
N1050 C1053 1.350 . S
N1051 S1049 1.610 . S
N1051 C1052 1.351 . S
C1052 C1046 1.428 . S
C1052 N1051 1.351 . S
C1052 C1053 1.434 . S
C1053 C1044 1.429 . S
C1053 N1050 1.350 . S
C1053 C1052 1.434 . S
C1054 C1055 1.369 . S
C1054 C1056 1.419 . S
C1054 H1058 0.930 . S
C1055 C1054 1.369 . S
C1055 C1064 1.429 . S
C1056 C1054 1.419 . S
C1056 C1057 1.363 . S
C1056 H1059 0.929 . S
C1057 C1056 1.363 . S
C1057 C1063 1.428 . S
H1058 C1054 0.930 . S
H1059 C1056 0.929 . S
S1060 N1061 1.613 . S
S1060 N1062 1.610 . S
N1061 S1060 1.613 . S
N1061 C1064 1.350 . S
N1062 S1060 1.610 . S
N1062 C1063 1.351 . S
C1063 C1057 1.428 . S
C1063 N1062 1.351 . S
C1063 C1064 1.434 . S
C1064 C1055 1.429 . S
C1064 N1061 1.350 . S
C1064 C1063 1.434 . S
C1065 C1066 1.369 . S
C1065 C1067 1.419 . S
C1065 H1069 0.930 . S
C1066 C1065 1.369 . S
C1066 C1075 1.429 . S
C1067 C1065 1.419 . S
C1067 C1068 1.363 . S
C1067 H1070 0.929 . S
C1068 C1067 1.363 . S
C1068 C1074 1.428 . S
H1069 C1065 0.930 . S
H1070 C1067 0.929 . S
S1071 N1072 1.613 . S
S1071 N1073 1.610 . S
N1072 S1071 1.613 . S
N1072 C1075 1.350 . S
N1073 S1071 1.610 . S
N1073 C1074 1.351 . S
C1074 C1068 1.428 . S
C1074 N1073 1.351 . S
C1074 C1075 1.434 . S
C1075 C1066 1.429 . S
C1075 N1072 1.350 . S
C1075 C1074 1.434 . S
C1076 C1077 1.369 . S
C1076 C1078 1.419 . S
C1076 H1080 0.930 . S
C1077 C1076 1.369 . S
C1077 C1086 1.429 . S
C1078 C1076 1.419 . S
C1078 C1079 1.363 . S
C1078 H1081 0.929 . S
C1079 C1078 1.363 . S
C1079 C1085 1.428 . S
H1080 C1076 0.930 . S
H1081 C1078 0.929 . S
S1082 N1083 1.613 . S
S1082 N1084 1.610 . S
N1083 S1082 1.613 . S
N1083 C1086 1.350 . S
N1084 S1082 1.610 . S
N1084 C1085 1.351 . S
C1085 C1079 1.428 . S
C1085 N1084 1.351 . S
C1085 C1086 1.434 . S
C1086 C1077 1.429 . S
C1086 N1083 1.350 . S
C1086 C1085 1.434 . S
C1087 C1088 1.369 . S
C1087 C1089 1.419 . S
C1087 H1091 0.930 . S
C1088 C1087 1.369 . S
C1088 C1097 1.429 . S
C1089 C1087 1.419 . S
C1089 C1090 1.363 . S
C1089 H1092 0.929 . S
C1090 C1089 1.363 . S
C1090 C1096 1.428 . S
H1091 C1087 0.930 . S
H1092 C1089 0.929 . S
S1093 N1094 1.613 . S
S1093 N1095 1.610 . S
N1094 S1093 1.613 . S
N1094 C1097 1.350 . S
N1095 S1093 1.610 . S
N1095 C1096 1.351 . S
C1096 C1090 1.428 . S
C1096 N1095 1.351 . S
C1096 C1097 1.434 . S
C1097 C1088 1.429 . S
C1097 N1094 1.350 . S
C1097 C1096 1.434 . S
C1098 C1099 1.369 . S
C1098 C1100 1.419 . S
C1098 H1102 0.930 . S
C1099 C1098 1.369 . S
C1099 C1108 1.429 . S
C1100 C1098 1.419 . S
C1100 C1101 1.363 . S
C1100 H1103 0.929 . S
C1101 C1100 1.363 . S
C1101 C1107 1.428 . S
H1102 C1098 0.930 . S
H1103 C1100 0.929 . S
S1104 N1105 1.613 . S
S1104 N1106 1.610 . S
N1105 S1104 1.613 . S
N1105 C1108 1.350 . S
N1106 S1104 1.610 . S
N1106 C1107 1.351 . S
C1107 C1101 1.428 . S
C1107 N1106 1.351 . S
C1107 C1108 1.434 . S
C1108 C1099 1.429 . S
C1108 N1105 1.350 . S
C1108 C1107 1.434 . S
C1109 C1110 1.369 . S
C1109 C1111 1.419 . S
C1109 H1113 0.930 . S
C1110 C1109 1.369 . S
C1110 C1119 1.429 . S
C1111 C1109 1.419 . S
C1111 C1112 1.363 . S
C1111 H1114 0.929 . S
C1112 C1111 1.363 . S
C1112 C1118 1.428 . S
H1113 C1109 0.930 . S
H1114 C1111 0.929 . S
S1115 N1116 1.613 . S
S1115 N1117 1.610 . S
N1116 S1115 1.613 . S
N1116 C1119 1.350 . S
N1117 S1115 1.610 . S
N1117 C1118 1.351 . S
C1118 C1112 1.428 . S
C1118 N1117 1.351 . S
C1118 C1119 1.434 . S
C1119 C1110 1.429 . S
C1119 N1116 1.350 . S
C1119 C1118 1.434 . S
C1120 C1121 1.369 . S
C1120 C1122 1.419 1_556 S
C1120 H1124 0.930 . S
C1121 C1120 1.369 . S
C1121 C1130 1.429 . S
C1122 C1120 1.419 1_554 S
C1122 C1123 1.363 . S
C1122 H1125 0.929 . S
C1123 C1122 1.363 . S
C1123 C1129 1.428 . S
H1124 C1120 0.930 . S
H1125 C1122 0.929 . S
S1126 N1127 1.616 1_554 S
S1126 N1128 1.608 . S
N1127 S1126 1.616 1_556 S
N1127 C1130 1.350 . S
N1128 S1126 1.608 . S
N1128 C1129 1.351 . S
C1129 C1123 1.428 . S
C1129 N1128 1.351 . S
C1129 C1130 1.434 1_554 S
C1130 C1121 1.429 . S
C1130 N1127 1.350 . S
C1130 C1129 1.434 1_556 S
C1131 C1132 1.369 . S
C1131 C1133 1.419 . S
C1131 H1135 0.930 . S
C1132 C1131 1.369 . S
C1132 C1141 1.429 . S
C1133 C1131 1.419 . S
C1133 C1134 1.363 . S
C1133 H1136 0.929 . S
C1134 C1133 1.363 . S
C1134 C1140 1.428 . S
H1135 C1131 0.930 . S
H1136 C1133 0.929 . S
S1137 N1138 1.613 . S
S1137 N1139 1.610 . S
N1138 S1137 1.613 . S
N1138 C1141 1.350 . S
N1139 S1137 1.610 . S
N1139 C1140 1.351 . S
C1140 C1134 1.428 . S
C1140 N1139 1.351 . S
C1140 C1141 1.434 . S
C1141 C1132 1.429 . S
C1141 N1138 1.350 . S
C1141 C1140 1.434 . S
C1142 C1143 1.369 . S
C1142 C1144 1.419 1_554 S
C1142 H1146 0.930 . S
C1143 C1142 1.369 . S
C1143 C1152 1.429 . S
C1144 C1142 1.419 1_556 S
C1144 C1145 1.363 . S
C1144 H1147 0.929 . S
C1145 C1144 1.363 . S
C1145 C1151 1.428 . S
H1146 C1142 0.930 . S
H1147 C1144 0.929 . S
S1148 N1149 1.616 1_556 S
S1148 N1150 1.608 . S
N1149 S1148 1.616 1_554 S
N1149 C1152 1.350 . S
N1150 S1148 1.608 . S
N1150 C1151 1.351 . S
C1151 C1145 1.428 . S
C1151 N1150 1.351 . S
C1151 C1152 1.434 1_556 S
C1152 C1143 1.429 . S
C1152 N1149 1.350 . S
C1152 C1151 1.434 1_554 S
C1153 C1154 1.369 . S
C1153 C1155 1.419 . S
C1153 H1157 0.930 . S
C1154 C1153 1.369 . S
C1154 C1163 1.429 . S
C1155 C1153 1.419 . S
C1155 C1156 1.363 . S
C1155 H1158 0.929 . S
C1156 C1155 1.363 . S
C1156 C1162 1.428 . S
H1157 C1153 0.930 . S
H1158 C1155 0.929 . S
S1159 N1160 1.613 . S
S1159 N1161 1.610 . S
N1160 S1159 1.613 . S
N1160 C1163 1.350 . S
N1161 S1159 1.610 . S
N1161 C1162 1.351 . S
C1162 C1156 1.428 . S
C1162 N1161 1.351 . S
C1162 C1163 1.434 . S
C1163 C1154 1.429 . S
C1163 N1160 1.350 . S
C1163 C1162 1.434 . S
C1164 C1165 1.369 . S
C1164 C1166 1.419 . S
C1164 H1168 0.930 . S
C1165 C1164 1.369 . S
C1165 C1174 1.429 . S
C1166 C1164 1.419 . S
C1166 C1167 1.363 . S
C1166 H1169 0.929 . S
C1167 C1166 1.363 . S
C1167 C1173 1.428 . S
H1168 C1164 0.930 . S
H1169 C1166 0.929 . S
S1170 N1171 1.613 . S
S1170 N1172 1.610 . S
N1171 S1170 1.613 . S
N1171 C1174 1.350 . S
N1172 S1170 1.610 . S
N1172 C1173 1.351 . S
C1173 C1167 1.428 . S
C1173 N1172 1.351 . S
C1173 C1174 1.434 . S
C1174 C1165 1.429 . S
C1174 N1171 1.350 . S
C1174 C1173 1.434 . S
C1175 C1176 1.369 . S
C1175 C1177 1.419 1_556 S
C1175 H1179 0.930 . S
C1176 C1175 1.369 . S
C1176 C1185 1.429 . S
C1177 C1175 1.419 1_554 S
C1177 C1178 1.363 . S
C1177 H1180 0.929 . S
C1178 C1177 1.363 . S
C1178 C1184 1.428 . S
H1179 C1175 0.930 . S
H1180 C1177 0.929 . S
S1181 N1182 1.616 1_554 S
S1181 N1183 1.608 . S
N1182 S1181 1.616 1_556 S
N1182 C1185 1.350 . S
N1183 S1181 1.608 . S
N1183 C1184 1.351 . S
C1184 C1178 1.428 . S
C1184 N1183 1.351 . S
C1184 C1185 1.434 1_554 S
C1185 C1176 1.429 . S
C1185 N1182 1.350 . S
C1185 C1184 1.434 1_556 S
C1186 C1187 1.369 . S
C1186 C1188 1.419 . S
C1186 H1190 0.930 . S
C1187 C1186 1.369 . S
C1187 C1196 1.429 . S
C1188 C1186 1.419 . S
C1188 C1189 1.363 . S
C1188 H1191 0.929 . S
C1189 C1188 1.363 . S
C1189 C1195 1.428 . S
H1190 C1186 0.930 . S
H1191 C1188 0.929 . S
S1192 N1193 1.613 . S
S1192 N1194 1.610 . S
N1193 S1192 1.613 . S
N1193 C1196 1.350 . S
N1194 S1192 1.610 . S
N1194 C1195 1.351 . S
C1195 C1189 1.428 . S
C1195 N1194 1.351 . S
C1195 C1196 1.434 . S
C1196 C1187 1.429 . S
C1196 N1193 1.350 . S
C1196 C1195 1.434 . S
C1197 C1198 1.369 . S
C1197 C1199 1.419 1_554 S
C1197 H1201 0.930 . S
C1198 C1197 1.369 . S
C1198 C1207 1.429 . S
C1199 C1197 1.419 1_556 S
C1199 C1200 1.363 . S
C1199 H1202 0.929 . S
C1200 C1199 1.363 . S
C1200 C1206 1.428 . S
H1201 C1197 0.930 . S
H1202 C1199 0.929 . S
S1203 N1204 1.616 1_556 S
S1203 N1205 1.607 . S
N1204 S1203 1.616 1_554 S
N1204 C1207 1.350 . S
N1205 S1203 1.607 . S
N1205 C1206 1.351 . S
C1206 C1200 1.428 . S
C1206 N1205 1.351 . S
C1206 C1207 1.434 1_556 S
C1207 C1198 1.429 . S
C1207 N1204 1.350 . S
C1207 C1206 1.434 1_554 S
C1208 C1209 1.369 . S
C1208 C1210 1.419 . S
C1208 H1212 0.930 . S
C1209 C1208 1.369 . S
C1209 C1218 1.429 . S
C1210 C1208 1.419 . S
C1210 C1211 1.363 . S
C1210 H1213 0.929 . S
C1211 C1210 1.363 . S
C1211 C1217 1.428 . S
H1212 C1208 0.930 . S
H1213 C1210 0.929 . S
S1214 N1215 1.613 . S
S1214 N1216 1.610 . S
N1215 S1214 1.613 . S
N1215 C1218 1.350 . S
N1216 S1214 1.610 . S
N1216 C1217 1.351 . S
C1217 C1211 1.428 . S
C1217 N1216 1.351 . S
C1217 C1218 1.434 . S
C1218 C1209 1.429 . S
C1218 N1215 1.350 . S
C1218 C1217 1.434 . S
C1219 C1220 1.369 . S
C1219 C1221 1.419 . S
C1219 H1223 0.930 . S
C1220 C1219 1.369 . S
C1220 C1229 1.429 . S
C1221 C1219 1.419 . S
C1221 C1222 1.363 . S
C1221 H1224 0.929 . S
C1222 C1221 1.363 . S
C1222 C1228 1.428 . S
H1223 C1219 0.930 . S
H1224 C1221 0.929 . S
S1225 N1226 1.613 . S
S1225 N1227 1.610 . S
N1226 S1225 1.613 . S
N1226 C1229 1.350 . S
N1227 S1225 1.610 . S
N1227 C1228 1.351 . S
C1228 C1222 1.428 . S
C1228 N1227 1.351 . S
C1228 C1229 1.434 . S
C1229 C1220 1.429 . S
C1229 N1226 1.350 . S
C1229 C1228 1.434 . S
C1230 C1231 1.369 . S
C1230 C1232 1.419 . S
C1230 H1234 0.930 . S
C1231 C1230 1.369 . S
C1231 C1240 1.429 . S
C1232 C1230 1.419 . S
C1232 C1233 1.363 . S
C1232 H1235 0.929 . S
C1233 C1232 1.363 . S
C1233 C1239 1.428 . S
H1234 C1230 0.930 . S
H1235 C1232 0.929 . S
S1236 N1237 1.613 . S
S1236 N1238 1.610 . S
N1237 S1236 1.613 . S
N1237 C1240 1.350 . S
N1238 S1236 1.610 . S
N1238 C1239 1.351 . S
C1239 C1233 1.428 . S
C1239 N1238 1.351 . S
C1239 C1240 1.434 . S
C1240 C1231 1.429 . S
C1240 N1237 1.350 . S
C1240 C1239 1.434 . S
C1241 C1242 1.369 . S
C1241 C1243 1.419 . S
C1241 H1245 0.930 . S
C1242 C1241 1.369 . S
C1242 C1251 1.429 . S
C1243 C1241 1.419 . S
C1243 C1244 1.363 . S
C1243 H1246 0.929 . S
C1244 C1243 1.363 . S
C1244 C1250 1.428 . S
H1245 C1241 0.930 . S
H1246 C1243 0.929 . S
S1247 N1248 1.613 . S
S1247 N1249 1.610 . S
N1248 S1247 1.613 . S
N1248 C1251 1.350 . S
N1249 S1247 1.610 . S
N1249 C1250 1.351 . S
C1250 C1244 1.428 . S
C1250 N1249 1.351 . S
C1250 C1251 1.434 . S
C1251 C1242 1.429 . S
C1251 N1248 1.350 . S
C1251 C1250 1.434 . S
C1252 C1253 1.369 . S
C1252 C1254 1.419 . S
C1252 H1256 0.930 . S
C1253 C1252 1.369 . S
C1253 C1262 1.429 . S
C1254 C1252 1.419 . S
C1254 C1255 1.363 . S
C1254 H1257 0.929 . S
C1255 C1254 1.363 . S
C1255 C1261 1.428 . S
H1256 C1252 0.930 . S
H1257 C1254 0.929 . S
S1258 N1259 1.613 . S
S1258 N1260 1.610 . S
N1259 S1258 1.613 . S
N1259 C1262 1.350 . S
N1260 S1258 1.610 . S
N1260 C1261 1.351 . S
C1261 C1255 1.428 . S
C1261 N1260 1.351 . S
C1261 C1262 1.434 . S
C1262 C1253 1.429 . S
C1262 N1259 1.350 . S
C1262 C1261 1.434 . S
C1263 C1264 1.369 . S
C1263 C1265 1.419 . S
C1263 H1267 0.930 . S
C1264 C1263 1.369 . S
C1264 C1273 1.429 . S
C1265 C1263 1.419 . S
C1265 C1266 1.363 . S
C1265 H1268 0.929 . S
C1266 C1265 1.363 . S
C1266 C1272 1.428 . S
H1267 C1263 0.930 . S
H1268 C1265 0.929 . S
S1269 N1270 1.613 . S
S1269 N1271 1.610 . S
N1270 S1269 1.613 . S
N1270 C1273 1.350 . S
N1271 S1269 1.610 . S
N1271 C1272 1.351 . S
C1272 C1266 1.428 . S
C1272 N1271 1.351 . S
C1272 C1273 1.434 . S
C1273 C1264 1.429 . S
C1273 N1270 1.350 . S
C1273 C1272 1.434 . S
C1274 C1275 1.369 . S
C1274 C1276 1.419 . S
C1274 H1278 0.930 . S
C1275 C1274 1.369 . S
C1275 C1284 1.429 . S
C1276 C1274 1.419 . S
C1276 C1277 1.363 . S
C1276 H1279 0.929 . S
C1277 C1276 1.363 . S
C1277 C1283 1.428 . S
H1278 C1274 0.930 . S
H1279 C1276 0.929 . S
S1280 N1281 1.613 . S
S1280 N1282 1.610 . S
N1281 S1280 1.613 . S
N1281 C1284 1.350 . S
N1282 S1280 1.610 . S
N1282 C1283 1.351 . S
C1283 C1277 1.428 . S
C1283 N1282 1.351 . S
C1283 C1284 1.434 . S
C1284 C1275 1.429 . S
C1284 N1281 1.350 . S
C1284 C1283 1.434 . S
C1285 C1286 1.369 . S
C1285 C1287 1.419 . S
C1285 H1289 0.930 . S
C1286 C1285 1.369 . S
C1286 C1295 1.429 . S
C1287 C1285 1.419 . S
C1287 C1288 1.363 . S
C1287 H1290 0.929 . S
C1288 C1287 1.363 . S
C1288 C1294 1.428 . S
H1289 C1285 0.930 . S
H1290 C1287 0.929 . S
S1291 N1292 1.613 . S
S1291 N1293 1.610 . S
N1292 S1291 1.613 . S
N1292 C1295 1.350 . S
N1293 S1291 1.610 . S
N1293 C1294 1.351 . S
C1294 C1288 1.428 . S
C1294 N1293 1.351 . S
C1294 C1295 1.434 . S
C1295 C1286 1.429 . S
C1295 N1292 1.350 . S
C1295 C1294 1.434 . S
C945 C52 1.443 . S
C947 C170 1.441 . S
C956 C229 1.444 . S
C958 C111 1.444 . S
C967 C288 1.444 . S
C969 C406 1.444 . S
C978 C465 1.442 . S
C980 C347 1.441 . S
C989 C524 1.441 . S
C991 C642 1.443 . S
C1000 C701 1.444 . S
C1002 C583 1.443 . S
C1011 C760 1.442 . S
C1013 C878 1.441 . S
C1022 C937 1.444 . S
C1024 C819 1.443 . S
C1033 C269 1.372 . S
C1035 C33 1.381 . S
C1044 C92 1.382 . S
C1046 C328 1.374 . S
C1055 C151 1.372 . S
C1057 C387 1.380 . S
C1066 C446 1.376 . S
C1068 C210 1.376 . S
C1077 C505 1.377 . S
C1079 C741 1.379 . S
C1088 C564 1.372 . S
C1090 C800 1.380 . S
C1099 C623 1.380 . S
C1101 C859 1.377 . S
C1110 C682 1.382 . S
C1112 C918 1.373 . S
C1121 C593 1.441 . S
C1123 C3 1.441 . S
C1132 C652 1.442 . S
C1134 C62 1.441 . S
C1143 C121 1.437 . S
C1145 C475 1.437 . S
C1154 C180 1.442 . S
C1156 C534 1.441 . S
C1165 C239 1.441 . S
C1167 C829 1.440 . S
C1176 C298 1.437 . S
C1178 C888 1.438 . S
C1187 C357 1.438 . S
C1189 C711 1.438 . S
C1198 C770 1.436 . S
C1200 C416 1.437 . S
C1209 C5 1.463 . S
C1211 C890 1.463 . S
C1220 C713 1.463 . S
C1222 C64 1.463 . S
C1231 C123 1.464 . S
C1233 C772 1.464 . S
C1242 C831 1.465 . S
C1244 C182 1.465 . S
C1253 C536 1.465 . S
C1255 C241 1.465 . S
C1264 C300 1.463 . S
C1266 C595 1.463 . S
C1275 C654 1.463 . S
C1277 C359 1.463 . S
C1286 C477 1.464 . S
C1288 C418 1.464 . S
