# Generated by pormake.
# Topology wkj, (6)-cn, num edge types: 1
# Building blocks:
#     Node 0, Type 0, BuildingBlock: FUNLAD_clean_sbu_0, # of connection points: 6
#     Node 1, Type 0, BuildingBlock: FUNLAD_clean_sbu_0, # of connection points: 6
#     Node 2, Type 0, BuildingBlock: FUNLAD_clean_sbu_0, # of connection points: 6
#     Node 3, Type 0, BuildingBlock: FUNLAD_clean_sbu_0, # of connection points: 6
#     Node 4, Type 0, BuildingBlock: FUNLAD_clean_sbu_0, # of connection points: 6
#     Node 5, Type 0, BuildingBlock: FUNLAD_clean_sbu_0, # of connection points: 6
#     Node 6, Type 0, BuildingBlock: FUNLAD_clean_sbu_0, # of connection points: 6
#     Node 7, Type 0, BuildingBlock: FUNLAD_clean_sbu_0, # of connection points: 6
#     Node 8, Type 0, BuildingBlock: FUNLAD_clean_sbu_0, # of connection points: 6
#     Node 9, Type 0, BuildingBlock: FUNLAD_clean_sbu_0, # of connection points: 6
#     Node 10, Type 0, BuildingBlock: FUNLAD_clean_sbu_0, # of connection points: 6
#     Node 11, Type 0, BuildingBlock: FUNLAD_clean_sbu_0, # of connection points: 6
#     Edge 12, Type (0, 0), BuildingBlock: KIFKEQ_clean_linker_1, # of connection points: 2
#     Edge 13, Type (0, 0), BuildingBlock: KIFKEQ_clean_linker_1, # of connection points: 2
#     Edge 14, Type (0, 0), BuildingBlock: KIFKEQ_clean_linker_1, # of connection points: 2
#     Edge 15, Type (0, 0), BuildingBlock: KIFKEQ_clean_linker_1, # of connection points: 2
#     Edge 16, Type (0, 0), BuildingBlock: KIFKEQ_clean_linker_1, # of connection points: 2
#     Edge 17, Type (0, 0), BuildingBlock: KIFKEQ_clean_linker_1, # of connection points: 2
#     Edge 18, Type (0, 0), BuildingBlock: KIFKEQ_clean_linker_1, # of connection points: 2
#     Edge 19, Type (0, 0), BuildingBlock: KIFKEQ_clean_linker_1, # of connection points: 2
#     Edge 20, Type (0, 0), BuildingBlock: KIFKEQ_clean_linker_1, # of connection points: 2
#     Edge 21, Type (0, 0), BuildingBlock: KIFKEQ_clean_linker_1, # of connection points: 2
#     Edge 22, Type (0, 0), BuildingBlock: KIFKEQ_clean_linker_1, # of connection points: 2
#     Edge 23, Type (0, 0), BuildingBlock: KIFKEQ_clean_linker_1, # of connection points: 2
#     Edge 24, Type (0, 0), BuildingBlock: KIFKEQ_clean_linker_1, # of connection points: 2
#     Edge 25, Type (0, 0), BuildingBlock: KIFKEQ_clean_linker_1, # of connection points: 2
#     Edge 26, Type (0, 0), BuildingBlock: KIFKEQ_clean_linker_1, # of connection points: 2
#     Edge 27, Type (0, 0), BuildingBlock: KIFKEQ_clean_linker_1, # of connection points: 2
#     Edge 28, Type (0, 0), BuildingBlock: KIFKEQ_clean_linker_1, # of connection points: 2
#     Edge 29, Type (0, 0), BuildingBlock: KIFKEQ_clean_linker_1, # of connection points: 2
#     Edge 30, Type (0, 0), BuildingBlock: KIFKEQ_clean_linker_1, # of connection points: 2
#     Edge 31, Type (0, 0), BuildingBlock: KIFKEQ_clean_linker_1, # of connection points: 2
#     Edge 32, Type (0, 0), BuildingBlock: KIFKEQ_clean_linker_1, # of connection points: 2
#     Edge 33, Type (0, 0), BuildingBlock: KIFKEQ_clean_linker_1, # of connection points: 2
#     Edge 34, Type (0, 0), BuildingBlock: KIFKEQ_clean_linker_1, # of connection points: 2
#     Edge 35, Type (0, 0), BuildingBlock: KIFKEQ_clean_linker_1, # of connection points: 2
#     Edge 36, Type (0, 0), BuildingBlock: KIFKEQ_clean_linker_1, # of connection points: 2
#     Edge 37, Type (0, 0), BuildingBlock: KIFKEQ_clean_linker_1, # of connection points: 2
#     Edge 38, Type (0, 0), BuildingBlock: KIFKEQ_clean_linker_1, # of connection points: 2
#     Edge 39, Type (0, 0), BuildingBlock: KIFKEQ_clean_linker_1, # of connection points: 2
#     Edge 40, Type (0, 0), BuildingBlock: KIFKEQ_clean_linker_1, # of connection points: 2
#     Edge 41, Type (0, 0), BuildingBlock: KIFKEQ_clean_linker_1, # of connection points: 2
#     Edge 42, Type (0, 0), BuildingBlock: KIFKEQ_clean_linker_1, # of connection points: 2
#     Edge 43, Type (0, 0), BuildingBlock: KIFKEQ_clean_linker_1, # of connection points: 2
#     Edge 44, Type (0, 0), BuildingBlock: KIFKEQ_clean_linker_1, # of connection points: 2
#     Edge 45, Type (0, 0), BuildingBlock: KIFKEQ_clean_linker_1, # of connection points: 2
#     Edge 46, Type (0, 0), BuildingBlock: KIFKEQ_clean_linker_1, # of connection points: 2
#     Edge 47, Type (0, 0), BuildingBlock: KIFKEQ_clean_linker_1, # of connection points: 2
# Relax obj value: 1.249
# Max RMSD: 0.250
# Mean RMSD: 0.250
data_MOF--net-wkj--node1-FUNLAD_clean_sbu_0--edge1-KIFKEQ_clean_linker_1
_symmetry_space_group_name_H-M    P1
_symmetry_Int_Tables_number       1
_symmetry_cell_setting            triclinic
loop_
_symmetry_equiv_pos_as_xyz
'x, y, z'
_cell_length_a     69.133831
_cell_length_b     69.073214
_cell_length_c     21.757723
_cell_angle_alpha  90.057924
_cell_angle_beta   89.957467
_cell_angle_gamma 120.00871
loop_
_atom_site_label
_atom_site_type_symbol
_atom_site_fract_x
_atom_site_fract_y
_atom_site_fract_z
_atom_type_partial_charge
C0 C 0.50837 0.09737 0.15699 0.0
N1 N 0.47944 0.13284 0.24441 0.0
C2 C 0.4988 0.15184 0.22968 0.0
C3 C 0.499 0.17194 0.21799 0.0
C4 C 0.47916 0.17286 0.22215 0.0
C5 C 0.4595 0.15312 0.23881 0.0
C6 C 0.45998 0.13325 0.24928 0.0
Zn7 Zn 0.47987 0.10269 0.25488 0.0
C8 C 0.4438 0.06505 0.18164 0.0
N9 N 0.48089 0.04171 0.2721 0.0
C10 C 0.50011 0.04205 0.25668 0.0
C11 C 0.46657 0.02671 0.31402 0.0
C12 C 0.47454 0.01695 0.3554 0.0
C13 C 0.49661 0.0217 0.34906 0.0
C14 C 0.50796 0.03116 0.29392 0.0
Zn15 Zn 0.4805 0.07101 0.26177 0.0
O16 O 0.50504 0.11253 0.17988 0.0
C17 C 0.51715 0.10747 0.33655 0.0
O18 O 0.49872 0.07814 0.18121 0.0
H19 H 0.45054 0.02533 0.32274 0.0
H20 H 0.51419 0.15142 0.22625 0.0
H21 H 0.51123 0.05357 0.22253 0.0
O22 O 0.50661 0.11774 0.32329 0.0
O23 O 0.51057 0.08822 0.31376 0.0
H24 H 0.44466 0.11806 0.26042 0.0
O25 O 0.46225 0.06391 0.34195 0.0
O26 O 0.45417 0.0905 0.32968 0.0
O27 O 0.4511 0.05426 0.21144 0.0
O28 O 0.45343 0.08627 0.18719 0.0
C29 C 0.45148 0.07324 0.35888 0.0
H30 H 0.51464 0.1867 0.20613 0.0
H31 H 0.44375 0.15286 0.24216 0.0
H32 H 0.46512 1.00918 0.39681 0.0
H33 H 0.52496 0.03468 0.28708 0.0
C34 C 0.43225 0.50615 0.53136 0.0
N35 N 0.36206 0.47199 0.58406 0.0
C36 C 0.36277 0.49165 0.57116 0.0
C37 C 0.34317 0.49211 0.55654 0.0
C38 C 0.32227 0.47218 0.55557 0.0
C39 C 0.32215 0.45217 0.56942 0.0
C40 C 0.34216 0.45244 0.58306 0.0
Zn41 Zn 0.39157 0.47135 0.60563 0.0
C42 C 0.399 0.44041 0.52374 0.0
N43 N 0.45067 0.46873 0.65002 0.0
C44 C 0.46227 0.46274 0.61129 0.0
C45 C 0.453 0.46829 0.71189 0.0
C46 C 0.46747 0.46212 0.7371 0.0
C47 C 0.48038 0.45646 0.69904 0.0
C48 C 0.47729 0.45653 0.63492 0.0
Zn49 Zn 0.42406 0.47223 0.62437 0.0
O50 O 0.41126 0.49817 0.53981 0.0
C51 C 0.41895 0.50383 0.70719 0.0
O52 O 0.44243 0.49817 0.56168 0.0
H53 H 0.44309 0.47211 0.74258 0.0
H54 H 0.37862 0.5071 0.57196 0.0
H55 H 0.45963 0.46237 0.56222 0.0
O56 O 0.40034 0.49659 0.679 0.0
O57 O 0.43167 0.49626 0.69299 0.0
H58 H 0.3417 0.43689 0.59307 0.0
O59 O 0.40605 0.44662 0.68526 0.0
O60 O 0.37344 0.44399 0.67243 0.0
O61 O 0.41654 0.44875 0.55619 0.0
O62 O 0.3847 0.44669 0.53282 0.0
C63 C 0.38558 0.43725 0.69817 0.0
H64 H 0.34456 0.50801 0.54531 0.0
H65 H 0.3067 0.43633 0.57065 0.0
H66 H 0.4691 0.46299 0.78645 0.0
H67 H 0.4865 0.45211 0.60313 0.0
C68 C 0.94566 0.42244 0.8305 0.0
N69 N 0.90376 0.35656 0.91184 0.0
C70 C 0.88577 0.35826 0.89376 0.0
C71 C 0.86505 0.33897 0.88138 0.0
C72 C 0.86253 0.31752 0.88811 0.0
C73 C 0.88132 0.31635 0.90767 0.0
C74 C 0.90173 0.33599 0.91878 0.0
Zn75 Zn 0.93596 0.38503 0.9231 0.0
C76 C 0.96977 0.38187 0.83882 0.0
N77 N 1.00272 0.43998 0.93859 0.0
C78 C 1.01861 0.44935 0.89395 0.0
C79 C 1.00809 0.44461 0.99889 0.0
C80 C 0.02994 0.45856 0.01668 0.0
C81 C 0.04681 0.46914 0.97224 0.0
C82 C 0.04091 0.4644 0.90985 0.0
Zn83 Zn 0.9709 0.41442 0.92536 0.0
O84 O 0.92987 0.40351 0.84947 0.0
C85 C 0.93903 0.42047 0.00871 0.0
O86 O 0.96489 0.43065 0.85479 0.0
H87 H 0.99543 0.43702 0.03404 0.0
H88 H 0.8875 0.3746 0.88791 0.0
H89 H 1.01406 0.44509 0.84624 0.0
O90 O 0.92443 0.40063 0.99221 0.0
O91 O 0.95873 0.42902 0.98749 0.0
H92 H 0.91614 0.33472 0.93175 0.0
O93 O 0.9773 0.39841 0.99418 0.0
O94 O 0.94434 0.36842 0.99859 0.0
O95 O 0.98276 0.4004 0.86407 0.0
O96 O 0.94905 0.37146 0.85299 0.0
C97 C 0.96446 0.37969 0.0178 0.0
H98 H 0.85111 0.34087 0.8669 0.0
H99 H 0.88049 0.30036 0.9127 0.0
H100 H 0.03317 0.46176 0.06535 0.0
H101 H 0.05327 0.47248 0.87402 0.0
C102 C 0.5324 0.93986 0.19697 0.0
N103 N 0.56083 0.89821 0.25032 0.0
C104 C 0.55768 0.89072 0.19116 0.0
C105 C 0.55659 0.87036 0.17632 0.0
C106 C 0.55892 0.85734 0.2225 0.0
C107 C 0.56189 0.86546 0.2833 0.0
C108 C 0.56274 0.88583 0.29616 0.0
Zn109 Zn 0.5647 0.92988 0.2706 0.0
C110 C 0.59763 0.96594 0.18569 0.0
N111 N 0.57597 0.99533 0.31282 0.0
C112 C 0.57836 0.99867 0.37459 0.0
C113 C 0.58467 1.013 0.2734 0.0
C114 C 0.59592 0.03496 0.29616 0.0
C115 C 0.59847 0.03885 0.36017 0.0
C116 C 0.59006 0.02003 0.3989 0.0
Zn117 Zn 0.56813 0.9636 0.28759 0.0
O118 O 0.53817 0.92505 0.20539 0.0
C119 C 0.53459 0.92907 0.37333 0.0
O120 O 0.54247 0.95826 0.22656 0.0
H121 H 0.58354 1.01015 0.22432 0.0
H122 H 0.55626 0.90068 0.15502 0.0
H123 H 0.57233 0.98467 0.40575 0.0
O124 O 0.53949 0.91595 0.3444 0.0
O125 O 0.54434 0.94961 0.35904 0.0
H126 H 0.56534 0.89193 0.34294 0.0
O127 O 0.59326 0.96903 0.34586 0.0
O128 O 0.59194 0.93692 0.33792 0.0
O129 O 0.59138 0.97715 0.21753 0.0
O130 O 0.58932 0.94509 0.19634 0.0
C131 C 0.60072 0.9565 0.36109 0.0
H132 H 0.55387 0.86491 0.12888 0.0
H133 H 0.56413 0.85648 0.32078 0.0
H134 H 0.60237 0.04866 0.26376 0.0
H135 H 0.5911 0.02137 0.44844 0.0
C136 C 0.6151 0.52432 0.48052 0.0
N137 N 0.67902 0.55428 0.57305 0.0
C138 C 0.67849 0.53435 0.56753 0.0
C139 C 0.69821 0.53358 0.55746 0.0
C140 C 0.71899 0.55349 0.55239 0.0
C141 C 0.71899 0.5738 0.55942 0.0
C142 C 0.6989 0.57381 0.56978 0.0
Zn143 Zn 0.64882 0.55499 0.57835 0.0
C144 C 0.64921 0.59005 0.49626 0.0
N145 N 0.58783 0.55677 0.58024 0.0
C146 C 0.56789 0.53752 0.58257 0.0
C147 C 0.59025 0.57623 0.60329 0.0
C148 C 0.57477 0.57539 0.6458 0.0
C149 C 0.55659 0.55448 0.66077 0.0
C150 C 0.5513 0.5363 0.62121 0.0
Zn151 Zn 0.61597 0.55439 0.57619 0.0
O152 O 0.63476 0.53088 0.5012 0.0
C153 C 0.61383 0.51906 0.66049 0.0
O154 O 0.60348 0.53201 0.50367 0.0
H155 H 0.606 0.59163 0.59843 0.0
H156 H 0.66265 0.51893 0.56976 0.0
H157 H 0.56616 0.52231 0.5632 0.0
O158 O 0.63423 0.52732 0.64419 0.0
O159 O 0.60233 0.52717 0.63878 0.0
H160 H 0.69917 0.58956 0.57364 0.0
O161 O 0.628 0.57637 0.64925 0.0
O162 O 0.66095 0.57931 0.65653 0.0
O163 O 0.62937 0.58104 0.51601 0.0
O164 O 0.66183 0.58246 0.5128 0.0
C165 C 0.64677 0.58481 0.67516 0.0
H166 H 0.69708 0.51742 0.55363 0.0
H167 H 0.73429 0.58969 0.55516 0.0
H168 H 0.57912 0.58987 0.67434 0.0
H169 H 0.53704 0.51991 0.63012 0.0
C170 C 0.10039 0.60655 0.83686 0.0
N171 N 0.13751 0.67234 0.9167 0.0
C172 C 0.15652 0.67165 0.90466 0.0
C173 C 0.17686 0.69135 0.8928 0.0
C174 C 0.17807 0.71236 0.89357 0.0
C175 C 0.15816 0.7125 0.90698 0.0
C176 C 0.13813 0.69238 0.91807 0.0
Zn177 Zn 0.10692 0.64217 0.93005 0.0
C178 C 0.06911 0.64024 0.85667 0.0
N179 N 0.04473 0.58147 0.95451 0.0
C180 C 0.04283 0.56138 0.94103 0.0
C181 C 0.02945 0.58266 0.99173 0.0
C182 C 1.01625 0.56484 0.0308 0.0
C183 C 1.01874 0.54595 0.02866 0.0
C184 C 0.0284 0.54267 0.97548 0.0
Zn185 Zn 0.07488 0.61014 0.9407 0.0
O186 O 0.11565 0.62533 0.85789 0.0
C187 C 0.11112 0.60986 0.01558 0.0
O188 O 0.08116 0.59723 0.86142 0.0
H189 H 0.02987 0.59836 0.99845 0.0
H190 H 0.15592 0.6557 0.90346 0.0
H191 H 0.05454 0.56036 0.91017 0.0
O192 O 0.12178 0.63051 1.00015 0.0
O193 O 0.09159 0.5973 0.99432 0.0
H194 H 0.12298 0.69281 0.92749 0.0
O195 O 0.06891 0.62319 0.01927 0.0
O196 O 0.09597 0.65736 1.00235 0.0
O197 O 0.05859 0.62269 0.88868 0.0
O198 O 0.09038 0.65182 0.86063 0.0
C199 C 0.07882 0.64363 0.03331 0.0
H200 H 0.19138 0.68996 0.88189 0.0
H201 H 0.15795 0.72805 0.90942 0.0
H202 H 1.00804 0.56762 0.06946 0.0
H203 H 0.02977 0.52778 0.97031 0.0
C204 C 0.94563 0.5262 0.50456 0.0
N205 N 0.90514 0.55341 0.43438 0.0
C206 C 0.89666 0.54975 0.49252 0.0
C207 C 0.87628 0.54883 0.50507 0.0
C208 C 0.8642 0.55195 0.45772 0.0
C209 C 0.8732 0.55532 0.39782 0.0
C210 C 0.89364 0.55599 0.38719 0.0
Zn211 Zn 0.93744 0.55764 0.42239 0.0
C212 C 0.97007 0.59151 0.5155 0.0
N213 N 1.00444 0.57036 0.40758 0.0
C214 C 1.01092 0.57383 0.34778 0.0
C215 C 1.01955 0.57512 0.45352 0.0
C216 C 0.04211 0.5831 0.43943 0.0
C217 C 0.04912 0.58652 0.37759 0.0
C218 C 0.03305 0.58226 0.33193 0.0
Zn219 Zn 0.97233 0.56319 0.42055 0.0
O220 O 0.9307 0.53127 0.49062 0.0
C221 C 0.9419 0.52899 0.32626 0.0
O222 O 0.96499 0.53724 0.48091 0.0
H223 H 1.01416 0.57282 0.50096 0.0
H224 H 0.90594 0.54796 0.5299 0.0
H225 H 0.99892 0.57044 0.31166 0.0
O226 O 0.92658 0.53221 0.34859 0.0
O227 O 0.96153 0.54015 0.34785 0.0
H228 H 0.90056 0.5591 0.34127 0.0
O229 O 0.9799 0.58899 0.36172 0.0
O230 O 0.94638 0.58427 0.35164 0.0
O231 O 0.98292 0.58558 0.4914 0.0
O232 O 0.94992 0.58286 0.49676 0.0
C233 C 0.9671 0.59478 0.33742 0.0
H234 H 0.87013 0.54572 0.55185 0.0
H235 H 0.8649 0.5581 0.35952 0.0
H236 H 0.05378 0.586 0.47624 0.0
H237 H 0.03703 0.58409 0.28341 0.0
C238 C 0.42998 0.93914 0.86218 0.0
N239 N 0.36443 0.89875 0.77764 0.0
C240 C 0.36536 0.88028 0.79513 0.0
C241 C 0.34568 0.85985 0.80688 0.0
C242 C 0.32451 0.85806 0.80047 0.0
C243 C 0.32419 0.87739 0.78125 0.0
C244 C 0.34423 0.89748 0.77054 0.0
Zn245 Zn 0.3938 0.93025 0.76636 0.0
C246 C 0.392 0.96573 0.84208 0.0
N247 N 0.45131 0.99492 0.74676 0.0
C248 C 0.47172 0.99674 0.74443 0.0
C249 C 0.4473 1.01021 0.71854 0.0
C250 C 0.46186 0.02403 0.67295 0.0
C251 C 0.48105 0.02276 0.66054 0.0
C252 C 0.48726 1.01122 0.7022 0.0
Zn253 Zn 0.42466 0.96374 0.75907 0.0
O254 O 0.41125 0.92331 0.84216 0.0
C255 C 0.42836 0.92953 0.68246 0.0
O256 O 0.43866 0.95811 0.83619 0.0
H257 H 0.43109 1.0089 0.72273 0.0
H258 H 0.38143 0.88142 0.80114 0.0
H259 H 0.4746 0.98452 0.76732 0.0
O260 O 0.40802 0.91711 0.69903 0.0
O261 O 0.43939 0.94944 0.70266 0.0
H262 H 0.34357 0.91222 0.75723 0.0
O263 O 0.4114 0.96959 0.6824 0.0
O264 O 0.37836 0.93986 0.68974 0.0
O265 O 0.41018 0.97765 0.8138 0.0
O266 O 0.38134 0.94464 0.83372 0.0
C267 C 0.39173 0.95829 0.66298 0.0
H268 H 0.34717 0.84577 0.82231 0.0
H269 H 0.30856 0.87712 0.77422 0.0
H270 H 0.45656 0.0328 0.64213 0.0
H271 H 0.50183 1.00969 0.69424 0.0
C272 C 0.5121 0.42786 0.14793 0.0
N273 N 0.47788 0.35767 0.09587 0.0
C274 C 0.4976 0.35853 0.10866 0.0
C275 C 0.4982 0.33902 0.12346 0.0
C276 C 0.47836 0.31805 0.12467 0.0
C277 C 0.45828 0.31777 0.11096 0.0
C278 C 0.4584 0.33771 0.09717 0.0
Zn279 Zn 0.47714 0.38708 0.07412 0.0
C280 C 0.4464 0.39464 0.1564 0.0
N281 N 0.47451 0.44617 0.0297 0.0
C282 C 0.47357 0.44811 0.96782 0.0
C283 C 0.46891 0.45808 0.06846 0.0
C284 C 0.46269 0.4731 0.04481 0.0
C285 C 0.46215 0.47582 0.98063 0.0
C286 C 0.46726 0.46248 0.9426 0.0
Zn287 Zn 0.47807 0.4196 0.05545 0.0
O288 O 0.504 0.40684 0.13959 0.0
C289 C 0.50946 0.41431 0.97218 0.0
O290 O 0.50418 0.43811 0.11765 0.0
H291 H 0.4689 0.45572 0.11759 0.0
H292 H 0.51298 0.37443 0.10762 0.0
H293 H 0.47712 0.43798 0.93718 0.0
O294 O 0.50227 0.39576 1.00066 0.0
O295 O 0.50191 0.42707 0.98622 0.0
H296 H 0.44281 0.33715 0.08725 0.0
O297 O 0.45224 0.40139 0.99516 0.0
O298 O 0.44974 0.3688 1.00765 0.0
O299 O 0.4548 0.41224 0.1241 0.0
O300 O 0.45257 0.38025 0.14704 0.0
C301 C 0.44289 0.3809 0.98223 0.0
H302 H 0.51414 0.34052 0.1346 0.0
H303 H 0.4425 0.30225 0.10994 0.0
H304 H 0.45867 0.48262 0.0766 0.0
H305 H 0.46766 0.46373 0.89317 0.0
C306 C 0.10015 0.50086 0.5174 0.0
N307 N 0.13613 0.47144 0.43554 0.0
C308 C 0.1551 0.49097 0.44921 0.0
C309 C 0.17531 0.4914 0.461 0.0
C310 C 0.17645 0.47158 0.4582 0.0
C311 C 0.15659 0.45172 0.44295 0.0
C312 C 0.13666 0.45201 0.43221 0.0
Zn313 Zn 0.10579 0.47145 0.42315 0.0
C314 C 0.06804 0.43582 0.49733 0.0
N315 N 0.04418 0.47124 0.40116 0.0
C316 C 0.04301 0.48984 0.41448 0.0
C317 C 0.02865 0.45504 0.3638 0.0
C318 C 1.01596 0.46025 0.32449 0.0
C319 C 1.01917 0.48192 0.32663 0.0
C320 C 0.02915 0.49479 0.3797 0.0
Zn321 Zn 0.07402 0.472 0.41411 0.0
O322 O 0.11512 0.49709 0.49554 0.0
C323 C 0.11043 0.50817 0.33816 0.0
O324 O 0.08082 0.4912 0.49352 0.0
H325 H 0.02854 0.43948 0.35706 0.0
H326 H 0.15458 0.50634 0.45185 0.0
H327 H 0.05495 0.50238 0.44532 0.0
O328 O 0.12078 0.49785 0.3531 0.0
O329 O 0.09106 0.50159 0.36015 0.0
H330 H 0.12153 0.43656 0.42155 0.0
O331 O 0.06744 0.45287 0.33549 0.0
O332 O 0.09424 0.44528 0.35085 0.0
O333 O 0.05749 0.44309 0.46636 0.0
O334 O 0.08926 0.44533 0.49241 0.0
C335 C 0.07702 0.44209 0.32073 0.0
H336 H 0.18978 0.50717 0.47346 0.0
H337 H 0.15634 0.43599 0.43886 0.0
H338 H 1.00757 0.44938 0.28577 0.0
H339 H 0.03115 0.51132 0.38472 0.0
C340 C 0.61005 0.09473 0.82981 0.0
N341 N 0.67782 0.13099 0.75964 0.0
C342 C 0.67689 0.14993 0.77088 0.0
C343 C 0.69642 0.17037 0.78345 0.0
C344 C 0.71748 0.17173 0.78425 0.0
C345 C 0.71787 0.1519 0.77126 0.0
C346 C 0.69793 0.13178 0.75951 0.0
Zn347 Zn 0.64813 0.09983 0.74734 0.0
C348 C 0.64568 0.0643 0.83287 0.0
N349 N 0.58921 0.036 0.72575 0.0
C350 C 0.56881 0.03408 0.71988 0.0
C351 C 0.59242 0.01838 0.71379 0.0
C352 C 0.57528 0.99869 0.68827 0.0
C353 C 0.55458 0.99699 0.6774 0.0
C354 C 0.55116 1.01454 0.69617 0.0
Zn355 Zn 0.61646 0.06682 0.73777 0.0
O356 O 0.63025 0.10886 0.81541 0.0
C357 C 0.61618 0.10063 0.65254 0.0
O358 O 0.60064 0.07543 0.80535 0.0
H359 H 0.60879 0.02019 0.71925 0.0
H360 H 0.66088 0.14918 0.77121 0.0
H361 H 0.56668 0.0483 0.72894 0.0
O362 O 0.63598 0.11316 0.67333 0.0
O363 O 0.60487 0.08065 0.67184 0.0
H364 H 0.69857 0.11669 0.75094 0.0
O365 O 0.63158 0.05827 0.67036 0.0
O366 O 0.66434 0.08854 0.67817 0.0
O367 O 0.62769 0.05311 0.80325 0.0
O368 O 0.65814 0.0851 0.82147 0.0
C369 C 0.65171 0.06935 0.65402 0.0
H370 H 0.69483 0.18483 0.7939 0.0
H371 H 0.73346 0.1518 0.7699 0.0
H372 H 0.5786 0.98567 0.67331 0.0
H373 H 0.53569 1.01414 0.68645 0.0
C374 C 0.52983 0.60772 0.19805 0.0
N375 N 0.56044 0.67181 0.10613 0.0
C376 C 0.54054 0.67134 0.11026 0.0
C377 C 0.53976 0.6911 0.11962 0.0
C378 C 0.55966 0.71185 0.1255 0.0
C379 C 0.57997 0.71179 0.11997 0.0
C380 C 0.57997 0.69166 0.1102 0.0
Zn381 Zn 0.5609 0.6415 0.10092 0.0
C382 C 0.59564 0.64142 0.18315 0.0
N383 N 0.56194 0.58008 0.09832 0.0
C384 C 0.54259 0.56024 0.09514 0.0
C385 C 0.58138 0.58235 0.07584 0.0
C386 C 0.58055 0.56691 0.03308 0.0
C387 C 0.55962 0.54895 0.01714 0.0
C388 C 0.54133 0.5437 0.05616 0.0
Zn389 Zn 0.5599 0.60843 0.10262 0.0
O390 O 0.53671 0.62752 0.17787 0.0
C391 C 0.52493 0.60689 0.01815 0.0
O392 O 0.53732 0.59596 0.17466 0.0
H393 H 0.59685 0.598 0.08132 0.0
H394 H 0.52511 0.65551 0.10737 0.0
H395 H 0.52738 0.55862 0.11409 0.0
O396 O 0.53334 0.62726 0.03499 0.0
O397 O 0.53284 0.59515 0.03945 0.0
H398 H 0.5957 0.69188 0.10735 0.0
O399 O 0.5821 0.62046 0.03 0.0
O400 O 0.58531 0.65355 0.02306 0.0
O401 O 0.58644 0.62154 0.16337 0.0
O402 O 0.58828 0.65424 0.16656 0.0
C403 C 0.59072 0.63931 1.0044 0.0
H404 H 0.52362 0.69001 0.12227 0.0
H405 H 0.59583 0.72708 0.12492 0.0
H406 H 0.59511 0.57122 1.00502 0.0
H407 H 0.52492 0.52959 0.04658 0.0
H408 H 0.45771 0.19143 0.28478 0.0
H409 H 0.50017 0.20263 0.12789 0.0
H410 H 0.4579 0.22615 0.26315 0.0
H411 H 0.49972 0.23685 0.10441 0.0
H412 H 0.51158 0.30754 0.10263 0.0
H413 H 0.51214 0.27368 0.12836 0.0
H414 H 0.44543 0.24505 0.20266 0.0
H415 H 0.44562 0.2796 0.1816 0.0
C416 C 0.4669 0.20118 0.24517 0.0
C417 C 0.47898 0.19413 0.20833 0.0
C418 C 0.46696 0.22118 0.2324 0.0
C419 C 0.47884 0.23472 0.18174 0.0
C420 C 0.49074 0.22744 0.14464 0.0
C421 C 0.49094 0.20762 0.15795 0.0
C422 C 0.49712 0.29427 0.12548 0.0
C423 C 0.47857 0.29675 0.13982 0.0
C424 C 0.49728 0.27446 0.13941 0.0
C425 C 0.47878 0.25616 0.16758 0.0
C426 C 0.46021 0.25863 0.18182 0.0
C427 C 0.46016 0.27853 0.16858 0.0
H428 H 0.31148 0.50531 0.57712 0.0
H429 H 0.28386 0.43912 0.49909 0.0
H430 H 0.27708 0.50526 0.55238 0.0
H431 H 0.24925 0.4389 0.4768 0.0
H432 H 0.18225 0.43793 0.50875 0.0
H433 H 0.2169 0.43809 0.53021 0.0
H434 H 0.25477 0.50565 0.46259 0.0
H435 H 0.22022 0.50536 0.43868 0.0
C436 C 0.29828 0.49077 0.55431 0.0
C437 C 0.30088 0.47221 0.54043 0.0
C438 C 0.27838 0.49074 0.54031 0.0
C439 C 0.26021 0.47205 0.51265 0.0
C440 C 0.26269 0.45349 0.4989 0.0
C441 C 0.28267 0.45362 0.5121 0.0
C442 C 0.19785 0.45277 0.49727 0.0
C443 C 0.198 0.47163 0.47163 0.0
C444 C 0.21785 0.45286 0.50999 0.0
C445 C 0.23879 0.4719 0.49838 0.0
C446 C 0.23904 0.49077 0.47305 0.0
C447 C 0.21904 0.4906 0.45952 0.0
H448 H 0.84223 0.27761 0.95134 0.0
H449 H 0.83321 0.30951 0.79244 0.0
H450 H 0.80763 0.24338 0.9275 0.0
H451 H 0.79888 0.27506 0.76713 0.0
H452 H 0.7279 0.21547 0.76124 0.0
H453 H 0.76154 0.2501 0.7881 0.0
H454 H 0.79001 0.21228 0.86497 0.0
H455 H 0.75583 0.17777 0.84224 0.0
C456 C 0.83297 0.2773 0.91086 0.0
C457 C 0.84074 0.29653 0.87393 0.0
C458 C 0.81302 0.25748 0.89683 0.0
C459 C 0.80012 0.25599 0.84484 0.0
C460 C 0.80787 0.27533 0.80812 0.0
C461 C 0.82773 0.29525 0.82259 0.0
C462 C 0.74113 0.2144 0.78473 0.0
C463 C 0.7387 0.19339 0.79934 0.0
C464 C 0.76078 0.23448 0.79943 0.0
C465 C 0.77892 0.23442 0.82898 0.0
C466 C 0.77653 0.2134 0.84322 0.0
C467 C 0.75683 0.19335 0.82902 0.0
H468 H 0.58951 0.75512 0.08799 0.0
H469 H 0.5289 0.71752 0.19318 0.0
H470 H 0.58947 0.78948 0.11201 0.0
H471 H 0.52809 0.75168 0.21382 0.0
H472 H 0.54317 0.81896 0.29295 0.0
H473 H 0.54383 0.78485 0.27018 0.0
H474 H 0.57334 0.81161 0.09312 0.0
H475 H 0.57401 0.84628 0.11753 0.0
C476 C 0.5761 0.75404 0.11621 0.0
C477 C 0.55924 0.73318 0.13851 0.0
C478 C 0.5759 0.7739 0.12933 0.0
C479 C 0.55876 0.77372 0.16503 0.0
C480 C 0.54181 0.75284 0.18696 0.0
C481 C 0.54208 0.733 0.17414 0.0
C482 C 0.55011 0.81782 0.2494 0.0
C483 C 0.5586 0.83577 0.20741 0.0
C484 C 0.55017 0.79792 0.23581 0.0
C485 C 0.55861 0.79509 0.17951 0.0
C486 C 0.56696 0.81299 0.13735 0.0
C487 C 0.56701 0.83294 0.15108 0.0
H488 H 0.72473 0.52322 0.48218 0.0
H489 H 0.76217 0.58297 0.59107 0.0
H490 H 0.75889 0.52249 0.46084 0.0
H491 H 0.79649 0.58301 0.56658 0.0
H492 H 0.85265 0.56679 0.56213 0.0
H493 H 0.8181 0.56639 0.58514 0.0
H494 H 0.79255 0.53854 0.40578 0.0
H495 H 0.82666 0.53766 0.38417 0.0
C496 C 0.74017 0.53624 0.50187 0.0
C497 C 0.7403 0.55312 0.53879 0.0
C498 C 0.76 0.53601 0.48867 0.0
C499 C 0.78082 0.55271 0.51162 0.0
C500 C 0.78096 0.56961 0.54846 0.0
C501 C 0.76111 0.56978 0.56189 0.0
C502 C 0.83961 0.56021 0.52768 0.0
C503 C 0.84277 0.55211 0.47118 0.0
C504 C 0.81973 0.56033 0.54065 0.0
C505 C 0.80218 0.55249 0.49752 0.0
C506 C 0.80535 0.54447 0.44086 0.0
C507 C 0.82523 0.54426 0.42799 0.0
H508 H 0.2846 0.85236 0.84665 0.0
H509 H 0.31515 0.81418 0.78679 0.0
H510 H 0.25 0.81782 0.86776 0.0
H511 H 0.28059 0.77963 0.80971 0.0
H512 H 0.22166 0.72272 0.91781 0.0
H513 H 0.2564 0.75702 0.89486 0.0
H514 H 0.21901 0.78563 0.81682 0.0
H515 H 0.18426 0.7512 0.83803 0.0
C516 C 0.28404 0.8367 0.83726 0.0
C517 C 0.30306 0.83648 0.8144 0.0
C518 C 0.26403 0.81674 0.84973 0.0
C519 C 0.26226 0.79572 0.8405 0.0
C520 C 0.28126 0.7954 0.81825 0.0
C521 C 0.30124 0.81539 0.80518 0.0
C522 C 0.22067 0.73611 0.89498 0.0
C523 C 0.19973 0.73378 0.88006 0.0
C524 C 0.24077 0.75595 0.8819 0.0
C525 C 0.24073 0.77433 0.85396 0.0
C526 C 0.21986 0.77209 0.83921 0.0
C527 C 0.19977 0.75219 0.85172 0.0
H528 H 0.56561 0.07859 0.82424 0.0
H529 H 0.62374 0.12346 0.93026 0.0
H530 H 0.54174 0.08331 0.89706 0.0
H531 H 0.59942 0.12764 1.00569 0.0
H532 H 0.54508 0.13666 0.11419 0.0
H533 H 0.57096 0.13986 0.03119 0.0
H534 H 0.53093 0.06881 0.9987 0.0
H535 H 0.5055 0.06578 0.07892 0.0
C536 C 0.57333 0.08954 0.8633 0.0
C537 C 0.59657 0.1003 0.87204 0.0
C538 C 0.55959 0.09223 0.90527 0.0
C539 C 0.56852 0.10545 0.95825 0.0
C540 C 0.59195 0.11733 0.96543 0.0
C541 C 0.60588 0.11487 0.92245 0.0
C542 C 0.54172 0.12189 0.08832 0.0
C543 C 0.52315 0.10099 0.10315 0.0
C544 C 0.55664 0.12366 0.04129 0.0
C545 C 0.55301 0.10461 1.00777 0.0
C546 C 0.53418 0.08395 0.02235 0.0
C547 C 0.51956 0.08219 0.06895 0.0
H548 H 0.49069 0.56913 0.18907 0.0
H549 H 0.53084 0.62195 0.31657 0.0
H550 H 0.46537 0.54729 0.27218 0.0
H551 H 0.50566 0.59979 0.40082 0.0
H552 H 0.47725 0.5349 0.52728 0.0
H553 H 0.49874 0.56272 0.44886 0.0
H554 H 0.43777 0.54619 0.35296 0.0
H555 H 0.4161 0.51846 0.43228 0.0
C556 C 0.49371 0.57629 0.23481 0.0
C557 C 0.51254 0.59732 0.24636 0.0
C558 C 0.47922 0.56379 0.28243 0.0
C559 C 0.4835 0.57175 0.3432 0.0
C560 C 0.50194 0.59319 0.35447 0.0
C561 C 0.51622 0.60597 0.30632 0.0
C562 C 0.46835 0.53735 0.48989 0.0
C563 C 0.44493 0.52431 0.48591 0.0
C564 C 0.48069 0.55346 0.44519 0.0
C565 C 0.46999 0.55672 0.39465 0.0
C566 C 0.44651 0.54405 0.39129 0.0
C567 C 0.4341 0.5282 0.43677 0.0
H568 H 0.90647 0.41528 0.77385 0.0
H569 H 0.97801 0.45958 0.7745 0.0
H570 H 0.90306 0.43819 0.69215 0.0
H571 H 0.97454 0.482 0.69514 0.0
H572 H 0.96809 0.50355 0.51003 0.0
H573 H 0.96481 0.47621 0.58515 0.0
H574 H 0.91018 0.479 0.67249 0.0
H575 H 0.91322 0.50654 0.59531 0.0
C576 C 0.9214 0.42976 0.75669 0.0
C577 C 0.94251 0.43543 0.78067 0.0
C578 C 0.91943 0.44294 0.71028 0.0
C579 C 0.93856 0.46179 0.68663 0.0
C580 C 0.95949 0.46741 0.71132 0.0
C581 C 0.96143 0.4545 0.75734 0.0
C582 C 0.95521 0.4983 0.54483 0.0
C583 C 0.94119 0.5076 0.54727 0.0
C584 C 0.95334 0.48257 0.58802 0.0
C585 C 0.93753 0.47572 0.63562 0.0
C586 C 0.92254 0.48396 0.63636 0.0
C587 C 0.92433 0.49976 0.59238 0.0
H588 H 0.46514 0.97227 0.92298 0.0
H589 H 0.42356 0.90034 0.9205 0.0
H590 H 0.48742 0.96977 1.00436 0.0
H591 H 0.44622 0.89785 1.0045 0.0
H592 H 0.51249 0.9077 0.10582 0.0
H593 H 0.48543 0.905 0.02802 0.0
H594 H 0.48422 0.96103 0.11203 0.0
H595 H 0.51126 0.96403 0.18786 0.0
C596 C 0.46057 0.95579 0.94007 0.0
C597 C 0.44237 0.93649 0.91484 0.0
C598 C 0.47339 0.9544 0.98743 0.0
C599 C 0.46859 0.93364 0.01182 0.0
C600 C 0.45043 0.91414 0.98677 0.0
C601 C 0.43735 0.91556 0.93898 0.0
C602 C 0.50626 0.9193 0.10784 0.0
C603 C 0.5144 0.93632 0.15265 0.0
C604 C 0.49066 0.91767 0.06342 0.0
C605 C 0.48284 0.93302 0.06297 0.0
C606 C 0.4902 0.94924 0.1098 0.0
C607 C 0.50575 0.95093 0.1536 0.0
H608 H 0.5252 0.41142 0.24462 0.0
H609 H 0.54032 0.473 0.15396 0.0
H610 H 0.55331 0.43283 0.3233 0.0
H611 H 0.56847 0.49425 0.23183 0.0
H612 H 0.62839 0.52642 0.36071 0.0
H613 H 0.60582 0.50158 0.27642 0.0
H614 H 0.55499 0.45953 0.40691 0.0
H615 H 0.57729 0.4845 0.49017 0.0
C616 C 0.5347 0.42947 0.24097 0.0
C617 C 0.53036 0.44048 0.19319 0.0
C618 C 0.55077 0.44174 0.2861 0.0
C619 C 0.56319 0.46526 0.28379 0.0
C620 C 0.55942 0.47617 0.23466 0.0
C621 C 0.54312 0.46396 0.19027 0.0
C622 C 0.61273 0.51148 0.37129 0.0
C623 C 0.60468 0.50717 0.43187 0.0
C624 C 0.59969 0.49739 0.32312 0.0
C625 C 0.57856 0.47857 0.33493 0.0
C626 C 0.57124 0.47368 0.39619 0.0
C627 C 0.58402 0.48796 0.4439 0.0
H628 H 0.13876 0.6055 0.80555 0.0
H629 H 0.07023 0.58046 0.75185 0.0
H630 H 0.14158 0.58032 0.73026 0.0
H631 H 0.07314 0.55624 0.6764 0.0
H632 H 0.07131 0.49549 0.60785 0.0
H633 H 0.07428 0.52249 0.684 0.0
H634 H 0.1408 0.5692 0.61989 0.0
H635 H 0.13798 0.54134 0.54405 0.0
C636 C 0.12451 0.59503 0.77677 0.0
C637 C 0.10419 0.59477 0.78512 0.0
C638 C 0.12609 0.58057 0.73376 0.0
C639 C 0.10739 0.56573 0.69829 0.0
C640 C 0.08766 0.56676 0.70423 0.0
C641 C 0.08603 0.58086 0.74723 0.0
C642 C 0.08674 0.51138 0.61052 0.0
C643 C 0.10433 0.51633 0.56963 0.0
C644 C 0.08839 0.52701 0.65387 0.0
C645 C 0.10753 0.54838 0.65708 0.0
C646 C 0.12577 0.55297 0.61858 0.0
C647 C 0.1242 0.53702 0.57527 0.0
H648 H 0.3835 0.95336 0.96155 0.0
H649 H 0.38942 1.00351 0.83328 0.0
H650 H 0.38873 0.97828 0.04655 0.0
H651 H 0.39298 0.02813 0.91821 0.0
H652 H 0.44377 0.07636 0.06221 0.0
H653 H 0.42245 0.05079 0.97992 0.0
H654 H 0.38284 1.00003 0.11434 0.0
H655 H 0.40556 0.02538 0.19604 0.0
C656 C 0.38463 0.96929 0.95185 0.0
C657 C 0.38613 0.97658 0.8911 0.0
C658 C 0.38771 0.98376 1.00072 0.0
C659 C 0.39193 1.00569 0.98974 0.0
C660 C 0.39062 1.01178 0.92877 0.0
C661 C 0.38816 0.99753 0.87996 0.0
C662 C 0.42998 0.06 0.07402 0.0
C663 C 0.42637 0.05276 0.1352 0.0
C664 C 0.41762 0.04518 0.02674 0.0
C665 C 0.40105 0.02291 0.03986 0.0
C666 C 0.39589 0.01667 0.10193 0.0
C667 C 0.40867 0.0313 0.14897 0.0
H668 H 0.42353 0.41686 0.16551 0.0
H669 H 0.43415 0.3681 0.26047 0.0
H670 H 0.40501 0.42077 0.2547 0.0
H671 H 0.41449 0.37128 0.35031 0.0
H672 H 0.4208 0.41709 0.51531 0.0
H673 H 0.42519 0.39902 0.42576 0.0
H674 H 0.37669 0.40953 0.32844 0.0
H675 H 0.37305 0.42875 0.41866 0.0
C676 C 0.42138 0.40648 0.20515 0.0
C677 C 0.43081 0.39253 0.20633 0.0
C678 C 0.41044 0.40855 0.25641 0.0
C679 C 0.40843 0.39662 0.31056 0.0
C680 C 0.41613 0.38113 0.30992 0.0
C681 C 0.42725 0.37912 0.25829 0.0
C682 C 0.41072 0.41525 0.47521 0.0
C683 C 0.39694 0.42486 0.47369 0.0
C684 C 0.41307 0.40457 0.42372 0.0
C685 C 0.40161 0.40303 0.36901 0.0
C686 C 0.38621 0.41084 0.36927 0.0
C687 C 0.38392 0.42169 0.42113 0.0
H688 H 0.02771 0.39863 0.4812 0.0
H689 H 0.07892 0.43409 0.61684 0.0
H690 H 1.00191 0.37543 0.56144 0.0
H691 H 0.05294 0.41197 0.69789 0.0
H692 H 1.00541 0.3757 0.84208 0.0
H693 H 0.02962 0.38046 0.755 0.0
H694 H 0.98102 0.38194 0.63286 0.0
H695 H 0.95654 0.37586 0.7198 0.0
C696 C 0.03358 0.40103 0.52829 0.0
C697 C 0.05527 0.41814 0.54298 0.0
C698 C 1.01871 0.38793 0.57448 0.0
C699 C 0.02497 0.39204 0.63674 0.0
C700 C 0.04737 0.408 0.65073 0.0
C701 C 0.0624 0.42079 0.60423 0.0
C702 C 0.99947 0.37581 0.79606 0.0
C703 C 0.97905 0.37521 0.78744 0.0
C704 C 1.01354 0.37901 0.74615 0.0
C705 C 1.00774 0.38231 0.68665 0.0
C706 C 0.9862 0.37937 0.67757 0.0
C707 C 0.97195 0.37571 0.72749 0.0
H708 H 0.63628 1.00539 0.19066 0.0
H709 H 0.59262 0.95369 0.06495 0.0
H710 H 0.65587 0.03011 0.10471 0.0
H711 H 0.61115 0.97866 0.97856 0.0
H712 H 0.65411 0.07668 0.95323 0.0
H713 H 0.6481 0.05168 0.03913 0.0
H714 H 0.64017 1.00007 0.9117 0.0
H715 H 0.6449 0.02486 0.82625 0.0
C716 C 0.63132 0.99913 0.14427 0.0
C717 C 0.61307 0.97759 0.13429 0.0
C718 C 0.64229 1.01343 0.0949 0.0
C719 C 0.63491 1.00676 0.03422 0.0
C720 C 0.61763 0.98451 0.02425 0.0
C721 C 0.60694 0.97003 0.0738 0.0
C722 C 0.65196 0.06031 0.94393 0.0
C723 C 0.65007 0.05273 0.88329 0.0
C724 C 0.6484 0.0458 0.99321 0.0
C725 C 0.64318 0.02349 0.98281 0.0
C726 C 0.64348 0.0168 0.92186 0.0
C727 C 0.64659 0.03114 0.87277 0.0
H728 H 0.6577 0.58917 0.37521 0.0
H729 H 0.6537 0.6306 0.51691 0.0
H730 H 0.65297 0.61162 0.29716 0.0
H731 H 0.65016 0.65407 0.43911 0.0
H732 H 0.63589 0.64551 0.1611 0.0
H733 H 0.66 0.64264 0.23804 0.0
H734 H 0.61857 0.64626 0.38161 0.0
H735 H 0.59546 0.65033 0.3043 0.0
C736 C 0.65719 0.60396 0.38931 0.0
C737 C 0.65616 0.60828 0.45172 0.0
C738 C 0.65438 0.6169 0.34459 0.0
C739 C 0.65064 0.63449 0.36164 0.0
C740 C 0.65238 0.64034 0.42419 0.0
C741 C 0.65479 0.62715 0.46881 0.0
C742 C 0.63278 0.64688 0.2093 0.0
C743 C 0.61403 0.64833 0.22711 0.0
C744 C 0.64635 0.64488 0.25345 0.0
C745 C 0.64101 0.64361 0.31628 0.0
C746 C 0.62347 0.64733 0.33392 0.0
C747 C 0.61015 0.64974 0.28964 0.0
H748 H 0.07974 0.65226 0.73654 0.0
H749 H 0.02854 0.63652 0.87232 0.0
H750 H 0.05326 0.64684 0.65523 0.0
H751 H 1.00219 0.6321 0.79164 0.0
H752 H 1.00457 0.63382 0.51171 0.0
H753 H 0.02885 0.6541 0.59801 0.0
H754 H 0.98224 0.603 0.72165 0.0
H755 H 0.95771 0.58355 0.63532 0.0
C756 C 0.06312 0.64873 0.74907 0.0
C757 C 0.05615 0.6447 0.81054 0.0
C758 C 0.0478 0.64555 0.70243 0.0
C759 C 0.02528 0.63854 0.7165 0.0
C760 C 1.01913 0.63686 0.77873 0.0
C761 C 0.03432 0.63968 0.8251 0.0
C762 C 0.99905 0.62766 0.55791 0.0
C763 C 0.97916 0.60733 0.56716 0.0
C764 C 1.01315 0.63903 0.60731 0.0
C765 C 1.00791 0.63002 0.66697 0.0
C766 C 0.9869 0.6107 0.67672 0.0
C767 C 0.97265 0.59951 0.62725 0.0
H768 H 0.52258 1.00468 0.38614 0.0
H769 H 0.50447 0.05456 0.42852 0.0
H770 H 0.55836 0.02762 0.43565 0.0
H771 H 0.54123 0.07842 0.47203 0.0
H772 H 0.61552 0.05689 0.47749 0.0
H773 H 0.58894 0.06388 0.53225 0.0
H774 H 0.57229 0.08383 0.36247 0.0
H775 H 0.5967 0.07488 0.30758 0.0
C776 C 0.5258 0.01992 0.40918 0.0
C777 C 0.51089 0.02786 0.40357 0.0
C778 C 0.54643 0.03327 0.43693 0.0
C779 C 0.5529 0.05515 0.45626 0.0
C780 C 0.53682 0.06177 0.458 0.0
C781 C 0.51567 0.04792 0.43321 0.0
C782 C 0.60684 0.06369 0.45197 0.0
C783 C 0.60463 0.06119 0.38743 0.0
C784 C 0.59193 0.0682 0.48397 0.0
C785 C 0.5768 0.07187 0.45006 0.0
C786 C 0.58279 0.07954 0.38938 0.0
C787 C 0.59671 0.07386 0.35717 0.0
H788 H 0.48602 0.44407 0.81788 0.0
H789 H 0.5208 0.46573 0.64474 0.0
H790 H 0.51865 0.47353 0.86986 0.0
H791 H 0.55394 0.49223 0.69813 0.0
H792 H 0.51565 0.53376 0.71638 0.0
H793 H 0.5072 0.50015 0.7716 0.0
H794 H 0.57734 0.5258 0.80527 0.0
H795 H 0.58573 0.55996 0.75157 0.0
C796 C 0.50094 0.45418 0.79104 0.0
C797 C 0.49976 0.45546 0.72644 0.0
C798 C 0.51987 0.47072 0.82139 0.0
C799 C 0.53751 0.48692 0.78605 0.0
C800 C 0.53956 0.481 0.72556 0.0
C801 C 0.52019 0.46575 0.6944 0.0
C802 C 0.5291 0.53314 0.74015 0.0
C803 C 0.55132 0.54855 0.72606 0.0
C804 C 0.52435 0.51359 0.77077 0.0
C805 C 0.54178 0.51002 0.79035 0.0
C806 C 0.56367 0.52802 0.79008 0.0
C807 C 0.56834 0.54775 0.75988 0.0
H808 H 0.07363 0.47311 0.07215 0.0
H809 H 0.07003 0.51073 0.91959 0.0
H810 H 0.0754 0.50115 0.14277 0.0
H811 H 0.07394 0.53966 0.98895 0.0
H812 H 1.0017 0.50379 0.07879 0.0
H813 H 0.02961 0.49288 0.09588 0.0
H814 H 0.0803 0.56213 0.1144 0.0
H815 H 0.05199 0.57276 0.10578 0.0
C816 C 0.0753 0.48835 0.05303 0.0
C817 C 0.06844 0.48851 0.99209 0.0
C818 C 0.0762 0.50441 0.09396 0.0
C819 C 0.07303 0.52162 0.07127 0.0
C820 C 0.07542 0.52593 1.00774 0.0
C821 C 0.0733 0.50924 0.96753 0.0
C822 C 1.01833 0.51648 0.09273 0.0
C823 C 0.02514 0.53917 0.08589 0.0
C824 C 0.03455 0.51031 0.10122 0.0
C825 C 0.05733 0.52686 0.10252 0.0
C826 C 0.06304 0.54914 0.11118 0.0
C827 C 0.04655 0.55508 0.10731 0.0
H828 H 0.05165 0.48723 0.2483 0.0
H829 H 1.00311 0.50806 0.27784 0.0
H830 H 0.08066 0.52581 0.23672 0.0
H831 H 0.03171 0.5465 0.25836 0.0
H832 H 0.07262 0.56839 0.43136 0.0
H833 H 0.07584 0.54295 0.36241 0.0
H834 H 0.07786 0.58297 0.20803 0.0
H835 H 0.07686 0.60975 0.27846 0.0
C836 C 0.04669 0.49983 0.24673 0.0
C837 C 0.02564 0.49507 0.26931 0.0
C838 C 0.06359 0.52205 0.24107 0.0
C839 C 0.05862 0.53914 0.2498 0.0
C840 C 0.03605 0.53358 0.25279 0.0
C841 C 1.01945 0.51142 0.26276 0.0
C842 C 0.07575 0.57302 0.38333 0.0
C843 C 0.07092 0.58888 0.35848 0.0
C844 C 0.07756 0.55823 0.34335 0.0
C845 C 0.07504 0.56004 0.27985 0.0
C846 C 0.07862 0.58054 0.25688 0.0
C847 C 0.07808 0.59592 0.29769 0.0
H848 H 0.52353 0.0471 0.61517 0.0
H849 H 0.45607 0.99969 0.56212 0.0
H850 H 0.53646 0.02445 0.56597 0.0
H851 H 0.46893 0.97667 0.51238 0.0
H852 H 0.51048 0.96638 0.69591 0.0
H853 H 0.48432 0.96556 0.62113 0.0
H854 H 0.5357 0.99069 0.48285 0.0
H855 H 0.56211 0.99163 0.55782 0.0
C856 C 0.51169 0.03291 0.58809 0.0
C857 C 0.48874 0.0241 0.5966 0.0
C858 C 0.51906 0.01963 0.56005 0.0
C859 C 0.50352 0.99827 0.5372 0.0
C860 C 0.48122 0.99289 0.53019 0.0
C861 C 0.47393 1.00631 0.55845 0.0
C862 C 0.51579 0.96999 0.64839 0.0
C863 C 0.53855 0.98059 0.63343 0.0
C864 C 0.50068 0.9694 0.60492 0.0
C865 C 0.5088 0.98033 0.54833 0.0
C866 C 0.52956 0.98377 0.5279 0.0
C867 C 0.54473 0.98421 0.57109 0.0
H868 H 0.53834 0.50825 0.95989 0.0
H869 H 0.56637 0.57878 0.92694 0.0
H870 H 0.50522 0.50093 0.90394 0.0
H871 H 0.5327 0.57153 0.87268 0.0
H872 H 0.4492 0.48118 0.86213 0.0
H873 H 0.47904 0.51305 0.80856 0.0
H874 H 0.49947 0.54922 0.97896 0.0
H875 H 0.47247 0.51676 0.03371 0.0
C876 C 0.53822 0.52204 0.93649 0.0
C877 C 0.55397 0.54407 0.95153 0.0
C878 C 0.51896 0.51794 0.90545 0.0
C879 C 0.516 0.53583 0.8865 0.0
C880 C 0.53441 0.5575 0.88744 0.0
C881 C 0.55385 0.56152 0.91804 0.0
C882 C 0.45976 0.49617 0.88829 0.0
C883 C 0.46133 0.49526 0.95288 0.0
C884 C 0.47652 0.51468 0.857 0.0
C885 C 0.49319 0.53226 0.89151 0.0
C886 C 0.48779 0.53487 0.95211 0.0
C887 C 0.47224 0.51588 0.98408 0.0
H888 H 0.39152 0.95264 0.5388 0.0
H889 H 0.38282 0.9916 0.67912 0.0
H890 H 0.40054 0.98255 0.46419 0.0
H891 H 0.39242 0.02176 0.60535 0.0
H892 H 0.41044 0.03857 0.33628 0.0
H893 H 0.38817 1.008 0.40772 0.0
H894 H 0.43173 0.04679 0.55609 0.0
H895 H 0.45429 0.0771 0.48398 0.0
C896 C 0.39011 0.96695 0.55276 0.0
C897 C 0.3856 0.9693 0.61449 0.0
C898 C 0.3957 0.98434 0.51027 0.0
C899 C 0.39743 1.00472 0.52888 0.0
C900 C 0.39132 1.00638 0.58943 0.0
C901 C 0.3853 0.98884 0.63142 0.0
C902 C 0.41452 0.04106 0.3848 0.0
C903 C 0.43367 0.06068 0.40481 0.0
C904 C 0.402 0.02334 0.42553 0.0
C905 C 0.40813 0.02485 0.4877 0.0
C906 C 0.4263 0.04514 0.50873 0.0
C907 C 0.43909 0.06272 0.46761 0.0
H908 H 0.44305 0.37614 0.85854 0.0
H909 H 0.40111 0.37114 0.01108 0.0
H910 H 0.41888 0.38217 0.78897 0.0
H911 H 0.37687 0.37729 0.94187 0.0
H912 H 0.38108 0.43776 0.82187 0.0
H913 H 0.3874 0.41384 0.89171 0.0
H914 H 0.38217 0.37135 0.73953 0.0
H915 H 0.37572 0.39534 0.67004 0.0
C916 C 0.42781 0.3748 0.87653 0.0
C917 C 0.42368 0.37257 0.94003 0.0
C918 C 0.41404 0.37857 0.83678 0.0
C919 C 0.39602 0.38051 0.8599 0.0
C920 C 0.39066 0.37607 0.92256 0.0
C921 C 0.40431 0.37208 0.96208 0.0
C922 C 0.37972 0.42246 0.80413 0.0
C923 C 0.37732 0.41813 0.74072 0.0
C924 C 0.38366 0.40884 0.84403 0.0
C925 C 0.3856 0.39077 0.82116 0.0
C926 C 0.38095 0.38519 0.75865 0.0
C927 C 0.3768 0.39869 0.71898 0.0
H928 H 0.99698 0.36953 1.00445 0.0
H929 H 0.95732 0.37876 0.14142 0.0
H930 H 0.02657 0.37911 0.07982 0.0
H931 H 0.98674 0.3879 0.21761 0.0
H932 H 0.04307 0.40108 0.34722 0.0
H933 H 1.01273 0.37714 0.27701 0.0
H934 H 0.05081 0.41897 0.12504 0.0
H935 H 0.08084 0.44316 0.19581 0.0
C936 C 0.99394 0.37214 0.0518 0.0
C937 C 0.97452 0.37288 0.06717 0.0
C938 C 1.01114 0.3781 0.0947 0.0
C939 C 1.00921 0.3846 0.15453 0.0
C940 C 0.98874 0.38285 0.17199 0.0
C941 C 0.97163 0.37721 0.1286 0.0
C942 C 0.04546 0.40442 0.29831 0.0
C943 C 0.06473 0.42356 0.27674 0.0
C944 C 0.02789 0.39093 0.25826 0.0
C945 C 0.02928 0.39611 0.1954 0.0
C946 C 0.04931 0.41427 0.17305 0.0
C947 C 0.06671 0.42802 0.2134 0.0
H948 H 0.66013 0.03643 0.68255 0.0
H949 H 0.65605 0.07364 0.52943 0.0
H950 H 0.65463 1.00619 0.61328 0.0
H951 H 0.65068 0.04353 0.45967 0.0
H952 H 0.64319 0.98856 0.34016 0.0
H953 H 0.66437 0.01889 0.41283 0.0
H954 H 0.61909 0.97948 0.55754 0.0
H955 H 0.5978 0.94935 0.48434 0.0
C956 C 0.65944 0.03874 0.63349 0.0
C957 C 0.65927 0.05779 0.61127 0.0
C958 C 0.65583 0.02119 0.5939 0.0
C959 C 0.65207 0.02227 0.53084 0.0
C960 C 0.65385 0.0422 0.50779 0.0
C961 C 0.65723 0.05968 0.54765 0.0
C962 C 0.63865 0.98576 0.38837 0.0
C963 C 0.61903 0.96626 0.40657 0.0
C964 C 0.6505 1.00342 0.42978 0.0
C965 C 0.64327 1.00186 0.49089 0.0
C966 C 0.62528 0.98128 0.51094 0.0
C967 C 0.61325 0.96372 0.46916 0.0
H968 H 0.5865 0.64277 0.8802 0.0
H969 H 0.63016 0.64089 0.01805 0.0
H970 H 0.60625 0.63413 0.80091 0.0
H971 H 0.65008 0.63245 0.9394 0.0
H972 H 0.64956 0.57981 0.79921 0.0
H973 H 0.64052 0.59914 0.87887 0.0
H974 H 0.63994 0.64402 0.74191 0.0
H975 H 0.64879 0.62453 0.66285 0.0
C976 C 0.60111 0.64177 0.89307 0.0
C977 C 0.60719 0.64327 0.9552 0.0
C978 C 0.61233 0.6365 0.84773 0.0
C979 C 0.62976 0.63234 0.86352 0.0
C980 C 0.63665 0.63524 0.92529 0.0
C981 C 0.62551 0.64057 0.97032 0.0
C982 C 0.64874 0.59457 0.78682 0.0
C983 C 0.65066 0.60108 0.72496 0.0
C984 C 0.64323 0.60554 0.83236 0.0
C985 C 0.63924 0.62313 0.81703 0.0
C986 C 0.64259 0.63045 0.75563 0.0
C987 C 0.64816 0.61957 0.7104 0.0
H988 H 0.04576 0.65222 0.0084 0.0
H989 H 0.08286 0.64578 0.15805 0.0
H990 H 1.01589 0.64655 0.07954 0.0
H991 H 0.05332 0.64061 0.22968 0.0
H992 H 0.95938 0.59019 0.21381 0.0
H993 H 0.98885 0.6103 0.13758 0.0
H994 H 0.03042 0.65678 0.27751 0.0
H995 H 1.00085 0.63689 0.35303 0.0
C996 C 0.04814 0.65096 0.05716 0.0
C997 C 0.06708 0.6503 0.07796 0.0
C998 C 0.03082 0.64728 0.09773 0.0
C999 C 0.03213 0.64309 0.16035 0.0
C1000 C 0.05188 0.64414 0.18194 0.0
C1001 C 0.06901 0.64742 0.14108 0.0
C1002 C 0.97415 0.6056 0.22729 0.0
C1003 C 0.97755 0.61215 0.28933 0.0
C1004 C 0.99127 0.61696 0.1838 0.0
C1005 C 1.01221 0.63495 0.2017 0.0
C1006 C 1.01464 0.64288 0.26228 0.0
C1007 C 0.99747 0.63173 0.30533 0.0
H1008 H 0.55955 0.11538 0.31924 0.0
H1009 H 0.51641 0.11887 0.45626 0.0
H1010 H 0.58749 0.12235 0.3983 0.0
H1011 H 0.54371 0.1245 0.53617 0.0
H1012 H 0.57229 0.08744 0.64941 0.0
H1013 H 0.55204 0.09698 0.57639 0.0
H1014 H 0.61375 0.14137 0.48285 0.0
H1015 H 0.63436 0.13186 0.55806 0.0
C1016 C 0.55629 0.11812 0.36622 0.0
C1017 C 0.53579 0.11653 0.38164 0.0
C1018 C 0.57228 0.12205 0.41169 0.0
C1019 C 0.56762 0.12318 0.47416 0.0
C1020 C 0.54775 0.12326 0.48877 0.0
C1021 C 0.53211 0.12014 0.44298 0.0
C1022 C 0.5817 0.09953 0.61391 0.0
C1023 C 0.605 0.10883 0.60965 0.0
C1024 C 0.57004 0.10523 0.57211 0.0
C1025 C 0.58113 0.12014 0.52347 0.0
C1026 C 0.60459 0.12986 0.51967 0.0
C1027 C 0.61644 0.12448 0.56281 0.0
H1028 H 0.44311 0.54859 0.68885 0.0
H1029 H 0.41563 0.49878 0.83127 0.0
H1030 H 0.4664 0.57687 0.76476 0.0
H1031 H 0.43884 0.52679 0.90756 0.0
H1032 H 0.48027 0.58186 0.04095 0.0
H1033 H 0.45053 0.55963 0.96704 0.0
H1034 H 0.49908 0.58475 0.81999 0.0
H1035 H 0.52836 0.60741 0.89392 0.0
C1036 C 0.4414 0.54393 0.73693 0.0
C1037 C 0.42711 0.52164 0.75443 0.0
C1038 C 0.45505 0.56004 0.78043 0.0
C1039 C 0.45488 0.55422 0.84262 0.0
C1040 C 0.43939 0.53214 0.86053 0.0
C1041 C 0.42591 0.51601 0.81684 0.0
C1042 C 0.48433 0.58309 0.99248 0.0
C1043 C 0.50649 0.59663 0.97285 0.0
C1044 C 0.46735 0.57018 0.95008 0.0
C1045 C 0.4722 0.57026 0.88704 0.0
C1046 C 0.49441 0.58449 0.8676 0.0
C1047 C 0.5113 0.59749 0.90997 0.0
H1048 H 0.9588 0.46536 1.0054 0.0
H1049 H 0.90852 0.40842 0.10552 0.0
H1050 H 0.95615 0.49046 0.07807 0.0
H1051 H 0.90616 0.43406 0.18057 0.0
H1052 H 0.90183 0.49384 0.2806 0.0
H1053 H 0.89749 0.46619 0.20163 0.0
H1054 H 0.9692 0.49907 0.18306 0.0
H1055 H 0.97347 0.52624 0.25933 0.0
C1056 C 0.94699 0.45814 0.04294 0.0
C1057 C 0.9341 0.43479 0.04994 0.0
C1058 C 0.94553 0.47262 0.08493 0.0
C1059 C 0.9313 0.46439 0.13619 0.0
C1060 C 0.91732 0.441 0.14165 0.0
C1061 C 0.91867 0.4263 0.09875 0.0
C1062 C 0.91658 0.4952 0.25902 0.0
C1063 C 0.93797 0.51246 0.27636 0.0
C1064 C 0.91411 0.47925 0.21422 0.0
C1065 C 0.93298 0.48045 0.18538 0.0
C1066 C 0.95422 0.49772 0.20311 0.0
C1067 C 0.95666 0.51337 0.24747 0.0
H1068 H 0.48934 0.90236 0.36197 0.0
H1069 H 0.54114 0.93989 0.49419 0.0
H1070 H 0.46092 0.89717 0.43819 0.0
H1071 H 0.51307 0.93422 0.57086 0.0
H1072 H 0.45951 0.91778 0.70945 0.0
H1073 H 0.48313 0.91161 0.63748 0.0
H1074 H 0.44798 0.9202 0.48535 0.0
H1075 H 0.42388 0.92542 0.55793 0.0
C1076 C 0.49458 0.90883 0.40804 0.0
C1077 C 0.51742 0.9212 0.42251 0.0
C1078 C 0.47833 0.90615 0.45158 0.0
C1079 C 0.48455 0.91557 0.5109 0.0
C1080 C 0.50744 0.92673 0.52604 0.0
C1081 C 0.52364 0.92987 0.48216 0.0
C1082 C 0.4564 0.91757 0.66059 0.0
C1083 C 0.43958 0.92161 0.63926 0.0
C1084 C 0.4701 0.91428 0.61915 0.0
C1085 C 0.4677 0.91549 0.55509 0.0
C1086 C 0.45023 0.91875 0.53403 0.0
C1087 C 0.43635 0.92176 0.5756 0.0
H1088 H 0.61467 0.52262 0.78473 0.0
H1089 H 0.58774 0.47445 0.63796 0.0
H1090 H 0.5915 0.49368 0.85885 0.0
H1091 H 0.56505 0.445 0.71206 0.0
H1092 H 0.50442 0.4111 0.84806 0.0
H1093 H 0.53257 0.43388 0.77169 0.0
H1094 H 0.58266 0.46094 0.91453 0.0
H1095 H 0.55423 0.43808 0.99051 0.0
C1096 C 0.60434 0.50558 0.76877 0.0
C1097 C 0.60327 0.50067 0.7059 0.0
C1098 C 0.59104 0.48888 0.81126 0.0
C1099 C 0.57628 0.46674 0.79199 0.0
C1100 C 0.57597 0.46176 0.72895 0.0
C1101 C 0.58916 0.47857 0.68642 0.0
C1102 C 0.52166 0.42119 0.8625 0.0
C1103 C 0.52725 0.42238 0.92493 0.0
C1104 C 0.53788 0.43443 0.81876 0.0
C1105 C 0.56003 0.44967 0.8366 0.0
C1106 C 0.56578 0.44981 0.89886 0.0
C1107 C 0.54958 0.4364 0.94243 0.0
H1108 H 0.11492 0.54916 0.3542 0.0
H1109 H 0.12694 0.51001 0.22212 0.0
H1110 H 0.12219 0.57717 0.27669 0.0
H1111 H 0.13499 0.53823 0.14368 0.0
H1112 H 0.11358 0.57225 0.99963 0.0
H1113 H 0.12037 0.55109 0.07671 0.0
H1114 H 0.13688 0.60422 0.20825 0.0
H1115 H 0.12919 0.62482 0.13028 0.0
C1116 C 0.11956 0.54682 0.3084 0.0
C1117 C 0.11994 0.52721 0.29404 0.0
C1118 C 0.12388 0.56303 0.26333 0.0
C1119 C 0.12839 0.56003 0.20177 0.0
C1120 C 0.13061 0.54109 0.18912 0.0
C1121 C 0.1264 0.52492 0.23455 0.0
C1122 C 0.11897 0.57946 0.04495 0.0
C1123 C 0.12047 0.6 0.05909 0.0
C1124 C 0.12301 0.56732 0.08979 0.0
C1125 C 0.12845 0.57515 0.15088 0.0
C1126 C 0.13179 0.59677 0.1632 0.0
C1127 C 0.12779 0.60897 0.11801 0.0
loop_
_geom_bond_atom_site_label_1
_geom_bond_atom_site_label_2
_geom_bond_distance
_geom_bond_site_symmetry_2
_ccdc_geom_bond_type
C0 O16 1.251 . S
C0 O18 1.254 . S
N1 C2 1.333 . S
N1 C6 1.307 . S
N1 Zn7 2.020 . S
C2 N1 1.333 . S
C2 C3 1.379 . S
C2 H20 0.952 . S
C3 C2 1.379 . S
C3 C4 1.390 . S
C3 H30 0.949 . S
C4 C3 1.390 . S
C4 C5 1.357 . S
C5 C4 1.357 . S
C5 C6 1.370 . S
C5 H31 0.950 . S
C6 N1 1.307 . S
C6 C5 1.370 . S
C6 H24 0.948 . S
Zn7 N1 2.020 . S
Zn7 O16 2.039 . S
Zn7 O22 2.034 . S
Zn7 O26 2.025 . S
Zn7 O28 2.024 . S
C8 O27 1.246 . S
C8 O28 1.249 . S
N9 C10 1.307 . S
N9 C11 1.333 . S
N9 Zn15 2.020 . S
C10 N9 1.307 . S
C10 C14 1.370 . S
C10 H21 0.948 . S
C11 N9 1.333 . S
C11 C12 1.379 . S
C11 H19 0.952 . S
C12 C11 1.379 . S
C12 C13 1.390 . S
C12 H32 0.949 1_545 S
C13 C12 1.390 . S
C13 C14 1.357 . S
C14 C10 1.370 . S
C14 C13 1.357 . S
C14 H33 0.950 . S
Zn15 N9 2.020 . S
Zn15 O18 2.025 . S
Zn15 O23 2.024 . S
Zn15 O25 2.039 . S
Zn15 O27 2.034 . S
O16 C0 1.251 . S
O16 Zn7 2.039 . S
C17 O22 1.246 . S
C17 O23 1.249 . S
O18 C0 1.254 . S
O18 Zn15 2.025 . S
H19 C11 0.952 . S
H20 C2 0.952 . S
H21 C10 0.948 . S
O22 Zn7 2.034 . S
O22 C17 1.246 . S
O23 Zn15 2.024 . S
O23 C17 1.249 . S
H24 C6 0.948 . S
O25 Zn15 2.039 . S
O25 C29 1.251 . S
O26 Zn7 2.025 . S
O26 C29 1.254 . S
O27 C8 1.246 . S
O27 Zn15 2.034 . S
O28 Zn7 2.024 . S
O28 C8 1.249 . S
C29 O25 1.251 . S
C29 O26 1.254 . S
H30 C3 0.949 . S
H31 C5 0.950 . S
H32 C12 0.949 1_565 S
H33 C14 0.950 . S
C34 O50 1.251 . S
C34 O52 1.254 . S
N35 C36 1.333 . S
N35 C40 1.307 . S
N35 Zn41 2.020 . S
C36 N35 1.333 . S
C36 C37 1.379 . S
C36 H54 0.952 . S
C37 C36 1.379 . S
C37 C38 1.390 . S
C37 H64 0.949 . S
C38 C37 1.390 . S
C38 C39 1.357 . S
C39 C38 1.357 . S
C39 C40 1.370 . S
C39 H65 0.950 . S
C40 N35 1.307 . S
C40 C39 1.370 . S
C40 H58 0.948 . S
Zn41 N35 2.020 . S
Zn41 O50 2.039 . S
Zn41 O56 2.034 . S
Zn41 O60 2.025 . S
Zn41 O62 2.024 . S
C42 O61 1.246 . S
C42 O62 1.249 . S
N43 C44 1.307 . S
N43 C45 1.333 . S
N43 Zn49 2.020 . S
C44 N43 1.307 . S
C44 C48 1.370 . S
C44 H55 0.948 . S
C45 N43 1.333 . S
C45 C46 1.379 . S
C45 H53 0.952 . S
C46 C45 1.379 . S
C46 C47 1.390 . S
C46 H66 0.949 . S
C47 C46 1.390 . S
C47 C48 1.357 . S
C48 C44 1.370 . S
C48 C47 1.357 . S
C48 H67 0.950 . S
Zn49 N43 2.020 . S
Zn49 O52 2.025 . S
Zn49 O57 2.024 . S
Zn49 O59 2.039 . S
Zn49 O61 2.034 . S
O50 C34 1.251 . S
O50 Zn41 2.039 . S
C51 O56 1.246 . S
C51 O57 1.249 . S
O52 C34 1.254 . S
O52 Zn49 2.025 . S
H53 C45 0.952 . S
H54 C36 0.952 . S
H55 C44 0.948 . S
O56 Zn41 2.034 . S
O56 C51 1.246 . S
O57 Zn49 2.024 . S
O57 C51 1.249 . S
H58 C40 0.948 . S
O59 Zn49 2.039 . S
O59 C63 1.251 . S
O60 Zn41 2.025 . S
O60 C63 1.254 . S
O61 C42 1.246 . S
O61 Zn49 2.034 . S
O62 Zn41 2.024 . S
O62 C42 1.249 . S
C63 O59 1.251 . S
C63 O60 1.254 . S
H64 C37 0.949 . S
H65 C39 0.950 . S
H66 C46 0.949 . S
H67 C48 0.950 . S
C68 O84 1.251 . S
C68 O86 1.254 . S
N69 C70 1.333 . S
N69 C74 1.307 . S
N69 Zn75 2.020 . S
C70 N69 1.333 . S
C70 C71 1.379 . S
C70 H88 0.952 . S
C71 C70 1.379 . S
C71 C72 1.390 . S
C71 H98 0.949 . S
C72 C71 1.390 . S
C72 C73 1.357 . S
C73 C72 1.357 . S
C73 C74 1.370 . S
C73 H99 0.950 . S
C74 N69 1.307 . S
C74 C73 1.370 . S
C74 H92 0.948 . S
Zn75 N69 2.020 . S
Zn75 O84 2.039 . S
Zn75 O90 2.034 . S
Zn75 O94 2.025 . S
Zn75 O96 2.024 . S
C76 O95 1.246 . S
C76 O96 1.249 . S
N77 C78 1.307 . S
N77 C79 1.333 . S
N77 Zn83 2.020 . S
C78 N77 1.307 . S
C78 C82 1.370 . S
C78 H89 0.948 . S
C79 N77 1.333 . S
C79 C80 1.379 . S
C79 H87 0.952 . S
C80 C79 1.379 . S
C80 C81 1.390 . S
C80 H100 0.949 1_655 S
C81 C80 1.390 . S
C81 C82 1.357 . S
C82 C78 1.370 . S
C82 C81 1.357 . S
C82 H101 0.950 . S
Zn83 N77 2.020 . S
Zn83 O86 2.025 . S
Zn83 O91 2.024 . S
Zn83 O93 2.039 . S
Zn83 O95 2.034 . S
O84 C68 1.251 . S
O84 Zn75 2.039 . S
C85 O90 1.246 1_554 S
C85 O91 1.249 1_554 S
O86 C68 1.254 . S
O86 Zn83 2.025 . S
H87 C79 0.952 . S
H88 C70 0.952 . S
H89 C78 0.948 . S
O90 Zn75 2.034 . S
O90 C85 1.246 1_556 S
O91 Zn83 2.024 . S
O91 C85 1.249 1_556 S
H92 C74 0.948 . S
O93 Zn83 2.039 . S
O93 C97 1.251 1_556 S
O94 Zn75 2.025 . S
O94 C97 1.254 1_556 S
O95 C76 1.246 . S
O95 Zn83 2.034 . S
O96 Zn75 2.024 . S
O96 C76 1.249 . S
C97 O93 1.251 1_554 S
C97 O94 1.254 1_554 S
H98 C71 0.949 . S
H99 C73 0.950 . S
H100 C80 0.949 1_455 S
H101 C82 0.950 . S
C102 O118 1.251 . S
C102 O120 1.254 . S
N103 C104 1.333 . S
N103 C108 1.307 . S
N103 Zn109 2.020 . S
C104 N103 1.333 . S
C104 C105 1.379 . S
C104 H122 0.952 . S
C105 C104 1.379 . S
C105 C106 1.390 . S
C105 H132 0.949 . S
C106 C105 1.390 . S
C106 C107 1.357 . S
C107 C106 1.357 . S
C107 C108 1.370 . S
C107 H133 0.950 . S
C108 N103 1.307 . S
C108 C107 1.370 . S
C108 H126 0.948 . S
Zn109 N103 2.020 . S
Zn109 O118 2.039 . S
Zn109 O124 2.034 . S
Zn109 O128 2.025 . S
Zn109 O130 2.024 . S
C110 O129 1.246 . S
C110 O130 1.249 . S
N111 C112 1.307 . S
N111 C113 1.333 . S
N111 Zn117 2.020 . S
C112 N111 1.307 . S
C112 C116 1.370 . S
C112 H123 0.948 . S
C113 N111 1.333 . S
C113 C114 1.379 . S
C113 H121 0.952 . S
C114 C113 1.379 . S
C114 C115 1.390 . S
C114 H134 0.949 1_565 S
C115 C114 1.390 . S
C115 C116 1.357 . S
C116 C112 1.370 . S
C116 C115 1.357 . S
C116 H135 0.950 . S
Zn117 N111 2.020 . S
Zn117 O120 2.025 . S
Zn117 O125 2.024 . S
Zn117 O127 2.039 . S
Zn117 O129 2.034 . S
O118 C102 1.251 . S
O118 Zn109 2.039 . S
C119 O124 1.246 . S
C119 O125 1.249 . S
O120 C102 1.254 . S
O120 Zn117 2.025 . S
H121 C113 0.952 . S
H122 C104 0.952 . S
H123 C112 0.948 . S
O124 Zn109 2.034 . S
O124 C119 1.246 . S
O125 Zn117 2.024 . S
O125 C119 1.249 . S
H126 C108 0.948 . S
O127 Zn117 2.039 . S
O127 C131 1.251 . S
O128 Zn109 2.025 . S
O128 C131 1.254 . S
O129 C110 1.246 . S
O129 Zn117 2.034 . S
O130 Zn109 2.024 . S
O130 C110 1.249 . S
C131 O127 1.251 . S
C131 O128 1.254 . S
H132 C105 0.949 . S
H133 C107 0.950 . S
H134 C114 0.949 1_545 S
H135 C116 0.950 . S
C136 O152 1.251 . S
C136 O154 1.254 . S
N137 C138 1.333 . S
N137 C142 1.307 . S
N137 Zn143 2.020 . S
C138 N137 1.333 . S
C138 C139 1.379 . S
C138 H156 0.952 . S
C139 C138 1.379 . S
C139 C140 1.390 . S
C139 H166 0.949 . S
C140 C139 1.390 . S
C140 C141 1.357 . S
C141 C140 1.357 . S
C141 C142 1.370 . S
C141 H167 0.950 . S
C142 N137 1.307 . S
C142 C141 1.370 . S
C142 H160 0.948 . S
Zn143 N137 2.020 . S
Zn143 O152 2.039 . S
Zn143 O158 2.034 . S
Zn143 O162 2.025 . S
Zn143 O164 2.024 . S
C144 O163 1.246 . S
C144 O164 1.249 . S
N145 C146 1.307 . S
N145 C147 1.333 . S
N145 Zn151 2.020 . S
C146 N145 1.307 . S
C146 C150 1.370 . S
C146 H157 0.948 . S
C147 N145 1.333 . S
C147 C148 1.379 . S
C147 H155 0.952 . S
C148 C147 1.379 . S
C148 C149 1.390 . S
C148 H168 0.949 . S
C149 C148 1.390 . S
C149 C150 1.357 . S
C150 C146 1.370 . S
C150 C149 1.357 . S
C150 H169 0.950 . S
Zn151 N145 2.020 . S
Zn151 O154 2.025 . S
Zn151 O159 2.024 . S
Zn151 O161 2.039 . S
Zn151 O163 2.034 . S
O152 C136 1.251 . S
O152 Zn143 2.039 . S
C153 O158 1.246 . S
C153 O159 1.249 . S
O154 C136 1.254 . S
O154 Zn151 2.025 . S
H155 C147 0.952 . S
H156 C138 0.952 . S
H157 C146 0.948 . S
O158 Zn143 2.034 . S
O158 C153 1.246 . S
O159 Zn151 2.024 . S
O159 C153 1.249 . S
H160 C142 0.948 . S
O161 Zn151 2.039 . S
O161 C165 1.251 . S
O162 Zn143 2.025 . S
O162 C165 1.254 . S
O163 C144 1.246 . S
O163 Zn151 2.034 . S
O164 Zn143 2.024 . S
O164 C144 1.249 . S
C165 O161 1.251 . S
C165 O162 1.254 . S
H166 C139 0.949 . S
H167 C141 0.950 . S
H168 C148 0.949 . S
H169 C150 0.950 . S
C170 O186 1.251 . S
C170 O188 1.254 . S
N171 C172 1.333 . S
N171 C176 1.307 . S
N171 Zn177 2.020 . S
C172 N171 1.333 . S
C172 C173 1.379 . S
C172 H190 0.952 . S
C173 C172 1.379 . S
C173 C174 1.390 . S
C173 H200 0.949 . S
C174 C173 1.390 . S
C174 C175 1.357 . S
C175 C174 1.357 . S
C175 C176 1.370 . S
C175 H201 0.950 . S
C176 N171 1.307 . S
C176 C175 1.370 . S
C176 H194 0.948 . S
Zn177 N171 2.020 . S
Zn177 O186 2.039 . S
Zn177 O192 2.034 . S
Zn177 O196 2.025 . S
Zn177 O198 2.024 . S
C178 O197 1.246 . S
C178 O198 1.249 . S
N179 C180 1.307 . S
N179 C181 1.333 . S
N179 Zn185 2.020 . S
C180 N179 1.307 . S
C180 C184 1.370 . S
C180 H191 0.948 . S
C181 N179 1.333 . S
C181 C182 1.379 . S
C181 H189 0.952 . S
C182 C181 1.379 . S
C182 C183 1.390 . S
C182 H202 0.949 1_455 S
C183 C182 1.390 . S
C183 C184 1.357 . S
C184 C180 1.370 . S
C184 C183 1.357 . S
C184 H203 0.950 . S
Zn185 N179 2.020 . S
Zn185 O188 2.025 . S
Zn185 O193 2.024 . S
Zn185 O195 2.039 . S
Zn185 O197 2.034 . S
O186 C170 1.251 . S
O186 Zn177 2.039 . S
C187 O192 1.246 1_554 S
C187 O193 1.249 1_554 S
O188 C170 1.254 . S
O188 Zn185 2.025 . S
H189 C181 0.952 . S
H190 C172 0.952 . S
H191 C180 0.948 . S
O192 Zn177 2.034 . S
O192 C187 1.246 1_556 S
O193 Zn185 2.024 . S
O193 C187 1.249 1_556 S
H194 C176 0.948 . S
O195 Zn185 2.039 . S
O195 C199 1.251 1_556 S
O196 Zn177 2.025 . S
O196 C199 1.254 1_556 S
O197 C178 1.246 . S
O197 Zn185 2.034 . S
O198 Zn177 2.024 . S
O198 C178 1.249 . S
C199 O195 1.251 1_554 S
C199 O196 1.254 1_554 S
H200 C173 0.949 . S
H201 C175 0.950 . S
H202 C182 0.949 1_655 S
H203 C184 0.950 . S
C204 O220 1.251 . S
C204 O222 1.254 . S
N205 C206 1.333 . S
N205 C210 1.307 . S
N205 Zn211 2.020 . S
C206 N205 1.333 . S
C206 C207 1.379 . S
C206 H224 0.952 . S
C207 C206 1.379 . S
C207 C208 1.390 . S
C207 H234 0.949 . S
C208 C207 1.390 . S
C208 C209 1.357 . S
C209 C208 1.357 . S
C209 C210 1.370 . S
C209 H235 0.950 . S
C210 N205 1.307 . S
C210 C209 1.370 . S
C210 H228 0.948 . S
Zn211 N205 2.020 . S
Zn211 O220 2.039 . S
Zn211 O226 2.034 . S
Zn211 O230 2.025 . S
Zn211 O232 2.024 . S
C212 O231 1.246 . S
C212 O232 1.249 . S
N213 C214 1.307 . S
N213 C215 1.333 . S
N213 Zn219 2.020 . S
C214 N213 1.307 . S
C214 C218 1.370 . S
C214 H225 0.948 . S
C215 N213 1.333 . S
C215 C216 1.379 . S
C215 H223 0.952 . S
C216 C215 1.379 . S
C216 C217 1.390 . S
C216 H236 0.949 1_655 S
C217 C216 1.390 . S
C217 C218 1.357 . S
C218 C214 1.370 . S
C218 C217 1.357 . S
C218 H237 0.950 . S
Zn219 N213 2.020 . S
Zn219 O222 2.025 . S
Zn219 O227 2.024 . S
Zn219 O229 2.039 . S
Zn219 O231 2.034 . S
O220 C204 1.251 . S
O220 Zn211 2.039 . S
C221 O226 1.246 . S
C221 O227 1.249 . S
O222 C204 1.254 . S
O222 Zn219 2.025 . S
H223 C215 0.952 . S
H224 C206 0.952 . S
H225 C214 0.948 . S
O226 Zn211 2.034 . S
O226 C221 1.246 . S
O227 Zn219 2.024 . S
O227 C221 1.249 . S
H228 C210 0.948 . S
O229 Zn219 2.039 . S
O229 C233 1.251 . S
O230 Zn211 2.025 . S
O230 C233 1.254 . S
O231 C212 1.246 . S
O231 Zn219 2.034 . S
O232 Zn211 2.024 . S
O232 C212 1.249 . S
C233 O229 1.251 . S
C233 O230 1.254 . S
H234 C207 0.949 . S
H235 C209 0.950 . S
H236 C216 0.949 1_455 S
H237 C218 0.950 . S
C238 O254 1.251 . S
C238 O256 1.254 . S
N239 C240 1.333 . S
N239 C244 1.307 . S
N239 Zn245 2.020 . S
C240 N239 1.333 . S
C240 C241 1.379 . S
C240 H258 0.952 . S
C241 C240 1.379 . S
C241 C242 1.390 . S
C241 H268 0.949 . S
C242 C241 1.390 . S
C242 C243 1.357 . S
C243 C242 1.357 . S
C243 C244 1.370 . S
C243 H269 0.950 . S
C244 N239 1.307 . S
C244 C243 1.370 . S
C244 H262 0.948 . S
Zn245 N239 2.020 . S
Zn245 O254 2.039 . S
Zn245 O260 2.034 . S
Zn245 O264 2.025 . S
Zn245 O266 2.024 . S
C246 O265 1.246 . S
C246 O266 1.249 . S
N247 C248 1.307 . S
N247 C249 1.333 . S
N247 Zn253 2.020 . S
C248 N247 1.307 . S
C248 C252 1.370 . S
C248 H259 0.948 . S
C249 N247 1.333 . S
C249 C250 1.379 . S
C249 H257 0.952 . S
C250 C249 1.379 . S
C250 C251 1.390 . S
C250 H270 0.949 1_565 S
C251 C250 1.390 . S
C251 C252 1.357 . S
C252 C248 1.370 . S
C252 C251 1.357 . S
C252 H271 0.950 . S
Zn253 N247 2.020 . S
Zn253 O256 2.025 . S
Zn253 O261 2.024 . S
Zn253 O263 2.039 . S
Zn253 O265 2.034 . S
O254 C238 1.251 . S
O254 Zn245 2.039 . S
C255 O260 1.246 . S
C255 O261 1.249 . S
O256 C238 1.254 . S
O256 Zn253 2.025 . S
H257 C249 0.952 . S
H258 C240 0.952 . S
H259 C248 0.948 . S
O260 Zn245 2.034 . S
O260 C255 1.246 . S
O261 Zn253 2.024 . S
O261 C255 1.249 . S
H262 C244 0.948 . S
O263 Zn253 2.039 . S
O263 C267 1.251 . S
O264 Zn245 2.025 . S
O264 C267 1.254 . S
O265 C246 1.246 . S
O265 Zn253 2.034 . S
O266 Zn245 2.024 . S
O266 C246 1.249 . S
C267 O263 1.251 . S
C267 O264 1.254 . S
H268 C241 0.949 . S
H269 C243 0.950 . S
H270 C250 0.949 1_545 S
H271 C252 0.950 . S
C272 O288 1.251 . S
C272 O290 1.254 . S
N273 C274 1.333 . S
N273 C278 1.307 . S
N273 Zn279 2.020 . S
C274 N273 1.333 . S
C274 C275 1.379 . S
C274 H292 0.952 . S
C275 C274 1.379 . S
C275 C276 1.390 . S
C275 H302 0.949 . S
C276 C275 1.390 . S
C276 C277 1.357 . S
C277 C276 1.357 . S
C277 C278 1.370 . S
C277 H303 0.950 . S
C278 N273 1.307 . S
C278 C277 1.370 . S
C278 H296 0.948 . S
Zn279 N273 2.020 . S
Zn279 O288 2.039 . S
Zn279 O294 2.034 . S
Zn279 O298 2.025 . S
Zn279 O300 2.024 . S
C280 O299 1.246 . S
C280 O300 1.249 . S
N281 C282 1.307 . S
N281 C283 1.333 . S
N281 Zn287 2.020 . S
C282 N281 1.307 . S
C282 C286 1.370 . S
C282 H293 0.948 . S
C283 N281 1.333 . S
C283 C284 1.379 . S
C283 H291 0.952 . S
C284 C283 1.379 . S
C284 C285 1.390 . S
C284 H304 0.949 . S
C285 C284 1.390 . S
C285 C286 1.357 . S
C286 C282 1.370 . S
C286 C285 1.357 . S
C286 H305 0.950 . S
Zn287 N281 2.020 . S
Zn287 O290 2.025 . S
Zn287 O295 2.024 . S
Zn287 O297 2.039 . S
Zn287 O299 2.034 . S
O288 C272 1.251 . S
O288 Zn279 2.039 . S
C289 O294 1.246 1_556 S
C289 O295 1.249 1_556 S
O290 C272 1.254 . S
O290 Zn287 2.025 . S
H291 C283 0.952 . S
H292 C274 0.952 . S
H293 C282 0.948 . S
O294 Zn279 2.034 . S
O294 C289 1.246 1_554 S
O295 Zn287 2.024 . S
O295 C289 1.249 1_554 S
H296 C278 0.948 . S
O297 Zn287 2.039 . S
O297 C301 1.251 1_554 S
O298 Zn279 2.025 . S
O298 C301 1.254 1_554 S
O299 C280 1.246 . S
O299 Zn287 2.034 . S
O300 Zn279 2.024 . S
O300 C280 1.249 . S
C301 O297 1.251 1_556 S
C301 O298 1.254 1_556 S
H302 C275 0.949 . S
H303 C277 0.950 . S
H304 C284 0.949 . S
H305 C286 0.950 . S
C306 O322 1.251 . S
C306 O324 1.254 . S
N307 C308 1.333 . S
N307 C312 1.307 . S
N307 Zn313 2.020 . S
C308 N307 1.333 . S
C308 C309 1.379 . S
C308 H326 0.952 . S
C309 C308 1.379 . S
C309 C310 1.390 . S
C309 H336 0.949 . S
C310 C309 1.390 . S
C310 C311 1.357 . S
C311 C310 1.357 . S
C311 C312 1.370 . S
C311 H337 0.950 . S
C312 N307 1.307 . S
C312 C311 1.370 . S
C312 H330 0.948 . S
Zn313 N307 2.020 . S
Zn313 O322 2.039 . S
Zn313 O328 2.034 . S
Zn313 O332 2.025 . S
Zn313 O334 2.024 . S
C314 O333 1.246 . S
C314 O334 1.249 . S
N315 C316 1.307 . S
N315 C317 1.333 . S
N315 Zn321 2.020 . S
C316 N315 1.307 . S
C316 C320 1.370 . S
C316 H327 0.948 . S
C317 N315 1.333 . S
C317 C318 1.379 . S
C317 H325 0.952 . S
C318 C317 1.379 . S
C318 C319 1.390 . S
C318 H338 0.949 1_455 S
C319 C318 1.390 . S
C319 C320 1.357 . S
C320 C316 1.370 . S
C320 C319 1.357 . S
C320 H339 0.950 . S
Zn321 N315 2.020 . S
Zn321 O324 2.025 . S
Zn321 O329 2.024 . S
Zn321 O331 2.039 . S
Zn321 O333 2.034 . S
O322 C306 1.251 . S
O322 Zn313 2.039 . S
C323 O328 1.246 . S
C323 O329 1.249 . S
O324 C306 1.254 . S
O324 Zn321 2.025 . S
H325 C317 0.952 . S
H326 C308 0.952 . S
H327 C316 0.948 . S
O328 Zn313 2.034 . S
O328 C323 1.246 . S
O329 Zn321 2.024 . S
O329 C323 1.249 . S
H330 C312 0.948 . S
O331 Zn321 2.039 . S
O331 C335 1.251 . S
O332 Zn313 2.025 . S
O332 C335 1.254 . S
O333 C314 1.246 . S
O333 Zn321 2.034 . S
O334 Zn313 2.024 . S
O334 C314 1.249 . S
C335 O331 1.251 . S
C335 O332 1.254 . S
H336 C309 0.949 . S
H337 C311 0.950 . S
H338 C318 0.949 1_655 S
H339 C320 0.950 . S
C340 O356 1.251 . S
C340 O358 1.254 . S
N341 C342 1.333 . S
N341 C346 1.307 . S
N341 Zn347 2.020 . S
C342 N341 1.333 . S
C342 C343 1.379 . S
C342 H360 0.952 . S
C343 C342 1.379 . S
C343 C344 1.390 . S
C343 H370 0.949 . S
C344 C343 1.390 . S
C344 C345 1.357 . S
C345 C344 1.357 . S
C345 C346 1.370 . S
C345 H371 0.950 . S
C346 N341 1.307 . S
C346 C345 1.370 . S
C346 H364 0.948 . S
Zn347 N341 2.020 . S
Zn347 O356 2.039 . S
Zn347 O362 2.034 . S
Zn347 O366 2.025 . S
Zn347 O368 2.024 . S
C348 O367 1.246 . S
C348 O368 1.249 . S
N349 C350 1.307 . S
N349 C351 1.333 . S
N349 Zn355 2.020 . S
C350 N349 1.307 . S
C350 C354 1.370 . S
C350 H361 0.948 . S
C351 N349 1.333 . S
C351 C352 1.379 . S
C351 H359 0.952 . S
C352 C351 1.379 . S
C352 C353 1.390 . S
C352 H372 0.949 1_545 S
C353 C352 1.390 . S
C353 C354 1.357 . S
C354 C350 1.370 . S
C354 C353 1.357 . S
C354 H373 0.950 . S
Zn355 N349 2.020 . S
Zn355 O358 2.025 . S
Zn355 O363 2.024 . S
Zn355 O365 2.039 . S
Zn355 O367 2.034 . S
O356 C340 1.251 . S
O356 Zn347 2.039 . S
C357 O362 1.246 . S
C357 O363 1.249 . S
O358 C340 1.254 . S
O358 Zn355 2.025 . S
H359 C351 0.952 . S
H360 C342 0.952 . S
H361 C350 0.948 . S
O362 Zn347 2.034 . S
O362 C357 1.246 . S
O363 Zn355 2.024 . S
O363 C357 1.249 . S
H364 C346 0.948 . S
O365 Zn355 2.039 . S
O365 C369 1.251 . S
O366 Zn347 2.025 . S
O366 C369 1.254 . S
O367 C348 1.246 . S
O367 Zn355 2.034 . S
O368 Zn347 2.024 . S
O368 C348 1.249 . S
C369 O365 1.251 . S
C369 O366 1.254 . S
H370 C343 0.949 . S
H371 C345 0.950 . S
H372 C352 0.949 1_565 S
H373 C354 0.950 . S
C374 O390 1.251 . S
C374 O392 1.254 . S
N375 C376 1.333 . S
N375 C380 1.307 . S
N375 Zn381 2.020 . S
C376 N375 1.333 . S
C376 C377 1.379 . S
C376 H394 0.952 . S
C377 C376 1.379 . S
C377 C378 1.390 . S
C377 H404 0.949 . S
C378 C377 1.390 . S
C378 C379 1.357 . S
C379 C378 1.357 . S
C379 C380 1.370 . S
C379 H405 0.950 . S
C380 N375 1.307 . S
C380 C379 1.370 . S
C380 H398 0.948 . S
Zn381 N375 2.020 . S
Zn381 O390 2.039 . S
Zn381 O396 2.034 . S
Zn381 O400 2.025 . S
Zn381 O402 2.024 . S
C382 O401 1.246 . S
C382 O402 1.249 . S
N383 C384 1.307 . S
N383 C385 1.333 . S
N383 Zn389 2.020 . S
C384 N383 1.307 . S
C384 C388 1.370 . S
C384 H395 0.948 . S
C385 N383 1.333 . S
C385 C386 1.379 . S
C385 H393 0.952 . S
C386 C385 1.379 . S
C386 C387 1.390 . S
C386 H406 0.949 . S
C387 C386 1.390 . S
C387 C388 1.357 . S
C388 C384 1.370 . S
C388 C387 1.357 . S
C388 H407 0.950 . S
Zn389 N383 2.020 . S
Zn389 O392 2.025 . S
Zn389 O397 2.024 . S
Zn389 O399 2.039 . S
Zn389 O401 2.034 . S
O390 C374 1.251 . S
O390 Zn381 2.039 . S
C391 O396 1.246 1_556 S
C391 O397 1.249 1_556 S
O392 C374 1.254 . S
O392 Zn389 2.025 . S
H393 C385 0.952 . S
H394 C376 0.952 . S
H395 C384 0.948 . S
O396 Zn381 2.034 . S
O396 C391 1.246 1_554 S
O397 Zn389 2.024 . S
O397 C391 1.249 1_554 S
H398 C380 0.948 . S
O399 Zn389 2.039 . S
O399 C403 1.251 1_554 S
O400 Zn381 2.025 . S
O400 C403 1.254 1_554 S
O401 C382 1.246 . S
O401 Zn389 2.034 . S
O402 Zn381 2.024 . S
O402 C382 1.249 . S
C403 O399 1.251 1_556 S
C403 O400 1.254 1_556 S
H404 C377 0.949 . S
H405 C379 0.950 . S
H406 C386 0.949 . S
H407 C388 0.950 . S
H408 C416 0.950 . S
H409 C421 0.950 . S
H410 C418 0.950 . S
H411 C420 0.950 . S
H412 C422 0.950 . S
H413 C424 0.950 . S
H414 C426 0.950 . S
H415 C427 0.950 . S
C416 H408 0.950 . S
C416 C417 1.386 . S
C416 C418 1.391 . S
C417 C416 1.386 . S
C417 C421 1.393 . S
C418 H410 0.950 . S
C418 C416 1.391 . S
C418 C419 1.400 . S
C419 C418 1.400 . S
C419 C420 1.398 . S
C419 C425 1.491 . S
C420 H411 0.950 . S
C420 C419 1.398 . S
C420 C421 1.391 . S
C421 H409 0.950 . S
C421 C417 1.393 . S
C421 C420 1.391 . S
C422 H412 0.950 . S
C422 C423 1.386 . S
C422 C424 1.391 . S
C423 C422 1.386 . S
C423 C427 1.393 . S
C424 H413 0.950 . S
C424 C422 1.391 . S
C424 C425 1.400 . S
C425 C419 1.491 . S
C425 C424 1.400 . S
C425 C426 1.398 . S
C426 H414 0.950 . S
C426 C425 1.398 . S
C426 C427 1.391 . S
C427 H415 0.950 . S
C427 C423 1.393 . S
C427 C426 1.391 . S
H428 C436 0.950 . S
H429 C441 0.950 . S
H430 C438 0.950 . S
H431 C440 0.950 . S
H432 C442 0.950 . S
H433 C444 0.950 . S
H434 C446 0.950 . S
H435 C447 0.950 . S
C436 H428 0.950 . S
C436 C437 1.386 . S
C436 C438 1.391 . S
C437 C436 1.386 . S
C437 C441 1.393 . S
C438 H430 0.950 . S
C438 C436 1.391 . S
C438 C439 1.400 . S
C439 C438 1.400 . S
C439 C440 1.398 . S
C439 C445 1.491 . S
C440 H431 0.950 . S
C440 C439 1.398 . S
C440 C441 1.391 . S
C441 H429 0.950 . S
C441 C437 1.393 . S
C441 C440 1.391 . S
C442 H432 0.950 . S
C442 C443 1.386 . S
C442 C444 1.391 . S
C443 C442 1.386 . S
C443 C447 1.393 . S
C444 H433 0.950 . S
C444 C442 1.391 . S
C444 C445 1.400 . S
C445 C439 1.491 . S
C445 C444 1.400 . S
C445 C446 1.398 . S
C446 H434 0.950 . S
C446 C445 1.398 . S
C446 C447 1.391 . S
C447 H435 0.950 . S
C447 C443 1.393 . S
C447 C446 1.391 . S
H448 C456 0.950 . S
H449 C461 0.950 . S
H450 C458 0.950 . S
H451 C460 0.950 . S
H452 C462 0.950 . S
H453 C464 0.950 . S
H454 C466 0.950 . S
H455 C467 0.950 . S
C456 H448 0.950 . S
C456 C457 1.386 . S
C456 C458 1.391 . S
C457 C456 1.386 . S
C457 C461 1.393 . S
C458 H450 0.950 . S
C458 C456 1.391 . S
C458 C459 1.400 . S
C459 C458 1.400 . S
C459 C460 1.398 . S
C459 C465 1.491 . S
C460 H451 0.950 . S
C460 C459 1.398 . S
C460 C461 1.391 . S
C461 H449 0.950 . S
C461 C457 1.393 . S
C461 C460 1.391 . S
C462 H452 0.950 . S
C462 C463 1.386 . S
C462 C464 1.391 . S
C463 C462 1.386 . S
C463 C467 1.393 . S
C464 H453 0.950 . S
C464 C462 1.391 . S
C464 C465 1.400 . S
C465 C459 1.491 . S
C465 C464 1.400 . S
C465 C466 1.398 . S
C466 H454 0.950 . S
C466 C465 1.398 . S
C466 C467 1.391 . S
C467 H455 0.950 . S
C467 C463 1.393 . S
C467 C466 1.391 . S
H468 C476 0.950 . S
H469 C481 0.950 . S
H470 C478 0.950 . S
H471 C480 0.950 . S
H472 C482 0.950 . S
H473 C484 0.950 . S
H474 C486 0.950 . S
H475 C487 0.950 . S
C476 H468 0.950 . S
C476 C477 1.386 . S
C476 C478 1.391 . S
C477 C476 1.386 . S
C477 C481 1.393 . S
C478 H470 0.950 . S
C478 C476 1.391 . S
C478 C479 1.400 . S
C479 C478 1.400 . S
C479 C480 1.398 . S
C479 C485 1.491 . S
C480 H471 0.950 . S
C480 C479 1.398 . S
C480 C481 1.391 . S
C481 H469 0.950 . S
C481 C477 1.393 . S
C481 C480 1.391 . S
C482 H472 0.950 . S
C482 C483 1.386 . S
C482 C484 1.391 . S
C483 C482 1.386 . S
C483 C487 1.393 . S
C484 H473 0.950 . S
C484 C482 1.391 . S
C484 C485 1.400 . S
C485 C479 1.491 . S
C485 C484 1.400 . S
C485 C486 1.398 . S
C486 H474 0.950 . S
C486 C485 1.398 . S
C486 C487 1.391 . S
C487 H475 0.950 . S
C487 C483 1.393 . S
C487 C486 1.391 . S
H488 C496 0.950 . S
H489 C501 0.950 . S
H490 C498 0.950 . S
H491 C500 0.950 . S
H492 C502 0.950 . S
H493 C504 0.950 . S
H494 C506 0.950 . S
H495 C507 0.950 . S
C496 H488 0.950 . S
C496 C497 1.386 . S
C496 C498 1.391 . S
C497 C496 1.386 . S
C497 C501 1.393 . S
C498 H490 0.950 . S
C498 C496 1.391 . S
C498 C499 1.400 . S
C499 C498 1.400 . S
C499 C500 1.398 . S
C499 C505 1.491 . S
C500 H491 0.950 . S
C500 C499 1.398 . S
C500 C501 1.391 . S
C501 H489 0.950 . S
C501 C497 1.393 . S
C501 C500 1.391 . S
C502 H492 0.950 . S
C502 C503 1.386 . S
C502 C504 1.391 . S
C503 C502 1.386 . S
C503 C507 1.393 . S
C504 H493 0.950 . S
C504 C502 1.391 . S
C504 C505 1.400 . S
C505 C499 1.491 . S
C505 C504 1.400 . S
C505 C506 1.398 . S
C506 H494 0.950 . S
C506 C505 1.398 . S
C506 C507 1.391 . S
C507 H495 0.950 . S
C507 C503 1.393 . S
C507 C506 1.391 . S
H508 C516 0.950 . S
H509 C521 0.950 . S
H510 C518 0.950 . S
H511 C520 0.950 . S
H512 C522 0.950 . S
H513 C524 0.950 . S
H514 C526 0.950 . S
H515 C527 0.950 . S
C516 H508 0.950 . S
C516 C517 1.386 . S
C516 C518 1.391 . S
C517 C516 1.386 . S
C517 C521 1.393 . S
C518 H510 0.950 . S
C518 C516 1.391 . S
C518 C519 1.400 . S
C519 C518 1.400 . S
C519 C520 1.398 . S
C519 C525 1.491 . S
C520 H511 0.950 . S
C520 C519 1.398 . S
C520 C521 1.391 . S
C521 H509 0.950 . S
C521 C517 1.393 . S
C521 C520 1.391 . S
C522 H512 0.950 . S
C522 C523 1.386 . S
C522 C524 1.391 . S
C523 C522 1.386 . S
C523 C527 1.393 . S
C524 H513 0.950 . S
C524 C522 1.391 . S
C524 C525 1.400 . S
C525 C519 1.491 . S
C525 C524 1.400 . S
C525 C526 1.398 . S
C526 H514 0.950 . S
C526 C525 1.398 . S
C526 C527 1.391 . S
C527 H515 0.950 . S
C527 C523 1.393 . S
C527 C526 1.391 . S
H528 C536 0.950 . S
H529 C541 0.950 . S
H530 C538 0.950 . S
H531 C540 0.950 1_554 S
H532 C542 0.950 . S
H533 C544 0.950 . S
H534 C546 0.950 1_556 S
H535 C547 0.950 . S
C536 H528 0.950 . S
C536 C537 1.386 . S
C536 C538 1.391 . S
C537 C536 1.386 . S
C537 C541 1.393 . S
C538 H530 0.950 . S
C538 C536 1.391 . S
C538 C539 1.400 . S
C539 C538 1.400 . S
C539 C540 1.398 . S
C539 C545 1.491 1_556 S
C540 H531 0.950 1_556 S
C540 C539 1.398 . S
C540 C541 1.391 . S
C541 H529 0.950 . S
C541 C537 1.393 . S
C541 C540 1.391 . S
C542 H532 0.950 . S
C542 C543 1.386 . S
C542 C544 1.391 . S
C543 C542 1.386 . S
C543 C547 1.393 . S
C544 H533 0.950 . S
C544 C542 1.391 . S
C544 C545 1.400 . S
C545 C539 1.491 1_554 S
C545 C544 1.400 . S
C545 C546 1.398 . S
C546 H534 0.950 1_554 S
C546 C545 1.398 . S
C546 C547 1.391 . S
C547 H535 0.950 . S
C547 C543 1.393 . S
C547 C546 1.391 . S
H548 C556 0.950 . S
H549 C561 0.950 . S
H550 C558 0.950 . S
H551 C560 0.950 . S
H552 C562 0.950 . S
H553 C564 0.950 . S
H554 C566 0.950 . S
H555 C567 0.950 . S
C556 H548 0.950 . S
C556 C557 1.386 . S
C556 C558 1.391 . S
C557 C556 1.386 . S
C557 C561 1.393 . S
C558 H550 0.950 . S
C558 C556 1.391 . S
C558 C559 1.400 . S
C559 C558 1.400 . S
C559 C560 1.398 . S
C559 C565 1.491 . S
C560 H551 0.950 . S
C560 C559 1.398 . S
C560 C561 1.391 . S
C561 H549 0.950 . S
C561 C557 1.393 . S
C561 C560 1.391 . S
C562 H552 0.950 . S
C562 C563 1.386 . S
C562 C564 1.391 . S
C563 C562 1.386 . S
C563 C567 1.393 . S
C564 H553 0.950 . S
C564 C562 1.391 . S
C564 C565 1.400 . S
C565 C559 1.491 . S
C565 C564 1.400 . S
C565 C566 1.398 . S
C566 H554 0.950 . S
C566 C565 1.398 . S
C566 C567 1.391 . S
C567 H555 0.950 . S
C567 C563 1.393 . S
C567 C566 1.391 . S
H568 C576 0.950 . S
H569 C581 0.950 . S
H570 C578 0.950 . S
H571 C580 0.950 . S
H572 C582 0.950 . S
H573 C584 0.950 . S
H574 C586 0.950 . S
H575 C587 0.950 . S
C576 H568 0.950 . S
C576 C577 1.386 . S
C576 C578 1.391 . S
C577 C576 1.386 . S
C577 C581 1.393 . S
C578 H570 0.950 . S
C578 C576 1.391 . S
C578 C579 1.400 . S
C579 C578 1.400 . S
C579 C580 1.398 . S
C579 C585 1.491 . S
C580 H571 0.950 . S
C580 C579 1.398 . S
C580 C581 1.391 . S
C581 H569 0.950 . S
C581 C577 1.393 . S
C581 C580 1.391 . S
C582 H572 0.950 . S
C582 C583 1.386 . S
C582 C584 1.391 . S
C583 C582 1.386 . S
C583 C587 1.393 . S
C584 H573 0.950 . S
C584 C582 1.391 . S
C584 C585 1.400 . S
C585 C579 1.491 . S
C585 C584 1.400 . S
C585 C586 1.398 . S
C586 H574 0.950 . S
C586 C585 1.398 . S
C586 C587 1.391 . S
C587 H575 0.950 . S
C587 C583 1.393 . S
C587 C586 1.391 . S
H588 C596 0.950 . S
H589 C601 0.950 . S
H590 C598 0.950 . S
H591 C600 0.950 1_554 S
H592 C602 0.950 . S
H593 C604 0.950 . S
H594 C606 0.950 1_556 S
H595 C607 0.950 . S
C596 H588 0.950 . S
C596 C597 1.386 . S
C596 C598 1.391 . S
C597 C596 1.386 . S
C597 C601 1.393 . S
C598 H590 0.950 . S
C598 C596 1.391 . S
C598 C599 1.400 . S
C599 C598 1.400 . S
C599 C600 1.398 . S
C599 C605 1.491 1_556 S
C600 H591 0.950 1_556 S
C600 C599 1.398 . S
C600 C601 1.391 . S
C601 H589 0.950 . S
C601 C597 1.393 . S
C601 C600 1.391 . S
C602 H592 0.950 . S
C602 C603 1.386 . S
C602 C604 1.391 . S
C603 C602 1.386 . S
C603 C607 1.393 . S
C604 H593 0.950 . S
C604 C602 1.391 . S
C604 C605 1.400 . S
C605 C599 1.491 1_554 S
C605 C604 1.400 . S
C605 C606 1.398 . S
C606 H594 0.950 1_554 S
C606 C605 1.398 . S
C606 C607 1.391 . S
C607 H595 0.950 . S
C607 C603 1.393 . S
C607 C606 1.391 . S
H608 C616 0.950 . S
H609 C621 0.950 . S
H610 C618 0.950 . S
H611 C620 0.950 . S
H612 C622 0.950 . S
H613 C624 0.950 . S
H614 C626 0.950 . S
H615 C627 0.950 . S
C616 H608 0.950 . S
C616 C617 1.386 . S
C616 C618 1.391 . S
C617 C616 1.386 . S
C617 C621 1.393 . S
C618 H610 0.950 . S
C618 C616 1.391 . S
C618 C619 1.400 . S
C619 C618 1.400 . S
C619 C620 1.398 . S
C619 C625 1.491 . S
C620 H611 0.950 . S
C620 C619 1.398 . S
C620 C621 1.391 . S
C621 H609 0.950 . S
C621 C617 1.393 . S
C621 C620 1.391 . S
C622 H612 0.950 . S
C622 C623 1.386 . S
C622 C624 1.391 . S
C623 C622 1.386 . S
C623 C627 1.393 . S
C624 H613 0.950 . S
C624 C622 1.391 . S
C624 C625 1.400 . S
C625 C619 1.491 . S
C625 C624 1.400 . S
C625 C626 1.398 . S
C626 H614 0.950 . S
C626 C625 1.398 . S
C626 C627 1.391 . S
C627 H615 0.950 . S
C627 C623 1.393 . S
C627 C626 1.391 . S
H628 C636 0.950 . S
H629 C641 0.950 . S
H630 C638 0.950 . S
H631 C640 0.950 . S
H632 C642 0.950 . S
H633 C644 0.950 . S
H634 C646 0.950 . S
H635 C647 0.950 . S
C636 H628 0.950 . S
C636 C637 1.386 . S
C636 C638 1.391 . S
C637 C636 1.386 . S
C637 C641 1.393 . S
C638 H630 0.950 . S
C638 C636 1.391 . S
C638 C639 1.400 . S
C639 C638 1.400 . S
C639 C640 1.398 . S
C639 C645 1.491 . S
C640 H631 0.950 . S
C640 C639 1.398 . S
C640 C641 1.391 . S
C641 H629 0.950 . S
C641 C637 1.393 . S
C641 C640 1.391 . S
C642 H632 0.950 . S
C642 C643 1.386 . S
C642 C644 1.391 . S
C643 C642 1.386 . S
C643 C647 1.393 . S
C644 H633 0.950 . S
C644 C642 1.391 . S
C644 C645 1.400 . S
C645 C639 1.491 . S
C645 C644 1.400 . S
C645 C646 1.398 . S
C646 H634 0.950 . S
C646 C645 1.398 . S
C646 C647 1.391 . S
C647 H635 0.950 . S
C647 C643 1.393 . S
C647 C646 1.391 . S
H648 C656 0.950 . S
H649 C661 0.950 . S
H650 C658 0.950 1_554 S
H651 C660 0.950 1_545 S
H652 C662 0.950 . S
H653 C664 0.950 1_556 S
H654 C666 0.950 1_565 S
H655 C667 0.950 . S
C656 H648 0.950 . S
C656 C657 1.386 . S
C656 C658 1.391 . S
C657 C656 1.386 . S
C657 C661 1.393 . S
C658 H650 0.950 1_556 S
C658 C656 1.391 . S
C658 C659 1.400 . S
C659 C658 1.400 . S
C659 C660 1.398 . S
C659 C665 1.491 1_566 S
C660 H651 0.950 1_565 S
C660 C659 1.398 . S
C660 C661 1.391 . S
C661 H649 0.950 . S
C661 C657 1.393 . S
C661 C660 1.391 . S
C662 H652 0.950 . S
C662 C663 1.386 . S
C662 C664 1.391 . S
C663 C662 1.386 . S
C663 C667 1.393 . S
C664 H653 0.950 1_554 S
C664 C662 1.391 . S
C664 C665 1.400 . S
C665 C659 1.491 1_544 S
C665 C664 1.400 . S
C665 C666 1.398 . S
C666 H654 0.950 1_545 S
C666 C665 1.398 . S
C666 C667 1.391 . S
C667 H655 0.950 . S
C667 C663 1.393 . S
C667 C666 1.391 . S
H668 C676 0.950 . S
H669 C681 0.950 . S
H670 C678 0.950 . S
H671 C680 0.950 . S
H672 C682 0.950 . S
H673 C684 0.950 . S
H674 C686 0.950 . S
H675 C687 0.950 . S
C676 H668 0.950 . S
C676 C677 1.386 . S
C676 C678 1.391 . S
C677 C676 1.386 . S
C677 C681 1.393 . S
C678 H670 0.950 . S
C678 C676 1.391 . S
C678 C679 1.400 . S
C679 C678 1.400 . S
C679 C680 1.398 . S
C679 C685 1.491 . S
C680 H671 0.950 . S
C680 C679 1.398 . S
C680 C681 1.391 . S
C681 H669 0.950 . S
C681 C677 1.393 . S
C681 C680 1.391 . S
C682 H672 0.950 . S
C682 C683 1.386 . S
C682 C684 1.391 . S
C683 C682 1.386 . S
C683 C687 1.393 . S
C684 H673 0.950 . S
C684 C682 1.391 . S
C684 C685 1.400 . S
C685 C679 1.491 . S
C685 C684 1.400 . S
C685 C686 1.398 . S
C686 H674 0.950 . S
C686 C685 1.398 . S
C686 C687 1.391 . S
C687 H675 0.950 . S
C687 C683 1.393 . S
C687 C686 1.391 . S
H688 C696 0.950 . S
H689 C701 0.950 . S
H690 C698 0.950 1_655 S
H691 C700 0.950 . S
H692 C702 0.950 . S
H693 C704 0.950 1_455 S
H694 C706 0.950 . S
H695 C707 0.950 . S
C696 H688 0.950 . S
C696 C697 1.386 . S
C696 C698 1.391 . S
C697 C696 1.386 . S
C697 C701 1.393 . S
C698 H690 0.950 1_455 S
C698 C696 1.391 . S
C698 C699 1.400 . S
C699 C698 1.400 . S
C699 C700 1.398 . S
C699 C705 1.491 1_455 S
C700 H691 0.950 . S
C700 C699 1.398 . S
C700 C701 1.391 . S
C701 H689 0.950 . S
C701 C697 1.393 . S
C701 C700 1.391 . S
C702 H692 0.950 . S
C702 C703 1.386 . S
C702 C704 1.391 . S
C703 C702 1.386 . S
C703 C707 1.393 . S
C704 H693 0.950 1_655 S
C704 C702 1.391 . S
C704 C705 1.400 . S
C705 C699 1.491 1_655 S
C705 C704 1.400 . S
C705 C706 1.398 . S
C706 H694 0.950 . S
C706 C705 1.398 . S
C706 C707 1.391 . S
C707 H695 0.950 . S
C707 C703 1.393 . S
C707 C706 1.391 . S
H708 C716 0.950 . S
H709 C721 0.950 . S
H710 C718 0.950 1_545 S
H711 C720 0.950 1_556 S
H712 C722 0.950 . S
H713 C724 0.951 1_565 S
H714 C726 0.950 1_554 S
H715 C727 0.950 . S
C716 H708 0.950 . S
C716 C717 1.386 . S
C716 C718 1.391 . S
C717 C716 1.386 . S
C717 C721 1.393 . S
C718 H710 0.950 1_565 S
C718 C716 1.391 . S
C718 C719 1.400 . S
C719 C718 1.400 . S
C719 C720 1.398 . S
C719 C725 1.491 1_564 S
C720 H711 0.950 1_554 S
C720 C719 1.398 . S
C720 C721 1.391 . S
C721 H709 0.950 . S
C721 C717 1.393 . S
C721 C720 1.391 . S
C722 H712 0.950 . S
C722 C723 1.386 . S
C722 C724 1.391 . S
C723 C722 1.386 . S
C723 C727 1.393 . S
C724 H713 0.951 1_545 S
C724 C722 1.391 . S
C724 C725 1.400 . S
C725 C719 1.491 1_546 S
C725 C724 1.400 . S
C725 C726 1.398 . S
C726 H714 0.950 1_556 S
C726 C725 1.398 . S
C726 C727 1.391 . S
C727 H715 0.950 . S
C727 C723 1.393 . S
C727 C726 1.391 . S
H728 C736 0.950 . S
H729 C741 0.950 . S
H730 C738 0.950 . S
H731 C740 0.950 . S
H732 C742 0.950 . S
H733 C744 0.950 . S
H734 C746 0.950 . S
H735 C747 0.950 . S
C736 H728 0.950 . S
C736 C737 1.386 . S
C736 C738 1.391 . S
C737 C736 1.386 . S
C737 C741 1.393 . S
C738 H730 0.950 . S
C738 C736 1.391 . S
C738 C739 1.400 . S
C739 C738 1.400 . S
C739 C740 1.398 . S
C739 C745 1.491 . S
C740 H731 0.950 . S
C740 C739 1.398 . S
C740 C741 1.391 . S
C741 H729 0.950 . S
C741 C737 1.393 . S
C741 C740 1.391 . S
C742 H732 0.950 . S
C742 C743 1.386 . S
C742 C744 1.391 . S
C743 C742 1.386 . S
C743 C747 1.393 . S
C744 H733 0.950 . S
C744 C742 1.391 . S
C744 C745 1.400 . S
C745 C739 1.491 . S
C745 C744 1.400 . S
C745 C746 1.398 . S
C746 H734 0.950 . S
C746 C745 1.398 . S
C746 C747 1.391 . S
C747 H735 0.950 . S
C747 C743 1.393 . S
C747 C746 1.391 . S
H748 C756 0.950 . S
H749 C761 0.950 . S
H750 C758 0.950 . S
H751 C760 0.950 . S
H752 C762 0.950 . S
H753 C764 0.950 . S
H754 C766 0.950 . S
H755 C767 0.950 . S
C756 H748 0.950 . S
C756 C757 1.386 . S
C756 C758 1.391 . S
C757 C756 1.386 . S
C757 C761 1.393 . S
C758 H750 0.950 . S
C758 C756 1.391 . S
C758 C759 1.400 . S
C759 C758 1.400 . S
C759 C760 1.398 . S
C759 C765 1.491 1_455 S
C760 H751 0.950 . S
C760 C759 1.398 . S
C760 C761 1.391 . S
C761 H749 0.950 . S
C761 C757 1.393 . S
C761 C760 1.391 . S
C762 H752 0.950 . S
C762 C763 1.386 . S
C762 C764 1.391 . S
C763 C762 1.386 . S
C763 C767 1.393 . S
C764 H753 0.950 . S
C764 C762 1.391 . S
C764 C765 1.400 . S
C765 C759 1.491 1_655 S
C765 C764 1.400 . S
C765 C766 1.398 . S
C766 H754 0.950 . S
C766 C765 1.398 . S
C766 C767 1.391 . S
C767 H755 0.950 . S
C767 C763 1.393 . S
C767 C766 1.391 . S
H768 C776 0.950 . S
H769 C781 0.933 1_545 S
H770 C778 0.950 . S
H771 C780 0.950 . S
H772 C782 0.950 . S
H773 C784 0.950 . S
H774 C786 0.950 . S
H775 C787 0.933 1_565 S
C776 H768 0.950 . S
C776 C777 1.386 . S
C776 C778 1.391 . S
C777 C776 1.386 . S
C777 C781 1.406 . S
C778 H770 0.950 . S
C778 C776 1.391 . S
C778 C779 1.400 . S
C779 C778 1.400 . S
C779 C780 1.398 1_565 S
C779 C785 1.491 1_565 S
C780 H771 0.950 . S
C780 C779 1.398 1_545 S
C780 C781 1.394 1_545 S
C781 H769 0.933 1_565 S
C781 C777 1.406 . S
C781 C780 1.394 1_565 S
C782 H772 0.950 . S
C782 C783 1.386 . S
C782 C784 1.391 . S
C783 C782 1.386 . S
C783 C787 1.406 . S
C784 H773 0.950 . S
C784 C782 1.391 . S
C784 C785 1.400 . S
C785 C779 1.491 1_545 S
C785 C784 1.400 . S
C785 C786 1.398 1_545 S
C786 H774 0.950 . S
C786 C785 1.398 1_565 S
C786 C787 1.394 1_565 S
C787 H775 0.933 1_545 S
C787 C783 1.406 . S
C787 C786 1.394 1_545 S
H788 C796 0.950 . S
H789 C801 0.950 . S
H790 C798 0.950 . S
H791 C800 0.950 . S
H792 C802 0.950 . S
H793 C804 0.950 . S
H794 C806 0.950 . S
H795 C807 0.950 . S
C796 H788 0.950 . S
C796 C797 1.386 . S
C796 C798 1.391 . S
C797 C796 1.386 . S
C797 C801 1.393 . S
C798 H790 0.950 . S
C798 C796 1.391 . S
C798 C799 1.400 . S
C799 C798 1.400 . S
C799 C800 1.398 . S
C799 C805 1.491 . S
C800 H791 0.950 . S
C800 C799 1.398 . S
C800 C801 1.391 . S
C801 H789 0.950 . S
C801 C797 1.393 . S
C801 C800 1.391 . S
C802 H792 0.950 . S
C802 C803 1.386 . S
C802 C804 1.391 . S
C803 C802 1.386 . S
C803 C807 1.393 . S
C804 H793 0.950 . S
C804 C802 1.391 . S
C804 C805 1.400 . S
C805 C799 1.491 . S
C805 C804 1.400 . S
C805 C806 1.398 . S
C806 H794 0.950 . S
C806 C805 1.398 . S
C806 C807 1.391 . S
C807 H795 0.950 . S
C807 C803 1.393 . S
C807 C806 1.391 . S
H808 C816 0.942 1_554 S
H809 C821 0.950 . S
H810 C818 0.973 1_554 S
H811 C820 0.950 . S
H812 C822 0.950 . S
H813 C824 0.981 . S
H814 C826 0.950 1_554 S
H815 C827 0.939 1_554 S
C816 H808 0.942 1_556 S
C816 C817 1.393 . S
C816 C818 1.391 . S
C817 C816 1.393 . S
C817 C821 1.393 . S
C818 H810 0.973 1_556 S
C818 C816 1.391 . S
C818 C819 1.408 . S
C819 C818 1.408 . S
C819 C820 1.398 . S
C819 C825 1.491 1_455 S
C820 H811 0.950 . S
C820 C819 1.398 . S
C820 C821 1.391 . S
C821 H809 0.950 . S
C821 C817 1.393 . S
C821 C820 1.391 . S
C822 H812 0.950 . S
C822 C823 1.386 . S
C822 C824 1.391 . S
C823 C822 1.386 . S
C823 C827 1.404 . S
C824 H813 0.981 . S
C824 C822 1.391 . S
C824 C825 1.400 . S
C825 C819 1.491 1_655 S
C825 C824 1.400 . S
C825 C826 1.398 . S
C826 H814 0.950 1_556 S
C826 C825 1.398 . S
C826 C827 1.391 . S
C827 H815 0.939 1_556 S
C827 C823 1.404 . S
C827 C826 1.391 . S
H828 C836 0.955 . S
H829 C841 0.950 . S
H830 C838 0.950 . S
H831 C840 0.950 . S
H832 C842 0.955 . S
H833 C844 0.950 . S
H834 C846 0.950 . S
H835 C847 0.950 . S
C836 H828 0.955 . S
C836 C837 1.381 1_455 S
C836 C838 1.390 . S
C837 C836 1.381 1_655 S
C837 C841 1.393 . S
C838 H830 0.950 . S
C838 C836 1.390 . S
C838 C839 1.400 1_455 S
C839 C838 1.400 1_655 S
C839 C840 1.398 . S
C839 C845 1.491 1_655 S
C840 H831 0.950 . S
C840 C839 1.398 . S
C840 C841 1.391 . S
C841 H829 0.950 . S
C841 C837 1.393 . S
C841 C840 1.391 . S
C842 H832 0.955 . S
C842 C843 1.381 1_655 S
C842 C844 1.390 . S
C843 C842 1.381 1_455 S
C843 C847 1.393 . S
C844 H833 0.950 . S
C844 C842 1.390 . S
C844 C845 1.400 1_655 S
C845 C839 1.491 1_455 S
C845 C844 1.400 1_455 S
C845 C846 1.398 . S
C846 H834 0.950 . S
C846 C845 1.398 . S
C846 C847 1.391 . S
C847 H835 0.950 . S
C847 C843 1.393 . S
C847 C846 1.391 . S
H848 C856 0.950 . S
H849 C861 0.950 . S
H850 C858 0.950 . S
H851 C860 0.950 . S
H852 C862 0.950 . S
H853 C864 0.950 . S
H854 C866 0.950 . S
H855 C867 0.950 . S
C856 H848 0.950 . S
C856 C857 1.386 . S
C856 C858 1.391 . S
C857 C856 1.386 . S
C857 C861 1.393 1_545 S
C858 H850 0.950 . S
C858 C856 1.391 . S
C858 C859 1.400 . S
C859 C858 1.400 . S
C859 C860 1.398 1_545 S
C859 C865 1.491 1_545 S
C860 H851 0.950 . S
C860 C859 1.398 1_565 S
C860 C861 1.391 . S
C861 H849 0.950 . S
C861 C857 1.393 1_565 S
C861 C860 1.391 . S
C862 H852 0.950 . S
C862 C863 1.386 . S
C862 C864 1.391 . S
C863 C862 1.386 . S
C863 C867 1.393 1_565 S
C864 H853 0.950 . S
C864 C862 1.391 . S
C864 C865 1.400 . S
C865 C859 1.491 1_565 S
C865 C864 1.400 . S
C865 C866 1.398 1_565 S
C866 H854 0.950 . S
C866 C865 1.398 1_545 S
C866 C867 1.391 . S
C867 H855 0.950 . S
C867 C863 1.393 1_545 S
C867 C866 1.391 . S
H868 C876 0.950 . S
H869 C881 0.950 . S
H870 C878 0.950 . S
H871 C880 0.950 . S
H872 C882 0.950 1_556 S
H873 C884 0.950 1_556 S
H874 C886 0.950 . S
H875 C887 0.950 . S
C876 H868 0.950 . S
C876 C877 1.386 . S
C876 C878 1.391 . S
C877 C876 1.386 . S
C877 C881 1.393 . S
C878 H870 0.950 . S
C878 C876 1.391 . S
C878 C879 1.400 . S
C879 C878 1.400 . S
C879 C880 1.398 . S
C879 C885 1.491 . S
C880 H871 0.950 . S
C880 C879 1.398 . S
C880 C881 1.391 . S
C881 H869 0.950 . S
C881 C877 1.393 . S
C881 C880 1.391 . S
C882 H872 0.950 1_554 S
C882 C883 1.386 . S
C882 C884 1.391 . S
C883 C882 1.386 . S
C883 C887 1.393 . S
C884 H873 0.950 1_554 S
C884 C882 1.391 . S
C884 C885 1.400 . S
C885 C879 1.491 . S
C885 C884 1.400 . S
C885 C886 1.398 . S
C886 H874 0.950 . S
C886 C885 1.398 . S
C886 C887 1.391 . S
C887 H875 0.950 . S
C887 C883 1.393 . S
C887 C886 1.391 . S
H888 C896 0.950 . S
H889 C901 0.950 . S
H890 C898 0.950 . S
H891 C900 0.950 . S
H892 C902 0.950 . S
H893 C904 0.950 . S
H894 C906 0.950 . S
H895 C907 0.950 . S
C896 H888 0.950 . S
C896 C897 1.386 . S
C896 C898 1.391 . S
C897 C896 1.386 . S
C897 C901 1.393 . S
C898 H890 0.950 . S
C898 C896 1.391 . S
C898 C899 1.400 . S
C899 C898 1.400 . S
C899 C900 1.398 . S
C899 C905 1.491 1_565 S
C900 H891 0.950 . S
C900 C899 1.398 . S
C900 C901 1.391 . S
C901 H889 0.950 . S
C901 C897 1.393 . S
C901 C900 1.391 . S
C902 H892 0.950 . S
C902 C903 1.386 . S
C902 C904 1.391 . S
C903 C902 1.386 . S
C903 C907 1.393 . S
C904 H893 0.950 . S
C904 C902 1.391 . S
C904 C905 1.400 . S
C905 C899 1.491 1_545 S
C905 C904 1.400 . S
C905 C906 1.398 . S
C906 H894 0.950 . S
C906 C905 1.398 . S
C906 C907 1.391 . S
C907 H895 0.950 . S
C907 C903 1.393 . S
C907 C906 1.391 . S
H908 C916 0.950 . S
H909 C921 0.950 . S
H910 C918 0.950 . S
H911 C920 0.950 . S
H912 C922 0.950 . S
H913 C924 0.950 . S
H914 C926 0.950 . S
H915 C927 0.950 . S
C916 H908 0.950 . S
C916 C917 1.386 . S
C916 C918 1.391 . S
C917 C916 1.386 . S
C917 C921 1.393 . S
C918 H910 0.950 . S
C918 C916 1.391 . S
C918 C919 1.400 . S
C919 C918 1.400 . S
C919 C920 1.398 . S
C919 C925 1.491 . S
C920 H911 0.950 . S
C920 C919 1.398 . S
C920 C921 1.391 . S
C921 H909 0.950 . S
C921 C917 1.393 . S
C921 C920 1.391 . S
C922 H912 0.950 . S
C922 C923 1.386 . S
C922 C924 1.391 . S
C923 C922 1.386 . S
C923 C927 1.393 . S
C924 H913 0.950 . S
C924 C922 1.391 . S
C924 C925 1.400 . S
C925 C919 1.491 . S
C925 C924 1.400 . S
C925 C926 1.398 . S
C926 H914 0.950 . S
C926 C925 1.398 . S
C926 C927 1.391 . S
C927 H915 0.950 . S
C927 C923 1.393 . S
C927 C926 1.391 . S
H928 C936 0.950 . S
H929 C941 0.950 . S
H930 C938 0.950 1_455 S
H931 C940 0.950 . S
H932 C942 0.950 . S
H933 C944 0.950 1_655 S
H934 C946 0.950 . S
H935 C947 0.950 . S
C936 H928 0.950 . S
C936 C937 1.386 . S
C936 C938 1.391 . S
C937 C936 1.386 . S
C937 C941 1.393 . S
C938 H930 0.950 1_655 S
C938 C936 1.391 . S
C938 C939 1.400 . S
C939 C938 1.400 . S
C939 C940 1.398 . S
C939 C945 1.491 1_655 S
C940 H931 0.950 . S
C940 C939 1.398 . S
C940 C941 1.391 . S
C941 H929 0.950 . S
C941 C937 1.393 . S
C941 C940 1.391 . S
C942 H932 0.950 . S
C942 C943 1.386 . S
C942 C944 1.391 . S
C943 C942 1.386 . S
C943 C947 1.393 . S
C944 H933 0.950 1_455 S
C944 C942 1.391 . S
C944 C945 1.400 . S
C945 C939 1.491 1_455 S
C945 C944 1.400 . S
C945 C946 1.398 . S
C946 H934 0.950 . S
C946 C945 1.398 . S
C946 C947 1.391 . S
C947 H935 0.950 . S
C947 C943 1.393 . S
C947 C946 1.391 . S
H948 C956 0.950 . S
H949 C961 0.950 . S
H950 C958 0.931 1_565 S
H951 C960 0.950 . S
H952 C962 0.950 . S
H953 C964 0.930 1_545 S
H954 C966 0.950 . S
H955 C967 0.950 . S
C956 H948 0.950 . S
C956 C957 1.386 . S
C956 C958 1.391 . S
C957 C956 1.386 . S
C957 C961 1.393 . S
C958 H950 0.931 1_545 S
C958 C956 1.391 . S
C958 C959 1.400 . S
C959 C958 1.400 . S
C959 C960 1.398 . S
C959 C965 1.491 1_545 S
C960 H951 0.950 . S
C960 C959 1.398 . S
C960 C961 1.391 . S
C961 H949 0.950 . S
C961 C957 1.393 . S
C961 C960 1.391 . S
C962 H952 0.950 . S
C962 C963 1.386 . S
C962 C964 1.391 . S
C963 C962 1.386 . S
C963 C967 1.393 . S
C964 H953 0.930 1_565 S
C964 C962 1.391 . S
C964 C965 1.400 . S
C965 C959 1.491 1_565 S
C965 C964 1.400 . S
C965 C966 1.398 . S
C966 H954 0.950 . S
C966 C965 1.398 . S
C966 C967 1.391 . S
C967 H955 0.950 . S
C967 C963 1.393 . S
C967 C966 1.391 . S
H968 C976 0.950 . S
H969 C981 0.950 . S
H970 C978 0.950 . S
H971 C980 0.950 . S
H972 C982 0.950 . S
H973 C984 0.950 . S
H974 C986 0.950 . S
H975 C987 0.950 . S
C976 H968 0.950 . S
C976 C977 1.386 . S
C976 C978 1.391 . S
C977 C976 1.386 . S
C977 C981 1.393 . S
C978 H970 0.950 . S
C978 C976 1.391 . S
C978 C979 1.400 . S
C979 C978 1.400 . S
C979 C980 1.398 . S
C979 C985 1.491 . S
C980 H971 0.950 . S
C980 C979 1.398 . S
C980 C981 1.391 . S
C981 H969 0.950 . S
C981 C977 1.393 . S
C981 C980 1.391 . S
C982 H972 0.950 . S
C982 C983 1.386 . S
C982 C984 1.391 . S
C983 C982 1.386 . S
C983 C987 1.393 . S
C984 H973 0.950 . S
C984 C982 1.391 . S
C984 C985 1.400 . S
C985 C979 1.491 . S
C985 C984 1.400 . S
C985 C986 1.398 . S
C986 H974 0.950 . S
C986 C985 1.398 . S
C986 C987 1.391 . S
C987 H975 0.950 . S
C987 C983 1.393 . S
C987 C986 1.391 . S
H988 C996 0.950 . S
H989 C1001 0.950 . S
H990 C998 0.950 . S
H991 C1000 0.950 . S
H992 C1002 0.950 . S
H993 C1004 0.950 . S
H994 C1006 0.950 . S
H995 C1007 0.950 . S
C996 H988 0.950 . S
C996 C997 1.386 . S
C996 C998 1.391 . S
C997 C996 1.386 . S
C997 C1001 1.393 . S
C998 H990 0.950 . S
C998 C996 1.391 . S
C998 C999 1.400 . S
C999 C998 1.400 . S
C999 C1000 1.398 . S
C999 C1005 1.491 1_455 S
C1000 H991 0.950 . S
C1000 C999 1.398 . S
C1000 C1001 1.391 . S
C1001 H989 0.950 . S
C1001 C997 1.393 . S
C1001 C1000 1.391 . S
C1002 H992 0.950 . S
C1002 C1003 1.386 . S
C1002 C1004 1.391 . S
C1003 C1002 1.386 . S
C1003 C1007 1.393 . S
C1004 H993 0.950 . S
C1004 C1002 1.391 . S
C1004 C1005 1.400 . S
C1005 C999 1.491 1_655 S
C1005 C1004 1.400 . S
C1005 C1006 1.398 . S
C1006 H994 0.950 . S
C1006 C1005 1.398 . S
C1006 C1007 1.391 . S
C1007 H995 0.950 . S
C1007 C1003 1.393 . S
C1007 C1006 1.391 . S
H1008 C1016 0.950 . S
H1009 C1021 0.950 . S
H1010 C1018 0.950 . S
H1011 C1020 0.950 . S
H1012 C1022 0.950 . S
H1013 C1024 0.950 . S
H1014 C1026 0.950 . S
H1015 C1027 0.950 . S
C1016 H1008 0.950 . S
C1016 C1017 1.386 . S
C1016 C1018 1.391 . S
C1017 C1016 1.386 . S
C1017 C1021 1.393 . S
C1018 H1010 0.950 . S
C1018 C1016 1.391 . S
C1018 C1019 1.400 . S
C1019 C1018 1.400 . S
C1019 C1020 1.398 . S
C1019 C1025 1.491 . S
C1020 H1011 0.950 . S
C1020 C1019 1.398 . S
C1020 C1021 1.391 . S
C1021 H1009 0.950 . S
C1021 C1017 1.393 . S
C1021 C1020 1.391 . S
C1022 H1012 0.950 . S
C1022 C1023 1.386 . S
C1022 C1024 1.391 . S
C1023 C1022 1.386 . S
C1023 C1027 1.393 . S
C1024 H1013 0.950 . S
C1024 C1022 1.391 . S
C1024 C1025 1.400 . S
C1025 C1019 1.491 . S
C1025 C1024 1.400 . S
C1025 C1026 1.398 . S
C1026 H1014 0.950 . S
C1026 C1025 1.398 . S
C1026 C1027 1.391 . S
C1027 H1015 0.950 . S
C1027 C1023 1.393 . S
C1027 C1026 1.391 . S
H1028 C1036 0.950 . S
H1029 C1041 0.950 . S
H1030 C1038 0.950 . S
H1031 C1040 0.950 . S
H1032 C1042 0.950 . S
H1033 C1044 0.950 . S
H1034 C1046 0.950 . S
H1035 C1047 0.950 . S
C1036 H1028 0.950 . S
C1036 C1037 1.386 . S
C1036 C1038 1.391 . S
C1037 C1036 1.386 . S
C1037 C1041 1.393 . S
C1038 H1030 0.950 . S
C1038 C1036 1.391 . S
C1038 C1039 1.400 . S
C1039 C1038 1.400 . S
C1039 C1040 1.398 . S
C1039 C1045 1.491 . S
C1040 H1031 0.950 . S
C1040 C1039 1.398 . S
C1040 C1041 1.391 . S
C1041 H1029 0.950 . S
C1041 C1037 1.393 . S
C1041 C1040 1.391 . S
C1042 H1032 0.950 . S
C1042 C1043 1.386 . S
C1042 C1044 1.391 . S
C1043 C1042 1.386 . S
C1043 C1047 1.393 . S
C1044 H1033 0.950 . S
C1044 C1042 1.391 . S
C1044 C1045 1.400 . S
C1045 C1039 1.491 . S
C1045 C1044 1.400 . S
C1045 C1046 1.398 . S
C1046 H1034 0.950 . S
C1046 C1045 1.398 . S
C1046 C1047 1.391 . S
C1047 H1035 0.950 . S
C1047 C1043 1.393 . S
C1047 C1046 1.391 . S
H1048 C1056 0.950 . S
H1049 C1061 0.950 . S
H1050 C1058 0.950 . S
H1051 C1060 0.950 . S
H1052 C1062 0.950 . S
H1053 C1064 0.950 . S
H1054 C1066 0.950 . S
H1055 C1067 0.950 . S
C1056 H1048 0.950 . S
C1056 C1057 1.386 . S
C1056 C1058 1.391 . S
C1057 C1056 1.386 . S
C1057 C1061 1.393 . S
C1058 H1050 0.950 . S
C1058 C1056 1.391 . S
C1058 C1059 1.400 . S
C1059 C1058 1.400 . S
C1059 C1060 1.398 . S
C1059 C1065 1.491 . S
C1060 H1051 0.950 . S
C1060 C1059 1.398 . S
C1060 C1061 1.391 . S
C1061 H1049 0.950 . S
C1061 C1057 1.393 . S
C1061 C1060 1.391 . S
C1062 H1052 0.950 . S
C1062 C1063 1.386 . S
C1062 C1064 1.391 . S
C1063 C1062 1.386 . S
C1063 C1067 1.393 . S
C1064 H1053 0.950 . S
C1064 C1062 1.391 . S
C1064 C1065 1.400 . S
C1065 C1059 1.491 . S
C1065 C1064 1.400 . S
C1065 C1066 1.398 . S
C1066 H1054 0.950 . S
C1066 C1065 1.398 . S
C1066 C1067 1.391 . S
C1067 H1055 0.950 . S
C1067 C1063 1.393 . S
C1067 C1066 1.391 . S
H1068 C1076 0.950 . S
H1069 C1081 0.950 . S
H1070 C1078 0.950 . S
H1071 C1080 0.950 . S
H1072 C1082 0.950 . S
H1073 C1084 0.950 . S
H1074 C1086 0.950 . S
H1075 C1087 0.950 . S
C1076 H1068 0.950 . S
C1076 C1077 1.386 . S
C1076 C1078 1.391 . S
C1077 C1076 1.386 . S
C1077 C1081 1.393 . S
C1078 H1070 0.950 . S
C1078 C1076 1.391 . S
C1078 C1079 1.400 . S
C1079 C1078 1.400 . S
C1079 C1080 1.398 . S
C1079 C1085 1.491 . S
C1080 H1071 0.950 . S
C1080 C1079 1.398 . S
C1080 C1081 1.391 . S
C1081 H1069 0.950 . S
C1081 C1077 1.393 . S
C1081 C1080 1.391 . S
C1082 H1072 0.950 . S
C1082 C1083 1.386 . S
C1082 C1084 1.391 . S
C1083 C1082 1.386 . S
C1083 C1087 1.393 . S
C1084 H1073 0.950 . S
C1084 C1082 1.391 . S
C1084 C1085 1.400 . S
C1085 C1079 1.491 . S
C1085 C1084 1.400 . S
C1085 C1086 1.398 . S
C1086 H1074 0.950 . S
C1086 C1085 1.398 . S
C1086 C1087 1.391 . S
C1087 H1075 0.950 . S
C1087 C1083 1.393 . S
C1087 C1086 1.391 . S
H1088 C1096 0.950 . S
H1089 C1101 0.950 . S
H1090 C1098 0.950 . S
H1091 C1100 0.950 . S
H1092 C1102 0.950 . S
H1093 C1104 0.950 . S
H1094 C1106 0.950 . S
H1095 C1107 0.950 . S
C1096 H1088 0.950 . S
C1096 C1097 1.386 . S
C1096 C1098 1.391 . S
C1097 C1096 1.386 . S
C1097 C1101 1.393 . S
C1098 H1090 0.950 . S
C1098 C1096 1.391 . S
C1098 C1099 1.400 . S
C1099 C1098 1.400 . S
C1099 C1100 1.398 . S
C1099 C1105 1.491 . S
C1100 H1091 0.950 . S
C1100 C1099 1.398 . S
C1100 C1101 1.391 . S
C1101 H1089 0.950 . S
C1101 C1097 1.393 . S
C1101 C1100 1.391 . S
C1102 H1092 0.950 . S
C1102 C1103 1.386 . S
C1102 C1104 1.391 . S
C1103 C1102 1.386 . S
C1103 C1107 1.393 . S
C1104 H1093 0.950 . S
C1104 C1102 1.391 . S
C1104 C1105 1.400 . S
C1105 C1099 1.491 . S
C1105 C1104 1.400 . S
C1105 C1106 1.398 . S
C1106 H1094 0.950 . S
C1106 C1105 1.398 . S
C1106 C1107 1.391 . S
C1107 H1095 0.950 . S
C1107 C1103 1.393 . S
C1107 C1106 1.391 . S
H1108 C1116 0.950 . S
H1109 C1121 0.950 . S
H1110 C1118 0.950 . S
H1111 C1120 0.950 . S
H1112 C1122 0.950 . S
H1113 C1124 0.950 . S
H1114 C1126 0.950 . S
H1115 C1127 0.950 . S
C1116 H1108 0.950 . S
C1116 C1117 1.386 . S
C1116 C1118 1.391 . S
C1117 C1116 1.386 . S
C1117 C1121 1.393 . S
C1118 H1110 0.950 . S
C1118 C1116 1.391 . S
C1118 C1119 1.400 . S
C1119 C1118 1.400 . S
C1119 C1120 1.398 . S
C1119 C1125 1.491 . S
C1120 H1111 0.950 . S
C1120 C1119 1.398 . S
C1120 C1121 1.391 . S
C1121 H1109 0.950 . S
C1121 C1117 1.393 . S
C1121 C1120 1.391 . S
C1122 H1112 0.950 . S
C1122 C1123 1.386 . S
C1122 C1124 1.391 . S
C1123 C1122 1.386 . S
C1123 C1127 1.393 . S
C1124 H1113 0.950 . S
C1124 C1122 1.391 . S
C1124 C1125 1.400 . S
C1125 C1119 1.491 . S
C1125 C1124 1.400 . S
C1125 C1126 1.398 . S
C1126 H1114 0.950 . S
C1126 C1125 1.398 . S
C1126 C1127 1.391 . S
C1127 H1115 0.950 . S
C1127 C1123 1.393 . S
C1127 C1126 1.391 . S
C417 C4 1.301 . S
C423 C276 1.305 . S
C437 C38 1.296 . S
C443 C310 1.296 . S
C457 C72 1.301 . S
C463 C344 1.305 . S
C477 C378 1.300 . S
C483 C106 1.304 . S
C497 C140 1.306 . S
C503 C208 1.301 . S
C517 C242 1.308 . S
C523 C174 1.308 . S
C537 C340 1.949 . S
C543 C0 1.960 . S
C557 C374 1.943 . S
C563 C34 1.958 . S
C577 C68 1.943 . S
C583 C204 1.955 . S
C597 C238 1.947 . S
C603 C102 1.961 . S
C617 C272 1.944 . S
C623 C136 1.952 . S
C637 C170 1.945 . S
C643 C306 1.950 . S
C657 C246 1.922 . S
C663 C8 1.936 . S
C677 C280 1.940 . S
C683 C42 1.928 . S
C697 C314 1.939 . S
C703 C76 1.924 . S
C717 C110 1.939 . S
C723 C348 1.933 . S
C737 C144 1.923 . S
C743 C382 1.930 . S
C757 C178 1.931 . S
C763 C212 1.922 . S
C777 C13 2.450 1_565 S
C783 C115 2.454 1_545 S
C797 C47 2.459 . S
C803 C149 2.464 . S
C817 C81 2.476 1_455 S
C823 C183 2.475 1_655 S
C837 C319 2.469 1_655 S
C843 C217 2.465 1_455 S
C857 C251 2.455 1_545 S
C863 C353 2.459 1_565 S
C877 C387 2.449 . S
C883 C285 2.453 . S
C897 C267 1.781 . S
C903 C29 1.776 . S
C917 C301 1.785 . S
C923 C63 1.769 . S
C937 C97 1.769 . S
C943 C335 1.784 . S
C957 C369 1.772 . S
C963 C131 1.784 . S
C977 C403 1.779 . S
C983 C165 1.760 . S
C997 C199 1.762 . S
C1003 C233 1.769 . S
C1017 C17 1.825 . S
C1023 C357 1.806 . S
C1037 C51 1.820 . S
C1043 C391 1.804 . S
C1057 C85 1.827 . S
C1063 C221 1.809 . S
C1077 C119 1.826 . S
C1083 C255 1.808 . S
C1097 C153 1.807 . S
C1103 C289 1.825 . S
C1117 C323 1.827 . S
C1123 C187 1.810 . S
