# Generated by pormake.
# Topology fnw, (5)-cn, num edge types: 1
# Building blocks:
#     Node 0, Type 0, BuildingBlock: XOMCOT_clean_sbu_1, # of connection points: 5
#     Node 1, Type 0, BuildingBlock: XOMCOT_clean_sbu_1, # of connection points: 5
#     Node 2, Type 0, BuildingBlock: XOMCOT_clean_sbu_1, # of connection points: 5
#     Node 3, Type 0, BuildingBlock: XOMCOT_clean_sbu_1, # of connection points: 5
#     Node 4, Type 0, BuildingBlock: XOMCOT_clean_sbu_1, # of connection points: 5
#     Node 5, Type 0, BuildingBlock: XOMCOT_clean_sbu_1, # of connection points: 5
#     Node 6, Type 0, BuildingBlock: XOMCOT_clean_sbu_1, # of connection points: 5
#     Node 7, Type 0, BuildingBlock: XOMCOT_clean_sbu_1, # of connection points: 5
#     Node 8, Type 0, BuildingBlock: XOMCOT_clean_sbu_1, # of connection points: 5
#     Node 9, Type 0, BuildingBlock: XOMCOT_clean_sbu_1, # of connection points: 5
#     Node 10, Type 0, BuildingBlock: XOMCOT_clean_sbu_1, # of connection points: 5
#     Node 11, Type 0, BuildingBlock: XOMCOT_clean_sbu_1, # of connection points: 5
#     Edge 12, Type (0, 0), BuildingBlock: UVAHIK_clean_linker_0, # of connection points: 2
#     Edge 13, Type (0, 0), BuildingBlock: UVAHIK_clean_linker_0, # of connection points: 2
#     Edge 14, Type (0, 0), BuildingBlock: UVAHIK_clean_linker_0, # of connection points: 2
#     Edge 15, Type (0, 0), BuildingBlock: UVAHIK_clean_linker_0, # of connection points: 2
#     Edge 16, Type (0, 0), BuildingBlock: UVAHIK_clean_linker_0, # of connection points: 2
#     Edge 17, Type (0, 0), BuildingBlock: UVAHIK_clean_linker_0, # of connection points: 2
#     Edge 18, Type (0, 0), BuildingBlock: UVAHIK_clean_linker_0, # of connection points: 2
#     Edge 19, Type (0, 0), BuildingBlock: UVAHIK_clean_linker_0, # of connection points: 2
#     Edge 20, Type (0, 0), BuildingBlock: UVAHIK_clean_linker_0, # of connection points: 2
#     Edge 21, Type (0, 0), BuildingBlock: UVAHIK_clean_linker_0, # of connection points: 2
#     Edge 22, Type (0, 0), BuildingBlock: UVAHIK_clean_linker_0, # of connection points: 2
#     Edge 23, Type (0, 0), BuildingBlock: UVAHIK_clean_linker_0, # of connection points: 2
#     Edge 24, Type (0, 0), BuildingBlock: UVAHIK_clean_linker_0, # of connection points: 2
#     Edge 25, Type (0, 0), BuildingBlock: UVAHIK_clean_linker_0, # of connection points: 2
#     Edge 26, Type (0, 0), BuildingBlock: UVAHIK_clean_linker_0, # of connection points: 2
#     Edge 27, Type (0, 0), BuildingBlock: UVAHIK_clean_linker_0, # of connection points: 2
#     Edge 28, Type (0, 0), BuildingBlock: UVAHIK_clean_linker_0, # of connection points: 2
#     Edge 29, Type (0, 0), BuildingBlock: UVAHIK_clean_linker_0, # of connection points: 2
#     Edge 30, Type (0, 0), BuildingBlock: UVAHIK_clean_linker_0, # of connection points: 2
#     Edge 31, Type (0, 0), BuildingBlock: UVAHIK_clean_linker_0, # of connection points: 2
#     Edge 32, Type (0, 0), BuildingBlock: UVAHIK_clean_linker_0, # of connection points: 2
#     Edge 33, Type (0, 0), BuildingBlock: UVAHIK_clean_linker_0, # of connection points: 2
#     Edge 34, Type (0, 0), BuildingBlock: UVAHIK_clean_linker_0, # of connection points: 2
#     Edge 35, Type (0, 0), BuildingBlock: UVAHIK_clean_linker_0, # of connection points: 2
#     Edge 36, Type (0, 0), BuildingBlock: UVAHIK_clean_linker_0, # of connection points: 2
#     Edge 37, Type (0, 0), BuildingBlock: UVAHIK_clean_linker_0, # of connection points: 2
#     Edge 38, Type (0, 0), BuildingBlock: UVAHIK_clean_linker_0, # of connection points: 2
#     Edge 39, Type (0, 0), BuildingBlock: UVAHIK_clean_linker_0, # of connection points: 2
#     Edge 40, Type (0, 0), BuildingBlock: UVAHIK_clean_linker_0, # of connection points: 2
#     Edge 41, Type (0, 0), BuildingBlock: UVAHIK_clean_linker_0, # of connection points: 2
# Relax obj value: 0.361
# Max RMSD: 0.165
# Mean RMSD: 0.165
data_MOF--net-fnw--node1-XOMCOT_clean_sbu_1--edge1-UVAHIK_clean_linker_0
_symmetry_space_group_name_H-M    P1
_symmetry_Int_Tables_number       1
_symmetry_cell_setting            triclinic
loop_
_symmetry_equiv_pos_as_xyz
'x, y, z'
_cell_length_a     66.144892
_cell_length_b     66.059652
_cell_length_c     35.603795
_cell_angle_alpha  90.134875
_cell_angle_beta   89.983693
_cell_angle_gamma 120.03292
loop_
_atom_site_label
_atom_site_type_symbol
_atom_site_fract_x
_atom_site_fract_y
_atom_site_fract_z
_atom_type_partial_charge
C0 C 0.26857 0.49406 0.22886 0.0
C1 C 0.25962 0.50884 0.22624 0.0
N2 N 0.24317 0.50286 0.25297 0.0
N3 N 0.25786 0.47889 0.25714 0.0
C4 C 0.24231 0.48452 0.27106 0.0
H5 H 0.28271 0.49496 0.21232 0.0
Co6 Co 0.26663 0.45806 0.27501 0.0
C7 C 0.23144 0.43123 0.3324 0.0
O8 O 0.22568 0.41191 0.31372 0.0
N9 N 0.27569 0.43719 0.29352 0.0
C10 C 0.28795 0.4196 0.333 0.0
C11 C 0.28279 0.43715 0.32906 0.0
C12 C 0.27666 0.41941 0.27645 0.0
N13 N 0.28404 0.40832 0.29986 0.0
O14 O 0.24242 0.43396 0.24466 0.0
H15 H 0.28415 0.4492 0.35087 0.0
H16 H 0.27187 0.41452 0.24751 0.0
O17 O 0.24652 0.45088 0.31862 0.0
C18 C 0.25128 0.43499 0.21235 0.0
O19 O 0.27377 0.44949 0.2079 0.0
N20 N 0.29141 0.48266 0.30048 0.0
C21 C 0.33053 0.52454 0.32184 0.0
C22 C 0.30858 0.51767 0.33765 0.0
C23 C 0.28914 0.4966 0.32651 0.0
C24 C 0.3127 0.48856 0.28603 0.0
C25 C 0.33255 0.50932 0.29658 0.0
H26 H 0.27214 0.49231 0.337 0.0
H27 H 0.31405 0.47765 0.26461 0.0
H28 H 0.23158 0.47636 0.29548 0.0
H29 H 0.26526 0.52328 0.20687 0.0
H30 H 0.29454 0.41586 0.35827 0.0
H31 H 0.30628 0.52894 0.35721 0.0
H32 H 0.34903 0.5141 0.28311 0.0
C33 C 0.77984 0.26244 0.72689 0.0
C34 C 0.75695 0.25608 0.72032 0.0
N35 N 0.74377 0.24142 0.74782 0.0
N36 N 0.78111 0.25184 0.75835 0.0
C37 C 0.75881 0.23893 0.77029 0.0
H38 H 0.79475 0.27501 0.7109 0.0
Co39 Co 0.809 0.25878 0.78149 0.0
C40 C 0.79331 0.22138 0.83843 0.0
O41 O 0.80457 0.21245 0.82101 0.0
N42 N 0.83721 0.26614 0.805 0.0
C43 C 0.86459 0.27629 0.84884 0.0
C44 C 0.84195 0.27074 0.84195 0.0
C45 C 0.85731 0.26922 0.79 0.0
N46 N 0.87424 0.27538 0.81606 0.0
O47 O 0.809 0.23394 0.75298 0.0
H48 H 0.82985 0.27055 0.86256 0.0
H49 H 0.85967 0.26717 0.76054 0.0
O50 O 0.79264 0.2387 0.82403 0.0
C51 C 0.81909 0.2426 0.7217 0.0
O52 O 0.82877 0.26531 0.71698 0.0
N53 N 0.80935 0.28423 0.8049 0.0
C54 C 0.8044 0.32326 0.81553 0.0
C55 C 0.78926 0.30204 0.8334 0.0
C56 C 0.79198 0.28262 0.82763 0.0
C57 C 0.82538 0.30514 0.78993 0.0
C58 C 0.82333 0.32498 0.79509 0.0
H59 H 0.77885 0.26595 0.8386 0.0
H60 H 0.83863 0.30594 0.77117 0.0
H61 H 0.75384 0.2293 0.79638 0.0
H62 H 0.75062 0.26248 0.69787 0.0
H63 H 0.87347 0.28146 0.87565 0.0
H64 H 0.7745 0.30004 0.84958 0.0
H65 H 0.83524 0.3409 0.78041 0.0
C66 C 0.52027 0.78503 0.19749 0.0
C67 C 0.50544 0.76129 0.20023 0.0
N68 N 0.50612 0.75475 0.23584 0.0
N69 N 0.53031 0.79341 0.23113 0.0
C70 C 0.52143 0.77458 0.25391 0.0
H71 H 0.52308 0.79564 0.17283 0.0
Co72 Co 0.55006 0.82481 0.24135 0.0
C73 C 0.5621 0.82865 0.32208 0.0
O74 O 0.5603 0.84753 0.32335 0.0
N75 N 0.57066 0.85721 0.25087 0.0
C76 C 0.5867 0.89517 0.26426 0.0
C77 C 0.56619 0.87485 0.25724 0.0
C78 C 0.59422 0.8676 0.25377 0.0
N79 N 0.6042 0.89052 0.26192 0.0
O80 O 0.57476 0.82277 0.21596 0.0
H81 H 0.54923 0.87338 0.25817 0.0
H82 H 0.60393 0.85851 0.25088 0.0
O83 O 0.55818 0.81719 0.29121 0.0
C84 C 0.57637 0.8314 0.18323 0.0
O85 O 0.56365 0.84109 0.17583 0.0
N86 N 0.5243 0.82605 0.26022 0.0
C87 C 0.4795 0.8202 0.26573 0.0
C88 C 0.48796 0.8111 0.2934 0.0
C89 C 0.51046 0.81413 0.29005 0.0
C90 C 0.51633 0.83495 0.23338 0.0
C91 C 0.49455 0.83311 0.23634 0.0
H92 H 0.51581 0.80532 0.30975 0.0
H93 H 0.52687 0.84311 0.20878 0.0
H94 H 0.52577 0.77542 0.28334 0.0
H95 H 0.49435 0.74994 0.17805 0.0
H96 H 0.58867 0.91213 0.27041 0.0
H97 H 0.47687 0.80046 0.3161 0.0
H98 H 0.48928 0.841 0.21468 0.0
C99 C 0.71931 0.50841 0.69398 0.0
C100 C 0.72433 0.49069 0.68974 0.0
N101 N 0.74081 0.49391 0.71511 0.0
N102 N 0.7325 0.52268 0.72196 0.0
C103 C 0.74564 0.51358 0.73397 0.0
H104 H 0.70601 0.5101 0.67902 0.0
Co105 Co 0.72865 0.54644 0.74239 0.0
C106 C 0.76478 0.56649 0.80176 0.0
O107 O 0.77428 0.58705 0.78543 0.0
N108 N 0.72451 0.57017 0.76326 0.0
C109 C 0.71766 0.59114 0.80492 0.0
C110 C 0.72013 0.57191 0.79985 0.0
C111 C 0.72423 0.58836 0.74657 0.0
N112 N 0.72021 0.60145 0.77135 0.0
O113 O 0.75497 0.56874 0.71314 0.0
H114 H 0.71846 0.55968 0.82148 0.0
H115 H 0.7267 0.59194 0.71683 0.0
O116 O 0.74765 0.54892 0.7859 0.0
C117 C 0.74662 0.56946 0.68109 0.0
O118 O 0.72381 0.55768 0.6769 0.0
N119 N 0.70169 0.52388 0.76656 0.0
C120 C 0.65925 0.48344 0.77952 0.0
C121 C 0.67989 0.48628 0.79552 0.0
C122 C 0.70103 0.50675 0.7888 0.0
C123 C 0.68159 0.52213 0.7531 0.0
C124 C 0.66007 0.50211 0.75964 0.0
H125 H 0.71698 0.50777 0.79843 0.0
H126 H 0.68247 0.53552 0.73461 0.0
H127 H 0.7573 0.52019 0.75785 0.0
H128 H 0.71589 0.4761 0.67042 0.0
H129 H 0.71339 0.59658 0.83102 0.0
H130 H 0.6799 0.47216 0.81092 0.0
H131 H 0.64456 0.50044 0.74638 0.0
C132 C 0.19975 0.70639 0.22697 0.0
C133 C 0.22214 0.71203 0.21821 0.0
N134 N 0.23603 0.73544 0.22085 0.0
N135 N 0.19937 0.72597 0.23628 0.0
C136 C 0.22141 0.74347 0.23008 0.0
H137 H 0.18486 0.68889 0.22817 0.0
Co138 Co 0.1729 0.72625 0.25427 0.0
C139 C 0.20923 0.76069 0.31253 0.0
O140 O 0.22746 0.75896 0.30302 0.0
N141 N 0.14614 0.72601 0.27137 0.0
C142 C 0.11828 0.72377 0.30896 0.0
C143 C 0.13977 0.72536 0.30756 0.0
C144 C 0.1281 0.72444 0.25129 0.0
N145 N 0.11094 0.72311 0.27349 0.0
O146 O 0.17867 0.75054 0.21896 0.0
H147 H 0.1496 0.72486 0.33144 0.0
H148 H 0.1272 0.72358 0.221 0.0
O149 O 0.18995 0.74902 0.29468 0.0
C150 C 0.16985 0.74064 0.18761 0.0
O151 O 0.15905 0.71767 0.18602 0.0
N152 N 0.16627 0.70096 0.28598 0.0
C153 C 0.15986 0.65829 0.31155 0.0
C154 C 0.17887 0.67947 0.32408 0.0
C155 C 0.18175 0.70066 0.31099 0.0
C156 C 0.14657 0.68073 0.27632 0.0
C157 C 0.14287 0.6592 0.28915 0.0
H158 H 0.19767 0.7164 0.3179 0.0
H159 H 0.1346 0.68112 0.25602 0.0
H160 H 0.22671 0.76171 0.23369 0.0
H161 H 0.22777 0.69951 0.21272 0.0
H162 H 0.10825 0.7218 0.33409 0.0
H163 H 0.19263 0.67976 0.34094 0.0
H164 H 0.12767 0.64336 0.27937 0.0
C165 C 0.48764 0.21452 0.73258 0.0
C166 C 0.50133 0.23695 0.71996 0.0
N167 N 0.48955 0.24854 0.72464 0.0
N168 N 0.46745 0.21194 0.74617 0.0
C169 C 0.4687 0.23264 0.73932 0.0
H170 H 0.49249 0.20114 0.73298 0.0
Co171 Co 0.44432 0.18432 0.76818 0.0
C172 C 0.4429 0.21961 0.82557 0.0
O173 O 0.46083 0.23931 0.8142 0.0
N174 N 0.42143 0.15644 0.78953 0.0
C175 C 0.40079 0.12938 0.83209 0.0
C176 C 0.41863 0.15181 0.82665 0.0
C177 C 0.40535 0.13639 0.77292 0.0
N178 N 0.39246 0.11957 0.79823 0.0
O179 O 0.42176 0.18507 0.73501 0.0
H180 H 0.42935 0.16381 0.84846 0.0
H181 H 0.40374 0.13389 0.74285 0.0
O182 O 0.43746 0.20048 0.80849 0.0
C183 C 0.42289 0.17623 0.70368 0.0
O184 O 0.43687 0.16749 0.70137 0.0
N185 N 0.46712 0.18283 0.7975 0.0
C186 C 0.50858 0.18469 0.81822 0.0
C187 C 0.50312 0.20134 0.83183 0.0
C188 C 0.48229 0.20017 0.82098 0.0
C189 C 0.47106 0.16523 0.78709 0.0
C190 C 0.49169 0.16576 0.79728 0.0
H191 H 0.47968 0.21443 0.82859 0.0
H192 H 0.45916 0.15189 0.76782 0.0
H193 H 0.45472 0.23612 0.74557 0.0
H194 H 0.51914 0.24445 0.71022 0.0
H195 H 0.39473 0.12096 0.85904 0.0
H196 H 0.51564 0.21613 0.84833 0.0
H197 H 0.49526 0.15267 0.78583 0.0
C198 C 0.5227 0.73283 0.82621 0.0
C199 C 0.50696 0.73957 0.83681 0.0
N200 N 0.50727 0.75452 0.81083 0.0
N201 N 0.53291 0.7435 0.79377 0.0
C202 C 0.52332 0.75677 0.78523 0.0
H203 H 0.52577 0.72016 0.8404 0.0
Co204 Co 0.55295 0.73717 0.76649 0.0
C205 C 0.57281 0.77529 0.71054 0.0
O206 O 0.59356 0.78375 0.72587 0.0
N207 N 0.57298 0.73049 0.73883 0.0
C208 C 0.5889 0.72189 0.69086 0.0
C209 C 0.57157 0.72636 0.70148 0.0
C210 C 0.59119 0.72821 0.7503 0.0
N211 N 0.60125 0.72303 0.72166 0.0
O212 O 0.57861 0.76161 0.79425 0.0
H213 H 0.55862 0.72645 0.68306 0.0
H214 H 0.59666 0.72967 0.77919 0.0
O215 O 0.5552 0.75808 0.726 0.0
C216 C 0.58128 0.75281 0.82447 0.0
O217 O 0.56935 0.72995 0.82824 0.0
N218 N 0.52706 0.71215 0.74371 0.0
C219 C 0.48281 0.67346 0.73336 0.0
C220 C 0.48854 0.69517 0.71778 0.0
C221 C 0.51079 0.7144 0.72344 0.0
C222 C 0.52244 0.69083 0.75646 0.0
C223 C 0.5004 0.67115 0.7514 0.0
H224 H 0.51404 0.73134 0.71441 0.0
H225 H 0.53532 0.68949 0.77335 0.0
H226 H 0.52687 0.76669 0.75955 0.0
H227 H 0.49566 0.73335 0.86113 0.0
H228 H 0.59207 0.71806 0.66262 0.0
H229 H 0.47549 0.69764 0.70348 0.0
H230 H 0.49666 0.6548 0.76427 0.0
C231 C 0.78433 0.51232 0.3261 0.0
C232 C 0.76188 0.50082 0.33965 0.0
N233 N 0.74802 0.50375 0.3151 0.0
N234 N 0.78466 0.52242 0.29315 0.0
C235 C 0.76241 0.51729 0.28747 0.0
H236 H 0.7994 0.51289 0.339 0.0
Co237 Co 0.81119 0.53941 0.26409 0.0
C238 C 0.78543 0.53121 0.18975 0.0
O239 O 0.78825 0.51351 0.18116 0.0
N240 N 0.83833 0.55749 0.23496 0.0
C241 C 0.86365 0.57132 0.18753 0.0
C242 C 0.8422 0.55374 0.19899 0.0
C243 C 0.8579 0.57753 0.24462 0.0
N244 N 0.87353 0.58634 0.21631 0.0
O245 O 0.81403 0.56709 0.2873 0.0
H246 H 0.83055 0.53893 0.18204 0.0
H247 H 0.86096 0.58545 0.27207 0.0
O248 O 0.79299 0.54207 0.22117 0.0
C249 C 0.82505 0.56998 0.31818 0.0
O250 O 0.83512 0.55741 0.32383 0.0
N251 N 0.80896 0.5109 0.24695 0.0
C252 C 0.8071 0.46796 0.23596 0.0
C253 C 0.7867 0.46942 0.23563 0.0
C254 C 0.78794 0.49082 0.24202 0.0
C255 C 0.82891 0.50957 0.24877 0.0
C256 C 0.82844 0.4884 0.24269 0.0
H257 H 0.7718 0.49114 0.24247 0.0
H258 H 0.84532 0.52479 0.25631 0.0
H259 H 0.75669 0.52231 0.26254 0.0
H260 H 0.75623 0.49073 0.36528 0.0
H261 H 0.8713 0.57284 0.16008 0.0
H262 H 0.76972 0.45396 0.23195 0.0
H263 H 0.84459 0.48799 0.24408 0.0
C264 C 0.25484 0.77724 0.82131 0.0
C265 C 0.24384 0.75336 0.82582 0.0
N266 N 0.22832 0.74322 0.79765 0.0
N267 N 0.24634 0.78209 0.79037 0.0
C268 C 0.22979 0.76107 0.77718 0.0
H269 H 0.26916 0.79018 0.83802 0.0
Co270 Co 0.2584 0.81153 0.76869 0.0
C271 C 0.24205 0.7931 0.68971 0.0
O272 O 0.26225 0.79574 0.67958 0.0
N273 N 0.27005 0.84139 0.74655 0.0
C274 C 0.28522 0.87053 0.70511 0.0
C275 C 0.2798 0.84797 0.7121 0.0
C276 C 0.26996 0.86053 0.75997 0.0
N277 N 0.27899 0.87839 0.73527 0.0
O278 O 0.23387 0.81396 0.79313 0.0
H279 H 0.2835 0.83743 0.69336 0.0
H280 H 0.26326 0.86151 0.78713 0.0
O281 O 0.23884 0.7984 0.72299 0.0
C282 C 0.24178 0.82234 0.82572 0.0
O283 O 0.26406 0.83027 0.83241 0.0
N284 N 0.28423 0.80929 0.75044 0.0
C285 C 0.32432 0.80527 0.74672 0.0
C286 C 0.30252 0.78656 0.73626 0.0
C287 C 0.28269 0.78876 0.73898 0.0
C288 C 0.30548 0.82775 0.76031 0.0
C289 C 0.32577 0.82628 0.75792 0.0
H290 H 0.26598 0.77354 0.73308 0.0
H291 H 0.30666 0.84327 0.77263 0.0
H292 H 0.22007 0.75878 0.7516 0.0
H293 H 0.24828 0.74421 0.84647 0.0
H294 H 0.29377 0.88061 0.68026 0.0
H295 H 0.30063 0.76995 0.72769 0.0
H296 H 0.34215 0.84091 0.76745 0.0
C297 C 0.47529 0.26351 0.33923 0.0
C298 C 0.48999 0.25486 0.34628 0.0
N299 N 0.48581 0.23827 0.32045 0.0
N300 N 0.46222 0.25267 0.30874 0.0
C301 C 0.46851 0.23688 0.29859 0.0
H302 H 0.47532 0.27797 0.35361 0.0
Co303 Co 0.44365 0.26212 0.28376 0.0
C304 C 0.44992 0.24472 0.20749 0.0
O305 O 0.46868 0.26442 0.1989 0.0
N306 N 0.42434 0.2711 0.25836 0.0
C307 C 0.40995 0.28369 0.21348 0.0
C308 C 0.42704 0.27857 0.22244 0.0
C309 C 0.40536 0.27185 0.27056 0.0
N310 N 0.39627 0.27945 0.24379 0.0
O311 O 0.4171 0.2366 0.3075 0.0
H312 H 0.44107 0.28107 0.20409 0.0
H313 H 0.39831 0.26705 0.29855 0.0
O314 O 0.43972 0.24223 0.23918 0.0
C315 C 0.41487 0.24438 0.3392 0.0
O316 O 0.42781 0.26693 0.34589 0.0
N317 N 0.47112 0.28929 0.26608 0.0
C318 C 0.51339 0.33174 0.26424 0.0
C319 C 0.51279 0.31062 0.25716 0.0
C320 C 0.49165 0.28965 0.25885 0.0
C321 C 0.47153 0.30994 0.2724 0.0
C322 C 0.49235 0.33135 0.27079 0.0
H323 H 0.49216 0.27367 0.25598 0.0
H324 H 0.45598 0.30995 0.2816 0.0
H325 H 0.46231 0.22625 0.27348 0.0
H326 H 0.50364 0.26124 0.36731 0.0
H327 H 0.40841 0.29093 0.18713 0.0
H328 H 0.52874 0.31018 0.25231 0.0
H329 H 0.4922 0.34727 0.27758 0.0
C330 C 0.20971 0.48534 0.83698 0.0
C331 C 0.23242 0.50284 0.84248 0.0
N332 N 0.24583 0.50079 0.81595 0.0
N333 N 0.20881 0.47233 0.80714 0.0
C334 C 0.23111 0.48207 0.79507 0.0
H335 H 0.19466 0.48288 0.85268 0.0
Co336 Co 0.1814 0.44909 0.78552 0.0
C337 C 0.19804 0.4264 0.73246 0.0
O338 O 0.1858 0.40653 0.75041 0.0
N339 N 0.15366 0.42598 0.76326 0.0
C340 C 0.12694 0.40584 0.71966 0.0
C341 C 0.14933 0.42358 0.72596 0.0
C342 C 0.13344 0.40967 0.77905 0.0
N343 N 0.11687 0.39713 0.75312 0.0
O344 O 0.18321 0.42651 0.81724 0.0
H345 H 0.16154 0.43442 0.70455 0.0
H346 H 0.13053 0.40761 0.80897 0.0
O347 O 0.19874 0.44482 0.74512 0.0
C348 C 0.17281 0.42524 0.84811 0.0
O349 O 0.16188 0.43718 0.85131 0.0
N350 N 0.17909 0.47192 0.75854 0.0
C351 C 0.17778 0.51161 0.73613 0.0
C352 C 0.19408 0.50629 0.72044 0.0
C353 C 0.19459 0.48639 0.73228 0.0
C354 C 0.16231 0.47603 0.77244 0.0
C355 C 0.16128 0.49572 0.76156 0.0
H356 H 0.20831 0.48353 0.72208 0.0
H357 H 0.15058 0.46467 0.79394 0.0
H358 H 0.23633 0.47654 0.77008 0.0
H359 H 0.23847 0.5164 0.8637 0.0
H360 H 0.1187 0.40007 0.69247 0.0
H361 H 0.20704 0.51796 0.70051 0.0
H362 H 0.14866 0.49922 0.77502 0.0
C363 C 0.73098 0.20389 0.35043 0.0
C364 C 0.73882 0.22743 0.34871 0.0
N365 N 0.74544 0.23456 0.31313 0.0
N366 N 0.73263 0.1962 0.31613 0.0
C367 C 0.74163 0.21531 0.29393 0.0
H368 H 0.72384 0.19287 0.37487 0.0
Co369 Co 0.72125 0.16495 0.30574 0.0
C370 C 0.73069 0.16091 0.22568 0.0
O371 O 0.71052 0.14136 0.22445 0.0
N372 N 0.70961 0.13271 0.29684 0.0
C373 C 0.68772 0.09391 0.29624 0.0
C374 C 0.68757 0.11447 0.30018 0.0
C375 C 0.72277 0.12257 0.29053 0.0
N376 N 0.70982 0.09909 0.29018 0.0
O377 O 0.74776 0.16693 0.33173 0.0
H378 H 0.6722 0.1155 0.30644 0.0
H379 H 0.7416 0.13219 0.28787 0.0
O380 O 0.73747 0.17274 0.25634 0.0
C381 C 0.74075 0.15787 0.36422 0.0
O382 O 0.71827 0.14762 0.37146 0.0
N383 N 0.69443 0.16368 0.28575 0.0
C384 C 0.65501 0.16842 0.2763 0.0
C385 C 0.67247 0.17633 0.24855 0.0
C386 C 0.69221 0.17398 0.25395 0.0
C387 C 0.67781 0.15628 0.31296 0.0
C388 C 0.65767 0.15759 0.30825 0.0
H389 H 0.70624 0.182 0.23387 0.0
H390 H 0.68057 0.14982 0.33923 0.0
H391 H 0.74423 0.21495 0.26401 0.0
H392 H 0.73926 0.23838 0.37172 0.0
H393 H 0.67284 0.07642 0.29868 0.0
H394 H 0.67164 0.18549 0.22396 0.0
H395 H 0.6447 0.15086 0.33034 0.0
C396 C 0.36587 0.2859 0.21545 0.0
C397 C 0.37746 0.2844 0.24752 0.0
C398 C 0.34983 0.29368 0.21835 0.0
C399 C 0.31382 0.30555 0.28386 0.0
H400 H 0.33063 0.35904 0.21976 0.0
C401 C 0.2909 0.37641 0.32008 0.0
C402 C 0.28795 0.38918 0.29114 0.0
C403 C 0.29681 0.35936 0.3119 0.0
C404 C 0.32519 0.3438 0.23728 0.0
H405 H 0.38012 0.2886 0.30814 0.0
H406 H 0.3519 0.30188 0.31315 0.0
H407 H 0.34935 0.33583 0.21068 0.0
H408 H 0.28766 0.39276 0.23048 0.0
H409 H 0.29696 0.36245 0.21633 0.0
H410 H 0.28981 0.31367 0.31078 0.0
C411 C 0.35528 0.29701 0.28578 0.0
C412 C 0.33602 0.33054 0.23211 0.0
C413 C 0.37148 0.2894 0.28287 0.0
C414 C 0.2898 0.38347 0.25367 0.0
C415 C 0.29541 0.36617 0.24549 0.0
C416 C 0.30273 0.31866 0.28875 0.0
C417 C 0.34484 0.29988 0.25342 0.0
C418 C 0.33086 0.31165 0.25591 0.0
C419 C 0.2996 0.35434 0.27452 0.0
C420 C 0.30875 0.33834 0.26616 0.0
H421 H 0.36958 0.28161 0.18791 0.0
H422 H 0.34176 0.29544 0.19303 0.0
H423 H 0.30939 0.2909 0.30233 0.0
H424 H 0.28911 0.37979 0.34925 0.0
H425 H 0.30008 0.3508 0.33507 0.0
C426 C 0.9089 0.29059 0.77497 0.0
C427 C 0.89818 0.2816 0.80981 0.0
C428 C 0.93254 0.29819 0.76974 0.0
C429 C 0.98697 0.32128 0.82305 0.0
H430 H 0.01158 0.31485 0.72769 0.0
C431 C 0.08606 0.36717 0.79379 0.0
C432 C 0.09285 0.37962 0.75978 0.0
C433 C 0.06255 0.35114 0.80086 0.0
C434 C 0.00495 0.31677 0.75449 0.0
H435 H 0.90365 0.27246 0.86585 0.0
H436 H 0.94503 0.28584 0.85674 0.0
H437 H 0.96948 0.2936 0.73834 0.0
H438 H 0.08006 0.38467 0.70644 0.0
H439 H 0.03938 0.35678 0.71867 0.0
H440 H 0.02238 0.34499 0.83878 0.0
C441 C 0.93517 0.28731 0.83368 0.0
C442 C 0.98087 0.30463 0.76056 0.0
C443 C 0.91149 0.2797 0.83891 0.0
C444 C 0.07565 0.3752 0.73268 0.0
C445 C 0.05224 0.35914 0.73967 0.0
C446 C 0.01106 0.33339 0.81698 0.0
C447 C 0.94602 0.29696 0.7992 0.0
C448 C 0.97159 0.30724 0.79455 0.0
C449 C 0.04539 0.34714 0.77398 0.0
C450 C 0.02024 0.33174 0.78228 0.0
H451 H 0.89929 0.29262 0.75212 0.0
H452 H 0.94045 0.3059 0.74303 0.0
H453 H 0.98037 0.32387 0.84938 0.0
H454 H 0.09887 0.36983 0.81502 0.0
H455 H 0.05779 0.34196 0.82743 0.0
C456 C 0.72863 0.08043 0.25617 0.0
C457 C 0.71767 0.08249 0.28849 0.0
C458 C 0.73126 0.06081 0.25126 0.0
C459 C 0.72073 0.00571 0.29898 0.0
H460 H 0.68501 0.97633 0.20894 0.0
C461 C 0.63609 0.92193 0.29757 0.0
C462 C 0.62851 0.90719 0.26614 0.0
C463 C 0.65854 0.94127 0.29861 0.0
C464 C 0.69565 0.98422 0.23368 0.0
H465 H 0.70299 0.06749 0.3424 0.0
H466 H 0.70754 0.03348 0.3344 0.0
H467 H 0.70656 0.01859 0.21369 0.0
H468 H 0.63847 0.89987 0.21221 0.0
H469 H 0.67786 0.93452 0.21322 0.0
H470 H 0.7075 0.97107 0.32046 0.0
C471 C 0.71429 0.04671 0.3127 0.0
C472 C 0.7081 0.00858 0.23643 0.0
C473 C 0.71142 0.06604 0.31727 0.0
C474 C 0.64418 0.91107 0.23677 0.0
C475 C 0.66659 0.93081 0.23738 0.0
C476 C 0.70812 0.98134 0.29634 0.0
C477 C 0.72319 0.04324 0.27889 0.0
C478 C 0.71918 0.01948 0.27029 0.0
C479 C 0.67366 0.94652 0.26779 0.0
C480 C 0.69405 0.97044 0.26478 0.0
H481 H 0.73349 0.09305 0.23369 0.0
H482 H 0.73826 0.05868 0.22499 0.0
H483 H 0.72966 0.01366 0.32505 0.0
H484 H 0.62415 0.9191 0.32041 0.0
H485 H 0.66327 0.9532 0.32219 0.0
C486 C 0.72191 0.63811 0.79082 0.0
C487 C 0.71681 0.62087 0.76342 0.0
C488 C 0.71609 0.65546 0.78493 0.0
C489 C 0.69533 0.68162 0.71268 0.0
H490 H 0.66218 0.68871 0.7969 0.0
C491 C 0.62243 0.7039 0.69687 0.0
C492 C 0.62011 0.71809 0.72402 0.0
C493 C 0.63956 0.69762 0.7006 0.0
C494 C 0.6718 0.68737 0.77333 0.0
H495 H 0.70253 0.60884 0.70775 0.0
H496 H 0.692 0.6388 0.69762 0.0
H497 H 0.68321 0.66767 0.80533 0.0
H498 H 0.63498 0.73793 0.77525 0.0
H499 H 0.66465 0.72657 0.78207 0.0
H500 H 0.68283 0.70041 0.6803 0.0
C501 C 0.70089 0.63925 0.72342 0.0
C502 C 0.68391 0.67532 0.77815 0.0
C503 C 0.70686 0.62201 0.72924 0.0
C504 C 0.63592 0.72656 0.75427 0.0
C505 C 0.653 0.72017 0.7581 0.0
C506 C 0.68311 0.6936 0.70782 0.0
C507 C 0.7049 0.65582 0.7516 0.0
C508 C 0.69528 0.67174 0.74764 0.0
C509 C 0.65473 0.70531 0.73162 0.0
C510 C 0.6707 0.69603 0.73787 0.0
H511 H 0.73 0.6379 0.81713 0.0
H512 H 0.71981 0.66823 0.80689 0.0
H513 H 0.70428 0.67953 0.6888 0.0
H514 H 0.61045 0.69682 0.67345 0.0
H515 H 0.64021 0.68584 0.68005 0.0
C516 C 0.07515 0.72501 0.2852 0.0
C517 C 0.08808 0.71833 0.26218 0.0
C518 C 0.05186 0.71772 0.27681 0.0
C519 C 0.00581 0.68863 0.20352 0.0
H520 H 0.96534 0.66024 0.28944 0.0
C521 C 0.91408 0.60878 0.19301 0.0
C522 C 0.89645 0.60682 0.21736 0.0
C523 C 0.9367 0.62779 0.1957 0.0
C524 C 0.97632 0.66851 0.26523 0.0
H525 H 0.08704 0.69967 0.21135 0.0
H526 H 0.04651 0.68674 0.19697 0.0
H527 H 0.00712 0.68484 0.29897 0.0
H528 H 0.8886 0.62414 0.2622 0.0
H529 H 0.9283 0.65713 0.26733 0.0
H530 H 0.97494 0.67115 0.16969 0.0
C531 C 0.05438 0.69795 0.22117 0.0
C532 C 0.00031 0.68267 0.27068 0.0
C533 C 0.07766 0.70532 0.22947 0.0
C534 C 0.90184 0.62479 0.24358 0.0
C535 C 0.92453 0.64377 0.24639 0.0
C536 C 0.98179 0.67437 0.19806 0.0
C537 C 0.04102 0.70351 0.2453 0.0
C538 C 0.01541 0.69226 0.2398 0.0
C539 C 0.94227 0.64525 0.22287 0.0
C540 C 0.96692 0.66357 0.22879 0.0
H541 H 0.08288 0.73541 0.3102 0.0
H542 H 0.04215 0.72263 0.29561 0.0
H543 H 0.01695 0.69614 0.17922 0.0
H544 H 0.9107 0.5952 0.17278 0.0
H545 H 0.95009 0.62823 0.1776 0.0
C546 C 0.28262 0.91472 0.70975 0.0
C547 C 0.28278 0.90162 0.74063 0.0
C548 C 0.28857 0.93806 0.71426 0.0
C549 C 0.29968 0.98359 0.78602 0.0
H550 H 0.34425 0.0254 0.71252 0.0
C551 C 0.36912 0.07831 0.81829 0.0
C552 C 0.37488 0.09561 0.79077 0.0
C553 C 0.35311 0.05495 0.81059 0.0
C554 C 0.33146 0.01398 0.73289 0.0
H555 H 0.28851 0.90237 0.80064 0.0
H556 H 0.29933 0.94318 0.80854 0.0
H557 H 0.3244 0.9834 0.70197 0.0
H558 H 0.36733 0.10175 0.73394 0.0
H559 H 0.33974 0.06073 0.72027 0.0
H560 H 0.30772 0.01432 0.81775 0.0
C561 C 0.29417 0.93537 0.7809 0.0
C562 C 0.32004 0.98988 0.72685 0.0
C563 C 0.28804 0.91198 0.77641 0.0
C564 C 0.36371 0.08893 0.75559 0.0
C565 C 0.34779 0.06545 0.74779 0.0
C566 C 0.31121 0.00771 0.79215 0.0
C567 C 0.29499 0.94882 0.74973 0.0
C568 C 0.30447 0.97438 0.75381 0.0
C569 C 0.34255 0.04822 0.77512 0.0
C570 C 0.32766 0.02309 0.76609 0.0
H571 H 0.27818 0.907 0.68198 0.0
H572 H 0.2886 0.94779 0.68981 0.0
H573 H 0.28744 0.97214 0.80697 0.0
H574 H 0.37751 0.08256 0.8455 0.0
H575 H 0.34974 0.042 0.832 0.0
C576 C 0.19588 0.41368 0.89015 0.0
C577 C 0.1751 0.41367 0.88204 0.0
C578 C 0.19992 0.40817 0.92646 0.0
C579 C 0.1827 0.41182 0.02339 0.0
H580 H 0.219 0.38261 0.04958 0.0
C581 C 0.21349 0.41523 0.17589 0.0
C582 C 0.23725 0.4222 0.179 0.0
C583 C 0.20198 0.40758 0.14117 0.0
C584 C 0.20886 0.39087 0.04276 0.0
H585 H 0.14143 0.4058 0.90421 0.0
H586 H 0.14817 0.39565 0.9668 0.0
H587 H 0.20665 0.38146 0.98452 0.0
H588 H 0.26706 0.42484 0.14911 0.0
H589 H 0.24734 0.41191 0.08922 0.0
H590 H 0.1857 0.42217 0.08095 0.0
C591 C 0.16166 0.40054 0.94577 0.0
C592 C 0.2018 0.39019 1.00543 0.0
C593 C 0.15772 0.40618 0.90979 0.0
C594 C 0.24876 0.41976 0.14759 0.0
C595 C 0.23734 0.41212 0.11315 0.0
C596 C 0.18985 0.41261 0.06057 0.0
C597 C 0.18319 0.40246 0.95509 0.0
C598 C 0.18895 0.40101 0.99516 0.0
C599 C 0.21402 0.40666 0.10904 0.0
C600 C 0.20345 0.40258 0.0707 0.0
H601 H 0.20965 0.41959 0.86939 0.0
H602 H 0.21673 0.40988 0.93268 0.0
H603 H 0.17316 0.42069 1.01649 0.0
H604 H 0.20418 0.41693 0.1996 0.0
H605 H 0.18388 0.40315 0.13921 0.0
C606 C 0.77911 0.18139 0.39807 0.0
C607 C 0.75676 0.16155 0.39589 0.0
C608 C 0.7914 0.18753 0.43226 0.0
C609 C 0.7894 0.16688 0.53185 0.0
H610 H 0.81629 0.23276 0.55461 0.0
C611 C 0.79841 0.20611 0.68212 0.0
C612 C 0.81795 0.22824 0.6889 0.0
C613 C 0.79503 0.1956 0.64654 0.0
C614 C 0.80919 0.21434 0.54867 0.0
H615 H 0.73069 0.13148 0.42666 0.0
H616 H 0.75158 0.14221 0.48568 0.0
H617 H 0.80421 0.2191 0.49083 0.0
H618 H 0.85029 0.25566 0.66515 0.0
H619 H 0.84459 0.2373 0.60378 0.0
H620 H 0.79335 0.16219 0.59057 0.0
C621 C 0.75998 0.15311 0.46148 0.0
C622 C 0.80236 0.20648 0.51186 0.0
C623 C 0.74784 0.147 0.42749 0.0
C624 C 0.83492 0.23869 0.66063 0.0
C625 C 0.8316 0.22825 0.62535 0.0
C626 C 0.79601 0.17475 0.56887 0.0
C627 C 0.78152 0.17395 0.46486 0.0
C628 C 0.79195 0.18257 0.50294 0.0
C629 C 0.81117 0.20708 0.61732 0.0
C630 C 0.80571 0.19855 0.57778 0.0
H631 H 0.78642 0.19297 0.3742 0.0
H632 H 0.80819 0.20344 0.43351 0.0
H633 H 0.78185 0.14838 0.52608 0.0
H634 H 0.78496 0.19775 0.70328 0.0
H635 H 0.77907 0.17928 0.64121 0.0
C636 C 0.5948 0.84308 0.12035 0.0
C637 C 0.58936 0.82843 0.1518 0.0
C638 C 0.60183 0.83772 0.08663 0.0
C639 C 0.59476 0.7859 0.03561 0.0
H640 H 0.63016 0.83193 0.95908 0.0
C641 C 0.60028 0.75684 0.88639 0.0
C642 C 0.59354 0.76703 0.85799 0.0
C643 C 0.60619 0.7668 0.92219 0.0
C644 C 0.62024 0.81888 0.98017 0.0
H645 H 0.58886 0.79761 0.17345 0.0
H646 H 0.60187 0.78843 0.11457 0.0
H647 H 0.63026 0.84459 0.02367 0.0
H648 H 0.58939 0.79663 0.8441 0.0
H649 H 0.59994 0.81428 0.90694 0.0
H650 H 0.5846 0.76025 0.99209 0.0
C651 C 0.6001 0.80385 0.11576 0.0
C652 C 0.62024 0.8261 1.01725 0.0
C653 C 0.59296 0.80924 0.14971 0.0
C654 C 0.59471 0.7885 0.8653 0.0
C655 C 0.60066 0.79853 0.90135 0.0
C656 C 0.59501 0.77869 0.99873 0.0
C657 C 0.60376 0.81755 0.08332 0.0
C658 C 0.607 0.80975 0.04535 0.0
C659 C 0.60551 0.78722 0.93059 0.0
C660 C 0.60735 0.79511 0.97037 0.0
H661 H 0.59234 0.85811 0.12109 0.0
H662 H 0.60421 0.84866 0.06254 0.0
H663 H 0.58398 0.77276 0.056 0.0
H664 H 0.59974 0.74038 0.88155 0.0
H665 H 0.61031 0.75792 0.94381 0.0
C666 C 0.80234 0.58301 0.35834 0.0
C667 C 0.82317 0.58299 0.35067 0.0
C668 C 0.79827 0.58902 0.39435 0.0
C669 C 0.8144 0.58546 0.49155 0.0
H670 H 0.78117 0.61802 0.51676 0.0
C671 C 0.78415 0.58493 0.64411 0.0
C672 C 0.7612 0.58071 0.64742 0.0
C673 C 0.79565 0.59123 0.60922 0.0
C674 C 0.79034 0.60872 0.51027 0.0
H675 H 0.85682 0.59121 0.37341 0.0
H676 H 0.84991 0.60197 0.43558 0.0
H677 H 0.79312 0.61788 0.45187 0.0
H678 H 0.73302 0.58145 0.61744 0.0
H679 H 0.75255 0.59178 0.55739 0.0
H680 H 0.81069 0.57521 0.54916 0.0
C681 C 0.83652 0.59694 0.4143 0.0
C682 C 0.79723 0.60872 0.473 0.0
C683 C 0.84055 0.59097 0.37854 0.0
C684 C 0.75066 0.5844 0.61589 0.0
C685 C 0.76202 0.59058 0.58126 0.0
C686 C 0.80728 0.58521 0.52864 0.0
C687 C 0.81495 0.59504 0.42319 0.0
C688 C 0.8091 0.59684 0.4631 0.0
C689 C 0.78442 0.59343 0.577 0.0
C690 C 0.79477 0.59648 0.53852 0.0
H691 H 0.78849 0.5766 0.33762 0.0
H692 H 0.78144 0.58733 0.40031 0.0
H693 H 0.82323 0.57582 0.48486 0.0
H694 H 0.79273 0.58221 0.66787 0.0
H695 H 0.81308 0.5937 0.60728 0.0
C696 C 0.23664 0.83437 0.88941 0.0
C697 C 0.2266 0.81983 0.85795 0.0
C698 C 0.22533 0.82858 0.9241 0.0
C699 C 0.18458 0.77542 0.97501 0.0
H700 H 0.19445 0.81915 0.05549 0.0
C701 C 0.15505 0.74228 0.12427 0.0
C702 C 0.17158 0.7537 0.1529 0.0
C703 C 0.15801 0.75241 0.08892 0.0
C704 C 0.19162 0.80674 0.03332 0.0
H705 H 0.19586 0.78892 0.83728 0.0
H706 H 0.17563 0.77897 0.8979 0.0
H707 H 0.20453 0.83329 0.99092 0.0
H708 H 0.20352 0.78535 0.16764 0.0
H709 H 0.209 0.80313 0.10519 0.0
H710 H 0.17221 0.74899 1.01722 0.0
C711 C 0.19258 0.79466 0.8959 0.0
C712 C 0.19734 0.81481 0.99628 0.0
C713 C 0.20397 0.80051 0.861 0.0
C714 C 0.19049 0.7762 0.1461 0.0
C715 C 0.19358 0.78634 0.11036 0.0
C716 C 0.17878 0.76738 1.01187 0.0
C717 C 0.20362 0.80806 0.92826 0.0
C718 C 0.1943 0.7993 0.96669 0.0
C719 C 0.17772 0.77417 0.08102 0.0
C720 C 0.18253 0.78295 0.04161 0.0
H721 H 0.25407 0.84945 0.88785 0.0
H722 H 0.23451 0.83931 0.94817 0.0
H723 H 0.18247 0.76298 0.95334 0.0
H724 H 0.14007 0.72507 0.12883 0.0
H725 H 0.14516 0.74281 0.06735 0.0
C726 C 0.40316 0.19351 0.66517 0.0
C727 C 0.4111 0.17748 0.66904 0.0
C728 C 0.39571 0.19694 0.63 0.0
C729 C 0.3809 0.17276 0.53161 0.0
H730 H 0.40644 0.23786 0.5049 0.0
C731 C 0.40321 0.2091 0.37932 0.0
C732 C 0.4018 0.22912 0.37106 0.0
C733 C 0.39749 0.1992 0.41538 0.0
C734 C 0.39875 0.21952 0.51192 0.0
H735 H 0.41596 0.15141 0.63965 0.0
H736 H 0.40349 0.15758 0.579 0.0
H737 H 0.40871 0.22758 0.56951 0.0
H738 H 0.39123 0.25312 0.39246 0.0
H739 H 0.38058 0.23554 0.45461 0.0
H740 H 0.37194 0.16495 0.47333 0.0
C741 C 0.40271 0.16743 0.60275 0.0
C742 C 0.40001 0.2136 0.54918 0.0
C743 C 0.41011 0.16404 0.63766 0.0
C744 C 0.39252 0.2377 0.39814 0.0
C745 C 0.38668 0.22778 0.4339 0.0
C746 C 0.37978 0.17872 0.49419 0.0
C747 C 0.396 0.18436 0.59808 0.0
C748 C 0.39154 0.19019 0.55949 0.0
C749 C 0.3902 0.20917 0.4436 0.0
C750 C 0.38903 0.20223 0.48377 0.0
H751 H 0.40372 0.20413 0.68881 0.0
H752 H 0.39032 0.20989 0.62763 0.0
H753 H 0.37381 0.15449 0.53853 0.0
H754 H 0.41067 0.20237 0.35916 0.0
H755 H 0.40047 0.1849 0.4219 0.0
C756 C 0.75948 0.52485 0.1359 0.0
C757 C 0.77808 0.54073 0.15856 0.0
C758 C 0.75744 0.53044 0.09884 0.0
C759 C 0.77745 0.57588 0.02583 0.0
H760 H 0.77324 0.52623 0.96202 0.0
C761 C 0.78508 0.58467 0.86293 0.0
C762 C 0.76991 0.56465 0.84193 0.0
C763 C 0.78734 0.58328 0.90191 0.0
C764 C 0.7741 0.54018 0.97922 0.0
H765 H 0.80814 0.57559 0.16125 0.0
H766 H 0.80435 0.58565 0.0962 0.0
H767 H 0.77231 0.52198 0.02979 0.0
H768 H 0.74587 0.52733 0.84567 0.0
H769 H 0.74931 0.52498 0.91297 0.0
H770 H 0.77872 0.59388 0.97504 0.0
C771 C 0.7913 0.56887 0.10728 0.0
C772 C 0.7736 0.53773 1.0182 0.0
C773 C 0.79332 0.56324 0.14464 0.0
C774 C 0.75771 0.54313 0.86072 0.0
C775 C 0.75982 0.54177 0.89956 0.0
C776 C 0.77765 0.57824 0.98659 0.0
C777 C 0.77407 0.55201 0.08347 0.0
C778 C 0.77498 0.55538 0.04202 0.0
C779 C 0.77445 0.56185 0.92089 0.0
C780 C 0.77571 0.56026 0.96271 0.0
H781 H 0.74765 0.50731 0.14585 0.0
H782 H 0.74372 0.51725 0.08141 0.0
H783 H 0.77864 0.58981 0.04349 0.0
H784 H 0.79476 0.60157 0.84947 0.0
H785 H 0.79909 0.59906 0.91717 0.0
C786 C 0.21733 0.76846 0.63754 0.0
C787 C 0.2253 0.78871 0.65942 0.0
C788 C 0.20864 0.76742 0.60139 0.0
C789 C 0.22246 0.80685 0.52426 0.0
H790 H 0.17346 0.7529 0.47231 0.0
C791 C 0.22908 0.78006 0.3729 0.0
C792 C 0.20937 0.77139 0.34939 0.0
C793 C 0.22799 0.7862 0.41013 0.0
C794 C 0.18699 0.76827 0.48644 0.0
H795 H 0.22953 0.82335 0.66187 0.0
H796 H 0.21458 0.82172 0.5982 0.0
H797 H 0.17381 0.75417 0.54109 0.0
H798 H 0.17391 0.76498 0.34566 0.0
H799 H 0.17168 0.77462 0.4113 0.0
H800 H 0.23653 0.82023 0.46973 0.0
C801 C 0.21465 0.80649 0.60924 0.0
C802 C 0.18723 0.76894 0.52575 0.0
C803 C 0.22292 0.80732 0.64576 0.0
C804 C 0.18911 0.7707 0.36329 0.0
C805 C 0.18786 0.77639 0.40081 0.0
C806 C 0.22245 0.80599 0.48502 0.0
C807 C 0.20835 0.7869 0.58618 0.0
C808 C 0.20528 0.78799 0.54506 0.0
C809 C 0.20712 0.78363 0.42482 0.0
C810 C 0.20504 0.78644 0.46576 0.0
H811 H 0.21953 0.75414 0.64729 0.0
H812 H 0.20414 0.75219 0.58419 0.0
H813 H 0.23677 0.82163 0.53836 0.0
H814 H 0.24508 0.7811 0.36316 0.0
H815 H 0.2431 0.79171 0.42803 0.0
C816 C 0.41507 0.19734 0.87805 0.0
C817 C 0.43309 0.21857 0.86359 0.0
C818 C 0.40919 0.19524 0.91619 0.0
C819 C 0.41411 0.22807 1.00287 0.0
H820 H 0.42216 0.18071 0.05382 0.0
C821 C 0.41613 0.22508 0.1639 0.0
C822 C 0.4379 0.22867 0.17599 0.0
C823 C 0.40854 0.21761 0.12705 0.0
C824 C 0.41947 0.19375 0.03995 0.0
H825 H 0.45728 0.25491 0.87734 0.0
H826 H 0.44648 0.2514 0.94341 0.0
H827 H 0.42154 0.18148 0.98507 0.0
H828 H 0.46786 0.22556 0.16059 0.0
H829 H 0.45416 0.21149 0.097 0.0
H830 H 0.41292 0.24089 0.05767 0.0
C831 C 0.43729 0.23622 0.92538 0.0
C832 C 0.41903 0.19416 1.00065 0.0
C833 C 0.44349 0.23821 0.88744 0.0
C834 C 0.45083 0.22252 0.15206 0.0
C835 C 0.44301 0.21457 0.11561 0.0
C836 C 0.41415 0.22742 0.04215 0.0
C837 C 0.42068 0.21453 0.94043 0.0
C838 C 0.41709 0.21177 0.98172 0.0
C839 C 0.42239 0.21318 0.10212 0.0
C840 C 0.41756 0.21071 0.06109 0.0
H841 H 0.40606 0.18208 0.86025 0.0
H842 H 0.39603 0.1784 0.92692 0.0
H843 H 0.41251 0.24178 0.989 0.0
H844 H 0.4061 0.23018 0.18159 0.0
H845 H 0.39254 0.21662 0.11738 0.0
C846 C 0.23218 0.45066 0.39349 0.0
C847 C 0.22479 0.43005 0.37254 0.0
C848 C 0.22918 0.44979 0.43246 0.0
C849 C 0.19705 0.41047 0.51179 0.0
H850 H 0.24998 0.45585 0.57025 0.0
C851 C 0.19779 0.40522 0.67362 0.0
C852 C 0.20564 0.42638 0.69319 0.0
C853 C 0.20138 0.40517 0.63486 0.0
C854 C 0.23495 0.44317 0.5544 0.0
H855 H 0.20735 0.39222 0.37617 0.0
H856 H 0.20203 0.39071 0.44409 0.0
H857 H 0.25211 0.45688 0.50189 0.0
H858 H 0.22484 0.46412 0.68761 0.0
H859 H 0.23081 0.46406 0.62022 0.0
H860 H 0.17979 0.39687 0.56428 0.0
C861 C 0.21017 0.40758 0.43035 0.0
C862 C 0.23615 0.44379 0.51515 0.0
C863 C 0.21323 0.40845 0.39133 0.0
C864 C 0.21833 0.4475 0.67343 0.0
C865 C 0.2219 0.44746 0.63471 0.0
C866 C 0.19582 0.40987 0.55107 0.0
C867 C 0.21861 0.42828 0.4515 0.0
C868 C 0.21718 0.42753 0.49332 0.0
C869 C 0.21295 0.42628 0.61472 0.0
C870 C 0.21472 0.42628 0.57292 0.0
H871 H 0.24091 0.46758 0.37997 0.0
H872 H 0.23542 0.46604 0.44776 0.0
H873 H 0.18203 0.39782 0.49587 0.0
H874 H 0.18799 0.3886 0.68789 0.0
H875 H 0.19467 0.38855 0.62054 0.0
C876 C 0.78261 0.22996 0.90179 0.0
C877 C 0.78573 0.21471 0.87801 0.0
C878 C 0.77822 0.22519 0.94015 0.0
C879 C 0.78275 0.18885 1.01657 0.0
H880 H 0.74445 0.20808 0.07131 0.0
C881 C 0.74303 0.15401 0.16326 0.0
C882 C 0.74338 0.16994 0.18986 0.0
C883 C 0.75114 0.16121 0.12673 0.0
C884 C 0.75546 0.2029 0.05651 0.0
H885 H 0.78586 0.18201 0.87588 0.0
H886 H 0.77717 0.17309 0.94238 0.0
H887 H 0.75065 0.21572 1.00416 0.0
H888 H 0.75301 0.20605 0.19935 0.0
H889 H 0.76687 0.21866 0.13488 0.0
H890 H 0.78663 0.17514 0.06896 0.0
C891 C 0.77888 0.18921 0.93172 0.0
C892 C 0.75906 0.20728 1.01789 0.0
C893 C 0.78361 0.19416 0.89339 0.0
C894 C 0.75282 0.19348 0.17956 0.0
C895 C 0.7605 0.20061 0.14261 0.0
C896 C 0.77885 0.18417 0.05507 0.0
C897 C 0.77651 0.20485 0.95586 0.0
C898 C 0.77269 0.20023 0.99722 0.0
C899 C 0.75936 0.18443 0.11564 0.0
C900 C 0.7651 0.19107 0.07546 0.0
H901 H 0.78449 0.24614 0.89117 0.0
H902 H 0.77693 0.23793 0.95761 0.0
H903 H 0.79381 0.18362 1.00209 0.0
H904 H 0.73573 0.13573 0.17042 0.0
H905 H 0.74987 0.14829 0.10661 0.0
C906 C 0.58907 0.80181 0.65448 0.0
C907 C 0.57077 0.78176 0.67127 0.0
C908 C 0.58839 0.80624 0.61611 0.0
C909 C 0.54841 0.78733 0.53228 0.0
H910 H 0.60686 0.81702 0.47743 0.0
C911 C 0.55235 0.79705 0.36974 0.0
C912 C 0.56656 0.82025 0.35787 0.0
C913 C 0.55361 0.79073 0.40698 0.0
C914 C 0.59039 0.80867 0.49239 0.0
H915 H 0.53726 0.75076 0.66057 0.0
H916 H 0.53633 0.75803 0.59414 0.0
H917 H 0.60697 0.81005 0.54463 0.0
H918 H 0.5939 0.85471 0.37476 0.0
H919 H 0.59676 0.84354 0.439 0.0
H920 H 0.53191 0.78564 0.47956 0.0
C921 C 0.551 0.7708 0.61051 0.0
C922 C 0.59043 0.80487 0.53108 0.0
C923 C 0.55153 0.76657 0.6489 0.0
C924 C 0.58288 0.83665 0.38314 0.0
C925 C 0.58451 0.83026 0.41992 0.0
C926 C 0.54836 0.79081 0.49347 0.0
C927 C 0.56955 0.79054 0.59332 0.0
C928 C 0.56946 0.79437 0.55179 0.0
C929 C 0.56945 0.80741 0.43263 0.0
C930 C 0.56936 0.80173 0.47314 0.0
H931 H 0.60414 0.81391 0.67085 0.0
H932 H 0.60278 0.82194 0.60435 0.0
H933 H 0.53191 0.77957 0.54705 0.0
H934 H 0.53934 0.78417 0.35102 0.0
H935 H 0.54185 0.77297 0.41598 0.0
C936 C 0.24224 0.53963 0.25835 0.0
C937 C 0.23137 0.51534 0.26358 0.0
C938 C 0.23137 0.55198 0.27027 0.0
C939 C 0.17445 0.54581 0.29097 0.0
H940 H 0.21204 0.60612 0.33909 0.0
C941 C 0.15367 0.62024 0.28594 0.0
C942 C 0.16005 0.63599 0.31627 0.0
C943 C 0.15812 0.60172 0.28692 0.0
C944 C 0.20114 0.58913 0.32635 0.0
H945 H 0.20039 0.48489 0.28479 0.0
H946 H 0.18125 0.50654 0.3055 0.0
H947 H 0.22905 0.58157 0.32603 0.0
H948 H 0.17431 0.64327 0.37275 0.0
H949 H 0.1824 0.611 0.37417 0.0
H950 H 0.14672 0.55371 0.29038 0.0
C951 C 0.19825 0.51597 0.29227 0.0
C952 C 0.21099 0.57521 0.31842 0.0
C953 C 0.20924 0.50362 0.28062 0.0
C954 C 0.16955 0.63174 0.34864 0.0
C955 C 0.17416 0.61325 0.3495 0.0
C956 C 0.16462 0.55982 0.2987 0.0
C957 C 0.20932 0.54032 0.28751 0.0
C958 C 0.19795 0.55369 0.29978 0.0
C959 C 0.16919 0.59853 0.31812 0.0
C960 C 0.17805 0.58188 0.31566 0.0
H961 H 0.25939 0.54922 0.24576 0.0
H962 H 0.24019 0.57069 0.26572 0.0
H963 H 0.16399 0.52931 0.27654 0.0
H964 H 0.14673 0.62308 0.26022 0.0
H965 H 0.15434 0.59089 0.26209 0.0
C966 C 0.70546 0.21205 0.77369 0.0
C967 C 0.71952 0.23337 0.75519 0.0
C968 C 0.68207 0.2047 0.78181 0.0
C969 C 0.63435 0.21619 0.75531 0.0
H970 H 0.60732 0.18708 0.85087 0.0
C971 C 0.55135 0.21164 0.81031 0.0
C972 C 0.53295 0.18928 0.81965 0.0
C973 C 0.57388 0.21549 0.80509 0.0
C974 C 0.61465 0.19502 0.82399 0.0
H975 H 0.72031 0.264 0.73173 0.0
H976 H 0.67993 0.25153 0.74629 0.0
H977 H 0.64715 0.19642 0.83521 0.0
H978 H 0.52401 0.15373 0.83276 0.0
H979 H 0.56383 0.16067 0.82408 0.0
H980 H 0.60221 0.21551 0.74466 0.0
C981 C 0.68658 0.24003 0.75354 0.0
C982 C 0.63738 0.20028 0.8149 0.0
C983 C 0.70979 0.24723 0.74517 0.0
C984 C 0.53785 0.17112 0.82552 0.0
C985 C 0.56058 0.17508 0.82068 0.0
C986 C 0.61186 0.21122 0.76459 0.0
C987 C 0.67236 0.21864 0.77183 0.0
C988 C 0.64763 0.2113 0.78067 0.0
C989 C 0.5786 0.19715 0.80931 0.0
C990 C 0.60194 0.20094 0.79921 0.0
H991 H 0.71251 0.201 0.78157 0.0
H992 H 0.67157 0.18802 0.79557 0.0
H993 H 0.64139 0.22406 0.72828 0.0
H994 H 0.54815 0.22593 0.80495 0.0
H995 H 0.58755 0.23273 0.79667 0.0
C996 C 0.48627 0.72892 0.29014 0.0
C997 C 0.49202 0.73176 0.25172 0.0
C998 C 0.47145 0.70669 0.30494 0.0
C999 C 0.44542 0.6433 0.28413 0.0
H1000 H 0.39602 0.63665 0.3506 0.0
C1001 C 0.37341 0.55239 0.33118 0.0
C1002 C 0.35058 0.54851 0.32759 0.0
C1003 C 0.39258 0.57509 0.33017 0.0
C1004 C 0.40972 0.63821 0.3321 0.0
H1005 H 0.48734 0.71329 0.19914 0.0
H1006 H 0.46113 0.67473 0.22461 0.0
H1007 H 0.4263 0.67553 0.33127 0.0
H1008 H 0.32993 0.56548 0.32168 0.0
H1009 H 0.3632 0.60493 0.31964 0.0
H1010 H 0.42821 0.60599 0.28325 0.0
C1011 C 0.46825 0.68962 0.24347 0.0
C1012 C 0.42724 0.66052 0.32134 0.0
C1013 C 0.48306 0.71179 0.22871 0.0
C1014 C 0.34727 0.56787 0.32506 0.0
C1015 C 0.3664 0.59055 0.32387 0.0
C1016 C 0.42788 0.62101 0.29479 0.0
C1017 C 0.46207 0.6868 0.28168 0.0
C1018 C 0.445 0.6633 0.29653 0.0
C1019 C 0.38932 0.5944 0.32533 0.0
C1020 C 0.40953 0.61815 0.31825 0.0
H1021 H 0.49266 0.74389 0.30866 0.0
H1022 H 0.46721 0.70512 0.33456 0.0
H1023 H 0.45905 0.64483 0.26548 0.0
H1024 H 0.37649 0.5378 0.33364 0.0
H1025 H 0.40997 0.57747 0.33211 0.0
C1026 C 0.81583 0.36581 0.81458 0.0
C1027 C 0.79843 0.34208 0.81286 0.0
C1028 C 0.81046 0.38331 0.80634 0.0
C1029 C 0.76947 0.39191 0.74963 0.0
H1030 H 0.78915 0.44821 0.8084 0.0
C1031 C 0.73387 0.45367 0.71987 0.0
C1032 C 0.74877 0.47784 0.72443 0.0
C1033 C 0.741 0.43794 0.73084 0.0
C1034 C 0.78383 0.43276 0.79134 0.0
H1035 H 0.76166 0.31819 0.80195 0.0
H1036 H 0.75235 0.34864 0.78794 0.0
H1037 H 0.79956 0.41931 0.8291 0.0
H1038 H 0.78299 0.50453 0.74338 0.0
H1039 H 0.79575 0.47707 0.76185 0.0
H1040 H 0.75411 0.40527 0.71151 0.0
C1041 C 0.77012 0.35371 0.79557 0.0
C1042 C 0.78972 0.41619 0.80333 0.0
C1043 C 0.77542 0.33629 0.8041 0.0
C1044 C 0.77109 0.48597 0.73981 0.0
C1045 C 0.77834 0.47022 0.75053 0.0
C1046 C 0.7638 0.40851 0.73747 0.0
C1047 C 0.78766 0.37735 0.79577 0.0
C1048 C 0.78229 0.39545 0.78284 0.0
C1049 C 0.76332 0.44598 0.74634 0.0
C1050 C 0.77061 0.42901 0.7584 0.0
H1051 H 0.8337 0.37078 0.82131 0.0
H1052 H 0.82431 0.40141 0.80665 0.0
H1053 H 0.76394 0.3763 0.73285 0.0
H1054 H 0.71639 0.44682 0.70888 0.0
H1055 H 0.72875 0.41941 0.72793 0.0
C1056 C 0.27377 0.77058 0.2383 0.0
C1057 C 0.26131 0.74805 0.22219 0.0
C1058 C 0.29781 0.78112 0.24494 0.0
C1059 C 0.3418 0.76617 0.26784 0.0
H1060 H 0.38808 0.82602 0.22686 0.0
C1061 C 0.44192 0.81146 0.29846 0.0
C1062 C 0.45465 0.81463 0.26512 0.0
C1063 C 0.41841 0.80557 0.29703 0.0
C1064 C 0.37526 0.80945 0.2389 0.0
H1065 H 0.26536 0.7201 0.19759 0.0
H1066 H 0.30685 0.73815 0.21055 0.0
H1067 H 0.34641 0.81146 0.21546 0.0
H1068 H 0.45187 0.81316 0.20407 0.0
H1069 H 0.41171 0.80431 0.20202 0.0
H1070 H 0.37062 0.76402 0.29094 0.0
C1071 C 0.29778 0.74738 0.21838 0.0
C1072 C 0.35154 0.80117 0.23239 0.0
C1073 C 0.27392 0.73704 0.21107 0.0
C1074 C 0.44319 0.81183 0.23048 0.0
C1075 C 0.42002 0.80655 0.22913 0.0
C1076 C 0.36548 0.77467 0.27502 0.0
C1077 C 0.3098 0.76925 0.23609 0.0
C1078 C 0.33469 0.7792 0.24601 0.0
C1079 C 0.40739 0.80326 0.26229 0.0
C1080 C 0.3824 0.79611 0.25986 0.0
H1081 H 0.26498 0.77982 0.24727 0.0
H1082 H 0.30683 0.79812 0.2584 0.0
H1083 H 0.32903 0.74923 0.2788 0.0
H1084 H 0.45008 0.81358 0.32565 0.0
H1085 H 0.40887 0.80297 0.32299 0.0
C1086 C 0.61577 0.45695 0.78531 0.0
C1087 C 0.63801 0.46005 0.77767 0.0
C1088 C 0.59569 0.43523 0.77898 0.0
C1089 C 0.57303 0.38607 0.71727 0.0
H1090 H 0.53394 0.34555 0.79703 0.0
C1091 C 0.51931 0.2869 0.69989 0.0
C1092 C 0.49951 0.27356 0.72225 0.0
C1093 C 0.53211 0.31119 0.7034 0.0
C1094 C 0.54421 0.3568 0.77419 0.0
H1095 H 0.65671 0.44303 0.75738 0.0
H1096 H 0.62166 0.40535 0.74576 0.0
H1097 H 0.56448 0.38548 0.81171 0.0
H1098 H 0.47639 0.27572 0.7633 0.0
H1099 H 0.49824 0.31815 0.76844 0.0
H1100 H 0.55307 0.35774 0.67959 0.0
C1101 C 0.61983 0.41958 0.75711 0.0
C1102 C 0.56177 0.37961 0.78276 0.0
C1103 C 0.63983 0.44103 0.76413 0.0
C1104 C 0.49162 0.28533 0.74579 0.0
C1105 C 0.50435 0.30972 0.7491 0.0
C1106 C 0.55524 0.36348 0.70856 0.0
C1107 C 0.59763 0.41659 0.76406 0.0
C1108 C 0.57675 0.39409 0.75452 0.0
C1109 C 0.52527 0.32289 0.729 0.0
C1110 C 0.54114 0.34821 0.73709 0.0
H1111 H 0.61395 0.47141 0.79557 0.0
H1112 H 0.57867 0.4332 0.78454 0.0
H1113 H 0.58432 0.39712 0.69503 0.0
H1114 H 0.52561 0.2785 0.68085 0.0
H1115 H 0.54814 0.32056 0.68751 0.0
C1116 C 0.34215 0.78185 0.76853 0.0
C1117 C 0.34477 0.80197 0.75069 0.0
C1118 C 0.36152 0.77938 0.77555 0.0
C1119 C 0.42117 0.79826 0.74626 0.0
H1120 H 0.42602 0.77701 0.84558 0.0
C1121 C 0.4977 0.78408 0.78806 0.0
C1122 C 0.49134 0.76331 0.80773 0.0
C1123 C 0.4816 0.79166 0.78279 0.0
C1124 C 0.42486 0.78281 0.81764 0.0
H1125 H 0.36962 0.83503 0.72538 0.0
H1126 H 0.4037 0.83056 0.73744 0.0
H1127 H 0.39424 0.7844 0.83164 0.0
H1128 H 0.46307 0.73426 0.83729 0.0
H1129 H 0.43508 0.74731 0.82803 0.0
H1130 H 0.45139 0.79596 0.73187 0.0
C1131 C 0.38657 0.81678 0.74599 0.0
C1132 C 0.40668 0.78707 0.80971 0.0
C1133 C 0.36714 0.81937 0.73925 0.0
C1134 C 0.4687 0.75055 0.82264 0.0
C1135 C 0.45262 0.75806 0.8173 0.0
C1136 C 0.43931 0.79383 0.75412 0.0
C1137 C 0.38394 0.79692 0.76477 0.0
C1138 C 0.4044 0.79439 0.77375 0.0
C1139 C 0.4588 0.77859 0.79706 0.0
C1140 C 0.44108 0.78562 0.78972 0.0
H1141 H 0.3252 0.7683 0.77819 0.0
H1142 H 0.35897 0.76376 0.78965 0.0
H1143 H 0.41973 0.80381 0.71826 0.0
H1144 H 0.51511 0.79442 0.77664 0.0
H1145 H 0.48698 0.80772 0.7675 0.0
C1146 C 0.5529 0.35306 0.29325 0.0
C1147 C 0.536 0.35347 0.26993 0.0
C1148 C 0.57395 0.37344 0.30033 0.0
C1149 C 0.61538 0.4296 0.26131 0.0
H1150 H 0.64029 0.44174 0.36269 0.0
C1151 C 0.71079 0.50032 0.29336 0.0
C1152 C 0.72283 0.49204 0.31531 0.0
C1153 C 0.68643 0.48751 0.29052 0.0
C1154 C 0.63356 0.43864 0.33425 0.0
H1155 H 0.52777 0.37549 0.23576 0.0
H1156 H 0.56518 0.41142 0.24764 0.0
H1157 H 0.6 0.41114 0.3516 0.0
H1158 H 0.71836 0.464 0.35233 0.0
H1159 H 0.67628 0.44199 0.3476 0.0
H1160 H 0.64932 0.45627 0.24369 0.0
C1161 C 0.5619 0.3952 0.26049 0.0
C1162 C 0.61052 0.42117 0.32793 0.0
C1163 C 0.54058 0.37474 0.25376 0.0
C1164 C 0.70984 0.47119 0.33558 0.0
C1165 C 0.68557 0.4585 0.33289 0.0
C1166 C 0.63853 0.44704 0.26761 0.0
C1167 C 0.57867 0.39471 0.28411 0.0
C1168 C 0.60148 0.41593 0.29127 0.0
C1169 C 0.6736 0.46627 0.30984 0.0
C1170 C 0.64809 0.45114 0.30401 0.0
H1171 H 0.5497 0.33698 0.30656 0.0
H1172 H 0.5867 0.37249 0.31822 0.0
H1173 H 0.60883 0.42583 0.23277 0.0
H1174 H 0.72017 0.5165 0.27789 0.0
H1175 H 0.67765 0.49406 0.27286 0.0
C1176 C 0.20174 0.55516 0.72928 0.0
C1177 C 0.17967 0.53477 0.73001 0.0
C1178 C 0.20371 0.57721 0.72961 0.0
C1179 C 0.17254 0.60598 0.76386 0.0
H1180 H 0.22077 0.65944 0.71034 0.0
C1181 C 0.2109 0.70145 0.81405 0.0
C1182 C 0.21699 0.71893 0.78685 0.0
C1183 C 0.20256 0.67822 0.80329 0.0
C1184 C 0.20699 0.64466 0.72513 0.0
H1185 H 0.14233 0.52168 0.72905 0.0
H1186 H 0.14584 0.5603 0.73016 0.0
H1187 H 0.21349 0.62031 0.6953 0.0
H1188 H 0.21845 0.72551 0.72689 0.0
H1189 H 0.20365 0.68505 0.70827 0.0
H1190 H 0.1664 0.63042 0.79428 0.0
C1191 C 0.16158 0.5591 0.72975 0.0
C1192 C 0.20297 0.62229 0.71673 0.0
C1193 C 0.1596 0.53701 0.72913 0.0
C1194 C 0.21368 0.71251 0.74866 0.0
C1195 C 0.20546 0.68934 0.73791 0.0
C1196 C 0.17666 0.6284 0.77244 0.0
C1197 C 0.18367 0.57941 0.73088 0.0
C1198 C 0.18599 0.60275 0.73646 0.0
C1199 C 0.20027 0.67203 0.76506 0.0
C1200 C 0.1942 0.64801 0.7536 0.0
H1201 H 0.21759 0.55419 0.73062 0.0
H1202 H 0.22097 0.59252 0.73092 0.0
H1203 H 0.15948 0.59129 0.77979 0.0
H1204 H 0.2131 0.70584 0.84364 0.0
H1205 H 0.19887 0.66531 0.82489 0.0
C1206 C 0.52481 0.24246 0.31477 0.0
C1207 C 0.50043 0.22853 0.31187 0.0
C1208 C 0.53922 0.23365 0.3041 0.0
C1209 C 0.54171 0.18063 0.29805 0.0
H1210 H 0.59601 0.21709 0.23512 0.0
C1211 C 0.62644 0.1777 0.30703 0.0
C1212 C 0.63514 0.17303 0.274 0.0
C1213 C 0.60765 0.18161 0.30574 0.0
C1214 C 0.58072 0.20657 0.2522 0.0
H1215 H 0.47195 0.19455 0.29574 0.0
H1216 H 0.49729 0.17869 0.27821 0.0
H1217 H 0.56724 0.22979 0.24403 0.0
H1218 H 0.63097 0.16952 0.2134 0.0
H1219 H 0.59861 0.17767 0.21119 0.0
H1220 H 0.55595 0.15825 0.30809 0.0
C1221 C 0.50514 0.19653 0.28832 0.0
C1222 C 0.5644 0.21389 0.25751 0.0
C1223 C 0.49071 0.20553 0.29834 0.0
C1224 C 0.62485 0.17312 0.23939 0.0
C1225 C 0.60625 0.1776 0.23807 0.0
C1226 C 0.55824 0.17357 0.29329 0.0
C1227 C 0.52954 0.21061 0.29081 0.0
C1228 C 0.54504 0.20125 0.28114 0.0
C1229 C 0.59738 0.18159 0.27136 0.0
C1230 C 0.5781 0.18676 0.27098 0.0
H1231 H 0.53276 0.26038 0.32447 0.0
H1232 H 0.55797 0.24476 0.30666 0.0
H1233 H 0.527 0.17067 0.31653 0.0
H1234 H 0.63434 0.17875 0.33411 0.0
H1235 H 0.60144 0.18521 0.33168 0.0
C1236 C 0.44094 0.65997 0.74719 0.0
C1237 C 0.45806 0.65452 0.73601 0.0
C1238 C 0.41816 0.64226 0.75449 0.0
C1239 C 0.37489 0.58082 0.73774 0.0
H1240 H 0.34869 0.5868 0.83179 0.0
C1241 C 0.2842 0.50916 0.7912 0.0
C1242 C 0.27012 0.51689 0.80835 0.0
C1243 C 0.30756 0.52499 0.78261 0.0
C1244 C 0.35558 0.58496 0.80521 0.0
H1245 H 0.46445 0.62621 0.72241 0.0
H1246 H 0.42428 0.59507 0.73489 0.0
H1247 H 0.38824 0.61625 0.81446 0.0
H1248 H 0.26939 0.54735 0.82926 0.0
H1249 H 0.30983 0.57494 0.81391 0.0
H1250 H 0.34201 0.5498 0.72802 0.0
C1251 C 0.42868 0.61314 0.73802 0.0
C1252 C 0.37829 0.60182 0.79536 0.0
C1253 C 0.45163 0.63091 0.73104 0.0
C1254 C 0.27989 0.54076 0.81677 0.0
C1255 C 0.30313 0.55659 0.80795 0.0
C1256 C 0.35202 0.56401 0.74743 0.0
C1257 C 0.41188 0.61867 0.75063 0.0
C1258 C 0.38809 0.60008 0.76137 0.0
C1259 C 0.31729 0.54893 0.79077 0.0
C1260 C 0.342 0.56602 0.78113 0.0
H1261 H 0.44537 0.67793 0.75188 0.0
H1262 H 0.40549 0.64703 0.76377 0.0
H1263 H 0.38202 0.57912 0.7113 0.0
H1264 H 0.27718 0.49083 0.78469 0.0
H1265 H 0.31802 0.51842 0.76988 0.0
C1266 C 0.74388 0.27102 0.31328 0.0
C1267 C 0.75288 0.25747 0.2983 0.0
C1268 C 0.75105 0.29329 0.29931 0.0
C1269 C 0.79922 0.34311 0.25338 0.0
H1270 H 0.75279 0.36151 0.23569 0.0
C1271 C 0.81812 0.43849 0.2569 0.0
C1272 C 0.80553 0.44481 0.23242 0.0
C1273 C 0.81396 0.41556 0.2574 0.0
C1274 C 0.76599 0.35661 0.23991 0.0
H1275 H 0.77645 0.25656 0.25698 0.0
H1276 H 0.78935 0.29596 0.23268 0.0
H1277 H 0.74029 0.32099 0.25081 0.0
H1278 H 0.78013 0.43253 0.18722 0.0
H1279 H 0.77278 0.39247 0.18829 0.0
H1280 H 0.82494 0.37899 0.24352 0.0
C1281 C 0.77665 0.28916 0.25519 0.0
C1282 C 0.75882 0.33345 0.24891 0.0
C1283 C 0.76919 0.26664 0.26889 0.0
C1284 C 0.78976 0.42807 0.20691 0.0
C1285 C 0.78558 0.40516 0.20748 0.0
C1286 C 0.80643 0.36641 0.24468 0.0
C1287 C 0.76755 0.30263 0.27023 0.0
C1288 C 0.77533 0.32656 0.25646 0.0
C1289 C 0.79711 0.39849 0.2335 0.0
C1290 C 0.78986 0.37346 0.23846 0.0
H1291 H 0.73108 0.26429 0.33561 0.0
H1292 H 0.74392 0.30338 0.31168 0.0
H1293 H 0.8123 0.33825 0.25923 0.0
H1294 H 0.83022 0.4509 0.27715 0.0
H1295 H 0.82297 0.4109 0.27802 0.0
loop_
_geom_bond_atom_site_label_1
_geom_bond_atom_site_label_2
_geom_bond_distance
_geom_bond_site_symmetry_2
_ccdc_geom_bond_type
C0 C1 1.351 . S
C0 N3 1.368 . S
C0 H5 0.931 . S
C1 C0 1.351 . S
C1 N2 1.373 . S
C1 H29 0.930 . S
N2 C1 1.373 . S
N2 C4 1.340 . S
N3 C0 1.368 . S
N3 C4 1.321 . S
N3 Co6 2.135 . S
C4 N2 1.340 . S
C4 N3 1.321 . S
C4 H28 0.930 . S
H5 C0 0.931 . S
Co6 N3 2.135 . S
Co6 N9 2.121 . S
Co6 O14 2.055 . S
Co6 O17 2.039 . S
Co6 N20 2.140 . S
C7 O8 1.227 . S
C7 O17 1.265 . S
O8 C7 1.227 . S
N9 Co6 2.121 . S
N9 C11 1.375 . S
N9 C12 1.313 . S
C10 C11 1.338 . S
C10 N13 1.377 . S
C10 H30 0.930 . S
C11 N9 1.375 . S
C11 C10 1.338 . S
C11 H15 0.931 . S
C12 N9 1.313 . S
C12 N13 1.344 . S
C12 H16 0.930 . S
N13 C10 1.377 . S
N13 C12 1.344 . S
O14 Co6 2.055 . S
O14 C18 1.253 . S
H15 C11 0.931 . S
H16 C12 0.930 . S
O17 Co6 2.039 . S
O17 C7 1.265 . S
C18 O14 1.253 . S
C18 O19 1.227 . S
O19 C18 1.227 . S
N20 Co6 2.140 . S
N20 C23 1.346 . S
N20 C24 1.345 . S
C21 C22 1.387 . S
C21 C25 1.391 . S
C22 C21 1.387 . S
C22 C23 1.369 . S
C22 H31 0.929 . S
C23 N20 1.346 . S
C23 C22 1.369 . S
C23 H26 0.928 . S
C24 N20 1.345 . S
C24 C25 1.371 . S
C24 H27 0.931 . S
C25 C21 1.391 . S
C25 C24 1.371 . S
C25 H32 0.930 . S
H26 C23 0.928 . S
H27 C24 0.931 . S
H28 C4 0.930 . S
H29 C1 0.930 . S
H30 C10 0.930 . S
H31 C22 0.929 . S
H32 C25 0.930 . S
C33 C34 1.351 . S
C33 N36 1.368 . S
C33 H38 0.931 . S
C34 C33 1.351 . S
C34 N35 1.373 . S
C34 H62 0.930 . S
N35 C34 1.373 . S
N35 C37 1.340 . S
N36 C33 1.368 . S
N36 C37 1.321 . S
N36 Co39 2.135 . S
C37 N35 1.340 . S
C37 N36 1.321 . S
C37 H61 0.930 . S
H38 C33 0.931 . S
Co39 N36 2.135 . S
Co39 N42 2.121 . S
Co39 O47 2.055 . S
Co39 O50 2.039 . S
Co39 N53 2.140 . S
C40 O41 1.227 . S
C40 O50 1.265 . S
O41 C40 1.227 . S
N42 Co39 2.121 . S
N42 C44 1.375 . S
N42 C45 1.313 . S
C43 C44 1.338 . S
C43 N46 1.377 . S
C43 H63 0.930 . S
C44 N42 1.375 . S
C44 C43 1.338 . S
C44 H48 0.931 . S
C45 N42 1.313 . S
C45 N46 1.344 . S
C45 H49 0.930 . S
N46 C43 1.377 . S
N46 C45 1.344 . S
O47 Co39 2.055 . S
O47 C51 1.253 . S
H48 C44 0.931 . S
H49 C45 0.930 . S
O50 Co39 2.039 . S
O50 C40 1.265 . S
C51 O47 1.253 . S
C51 O52 1.227 . S
O52 C51 1.227 . S
N53 Co39 2.140 . S
N53 C56 1.346 . S
N53 C57 1.345 . S
C54 C55 1.387 . S
C54 C58 1.391 . S
C55 C54 1.387 . S
C55 C56 1.369 . S
C55 H64 0.929 . S
C56 N53 1.346 . S
C56 C55 1.369 . S
C56 H59 0.928 . S
C57 N53 1.345 . S
C57 C58 1.371 . S
C57 H60 0.931 . S
C58 C54 1.391 . S
C58 C57 1.371 . S
C58 H65 0.930 . S
H59 C56 0.928 . S
H60 C57 0.931 . S
H61 C37 0.930 . S
H62 C34 0.930 . S
H63 C43 0.930 . S
H64 C55 0.929 . S
H65 C58 0.930 . S
C66 C67 1.351 . S
C66 N69 1.368 . S
C66 H71 0.931 . S
C67 C66 1.351 . S
C67 N68 1.373 . S
C67 H95 0.930 . S
N68 C67 1.373 . S
N68 C70 1.340 . S
N69 C66 1.368 . S
N69 C70 1.321 . S
N69 Co72 2.135 . S
C70 N68 1.340 . S
C70 N69 1.321 . S
C70 H94 0.930 . S
H71 C66 0.931 . S
Co72 N69 2.135 . S
Co72 N75 2.121 . S
Co72 O80 2.055 . S
Co72 O83 2.039 . S
Co72 N86 2.140 . S
C73 O74 1.227 . S
C73 O83 1.265 . S
O74 C73 1.227 . S
N75 Co72 2.121 . S
N75 C77 1.375 . S
N75 C78 1.313 . S
C76 C77 1.338 . S
C76 N79 1.377 . S
C76 H96 0.930 . S
C77 N75 1.375 . S
C77 C76 1.338 . S
C77 H81 0.931 . S
C78 N75 1.313 . S
C78 N79 1.344 . S
C78 H82 0.930 . S
N79 C76 1.377 . S
N79 C78 1.344 . S
O80 Co72 2.055 . S
O80 C84 1.253 . S
H81 C77 0.931 . S
H82 C78 0.930 . S
O83 Co72 2.039 . S
O83 C73 1.265 . S
C84 O80 1.253 . S
C84 O85 1.227 . S
O85 C84 1.227 . S
N86 Co72 2.140 . S
N86 C89 1.346 . S
N86 C90 1.345 . S
C87 C88 1.387 . S
C87 C91 1.391 . S
C88 C87 1.387 . S
C88 C89 1.369 . S
C88 H97 0.929 . S
C89 N86 1.346 . S
C89 C88 1.369 . S
C89 H92 0.928 . S
C90 N86 1.345 . S
C90 C91 1.371 . S
C90 H93 0.931 . S
C91 C87 1.391 . S
C91 C90 1.371 . S
C91 H98 0.930 . S
H92 C89 0.928 . S
H93 C90 0.931 . S
H94 C70 0.930 . S
H95 C67 0.930 . S
H96 C76 0.930 . S
H97 C88 0.929 . S
H98 C91 0.930 . S
C99 C100 1.351 . S
C99 N102 1.368 . S
C99 H104 0.931 . S
C100 C99 1.351 . S
C100 N101 1.373 . S
C100 H128 0.930 . S
N101 C100 1.373 . S
N101 C103 1.340 . S
N102 C99 1.368 . S
N102 C103 1.321 . S
N102 Co105 2.135 . S
C103 N101 1.340 . S
C103 N102 1.321 . S
C103 H127 0.930 . S
H104 C99 0.931 . S
Co105 N102 2.135 . S
Co105 N108 2.121 . S
Co105 O113 2.055 . S
Co105 O116 2.039 . S
Co105 N119 2.140 . S
C106 O107 1.227 . S
C106 O116 1.265 . S
O107 C106 1.227 . S
N108 Co105 2.121 . S
N108 C110 1.375 . S
N108 C111 1.313 . S
C109 C110 1.338 . S
C109 N112 1.377 . S
C109 H129 0.930 . S
C110 N108 1.375 . S
C110 C109 1.338 . S
C110 H114 0.931 . S
C111 N108 1.313 . S
C111 N112 1.344 . S
C111 H115 0.930 . S
N112 C109 1.377 . S
N112 C111 1.344 . S
O113 Co105 2.055 . S
O113 C117 1.253 . S
H114 C110 0.931 . S
H115 C111 0.930 . S
O116 Co105 2.039 . S
O116 C106 1.265 . S
C117 O113 1.253 . S
C117 O118 1.227 . S
O118 C117 1.227 . S
N119 Co105 2.140 . S
N119 C122 1.346 . S
N119 C123 1.345 . S
C120 C121 1.387 . S
C120 C124 1.391 . S
C121 C120 1.387 . S
C121 C122 1.369 . S
C121 H130 0.929 . S
C122 N119 1.346 . S
C122 C121 1.369 . S
C122 H125 0.928 . S
C123 N119 1.345 . S
C123 C124 1.371 . S
C123 H126 0.931 . S
C124 C120 1.391 . S
C124 C123 1.371 . S
C124 H131 0.930 . S
H125 C122 0.928 . S
H126 C123 0.931 . S
H127 C103 0.930 . S
H128 C100 0.930 . S
H129 C109 0.930 . S
H130 C121 0.929 . S
H131 C124 0.930 . S
C132 C133 1.351 . S
C132 N135 1.368 . S
C132 H137 0.931 . S
C133 C132 1.351 . S
C133 N134 1.373 . S
C133 H161 0.930 . S
N134 C133 1.373 . S
N134 C136 1.340 . S
N135 C132 1.368 . S
N135 C136 1.321 . S
N135 Co138 2.135 . S
C136 N134 1.340 . S
C136 N135 1.321 . S
C136 H160 0.930 . S
H137 C132 0.931 . S
Co138 N135 2.135 . S
Co138 N141 2.121 . S
Co138 O146 2.055 . S
Co138 O149 2.039 . S
Co138 N152 2.140 . S
C139 O140 1.227 . S
C139 O149 1.265 . S
O140 C139 1.227 . S
N141 Co138 2.121 . S
N141 C143 1.375 . S
N141 C144 1.313 . S
C142 C143 1.338 . S
C142 N145 1.377 . S
C142 H162 0.930 . S
C143 N141 1.375 . S
C143 C142 1.338 . S
C143 H147 0.931 . S
C144 N141 1.313 . S
C144 N145 1.344 . S
C144 H148 0.930 . S
N145 C142 1.377 . S
N145 C144 1.344 . S
O146 Co138 2.055 . S
O146 C150 1.253 . S
H147 C143 0.931 . S
H148 C144 0.930 . S
O149 Co138 2.039 . S
O149 C139 1.265 . S
C150 O146 1.253 . S
C150 O151 1.227 . S
O151 C150 1.227 . S
N152 Co138 2.140 . S
N152 C155 1.346 . S
N152 C156 1.345 . S
C153 C154 1.387 . S
C153 C157 1.391 . S
C154 C153 1.387 . S
C154 C155 1.369 . S
C154 H163 0.929 . S
C155 N152 1.346 . S
C155 C154 1.369 . S
C155 H158 0.928 . S
C156 N152 1.345 . S
C156 C157 1.371 . S
C156 H159 0.931 . S
C157 C153 1.391 . S
C157 C156 1.371 . S
C157 H164 0.930 . S
H158 C155 0.928 . S
H159 C156 0.931 . S
H160 C136 0.930 . S
H161 C133 0.930 . S
H162 C142 0.930 . S
H163 C154 0.929 . S
H164 C157 0.930 . S
C165 C166 1.351 . S
C165 N168 1.368 . S
C165 H170 0.931 . S
C166 C165 1.351 . S
C166 N167 1.373 . S
C166 H194 0.930 . S
N167 C166 1.373 . S
N167 C169 1.340 . S
N168 C165 1.368 . S
N168 C169 1.321 . S
N168 Co171 2.135 . S
C169 N167 1.340 . S
C169 N168 1.321 . S
C169 H193 0.930 . S
H170 C165 0.931 . S
Co171 N168 2.135 . S
Co171 N174 2.121 . S
Co171 O179 2.055 . S
Co171 O182 2.039 . S
Co171 N185 2.140 . S
C172 O173 1.227 . S
C172 O182 1.265 . S
O173 C172 1.227 . S
N174 Co171 2.121 . S
N174 C176 1.375 . S
N174 C177 1.313 . S
C175 C176 1.338 . S
C175 N178 1.377 . S
C175 H195 0.930 . S
C176 N174 1.375 . S
C176 C175 1.338 . S
C176 H180 0.931 . S
C177 N174 1.313 . S
C177 N178 1.344 . S
C177 H181 0.930 . S
N178 C175 1.377 . S
N178 C177 1.344 . S
O179 Co171 2.055 . S
O179 C183 1.253 . S
H180 C176 0.931 . S
H181 C177 0.930 . S
O182 Co171 2.039 . S
O182 C172 1.265 . S
C183 O179 1.253 . S
C183 O184 1.227 . S
O184 C183 1.227 . S
N185 Co171 2.140 . S
N185 C188 1.346 . S
N185 C189 1.345 . S
C186 C187 1.387 . S
C186 C190 1.391 . S
C187 C186 1.387 . S
C187 C188 1.369 . S
C187 H196 0.929 . S
C188 N185 1.346 . S
C188 C187 1.369 . S
C188 H191 0.928 . S
C189 N185 1.345 . S
C189 C190 1.371 . S
C189 H192 0.931 . S
C190 C186 1.391 . S
C190 C189 1.371 . S
C190 H197 0.930 . S
H191 C188 0.928 . S
H192 C189 0.931 . S
H193 C169 0.930 . S
H194 C166 0.930 . S
H195 C175 0.930 . S
H196 C187 0.929 . S
H197 C190 0.930 . S
C198 C199 1.351 . S
C198 N201 1.368 . S
C198 H203 0.931 . S
C199 C198 1.351 . S
C199 N200 1.373 . S
C199 H227 0.930 . S
N200 C199 1.373 . S
N200 C202 1.340 . S
N201 C198 1.368 . S
N201 C202 1.321 . S
N201 Co204 2.135 . S
C202 N200 1.340 . S
C202 N201 1.321 . S
C202 H226 0.930 . S
H203 C198 0.931 . S
Co204 N201 2.135 . S
Co204 N207 2.121 . S
Co204 O212 2.055 . S
Co204 O215 2.039 . S
Co204 N218 2.140 . S
C205 O206 1.227 . S
C205 O215 1.265 . S
O206 C205 1.227 . S
N207 Co204 2.121 . S
N207 C209 1.375 . S
N207 C210 1.313 . S
C208 C209 1.338 . S
C208 N211 1.377 . S
C208 H228 0.930 . S
C209 N207 1.375 . S
C209 C208 1.338 . S
C209 H213 0.931 . S
C210 N207 1.313 . S
C210 N211 1.344 . S
C210 H214 0.930 . S
N211 C208 1.377 . S
N211 C210 1.344 . S
O212 Co204 2.055 . S
O212 C216 1.253 . S
H213 C209 0.931 . S
H214 C210 0.930 . S
O215 Co204 2.039 . S
O215 C205 1.265 . S
C216 O212 1.253 . S
C216 O217 1.227 . S
O217 C216 1.227 . S
N218 Co204 2.140 . S
N218 C221 1.346 . S
N218 C222 1.345 . S
C219 C220 1.387 . S
C219 C223 1.391 . S
C220 C219 1.387 . S
C220 C221 1.369 . S
C220 H229 0.929 . S
C221 N218 1.346 . S
C221 C220 1.369 . S
C221 H224 0.928 . S
C222 N218 1.345 . S
C222 C223 1.371 . S
C222 H225 0.931 . S
C223 C219 1.391 . S
C223 C222 1.371 . S
C223 H230 0.930 . S
H224 C221 0.928 . S
H225 C222 0.931 . S
H226 C202 0.930 . S
H227 C199 0.930 . S
H228 C208 0.930 . S
H229 C220 0.929 . S
H230 C223 0.930 . S
C231 C232 1.351 . S
C231 N234 1.368 . S
C231 H236 0.931 . S
C232 C231 1.351 . S
C232 N233 1.373 . S
C232 H260 0.930 . S
N233 C232 1.373 . S
N233 C235 1.340 . S
N234 C231 1.368 . S
N234 C235 1.321 . S
N234 Co237 2.135 . S
C235 N233 1.340 . S
C235 N234 1.321 . S
C235 H259 0.930 . S
H236 C231 0.931 . S
Co237 N234 2.135 . S
Co237 N240 2.121 . S
Co237 O245 2.055 . S
Co237 O248 2.039 . S
Co237 N251 2.140 . S
C238 O239 1.227 . S
C238 O248 1.265 . S
O239 C238 1.227 . S
N240 Co237 2.121 . S
N240 C242 1.375 . S
N240 C243 1.313 . S
C241 C242 1.338 . S
C241 N244 1.377 . S
C241 H261 0.930 . S
C242 N240 1.375 . S
C242 C241 1.338 . S
C242 H246 0.931 . S
C243 N240 1.313 . S
C243 N244 1.344 . S
C243 H247 0.930 . S
N244 C241 1.377 . S
N244 C243 1.344 . S
O245 Co237 2.055 . S
O245 C249 1.253 . S
H246 C242 0.931 . S
H247 C243 0.930 . S
O248 Co237 2.039 . S
O248 C238 1.265 . S
C249 O245 1.253 . S
C249 O250 1.227 . S
O250 C249 1.227 . S
N251 Co237 2.140 . S
N251 C254 1.346 . S
N251 C255 1.345 . S
C252 C253 1.387 . S
C252 C256 1.391 . S
C253 C252 1.387 . S
C253 C254 1.369 . S
C253 H262 0.929 . S
C254 N251 1.346 . S
C254 C253 1.369 . S
C254 H257 0.928 . S
C255 N251 1.345 . S
C255 C256 1.371 . S
C255 H258 0.931 . S
C256 C252 1.391 . S
C256 C255 1.371 . S
C256 H263 0.930 . S
H257 C254 0.928 . S
H258 C255 0.931 . S
H259 C235 0.930 . S
H260 C232 0.930 . S
H261 C241 0.930 . S
H262 C253 0.929 . S
H263 C256 0.930 . S
C264 C265 1.351 . S
C264 N267 1.368 . S
C264 H269 0.931 . S
C265 C264 1.351 . S
C265 N266 1.373 . S
C265 H293 0.930 . S
N266 C265 1.373 . S
N266 C268 1.340 . S
N267 C264 1.368 . S
N267 C268 1.321 . S
N267 Co270 2.135 . S
C268 N266 1.340 . S
C268 N267 1.321 . S
C268 H292 0.930 . S
H269 C264 0.931 . S
Co270 N267 2.135 . S
Co270 N273 2.121 . S
Co270 O278 2.055 . S
Co270 O281 2.039 . S
Co270 N284 2.140 . S
C271 O272 1.227 . S
C271 O281 1.265 . S
O272 C271 1.227 . S
N273 Co270 2.121 . S
N273 C275 1.375 . S
N273 C276 1.313 . S
C274 C275 1.338 . S
C274 N277 1.377 . S
C274 H294 0.930 . S
C275 N273 1.375 . S
C275 C274 1.338 . S
C275 H279 0.931 . S
C276 N273 1.313 . S
C276 N277 1.344 . S
C276 H280 0.930 . S
N277 C274 1.377 . S
N277 C276 1.344 . S
O278 Co270 2.055 . S
O278 C282 1.253 . S
H279 C275 0.931 . S
H280 C276 0.930 . S
O281 Co270 2.039 . S
O281 C271 1.265 . S
C282 O278 1.253 . S
C282 O283 1.227 . S
O283 C282 1.227 . S
N284 Co270 2.140 . S
N284 C287 1.346 . S
N284 C288 1.345 . S
C285 C286 1.387 . S
C285 C289 1.391 . S
C286 C285 1.387 . S
C286 C287 1.369 . S
C286 H295 0.929 . S
C287 N284 1.346 . S
C287 C286 1.369 . S
C287 H290 0.928 . S
C288 N284 1.345 . S
C288 C289 1.371 . S
C288 H291 0.931 . S
C289 C285 1.391 . S
C289 C288 1.371 . S
C289 H296 0.930 . S
H290 C287 0.928 . S
H291 C288 0.931 . S
H292 C268 0.930 . S
H293 C265 0.930 . S
H294 C274 0.930 . S
H295 C286 0.929 . S
H296 C289 0.930 . S
C297 C298 1.351 . S
C297 N300 1.368 . S
C297 H302 0.931 . S
C298 C297 1.351 . S
C298 N299 1.373 . S
C298 H326 0.930 . S
N299 C298 1.373 . S
N299 C301 1.340 . S
N300 C297 1.368 . S
N300 C301 1.321 . S
N300 Co303 2.135 . S
C301 N299 1.340 . S
C301 N300 1.321 . S
C301 H325 0.930 . S
H302 C297 0.931 . S
Co303 N300 2.135 . S
Co303 N306 2.121 . S
Co303 O311 2.055 . S
Co303 O314 2.039 . S
Co303 N317 2.140 . S
C304 O305 1.227 . S
C304 O314 1.265 . S
O305 C304 1.227 . S
N306 Co303 2.121 . S
N306 C308 1.375 . S
N306 C309 1.313 . S
C307 C308 1.338 . S
C307 N310 1.377 . S
C307 H327 0.930 . S
C308 N306 1.375 . S
C308 C307 1.338 . S
C308 H312 0.931 . S
C309 N306 1.313 . S
C309 N310 1.344 . S
C309 H313 0.930 . S
N310 C307 1.377 . S
N310 C309 1.344 . S
O311 Co303 2.055 . S
O311 C315 1.253 . S
H312 C308 0.931 . S
H313 C309 0.930 . S
O314 Co303 2.039 . S
O314 C304 1.265 . S
C315 O311 1.253 . S
C315 O316 1.227 . S
O316 C315 1.227 . S
N317 Co303 2.140 . S
N317 C320 1.346 . S
N317 C321 1.345 . S
C318 C319 1.387 . S
C318 C322 1.391 . S
C319 C318 1.387 . S
C319 C320 1.369 . S
C319 H328 0.929 . S
C320 N317 1.346 . S
C320 C319 1.369 . S
C320 H323 0.928 . S
C321 N317 1.345 . S
C321 C322 1.371 . S
C321 H324 0.931 . S
C322 C318 1.391 . S
C322 C321 1.371 . S
C322 H329 0.930 . S
H323 C320 0.928 . S
H324 C321 0.931 . S
H325 C301 0.930 . S
H326 C298 0.930 . S
H327 C307 0.930 . S
H328 C319 0.929 . S
H329 C322 0.930 . S
C330 C331 1.351 . S
C330 N333 1.368 . S
C330 H335 0.931 . S
C331 C330 1.351 . S
C331 N332 1.373 . S
C331 H359 0.930 . S
N332 C331 1.373 . S
N332 C334 1.340 . S
N333 C330 1.368 . S
N333 C334 1.321 . S
N333 Co336 2.135 . S
C334 N332 1.340 . S
C334 N333 1.321 . S
C334 H358 0.930 . S
H335 C330 0.931 . S
Co336 N333 2.135 . S
Co336 N339 2.121 . S
Co336 O344 2.055 . S
Co336 O347 2.039 . S
Co336 N350 2.140 . S
C337 O338 1.227 . S
C337 O347 1.265 . S
O338 C337 1.227 . S
N339 Co336 2.121 . S
N339 C341 1.375 . S
N339 C342 1.313 . S
C340 C341 1.338 . S
C340 N343 1.377 . S
C340 H360 0.930 . S
C341 N339 1.375 . S
C341 C340 1.338 . S
C341 H345 0.931 . S
C342 N339 1.313 . S
C342 N343 1.344 . S
C342 H346 0.930 . S
N343 C340 1.377 . S
N343 C342 1.344 . S
O344 Co336 2.055 . S
O344 C348 1.253 . S
H345 C341 0.931 . S
H346 C342 0.930 . S
O347 Co336 2.039 . S
O347 C337 1.265 . S
C348 O344 1.253 . S
C348 O349 1.227 . S
O349 C348 1.227 . S
N350 Co336 2.140 . S
N350 C353 1.346 . S
N350 C354 1.345 . S
C351 C352 1.387 . S
C351 C355 1.391 . S
C352 C351 1.387 . S
C352 C353 1.369 . S
C352 H361 0.929 . S
C353 N350 1.346 . S
C353 C352 1.369 . S
C353 H356 0.928 . S
C354 N350 1.345 . S
C354 C355 1.371 . S
C354 H357 0.931 . S
C355 C351 1.391 . S
C355 C354 1.371 . S
C355 H362 0.930 . S
H356 C353 0.928 . S
H357 C354 0.931 . S
H358 C334 0.930 . S
H359 C331 0.930 . S
H360 C340 0.930 . S
H361 C352 0.929 . S
H362 C355 0.930 . S
C363 C364 1.351 . S
C363 N366 1.368 . S
C363 H368 0.931 . S
C364 C363 1.351 . S
C364 N365 1.373 . S
C364 H392 0.930 . S
N365 C364 1.373 . S
N365 C367 1.340 . S
N366 C363 1.368 . S
N366 C367 1.321 . S
N366 Co369 2.135 . S
C367 N365 1.340 . S
C367 N366 1.321 . S
C367 H391 0.930 . S
H368 C363 0.931 . S
Co369 N366 2.135 . S
Co369 N372 2.121 . S
Co369 O377 2.055 . S
Co369 O380 2.039 . S
Co369 N383 2.140 . S
C370 O371 1.227 . S
C370 O380 1.265 . S
O371 C370 1.227 . S
N372 Co369 2.121 . S
N372 C374 1.375 . S
N372 C375 1.313 . S
C373 C374 1.338 . S
C373 N376 1.377 . S
C373 H393 0.930 . S
C374 N372 1.375 . S
C374 C373 1.338 . S
C374 H378 0.931 . S
C375 N372 1.313 . S
C375 N376 1.344 . S
C375 H379 0.930 . S
N376 C373 1.377 . S
N376 C375 1.344 . S
O377 Co369 2.055 . S
O377 C381 1.253 . S
H378 C374 0.931 . S
H379 C375 0.930 . S
O380 Co369 2.039 . S
O380 C370 1.265 . S
C381 O377 1.253 . S
C381 O382 1.227 . S
O382 C381 1.227 . S
N383 Co369 2.140 . S
N383 C386 1.346 . S
N383 C387 1.345 . S
C384 C385 1.387 . S
C384 C388 1.391 . S
C385 C384 1.387 . S
C385 C386 1.369 . S
C385 H394 0.929 . S
C386 N383 1.346 . S
C386 C385 1.369 . S
C386 H389 0.928 . S
C387 N383 1.345 . S
C387 C388 1.371 . S
C387 H390 0.931 . S
C388 C384 1.391 . S
C388 C387 1.371 . S
C388 H395 0.930 . S
H389 C386 0.928 . S
H390 C387 0.931 . S
H391 C367 0.930 . S
H392 C364 0.930 . S
H393 C373 0.930 . S
H394 C385 0.929 . S
H395 C388 0.930 . S
C396 C397 1.349 . S
C396 C398 1.327 . S
C396 H421 0.950 . S
C397 C396 1.349 . S
C397 C413 1.349 . S
C398 C396 1.327 . S
C398 C417 1.429 . S
C398 H422 0.950 . S
C399 C416 1.574 . S
C399 C418 1.368 . S
C399 H423 0.949 . S
H400 C404 0.949 . S
C401 C402 1.349 . S
C401 C403 1.327 . S
C401 H424 0.950 . S
C402 C401 1.349 . S
C402 C414 1.349 . S
C403 C401 1.327 . S
C403 C419 1.429 . S
C403 H425 0.950 . S
C404 H400 0.949 . S
C404 C412 1.574 . S
C404 C420 1.368 . S
H405 C413 0.950 . S
H406 C411 0.950 . S
H407 C412 0.949 . S
H408 C414 0.950 . S
H409 C415 0.950 . S
H410 C416 0.949 . S
C411 H406 0.950 . S
C411 C413 1.327 . S
C411 C417 1.429 . S
C412 C404 1.574 . S
C412 H407 0.949 . S
C412 C418 1.368 . S
C413 C397 1.349 . S
C413 H405 0.950 . S
C413 C411 1.327 . S
C414 C402 1.349 . S
C414 H408 0.950 . S
C414 C415 1.327 . S
C415 H409 0.950 . S
C415 C414 1.327 . S
C415 C419 1.429 . S
C416 C399 1.574 . S
C416 H410 0.949 . S
C416 C420 1.368 . S
C417 C398 1.429 . S
C417 C411 1.429 . S
C417 C418 1.523 . S
C418 C399 1.368 . S
C418 C412 1.368 . S
C418 C417 1.523 . S
C419 C403 1.429 . S
C419 C415 1.429 . S
C419 C420 1.523 . S
C420 C404 1.368 . S
C420 C416 1.368 . S
C420 C419 1.523 . S
H421 C396 0.950 . S
H422 C398 0.950 . S
H423 C399 0.949 . S
H424 C401 0.950 . S
H425 C403 0.950 . S
C426 C427 1.349 . S
C426 C428 1.327 . S
C426 H451 0.950 . S
C427 C426 1.349 . S
C427 C443 1.349 . S
C428 C426 1.327 . S
C428 C447 1.429 . S
C428 H452 0.950 . S
C429 C446 1.574 1_655 S
C429 C448 1.368 . S
C429 H453 0.949 . S
H430 C434 0.949 . S
C431 C432 1.349 . S
C431 C433 1.327 . S
C431 H454 0.950 . S
C432 C431 1.349 . S
C432 C444 1.349 . S
C433 C431 1.327 . S
C433 C449 1.429 . S
C433 H455 0.950 . S
C434 H430 0.949 . S
C434 C442 1.574 1_455 S
C434 C450 1.368 . S
H435 C443 0.950 . S
H436 C441 0.950 . S
H437 C442 0.949 . S
H438 C444 0.950 . S
H439 C445 0.950 . S
H440 C446 0.949 . S
C441 H436 0.950 . S
C441 C443 1.327 . S
C441 C447 1.429 . S
C442 C434 1.574 1_655 S
C442 H437 0.949 . S
C442 C448 1.368 . S
C443 C427 1.349 . S
C443 H435 0.950 . S
C443 C441 1.327 . S
C444 C432 1.349 . S
C444 H438 0.950 . S
C444 C445 1.327 . S
C445 H439 0.950 . S
C445 C444 1.327 . S
C445 C449 1.429 . S
C446 C429 1.574 1_455 S
C446 H440 0.949 . S
C446 C450 1.368 . S
C447 C428 1.429 . S
C447 C441 1.429 . S
C447 C448 1.523 . S
C448 C429 1.368 . S
C448 C442 1.368 . S
C448 C447 1.523 . S
C449 C433 1.429 . S
C449 C445 1.429 . S
C449 C450 1.523 . S
C450 C434 1.368 . S
C450 C446 1.368 . S
C450 C449 1.523 . S
H451 C426 0.950 . S
H452 C428 0.950 . S
H453 C429 0.949 . S
H454 C431 0.950 . S
H455 C433 0.950 . S
C456 C457 1.349 . S
C456 C458 1.327 . S
C456 H481 0.950 . S
C457 C456 1.349 . S
C457 C473 1.349 . S
C458 C456 1.327 . S
C458 C477 1.429 . S
C458 H482 0.950 . S
C459 C476 1.574 1_545 S
C459 C478 1.368 . S
C459 H483 0.949 . S
H460 C464 0.949 . S
C461 C462 1.349 . S
C461 C463 1.327 . S
C461 H484 0.950 . S
C462 C461 1.349 . S
C462 C474 1.349 . S
C463 C461 1.327 . S
C463 C479 1.429 . S
C463 H485 0.950 . S
C464 H460 0.949 . S
C464 C472 1.574 1_565 S
C464 C480 1.368 . S
H465 C473 0.950 . S
H466 C471 0.950 . S
H467 C472 0.949 . S
H468 C474 0.950 . S
H469 C475 0.950 . S
H470 C476 0.949 . S
C471 H466 0.950 . S
C471 C473 1.327 . S
C471 C477 1.429 . S
C472 C464 1.574 1_545 S
C472 H467 0.949 . S
C472 C478 1.368 . S
C473 C457 1.349 . S
C473 H465 0.950 . S
C473 C471 1.327 . S
C474 C462 1.349 . S
C474 H468 0.950 . S
C474 C475 1.327 . S
C475 H469 0.950 . S
C475 C474 1.327 . S
C475 C479 1.429 . S
C476 C459 1.574 1_565 S
C476 H470 0.949 . S
C476 C480 1.368 . S
C477 C458 1.429 . S
C477 C471 1.429 . S
C477 C478 1.523 . S
C478 C459 1.368 . S
C478 C472 1.368 . S
C478 C477 1.523 . S
C479 C463 1.429 . S
C479 C475 1.429 . S
C479 C480 1.523 . S
C480 C464 1.368 . S
C480 C476 1.368 . S
C480 C479 1.523 . S
H481 C456 0.950 . S
H482 C458 0.950 . S
H483 C459 0.949 . S
H484 C461 0.950 . S
H485 C463 0.950 . S
C486 C487 1.349 . S
C486 C488 1.327 . S
C486 H511 0.950 . S
C487 C486 1.349 . S
C487 C503 1.349 . S
C488 C486 1.327 . S
C488 C507 1.429 . S
C488 H512 0.950 . S
C489 C506 1.574 . S
C489 C508 1.368 . S
C489 H513 0.949 . S
H490 C494 0.949 . S
C491 C492 1.349 . S
C491 C493 1.327 . S
C491 H514 0.950 . S
C492 C491 1.349 . S
C492 C504 1.349 . S
C493 C491 1.327 . S
C493 C509 1.429 . S
C493 H515 0.950 . S
C494 H490 0.949 . S
C494 C502 1.574 . S
C494 C510 1.368 . S
H495 C503 0.950 . S
H496 C501 0.950 . S
H497 C502 0.949 . S
H498 C504 0.950 . S
H499 C505 0.950 . S
H500 C506 0.949 . S
C501 H496 0.950 . S
C501 C503 1.327 . S
C501 C507 1.429 . S
C502 C494 1.574 . S
C502 H497 0.949 . S
C502 C508 1.368 . S
C503 C487 1.349 . S
C503 H495 0.950 . S
C503 C501 1.327 . S
C504 C492 1.349 . S
C504 H498 0.950 . S
C504 C505 1.327 . S
C505 H499 0.950 . S
C505 C504 1.327 . S
C505 C509 1.429 . S
C506 C489 1.574 . S
C506 H500 0.949 . S
C506 C510 1.368 . S
C507 C488 1.429 . S
C507 C501 1.429 . S
C507 C508 1.523 . S
C508 C489 1.368 . S
C508 C502 1.368 . S
C508 C507 1.523 . S
C509 C493 1.429 . S
C509 C505 1.429 . S
C509 C510 1.523 . S
C510 C494 1.368 . S
C510 C506 1.368 . S
C510 C509 1.523 . S
H511 C486 0.950 . S
H512 C488 0.950 . S
H513 C489 0.949 . S
H514 C491 0.950 . S
H515 C493 0.950 . S
C516 C517 1.349 . S
C516 C518 1.327 . S
C516 H541 0.950 . S
C517 C516 1.349 . S
C517 C533 1.349 . S
C518 C516 1.327 . S
C518 C537 1.429 . S
C518 H542 0.950 . S
C519 C536 1.574 1_455 S
C519 C538 1.368 . S
C519 H543 0.949 . S
H520 C524 0.949 . S
C521 C522 1.349 . S
C521 C523 1.327 . S
C521 H544 0.950 . S
C522 C521 1.349 . S
C522 C534 1.349 . S
C523 C521 1.327 . S
C523 C539 1.429 . S
C523 H545 0.950 . S
C524 H520 0.949 . S
C524 C532 1.574 1_655 S
C524 C540 1.368 . S
H525 C533 0.950 . S
H526 C531 0.950 . S
H527 C532 0.949 . S
H528 C534 0.950 . S
H529 C535 0.950 . S
H530 C536 0.949 . S
C531 H526 0.950 . S
C531 C533 1.327 . S
C531 C537 1.429 . S
C532 C524 1.574 1_455 S
C532 H527 0.949 . S
C532 C538 1.368 . S
C533 C517 1.349 . S
C533 H525 0.950 . S
C533 C531 1.327 . S
C534 C522 1.349 . S
C534 H528 0.950 . S
C534 C535 1.327 . S
C535 H529 0.950 . S
C535 C534 1.327 . S
C535 C539 1.429 . S
C536 C519 1.574 1_655 S
C536 H530 0.949 . S
C536 C540 1.368 . S
C537 C518 1.429 . S
C537 C531 1.429 . S
C537 C538 1.523 . S
C538 C519 1.368 . S
C538 C532 1.368 . S
C538 C537 1.523 . S
C539 C523 1.429 . S
C539 C535 1.429 . S
C539 C540 1.523 . S
C540 C524 1.368 . S
C540 C536 1.368 . S
C540 C539 1.523 . S
H541 C516 0.950 . S
H542 C518 0.950 . S
H543 C519 0.949 . S
H544 C521 0.950 . S
H545 C523 0.950 . S
C546 C547 1.349 . S
C546 C548 1.327 . S
C546 H571 0.950 . S
C547 C546 1.349 . S
C547 C563 1.349 . S
C548 C546 1.327 . S
C548 C567 1.429 . S
C548 H572 0.950 . S
C549 C566 1.574 1_565 S
C549 C568 1.368 . S
C549 H573 0.949 . S
H550 C554 0.949 . S
C551 C552 1.349 . S
C551 C553 1.327 . S
C551 H574 0.950 . S
C552 C551 1.349 . S
C552 C564 1.349 . S
C553 C551 1.327 . S
C553 C569 1.429 . S
C553 H575 0.950 . S
C554 H550 0.949 . S
C554 C562 1.574 1_545 S
C554 C570 1.368 . S
H555 C563 0.950 . S
H556 C561 0.950 . S
H557 C562 0.949 . S
H558 C564 0.950 . S
H559 C565 0.950 . S
H560 C566 0.949 . S
C561 H556 0.950 . S
C561 C563 1.327 . S
C561 C567 1.429 . S
C562 C554 1.574 1_565 S
C562 H557 0.949 . S
C562 C568 1.368 . S
C563 C547 1.349 . S
C563 H555 0.950 . S
C563 C561 1.327 . S
C564 C552 1.349 . S
C564 H558 0.950 . S
C564 C565 1.327 . S
C565 H559 0.950 . S
C565 C564 1.327 . S
C565 C569 1.429 . S
C566 C549 1.574 1_545 S
C566 H560 0.949 . S
C566 C570 1.368 . S
C567 C548 1.429 . S
C567 C561 1.429 . S
C567 C568 1.523 . S
C568 C549 1.368 . S
C568 C562 1.368 . S
C568 C567 1.523 . S
C569 C553 1.429 . S
C569 C565 1.429 . S
C569 C570 1.523 . S
C570 C554 1.368 . S
C570 C566 1.368 . S
C570 C569 1.523 . S
H571 C546 0.950 . S
H572 C548 0.950 . S
H573 C549 0.949 . S
H574 C551 0.950 . S
H575 C553 0.950 . S
C576 C577 1.349 . S
C576 C578 1.327 . S
C576 H601 0.950 . S
C577 C576 1.349 . S
C577 C593 1.349 . S
C578 C576 1.327 . S
C578 C597 1.429 . S
C578 H602 0.950 . S
C579 C596 1.574 1_556 S
C579 C598 1.368 . S
C579 H603 0.949 . S
H580 C584 0.949 . S
C581 C582 1.349 . S
C581 C583 1.327 . S
C581 H604 0.950 . S
C582 C581 1.349 . S
C582 C594 1.349 . S
C583 C581 1.327 . S
C583 C599 1.429 . S
C583 H605 0.950 . S
C584 H580 0.949 . S
C584 C592 1.574 1_554 S
C584 C600 1.368 . S
H585 C593 0.950 . S
H586 C591 0.950 . S
H587 C592 0.949 . S
H588 C594 0.950 . S
H589 C595 0.950 . S
H590 C596 0.949 . S
C591 H586 0.950 . S
C591 C593 1.327 . S
C591 C597 1.429 . S
C592 C584 1.574 1_556 S
C592 H587 0.949 . S
C592 C598 1.368 . S
C593 C577 1.349 . S
C593 H585 0.950 . S
C593 C591 1.327 . S
C594 C582 1.349 . S
C594 H588 0.950 . S
C594 C595 1.327 . S
C595 H589 0.950 . S
C595 C594 1.327 . S
C595 C599 1.429 . S
C596 C579 1.574 1_554 S
C596 H590 0.949 . S
C596 C600 1.368 . S
C597 C578 1.429 . S
C597 C591 1.429 . S
C597 C598 1.523 . S
C598 C579 1.368 . S
C598 C592 1.368 . S
C598 C597 1.523 . S
C599 C583 1.429 . S
C599 C595 1.429 . S
C599 C600 1.523 . S
C600 C584 1.368 . S
C600 C596 1.368 . S
C600 C599 1.523 . S
H601 C576 0.950 . S
H602 C578 0.950 . S
H603 C579 0.949 . S
H604 C581 0.950 . S
H605 C583 0.950 . S
C606 C607 1.349 . S
C606 C608 1.327 . S
C606 H631 0.950 . S
C607 C606 1.349 . S
C607 C623 1.349 . S
C608 C606 1.327 . S
C608 C627 1.429 . S
C608 H632 0.950 . S
C609 C626 1.574 . S
C609 C628 1.368 . S
C609 H633 0.949 . S
H610 C614 0.949 . S
C611 C612 1.349 . S
C611 C613 1.327 . S
C611 H634 0.950 . S
C612 C611 1.349 . S
C612 C624 1.349 . S
C613 C611 1.327 . S
C613 C629 1.429 . S
C613 H635 0.950 . S
C614 H610 0.949 . S
C614 C622 1.574 . S
C614 C630 1.368 . S
H615 C623 0.950 . S
H616 C621 0.950 . S
H617 C622 0.949 . S
H618 C624 0.950 . S
H619 C625 0.950 . S
H620 C626 0.949 . S
C621 H616 0.950 . S
C621 C623 1.327 . S
C621 C627 1.429 . S
C622 C614 1.574 . S
C622 H617 0.949 . S
C622 C628 1.368 . S
C623 C607 1.349 . S
C623 H615 0.950 . S
C623 C621 1.327 . S
C624 C612 1.349 . S
C624 H618 0.950 . S
C624 C625 1.327 . S
C625 H619 0.950 . S
C625 C624 1.327 . S
C625 C629 1.429 . S
C626 C609 1.574 . S
C626 H620 0.949 . S
C626 C630 1.368 . S
C627 C608 1.429 . S
C627 C621 1.429 . S
C627 C628 1.523 . S
C628 C609 1.368 . S
C628 C622 1.368 . S
C628 C627 1.523 . S
C629 C613 1.429 . S
C629 C625 1.429 . S
C629 C630 1.523 . S
C630 C614 1.368 . S
C630 C626 1.368 . S
C630 C629 1.523 . S
H631 C606 0.950 . S
H632 C608 0.950 . S
H633 C609 0.949 . S
H634 C611 0.950 . S
H635 C613 0.950 . S
C636 C637 1.349 . S
C636 C638 1.327 . S
C636 H661 0.950 . S
C637 C636 1.349 . S
C637 C653 1.349 . S
C638 C636 1.327 . S
C638 C657 1.429 . S
C638 H662 0.950 . S
C639 C656 1.574 1_554 S
C639 C658 1.368 . S
C639 H663 0.949 . S
H640 C644 0.949 . S
C641 C642 1.349 . S
C641 C643 1.327 . S
C641 H664 0.950 . S
C642 C641 1.349 . S
C642 C654 1.349 . S
C643 C641 1.327 . S
C643 C659 1.429 . S
C643 H665 0.950 . S
C644 H640 0.949 . S
C644 C652 1.574 1_556 S
C644 C660 1.368 . S
H645 C653 0.950 . S
H646 C651 0.950 . S
H647 C652 0.949 . S
H648 C654 0.950 . S
H649 C655 0.950 . S
H650 C656 0.949 . S
C651 H646 0.950 . S
C651 C653 1.327 . S
C651 C657 1.429 . S
C652 C644 1.574 1_554 S
C652 H647 0.949 . S
C652 C658 1.368 . S
C653 C637 1.349 . S
C653 H645 0.950 . S
C653 C651 1.327 . S
C654 C642 1.349 . S
C654 H648 0.950 . S
C654 C655 1.327 . S
C655 H649 0.950 . S
C655 C654 1.327 . S
C655 C659 1.429 . S
C656 C639 1.574 1_556 S
C656 H650 0.949 . S
C656 C660 1.368 . S
C657 C638 1.429 . S
C657 C651 1.429 . S
C657 C658 1.523 . S
C658 C639 1.368 . S
C658 C652 1.368 . S
C658 C657 1.523 . S
C659 C643 1.429 . S
C659 C655 1.429 . S
C659 C660 1.523 . S
C660 C644 1.368 . S
C660 C656 1.368 . S
C660 C659 1.523 . S
H661 C636 0.950 . S
H662 C638 0.950 . S
H663 C639 0.949 . S
H664 C641 0.950 . S
H665 C643 0.950 . S
C666 C667 1.349 . S
C666 C668 1.327 . S
C666 H691 0.950 . S
C667 C666 1.349 . S
C667 C683 1.349 . S
C668 C666 1.327 . S
C668 C687 1.429 . S
C668 H692 0.950 . S
C669 C686 1.574 . S
C669 C688 1.368 . S
C669 H693 0.949 . S
H670 C674 0.949 . S
C671 C672 1.349 . S
C671 C673 1.327 . S
C671 H694 0.950 . S
C672 C671 1.349 . S
C672 C684 1.349 . S
C673 C671 1.327 . S
C673 C689 1.429 . S
C673 H695 0.950 . S
C674 H670 0.949 . S
C674 C682 1.574 . S
C674 C690 1.368 . S
H675 C683 0.950 . S
H676 C681 0.950 . S
H677 C682 0.949 . S
H678 C684 0.950 . S
H679 C685 0.950 . S
H680 C686 0.949 . S
C681 H676 0.950 . S
C681 C683 1.327 . S
C681 C687 1.429 . S
C682 C674 1.574 . S
C682 H677 0.949 . S
C682 C688 1.368 . S
C683 C667 1.349 . S
C683 H675 0.950 . S
C683 C681 1.327 . S
C684 C672 1.349 . S
C684 H678 0.950 . S
C684 C685 1.327 . S
C685 H679 0.950 . S
C685 C684 1.327 . S
C685 C689 1.429 . S
C686 C669 1.574 . S
C686 H680 0.949 . S
C686 C690 1.368 . S
C687 C668 1.429 . S
C687 C681 1.429 . S
C687 C688 1.523 . S
C688 C669 1.368 . S
C688 C682 1.368 . S
C688 C687 1.523 . S
C689 C673 1.429 . S
C689 C685 1.429 . S
C689 C690 1.523 . S
C690 C674 1.368 . S
C690 C686 1.368 . S
C690 C689 1.523 . S
H691 C666 0.950 . S
H692 C668 0.950 . S
H693 C669 0.949 . S
H694 C671 0.950 . S
H695 C673 0.950 . S
C696 C697 1.349 . S
C696 C698 1.327 . S
C696 H721 0.950 . S
C697 C696 1.349 . S
C697 C713 1.349 . S
C698 C696 1.327 . S
C698 C717 1.429 . S
C698 H722 0.950 . S
C699 C716 1.574 1_556 S
C699 C718 1.368 . S
C699 H723 0.949 . S
H700 C704 0.949 . S
C701 C702 1.349 . S
C701 C703 1.327 . S
C701 H724 0.950 . S
C702 C701 1.349 . S
C702 C714 1.349 . S
C703 C701 1.327 . S
C703 C719 1.429 . S
C703 H725 0.950 . S
C704 H700 0.949 . S
C704 C712 1.574 1_554 S
C704 C720 1.368 . S
H705 C713 0.950 . S
H706 C711 0.950 . S
H707 C712 0.949 . S
H708 C714 0.950 . S
H709 C715 0.950 . S
H710 C716 0.949 . S
C711 H706 0.950 . S
C711 C713 1.327 . S
C711 C717 1.429 . S
C712 C704 1.574 1_556 S
C712 H707 0.949 . S
C712 C718 1.368 . S
C713 C697 1.349 . S
C713 H705 0.950 . S
C713 C711 1.327 . S
C714 C702 1.349 . S
C714 H708 0.950 . S
C714 C715 1.327 . S
C715 H709 0.950 . S
C715 C714 1.327 . S
C715 C719 1.429 . S
C716 C699 1.574 1_554 S
C716 H710 0.949 . S
C716 C720 1.368 . S
C717 C698 1.429 . S
C717 C711 1.429 . S
C717 C718 1.523 . S
C718 C699 1.368 . S
C718 C712 1.368 . S
C718 C717 1.523 . S
C719 C703 1.429 . S
C719 C715 1.429 . S
C719 C720 1.523 . S
C720 C704 1.368 . S
C720 C716 1.368 . S
C720 C719 1.523 . S
H721 C696 0.950 . S
H722 C698 0.950 . S
H723 C699 0.949 . S
H724 C701 0.950 . S
H725 C703 0.950 . S
C726 C727 1.349 . S
C726 C728 1.327 . S
C726 H751 0.950 . S
C727 C726 1.349 . S
C727 C743 1.349 . S
C728 C726 1.327 . S
C728 C747 1.429 . S
C728 H752 0.950 . S
C729 C746 1.574 . S
C729 C748 1.368 . S
C729 H753 0.949 . S
H730 C734 0.949 . S
C731 C732 1.349 . S
C731 C733 1.327 . S
C731 H754 0.950 . S
C732 C731 1.349 . S
C732 C744 1.349 . S
C733 C731 1.327 . S
C733 C749 1.429 . S
C733 H755 0.950 . S
C734 H730 0.949 . S
C734 C742 1.574 . S
C734 C750 1.368 . S
H735 C743 0.950 . S
H736 C741 0.950 . S
H737 C742 0.949 . S
H738 C744 0.950 . S
H739 C745 0.950 . S
H740 C746 0.949 . S
C741 H736 0.950 . S
C741 C743 1.327 . S
C741 C747 1.429 . S
C742 C734 1.574 . S
C742 H737 0.949 . S
C742 C748 1.368 . S
C743 C727 1.349 . S
C743 H735 0.950 . S
C743 C741 1.327 . S
C744 C732 1.349 . S
C744 H738 0.950 . S
C744 C745 1.327 . S
C745 H739 0.950 . S
C745 C744 1.327 . S
C745 C749 1.429 . S
C746 C729 1.574 . S
C746 H740 0.949 . S
C746 C750 1.368 . S
C747 C728 1.429 . S
C747 C741 1.429 . S
C747 C748 1.523 . S
C748 C729 1.368 . S
C748 C742 1.368 . S
C748 C747 1.523 . S
C749 C733 1.429 . S
C749 C745 1.429 . S
C749 C750 1.523 . S
C750 C734 1.368 . S
C750 C746 1.368 . S
C750 C749 1.523 . S
H751 C726 0.950 . S
H752 C728 0.950 . S
H753 C729 0.949 . S
H754 C731 0.950 . S
H755 C733 0.950 . S
C756 C757 1.349 . S
C756 C758 1.327 . S
C756 H781 0.950 . S
C757 C756 1.349 . S
C757 C773 1.349 . S
C758 C756 1.327 . S
C758 C777 1.429 . S
C758 H782 0.950 . S
C759 C776 1.574 1_554 S
C759 C778 1.368 . S
C759 H783 0.949 . S
H760 C764 0.949 . S
C761 C762 1.349 . S
C761 C763 1.327 . S
C761 H784 0.950 . S
C762 C761 1.349 . S
C762 C774 1.349 . S
C763 C761 1.327 . S
C763 C779 1.429 . S
C763 H785 0.950 . S
C764 H760 0.949 . S
C764 C772 1.574 1_556 S
C764 C780 1.368 . S
H765 C773 0.950 . S
H766 C771 0.950 . S
H767 C772 0.949 . S
H768 C774 0.950 . S
H769 C775 0.950 . S
H770 C776 0.949 . S
C771 H766 0.950 . S
C771 C773 1.327 . S
C771 C777 1.429 . S
C772 C764 1.574 1_554 S
C772 H767 0.949 . S
C772 C778 1.368 . S
C773 C757 1.349 . S
C773 H765 0.950 . S
C773 C771 1.327 . S
C774 C762 1.349 . S
C774 H768 0.950 . S
C774 C775 1.327 . S
C775 H769 0.950 . S
C775 C774 1.327 . S
C775 C779 1.429 . S
C776 C759 1.574 1_556 S
C776 H770 0.949 . S
C776 C780 1.368 . S
C777 C758 1.429 . S
C777 C771 1.429 . S
C777 C778 1.523 . S
C778 C759 1.368 . S
C778 C772 1.368 . S
C778 C777 1.523 . S
C779 C763 1.429 . S
C779 C775 1.429 . S
C779 C780 1.523 . S
C780 C764 1.368 . S
C780 C776 1.368 . S
C780 C779 1.523 . S
H781 C756 0.950 . S
H782 C758 0.950 . S
H783 C759 0.949 . S
H784 C761 0.950 . S
H785 C763 0.950 . S
C786 C787 1.349 . S
C786 C788 1.327 . S
C786 H811 0.950 . S
C787 C786 1.349 . S
C787 C803 1.349 . S
C788 C786 1.327 . S
C788 C807 1.429 . S
C788 H812 0.950 . S
C789 C806 1.574 . S
C789 C808 1.368 . S
C789 H813 0.949 . S
H790 C794 0.949 . S
C791 C792 1.349 . S
C791 C793 1.327 . S
C791 H814 0.950 . S
C792 C791 1.349 . S
C792 C804 1.349 . S
C793 C791 1.327 . S
C793 C809 1.429 . S
C793 H815 0.950 . S
C794 H790 0.949 . S
C794 C802 1.574 . S
C794 C810 1.368 . S
H795 C803 0.950 . S
H796 C801 0.950 . S
H797 C802 0.949 . S
H798 C804 0.950 . S
H799 C805 0.950 . S
H800 C806 0.949 . S
C801 H796 0.950 . S
C801 C803 1.327 . S
C801 C807 1.429 . S
C802 C794 1.574 . S
C802 H797 0.949 . S
C802 C808 1.368 . S
C803 C787 1.349 . S
C803 H795 0.950 . S
C803 C801 1.327 . S
C804 C792 1.349 . S
C804 H798 0.950 . S
C804 C805 1.327 . S
C805 H799 0.950 . S
C805 C804 1.327 . S
C805 C809 1.429 . S
C806 C789 1.574 . S
C806 H800 0.949 . S
C806 C810 1.368 . S
C807 C788 1.429 . S
C807 C801 1.429 . S
C807 C808 1.523 . S
C808 C789 1.368 . S
C808 C802 1.368 . S
C808 C807 1.523 . S
C809 C793 1.429 . S
C809 C805 1.429 . S
C809 C810 1.523 . S
C810 C794 1.368 . S
C810 C806 1.368 . S
C810 C809 1.523 . S
H811 C786 0.950 . S
H812 C788 0.950 . S
H813 C789 0.949 . S
H814 C791 0.950 . S
H815 C793 0.950 . S
C816 C817 1.349 . S
C816 C818 1.327 . S
C816 H841 0.950 . S
C817 C816 1.349 . S
C817 C833 1.349 . S
C818 C816 1.327 . S
C818 C837 1.429 . S
C818 H842 0.950 . S
C819 C836 1.574 1_556 S
C819 C838 1.368 . S
C819 H843 0.949 . S
H820 C824 0.949 . S
C821 C822 1.349 . S
C821 C823 1.327 . S
C821 H844 0.950 . S
C822 C821 1.349 . S
C822 C834 1.349 . S
C823 C821 1.327 . S
C823 C839 1.429 . S
C823 H845 0.950 . S
C824 H820 0.949 . S
C824 C832 1.574 1_554 S
C824 C840 1.368 . S
H825 C833 0.950 . S
H826 C831 0.950 . S
H827 C832 0.949 . S
H828 C834 0.950 . S
H829 C835 0.950 . S
H830 C836 0.949 . S
C831 H826 0.950 . S
C831 C833 1.327 . S
C831 C837 1.429 . S
C832 C824 1.574 1_556 S
C832 H827 0.949 . S
C832 C838 1.368 . S
C833 C817 1.349 . S
C833 H825 0.950 . S
C833 C831 1.327 . S
C834 C822 1.349 . S
C834 H828 0.950 . S
C834 C835 1.327 . S
C835 H829 0.950 . S
C835 C834 1.327 . S
C835 C839 1.429 . S
C836 C819 1.574 1_554 S
C836 H830 0.949 . S
C836 C840 1.368 . S
C837 C818 1.429 . S
C837 C831 1.429 . S
C837 C838 1.523 . S
C838 C819 1.368 . S
C838 C832 1.368 . S
C838 C837 1.523 . S
C839 C823 1.429 . S
C839 C835 1.429 . S
C839 C840 1.523 . S
C840 C824 1.368 . S
C840 C836 1.368 . S
C840 C839 1.523 . S
H841 C816 0.950 . S
H842 C818 0.950 . S
H843 C819 0.949 . S
H844 C821 0.950 . S
H845 C823 0.950 . S
C846 C847 1.349 . S
C846 C848 1.327 . S
C846 H871 0.950 . S
C847 C846 1.349 . S
C847 C863 1.349 . S
C848 C846 1.327 . S
C848 C867 1.429 . S
C848 H872 0.950 . S
C849 C866 1.574 . S
C849 C868 1.368 . S
C849 H873 0.949 . S
H850 C854 0.949 . S
C851 C852 1.349 . S
C851 C853 1.327 . S
C851 H874 0.950 . S
C852 C851 1.349 . S
C852 C864 1.349 . S
C853 C851 1.327 . S
C853 C869 1.429 . S
C853 H875 0.950 . S
C854 H850 0.949 . S
C854 C862 1.574 . S
C854 C870 1.368 . S
H855 C863 0.950 . S
H856 C861 0.950 . S
H857 C862 0.949 . S
H858 C864 0.950 . S
H859 C865 0.950 . S
H860 C866 0.949 . S
C861 H856 0.950 . S
C861 C863 1.327 . S
C861 C867 1.429 . S
C862 C854 1.574 . S
C862 H857 0.949 . S
C862 C868 1.368 . S
C863 C847 1.349 . S
C863 H855 0.950 . S
C863 C861 1.327 . S
C864 C852 1.349 . S
C864 H858 0.950 . S
C864 C865 1.327 . S
C865 H859 0.950 . S
C865 C864 1.327 . S
C865 C869 1.429 . S
C866 C849 1.574 . S
C866 H860 0.949 . S
C866 C870 1.368 . S
C867 C848 1.429 . S
C867 C861 1.429 . S
C867 C868 1.523 . S
C868 C849 1.368 . S
C868 C862 1.368 . S
C868 C867 1.523 . S
C869 C853 1.429 . S
C869 C865 1.429 . S
C869 C870 1.523 . S
C870 C854 1.368 . S
C870 C866 1.368 . S
C870 C869 1.523 . S
H871 C846 0.950 . S
H872 C848 0.950 . S
H873 C849 0.949 . S
H874 C851 0.950 . S
H875 C853 0.950 . S
C876 C877 1.349 . S
C876 C878 1.327 . S
C876 H901 0.950 . S
C877 C876 1.349 . S
C877 C893 1.349 . S
C878 C876 1.327 . S
C878 C897 1.429 . S
C878 H902 0.950 . S
C879 C896 1.574 1_556 S
C879 C898 1.368 . S
C879 H903 0.949 . S
H880 C884 0.949 . S
C881 C882 1.349 . S
C881 C883 1.327 . S
C881 H904 0.950 . S
C882 C881 1.349 . S
C882 C894 1.349 . S
C883 C881 1.327 . S
C883 C899 1.429 . S
C883 H905 0.950 . S
C884 H880 0.949 . S
C884 C892 1.574 1_554 S
C884 C900 1.368 . S
H885 C893 0.950 . S
H886 C891 0.950 . S
H887 C892 0.949 . S
H888 C894 0.950 . S
H889 C895 0.950 . S
H890 C896 0.949 . S
C891 H886 0.950 . S
C891 C893 1.327 . S
C891 C897 1.429 . S
C892 C884 1.574 1_556 S
C892 H887 0.949 . S
C892 C898 1.368 . S
C893 C877 1.349 . S
C893 H885 0.950 . S
C893 C891 1.327 . S
C894 C882 1.349 . S
C894 H888 0.950 . S
C894 C895 1.327 . S
C895 H889 0.950 . S
C895 C894 1.327 . S
C895 C899 1.429 . S
C896 C879 1.574 1_554 S
C896 H890 0.949 . S
C896 C900 1.368 . S
C897 C878 1.429 . S
C897 C891 1.429 . S
C897 C898 1.523 . S
C898 C879 1.368 . S
C898 C892 1.368 . S
C898 C897 1.523 . S
C899 C883 1.429 . S
C899 C895 1.429 . S
C899 C900 1.523 . S
C900 C884 1.368 . S
C900 C896 1.368 . S
C900 C899 1.523 . S
H901 C876 0.950 . S
H902 C878 0.950 . S
H903 C879 0.949 . S
H904 C881 0.950 . S
H905 C883 0.950 . S
C906 C907 1.349 . S
C906 C908 1.327 . S
C906 H931 0.950 . S
C907 C906 1.349 . S
C907 C923 1.349 . S
C908 C906 1.327 . S
C908 C927 1.429 . S
C908 H932 0.950 . S
C909 C926 1.574 . S
C909 C928 1.368 . S
C909 H933 0.949 . S
H910 C914 0.949 . S
C911 C912 1.349 . S
C911 C913 1.327 . S
C911 H934 0.950 . S
C912 C911 1.349 . S
C912 C924 1.349 . S
C913 C911 1.327 . S
C913 C929 1.429 . S
C913 H935 0.950 . S
C914 H910 0.949 . S
C914 C922 1.574 . S
C914 C930 1.368 . S
H915 C923 0.950 . S
H916 C921 0.950 . S
H917 C922 0.949 . S
H918 C924 0.950 . S
H919 C925 0.950 . S
H920 C926 0.949 . S
C921 H916 0.950 . S
C921 C923 1.327 . S
C921 C927 1.429 . S
C922 C914 1.574 . S
C922 H917 0.949 . S
C922 C928 1.368 . S
C923 C907 1.349 . S
C923 H915 0.950 . S
C923 C921 1.327 . S
C924 C912 1.349 . S
C924 H918 0.950 . S
C924 C925 1.327 . S
C925 H919 0.950 . S
C925 C924 1.327 . S
C925 C929 1.429 . S
C926 C909 1.574 . S
C926 H920 0.949 . S
C926 C930 1.368 . S
C927 C908 1.429 . S
C927 C921 1.429 . S
C927 C928 1.523 . S
C928 C909 1.368 . S
C928 C922 1.368 . S
C928 C927 1.523 . S
C929 C913 1.429 . S
C929 C925 1.429 . S
C929 C930 1.523 . S
C930 C914 1.368 . S
C930 C926 1.368 . S
C930 C929 1.523 . S
H931 C906 0.950 . S
H932 C908 0.950 . S
H933 C909 0.949 . S
H934 C911 0.950 . S
H935 C913 0.950 . S
C936 C937 1.349 . S
C936 C938 1.327 . S
C936 H961 0.950 . S
C937 C936 1.349 . S
C937 C953 1.349 . S
C938 C936 1.327 . S
C938 C957 1.429 . S
C938 H962 0.950 . S
C939 C956 1.574 . S
C939 C958 1.368 . S
C939 H963 0.949 . S
H940 C944 0.949 . S
C941 C942 1.349 . S
C941 C943 1.327 . S
C941 H964 0.950 . S
C942 C941 1.349 . S
C942 C954 1.349 . S
C943 C941 1.327 . S
C943 C959 1.429 . S
C943 H965 0.950 . S
C944 H940 0.949 . S
C944 C952 1.574 . S
C944 C960 1.368 . S
H945 C953 0.950 . S
H946 C951 0.950 . S
H947 C952 0.949 . S
H948 C954 0.950 . S
H949 C955 0.950 . S
H950 C956 0.949 . S
C951 H946 0.950 . S
C951 C953 1.327 . S
C951 C957 1.429 . S
C952 C944 1.574 . S
C952 H947 0.949 . S
C952 C958 1.368 . S
C953 C937 1.349 . S
C953 H945 0.950 . S
C953 C951 1.327 . S
C954 C942 1.349 . S
C954 H948 0.950 . S
C954 C955 1.327 . S
C955 H949 0.950 . S
C955 C954 1.327 . S
C955 C959 1.429 . S
C956 C939 1.574 . S
C956 H950 0.949 . S
C956 C960 1.368 . S
C957 C938 1.429 . S
C957 C951 1.429 . S
C957 C958 1.523 . S
C958 C939 1.368 . S
C958 C952 1.368 . S
C958 C957 1.523 . S
C959 C943 1.429 . S
C959 C955 1.429 . S
C959 C960 1.523 . S
C960 C944 1.368 . S
C960 C956 1.368 . S
C960 C959 1.523 . S
H961 C936 0.950 . S
H962 C938 0.950 . S
H963 C939 0.949 . S
H964 C941 0.950 . S
H965 C943 0.950 . S
C966 C967 1.349 . S
C966 C968 1.327 . S
C966 H991 0.950 . S
C967 C966 1.349 . S
C967 C983 1.349 . S
C968 C966 1.327 . S
C968 C987 1.429 . S
C968 H992 0.950 . S
C969 C986 1.574 . S
C969 C988 1.368 . S
C969 H993 0.949 . S
H970 C974 0.949 . S
C971 C972 1.349 . S
C971 C973 1.327 . S
C971 H994 0.950 . S
C972 C971 1.349 . S
C972 C984 1.349 . S
C973 C971 1.327 . S
C973 C989 1.429 . S
C973 H995 0.950 . S
C974 H970 0.949 . S
C974 C982 1.574 . S
C974 C990 1.368 . S
H975 C983 0.950 . S
H976 C981 0.950 . S
H977 C982 0.949 . S
H978 C984 0.950 . S
H979 C985 0.950 . S
H980 C986 0.949 . S
C981 H976 0.950 . S
C981 C983 1.327 . S
C981 C987 1.429 . S
C982 C974 1.574 . S
C982 H977 0.949 . S
C982 C988 1.368 . S
C983 C967 1.349 . S
C983 H975 0.950 . S
C983 C981 1.327 . S
C984 C972 1.349 . S
C984 H978 0.950 . S
C984 C985 1.327 . S
C985 H979 0.950 . S
C985 C984 1.327 . S
C985 C989 1.429 . S
C986 C969 1.574 . S
C986 H980 0.949 . S
C986 C990 1.368 . S
C987 C968 1.429 . S
C987 C981 1.429 . S
C987 C988 1.523 . S
C988 C969 1.368 . S
C988 C982 1.368 . S
C988 C987 1.523 . S
C989 C973 1.429 . S
C989 C985 1.429 . S
C989 C990 1.523 . S
C990 C974 1.368 . S
C990 C986 1.368 . S
C990 C989 1.523 . S
H991 C966 0.950 . S
H992 C968 0.950 . S
H993 C969 0.949 . S
H994 C971 0.950 . S
H995 C973 0.950 . S
C996 C997 1.349 . S
C996 C998 1.327 . S
C996 H1021 0.950 . S
C997 C996 1.349 . S
C997 C1013 1.349 . S
C998 C996 1.327 . S
C998 C1017 1.429 . S
C998 H1022 0.950 . S
C999 C1016 1.574 . S
C999 C1018 1.368 . S
C999 H1023 0.949 . S
H1000 C1004 0.949 . S
C1001 C1002 1.349 . S
C1001 C1003 1.327 . S
C1001 H1024 0.950 . S
C1002 C1001 1.349 . S
C1002 C1014 1.349 . S
C1003 C1001 1.327 . S
C1003 C1019 1.429 . S
C1003 H1025 0.950 . S
C1004 H1000 0.949 . S
C1004 C1012 1.574 . S
C1004 C1020 1.368 . S
H1005 C1013 0.950 . S
H1006 C1011 0.950 . S
H1007 C1012 0.949 . S
H1008 C1014 0.950 . S
H1009 C1015 0.950 . S
H1010 C1016 0.949 . S
C1011 H1006 0.950 . S
C1011 C1013 1.327 . S
C1011 C1017 1.429 . S
C1012 C1004 1.574 . S
C1012 H1007 0.949 . S
C1012 C1018 1.368 . S
C1013 C997 1.349 . S
C1013 H1005 0.950 . S
C1013 C1011 1.327 . S
C1014 C1002 1.349 . S
C1014 H1008 0.950 . S
C1014 C1015 1.327 . S
C1015 H1009 0.950 . S
C1015 C1014 1.327 . S
C1015 C1019 1.429 . S
C1016 C999 1.574 . S
C1016 H1010 0.949 . S
C1016 C1020 1.368 . S
C1017 C998 1.429 . S
C1017 C1011 1.429 . S
C1017 C1018 1.523 . S
C1018 C999 1.368 . S
C1018 C1012 1.368 . S
C1018 C1017 1.523 . S
C1019 C1003 1.429 . S
C1019 C1015 1.429 . S
C1019 C1020 1.523 . S
C1020 C1004 1.368 . S
C1020 C1016 1.368 . S
C1020 C1019 1.523 . S
H1021 C996 0.950 . S
H1022 C998 0.950 . S
H1023 C999 0.949 . S
H1024 C1001 0.950 . S
H1025 C1003 0.950 . S
C1026 C1027 1.349 . S
C1026 C1028 1.327 . S
C1026 H1051 0.950 . S
C1027 C1026 1.349 . S
C1027 C1043 1.349 . S
C1028 C1026 1.327 . S
C1028 C1047 1.429 . S
C1028 H1052 0.950 . S
C1029 C1046 1.574 . S
C1029 C1048 1.368 . S
C1029 H1053 0.949 . S
H1030 C1034 0.949 . S
C1031 C1032 1.349 . S
C1031 C1033 1.327 . S
C1031 H1054 0.950 . S
C1032 C1031 1.349 . S
C1032 C1044 1.349 . S
C1033 C1031 1.327 . S
C1033 C1049 1.429 . S
C1033 H1055 0.950 . S
C1034 H1030 0.949 . S
C1034 C1042 1.574 . S
C1034 C1050 1.368 . S
H1035 C1043 0.950 . S
H1036 C1041 0.950 . S
H1037 C1042 0.949 . S
H1038 C1044 0.950 . S
H1039 C1045 0.950 . S
H1040 C1046 0.949 . S
C1041 H1036 0.950 . S
C1041 C1043 1.327 . S
C1041 C1047 1.429 . S
C1042 C1034 1.574 . S
C1042 H1037 0.949 . S
C1042 C1048 1.368 . S
C1043 C1027 1.349 . S
C1043 H1035 0.950 . S
C1043 C1041 1.327 . S
C1044 C1032 1.349 . S
C1044 H1038 0.950 . S
C1044 C1045 1.327 . S
C1045 H1039 0.950 . S
C1045 C1044 1.327 . S
C1045 C1049 1.429 . S
C1046 C1029 1.574 . S
C1046 H1040 0.949 . S
C1046 C1050 1.368 . S
C1047 C1028 1.429 . S
C1047 C1041 1.429 . S
C1047 C1048 1.523 . S
C1048 C1029 1.368 . S
C1048 C1042 1.368 . S
C1048 C1047 1.523 . S
C1049 C1033 1.429 . S
C1049 C1045 1.429 . S
C1049 C1050 1.523 . S
C1050 C1034 1.368 . S
C1050 C1046 1.368 . S
C1050 C1049 1.523 . S
H1051 C1026 0.950 . S
H1052 C1028 0.950 . S
H1053 C1029 0.949 . S
H1054 C1031 0.950 . S
H1055 C1033 0.950 . S
C1056 C1057 1.349 . S
C1056 C1058 1.327 . S
C1056 H1081 0.950 . S
C1057 C1056 1.349 . S
C1057 C1073 1.349 . S
C1058 C1056 1.327 . S
C1058 C1077 1.429 . S
C1058 H1082 0.950 . S
C1059 C1076 1.574 . S
C1059 C1078 1.368 . S
C1059 H1083 0.949 . S
H1060 C1064 0.949 . S
C1061 C1062 1.349 . S
C1061 C1063 1.327 . S
C1061 H1084 0.950 . S
C1062 C1061 1.349 . S
C1062 C1074 1.349 . S
C1063 C1061 1.327 . S
C1063 C1079 1.429 . S
C1063 H1085 0.950 . S
C1064 H1060 0.949 . S
C1064 C1072 1.574 . S
C1064 C1080 1.368 . S
H1065 C1073 0.950 . S
H1066 C1071 0.950 . S
H1067 C1072 0.949 . S
H1068 C1074 0.950 . S
H1069 C1075 0.950 . S
H1070 C1076 0.949 . S
C1071 H1066 0.950 . S
C1071 C1073 1.327 . S
C1071 C1077 1.429 . S
C1072 C1064 1.574 . S
C1072 H1067 0.949 . S
C1072 C1078 1.368 . S
C1073 C1057 1.349 . S
C1073 H1065 0.950 . S
C1073 C1071 1.327 . S
C1074 C1062 1.349 . S
C1074 H1068 0.950 . S
C1074 C1075 1.327 . S
C1075 H1069 0.950 . S
C1075 C1074 1.327 . S
C1075 C1079 1.429 . S
C1076 C1059 1.574 . S
C1076 H1070 0.949 . S
C1076 C1080 1.368 . S
C1077 C1058 1.429 . S
C1077 C1071 1.429 . S
C1077 C1078 1.523 . S
C1078 C1059 1.368 . S
C1078 C1072 1.368 . S
C1078 C1077 1.523 . S
C1079 C1063 1.429 . S
C1079 C1075 1.429 . S
C1079 C1080 1.523 . S
C1080 C1064 1.368 . S
C1080 C1076 1.368 . S
C1080 C1079 1.523 . S
H1081 C1056 0.950 . S
H1082 C1058 0.950 . S
H1083 C1059 0.949 . S
H1084 C1061 0.950 . S
H1085 C1063 0.950 . S
C1086 C1087 1.349 . S
C1086 C1088 1.327 . S
C1086 H1111 0.950 . S
C1087 C1086 1.349 . S
C1087 C1103 1.349 . S
C1088 C1086 1.327 . S
C1088 C1107 1.429 . S
C1088 H1112 0.950 . S
C1089 C1106 1.574 . S
C1089 C1108 1.368 . S
C1089 H1113 0.949 . S
H1090 C1094 0.949 . S
C1091 C1092 1.349 . S
C1091 C1093 1.327 . S
C1091 H1114 0.950 . S
C1092 C1091 1.349 . S
C1092 C1104 1.349 . S
C1093 C1091 1.327 . S
C1093 C1109 1.429 . S
C1093 H1115 0.950 . S
C1094 H1090 0.949 . S
C1094 C1102 1.574 . S
C1094 C1110 1.368 . S
H1095 C1103 0.950 . S
H1096 C1101 0.950 . S
H1097 C1102 0.949 . S
H1098 C1104 0.950 . S
H1099 C1105 0.950 . S
H1100 C1106 0.949 . S
C1101 H1096 0.950 . S
C1101 C1103 1.327 . S
C1101 C1107 1.429 . S
C1102 C1094 1.574 . S
C1102 H1097 0.949 . S
C1102 C1108 1.368 . S
C1103 C1087 1.349 . S
C1103 H1095 0.950 . S
C1103 C1101 1.327 . S
C1104 C1092 1.349 . S
C1104 H1098 0.950 . S
C1104 C1105 1.327 . S
C1105 H1099 0.950 . S
C1105 C1104 1.327 . S
C1105 C1109 1.429 . S
C1106 C1089 1.574 . S
C1106 H1100 0.949 . S
C1106 C1110 1.368 . S
C1107 C1088 1.429 . S
C1107 C1101 1.429 . S
C1107 C1108 1.523 . S
C1108 C1089 1.368 . S
C1108 C1102 1.368 . S
C1108 C1107 1.523 . S
C1109 C1093 1.429 . S
C1109 C1105 1.429 . S
C1109 C1110 1.523 . S
C1110 C1094 1.368 . S
C1110 C1106 1.368 . S
C1110 C1109 1.523 . S
H1111 C1086 0.950 . S
H1112 C1088 0.950 . S
H1113 C1089 0.949 . S
H1114 C1091 0.950 . S
H1115 C1093 0.950 . S
C1116 C1117 1.349 . S
C1116 C1118 1.327 . S
C1116 H1141 0.950 . S
C1117 C1116 1.349 . S
C1117 C1133 1.349 . S
C1118 C1116 1.327 . S
C1118 C1137 1.429 . S
C1118 H1142 0.950 . S
C1119 C1136 1.574 . S
C1119 C1138 1.368 . S
C1119 H1143 0.949 . S
H1120 C1124 0.949 . S
C1121 C1122 1.349 . S
C1121 C1123 1.327 . S
C1121 H1144 0.950 . S
C1122 C1121 1.349 . S
C1122 C1134 1.349 . S
C1123 C1121 1.327 . S
C1123 C1139 1.429 . S
C1123 H1145 0.950 . S
C1124 H1120 0.949 . S
C1124 C1132 1.574 . S
C1124 C1140 1.368 . S
H1125 C1133 0.950 . S
H1126 C1131 0.950 . S
H1127 C1132 0.949 . S
H1128 C1134 0.950 . S
H1129 C1135 0.950 . S
H1130 C1136 0.949 . S
C1131 H1126 0.950 . S
C1131 C1133 1.327 . S
C1131 C1137 1.429 . S
C1132 C1124 1.574 . S
C1132 H1127 0.949 . S
C1132 C1138 1.368 . S
C1133 C1117 1.349 . S
C1133 H1125 0.950 . S
C1133 C1131 1.327 . S
C1134 C1122 1.349 . S
C1134 H1128 0.950 . S
C1134 C1135 1.327 . S
C1135 H1129 0.950 . S
C1135 C1134 1.327 . S
C1135 C1139 1.429 . S
C1136 C1119 1.574 . S
C1136 H1130 0.949 . S
C1136 C1140 1.368 . S
C1137 C1118 1.429 . S
C1137 C1131 1.429 . S
C1137 C1138 1.523 . S
C1138 C1119 1.368 . S
C1138 C1132 1.368 . S
C1138 C1137 1.523 . S
C1139 C1123 1.429 . S
C1139 C1135 1.429 . S
C1139 C1140 1.523 . S
C1140 C1124 1.368 . S
C1140 C1136 1.368 . S
C1140 C1139 1.523 . S
H1141 C1116 0.950 . S
H1142 C1118 0.950 . S
H1143 C1119 0.949 . S
H1144 C1121 0.950 . S
H1145 C1123 0.950 . S
C1146 C1147 1.349 . S
C1146 C1148 1.327 . S
C1146 H1171 0.950 . S
C1147 C1146 1.349 . S
C1147 C1163 1.349 . S
C1148 C1146 1.327 . S
C1148 C1167 1.429 . S
C1148 H1172 0.950 . S
C1149 C1166 1.574 . S
C1149 C1168 1.368 . S
C1149 H1173 0.949 . S
H1150 C1154 0.949 . S
C1151 C1152 1.349 . S
C1151 C1153 1.327 . S
C1151 H1174 0.950 . S
C1152 C1151 1.349 . S
C1152 C1164 1.349 . S
C1153 C1151 1.327 . S
C1153 C1169 1.429 . S
C1153 H1175 0.950 . S
C1154 H1150 0.949 . S
C1154 C1162 1.574 . S
C1154 C1170 1.368 . S
H1155 C1163 0.950 . S
H1156 C1161 0.950 . S
H1157 C1162 0.949 . S
H1158 C1164 0.950 . S
H1159 C1165 0.950 . S
H1160 C1166 0.949 . S
C1161 H1156 0.950 . S
C1161 C1163 1.327 . S
C1161 C1167 1.429 . S
C1162 C1154 1.574 . S
C1162 H1157 0.949 . S
C1162 C1168 1.368 . S
C1163 C1147 1.349 . S
C1163 H1155 0.950 . S
C1163 C1161 1.327 . S
C1164 C1152 1.349 . S
C1164 H1158 0.950 . S
C1164 C1165 1.327 . S
C1165 H1159 0.950 . S
C1165 C1164 1.327 . S
C1165 C1169 1.429 . S
C1166 C1149 1.574 . S
C1166 H1160 0.949 . S
C1166 C1170 1.368 . S
C1167 C1148 1.429 . S
C1167 C1161 1.429 . S
C1167 C1168 1.523 . S
C1168 C1149 1.368 . S
C1168 C1162 1.368 . S
C1168 C1167 1.523 . S
C1169 C1153 1.429 . S
C1169 C1165 1.429 . S
C1169 C1170 1.523 . S
C1170 C1154 1.368 . S
C1170 C1166 1.368 . S
C1170 C1169 1.523 . S
H1171 C1146 0.950 . S
H1172 C1148 0.950 . S
H1173 C1149 0.949 . S
H1174 C1151 0.950 . S
H1175 C1153 0.950 . S
C1176 C1177 1.349 . S
C1176 C1178 1.327 . S
C1176 H1201 0.950 . S
C1177 C1176 1.349 . S
C1177 C1193 1.349 . S
C1178 C1176 1.327 . S
C1178 C1197 1.429 . S
C1178 H1202 0.950 . S
C1179 C1196 1.574 . S
C1179 C1198 1.368 . S
C1179 H1203 0.949 . S
H1180 C1184 0.949 . S
C1181 C1182 1.349 . S
C1181 C1183 1.327 . S
C1181 H1204 0.950 . S
C1182 C1181 1.349 . S
C1182 C1194 1.349 . S
C1183 C1181 1.327 . S
C1183 C1199 1.429 . S
C1183 H1205 0.950 . S
C1184 H1180 0.949 . S
C1184 C1192 1.574 . S
C1184 C1200 1.368 . S
H1185 C1193 0.950 . S
H1186 C1191 0.950 . S
H1187 C1192 0.949 . S
H1188 C1194 0.950 . S
H1189 C1195 0.950 . S
H1190 C1196 0.949 . S
C1191 H1186 0.950 . S
C1191 C1193 1.327 . S
C1191 C1197 1.429 . S
C1192 C1184 1.574 . S
C1192 H1187 0.949 . S
C1192 C1198 1.368 . S
C1193 C1177 1.349 . S
C1193 H1185 0.950 . S
C1193 C1191 1.327 . S
C1194 C1182 1.349 . S
C1194 H1188 0.950 . S
C1194 C1195 1.327 . S
C1195 H1189 0.950 . S
C1195 C1194 1.327 . S
C1195 C1199 1.429 . S
C1196 C1179 1.574 . S
C1196 H1190 0.949 . S
C1196 C1200 1.368 . S
C1197 C1178 1.429 . S
C1197 C1191 1.429 . S
C1197 C1198 1.523 . S
C1198 C1179 1.368 . S
C1198 C1192 1.368 . S
C1198 C1197 1.523 . S
C1199 C1183 1.429 . S
C1199 C1195 1.429 . S
C1199 C1200 1.523 . S
C1200 C1184 1.368 . S
C1200 C1196 1.368 . S
C1200 C1199 1.523 . S
H1201 C1176 0.950 . S
H1202 C1178 0.950 . S
H1203 C1179 0.949 . S
H1204 C1181 0.950 . S
H1205 C1183 0.950 . S
C1206 C1207 1.349 . S
C1206 C1208 1.327 . S
C1206 H1231 0.950 . S
C1207 C1206 1.349 . S
C1207 C1223 1.349 . S
C1208 C1206 1.327 . S
C1208 C1227 1.429 . S
C1208 H1232 0.950 . S
C1209 C1226 1.574 . S
C1209 C1228 1.368 . S
C1209 H1233 0.949 . S
H1210 C1214 0.949 . S
C1211 C1212 1.349 . S
C1211 C1213 1.327 . S
C1211 H1234 0.950 . S
C1212 C1211 1.349 . S
C1212 C1224 1.349 . S
C1213 C1211 1.327 . S
C1213 C1229 1.429 . S
C1213 H1235 0.950 . S
C1214 H1210 0.949 . S
C1214 C1222 1.574 . S
C1214 C1230 1.368 . S
H1215 C1223 0.950 . S
H1216 C1221 0.950 . S
H1217 C1222 0.949 . S
H1218 C1224 0.950 . S
H1219 C1225 0.950 . S
H1220 C1226 0.949 . S
C1221 H1216 0.950 . S
C1221 C1223 1.327 . S
C1221 C1227 1.429 . S
C1222 C1214 1.574 . S
C1222 H1217 0.949 . S
C1222 C1228 1.368 . S
C1223 C1207 1.349 . S
C1223 H1215 0.950 . S
C1223 C1221 1.327 . S
C1224 C1212 1.349 . S
C1224 H1218 0.950 . S
C1224 C1225 1.327 . S
C1225 H1219 0.950 . S
C1225 C1224 1.327 . S
C1225 C1229 1.429 . S
C1226 C1209 1.574 . S
C1226 H1220 0.949 . S
C1226 C1230 1.368 . S
C1227 C1208 1.429 . S
C1227 C1221 1.429 . S
C1227 C1228 1.523 . S
C1228 C1209 1.368 . S
C1228 C1222 1.368 . S
C1228 C1227 1.523 . S
C1229 C1213 1.429 . S
C1229 C1225 1.429 . S
C1229 C1230 1.523 . S
C1230 C1214 1.368 . S
C1230 C1226 1.368 . S
C1230 C1229 1.523 . S
H1231 C1206 0.950 . S
H1232 C1208 0.950 . S
H1233 C1209 0.949 . S
H1234 C1211 0.950 . S
H1235 C1213 0.950 . S
C1236 C1237 1.349 . S
C1236 C1238 1.327 . S
C1236 H1261 0.950 . S
C1237 C1236 1.349 . S
C1237 C1253 1.349 . S
C1238 C1236 1.327 . S
C1238 C1257 1.429 . S
C1238 H1262 0.950 . S
C1239 C1256 1.574 . S
C1239 C1258 1.368 . S
C1239 H1263 0.949 . S
H1240 C1244 0.949 . S
C1241 C1242 1.349 . S
C1241 C1243 1.327 . S
C1241 H1264 0.950 . S
C1242 C1241 1.349 . S
C1242 C1254 1.349 . S
C1243 C1241 1.327 . S
C1243 C1259 1.429 . S
C1243 H1265 0.950 . S
C1244 H1240 0.949 . S
C1244 C1252 1.574 . S
C1244 C1260 1.368 . S
H1245 C1253 0.950 . S
H1246 C1251 0.950 . S
H1247 C1252 0.949 . S
H1248 C1254 0.950 . S
H1249 C1255 0.950 . S
H1250 C1256 0.949 . S
C1251 H1246 0.950 . S
C1251 C1253 1.327 . S
C1251 C1257 1.429 . S
C1252 C1244 1.574 . S
C1252 H1247 0.949 . S
C1252 C1258 1.368 . S
C1253 C1237 1.349 . S
C1253 H1245 0.950 . S
C1253 C1251 1.327 . S
C1254 C1242 1.349 . S
C1254 H1248 0.950 . S
C1254 C1255 1.327 . S
C1255 H1249 0.950 . S
C1255 C1254 1.327 . S
C1255 C1259 1.429 . S
C1256 C1239 1.574 . S
C1256 H1250 0.949 . S
C1256 C1260 1.368 . S
C1257 C1238 1.429 . S
C1257 C1251 1.429 . S
C1257 C1258 1.523 . S
C1258 C1239 1.368 . S
C1258 C1252 1.368 . S
C1258 C1257 1.523 . S
C1259 C1243 1.429 . S
C1259 C1255 1.429 . S
C1259 C1260 1.523 . S
C1260 C1244 1.368 . S
C1260 C1256 1.368 . S
C1260 C1259 1.523 . S
H1261 C1236 0.950 . S
H1262 C1238 0.950 . S
H1263 C1239 0.949 . S
H1264 C1241 0.950 . S
H1265 C1243 0.950 . S
C1266 C1267 1.349 . S
C1266 C1268 1.327 . S
C1266 H1291 0.950 . S
C1267 C1266 1.349 . S
C1267 C1283 1.349 . S
C1268 C1266 1.327 . S
C1268 C1287 1.429 . S
C1268 H1292 0.950 . S
C1269 C1286 1.574 . S
C1269 C1288 1.368 . S
C1269 H1293 0.949 . S
H1270 C1274 0.949 . S
C1271 C1272 1.349 . S
C1271 C1273 1.327 . S
C1271 H1294 0.950 . S
C1272 C1271 1.349 . S
C1272 C1284 1.349 . S
C1273 C1271 1.327 . S
C1273 C1289 1.429 . S
C1273 H1295 0.950 . S
C1274 H1270 0.949 . S
C1274 C1282 1.574 . S
C1274 C1290 1.368 . S
H1275 C1283 0.950 . S
H1276 C1281 0.950 . S
H1277 C1282 0.949 . S
H1278 C1284 0.950 . S
H1279 C1285 0.950 . S
H1280 C1286 0.949 . S
C1281 H1276 0.950 . S
C1281 C1283 1.327 . S
C1281 C1287 1.429 . S
C1282 C1274 1.574 . S
C1282 H1277 0.949 . S
C1282 C1288 1.368 . S
C1283 C1267 1.349 . S
C1283 H1275 0.950 . S
C1283 C1281 1.327 . S
C1284 C1272 1.349 . S
C1284 H1278 0.950 . S
C1284 C1285 1.327 . S
C1285 H1279 0.950 . S
C1285 C1284 1.327 . S
C1285 C1289 1.429 . S
C1286 C1269 1.574 . S
C1286 H1280 0.949 . S
C1286 C1290 1.368 . S
C1287 C1268 1.429 . S
C1287 C1281 1.429 . S
C1287 C1288 1.523 . S
C1288 C1269 1.368 . S
C1288 C1282 1.368 . S
C1288 C1287 1.523 . S
C1289 C1273 1.429 . S
C1289 C1285 1.429 . S
C1289 C1290 1.523 . S
C1290 C1274 1.368 . S
C1290 C1286 1.368 . S
C1290 C1289 1.523 . S
H1291 C1266 0.950 . S
H1292 C1268 0.950 . S
H1293 C1269 0.949 . S
H1294 C1271 0.950 . S
H1295 C1273 0.950 . S
C397 N310 1.710 . S
C402 N13 1.710 . S
C427 N46 1.710 . S
C432 N343 1.710 . S
C457 N376 1.710 . S
C462 N79 1.710 . S
C487 N112 1.710 . S
C492 N211 1.710 . S
C517 N145 1.710 . S
C522 N244 1.710 . S
C547 N277 1.710 . S
C552 N178 1.710 . S
C577 C348 1.672 . S
C582 C18 1.672 . S
C607 C381 1.672 . S
C612 C51 1.672 . S
C637 C84 1.672 . S
C642 C216 1.672 . S
C667 C249 1.672 . S
C672 C117 1.672 . S
C697 C282 1.672 . S
C702 C150 1.672 . S
C727 C183 1.672 . S
C732 C315 1.672 . S
C757 C238 0.585 . S
C762 C106 0.585 . S
C787 C271 0.585 . S
C792 C139 0.585 . S
C817 C172 0.585 . S
C822 C304 0.585 . S
C847 C7 0.585 . S
C852 C337 0.585 . S
C877 C40 0.585 . S
C882 C370 0.585 . S
C907 C205 0.585 . S
C912 C73 0.585 . S
C937 N2 1.139 . S
C942 C153 1.185 . S
C967 N35 1.139 . S
C972 C186 1.185 . S
C997 N68 1.139 . S
C1002 C21 1.185 . S
C1027 C54 1.185 . S
C1032 N101 1.139 . S
C1057 N134 1.139 . S
C1062 C87 1.185 . S
C1087 C120 1.185 . S
C1092 N167 1.139 . S
C1117 C285 1.185 . S
C1122 N200 1.139 . S
C1147 C318 1.185 . S
C1152 N233 1.139 . S
C1177 C351 1.185 . S
C1182 N266 1.139 . S
C1207 N299 1.139 . S
C1212 C384 1.185 . S
C1237 C219 1.185 . S
C1242 N332 1.139 . S
C1267 N365 1.139 . S
C1272 C252 1.185 . S
