# Generated by pormake.
# Topology nbo, (4)-cn, num edge types: 1
# Building blocks:
#     Node 0, Type 0, BuildingBlock: KOZSID_clean_sbu_0, # of connection points: 4
#     Node 1, Type 0, BuildingBlock: KOZSID_clean_sbu_0, # of connection points: 4
#     Node 2, Type 0, BuildingBlock: KOZSID_clean_sbu_0, # of connection points: 4
#     Node 3, Type 0, BuildingBlock: KOZSID_clean_sbu_0, # of connection points: 4
#     Node 4, Type 0, BuildingBlock: KOZSID_clean_sbu_0, # of connection points: 4
#     Node 5, Type 0, BuildingBlock: KOZSID_clean_sbu_0, # of connection points: 4
#     Edge 6, Type (0, 0), BuildingBlock: KIFKEQ_clean_linker_1, # of connection points: 2
#     Edge 7, Type (0, 0), BuildingBlock: KIFKEQ_clean_linker_1, # of connection points: 2
#     Edge 8, Type (0, 0), BuildingBlock: KIFKEQ_clean_linker_1, # of connection points: 2
#     Edge 9, Type (0, 0), BuildingBlock: KIFKEQ_clean_linker_1, # of connection points: 2
#     Edge 10, Type (0, 0), BuildingBlock: KIFKEQ_clean_linker_1, # of connection points: 2
#     Edge 11, Type (0, 0), BuildingBlock: KIFKEQ_clean_linker_1, # of connection points: 2
#     Edge 12, Type (0, 0), BuildingBlock: KIFKEQ_clean_linker_1, # of connection points: 2
#     Edge 13, Type (0, 0), BuildingBlock: KIFKEQ_clean_linker_1, # of connection points: 2
#     Edge 14, Type (0, 0), BuildingBlock: KIFKEQ_clean_linker_1, # of connection points: 2
#     Edge 15, Type (0, 0), BuildingBlock: KIFKEQ_clean_linker_1, # of connection points: 2
#     Edge 16, Type (0, 0), BuildingBlock: KIFKEQ_clean_linker_1, # of connection points: 2
#     Edge 17, Type (0, 0), BuildingBlock: KIFKEQ_clean_linker_1, # of connection points: 2
# Relax obj value: 0.000
# Max RMSD: 0.000
# Mean RMSD: 0.000
data_MOF--net-nbo--node1-KOZSID_clean_sbu_0--edge1-KIFKEQ_clean_linker_1
_symmetry_space_group_name_H-M    P1
_symmetry_Int_Tables_number       1
_symmetry_cell_setting            triclinic
loop_
_symmetry_equiv_pos_as_xyz
'x, y, z'
_cell_length_a     33.876911
_cell_length_b     39.593876
_cell_length_c     36.813183
_cell_angle_alpha  106.35282
_cell_angle_beta   107.53041
_cell_angle_gamma 106.93576
loop_
_atom_site_label
_atom_site_type_symbol
_atom_site_fract_x
_atom_site_fract_y
_atom_site_fract_z
_atom_type_partial_charge
C0 C 0.90117 0.9843 0.46494 0.0
C1 C 0.86312 0.96761 0.42727 0.0
C2 C 0.8779 0.9602 0.39655 0.0
C3 C 0.92394 0.97305 0.41699 0.0
N4 N 0.93958 0.98787 0.45902 0.0
Co5 Co 0.00477 0.01302 0.50065 0.0
N6 N 0.02656 1.00446 0.45525 0.0
C7 C 1.00077 0.98744 0.41367 0.0
C8 C 0.02529 0.98528 0.39021 0.0
C9 C 0.06941 1.00128 0.41844 0.0
C10 C 0.06916 0.01207 0.45766 0.0
N11 N 0.06998 0.03886 0.54229 0.0
C12 C 0.1085 0.04308 0.53643 0.0
C13 C 0.14672 0.06143 0.57413 0.0
C14 C 0.13189 0.06915 0.60478 0.0
C15 C 0.08568 0.05495 0.5843 0.0
N16 N 0.98296 0.02093 0.54605 0.0
C17 C 0.00868 0.03663 0.58758 0.0
C18 C 0.98406 0.03744 0.61104 0.0
C19 C 0.93995 0.02176 0.58286 0.0
C20 C 0.94031 0.01262 0.54369 0.0
N21 N 1.0023 0.96215 0.50085 0.0
C22 C 1.00136 0.89051 0.50091 0.0
C23 C 0.02342 0.92386 0.53781 0.0
C24 C 0.02326 0.95894 0.53712 0.0
C25 C 0.97939 0.8936 0.46398 0.0
C26 C 0.98046 0.92938 0.46462 0.0
N27 N 0.00727 0.06389 0.50046 0.0
C28 C 0.02501 0.13136 0.53746 0.0
C29 C 0.00874 0.13565 0.50006 0.0
C30 C 0.99193 0.1033 0.46291 0.0
C31 C 0.9916 0.06815 0.46381 0.0
C32 C 0.02393 0.0956 0.53695 0.0
H33 H 0.97812 0.04478 0.43437 0.0
H34 H 0.03667 0.09432 0.56651 0.0
H35 H 0.04052 0.98308 0.56638 0.0
H36 H 0.96371 0.92985 0.43533 0.0
C37 C 0.95356 0.97338 0.3976 0.0
C38 C 0.89949 0.99783 0.50546 0.0
C39 C 0.11012 0.02812 0.49608 0.0
C40 C 0.05597 0.05259 0.60368 0.0
H41 H 0.82831 0.96211 0.42223 0.0
H42 H 0.85765 0.94796 0.36328 0.0
H43 H 0.01256 0.9731 0.35658 0.0
H44 H 0.09847 1.00416 0.411 0.0
H45 H 0.18168 0.0676 0.5793 0.0
H46 H 0.15222 0.08209 0.63808 0.0
H47 H 0.99675 0.04889 0.64465 0.0
H48 H 0.91086 0.01821 0.59034 0.0
H49 H 0.04042 0.92287 0.56733 0.0
H50 H 0.96215 0.86864 0.4345 0.0
H51 H 0.039 0.15556 0.56719 0.0
H52 H 0.97826 0.10476 0.43301 0.0
C53 C 0.54682 0.03809 0.09952 0.0
C54 C 0.58854 0.05464 0.13359 0.0
C55 C 0.62102 0.06278 0.11889 0.0
C56 C 0.59748 0.05058 0.07686 0.0
N57 N 0.55182 0.03556 0.06376 0.0
Co58 Co 0.5049 0.01174 0.00465 0.0
N59 N 0.55286 0.02166 0.98285 0.0
C60 C 0.59838 0.03859 0.00543 0.0
C61 C 0.62274 0.04245 0.98201 0.0
C62 C 0.59091 0.02765 0.94208 0.0
C63 C 0.54881 0.01571 0.94353 0.0
N64 N 0.45797 0.98728 0.94549 0.0
C65 C 0.46293 0.98412 0.9096 0.0
C66 C 0.4212 0.96608 0.87534 0.0
C67 C 0.38877 0.95767 0.89006 0.0
C68 C 0.41233 0.97109 0.93227 0.0
N69 N 0.45693 1.00244 0.02648 0.0
C70 C 0.41143 0.98677 0.00403 0.0
C71 C 0.38708 0.98404 0.02759 0.0
C72 C 0.41885 0.99841 0.06748 0.0
C73 C 0.46092 1.00889 0.06587 0.0
N74 N 0.5046 0.06302 0.00907 0.0
C75 C 0.50456 0.13526 0.01192 0.0
C76 C 0.46412 0.1019 0.99259 0.0
C77 C 0.46489 0.06656 0.99173 0.0
C78 C 0.54497 0.13175 0.03033 0.0
C79 C 0.54424 0.09575 0.02849 0.0
N80 N 0.50518 0.96047 1.00026 0.0
C81 C 0.4649 0.89294 0.98451 0.0
C82 C 0.50562 0.88865 0.99857 0.0
C83 C 0.54609 0.92089 0.0127 0.0
C84 C 0.5451 0.9561 0.01317 0.0
C85 C 0.46545 0.92868 0.98556 0.0
H86 H 0.57714 0.97948 0.02465 0.0
H87 H 0.43324 0.92992 0.9746 0.0
H88 H 0.43288 0.04243 0.97639 0.0
H89 H 0.57625 0.09514 0.0428 0.0
C90 C 0.61724 0.0514 0.04871 0.0
C91 C 0.50349 0.0236 0.10239 0.0
C92 C 0.50609 0.99976 0.90681 0.0
C93 C 0.39256 0.97217 0.96059 0.0
H94 H 0.59499 0.05957 0.16566 0.0
H95 H 0.65747 0.07518 0.13659 0.0
H96 H 0.65928 0.05507 0.99278 0.0
H97 H 0.59789 0.02625 0.915 0.0
H98 H 0.41467 0.96054 0.84314 0.0
H99 H 0.35231 0.94465 0.87227 0.0
H100 H 0.35053 0.97204 0.0169 0.0
H101 H 0.41183 1.00028 0.09462 0.0
H102 H 0.43184 0.1027 0.97734 0.0
H103 H 0.57724 0.15669 0.04643 0.0
H104 H 0.43251 0.86876 0.97247 0.0
H105 H 0.57865 0.91935 0.02429 0.0
C106 C 0.1071 0.54979 0.03403 0.0
C107 C 0.14447 0.58514 0.05569 0.0
C108 C 0.12802 0.61276 0.06301 0.0
C109 C 0.0818 0.59281 0.04569 0.0
N110 N 0.06764 0.55403 0.02798 0.0
Co111 Co 1.00333 0.51411 0.9994 0.0
N112 N 0.97912 0.55495 0.0086 0.0
C113 C 1.00343 0.59368 0.02701 0.0
C114 C 0.97745 0.61432 0.0296 0.0
C115 C 0.93392 0.5872 0.01222 0.0
C116 C 0.93593 0.55144 0.99994 0.0
N117 N 0.93902 0.4742 0.97118 0.0
C118 C 0.89976 0.47845 0.96666 0.0
C119 C 0.86239 0.44313 0.94603 0.0
C120 C 0.87864 0.41547 0.93773 0.0
C121 C 0.92477 0.43541 0.95364 0.0
N122 N 0.02752 0.47327 0.98993 0.0
C123 C 1.00304 0.43457 0.97036 0.0
C124 C 0.0289 0.41389 0.96739 0.0
C125 C 0.07256 0.44093 0.98585 0.0
C126 C 0.0708 0.47674 0.99928 0.0
N127 N 0.00628 0.51236 0.0536 0.0
C128 C 0.00802 0.50973 0.12992 0.0
C129 C 0.99242 0.47588 0.09472 0.0
C130 C 0.99173 0.47783 0.05721 0.0
C131 C 0.02311 0.54494 0.12631 0.0
C132 C 0.02212 0.54559 0.08828 0.0
N133 N 1.00037 0.51586 0.94513 0.0
C134 C 0.98096 0.48323 0.87175 0.0
C135 C 0.9985 0.5184 0.86863 0.0
C136 C 0.01661 0.55228 0.90449 0.0
C137 C 0.01724 0.55036 0.94199 0.0
C138 C 0.98214 0.48264 0.90985 0.0
H139 H 0.03172 0.57724 0.96804 0.0
H140 H 0.96841 0.45489 0.90999 0.0
H141 H 0.97889 0.45097 0.03148 0.0
H142 H 0.0342 0.57335 0.0877 0.0
C143 C 0.05081 0.60973 0.04406 0.0
C144 C 0.11094 0.51316 0.0192 0.0
C145 C 0.89626 0.51507 0.98231 0.0
C146 C 0.95568 0.41852 0.95415 0.0
H147 H 0.17994 0.59041 0.06483 0.0
H148 H 0.14741 0.64373 0.07856 0.0
H149 H 0.98892 0.64536 0.04357 0.0
H150 H 0.90419 0.59309 0.00977 0.0
H151 H 0.8271 0.43793 0.93834 0.0
H152 H 0.85924 0.38449 0.92264 0.0
H153 H 0.01733 0.38286 0.95288 0.0
H154 H 0.10222 0.43491 0.98848 0.0
H155 H 0.97991 0.44785 0.0958 0.0
H156 H 0.0361 0.57201 0.15284 0.0
H157 H 0.96703 0.45608 0.84509 0.0
H158 H 0.02999 0.58034 0.90371 0.0
C159 C 0.56472 0.50765 0.95978 0.0
C160 C 0.56215 0.4942 0.91964 0.0
C161 C 0.51732 0.47861 0.89322 0.0
C162 C 0.49517 0.48333 0.91861 0.0
N163 N 0.52317 0.50149 0.95971 0.0
Co164 Co 0.50519 0.51248 0.00754 0.0
N165 N 0.43905 0.48767 0.96866 0.0
C166 C 0.42073 0.47113 0.92652 0.0
C167 C 0.37437 0.45785 0.90838 0.0
C168 C 0.36233 0.46694 0.94083 0.0
C169 C 0.40225 0.4853 0.97698 0.0
N170 N 0.48718 0.52299 0.05538 0.0
C171 C 0.44565 0.51675 0.05533 0.0
C172 C 0.44799 0.52885 0.09545 0.0
C173 C 0.49276 0.54379 0.12188 0.0
C174 C 0.51505 0.53993 0.09649 0.0
N175 N 0.57133 0.53781 0.04643 0.0
C176 C 0.58966 0.5552 0.08852 0.0
C177 C 0.63612 0.5696 0.10665 0.0
C178 C 0.64825 0.5605 0.07425 0.0
C179 C 0.60826 0.54089 0.03813 0.0
N180 N 0.50773 0.56302 0.00621 0.0
C181 C 0.50857 0.63425 0.00445 0.0
C182 C 0.52744 0.63111 0.04212 0.0
C183 C 0.52668 0.59563 0.04228 0.0
C184 C 0.48966 0.60106 0.96766 0.0
C185 C 0.48963 0.56615 0.96924 0.0
N186 N 0.50266 0.46191 0.00888 0.0
C187 C 0.52531 0.42462 0.04666 0.0
C188 C 0.5021 0.39069 0.0103 0.0
C189 C 0.47874 0.393 0.9733 0.0
C190 C 0.47958 0.42855 0.97326 0.0
C191 C 0.52496 0.4595 0.04531 0.0
H192 H 0.46164 0.4283 0.94392 0.0
H193 H 0.54319 0.48416 0.07415 0.0
H194 H 0.5415 0.59529 0.07203 0.0
H195 H 0.47436 0.54199 0.9401 0.0
C196 C 0.44811 0.46985 0.90486 0.0
C197 C 0.60707 0.52436 0.99692 0.0
C198 C 0.40357 0.50141 0.01831 0.0
C199 C 0.56219 0.55486 0.11023 0.0
H200 H 0.58975 0.49488 0.91043 0.0
H201 H 0.50254 0.46472 0.85955 0.0
H202 H 0.35211 0.444 0.87548 0.0
H203 H 0.32813 0.46138 0.9382 0.0
H204 H 0.42029 0.52783 0.10459 0.0
H205 H 0.50746 0.55707 0.15559 0.0
H206 H 0.65842 0.58397 0.13955 0.0
H207 H 0.68256 0.56682 0.0769 0.0
H208 H 0.54318 0.65601 0.07152 0.0
H209 H 0.47408 0.6017 0.93764 0.0
H210 H 0.54341 0.42429 0.07626 0.0
H211 H 0.46056 0.36762 0.94418 0.0
C212 C 0.04501 0.53982 0.59395 0.0
C213 C 0.0866 0.5568 0.62825 0.0
C214 C 0.11928 0.56487 0.61377 0.0
C215 C 0.09599 0.55223 0.57163 0.0
N216 N 0.0503 0.53695 0.55824 0.0
Co217 Co 1.00372 0.51252 0.49892 0.0
N218 N 0.052 0.52243 0.47749 0.0
C219 C 0.09748 0.53964 0.50033 0.0
C220 C 0.12209 0.54341 0.47711 0.0
C221 C 0.09049 0.52824 0.43702 0.0
C222 C 0.04824 0.51618 0.43818 0.0
N223 N 0.95714 0.4875 0.43956 0.0
C224 C 0.96239 0.48409 0.40376 0.0
C225 C 0.92081 0.4657 0.36929 0.0
C226 C 0.88818 0.45733 0.38378 0.0
C227 C 0.91147 0.4711 0.42608 0.0
N228 N 0.95543 0.50319 0.52038 0.0
C229 C 0.90996 0.48712 0.49763 0.0
C230 C 0.88532 0.48445 0.52096 0.0
C231 C 0.91687 0.4993 0.56102 0.0
C232 C 0.95911 0.50999 0.55975 0.0
N233 N 1.00298 0.56351 0.50254 0.0
C234 C 1.00242 0.63512 0.50383 0.0
C235 C 0.96214 0.60172 0.48458 0.0
C236 C 0.96314 0.56665 0.48456 0.0
C237 C 0.04292 0.63216 0.52308 0.0
C238 C 0.04246 0.59641 0.52193 0.0
N239 N 0.00446 0.46155 0.49531 0.0
C240 C 0.9646 0.39395 0.47958 0.0
C241 C 0.0055 0.39008 0.49442 0.0
C242 C 0.04584 0.42257 0.50897 0.0
C243 C 0.04455 0.45758 0.509 0.0
C244 C 0.96486 0.42954 0.48029 0.0
H245 H 0.07651 0.48114 0.52076 0.0
H246 H 0.93254 0.43047 0.46879 0.0
H247 H 0.93121 0.54244 0.46952 0.0
H248 H 0.07456 0.59606 0.53654 0.0
C249 C 0.11604 0.55287 0.54365 0.0
C250 C 1.00155 0.52532 0.59661 0.0
C251 C 0.00568 0.49982 0.40119 0.0
C252 C 0.89141 0.47223 0.45418 0.0
H253 H 0.09284 0.56207 0.66036 0.0
H254 H 0.1557 0.57755 0.63169 0.0
H255 H 0.15865 0.55624 0.4881 0.0
H256 H 0.09769 0.52668 0.41003 0.0
H257 H 0.91451 0.4599 0.33708 0.0
H258 H 0.85175 0.44406 0.36578 0.0
H259 H 0.84875 0.47223 0.51001 0.0
H260 H 0.90961 0.50138 0.58806 0.0
H261 H 0.92978 0.60263 0.4698 0.0
H262 H 0.07509 0.65717 0.53819 0.0
H263 H 0.9323 0.36958 0.46718 0.0
H264 H 0.07853 0.42139 0.5212 0.0
C265 C 0.60931 0.04621 0.53721 0.0
C266 C 0.64687 0.08144 0.55672 0.0
C267 C 0.63118 0.10942 0.56518 0.0
C268 C 0.58514 0.08991 0.55017 0.0
N269 N 0.57036 0.05103 0.53294 0.0
Co270 Co 0.50563 0.0118 0.50482 0.0
N271 N 0.48246 0.05329 0.51385 0.0
C272 C 0.50739 0.09192 0.53196 0.0
C273 C 0.48198 0.11317 0.53324 0.0
C274 C 0.43816 0.08657 0.51541 0.0
C275 C 0.43946 0.05047 0.50458 0.0
N276 N 0.44091 0.97255 0.47678 0.0
C277 C 0.40191 0.97739 0.47212 0.0
C278 C 0.36438 0.94216 0.45286 0.0
C279 C 0.38013 0.91416 0.4449 0.0
C280 C 0.42617 0.93366 0.45995 0.0
N281 N 0.52881 0.97031 0.49567 0.0
C282 C 0.50392 0.93167 0.47756 0.0
C283 C 0.52933 0.91045 0.47582 0.0
C284 C 0.5731 0.93708 0.49327 0.0
C285 C 0.57175 0.97316 0.50436 0.0
N286 N 0.5085 1.01082 0.55931 0.0
C287 C 0.50948 1.00924 0.63587 0.0
C288 C 0.49273 0.97512 0.60064 0.0
C289 C 0.49248 0.97655 0.56311 0.0
C290 C 0.52628 0.04422 0.63214 0.0
C291 C 0.52557 0.04434 0.59398 0.0
N292 N 0.50272 0.01277 0.45036 0.0
C293 C 0.48358 0.97925 0.37723 0.0
C294 C 0.50047 0.01419 0.37351 0.0
C295 C 0.51832 0.04837 0.40889 0.0
C296 C 0.51922 0.04701 0.44663 0.0
C297 C 0.48487 0.97921 0.41555 0.0
H298 H 0.5338 0.07409 0.4724 0.0
H299 H 0.47135 0.95165 0.41625 0.0
H300 H 0.47893 0.94948 0.5376 0.0
H301 H 0.53862 0.07193 0.59324 0.0
C302 C 0.55471 0.10737 0.54866 0.0
C303 C 0.61196 1.00909 0.52136 0.0
C304 C 0.39913 0.01455 0.48718 0.0
C305 C 0.4566 0.9162 0.46124 0.0
H306 H 0.68193 0.08667 0.5632 0.0
H307 H 0.65082 0.14036 0.57919 0.0
H308 H 0.49394 0.14429 0.54618 0.0
H309 H 0.40861 0.09303 0.51145 0.0
H310 H 0.32928 0.93697 0.44611 0.0
H311 H 0.36049 0.88322 0.431 0.0
H312 H 0.51738 0.87933 0.46277 0.0
H313 H 0.60264 0.93066 0.49674 0.0
H314 H 0.48006 0.94721 0.60194 0.0
H315 H 0.53922 0.07154 0.65832 0.0
H316 H 0.46894 0.95197 0.35058 0.0
H317 H 0.53237 0.07619 0.40776 0.0
H318 H 0.02659 0.16841 0.44699 0.0
H319 H 0.9914 0.18856 0.55225 0.0
H320 H 0.02477 0.22887 0.44502 0.0
H321 H 0.99198 0.25004 0.55167 0.0
H322 H 0.94939 0.33785 0.51224 0.0
H323 H 0.94985 0.27667 0.51285 0.0
H324 H 0.06505 0.29717 0.48122 0.0
H325 H 0.06303 0.35736 0.47839 0.0
C326 C 0.01846 0.1857 0.46976 0.0
C327 C 0.009 0.17336 0.4997 0.0
C328 C 0.01802 0.22073 0.46897 0.0
C329 C 0.00828 0.24454 0.49821 0.0
C330 C 0.99908 0.23232 0.52831 0.0
C331 C 0.99937 0.19722 0.52901 0.0
C332 C 0.97445 0.32912 0.50484 0.0
C333 C 0.00608 0.35267 0.49513 0.0
C334 C 0.97513 0.29419 0.50578 0.0
C335 C 0.00756 0.28184 0.4972 0.0
C336 C 0.03922 0.30541 0.48753 0.0
C337 C 0.03844 0.34028 0.48645 0.0
H338 H 0.81859 0.93702 0.47843 0.0
H339 H 0.88568 0.06132 0.53947 0.0
H340 H 0.74823 0.93959 0.48217 0.0
H341 H 0.816 0.06378 0.54491 0.0
H342 H 0.69323 0.03302 0.58663 0.0
H343 H 0.7638 0.03058 0.58328 0.0
H344 H 0.69585 0.97676 0.44905 0.0
H345 H 0.62596 0.98079 0.45237 0.0
C346 C 0.8181 0.96479 0.49259 0.0
C347 C 0.85703 0.99901 0.50818 0.0
C348 C 0.77815 0.96625 0.49483 0.0
C349 C 0.77706 1.00187 0.51379 0.0
C350 C 0.81628 0.03602 0.53027 0.0
C351 C 0.85588 0.03462 0.52713 0.0
C352 C 0.69375 0.02112 0.55652 0.0
C353 C 0.65469 1.00756 0.51974 0.0
C354 C 0.73381 0.01963 0.55461 0.0
C355 C 0.73488 1.0035 0.51592 0.0
C356 C 0.69557 0.9892 0.47918 0.0
C357 C 0.65586 0.99155 0.48107 0.0
H358 H 0.95537 0.64826 0.43842 0.0
H359 H 0.04907 0.70672 0.56825 0.0
H360 H 0.95548 0.70953 0.43731 0.0
H361 H 0.04842 0.76797 0.56763 0.0
H362 H 0.0728 0.8769 0.54257 0.0
H363 H 0.07327 0.81557 0.54291 0.0
H364 H 0.93026 0.75785 0.46052 0.0
H365 H 0.93029 0.81916 0.45947 0.0
C366 C 0.97562 0.67419 0.46688 0.0
C367 C 1.0022 0.67258 0.50343 0.0
C368 C 0.97562 0.70939 0.46631 0.0
C369 C 1.00191 0.74393 0.50239 0.0
C370 C 0.02836 0.7422 0.53901 0.0
C371 C 0.02866 0.70703 0.53945 0.0
C372 C 0.04142 0.85111 0.52469 0.0
C373 C 1.0015 0.85294 0.50101 0.0
C374 C 0.04162 0.81588 0.52496 0.0
C375 C 1.00178 0.78153 0.50183 0.0
C376 C 0.96182 0.78346 0.47817 0.0
C377 C 0.96175 0.81866 0.47762 0.0
H378 H 0.31892 0.99022 0.42047 0.0
H379 H 0.38317 0.04331 0.55483 0.0
H380 H 0.24779 0.99308 0.42178 0.0
H381 H 0.31275 0.04778 0.55607 0.0
H382 H 0.1905 0.08845 0.52043 0.0
H383 H 0.26114 0.08515 0.5182 0.0
H384 H 0.19443 0.96073 0.46195 0.0
H385 H 0.12446 0.96401 0.46594 0.0
C386 C 0.31762 1.0024 0.45017 0.0
C387 C 0.356 0.01614 0.48757 0.0
C388 C 0.27725 1.00414 0.4509 0.0
C389 C 0.27523 0.02067 0.48902 0.0
C390 C 0.31381 0.03504 0.52638 0.0
C391 C 0.35381 0.03244 0.52567 0.0
C392 C 0.19127 0.0605 0.50798 0.0
C393 C 0.15259 0.02647 0.49388 0.0
C394 C 0.23136 0.05862 0.5066 0.0
C395 C 0.23282 0.0227 0.48995 0.0
C396 C 0.19382 0.98869 0.47481 0.0
C397 C 0.15407 0.99056 0.47713 0.0
H398 H 0.47807 0.06184 0.33784 0.0
H399 H 0.52164 0.9686 0.31812 0.0
H400 H 0.47791 0.06385 0.27222 0.0
H401 H 0.52214 0.97089 0.25276 0.0
H402 H 0.47535 0.95992 0.11829 0.0
H403 H 0.47303 0.95703 0.18319 0.0
H404 H 0.5283 0.08174 0.24061 0.0
H405 H 0.52888 0.08409 0.17503 0.0
C406 C 0.48796 0.04196 0.31962 0.0
C407 C 0.49986 0.01506 0.33321 0.0
C408 C 0.48797 0.04315 0.28202 0.0
C409 C 0.50009 0.01758 0.25713 0.0
C410 C 0.51189 0.9906 0.27073 0.0
C411 C 0.51166 0.9893 0.30825 0.0
C412 C 0.48683 0.98657 0.14492 0.0
C413 C 0.5025 0.02221 0.14206 0.0
C414 C 0.48585 0.98503 0.18214 0.0
C415 C 0.50064 0.01917 0.21729 0.0
C416 C 0.51612 0.05485 0.21409 0.0
C417 C 0.51684 0.05632 0.17677 0.0
H418 H 0.9827 0.55247 0.18359 0.0
H419 H 0.03362 0.46376 0.16674 0.0
H420 H 0.98229 0.54987 0.24884 0.0
H421 H 0.03388 0.46148 0.23232 0.0
H422 H 0.98393 0.43949 0.3297 0.0
H423 H 0.98415 0.44166 0.26394 0.0
H424 H 0.03179 0.56591 0.3189 0.0
H425 H 0.02985 0.56314 0.38394 0.0
C426 C 0.99428 0.53269 0.19406 0.0
C427 C 0.00822 0.50834 0.16996 0.0
C428 C 0.99411 0.53123 0.23154 0.0
C429 C 0.00811 0.5055 0.246 0.0
C430 C 0.02217 0.48121 0.22189 0.0
C431 C 0.02211 0.48254 0.18429 0.0
C432 C 0.99423 0.46711 0.32738 0.0
C433 C 0.00652 0.50111 0.36143 0.0
C434 C 0.99474 0.46849 0.28995 0.0
C435 C 0.00792 0.50398 0.28598 0.0
C436 C 0.02072 0.53803 0.32051 0.0
C437 C 0.01996 0.53657 0.35782 0.0
H438 H 0.5743 0.05685 0.71534 0.0
H439 H 0.44367 0.95937 0.64735 0.0
H440 H 0.57356 0.05477 0.78075 0.0
H441 H 0.4434 0.95702 0.71269 0.0
H442 H 0.48358 0.93946 0.83505 0.0
H443 H 0.48466 0.94187 0.76952 0.0
H444 H 0.53171 0.06598 0.82441 0.0
H445 H 0.53059 0.06323 0.88981 0.0
C446 C 0.54526 0.03517 0.71429 0.0
C447 C 0.5091 1.00822 0.67594 0.0
C448 C 0.5449 0.03395 0.75181 0.0
C449 C 0.50849 1.00565 0.75191 0.0
C450 C 0.4723 0.97878 0.71365 0.0
C451 C 0.47253 0.98012 0.67616 0.0
C452 C 0.49396 0.96711 0.83281 0.0
C453 C 0.50671 1.00113 0.86703 0.0
C454 C 0.49446 0.96856 0.79541 0.0
C455 C 0.50817 1.00413 0.79174 0.0
C456 C 0.5214 0.0382 0.82635 0.0
C457 C 0.52057 0.03668 0.86362 0.0
H458 H 0.97396 0.46237 0.61388 0.0
H459 H 0.02595 0.58654 0.66831 0.0
H460 H 0.97252 0.46067 0.67952 0.0
H461 H 0.02455 0.5852 0.73411 0.0
H462 H 0.0645 0.5675 0.85654 0.0
H463 H 0.0643 0.5695 0.79092 0.0
H464 H 0.93224 0.47399 0.7239 0.0
H465 H 0.93203 0.47225 0.78953 0.0
C466 C 0.98494 0.48925 0.64002 0.0
C467 C 1.00034 0.52458 0.63645 0.0
C468 C 0.98396 0.48834 0.67746 0.0
C469 C 0.99853 0.52282 0.71209 0.0
C470 C 0.01367 0.55818 0.70822 0.0
C471 C 0.01435 0.55902 0.67067 0.0
C472 C 0.03512 0.54721 0.8279 0.0
C473 C 0.99826 0.51973 0.82846 0.0
C474 C 0.03507 0.54834 0.79025 0.0
C475 C 0.99826 0.5219 0.75216 0.0
C476 C 0.9614 0.49442 0.75265 0.0
C477 C 0.96134 0.4934 0.79032 0.0
H478 H 0.15532 0.53461 0.9738 0.0
H479 H 0.16594 0.49172 0.07015 0.0
H480 H 0.22772 0.53314 0.97607 0.0
H481 H 0.23881 0.49054 0.07307 0.0
H482 H 0.33734 0.45016 0.02694 0.0
H483 H 0.26724 0.45426 0.02932 0.0
H484 H 0.3088 0.56504 0.02125 0.0
H485 H 0.37831 0.56022 0.01815 0.0
C486 C 0.17354 0.52511 0.99562 0.0
C487 C 0.15543 0.51311 0.02167 0.0
C488 C 0.21498 0.52444 0.99715 0.0
C489 C 0.23903 0.51172 0.02477 0.0
C490 C 0.22086 0.50005 0.05113 0.0
C491 C 0.17943 0.50086 0.04966 0.0
C492 C 0.33131 0.47538 0.02601 0.0
C493 C 0.36265 0.50489 0.02238 0.0
C494 C 0.29148 0.47789 0.02755 0.0
C495 C 0.28241 0.50994 0.02535 0.0
C496 C 0.31449 0.53975 0.02243 0.0
C497 C 0.35427 0.5372 0.02092 0.0
H498 H 0.57409 0.37746 0.05185 0.0
H499 H 0.43108 0.31921 0.97005 0.0
H500 H 0.57477 0.31626 0.05301 0.0
H501 H 0.43199 0.25788 0.97051 0.0
H502 H 0.44149 0.16424 0.01963 0.0
H503 H 0.4408 0.22546 0.01901 0.0
H504 H 0.56722 0.25408 0.00559 0.0
H505 H 0.56759 0.19255 0.00529 0.0
C506 C 0.54275 0.35162 0.03423 0.0
C507 C 0.5025 0.35329 0.01092 0.0
C508 C 0.54325 0.31647 0.03456 0.0
C509 C 0.50344 0.28213 0.01184 0.0
C510 C 0.46316 0.28382 0.98866 0.0
C511 C 0.46273 0.31893 0.98807 0.0
C512 C 0.46894 0.18331 0.01607 0.0
C513 C 0.50457 0.17319 0.01246 0.0
C514 C 0.46856 0.2185 0.01581 0.0
C515 C 0.50395 0.2447 0.01225 0.0
C516 C 0.53974 0.23481 0.00895 0.0
C517 C 0.53998 0.19949 0.00891 0.0
H518 H 0.83314 0.52801 0.92864 0.0
H519 H 0.86267 0.50261 0.03766 0.0
H520 H 0.76176 0.52908 0.93051 0.0
H521 H 0.79204 0.50446 0.04052 0.0
H522 H 0.64163 0.47281 0.00906 0.0
H523 H 0.71072 0.46906 0.00382 0.0
H524 H 0.73505 0.56817 0.97216 0.0
H525 H 0.66521 0.57096 0.97655 0.0
C526 C 0.82412 0.52275 0.95299 0.0
C527 C 0.85288 0.51528 0.98303 0.0
C528 C 0.78358 0.52357 0.9543 0.0
C529 C 0.77121 0.51691 0.98572 0.0
C530 C 0.8002 0.50918 0.01559 0.0
C531 C 0.84065 0.50832 0.01419 0.0
C532 C 0.66189 0.49356 1.00084 0.0
C533 C 0.64856 0.52208 0.99307 0.0
C534 C 0.70147 0.49165 0.99807 0.0
C535 C 0.72849 0.51837 0.98765 0.0
C536 C 0.71473 0.54684 0.9797 0.0
C537 C 0.67506 0.54865 0.98241 0.0
H538 H 0.52239 0.66504 0.94883 0.0
H539 H 0.49418 0.68846 0.05802 0.0
H540 H 0.52061 0.72554 0.94667 0.0
H541 H 0.4945 0.74977 0.057 0.0
H542 H 0.45061 0.83731 0.01803 0.0
H543 H 0.4507 0.77595 0.01844 0.0
H544 H 0.56288 0.79423 0.98259 0.0
H545 H 0.56137 0.85475 0.98026 0.0
C546 C 0.51577 0.68304 0.97239 0.0
C547 C 0.50836 0.6717 0.00357 0.0
C548 C 0.51532 0.71805 0.97146 0.0
C549 C 0.50747 0.74272 1.00169 0.0
C550 C 0.50014 0.73139 0.03291 0.0
C551 C 0.50055 0.69638 0.03382 0.0
C552 C 0.47494 0.82806 0.00969 0.0
C553 C 0.50589 0.85109 0.99898 0.0
C554 C 0.4754 0.79303 0.01048 0.0
C555 C 0.50688 0.78003 1.00065 0.0
C556 C 0.53781 0.80303 0.9899 0.0
C557 C 0.53731 0.83806 0.98906 0.0
loop_
_geom_bond_atom_site_label_1
_geom_bond_atom_site_label_2
_geom_bond_distance
_geom_bond_site_symmetry_2
_ccdc_geom_bond_type
C0 C1 1.443 . S
C0 N4 1.376 . S
C0 C38 1.389 1_565 S
C1 C0 1.443 . S
C1 C2 1.340 . S
C1 H41 0.951 . S
C2 C1 1.340 . S
C2 C3 1.439 . S
C2 H42 0.950 . S
C3 C2 1.439 . S
C3 N4 1.374 . S
C3 C37 1.395 . S
N4 C0 1.376 . S
N4 C3 1.374 . S
N4 Co5 1.993 1_665 S
Co5 N4 1.993 1_445 S
Co5 N6 2.010 1_545 S
Co5 N11 2.024 . S
Co5 N16 1.979 1_455 S
Co5 N21 2.287 1_445 S
Co5 N27 2.278 . S
N6 Co5 2.010 1_565 S
N6 C7 1.377 . S
N6 C10 1.383 . S
C7 N6 1.377 . S
C7 C8 1.454 . S
C7 C37 1.383 1_455 S
C8 C7 1.454 . S
C8 C9 1.339 . S
C8 H43 0.949 . S
C9 C8 1.339 . S
C9 C10 1.439 . S
C9 H44 0.950 . S
C10 N6 1.383 . S
C10 C9 1.439 . S
C10 C39 1.392 1_565 S
N11 Co5 2.024 . S
N11 C12 1.376 . S
N11 C15 1.374 . S
C12 N11 1.376 . S
C12 C13 1.443 . S
C12 C39 1.389 . S
C13 C12 1.443 . S
C13 C14 1.340 . S
C13 H45 0.951 . S
C14 C13 1.340 . S
C14 C15 1.439 . S
C14 H46 0.950 . S
C15 N11 1.374 . S
C15 C14 1.439 . S
C15 C40 1.395 . S
N16 Co5 1.979 1_655 S
N16 C17 1.376 1_655 S
N16 C20 1.383 . S
C17 N16 1.376 1_455 S
C17 C18 1.446 1_455 S
C17 C40 1.391 . S
C18 C17 1.446 1_655 S
C18 C19 1.339 . S
C18 H47 0.949 . S
C19 C18 1.339 . S
C19 C20 1.439 . S
C19 H48 0.950 . S
C20 N16 1.383 . S
C20 C19 1.439 . S
C20 C38 1.392 . S
N21 Co5 2.287 1_665 S
N21 C24 1.332 1_655 S
N21 C26 1.332 . S
C22 C23 1.390 1_655 S
C22 C25 1.388 . S
C23 C22 1.390 1_455 S
C23 C24 1.384 . S
C23 H49 0.950 . S
C24 N21 1.332 1_455 S
C24 C23 1.384 . S
C24 H35 0.949 . S
C25 C22 1.388 . S
C25 C26 1.382 . S
C25 H50 0.950 . S
C26 N21 1.332 . S
C26 C25 1.382 . S
C26 H36 0.948 . S
N27 Co5 2.278 . S
N27 C31 1.332 . S
N27 C32 1.332 . S
C28 C29 1.388 . S
C28 C32 1.382 . S
C28 H51 0.950 . S
C29 C28 1.388 . S
C29 C30 1.386 1_455 S
C30 C29 1.386 1_655 S
C30 C31 1.382 1_655 S
C30 H52 0.950 . S
C31 N27 1.332 . S
C31 C30 1.382 1_455 S
C31 H33 0.952 1_455 S
C32 N27 1.332 . S
C32 C28 1.382 . S
C32 H34 0.948 . S
H33 C31 0.952 1_655 S
H34 C32 0.948 . S
H35 C24 0.949 . S
H36 C26 0.948 . S
C37 C3 1.395 . S
C37 C7 1.383 1_655 S
C38 C0 1.389 1_545 S
C38 C20 1.392 . S
C39 C10 1.392 1_545 S
C39 C12 1.389 . S
C40 C15 1.395 . S
C40 C17 1.391 . S
H41 C1 0.951 . S
H42 C2 0.950 . S
H43 C8 0.949 . S
H44 C9 0.950 . S
H45 C13 0.951 . S
H46 C14 0.950 . S
H47 C18 0.949 . S
H48 C19 0.950 . S
H49 C23 0.950 . S
H50 C25 0.950 . S
H51 C28 0.950 . S
H52 C30 0.950 . S
C53 C54 1.443 . S
C53 N57 1.376 . S
C53 C91 1.389 . S
C54 C53 1.443 . S
C54 C55 1.340 . S
C54 H94 0.951 . S
C55 C54 1.340 . S
C55 C56 1.439 . S
C55 H95 0.950 . S
C56 C55 1.439 . S
C56 N57 1.374 . S
C56 C90 1.395 . S
N57 C53 1.376 . S
N57 C56 1.374 . S
N57 Co58 2.028 . S
Co58 N57 2.028 . S
Co58 N59 1.975 1_554 S
Co58 N64 1.988 1_544 S
Co58 N69 2.015 1_545 S
Co58 N74 2.277 . S
Co58 N80 2.288 1_544 S
N59 Co58 1.975 1_556 S
N59 C60 1.376 1_556 S
N59 C63 1.383 . S
C60 N59 1.376 1_554 S
C60 C61 1.446 1_554 S
C60 C90 1.391 . S
C61 C60 1.446 1_556 S
C61 C62 1.339 . S
C61 H96 0.949 . S
C62 C61 1.339 . S
C62 C63 1.439 . S
C62 H97 0.950 . S
C63 N59 1.383 . S
C63 C62 1.439 . S
C63 C92 1.392 . S
N64 Co58 1.988 1_566 S
N64 C65 1.376 . S
N64 C68 1.374 . S
C65 N64 1.376 . S
C65 C66 1.443 . S
C65 C92 1.389 1_565 S
C66 C65 1.443 . S
C66 C67 1.340 . S
C66 H98 0.951 . S
C67 C66 1.340 . S
C67 C68 1.439 . S
C67 H99 0.950 . S
C68 N64 1.374 . S
C68 C67 1.439 . S
C68 C93 1.395 . S
N69 Co58 2.015 1_565 S
N69 C70 1.378 . S
N69 C73 1.383 . S
C70 N69 1.378 . S
C70 C71 1.460 . S
C70 C93 1.377 1_554 S
C71 C70 1.460 . S
C71 C72 1.339 . S
C71 H100 0.949 . S
C72 C71 1.339 . S
C72 C73 1.439 . S
C72 H101 0.950 . S
C73 N69 1.383 . S
C73 C72 1.439 . S
C73 C91 1.392 1_565 S
N74 Co58 2.277 . S
N74 C77 1.332 . S
N74 C79 1.332 . S
C75 C76 1.386 1_554 S
C75 C78 1.388 . S
C76 C75 1.386 1_556 S
C76 C77 1.382 1_556 S
C76 H102 0.950 . S
C77 N74 1.332 . S
C77 C76 1.382 1_554 S
C77 H88 0.952 1_554 S
C78 C75 1.388 . S
C78 C79 1.382 . S
C78 H103 0.950 . S
C79 N74 1.332 . S
C79 C78 1.382 . S
C79 H89 0.948 . S
N80 Co58 2.288 1_566 S
N80 C84 1.332 1_556 S
N80 C85 1.332 . S
C81 C82 1.388 . S
C81 C85 1.382 . S
C81 H104 0.950 . S
C82 C81 1.388 . S
C82 C83 1.387 1_556 S
C83 C82 1.387 1_554 S
C83 C84 1.386 . S
C83 H105 0.950 . S
C84 N80 1.332 1_554 S
C84 C83 1.386 . S
C84 H86 0.947 . S
C85 N80 1.332 . S
C85 C81 1.382 . S
C85 H87 0.948 . S
H86 C84 0.947 . S
H87 C85 0.948 . S
H88 C77 0.952 1_556 S
H89 C79 0.948 . S
C90 C56 1.395 . S
C90 C60 1.391 . S
C91 C53 1.389 . S
C91 C73 1.392 1_545 S
C92 C63 1.392 . S
C92 C65 1.389 1_545 S
C93 C68 1.395 . S
C93 C70 1.377 1_556 S
H94 C54 0.951 . S
H95 C55 0.950 . S
H96 C61 0.949 . S
H97 C62 0.950 . S
H98 C66 0.951 . S
H99 C67 0.950 . S
H100 C71 0.949 . S
H101 C72 0.950 . S
H102 C76 0.950 . S
H103 C78 0.950 . S
H104 C81 0.950 . S
H105 C83 0.950 . S
C106 C107 1.443 . S
C106 N110 1.376 . S
C106 C144 1.389 . S
C107 C106 1.443 . S
C107 C108 1.340 . S
C107 H147 0.951 . S
C108 C107 1.340 . S
C108 C109 1.439 . S
C108 H148 0.950 . S
C109 C108 1.439 . S
C109 N110 1.374 . S
C109 C143 1.395 . S
N110 C106 1.376 . S
N110 C109 1.374 . S
N110 Co111 2.017 . S
Co111 N110 2.017 . S
Co111 N112 1.982 1_455 S
Co111 N117 1.999 1_454 S
Co111 N122 2.007 1_554 S
Co111 N127 2.308 . S
Co111 N133 2.257 1_454 S
N112 Co111 1.982 1_655 S
N112 C113 1.376 1_655 S
N112 C116 1.383 . S
C113 N112 1.376 1_455 S
C113 C114 1.446 1_455 S
C113 C143 1.391 . S
C114 C113 1.446 1_655 S
C114 C115 1.339 . S
C114 H149 0.949 . S
C115 C114 1.339 . S
C115 C116 1.439 . S
C115 H150 0.950 . S
C116 N112 1.383 . S
C116 C115 1.439 . S
C116 C145 1.396 1_554 S
N117 Co111 1.999 1_656 S
N117 C118 1.376 . S
N117 C121 1.374 . S
C118 N117 1.376 . S
C118 C119 1.443 . S
C118 C145 1.390 . S
C119 C118 1.443 . S
C119 C120 1.340 . S
C119 H151 0.951 . S
C120 C119 1.340 . S
C120 C121 1.439 . S
C120 H152 0.950 . S
C121 N117 1.374 . S
C121 C120 1.439 . S
C121 C146 1.395 . S
N122 Co111 2.007 1_556 S
N122 C123 1.377 . S
N122 C126 1.383 . S
C123 N122 1.377 . S
C123 C124 1.454 . S
C123 C146 1.383 1_455 S
C124 C123 1.454 . S
C124 C125 1.339 . S
C124 H153 0.949 . S
C125 C124 1.339 . S
C125 C126 1.439 . S
C125 H154 0.950 . S
C126 N122 1.383 . S
C126 C125 1.439 . S
C126 C144 1.392 1_556 S
N127 Co111 2.308 . S
N127 C130 1.332 . S
N127 C132 1.332 . S
C128 C129 1.386 1_455 S
C128 C131 1.388 . S
C129 C128 1.386 1_655 S
C129 C130 1.382 1_655 S
C129 H155 0.950 . S
C130 N127 1.332 . S
C130 C129 1.382 1_455 S
C130 H141 0.952 1_455 S
C131 C128 1.388 . S
C131 C132 1.382 . S
C131 H156 0.950 . S
C132 N127 1.332 . S
C132 C131 1.382 . S
C132 H142 0.948 . S
N133 Co111 2.257 1_656 S
N133 C137 1.332 1_655 S
N133 C138 1.332 . S
C134 C135 1.388 . S
C134 C138 1.382 . S
C134 H157 0.950 . S
C135 C134 1.388 . S
C135 C136 1.390 1_655 S
C136 C135 1.390 1_455 S
C136 C137 1.384 . S
C136 H158 0.950 . S
C137 N133 1.332 1_455 S
C137 C136 1.384 . S
C137 H139 0.949 . S
C138 N133 1.332 . S
C138 C134 1.382 . S
C138 H140 0.948 . S
H139 C137 0.949 . S
H140 C138 0.948 . S
H141 C130 0.952 1_655 S
H142 C132 0.948 . S
C143 C109 1.395 . S
C143 C113 1.391 . S
C144 C106 1.389 . S
C144 C126 1.392 1_554 S
C145 C116 1.396 1_556 S
C145 C118 1.390 . S
C146 C121 1.395 . S
C146 C123 1.383 1_655 S
H147 C107 0.951 . S
H148 C108 0.950 . S
H149 C114 0.949 . S
H150 C115 0.950 . S
H151 C119 0.951 . S
H152 C120 0.950 . S
H153 C124 0.949 . S
H154 C125 0.950 . S
H155 C129 0.950 . S
H156 C131 0.950 . S
H157 C134 0.950 . S
H158 C136 0.950 . S
C159 C160 1.443 . S
C159 N163 1.376 . S
C159 C197 1.383 1_556 S
C160 C159 1.443 . S
C160 C161 1.340 . S
C160 H200 0.951 . S
C161 C160 1.340 . S
C161 C162 1.439 . S
C161 H201 0.950 . S
C162 C161 1.439 . S
C162 N163 1.374 . S
C162 C196 1.395 . S
N163 C159 1.376 . S
N163 C162 1.374 . S
N163 Co164 1.985 1_556 S
Co164 N163 1.985 1_554 S
Co164 N165 1.985 1_554 S
Co164 N170 2.032 . S
Co164 N175 2.005 . S
Co164 N180 2.272 1_554 S
Co164 N186 2.293 . S
N165 Co164 1.985 1_556 S
N165 C166 1.376 . S
N165 C169 1.383 . S
C166 N165 1.376 . S
C166 C167 1.446 . S
C166 C196 1.391 . S
C167 C166 1.446 . S
C167 C168 1.339 . S
C167 H202 0.949 . S
C168 C167 1.339 . S
C168 C169 1.439 . S
C168 H203 0.950 . S
C169 N165 1.383 . S
C169 C168 1.439 . S
C169 C198 1.392 1_556 S
N170 Co164 2.032 . S
N170 C171 1.376 . S
N170 C174 1.374 . S
C171 N170 1.376 . S
C171 C172 1.443 . S
C171 C198 1.389 . S
C172 C171 1.443 . S
C172 C173 1.340 . S
C172 H204 0.951 . S
C173 C172 1.340 . S
C173 C174 1.439 . S
C173 H205 0.950 . S
C174 N170 1.374 . S
C174 C173 1.439 . S
C174 C199 1.395 . S
N175 Co164 2.005 . S
N175 C176 1.376 . S
N175 C179 1.383 . S
C176 N175 1.376 . S
C176 C177 1.446 . S
C176 C199 1.391 . S
C177 C176 1.446 . S
C177 C178 1.339 . S
C177 H206 0.949 . S
C178 C177 1.339 . S
C178 C179 1.439 . S
C178 H207 0.950 . S
C179 N175 1.383 . S
C179 C178 1.439 . S
C179 C197 1.400 . S
N180 Co164 2.272 1_556 S
N180 C183 1.332 1_556 S
N180 C185 1.332 . S
C181 C182 1.395 . S
C181 C184 1.382 1_554 S
C182 C181 1.395 . S
C182 C183 1.382 . S
C182 H208 0.950 . S
C183 N180 1.332 1_554 S
C183 C182 1.382 . S
C183 H194 0.952 . S
C184 C181 1.382 1_556 S
C184 C185 1.382 . S
C184 H209 0.950 . S
C185 N180 1.332 . S
C185 C184 1.382 . S
C185 H195 0.948 . S
N186 Co164 2.293 . S
N186 C190 1.332 1_554 S
N186 C191 1.332 . S
C187 C188 1.388 . S
C187 C191 1.382 . S
C187 H210 0.950 . S
C188 C187 1.388 . S
C188 C189 1.386 1_554 S
C189 C188 1.386 1_556 S
C189 C190 1.382 . S
C189 H211 0.950 . S
C190 N186 1.332 1_556 S
C190 C189 1.382 . S
C190 H192 0.952 . S
C191 N186 1.332 . S
C191 C187 1.382 . S
C191 H193 0.948 . S
H192 C190 0.952 . S
H193 C191 0.948 . S
H194 C183 0.952 . S
H195 C185 0.948 . S
C196 C162 1.395 . S
C196 C166 1.391 . S
C197 C159 1.383 1_554 S
C197 C179 1.400 . S
C198 C169 1.392 1_554 S
C198 C171 1.389 . S
C199 C174 1.395 . S
C199 C176 1.391 . S
H200 C160 0.951 . S
H201 C161 0.950 . S
H202 C167 0.949 . S
H203 C168 0.950 . S
H204 C172 0.951 . S
H205 C173 0.950 . S
H206 C177 0.949 . S
H207 C178 0.950 . S
H208 C182 0.950 . S
H209 C184 0.950 . S
H210 C187 0.950 . S
H211 C189 0.950 . S
C212 C213 1.443 . S
C212 N216 1.376 . S
C212 C250 1.389 . S
C213 C212 1.443 . S
C213 C214 1.340 . S
C213 H253 0.951 . S
C214 C213 1.340 . S
C214 C215 1.439 . S
C214 H254 0.950 . S
C215 C214 1.439 . S
C215 N216 1.374 . S
C215 C249 1.395 . S
N216 C212 1.376 . S
N216 C215 1.374 . S
N216 Co217 2.018 . S
Co217 N216 2.018 . S
Co217 N218 2.014 . S
Co217 N223 1.999 1_455 S
Co217 N228 1.975 1_455 S
Co217 N233 2.276 . S
Co217 N239 2.289 1_455 S
N218 Co217 2.014 . S
N218 C219 1.376 . S
N218 C222 1.383 . S
C219 N218 1.376 . S
C219 C220 1.446 . S
C219 C249 1.391 . S
C220 C219 1.446 . S
C220 C221 1.339 . S
C220 H255 0.949 . S
C221 C220 1.339 . S
C221 C222 1.439 . S
C221 H256 0.950 . S
C222 N218 1.383 . S
C222 C221 1.439 . S
C222 C251 1.394 . S
N223 Co217 1.999 1_655 S
N223 C224 1.376 . S
N223 C227 1.374 . S
C224 N223 1.376 . S
C224 C225 1.443 . S
C224 C251 1.386 1_655 S
C225 C224 1.443 . S
C225 C226 1.340 . S
C225 H257 0.951 . S
C226 C225 1.340 . S
C226 C227 1.439 . S
C226 H258 0.950 . S
C227 N223 1.374 . S
C227 C226 1.439 . S
C227 C252 1.395 . S
N228 Co217 1.975 1_655 S
N228 C229 1.376 . S
N228 C232 1.383 . S
C229 N228 1.376 . S
C229 C230 1.446 . S
C229 C252 1.391 . S
C230 C229 1.446 . S
C230 C231 1.339 . S
C230 H259 0.949 . S
C231 C230 1.339 . S
C231 C232 1.439 . S
C231 H260 0.950 . S
C232 N228 1.383 . S
C232 C231 1.439 . S
C232 C250 1.392 1_655 S
N233 Co217 2.276 . S
N233 C236 1.332 1_455 S
N233 C238 1.332 . S
C234 C235 1.386 1_455 S
C234 C237 1.388 . S
C235 C234 1.386 1_655 S
C235 C236 1.382 . S
C235 H261 0.950 . S
C236 N233 1.332 1_655 S
C236 C235 1.382 . S
C236 H247 0.952 . S
C237 C234 1.388 . S
C237 C238 1.382 . S
C237 H262 0.950 . S
C238 N233 1.332 . S
C238 C237 1.382 . S
C238 H248 0.948 . S
N239 Co217 2.289 1_655 S
N239 C243 1.332 1_655 S
N239 C244 1.332 . S
C240 C241 1.382 1_655 S
C240 C244 1.382 . S
C240 H263 0.950 . S
C241 C240 1.382 1_455 S
C241 C242 1.390 . S
C242 C241 1.390 . S
C242 C243 1.382 . S
C242 H264 0.950 . S
C243 N239 1.332 1_455 S
C243 C242 1.382 . S
C243 H245 0.952 . S
C244 N239 1.332 . S
C244 C240 1.382 . S
C244 H246 0.948 . S
H245 C243 0.952 . S
H246 C244 0.948 . S
H247 C236 0.952 . S
H248 C238 0.948 . S
C249 C215 1.395 . S
C249 C219 1.391 . S
C250 C212 1.389 . S
C250 C232 1.392 1_455 S
C251 C222 1.394 . S
C251 C224 1.386 1_455 S
C252 C227 1.395 . S
C252 C229 1.391 . S
H253 C213 0.951 . S
H254 C214 0.950 . S
H255 C220 0.949 . S
H256 C221 0.950 . S
H257 C225 0.951 . S
H258 C226 0.950 . S
H259 C230 0.949 . S
H260 C231 0.950 . S
H261 C235 0.950 . S
H262 C237 0.950 . S
H263 C240 0.950 . S
H264 C242 0.950 . S
C265 C266 1.443 . S
C265 N269 1.376 . S
C265 C303 1.389 . S
C266 C265 1.443 . S
C266 C267 1.340 . S
C266 H306 0.951 . S
C267 C266 1.340 . S
C267 C268 1.439 . S
C267 H307 0.950 . S
C268 C267 1.439 . S
C268 N269 1.374 . S
C268 C302 1.395 . S
N269 C265 1.376 . S
N269 C268 1.374 . S
N269 Co270 2.008 . S
Co270 N269 2.008 . S
Co270 N271 1.995 . S
Co270 N276 2.008 1_545 S
Co270 N281 1.995 1_545 S
Co270 N286 2.282 . S
Co270 N292 2.282 1_545 S
N271 Co270 1.995 . S
N271 C272 1.376 . S
N271 C275 1.383 . S
C272 N271 1.376 . S
C272 C273 1.446 . S
C272 C302 1.391 . S
C273 C272 1.446 . S
C273 C274 1.339 . S
C273 H308 0.949 . S
C274 C273 1.339 . S
C274 C275 1.439 . S
C274 H309 0.950 . S
C275 N271 1.383 . S
C275 C274 1.439 . S
C275 C304 1.414 . S
N276 Co270 2.008 1_565 S
N276 C277 1.376 . S
N276 C280 1.374 . S
C277 N276 1.376 . S
C277 C278 1.443 . S
C277 C304 1.358 1_565 S
C278 C277 1.443 . S
C278 C279 1.340 . S
C278 H310 0.951 . S
C279 C278 1.340 . S
C279 C280 1.439 . S
C279 H311 0.950 . S
C280 N276 1.374 . S
C280 C279 1.439 . S
C280 C305 1.395 . S
N281 Co270 1.995 1_565 S
N281 C282 1.376 . S
N281 C285 1.383 . S
C282 N281 1.376 . S
C282 C283 1.446 . S
C282 C305 1.391 . S
C283 C282 1.446 . S
C283 C284 1.339 . S
C283 H312 0.949 . S
C284 C283 1.339 . S
C284 C285 1.439 . S
C284 H313 0.950 . S
C285 N281 1.383 . S
C285 C284 1.439 . S
C285 C303 1.392 1_565 S
N286 Co270 2.282 . S
N286 C289 1.332 1_545 S
N286 C291 1.332 . S
C287 C288 1.386 1_545 S
C287 C290 1.388 . S
C288 C287 1.386 1_565 S
C288 C289 1.382 . S
C288 H314 0.950 . S
C289 N286 1.332 1_565 S
C289 C288 1.382 . S
C289 H300 0.952 . S
C290 C287 1.388 . S
C290 C291 1.382 . S
C290 H315 0.950 . S
C291 N286 1.332 . S
C291 C290 1.382 . S
C291 H301 0.948 . S
N292 Co270 2.282 1_565 S
N292 C296 1.332 1_565 S
N292 C297 1.332 . S
C293 C294 1.388 1_565 S
C293 C297 1.382 . S
C293 H316 0.950 . S
C294 C293 1.388 1_545 S
C294 C295 1.386 . S
C295 C294 1.386 . S
C295 C296 1.382 . S
C295 H317 0.950 . S
C296 N292 1.332 1_545 S
C296 C295 1.382 . S
C296 H298 0.952 . S
C297 N292 1.332 . S
C297 C293 1.382 . S
C297 H299 0.948 . S
H298 C296 0.952 . S
H299 C297 0.948 . S
H300 C289 0.952 . S
H301 C291 0.948 . S
C302 C268 1.395 . S
C302 C272 1.391 . S
C303 C265 1.389 . S
C303 C285 1.392 1_545 S
C304 C275 1.414 . S
C304 C277 1.358 1_545 S
C305 C280 1.395 . S
C305 C282 1.391 . S
H306 C266 0.951 . S
H307 C267 0.950 . S
H308 C273 0.949 . S
H309 C274 0.950 . S
H310 C278 0.951 . S
H311 C279 0.950 . S
H312 C283 0.949 . S
H313 C284 0.950 . S
H314 C288 0.950 . S
H315 C290 0.950 . S
H316 C293 0.950 . S
H317 C295 0.950 . S
H318 C326 0.950 . S
H319 C331 0.950 . S
H320 C328 0.950 . S
H321 C330 0.950 . S
H322 C332 0.950 . S
H323 C334 0.950 . S
H324 C336 0.950 . S
H325 C337 0.950 . S
C326 H318 0.950 . S
C326 C327 1.384 . S
C326 C328 1.391 . S
C327 C326 1.384 . S
C327 C331 1.403 1_655 S
C328 H320 0.950 . S
C328 C326 1.391 . S
C328 C329 1.400 . S
C329 C328 1.400 . S
C329 C330 1.398 1_655 S
C329 C335 1.490 1_655 S
C330 H321 0.950 . S
C330 C329 1.398 1_455 S
C330 C331 1.391 . S
C331 H319 0.950 . S
C331 C327 1.403 1_455 S
C331 C330 1.391 . S
C332 H322 0.950 . S
C332 C333 1.386 . S
C332 C334 1.391 . S
C333 C332 1.386 . S
C333 C337 1.393 1_455 S
C334 H323 0.950 . S
C334 C332 1.391 . S
C334 C335 1.400 . S
C335 C329 1.490 1_455 S
C335 C334 1.400 . S
C335 C336 1.398 1_455 S
C336 H324 0.950 . S
C336 C335 1.398 1_655 S
C336 C337 1.391 . S
C337 H325 0.950 . S
C337 C333 1.393 1_655 S
C337 C336 1.391 . S
H338 C346 0.950 . S
H339 C351 0.950 . S
H340 C348 0.950 . S
H341 C350 0.950 . S
H342 C352 0.950 . S
H343 C354 0.950 . S
H344 C356 0.950 . S
H345 C357 0.950 . S
C346 H338 0.950 . S
C346 C347 1.379 1_565 S
C346 C348 1.391 . S
C347 C346 1.379 1_545 S
C347 C351 1.407 . S
C348 H340 0.950 . S
C348 C346 1.391 . S
C348 C349 1.400 1_565 S
C349 C348 1.400 1_545 S
C349 C350 1.398 . S
C349 C355 1.491 . S
C350 H341 0.950 . S
C350 C349 1.398 . S
C350 C351 1.391 . S
C351 H339 0.950 . S
C351 C347 1.407 . S
C351 C350 1.391 . S
C352 H342 0.950 . S
C352 C353 1.386 . S
C352 C354 1.391 . S
C353 C352 1.386 . S
C353 C357 1.393 1_545 S
C354 H343 0.950 . S
C354 C352 1.391 . S
C354 C355 1.400 . S
C355 C349 1.491 . S
C355 C354 1.400 . S
C355 C356 1.398 1_545 S
C356 H344 0.950 . S
C356 C355 1.398 1_565 S
C356 C357 1.391 . S
C357 H345 0.950 . S
C357 C353 1.393 1_565 S
C357 C356 1.391 . S
H358 C366 0.950 . S
H359 C371 0.950 . S
H360 C368 0.950 . S
H361 C370 0.950 . S
H362 C372 0.950 . S
H363 C374 0.950 . S
H364 C376 0.950 . S
H365 C377 0.950 . S
C366 H358 0.950 . S
C366 C367 1.386 1_655 S
C366 C368 1.391 . S
C367 C366 1.386 1_455 S
C367 C371 1.393 . S
C368 H360 0.950 . S
C368 C366 1.391 . S
C368 C369 1.383 1_655 S
C369 C368 1.383 1_455 S
C369 C370 1.424 . S
C369 C375 1.487 . S
C370 H361 0.950 . S
C370 C369 1.424 . S
C370 C371 1.391 . S
C371 H359 0.950 . S
C371 C367 1.393 . S
C371 C370 1.391 . S
C372 H362 0.950 . S
C372 C373 1.394 . S
C372 C374 1.391 . S
C373 C372 1.394 . S
C373 C377 1.387 1_455 S
C374 H363 0.950 . S
C374 C372 1.391 . S
C374 C375 1.410 . S
C375 C369 1.487 . S
C375 C374 1.410 . S
C375 C376 1.383 1_455 S
C376 H364 0.950 . S
C376 C375 1.383 1_655 S
C376 C377 1.391 . S
C377 H365 0.950 . S
C377 C373 1.387 1_655 S
C377 C376 1.391 . S
H378 C386 0.950 . S
H379 C391 0.950 . S
H380 C388 0.950 . S
H381 C390 0.950 . S
H382 C392 0.950 . S
H383 C394 0.950 . S
H384 C396 0.950 . S
H385 C397 0.950 . S
C386 H378 0.950 . S
C386 C387 1.386 1_565 S
C386 C388 1.391 . S
C387 C386 1.386 1_545 S
C387 C391 1.394 . S
C388 H380 0.950 . S
C388 C386 1.391 . S
C388 C389 1.394 1_565 S
C389 C388 1.394 1_545 S
C389 C390 1.396 . S
C389 C395 1.500 . S
C390 H381 0.950 . S
C390 C389 1.396 . S
C390 C391 1.391 . S
C391 H379 0.950 . S
C391 C387 1.394 . S
C391 C390 1.391 . S
C392 H382 0.950 . S
C392 C393 1.386 . S
C392 C394 1.391 . S
C393 C392 1.386 . S
C393 C397 1.393 1_545 S
C394 H383 0.950 . S
C394 C392 1.391 . S
C394 C395 1.400 . S
C395 C389 1.500 . S
C395 C394 1.400 . S
C395 C396 1.398 1_545 S
C396 H384 0.950 . S
C396 C395 1.398 1_565 S
C396 C397 1.391 . S
C397 H385 0.950 . S
C397 C393 1.393 1_565 S
C397 C396 1.391 . S
H398 C406 0.950 . S
H399 C411 0.950 . S
H400 C408 0.950 . S
H401 C410 0.950 . S
H402 C412 0.950 . S
H403 C414 0.950 . S
H404 C416 0.950 . S
H405 C417 0.950 . S
C406 H398 0.950 . S
C406 C407 1.386 . S
C406 C408 1.391 . S
C407 C406 1.386 . S
C407 C411 1.393 1_545 S
C408 H400 0.950 . S
C408 C406 1.391 . S
C408 C409 1.400 . S
C409 C408 1.400 . S
C409 C410 1.398 1_545 S
C409 C415 1.483 . S
C410 H401 0.950 . S
C410 C409 1.398 1_565 S
C410 C411 1.391 . S
C411 H399 0.950 . S
C411 C407 1.393 1_565 S
C411 C410 1.391 . S
C412 H402 0.950 . S
C412 C413 1.382 1_565 S
C412 C414 1.391 . S
C413 C412 1.382 1_545 S
C413 C417 1.395 . S
C414 H403 0.950 . S
C414 C412 1.391 . S
C414 C415 1.388 1_565 S
C415 C409 1.483 . S
C415 C414 1.388 1_545 S
C415 C416 1.419 . S
C416 H404 0.950 . S
C416 C415 1.419 . S
C416 C417 1.391 . S
C417 H405 0.950 . S
C417 C413 1.395 . S
C417 C416 1.391 . S
H418 C426 0.950 . S
H419 C431 0.950 . S
H420 C428 0.950 . S
H421 C430 0.950 . S
H422 C432 0.950 . S
H423 C434 0.950 . S
H424 C436 0.950 . S
H425 C437 0.950 . S
C426 H418 0.950 . S
C426 C427 1.378 1_655 S
C426 C428 1.391 . S
C427 C426 1.378 1_455 S
C427 C431 1.398 . S
C428 H420 0.950 . S
C428 C426 1.391 . S
C428 C429 1.391 1_655 S
C429 C428 1.391 1_455 S
C429 C430 1.412 . S
C429 C435 1.495 . S
C430 H421 0.950 . S
C430 C429 1.412 . S
C430 C431 1.391 . S
C431 H419 0.950 . S
C431 C427 1.398 . S
C431 C430 1.391 . S
C432 H422 0.950 . S
C432 C433 1.386 . S
C432 C434 1.391 . S
C433 C432 1.386 . S
C433 C437 1.393 1_455 S
C434 H423 0.950 . S
C434 C432 1.391 . S
C434 C435 1.420 . S
C435 C429 1.495 . S
C435 C434 1.420 . S
C435 C436 1.369 1_455 S
C436 H424 0.950 . S
C436 C435 1.369 1_655 S
C436 C437 1.391 . S
C437 H425 0.950 . S
C437 C433 1.393 1_655 S
C437 C436 1.391 . S
H438 C446 0.950 . S
H439 C451 0.950 . S
H440 C448 0.950 . S
H441 C450 0.950 . S
H442 C452 0.950 . S
H443 C454 0.950 . S
H444 C456 0.950 . S
H445 C457 0.950 . S
C446 H438 0.950 . S
C446 C447 1.386 . S
C446 C448 1.391 . S
C447 C446 1.386 . S
C447 C451 1.393 1_545 S
C448 H440 0.950 . S
C448 C446 1.391 . S
C448 C449 1.400 . S
C449 C448 1.400 . S
C449 C450 1.398 1_545 S
C449 C455 1.501 . S
C450 H441 0.950 . S
C450 C449 1.398 1_565 S
C450 C451 1.391 . S
C451 H439 0.950 . S
C451 C447 1.393 1_565 S
C451 C450 1.391 . S
C452 H442 0.950 . S
C452 C453 1.385 1_565 S
C452 C454 1.391 . S
C453 C452 1.385 1_545 S
C453 C457 1.397 . S
C454 H443 0.950 . S
C454 C452 1.391 . S
C454 C455 1.389 1_565 S
C455 C449 1.501 . S
C455 C454 1.389 1_545 S
C455 C456 1.399 . S
C456 H444 0.950 . S
C456 C455 1.399 . S
C456 C457 1.391 . S
C457 H445 0.950 . S
C457 C453 1.397 . S
C457 C456 1.391 . S
H458 C466 0.950 . S
H459 C471 0.950 . S
H460 C468 0.950 . S
H461 C470 0.950 . S
H462 C472 0.950 . S
H463 C474 0.950 . S
H464 C476 0.950 . S
H465 C477 0.950 . S
C466 H458 0.950 . S
C466 C467 1.386 1_655 S
C466 C468 1.391 . S
C467 C466 1.386 1_455 S
C467 C471 1.393 . S
C468 H460 0.950 . S
C468 C466 1.391 . S
C468 C469 1.385 1_655 S
C469 C468 1.385 1_455 S
C469 C470 1.422 . S
C469 C475 1.488 . S
C470 H461 0.950 . S
C470 C469 1.422 . S
C470 C471 1.391 . S
C471 H459 0.950 . S
C471 C467 1.393 . S
C471 C470 1.391 . S
C472 H462 0.950 . S
C472 C473 1.397 . S
C472 C474 1.391 . S
C473 C472 1.397 . S
C473 C477 1.385 1_455 S
C474 H463 0.950 . S
C474 C472 1.391 . S
C474 C475 1.411 . S
C475 C469 1.488 . S
C475 C474 1.411 . S
C475 C476 1.382 1_455 S
C476 H464 0.950 . S
C476 C475 1.382 1_655 S
C476 C477 1.391 . S
C477 H465 0.950 . S
C477 C473 1.385 1_655 S
C477 C476 1.391 . S
H478 C486 0.950 . S
H479 C491 0.950 . S
H480 C488 0.950 . S
H481 C490 0.950 . S
H482 C492 0.950 . S
H483 C494 0.950 . S
H484 C496 0.950 . S
H485 C497 0.950 . S
C486 H478 0.950 . S
C486 C487 1.386 . S
C486 C488 1.391 . S
C487 C486 1.386 . S
C487 C491 1.393 1_554 S
C488 H480 0.950 . S
C488 C486 1.391 . S
C488 C489 1.400 . S
C489 C488 1.400 . S
C489 C490 1.398 1_554 S
C489 C495 1.491 . S
C490 H481 0.950 . S
C490 C489 1.398 1_556 S
C490 C491 1.391 . S
C491 H479 0.950 . S
C491 C487 1.393 1_556 S
C491 C490 1.391 . S
C492 H482 0.950 . S
C492 C493 1.382 . S
C492 C494 1.391 . S
C493 C492 1.382 . S
C493 C497 1.392 1_556 S
C494 H483 0.950 . S
C494 C492 1.391 . S
C494 C495 1.400 1_556 S
C495 C489 1.491 . S
C495 C494 1.400 1_554 S
C495 C496 1.398 . S
C496 H484 0.950 . S
C496 C495 1.398 . S
C496 C497 1.391 . S
C497 H485 0.950 . S
C497 C493 1.392 1_554 S
C497 C496 1.391 . S
H498 C506 0.958 . S
H499 C511 0.950 . S
H500 C508 0.942 1_556 S
H501 C510 0.950 . S
H502 C512 0.960 . S
H503 C514 0.950 . S
H504 C516 0.950 . S
H505 C517 0.950 . S
C506 H498 0.958 . S
C506 C507 1.386 . S
C506 C508 1.386 . S
C507 C506 1.386 . S
C507 C511 1.393 . S
C508 H500 0.942 1_554 S
C508 C506 1.386 . S
C508 C509 1.409 . S
C509 C508 1.409 . S
C509 C510 1.398 . S
C509 C515 1.491 . S
C510 H501 0.950 . S
C510 C509 1.398 . S
C510 C511 1.391 . S
C511 H499 0.950 . S
C511 C507 1.393 . S
C511 C510 1.391 . S
C512 H502 0.960 . S
C512 C513 1.377 1_554 S
C512 C514 1.386 . S
C513 C512 1.377 1_556 S
C513 C517 1.404 . S
C514 H503 0.950 . S
C514 C512 1.386 . S
C514 C515 1.400 . S
C515 C509 1.491 . S
C515 C514 1.400 . S
C515 C516 1.398 1_554 S
C516 H504 0.950 . S
C516 C515 1.398 1_556 S
C516 C517 1.391 . S
C517 H505 0.950 . S
C517 C513 1.404 . S
C517 C516 1.391 . S
H518 C526 0.950 . S
H519 C531 0.950 . S
H520 C528 0.950 . S
H521 C530 0.950 . S
H522 C532 0.966 1_556 S
H523 C534 0.949 . S
H524 C536 0.950 . S
H525 C537 0.950 . S
C526 H518 0.950 . S
C526 C527 1.389 1_554 S
C526 C528 1.391 . S
C527 C526 1.389 1_556 S
C527 C531 1.384 . S
C528 H520 0.950 . S
C528 C526 1.391 . S
C528 C529 1.400 . S
C529 C528 1.400 . S
C529 C530 1.398 1_554 S
C529 C535 1.490 . S
C530 H521 0.950 . S
C530 C529 1.398 1_556 S
C530 C531 1.391 . S
C531 H519 0.950 . S
C531 C527 1.384 . S
C531 C530 1.391 . S
C532 H522 0.966 1_554 S
C532 C533 1.385 . S
C532 C534 1.388 1_554 S
C533 C532 1.385 . S
C533 C537 1.393 . S
C534 H523 0.949 . S
C534 C532 1.388 1_556 S
C534 C535 1.404 1_556 S
C535 C529 1.490 . S
C535 C534 1.404 1_554 S
C535 C536 1.398 . S
C536 H524 0.950 . S
C536 C535 1.398 . S
C536 C537 1.391 . S
C537 H525 0.950 . S
C537 C533 1.393 . S
C537 C536 1.391 . S
H538 C546 0.950 . S
H539 C551 0.950 . S
H540 C548 0.950 . S
H541 C550 0.950 . S
H542 C552 0.950 . S
H543 C554 0.950 . S
H544 C556 0.950 . S
H545 C557 0.950 . S
C546 H538 0.950 . S
C546 C547 1.397 . S
C546 C548 1.391 . S
C547 C546 1.397 . S
C547 C551 1.387 1_556 S
C548 H540 0.950 . S
C548 C546 1.391 . S
C548 C549 1.400 1_556 S
C549 C548 1.400 1_554 S
C549 C550 1.399 . S
C549 C555 1.490 . S
C550 H541 0.950 . S
C550 C549 1.399 . S
C550 C551 1.391 . S
C551 H539 0.950 . S
C551 C547 1.387 1_554 S
C551 C550 1.391 . S
C552 H542 0.950 . S
C552 C553 1.386 . S
C552 C554 1.391 . S
C553 C552 1.386 . S
C553 C557 1.393 1_554 S
C554 H543 0.950 . S
C554 C552 1.391 . S
C554 C555 1.400 . S
C555 C549 1.490 . S
C555 C554 1.400 . S
C555 C556 1.398 1_554 S
C556 H544 0.950 . S
C556 C555 1.398 1_556 S
C556 C557 1.391 . S
C557 H545 0.950 . S
C557 C553 1.393 1_556 S
C557 C556 1.391 . S
C327 C29 1.491 1_655 S
C333 C241 1.501 . S
C347 C38 1.491 . S
C353 C303 1.499 . S
C367 C234 1.498 . S
C373 C22 1.492 1_455 S
C387 C304 1.506 . S
C393 C39 1.497 . S
C407 C294 1.499 . S
C413 C91 1.501 . S
C427 C128 1.502 . S
C433 C251 1.501 . S
C447 C287 1.500 . S
C453 C92 1.494 . S
C467 C250 1.500 . S
C473 C135 1.492 1_455 S
C487 C144 1.497 . S
C493 C198 1.503 1_556 S
C507 C188 1.498 . S
C513 C75 1.493 1_556 S
C527 C145 1.499 . S
C533 C197 1.497 . S
C547 C181 1.491 1_556 S
C553 C82 1.499 1_554 S
