# Generated by pormake.
# Topology irl, (4)-cn, num edge types: 1
# Building blocks:
#     Node 0, Type 0, BuildingBlock: KUFVIS_clean_sbu_0, # of connection points: 4
#     Node 1, Type 0, BuildingBlock: KUFVIS_clean_sbu_0, # of connection points: 4
#     Node 2, Type 0, BuildingBlock: KUFVIS_clean_sbu_0, # of connection points: 4
#     Node 3, Type 0, BuildingBlock: KUFVIS_clean_sbu_0, # of connection points: 4
#     Node 4, Type 0, BuildingBlock: KUFVIS_clean_sbu_0, # of connection points: 4
#     Node 5, Type 0, BuildingBlock: KUFVIS_clean_sbu_0, # of connection points: 4
#     Node 6, Type 0, BuildingBlock: KUFVIS_clean_sbu_0, # of connection points: 4
#     Node 7, Type 0, BuildingBlock: KUFVIS_clean_sbu_0, # of connection points: 4
#     Edge 8, Type (0, 0), BuildingBlock: AJUNOK_clean_linker_0, # of connection points: 2
#     Edge 9, Type (0, 0), BuildingBlock: AJUNOK_clean_linker_0, # of connection points: 2
#     Edge 10, Type (0, 0), BuildingBlock: AJUNOK_clean_linker_0, # of connection points: 2
#     Edge 11, Type (0, 0), BuildingBlock: AJUNOK_clean_linker_0, # of connection points: 2
#     Edge 12, Type (0, 0), BuildingBlock: AJUNOK_clean_linker_0, # of connection points: 2
#     Edge 13, Type (0, 0), BuildingBlock: AJUNOK_clean_linker_0, # of connection points: 2
#     Edge 14, Type (0, 0), BuildingBlock: AJUNOK_clean_linker_0, # of connection points: 2
#     Edge 15, Type (0, 0), BuildingBlock: AJUNOK_clean_linker_0, # of connection points: 2
#     Edge 16, Type (0, 0), BuildingBlock: AJUNOK_clean_linker_0, # of connection points: 2
#     Edge 17, Type (0, 0), BuildingBlock: AJUNOK_clean_linker_0, # of connection points: 2
#     Edge 18, Type (0, 0), BuildingBlock: AJUNOK_clean_linker_0, # of connection points: 2
#     Edge 19, Type (0, 0), BuildingBlock: AJUNOK_clean_linker_0, # of connection points: 2
#     Edge 20, Type (0, 0), BuildingBlock: AJUNOK_clean_linker_0, # of connection points: 2
#     Edge 21, Type (0, 0), BuildingBlock: AJUNOK_clean_linker_0, # of connection points: 2
#     Edge 22, Type (0, 0), BuildingBlock: AJUNOK_clean_linker_0, # of connection points: 2
#     Edge 23, Type (0, 0), BuildingBlock: AJUNOK_clean_linker_0, # of connection points: 2
# Relax obj value: 0.099
# Max RMSD: 0.149
# Mean RMSD: 0.149
data_MOF--net-irl--node1-KUFVIS_clean_sbu_0--edge1-AJUNOK_clean_linker_0
_symmetry_space_group_name_H-M    P1
_symmetry_Int_Tables_number       1
_symmetry_cell_setting            triclinic
loop_
_symmetry_equiv_pos_as_xyz
'x, y, z'
_cell_length_a     25.146727
_cell_length_b     33.152514
_cell_length_c     19.888287
_cell_angle_alpha  89.977288
_cell_angle_beta   90.058734
_cell_angle_gamma 90.10285
loop_
_atom_site_label
_atom_site_type_symbol
_atom_site_fract_x
_atom_site_fract_y
_atom_site_fract_z
_atom_type_partial_charge
Mn0 Mn 0.06454 0.16345 0.02442 0.0
Mn1 Mn 0.02745 0.26058 0.01355 0.0
C2 C 0.04857 0.20031 0.12272 0.0
C3 C 0.04086 0.09475 0.02283 0.0
C4 C 0.14195 0.23313 0.99615 0.0
O5 O 0.04338 0.16915 0.92544 0.0
O6 O 0.01232 0.23239 0.92796 0.0
C7 C 0.91112 0.24794 0.00266 0.0
N8 N 0.95355 0.26582 0.03314 0.0
C9 C 0.89659 0.30822 0.0993 0.0
C10 C 0.85212 0.29034 0.06871 0.0
C11 C 0.85943 0.25973 0.02069 0.0
C12 C 0.94693 0.29404 0.08127 0.0
H13 H 0.91679 0.22511 0.9646 0.0
C14 C 0.02042 0.19907 0.89749 0.0
O15 O 0.08868 0.10677 0.00829 0.0
O16 O 0.00694 0.12265 0.03827 0.0
N17 N 0.03908 0.29265 0.09169 0.0
C18 C 0.08624 0.30631 0.11669 0.0
C19 C 0.0865 0.33893 0.16142 0.0
C20 C 0.03839 0.35734 0.17931 0.0
C21 C 0.99007 0.34145 0.15578 0.0
C22 C 0.99237 0.309 0.11108 0.0
H23 H 0.12352 0.29349 0.10063 0.0
O24 O 0.07614 0.16727 0.12375 0.0
O25 O 0.02928 0.21003 0.06419 0.0
O26 O 0.13371 0.19568 0.00794 0.0
O27 O 0.10441 0.25894 0.9941 0.0
C28 C 0.93989 0.35756 0.17237 0.0
C29 C 0.89312 0.34025 0.1456 0.0
H30 H 0.81224 0.30003 0.08136 0.0
H31 H 0.82535 0.24582 0.99678 0.0
H32 H 0.12381 0.35084 0.18005 0.0
H33 H 0.03943 0.38424 0.20983 0.0
H34 H 0.93668 0.38333 0.20548 0.0
H35 H 0.85479 0.35247 0.15964 0.0
Mn36 Mn 0.94903 0.85696 0.02499 0.0
Mn37 Mn 0.98499 0.75974 0.00868 0.0
C38 C 0.9691 0.81904 0.12052 0.0
C39 C 0.9749 0.92522 0.02354 0.0
C40 C 0.87 0.7875 0.0014 0.0
O41 O 0.9651 0.85246 0.92483 0.0
O42 O 0.99366 0.7885 0.92235 0.0
C43 C 0.09993 0.77321 0.98503 0.0
N44 N 0.06007 0.75497 0.02006 0.0
C45 C 0.12226 0.71382 0.08092 0.0
C46 C 0.16413 0.7322 0.04575 0.0
C47 C 0.15292 0.76232 0.99805 0.0
C48 C 0.0705 0.72708 0.06769 0.0
H49 H 0.09125 0.79572 0.94733 0.0
C50 C 0.9843 0.82226 0.89376 0.0
O51 O 0.92587 0.91451 0.0126 0.0
O52 O 0.00819 0.89641 0.03591 0.0
N53 N 0.97924 0.72701 0.08711 0.0
C54 C 0.93414 0.71206 0.11574 0.0
C55 C 0.93764 0.67912 0.15963 0.0
C56 C 0.9874 0.66189 0.17333 0.0
C57 C 0.03363 0.67917 0.14635 0.0
C58 C 0.02754 0.71154 0.10202 0.0
H59 H 0.89556 0.72405 0.10301 0.0
O60 O 0.94183 0.85212 0.1246 0.0
O61 O 0.98566 0.80982 0.06051 0.0
O62 O 0.87894 0.82505 0.01202 0.0
O63 O 0.90712 0.76141 0.99755 0.0
C64 C 0.08523 0.66434 0.15896 0.0
C65 C 0.12963 0.68232 0.12754 0.0
H66 H 0.20496 0.72328 0.05467 0.0
H67 H 0.18499 0.77662 0.97064 0.0
H68 H 0.90192 0.66609 0.18086 0.0
H69 H 0.98932 0.63473 0.20315 0.0
H70 H 0.0913 0.63903 0.19247 0.0
H71 H 0.16912 0.67099 0.13824 0.0
Mn72 Mn 0.06755 0.85903 0.47702 0.0
Mn73 Mn 0.0356 0.76087 0.49132 0.0
C74 C 0.05248 0.82074 0.38066 0.0
C75 C 0.03909 0.92644 0.47752 0.0
C76 C 0.14895 0.79171 0.50345 0.0
O77 O 0.0488 0.85401 0.57619 0.0
O78 O 0.02411 0.78906 0.57772 0.0
C79 C 0.91981 0.77214 0.51063 0.0
N80 N 0.96098 0.75469 0.47713 0.0
C81 C 0.90145 0.71242 0.41399 0.0
C82 C 0.85826 0.7299 0.44768 0.0
C83 C 0.86748 0.76021 0.49573 0.0
C84 C 0.95245 0.72673 0.42902 0.0
H85 H 0.92697 0.79477 0.54867 0.0
C86 C 0.03082 0.82311 0.6066 0.0
O87 O 0.08814 0.91694 0.49083 0.0
O88 O 0.00726 0.8969 0.46332 0.0
N89 N 0.04408 0.72853 0.4129 0.0
C90 C 0.09022 0.71485 0.38536 0.0
C91 C 0.08869 0.6822 0.3407 0.0
C92 C 0.03986 0.66384 0.32542 0.0
C93 C 0.99254 0.67975 0.3515 0.0
C94 C 0.99664 0.71208 0.39627 0.0
H95 H 0.12809 0.72768 0.39939 0.0
O96 O 0.07811 0.8547 0.37802 0.0
O97 O 0.03421 0.81097 0.43967 0.0
O98 O 0.13835 0.829 0.49328 0.0
O99 O 0.1132 0.76429 0.50506 0.0
C100 C 0.94175 0.6637 0.33746 0.0
C101 C 0.89611 0.6807 0.36735 0.0
H102 H 0.81794 0.7201 0.43742 0.0
H103 H 0.83439 0.77381 0.52202 0.0
H104 H 0.12523 0.67024 0.32009 0.0
H105 H 0.03953 0.63688 0.29505 0.0
H106 H 0.9372 0.6382 0.304 0.0
H107 H 0.85727 0.66846 0.35545 0.0
Mn108 Mn 0.94257 0.16246 0.47798 0.0
Mn109 Mn 0.97586 0.26028 0.4968 0.0
C110 C 0.96336 0.2011 0.3835 0.0
C111 C 0.96776 0.09429 0.47826 0.0
C112 C 0.86177 0.23104 0.49754 0.0
O113 O 0.95736 0.16617 0.57863 0.0
O114 O 0.97972 0.23163 0.58413 0.0
C115 C 0.08925 0.24584 0.52925 0.0
N116 N 0.05148 0.26453 0.49133 0.0
C117 C 0.11764 0.30336 0.43273 0.0
C118 C 0.15736 0.28457 0.47108 0.0
C119 C 0.14311 0.25541 0.51914 0.0
C120 C 0.06488 0.29145 0.44331 0.0
H121 H 0.07831 0.2239 0.56695 0.0
C122 C 0.97188 0.19725 0.61138 0.0
O123 O 0.91887 0.10521 0.4888 0.0
O124 O 1.00177 0.12299 0.46749 0.0
N125 N 0.97445 0.29336 0.41842 0.0
C126 C 0.931 0.31031 0.38892 0.0
C127 C 0.93752 0.3431 0.34534 0.0
C128 C 0.98862 0.35831 0.33294 0.0
C129 C 0.03306 0.33946 0.3615 0.0
C130 C 0.02394 0.30748 0.40587 0.0
H131 H 0.89143 0.30046 0.40149 0.0
O132 O 0.93644 0.16784 0.37853 0.0
O133 O 0.97915 0.2103 0.44409 0.0
O134 O 0.87193 0.19354 0.48957 0.0
O135 O 0.89739 0.25844 0.50121 0.0
C136 C 0.08572 0.35263 0.35087 0.0
C137 C 0.12813 0.33393 0.38532 0.0
H138 H 0.19885 0.29244 0.4643 0.0
H139 H 0.1735 0.24076 0.54893 0.0
H140 H 0.90306 0.35768 0.32366 0.0
H141 H 0.99291 0.38551 0.30364 0.0
H142 H 0.09406 0.37728 0.31672 0.0
H143 H 0.16848 0.34408 0.37639 0.0
Mn144 Mn 0.56605 0.66426 0.02646 0.0
Mn145 Mn 0.53493 0.7624 0.0092 0.0
C146 C 0.54785 0.70289 0.12156 0.0
C147 C 0.53774 0.59668 0.02575 0.0
C148 C 0.64842 0.73162 0.00305 0.0
O149 O 0.54988 0.66869 0.92643 0.0
O150 O 0.52633 0.73383 0.92252 0.0
C151 C 0.41985 0.75117 0.98317 0.0
N152 N 0.4599 0.76867 0.01894 0.0
C153 C 0.39831 0.81053 0.07925 0.0
C154 C 0.35625 0.79294 0.04323 0.0
C155 C 0.36705 0.76284 0.99542 0.0
C156 C 0.44981 0.79654 0.06667 0.0
H157 H 0.4282 0.7286 0.94548 0.0
C158 C 0.53341 0.69955 0.89463 0.0
O159 O 0.58708 0.60634 0.01454 0.0
O160 O 0.50548 0.62617 0.03801 0.0
N161 N 0.54085 0.79502 0.08771 0.0
C162 C 0.5861 0.8092 0.11711 0.0
C163 C 0.58313 0.84211 0.16108 0.0
C164 C 0.53373 0.86003 0.17418 0.0
C165 C 0.48728 0.84352 0.14646 0.0
C166 C 0.49287 0.81123 0.1019 0.0
H167 H 0.62444 0.79666 0.1049 0.0
O168 O 0.57385 0.66923 0.12586 0.0
O169 O 0.53155 0.71241 0.06145 0.0
O170 O 0.6373 0.69436 0.0129 0.0
O171 O 0.61292 0.75907 0.99981 0.0
C172 C 0.43598 0.85902 0.15858 0.0
C173 C 0.39137 0.84188 0.12621 0.0
H174 H 0.3156 0.80244 0.05162 0.0
H175 H 0.33484 0.74912 0.96741 0.0
H176 H 0.61904 0.85456 0.18287 0.0
H177 H 0.5323 0.88718 0.20405 0.0
H178 H 0.43032 0.88419 0.19246 0.0
H179 H 0.3521 0.85372 0.13651 0.0
Mn180 Mn 0.44235 0.36002 0.0246 0.0
Mn181 Mn 0.47694 0.26243 0.01081 0.0
C182 C 0.45877 0.32206 0.12132 0.0
C183 C 0.4672 0.42837 0.0245 0.0
C184 C 0.3627 0.29098 0.99865 0.0
O185 O 0.46187 0.35547 0.92536 0.0
O186 O 0.48708 0.29074 0.92412 0.0
C187 C 0.5922 0.27613 0.99007 0.0
N188 N 0.55185 0.25786 0.02417 0.0
C189 C 0.61324 0.21721 0.08717 0.0
C190 C 0.65559 0.23553 0.05285 0.0
C191 C 0.64502 0.26544 0.00456 0.0
C192 C 0.56165 0.23028 0.07247 0.0
H193 H 0.58406 0.29846 0.95189 0.0
C194 C 0.48024 0.32471 0.89502 0.0
O195 O 0.41894 0.41706 0.01053 0.0
O196 O 0.50076 0.39998 0.03868 0.0
N197 N 0.47009 0.23006 0.08953 0.0
C198 C 0.42464 0.21544 0.11775 0.0
C199 C 0.42762 0.18306 0.16287 0.0
C200 C 0.47719 0.16591 0.17788 0.0
C201 C 0.52373 0.18275 0.15102 0.0
C202 C 0.5182 0.21476 0.10585 0.0
H203 H 0.38624 0.22734 0.10393 0.0
O204 O 0.43172 0.35531 0.12372 0.0
O205 O 0.47735 0.31269 0.0623 0.0
O206 O 0.37266 0.32845 0.00799 0.0
O207 O 0.39899 0.26405 0.99783 0.0
C208 C 0.57516 0.16792 0.1647 0.0
C209 C 0.61998 0.18582 0.13413 0.0
H210 H 0.6963 0.22671 0.06284 0.0
H211 H 0.67745 0.2797 0.97778 0.0
H212 H 0.39166 0.17037 0.18406 0.0
H213 H 0.4787 0.13912 0.20864 0.0
H214 H 0.58084 0.14264 0.19835 0.0
H215 H 0.65932 0.17452 0.14577 0.0
Mn216 Mn 0.56417 0.35928 0.47634 0.0
Mn217 Mn 0.53203 0.26128 0.49426 0.0
C218 C 0.54404 0.32095 0.38126 0.0
C219 C 0.5366 0.42696 0.47872 0.0
C220 C 0.64566 0.29195 0.49878 0.0
O221 O 0.54991 0.35438 0.57716 0.0
O222 O 0.52265 0.29003 0.58043 0.0
C223 C 0.41682 0.27227 0.51868 0.0
N224 N 0.45709 0.25484 0.48344 0.0
C225 C 0.3959 0.21266 0.42269 0.0
C226 C 0.35362 0.23016 0.45813 0.0
C227 C 0.36411 0.2604 0.50588 0.0
C228 C 0.44731 0.22688 0.43571 0.0
H229 H 0.42493 0.29492 0.55638 0.0
C230 C 0.53141 0.32399 0.60866 0.0
O231 O 0.58604 0.41705 0.48826 0.0
O232 O 0.5037 0.39764 0.46732 0.0
N233 N 0.53854 0.22851 0.416 0.0
C234 C 0.584 0.21424 0.38751 0.0
C235 C 0.58124 0.18137 0.34338 0.0
C236 C 0.53189 0.16339 0.32957 0.0
C237 C 0.48529 0.17978 0.35679 0.0
C238 C 0.49061 0.21222 0.40115 0.0
H239 H 0.62234 0.2266 0.40067 0.0
O240 O 0.56979 0.35477 0.37661 0.0
O241 O 0.52882 0.31124 0.44175 0.0
O242 O 0.6354 0.32901 0.48641 0.0
O243 O 0.61009 0.26471 0.50504 0.0
C244 C 0.43409 0.16398 0.34444 0.0
C245 C 0.38928 0.18108 0.37607 0.0
H246 H 0.31304 0.22048 0.44938 0.0
H247 H 0.33173 0.27405 0.53347 0.0
H248 H 0.61727 0.16895 0.32211 0.0
H249 H 0.53058 0.1363 0.2995 0.0
H250 H 0.42861 0.13854 0.31104 0.0
H251 H 0.3501 0.169 0.36555 0.0
Mn252 Mn 0.44614 0.66452 0.47848 0.0
Mn253 Mn 0.48465 0.76139 0.49185 0.0
C254 C 0.46371 0.70192 0.38162 0.0
C255 C 0.46926 0.59585 0.47963 0.0
C256 C 0.3695 0.73478 0.5052 0.0
O257 O 0.46542 0.66936 0.57773 0.0
O258 O 0.49613 0.73282 0.57794 0.0
C259 C 0.6001 0.74699 0.50849 0.0
N260 N 0.55925 0.7655 0.47588 0.0
C261 C 0.6196 0.80677 0.41225 0.0
C262 C 0.6625 0.78814 0.44495 0.0
C263 C 0.65269 0.7578 0.49279 0.0
C264 C 0.56826 0.79352 0.42799 0.0
H265 H 0.59251 0.72441 0.5465 0.0
C266 C 0.48671 0.69932 0.60744 0.0
O267 O 0.42124 0.60777 0.49311 0.0
O268 O 0.50351 0.62381 0.46532 0.0
N269 N 0.47642 0.79392 0.41355 0.0
C270 C 0.43051 0.80865 0.38679 0.0
C271 C 0.43273 0.8414 0.34237 0.0
C272 C 0.48204 0.8588 0.32652 0.0
C273 C 0.52904 0.84179 0.35176 0.0
C274 C 0.52426 0.80935 0.39623 0.0
H275 H 0.39233 0.79656 0.40124 0.0
O276 O 0.43588 0.66895 0.37927 0.0
O277 O 0.48262 0.71114 0.44057 0.0
O278 O 0.37742 0.69721 0.49414 0.0
O279 O 0.40721 0.76055 0.50755 0.0
C280 C 0.58026 0.85683 0.33717 0.0
C281 C 0.62558 0.83865 0.36602 0.0
H282 H 0.70305 0.79709 0.43412 0.0
H283 H 0.68555 0.74335 0.51836 0.0
H284 H 0.39642 0.85419 0.32241 0.0
H285 H 0.48297 0.88584 0.29632 0.0
H286 H 0.58538 0.88245 0.30407 0.0
H287 H 0.66473 0.85012 0.35366 0.0
C288 C 0.95508 0.99961 0.02529 0.0
C289 C 0.99252 0.96818 0.02194 0.0
C290 C 0.9711 0.04029 0.02567 0.0
C291 C 0.02521 0.05132 0.02181 0.0
H292 H 0.91302 0.99279 0.02854 0.0
H293 H 0.94066 0.06328 0.02884 0.0
S294 S 0.13915 0.9806 0.00989 0.0
N295 N 0.08635 0.95103 0.01338 0.0
N296 N 0.11619 0.02716 0.01334 0.0
C297 C 0.06301 0.02018 0.01745 0.0
C298 C 0.04676 0.97877 0.01775 0.0
C299 C 0.05642 1.00112 0.47879 0.0
C300 C 0.01992 0.96891 0.47869 0.0
C301 C 0.03913 0.04141 0.47848 0.0
C302 C 0.9846 0.05123 0.47886 0.0
H303 H 0.09877 0.99523 0.47835 0.0
H304 H 0.06893 0.06504 0.47815 0.0
S305 S 0.87263 0.97809 0.48072 0.0
N306 N 0.92644 0.94967 0.48011 0.0
N307 N 0.89418 0.02515 0.48018 0.0
C308 C 0.94766 0.01931 0.4796 0.0
C309 C 0.96524 0.97828 0.4793 0.0
C310 C 0.55539 0.52207 0.02625 0.0
C311 C 0.51877 0.55408 0.02441 0.0
C312 C 0.5383 0.48167 0.02643 0.0
C313 C 0.48386 0.47153 0.02393 0.0
H314 H 0.59769 0.52818 0.02833 0.0
H315 H 0.56817 0.4582 0.0283 0.0
S316 S 0.37165 0.54404 0.01656 0.0
N317 N 0.42528 0.57277 0.01895 0.0
N318 N 0.39339 0.4971 0.01857 0.0
C319 C 0.44681 0.50325 0.02121 0.0
C320 C 0.46418 0.54439 0.02168 0.0
C321 C 0.5555 0.50139 0.47649 0.0
C322 C 0.51838 0.46969 0.48048 0.0
C323 C 0.53916 0.5419 0.47622 0.0
C324 C 0.48501 0.55252 0.48073 0.0
H325 H 0.5976 0.49492 0.47264 0.0
H326 H 0.56943 0.56508 0.47254 0.0
S327 S 0.37181 0.48097 0.49485 0.0
N328 N 0.42481 0.45178 0.4906 0.0
N329 N 0.39431 0.52772 0.4908 0.0
C330 C 0.44749 0.52113 0.48581 0.0
C331 C 0.46409 0.47983 0.48546 0.0
C332 C 0.97443 0.22149 0.19849 0.0
C333 C 0.02937 0.21714 0.18755 0.0
C334 C 0.95336 0.22204 0.26403 0.0
C335 C 0.9864 0.21814 0.32094 0.0
H336 H 0.94703 0.21995 0.15655 0.0
H337 H 0.91053 0.22148 0.26998 0.0
S338 S 0.13348 0.21118 0.31916 0.0
N339 N 0.11679 0.21403 0.23896 0.0
N340 N 0.07716 0.21338 0.36161 0.0
C341 C 0.04165 0.21771 0.31065 0.0
C342 C 0.0631 0.21752 0.24401 0.0
C343 C 0.9791 0.79797 0.30536 0.0
C344 C 0.03396 0.80263 0.31671 0.0
C345 C 0.95833 0.79776 0.23967 0.0
C346 C 0.99168 0.80216 0.18328 0.0
H347 H 0.95156 0.79921 0.34713 0.0
H348 H 0.91553 0.79818 0.23326 0.0
S349 S 0.13872 0.80981 0.1865 0.0
N350 N 0.12165 0.80627 0.26643 0.0
N351 N 0.08261 0.80759 0.14348 0.0
C352 C 0.04689 0.80266 0.19399 0.0
C353 C 0.068 0.80248 0.26072 0.0
C354 C 0.01421 0.78895 0.7159 0.0
C355 C 0.01857 0.8252 0.67955 0.0
C356 C 1.00313 0.78876 0.78451 0.0
C357 C 0.99549 0.82481 0.82054 0.0
H358 H 0.01989 0.76009 0.69142 0.0
H359 H 1.00032 0.75972 0.80928 0.0
S360 S 1.00185 0.92829 0.74936 0.0
N361 N 0.01392 0.89849 0.6846 0.0
N362 N 0.99279 0.89813 0.81452 0.0
C363 C 0.99932 0.86151 0.78507 0.0
C364 C 0.01105 0.86171 0.71455 0.0
C365 C 0.02053 0.16439 0.78419 0.0
C366 C 1.00325 0.1963 0.82574 0.0
C367 C 0.00834 0.16358 0.71503 0.0
C368 C 0.97887 0.19481 0.68508 0.0
H369 H 0.04496 0.14047 0.80467 0.0
H370 H 0.02391 0.13932 0.68438 0.0
S371 S 0.91761 0.28201 0.7719 0.0
N372 N 0.94976 0.2576 0.83166 0.0
N373 N 0.92821 0.25608 0.70245 0.0
C374 C 0.95922 0.22568 0.7263 0.0
C375 C 0.97102 0.22642 0.79637 0.0
C376 C 0.55907 0.72329 0.24102 0.0
C377 C 0.52571 0.72004 0.18433 0.0
C378 C 0.53817 0.72295 0.30658 0.0
C379 C 0.48314 0.71941 0.31758 0.0
H380 H 0.60184 0.72201 0.23485 0.0
H381 H 0.56558 0.72081 0.34843 0.0
S382 S 0.37844 0.7155 0.18659 0.0
N383 N 0.4347 0.71686 0.14393 0.0
N384 N 0.39546 0.71798 0.2667 0.0
C385 C 0.44924 0.72064 0.26138 0.0
C386 C 0.47048 0.72058 0.19474 0.0
C387 C 0.55444 0.30016 0.26184 0.0
C388 C 0.52139 0.30363 0.31872 0.0
C389 C 0.53326 0.3006 0.19631 0.0
C390 C 0.47823 0.30452 0.18547 0.0
H391 H 0.59726 0.30119 0.26783 0.0
H392 H 0.56053 0.30247 0.15433 0.0
S393 S 0.3742 0.30906 0.31699 0.0
N394 N 0.43061 0.3073 0.35943 0.0
N395 N 0.39083 0.30655 0.2368 0.0
C396 C 0.44458 0.30355 0.24187 0.0
C397 C 0.46612 0.30342 0.30846 0.0
C398 C 0.5027 0.29075 0.78705 0.0
C399 C 0.49377 0.32695 0.82223 0.0
C400 C 0.51525 0.2906 0.7188 0.0
C401 C 0.51982 0.32664 0.68184 0.0
H402 H 0.49957 0.26184 0.81214 0.0
H403 H 0.52148 0.26162 0.69494 0.0
S404 S 0.50142 0.43004 0.74949 0.0
N405 N 0.49113 0.40026 0.81483 0.0
N406 N 0.51494 0.39991 0.68563 0.0
C407 C 0.51167 0.3633 0.7161 0.0
C408 C 0.49846 0.36347 0.78627 0.0
C409 C 0.52459 0.7327 0.78319 0.0
C410 C 0.52304 0.69702 0.82132 0.0
C411 C 0.51352 0.73263 0.71451 0.0
C412 C 0.49989 0.69689 0.68028 0.0
H413 H 0.53456 0.76127 0.80649 0.0
H414 H 0.51508 0.7613 0.68843 0.0
S415 S 0.4911 0.59478 0.75664 0.0
N416 N 0.50774 0.62454 0.81989 0.0
N417 N 0.48649 0.62432 0.68996 0.0
C418 C 0.49868 0.66068 0.7175 0.0
C419 C 0.51046 0.66074 0.78804 0.0
C420 C 0.29388 0.23562 0.99676 0.0
C421 C 0.30622 0.27711 0.99202 0.0
C422 C 0.2411 0.22163 0.99593 0.0
C423 C 0.19792 0.24835 0.98972 0.0
H424 H 0.32518 0.21354 0.00292 0.0
H425 H 0.23424 0.18955 0.0017 0.0
S426 S 0.20839 0.35981 0.96925 0.0
N427 N 0.27054 0.34459 0.97666 0.0
N428 N 0.17175 0.31859 0.97403 0.0
C429 C 0.20976 0.28986 0.98208 0.0
C430 C 0.26361 0.30412 0.98354 0.0
C431 C 0.71816 0.7862 0.00224 0.0
C432 C 0.70521 0.74478 0.99822 0.0
C433 C 0.7711 0.79972 0.00187 0.0
C434 C 0.81384 0.77258 0.9968 0.0
H435 H 0.68718 0.80865 0.00709 0.0
H436 H 0.77841 0.83181 0.00657 0.0
S437 S 0.8018 0.66098 0.9795 0.0
N438 N 0.73986 0.67683 0.98556 0.0
N439 N 0.83904 0.70191 0.98368 0.0
C440 C 0.80144 0.73106 0.9904 0.0
C441 C 0.74741 0.71729 0.99144 0.0
C442 C 0.21787 0.73685 0.50688 0.0
C443 C 0.20551 0.77836 0.50976 0.0
C444 C 0.27059 0.72308 0.50728 0.0
C445 C 0.31372 0.75006 0.51122 0.0
H446 H 0.18659 0.7145 0.50258 0.0
H447 H 0.27741 0.69092 0.50317 0.0
S448 S 0.30335 0.8618 0.52611 0.0
N449 N 0.24114 0.84624 0.52078 0.0
N450 N 0.34001 0.82064 0.52272 0.0
C451 C 0.30196 0.79166 0.51696 0.0
C452 C 0.2481 0.80569 0.5159 0.0
C453 C 0.72514 0.26352 0.55823 0.0
C454 C 0.70151 0.27832 0.49899 0.0
C455 C 0.77695 0.24743 0.55758 0.0
C456 C 0.80588 0.24459 0.4973 0.0
H457 H 0.70352 0.26457 0.60528 0.0
H458 H 0.79455 0.23732 0.60437 0.0
S459 S 0.75985 0.27586 0.32808 0.0
N460 N 0.71001 0.28762 0.37844 0.0
N461 N 0.80622 0.25596 0.37672 0.0
C462 C 0.78208 0.25832 0.43767 0.0
C463 C 0.73006 0.27549 0.4386 0.0
loop_
_geom_bond_atom_site_label_1
_geom_bond_atom_site_label_2
_geom_bond_distance
_geom_bond_site_symmetry_2
_ccdc_geom_bond_type
Mn0 O5 2.095 1_554 S
Mn0 O15 2.162 . S
Mn0 O16 2.297 1_455 S
Mn0 O24 2.385 . S
Mn0 O25 2.209 . S
Mn0 O26 2.094 . S
Mn1 O6 2.121 1_454 S
Mn1 N8 2.257 1_455 S
Mn1 N17 2.282 . S
Mn1 O25 2.215 . S
Mn1 O27 2.117 . S
C2 O24 1.234 . S
C2 O25 1.283 . S
C3 O15 1.281 . S
C3 O16 1.236 1_455 S
C4 O26 1.240 . S
C4 O27 1.264 . S
O5 Mn0 2.095 1_556 S
O5 C14 1.250 . S
O6 Mn1 2.121 1_656 S
O6 C14 1.258 1_655 S
C7 N8 1.326 1_556 S
C7 C11 1.460 1_556 S
C7 H13 0.929 . S
N8 Mn1 2.257 1_655 S
N8 C7 1.326 1_554 S
N8 C12 1.362 . S
C9 C10 1.258 . S
C9 C12 1.431 . S
C9 C29 1.449 . S
C10 C9 1.258 . S
C10 C11 1.477 . S
C10 H30 0.931 . S
C11 C7 1.460 1_554 S
C11 C10 1.477 . S
C11 H31 0.930 1_554 S
C12 N8 1.362 . S
C12 C9 1.431 . S
C12 C22 1.476 . S
H13 C7 0.929 . S
C14 O5 1.250 . S
C14 O6 1.258 1_455 S
O15 Mn0 2.162 . S
O15 C3 1.281 . S
O16 Mn0 2.297 1_655 S
O16 C3 1.236 1_655 S
N17 Mn1 2.282 . S
N17 C18 1.328 . S
N17 C22 1.318 1_455 S
C18 N17 1.328 . S
C18 C19 1.457 . S
C18 H23 0.929 . S
C19 C18 1.457 . S
C19 C20 1.291 . S
C19 H32 0.931 . S
C20 C19 1.291 . S
C20 C21 1.373 1_455 S
C20 H33 0.929 . S
C21 C20 1.373 1_655 S
C21 C22 1.396 . S
C21 C28 1.403 . S
C22 C12 1.476 . S
C22 N17 1.318 1_655 S
C22 C21 1.396 . S
H23 C18 0.929 . S
O24 Mn0 2.385 . S
O24 C2 1.234 . S
O25 Mn0 2.209 . S
O25 Mn1 2.215 . S
O25 C2 1.283 . S
O26 Mn0 2.094 . S
O26 C4 1.240 . S
O27 Mn1 2.117 . S
O27 C4 1.264 . S
C28 C21 1.403 . S
C28 C29 1.399 . S
C28 H34 0.929 . S
C29 C9 1.449 . S
C29 C28 1.399 . S
C29 H35 0.930 . S
H30 C10 0.931 . S
H31 C11 0.930 1_556 S
H32 C19 0.931 . S
H33 C20 0.929 . S
H34 C28 0.929 . S
H35 C29 0.930 . S
Mn36 O41 2.095 1_554 S
Mn36 O51 2.162 . S
Mn36 O52 2.297 1_655 S
Mn36 O60 2.385 . S
Mn36 O61 2.209 . S
Mn36 O62 2.094 . S
Mn37 O42 2.121 1_654 S
Mn37 N44 2.257 1_655 S
Mn37 N53 2.282 . S
Mn37 O61 2.215 . S
Mn37 O63 2.117 . S
C38 O60 1.234 . S
C38 O61 1.283 . S
C39 O51 1.281 . S
C39 O52 1.236 1_655 S
C40 O62 1.240 . S
C40 O63 1.264 . S
O41 Mn36 2.095 1_556 S
O41 C50 1.250 . S
O42 Mn37 2.121 1_456 S
O42 C50 1.258 1_455 S
C43 N44 1.326 1_556 S
C43 C47 1.460 1_556 S
C43 H49 0.929 . S
N44 Mn37 2.257 1_455 S
N44 C43 1.326 1_554 S
N44 C48 1.362 . S
C45 C46 1.258 . S
C45 C48 1.431 . S
C45 C65 1.449 . S
C46 C45 1.258 . S
C46 C47 1.477 . S
C46 H66 0.931 . S
C47 C43 1.460 1_554 S
C47 C46 1.477 . S
C47 H67 0.930 1_554 S
C48 N44 1.362 . S
C48 C45 1.431 . S
C48 C58 1.476 . S
H49 C43 0.929 . S
C50 O41 1.250 . S
C50 O42 1.258 1_655 S
O51 Mn36 2.162 . S
O51 C39 1.281 . S
O52 Mn36 2.297 1_455 S
O52 C39 1.236 1_455 S
N53 Mn37 2.282 . S
N53 C54 1.328 . S
N53 C58 1.318 1_655 S
C54 N53 1.328 . S
C54 C55 1.457 . S
C54 H59 0.929 . S
C55 C54 1.457 . S
C55 C56 1.291 . S
C55 H68 0.931 . S
C56 C55 1.291 . S
C56 C57 1.373 1_655 S
C56 H69 0.929 . S
C57 C56 1.373 1_455 S
C57 C58 1.396 . S
C57 C64 1.403 . S
C58 C48 1.476 . S
C58 N53 1.318 1_455 S
C58 C57 1.396 . S
H59 C54 0.929 . S
O60 Mn36 2.385 . S
O60 C38 1.234 . S
O61 Mn36 2.209 . S
O61 Mn37 2.215 . S
O61 C38 1.283 . S
O62 Mn36 2.094 . S
O62 C40 1.240 . S
O63 Mn37 2.117 . S
O63 C40 1.264 . S
C64 C57 1.403 . S
C64 C65 1.399 . S
C64 H70 0.929 . S
C65 C45 1.449 . S
C65 C64 1.399 . S
C65 H71 0.930 . S
H66 C46 0.931 . S
H67 C47 0.930 1_556 S
H68 C55 0.931 . S
H69 C56 0.929 . S
H70 C64 0.929 . S
H71 C65 0.930 . S
Mn72 O77 2.095 . S
Mn72 O87 2.162 . S
Mn72 O88 2.297 1_455 S
Mn72 O96 2.385 . S
Mn72 O97 2.209 . S
Mn72 O98 2.094 . S
Mn73 O78 2.121 1_455 S
Mn73 N80 2.257 1_455 S
Mn73 N89 2.282 . S
Mn73 O97 2.215 . S
Mn73 O99 2.117 . S
C74 O96 1.234 . S
C74 O97 1.283 . S
C75 O87 1.281 . S
C75 O88 1.236 1_455 S
C76 O98 1.240 . S
C76 O99 1.264 . S
O77 Mn72 2.095 . S
O77 C86 1.250 . S
O78 Mn73 2.121 1_655 S
O78 C86 1.258 1_655 S
C79 N80 1.326 . S
C79 C83 1.460 . S
C79 H85 0.929 . S
N80 Mn73 2.257 1_655 S
N80 C79 1.326 . S
N80 C84 1.362 . S
C81 C82 1.258 . S
C81 C84 1.431 . S
C81 C101 1.449 . S
C82 C81 1.258 . S
C82 C83 1.477 . S
C82 H102 0.931 . S
C83 C79 1.460 . S
C83 C82 1.477 . S
C83 H103 0.930 . S
C84 N80 1.362 . S
C84 C81 1.431 . S
C84 C94 1.476 . S
H85 C79 0.929 . S
C86 O77 1.250 . S
C86 O78 1.258 1_455 S
O87 Mn72 2.162 . S
O87 C75 1.281 . S
O88 Mn72 2.297 1_655 S
O88 C75 1.236 1_655 S
N89 Mn73 2.282 . S
N89 C90 1.328 . S
N89 C94 1.318 1_455 S
C90 N89 1.328 . S
C90 C91 1.457 . S
C90 H95 0.929 . S
C91 C90 1.457 . S
C91 C92 1.291 . S
C91 H104 0.931 . S
C92 C91 1.291 . S
C92 C93 1.373 1_455 S
C92 H105 0.929 . S
C93 C92 1.373 1_655 S
C93 C94 1.396 . S
C93 C100 1.403 . S
C94 C84 1.476 . S
C94 N89 1.318 1_655 S
C94 C93 1.396 . S
H95 C90 0.929 . S
O96 Mn72 2.385 . S
O96 C74 1.234 . S
O97 Mn72 2.209 . S
O97 Mn73 2.215 . S
O97 C74 1.283 . S
O98 Mn72 2.094 . S
O98 C76 1.240 . S
O99 Mn73 2.117 . S
O99 C76 1.264 . S
C100 C93 1.403 . S
C100 C101 1.399 . S
C100 H106 0.929 . S
C101 C81 1.449 . S
C101 C100 1.399 . S
C101 H107 0.930 . S
H102 C82 0.931 . S
H103 C83 0.930 . S
H104 C91 0.931 . S
H105 C92 0.929 . S
H106 C100 0.929 . S
H107 C101 0.930 . S
Mn108 O113 2.095 . S
Mn108 O123 2.162 . S
Mn108 O124 2.297 1_655 S
Mn108 O132 2.385 . S
Mn108 O133 2.209 . S
Mn108 O134 2.094 . S
Mn109 O114 2.121 1_655 S
Mn109 N116 2.257 1_655 S
Mn109 N125 2.282 . S
Mn109 O133 2.215 . S
Mn109 O135 2.117 . S
C110 O132 1.234 . S
C110 O133 1.283 . S
C111 O123 1.281 . S
C111 O124 1.236 1_655 S
C112 O134 1.240 . S
C112 O135 1.264 . S
O113 Mn108 2.095 . S
O113 C122 1.250 . S
O114 Mn109 2.121 1_455 S
O114 C122 1.258 1_455 S
C115 N116 1.326 . S
C115 C119 1.460 . S
C115 H121 0.929 . S
N116 Mn109 2.257 1_455 S
N116 C115 1.326 . S
N116 C120 1.362 . S
C117 C118 1.258 . S
C117 C120 1.431 . S
C117 C137 1.449 . S
C118 C117 1.258 . S
C118 C119 1.477 . S
C118 H138 0.931 . S
C119 C115 1.460 . S
C119 C118 1.477 . S
C119 H139 0.930 . S
C120 N116 1.362 . S
C120 C117 1.431 . S
C120 C130 1.476 . S
H121 C115 0.929 . S
C122 O113 1.250 . S
C122 O114 1.258 1_655 S
O123 Mn108 2.162 . S
O123 C111 1.281 . S
O124 Mn108 2.297 1_455 S
O124 C111 1.236 1_455 S
N125 Mn109 2.282 . S
N125 C126 1.328 . S
N125 C130 1.318 1_655 S
C126 N125 1.328 . S
C126 C127 1.457 . S
C126 H131 0.929 . S
C127 C126 1.457 . S
C127 C128 1.291 . S
C127 H140 0.931 . S
C128 C127 1.291 . S
C128 C129 1.373 1_655 S
C128 H141 0.929 . S
C129 C128 1.373 1_455 S
C129 C130 1.396 . S
C129 C136 1.403 . S
C130 C120 1.476 . S
C130 N125 1.318 1_455 S
C130 C129 1.396 . S
H131 C126 0.929 . S
O132 Mn108 2.385 . S
O132 C110 1.234 . S
O133 Mn108 2.209 . S
O133 Mn109 2.215 . S
O133 C110 1.283 . S
O134 Mn108 2.094 . S
O134 C112 1.240 . S
O135 Mn109 2.117 . S
O135 C112 1.264 . S
C136 C129 1.403 . S
C136 C137 1.399 . S
C136 H142 0.929 . S
C137 C117 1.449 . S
C137 C136 1.399 . S
C137 H143 0.930 . S
H138 C118 0.931 . S
H139 C119 0.930 . S
H140 C127 0.931 . S
H141 C128 0.929 . S
H142 C136 0.929 . S
H143 C137 0.930 . S
Mn144 O149 2.095 1_554 S
Mn144 O159 2.162 . S
Mn144 O160 2.297 . S
Mn144 O168 2.385 . S
Mn144 O169 2.209 . S
Mn144 O170 2.094 . S
Mn145 O150 2.121 1_554 S
Mn145 N152 2.257 . S
Mn145 N161 2.282 . S
Mn145 O169 2.215 . S
Mn145 O171 2.117 . S
C146 O168 1.234 . S
C146 O169 1.283 . S
C147 O159 1.281 . S
C147 O160 1.236 . S
C148 O170 1.240 . S
C148 O171 1.264 . S
O149 Mn144 2.095 1_556 S
O149 C158 1.250 . S
O150 Mn145 2.121 1_556 S
O150 C158 1.258 . S
C151 N152 1.326 1_556 S
C151 C155 1.460 1_556 S
C151 H157 0.929 . S
N152 Mn145 2.257 . S
N152 C151 1.326 1_554 S
N152 C156 1.362 . S
C153 C154 1.258 . S
C153 C156 1.431 . S
C153 C173 1.449 . S
C154 C153 1.258 . S
C154 C155 1.477 . S
C154 H174 0.931 . S
C155 C151 1.460 1_554 S
C155 C154 1.477 . S
C155 H175 0.930 1_554 S
C156 N152 1.362 . S
C156 C153 1.431 . S
C156 C166 1.476 . S
H157 C151 0.929 . S
C158 O149 1.250 . S
C158 O150 1.258 . S
O159 Mn144 2.162 . S
O159 C147 1.281 . S
O160 Mn144 2.297 . S
O160 C147 1.236 . S
N161 Mn145 2.282 . S
N161 C162 1.328 . S
N161 C166 1.318 . S
C162 N161 1.328 . S
C162 C163 1.457 . S
C162 H167 0.929 . S
C163 C162 1.457 . S
C163 C164 1.291 . S
C163 H176 0.931 . S
C164 C163 1.291 . S
C164 C165 1.373 . S
C164 H177 0.929 . S
C165 C164 1.373 . S
C165 C166 1.396 . S
C165 C172 1.403 . S
C166 C156 1.476 . S
C166 N161 1.318 . S
C166 C165 1.396 . S
H167 C162 0.929 . S
O168 Mn144 2.385 . S
O168 C146 1.234 . S
O169 Mn144 2.209 . S
O169 Mn145 2.215 . S
O169 C146 1.283 . S
O170 Mn144 2.094 . S
O170 C148 1.240 . S
O171 Mn145 2.117 . S
O171 C148 1.264 . S
C172 C165 1.403 . S
C172 C173 1.399 . S
C172 H178 0.929 . S
C173 C153 1.449 . S
C173 C172 1.399 . S
C173 H179 0.930 . S
H174 C154 0.931 . S
H175 C155 0.930 1_556 S
H176 C163 0.931 . S
H177 C164 0.929 . S
H178 C172 0.929 . S
H179 C173 0.930 . S
Mn180 O185 2.095 1_554 S
Mn180 O195 2.162 . S
Mn180 O196 2.297 . S
Mn180 O204 2.385 . S
Mn180 O205 2.209 . S
Mn180 O206 2.094 . S
Mn181 O186 2.121 1_554 S
Mn181 N188 2.257 . S
Mn181 N197 2.282 . S
Mn181 O205 2.215 . S
Mn181 O207 2.117 . S
C182 O204 1.234 . S
C182 O205 1.283 . S
C183 O195 1.281 . S
C183 O196 1.236 . S
C184 O206 1.240 . S
C184 O207 1.264 . S
O185 Mn180 2.095 1_556 S
O185 C194 1.250 . S
O186 Mn181 2.121 1_556 S
O186 C194 1.258 . S
C187 N188 1.326 1_556 S
C187 C191 1.460 1_556 S
C187 H193 0.929 . S
N188 Mn181 2.257 . S
N188 C187 1.326 1_554 S
N188 C192 1.362 . S
C189 C190 1.258 . S
C189 C192 1.431 . S
C189 C209 1.449 . S
C190 C189 1.258 . S
C190 C191 1.477 . S
C190 H210 0.931 . S
C191 C187 1.460 1_554 S
C191 C190 1.477 . S
C191 H211 0.930 1_554 S
C192 N188 1.362 . S
C192 C189 1.431 . S
C192 C202 1.476 . S
H193 C187 0.929 . S
C194 O185 1.250 . S
C194 O186 1.258 . S
O195 Mn180 2.162 . S
O195 C183 1.281 . S
O196 Mn180 2.297 . S
O196 C183 1.236 . S
N197 Mn181 2.282 . S
N197 C198 1.328 . S
N197 C202 1.318 . S
C198 N197 1.328 . S
C198 C199 1.457 . S
C198 H203 0.929 . S
C199 C198 1.457 . S
C199 C200 1.291 . S
C199 H212 0.931 . S
C200 C199 1.291 . S
C200 C201 1.373 . S
C200 H213 0.929 . S
C201 C200 1.373 . S
C201 C202 1.396 . S
C201 C208 1.403 . S
C202 C192 1.476 . S
C202 N197 1.318 . S
C202 C201 1.396 . S
H203 C198 0.929 . S
O204 Mn180 2.385 . S
O204 C182 1.234 . S
O205 Mn180 2.209 . S
O205 Mn181 2.215 . S
O205 C182 1.283 . S
O206 Mn180 2.094 . S
O206 C184 1.240 . S
O207 Mn181 2.117 . S
O207 C184 1.264 . S
C208 C201 1.403 . S
C208 C209 1.399 . S
C208 H214 0.929 . S
C209 C189 1.449 . S
C209 C208 1.399 . S
C209 H215 0.930 . S
H210 C190 0.931 . S
H211 C191 0.930 1_556 S
H212 C199 0.931 . S
H213 C200 0.929 . S
H214 C208 0.929 . S
H215 C209 0.930 . S
Mn216 O221 2.095 . S
Mn216 O231 2.162 . S
Mn216 O232 2.297 . S
Mn216 O240 2.385 . S
Mn216 O241 2.209 . S
Mn216 O242 2.094 . S
Mn217 O222 2.121 . S
Mn217 N224 2.257 . S
Mn217 N233 2.282 . S
Mn217 O241 2.215 . S
Mn217 O243 2.117 . S
C218 O240 1.234 . S
C218 O241 1.283 . S
C219 O231 1.281 . S
C219 O232 1.236 . S
C220 O242 1.240 . S
C220 O243 1.264 . S
O221 Mn216 2.095 . S
O221 C230 1.250 . S
O222 Mn217 2.121 . S
O222 C230 1.258 . S
C223 N224 1.326 . S
C223 C227 1.460 . S
C223 H229 0.929 . S
N224 Mn217 2.257 . S
N224 C223 1.326 . S
N224 C228 1.362 . S
C225 C226 1.258 . S
C225 C228 1.431 . S
C225 C245 1.449 . S
C226 C225 1.258 . S
C226 C227 1.477 . S
C226 H246 0.931 . S
C227 C223 1.460 . S
C227 C226 1.477 . S
C227 H247 0.930 . S
C228 N224 1.362 . S
C228 C225 1.431 . S
C228 C238 1.476 . S
H229 C223 0.929 . S
C230 O221 1.250 . S
C230 O222 1.258 . S
O231 Mn216 2.162 . S
O231 C219 1.281 . S
O232 Mn216 2.297 . S
O232 C219 1.236 . S
N233 Mn217 2.282 . S
N233 C234 1.328 . S
N233 C238 1.318 . S
C234 N233 1.328 . S
C234 C235 1.457 . S
C234 H239 0.929 . S
C235 C234 1.457 . S
C235 C236 1.291 . S
C235 H248 0.931 . S
C236 C235 1.291 . S
C236 C237 1.373 . S
C236 H249 0.929 . S
C237 C236 1.373 . S
C237 C238 1.396 . S
C237 C244 1.403 . S
C238 C228 1.476 . S
C238 N233 1.318 . S
C238 C237 1.396 . S
H239 C234 0.929 . S
O240 Mn216 2.385 . S
O240 C218 1.234 . S
O241 Mn216 2.209 . S
O241 Mn217 2.215 . S
O241 C218 1.283 . S
O242 Mn216 2.094 . S
O242 C220 1.240 . S
O243 Mn217 2.117 . S
O243 C220 1.264 . S
C244 C237 1.403 . S
C244 C245 1.399 . S
C244 H250 0.929 . S
C245 C225 1.449 . S
C245 C244 1.399 . S
C245 H251 0.930 . S
H246 C226 0.931 . S
H247 C227 0.930 . S
H248 C235 0.931 . S
H249 C236 0.929 . S
H250 C244 0.929 . S
H251 C245 0.930 . S
Mn252 O257 2.095 . S
Mn252 O267 2.162 . S
Mn252 O268 2.297 . S
Mn252 O276 2.385 . S
Mn252 O277 2.209 . S
Mn252 O278 2.094 . S
Mn253 O258 2.121 . S
Mn253 N260 2.257 . S
Mn253 N269 2.282 . S
Mn253 O277 2.215 . S
Mn253 O279 2.117 . S
C254 O276 1.234 . S
C254 O277 1.283 . S
C255 O267 1.281 . S
C255 O268 1.236 . S
C256 O278 1.240 . S
C256 O279 1.264 . S
O257 Mn252 2.095 . S
O257 C266 1.250 . S
O258 Mn253 2.121 . S
O258 C266 1.258 . S
C259 N260 1.326 . S
C259 C263 1.460 . S
C259 H265 0.929 . S
N260 Mn253 2.257 . S
N260 C259 1.326 . S
N260 C264 1.362 . S
C261 C262 1.258 . S
C261 C264 1.431 . S
C261 C281 1.449 . S
C262 C261 1.258 . S
C262 C263 1.477 . S
C262 H282 0.931 . S
C263 C259 1.460 . S
C263 C262 1.477 . S
C263 H283 0.930 . S
C264 N260 1.362 . S
C264 C261 1.431 . S
C264 C274 1.476 . S
H265 C259 0.929 . S
C266 O257 1.250 . S
C266 O258 1.258 . S
O267 Mn252 2.162 . S
O267 C255 1.281 . S
O268 Mn252 2.297 . S
O268 C255 1.236 . S
N269 Mn253 2.282 . S
N269 C270 1.328 . S
N269 C274 1.318 . S
C270 N269 1.328 . S
C270 C271 1.457 . S
C270 H275 0.929 . S
C271 C270 1.457 . S
C271 C272 1.291 . S
C271 H284 0.931 . S
C272 C271 1.291 . S
C272 C273 1.373 . S
C272 H285 0.929 . S
C273 C272 1.373 . S
C273 C274 1.396 . S
C273 C280 1.403 . S
C274 C264 1.476 . S
C274 N269 1.318 . S
C274 C273 1.396 . S
H275 C270 0.929 . S
O276 Mn252 2.385 . S
O276 C254 1.234 . S
O277 Mn252 2.209 . S
O277 Mn253 2.215 . S
O277 C254 1.283 . S
O278 Mn252 2.094 . S
O278 C256 1.240 . S
O279 Mn253 2.117 . S
O279 C256 1.264 . S
C280 C273 1.403 . S
C280 C281 1.399 . S
C280 H286 0.929 . S
C281 C261 1.449 . S
C281 C280 1.399 . S
C281 H287 0.930 . S
H282 C262 0.931 . S
H283 C263 0.930 . S
H284 C271 0.931 . S
H285 C272 0.929 . S
H286 C280 0.929 . S
H287 C281 0.930 . S
C288 C289 1.369 1_556 S
C288 C290 1.419 1_565 S
C288 H292 0.930 . S
C289 C288 1.369 1_554 S
C289 C298 1.429 1_655 S
C290 C288 1.419 1_545 S
C290 C291 1.363 1_656 S
C290 H293 0.929 . S
C291 C290 1.363 1_454 S
C291 C297 1.428 . S
H292 C288 0.930 . S
H293 C290 0.929 . S
S294 N295 1.613 . S
S294 N296 1.610 1_565 S
N295 S294 1.613 . S
N295 C298 1.350 . S
N296 S294 1.610 1_545 S
N296 C297 1.351 . S
C297 C291 1.428 . S
C297 N296 1.351 . S
C297 C298 1.434 1_545 S
C298 C289 1.429 1_455 S
C298 N295 1.350 . S
C298 C297 1.434 1_565 S
C299 C300 1.369 . S
C299 C301 1.419 1_565 S
C299 H303 0.930 . S
C300 C299 1.369 . S
C300 C309 1.429 1_455 S
C301 C299 1.419 1_545 S
C301 C302 1.363 1_455 S
C301 H304 0.929 . S
C302 C301 1.363 1_655 S
C302 C308 1.428 . S
H303 C299 0.930 . S
H304 C301 0.929 . S
S305 N306 1.613 . S
S305 N307 1.610 1_565 S
N306 S305 1.613 . S
N306 C309 1.350 . S
N307 S305 1.610 1_545 S
N307 C308 1.351 . S
C308 C302 1.428 . S
C308 N307 1.351 . S
C308 C309 1.434 1_545 S
C309 C300 1.429 1_655 S
C309 N306 1.350 . S
C309 C308 1.434 1_565 S
C310 C311 1.369 1_556 S
C310 C312 1.419 . S
C310 H314 0.930 . S
C311 C310 1.369 1_554 S
C311 C320 1.429 . S
C312 C310 1.419 . S
C312 C313 1.363 1_556 S
C312 H315 0.929 . S
C313 C312 1.363 1_554 S
C313 C319 1.428 . S
H314 C310 0.930 . S
H315 C312 0.929 . S
S316 N317 1.613 . S
S316 N318 1.610 . S
N317 S316 1.613 . S
N317 C320 1.350 . S
N318 S316 1.610 . S
N318 C319 1.351 . S
C319 C313 1.428 . S
C319 N318 1.351 . S
C319 C320 1.434 . S
C320 C311 1.429 . S
C320 N317 1.350 . S
C320 C319 1.434 . S
C321 C322 1.369 . S
C321 C323 1.419 . S
C321 H325 0.930 . S
C322 C321 1.369 . S
C322 C331 1.429 . S
C323 C321 1.419 . S
C323 C324 1.363 . S
C323 H326 0.929 . S
C324 C323 1.363 . S
C324 C330 1.428 . S
H325 C321 0.930 . S
H326 C323 0.929 . S
S327 N328 1.613 . S
S327 N329 1.610 . S
N328 S327 1.613 . S
N328 C331 1.350 . S
N329 S327 1.610 . S
N329 C330 1.351 . S
C330 C324 1.428 . S
C330 N329 1.351 . S
C330 C331 1.434 . S
C331 C322 1.429 . S
C331 N328 1.350 . S
C331 C330 1.434 . S
C332 C333 1.369 . S
C332 C334 1.419 . S
C332 H336 0.930 . S
C333 C332 1.369 . S
C333 C342 1.429 1_655 S
C334 C332 1.419 . S
C334 C335 1.363 1_655 S
C334 H337 0.929 . S
C335 C334 1.363 1_455 S
C335 C341 1.428 . S
H336 C332 0.930 . S
H337 C334 0.929 . S
S338 N339 1.613 . S
S338 N340 1.610 . S
N339 S338 1.613 . S
N339 C342 1.350 . S
N340 S338 1.610 . S
N340 C341 1.351 . S
C341 C335 1.428 . S
C341 N340 1.351 . S
C341 C342 1.434 . S
C342 C333 1.429 1_455 S
C342 N339 1.350 . S
C342 C341 1.434 . S
C343 C344 1.369 . S
C343 C345 1.419 . S
C343 H347 0.930 . S
C344 C343 1.369 . S
C344 C353 1.429 1_655 S
C345 C343 1.419 . S
C345 C346 1.363 1_655 S
C345 H348 0.929 . S
C346 C345 1.363 1_455 S
C346 C352 1.428 . S
H347 C343 0.930 . S
H348 C345 0.929 . S
S349 N350 1.613 . S
S349 N351 1.610 . S
N350 S349 1.613 . S
N350 C353 1.350 . S
N351 S349 1.610 . S
N351 C352 1.351 . S
C352 C346 1.428 . S
C352 N351 1.351 . S
C352 C353 1.434 . S
C353 C344 1.429 1_455 S
C353 N350 1.350 . S
C353 C352 1.434 . S
C354 C355 1.369 1_455 S
C354 C356 1.419 . S
C354 H358 0.930 . S
C355 C354 1.369 1_655 S
C355 C364 1.429 . S
C356 C354 1.419 . S
C356 C357 1.363 . S
C356 H359 0.929 . S
C357 C356 1.363 . S
C357 C363 1.428 1_455 S
H358 C354 0.930 . S
H359 C356 0.929 . S
S360 N361 1.613 . S
S360 N362 1.610 . S
N361 S360 1.613 . S
N361 C364 1.350 . S
N362 S360 1.610 . S
N362 C363 1.351 . S
C363 C357 1.428 1_655 S
C363 N362 1.351 . S
C363 C364 1.434 . S
C364 C355 1.429 . S
C364 N361 1.350 . S
C364 C363 1.434 . S
C365 C366 1.369 1_455 S
C365 C367 1.419 . S
C365 H369 0.930 . S
C366 C365 1.369 1_655 S
C366 C375 1.429 . S
C367 C365 1.419 . S
C367 C368 1.363 . S
C367 H370 0.929 . S
C368 C367 1.363 . S
C368 C374 1.428 1_455 S
H369 C365 0.930 . S
H370 C367 0.929 . S
S371 N372 1.613 . S
S371 N373 1.610 . S
N372 S371 1.613 . S
N372 C375 1.350 . S
N373 S371 1.610 . S
N373 C374 1.351 . S
C374 C368 1.428 1_655 S
C374 N373 1.351 . S
C374 C375 1.434 . S
C375 C366 1.429 . S
C375 N372 1.350 . S
C375 C374 1.434 . S
C376 C377 1.369 . S
C376 C378 1.419 . S
C376 H380 0.930 . S
C377 C376 1.369 . S
C377 C386 1.429 . S
C378 C376 1.419 . S
C378 C379 1.363 . S
C378 H381 0.929 . S
C379 C378 1.363 . S
C379 C385 1.428 . S
H380 C376 0.930 . S
H381 C378 0.929 . S
S382 N383 1.613 . S
S382 N384 1.610 . S
N383 S382 1.613 . S
N383 C386 1.350 . S
N384 S382 1.610 . S
N384 C385 1.351 . S
C385 C379 1.428 . S
C385 N384 1.351 . S
C385 C386 1.434 . S
C386 C377 1.429 . S
C386 N383 1.350 . S
C386 C385 1.434 . S
C387 C388 1.369 . S
C387 C389 1.419 . S
C387 H391 0.930 . S
C388 C387 1.369 . S
C388 C397 1.429 . S
C389 C387 1.419 . S
C389 C390 1.363 . S
C389 H392 0.929 . S
C390 C389 1.363 . S
C390 C396 1.428 . S
H391 C387 0.930 . S
H392 C389 0.929 . S
S393 N394 1.613 . S
S393 N395 1.610 . S
N394 S393 1.613 . S
N394 C397 1.350 . S
N395 S393 1.610 . S
N395 C396 1.351 . S
C396 C390 1.428 . S
C396 N395 1.351 . S
C396 C397 1.434 . S
C397 C388 1.429 . S
C397 N394 1.350 . S
C397 C396 1.434 . S
C398 C399 1.369 . S
C398 C400 1.419 . S
C398 H402 0.930 . S
C399 C398 1.369 . S
C399 C408 1.429 . S
C400 C398 1.419 . S
C400 C401 1.363 . S
C400 H403 0.929 . S
C401 C400 1.363 . S
C401 C407 1.428 . S
H402 C398 0.930 . S
H403 C400 0.929 . S
S404 N405 1.613 . S
S404 N406 1.610 . S
N405 S404 1.613 . S
N405 C408 1.350 . S
N406 S404 1.610 . S
N406 C407 1.351 . S
C407 C401 1.428 . S
C407 N406 1.351 . S
C407 C408 1.434 . S
C408 C399 1.429 . S
C408 N405 1.350 . S
C408 C407 1.434 . S
C409 C410 1.369 . S
C409 C411 1.419 . S
C409 H413 0.930 . S
C410 C409 1.369 . S
C410 C419 1.429 . S
C411 C409 1.419 . S
C411 C412 1.363 . S
C411 H414 0.929 . S
C412 C411 1.363 . S
C412 C418 1.428 . S
H413 C409 0.930 . S
H414 C411 0.929 . S
S415 N416 1.613 . S
S415 N417 1.610 . S
N416 S415 1.613 . S
N416 C419 1.350 . S
N417 S415 1.610 . S
N417 C418 1.351 . S
C418 C412 1.428 . S
C418 N417 1.351 . S
C418 C419 1.434 . S
C419 C410 1.429 . S
C419 N416 1.350 . S
C419 C418 1.434 . S
C420 C421 1.369 1_556 S
C420 C422 1.419 . S
C420 H424 0.930 . S
C421 C420 1.369 1_554 S
C421 C430 1.429 . S
C422 C420 1.419 . S
C422 C423 1.363 1_556 S
C422 H425 0.929 . S
C423 C422 1.363 1_554 S
C423 C429 1.428 . S
H424 C420 0.930 . S
H425 C422 0.929 . S
S426 N427 1.613 . S
S426 N428 1.610 . S
N427 S426 1.613 . S
N427 C430 1.350 . S
N428 S426 1.610 . S
N428 C429 1.351 . S
C429 C423 1.428 . S
C429 N428 1.351 . S
C429 C430 1.434 . S
C430 C421 1.429 . S
C430 N427 1.350 . S
C430 C429 1.434 . S
C431 C432 1.369 1_556 S
C431 C433 1.419 . S
C431 H435 0.930 . S
C432 C431 1.369 1_554 S
C432 C441 1.429 . S
C433 C431 1.419 . S
C433 C434 1.363 1_556 S
C433 H436 0.929 . S
C434 C433 1.363 1_554 S
C434 C440 1.428 . S
H435 C431 0.930 . S
H436 C433 0.929 . S
S437 N438 1.613 . S
S437 N439 1.610 . S
N438 S437 1.613 . S
N438 C441 1.350 . S
N439 S437 1.610 . S
N439 C440 1.351 . S
C440 C434 1.428 . S
C440 N439 1.351 . S
C440 C441 1.434 . S
C441 C432 1.429 . S
C441 N438 1.350 . S
C441 C440 1.434 . S
C442 C443 1.369 . S
C442 C444 1.419 . S
C442 H446 0.930 . S
C443 C442 1.369 . S
C443 C452 1.429 . S
C444 C442 1.419 . S
C444 C445 1.363 . S
C444 H447 0.929 . S
C445 C444 1.363 . S
C445 C451 1.428 . S
H446 C442 0.930 . S
H447 C444 0.929 . S
S448 N449 1.613 . S
S448 N450 1.610 . S
N449 S448 1.613 . S
N449 C452 1.350 . S
N450 S448 1.610 . S
N450 C451 1.351 . S
C451 C445 1.428 . S
C451 N450 1.351 . S
C451 C452 1.434 . S
C452 C443 1.429 . S
C452 N449 1.350 . S
C452 C451 1.434 . S
C453 C454 1.369 . S
C453 C455 1.419 . S
C453 H457 0.930 . S
C454 C453 1.369 . S
C454 C463 1.429 . S
C455 C453 1.419 . S
C455 C456 1.363 . S
C455 H458 0.929 . S
C456 C455 1.363 . S
C456 C462 1.428 . S
H457 C453 0.930 . S
H458 C455 0.929 . S
S459 N460 1.613 . S
S459 N461 1.610 . S
N460 S459 1.613 . S
N460 C463 1.350 . S
N461 S459 1.610 . S
N461 C462 1.351 . S
C462 C456 1.428 . S
C462 N461 1.351 . S
C462 C463 1.434 . S
C463 C454 1.429 . S
C463 N460 1.350 . S
C463 C462 1.434 . S
C289 C39 1.510 . S
C291 C3 1.510 . S
C300 C75 1.510 . S
C302 C111 1.510 . S
C311 C147 1.511 . S
C313 C183 1.510 . S
C322 C219 1.509 . S
C324 C255 1.510 . S
C333 C2 1.286 1_655 S
C335 C110 1.291 1_455 S
C344 C74 1.288 1_655 S
C346 C38 1.297 1_455 S
C355 C86 1.397 1_655 S
C357 C50 1.392 1_455 S
C366 C14 1.394 1_655 S
C368 C122 1.389 1_455 S
C377 C146 1.297 . S
C379 C254 1.292 . S
C388 C218 1.290 . S
C390 C182 1.288 . S
C399 C194 1.397 . S
C401 C230 1.392 . S
C410 C158 1.397 . S
C412 C266 1.391 . S
C421 C184 1.516 . S
C423 C4 1.516 . S
C432 C148 1.516 . S
C434 C40 1.516 . S
C443 C76 1.516 . S
C445 C256 1.516 . S
C454 C220 1.516 . S
C456 C112 1.516 . S
