# Generated by pormake.
# Topology uow, (4)-cn, num edge types: 1
# Building blocks:
#     Node 0, Type 0, BuildingBlock: AZAVOO_clean_sbu_0, # of connection points: 4
#     Node 1, Type 0, BuildingBlock: AZAVOO_clean_sbu_0, # of connection points: 4
#     Node 2, Type 0, BuildingBlock: AZAVOO_clean_sbu_0, # of connection points: 4
#     Node 3, Type 0, BuildingBlock: AZAVOO_clean_sbu_0, # of connection points: 4
#     Node 4, Type 0, BuildingBlock: AZAVOO_clean_sbu_0, # of connection points: 4
#     Node 5, Type 0, BuildingBlock: AZAVOO_clean_sbu_0, # of connection points: 4
#     Node 6, Type 0, BuildingBlock: AZAVOO_clean_sbu_0, # of connection points: 4
#     Node 7, Type 0, BuildingBlock: AZAVOO_clean_sbu_0, # of connection points: 4
#     Node 8, Type 0, BuildingBlock: AZAVOO_clean_sbu_0, # of connection points: 4
#     Node 9, Type 0, BuildingBlock: AZAVOO_clean_sbu_0, # of connection points: 4
#     Node 10, Type 0, BuildingBlock: AZAVOO_clean_sbu_0, # of connection points: 4
#     Node 11, Type 0, BuildingBlock: AZAVOO_clean_sbu_0, # of connection points: 4
#     Node 12, Type 0, BuildingBlock: AZAVOO_clean_sbu_0, # of connection points: 4
#     Node 13, Type 0, BuildingBlock: AZAVOO_clean_sbu_0, # of connection points: 4
#     Node 14, Type 0, BuildingBlock: AZAVOO_clean_sbu_0, # of connection points: 4
#     Node 15, Type 0, BuildingBlock: AZAVOO_clean_sbu_0, # of connection points: 4
#     Node 16, Type 0, BuildingBlock: AZAVOO_clean_sbu_0, # of connection points: 4
#     Node 17, Type 0, BuildingBlock: AZAVOO_clean_sbu_0, # of connection points: 4
#     Node 18, Type 0, BuildingBlock: AZAVOO_clean_sbu_0, # of connection points: 4
#     Node 19, Type 0, BuildingBlock: AZAVOO_clean_sbu_0, # of connection points: 4
#     Node 20, Type 0, BuildingBlock: AZAVOO_clean_sbu_0, # of connection points: 4
#     Node 21, Type 0, BuildingBlock: AZAVOO_clean_sbu_0, # of connection points: 4
#     Node 22, Type 0, BuildingBlock: AZAVOO_clean_sbu_0, # of connection points: 4
#     Node 23, Type 0, BuildingBlock: AZAVOO_clean_sbu_0, # of connection points: 4
#     Node 24, Type 0, BuildingBlock: AZAVOO_clean_sbu_0, # of connection points: 4
#     Node 25, Type 0, BuildingBlock: AZAVOO_clean_sbu_0, # of connection points: 4
#     Node 26, Type 0, BuildingBlock: AZAVOO_clean_sbu_0, # of connection points: 4
#     Node 27, Type 0, BuildingBlock: AZAVOO_clean_sbu_0, # of connection points: 4
#     Node 28, Type 0, BuildingBlock: AZAVOO_clean_sbu_0, # of connection points: 4
#     Node 29, Type 0, BuildingBlock: AZAVOO_clean_sbu_0, # of connection points: 4
#     Node 30, Type 0, BuildingBlock: AZAVOO_clean_sbu_0, # of connection points: 4
#     Node 31, Type 0, BuildingBlock: AZAVOO_clean_sbu_0, # of connection points: 4
#     Edge 32, Type (0, 0), BuildingBlock: UVAHIK_clean_linker_0, # of connection points: 2
#     Edge 33, Type (0, 0), BuildingBlock: UVAHIK_clean_linker_0, # of connection points: 2
#     Edge 34, Type (0, 0), BuildingBlock: UVAHIK_clean_linker_0, # of connection points: 2
#     Edge 35, Type (0, 0), BuildingBlock: UVAHIK_clean_linker_0, # of connection points: 2
#     Edge 36, Type (0, 0), BuildingBlock: UVAHIK_clean_linker_0, # of connection points: 2
#     Edge 37, Type (0, 0), BuildingBlock: UVAHIK_clean_linker_0, # of connection points: 2
#     Edge 38, Type (0, 0), BuildingBlock: UVAHIK_clean_linker_0, # of connection points: 2
#     Edge 39, Type (0, 0), BuildingBlock: UVAHIK_clean_linker_0, # of connection points: 2
#     Edge 40, Type (0, 0), BuildingBlock: UVAHIK_clean_linker_0, # of connection points: 2
#     Edge 41, Type (0, 0), BuildingBlock: UVAHIK_clean_linker_0, # of connection points: 2
#     Edge 42, Type (0, 0), BuildingBlock: UVAHIK_clean_linker_0, # of connection points: 2
#     Edge 43, Type (0, 0), BuildingBlock: UVAHIK_clean_linker_0, # of connection points: 2
#     Edge 44, Type (0, 0), BuildingBlock: UVAHIK_clean_linker_0, # of connection points: 2
#     Edge 45, Type (0, 0), BuildingBlock: UVAHIK_clean_linker_0, # of connection points: 2
#     Edge 46, Type (0, 0), BuildingBlock: UVAHIK_clean_linker_0, # of connection points: 2
#     Edge 47, Type (0, 0), BuildingBlock: UVAHIK_clean_linker_0, # of connection points: 2
#     Edge 48, Type (0, 0), BuildingBlock: UVAHIK_clean_linker_0, # of connection points: 2
#     Edge 49, Type (0, 0), BuildingBlock: UVAHIK_clean_linker_0, # of connection points: 2
#     Edge 50, Type (0, 0), BuildingBlock: UVAHIK_clean_linker_0, # of connection points: 2
#     Edge 51, Type (0, 0), BuildingBlock: UVAHIK_clean_linker_0, # of connection points: 2
#     Edge 52, Type (0, 0), BuildingBlock: UVAHIK_clean_linker_0, # of connection points: 2
#     Edge 53, Type (0, 0), BuildingBlock: UVAHIK_clean_linker_0, # of connection points: 2
#     Edge 54, Type (0, 0), BuildingBlock: UVAHIK_clean_linker_0, # of connection points: 2
#     Edge 55, Type (0, 0), BuildingBlock: UVAHIK_clean_linker_0, # of connection points: 2
#     Edge 56, Type (0, 0), BuildingBlock: UVAHIK_clean_linker_0, # of connection points: 2
#     Edge 57, Type (0, 0), BuildingBlock: UVAHIK_clean_linker_0, # of connection points: 2
#     Edge 58, Type (0, 0), BuildingBlock: UVAHIK_clean_linker_0, # of connection points: 2
#     Edge 59, Type (0, 0), BuildingBlock: UVAHIK_clean_linker_0, # of connection points: 2
#     Edge 60, Type (0, 0), BuildingBlock: UVAHIK_clean_linker_0, # of connection points: 2
#     Edge 61, Type (0, 0), BuildingBlock: UVAHIK_clean_linker_0, # of connection points: 2
#     Edge 62, Type (0, 0), BuildingBlock: UVAHIK_clean_linker_0, # of connection points: 2
#     Edge 63, Type (0, 0), BuildingBlock: UVAHIK_clean_linker_0, # of connection points: 2
#     Edge 64, Type (0, 0), BuildingBlock: UVAHIK_clean_linker_0, # of connection points: 2
#     Edge 65, Type (0, 0), BuildingBlock: UVAHIK_clean_linker_0, # of connection points: 2
#     Edge 66, Type (0, 0), BuildingBlock: UVAHIK_clean_linker_0, # of connection points: 2
#     Edge 67, Type (0, 0), BuildingBlock: UVAHIK_clean_linker_0, # of connection points: 2
#     Edge 68, Type (0, 0), BuildingBlock: UVAHIK_clean_linker_0, # of connection points: 2
#     Edge 69, Type (0, 0), BuildingBlock: UVAHIK_clean_linker_0, # of connection points: 2
#     Edge 70, Type (0, 0), BuildingBlock: UVAHIK_clean_linker_0, # of connection points: 2
#     Edge 71, Type (0, 0), BuildingBlock: UVAHIK_clean_linker_0, # of connection points: 2
#     Edge 72, Type (0, 0), BuildingBlock: UVAHIK_clean_linker_0, # of connection points: 2
#     Edge 73, Type (0, 0), BuildingBlock: UVAHIK_clean_linker_0, # of connection points: 2
#     Edge 74, Type (0, 0), BuildingBlock: UVAHIK_clean_linker_0, # of connection points: 2
#     Edge 75, Type (0, 0), BuildingBlock: UVAHIK_clean_linker_0, # of connection points: 2
#     Edge 76, Type (0, 0), BuildingBlock: UVAHIK_clean_linker_0, # of connection points: 2
#     Edge 77, Type (0, 0), BuildingBlock: UVAHIK_clean_linker_0, # of connection points: 2
#     Edge 78, Type (0, 0), BuildingBlock: UVAHIK_clean_linker_0, # of connection points: 2
#     Edge 79, Type (0, 0), BuildingBlock: UVAHIK_clean_linker_0, # of connection points: 2
#     Edge 80, Type (0, 0), BuildingBlock: UVAHIK_clean_linker_0, # of connection points: 2
#     Edge 81, Type (0, 0), BuildingBlock: UVAHIK_clean_linker_0, # of connection points: 2
#     Edge 82, Type (0, 0), BuildingBlock: UVAHIK_clean_linker_0, # of connection points: 2
#     Edge 83, Type (0, 0), BuildingBlock: UVAHIK_clean_linker_0, # of connection points: 2
#     Edge 84, Type (0, 0), BuildingBlock: UVAHIK_clean_linker_0, # of connection points: 2
#     Edge 85, Type (0, 0), BuildingBlock: UVAHIK_clean_linker_0, # of connection points: 2
#     Edge 86, Type (0, 0), BuildingBlock: UVAHIK_clean_linker_0, # of connection points: 2
#     Edge 87, Type (0, 0), BuildingBlock: UVAHIK_clean_linker_0, # of connection points: 2
#     Edge 88, Type (0, 0), BuildingBlock: UVAHIK_clean_linker_0, # of connection points: 2
#     Edge 89, Type (0, 0), BuildingBlock: UVAHIK_clean_linker_0, # of connection points: 2
#     Edge 90, Type (0, 0), BuildingBlock: UVAHIK_clean_linker_0, # of connection points: 2
#     Edge 91, Type (0, 0), BuildingBlock: UVAHIK_clean_linker_0, # of connection points: 2
#     Edge 92, Type (0, 0), BuildingBlock: UVAHIK_clean_linker_0, # of connection points: 2
#     Edge 93, Type (0, 0), BuildingBlock: UVAHIK_clean_linker_0, # of connection points: 2
#     Edge 94, Type (0, 0), BuildingBlock: UVAHIK_clean_linker_0, # of connection points: 2
#     Edge 95, Type (0, 0), BuildingBlock: UVAHIK_clean_linker_0, # of connection points: 2
# Relax obj value: 0.274
# Max RMSD: 0.244
# Mean RMSD: 0.244
data_MOF--net-uow--node1-AZAVOO_clean_sbu_0--edge1-UVAHIK_clean_linker_0
_symmetry_space_group_name_H-M    P1
_symmetry_Int_Tables_number       1
_symmetry_cell_setting            triclinic
loop_
_symmetry_equiv_pos_as_xyz
'x, y, z'
_cell_length_a     76.765142
_cell_length_b     76.671891
_cell_length_c     52.278682
_cell_angle_alpha  90.022325
_cell_angle_beta   89.931418
_cell_angle_gamma 90.004931
loop_
_atom_site_label
_atom_site_type_symbol
_atom_site_fract_x
_atom_site_fract_y
_atom_site_fract_z
_atom_type_partial_charge
Mg0 Mg 0.96226 0.34917 0.23583 0.0
O1 O 0.9768 0.33877 0.27179 0.0
O2 O 0.00459 0.33618 0.25907 0.0
Mg3 Mg 0.00815 0.34471 0.2176 0.0
C4 C 0.99271 0.33462 0.27607 0.0
C5 C 0.93129 0.35786 0.2797 0.0
O6 O 0.91682 0.36661 0.28366 0.0
O7 O 0.97401 0.37608 0.24158 0.0
O8 O 0.00148 0.37323 0.2282 0.0
O9 O 0.95719 0.32198 0.22106 0.0
O10 O 0.98075 0.33742 0.21274 0.0
C11 C 0.98896 0.38255 0.23673 0.0
C12 C 0.97237 0.323 0.21034 0.0
O13 O 0.93792 0.35811 0.25742 0.0
Mg14 Mg 0.88415 0.74115 0.48842 0.0
O15 O 0.88811 0.76619 0.51181 0.0
O16 O 0.88126 0.78949 0.48834 0.0
Mg17 Mg 0.87156 0.77911 0.44986 0.0
C18 C 0.88672 0.78267 0.5091 0.0
C19 C 0.90304 0.72818 0.53593 0.0
O20 O 0.91341 0.74011 0.52626 0.0
O21 O 0.8547 0.74291 0.49452 0.0
O22 O 0.84839 0.76614 0.4703 0.0
O23 O 0.91087 0.7441 0.47241 0.0
O24 O 0.88734 0.75536 0.45457 0.0
C25 C 0.84378 0.75378 0.48525 0.0
C26 C 0.90405 0.75388 0.45494 0.0
O27 O 0.88859 0.72517 0.52485 0.0
Mg28 Mg 0.51056 0.61042 0.7447 0.0
O29 O 0.48677 0.61723 0.76953 0.0
O30 O 0.46269 0.61444 0.74596 0.0
Mg31 Mg 0.47099 0.60394 0.70684 0.0
C32 C 0.47027 0.61839 0.76689 0.0
C33 C 0.54103 0.62134 0.77783 0.0
O34 O 0.54449 0.62792 0.75518 0.0
O35 O 0.50512 0.58132 0.749 0.0
O36 O 0.48111 0.57845 0.72514 0.0
O37 O 0.511 0.63777 0.73101 0.0
O38 O 0.49651 0.61664 0.7116 0.0
C39 C 0.49301 0.57196 0.73935 0.0
C40 C 0.50021 0.63301 0.71336 0.0
O41 O 0.52765 0.61171 0.78031 0.0
Mg42 Mg 0.63415 0.27667 0.99476 0.0
O43 O 0.62833 0.25334 0.0207 0.0
O44 O 0.63347 0.22849 -0.0002 0.0
Mg45 Mg 0.64392 0.2362 0.96034 0.0
C46 C 0.62849 0.23671 0.01975 0.0
C47 C 0.61894 0.30556 0.02841 0.0
O48 O 0.61055 0.30743 0.0067 0.0
O49 O 0.66338 0.27316 0.0008 0.0
O50 O 0.6682 0.24851 0.97894 0.0
O51 O 0.60723 0.27484 0.97949 0.0
O52 O 0.6298 0.26122 0.96237 0.0
C53 C 0.67362 0.26127 0.99254 0.0
C54 C 0.61323 0.26394 0.96277 0.0
O55 O 0.63104 0.29428 0.02969 0.0
Mg56 Mg 0.99153 0.60776 0.25985 0.0
O57 O 0.01399 0.61614 0.23387 0.0
O58 O 0.03982 0.61074 0.25153 0.0
Mg59 Mg 0.03355 0.59758 0.28989 0.0
C60 C 0.03058 0.61667 0.23323 0.0
C61 C 0.9745 0.62858 0.218 0.0
O62 O 0.98566 0.63899 0.22934 0.0
O63 O 0.99605 0.57924 0.2493 0.0
O64 O 0.02132 0.57394 0.26913 0.0
O65 O 0.9924 0.63343 0.27914 0.0
O66 O 0.00794 0.6108 0.29188 0.0
C67 C 0.00839 0.5689 0.25559 0.0
C68 C 0.00439 0.62719 0.29383 0.0
O69 O 0.97309 0.61296 0.22606 0.0
Mg70 Mg 0.61813 0.73494 0.50203 0.0
O71 O 0.61217 0.76031 0.48055 0.0
O72 O 0.61783 0.78355 0.50485 0.0
Mg73 Mg 0.6287 0.77277 0.5424 0.0
C74 C 0.61248 0.77679 0.48399 0.0
C75 C 0.59919 0.72255 0.45442 0.0
O76 O 0.58838 0.73326 0.46595 0.0
O77 O 0.64737 0.73875 0.49537 0.0
O78 O 0.65234 0.76168 0.52089 0.0
O79 O 0.59151 0.73569 0.51893 0.0
O80 O 0.61443 0.74809 0.53684 0.0
C81 C 0.65764 0.75005 0.50517 0.0
C82 C 0.59784 0.74557 0.53668 0.0
O83 O 0.61408 0.71993 0.46443 0.0
Mg84 Mg 0.51179 0.34675 0.76502 0.0
O85 O 0.4882 0.33675 0.74219 0.0
O86 O 0.46399 0.34185 0.76465 0.0
Mg87 Mg 0.47187 0.35666 0.80077 0.0
C88 C 0.47172 0.33566 0.74503 0.0
C89 C 0.52886 0.32675 0.721 0.0
O90 O 0.51974 0.31479 0.73304 0.0
O91 O 0.50572 0.37498 0.75389 0.0
O92 O 0.48158 0.37991 0.77684 0.0
O93 O 0.51274 0.32144 0.78643 0.0
O94 O 0.49781 0.34444 0.79923 0.0
C95 C 0.49339 0.38501 0.76127 0.0
C96 C 0.5019 0.32832 0.80251 0.0
O97 O 0.52862 0.3423 0.72946 0.0
Mg98 Mg 0.89807 0.29064 0.00657 0.0
O99 O 0.90601 0.26636 0.98364 0.0
O100 O 0.90362 0.24289 0.00863 0.0
Mg101 Mg 0.89237 0.25204 0.04686 0.0
C102 C 0.90768 0.24999 0.98736 0.0
C103 C 0.90944 0.31857 0.96821 0.0
O104 O 0.91752 0.32334 0.98923 0.0
O105 O 0.86928 0.28402 0.00198 0.0
O106 O 0.8669 0.26051 0.02707 0.0
O107 O 0.92528 0.29216 0.02085 0.0
O108 O 0.9042 0.27789 0.04071 0.0
C109 C 0.86025 0.27178 0.01194 0.0
C110 C 0.92051 0.28167 0.03894 0.0
O111 O 0.89892 0.3058 0.96923 0.0
Mg112 Mg 0.01943 0.61772 0.76239 0.0
O113 O 0.99684 0.62722 0.73735 0.0
O114 O 0.9715 0.61783 0.75314 0.0
Mg115 Mg 0.97808 0.6021 0.78903 0.0
C116 C 0.98025 0.62628 0.73648 0.0
C117 C 0.03746 0.64175 0.72432 0.0
O118 O 0.02701 0.65205 0.73728 0.0
O119 O 0.01679 0.59018 0.74671 0.0
O120 O 0.99189 0.58121 0.76458 0.0
O121 O 0.01725 0.64153 0.78604 0.0
O122 O 0.00238 0.61743 0.79395 0.0
C123 C 0.00527 0.57847 0.75057 0.0
C124 C 0.00526 0.63366 0.79906 0.0
O125 O 0.03804 0.62566 0.73021 0.0
Mg126 Mg 0.10084 0.28982 0.52533 0.0
O127 O 0.09464 0.26842 0.49558 0.0
O128 O 0.09541 0.2429 0.51644 0.0
Mg129 Mg 0.10066 0.24778 0.55878 0.0
C130 C 0.09343 0.25176 0.49596 0.0
C131 C 0.1028 0.31381 0.47238 0.0
O132 O 0.11183 0.32522 0.45912 0.0
O133 O 0.12915 0.28101 0.5263 0.0
O134 O 0.12865 0.25594 0.54805 0.0
O135 O 0.07241 0.29302 0.53451 0.0
O136 O 0.09006 0.27418 0.55327 0.0
C137 C 0.13692 0.26794 0.53619 0.0
C138 C 0.07456 0.28017 0.55027 0.0
O139 O 0.10824 0.30957 0.49447 0.0
Mg140 Mg 0.48399 0.36021 0.27245 0.0
O141 O 0.50891 0.358 0.2483 0.0
O142 O 0.5321 0.36434 0.27237 0.0
Mg143 Mg 0.52178 0.37252 0.31168 0.0
C144 C 0.52535 0.35966 0.25114 0.0
C145 C 0.47106 0.34108 0.22545 0.0
O146 O 0.48448 0.33204 0.23362 0.0
O147 O 0.48501 0.39 0.26779 0.0
O148 O 0.5077 0.39578 0.29323 0.0
O149 O 0.48781 0.3331 0.28655 0.0
O150 O 0.49868 0.35627 0.30581 0.0
C151 C 0.49542 0.40082 0.27847 0.0
C152 C 0.49774 0.33955 0.30409 0.0
O153 O 0.46739 0.35538 0.23665 0.0
Mg154 Mg 0.3798 0.73251 0.0187 0.0
O155 O 0.38611 0.75525 0.99154 0.0
O156 O 0.37806 0.7803 0.00996 0.0
Mg157 Mg 0.36571 0.77348 0.04844 0.0
C158 C 0.38482 0.77187 0.99137 0.0
C159 C 0.38045 0.7137 0.9639 0.0
O160 O 0.36932 0.7259 0.95727 0.0
O161 O 0.35092 0.7341 0.00841 0.0
O162 O 0.34363 0.75926 0.02731 0.0
O163 O 0.40558 0.73644 0.03689 0.0
O164 O 0.38143 0.74951 0.04985 0.0
C165 C 0.33971 0.74581 0.01407 0.0
C166 C 0.3981 0.74789 0.05143 0.0
O167 O 0.38598 0.71312 0.9868 0.0
Mg168 Mg 0.03755 0.35711 0.70895 0.0
O169 O 0.01321 0.35415 0.73367 0.0
O170 O 0.98898 0.35604 0.71027 0.0
Mg171 Mg 0.99835 0.3627 0.6698 0.0
C172 C 0.99666 0.35381 0.73165 0.0
C173 C 0.06494 0.34512 0.74705 0.0
O174 O 0.06862 0.33624 0.72623 0.0
O175 O 0.03348 0.38658 0.7092 0.0
O176 O 0.00935 0.38862 0.68538 0.0
O177 O 0.03633 0.32894 0.69968 0.0
O178 O 0.02332 0.34932 0.67669 0.0
C179 C 0.02145 0.39561 0.69871 0.0
C180 C 0.02597 0.33299 0.68113 0.0
O181 O 0.05337 0.35695 0.74582 0.0
Mg182 Mg 0.36047 0.27867 0.49856 0.0
O183 O 0.36988 0.26321 0.53399 0.0
O184 O 0.36565 0.23511 0.52376 0.0
Mg185 Mg 0.35632 0.23249 0.48253 0.0
C186 C 0.37029 0.24695 0.53953 0.0
C187 C 0.36141 0.31017 0.5419 0.0
O188 O 0.35575 0.32563 0.54884 0.0
O189 O 0.33231 0.27166 0.50714 0.0
O190 O 0.32977 0.24393 0.49472 0.0
O191 O 0.38741 0.27913 0.48247 0.0
O192 O 0.36825 0.2582 0.47538 0.0
C193 C 0.32317 0.25799 0.50357 0.0
C194 C 0.3838 0.26417 0.47221 0.0
O195 O 0.35673 0.30413 0.52037 0.0
Mg196 Mg 0.47407 0.62485 0.23156 0.0
O197 O 0.49925 0.63328 0.25135 0.0
O198 O 0.52256 0.62778 0.2272 0.0
Mg199 Mg 0.51177 0.61527 0.19054 0.0
C200 C 0.51566 0.63368 0.24768 0.0
C201 C 0.46207 0.64473 0.27822 0.0
O202 O 0.47127 0.65574 0.26452 0.0
O203 O 0.48003 0.5962 0.24018 0.0
O204 O 0.50214 0.59139 0.21322 0.0
O205 O 0.47247 0.65079 0.21277 0.0
O206 O 0.48633 0.62833 0.19587 0.0
C207 C 0.49125 0.58602 0.22999 0.0
C208 C 0.48253 0.6447 0.19505 0.0
O209 O 0.45999 0.62929 0.26981 0.0
Mg210 Mg 0.11501 0.73594 0.97934 0.0
O211 O 0.1116 0.76025 0.00449 0.0
O212 O 0.11775 0.78408 0.98161 0.0
Mg213 Mg 0.12708 0.77479 0.94233 0.0
C214 C 0.11282 0.7768 0.00235 0.0
C215 C 0.09665 0.71981 0.02576 0.0
O216 O 0.08514 0.73093 0.01682 0.0
O217 O 0.14455 0.73747 0.98445 0.0
O218 O 0.15051 0.76122 0.96116 0.0
O219 O 0.08798 0.73958 0.96433 0.0
O220 O 0.1114 0.75102 0.94644 0.0
C221 C 0.15537 0.74852 0.9753 0.0
C222 C 0.0947 0.74968 0.94715 0.0
O223 O 0.1114 0.71872 0.01478 0.0
Mg224 Mg 0.48261 0.87495 0.73362 0.0
O225 O 0.50802 0.86967 0.75508 0.0
O226 O 0.53117 0.87483 0.73046 0.0
Mg227 Mg 0.52015 0.88503 0.69249 0.0
C228 C 0.52446 0.86994 0.75162 0.0
C229 C 0.47126 0.85615 0.78153 0.0
O230 O 0.48258 0.84592 0.77012 0.0
O231 O 0.4864 0.90434 0.73959 0.0
O232 O 0.5087 0.90905 0.71291 0.0
O233 O 0.48335 0.84807 0.71753 0.0
O234 O 0.49563 0.87073 0.69874 0.0
C235 C 0.49727 0.91462 0.72876 0.0
C236 C 0.49312 0.85413 0.69946 0.0
O237 O 0.46785 0.87087 0.77142 0.0
Mg238 Mg 0.36147 0.22404 0.99282 0.0
O239 O 0.36901 0.2413 0.02744 0.0
O240 O 0.36711 0.26876 0.0129 0.0
Mg241 Mg 0.36032 0.26916 0.97048 0.0
C242 C 0.37005 0.25782 0.03083 0.0
C243 C 0.35778 0.19452 0.03933 0.0
O244 O 0.34975 0.18029 0.04688 0.0
O245 O 0.33332 0.23257 0.99612 0.0
O246 O 0.33259 0.25963 0.9805 0.0
O247 O 0.38939 0.22168 0.98126 0.0
O248 O 0.37175 0.24277 0.96869 0.0
C249 C 0.32497 0.24629 0.98993 0.0
C250 C 0.3872 0.23618 0.96895 0.0
O251 O 0.35461 0.20033 0.01708 0.0
Mg252 Mg 0.03714 0.14526 0.2148 0.0
O253 O 0.01008 0.15269 0.22954 0.0
O254 O 0.98913 0.14789 0.20085 0.0
Mg255 Mg 0.00356 0.13697 0.1659 0.0
C256 C 0.99412 0.15304 0.22285 0.0
C257 C 0.04352 0.16504 0.26335 0.0
O258 O 0.0347 0.17517 0.24785 0.0
O259 O 0.03031 0.11641 0.22083 0.0
O260 O 0.01093 0.11273 0.18937 0.0
O261 O 0.04047 0.17161 0.19833 0.0
O262 O 0.02803 0.15001 0.17727 0.0
C263 C 0.01997 0.10672 0.20792 0.0
C264 C 0.03157 0.16642 0.17884 0.0
O265 O 0.04737 0.14968 0.25582 0.0
Mg266 Mg 0.12263 0.76225 0.4788 0.0
O267 O 0.11719 0.73942 0.5058 0.0
O268 O 0.12433 0.71413 0.48748 0.0
Mg269 Mg 0.13589 0.72112 0.4484 0.0
C270 C 0.11822 0.72282 0.50628 0.0
C271 C 0.10208 0.77955 0.52185 0.0
O272 O 0.09122 0.76814 0.512 0.0
O273 O 0.15173 0.7606 0.48764 0.0
O274 O 0.15841 0.73546 0.4682 0.0
O275 O 0.0965 0.75811 0.46112 0.0
O276 O 0.1206 0.7454 0.44743 0.0
C277 C 0.16275 0.74888 0.48122 0.0
C278 C 0.10393 0.74689 0.44618 0.0
O279 O 0.11729 0.78081 0.51231 0.0
Mg280 Mg 0.4896 0.14099 0.76757 0.0
O281 O 0.51462 0.14365 0.74405 0.0
O282 O 0.53773 0.1367 0.76783 0.0
Mg283 Mg 0.52706 0.12851 0.80704 0.0
C284 C 0.53104 0.14175 0.74676 0.0
C285 C 0.45766 0.14879 0.73268 0.0
O286 O 0.44958 0.1459 0.75444 0.0
O287 O 0.49071 0.11122 0.76243 0.0
O288 O 0.51316 0.10527 0.78824 0.0
O289 O 0.49319 0.168 0.78213 0.0
O290 O 0.50377 0.14463 0.80132 0.0
C291 C 0.501 0.10032 0.77319 0.0
C292 C 0.50266 0.16137 0.8001 0.0
O293 O 0.47396 0.14606 0.73129 0.0
Mg294 Mg 0.10252 0.21725 0.01232 0.0
O295 O 0.09652 0.23896 0.98325 0.0
O296 O 0.09619 0.26423 0.00469 0.0
Mg297 Mg 0.10262 0.25888 0.04664 0.0
C298 C 0.09463 0.25553 0.98397 0.0
C299 C 0.10402 0.19382 0.95867 0.0
O300 O 0.11316 0.18274 0.94497 0.0
O301 O 0.13082 0.22589 0.01295 0.0
O302 O 0.1305 0.25114 0.03431 0.0
O303 O 0.07397 0.21469 0.02236 0.0
O304 O 0.09256 0.23223 0.04162 0.0
C305 C 0.13865 0.23911 0.02231 0.0
C306 C 0.07689 0.22659 0.03945 0.0
O307 O 0.10965 0.19804 0.98065 0.0
Mg308 Mg 0.01862 0.88253 0.25516 0.0
O309 O 0.99555 0.87478 0.22992 0.0
O310 O 0.97059 0.88077 0.24998 0.0
Mg311 Mg 0.97799 0.89298 0.28859 0.0
C312 C 0.97894 0.87477 0.23076 0.0
C313 C 0.04785 0.86659 0.22268 0.0
O314 O 0.04947 0.85845 0.24466 0.0
O315 O 0.01444 0.91138 0.24636 0.0
O316 O 0.99024 0.91689 0.26877 0.0
O317 O 0.01745 0.85624 0.27288 0.0
O318 O 0.00319 0.87913 0.28785 0.0
C319 C 0.00279 0.92194 0.25446 0.0
C320 C 0.00628 0.86262 0.28889 0.0
O321 O 0.0365 0.87859 0.22071 0.0
Mg322 Mg 0.3868 0.76804 0.52393 0.0
O323 O 0.39284 0.7438 0.49988 0.0
O324 O 0.38571 0.71958 0.52112 0.0
Mg325 Mg 0.37397 0.72865 0.55914 0.0
C326 C 0.39191 0.72721 0.50143 0.0
C327 C 0.40685 0.78348 0.47863 0.0
O328 O 0.41816 0.77296 0.48942 0.0
O329 O 0.35784 0.76528 0.515 0.0
O330 O 0.35127 0.74121 0.53722 0.0
O331 O 0.41291 0.76557 0.54213 0.0
O332 O 0.38906 0.75309 0.55721 0.0
C333 C 0.34692 0.75379 0.52252 0.0
C334 C 0.40571 0.75503 0.55831 0.0
O335 O 0.39172 0.7848 0.48839 0.0
Mg336 Mg 0.508 0.15104 0.26509 0.0
O337 O 0.48487 0.15991 0.24033 0.0
O338 O 0.46027 0.15396 0.2614 0.0
Mg339 Mg 0.46753 0.13989 0.29842 0.0
C340 C 0.46829 0.16031 0.24214 0.0
C341 C 0.54202 0.15713 0.23288 0.0
O342 O 0.54911 0.15566 0.25565 0.0
O343 O 0.50347 0.12245 0.25446 0.0
O344 O 0.47895 0.11671 0.27601 0.0
O345 O 0.50721 0.17673 0.28553 0.0
O346 O 0.49293 0.15327 0.2982 0.0
C347 C 0.49143 0.11194 0.2614 0.0
C348 C 0.49618 0.16961 0.30113 0.0
O349 O 0.52563 0.15543 0.23062 0.0
Mg350 Mg 0.61195 0.76162 0.00291 0.0
O351 O 0.60836 0.73553 0.98192 0.0
O352 O 0.61124 0.71366 0.00987 0.0
Mg353 Mg 0.61904 0.72581 0.04812 0.0
C354 C 0.60815 0.71928 0.98734 0.0
C355 C 0.61164 0.7923 0.96407 0.0
O356 O 0.61313 0.80085 0.98575 0.0
O357 O 0.64145 0.758 0.00228 0.0
O358 O 0.64444 0.736 0.03005 0.0
O359 O 0.58392 0.76082 0.01405 0.0
O360 O 0.60523 0.74982 0.03746 0.0
C361 C 0.65092 0.74714 0.01453 0.0
C362 C 0.58877 0.75189 0.03382 0.0
O363 O 0.61167 0.77573 0.96452 0.0
Mg364 Mg 0.9889 0.88818 0.75233 0.0
O365 O 0.01183 0.8793 0.7278 0.0
O366 O 0.03686 0.88337 0.7486 0.0
Mg367 Mg 0.02946 0.89518 0.78755 0.0
C368 C 0.02839 0.87825 0.72897 0.0
C369 C 0.9564 0.88006 0.71924 0.0
O370 O 0.95027 0.87698 0.74227 0.0
O371 O 0.99539 0.91672 0.74468 0.0
O372 O 0.01932 0.92035 0.76842 0.0
O373 O 0.98764 0.86164 0.76898 0.0
O374 O 0.00334 0.88308 0.78543 0.0
C375 C 0.00748 0.92639 0.75368 0.0
C376 C 0.99896 0.86684 0.78566 0.0
O377 O 0.97178 0.886 0.71694 0.0
Mg378 Mg 0.89833 0.20873 0.50462 0.0
O379 O 0.90718 0.23446 0.48701 0.0
O380 O 0.90516 0.25652 0.51451 0.0
Mg381 Mg 0.89338 0.24445 0.55091 0.0
C382 C 0.90925 0.25049 0.49256 0.0
C383 C 0.91464 0.1999 0.45375 0.0
O384 O 0.92699 0.20723 0.46741 0.0
O385 O 0.86982 0.21694 0.50007 0.0
O386 O 0.86796 0.23785 0.52981 0.0
O387 O 0.92513 0.20504 0.52043 0.0
O388 O 0.90394 0.21849 0.54113 0.0
C389 C 0.86103 0.2283 0.51255 0.0
C390 C 0.92012 0.2142 0.53987 0.0
O391 O 0.89985 0.19735 0.46412 0.0
Mg392 Mg 0.51234 0.8869 0.23539 0.0
O393 O 0.48978 0.87827 0.26098 0.0
O394 O 0.46399 0.88285 0.24271 0.0
Mg395 Mg 0.47032 0.89582 0.20424 0.0
C396 C 0.47321 0.87732 0.2613 0.0
C397 C 0.52922 0.86657 0.27788 0.0
O398 O 0.51866 0.85589 0.26589 0.0
O399 O 0.50719 0.91555 0.2452 0.0
O400 O 0.48191 0.91972 0.22478 0.0
O401 O 0.51195 0.861 0.21633 0.0
O402 O 0.49629 0.88337 0.20305 0.0
C403 C 0.49455 0.92537 0.23838 0.0
C404 C 0.50002 0.86703 0.20136 0.0
O405 O 0.53039 0.88224 0.26993 0.0
Mg406 Mg 0.87696 0.75533 0.99082 0.0
O407 O 0.88402 0.73176 0.01594 0.0
O408 O 0.87637 0.70707 0.99627 0.0
Mg409 Mg 0.86371 0.71486 0.95852 0.0
C410 C 0.8831 0.71514 0.01518 0.0
C411 C 0.89831 0.77212 0.03332 0.0
O412 O 0.90886 0.76076 0.02263 0.0
O413 O 0.84818 0.75259 0.00141 0.0
O414 O 0.8414 0.72804 0.98049 0.0
O415 O 0.90254 0.75317 0.97118 0.0
O416 O 0.87895 0.73929 0.95826 0.0
C417 C 0.83721 0.74091 0.99476 0.0
C418 C 0.89548 0.74185 0.95607 0.0
O419 O 0.88283 0.77339 0.02482 0.0
Mg420 Mg 0.96103 0.14578 0.73177 0.0
O421 O 0.97684 0.15717 0.76554 0.0
O422 O 0.00394 0.1602 0.75024 0.0
Mg423 Mg 0.00583 0.15066 0.70888 0.0
C424 C 0.99275 0.16185 0.76821 0.0
C425 C 0.93206 0.13853 0.77902 0.0
O426 O 0.91817 0.12941 0.78511 0.0
O427 O 0.97346 0.11912 0.73774 0.0
O428 O 0.00012 0.12231 0.72118 0.0
O429 O 0.95565 0.17294 0.71674 0.0
O430 O 0.97808 0.15664 0.70577 0.0
C431 C 0.98829 0.11289 0.73147 0.0
C432 C 0.96997 0.17121 0.70385 0.0
O433 O 0.938 0.13721 0.75642 0.0
Mg434 Mg 0.63667 0.22198 0.48207 0.0
O435 O 0.62738 0.24448 0.50708 0.0
O436 O 0.63185 0.27014 0.48817 0.0
Mg437 Mg 0.64466 0.2637 0.44954 0.0
C438 C 0.6263 0.26107 0.50695 0.0
C439 C 0.61726 0.20363 0.52467 0.0
O440 O 0.60555 0.21286 0.5124 0.0
O441 O 0.66504 0.22809 0.49161 0.0
O442 O 0.66909 0.25264 0.46929 0.0
O443 O 0.61075 0.22139 0.46324 0.0
O444 O 0.63264 0.23751 0.44939 0.0
C445 C 0.67486 0.24039 0.48357 0.0
C446 C 0.61641 0.23335 0.44796 0.0
O447 O 0.633 0.20414 0.517 0.0
C448 C 0.99797 0.30568 0.19581 0.0
C449 C 0.9799 0.30835 0.19573 0.0
C450 C 0.00549 0.29318 0.17988 0.0
C451 C -0.00022 0.27196 0.11853 0.0
H452 H 0.03824 0.24353 0.14237 0.0
C453 C 0.04527 0.23078 0.05135 0.0
C454 C 0.06305 0.23353 0.05635 0.0
C455 C 0.03255 0.23729 0.06818 0.0
C456 C 0.0275 0.25137 0.1354 0.0
H457 H 0.95541 0.29981 0.17944 0.0
H458 H 0.9687 0.27803 0.15091 0.0
H459 H 0.02032 0.25922 0.17323 0.0
H460 H 0.08143 0.24513 0.08291 0.0
H461 H 0.05951 0.25619 0.11201 0.0
H462 H 0.00747 0.26452 0.08055 0.0
C463 C 0.97698 0.28556 0.16353 0.0
C464 C 0.01723 0.26031 0.15307 0.0
C465 C 0.96939 0.29791 0.17993 0.0
C466 C 0.06785 0.24282 0.07839 0.0
C467 C 0.05527 0.24902 0.09527 0.0
C468 C 0.01011 0.26296 0.10076 0.0
C469 C 0.99514 0.2832 0.16322 0.0
C470 C 0.00367 0.2712 0.1448 0.0
C471 C 0.03749 0.24624 0.09054 0.0
C472 C 0.02448 0.2531 0.10902 0.0
H473 H 0.00635 0.31339 0.20801 0.0
H474 H 0.01953 0.29177 0.17993 0.0
H475 H 0.98939 0.28026 0.11162 0.0
H476 H 0.04119 0.22371 0.03444 0.0
H477 H 0.01894 0.23516 0.06388 0.0
C478 C 0.99655 0.83297 0.30273 0.0
C479 C 0.99636 0.85114 0.30626 0.0
C480 C 0.98691 0.82211 0.31885 0.0
C481 C 0.96746 0.8197 0.38264 0.0
H482 H 0.93773 0.78416 0.35292 0.0
C483 C 0.90779 0.77233 0.41593 0.0
C484 C 0.91507 0.76431 0.43757 0.0
C485 C 0.91811 0.78247 0.39972 0.0
C486 C 0.94596 0.79404 0.36145 0.0
H487 H 0.98617 0.87217 0.32965 0.0
H488 H 0.96946 0.85312 0.35801 0.0
H489 H 0.95511 0.80294 0.32499 0.0
H490 H 0.93886 0.76058 0.45924 0.0
H491 H 0.95687 0.77852 0.43101 0.0
H492 H 0.95831 0.8108 0.41911 0.0
C493 C 0.97704 0.84733 0.34273 0.0
C494 C 0.95598 0.80469 0.34551 0.0
C495 C 0.98651 0.85822 0.32641 0.0
C496 C 0.93289 0.76658 0.44267 0.0
C497 C 0.94318 0.77691 0.42663 0.0
C498 C 0.95761 0.80891 0.3986 0.0
C499 C 0.97708 0.82919 0.33901 0.0
C500 C 0.96674 0.81768 0.35595 0.0
C501 C 0.93588 0.78495 0.40501 0.0
C502 C 0.94669 0.79606 0.38814 0.0
H503 H 0.00401 0.82713 0.28735 0.0
H504 H 0.98726 0.80814 0.3157 0.0
H505 H 0.97575 0.82955 0.39117 0.0
H506 H 0.8941 0.77075 0.41146 0.0
H507 H 0.91214 0.78863 0.38328 0.0
C508 C 0.48185 0.64096 0.67558 0.0
C509 C 0.4913 0.64609 0.69731 0.0
C510 C 0.47333 0.65338 0.66056 0.0
C511 C 0.45403 0.69687 0.66346 0.0
H512 H 0.45816 0.69596 0.5895 0.0
C513 C 0.43424 0.74183 0.57095 0.0
C514 C 0.41632 0.74401 0.57539 0.0
C515 C 0.44401 0.7305 0.58619 0.0
C516 C 0.45699 0.69642 0.61014 0.0
H517 H 0.49924 0.66824 0.72038 0.0
H518 H 0.48417 0.68988 0.69428 0.0
H519 H 0.47414 0.67465 0.61522 0.0
H520 H 0.39468 0.73649 0.59971 0.0
H521 H 0.4118 0.71688 0.6265 0.0
H522 H 0.43672 0.71851 0.65838 0.0
C523 C 0.48338 0.67626 0.68889 0.0
C524 C 0.466 0.68416 0.62481 0.0
C525 C 0.49207 0.66388 0.70373 0.0
C526 C 0.40845 0.73501 0.59576 0.0
C527 C 0.41826 0.72386 0.61118 0.0
C528 C 0.44486 0.709 0.64878 0.0
C529 C 0.47394 0.67113 0.66716 0.0
C530 C 0.46458 0.68426 0.6516 0.0
C531 C 0.43609 0.72135 0.60637 0.0
C532 C 0.44623 0.70887 0.62199 0.0
H533 H 0.48108 0.62735 0.67011 0.0
H534 H 0.46602 0.64907 0.64401 0.0
H535 H 0.45263 0.69716 0.68408 0.0
H536 H 0.44065 0.74857 0.55535 0.0
H537 H 0.45777 0.72889 0.58222 0.0
C538 C 0.51537 0.19036 0.81173 0.0
C539 C 0.51308 0.17257 0.81722 0.0
C540 C 0.52566 0.20081 0.82757 0.0
C541 C 0.55757 0.2156 0.85508 0.0
H542 H 0.55255 0.21306 0.92884 0.0
C543 C 0.60799 0.24433 0.92533 0.0
C544 C 0.60137 0.25401 0.94599 0.0
C545 C 0.59677 0.23494 0.90944 0.0
C546 C 0.55402 0.21397 0.90827 0.0
H547 H 0.51944 0.15185 0.84385 0.0
H548 H 0.53733 0.17013 0.87158 0.0
H549 H 0.5334 0.19572 0.90147 0.0
H550 H 0.57783 0.26143 0.96627 0.0
H551 H 0.55825 0.24486 0.93862 0.0
H552 H 0.57827 0.23374 0.86189 0.0
C553 C 0.53118 0.17598 0.85502 0.0
C554 C 0.54317 0.20396 0.89264 0.0
C555 C 0.52104 0.16549 0.83905 0.0
C556 C 0.58332 0.25409 0.95049 0.0
C557 C 0.57212 0.24455 0.93476 0.0
C558 C 0.56854 0.22546 0.87072 0.0
C559 C 0.53368 0.1937 0.84935 0.0
C560 C 0.54487 0.20465 0.8659 0.0
C561 C 0.57874 0.23491 0.91406 0.0
C562 C 0.56689 0.22471 0.89746 0.0
H563 H 0.50939 0.19618 0.79504 0.0
H564 H 0.52727 0.21448 0.82289 0.0
H565 H 0.55924 0.21628 0.83453 0.0
H566 H 0.62183 0.24407 0.92132 0.0
H567 H 0.60222 0.22749 0.89375 0.0
C568 C 0.01406 0.65706 0.30613 0.0
C569 C 0.01476 0.63895 0.31017 0.0
C570 C 0.02401 0.66835 0.32106 0.0
C571 C 0.05549 0.68672 0.34429 0.0
H572 H 0.05342 0.68438 0.41837 0.0
C573 C 0.10162 0.72545 0.41043 0.0
C574 C 0.0936 0.73479 0.43034 0.0
C575 C 0.09208 0.71358 0.39585 0.0
C576 C 0.05407 0.68516 0.3977 0.0
H577 H 0.02622 0.61847 0.33323 0.0
H578 H 0.04346 0.63839 0.35984 0.0
H579 H 0.03675 0.66347 0.39266 0.0
H580 H 0.06934 0.739 0.45073 0.0
H581 H 0.05267 0.71798 0.42535 0.0
H582 H 0.07285 0.70833 0.34925 0.0
C583 C 0.03525 0.64373 0.34493 0.0
C584 C 0.04468 0.67315 0.38305 0.0
C585 C 0.02547 0.63236 0.32967 0.0
C586 C 0.07584 0.73203 0.43541 0.0
C587 C 0.06634 0.71994 0.42106 0.0
C588 C 0.06508 0.69854 0.35892 0.0
C589 C 0.03468 0.66181 0.34059 0.0
C590 C 0.0452 0.67394 0.35622 0.0
C591 C 0.07439 0.71063 0.40113 0.0
C592 C 0.06436 0.69795 0.38574 0.0
H593 H 0.00596 0.66254 0.2912 0.0
H594 H 0.02323 0.68225 0.3175 0.0
H595 H 0.05617 0.68753 0.32362 0.0
H596 H 0.11529 0.72735 0.40606 0.0
H597 H 0.09859 0.7065 0.38066 0.0
C598 C 0.59316 0.76393 0.57563 0.0
C599 C 0.58627 0.75524 0.55425 0.0
C600 C 0.58233 0.77372 0.59163 0.0
C601 C 0.55428 0.78521 0.62954 0.0
H602 H 0.52221 0.81782 0.59796 0.0
C603 C 0.50342 0.8243 0.68742 0.0
C604 C 0.5026 0.84225 0.68211 0.0
C605 C 0.513 0.81313 0.67165 0.0
C606 C 0.53112 0.80879 0.60701 0.0
H607 H 0.56262 0.74979 0.53303 0.0
H608 H 0.54373 0.76701 0.56093 0.0
H609 H 0.5403 0.79902 0.57105 0.0
H610 H 0.5108 0.86251 0.6558 0.0
H611 H 0.52746 0.84296 0.62815 0.0
H612 H 0.54522 0.79508 0.6655 0.0
C613 C 0.55751 0.76627 0.56523 0.0
C614 C 0.54135 0.79794 0.59165 0.0
C615 C 0.56831 0.75634 0.54937 0.0
C616 C 0.51127 0.84876 0.66044 0.0
C617 C 0.52071 0.83756 0.64453 0.0
C618 C 0.54393 0.79593 0.64491 0.0
C619 C 0.56444 0.77513 0.58643 0.0
C620 C 0.55312 0.78614 0.60277 0.0
C621 C 0.52179 0.81967 0.65012 0.0
C622 C 0.53234 0.80791 0.63379 0.0
H623 H 0.60694 0.76325 0.57996 0.0
H624 H 0.58804 0.78051 0.60775 0.0
H625 H 0.56317 0.77615 0.63861 0.0
H626 H 0.49688 0.81889 0.70398 0.0
H627 H 0.51348 0.79937 0.67626 0.0
C628 C 0.40121 0.26274 0.95021 0.0
C629 C 0.4019 0.24485 0.95584 0.0
C630 C 0.41467 0.27073 0.93659 0.0
C631 C 0.4473 0.26195 0.88834 0.0
H632 H 0.46641 0.30659 0.90901 0.0
C633 C 0.49602 0.2997 0.8243 0.0
C634 C 0.49329 0.31779 0.8226 0.0
C635 C 0.48724 0.2898 0.84278 0.0
C636 C 0.46111 0.2942 0.90282 0.0
H637 H 0.41736 0.22133 0.95196 0.0
H638 H 0.44078 0.23529 0.92752 0.0
H639 H 0.44645 0.2912 0.93744 0.0
H640 H 0.4797 0.33973 0.83961 0.0
H641 H 0.46397 0.32256 0.87085 0.0
H642 H 0.46119 0.26527 0.85319 0.0
C643 C 0.42984 0.2431 0.93387 0.0
C644 C 0.44976 0.28536 0.91919 0.0
C645 C 0.41649 0.23515 0.94793 0.0
C646 C 0.48193 0.3258 0.84009 0.0
C647 C 0.47308 0.31594 0.85835 0.0
C648 C 0.45848 0.2709 0.87177 0.0
C649 C 0.42899 0.26094 0.92798 0.0
C650 C 0.4425 0.26932 0.91191 0.0
C651 C 0.47551 0.29779 0.85988 0.0
C652 C 0.46524 0.28733 0.87858 0.0
H653 H 0.39026 0.2706 0.95621 0.0
H654 H 0.41364 0.28449 0.93214 0.0
H655 H 0.44176 0.24965 0.8822 0.0
H656 H 0.5048 0.29315 0.81121 0.0
H657 H 0.48963 0.2759 0.84362 0.0
C658 C 0.92818 0.2627 0.07607 0.0
C659 C 0.9335 0.27234 0.05459 0.0
C660 C 0.94015 0.25261 0.08962 0.0
C661 C 0.97027 0.23936 0.12202 0.0
H662 H 0.00053 0.2091 0.08241 0.0
C663 C 0.02257 0.19698 0.16971 0.0
C664 C 0.02306 0.17939 0.16216 0.0
C665 C 0.01288 0.20909 0.1559 0.0
C666 C 0.99214 0.21747 0.09369 0.0
H667 H 0.95564 0.27942 0.03095 0.0
H668 H 0.97659 0.26171 0.05471 0.0
H669 H 0.98109 0.22941 0.06043 0.0
H670 H 0.0145 0.16088 0.13346 0.0
H671 H 0.9977 0.18223 0.10896 0.0
H672 H 0.98121 0.22741 0.15526 0.0
C673 C 0.96311 0.26189 0.06086 0.0
C674 C 0.98114 0.22918 0.08114 0.0
C675 C 0.95115 0.27211 0.0474 0.0
C676 C 0.01429 0.17432 0.1398 0.0
C677 C 0.00476 0.18656 0.12572 0.0
C678 C 0.98143 0.22783 0.13455 0.0
C679 C 0.95767 0.25187 0.08189 0.0
C680 C 0.97 0.24013 0.0952 0.0
C681 C 0.00369 0.204 0.13396 0.0
C682 C 0.99238 0.21667 0.12052 0.0
H683 H 0.9147 0.26272 0.08219 0.0
H684 H 0.93558 0.24494 0.10568 0.0
H685 H 0.96188 0.24771 0.13332 0.0
H686 H 0.02916 0.20133 0.18688 0.0
H687 H 0.01236 0.22241 0.1627 0.0
C688 C 0.97782 0.63777 0.82464 0.0
C689 C 0.99436 0.64369 0.81717 0.0
C690 C 0.96708 0.64817 0.83997 0.0
C691 C 0.96156 0.69433 0.86063 0.0
H692 H 0.92961 0.67408 0.90985 0.0
C693 C 0.92443 0.73419 0.93718 0.0
C694 C 0.90642 0.73105 0.93895 0.0
C695 C 0.93499 0.72361 0.92191 0.0
C696 C 0.93841 0.67986 0.89604 0.0
H697 H 0.013 0.66478 0.82101 0.0
H698 H 0.99471 0.68253 0.8486 0.0
H699 H 0.94887 0.65509 0.88523 0.0
H700 H 0.88535 0.71465 0.92529 0.0
H701 H 0.90393 0.69583 0.89932 0.0
H702 H 0.95139 0.71914 0.87219 0.0
C703 C 0.98964 0.67018 0.84184 0.0
C704 C 0.94941 0.66901 0.88184 0.0
C705 C 0.00022 0.65992 0.82617 0.0
C706 C 0.89918 0.71725 0.92479 0.0
C707 C 0.9098 0.70648 0.90988 0.0
C708 C 0.95078 0.70516 0.87513 0.0
C709 C 0.97279 0.66461 0.84855 0.0
C710 C 0.96113 0.6761 0.86392 0.0
C711 C 0.92779 0.70954 0.90839 0.0
C712 C 0.93909 0.69803 0.8929 0.0
H713 H 0.97288 0.62537 0.81807 0.0
H714 H 0.95413 0.64349 0.84447 0.0
H715 H 0.97008 0.70028 0.84661 0.0
H716 H 0.93043 0.74476 0.94774 0.0
H717 H 0.94886 0.7262 0.9211 0.0
C718 C 0.04779 0.28152 0.57738 0.0
C719 C 0.05973 0.27172 0.56299 0.0
C720 C 0.03479 0.27311 0.59159 0.0
C721 C 0.01009 0.23217 0.59597 0.0
H722 H 0.00877 0.24031 0.66921 0.0
C723 C 0.9888 0.18061 0.66779 0.0
C724 C 0.97704 0.18513 0.68729 0.0
C725 C 0.9957 0.19331 0.65169 0.0
C726 C 0.00876 0.23814 0.64873 0.0
H727 H 0.06716 0.24574 0.55107 0.0
H728 H 0.04407 0.23108 0.57495 0.0
H729 H 0.02691 0.25891 0.64182 0.0
H730 H 0.96327 0.20655 0.70529 0.0
H731 H 0.97596 0.22911 0.67732 0.0
H732 H 0.99262 0.21091 0.60293 0.0
C733 C 0.04485 0.24518 0.57565 0.0
C734 C 0.01909 0.24877 0.63309 0.0
C735 C 0.05811 0.25353 0.56213 0.0
C736 C 0.97231 0.20272 0.69039 0.0
C737 C 0.97954 0.21558 0.67447 0.0
C738 C -0.00017 0.22154 0.61156 0.0
C739 C 0.0332 0.25485 0.5908 0.0
C740 C 0.0202 0.24556 0.60668 0.0
C741 C 0.99122 0.21091 0.65488 0.0
C742 C 0.99947 0.22411 0.63815 0.0
H743 H 0.04895 0.29559 0.57844 0.0
H744 H 0.02612 0.28084 0.60337 0.0
H745 H 0.01057 0.22956 0.57562 0.0
H746 H 0.99263 0.16716 0.66479 0.0
H747 H 0.00485 0.18938 0.63697 0.0
C748 C 0.58615 0.24217 0.43627 0.0
C749 C 0.60418 0.2434 0.43195 0.0
C750 C 0.57455 0.25233 0.42218 0.0
C751 C 0.55545 0.28434 0.40187 0.0
H752 H 0.55869 0.28705 0.32792 0.0
C753 C 0.51773 0.33476 0.34115 0.0
C754 C 0.50921 0.32821 0.3194 0.0
C755 C 0.52911 0.32418 0.35505 0.0
C756 C 0.55762 0.28635 0.34856 0.0
H757 H 0.62418 0.25587 0.40903 0.0
H758 H 0.60379 0.27353 0.3841 0.0
H759 H 0.57922 0.26875 0.35163 0.0
H760 H 0.50585 0.30547 0.29519 0.0
H761 H 0.52589 0.28706 0.31938 0.0
H762 H 0.53393 0.302 0.39883 0.0
C763 C 0.59871 0.26474 0.39851 0.0
C764 C 0.56942 0.27601 0.3621 0.0
C765 C 0.61036 0.25471 0.41284 0.0
C766 C 0.5122 0.31086 0.31191 0.0
C767 C 0.52375 0.30036 0.32562 0.0
C768 C 0.5438 0.29484 0.38836 0.0
C769 C 0.58071 0.26377 0.40327 0.0
C770 C 0.56838 0.27486 0.38886 0.0
C771 C 0.53234 0.30695 0.34726 0.0
C772 C 0.54474 0.29589 0.36158 0.0
H773 H 0.581 0.23358 0.45088 0.0
H774 H 0.56072 0.25122 0.42602 0.0
H775 H 0.55447 0.28377 0.42252 0.0
H776 H 0.51562 0.34805 0.34742 0.0
H777 H 0.53565 0.32959 0.3716 0.0
C778 C 0.49005 0.83707 0.18983 0.0
C779 C 0.48968 0.85512 0.18521 0.0
C780 C 0.47986 0.82575 0.17525 0.0
C781 C 0.4478 0.80782 0.15251 0.0
H782 H 0.44981 0.80937 0.07839 0.0
C783 C 0.40057 0.76978 0.08668 0.0
C784 C 0.4085 0.76 0.06716 0.0
C785 C 0.41034 0.78154 0.1012 0.0
C786 C 0.44916 0.80881 0.09907 0.0
H787 H 0.4786 0.87546 0.16147 0.0
H788 H 0.461 0.85552 0.13554 0.0
H789 H 0.46718 0.82996 0.10357 0.0
H790 H 0.43284 0.75489 0.0474 0.0
H791 H 0.44985 0.77567 0.07255 0.0
H792 H 0.4297 0.78675 0.14804 0.0
C793 C 0.46911 0.85023 0.1506 0.0
C794 C 0.45897 0.82064 0.11342 0.0
C795 C 0.47911 0.86161 0.16548 0.0
C796 C 0.42639 0.7622 0.06239 0.0
C797 C 0.43609 0.77416 0.07664 0.0
C798 C 0.43778 0.79619 0.13816 0.0
C799 C 0.4693 0.83222 0.15553 0.0
C800 C 0.45847 0.82014 0.14026 0.0
C801 C 0.42816 0.78391 0.09617 0.0
C802 C 0.43847 0.7965 0.11133 0.0
H803 H 0.49803 0.83168 0.20496 0.0
H804 H 0.48033 0.81189 0.17927 0.0
H805 H 0.44713 0.80725 0.17319 0.0
H806 H 0.38681 0.76832 0.09081 0.0
H807 H 0.40392 0.78897 0.1161 0.0
C808 C 0.01584 0.30217 0.67657 0.0
C809 C 0.01623 0.31936 0.66725 0.0
C810 C 0.0063 0.28933 0.66385 0.0
C811 C 0.98762 0.27855 0.60093 0.0
H812 H 0.95911 0.24616 0.6396 0.0
C813 C 0.92701 0.23028 0.58007 0.0
C814 C 0.93283 0.22212 0.55757 0.0
C815 C 0.93848 0.23999 0.59506 0.0
C816 C 0.96704 0.25511 0.62857 0.0
H817 H 0.00717 0.33652 0.63713 0.0
H818 H 0.99062 0.31404 0.61475 0.0
H819 H 0.97603 0.26832 0.66212 0.0
H820 H 0.95546 0.21679 0.53396 0.0
H821 H 0.97559 0.23376 0.56031 0.0
H822 H 0.97842 0.26556 0.56738 0.0
C823 C 0.99769 0.3105 0.6319 0.0
C824 C 0.97678 0.26773 0.64145 0.0
C825 C 0.00707 0.3234 0.6448 0.0
C826 C 0.95058 0.22301 0.55114 0.0
C827 C 0.96207 0.23281 0.56611 0.0
C828 C 0.97799 0.26585 0.58808 0.0
C829 C 0.99717 0.29333 0.64133 0.0
C830 C 0.98708 0.27968 0.62774 0.0
C831 C 0.95601 0.24178 0.58784 0.0
C832 C 0.96746 0.25411 0.60174 0.0
H833 H 0.02274 0.29866 0.69387 0.0
H834 H 0.00622 0.27622 0.67154 0.0
H835 H 0.99552 0.28748 0.58982 0.0
H836 H 0.91343 0.22965 0.58567 0.0
H837 H 0.93339 0.24681 0.61162 0.0
C838 C 0.48829 0.19826 0.32159 0.0
C839 C 0.48636 0.18004 0.32014 0.0
C840 C 0.47828 0.208 0.3389 0.0
C841 C 0.43657 0.20672 0.37198 0.0
H842 H 0.45626 0.24014 0.41951 0.0
C843 C 0.39439 0.23689 0.45095 0.0
C844 C 0.39694 0.25452 0.4571 0.0
C845 C 0.40617 0.22813 0.43515 0.0
C846 C 0.4505 0.23104 0.40612 0.0
H847 H 0.47307 0.15774 0.3367 0.0
H848 H 0.45536 0.17473 0.36612 0.0
H849 H 0.47532 0.22478 0.38947 0.0
H850 H 0.41404 0.27674 0.45185 0.0
H851 H 0.43431 0.26164 0.42356 0.0
H852 H 0.41176 0.21311 0.38783 0.0
C853 C 0.46447 0.18148 0.35375 0.0
C854 C 0.46145 0.22224 0.38899 0.0
C855 C 0.4746 0.17176 0.33679 0.0
C856 C 0.41175 0.26311 0.44755 0.0
C857 C 0.42343 0.25442 0.43139 0.0
C858 C 0.42562 0.21565 0.38879 0.0
C859 C 0.46607 0.19969 0.35479 0.0
C860 C 0.45458 0.20983 0.37202 0.0
C861 C 0.42065 0.23686 0.4247 0.0
C862 C 0.43244 0.22776 0.40636 0.0
H863 H 0.49733 0.20502 0.30913 0.0
H864 H 0.47974 0.22205 0.33937 0.0
H865 H 0.43092 0.1974 0.35879 0.0
H866 H 0.38325 0.22981 0.45819 0.0
H867 H 0.40383 0.21448 0.43103 0.0
C868 C 0.48967 0.67472 0.17967 0.0
C869 C 0.49097 0.65656 0.17653 0.0
C870 C 0.49851 0.68601 0.16322 0.0
C871 C 0.52878 0.70489 0.13796 0.0
H872 H 0.53083 0.6975 0.06461 0.0
C873 C 0.58126 0.7358 0.07379 0.0
C874 C 0.57601 0.74276 0.05018 0.0
C875 C 0.56954 0.72643 0.08889 0.0
C876 C 0.53023 0.69982 0.08503 0.0
H877 H 0.50202 0.63601 0.15307 0.0
H878 H 0.51753 0.65577 0.12432 0.0
H879 H 0.51235 0.67873 0.09105 0.0
H880 H 0.55432 0.74556 0.02396 0.0
H881 H 0.53381 0.72899 0.05038 0.0
H882 H 0.54681 0.72581 0.13205 0.0
C883 C 0.50963 0.66124 0.13952 0.0
C884 C 0.5198 0.68899 0.10016 0.0
C885 C 0.50087 0.64993 0.1561 0.0
C886 C 0.55872 0.74036 0.0421 0.0
C887 C 0.54702 0.7308 0.05712 0.0
C888 C 0.53931 0.71561 0.12288 0.0
C889 C 0.50874 0.67939 0.14315 0.0
C890 C 0.51908 0.69134 0.12681 0.0
C891 C 0.55236 0.7237 0.08062 0.0
C892 C 0.54027 0.71308 0.09631 0.0
H893 H 0.4821 0.68025 0.19517 0.0
H894 H 0.49742 0.69994 0.16629 0.0
H895 H 0.5286 0.70693 0.15846 0.0
H896 H 0.59447 0.73751 0.0806 0.0
H897 H 0.57407 0.72097 0.10679 0.0
C898 C 0.00594 0.83625 0.79873 0.0
C899 C 0.0076 0.85428 0.80291 0.0
C900 C 0.01444 0.82435 0.81463 0.0
C901 C 0.04377 0.8041 0.84066 0.0
H902 H 0.04218 0.80911 0.91448 0.0
C903 C 0.09096 0.7686 0.90871 0.0
C904 C 0.0837 0.76059 0.93042 0.0
C905 C 0.08081 0.7793 0.89312 0.0
C906 C 0.04263 0.8075 0.89391 0.0
H907 H 0.01918 0.87398 0.82734 0.0
H908 H 0.03391 0.85314 0.8553 0.0
H909 H 0.02587 0.82943 0.88746 0.0
H910 H 0.06012 0.75748 0.95282 0.0
H911 H 0.04238 0.77646 0.92564 0.0
H912 H 0.06072 0.78234 0.84706 0.0
C913 C 0.02605 0.84825 0.83967 0.0
C914 C 0.03343 0.81919 0.87847 0.0
C915 C 0.01771 0.86017 0.82357 0.0
C916 C 0.06605 0.76345 0.93618 0.0
C917 C 0.05593 0.77437 0.92074 0.0
C918 C 0.05313 0.79256 0.85607 0.0
C919 C 0.02459 0.83024 0.83524 0.0
C920 C 0.03396 0.81763 0.8517 0.0
C921 C 0.06323 0.78239 0.89907 0.0
C922 C 0.05271 0.79419 0.88283 0.0
H923 H 0.99824 0.83131 0.78296 0.0
H924 H 0.013 0.81053 0.81091 0.0
H925 H 0.04449 0.80267 0.82007 0.0
H926 H 0.10451 0.76659 0.90373 0.0
H927 H 0.0868 0.78544 0.87665 0.0
C928 C 0.98898 0.33123 0.32385 0.0
C929 C 0.99786 0.32714 0.30109 0.0
C930 C 0.99504 0.32495 0.34746 0.0
C931 C 0.02642 0.29303 0.37616 0.0
H932 H 0.03352 0.32881 0.42748 0.0
C933 C 0.08774 0.29997 0.43589 0.0
C934 C 0.08691 0.30647 0.46093 0.0
C935 C 0.07254 0.29735 0.42179 0.0
C936 C 0.03127 0.31848 0.41372 0.0
H937 H 0.01958 0.31266 0.28515 0.0
H938 H 0.03021 0.30204 0.32581 0.0
H939 H 0.01395 0.33439 0.39171 0.0
H940 H 0.06969 0.31472 0.49137 0.0
H941 H 0.04288 0.31049 0.46641 0.0
H942 H 0.0448 0.27766 0.39722 0.0
C943 C 0.01847 0.30986 0.32571 0.0
C944 C 0.02003 0.32169 0.39317 0.0
C945 C 0.01249 0.31617 0.30233 0.0
C946 C 0.07058 0.30935 0.47225 0.0
C947 C 0.0553 0.30709 0.4579 0.0
C948 C 0.03774 0.28989 0.39658 0.0
C949 C 0.01003 0.31435 0.34866 0.0
C950 C 0.01815 0.30933 0.37348 0.0
C951 C 0.0562 0.30162 0.43223 0.0
C952 C 0.0409 0.30289 0.41494 0.0
H953 H 0.9778 0.33982 0.32348 0.0
H954 H 0.98821 0.32863 0.36478 0.0
H955 H 0.02493 0.28306 0.36166 0.0
H956 H 0.10022 0.29785 0.42671 0.0
H957 H 0.07372 0.2933 0.40201 0.0
C958 C 0.89931 0.78709 0.55288 0.0
C959 C 0.89192 0.79419 0.53059 0.0
C960 C 0.9046 0.79791 0.57293 0.0
C961 C 0.9062 0.82248 0.61813 0.0
H962 H 0.93024 0.86571 0.6028 0.0
C963 C 0.9296 0.86763 0.69889 0.0
C964 C 0.94662 0.87415 0.6964 0.0
C965 C 0.9212 0.8599 0.67806 0.0
C966 C 0.92359 0.85366 0.60741 0.0
H967 H 0.88413 0.81831 0.51212 0.0
H968 H 0.89314 0.83715 0.5473 0.0
H969 H 0.91929 0.84767 0.56792 0.0
H970 H 0.96788 0.8784 0.66972 0.0
H971 H 0.95339 0.86467 0.63357 0.0
H972 H 0.91112 0.82803 0.65751 0.0
C973 C 0.89508 0.82321 0.54908 0.0
C974 C 0.91713 0.8434 0.58742 0.0
C975 C 0.88983 0.81239 0.52896 0.0
C976 C 0.95475 0.87352 0.6723 0.0
C977 C 0.94639 0.8657 0.6515 0.0
C978 C 0.91269 0.83269 0.63809 0.0
C979 C 0.90257 0.81611 0.57128 0.0
C980 C 0.90855 0.82757 0.59253 0.0
C981 C 0.92967 0.85842 0.65427 0.0
C982 C 0.92164 0.84832 0.63299 0.0
H983 H 0.90122 0.77316 0.5548 0.0
H984 H 0.91058 0.792 0.58955 0.0
H985 H 0.89943 0.8105 0.62279 0.0
H986 H 0.92291 0.86805 0.71713 0.0
H987 H 0.90819 0.85476 0.68073 0.0
C988 C 0.40213 0.691 0.95074 0.0
C989 C 0.38786 0.7017 0.94449 0.0
C990 C 0.4101 0.68067 0.93211 0.0
C991 C 0.40397 0.66002 0.86942 0.0
H992 H 0.45427 0.6635 0.86472 0.0
C993 C 0.44287 0.63202 0.78382 0.0
C994 C 0.45976 0.6256 0.78823 0.0
C995 C 0.43349 0.64014 0.80343 0.0
C996 C 0.44026 0.66207 0.86599 0.0
H997 H 0.37043 0.70942 0.91391 0.0
H998 H 0.38431 0.69113 0.88135 0.0
H999 H 0.43882 0.67955 0.89785 0.0
H1000 H 0.47972 0.62202 0.81707 0.0
H1001 H 0.46317 0.6356 0.85146 0.0
H1002 H 0.40538 0.64234 0.83779 0.0
C1003 C 0.3893 0.69085 0.90072 0.0
C1004 C 0.43141 0.67136 0.88495 0.0
C1005 C 0.3814 0.70136 0.91934 0.0
C1006 C 0.46681 0.62696 0.81295 0.0
C1007 C 0.45734 0.63489 0.83264 0.0
C1008 C 0.41285 0.65054 0.85059 0.0
C1009 C 0.40392 0.68063 0.90685 0.0
C1010 C 0.41318 0.67048 0.88683 0.0
C1011 C 0.44067 0.64188 0.82805 0.0
C1012 C 0.43113 0.65149 0.84856 0.0
H1013 H 0.40743 0.6909 0.96992 0.0
H1014 H 0.42122 0.67277 0.93745 0.0
H1015 H 0.38992 0.65898 0.87059 0.0
H1016 H 0.43708 0.63129 0.76496 0.0
H1017 H 0.42082 0.64555 0.79901 0.0
C1018 C 0.62107 0.20842 0.04155 0.0
C1019 C 0.6221 0.22673 0.0422 0.0
C1020 C 0.61422 0.19916 0.06232 0.0
C1021 C 0.58844 0.18465 0.10129 0.0
H1022 H 0.59754 0.19961 0.17087 0.0
C1023 C 0.54492 0.16494 0.18652 0.0
C1024 C 0.55276 0.16206 0.21044 0.0
C1025 C 0.55478 0.17088 0.1658 0.0
C1026 C 0.59503 0.19509 0.15159 0.0
H1027 H 0.61695 0.24962 0.06551 0.0
H1028 H 0.60491 0.23353 0.10144 0.0
H1029 H 0.61275 0.21363 0.13552 0.0
H1030 H 0.57726 0.16253 0.23106 0.0
H1031 H 0.5945 0.17273 0.19479 0.0
H1032 H 0.57073 0.16606 0.1174 0.0
C1033 C 0.60959 0.22628 0.08503 0.0
C1034 C 0.60359 0.20328 0.1313 0.0
C1035 C 0.6164 0.23553 0.0643 0.0
C1036 C 0.57079 0.16473 0.21294 0.0
C1037 C 0.58066 0.17066 0.19219 0.0
C1038 C 0.57986 0.17644 0.1216 0.0
C1039 C 0.60829 0.208 0.08423 0.0
C1040 C 0.60021 0.19835 0.10588 0.0
C1041 C 0.57273 0.17405 0.16847 0.0
C1042 C 0.58287 0.18174 0.14698 0.0
H1043 H 0.62537 0.2012 0.02488 0.0
H1044 H 0.61358 0.18507 0.06122 0.0
H1045 H 0.58544 0.1806 0.08194 0.0
H1046 H 0.53105 0.16301 0.18391 0.0
H1047 H 0.54819 0.17355 0.14791 0.0
C1048 C 0.05738 0.62556 0.20854 0.0
C1049 C 0.03913 0.62509 0.21094 0.0
C1050 C 0.06524 0.6341 0.18782 0.0
C1051 C 0.05535 0.65167 0.12302 0.0
H1052 H 0.09582 0.68091 0.1346 0.0
C1053 C 0.07437 0.70694 0.05497 0.0
C1054 C 0.09187 0.70812 0.04719 0.0
C1055 C 0.06944 0.69551 0.07442 0.0
C1056 C 0.08465 0.67261 0.13104 0.0
H1057 H 0.01487 0.63327 0.19328 0.0
H1058 H 0.02846 0.64834 0.1578 0.0
H1059 H 0.08434 0.66302 0.16953 0.0
H1060 H 0.11799 0.69847 0.05416 0.0
H1061 H 0.10932 0.6786 0.08874 0.0
H1062 H 0.05527 0.66177 0.08486 0.0
C1063 C 0.03677 0.64181 0.17152 0.0
C1064 C 0.07809 0.66233 0.151 0.0
C1065 C 0.02895 0.63324 0.19206 0.0
C1066 C 0.1044 0.69781 0.05969 0.0
C1067 C 0.09947 0.6865 0.07949 0.0
C1068 C 0.06178 0.66205 0.10323 0.0
C1069 C 0.05501 0.64238 0.16909 0.0
C1070 C 0.06313 0.652 0.14737 0.0
C1071 C 0.08189 0.68511 0.08679 0.0
C1072 C 0.07629 0.67287 0.10717 0.0
H1073 H 0.06562 0.61939 0.2227 0.0
H1074 H 0.07931 0.63414 0.18643 0.0
H1075 H 0.04409 0.64354 0.1193 0.0
H1076 H 0.06437 0.71468 0.04579 0.0
H1077 H 0.05584 0.69488 0.0799 0.0
C1078 C 0.53773 0.84231 0.30674 0.0
C1079 C 0.53897 0.86007 0.30037 0.0
C1080 C 0.5461 0.83572 0.32823 0.0
C1081 C 0.58159 0.84311 0.3738 0.0
H1082 H 0.55612 0.80818 0.41241 0.0
C1083 C 0.60754 0.8065 0.46473 0.0
C1084 C 0.60549 0.78826 0.4636 0.0
C1085 C 0.6 0.81723 0.44609 0.0
C1086 C 0.5634 0.81791 0.40182 0.0
H1087 H 0.55033 0.88483 0.31145 0.0
H1088 H 0.56507 0.87318 0.34956 0.0
H1089 H 0.54156 0.82398 0.37822 0.0
H1090 H 0.59421 0.76704 0.44161 0.0
H1091 H 0.58095 0.78574 0.40953 0.0
H1092 H 0.6035 0.83677 0.39763 0.0
C1093 C 0.55756 0.86442 0.33763 0.0
C1094 C 0.55509 0.82695 0.38221 0.0
C1095 C 0.54911 0.87109 0.31589 0.0
C1096 C 0.59604 0.78101 0.44318 0.0
C1097 C 0.58835 0.79172 0.42484 0.0
C1098 C 0.58991 0.83411 0.39369 0.0
C1099 C 0.55591 0.84668 0.34418 0.0
C1100 C 0.56422 0.83923 0.36739 0.0
C1101 C 0.59007 0.80993 0.42626 0.0
C1102 C 0.581 0.82105 0.40732 0.0
H1103 H 0.5302 0.83335 0.29514 0.0
H1104 H 0.54491 0.82192 0.33229 0.0
H1105 H 0.58897 0.85247 0.3627 0.0
H1106 H 0.61481 0.8125 0.48015 0.0
H1107 H 0.6015 0.83124 0.44758 0.0
C1108 C 0.39101 0.30141 0.55571 0.0
C1109 C 0.37293 0.30066 0.55936 0.0
C1110 C 0.40228 0.2984 0.57628 0.0
C1111 C 0.4003 0.30668 0.64449 0.0
H1112 H 0.44818 0.29065 0.64496 0.0
C1113 C 0.44412 0.32144 0.73034 0.0
C1114 C 0.4612 0.32693 0.72499 0.0
C1115 C 0.43387 0.31384 0.71132 0.0
C1116 C 0.43485 0.29526 0.64507 0.0
H1117 H 0.35235 0.29452 0.58613 0.0
H1118 H 0.37198 0.28855 0.62182 0.0
H1119 H 0.42922 0.28326 0.60885 0.0
H1120 H 0.48111 0.3282 0.69558 0.0
H1121 H 0.46298 0.31556 0.66205 0.0
H1122 H 0.40589 0.31941 0.67974 0.0
C1123 C 0.37753 0.29183 0.60337 0.0
C1124 C 0.42398 0.29093 0.62446 0.0
C1125 C 0.36629 0.29506 0.58293 0.0
C1126 C 0.46797 0.32417 0.70031 0.0
C1127 C 0.45761 0.31676 0.68113 0.0
C1128 C 0.41112 0.31107 0.66488 0.0
C1129 C 0.39555 0.29461 0.60072 0.0
C1130 C 0.40664 0.2968 0.62381 0.0
C1131 C 0.44031 0.31176 0.68628 0.0
C1132 C 0.42861 0.30565 0.66535 0.0
H1133 H 0.39634 0.30596 0.53771 0.0
H1134 H 0.41609 0.30067 0.57358 0.0
H1135 H 0.38717 0.31183 0.64436 0.0
H1136 H 0.43859 0.32308 0.74927 0.0
H1137 H 0.42077 0.30977 0.71621 0.0
C1138 C 0.9424 0.1429 0.82319 0.0
C1139 C 0.93992 0.14976 0.79863 0.0
C1140 C 0.94451 0.15398 0.8441 0.0
C1141 C 0.94854 0.20022 0.86541 0.0
H1142 H 0.91616 0.18454 0.91759 0.0
C1143 C 0.91774 0.24583 0.94194 0.0
C1144 C 0.91481 0.23894 0.96652 0.0
C1145 C 0.92408 0.23523 0.92221 0.0
C1146 C 0.9255 0.18904 0.90352 0.0
H1147 H 0.93902 0.17338 0.77607 0.0
H1148 H 0.94227 0.19296 0.81285 0.0
H1149 H 0.92298 0.16561 0.88197 0.0
H1150 H 0.91697 0.21561 0.9898 0.0
H1151 H 0.92816 0.19725 0.9556 0.0
H1152 H 0.95054 0.22399 0.88696 0.0
C1153 C 0.94292 0.17901 0.81596 0.0
C1154 C 0.92948 0.17813 0.88303 0.0
C1155 C 0.94109 0.16784 0.79488 0.0
C1156 C 0.91883 0.22132 0.97106 0.0
C1157 C 0.92523 0.21077 0.95141 0.0
C1158 C 0.94453 0.21122 0.88605 0.0
C1159 C 0.9437 0.17217 0.84094 0.0
C1160 C 0.94096 0.18357 0.86363 0.0
C1161 C 0.92768 0.2175 0.92664 0.0
C1162 C 0.93286 0.20576 0.90526 0.0
H1163 H 0.94157 0.12897 0.82646 0.0
H1164 H 0.9456 0.14828 0.86299 0.0
H1165 H 0.95748 0.20477 0.85082 0.0
H1166 H 0.91485 0.25937 0.93776 0.0
H1167 H 0.92565 0.24079 0.90331 0.0
C1168 C 0.95299 0.63331 0.71192 0.0
C1169 C 0.9709 0.63596 0.71616 0.0
C1170 C 0.94411 0.64306 0.69344 0.0
C1171 C 0.94616 0.68479 0.65957 0.0
H1172 H 0.9166 0.66294 0.60871 0.0
C1173 C 0.92534 0.721 0.56894 0.0
C1174 C 0.90873 0.71803 0.55853 0.0
C1175 C 0.93131 0.71114 0.58953 0.0
C1176 C 0.92454 0.6693 0.62305 0.0
H1177 H 0.99352 0.65085 0.70404 0.0
H1178 H 0.97799 0.66789 0.67207 0.0
H1179 H 0.93014 0.64511 0.64198 0.0
H1180 H 0.88522 0.70253 0.56193 0.0
H1181 H 0.89558 0.68541 0.5984 0.0
H1182 H 0.9406 0.70895 0.64098 0.0
C1183 C 0.97083 0.6583 0.6831 0.0
C1184 C 0.93234 0.65906 0.64203 0.0
C1185 C 0.97974 0.64844 0.70132 0.0
C1186 C 0.8981 0.7051 0.56948 0.0
C1187 C 0.90408 0.69523 0.59027 0.0
C1188 C 0.93825 0.69503 0.64083 0.0
C1189 C 0.95291 0.65581 0.67909 0.0
C1190 C 0.94352 0.66668 0.66013 0.0
C1191 C 0.9208 0.69811 0.60048 0.0
C1192 C 0.92766 0.68738 0.62196 0.0
H1193 H 0.9458 0.62378 0.72298 0.0
H1194 H 0.93028 0.64091 0.69076 0.0
H1195 H 0.95444 0.69105 0.67361 0.0
H1196 H 0.93393 0.73079 0.56094 0.0
H1197 H 0.94438 0.71351 0.59648 0.0
C1198 C 0.05812 0.16209 0.30652 0.0
C1199 C 0.04884 0.17206 0.28856 0.0
C1200 C 0.063 0.16944 0.33007 0.0
C1201 C 0.05236 0.20673 0.37299 0.0
H1202 H 0.09862 0.19926 0.40052 0.0
C1203 C 0.08125 0.25078 0.45147 0.0
C1204 C 0.08929 0.24225 0.47209 0.0
C1205 C 0.07655 0.24147 0.42953 0.0
C1206 C 0.08561 0.20136 0.39313 0.0
H1207 H 0.03754 0.19758 0.28126 0.0
H1208 H 0.04625 0.21024 0.32146 0.0
H1209 H 0.08956 0.18356 0.36202 0.0
H1210 H 0.09909 0.21735 0.48562 0.0
H1211 H 0.09099 0.20118 0.44727 0.0
H1212 H 0.04855 0.22481 0.40368 0.0
C1213 C 0.04947 0.1967 0.31788 0.0
C1214 C 0.08039 0.19229 0.37118 0.0
C1215 C 0.04458 0.18942 0.29462 0.0
C1216 C 0.09286 0.2243 0.47009 0.0
C1217 C 0.08833 0.21504 0.44808 0.0
C1218 C 0.05763 0.21587 0.39472 0.0
C1219 C 0.05865 0.18684 0.336 0.0
C1220 C 0.06378 0.19508 0.36064 0.0
C1221 C 0.07995 0.22348 0.42769 0.0
C1222 C 0.07437 0.21345 0.40486 0.0
H1223 H 0.06158 0.14869 0.3024 0.0
H1224 H 0.07001 0.16146 0.3437 0.0
H1225 H 0.03933 0.2089 0.36574 0.0
H1226 H 0.0782 0.26454 0.45254 0.0
H1227 H 0.07023 0.24835 0.414 0.0
C1228 C 0.5971 0.32426 0.05083 0.0
C1229 C 0.61263 0.31461 0.05169 0.0
C1230 C 0.58984 0.33113 0.07315 0.0
C1231 C 0.59003 0.32458 0.14331 0.0
H1232 H 0.56188 0.36658 0.14216 0.0
C1233 C 0.55474 0.35263 0.23273 0.0
C1234 C 0.5369 0.35599 0.22908 0.0
C1235 C 0.56553 0.34884 0.21186 0.0
C1236 C 0.56971 0.35483 0.14272 0.0
H1237 H 0.63322 0.30531 0.07656 0.0
H1238 H 0.62084 0.31779 0.11553 0.0
H1239 H 0.57884 0.35854 0.10449 0.0
H1240 H 0.51647 0.35827 0.20061 0.0
H1241 H 0.5354 0.35197 0.16422 0.0
H1242 H 0.5809 0.32106 0.18174 0.0
C1243 C 0.61399 0.31966 0.09764 0.0
C1244 C 0.57938 0.35016 0.12113 0.0
C1245 C 0.62118 0.31262 0.07527 0.0
C1246 C 0.53014 0.3557 0.2041 0.0
C1247 C 0.54099 0.35221 0.18324 0.0
C1248 C 0.58054 0.32941 0.16504 0.0
C1249 C 0.59803 0.32871 0.09694 0.0
C1250 C 0.58936 0.33475 0.1209 0.0
C1251 C 0.55875 0.34865 0.18692 0.0
C1252 C 0.57002 0.34438 0.16475 0.0
H1253 H 0.59012 0.326 0.03302 0.0
H1254 H 0.57742 0.33774 0.07179 0.0
H1255 H 0.59733 0.31251 0.14381 0.0
H1256 H 0.56034 0.35268 0.25174 0.0
H1257 H 0.5792 0.34618 0.21519 0.0
C1258 C 0.4037 0.77359 0.95233 0.0
C1259 C 0.39226 0.78176 0.96959 0.0
C1260 C 0.41181 0.78319 0.933 0.0
C1261 C 0.40887 0.8226 0.89396 0.0
H1262 H 0.45879 0.8166 0.88688 0.0
C1263 C 0.44975 0.85999 0.81769 0.0
C1264 C 0.46237 0.84991 0.80496 0.0
C1265 C 0.44115 0.85336 0.83931 0.0
C1266 C 0.44483 0.81833 0.88841 0.0
H1267 H 0.37987 0.80633 0.97942 0.0
H1268 H 0.3939 0.82302 0.94526 0.0
H1269 H 0.44328 0.80124 0.92068 0.0
H1270 H 0.47588 0.82501 0.80506 0.0
H1271 H 0.46081 0.81348 0.84192 0.0
H1272 H 0.41033 0.83926 0.8611 0.0
C1273 C 0.39663 0.8092 0.94693 0.0
C1274 C 0.43597 0.80954 0.90781 0.0
C1275 C 0.38868 0.79965 0.96652 0.0
C1276 C 0.4663 0.83321 0.8144 0.0
C1277 C 0.45772 0.82661 0.83577 0.0
C1278 C 0.41773 0.83128 0.87428 0.0
C1279 C 0.40851 0.80112 0.93028 0.0
C1280 C 0.41787 0.81134 0.91052 0.0
C1281 C 0.44505 0.83655 0.84856 0.0
C1282 C 0.43578 0.82897 0.87098 0.0
H1283 H 0.40675 0.75985 0.9541 0.0
H1284 H 0.42076 0.7766 0.9202 0.0
H1285 H 0.39489 0.8242 0.89565 0.0
H1286 H 0.44645 0.87291 0.81088 0.0
H1287 H 0.43154 0.86141 0.84883 0.0
C1288 C 0.9295 0.33685 0.94184 0.0
C1289 C 0.91499 0.32571 0.9432 0.0
C1290 C 0.93671 0.3413 0.91822 0.0
C1291 C 0.92983 0.34384 0.84921 0.0
H1292 H 0.97901 0.33256 0.84538 0.0
C1293 C 0.96874 0.34569 0.75386 0.0
C1294 C 0.98619 0.35118 0.75512 0.0
C1295 C 0.95912 0.34301 0.77629 0.0
C1296 C 0.96536 0.33609 0.84613 0.0
H1297 H 0.8959 0.31153 0.92075 0.0
H1298 H 0.90843 0.31961 0.87932 0.0
H1299 H 0.96341 0.32848 0.88537 0.0
H1300 H 0.00703 0.35875 0.78083 0.0
H1301 H 0.99021 0.35472 0.81963 0.0
H1302 H 0.93185 0.35186 0.81008 0.0
C1303 C 0.91425 0.32471 0.89664 0.0
C1304 C 0.95642 0.33367 0.86907 0.0
C1305 C 0.90713 0.32008 0.92034 0.0
C1306 C 0.9937 0.35426 0.77918 0.0
C1307 C 0.98404 0.35184 0.8015 0.0
C1308 C 0.93886 0.34654 0.82625 0.0
C1309 C 0.92944 0.33489 0.89546 0.0
C1310 C 0.93862 0.33761 0.87089 0.0
C1311 C 0.9667 0.34597 0.80042 0.0
C1312 C 0.95679 0.34278 0.82448 0.0
H1313 H 0.93583 0.3415 0.95904 0.0
H1314 H 0.94831 0.34935 0.91776 0.0
H1315 H 0.91608 0.34696 0.85019 0.0
H1316 H 0.96262 0.34317 0.73557 0.0
H1317 H 0.94587 0.3383 0.7747 0.0
C1318 C 0.4582 0.16902 0.69517 0.0
C1319 C 0.44866 0.15838 0.71197 0.0
C1320 C 0.44966 0.18006 0.67799 0.0
C1321 C 0.40588 0.19998 0.66572 0.0
H1322 H 0.42679 0.21182 0.60044 0.0
C1323 C 0.37011 0.22658 0.57651 0.0
C1324 C 0.37742 0.24116 0.56429 0.0
C1325 C 0.37844 0.21894 0.5974 0.0
C1326 C 0.42094 0.20881 0.6188 0.0
H1327 H 0.42272 0.1503 0.72311 0.0
H1328 H 0.40778 0.16867 0.6921 0.0
H1329 H 0.44195 0.19205 0.62927 0.0
H1330 H 0.39877 0.25962 0.56478 0.0
H1331 H 0.41372 0.24584 0.60111 0.0
H1332 H 0.38433 0.21597 0.65411 0.0
C1333 C 0.42186 0.16918 0.69287 0.0
C1334 C 0.42962 0.19748 0.63541 0.0
C1335 C 0.43041 0.15843 0.71046 0.0
C1336 C 0.39281 0.24849 0.57406 0.0
C1337 C 0.4014 0.24056 0.59464 0.0
C1338 C 0.39704 0.21099 0.64881 0.0
C1339 C 0.43134 0.18047 0.67676 0.0
C1340 C 0.42218 0.19278 0.6591 0.0
C1341 C 0.39443 0.22549 0.60609 0.0
C1342 C 0.40448 0.21545 0.62519 0.0
H1343 H 0.4723 0.16946 0.69608 0.0
H1344 H 0.45751 0.18868 0.66631 0.0
H1345 H 0.39986 0.19712 0.68397 0.0
H1346 H 0.35826 0.22071 0.5693 0.0
H1347 H 0.37288 0.20729 0.60584 0.0
C1348 C 0.57673 0.71655 0.42122 0.0
C1349 C 0.59359 0.71358 0.4307 0.0
C1350 C 0.57089 0.70805 0.3993 0.0
C1351 C 0.57836 0.66942 0.35875 0.0
H1352 H 0.54667 0.69416 0.31382 0.0
C1353 C 0.54499 0.63991 0.26739 0.0
C1354 C 0.52677 0.64207 0.26735 0.0
C1355 C 0.55529 0.64841 0.28571 0.0
C1356 C 0.55554 0.6871 0.32617 0.0
H1357 H 0.61762 0.69936 0.42436 0.0
H1358 H 0.60741 0.68455 0.38555 0.0
H1359 H 0.56139 0.70989 0.348 0.0
H1360 H 0.50516 0.65478 0.28667 0.0
H1361 H 0.5231 0.66974 0.31804 0.0
H1362 H 0.57231 0.64658 0.3366 0.0
C1363 C 0.59868 0.69339 0.3954 0.0
C1364 C 0.56393 0.69607 0.34583 0.0
C1365 C 0.60455 0.70192 0.41754 0.0
C1366 C 0.51912 0.65279 0.28608 0.0
C1367 C 0.5294 0.66146 0.304 0.0
C1368 C 0.57008 0.66045 0.33879 0.0
C1369 C 0.58175 0.6964 0.38601 0.0
C1370 C 0.57499 0.68725 0.36292 0.0
C1371 C 0.54757 0.65945 0.30393 0.0
C1372 C 0.5582 0.66914 0.32283 0.0
H1373 H 0.56786 0.72535 0.43088 0.0
H1374 H 0.55764 0.71041 0.39307 0.0
H1375 H 0.58673 0.6622 0.37161 0.0
H1376 H 0.55127 0.6317 0.25328 0.0
H1377 H 0.56929 0.64666 0.2853 0.0
C1378 C 0.10712 0.78064 0.04922 0.0
C1379 C 0.10815 0.78786 0.02455 0.0
C1380 C 0.10249 0.79101 0.07014 0.0
C1381 C 0.07779 0.82969 0.08747 0.0
H1382 H 0.10402 0.82762 0.15072 0.0
C1383 C 0.05644 0.86906 0.1764 0.0
C1384 C 0.05759 0.86035 0.19998 0.0
C1385 C 0.06443 0.86212 0.15456 0.0
C1386 C 0.09643 0.82824 0.13331 0.0
H1387 H 0.10504 0.81164 0.00251 0.0
H1388 H 0.0966 0.82965 0.0391 0.0
H1389 H 0.11418 0.81143 0.11342 0.0
H1390 H 0.0684 0.83775 0.21924 0.0
H1391 H 0.0818 0.82547 0.18132 0.0
H1392 H 0.0596 0.84582 0.10747 0.0
C1393 C 0.09952 0.81599 0.04217 0.0
C1394 C 0.10231 0.81901 0.11193 0.0
C1395 C 0.10443 0.80569 0.02128 0.0
C1396 C 0.0673 0.84485 0.20141 0.0
C1397 C 0.07512 0.83785 0.1796 0.0
C1398 C 0.07176 0.83874 0.10896 0.0
C1399 C 0.09853 0.80874 0.06679 0.0
C1400 C 0.09294 0.81947 0.08891 0.0
C1401 C 0.07363 0.84625 0.15579 0.0
C1402 C 0.08087 0.83794 0.13228 0.0
H1403 H 0.10993 0.76697 0.05242 0.0
H1404 H 0.10165 0.78506 0.0889 0.0
H1405 H 0.07024 0.83015 0.06999 0.0
H1406 H 0.04912 0.88108 0.1747 0.0
H1407 H 0.06325 0.86913 0.13667 0.0
C1408 C 0.60655 0.82007 0.93994 0.0
C1409 C 0.60756 0.80177 0.9401 0.0
C1410 C 0.60054 0.82893 0.91832 0.0
C1411 C 0.59017 0.82396 0.84915 0.0
H1412 H 0.55567 0.85956 0.86368 0.0
C1413 C 0.55399 0.86218 0.76925 0.0
C1414 C 0.5359 0.86394 0.77273 0.0
C1415 C 0.56454 0.85593 0.78909 0.0
C1416 C 0.56527 0.84965 0.85928 0.0
H1417 H 0.60391 0.77848 0.91713 0.0
H1418 H 0.59324 0.79391 0.87956 0.0
H1419 H 0.57145 0.84601 0.89876 0.0
H1420 H 0.51478 0.86061 0.8 0.0
H1421 H 0.53307 0.84971 0.83429 0.0
H1422 H 0.58344 0.82721 0.80966 0.0
C1423 C 0.59722 0.80145 0.89607 0.0
C1424 C 0.57449 0.84202 0.87938 0.0
C1425 C 0.60326 0.79258 0.91768 0.0
C1426 C 0.52865 0.85948 0.79658 0.0
C1427 C 0.53917 0.85332 0.81636 0.0
C1428 C 0.58096 0.83165 0.82899 0.0
C1429 C 0.59538 0.8197 0.89635 0.0
C1430 C 0.58686 0.82888 0.87462 0.0
C1431 C 0.55722 0.85141 0.81286 0.0
C1432 C 0.56817 0.84435 0.8339 0.0
H1433 H 0.60991 0.82757 0.9568 0.0
H1434 H 0.59959 0.84302 0.91901 0.0
H1435 H 0.59974 0.81401 0.84481 0.0
H1436 H 0.56001 0.86548 0.75114 0.0
H1437 H 0.57842 0.85471 0.78587 0.0
C1438 C 0.46274 0.31643 0.19679 0.0
C1439 C 0.45949 0.33343 0.20573 0.0
C1440 C 0.4513 0.30835 0.1798 0.0
C1441 C 0.41834 0.31685 0.1312 0.0
H1442 H 0.40495 0.26877 0.1436 0.0
C1443 C 0.3719 0.28203 0.06251 0.0
C1444 C 0.37621 0.26487 0.05554 0.0
C1445 C 0.37991 0.29002 0.08339 0.0
C1446 C 0.40866 0.28214 0.13972 0.0
H1447 H 0.44184 0.35544 0.20329 0.0
H1448 H 0.42191 0.34134 0.17304 0.0
H1449 H 0.42347 0.28394 0.17434 0.0
H1450 H 0.39159 0.24226 0.0658 0.0
H1451 H 0.40599 0.25631 0.10199 0.0
H1452 H 0.40416 0.31499 0.09622 0.0
C1453 C 0.43332 0.33428 0.17945 0.0
C1454 C 0.41923 0.29084 0.15737 0.0
C1455 C 0.44472 0.34235 0.19674 0.0
C1456 C 0.38797 0.25548 0.0708 0.0
C1457 C 0.3962 0.26357 0.09157 0.0
C1458 C 0.40791 0.30812 0.11344 0.0
C1459 C 0.4364 0.3171 0.1711 0.0
C1460 C 0.4243 0.30824 0.15318 0.0
C1461 C 0.39266 0.28115 0.09761 0.0
C1462 C 0.40301 0.2906 0.11736 0.0
H1463 H 0.474 0.30915 0.20324 0.0
H1464 H 0.45419 0.29523 0.17336 0.0
H1465 H 0.42221 0.33017 0.1273 0.0
H1466 H 0.36268 0.28952 0.05132 0.0
H1467 H 0.37642 0.30335 0.08793 0.0
C1468 C 0.93302 0.20265 0.41481 0.0
C1469 C 0.91795 0.19596 0.42648 0.0
C1470 C 0.9366 0.1992 0.38922 0.0
C1471 C 0.92947 0.16745 0.33872 0.0
H1472 H 0.95151 0.20344 0.29776 0.0
C1473 C 0.96378 0.15399 0.24104 0.0
C1474 C 0.98122 0.15961 0.24152 0.0
C1475 C 0.9521 0.15938 0.26011 0.0
C1476 C 0.94522 0.19329 0.30885 0.0
H1477 H 0.89468 0.18049 0.42034 0.0
H1478 H 0.90116 0.17419 0.37518 0.0
H1479 H 0.93757 0.2112 0.33812 0.0
H1480 H -0.0001 0.17579 0.26167 0.0
H1481 H 0.97956 0.18537 0.29442 0.0
H1482 H 0.93781 0.14946 0.30973 0.0
C1483 C 0.91012 0.18218 0.38608 0.0
C1484 C 0.93728 0.19771 0.33196 0.0
C1485 C 0.90642 0.18579 0.41184 0.0
C1486 C 0.98658 0.17115 0.26083 0.0
C1487 C 0.9749 0.17676 0.27949 0.0
C1488 C 0.93737 0.16303 0.31543 0.0
C1489 C 0.92526 0.18892 0.37453 0.0
C1490 C 0.93003 0.18473 0.3477 0.0
C1491 C 0.95761 0.17078 0.27953 0.0
C1492 C 0.94595 0.17583 0.30087 0.0
H1493 H 0.94216 0.21061 0.42544 0.0
H1494 H 0.94855 0.20431 0.38108 0.0
H1495 H 0.92403 0.15717 0.35047 0.0
H1496 H 0.95932 0.14503 0.22642 0.0
H1497 H 0.93883 0.15458 0.25979 0.0
C1498 C 0.10334 0.72276 0.54893 0.0
C1499 C 0.11145 0.71344 0.52903 0.0
C1500 C 0.09611 0.714 0.56978 0.0
C1501 C 0.09679 0.67282 0.60586 0.0
H1502 H 0.05114 0.68821 0.62828 0.0
C1503 C 0.05653 0.6379 0.68549 0.0
C1504 C 0.04749 0.64886 0.7025 0.0
C1505 C 0.06497 0.64487 0.66401 0.0
C1506 C 0.06397 0.68386 0.62245 0.0
H1507 H 0.11869 0.68757 0.51587 0.0
H1508 H 0.10601 0.67229 0.55247 0.0
H1509 H 0.06479 0.70208 0.59155 0.0
H1510 H 0.0408 0.67578 0.71084 0.0
H1511 H 0.05564 0.68786 0.6739 0.0
H1512 H 0.09597 0.65468 0.63707 0.0
C1513 C 0.10532 0.68639 0.55183 0.0
C1514 C 0.07178 0.6918 0.60138 0.0
C1515 C 0.11251 0.69516 0.53083 0.0
C1516 C 0.04748 0.66692 0.698 0.0
C1517 C 0.05591 0.67386 0.67669 0.0
C1518 C 0.08897 0.66487 0.62709 0.0
C1519 C 0.09684 0.69573 0.57135 0.0
C1520 C 0.08837 0.68656 0.59305 0.0
C1521 C 0.06451 0.66292 0.65919 0.0
C1522 C 0.07257 0.6705 0.63584 0.0
H1523 H 0.10233 0.73684 0.5483 0.0
H1524 H 0.08991 0.72158 0.58473 0.0
H1525 H 0.10962 0.66855 0.59991 0.0
H1526 H 0.05676 0.62392 0.68844 0.0
H1527 H 0.07143 0.63609 0.65082 0.0
C1528 C 0.59403 0.18931 0.55022 0.0
C1529 C 0.61178 0.19322 0.54707 0.0
C1530 C 0.58817 0.18057 0.57192 0.0
C1531 C 0.59787 0.17384 0.63911 0.0
H1532 H 0.56088 0.13959 0.63341 0.0
C1533 C 0.56081 0.1455 0.72714 0.0
C1534 C 0.54255 0.14539 0.72457 0.0
C1535 C 0.57151 0.149 0.70603 0.0
C1536 C 0.5712 0.14914 0.63533 0.0
H1537 H 0.6374 0.19081 0.56408 0.0
H1538 H 0.62701 0.17557 0.60261 0.0
H1539 H 0.57613 0.14931 0.59506 0.0
H1540 H 0.5213 0.14882 0.69765 0.0
H1541 H 0.53987 0.15492 0.66112 0.0
H1542 H 0.59247 0.17408 0.67937 0.0
C1543 C 0.61771 0.17928 0.58802 0.0
C1544 C 0.57996 0.15466 0.6134 0.0
C1545 C 0.62365 0.18789 0.56598 0.0
C1546 C 0.53528 0.14877 0.7004 0.0
C1547 C 0.54595 0.15214 0.67936 0.0
C1548 C 0.58908 0.16829 0.66114 0.0
C1549 C 0.59987 0.17561 0.5912 0.0
C1550 C 0.59299 0.1675 0.61492 0.0
C1551 C 0.56417 0.15228 0.68189 0.0
C1552 C 0.57526 0.1563 0.65933 0.0
H1553 H 0.58454 0.19319 0.536 0.0
H1554 H 0.57433 0.17819 0.57394 0.0
H1555 H 0.60779 0.18382 0.64085 0.0
H1556 H 0.56685 0.14296 0.74548 0.0
H1557 H 0.58551 0.14899 0.70853 0.0
C1558 C 0.06609 0.34695 0.79502 0.0
C1559 C 0.07138 0.33889 0.77215 0.0
C1560 C 0.06994 0.33933 0.81868 0.0
C1561 C 0.09662 0.30436 0.8496 0.0
H1562 H 0.05938 0.30487 0.8998 0.0
C1563 C 0.09445 0.25736 0.93602 0.0
C1564 C 0.09121 0.26515 0.95992 0.0
C1565 C 0.09232 0.26691 0.91345 0.0
C1566 C 0.06993 0.30472 0.88602 0.0
H1567 H 0.08561 0.31694 0.75628 0.0
H1568 H 0.09192 0.30352 0.79718 0.0
H1569 H 0.05616 0.32135 0.86022 0.0
H1570 H 0.08268 0.2889 0.97876 0.0
H1571 H 0.07874 0.30542 0.93933 0.0
H1572 H 0.11009 0.28724 0.87523 0.0
C1573 C 0.08504 0.31585 0.79708 0.0
C1574 C 0.06817 0.31427 0.8634 0.0
C1575 C 0.08133 0.32353 0.77351 0.0
C1576 C 0.08535 0.28252 0.96068 0.0
C1577 C 0.08302 0.29198 0.93811 0.0
C1578 C 0.09827 0.29464 0.87208 0.0
C1579 C 0.07906 0.32341 0.81997 0.0
C1580 C 0.08145 0.31415 0.8448 0.0
C1581 C 0.08669 0.28435 0.9143 0.0
C1582 C 0.08492 0.29467 0.89046 0.0
H1583 H 0.05847 0.35884 0.79465 0.0
H1584 H 0.06546 0.34574 0.83593 0.0
H1585 H 0.10725 0.30419 0.83599 0.0
H1586 H 0.09903 0.24403 0.93476 0.0
H1587 H 0.09507 0.26066 0.8953 0.0
C1588 C 0.92254 0.78281 0.06089 0.0
C1589 C 0.90479 0.7833 0.0544 0.0
C1590 C 0.92905 0.79318 0.08057 0.0
C1591 C 0.91982 0.83237 0.11965 0.0
H1592 H 0.95658 0.81295 0.16177 0.0
C1593 C 0.95088 0.86683 0.20861 0.0
C1594 C 0.9692 0.86625 0.20964 0.0
C1595 C 0.94179 0.85747 0.18986 0.0
C1596 C 0.94638 0.81858 0.15009 0.0
H1597 H 0.87992 0.79516 0.06356 0.0
H1598 H 0.89129 0.81316 0.09854 0.0
H1599 H 0.94253 0.79475 0.12975 0.0
H1600 H 0.99229 0.85574 0.19116 0.0
H1601 H 0.97644 0.8394 0.15881 0.0
H1602 H 0.92371 0.85622 0.1405 0.0
C1603 C 0.9002 0.80486 0.08804 0.0
C1604 C 0.93835 0.80818 0.13167 0.0
C1605 C 0.89367 0.7945 0.0681 0.0
C1606 C 0.9782 0.85649 0.19106 0.0
C1607 C 0.96912 0.84702 0.17258 0.0
C1608 C 0.92779 0.84277 0.13836 0.0
C1609 C 0.91798 0.80424 0.09459 0.0
C1610 C 0.92524 0.81503 0.11578 0.0
C1611 C 0.95083 0.84718 0.17201 0.0
C1612 C 0.9414 0.83605 0.15337 0.0
H1613 H 0.93154 0.77448 0.05061 0.0
H1614 H 0.94287 0.79264 0.08459 0.0
H1615 H 0.90985 0.83811 0.10768 0.0
H1616 H 0.94353 0.87425 0.22257 0.0
H1617 H 0.92768 0.8578 0.18986 0.0
C1618 C 0.39551 0.69854 0.47856 0.0
C1619 C 0.39874 0.71659 0.47994 0.0
C1620 C 0.40234 0.68859 0.45842 0.0
C1621 C 0.43795 0.68858 0.41164 0.0
H1622 H 0.40884 0.65788 0.37103 0.0
C1623 C 0.45799 0.66767 0.31137 0.0
C1624 C 0.45474 0.65056 0.30301 0.0
C1625 C 0.45141 0.67359 0.33462 0.0
C1626 C 0.41722 0.66614 0.38247 0.0
H1627 H 0.41161 0.73831 0.46113 0.0
H1628 H 0.42356 0.72097 0.42633 0.0
H1629 H 0.39667 0.6723 0.40889 0.0
H1630 H 0.44194 0.62621 0.31259 0.0
H1631 H 0.43039 0.63664 0.35367 0.0
H1632 H 0.45843 0.68267 0.38536 0.0
C1633 C 0.41582 0.7145 0.44084 0.0
C1634 C 0.41024 0.67442 0.40408 0.0
C1635 C 0.40886 0.72446 0.46071 0.0
C1636 C 0.44466 0.63947 0.31852 0.0
C1637 C 0.43801 0.64545 0.34196 0.0
C1638 C 0.44493 0.68025 0.39025 0.0
C1639 C 0.41272 0.69647 0.43953 0.0
C1640 C 0.42043 0.6861 0.41843 0.0
C1641 C 0.44143 0.66258 0.3503 0.0
C1642 C 0.43452 0.66935 0.37496 0.0
H1643 H 0.38773 0.69208 0.49301 0.0
H1644 H 0.39979 0.6747 0.45788 0.0
H1645 H 0.44621 0.69722 0.42268 0.0
H1646 H 0.46563 0.67663 0.29993 0.0
H1647 H 0.45398 0.68697 0.34014 0.0
C1648 C 0.46518 0.1717 0.19723 0.0
C1649 C 0.45798 0.16875 0.2216 0.0
C1650 C 0.45514 0.17921 0.17776 0.0
C1651 C 0.40891 0.1856 0.15999 0.0
H1652 H 0.42785 0.21526 0.10667 0.0
C1653 C 0.36418 0.20761 0.08133 0.0
C1654 C 0.37011 0.20285 0.05695 0.0
C1655 C 0.37588 0.20925 0.10157 0.0
C1656 C 0.4224 0.20705 0.12151 0.0
H1657 H 0.43488 0.17222 0.24498 0.0
H1658 H 0.41763 0.1857 0.2115 0.0
H1659 H 0.44647 0.20605 0.1423 0.0
H1660 H 0.39287 0.19762 0.0338 0.0
H1661 H 0.41346 0.20012 0.06939 0.0
H1662 H 0.38504 0.18625 0.13928 0.0
C1663 C 0.43082 0.18171 0.20702 0.0
C1664 C 0.43307 0.20168 0.14183 0.0
C1665 C 0.44075 0.174 0.22631 0.0
C1666 C 0.38807 0.20152 0.05245 0.0
C1667 C 0.39983 0.2029 0.07286 0.0
C1668 C 0.3983 0.19104 0.13993 0.0
C1669 C 0.43774 0.18412 0.18233 0.0
C1670 C 0.42646 0.19075 0.16124 0.0
C1671 C 0.39368 0.2057 0.09791 0.0
C1672 C 0.4049 0.20172 0.12034 0.0
H1673 H 0.47845 0.16783 0.19299 0.0
H1674 H 0.46087 0.18068 0.15895 0.0
H1675 H 0.40343 0.17683 0.17409 0.0
H1676 H 0.35034 0.20864 0.08519 0.0
H1677 H 0.37081 0.21184 0.12054 0.0
C1678 C 0.56359 0.64046 0.79773 0.0
C1679 C 0.55108 0.6272 0.80042 0.0
C1680 C 0.57168 0.64765 0.81916 0.0
C1681 C 0.56486 0.65338 0.88874 0.0
H1682 H 0.61124 0.67332 0.88497 0.0
C1683 C 0.59749 0.68987 0.97329 0.0
C1684 C 0.60367 0.70661 0.967 0.0
C1685 C 0.59246 0.67822 0.95408 0.0
C1686 C 0.59828 0.66779 0.88627 0.0
H1687 H 0.53793 0.61046 0.8277 0.0
H1688 H 0.55249 0.62265 0.86519 0.0
H1689 H 0.60049 0.65544 0.84976 0.0
H1690 H 0.60986 0.72404 0.9356 0.0
H1691 H 0.60137 0.70354 0.90208 0.0
H1692 H 0.56282 0.66572 0.92542 0.0
C1693 C 0.55569 0.62783 0.8465 0.0
C1694 C 0.59206 0.65761 0.86607 0.0
C1695 C 0.54744 0.62073 0.825 0.0
C1696 C 0.6051 0.71127 0.94108 0.0
C1697 C 0.60035 0.69951 0.92189 0.0
C1698 C 0.5712 0.66335 0.9091 0.0
C1699 C 0.56765 0.64166 0.8439 0.0
C1700 C 0.5751 0.65062 0.86673 0.0
C1701 C 0.59381 0.68295 0.92821 0.0
C1702 C 0.58781 0.67097 0.9078 0.0
H1703 H 0.56669 0.64581 0.7791 0.0
H1704 H 0.58056 0.65844 0.81629 0.0
H1705 H 0.55166 0.64847 0.88986 0.0
H1706 H 0.59618 0.6859 0.99308 0.0
H1707 H 0.58751 0.6655 0.95944 0.0
C1708 C 0.02838 0.86077 0.68858 0.0
C1709 C 0.0378 0.86975 0.70752 0.0
C1710 C 0.03702 0.85154 0.66939 0.0
C1711 C 0.07745 0.84749 0.63336 0.0
H1712 H 0.06156 0.80007 0.62232 0.0
C1713 C 0.10822 0.80103 0.55725 0.0
C1714 C 0.09642 0.7905 0.54367 0.0
C1715 C 0.10257 0.8109 0.57829 0.0
C1716 C 0.06606 0.81334 0.62493 0.0
H1717 H 0.06377 0.87657 0.72049 0.0
H1718 H 0.0789 0.86057 0.68644 0.0
H1719 H 0.04885 0.81738 0.65659 0.0
H1720 H 0.06938 0.78244 0.54113 0.0
H1721 H 0.05954 0.79978 0.57705 0.0
H1722 H 0.09429 0.84362 0.60108 0.0
C1723 C 0.06479 0.86065 0.68676 0.0
C1724 C 0.05881 0.82322 0.64464 0.0
C1725 C 0.05612 0.86975 0.70625 0.0
C1726 C 0.07887 0.79026 0.55129 0.0
C1727 C 0.07324 0.80014 0.57208 0.0
C1728 C 0.08462 0.83763 0.61335 0.0
C1729 C 0.05529 0.8512 0.66846 0.0
C1730 C 0.06418 0.84048 0.64877 0.0
C1731 C 0.08501 0.81044 0.58606 0.0
C1732 C 0.07873 0.82055 0.60859 0.0
H1733 H 0.01427 0.86047 0.68886 0.0
H1734 H 0.02938 0.84456 0.65531 0.0
H1735 H 0.0818 0.8608 0.63615 0.0
H1736 H 0.12184 0.80148 0.55185 0.0
H1737 H 0.112 0.81862 0.58871 0.0
C1738 C 0.92108 0.25561 0.44845 0.0
C1739 C 0.91666 0.26222 0.47274 0.0
C1740 C 0.92751 0.26661 0.42936 0.0
C1741 C 0.9262 0.31249 0.40987 0.0
H1742 H 0.96021 0.29787 0.35924 0.0
C1743 C 0.94009 0.35645 0.32507 0.0
C1744 C 0.93897 0.34821 0.30119 0.0
C1745 C 0.94251 0.34667 0.34727 0.0
C1746 C 0.9507 0.30212 0.37323 0.0
H1747 H 0.91619 0.28556 0.49618 0.0
H1748 H 0.92747 0.30478 0.46284 0.0
H1749 H 0.95435 0.27934 0.39642 0.0
H1750 H 0.94055 0.32351 0.28132 0.0
H1751 H 0.94442 0.30619 0.3203 0.0
H1752 H 0.92201 0.33487 0.38653 0.0
C1753 C 0.92573 0.29107 0.45851 0.0
C1754 C 0.94732 0.29151 0.39451 0.0
C1755 C 0.91929 0.28005 0.47766 0.0
C1756 C 0.9416 0.33014 0.29957 0.0
C1757 C 0.94377 0.32026 0.3219 0.0
C1758 C 0.92954 0.32302 0.3887 0.0
C1759 C 0.9297 0.28452 0.43402 0.0
C1760 C 0.9348 0.29646 0.41285 0.0
C1761 C 0.94343 0.32838 0.34609 0.0
C1762 C 0.94162 0.31788 0.36989 0.0
H1763 H 0.9193 0.24193 0.44393 0.0
H1764 H 0.93019 0.26115 0.41066 0.0
H1765 H 0.91626 0.31657 0.42332 0.0
H1766 H 0.93809 0.37039 0.32672 0.0
H1767 H 0.94265 0.35338 0.3655 0.0
C1768 C 0.47486 0.85978 0.30157 0.0
C1769 C 0.46468 0.86868 0.28341 0.0
C1770 C 0.46702 0.85073 0.32165 0.0
C1771 C 0.42787 0.84756 0.36107 0.0
H1772 H 0.4447 0.80072 0.37415 0.0
C1773 C 0.39965 0.80338 0.44177 0.0
C1774 C 0.41188 0.79347 0.45552 0.0
C1775 C 0.40468 0.8125 0.41972 0.0
C1776 C 0.43995 0.81384 0.37096 0.0
H1777 H 0.43822 0.8754 0.27265 0.0
H1778 H 0.42452 0.85968 0.3082 0.0
H1779 H 0.45613 0.81707 0.33797 0.0
H1780 H 0.43903 0.78564 0.45715 0.0
H1781 H 0.4478 0.8017 0.41936 0.0
H1782 H 0.41204 0.8445 0.39458 0.0
C1783 C 0.43859 0.85971 0.30661 0.0
C1784 C 0.44647 0.82317 0.35016 0.0
C1785 C 0.44644 0.86865 0.28625 0.0
C1786 C 0.42922 0.79302 0.44693 0.0
C1787 C 0.43424 0.80215 0.42508 0.0
C1788 C 0.42142 0.83825 0.38211 0.0
C1789 C 0.44882 0.85046 0.32427 0.0
C1790 C 0.44074 0.84023 0.34524 0.0
C1791 C 0.42204 0.8119 0.41104 0.0
C1792 C 0.42765 0.82138 0.38757 0.0
H1793 H 0.48893 0.85952 0.3001 0.0
H1794 H 0.47524 0.84392 0.33519 0.0
H1795 H 0.42327 0.86072 0.35774 0.0
H1796 H 0.38618 0.80397 0.44789 0.0
H1797 H 0.39492 0.81978 0.40926 0.0
C1798 C 0.95287 0.62468 0.18204 0.0
C1799 C 0.96413 0.63537 0.19632 0.0
C1800 C 0.94356 0.63159 0.16127 0.0
C1801 C 0.94448 0.66907 0.11645 0.0
H1802 H 0.89545 0.65927 0.10604 0.0
C1803 C 0.90157 0.71304 0.05452 0.0
C1804 C 0.8909 0.70487 0.03627 0.0
C1805 C 0.90997 0.70324 0.07331 0.0
C1806 C 0.90918 0.66197 0.10861 0.0
H1807 H 0.97414 0.66174 0.2003 0.0
H1808 H 0.95791 0.67364 0.16484 0.0
H1809 H 0.91142 0.64398 0.13987 0.0
H1810 H 0.8802 0.67999 0.02409 0.0
H1811 H 0.8948 0.66291 0.05722 0.0
H1812 H 0.94221 0.68734 0.08575 0.0
C1813 C 0.95648 0.65989 0.16911 0.0
C1814 C 0.91834 0.65319 0.12787 0.0
C1815 C 0.96572 0.65305 0.18964 0.0
C1816 C 0.88839 0.6867 0.03778 0.0
C1817 C 0.89668 0.67691 0.05679 0.0
C1818 C 0.93534 0.67789 0.09743 0.0
C1819 C 0.94543 0.64926 0.15447 0.0
C1820 C 0.93601 0.65694 0.13235 0.0
C1821 C 0.90778 0.68506 0.07446 0.0
C1822 C 0.91754 0.6747 0.09362 0.0
H1823 H 0.95137 0.61101 0.18674 0.0
H1824 H 0.93516 0.62306 0.1503 0.0
H1825 H 0.95819 0.67194 0.11895 0.0
H1826 H 0.90378 0.72699 0.05399 0.0
H1827 H 0.91827 0.70989 0.08693 0.0
C1828 C 0.08794 0.20716 0.92284 0.0
C1829 C 0.08775 0.20072 0.94791 0.0
C1830 C 0.07247 0.2089 0.90912 0.0
C1831 C 0.03208 0.18526 0.90354 0.0
H1832 H 0.02476 0.21757 0.84757 0.0
C1833 C 0.98956 0.16748 0.81556 0.0
C1834 C 0.99852 0.17011 0.79241 0.0
C1835 C 0.99571 0.17493 0.83835 0.0
C1836 C 0.0265 0.20849 0.86323 0.0
H1837 H 0.07133 0.192 0.97902 0.0
H1838 H 0.04406 0.19477 0.95482 0.0
H1839 H 0.04418 0.22559 0.8826 0.0
H1840 H 0.02064 0.1831 0.77491 0.0
H1841 H 0.03138 0.19583 0.81429 0.0
H1842 H 0.01529 0.16771 0.88335 0.0
C1843 C 0.05618 0.19868 0.94588 0.0
C1844 C 0.03759 0.21311 0.88331 0.0
C1845 C 0.07172 0.19727 0.95981 0.0
C1846 C 0.01347 0.18069 0.79241 0.0
C1847 C 0.01951 0.18821 0.81499 0.0
C1848 C 0.02099 0.18064 0.88342 0.0
C1849 C 0.0565 0.20383 0.92002 0.0
C1850 C 0.04118 0.2012 0.90304 0.0
C1851 C 0.01086 0.1853 0.8383 0.0
C1852 C 0.01879 0.19185 0.86241 0.0
H1853 H 0.10019 0.20975 0.91324 0.0
H1854 H 0.07327 0.21275 0.88922 0.0
H1855 H 0.03465 0.17573 0.91834 0.0
H1856 H 0.97811 0.15928 0.81616 0.0
H1857 H 0.98876 0.17244 0.85602 0.0
C1858 C 0.60879 0.25961 0.54726 0.0
C1859 C 0.61735 0.26975 0.52868 0.0
C1860 C 0.59932 0.26752 0.56685 0.0
C1861 C 0.59404 0.30742 0.60419 0.0
H1862 H 0.54811 0.28842 0.61771 0.0
C1863 C 0.54801 0.33458 0.68355 0.0
C1864 C 0.53905 0.32195 0.69797 0.0
C1865 C 0.5574 0.32975 0.66165 0.0
C1866 C 0.56096 0.2938 0.61436 0.0
H1867 H 0.62307 0.29624 0.51669 0.0
H1868 H 0.60658 0.31008 0.55138 0.0
H1869 H 0.56518 0.27716 0.5821 0.0
H1870 H 0.53316 0.29433 0.70089 0.0
H1871 H 0.54964 0.28595 0.66328 0.0
H1872 H 0.58998 0.32374 0.63699 0.0
C1873 C 0.60721 0.29598 0.55051 0.0
C1874 C 0.57071 0.28737 0.59391 0.0
C1875 C 0.6166 0.28805 0.53064 0.0
C1876 C 0.53979 0.30444 0.69016 0.0
C1877 C 0.54916 0.29963 0.66843 0.0
C1878 C 0.5843 0.3138 0.62487 0.0
C1879 C 0.59825 0.28576 0.56854 0.0
C1880 C 0.58748 0.29385 0.58891 0.0
C1881 C 0.55799 0.3122 0.65376 0.0
C1882 C 0.56779 0.30678 0.6305 0.0
H1883 H 0.60909 0.2455 0.54648 0.0
H1884 H 0.59277 0.25931 0.58072 0.0
H1885 H 0.60695 0.31261 0.60078 0.0
H1886 H 0.54768 0.34819 0.68906 0.0
H1887 H 0.56398 0.33977 0.65069 0.0
C1888 C 0.97705 0.41284 0.24169 0.0
C1889 C 0.9915 0.40165 0.23944 0.0
C1890 C 0.97929 0.43092 0.24228 0.0
C1891 C 0.01074 0.46532 0.25709 0.0
H1892 H 0.98222 0.49397 0.21261 0.0
C1893 C 0.99093 0.5425 0.24342 0.0
C1894 C 0.00712 0.55014 0.249 0.0
C1895 C 0.98943 0.52441 0.24051 0.0
C1896 C 0.99015 0.48622 0.2254 0.0
H1897 H 0.0197 0.40077 0.23678 0.0
H1898 H 0.02359 0.43239 0.23833 0.0
H1899 H 0.97859 0.46236 0.21241 0.0
H1900 H 0.03463 0.54487 0.25437 0.0
H1901 H 0.03218 0.51351 0.24831 0.0
H1902 H 0.02196 0.48905 0.27075 0.0
C1903 C 0.01053 0.42709 0.23944 0.0
C1904 C 0.98809 0.46809 0.22521 0.0
C1905 C 0.00828 0.40899 0.23849 0.0
C1906 C 0.02192 0.53938 0.25037 0.0
C1907 C 0.02048 0.52135 0.24711 0.0
C1908 C 0.01266 0.48345 0.25753 0.0
C1909 C 0.99604 0.43824 0.24101 0.0
C1910 C 0.99834 0.45747 0.24108 0.0
C1911 C 0.00415 0.51355 0.24277 0.0
C1912 C 0.00239 0.49417 0.24169 0.0
H1913 H 0.96393 0.40765 0.2424 0.0
H1914 H 0.9679 0.43921 0.2438 0.0
H1915 H 0.01869 0.45745 0.26972 0.0
H1916 H 0.97925 0.5504 0.24242 0.0
H1917 H 0.9766 0.51893 0.23747 0.0
C1918 C 0.81758 0.73542 0.49548 0.0
C1919 C 0.82502 0.75189 0.49095 0.0
C1920 C 0.79949 0.73367 0.49814 0.0
C1921 C 0.7601 0.75771 0.51525 0.0
H1922 H 0.73544 0.7269 0.46888 0.0
C1923 C 0.68665 0.76444 0.50216 0.0
C1924 C 0.67654 0.74927 0.49983 0.0
C1925 C 0.70476 0.76362 0.50068 0.0
C1926 C 0.74211 0.73536 0.48225 0.0
H1927 H 0.81951 0.77948 0.4867 0.0
H1928 H 0.78811 0.77648 0.4921 0.0
H1929 H 0.76733 0.72695 0.46939 0.0
H1930 H 0.67742 0.72138 0.4932 0.0
H1931 H 0.70923 0.71982 0.49129 0.0
H1932 H 0.73516 0.76604 0.52847 0.0
C1933 C 0.79619 0.76492 0.49327 0.0
C1934 C 0.76035 0.73538 0.48252 0.0
C1935 C 0.81414 0.76661 0.4901 0.0
C1936 C 0.6849 0.73331 0.49492 0.0
C1937 C 0.70312 0.73243 0.49384 0.0
C1938 C 0.74193 0.75754 0.51525 0.0
C1939 C 0.78866 0.74842 0.49693 0.0
C1940 C 0.76948 0.74682 0.49866 0.0
C1941 C 0.71329 0.74754 0.49733 0.0
C1942 C 0.73267 0.74668 0.49832 0.0
H1943 H 0.82565 0.72384 0.49605 0.0
H1944 H 0.79396 0.72083 0.50105 0.0
H1945 H 0.76685 0.7665 0.5281 0.0
H1946 H 0.68055 0.77697 0.5056 0.0
H1947 H 0.71208 0.77562 0.50258 0.0
C1948 C 0.47782 0.41313 0.75382 0.0
C1949 C 0.49345 0.40362 0.75382 0.0
C1950 C 0.47796 0.43121 0.75063 0.0
C1951 C 0.50627 0.46906 0.73281 0.0
H1952 H 0.4725 0.49452 0.77354 0.0
C1953 C 0.5088 0.54404 0.74892 0.0
C1954 C 0.49319 0.55284 0.74331 0.0
C1955 C 0.50917 0.5258 0.75027 0.0
C1956 C 0.48196 0.48757 0.762 0.0
H1957 H 0.52146 0.40551 0.74959 0.0
H1958 H 0.52183 0.43715 0.74489 0.0
H1959 H 0.47256 0.46279 0.77441 0.0
H1960 H 0.46564 0.54944 0.73559 0.0
H1961 H 0.46623 0.51767 0.73866 0.0
H1962 H 0.51594 0.4941 0.72115 0.0
C1963 C 0.50937 0.43066 0.74675 0.0
C1964 C 0.48193 0.46935 0.76228 0.0
C1965 C 0.50919 0.41249 0.74947 0.0
C1966 C 0.47788 0.54305 0.73989 0.0
C1967 C 0.47819 0.52488 0.74171 0.0
C1968 C 0.50646 0.48732 0.73286 0.0
C1969 C 0.49378 0.44032 0.7479 0.0
C1970 C 0.49397 0.4598 0.7475 0.0
C1971 C 0.49387 0.51606 0.74656 0.0
C1972 C 0.49422 0.49673 0.74731 0.0
H1973 H 0.46546 0.40662 0.75685 0.0
H1974 H 0.46563 0.43806 0.75078 0.0
H1975 H 0.51561 0.46223 0.72093 0.0
H1976 H 0.52083 0.5512 0.75151 0.0
H1977 H 0.5214 0.5193 0.75422 0.0
C1978 C 0.8322 0.25523 0.01034 0.0
C1979 C 0.84128 0.271 0.0071 0.0
C1980 C 0.81411 0.25464 0.00773 0.0
C1981 C 0.77532 0.28097 0.01554 0.0
H1982 H 0.75285 0.24593 0.97351 0.0
C1983 C 0.70046 0.27903 0.00092 0.0
C1984 C 0.69256 0.26269 0.99729 0.0
C1985 C 0.71861 0.28046 0.00237 0.0
C1986 C 0.75885 0.25562 0.98573 0.0
H1987 H 0.8385 0.29851 0.99834 0.0
H1988 H 0.80671 0.29751 0.99431 0.0
H1989 H 0.78451 0.24762 0.97457 0.0
H1990 H 0.69738 0.23494 0.9938 0.0
H1991 H 0.72884 0.23727 0.99756 0.0
H1992 H 0.74979 0.2886 0.02753 0.0
C1993 C 0.81371 0.28562 0.99868 0.0
C1994 C 0.77701 0.25665 0.98611 0.0
C1995 C 0.83188 0.28614 0.00081 0.0
C1996 C 0.70311 0.24775 0.99629 0.0
C1997 C 0.72119 0.24912 0.9982 0.0
C1998 C 0.75713 0.27976 0.0155 0.0
C1999 C 0.80468 0.26987 0.00227 0.0
C2000 C 0.78541 0.2693 0.00105 0.0
C2001 C 0.72925 0.26553 0.00063 0.0
C2002 C 0.74863 0.26701 0.00067 0.0
H2003 H 0.83908 0.24333 0.01514 0.0
H2004 H 0.80743 0.24235 0.0107 0.0
H2005 H 0.78153 0.29072 0.02744 0.0
H2006 H 0.69266 0.2908 0.00156 0.0
H2007 H 0.72428 0.29334 0.00398 0.0
C2008 C 0.00566 0.42409 0.69822 0.0
C2009 C 0.02118 0.41478 0.70218 0.0
C2010 C 0.00517 0.44216 0.70128 0.0
C2011 C 0.0085 0.481 0.69574 0.0
H2012 H 0.03525 0.50319 0.74954 0.0
C2013 C 0.99384 0.54935 0.73699 0.0
C2014 C 0.00802 0.56075 0.74011 0.0
C2015 C 0.99654 0.53209 0.7294 0.0
C2016 C 0.02788 0.49717 0.73425 0.0
H2017 H 0.04845 0.41718 0.71229 0.0
H2018 H 0.04779 0.44887 0.71678 0.0
H2019 H 0.03786 0.47181 0.74282 0.0
H2020 H 0.03612 0.56309 0.7373 0.0
H2021 H 0.04083 0.5327 0.72459 0.0
H2022 H 0.99791 0.50635 0.68814 0.0
C2023 C 0.03584 0.44215 0.71192 0.0
C2024 C 0.0294 0.47919 0.7303 0.0
C2025 C 0.03626 0.42398 0.70924 0.0
C2026 C 0.02493 0.55463 0.73493 0.0
C2027 C 0.02765 0.53725 0.72782 0.0
C2028 C 0.00677 0.49891 0.7 0.0
C2029 C 0.02027 0.45149 0.70797 0.0
C2030 C 0.01956 0.47081 0.71119 0.0
C2031 C 0.01349 0.5258 0.72524 0.0
C2032 C 0.01632 0.50711 0.71943 0.0
H2033 H 0.99374 0.41739 0.69308 0.0
H2034 H 0.99282 0.44875 0.69874 0.0
H2035 H 0.00105 0.47515 0.6804 0.0
H2036 H 0.98066 0.55369 0.74079 0.0
H2037 H 0.98541 0.52348 0.72767 0.0
C2038 C 0.29567 0.27474 0.51166 0.0
C2039 C 0.30423 0.25863 0.50907 0.0
C2040 C 0.27768 0.27542 0.51567 0.0
C2041 C 0.23756 0.24852 0.50926 0.0
H2042 H 0.21732 0.28541 0.55046 0.0
C2043 C 0.16465 0.25066 0.53806 0.0
C2044 C 0.15612 0.26664 0.53385 0.0
C2045 C 0.18275 0.24941 0.53565 0.0
C2046 C 0.22281 0.27509 0.53881 0.0
H2047 H 0.30065 0.23058 0.50942 0.0
H2048 H 0.2694 0.23173 0.5173 0.0
H2049 H 0.24889 0.28348 0.54607 0.0
H2050 H 0.15998 0.29387 0.52405 0.0
H2051 H 0.19163 0.2917 0.52027 0.0
H2052 H 0.21137 0.23998 0.50255 0.0
C2053 C 0.27647 0.24389 0.51546 0.0
C2054 C 0.2409 0.27401 0.53617 0.0
C2055 C 0.29444 0.24321 0.51111 0.0
C2056 C 0.16613 0.28136 0.52737 0.0
C2057 C 0.18425 0.28015 0.52534 0.0
C2058 C 0.21948 0.24948 0.51221 0.0
C2059 C 0.2678 0.26001 0.51755 0.0
C2060 C 0.24853 0.26079 0.52117 0.0
C2061 C 0.19273 0.26416 0.52936 0.0
C2062 C 0.21193 0.26286 0.52683 0.0
H2063 H 0.3028 0.28688 0.51 0.0
H2064 H 0.27149 0.28809 0.5167 0.0
H2065 H 0.24287 0.23835 0.49718 0.0
H2066 H 0.15733 0.23906 0.54301 0.0
H2067 H 0.18898 0.23694 0.53899 0.0
C2068 C 0.47867 0.56001 0.25309 0.0
C2069 C 0.49129 0.56718 0.23661 0.0
C2070 C 0.47836 0.54204 0.25803 0.0
C2071 C 0.50636 0.50282 0.25535 0.0
H2072 H 0.46273 0.47733 0.25739 0.0
C2073 C 0.5039 0.43162 0.28794 0.0
C2074 C 0.49351 0.41986 0.27402 0.0
C2075 C 0.50273 0.44952 0.28374 0.0
C2076 C 0.47502 0.48426 0.25668 0.0
H2077 H 0.51353 0.56095 0.21255 0.0
H2078 H 0.51289 0.52988 0.22099 0.0
H2079 H 0.46254 0.50881 0.24958 0.0
H2080 H 0.47344 0.41787 0.245 0.0
H2081 H 0.47156 0.44935 0.23738 0.0
H2082 H 0.51892 0.47838 0.26187 0.0
C2083 C 0.50335 0.5381 0.23036 0.0
C2084 C 0.4749 0.50232 0.25253 0.0
C2085 C 0.50366 0.55597 0.22543 0.0
C2086 C 0.48165 0.42655 0.25602 0.0
C2087 C 0.48051 0.44458 0.25176 0.0
C2088 C 0.50648 0.48485 0.25949 0.0
C2089 C 0.4907 0.53089 0.24667 0.0
C2090 C 0.49059 0.51179 0.25176 0.0
C2091 C 0.49121 0.45625 0.26539 0.0
C2092 C 0.49083 0.47534 0.2603 0.0
H2093 H 0.46892 0.56824 0.262 0.0
H2094 H 0.46856 0.53692 0.27091 0.0
H2095 H 0.51868 0.50971 0.25514 0.0
H2096 H 0.51305 0.42704 0.30219 0.0
H2097 H 0.51089 0.45813 0.29497 0.0
C2098 C 0.18138 0.7302 0.98696 0.0
C2099 C 0.17425 0.74642 0.9801 0.0
C2100 C 0.19947 0.72812 0.98905 0.0
C2101 C 0.24072 0.74941 0.96838 0.0
H2102 H 0.26189 0.72148 0.02177 0.0
C2103 C 0.31095 0.75864 0.00265 0.0
C2104 C 0.32141 0.74378 0.00586 0.0
C2105 C 0.29331 0.757 0.99685 0.0
C2106 C 0.25612 0.7291 0.00653 0.0
H2107 H 0.18044 0.77339 0.97138 0.0
H2108 H 0.21167 0.76996 0.97584 0.0
H2109 H 0.23013 0.72256 0.01805 0.0
H2110 H 0.32167 0.7155 0.00523 0.0
H2111 H 0.29046 0.71263 0.99563 0.0
H2112 H 0.26668 0.75656 0.95765 0.0
C2113 C 0.20347 0.75863 0.97868 0.0
C2114 C 0.23794 0.72973 0.00438 0.0
C2115 C 0.1855 0.76064 0.97633 0.0
C2116 C 0.31391 0.72718 0.00272 0.0
C2117 C 0.2961 0.72553 0.9974 0.0
C2118 C 0.2588 0.74894 0.97074 0.0
C2119 C 0.21074 0.74228 0.98452 0.0
C2120 C 0.23002 0.74022 0.98562 0.0
C2121 C 0.28565 0.74045 0.99454 0.0
C2122 C 0.26666 0.73906 0.99012 0.0
H2123 H 0.17304 0.71897 0.9899 0.0
H2124 H 0.20461 0.71533 0.99351 0.0
H2125 H 0.23511 0.75721 0.95322 0.0
H2126 H 0.31637 0.7716 0.00487 0.0
H2127 H 0.28552 0.76871 0.99493 0.0
C2128 C 0.50819 0.94492 0.72115 0.0
C2129 C 0.49655 0.93367 0.73382 0.0
C2130 C 0.50759 0.96288 0.72523 0.0
C2131 C 0.47969 0.99878 0.74858 0.0
H2132 H 0.52395 0.02279 0.75473 0.0
C2133 C 0.48675 0.07464 0.75117 0.0
C2134 C 0.49904 0.0813 0.76858 0.0
C2135 C 0.48543 0.05661 0.74695 0.0
C2136 C 0.51145 0.0163 0.75322 0.0
H2137 H 0.47501 0.93267 0.76068 0.0
H2138 H 0.47413 0.96421 0.7681 0.0
H2139 H 0.52352 0.99143 0.7484 0.0
H2140 H 0.51923 0.07403 0.7957 0.0
H2141 H 0.51679 0.04296 0.78853 0.0
H2142 H 0.46769 0.02381 0.75395 0.0
C2143 C 0.48361 0.95901 0.75476 0.0
C2144 C 0.51121 0.99832 0.74931 0.0
C2145 C 0.4842 0.94093 0.75065 0.0
C2146 C 0.50972 0.06949 0.78192 0.0
C2147 C 0.5084 0.0516 0.77774 0.0
C2148 C 0.47994 0.01687 0.75249 0.0
C2149 C 0.49538 0.97016 0.74217 0.0
C2150 C 0.49535 0.98931 0.74689 0.0
C2151 C 0.4964 0.04491 0.76002 0.0
C2152 C 0.49585 0.02582 0.75498 0.0
H2153 H 0.51781 0.9399 0.70788 0.0
H2154 H 0.51665 0.9711 0.71487 0.0
H2155 H 0.46726 0.99224 0.74657 0.0
H2156 H 0.47829 0.08335 0.74062 0.0
H2157 H 0.47611 0.05185 0.73306 0.0
C2158 C 0.29647 0.26228 0.99339 0.0
C2159 C 0.3058 0.24649 0.99327 0.0
C2160 C 0.27834 0.26228 0.99638 0.0
C2161 C 0.23989 0.2352 0.98616 0.0
H2162 H 0.21768 0.26387 0.03788 0.0
C2163 C 0.16769 0.22586 0.01232 0.0
C2164 C 0.15776 0.24057 0.01897 0.0
C2165 C 0.1857 0.22719 0.00899 0.0
C2166 C 0.2236 0.25599 0.02303 0.0
H2167 H 0.30338 0.21834 0.99602 0.0
H2168 H 0.27178 0.2184 0.00073 0.0
H2169 H 0.24919 0.26545 0.03192 0.0
H2170 H 0.15896 0.26829 0.02708 0.0
H2171 H 0.19028 0.27076 0.02042 0.0
H2172 H 0.21445 0.22597 0.97674 0.0
C2173 C 0.27851 0.23074 0.99865 0.0
C2174 C 0.24166 0.25688 0.01972 0.0
C2175 C 0.29661 0.23073 0.9961 0.0
C2176 C 0.16625 0.25667 0.02215 0.0
C2177 C 0.18425 0.25806 0.01845 0.0
C2178 C 0.22182 0.2345 0.98919 0.0
C2179 C 0.2692 0.24649 0.99882 0.0
C2180 C 0.24998 0.24632 0.00148 0.0
C2181 C 0.19423 0.24333 0.01182 0.0
C2182 C 0.21343 0.2447 0.0079 0.0
H2183 H 0.30317 0.27463 0.99133 0.0
H2184 H 0.27143 0.2746 0.99636 0.0
H2185 H 0.24597 0.22711 0.97171 0.0
H2186 H 0.16159 0.21323 0.00996 0.0
H2187 H 0.19294 0.21547 0.00447 0.0
C2188 C 0.00709 0.07731 0.19946 0.0
C2189 C 0.01838 0.08786 0.21396 0.0
C2190 C 0.00561 0.05951 0.20441 0.0
C2191 C 0.02823 0.0223 0.23419 0.0
H2192 H 0.98252 0.00094 0.22992 0.0
C2193 C 0.01835 0.94733 0.23413 0.0
C2194 C 0.0043 0.94082 0.24855 0.0
C2195 C 0.02022 0.96529 0.23006 0.0
C2196 C 0.99537 0.00669 0.23139 0.0
H2197 H 0.03696 0.08781 0.24519 0.0
H2198 H 0.0342 0.05657 0.25405 0.0
H2199 H 0.98548 0.03227 0.22422 0.0
H2200 H 0.9811 0.94821 0.26978 0.0
H2201 H 0.98446 0.97933 0.2629 0.0
H2202 H 0.03805 0.99667 0.24186 0.0
C2203 C 0.02665 0.06218 0.23862 0.0
C2204 C 0.9971 0.02465 0.22785 0.0
C2205 C 0.02815 0.08009 0.23365 0.0
C2206 C 0.99206 0.95269 0.25848 0.0
C2207 C 0.99393 0.97059 0.25445 0.0
C2208 C 0.0265 0.00428 0.23776 0.0
C2209 C 0.01532 0.0517 0.22405 0.0
C2210 C 0.01355 0.03267 0.22903 0.0
C2211 C 0.00807 0.97714 0.2403 0.0
C2212 C 0.01004 0.99626 0.23634 0.0
H2213 H 0.9994 0.08275 0.18404 0.0
H2214 H 0.997 0.05181 0.19251 0.0
H2215 H 0.04111 0.02804 0.23501 0.0
H2216 H 0.02803 0.93859 0.22618 0.0
H2217 H 0.03113 0.96988 0.21877 0.0
C2218 C 0.32088 0.77129 0.50883 0.0
C2219 C 0.32848 0.75509 0.51472 0.0
C2220 C 0.30302 0.77244 0.50361 0.0
C2221 C 0.26578 0.74676 0.48176 0.0
H2222 H 0.2371 0.77749 0.5231 0.0
C2223 C 0.19239 0.73646 0.48769 0.0
C2224 C 0.18138 0.75108 0.48758 0.0
C2225 C 0.21031 0.73842 0.49071 0.0
C2226 C 0.24493 0.76904 0.5111 0.0
H2227 H 0.32352 0.72738 0.51886 0.0
H2228 H 0.29257 0.72936 0.50916 0.0
H2229 H 0.26887 0.7787 0.52689 0.0
H2230 H 0.18045 0.77922 0.49148 0.0
H2231 H 0.21197 0.78271 0.49629 0.0
H2232 H 0.2421 0.73709 0.46582 0.0
C2233 C 0.30034 0.74116 0.50882 0.0
C2234 C 0.2631 0.76975 0.51328 0.0
C2235 C 0.31803 0.74005 0.51448 0.0
C2236 C 0.18862 0.7677 0.49156 0.0
C2237 C 0.20667 0.76969 0.49432 0.0
C2238 C 0.2477 0.74618 0.47937 0.0
C2239 C 0.29261 0.75736 0.50364 0.0
C2240 C 0.27363 0.75831 0.49906 0.0
C2241 C 0.21775 0.75507 0.49336 0.0
C2242 C 0.23702 0.75697 0.4945 0.0
H2243 H 0.32861 0.7831 0.50901 0.0
H2244 H 0.29734 0.78507 0.49958 0.0
H2245 H 0.27364 0.73798 0.47033 0.0
H2246 H 0.18718 0.72345 0.48504 0.0
H2247 H 0.21836 0.72682 0.49071 0.0
C2248 C 0.47752 0.08279 0.2551 0.0
C2249 C 0.49254 0.09327 0.25435 0.0
C2250 C 0.47868 0.06478 0.25163 0.0
C2251 C 0.50827 0.02834 0.26123 0.0
H2252 H 0.47554 0.00299 0.21878 0.0
C2253 C 0.51095 0.95303 0.24756 0.0
C2254 C 0.49504 0.94427 0.24418 0.0
C2255 C 0.51143 0.97128 0.24896 0.0
C2256 C 0.48463 0.00981 0.23105 0.0
H2257 H 0.52054 0.09308 0.24875 0.0
H2258 H 0.52258 0.06141 0.24301 0.0
H2259 H 0.47506 0.03474 0.21904 0.0
H2260 H 0.46707 0.94766 0.24142 0.0
H2261 H 0.4678 0.97924 0.24492 0.0
H2262 H 0.5175 0.00344 0.2739 0.0
C2263 C 0.50992 0.06725 0.24623 0.0
C2264 C 0.48442 0.02802 0.23101 0.0
C2265 C 0.50872 0.08537 0.24928 0.0
C2266 C 0.47956 0.95404 0.24369 0.0
C2267 C 0.48001 0.97219 0.24544 0.0
C2268 C 0.50835 0.01007 0.26151 0.0
C2269 C 0.49492 0.05677 0.24769 0.0
C2270 C 0.49612 0.03748 0.24626 0.0
C2271 C 0.49597 0.98111 0.24731 0.0
C2272 C 0.49639 0.00056 0.24664 0.0
H2273 H 0.46487 0.08848 0.25893 0.0
H2274 H 0.46692 0.05702 0.25301 0.0
H2275 H 0.51731 0.03531 0.27339 0.0
H2276 H 0.52311 0.94586 0.24783 0.0
H2277 H 0.52397 0.97767 0.25029 0.0
C2278 C 0.80828 0.72774 0.00421 0.0
C2279 C 0.81868 0.74271 0.00189 0.0
C2280 C 0.79028 0.72918 0.00698 0.0
C2281 C 0.75396 0.76034 0.0196 0.0
H2282 H 0.72751 0.72526 0.98283 0.0
C2283 C 0.67873 0.76277 0.00358 0.0
C2284 C 0.67006 0.7475 0.01133 0.0
C2285 C 0.69695 0.76317 0.00218 0.0
C2286 C 0.73474 0.73512 0.9932 0.0
H2287 H 0.81853 0.77096 0.00168 0.0
H2288 H 0.7869 0.77353 0.00568 0.0
H2289 H 0.75916 0.72424 0.98211 0.0
H2290 H 0.67363 0.72058 0.02304 0.0
H2291 H 0.70529 0.72119 0.01993 0.0
H2292 H 0.72924 0.77137 0.03007 0.0
C2293 C 0.79267 0.76065 0.00589 0.0
C2294 C 0.75289 0.73448 0.99303 0.0
C2295 C 0.8108 0.7592 0.00359 0.0
C2296 C 0.67992 0.73256 0.01708 0.0
C2297 C 0.69804 0.73288 0.01523 0.0
C2298 C 0.73573 0.76111 0.01946 0.0
C2299 C 0.78215 0.74562 0.00691 0.0
C2300 C 0.76277 0.74688 0.0066 0.0
C2301 C 0.70673 0.7482 0.00797 0.0
C2302 C 0.72599 0.74834 0.00657 0.0
H2303 H 0.81405 0.71486 0.00329 0.0
H2304 H 0.7827 0.71732 0.0086 0.0
H2305 H 0.7611 0.77004 0.03039 0.0
H2306 H 0.67147 0.7745 0.99917 0.0
H2307 H 0.70339 0.77511 0.99641 0.0
C2308 C 0.97975 0.08348 0.74857 0.0
C2309 C 0.99151 0.09394 0.73478 0.0
C2310 C 0.9822 0.06544 0.7502 0.0
C2311 C 0.01523 0.03052 0.74057 0.0
H2312 H 0.97441 0.00081 0.73773 0.0
C2313 C 0.01836 0.95672 0.76182 0.0
C2314 C 0.00715 0.94542 0.74848 0.0
C2315 C 0.01709 0.97478 0.75879 0.0
C2316 C 0.98599 0.00888 0.73821 0.0
H2317 H 0.01524 0.09356 0.71216 0.0
H2318 H 0.01929 0.06216 0.71455 0.0
H2319 H 0.97098 0.03229 0.73547 0.0
H2320 H 0.98624 0.94433 0.72064 0.0
H2321 H 0.98432 0.97582 0.71486 0.0
H2322 H 0.03027 0.00708 0.74252 0.0
C2323 C 0.00833 0.0679 0.72453 0.0
C2324 C 0.98399 0.02699 0.73735 0.0
C2325 C 0.00596 0.08595 0.72307 0.0
C2326 C 0.99501 0.95263 0.73136 0.0
C2327 C 0.99382 0.97072 0.72819 0.0
C2328 C 0.01723 0.0124 0.74125 0.0
C2329 C 0.9964 0.05738 0.73792 0.0
C2330 C 0.99858 0.03806 0.73868 0.0
C2331 C 0.00466 0.98204 0.74218 0.0
C2332 C 0.00263 0.00133 0.74024 0.0
H2333 H 0.96854 0.0892 0.75798 0.0
H2334 H 0.97294 0.05782 0.76113 0.0
H2335 H 0.02676 0.03861 0.74187 0.0
H2336 H 0.02783 0.95168 0.77525 0.0
H2337 H 0.0255 0.98304 0.77016 0.0
C2338 C 0.70514 0.25168 0.47689 0.0
C2339 C 0.69383 0.2398 0.48896 0.0
C2340 C 0.72316 0.2502 0.47972 0.0
C2341 C 0.75747 0.23227 0.52066 0.0
H2342 H 0.78594 0.2358 0.45946 0.0
C2343 C 0.83355 0.22048 0.48878 0.0
C2344 C 0.84198 0.2299 0.50826 0.0
C2345 C 0.81542 0.22142 0.48599 0.0
C2346 C 0.77815 0.23467 0.47667 0.0
H2347 H 0.69269 0.21738 0.51424 0.0
H2348 H 0.72425 0.21496 0.51941 0.0
H2349 H 0.75424 0.23798 0.45615 0.0
H2350 H 0.83788 0.24792 0.53982 0.0
H2351 H 0.80647 0.24945 0.53492 0.0
H2352 H 0.78138 0.22905 0.5412 0.0
C2353 C 0.71907 0.22537 0.50766 0.0
C2354 C 0.76004 0.23608 0.47483 0.0
C2355 C 0.701 0.22675 0.50466 0.0
C2356 C 0.83189 0.24045 0.5246 0.0
C2357 C 0.81383 0.24125 0.52196 0.0
C2358 C 0.77559 0.23104 0.52254 0.0
C2359 C 0.73033 0.2369 0.49484 0.0
C2360 C 0.74952 0.23498 0.49682 0.0
C2361 C 0.80538 0.23164 0.50279 0.0
C2362 C 0.78612 0.23232 0.50058 0.0
H2363 H 0.70014 0.26194 0.4647 0.0
H2364 H 0.7315 0.25946 0.46996 0.0
H2365 H 0.7497 0.23145 0.53793 0.0
H2366 H 0.84091 0.21225 0.47586 0.0
H2367 H 0.80923 0.21384 0.47107 0.0
loop_
_geom_bond_atom_site_label_1
_geom_bond_atom_site_label_2
_geom_bond_distance
_geom_bond_site_symmetry_2
_ccdc_geom_bond_type
Mg0 O1 2.028 . S
Mg0 O7 1.986 . S
Mg0 O9 2.114 . S
Mg0 O10 2.251 . S
Mg0 O13 2.010 1_455 S
O1 Mg0 2.028 . S
O1 C4 1.250 . S
O2 Mg3 2.028 . S
O2 C4 1.248 . S
Mg3 O2 2.028 . S
Mg3 O8 2.032 . S
Mg3 O10 2.079 . S
C4 O1 1.250 . S
C4 O2 1.248 . S
C5 O6 1.264 . S
C5 O13 1.249 . S
O6 C5 1.264 . S
O7 Mg0 1.986 . S
O7 C11 1.246 . S
O8 Mg3 2.032 . S
O8 C11 1.259 . S
O9 Mg0 2.114 . S
O9 C12 1.252 . S
O10 Mg0 2.251 . S
O10 Mg3 2.079 . S
O10 C12 1.273 . S
C11 O7 1.246 . S
C11 O8 1.259 . S
C12 O9 1.252 . S
C12 O10 1.273 . S
O13 Mg0 2.010 1_655 S
O13 C5 1.249 . S
Mg14 O15 2.028 . S
Mg14 O21 1.986 . S
Mg14 O23 2.114 . S
Mg14 O24 2.251 . S
Mg14 O27 2.010 . S
O15 Mg14 2.028 . S
O15 C18 1.250 . S
O16 Mg17 2.028 . S
O16 C18 1.248 . S
Mg17 O16 2.028 . S
Mg17 O22 2.032 . S
Mg17 O24 2.079 . S
C18 O15 1.250 . S
C18 O16 1.248 . S
C19 O20 1.264 . S
C19 O27 1.249 . S
O20 C19 1.264 . S
O21 Mg14 1.986 . S
O21 C25 1.246 . S
O22 Mg17 2.032 . S
O22 C25 1.259 . S
O23 Mg14 2.114 . S
O23 C26 1.252 . S
O24 Mg14 2.251 . S
O24 Mg17 2.079 . S
O24 C26 1.273 . S
C25 O21 1.246 . S
C25 O22 1.259 . S
C26 O23 1.252 . S
C26 O24 1.273 . S
O27 Mg14 2.010 . S
O27 C19 1.249 . S
Mg28 O29 2.028 . S
Mg28 O35 1.986 . S
Mg28 O37 2.114 . S
Mg28 O38 2.251 . S
Mg28 O41 2.010 . S
O29 Mg28 2.028 . S
O29 C32 1.250 . S
O30 Mg31 2.028 . S
O30 C32 1.248 . S
Mg31 O30 2.028 . S
Mg31 O36 2.032 . S
Mg31 O38 2.079 . S
C32 O29 1.250 . S
C32 O30 1.248 . S
C33 O34 1.264 . S
C33 O41 1.249 . S
O34 C33 1.264 . S
O35 Mg28 1.986 . S
O35 C39 1.246 . S
O36 Mg31 2.032 . S
O36 C39 1.259 . S
O37 Mg28 2.114 . S
O37 C40 1.252 . S
O38 Mg28 2.251 . S
O38 Mg31 2.079 . S
O38 C40 1.273 . S
C39 O35 1.246 . S
C39 O36 1.259 . S
C40 O37 1.252 . S
C40 O38 1.273 . S
O41 Mg28 2.010 . S
O41 C33 1.249 . S
Mg42 O43 2.028 . S
Mg42 O49 1.986 . S
Mg42 O51 2.114 1_554 S
Mg42 O52 2.251 1_554 S
Mg42 O55 2.010 . S
O43 Mg42 2.028 . S
O43 C46 1.250 . S
O44 Mg45 2.028 . S
O44 C46 1.248 . S
Mg45 O44 2.028 . S
Mg45 O50 2.032 . S
Mg45 O52 2.079 1_554 S
C46 O43 1.250 . S
C46 O44 1.248 . S
C47 O48 1.264 . S
C47 O55 1.249 . S
O48 C47 1.264 . S
O49 Mg42 1.986 . S
O49 C53 1.246 . S
O50 Mg45 2.032 . S
O50 C53 1.259 . S
O51 Mg42 2.114 1_556 S
O51 C54 1.252 . S
O52 Mg42 2.251 1_556 S
O52 Mg45 2.079 1_556 S
O52 C54 1.273 . S
C53 O49 1.246 . S
C53 O50 1.259 . S
C54 O51 1.252 . S
C54 O52 1.273 . S
O55 Mg42 2.010 . S
O55 C47 1.249 . S
Mg56 O57 2.028 . S
Mg56 O63 1.986 . S
Mg56 O65 2.114 . S
Mg56 O66 2.251 . S
Mg56 O69 2.010 1_455 S
O57 Mg56 2.028 . S
O57 C60 1.250 . S
O58 Mg59 2.028 . S
O58 C60 1.248 . S
Mg59 O58 2.028 . S
Mg59 O64 2.032 . S
Mg59 O66 2.079 . S
C60 O57 1.250 . S
C60 O58 1.248 . S
C61 O62 1.264 . S
C61 O69 1.249 . S
O62 C61 1.264 . S
O63 Mg56 1.986 . S
O63 C67 1.246 . S
O64 Mg59 2.032 . S
O64 C67 1.259 . S
O65 Mg56 2.114 . S
O65 C68 1.252 . S
O66 Mg56 2.251 . S
O66 Mg59 2.079 . S
O66 C68 1.273 . S
C67 O63 1.246 . S
C67 O64 1.259 . S
C68 O65 1.252 . S
C68 O66 1.273 . S
O69 Mg56 2.010 1_655 S
O69 C61 1.249 . S
Mg70 O71 2.028 . S
Mg70 O77 1.986 . S
Mg70 O79 2.114 . S
Mg70 O80 2.251 . S
Mg70 O83 2.010 . S
O71 Mg70 2.028 . S
O71 C74 1.250 . S
O72 Mg73 2.028 . S
O72 C74 1.248 . S
Mg73 O72 2.028 . S
Mg73 O78 2.032 . S
Mg73 O80 2.079 . S
C74 O71 1.250 . S
C74 O72 1.248 . S
C75 O76 1.264 . S
C75 O83 1.249 . S
O76 C75 1.264 . S
O77 Mg70 1.986 . S
O77 C81 1.246 . S
O78 Mg73 2.032 . S
O78 C81 1.259 . S
O79 Mg70 2.114 . S
O79 C82 1.252 . S
O80 Mg70 2.251 . S
O80 Mg73 2.079 . S
O80 C82 1.273 . S
C81 O77 1.246 . S
C81 O78 1.259 . S
C82 O79 1.252 . S
C82 O80 1.273 . S
O83 Mg70 2.010 . S
O83 C75 1.249 . S
Mg84 O85 2.028 . S
Mg84 O91 1.986 . S
Mg84 O93 2.114 . S
Mg84 O94 2.251 . S
Mg84 O97 2.010 . S
O85 Mg84 2.028 . S
O85 C88 1.250 . S
O86 Mg87 2.028 . S
O86 C88 1.248 . S
Mg87 O86 2.028 . S
Mg87 O92 2.032 . S
Mg87 O94 2.079 . S
C88 O85 1.250 . S
C88 O86 1.248 . S
C89 O90 1.264 . S
C89 O97 1.249 . S
O90 C89 1.264 . S
O91 Mg84 1.986 . S
O91 C95 1.246 . S
O92 Mg87 2.032 . S
O92 C95 1.259 . S
O93 Mg84 2.114 . S
O93 C96 1.252 . S
O94 Mg84 2.251 . S
O94 Mg87 2.079 . S
O94 C96 1.273 . S
C95 O91 1.246 . S
C95 O92 1.259 . S
C96 O93 1.252 . S
C96 O94 1.273 . S
O97 Mg84 2.010 . S
O97 C89 1.249 . S
Mg98 O99 2.028 . S
Mg98 O105 1.986 . S
Mg98 O107 2.114 1_556 S
Mg98 O108 2.251 1_556 S
Mg98 O111 2.010 . S
O99 Mg98 2.028 . S
O99 C102 1.250 . S
O100 Mg101 2.028 . S
O100 C102 1.248 . S
Mg101 O100 2.028 . S
Mg101 O106 2.032 . S
Mg101 O108 2.079 1_556 S
C102 O99 1.250 . S
C102 O100 1.248 . S
C103 O104 1.264 . S
C103 O111 1.249 . S
O104 C103 1.264 . S
O105 Mg98 1.986 . S
O105 C109 1.246 . S
O106 Mg101 2.032 . S
O106 C109 1.259 . S
O107 Mg98 2.114 1_554 S
O107 C110 1.252 . S
O108 Mg98 2.251 1_554 S
O108 Mg101 2.079 1_554 S
O108 C110 1.273 . S
C109 O105 1.246 . S
C109 O106 1.259 . S
C110 O107 1.252 . S
C110 O108 1.273 . S
O111 Mg98 2.010 . S
O111 C103 1.249 . S
Mg112 O113 2.028 . S
Mg112 O119 1.986 . S
Mg112 O121 2.114 . S
Mg112 O122 2.251 . S
Mg112 O125 2.010 1_655 S
O113 Mg112 2.028 . S
O113 C116 1.250 . S
O114 Mg115 2.028 . S
O114 C116 1.248 . S
Mg115 O114 2.028 . S
Mg115 O120 2.032 . S
Mg115 O122 2.079 . S
C116 O113 1.250 . S
C116 O114 1.248 . S
C117 O118 1.264 . S
C117 O125 1.249 . S
O118 C117 1.264 . S
O119 Mg112 1.986 . S
O119 C123 1.246 . S
O120 Mg115 2.032 . S
O120 C123 1.259 . S
O121 Mg112 2.114 . S
O121 C124 1.252 . S
O122 Mg112 2.251 . S
O122 Mg115 2.079 . S
O122 C124 1.273 . S
C123 O119 1.246 . S
C123 O120 1.259 . S
C124 O121 1.252 . S
C124 O122 1.273 . S
O125 Mg112 2.010 1_455 S
O125 C117 1.249 . S
Mg126 O127 2.028 . S
Mg126 O133 1.986 . S
Mg126 O135 2.114 . S
Mg126 O136 2.251 . S
Mg126 O139 2.010 . S
O127 Mg126 2.028 . S
O127 C130 1.250 . S
O128 Mg129 2.028 . S
O128 C130 1.248 . S
Mg129 O128 2.028 . S
Mg129 O134 2.032 . S
Mg129 O136 2.079 . S
C130 O127 1.250 . S
C130 O128 1.248 . S
C131 O132 1.264 . S
C131 O139 1.249 . S
O132 C131 1.264 . S
O133 Mg126 1.986 . S
O133 C137 1.246 . S
O134 Mg129 2.032 . S
O134 C137 1.259 . S
O135 Mg126 2.114 . S
O135 C138 1.252 . S
O136 Mg126 2.251 . S
O136 Mg129 2.079 . S
O136 C138 1.273 . S
C137 O133 1.246 . S
C137 O134 1.259 . S
C138 O135 1.252 . S
C138 O136 1.273 . S
O139 Mg126 2.010 . S
O139 C131 1.249 . S
Mg140 O141 2.028 . S
Mg140 O147 1.986 . S
Mg140 O149 2.114 . S
Mg140 O150 2.251 . S
Mg140 O153 2.010 . S
O141 Mg140 2.028 . S
O141 C144 1.250 . S
O142 Mg143 2.028 . S
O142 C144 1.248 . S
Mg143 O142 2.028 . S
Mg143 O148 2.032 . S
Mg143 O150 2.079 . S
C144 O141 1.250 . S
C144 O142 1.248 . S
C145 O146 1.264 . S
C145 O153 1.249 . S
O146 C145 1.264 . S
O147 Mg140 1.986 . S
O147 C151 1.246 . S
O148 Mg143 2.032 . S
O148 C151 1.259 . S
O149 Mg140 2.114 . S
O149 C152 1.252 . S
O150 Mg140 2.251 . S
O150 Mg143 2.079 . S
O150 C152 1.273 . S
C151 O147 1.246 . S
C151 O148 1.259 . S
C152 O149 1.252 . S
C152 O150 1.273 . S
O153 Mg140 2.010 . S
O153 C145 1.249 . S
Mg154 O155 2.028 . S
Mg154 O161 1.986 . S
Mg154 O163 2.114 1_556 S
Mg154 O164 2.251 1_556 S
Mg154 O167 2.010 . S
O155 Mg154 2.028 . S
O155 C158 1.250 . S
O156 Mg157 2.028 . S
O156 C158 1.248 . S
Mg157 O156 2.028 . S
Mg157 O162 2.032 . S
Mg157 O164 2.079 1_556 S
C158 O155 1.250 . S
C158 O156 1.248 . S
C159 O160 1.264 . S
C159 O167 1.249 . S
O160 C159 1.264 . S
O161 Mg154 1.986 . S
O161 C165 1.246 . S
O162 Mg157 2.032 . S
O162 C165 1.259 . S
O163 Mg154 2.114 1_554 S
O163 C166 1.252 . S
O164 Mg154 2.251 1_554 S
O164 Mg157 2.079 1_554 S
O164 C166 1.273 . S
C165 O161 1.246 . S
C165 O162 1.259 . S
C166 O163 1.252 . S
C166 O164 1.273 . S
O167 Mg154 2.010 . S
O167 C159 1.249 . S
Mg168 O169 2.028 . S
Mg168 O175 1.986 . S
Mg168 O177 2.114 . S
Mg168 O178 2.251 . S
Mg168 O181 2.010 1_655 S
O169 Mg168 2.028 . S
O169 C172 1.250 . S
O170 Mg171 2.028 . S
O170 C172 1.248 . S
Mg171 O170 2.028 . S
Mg171 O176 2.032 . S
Mg171 O178 2.079 . S
C172 O169 1.250 . S
C172 O170 1.248 . S
C173 O174 1.264 . S
C173 O181 1.249 . S
O174 C173 1.264 . S
O175 Mg168 1.986 . S
O175 C179 1.246 . S
O176 Mg171 2.032 . S
O176 C179 1.259 . S
O177 Mg168 2.114 . S
O177 C180 1.252 . S
O178 Mg168 2.251 . S
O178 Mg171 2.079 . S
O178 C180 1.273 . S
C179 O175 1.246 . S
C179 O176 1.259 . S
C180 O177 1.252 . S
C180 O178 1.273 . S
O181 Mg168 2.010 1_455 S
O181 C173 1.249 . S
Mg182 O183 2.028 . S
Mg182 O189 1.986 . S
Mg182 O191 2.114 . S
Mg182 O192 2.251 . S
Mg182 O195 2.010 . S
O183 Mg182 2.028 . S
O183 C186 1.250 . S
O184 Mg185 2.028 . S
O184 C186 1.248 . S
Mg185 O184 2.028 . S
Mg185 O190 2.032 . S
Mg185 O192 2.079 . S
C186 O183 1.250 . S
C186 O184 1.248 . S
C187 O188 1.264 . S
C187 O195 1.249 . S
O188 C187 1.264 . S
O189 Mg182 1.986 . S
O189 C193 1.246 . S
O190 Mg185 2.032 . S
O190 C193 1.259 . S
O191 Mg182 2.114 . S
O191 C194 1.252 . S
O192 Mg182 2.251 . S
O192 Mg185 2.079 . S
O192 C194 1.273 . S
C193 O189 1.246 . S
C193 O190 1.259 . S
C194 O191 1.252 . S
C194 O192 1.273 . S
O195 Mg182 2.010 . S
O195 C187 1.249 . S
Mg196 O197 2.028 . S
Mg196 O203 1.986 . S
Mg196 O205 2.114 . S
Mg196 O206 2.251 . S
Mg196 O209 2.010 . S
O197 Mg196 2.028 . S
O197 C200 1.250 . S
O198 Mg199 2.028 . S
O198 C200 1.248 . S
Mg199 O198 2.028 . S
Mg199 O204 2.032 . S
Mg199 O206 2.079 . S
C200 O197 1.250 . S
C200 O198 1.248 . S
C201 O202 1.264 . S
C201 O209 1.249 . S
O202 C201 1.264 . S
O203 Mg196 1.986 . S
O203 C207 1.246 . S
O204 Mg199 2.032 . S
O204 C207 1.259 . S
O205 Mg196 2.114 . S
O205 C208 1.252 . S
O206 Mg196 2.251 . S
O206 Mg199 2.079 . S
O206 C208 1.273 . S
C207 O203 1.246 . S
C207 O204 1.259 . S
C208 O205 1.252 . S
C208 O206 1.273 . S
O209 Mg196 2.010 . S
O209 C201 1.249 . S
Mg210 O211 2.028 . S
Mg210 O217 1.986 . S
Mg210 O219 2.114 1_554 S
Mg210 O220 2.251 1_554 S
Mg210 O223 2.010 . S
O211 Mg210 2.028 . S
O211 C214 1.250 . S
O212 Mg213 2.028 . S
O212 C214 1.248 . S
Mg213 O212 2.028 . S
Mg213 O218 2.032 . S
Mg213 O220 2.079 1_554 S
C214 O211 1.250 . S
C214 O212 1.248 . S
C215 O216 1.264 . S
C215 O223 1.249 . S
O216 C215 1.264 . S
O217 Mg210 1.986 . S
O217 C221 1.246 . S
O218 Mg213 2.032 . S
O218 C221 1.259 . S
O219 Mg210 2.114 1_556 S
O219 C222 1.252 . S
O220 Mg210 2.251 1_556 S
O220 Mg213 2.079 1_556 S
O220 C222 1.273 . S
C221 O217 1.246 . S
C221 O218 1.259 . S
C222 O219 1.252 . S
C222 O220 1.273 . S
O223 Mg210 2.010 . S
O223 C215 1.249 . S
Mg224 O225 2.028 . S
Mg224 O231 1.986 . S
Mg224 O233 2.114 . S
Mg224 O234 2.251 . S
Mg224 O237 2.010 . S
O225 Mg224 2.028 . S
O225 C228 1.250 . S
O226 Mg227 2.028 . S
O226 C228 1.248 . S
Mg227 O226 2.028 . S
Mg227 O232 2.032 . S
Mg227 O234 2.079 . S
C228 O225 1.250 . S
C228 O226 1.248 . S
C229 O230 1.264 . S
C229 O237 1.249 . S
O230 C229 1.264 . S
O231 Mg224 1.986 . S
O231 C235 1.246 . S
O232 Mg227 2.032 . S
O232 C235 1.259 . S
O233 Mg224 2.114 . S
O233 C236 1.252 . S
O234 Mg224 2.251 . S
O234 Mg227 2.079 . S
O234 C236 1.273 . S
C235 O231 1.246 . S
C235 O232 1.259 . S
C236 O233 1.252 . S
C236 O234 1.273 . S
O237 Mg224 2.010 . S
O237 C229 1.249 . S
Mg238 O239 2.028 . S
Mg238 O245 1.986 . S
Mg238 O247 2.114 1_554 S
Mg238 O248 2.251 1_554 S
Mg238 O251 2.010 . S
O239 Mg238 2.028 . S
O239 C242 1.250 . S
O240 Mg241 2.028 . S
O240 C242 1.248 . S
Mg241 O240 2.028 . S
Mg241 O246 2.032 . S
Mg241 O248 2.079 1_554 S
C242 O239 1.250 . S
C242 O240 1.248 . S
C243 O244 1.264 . S
C243 O251 1.249 . S
O244 C243 1.264 . S
O245 Mg238 1.986 . S
O245 C249 1.246 . S
O246 Mg241 2.032 . S
O246 C249 1.259 . S
O247 Mg238 2.114 1_556 S
O247 C250 1.252 . S
O248 Mg238 2.251 1_556 S
O248 Mg241 2.079 1_556 S
O248 C250 1.273 . S
C249 O245 1.246 . S
C249 O246 1.259 . S
C250 O247 1.252 . S
C250 O248 1.273 . S
O251 Mg238 2.010 . S
O251 C243 1.249 . S
Mg252 O253 2.028 . S
Mg252 O259 1.986 . S
Mg252 O261 2.114 . S
Mg252 O262 2.251 . S
Mg252 O265 2.010 1_655 S
O253 Mg252 2.028 . S
O253 C256 1.250 . S
O254 Mg255 2.028 . S
O254 C256 1.248 . S
Mg255 O254 2.028 . S
Mg255 O260 2.032 . S
Mg255 O262 2.079 . S
C256 O253 1.250 . S
C256 O254 1.248 . S
C257 O258 1.264 . S
C257 O265 1.249 . S
O258 C257 1.264 . S
O259 Mg252 1.986 . S
O259 C263 1.246 . S
O260 Mg255 2.032 . S
O260 C263 1.259 . S
O261 Mg252 2.114 . S
O261 C264 1.252 . S
O262 Mg252 2.251 . S
O262 Mg255 2.079 . S
O262 C264 1.273 . S
C263 O259 1.246 . S
C263 O260 1.259 . S
C264 O261 1.252 . S
C264 O262 1.273 . S
O265 Mg252 2.010 1_455 S
O265 C257 1.249 . S
Mg266 O267 2.028 . S
Mg266 O273 1.986 . S
Mg266 O275 2.114 . S
Mg266 O276 2.251 . S
Mg266 O279 2.010 . S
O267 Mg266 2.028 . S
O267 C270 1.250 . S
O268 Mg269 2.028 . S
O268 C270 1.248 . S
Mg269 O268 2.028 . S
Mg269 O274 2.032 . S
Mg269 O276 2.079 . S
C270 O267 1.250 . S
C270 O268 1.248 . S
C271 O272 1.264 . S
C271 O279 1.249 . S
O272 C271 1.264 . S
O273 Mg266 1.986 . S
O273 C277 1.246 . S
O274 Mg269 2.032 . S
O274 C277 1.259 . S
O275 Mg266 2.114 . S
O275 C278 1.252 . S
O276 Mg266 2.251 . S
O276 Mg269 2.079 . S
O276 C278 1.273 . S
C277 O273 1.246 . S
C277 O274 1.259 . S
C278 O275 1.252 . S
C278 O276 1.273 . S
O279 Mg266 2.010 . S
O279 C271 1.249 . S
Mg280 O281 2.028 . S
Mg280 O287 1.986 . S
Mg280 O289 2.114 . S
Mg280 O290 2.251 . S
Mg280 O293 2.010 . S
O281 Mg280 2.028 . S
O281 C284 1.250 . S
O282 Mg283 2.028 . S
O282 C284 1.248 . S
Mg283 O282 2.028 . S
Mg283 O288 2.032 . S
Mg283 O290 2.079 . S
C284 O281 1.250 . S
C284 O282 1.248 . S
C285 O286 1.264 . S
C285 O293 1.249 . S
O286 C285 1.264 . S
O287 Mg280 1.986 . S
O287 C291 1.246 . S
O288 Mg283 2.032 . S
O288 C291 1.259 . S
O289 Mg280 2.114 . S
O289 C292 1.252 . S
O290 Mg280 2.251 . S
O290 Mg283 2.079 . S
O290 C292 1.273 . S
C291 O287 1.246 . S
C291 O288 1.259 . S
C292 O289 1.252 . S
C292 O290 1.273 . S
O293 Mg280 2.010 . S
O293 C285 1.249 . S
Mg294 O295 2.028 . S
Mg294 O301 1.986 . S
Mg294 O303 2.114 1_556 S
Mg294 O304 2.251 1_556 S
Mg294 O307 2.010 . S
O295 Mg294 2.028 . S
O295 C298 1.250 . S
O296 Mg297 2.028 . S
O296 C298 1.248 . S
Mg297 O296 2.028 . S
Mg297 O302 2.032 . S
Mg297 O304 2.079 1_556 S
C298 O295 1.250 . S
C298 O296 1.248 . S
C299 O300 1.264 . S
C299 O307 1.249 . S
O300 C299 1.264 . S
O301 Mg294 1.986 . S
O301 C305 1.246 . S
O302 Mg297 2.032 . S
O302 C305 1.259 . S
O303 Mg294 2.114 1_554 S
O303 C306 1.252 . S
O304 Mg294 2.251 1_554 S
O304 Mg297 2.079 1_554 S
O304 C306 1.273 . S
C305 O301 1.246 . S
C305 O302 1.259 . S
C306 O303 1.252 . S
C306 O304 1.273 . S
O307 Mg294 2.010 . S
O307 C299 1.249 . S
Mg308 O309 2.028 . S
Mg308 O315 1.986 . S
Mg308 O317 2.114 . S
Mg308 O318 2.251 . S
Mg308 O321 2.010 1_655 S
O309 Mg308 2.028 . S
O309 C312 1.250 . S
O310 Mg311 2.028 . S
O310 C312 1.248 . S
Mg311 O310 2.028 . S
Mg311 O316 2.032 . S
Mg311 O318 2.079 . S
C312 O309 1.250 . S
C312 O310 1.248 . S
C313 O314 1.264 . S
C313 O321 1.249 . S
O314 C313 1.264 . S
O315 Mg308 1.986 . S
O315 C319 1.246 . S
O316 Mg311 2.032 . S
O316 C319 1.259 . S
O317 Mg308 2.114 . S
O317 C320 1.252 . S
O318 Mg308 2.251 . S
O318 Mg311 2.079 . S
O318 C320 1.273 . S
C319 O315 1.246 . S
C319 O316 1.259 . S
C320 O317 1.252 . S
C320 O318 1.273 . S
O321 Mg308 2.010 1_455 S
O321 C313 1.249 . S
Mg322 O323 2.028 . S
Mg322 O329 1.986 . S
Mg322 O331 2.114 . S
Mg322 O332 2.251 . S
Mg322 O335 2.010 . S
O323 Mg322 2.028 . S
O323 C326 1.250 . S
O324 Mg325 2.028 . S
O324 C326 1.248 . S
Mg325 O324 2.028 . S
Mg325 O330 2.032 . S
Mg325 O332 2.079 . S
C326 O323 1.250 . S
C326 O324 1.248 . S
C327 O328 1.264 . S
C327 O335 1.249 . S
O328 C327 1.264 . S
O329 Mg322 1.986 . S
O329 C333 1.246 . S
O330 Mg325 2.032 . S
O330 C333 1.259 . S
O331 Mg322 2.114 . S
O331 C334 1.252 . S
O332 Mg322 2.251 . S
O332 Mg325 2.079 . S
O332 C334 1.273 . S
C333 O329 1.246 . S
C333 O330 1.259 . S
C334 O331 1.252 . S
C334 O332 1.273 . S
O335 Mg322 2.010 . S
O335 C327 1.249 . S
Mg336 O337 2.028 . S
Mg336 O343 1.986 . S
Mg336 O345 2.114 . S
Mg336 O346 2.251 . S
Mg336 O349 2.010 . S
O337 Mg336 2.028 . S
O337 C340 1.250 . S
O338 Mg339 2.028 . S
O338 C340 1.248 . S
Mg339 O338 2.028 . S
Mg339 O344 2.032 . S
Mg339 O346 2.079 . S
C340 O337 1.250 . S
C340 O338 1.248 . S
C341 O342 1.264 . S
C341 O349 1.249 . S
O342 C341 1.264 . S
O343 Mg336 1.986 . S
O343 C347 1.246 . S
O344 Mg339 2.032 . S
O344 C347 1.259 . S
O345 Mg336 2.114 . S
O345 C348 1.252 . S
O346 Mg336 2.251 . S
O346 Mg339 2.079 . S
O346 C348 1.273 . S
C347 O343 1.246 . S
C347 O344 1.259 . S
C348 O345 1.252 . S
C348 O346 1.273 . S
O349 Mg336 2.010 . S
O349 C341 1.249 . S
Mg350 O351 2.028 . S
Mg350 O357 1.986 . S
Mg350 O359 2.114 1_556 S
Mg350 O360 2.251 1_556 S
Mg350 O363 2.010 . S
O351 Mg350 2.028 . S
O351 C354 1.250 . S
O352 Mg353 2.028 . S
O352 C354 1.248 . S
Mg353 O352 2.028 . S
Mg353 O358 2.032 . S
Mg353 O360 2.079 1_556 S
C354 O351 1.250 . S
C354 O352 1.248 . S
C355 O356 1.264 . S
C355 O363 1.249 . S
O356 C355 1.264 . S
O357 Mg350 1.986 . S
O357 C361 1.246 . S
O358 Mg353 2.032 . S
O358 C361 1.259 . S
O359 Mg350 2.114 1_554 S
O359 C362 1.252 . S
O360 Mg350 2.251 1_554 S
O360 Mg353 2.079 1_554 S
O360 C362 1.273 . S
C361 O357 1.246 . S
C361 O358 1.259 . S
C362 O359 1.252 . S
C362 O360 1.273 . S
O363 Mg350 2.010 . S
O363 C355 1.249 . S
Mg364 O365 2.028 . S
Mg364 O371 1.986 . S
Mg364 O373 2.114 . S
Mg364 O374 2.251 . S
Mg364 O377 2.010 1_455 S
O365 Mg364 2.028 . S
O365 C368 1.250 . S
O366 Mg367 2.028 . S
O366 C368 1.248 . S
Mg367 O366 2.028 . S
Mg367 O372 2.032 . S
Mg367 O374 2.079 . S
C368 O365 1.250 . S
C368 O366 1.248 . S
C369 O370 1.264 . S
C369 O377 1.249 . S
O370 C369 1.264 . S
O371 Mg364 1.986 . S
O371 C375 1.246 . S
O372 Mg367 2.032 . S
O372 C375 1.259 . S
O373 Mg364 2.114 . S
O373 C376 1.252 . S
O374 Mg364 2.251 . S
O374 Mg367 2.079 . S
O374 C376 1.273 . S
C375 O371 1.246 . S
C375 O372 1.259 . S
C376 O373 1.252 . S
C376 O374 1.273 . S
O377 Mg364 2.010 1_655 S
O377 C369 1.249 . S
Mg378 O379 2.028 . S
Mg378 O385 1.986 . S
Mg378 O387 2.114 . S
Mg378 O388 2.251 . S
Mg378 O391 2.010 . S
O379 Mg378 2.028 . S
O379 C382 1.250 . S
O380 Mg381 2.028 . S
O380 C382 1.248 . S
Mg381 O380 2.028 . S
Mg381 O386 2.032 . S
Mg381 O388 2.079 . S
C382 O379 1.250 . S
C382 O380 1.248 . S
C383 O384 1.264 . S
C383 O391 1.249 . S
O384 C383 1.264 . S
O385 Mg378 1.986 . S
O385 C389 1.246 . S
O386 Mg381 2.032 . S
O386 C389 1.259 . S
O387 Mg378 2.114 . S
O387 C390 1.252 . S
O388 Mg378 2.251 . S
O388 Mg381 2.079 . S
O388 C390 1.273 . S
C389 O385 1.246 . S
C389 O386 1.259 . S
C390 O387 1.252 . S
C390 O388 1.273 . S
O391 Mg378 2.010 . S
O391 C383 1.249 . S
Mg392 O393 2.028 . S
Mg392 O399 1.986 . S
Mg392 O401 2.114 . S
Mg392 O402 2.251 . S
Mg392 O405 2.010 . S
O393 Mg392 2.028 . S
O393 C396 1.250 . S
O394 Mg395 2.028 . S
O394 C396 1.248 . S
Mg395 O394 2.028 . S
Mg395 O400 2.032 . S
Mg395 O402 2.079 . S
C396 O393 1.250 . S
C396 O394 1.248 . S
C397 O398 1.264 . S
C397 O405 1.249 . S
O398 C397 1.264 . S
O399 Mg392 1.986 . S
O399 C403 1.246 . S
O400 Mg395 2.032 . S
O400 C403 1.259 . S
O401 Mg392 2.114 . S
O401 C404 1.252 . S
O402 Mg392 2.251 . S
O402 Mg395 2.079 . S
O402 C404 1.273 . S
C403 O399 1.246 . S
C403 O400 1.259 . S
C404 O401 1.252 . S
C404 O402 1.273 . S
O405 Mg392 2.010 . S
O405 C397 1.249 . S
Mg406 O407 2.028 . S
Mg406 O413 1.986 . S
Mg406 O415 2.114 1_554 S
Mg406 O416 2.251 1_554 S
Mg406 O419 2.010 . S
O407 Mg406 2.028 . S
O407 C410 1.250 . S
O408 Mg409 2.028 . S
O408 C410 1.248 . S
Mg409 O408 2.028 . S
Mg409 O414 2.032 . S
Mg409 O416 2.079 1_554 S
C410 O407 1.250 . S
C410 O408 1.248 . S
C411 O412 1.264 . S
C411 O419 1.249 . S
O412 C411 1.264 . S
O413 Mg406 1.986 . S
O413 C417 1.246 . S
O414 Mg409 2.032 . S
O414 C417 1.259 . S
O415 Mg406 2.114 1_556 S
O415 C418 1.252 . S
O416 Mg406 2.251 1_556 S
O416 Mg409 2.079 1_556 S
O416 C418 1.273 . S
C417 O413 1.246 . S
C417 O414 1.259 . S
C418 O415 1.252 . S
C418 O416 1.273 . S
O419 Mg406 2.010 . S
O419 C411 1.249 . S
Mg420 O421 2.028 . S
Mg420 O427 1.986 . S
Mg420 O429 2.114 . S
Mg420 O430 2.251 . S
Mg420 O433 2.010 1_455 S
O421 Mg420 2.028 . S
O421 C424 1.250 . S
O422 Mg423 2.028 . S
O422 C424 1.248 . S
Mg423 O422 2.028 . S
Mg423 O428 2.032 . S
Mg423 O430 2.079 . S
C424 O421 1.250 . S
C424 O422 1.248 . S
C425 O426 1.264 . S
C425 O433 1.249 . S
O426 C425 1.264 . S
O427 Mg420 1.986 . S
O427 C431 1.246 . S
O428 Mg423 2.032 . S
O428 C431 1.259 . S
O429 Mg420 2.114 . S
O429 C432 1.252 . S
O430 Mg420 2.251 . S
O430 Mg423 2.079 . S
O430 C432 1.273 . S
C431 O427 1.246 . S
C431 O428 1.259 . S
C432 O429 1.252 . S
C432 O430 1.273 . S
O433 Mg420 2.010 1_655 S
O433 C425 1.249 . S
Mg434 O435 2.028 . S
Mg434 O441 1.986 . S
Mg434 O443 2.114 . S
Mg434 O444 2.251 . S
Mg434 O447 2.010 . S
O435 Mg434 2.028 . S
O435 C438 1.250 . S
O436 Mg437 2.028 . S
O436 C438 1.248 . S
Mg437 O436 2.028 . S
Mg437 O442 2.032 . S
Mg437 O444 2.079 . S
C438 O435 1.250 . S
C438 O436 1.248 . S
C439 O440 1.264 . S
C439 O447 1.249 . S
O440 C439 1.264 . S
O441 Mg434 1.986 . S
O441 C445 1.246 . S
O442 Mg437 2.032 . S
O442 C445 1.259 . S
O443 Mg434 2.114 . S
O443 C446 1.252 . S
O444 Mg434 2.251 . S
O444 Mg437 2.079 . S
O444 C446 1.273 . S
C445 O441 1.246 . S
C445 O442 1.259 . S
C446 O443 1.252 . S
C446 O444 1.273 . S
O447 Mg434 2.010 . S
O447 C439 1.249 . S
C448 C449 1.349 . S
C448 C450 1.327 . S
C448 H473 0.950 . S
C449 C448 1.349 . S
C449 C465 1.349 . S
C450 C448 1.327 . S
C450 C469 1.429 . S
C450 H474 0.950 . S
C451 C468 1.574 . S
C451 C470 1.368 . S
C451 H475 0.949 . S
H452 C456 0.949 . S
C453 C454 1.349 . S
C453 C455 1.327 . S
C453 H476 0.950 . S
C454 C453 1.349 . S
C454 C466 1.349 . S
C455 C453 1.327 . S
C455 C471 1.429 . S
C455 H477 0.950 . S
C456 H452 0.949 . S
C456 C464 1.574 . S
C456 C472 1.368 . S
H457 C465 0.950 . S
H458 C463 0.950 . S
H459 C464 0.949 . S
H460 C466 0.950 . S
H461 C467 0.950 . S
H462 C468 0.949 . S
C463 H458 0.950 . S
C463 C465 1.327 . S
C463 C469 1.429 . S
C464 C456 1.574 . S
C464 H459 0.949 . S
C464 C470 1.368 . S
C465 C449 1.349 . S
C465 H457 0.950 . S
C465 C463 1.327 . S
C466 C454 1.349 . S
C466 H460 0.950 . S
C466 C467 1.327 . S
C467 H461 0.950 . S
C467 C466 1.327 . S
C467 C471 1.429 . S
C468 C451 1.574 . S
C468 H462 0.949 . S
C468 C472 1.368 . S
C469 C450 1.429 . S
C469 C463 1.429 . S
C469 C470 1.523 . S
C470 C451 1.368 . S
C470 C464 1.368 . S
C470 C469 1.523 . S
C471 C455 1.429 . S
C471 C467 1.429 . S
C471 C472 1.523 . S
C472 C456 1.368 . S
C472 C468 1.368 . S
C472 C471 1.523 . S
H473 C448 0.950 . S
H474 C450 0.950 . S
H475 C451 0.949 . S
H476 C453 0.950 . S
H477 C455 0.950 . S
C478 C479 1.349 . S
C478 C480 1.327 . S
C478 H503 0.950 . S
C479 C478 1.349 . S
C479 C495 1.349 . S
C480 C478 1.327 . S
C480 C499 1.429 . S
C480 H504 0.950 . S
C481 C498 1.574 . S
C481 C500 1.368 . S
C481 H505 0.949 . S
H482 C486 0.949 . S
C483 C484 1.349 . S
C483 C485 1.327 . S
C483 H506 0.950 . S
C484 C483 1.349 . S
C484 C496 1.349 . S
C485 C483 1.327 . S
C485 C501 1.429 . S
C485 H507 0.950 . S
C486 H482 0.949 . S
C486 C494 1.574 . S
C486 C502 1.368 . S
H487 C495 0.950 . S
H488 C493 0.950 . S
H489 C494 0.949 . S
H490 C496 0.950 . S
H491 C497 0.950 . S
H492 C498 0.949 . S
C493 H488 0.950 . S
C493 C495 1.327 . S
C493 C499 1.429 . S
C494 C486 1.574 . S
C494 H489 0.949 . S
C494 C500 1.368 . S
C495 C479 1.349 . S
C495 H487 0.950 . S
C495 C493 1.327 . S
C496 C484 1.349 . S
C496 H490 0.950 . S
C496 C497 1.327 . S
C497 H491 0.950 . S
C497 C496 1.327 . S
C497 C501 1.429 . S
C498 C481 1.574 . S
C498 H492 0.949 . S
C498 C502 1.368 . S
C499 C480 1.429 . S
C499 C493 1.429 . S
C499 C500 1.523 . S
C500 C481 1.368 . S
C500 C494 1.368 . S
C500 C499 1.523 . S
C501 C485 1.429 . S
C501 C497 1.429 . S
C501 C502 1.523 . S
C502 C486 1.368 . S
C502 C498 1.368 . S
C502 C501 1.523 . S
H503 C478 0.950 . S
H504 C480 0.950 . S
H505 C481 0.949 . S
H506 C483 0.950 . S
H507 C485 0.950 . S
C508 C509 1.349 . S
C508 C510 1.327 . S
C508 H533 0.950 . S
C509 C508 1.349 . S
C509 C525 1.349 . S
C510 C508 1.327 . S
C510 C529 1.429 . S
C510 H534 0.950 . S
C511 C528 1.574 . S
C511 C530 1.368 . S
C511 H535 0.949 . S
H512 C516 0.949 . S
C513 C514 1.349 . S
C513 C515 1.327 . S
C513 H536 0.950 . S
C514 C513 1.349 . S
C514 C526 1.349 . S
C515 C513 1.327 . S
C515 C531 1.429 . S
C515 H537 0.950 . S
C516 H512 0.949 . S
C516 C524 1.574 . S
C516 C532 1.368 . S
H517 C525 0.950 . S
H518 C523 0.950 . S
H519 C524 0.949 . S
H520 C526 0.950 . S
H521 C527 0.950 . S
H522 C528 0.949 . S
C523 H518 0.950 . S
C523 C525 1.327 . S
C523 C529 1.429 . S
C524 C516 1.574 . S
C524 H519 0.949 . S
C524 C530 1.368 . S
C525 C509 1.349 . S
C525 H517 0.950 . S
C525 C523 1.327 . S
C526 C514 1.349 . S
C526 H520 0.950 . S
C526 C527 1.327 . S
C527 H521 0.950 . S
C527 C526 1.327 . S
C527 C531 1.429 . S
C528 C511 1.574 . S
C528 H522 0.949 . S
C528 C532 1.368 . S
C529 C510 1.429 . S
C529 C523 1.429 . S
C529 C530 1.523 . S
C530 C511 1.368 . S
C530 C524 1.368 . S
C530 C529 1.523 . S
C531 C515 1.429 . S
C531 C527 1.429 . S
C531 C532 1.523 . S
C532 C516 1.368 . S
C532 C528 1.368 . S
C532 C531 1.523 . S
H533 C508 0.950 . S
H534 C510 0.950 . S
H535 C511 0.949 . S
H536 C513 0.950 . S
H537 C515 0.950 . S
C538 C539 1.349 . S
C538 C540 1.327 . S
C538 H563 0.950 . S
C539 C538 1.349 . S
C539 C555 1.349 . S
C540 C538 1.327 . S
C540 C559 1.429 . S
C540 H564 0.950 . S
C541 C558 1.574 . S
C541 C560 1.368 . S
C541 H565 0.949 . S
H542 C546 0.949 . S
C543 C544 1.349 . S
C543 C545 1.327 . S
C543 H566 0.950 . S
C544 C543 1.349 . S
C544 C556 1.349 . S
C545 C543 1.327 . S
C545 C561 1.429 . S
C545 H567 0.950 . S
C546 H542 0.949 . S
C546 C554 1.574 . S
C546 C562 1.368 . S
H547 C555 0.950 . S
H548 C553 0.950 . S
H549 C554 0.949 . S
H550 C556 0.950 . S
H551 C557 0.950 . S
H552 C558 0.949 . S
C553 H548 0.950 . S
C553 C555 1.327 . S
C553 C559 1.429 . S
C554 C546 1.574 . S
C554 H549 0.949 . S
C554 C560 1.368 . S
C555 C539 1.349 . S
C555 H547 0.950 . S
C555 C553 1.327 . S
C556 C544 1.349 . S
C556 H550 0.950 . S
C556 C557 1.327 . S
C557 H551 0.950 . S
C557 C556 1.327 . S
C557 C561 1.429 . S
C558 C541 1.574 . S
C558 H552 0.949 . S
C558 C562 1.368 . S
C559 C540 1.429 . S
C559 C553 1.429 . S
C559 C560 1.523 . S
C560 C541 1.368 . S
C560 C554 1.368 . S
C560 C559 1.523 . S
C561 C545 1.429 . S
C561 C557 1.429 . S
C561 C562 1.523 . S
C562 C546 1.368 . S
C562 C558 1.368 . S
C562 C561 1.523 . S
H563 C538 0.950 . S
H564 C540 0.950 . S
H565 C541 0.949 . S
H566 C543 0.950 . S
H567 C545 0.950 . S
C568 C569 1.349 . S
C568 C570 1.327 . S
C568 H593 0.950 . S
C569 C568 1.349 . S
C569 C585 1.349 . S
C570 C568 1.327 . S
C570 C589 1.429 . S
C570 H594 0.950 . S
C571 C588 1.574 . S
C571 C590 1.368 . S
C571 H595 0.949 . S
H572 C576 0.949 . S
C573 C574 1.349 . S
C573 C575 1.327 . S
C573 H596 0.950 . S
C574 C573 1.349 . S
C574 C586 1.349 . S
C575 C573 1.327 . S
C575 C591 1.429 . S
C575 H597 0.950 . S
C576 H572 0.949 . S
C576 C584 1.574 . S
C576 C592 1.368 . S
H577 C585 0.950 . S
H578 C583 0.950 . S
H579 C584 0.949 . S
H580 C586 0.950 . S
H581 C587 0.950 . S
H582 C588 0.949 . S
C583 H578 0.950 . S
C583 C585 1.327 . S
C583 C589 1.429 . S
C584 C576 1.574 . S
C584 H579 0.949 . S
C584 C590 1.368 . S
C585 C569 1.349 . S
C585 H577 0.950 . S
C585 C583 1.327 . S
C586 C574 1.349 . S
C586 H580 0.950 . S
C586 C587 1.327 . S
C587 H581 0.950 . S
C587 C586 1.327 . S
C587 C591 1.429 . S
C588 C571 1.574 . S
C588 H582 0.949 . S
C588 C592 1.368 . S
C589 C570 1.429 . S
C589 C583 1.429 . S
C589 C590 1.523 . S
C590 C571 1.368 . S
C590 C584 1.368 . S
C590 C589 1.523 . S
C591 C575 1.429 . S
C591 C587 1.429 . S
C591 C592 1.523 . S
C592 C576 1.368 . S
C592 C588 1.368 . S
C592 C591 1.523 . S
H593 C568 0.950 . S
H594 C570 0.950 . S
H595 C571 0.949 . S
H596 C573 0.950 . S
H597 C575 0.950 . S
C598 C599 1.349 . S
C598 C600 1.327 . S
C598 H623 0.950 . S
C599 C598 1.349 . S
C599 C615 1.349 . S
C600 C598 1.327 . S
C600 C619 1.429 . S
C600 H624 0.950 . S
C601 C618 1.574 . S
C601 C620 1.368 . S
C601 H625 0.949 . S
H602 C606 0.949 . S
C603 C604 1.349 . S
C603 C605 1.327 . S
C603 H626 0.950 . S
C604 C603 1.349 . S
C604 C616 1.349 . S
C605 C603 1.327 . S
C605 C621 1.429 . S
C605 H627 0.950 . S
C606 H602 0.949 . S
C606 C614 1.574 . S
C606 C622 1.368 . S
H607 C615 0.950 . S
H608 C613 0.950 . S
H609 C614 0.949 . S
H610 C616 0.950 . S
H611 C617 0.950 . S
H612 C618 0.949 . S
C613 H608 0.950 . S
C613 C615 1.327 . S
C613 C619 1.429 . S
C614 C606 1.574 . S
C614 H609 0.949 . S
C614 C620 1.368 . S
C615 C599 1.349 . S
C615 H607 0.950 . S
C615 C613 1.327 . S
C616 C604 1.349 . S
C616 H610 0.950 . S
C616 C617 1.327 . S
C617 H611 0.950 . S
C617 C616 1.327 . S
C617 C621 1.429 . S
C618 C601 1.574 . S
C618 H612 0.949 . S
C618 C622 1.368 . S
C619 C600 1.429 . S
C619 C613 1.429 . S
C619 C620 1.523 . S
C620 C601 1.368 . S
C620 C614 1.368 . S
C620 C619 1.523 . S
C621 C605 1.429 . S
C621 C617 1.429 . S
C621 C622 1.523 . S
C622 C606 1.368 . S
C622 C618 1.368 . S
C622 C621 1.523 . S
H623 C598 0.950 . S
H624 C600 0.950 . S
H625 C601 0.949 . S
H626 C603 0.950 . S
H627 C605 0.950 . S
C628 C629 1.349 . S
C628 C630 1.327 . S
C628 H653 0.950 . S
C629 C628 1.349 . S
C629 C645 1.349 . S
C630 C628 1.327 . S
C630 C649 1.429 . S
C630 H654 0.950 . S
C631 C648 1.574 . S
C631 C650 1.368 . S
C631 H655 0.949 . S
H632 C636 0.949 . S
C633 C634 1.349 . S
C633 C635 1.327 . S
C633 H656 0.950 . S
C634 C633 1.349 . S
C634 C646 1.349 . S
C635 C633 1.327 . S
C635 C651 1.429 . S
C635 H657 0.950 . S
C636 H632 0.949 . S
C636 C644 1.574 . S
C636 C652 1.368 . S
H637 C645 0.950 . S
H638 C643 0.950 . S
H639 C644 0.949 . S
H640 C646 0.950 . S
H641 C647 0.950 . S
H642 C648 0.949 . S
C643 H638 0.950 . S
C643 C645 1.327 . S
C643 C649 1.429 . S
C644 C636 1.574 . S
C644 H639 0.949 . S
C644 C650 1.368 . S
C645 C629 1.349 . S
C645 H637 0.950 . S
C645 C643 1.327 . S
C646 C634 1.349 . S
C646 H640 0.950 . S
C646 C647 1.327 . S
C647 H641 0.950 . S
C647 C646 1.327 . S
C647 C651 1.429 . S
C648 C631 1.574 . S
C648 H642 0.949 . S
C648 C652 1.368 . S
C649 C630 1.429 . S
C649 C643 1.429 . S
C649 C650 1.523 . S
C650 C631 1.368 . S
C650 C644 1.368 . S
C650 C649 1.523 . S
C651 C635 1.429 . S
C651 C647 1.429 . S
C651 C652 1.523 . S
C652 C636 1.368 . S
C652 C648 1.368 . S
C652 C651 1.523 . S
H653 C628 0.950 . S
H654 C630 0.950 . S
H655 C631 0.949 . S
H656 C633 0.950 . S
H657 C635 0.950 . S
C658 C659 1.349 . S
C658 C660 1.327 . S
C658 H683 0.950 . S
C659 C658 1.349 . S
C659 C675 1.349 . S
C660 C658 1.327 . S
C660 C679 1.429 . S
C660 H684 0.950 . S
C661 C678 1.574 . S
C661 C680 1.368 . S
C661 H685 0.949 . S
H662 C666 0.949 . S
C663 C664 1.349 . S
C663 C665 1.327 . S
C663 H686 0.950 . S
C664 C663 1.349 . S
C664 C676 1.349 . S
C665 C663 1.327 . S
C665 C681 1.429 . S
C665 H687 0.950 . S
C666 H662 0.949 . S
C666 C674 1.574 . S
C666 C682 1.368 . S
H667 C675 0.950 . S
H668 C673 0.950 . S
H669 C674 0.949 . S
H670 C676 0.950 . S
H671 C677 0.950 . S
H672 C678 0.949 . S
C673 H668 0.950 . S
C673 C675 1.327 . S
C673 C679 1.429 . S
C674 C666 1.574 . S
C674 H669 0.949 . S
C674 C680 1.368 . S
C675 C659 1.349 . S
C675 H667 0.950 . S
C675 C673 1.327 . S
C676 C664 1.349 . S
C676 H670 0.950 . S
C676 C677 1.327 . S
C677 H671 0.950 . S
C677 C676 1.327 . S
C677 C681 1.429 . S
C678 C661 1.574 . S
C678 H672 0.949 . S
C678 C682 1.368 . S
C679 C660 1.429 . S
C679 C673 1.429 . S
C679 C680 1.523 . S
C680 C661 1.368 . S
C680 C674 1.368 . S
C680 C679 1.523 . S
C681 C665 1.429 . S
C681 C677 1.429 . S
C681 C682 1.523 . S
C682 C666 1.368 . S
C682 C678 1.368 . S
C682 C681 1.523 . S
H683 C658 0.950 . S
H684 C660 0.950 . S
H685 C661 0.949 . S
H686 C663 0.950 . S
H687 C665 0.950 . S
C688 C689 1.349 . S
C688 C690 1.327 . S
C688 H713 0.950 . S
C689 C688 1.349 . S
C689 C705 1.349 . S
C690 C688 1.327 . S
C690 C709 1.429 . S
C690 H714 0.950 . S
C691 C708 1.574 . S
C691 C710 1.368 . S
C691 H715 0.949 . S
H692 C696 0.949 . S
C693 C694 1.349 . S
C693 C695 1.327 . S
C693 H716 0.950 . S
C694 C693 1.349 . S
C694 C706 1.349 . S
C695 C693 1.327 . S
C695 C711 1.429 . S
C695 H717 0.950 . S
C696 H692 0.949 . S
C696 C704 1.574 . S
C696 C712 1.368 . S
H697 C705 0.950 . S
H698 C703 0.950 . S
H699 C704 0.949 . S
H700 C706 0.950 . S
H701 C707 0.950 . S
H702 C708 0.949 . S
C703 H698 0.950 . S
C703 C705 1.327 . S
C703 C709 1.429 . S
C704 C696 1.574 . S
C704 H699 0.949 . S
C704 C710 1.368 . S
C705 C689 1.349 . S
C705 H697 0.950 . S
C705 C703 1.327 . S
C706 C694 1.349 . S
C706 H700 0.950 . S
C706 C707 1.327 . S
C707 H701 0.950 . S
C707 C706 1.327 . S
C707 C711 1.429 . S
C708 C691 1.574 . S
C708 H702 0.949 . S
C708 C712 1.368 . S
C709 C690 1.429 . S
C709 C703 1.429 . S
C709 C710 1.523 . S
C710 C691 1.368 . S
C710 C704 1.368 . S
C710 C709 1.523 . S
C711 C695 1.429 . S
C711 C707 1.429 . S
C711 C712 1.523 . S
C712 C696 1.368 . S
C712 C708 1.368 . S
C712 C711 1.523 . S
H713 C688 0.950 . S
H714 C690 0.950 . S
H715 C691 0.949 . S
H716 C693 0.950 . S
H717 C695 0.950 . S
C718 C719 1.349 . S
C718 C720 1.327 . S
C718 H743 0.950 . S
C719 C718 1.349 . S
C719 C735 1.349 . S
C720 C718 1.327 . S
C720 C739 1.429 . S
C720 H744 0.950 . S
C721 C738 1.574 . S
C721 C740 1.368 . S
C721 H745 0.949 . S
H722 C726 0.949 . S
C723 C724 1.349 . S
C723 C725 1.327 . S
C723 H746 0.950 . S
C724 C723 1.349 . S
C724 C736 1.349 . S
C725 C723 1.327 . S
C725 C741 1.429 . S
C725 H747 0.950 . S
C726 H722 0.949 . S
C726 C734 1.574 . S
C726 C742 1.368 . S
H727 C735 0.950 . S
H728 C733 0.950 . S
H729 C734 0.949 . S
H730 C736 0.950 . S
H731 C737 0.950 . S
H732 C738 0.949 . S
C733 H728 0.950 . S
C733 C735 1.327 . S
C733 C739 1.429 . S
C734 C726 1.574 . S
C734 H729 0.949 . S
C734 C740 1.368 . S
C735 C719 1.349 . S
C735 H727 0.950 . S
C735 C733 1.327 . S
C736 C724 1.349 . S
C736 H730 0.950 . S
C736 C737 1.327 . S
C737 H731 0.950 . S
C737 C736 1.327 . S
C737 C741 1.429 . S
C738 C721 1.574 . S
C738 H732 0.949 . S
C738 C742 1.368 . S
C739 C720 1.429 . S
C739 C733 1.429 . S
C739 C740 1.523 . S
C740 C721 1.368 . S
C740 C734 1.368 . S
C740 C739 1.523 . S
C741 C725 1.429 . S
C741 C737 1.429 . S
C741 C742 1.523 . S
C742 C726 1.368 . S
C742 C738 1.368 . S
C742 C741 1.523 . S
H743 C718 0.950 . S
H744 C720 0.950 . S
H745 C721 0.949 . S
H746 C723 0.950 . S
H747 C725 0.950 . S
C748 C749 1.349 . S
C748 C750 1.327 . S
C748 H773 0.950 . S
C749 C748 1.349 . S
C749 C765 1.349 . S
C750 C748 1.327 . S
C750 C769 1.429 . S
C750 H774 0.950 . S
C751 C768 1.574 . S
C751 C770 1.368 . S
C751 H775 0.949 . S
H752 C756 0.949 . S
C753 C754 1.349 . S
C753 C755 1.327 . S
C753 H776 0.950 . S
C754 C753 1.349 . S
C754 C766 1.349 . S
C755 C753 1.327 . S
C755 C771 1.429 . S
C755 H777 0.950 . S
C756 H752 0.949 . S
C756 C764 1.574 . S
C756 C772 1.368 . S
H757 C765 0.950 . S
H758 C763 0.950 . S
H759 C764 0.949 . S
H760 C766 0.950 . S
H761 C767 0.950 . S
H762 C768 0.949 . S
C763 H758 0.950 . S
C763 C765 1.327 . S
C763 C769 1.429 . S
C764 C756 1.574 . S
C764 H759 0.949 . S
C764 C770 1.368 . S
C765 C749 1.349 . S
C765 H757 0.950 . S
C765 C763 1.327 . S
C766 C754 1.349 . S
C766 H760 0.950 . S
C766 C767 1.327 . S
C767 H761 0.950 . S
C767 C766 1.327 . S
C767 C771 1.429 . S
C768 C751 1.574 . S
C768 H762 0.949 . S
C768 C772 1.368 . S
C769 C750 1.429 . S
C769 C763 1.429 . S
C769 C770 1.523 . S
C770 C751 1.368 . S
C770 C764 1.368 . S
C770 C769 1.523 . S
C771 C755 1.429 . S
C771 C767 1.429 . S
C771 C772 1.523 . S
C772 C756 1.368 . S
C772 C768 1.368 . S
C772 C771 1.523 . S
H773 C748 0.950 . S
H774 C750 0.950 . S
H775 C751 0.949 . S
H776 C753 0.950 . S
H777 C755 0.950 . S
C778 C779 1.349 . S
C778 C780 1.327 . S
C778 H803 0.950 . S
C779 C778 1.349 . S
C779 C795 1.349 . S
C780 C778 1.327 . S
C780 C799 1.429 . S
C780 H804 0.950 . S
C781 C798 1.574 . S
C781 C800 1.368 . S
C781 H805 0.949 . S
H782 C786 0.949 . S
C783 C784 1.349 . S
C783 C785 1.327 . S
C783 H806 0.950 . S
C784 C783 1.349 . S
C784 C796 1.349 . S
C785 C783 1.327 . S
C785 C801 1.429 . S
C785 H807 0.950 . S
C786 H782 0.949 . S
C786 C794 1.574 . S
C786 C802 1.368 . S
H787 C795 0.950 . S
H788 C793 0.950 . S
H789 C794 0.949 . S
H790 C796 0.950 . S
H791 C797 0.950 . S
H792 C798 0.949 . S
C793 H788 0.950 . S
C793 C795 1.327 . S
C793 C799 1.429 . S
C794 C786 1.574 . S
C794 H789 0.949 . S
C794 C800 1.368 . S
C795 C779 1.349 . S
C795 H787 0.950 . S
C795 C793 1.327 . S
C796 C784 1.349 . S
C796 H790 0.950 . S
C796 C797 1.327 . S
C797 H791 0.950 . S
C797 C796 1.327 . S
C797 C801 1.429 . S
C798 C781 1.574 . S
C798 H792 0.949 . S
C798 C802 1.368 . S
C799 C780 1.429 . S
C799 C793 1.429 . S
C799 C800 1.523 . S
C800 C781 1.368 . S
C800 C794 1.368 . S
C800 C799 1.523 . S
C801 C785 1.429 . S
C801 C797 1.429 . S
C801 C802 1.523 . S
C802 C786 1.368 . S
C802 C798 1.368 . S
C802 C801 1.523 . S
H803 C778 0.950 . S
H804 C780 0.950 . S
H805 C781 0.949 . S
H806 C783 0.950 . S
H807 C785 0.950 . S
C808 C809 1.349 . S
C808 C810 1.327 . S
C808 H833 0.950 . S
C809 C808 1.349 . S
C809 C825 1.349 . S
C810 C808 1.327 . S
C810 C829 1.429 . S
C810 H834 0.950 . S
C811 C828 1.574 . S
C811 C830 1.368 . S
C811 H835 0.949 . S
H812 C816 0.949 . S
C813 C814 1.349 . S
C813 C815 1.327 . S
C813 H836 0.950 . S
C814 C813 1.349 . S
C814 C826 1.349 . S
C815 C813 1.327 . S
C815 C831 1.429 . S
C815 H837 0.950 . S
C816 H812 0.949 . S
C816 C824 1.574 . S
C816 C832 1.368 . S
H817 C825 0.950 . S
H818 C823 0.950 . S
H819 C824 0.949 . S
H820 C826 0.950 . S
H821 C827 0.950 . S
H822 C828 0.949 . S
C823 H818 0.950 . S
C823 C825 1.327 . S
C823 C829 1.429 . S
C824 C816 1.574 . S
C824 H819 0.949 . S
C824 C830 1.368 . S
C825 C809 1.349 . S
C825 H817 0.950 . S
C825 C823 1.327 . S
C826 C814 1.349 . S
C826 H820 0.950 . S
C826 C827 1.327 . S
C827 H821 0.950 . S
C827 C826 1.327 . S
C827 C831 1.429 . S
C828 C811 1.574 . S
C828 H822 0.949 . S
C828 C832 1.368 . S
C829 C810 1.429 . S
C829 C823 1.429 . S
C829 C830 1.523 . S
C830 C811 1.368 . S
C830 C824 1.368 . S
C830 C829 1.523 . S
C831 C815 1.429 . S
C831 C827 1.429 . S
C831 C832 1.523 . S
C832 C816 1.368 . S
C832 C828 1.368 . S
C832 C831 1.523 . S
H833 C808 0.950 . S
H834 C810 0.950 . S
H835 C811 0.949 . S
H836 C813 0.950 . S
H837 C815 0.950 . S
C838 C839 1.349 . S
C838 C840 1.327 . S
C838 H863 0.950 . S
C839 C838 1.349 . S
C839 C855 1.349 . S
C840 C838 1.327 . S
C840 C859 1.429 . S
C840 H864 0.950 . S
C841 C858 1.574 . S
C841 C860 1.368 . S
C841 H865 0.949 . S
H842 C846 0.949 . S
C843 C844 1.349 . S
C843 C845 1.327 . S
C843 H866 0.950 . S
C844 C843 1.349 . S
C844 C856 1.349 . S
C845 C843 1.327 . S
C845 C861 1.429 . S
C845 H867 0.950 . S
C846 H842 0.949 . S
C846 C854 1.574 . S
C846 C862 1.368 . S
H847 C855 0.950 . S
H848 C853 0.950 . S
H849 C854 0.949 . S
H850 C856 0.950 . S
H851 C857 0.950 . S
H852 C858 0.949 . S
C853 H848 0.950 . S
C853 C855 1.327 . S
C853 C859 1.429 . S
C854 C846 1.574 . S
C854 H849 0.949 . S
C854 C860 1.368 . S
C855 C839 1.349 . S
C855 H847 0.950 . S
C855 C853 1.327 . S
C856 C844 1.349 . S
C856 H850 0.950 . S
C856 C857 1.327 . S
C857 H851 0.950 . S
C857 C856 1.327 . S
C857 C861 1.429 . S
C858 C841 1.574 . S
C858 H852 0.949 . S
C858 C862 1.368 . S
C859 C840 1.429 . S
C859 C853 1.429 . S
C859 C860 1.523 . S
C860 C841 1.368 . S
C860 C854 1.368 . S
C860 C859 1.523 . S
C861 C845 1.429 . S
C861 C857 1.429 . S
C861 C862 1.523 . S
C862 C846 1.368 . S
C862 C858 1.368 . S
C862 C861 1.523 . S
H863 C838 0.950 . S
H864 C840 0.950 . S
H865 C841 0.949 . S
H866 C843 0.950 . S
H867 C845 0.950 . S
C868 C869 1.349 . S
C868 C870 1.327 . S
C868 H893 0.950 . S
C869 C868 1.349 . S
C869 C885 1.349 . S
C870 C868 1.327 . S
C870 C889 1.429 . S
C870 H894 0.950 . S
C871 C888 1.574 . S
C871 C890 1.368 . S
C871 H895 0.949 . S
H872 C876 0.949 . S
C873 C874 1.349 . S
C873 C875 1.327 . S
C873 H896 0.950 . S
C874 C873 1.349 . S
C874 C886 1.349 . S
C875 C873 1.327 . S
C875 C891 1.429 . S
C875 H897 0.950 . S
C876 H872 0.949 . S
C876 C884 1.574 . S
C876 C892 1.368 . S
H877 C885 0.950 . S
H878 C883 0.950 . S
H879 C884 0.949 . S
H880 C886 0.950 . S
H881 C887 0.950 . S
H882 C888 0.949 . S
C883 H878 0.950 . S
C883 C885 1.327 . S
C883 C889 1.429 . S
C884 C876 1.574 . S
C884 H879 0.949 . S
C884 C890 1.368 . S
C885 C869 1.349 . S
C885 H877 0.950 . S
C885 C883 1.327 . S
C886 C874 1.349 . S
C886 H880 0.950 . S
C886 C887 1.327 . S
C887 H881 0.950 . S
C887 C886 1.327 . S
C887 C891 1.429 . S
C888 C871 1.574 . S
C888 H882 0.949 . S
C888 C892 1.368 . S
C889 C870 1.429 . S
C889 C883 1.429 . S
C889 C890 1.523 . S
C890 C871 1.368 . S
C890 C884 1.368 . S
C890 C889 1.523 . S
C891 C875 1.429 . S
C891 C887 1.429 . S
C891 C892 1.523 . S
C892 C876 1.368 . S
C892 C888 1.368 . S
C892 C891 1.523 . S
H893 C868 0.950 . S
H894 C870 0.950 . S
H895 C871 0.949 . S
H896 C873 0.950 . S
H897 C875 0.950 . S
C898 C899 1.349 . S
C898 C900 1.327 . S
C898 H923 0.950 . S
C899 C898 1.349 . S
C899 C915 1.349 . S
C900 C898 1.327 . S
C900 C919 1.429 . S
C900 H924 0.950 . S
C901 C918 1.574 . S
C901 C920 1.368 . S
C901 H925 0.949 . S
H902 C906 0.949 . S
C903 C904 1.349 . S
C903 C905 1.327 . S
C903 H926 0.950 . S
C904 C903 1.349 . S
C904 C916 1.349 . S
C905 C903 1.327 . S
C905 C921 1.429 . S
C905 H927 0.950 . S
C906 H902 0.949 . S
C906 C914 1.574 . S
C906 C922 1.368 . S
H907 C915 0.950 . S
H908 C913 0.950 . S
H909 C914 0.949 . S
H910 C916 0.950 . S
H911 C917 0.950 . S
H912 C918 0.949 . S
C913 H908 0.950 . S
C913 C915 1.327 . S
C913 C919 1.429 . S
C914 C906 1.574 . S
C914 H909 0.949 . S
C914 C920 1.368 . S
C915 C899 1.349 . S
C915 H907 0.950 . S
C915 C913 1.327 . S
C916 C904 1.349 . S
C916 H910 0.950 . S
C916 C917 1.327 . S
C917 H911 0.950 . S
C917 C916 1.327 . S
C917 C921 1.429 . S
C918 C901 1.574 . S
C918 H912 0.949 . S
C918 C922 1.368 . S
C919 C900 1.429 . S
C919 C913 1.429 . S
C919 C920 1.523 . S
C920 C901 1.368 . S
C920 C914 1.368 . S
C920 C919 1.523 . S
C921 C905 1.429 . S
C921 C917 1.429 . S
C921 C922 1.523 . S
C922 C906 1.368 . S
C922 C918 1.368 . S
C922 C921 1.523 . S
H923 C898 0.950 . S
H924 C900 0.950 . S
H925 C901 0.949 . S
H926 C903 0.950 . S
H927 C905 0.950 . S
C928 C929 1.349 . S
C928 C930 1.327 . S
C928 H953 0.950 . S
C929 C928 1.349 . S
C929 C945 1.349 . S
C930 C928 1.327 . S
C930 C949 1.429 . S
C930 H954 0.950 . S
C931 C948 1.574 . S
C931 C950 1.368 . S
C931 H955 0.949 . S
H932 C936 0.949 . S
C933 C934 1.349 . S
C933 C935 1.327 . S
C933 H956 0.950 . S
C934 C933 1.349 . S
C934 C946 1.349 . S
C935 C933 1.327 . S
C935 C951 1.429 . S
C935 H957 0.950 . S
C936 H932 0.949 . S
C936 C944 1.574 . S
C936 C952 1.368 . S
H937 C945 0.950 . S
H938 C943 0.950 . S
H939 C944 0.949 . S
H940 C946 0.950 . S
H941 C947 0.950 . S
H942 C948 0.949 . S
C943 H938 0.950 . S
C943 C945 1.327 . S
C943 C949 1.429 . S
C944 C936 1.574 . S
C944 H939 0.949 . S
C944 C950 1.368 . S
C945 C929 1.349 . S
C945 H937 0.950 . S
C945 C943 1.327 . S
C946 C934 1.349 . S
C946 H940 0.950 . S
C946 C947 1.327 . S
C947 H941 0.950 . S
C947 C946 1.327 . S
C947 C951 1.429 . S
C948 C931 1.574 . S
C948 H942 0.949 . S
C948 C952 1.368 . S
C949 C930 1.429 . S
C949 C943 1.429 . S
C949 C950 1.523 . S
C950 C931 1.368 . S
C950 C944 1.368 . S
C950 C949 1.523 . S
C951 C935 1.429 . S
C951 C947 1.429 . S
C951 C952 1.523 . S
C952 C936 1.368 . S
C952 C948 1.368 . S
C952 C951 1.523 . S
H953 C928 0.950 . S
H954 C930 0.950 . S
H955 C931 0.949 . S
H956 C933 0.950 . S
H957 C935 0.950 . S
C958 C959 1.349 . S
C958 C960 1.327 . S
C958 H983 0.950 . S
C959 C958 1.349 . S
C959 C975 1.349 . S
C960 C958 1.327 . S
C960 C979 1.429 . S
C960 H984 0.950 . S
C961 C978 1.574 . S
C961 C980 1.368 . S
C961 H985 0.949 . S
H962 C966 0.949 . S
C963 C964 1.349 . S
C963 C965 1.327 . S
C963 H986 0.950 . S
C964 C963 1.349 . S
C964 C976 1.349 . S
C965 C963 1.327 . S
C965 C981 1.429 . S
C965 H987 0.950 . S
C966 H962 0.949 . S
C966 C974 1.574 . S
C966 C982 1.368 . S
H967 C975 0.950 . S
H968 C973 0.950 . S
H969 C974 0.949 . S
H970 C976 0.950 . S
H971 C977 0.950 . S
H972 C978 0.949 . S
C973 H968 0.950 . S
C973 C975 1.327 . S
C973 C979 1.429 . S
C974 C966 1.574 . S
C974 H969 0.949 . S
C974 C980 1.368 . S
C975 C959 1.349 . S
C975 H967 0.950 . S
C975 C973 1.327 . S
C976 C964 1.349 . S
C976 H970 0.950 . S
C976 C977 1.327 . S
C977 H971 0.950 . S
C977 C976 1.327 . S
C977 C981 1.429 . S
C978 C961 1.574 . S
C978 H972 0.949 . S
C978 C982 1.368 . S
C979 C960 1.429 . S
C979 C973 1.429 . S
C979 C980 1.523 . S
C980 C961 1.368 . S
C980 C974 1.368 . S
C980 C979 1.523 . S
C981 C965 1.429 . S
C981 C977 1.429 . S
C981 C982 1.523 . S
C982 C966 1.368 . S
C982 C978 1.368 . S
C982 C981 1.523 . S
H983 C958 0.950 . S
H984 C960 0.950 . S
H985 C961 0.949 . S
H986 C963 0.950 . S
H987 C965 0.950 . S
C988 C989 1.349 . S
C988 C990 1.327 . S
C988 H1013 0.950 . S
C989 C988 1.349 . S
C989 C1005 1.349 . S
C990 C988 1.327 . S
C990 C1009 1.429 . S
C990 H1014 0.950 . S
C991 C1008 1.574 . S
C991 C1010 1.368 . S
C991 H1015 0.949 . S
H992 C996 0.949 . S
C993 C994 1.349 . S
C993 C995 1.327 . S
C993 H1016 0.950 . S
C994 C993 1.349 . S
C994 C1006 1.349 . S
C995 C993 1.327 . S
C995 C1011 1.429 . S
C995 H1017 0.950 . S
C996 H992 0.949 . S
C996 C1004 1.574 . S
C996 C1012 1.368 . S
H997 C1005 0.950 . S
H998 C1003 0.950 . S
H999 C1004 0.949 . S
H1000 C1006 0.950 . S
H1001 C1007 0.950 . S
H1002 C1008 0.949 . S
C1003 H998 0.950 . S
C1003 C1005 1.327 . S
C1003 C1009 1.429 . S
C1004 C996 1.574 . S
C1004 H999 0.949 . S
C1004 C1010 1.368 . S
C1005 C989 1.349 . S
C1005 H997 0.950 . S
C1005 C1003 1.327 . S
C1006 C994 1.349 . S
C1006 H1000 0.950 . S
C1006 C1007 1.327 . S
C1007 H1001 0.950 . S
C1007 C1006 1.327 . S
C1007 C1011 1.429 . S
C1008 C991 1.574 . S
C1008 H1002 0.949 . S
C1008 C1012 1.368 . S
C1009 C990 1.429 . S
C1009 C1003 1.429 . S
C1009 C1010 1.523 . S
C1010 C991 1.368 . S
C1010 C1004 1.368 . S
C1010 C1009 1.523 . S
C1011 C995 1.429 . S
C1011 C1007 1.429 . S
C1011 C1012 1.523 . S
C1012 C996 1.368 . S
C1012 C1008 1.368 . S
C1012 C1011 1.523 . S
H1013 C988 0.950 . S
H1014 C990 0.950 . S
H1015 C991 0.949 . S
H1016 C993 0.950 . S
H1017 C995 0.950 . S
C1018 C1019 1.349 . S
C1018 C1020 1.327 . S
C1018 H1043 0.950 . S
C1019 C1018 1.349 . S
C1019 C1035 1.349 . S
C1020 C1018 1.327 . S
C1020 C1039 1.429 . S
C1020 H1044 0.950 . S
C1021 C1038 1.574 . S
C1021 C1040 1.368 . S
C1021 H1045 0.949 . S
H1022 C1026 0.949 . S
C1023 C1024 1.349 . S
C1023 C1025 1.327 . S
C1023 H1046 0.950 . S
C1024 C1023 1.349 . S
C1024 C1036 1.349 . S
C1025 C1023 1.327 . S
C1025 C1041 1.429 . S
C1025 H1047 0.950 . S
C1026 H1022 0.949 . S
C1026 C1034 1.574 . S
C1026 C1042 1.368 . S
H1027 C1035 0.950 . S
H1028 C1033 0.950 . S
H1029 C1034 0.949 . S
H1030 C1036 0.950 . S
H1031 C1037 0.950 . S
H1032 C1038 0.949 . S
C1033 H1028 0.950 . S
C1033 C1035 1.327 . S
C1033 C1039 1.429 . S
C1034 C1026 1.574 . S
C1034 H1029 0.949 . S
C1034 C1040 1.368 . S
C1035 C1019 1.349 . S
C1035 H1027 0.950 . S
C1035 C1033 1.327 . S
C1036 C1024 1.349 . S
C1036 H1030 0.950 . S
C1036 C1037 1.327 . S
C1037 H1031 0.950 . S
C1037 C1036 1.327 . S
C1037 C1041 1.429 . S
C1038 C1021 1.574 . S
C1038 H1032 0.949 . S
C1038 C1042 1.368 . S
C1039 C1020 1.429 . S
C1039 C1033 1.429 . S
C1039 C1040 1.523 . S
C1040 C1021 1.368 . S
C1040 C1034 1.368 . S
C1040 C1039 1.523 . S
C1041 C1025 1.429 . S
C1041 C1037 1.429 . S
C1041 C1042 1.523 . S
C1042 C1026 1.368 . S
C1042 C1038 1.368 . S
C1042 C1041 1.523 . S
H1043 C1018 0.950 . S
H1044 C1020 0.950 . S
H1045 C1021 0.949 . S
H1046 C1023 0.950 . S
H1047 C1025 0.950 . S
C1048 C1049 1.349 . S
C1048 C1050 1.327 . S
C1048 H1073 0.950 . S
C1049 C1048 1.349 . S
C1049 C1065 1.349 . S
C1050 C1048 1.327 . S
C1050 C1069 1.429 . S
C1050 H1074 0.950 . S
C1051 C1068 1.574 . S
C1051 C1070 1.368 . S
C1051 H1075 0.949 . S
H1052 C1056 0.949 . S
C1053 C1054 1.349 . S
C1053 C1055 1.327 . S
C1053 H1076 0.950 . S
C1054 C1053 1.349 . S
C1054 C1066 1.349 . S
C1055 C1053 1.327 . S
C1055 C1071 1.429 . S
C1055 H1077 0.950 . S
C1056 H1052 0.949 . S
C1056 C1064 1.574 . S
C1056 C1072 1.368 . S
H1057 C1065 0.950 . S
H1058 C1063 0.950 . S
H1059 C1064 0.949 . S
H1060 C1066 0.950 . S
H1061 C1067 0.950 . S
H1062 C1068 0.949 . S
C1063 H1058 0.950 . S
C1063 C1065 1.327 . S
C1063 C1069 1.429 . S
C1064 C1056 1.574 . S
C1064 H1059 0.949 . S
C1064 C1070 1.368 . S
C1065 C1049 1.349 . S
C1065 H1057 0.950 . S
C1065 C1063 1.327 . S
C1066 C1054 1.349 . S
C1066 H1060 0.950 . S
C1066 C1067 1.327 . S
C1067 H1061 0.950 . S
C1067 C1066 1.327 . S
C1067 C1071 1.429 . S
C1068 C1051 1.574 . S
C1068 H1062 0.949 . S
C1068 C1072 1.368 . S
C1069 C1050 1.429 . S
C1069 C1063 1.429 . S
C1069 C1070 1.523 . S
C1070 C1051 1.368 . S
C1070 C1064 1.368 . S
C1070 C1069 1.523 . S
C1071 C1055 1.429 . S
C1071 C1067 1.429 . S
C1071 C1072 1.523 . S
C1072 C1056 1.368 . S
C1072 C1068 1.368 . S
C1072 C1071 1.523 . S
H1073 C1048 0.950 . S
H1074 C1050 0.950 . S
H1075 C1051 0.949 . S
H1076 C1053 0.950 . S
H1077 C1055 0.950 . S
C1078 C1079 1.349 . S
C1078 C1080 1.327 . S
C1078 H1103 0.950 . S
C1079 C1078 1.349 . S
C1079 C1095 1.349 . S
C1080 C1078 1.327 . S
C1080 C1099 1.429 . S
C1080 H1104 0.950 . S
C1081 C1098 1.574 . S
C1081 C1100 1.368 . S
C1081 H1105 0.949 . S
H1082 C1086 0.949 . S
C1083 C1084 1.349 . S
C1083 C1085 1.327 . S
C1083 H1106 0.950 . S
C1084 C1083 1.349 . S
C1084 C1096 1.349 . S
C1085 C1083 1.327 . S
C1085 C1101 1.429 . S
C1085 H1107 0.950 . S
C1086 H1082 0.949 . S
C1086 C1094 1.574 . S
C1086 C1102 1.368 . S
H1087 C1095 0.950 . S
H1088 C1093 0.950 . S
H1089 C1094 0.949 . S
H1090 C1096 0.950 . S
H1091 C1097 0.950 . S
H1092 C1098 0.949 . S
C1093 H1088 0.950 . S
C1093 C1095 1.327 . S
C1093 C1099 1.429 . S
C1094 C1086 1.574 . S
C1094 H1089 0.949 . S
C1094 C1100 1.368 . S
C1095 C1079 1.349 . S
C1095 H1087 0.950 . S
C1095 C1093 1.327 . S
C1096 C1084 1.349 . S
C1096 H1090 0.950 . S
C1096 C1097 1.327 . S
C1097 H1091 0.950 . S
C1097 C1096 1.327 . S
C1097 C1101 1.429 . S
C1098 C1081 1.574 . S
C1098 H1092 0.949 . S
C1098 C1102 1.368 . S
C1099 C1080 1.429 . S
C1099 C1093 1.429 . S
C1099 C1100 1.523 . S
C1100 C1081 1.368 . S
C1100 C1094 1.368 . S
C1100 C1099 1.523 . S
C1101 C1085 1.429 . S
C1101 C1097 1.429 . S
C1101 C1102 1.523 . S
C1102 C1086 1.368 . S
C1102 C1098 1.368 . S
C1102 C1101 1.523 . S
H1103 C1078 0.950 . S
H1104 C1080 0.950 . S
H1105 C1081 0.949 . S
H1106 C1083 0.950 . S
H1107 C1085 0.950 . S
C1108 C1109 1.349 . S
C1108 C1110 1.327 . S
C1108 H1133 0.950 . S
C1109 C1108 1.349 . S
C1109 C1125 1.349 . S
C1110 C1108 1.327 . S
C1110 C1129 1.429 . S
C1110 H1134 0.950 . S
C1111 C1128 1.574 . S
C1111 C1130 1.368 . S
C1111 H1135 0.949 . S
H1112 C1116 0.949 . S
C1113 C1114 1.349 . S
C1113 C1115 1.327 . S
C1113 H1136 0.950 . S
C1114 C1113 1.349 . S
C1114 C1126 1.349 . S
C1115 C1113 1.327 . S
C1115 C1131 1.429 . S
C1115 H1137 0.950 . S
C1116 H1112 0.949 . S
C1116 C1124 1.574 . S
C1116 C1132 1.368 . S
H1117 C1125 0.950 . S
H1118 C1123 0.950 . S
H1119 C1124 0.949 . S
H1120 C1126 0.950 . S
H1121 C1127 0.950 . S
H1122 C1128 0.949 . S
C1123 H1118 0.950 . S
C1123 C1125 1.327 . S
C1123 C1129 1.429 . S
C1124 C1116 1.574 . S
C1124 H1119 0.949 . S
C1124 C1130 1.368 . S
C1125 C1109 1.349 . S
C1125 H1117 0.950 . S
C1125 C1123 1.327 . S
C1126 C1114 1.349 . S
C1126 H1120 0.950 . S
C1126 C1127 1.327 . S
C1127 H1121 0.950 . S
C1127 C1126 1.327 . S
C1127 C1131 1.429 . S
C1128 C1111 1.574 . S
C1128 H1122 0.949 . S
C1128 C1132 1.368 . S
C1129 C1110 1.429 . S
C1129 C1123 1.429 . S
C1129 C1130 1.523 . S
C1130 C1111 1.368 . S
C1130 C1124 1.368 . S
C1130 C1129 1.523 . S
C1131 C1115 1.429 . S
C1131 C1127 1.429 . S
C1131 C1132 1.523 . S
C1132 C1116 1.368 . S
C1132 C1128 1.368 . S
C1132 C1131 1.523 . S
H1133 C1108 0.950 . S
H1134 C1110 0.950 . S
H1135 C1111 0.949 . S
H1136 C1113 0.950 . S
H1137 C1115 0.950 . S
C1138 C1139 1.349 . S
C1138 C1140 1.327 . S
C1138 H1163 0.950 . S
C1139 C1138 1.349 . S
C1139 C1155 1.349 . S
C1140 C1138 1.327 . S
C1140 C1159 1.429 . S
C1140 H1164 0.950 . S
C1141 C1158 1.574 . S
C1141 C1160 1.368 . S
C1141 H1165 0.949 . S
H1142 C1146 0.949 . S
C1143 C1144 1.349 . S
C1143 C1145 1.327 . S
C1143 H1166 0.950 . S
C1144 C1143 1.349 . S
C1144 C1156 1.349 . S
C1145 C1143 1.327 . S
C1145 C1161 1.429 . S
C1145 H1167 0.950 . S
C1146 H1142 0.949 . S
C1146 C1154 1.574 . S
C1146 C1162 1.368 . S
H1147 C1155 0.950 . S
H1148 C1153 0.950 . S
H1149 C1154 0.949 . S
H1150 C1156 0.950 . S
H1151 C1157 0.950 . S
H1152 C1158 0.949 . S
C1153 H1148 0.950 . S
C1153 C1155 1.327 . S
C1153 C1159 1.429 . S
C1154 C1146 1.574 . S
C1154 H1149 0.949 . S
C1154 C1160 1.368 . S
C1155 C1139 1.349 . S
C1155 H1147 0.950 . S
C1155 C1153 1.327 . S
C1156 C1144 1.349 . S
C1156 H1150 0.950 . S
C1156 C1157 1.327 . S
C1157 H1151 0.950 . S
C1157 C1156 1.327 . S
C1157 C1161 1.429 . S
C1158 C1141 1.574 . S
C1158 H1152 0.949 . S
C1158 C1162 1.368 . S
C1159 C1140 1.429 . S
C1159 C1153 1.429 . S
C1159 C1160 1.523 . S
C1160 C1141 1.368 . S
C1160 C1154 1.368 . S
C1160 C1159 1.523 . S
C1161 C1145 1.429 . S
C1161 C1157 1.429 . S
C1161 C1162 1.523 . S
C1162 C1146 1.368 . S
C1162 C1158 1.368 . S
C1162 C1161 1.523 . S
H1163 C1138 0.950 . S
H1164 C1140 0.950 . S
H1165 C1141 0.949 . S
H1166 C1143 0.950 . S
H1167 C1145 0.950 . S
C1168 C1169 1.349 . S
C1168 C1170 1.327 . S
C1168 H1193 0.950 . S
C1169 C1168 1.349 . S
C1169 C1185 1.349 . S
C1170 C1168 1.327 . S
C1170 C1189 1.429 . S
C1170 H1194 0.950 . S
C1171 C1188 1.574 . S
C1171 C1190 1.368 . S
C1171 H1195 0.949 . S
H1172 C1176 0.949 . S
C1173 C1174 1.349 . S
C1173 C1175 1.327 . S
C1173 H1196 0.950 . S
C1174 C1173 1.349 . S
C1174 C1186 1.349 . S
C1175 C1173 1.327 . S
C1175 C1191 1.429 . S
C1175 H1197 0.950 . S
C1176 H1172 0.949 . S
C1176 C1184 1.574 . S
C1176 C1192 1.368 . S
H1177 C1185 0.950 . S
H1178 C1183 0.950 . S
H1179 C1184 0.949 . S
H1180 C1186 0.950 . S
H1181 C1187 0.950 . S
H1182 C1188 0.949 . S
C1183 H1178 0.950 . S
C1183 C1185 1.327 . S
C1183 C1189 1.429 . S
C1184 C1176 1.574 . S
C1184 H1179 0.949 . S
C1184 C1190 1.368 . S
C1185 C1169 1.349 . S
C1185 H1177 0.950 . S
C1185 C1183 1.327 . S
C1186 C1174 1.349 . S
C1186 H1180 0.950 . S
C1186 C1187 1.327 . S
C1187 H1181 0.950 . S
C1187 C1186 1.327 . S
C1187 C1191 1.429 . S
C1188 C1171 1.574 . S
C1188 H1182 0.949 . S
C1188 C1192 1.368 . S
C1189 C1170 1.429 . S
C1189 C1183 1.429 . S
C1189 C1190 1.523 . S
C1190 C1171 1.368 . S
C1190 C1184 1.368 . S
C1190 C1189 1.523 . S
C1191 C1175 1.429 . S
C1191 C1187 1.429 . S
C1191 C1192 1.523 . S
C1192 C1176 1.368 . S
C1192 C1188 1.368 . S
C1192 C1191 1.523 . S
H1193 C1168 0.950 . S
H1194 C1170 0.950 . S
H1195 C1171 0.949 . S
H1196 C1173 0.950 . S
H1197 C1175 0.950 . S
C1198 C1199 1.349 . S
C1198 C1200 1.327 . S
C1198 H1223 0.950 . S
C1199 C1198 1.349 . S
C1199 C1215 1.349 . S
C1200 C1198 1.327 . S
C1200 C1219 1.429 . S
C1200 H1224 0.950 . S
C1201 C1218 1.574 . S
C1201 C1220 1.368 . S
C1201 H1225 0.949 . S
H1202 C1206 0.949 . S
C1203 C1204 1.349 . S
C1203 C1205 1.327 . S
C1203 H1226 0.950 . S
C1204 C1203 1.349 . S
C1204 C1216 1.349 . S
C1205 C1203 1.327 . S
C1205 C1221 1.429 . S
C1205 H1227 0.950 . S
C1206 H1202 0.949 . S
C1206 C1214 1.574 . S
C1206 C1222 1.368 . S
H1207 C1215 0.950 . S
H1208 C1213 0.950 . S
H1209 C1214 0.949 . S
H1210 C1216 0.950 . S
H1211 C1217 0.950 . S
H1212 C1218 0.949 . S
C1213 H1208 0.950 . S
C1213 C1215 1.327 . S
C1213 C1219 1.429 . S
C1214 C1206 1.574 . S
C1214 H1209 0.949 . S
C1214 C1220 1.368 . S
C1215 C1199 1.349 . S
C1215 H1207 0.950 . S
C1215 C1213 1.327 . S
C1216 C1204 1.349 . S
C1216 H1210 0.950 . S
C1216 C1217 1.327 . S
C1217 H1211 0.950 . S
C1217 C1216 1.327 . S
C1217 C1221 1.429 . S
C1218 C1201 1.574 . S
C1218 H1212 0.949 . S
C1218 C1222 1.368 . S
C1219 C1200 1.429 . S
C1219 C1213 1.429 . S
C1219 C1220 1.523 . S
C1220 C1201 1.368 . S
C1220 C1214 1.368 . S
C1220 C1219 1.523 . S
C1221 C1205 1.429 . S
C1221 C1217 1.429 . S
C1221 C1222 1.523 . S
C1222 C1206 1.368 . S
C1222 C1218 1.368 . S
C1222 C1221 1.523 . S
H1223 C1198 0.950 . S
H1224 C1200 0.950 . S
H1225 C1201 0.949 . S
H1226 C1203 0.950 . S
H1227 C1205 0.950 . S
C1228 C1229 1.349 . S
C1228 C1230 1.327 . S
C1228 H1253 0.950 . S
C1229 C1228 1.349 . S
C1229 C1245 1.349 . S
C1230 C1228 1.327 . S
C1230 C1249 1.429 . S
C1230 H1254 0.950 . S
C1231 C1248 1.574 . S
C1231 C1250 1.368 . S
C1231 H1255 0.949 . S
H1232 C1236 0.949 . S
C1233 C1234 1.349 . S
C1233 C1235 1.327 . S
C1233 H1256 0.950 . S
C1234 C1233 1.349 . S
C1234 C1246 1.349 . S
C1235 C1233 1.327 . S
C1235 C1251 1.429 . S
C1235 H1257 0.950 . S
C1236 H1232 0.949 . S
C1236 C1244 1.574 . S
C1236 C1252 1.368 . S
H1237 C1245 0.950 . S
H1238 C1243 0.950 . S
H1239 C1244 0.949 . S
H1240 C1246 0.950 . S
H1241 C1247 0.950 . S
H1242 C1248 0.949 . S
C1243 H1238 0.950 . S
C1243 C1245 1.327 . S
C1243 C1249 1.429 . S
C1244 C1236 1.574 . S
C1244 H1239 0.949 . S
C1244 C1250 1.368 . S
C1245 C1229 1.349 . S
C1245 H1237 0.950 . S
C1245 C1243 1.327 . S
C1246 C1234 1.349 . S
C1246 H1240 0.950 . S
C1246 C1247 1.327 . S
C1247 H1241 0.950 . S
C1247 C1246 1.327 . S
C1247 C1251 1.429 . S
C1248 C1231 1.574 . S
C1248 H1242 0.949 . S
C1248 C1252 1.368 . S
C1249 C1230 1.429 . S
C1249 C1243 1.429 . S
C1249 C1250 1.523 . S
C1250 C1231 1.368 . S
C1250 C1244 1.368 . S
C1250 C1249 1.523 . S
C1251 C1235 1.429 . S
C1251 C1247 1.429 . S
C1251 C1252 1.523 . S
C1252 C1236 1.368 . S
C1252 C1248 1.368 . S
C1252 C1251 1.523 . S
H1253 C1228 0.950 . S
H1254 C1230 0.950 . S
H1255 C1231 0.949 . S
H1256 C1233 0.950 . S
H1257 C1235 0.950 . S
C1258 C1259 1.349 . S
C1258 C1260 1.327 . S
C1258 H1283 0.950 . S
C1259 C1258 1.349 . S
C1259 C1275 1.349 . S
C1260 C1258 1.327 . S
C1260 C1279 1.429 . S
C1260 H1284 0.950 . S
C1261 C1278 1.574 . S
C1261 C1280 1.368 . S
C1261 H1285 0.949 . S
H1262 C1266 0.949 . S
C1263 C1264 1.349 . S
C1263 C1265 1.327 . S
C1263 H1286 0.950 . S
C1264 C1263 1.349 . S
C1264 C1276 1.349 . S
C1265 C1263 1.327 . S
C1265 C1281 1.429 . S
C1265 H1287 0.950 . S
C1266 H1262 0.949 . S
C1266 C1274 1.574 . S
C1266 C1282 1.368 . S
H1267 C1275 0.950 . S
H1268 C1273 0.950 . S
H1269 C1274 0.949 . S
H1270 C1276 0.950 . S
H1271 C1277 0.950 . S
H1272 C1278 0.949 . S
C1273 H1268 0.950 . S
C1273 C1275 1.327 . S
C1273 C1279 1.429 . S
C1274 C1266 1.574 . S
C1274 H1269 0.949 . S
C1274 C1280 1.368 . S
C1275 C1259 1.349 . S
C1275 H1267 0.950 . S
C1275 C1273 1.327 . S
C1276 C1264 1.349 . S
C1276 H1270 0.950 . S
C1276 C1277 1.327 . S
C1277 H1271 0.950 . S
C1277 C1276 1.327 . S
C1277 C1281 1.429 . S
C1278 C1261 1.574 . S
C1278 H1272 0.949 . S
C1278 C1282 1.368 . S
C1279 C1260 1.429 . S
C1279 C1273 1.429 . S
C1279 C1280 1.523 . S
C1280 C1261 1.368 . S
C1280 C1274 1.368 . S
C1280 C1279 1.523 . S
C1281 C1265 1.429 . S
C1281 C1277 1.429 . S
C1281 C1282 1.523 . S
C1282 C1266 1.368 . S
C1282 C1278 1.368 . S
C1282 C1281 1.523 . S
H1283 C1258 0.950 . S
H1284 C1260 0.950 . S
H1285 C1261 0.949 . S
H1286 C1263 0.950 . S
H1287 C1265 0.950 . S
C1288 C1289 1.349 . S
C1288 C1290 1.327 . S
C1288 H1313 0.950 . S
C1289 C1288 1.349 . S
C1289 C1305 1.349 . S
C1290 C1288 1.327 . S
C1290 C1309 1.429 . S
C1290 H1314 0.950 . S
C1291 C1308 1.574 . S
C1291 C1310 1.368 . S
C1291 H1315 0.949 . S
H1292 C1296 0.949 . S
C1293 C1294 1.349 . S
C1293 C1295 1.327 . S
C1293 H1316 0.950 . S
C1294 C1293 1.349 . S
C1294 C1306 1.349 . S
C1295 C1293 1.327 . S
C1295 C1311 1.429 . S
C1295 H1317 0.950 . S
C1296 H1292 0.949 . S
C1296 C1304 1.574 . S
C1296 C1312 1.368 . S
H1297 C1305 0.950 . S
H1298 C1303 0.950 . S
H1299 C1304 0.949 . S
H1300 C1306 0.950 . S
H1301 C1307 0.950 . S
H1302 C1308 0.949 . S
C1303 H1298 0.950 . S
C1303 C1305 1.327 . S
C1303 C1309 1.429 . S
C1304 C1296 1.574 . S
C1304 H1299 0.949 . S
C1304 C1310 1.368 . S
C1305 C1289 1.349 . S
C1305 H1297 0.950 . S
C1305 C1303 1.327 . S
C1306 C1294 1.349 . S
C1306 H1300 0.950 . S
C1306 C1307 1.327 . S
C1307 H1301 0.950 . S
C1307 C1306 1.327 . S
C1307 C1311 1.429 . S
C1308 C1291 1.574 . S
C1308 H1302 0.949 . S
C1308 C1312 1.368 . S
C1309 C1290 1.429 . S
C1309 C1303 1.429 . S
C1309 C1310 1.523 . S
C1310 C1291 1.368 . S
C1310 C1304 1.368 . S
C1310 C1309 1.523 . S
C1311 C1295 1.429 . S
C1311 C1307 1.429 . S
C1311 C1312 1.523 . S
C1312 C1296 1.368 . S
C1312 C1308 1.368 . S
C1312 C1311 1.523 . S
H1313 C1288 0.950 . S
H1314 C1290 0.950 . S
H1315 C1291 0.949 . S
H1316 C1293 0.950 . S
H1317 C1295 0.950 . S
C1318 C1319 1.349 . S
C1318 C1320 1.327 . S
C1318 H1343 0.950 . S
C1319 C1318 1.349 . S
C1319 C1335 1.349 . S
C1320 C1318 1.327 . S
C1320 C1339 1.429 . S
C1320 H1344 0.950 . S
C1321 C1338 1.574 . S
C1321 C1340 1.368 . S
C1321 H1345 0.949 . S
H1322 C1326 0.949 . S
C1323 C1324 1.349 . S
C1323 C1325 1.327 . S
C1323 H1346 0.950 . S
C1324 C1323 1.349 . S
C1324 C1336 1.349 . S
C1325 C1323 1.327 . S
C1325 C1341 1.429 . S
C1325 H1347 0.950 . S
C1326 H1322 0.949 . S
C1326 C1334 1.574 . S
C1326 C1342 1.368 . S
H1327 C1335 0.950 . S
H1328 C1333 0.950 . S
H1329 C1334 0.949 . S
H1330 C1336 0.950 . S
H1331 C1337 0.950 . S
H1332 C1338 0.949 . S
C1333 H1328 0.950 . S
C1333 C1335 1.327 . S
C1333 C1339 1.429 . S
C1334 C1326 1.574 . S
C1334 H1329 0.949 . S
C1334 C1340 1.368 . S
C1335 C1319 1.349 . S
C1335 H1327 0.950 . S
C1335 C1333 1.327 . S
C1336 C1324 1.349 . S
C1336 H1330 0.950 . S
C1336 C1337 1.327 . S
C1337 H1331 0.950 . S
C1337 C1336 1.327 . S
C1337 C1341 1.429 . S
C1338 C1321 1.574 . S
C1338 H1332 0.949 . S
C1338 C1342 1.368 . S
C1339 C1320 1.429 . S
C1339 C1333 1.429 . S
C1339 C1340 1.523 . S
C1340 C1321 1.368 . S
C1340 C1334 1.368 . S
C1340 C1339 1.523 . S
C1341 C1325 1.429 . S
C1341 C1337 1.429 . S
C1341 C1342 1.523 . S
C1342 C1326 1.368 . S
C1342 C1338 1.368 . S
C1342 C1341 1.523 . S
H1343 C1318 0.950 . S
H1344 C1320 0.950 . S
H1345 C1321 0.949 . S
H1346 C1323 0.950 . S
H1347 C1325 0.950 . S
C1348 C1349 1.349 . S
C1348 C1350 1.327 . S
C1348 H1373 0.950 . S
C1349 C1348 1.349 . S
C1349 C1365 1.349 . S
C1350 C1348 1.327 . S
C1350 C1369 1.429 . S
C1350 H1374 0.950 . S
C1351 C1368 1.574 . S
C1351 C1370 1.368 . S
C1351 H1375 0.949 . S
H1352 C1356 0.949 . S
C1353 C1354 1.349 . S
C1353 C1355 1.327 . S
C1353 H1376 0.950 . S
C1354 C1353 1.349 . S
C1354 C1366 1.349 . S
C1355 C1353 1.327 . S
C1355 C1371 1.429 . S
C1355 H1377 0.950 . S
C1356 H1352 0.949 . S
C1356 C1364 1.574 . S
C1356 C1372 1.368 . S
H1357 C1365 0.950 . S
H1358 C1363 0.950 . S
H1359 C1364 0.949 . S
H1360 C1366 0.950 . S
H1361 C1367 0.950 . S
H1362 C1368 0.949 . S
C1363 H1358 0.950 . S
C1363 C1365 1.327 . S
C1363 C1369 1.429 . S
C1364 C1356 1.574 . S
C1364 H1359 0.949 . S
C1364 C1370 1.368 . S
C1365 C1349 1.349 . S
C1365 H1357 0.950 . S
C1365 C1363 1.327 . S
C1366 C1354 1.349 . S
C1366 H1360 0.950 . S
C1366 C1367 1.327 . S
C1367 H1361 0.950 . S
C1367 C1366 1.327 . S
C1367 C1371 1.429 . S
C1368 C1351 1.574 . S
C1368 H1362 0.949 . S
C1368 C1372 1.368 . S
C1369 C1350 1.429 . S
C1369 C1363 1.429 . S
C1369 C1370 1.523 . S
C1370 C1351 1.368 . S
C1370 C1364 1.368 . S
C1370 C1369 1.523 . S
C1371 C1355 1.429 . S
C1371 C1367 1.429 . S
C1371 C1372 1.523 . S
C1372 C1356 1.368 . S
C1372 C1368 1.368 . S
C1372 C1371 1.523 . S
H1373 C1348 0.950 . S
H1374 C1350 0.950 . S
H1375 C1351 0.949 . S
H1376 C1353 0.950 . S
H1377 C1355 0.950 . S
C1378 C1379 1.349 . S
C1378 C1380 1.327 . S
C1378 H1403 0.950 . S
C1379 C1378 1.349 . S
C1379 C1395 1.349 . S
C1380 C1378 1.327 . S
C1380 C1399 1.429 . S
C1380 H1404 0.950 . S
C1381 C1398 1.574 . S
C1381 C1400 1.368 . S
C1381 H1405 0.949 . S
H1382 C1386 0.949 . S
C1383 C1384 1.349 . S
C1383 C1385 1.327 . S
C1383 H1406 0.950 . S
C1384 C1383 1.349 . S
C1384 C1396 1.349 . S
C1385 C1383 1.327 . S
C1385 C1401 1.429 . S
C1385 H1407 0.950 . S
C1386 H1382 0.949 . S
C1386 C1394 1.574 . S
C1386 C1402 1.368 . S
H1387 C1395 0.950 . S
H1388 C1393 0.950 . S
H1389 C1394 0.949 . S
H1390 C1396 0.950 . S
H1391 C1397 0.950 . S
H1392 C1398 0.949 . S
C1393 H1388 0.950 . S
C1393 C1395 1.327 . S
C1393 C1399 1.429 . S
C1394 C1386 1.574 . S
C1394 H1389 0.949 . S
C1394 C1400 1.368 . S
C1395 C1379 1.349 . S
C1395 H1387 0.950 . S
C1395 C1393 1.327 . S
C1396 C1384 1.349 . S
C1396 H1390 0.950 . S
C1396 C1397 1.327 . S
C1397 H1391 0.950 . S
C1397 C1396 1.327 . S
C1397 C1401 1.429 . S
C1398 C1381 1.574 . S
C1398 H1392 0.949 . S
C1398 C1402 1.368 . S
C1399 C1380 1.429 . S
C1399 C1393 1.429 . S
C1399 C1400 1.523 . S
C1400 C1381 1.368 . S
C1400 C1394 1.368 . S
C1400 C1399 1.523 . S
C1401 C1385 1.429 . S
C1401 C1397 1.429 . S
C1401 C1402 1.523 . S
C1402 C1386 1.368 . S
C1402 C1398 1.368 . S
C1402 C1401 1.523 . S
H1403 C1378 0.950 . S
H1404 C1380 0.950 . S
H1405 C1381 0.949 . S
H1406 C1383 0.950 . S
H1407 C1385 0.950 . S
C1408 C1409 1.349 . S
C1408 C1410 1.327 . S
C1408 H1433 0.950 . S
C1409 C1408 1.349 . S
C1409 C1425 1.349 . S
C1410 C1408 1.327 . S
C1410 C1429 1.429 . S
C1410 H1434 0.950 . S
C1411 C1428 1.574 . S
C1411 C1430 1.368 . S
C1411 H1435 0.949 . S
H1412 C1416 0.949 . S
C1413 C1414 1.349 . S
C1413 C1415 1.327 . S
C1413 H1436 0.950 . S
C1414 C1413 1.349 . S
C1414 C1426 1.349 . S
C1415 C1413 1.327 . S
C1415 C1431 1.429 . S
C1415 H1437 0.950 . S
C1416 H1412 0.949 . S
C1416 C1424 1.574 . S
C1416 C1432 1.368 . S
H1417 C1425 0.950 . S
H1418 C1423 0.950 . S
H1419 C1424 0.949 . S
H1420 C1426 0.950 . S
H1421 C1427 0.950 . S
H1422 C1428 0.949 . S
C1423 H1418 0.950 . S
C1423 C1425 1.327 . S
C1423 C1429 1.429 . S
C1424 C1416 1.574 . S
C1424 H1419 0.949 . S
C1424 C1430 1.368 . S
C1425 C1409 1.349 . S
C1425 H1417 0.950 . S
C1425 C1423 1.327 . S
C1426 C1414 1.349 . S
C1426 H1420 0.950 . S
C1426 C1427 1.327 . S
C1427 H1421 0.950 . S
C1427 C1426 1.327 . S
C1427 C1431 1.429 . S
C1428 C1411 1.574 . S
C1428 H1422 0.949 . S
C1428 C1432 1.368 . S
C1429 C1410 1.429 . S
C1429 C1423 1.429 . S
C1429 C1430 1.523 . S
C1430 C1411 1.368 . S
C1430 C1424 1.368 . S
C1430 C1429 1.523 . S
C1431 C1415 1.429 . S
C1431 C1427 1.429 . S
C1431 C1432 1.523 . S
C1432 C1416 1.368 . S
C1432 C1428 1.368 . S
C1432 C1431 1.523 . S
H1433 C1408 0.950 . S
H1434 C1410 0.950 . S
H1435 C1411 0.949 . S
H1436 C1413 0.950 . S
H1437 C1415 0.950 . S
C1438 C1439 1.349 . S
C1438 C1440 1.327 . S
C1438 H1463 0.950 . S
C1439 C1438 1.349 . S
C1439 C1455 1.349 . S
C1440 C1438 1.327 . S
C1440 C1459 1.429 . S
C1440 H1464 0.950 . S
C1441 C1458 1.574 . S
C1441 C1460 1.368 . S
C1441 H1465 0.949 . S
H1442 C1446 0.949 . S
C1443 C1444 1.349 . S
C1443 C1445 1.327 . S
C1443 H1466 0.950 . S
C1444 C1443 1.349 . S
C1444 C1456 1.349 . S
C1445 C1443 1.327 . S
C1445 C1461 1.429 . S
C1445 H1467 0.950 . S
C1446 H1442 0.949 . S
C1446 C1454 1.574 . S
C1446 C1462 1.368 . S
H1447 C1455 0.950 . S
H1448 C1453 0.950 . S
H1449 C1454 0.949 . S
H1450 C1456 0.950 . S
H1451 C1457 0.950 . S
H1452 C1458 0.949 . S
C1453 H1448 0.950 . S
C1453 C1455 1.327 . S
C1453 C1459 1.429 . S
C1454 C1446 1.574 . S
C1454 H1449 0.949 . S
C1454 C1460 1.368 . S
C1455 C1439 1.349 . S
C1455 H1447 0.950 . S
C1455 C1453 1.327 . S
C1456 C1444 1.349 . S
C1456 H1450 0.950 . S
C1456 C1457 1.327 . S
C1457 H1451 0.950 . S
C1457 C1456 1.327 . S
C1457 C1461 1.429 . S
C1458 C1441 1.574 . S
C1458 H1452 0.949 . S
C1458 C1462 1.368 . S
C1459 C1440 1.429 . S
C1459 C1453 1.429 . S
C1459 C1460 1.523 . S
C1460 C1441 1.368 . S
C1460 C1454 1.368 . S
C1460 C1459 1.523 . S
C1461 C1445 1.429 . S
C1461 C1457 1.429 . S
C1461 C1462 1.523 . S
C1462 C1446 1.368 . S
C1462 C1458 1.368 . S
C1462 C1461 1.523 . S
H1463 C1438 0.950 . S
H1464 C1440 0.950 . S
H1465 C1441 0.949 . S
H1466 C1443 0.950 . S
H1467 C1445 0.950 . S
C1468 C1469 1.349 . S
C1468 C1470 1.327 . S
C1468 H1493 0.950 . S
C1469 C1468 1.349 . S
C1469 C1485 1.349 . S
C1470 C1468 1.327 . S
C1470 C1489 1.429 . S
C1470 H1494 0.950 . S
C1471 C1488 1.574 . S
C1471 C1490 1.368 . S
C1471 H1495 0.949 . S
H1472 C1476 0.949 . S
C1473 C1474 1.349 . S
C1473 C1475 1.327 . S
C1473 H1496 0.950 . S
C1474 C1473 1.349 . S
C1474 C1486 1.349 . S
C1475 C1473 1.327 . S
C1475 C1491 1.429 . S
C1475 H1497 0.950 . S
C1476 H1472 0.949 . S
C1476 C1484 1.574 . S
C1476 C1492 1.368 . S
H1477 C1485 0.950 . S
H1478 C1483 0.950 . S
H1479 C1484 0.949 . S
H1480 C1486 0.950 . S
H1481 C1487 0.950 . S
H1482 C1488 0.949 . S
C1483 H1478 0.950 . S
C1483 C1485 1.327 . S
C1483 C1489 1.429 . S
C1484 C1476 1.574 . S
C1484 H1479 0.949 . S
C1484 C1490 1.368 . S
C1485 C1469 1.349 . S
C1485 H1477 0.950 . S
C1485 C1483 1.327 . S
C1486 C1474 1.349 . S
C1486 H1480 0.950 . S
C1486 C1487 1.327 . S
C1487 H1481 0.950 . S
C1487 C1486 1.327 . S
C1487 C1491 1.429 . S
C1488 C1471 1.574 . S
C1488 H1482 0.949 . S
C1488 C1492 1.368 . S
C1489 C1470 1.429 . S
C1489 C1483 1.429 . S
C1489 C1490 1.523 . S
C1490 C1471 1.368 . S
C1490 C1484 1.368 . S
C1490 C1489 1.523 . S
C1491 C1475 1.429 . S
C1491 C1487 1.429 . S
C1491 C1492 1.523 . S
C1492 C1476 1.368 . S
C1492 C1488 1.368 . S
C1492 C1491 1.523 . S
H1493 C1468 0.950 . S
H1494 C1470 0.950 . S
H1495 C1471 0.949 . S
H1496 C1473 0.950 . S
H1497 C1475 0.950 . S
C1498 C1499 1.349 . S
C1498 C1500 1.327 . S
C1498 H1523 0.950 . S
C1499 C1498 1.349 . S
C1499 C1515 1.349 . S
C1500 C1498 1.327 . S
C1500 C1519 1.429 . S
C1500 H1524 0.950 . S
C1501 C1518 1.574 . S
C1501 C1520 1.368 . S
C1501 H1525 0.949 . S
H1502 C1506 0.949 . S
C1503 C1504 1.349 . S
C1503 C1505 1.327 . S
C1503 H1526 0.950 . S
C1504 C1503 1.349 . S
C1504 C1516 1.349 . S
C1505 C1503 1.327 . S
C1505 C1521 1.429 . S
C1505 H1527 0.950 . S
C1506 H1502 0.949 . S
C1506 C1514 1.574 . S
C1506 C1522 1.368 . S
H1507 C1515 0.950 . S
H1508 C1513 0.950 . S
H1509 C1514 0.949 . S
H1510 C1516 0.950 . S
H1511 C1517 0.950 . S
H1512 C1518 0.949 . S
C1513 H1508 0.950 . S
C1513 C1515 1.327 . S
C1513 C1519 1.429 . S
C1514 C1506 1.574 . S
C1514 H1509 0.949 . S
C1514 C1520 1.368 . S
C1515 C1499 1.349 . S
C1515 H1507 0.950 . S
C1515 C1513 1.327 . S
C1516 C1504 1.349 . S
C1516 H1510 0.950 . S
C1516 C1517 1.327 . S
C1517 H1511 0.950 . S
C1517 C1516 1.327 . S
C1517 C1521 1.429 . S
C1518 C1501 1.574 . S
C1518 H1512 0.949 . S
C1518 C1522 1.368 . S
C1519 C1500 1.429 . S
C1519 C1513 1.429 . S
C1519 C1520 1.523 . S
C1520 C1501 1.368 . S
C1520 C1514 1.368 . S
C1520 C1519 1.523 . S
C1521 C1505 1.429 . S
C1521 C1517 1.429 . S
C1521 C1522 1.523 . S
C1522 C1506 1.368 . S
C1522 C1518 1.368 . S
C1522 C1521 1.523 . S
H1523 C1498 0.950 . S
H1524 C1500 0.950 . S
H1525 C1501 0.949 . S
H1526 C1503 0.950 . S
H1527 C1505 0.950 . S
C1528 C1529 1.349 . S
C1528 C1530 1.327 . S
C1528 H1553 0.950 . S
C1529 C1528 1.349 . S
C1529 C1545 1.349 . S
C1530 C1528 1.327 . S
C1530 C1549 1.429 . S
C1530 H1554 0.950 . S
C1531 C1548 1.574 . S
C1531 C1550 1.368 . S
C1531 H1555 0.949 . S
H1532 C1536 0.949 . S
C1533 C1534 1.349 . S
C1533 C1535 1.327 . S
C1533 H1556 0.950 . S
C1534 C1533 1.349 . S
C1534 C1546 1.349 . S
C1535 C1533 1.327 . S
C1535 C1551 1.429 . S
C1535 H1557 0.950 . S
C1536 H1532 0.949 . S
C1536 C1544 1.574 . S
C1536 C1552 1.368 . S
H1537 C1545 0.950 . S
H1538 C1543 0.950 . S
H1539 C1544 0.949 . S
H1540 C1546 0.950 . S
H1541 C1547 0.950 . S
H1542 C1548 0.949 . S
C1543 H1538 0.950 . S
C1543 C1545 1.327 . S
C1543 C1549 1.429 . S
C1544 C1536 1.574 . S
C1544 H1539 0.949 . S
C1544 C1550 1.368 . S
C1545 C1529 1.349 . S
C1545 H1537 0.950 . S
C1545 C1543 1.327 . S
C1546 C1534 1.349 . S
C1546 H1540 0.950 . S
C1546 C1547 1.327 . S
C1547 H1541 0.950 . S
C1547 C1546 1.327 . S
C1547 C1551 1.429 . S
C1548 C1531 1.574 . S
C1548 H1542 0.949 . S
C1548 C1552 1.368 . S
C1549 C1530 1.429 . S
C1549 C1543 1.429 . S
C1549 C1550 1.523 . S
C1550 C1531 1.368 . S
C1550 C1544 1.368 . S
C1550 C1549 1.523 . S
C1551 C1535 1.429 . S
C1551 C1547 1.429 . S
C1551 C1552 1.523 . S
C1552 C1536 1.368 . S
C1552 C1548 1.368 . S
C1552 C1551 1.523 . S
H1553 C1528 0.950 . S
H1554 C1530 0.950 . S
H1555 C1531 0.949 . S
H1556 C1533 0.950 . S
H1557 C1535 0.950 . S
C1558 C1559 1.349 . S
C1558 C1560 1.327 . S
C1558 H1583 0.950 . S
C1559 C1558 1.349 . S
C1559 C1575 1.349 . S
C1560 C1558 1.327 . S
C1560 C1579 1.429 . S
C1560 H1584 0.950 . S
C1561 C1578 1.574 . S
C1561 C1580 1.368 . S
C1561 H1585 0.949 . S
H1562 C1566 0.949 . S
C1563 C1564 1.349 . S
C1563 C1565 1.327 . S
C1563 H1586 0.950 . S
C1564 C1563 1.349 . S
C1564 C1576 1.349 . S
C1565 C1563 1.327 . S
C1565 C1581 1.429 . S
C1565 H1587 0.950 . S
C1566 H1562 0.949 . S
C1566 C1574 1.574 . S
C1566 C1582 1.368 . S
H1567 C1575 0.950 . S
H1568 C1573 0.950 . S
H1569 C1574 0.949 . S
H1570 C1576 0.950 . S
H1571 C1577 0.950 . S
H1572 C1578 0.949 . S
C1573 H1568 0.950 . S
C1573 C1575 1.327 . S
C1573 C1579 1.429 . S
C1574 C1566 1.574 . S
C1574 H1569 0.949 . S
C1574 C1580 1.368 . S
C1575 C1559 1.349 . S
C1575 H1567 0.950 . S
C1575 C1573 1.327 . S
C1576 C1564 1.349 . S
C1576 H1570 0.950 . S
C1576 C1577 1.327 . S
C1577 H1571 0.950 . S
C1577 C1576 1.327 . S
C1577 C1581 1.429 . S
C1578 C1561 1.574 . S
C1578 H1572 0.949 . S
C1578 C1582 1.368 . S
C1579 C1560 1.429 . S
C1579 C1573 1.429 . S
C1579 C1580 1.523 . S
C1580 C1561 1.368 . S
C1580 C1574 1.368 . S
C1580 C1579 1.523 . S
C1581 C1565 1.429 . S
C1581 C1577 1.429 . S
C1581 C1582 1.523 . S
C1582 C1566 1.368 . S
C1582 C1578 1.368 . S
C1582 C1581 1.523 . S
H1583 C1558 0.950 . S
H1584 C1560 0.950 . S
H1585 C1561 0.949 . S
H1586 C1563 0.950 . S
H1587 C1565 0.950 . S
C1588 C1589 1.349 . S
C1588 C1590 1.327 . S
C1588 H1613 0.950 . S
C1589 C1588 1.349 . S
C1589 C1605 1.349 . S
C1590 C1588 1.327 . S
C1590 C1609 1.429 . S
C1590 H1614 0.950 . S
C1591 C1608 1.574 . S
C1591 C1610 1.368 . S
C1591 H1615 0.949 . S
H1592 C1596 0.949 . S
C1593 C1594 1.349 . S
C1593 C1595 1.327 . S
C1593 H1616 0.950 . S
C1594 C1593 1.349 . S
C1594 C1606 1.349 . S
C1595 C1593 1.327 . S
C1595 C1611 1.429 . S
C1595 H1617 0.950 . S
C1596 H1592 0.949 . S
C1596 C1604 1.574 . S
C1596 C1612 1.368 . S
H1597 C1605 0.950 . S
H1598 C1603 0.950 . S
H1599 C1604 0.949 . S
H1600 C1606 0.950 . S
H1601 C1607 0.950 . S
H1602 C1608 0.949 . S
C1603 H1598 0.950 . S
C1603 C1605 1.327 . S
C1603 C1609 1.429 . S
C1604 C1596 1.574 . S
C1604 H1599 0.949 . S
C1604 C1610 1.368 . S
C1605 C1589 1.349 . S
C1605 H1597 0.950 . S
C1605 C1603 1.327 . S
C1606 C1594 1.349 . S
C1606 H1600 0.950 . S
C1606 C1607 1.327 . S
C1607 H1601 0.950 . S
C1607 C1606 1.327 . S
C1607 C1611 1.429 . S
C1608 C1591 1.574 . S
C1608 H1602 0.949 . S
C1608 C1612 1.368 . S
C1609 C1590 1.429 . S
C1609 C1603 1.429 . S
C1609 C1610 1.523 . S
C1610 C1591 1.368 . S
C1610 C1604 1.368 . S
C1610 C1609 1.523 . S
C1611 C1595 1.429 . S
C1611 C1607 1.429 . S
C1611 C1612 1.523 . S
C1612 C1596 1.368 . S
C1612 C1608 1.368 . S
C1612 C1611 1.523 . S
H1613 C1588 0.950 . S
H1614 C1590 0.950 . S
H1615 C1591 0.949 . S
H1616 C1593 0.950 . S
H1617 C1595 0.950 . S
C1618 C1619 1.349 . S
C1618 C1620 1.327 . S
C1618 H1643 0.950 . S
C1619 C1618 1.349 . S
C1619 C1635 1.349 . S
C1620 C1618 1.327 . S
C1620 C1639 1.429 . S
C1620 H1644 0.950 . S
C1621 C1638 1.574 . S
C1621 C1640 1.368 . S
C1621 H1645 0.949 . S
H1622 C1626 0.949 . S
C1623 C1624 1.349 . S
C1623 C1625 1.327 . S
C1623 H1646 0.950 . S
C1624 C1623 1.349 . S
C1624 C1636 1.349 . S
C1625 C1623 1.327 . S
C1625 C1641 1.429 . S
C1625 H1647 0.950 . S
C1626 H1622 0.949 . S
C1626 C1634 1.574 . S
C1626 C1642 1.368 . S
H1627 C1635 0.950 . S
H1628 C1633 0.950 . S
H1629 C1634 0.949 . S
H1630 C1636 0.950 . S
H1631 C1637 0.950 . S
H1632 C1638 0.949 . S
C1633 H1628 0.950 . S
C1633 C1635 1.327 . S
C1633 C1639 1.429 . S
C1634 C1626 1.574 . S
C1634 H1629 0.949 . S
C1634 C1640 1.368 . S
C1635 C1619 1.349 . S
C1635 H1627 0.950 . S
C1635 C1633 1.327 . S
C1636 C1624 1.349 . S
C1636 H1630 0.950 . S
C1636 C1637 1.327 . S
C1637 H1631 0.950 . S
C1637 C1636 1.327 . S
C1637 C1641 1.429 . S
C1638 C1621 1.574 . S
C1638 H1632 0.949 . S
C1638 C1642 1.368 . S
C1639 C1620 1.429 . S
C1639 C1633 1.429 . S
C1639 C1640 1.523 . S
C1640 C1621 1.368 . S
C1640 C1634 1.368 . S
C1640 C1639 1.523 . S
C1641 C1625 1.429 . S
C1641 C1637 1.429 . S
C1641 C1642 1.523 . S
C1642 C1626 1.368 . S
C1642 C1638 1.368 . S
C1642 C1641 1.523 . S
H1643 C1618 0.950 . S
H1644 C1620 0.950 . S
H1645 C1621 0.949 . S
H1646 C1623 0.950 . S
H1647 C1625 0.950 . S
C1648 C1649 1.349 . S
C1648 C1650 1.327 . S
C1648 H1673 0.950 . S
C1649 C1648 1.349 . S
C1649 C1665 1.349 . S
C1650 C1648 1.327 . S
C1650 C1669 1.429 . S
C1650 H1674 0.950 . S
C1651 C1668 1.574 . S
C1651 C1670 1.368 . S
C1651 H1675 0.949 . S
H1652 C1656 0.949 . S
C1653 C1654 1.349 . S
C1653 C1655 1.327 . S
C1653 H1676 0.950 . S
C1654 C1653 1.349 . S
C1654 C1666 1.349 . S
C1655 C1653 1.327 . S
C1655 C1671 1.429 . S
C1655 H1677 0.950 . S
C1656 H1652 0.949 . S
C1656 C1664 1.574 . S
C1656 C1672 1.368 . S
H1657 C1665 0.950 . S
H1658 C1663 0.950 . S
H1659 C1664 0.949 . S
H1660 C1666 0.950 . S
H1661 C1667 0.950 . S
H1662 C1668 0.949 . S
C1663 H1658 0.950 . S
C1663 C1665 1.327 . S
C1663 C1669 1.429 . S
C1664 C1656 1.574 . S
C1664 H1659 0.949 . S
C1664 C1670 1.368 . S
C1665 C1649 1.349 . S
C1665 H1657 0.950 . S
C1665 C1663 1.327 . S
C1666 C1654 1.349 . S
C1666 H1660 0.950 . S
C1666 C1667 1.327 . S
C1667 H1661 0.950 . S
C1667 C1666 1.327 . S
C1667 C1671 1.429 . S
C1668 C1651 1.574 . S
C1668 H1662 0.949 . S
C1668 C1672 1.368 . S
C1669 C1650 1.429 . S
C1669 C1663 1.429 . S
C1669 C1670 1.523 . S
C1670 C1651 1.368 . S
C1670 C1664 1.368 . S
C1670 C1669 1.523 . S
C1671 C1655 1.429 . S
C1671 C1667 1.429 . S
C1671 C1672 1.523 . S
C1672 C1656 1.368 . S
C1672 C1668 1.368 . S
C1672 C1671 1.523 . S
H1673 C1648 0.950 . S
H1674 C1650 0.950 . S
H1675 C1651 0.949 . S
H1676 C1653 0.950 . S
H1677 C1655 0.950 . S
C1678 C1679 1.349 . S
C1678 C1680 1.327 . S
C1678 H1703 0.950 . S
C1679 C1678 1.349 . S
C1679 C1695 1.349 . S
C1680 C1678 1.327 . S
C1680 C1699 1.429 . S
C1680 H1704 0.950 . S
C1681 C1698 1.574 . S
C1681 C1700 1.368 . S
C1681 H1705 0.949 . S
H1682 C1686 0.949 . S
C1683 C1684 1.349 . S
C1683 C1685 1.327 . S
C1683 H1706 0.950 . S
C1684 C1683 1.349 . S
C1684 C1696 1.349 . S
C1685 C1683 1.327 . S
C1685 C1701 1.429 . S
C1685 H1707 0.950 . S
C1686 H1682 0.949 . S
C1686 C1694 1.574 . S
C1686 C1702 1.368 . S
H1687 C1695 0.950 . S
H1688 C1693 0.950 . S
H1689 C1694 0.949 . S
H1690 C1696 0.950 . S
H1691 C1697 0.950 . S
H1692 C1698 0.949 . S
C1693 H1688 0.950 . S
C1693 C1695 1.327 . S
C1693 C1699 1.429 . S
C1694 C1686 1.574 . S
C1694 H1689 0.949 . S
C1694 C1700 1.368 . S
C1695 C1679 1.349 . S
C1695 H1687 0.950 . S
C1695 C1693 1.327 . S
C1696 C1684 1.349 . S
C1696 H1690 0.950 . S
C1696 C1697 1.327 . S
C1697 H1691 0.950 . S
C1697 C1696 1.327 . S
C1697 C1701 1.429 . S
C1698 C1681 1.574 . S
C1698 H1692 0.949 . S
C1698 C1702 1.368 . S
C1699 C1680 1.429 . S
C1699 C1693 1.429 . S
C1699 C1700 1.523 . S
C1700 C1681 1.368 . S
C1700 C1694 1.368 . S
C1700 C1699 1.523 . S
C1701 C1685 1.429 . S
C1701 C1697 1.429 . S
C1701 C1702 1.523 . S
C1702 C1686 1.368 . S
C1702 C1698 1.368 . S
C1702 C1701 1.523 . S
H1703 C1678 0.950 . S
H1704 C1680 0.950 . S
H1705 C1681 0.949 . S
H1706 C1683 0.950 . S
H1707 C1685 0.950 . S
C1708 C1709 1.349 . S
C1708 C1710 1.327 . S
C1708 H1733 0.950 . S
C1709 C1708 1.349 . S
C1709 C1725 1.349 . S
C1710 C1708 1.327 . S
C1710 C1729 1.429 . S
C1710 H1734 0.950 . S
C1711 C1728 1.574 . S
C1711 C1730 1.368 . S
C1711 H1735 0.949 . S
H1712 C1716 0.949 . S
C1713 C1714 1.349 . S
C1713 C1715 1.327 . S
C1713 H1736 0.950 . S
C1714 C1713 1.349 . S
C1714 C1726 1.349 . S
C1715 C1713 1.327 . S
C1715 C1731 1.429 . S
C1715 H1737 0.950 . S
C1716 H1712 0.949 . S
C1716 C1724 1.574 . S
C1716 C1732 1.368 . S
H1717 C1725 0.950 . S
H1718 C1723 0.950 . S
H1719 C1724 0.949 . S
H1720 C1726 0.950 . S
H1721 C1727 0.950 . S
H1722 C1728 0.949 . S
C1723 H1718 0.950 . S
C1723 C1725 1.327 . S
C1723 C1729 1.429 . S
C1724 C1716 1.574 . S
C1724 H1719 0.949 . S
C1724 C1730 1.368 . S
C1725 C1709 1.349 . S
C1725 H1717 0.950 . S
C1725 C1723 1.327 . S
C1726 C1714 1.349 . S
C1726 H1720 0.950 . S
C1726 C1727 1.327 . S
C1727 H1721 0.950 . S
C1727 C1726 1.327 . S
C1727 C1731 1.429 . S
C1728 C1711 1.574 . S
C1728 H1722 0.949 . S
C1728 C1732 1.368 . S
C1729 C1710 1.429 . S
C1729 C1723 1.429 . S
C1729 C1730 1.523 . S
C1730 C1711 1.368 . S
C1730 C1724 1.368 . S
C1730 C1729 1.523 . S
C1731 C1715 1.429 . S
C1731 C1727 1.429 . S
C1731 C1732 1.523 . S
C1732 C1716 1.368 . S
C1732 C1728 1.368 . S
C1732 C1731 1.523 . S
H1733 C1708 0.950 . S
H1734 C1710 0.950 . S
H1735 C1711 0.949 . S
H1736 C1713 0.950 . S
H1737 C1715 0.950 . S
C1738 C1739 1.349 . S
C1738 C1740 1.327 . S
C1738 H1763 0.950 . S
C1739 C1738 1.349 . S
C1739 C1755 1.349 . S
C1740 C1738 1.327 . S
C1740 C1759 1.429 . S
C1740 H1764 0.950 . S
C1741 C1758 1.574 . S
C1741 C1760 1.368 . S
C1741 H1765 0.949 . S
H1742 C1746 0.949 . S
C1743 C1744 1.349 . S
C1743 C1745 1.327 . S
C1743 H1766 0.950 . S
C1744 C1743 1.349 . S
C1744 C1756 1.349 . S
C1745 C1743 1.327 . S
C1745 C1761 1.429 . S
C1745 H1767 0.950 . S
C1746 H1742 0.949 . S
C1746 C1754 1.574 . S
C1746 C1762 1.368 . S
H1747 C1755 0.950 . S
H1748 C1753 0.950 . S
H1749 C1754 0.949 . S
H1750 C1756 0.950 . S
H1751 C1757 0.950 . S
H1752 C1758 0.949 . S
C1753 H1748 0.950 . S
C1753 C1755 1.327 . S
C1753 C1759 1.429 . S
C1754 C1746 1.574 . S
C1754 H1749 0.949 . S
C1754 C1760 1.368 . S
C1755 C1739 1.349 . S
C1755 H1747 0.950 . S
C1755 C1753 1.327 . S
C1756 C1744 1.349 . S
C1756 H1750 0.950 . S
C1756 C1757 1.327 . S
C1757 H1751 0.950 . S
C1757 C1756 1.327 . S
C1757 C1761 1.429 . S
C1758 C1741 1.574 . S
C1758 H1752 0.949 . S
C1758 C1762 1.368 . S
C1759 C1740 1.429 . S
C1759 C1753 1.429 . S
C1759 C1760 1.523 . S
C1760 C1741 1.368 . S
C1760 C1754 1.368 . S
C1760 C1759 1.523 . S
C1761 C1745 1.429 . S
C1761 C1757 1.429 . S
C1761 C1762 1.523 . S
C1762 C1746 1.368 . S
C1762 C1758 1.368 . S
C1762 C1761 1.523 . S
H1763 C1738 0.950 . S
H1764 C1740 0.950 . S
H1765 C1741 0.949 . S
H1766 C1743 0.950 . S
H1767 C1745 0.950 . S
C1768 C1769 1.349 . S
C1768 C1770 1.327 . S
C1768 H1793 0.950 . S
C1769 C1768 1.349 . S
C1769 C1785 1.349 . S
C1770 C1768 1.327 . S
C1770 C1789 1.429 . S
C1770 H1794 0.950 . S
C1771 C1788 1.574 . S
C1771 C1790 1.368 . S
C1771 H1795 0.949 . S
H1772 C1776 0.949 . S
C1773 C1774 1.349 . S
C1773 C1775 1.327 . S
C1773 H1796 0.950 . S
C1774 C1773 1.349 . S
C1774 C1786 1.349 . S
C1775 C1773 1.327 . S
C1775 C1791 1.429 . S
C1775 H1797 0.950 . S
C1776 H1772 0.949 . S
C1776 C1784 1.574 . S
C1776 C1792 1.368 . S
H1777 C1785 0.950 . S
H1778 C1783 0.950 . S
H1779 C1784 0.949 . S
H1780 C1786 0.950 . S
H1781 C1787 0.950 . S
H1782 C1788 0.949 . S
C1783 H1778 0.950 . S
C1783 C1785 1.327 . S
C1783 C1789 1.429 . S
C1784 C1776 1.574 . S
C1784 H1779 0.949 . S
C1784 C1790 1.368 . S
C1785 C1769 1.349 . S
C1785 H1777 0.950 . S
C1785 C1783 1.327 . S
C1786 C1774 1.349 . S
C1786 H1780 0.950 . S
C1786 C1787 1.327 . S
C1787 H1781 0.950 . S
C1787 C1786 1.327 . S
C1787 C1791 1.429 . S
C1788 C1771 1.574 . S
C1788 H1782 0.949 . S
C1788 C1792 1.368 . S
C1789 C1770 1.429 . S
C1789 C1783 1.429 . S
C1789 C1790 1.523 . S
C1790 C1771 1.368 . S
C1790 C1784 1.368 . S
C1790 C1789 1.523 . S
C1791 C1775 1.429 . S
C1791 C1787 1.429 . S
C1791 C1792 1.523 . S
C1792 C1776 1.368 . S
C1792 C1788 1.368 . S
C1792 C1791 1.523 . S
H1793 C1768 0.950 . S
H1794 C1770 0.950 . S
H1795 C1771 0.949 . S
H1796 C1773 0.950 . S
H1797 C1775 0.950 . S
C1798 C1799 1.349 . S
C1798 C1800 1.327 . S
C1798 H1823 0.950 . S
C1799 C1798 1.349 . S
C1799 C1815 1.349 . S
C1800 C1798 1.327 . S
C1800 C1819 1.429 . S
C1800 H1824 0.950 . S
C1801 C1818 1.574 . S
C1801 C1820 1.368 . S
C1801 H1825 0.949 . S
H1802 C1806 0.949 . S
C1803 C1804 1.349 . S
C1803 C1805 1.327 . S
C1803 H1826 0.950 . S
C1804 C1803 1.349 . S
C1804 C1816 1.349 . S
C1805 C1803 1.327 . S
C1805 C1821 1.429 . S
C1805 H1827 0.950 . S
C1806 H1802 0.949 . S
C1806 C1814 1.574 . S
C1806 C1822 1.368 . S
H1807 C1815 0.950 . S
H1808 C1813 0.950 . S
H1809 C1814 0.949 . S
H1810 C1816 0.950 . S
H1811 C1817 0.950 . S
H1812 C1818 0.949 . S
C1813 H1808 0.950 . S
C1813 C1815 1.327 . S
C1813 C1819 1.429 . S
C1814 C1806 1.574 . S
C1814 H1809 0.949 . S
C1814 C1820 1.368 . S
C1815 C1799 1.349 . S
C1815 H1807 0.950 . S
C1815 C1813 1.327 . S
C1816 C1804 1.349 . S
C1816 H1810 0.950 . S
C1816 C1817 1.327 . S
C1817 H1811 0.950 . S
C1817 C1816 1.327 . S
C1817 C1821 1.429 . S
C1818 C1801 1.574 . S
C1818 H1812 0.949 . S
C1818 C1822 1.368 . S
C1819 C1800 1.429 . S
C1819 C1813 1.429 . S
C1819 C1820 1.523 . S
C1820 C1801 1.368 . S
C1820 C1814 1.368 . S
C1820 C1819 1.523 . S
C1821 C1805 1.429 . S
C1821 C1817 1.429 . S
C1821 C1822 1.523 . S
C1822 C1806 1.368 . S
C1822 C1818 1.368 . S
C1822 C1821 1.523 . S
H1823 C1798 0.950 . S
H1824 C1800 0.950 . S
H1825 C1801 0.949 . S
H1826 C1803 0.950 . S
H1827 C1805 0.950 . S
C1828 C1829 1.349 . S
C1828 C1830 1.327 . S
C1828 H1853 0.950 . S
C1829 C1828 1.349 . S
C1829 C1845 1.349 . S
C1830 C1828 1.327 . S
C1830 C1849 1.429 . S
C1830 H1854 0.950 . S
C1831 C1848 1.574 . S
C1831 C1850 1.368 . S
C1831 H1855 0.949 . S
H1832 C1836 0.949 . S
C1833 C1834 1.349 . S
C1833 C1835 1.327 . S
C1833 H1856 0.950 . S
C1834 C1833 1.349 . S
C1834 C1846 1.349 . S
C1835 C1833 1.327 . S
C1835 C1851 1.429 . S
C1835 H1857 0.950 . S
C1836 H1832 0.949 . S
C1836 C1844 1.574 . S
C1836 C1852 1.368 . S
H1837 C1845 0.950 . S
H1838 C1843 0.950 . S
H1839 C1844 0.949 . S
H1840 C1846 0.950 . S
H1841 C1847 0.950 . S
H1842 C1848 0.949 . S
C1843 H1838 0.950 . S
C1843 C1845 1.327 . S
C1843 C1849 1.429 . S
C1844 C1836 1.574 . S
C1844 H1839 0.949 . S
C1844 C1850 1.368 . S
C1845 C1829 1.349 . S
C1845 H1837 0.950 . S
C1845 C1843 1.327 . S
C1846 C1834 1.349 . S
C1846 H1840 0.950 . S
C1846 C1847 1.327 . S
C1847 H1841 0.950 . S
C1847 C1846 1.327 . S
C1847 C1851 1.429 . S
C1848 C1831 1.574 . S
C1848 H1842 0.949 . S
C1848 C1852 1.368 . S
C1849 C1830 1.429 . S
C1849 C1843 1.429 . S
C1849 C1850 1.523 . S
C1850 C1831 1.368 . S
C1850 C1844 1.368 . S
C1850 C1849 1.523 . S
C1851 C1835 1.429 . S
C1851 C1847 1.429 . S
C1851 C1852 1.523 . S
C1852 C1836 1.368 . S
C1852 C1848 1.368 . S
C1852 C1851 1.523 . S
H1853 C1828 0.950 . S
H1854 C1830 0.950 . S
H1855 C1831 0.949 . S
H1856 C1833 0.950 . S
H1857 C1835 0.950 . S
C1858 C1859 1.349 . S
C1858 C1860 1.327 . S
C1858 H1883 0.950 . S
C1859 C1858 1.349 . S
C1859 C1875 1.349 . S
C1860 C1858 1.327 . S
C1860 C1879 1.429 . S
C1860 H1884 0.950 . S
C1861 C1878 1.574 . S
C1861 C1880 1.368 . S
C1861 H1885 0.949 . S
H1862 C1866 0.949 . S
C1863 C1864 1.349 . S
C1863 C1865 1.327 . S
C1863 H1886 0.950 . S
C1864 C1863 1.349 . S
C1864 C1876 1.349 . S
C1865 C1863 1.327 . S
C1865 C1881 1.429 . S
C1865 H1887 0.950 . S
C1866 H1862 0.949 . S
C1866 C1874 1.574 . S
C1866 C1882 1.368 . S
H1867 C1875 0.950 . S
H1868 C1873 0.950 . S
H1869 C1874 0.949 . S
H1870 C1876 0.950 . S
H1871 C1877 0.950 . S
H1872 C1878 0.949 . S
C1873 H1868 0.950 . S
C1873 C1875 1.327 . S
C1873 C1879 1.429 . S
C1874 C1866 1.574 . S
C1874 H1869 0.949 . S
C1874 C1880 1.368 . S
C1875 C1859 1.349 . S
C1875 H1867 0.950 . S
C1875 C1873 1.327 . S
C1876 C1864 1.349 . S
C1876 H1870 0.950 . S
C1876 C1877 1.327 . S
C1877 H1871 0.950 . S
C1877 C1876 1.327 . S
C1877 C1881 1.429 . S
C1878 C1861 1.574 . S
C1878 H1872 0.949 . S
C1878 C1882 1.368 . S
C1879 C1860 1.429 . S
C1879 C1873 1.429 . S
C1879 C1880 1.523 . S
C1880 C1861 1.368 . S
C1880 C1874 1.368 . S
C1880 C1879 1.523 . S
C1881 C1865 1.429 . S
C1881 C1877 1.429 . S
C1881 C1882 1.523 . S
C1882 C1866 1.368 . S
C1882 C1878 1.368 . S
C1882 C1881 1.523 . S
H1883 C1858 0.950 . S
H1884 C1860 0.950 . S
H1885 C1861 0.949 . S
H1886 C1863 0.950 . S
H1887 C1865 0.950 . S
C1888 C1889 1.349 . S
C1888 C1890 1.327 . S
C1888 H1913 0.950 . S
C1889 C1888 1.349 . S
C1889 C1905 1.349 . S
C1890 C1888 1.327 . S
C1890 C1909 1.429 . S
C1890 H1914 0.950 . S
C1891 C1908 1.574 . S
C1891 C1910 1.368 . S
C1891 H1915 0.949 . S
H1892 C1896 0.949 . S
C1893 C1894 1.349 . S
C1893 C1895 1.327 . S
C1893 H1916 0.950 . S
C1894 C1893 1.349 . S
C1894 C1906 1.349 . S
C1895 C1893 1.327 . S
C1895 C1911 1.429 . S
C1895 H1917 0.950 . S
C1896 H1892 0.949 . S
C1896 C1904 1.574 . S
C1896 C1912 1.368 . S
H1897 C1905 0.950 . S
H1898 C1903 0.950 . S
H1899 C1904 0.949 . S
H1900 C1906 0.950 . S
H1901 C1907 0.950 . S
H1902 C1908 0.949 . S
C1903 H1898 0.950 . S
C1903 C1905 1.327 . S
C1903 C1909 1.429 . S
C1904 C1896 1.574 . S
C1904 H1899 0.949 . S
C1904 C1910 1.368 . S
C1905 C1889 1.349 . S
C1905 H1897 0.950 . S
C1905 C1903 1.327 . S
C1906 C1894 1.349 . S
C1906 H1900 0.950 . S
C1906 C1907 1.327 . S
C1907 H1901 0.950 . S
C1907 C1906 1.327 . S
C1907 C1911 1.429 . S
C1908 C1891 1.574 . S
C1908 H1902 0.949 . S
C1908 C1912 1.368 . S
C1909 C1890 1.429 . S
C1909 C1903 1.429 . S
C1909 C1910 1.523 . S
C1910 C1891 1.368 . S
C1910 C1904 1.368 . S
C1910 C1909 1.523 . S
C1911 C1895 1.429 . S
C1911 C1907 1.429 . S
C1911 C1912 1.523 . S
C1912 C1896 1.368 . S
C1912 C1908 1.368 . S
C1912 C1911 1.523 . S
H1913 C1888 0.950 . S
H1914 C1890 0.950 . S
H1915 C1891 0.949 . S
H1916 C1893 0.950 . S
H1917 C1895 0.950 . S
C1918 C1919 1.349 . S
C1918 C1920 1.327 . S
C1918 H1943 0.950 . S
C1919 C1918 1.349 . S
C1919 C1935 1.349 . S
C1920 C1918 1.327 . S
C1920 C1939 1.429 . S
C1920 H1944 0.950 . S
C1921 C1938 1.574 . S
C1921 C1940 1.368 . S
C1921 H1945 0.949 . S
H1922 C1926 0.949 . S
C1923 C1924 1.349 . S
C1923 C1925 1.327 . S
C1923 H1946 0.950 . S
C1924 C1923 1.349 . S
C1924 C1936 1.349 . S
C1925 C1923 1.327 . S
C1925 C1941 1.429 . S
C1925 H1947 0.950 . S
C1926 H1922 0.949 . S
C1926 C1934 1.574 . S
C1926 C1942 1.368 . S
H1927 C1935 0.950 . S
H1928 C1933 0.950 . S
H1929 C1934 0.949 . S
H1930 C1936 0.950 . S
H1931 C1937 0.950 . S
H1932 C1938 0.949 . S
C1933 H1928 0.950 . S
C1933 C1935 1.327 . S
C1933 C1939 1.429 . S
C1934 C1926 1.574 . S
C1934 H1929 0.949 . S
C1934 C1940 1.368 . S
C1935 C1919 1.349 . S
C1935 H1927 0.950 . S
C1935 C1933 1.327 . S
C1936 C1924 1.349 . S
C1936 H1930 0.950 . S
C1936 C1937 1.327 . S
C1937 H1931 0.950 . S
C1937 C1936 1.327 . S
C1937 C1941 1.429 . S
C1938 C1921 1.574 . S
C1938 H1932 0.949 . S
C1938 C1942 1.368 . S
C1939 C1920 1.429 . S
C1939 C1933 1.429 . S
C1939 C1940 1.523 . S
C1940 C1921 1.368 . S
C1940 C1934 1.368 . S
C1940 C1939 1.523 . S
C1941 C1925 1.429 . S
C1941 C1937 1.429 . S
C1941 C1942 1.523 . S
C1942 C1926 1.368 . S
C1942 C1938 1.368 . S
C1942 C1941 1.523 . S
H1943 C1918 0.950 . S
H1944 C1920 0.950 . S
H1945 C1921 0.949 . S
H1946 C1923 0.950 . S
H1947 C1925 0.950 . S
C1948 C1949 1.349 . S
C1948 C1950 1.327 . S
C1948 H1973 0.950 . S
C1949 C1948 1.349 . S
C1949 C1965 1.349 . S
C1950 C1948 1.327 . S
C1950 C1969 1.429 . S
C1950 H1974 0.950 . S
C1951 C1968 1.574 . S
C1951 C1970 1.368 . S
C1951 H1975 0.949 . S
H1952 C1956 0.949 . S
C1953 C1954 1.349 . S
C1953 C1955 1.327 . S
C1953 H1976 0.950 . S
C1954 C1953 1.349 . S
C1954 C1966 1.349 . S
C1955 C1953 1.327 . S
C1955 C1971 1.429 . S
C1955 H1977 0.950 . S
C1956 H1952 0.949 . S
C1956 C1964 1.574 . S
C1956 C1972 1.368 . S
H1957 C1965 0.950 . S
H1958 C1963 0.950 . S
H1959 C1964 0.949 . S
H1960 C1966 0.950 . S
H1961 C1967 0.950 . S
H1962 C1968 0.949 . S
C1963 H1958 0.950 . S
C1963 C1965 1.327 . S
C1963 C1969 1.429 . S
C1964 C1956 1.574 . S
C1964 H1959 0.949 . S
C1964 C1970 1.368 . S
C1965 C1949 1.349 . S
C1965 H1957 0.950 . S
C1965 C1963 1.327 . S
C1966 C1954 1.349 . S
C1966 H1960 0.950 . S
C1966 C1967 1.327 . S
C1967 H1961 0.950 . S
C1967 C1966 1.327 . S
C1967 C1971 1.429 . S
C1968 C1951 1.574 . S
C1968 H1962 0.949 . S
C1968 C1972 1.368 . S
C1969 C1950 1.429 . S
C1969 C1963 1.429 . S
C1969 C1970 1.523 . S
C1970 C1951 1.368 . S
C1970 C1964 1.368 . S
C1970 C1969 1.523 . S
C1971 C1955 1.429 . S
C1971 C1967 1.429 . S
C1971 C1972 1.523 . S
C1972 C1956 1.368 . S
C1972 C1968 1.368 . S
C1972 C1971 1.523 . S
H1973 C1948 0.950 . S
H1974 C1950 0.950 . S
H1975 C1951 0.949 . S
H1976 C1953 0.950 . S
H1977 C1955 0.950 . S
C1978 C1979 1.349 . S
C1978 C1980 1.327 . S
C1978 H2003 0.950 1_556 S
C1979 C1978 1.349 . S
C1979 C1995 1.349 . S
C1980 C1978 1.327 . S
C1980 C1999 1.429 . S
C1980 H2004 0.950 1_556 S
C1981 C1998 1.574 . S
C1981 C2000 1.368 . S
C1981 H2005 0.949 . S
H1982 C1986 0.949 . S
C1983 C1984 1.349 . S
C1983 C1985 1.327 . S
C1983 H2006 0.949 1_554 S
C1984 C1983 1.349 . S
C1984 C1996 1.349 . S
C1985 C1983 1.327 . S
C1985 C2001 1.429 . S
C1985 H2007 0.950 1_554 S
C1986 H1982 0.949 . S
C1986 C1994 1.574 . S
C1986 C2002 1.368 . S
H1987 C1995 0.950 . S
H1988 C1993 0.950 . S
H1989 C1994 0.949 . S
H1990 C1996 0.950 . S
H1991 C1997 0.950 . S
H1992 C1998 0.949 . S
C1993 H1988 0.950 . S
C1993 C1995 1.327 . S
C1993 C1999 1.429 . S
C1994 C1986 1.574 . S
C1994 H1989 0.949 . S
C1994 C2000 1.368 1_554 S
C1995 C1979 1.349 . S
C1995 H1987 0.950 . S
C1995 C1993 1.327 . S
C1996 C1984 1.349 . S
C1996 H1990 0.950 . S
C1996 C1997 1.327 . S
C1997 H1991 0.950 . S
C1997 C1996 1.327 . S
C1997 C2001 1.429 . S
C1998 C1981 1.574 . S
C1998 H1992 0.949 . S
C1998 C2002 1.368 1_556 S
C1999 C1980 1.429 . S
C1999 C1993 1.429 . S
C1999 C2000 1.523 . S
C2000 C1981 1.368 . S
C2000 C1994 1.368 1_556 S
C2000 C1999 1.523 . S
C2001 C1985 1.429 . S
C2001 C1997 1.429 . S
C2001 C2002 1.523 . S
C2002 C1986 1.368 . S
C2002 C1998 1.368 1_554 S
C2002 C2001 1.523 . S
H2003 C1978 0.950 1_554 S
H2004 C1980 0.950 1_554 S
H2005 C1981 0.949 . S
H2006 C1983 0.949 1_556 S
H2007 C1985 0.950 1_556 S
C2008 C2009 1.349 . S
C2008 C2010 1.327 . S
C2008 H2033 0.950 . S
C2009 C2008 1.349 . S
C2009 C2025 1.349 . S
C2010 C2008 1.327 . S
C2010 C2029 1.429 . S
C2010 H2034 0.950 . S
C2011 C2028 1.574 . S
C2011 C2030 1.368 . S
C2011 H2035 0.949 . S
H2012 C2016 0.949 . S
C2013 C2014 1.349 . S
C2013 C2015 1.327 . S
C2013 H2036 0.950 . S
C2014 C2013 1.349 . S
C2014 C2026 1.349 . S
C2015 C2013 1.327 . S
C2015 C2031 1.429 . S
C2015 H2037 0.950 . S
C2016 H2012 0.949 . S
C2016 C2024 1.574 . S
C2016 C2032 1.368 . S
H2017 C2025 0.950 . S
H2018 C2023 0.950 . S
H2019 C2024 0.949 . S
H2020 C2026 0.950 . S
H2021 C2027 0.950 . S
H2022 C2028 0.949 . S
C2023 H2018 0.950 . S
C2023 C2025 1.327 . S
C2023 C2029 1.429 . S
C2024 C2016 1.574 . S
C2024 H2019 0.949 . S
C2024 C2030 1.368 . S
C2025 C2009 1.349 . S
C2025 H2017 0.950 . S
C2025 C2023 1.327 . S
C2026 C2014 1.349 . S
C2026 H2020 0.950 . S
C2026 C2027 1.327 . S
C2027 H2021 0.950 . S
C2027 C2026 1.327 . S
C2027 C2031 1.429 . S
C2028 C2011 1.574 . S
C2028 H2022 0.949 . S
C2028 C2032 1.368 . S
C2029 C2010 1.429 . S
C2029 C2023 1.429 . S
C2029 C2030 1.523 . S
C2030 C2011 1.368 . S
C2030 C2024 1.368 . S
C2030 C2029 1.523 . S
C2031 C2015 1.429 . S
C2031 C2027 1.429 . S
C2031 C2032 1.523 . S
C2032 C2016 1.368 . S
C2032 C2028 1.368 . S
C2032 C2031 1.523 . S
H2033 C2008 0.950 . S
H2034 C2010 0.950 . S
H2035 C2011 0.949 . S
H2036 C2013 0.950 . S
H2037 C2015 0.950 . S
C2038 C2039 1.349 . S
C2038 C2040 1.327 . S
C2038 H2063 0.950 . S
C2039 C2038 1.349 . S
C2039 C2055 1.349 . S
C2040 C2038 1.327 . S
C2040 C2059 1.429 . S
C2040 H2064 0.950 . S
C2041 C2058 1.574 . S
C2041 C2060 1.368 . S
C2041 H2065 0.949 . S
H2042 C2046 0.949 . S
C2043 C2044 1.349 . S
C2043 C2045 1.327 . S
C2043 H2066 0.950 . S
C2044 C2043 1.349 . S
C2044 C2056 1.349 . S
C2045 C2043 1.327 . S
C2045 C2061 1.429 . S
C2045 H2067 0.950 . S
C2046 H2042 0.949 . S
C2046 C2054 1.574 . S
C2046 C2062 1.368 . S
H2047 C2055 0.950 . S
H2048 C2053 0.950 . S
H2049 C2054 0.949 . S
H2050 C2056 0.950 . S
H2051 C2057 0.950 . S
H2052 C2058 0.949 . S
C2053 H2048 0.950 . S
C2053 C2055 1.327 . S
C2053 C2059 1.429 . S
C2054 C2046 1.574 . S
C2054 H2049 0.949 . S
C2054 C2060 1.368 . S
C2055 C2039 1.349 . S
C2055 H2047 0.950 . S
C2055 C2053 1.327 . S
C2056 C2044 1.349 . S
C2056 H2050 0.950 . S
C2056 C2057 1.327 . S
C2057 H2051 0.950 . S
C2057 C2056 1.327 . S
C2057 C2061 1.429 . S
C2058 C2041 1.574 . S
C2058 H2052 0.949 . S
C2058 C2062 1.368 . S
C2059 C2040 1.429 . S
C2059 C2053 1.429 . S
C2059 C2060 1.523 . S
C2060 C2041 1.368 . S
C2060 C2054 1.368 . S
C2060 C2059 1.523 . S
C2061 C2045 1.429 . S
C2061 C2057 1.429 . S
C2061 C2062 1.523 . S
C2062 C2046 1.368 . S
C2062 C2058 1.368 . S
C2062 C2061 1.523 . S
H2063 C2038 0.950 . S
H2064 C2040 0.950 . S
H2065 C2041 0.949 . S
H2066 C2043 0.950 . S
H2067 C2045 0.950 . S
C2068 C2069 1.349 . S
C2068 C2070 1.327 . S
C2068 H2093 0.950 . S
C2069 C2068 1.349 . S
C2069 C2085 1.349 . S
C2070 C2068 1.327 . S
C2070 C2089 1.429 . S
C2070 H2094 0.950 . S
C2071 C2088 1.574 . S
C2071 C2090 1.368 . S
C2071 H2095 0.949 . S
H2072 C2076 0.949 . S
C2073 C2074 1.349 . S
C2073 C2075 1.327 . S
C2073 H2096 0.950 . S
C2074 C2073 1.349 . S
C2074 C2086 1.349 . S
C2075 C2073 1.327 . S
C2075 C2091 1.429 . S
C2075 H2097 0.950 . S
C2076 H2072 0.949 . S
C2076 C2084 1.574 . S
C2076 C2092 1.368 . S
H2077 C2085 0.950 . S
H2078 C2083 0.950 . S
H2079 C2084 0.949 . S
H2080 C2086 0.950 . S
H2081 C2087 0.950 . S
H2082 C2088 0.949 . S
C2083 H2078 0.950 . S
C2083 C2085 1.327 . S
C2083 C2089 1.429 . S
C2084 C2076 1.574 . S
C2084 H2079 0.949 . S
C2084 C2090 1.368 . S
C2085 C2069 1.349 . S
C2085 H2077 0.950 . S
C2085 C2083 1.327 . S
C2086 C2074 1.349 . S
C2086 H2080 0.950 . S
C2086 C2087 1.327 . S
C2087 H2081 0.950 . S
C2087 C2086 1.327 . S
C2087 C2091 1.429 . S
C2088 C2071 1.574 . S
C2088 H2082 0.949 . S
C2088 C2092 1.368 . S
C2089 C2070 1.429 . S
C2089 C2083 1.429 . S
C2089 C2090 1.523 . S
C2090 C2071 1.368 . S
C2090 C2084 1.368 . S
C2090 C2089 1.523 . S
C2091 C2075 1.429 . S
C2091 C2087 1.429 . S
C2091 C2092 1.523 . S
C2092 C2076 1.368 . S
C2092 C2088 1.368 . S
C2092 C2091 1.523 . S
H2093 C2068 0.950 . S
H2094 C2070 0.950 . S
H2095 C2071 0.949 . S
H2096 C2073 0.950 . S
H2097 C2075 0.950 . S
C2098 C2099 1.349 . S
C2098 C2100 1.327 . S
C2098 H2123 0.950 1_554 S
C2099 C2098 1.349 . S
C2099 C2115 1.349 . S
C2100 C2098 1.327 . S
C2100 C2119 1.429 . S
C2100 H2124 0.950 1_554 S
C2101 C2118 1.574 . S
C2101 C2120 1.368 . S
C2101 H2125 0.949 . S
H2102 C2106 0.949 . S
C2103 C2104 1.349 . S
C2103 C2105 1.327 . S
C2103 H2126 0.950 1_556 S
C2104 C2103 1.349 . S
C2104 C2116 1.349 . S
C2105 C2103 1.327 . S
C2105 C2121 1.429 . S
C2105 H2127 0.950 1_556 S
C2106 H2102 0.949 . S
C2106 C2114 1.574 . S
C2106 C2122 1.368 . S
H2107 C2115 0.950 . S
H2108 C2113 0.950 . S
H2109 C2114 0.949 . S
H2110 C2116 0.950 . S
H2111 C2117 0.950 . S
H2112 C2118 0.949 . S
C2113 H2108 0.950 . S
C2113 C2115 1.327 . S
C2113 C2119 1.429 . S
C2114 C2106 1.574 . S
C2114 H2109 0.949 . S
C2114 C2120 1.368 1_556 S
C2115 C2099 1.349 . S
C2115 H2107 0.950 . S
C2115 C2113 1.327 . S
C2116 C2104 1.349 . S
C2116 H2110 0.950 . S
C2116 C2117 1.327 . S
C2117 H2111 0.950 . S
C2117 C2116 1.327 . S
C2117 C2121 1.429 . S
C2118 C2101 1.574 . S
C2118 H2112 0.949 . S
C2118 C2122 1.368 1_554 S
C2119 C2100 1.429 . S
C2119 C2113 1.429 . S
C2119 C2120 1.523 . S
C2120 C2101 1.368 . S
C2120 C2114 1.368 1_554 S
C2120 C2119 1.523 . S
C2121 C2105 1.429 . S
C2121 C2117 1.429 . S
C2121 C2122 1.523 . S
C2122 C2106 1.368 . S
C2122 C2118 1.368 1_556 S
C2122 C2121 1.523 . S
H2123 C2098 0.950 1_556 S
H2124 C2100 0.950 1_556 S
H2125 C2101 0.949 . S
H2126 C2103 0.950 1_554 S
H2127 C2105 0.950 1_554 S
C2128 C2129 1.349 . S
C2128 C2130 1.327 . S
C2128 H2153 0.950 . S
C2129 C2128 1.349 . S
C2129 C2145 1.349 . S
C2130 C2128 1.327 . S
C2130 C2149 1.429 . S
C2130 H2154 0.950 . S
C2131 C2148 1.574 1_565 S
C2131 C2150 1.368 . S
C2131 H2155 0.949 . S
H2132 C2136 0.949 . S
C2133 C2134 1.349 . S
C2133 C2135 1.327 . S
C2133 H2156 0.950 . S
C2134 C2133 1.349 . S
C2134 C2146 1.349 . S
C2135 C2133 1.327 . S
C2135 C2151 1.429 . S
C2135 H2157 0.950 . S
C2136 H2132 0.949 . S
C2136 C2144 1.574 1_545 S
C2136 C2152 1.368 . S
H2137 C2145 0.950 . S
H2138 C2143 0.950 . S
H2139 C2144 0.949 . S
H2140 C2146 0.950 . S
H2141 C2147 0.950 . S
H2142 C2148 0.949 . S
C2143 H2138 0.950 . S
C2143 C2145 1.327 . S
C2143 C2149 1.429 . S
C2144 C2136 1.574 1_565 S
C2144 H2139 0.949 . S
C2144 C2150 1.368 . S
C2145 C2129 1.349 . S
C2145 H2137 0.950 . S
C2145 C2143 1.327 . S
C2146 C2134 1.349 . S
C2146 H2140 0.950 . S
C2146 C2147 1.327 . S
C2147 H2141 0.950 . S
C2147 C2146 1.327 . S
C2147 C2151 1.429 . S
C2148 C2131 1.574 1_545 S
C2148 H2142 0.949 . S
C2148 C2152 1.368 . S
C2149 C2130 1.429 . S
C2149 C2143 1.429 . S
C2149 C2150 1.523 . S
C2150 C2131 1.368 . S
C2150 C2144 1.368 . S
C2150 C2149 1.523 . S
C2151 C2135 1.429 . S
C2151 C2147 1.429 . S
C2151 C2152 1.523 . S
C2152 C2136 1.368 . S
C2152 C2148 1.368 . S
C2152 C2151 1.523 . S
H2153 C2128 0.950 . S
H2154 C2130 0.950 . S
H2155 C2131 0.949 . S
H2156 C2133 0.950 . S
H2157 C2135 0.950 . S
C2158 C2159 1.349 . S
C2158 C2160 1.327 . S
C2158 H2183 0.950 1_554 S
C2159 C2158 1.349 . S
C2159 C2175 1.349 . S
C2160 C2158 1.327 . S
C2160 C2179 1.429 . S
C2160 H2184 0.950 1_554 S
C2161 C2178 1.574 . S
C2161 C2180 1.368 . S
C2161 H2185 0.949 . S
H2162 C2166 0.949 . S
C2163 C2164 1.349 . S
C2163 C2165 1.327 . S
C2163 H2186 0.950 1_556 S
C2164 C2163 1.349 . S
C2164 C2176 1.349 . S
C2165 C2163 1.327 . S
C2165 C2181 1.429 . S
C2165 H2187 0.950 1_556 S
C2166 H2162 0.949 . S
C2166 C2174 1.574 . S
C2166 C2182 1.368 . S
H2167 C2175 0.950 . S
H2168 C2173 0.950 . S
H2169 C2174 0.949 . S
H2170 C2176 0.950 . S
H2171 C2177 0.950 . S
H2172 C2178 0.949 . S
C2173 H2168 0.950 . S
C2173 C2175 1.327 . S
C2173 C2179 1.429 . S
C2174 C2166 1.574 . S
C2174 H2169 0.949 . S
C2174 C2180 1.368 1_556 S
C2175 C2159 1.349 . S
C2175 H2167 0.950 . S
C2175 C2173 1.327 . S
C2176 C2164 1.349 . S
C2176 H2170 0.950 . S
C2176 C2177 1.327 . S
C2177 H2171 0.950 . S
C2177 C2176 1.327 . S
C2177 C2181 1.429 . S
C2178 C2161 1.574 . S
C2178 H2172 0.949 . S
C2178 C2182 1.368 1_554 S
C2179 C2160 1.429 . S
C2179 C2173 1.429 . S
C2179 C2180 1.523 . S
C2180 C2161 1.368 . S
C2180 C2174 1.368 1_554 S
C2180 C2179 1.523 . S
C2181 C2165 1.429 . S
C2181 C2177 1.429 . S
C2181 C2182 1.523 . S
C2182 C2166 1.368 . S
C2182 C2178 1.368 1_556 S
C2182 C2181 1.523 . S
H2183 C2158 0.950 1_556 S
H2184 C2160 0.950 1_556 S
H2185 C2161 0.949 . S
H2186 C2163 0.950 1_554 S
H2187 C2165 0.950 1_554 S
C2188 C2189 1.349 . S
C2188 C2190 1.327 . S
C2188 H2213 0.950 . S
C2189 C2188 1.349 . S
C2189 C2205 1.349 . S
C2190 C2188 1.327 . S
C2190 C2209 1.429 . S
C2190 H2214 0.950 . S
C2191 C2208 1.574 1_545 S
C2191 C2210 1.368 . S
C2191 H2215 0.949 . S
H2192 C2196 0.949 . S
C2193 C2194 1.349 . S
C2193 C2195 1.327 . S
C2193 H2216 0.950 . S
C2194 C2193 1.349 . S
C2194 C2206 1.349 . S
C2195 C2193 1.327 . S
C2195 C2211 1.429 . S
C2195 H2217 0.950 . S
C2196 H2192 0.949 . S
C2196 C2204 1.574 1_565 S
C2196 C2212 1.368 . S
H2197 C2205 0.950 . S
H2198 C2203 0.950 . S
H2199 C2204 0.949 . S
H2200 C2206 0.950 . S
H2201 C2207 0.950 . S
H2202 C2208 0.949 . S
C2203 H2198 0.950 . S
C2203 C2205 1.327 . S
C2203 C2209 1.429 . S
C2204 C2196 1.574 1_545 S
C2204 H2199 0.949 . S
C2204 C2210 1.368 . S
C2205 C2189 1.349 . S
C2205 H2197 0.950 . S
C2205 C2203 1.327 . S
C2206 C2194 1.349 . S
C2206 H2200 0.950 . S
C2206 C2207 1.327 . S
C2207 H2201 0.950 . S
C2207 C2206 1.327 . S
C2207 C2211 1.429 . S
C2208 C2191 1.574 1_565 S
C2208 H2202 0.949 . S
C2208 C2212 1.368 . S
C2209 C2190 1.429 . S
C2209 C2203 1.429 . S
C2209 C2210 1.523 . S
C2210 C2191 1.368 . S
C2210 C2204 1.368 . S
C2210 C2209 1.523 . S
C2211 C2195 1.429 . S
C2211 C2207 1.429 . S
C2211 C2212 1.523 . S
C2212 C2196 1.368 . S
C2212 C2208 1.368 . S
C2212 C2211 1.523 . S
H2213 C2188 0.950 . S
H2214 C2190 0.950 . S
H2215 C2191 0.949 . S
H2216 C2193 0.950 . S
H2217 C2195 0.950 . S
C2218 C2219 1.349 . S
C2218 C2220 1.327 . S
C2218 H2243 0.950 . S
C2219 C2218 1.349 . S
C2219 C2235 1.349 . S
C2220 C2218 1.327 . S
C2220 C2239 1.429 . S
C2220 H2244 0.950 . S
C2221 C2238 1.574 . S
C2221 C2240 1.368 . S
C2221 H2245 0.949 . S
H2222 C2226 0.949 . S
C2223 C2224 1.349 . S
C2223 C2225 1.327 . S
C2223 H2246 0.950 . S
C2224 C2223 1.349 . S
C2224 C2236 1.349 . S
C2225 C2223 1.327 . S
C2225 C2241 1.429 . S
C2225 H2247 0.950 . S
C2226 H2222 0.949 . S
C2226 C2234 1.574 . S
C2226 C2242 1.368 . S
H2227 C2235 0.950 . S
H2228 C2233 0.950 . S
H2229 C2234 0.949 . S
H2230 C2236 0.950 . S
H2231 C2237 0.950 . S
H2232 C2238 0.949 . S
C2233 H2228 0.950 . S
C2233 C2235 1.327 . S
C2233 C2239 1.429 . S
C2234 C2226 1.574 . S
C2234 H2229 0.949 . S
C2234 C2240 1.368 . S
C2235 C2219 1.349 . S
C2235 H2227 0.950 . S
C2235 C2233 1.327 . S
C2236 C2224 1.349 . S
C2236 H2230 0.950 . S
C2236 C2237 1.327 . S
C2237 H2231 0.950 . S
C2237 C2236 1.327 . S
C2237 C2241 1.429 . S
C2238 C2221 1.574 . S
C2238 H2232 0.949 . S
C2238 C2242 1.368 . S
C2239 C2220 1.429 . S
C2239 C2233 1.429 . S
C2239 C2240 1.523 . S
C2240 C2221 1.368 . S
C2240 C2234 1.368 . S
C2240 C2239 1.523 . S
C2241 C2225 1.429 . S
C2241 C2237 1.429 . S
C2241 C2242 1.523 . S
C2242 C2226 1.368 . S
C2242 C2238 1.368 . S
C2242 C2241 1.523 . S
H2243 C2218 0.950 . S
H2244 C2220 0.950 . S
H2245 C2221 0.949 . S
H2246 C2223 0.950 . S
H2247 C2225 0.950 . S
C2248 C2249 1.349 . S
C2248 C2250 1.327 . S
C2248 H2273 0.950 . S
C2249 C2248 1.349 . S
C2249 C2265 1.349 . S
C2250 C2248 1.327 . S
C2250 C2269 1.429 . S
C2250 H2274 0.950 . S
C2251 C2268 1.574 1_545 S
C2251 C2270 1.368 . S
C2251 H2275 0.949 . S
H2252 C2256 0.949 . S
C2253 C2254 1.349 . S
C2253 C2255 1.327 . S
C2253 H2276 0.950 . S
C2254 C2253 1.349 . S
C2254 C2266 1.349 . S
C2255 C2253 1.327 . S
C2255 C2271 1.429 . S
C2255 H2277 0.950 . S
C2256 H2252 0.949 . S
C2256 C2264 1.574 1_565 S
C2256 C2272 1.368 . S
H2257 C2265 0.950 . S
H2258 C2263 0.950 . S
H2259 C2264 0.949 . S
H2260 C2266 0.950 . S
H2261 C2267 0.950 . S
H2262 C2268 0.949 . S
C2263 H2258 0.950 . S
C2263 C2265 1.327 . S
C2263 C2269 1.429 . S
C2264 C2256 1.574 1_545 S
C2264 H2259 0.949 . S
C2264 C2270 1.368 . S
C2265 C2249 1.349 . S
C2265 H2257 0.950 . S
C2265 C2263 1.327 . S
C2266 C2254 1.349 . S
C2266 H2260 0.950 . S
C2266 C2267 1.327 . S
C2267 H2261 0.950 . S
C2267 C2266 1.327 . S
C2267 C2271 1.429 . S
C2268 C2251 1.574 1_565 S
C2268 H2262 0.949 . S
C2268 C2272 1.368 . S
C2269 C2250 1.429 . S
C2269 C2263 1.429 . S
C2269 C2270 1.523 . S
C2270 C2251 1.368 . S
C2270 C2264 1.368 . S
C2270 C2269 1.523 . S
C2271 C2255 1.429 . S
C2271 C2267 1.429 . S
C2271 C2272 1.523 . S
C2272 C2256 1.368 . S
C2272 C2268 1.368 . S
C2272 C2271 1.523 . S
H2273 C2248 0.950 . S
H2274 C2250 0.950 . S
H2275 C2251 0.949 . S
H2276 C2253 0.950 . S
H2277 C2255 0.950 . S
C2278 C2279 1.349 . S
C2278 C2280 1.327 . S
C2278 H2303 0.950 . S
C2279 C2278 1.349 . S
C2279 C2295 1.349 . S
C2280 C2278 1.327 . S
C2280 C2299 1.429 . S
C2280 H2304 0.950 . S
C2281 C2298 1.574 . S
C2281 C2300 1.368 1_556 S
C2281 H2305 0.949 . S
H2282 C2286 0.949 . S
C2283 C2284 1.349 . S
C2283 C2285 1.327 . S
C2283 H2306 0.950 . S
C2284 C2283 1.349 . S
C2284 C2296 1.349 . S
C2285 C2283 1.327 . S
C2285 C2301 1.429 . S
C2285 H2307 0.950 . S
C2286 H2282 0.949 . S
C2286 C2294 1.574 . S
C2286 C2302 1.368 1_554 S
H2287 C2295 0.951 1_556 S
H2288 C2293 0.950 1_556 S
H2289 C2294 0.949 . S
H2290 C2296 0.950 1_554 S
H2291 C2297 0.950 1_554 S
H2292 C2298 0.949 . S
C2293 H2288 0.950 1_554 S
C2293 C2295 1.327 . S
C2293 C2299 1.429 . S
C2294 C2286 1.574 . S
C2294 H2289 0.949 . S
C2294 C2300 1.368 . S
C2295 C2279 1.349 . S
C2295 H2287 0.951 1_554 S
C2295 C2293 1.327 . S
C2296 C2284 1.349 . S
C2296 H2290 0.950 1_556 S
C2296 C2297 1.327 . S
C2297 H2291 0.950 1_556 S
C2297 C2296 1.327 . S
C2297 C2301 1.429 . S
C2298 C2281 1.574 . S
C2298 H2292 0.949 . S
C2298 C2302 1.368 . S
C2299 C2280 1.429 . S
C2299 C2293 1.429 . S
C2299 C2300 1.523 . S
C2300 C2281 1.368 1_554 S
C2300 C2294 1.368 . S
C2300 C2299 1.523 . S
C2301 C2285 1.429 . S
C2301 C2297 1.429 . S
C2301 C2302 1.523 . S
C2302 C2286 1.368 1_556 S
C2302 C2298 1.368 . S
C2302 C2301 1.523 . S
H2303 C2278 0.950 . S
H2304 C2280 0.950 . S
H2305 C2281 0.949 . S
H2306 C2283 0.950 . S
H2307 C2285 0.950 . S
C2308 C2309 1.349 . S
C2308 C2310 1.327 . S
C2308 H2333 0.950 . S
C2309 C2308 1.349 . S
C2309 C2325 1.349 . S
C2310 C2308 1.327 . S
C2310 C2329 1.429 . S
C2310 H2334 0.950 . S
C2311 C2328 1.574 1_545 S
C2311 C2330 1.368 . S
C2311 H2335 0.949 . S
H2312 C2316 0.949 . S
C2313 C2314 1.349 . S
C2313 C2315 1.327 . S
C2313 H2336 0.950 . S
C2314 C2313 1.349 . S
C2314 C2326 1.349 . S
C2315 C2313 1.327 . S
C2315 C2331 1.429 . S
C2315 H2337 0.950 . S
C2316 H2312 0.949 . S
C2316 C2324 1.574 1_565 S
C2316 C2332 1.368 . S
H2317 C2325 0.950 . S
H2318 C2323 0.950 . S
H2319 C2324 0.949 . S
H2320 C2326 0.950 . S
H2321 C2327 0.950 . S
H2322 C2328 0.949 . S
C2323 H2318 0.950 . S
C2323 C2325 1.327 . S
C2323 C2329 1.429 . S
C2324 C2316 1.574 1_545 S
C2324 H2319 0.949 . S
C2324 C2330 1.368 . S
C2325 C2309 1.349 . S
C2325 H2317 0.950 . S
C2325 C2323 1.327 . S
C2326 C2314 1.349 . S
C2326 H2320 0.950 . S
C2326 C2327 1.327 . S
C2327 H2321 0.950 . S
C2327 C2326 1.327 . S
C2327 C2331 1.429 . S
C2328 C2311 1.574 1_565 S
C2328 H2322 0.949 . S
C2328 C2332 1.368 . S
C2329 C2310 1.429 . S
C2329 C2323 1.429 . S
C2329 C2330 1.523 . S
C2330 C2311 1.368 . S
C2330 C2324 1.368 . S
C2330 C2329 1.523 . S
C2331 C2315 1.429 . S
C2331 C2327 1.429 . S
C2331 C2332 1.523 . S
C2332 C2316 1.368 . S
C2332 C2328 1.368 . S
C2332 C2331 1.523 . S
H2333 C2308 0.950 . S
H2334 C2310 0.950 . S
H2335 C2311 0.949 . S
H2336 C2313 0.950 . S
H2337 C2315 0.950 . S
C2338 C2339 1.349 . S
C2338 C2340 1.327 . S
C2338 H2363 0.950 . S
C2339 C2338 1.349 . S
C2339 C2355 1.349 . S
C2340 C2338 1.327 . S
C2340 C2359 1.429 . S
C2340 H2364 0.950 . S
C2341 C2358 1.574 . S
C2341 C2360 1.368 . S
C2341 H2365 0.949 . S
H2342 C2346 0.949 . S
C2343 C2344 1.349 . S
C2343 C2345 1.327 . S
C2343 H2366 0.950 . S
C2344 C2343 1.349 . S
C2344 C2356 1.349 . S
C2345 C2343 1.327 . S
C2345 C2361 1.429 . S
C2345 H2367 0.950 . S
C2346 H2342 0.949 . S
C2346 C2354 1.574 . S
C2346 C2362 1.368 . S
H2347 C2355 0.950 . S
H2348 C2353 0.950 . S
H2349 C2354 0.949 . S
H2350 C2356 0.950 . S
H2351 C2357 0.950 . S
H2352 C2358 0.949 . S
C2353 H2348 0.950 . S
C2353 C2355 1.327 . S
C2353 C2359 1.429 . S
C2354 C2346 1.574 . S
C2354 H2349 0.949 . S
C2354 C2360 1.368 . S
C2355 C2339 1.349 . S
C2355 H2347 0.950 . S
C2355 C2353 1.327 . S
C2356 C2344 1.349 . S
C2356 H2350 0.950 . S
C2356 C2357 1.327 . S
C2357 H2351 0.950 . S
C2357 C2356 1.327 . S
C2357 C2361 1.429 . S
C2358 C2341 1.574 . S
C2358 H2352 0.949 . S
C2358 C2362 1.368 . S
C2359 C2340 1.429 . S
C2359 C2353 1.429 . S
C2359 C2360 1.523 . S
C2360 C2341 1.368 . S
C2360 C2354 1.368 . S
C2360 C2359 1.523 . S
C2361 C2345 1.429 . S
C2361 C2357 1.429 . S
C2361 C2362 1.523 . S
C2362 C2346 1.368 . S
C2362 C2358 1.368 . S
C2362 C2361 1.523 . S
H2363 C2338 0.950 . S
H2364 C2340 0.950 . S
H2365 C2341 0.949 . S
H2366 C2343 0.950 . S
H2367 C2345 0.950 . S
C449 C12 1.527 . S
C454 C306 1.527 . S
C479 C320 1.527 . S
C484 C26 1.527 . S
C509 C40 1.527 . S
C514 C334 1.527 . S
C539 C292 1.527 . S
C544 C54 1.527 . S
C569 C68 1.527 . S
C574 C278 1.527 . S
C599 C82 1.527 . S
C604 C236 1.527 . S
C629 C250 1.527 . S
C634 C96 1.527 . S
C659 C110 1.527 . S
C664 C264 1.527 . S
C689 C124 1.527 . S
C694 C418 1.527 . S
C719 C138 1.527 . S
C724 C432 1.527 . S
C749 C446 1.527 . S
C754 C152 1.527 . S
C779 C404 1.527 . S
C784 C166 1.527 . S
C809 C180 1.527 . S
C814 C390 1.527 . S
C839 C348 1.527 . S
C844 C194 1.527 . S
C869 C208 1.527 . S
C874 C362 1.527 . S
C899 C376 1.527 . S
C904 C222 1.527 . S
C929 C4 0.754 . S
C934 C131 0.753 . S
C959 C18 0.754 . S
C964 C369 0.753 . S
C989 C159 0.753 . S
C994 C32 0.754 . S
C1019 C46 0.754 . S
C1024 C341 0.753 . S
C1049 C60 0.754 . S
C1054 C215 0.753 . S
C1079 C397 0.753 . S
C1084 C74 0.754 . S
C1109 C187 0.753 . S
C1114 C88 0.754 . S
C1139 C425 0.753 . S
C1144 C102 0.754 . S
C1169 C116 0.754 . S
C1174 C19 0.753 . S
C1199 C257 0.753 . S
C1204 C130 0.754 . S
C1229 C47 0.753 . S
C1234 C144 0.754 . S
C1259 C158 0.754 . S
C1264 C229 0.753 . S
C1289 C103 0.753 . S
C1294 C172 0.754 . S
C1319 C285 0.753 . S
C1324 C186 0.754 . S
C1349 C75 0.753 . S
C1354 C200 0.754 . S
C1379 C214 0.754 . S
C1384 C313 0.753 . S
C1409 C355 0.753 . S
C1414 C228 0.754 . S
C1439 C145 0.753 . S
C1444 C242 0.754 . S
C1469 C383 0.753 . S
C1474 C256 0.754 . S
C1499 C270 0.754 . S
C1504 C117 0.753 . S
C1529 C439 0.753 . S
C1534 C284 0.754 . S
C1559 C173 0.753 . S
C1564 C298 0.754 . S
C1589 C411 0.753 . S
C1594 C312 0.754 . S
C1619 C326 0.754 . S
C1624 C201 0.753 . S
C1649 C340 0.754 . S
C1654 C243 0.753 . S
C1679 C33 0.753 . S
C1684 C354 0.754 . S
C1709 C368 0.754 . S
C1714 C271 0.753 . S
C1739 C382 0.754 . S
C1744 C5 0.753 . S
C1769 C396 0.754 . S
C1774 C327 0.753 . S
C1799 C61 0.753 . S
C1804 C410 0.754 . S
C1829 C299 0.753 . S
C1834 C424 0.754 . S
C1859 C438 0.754 . S
C1864 C89 0.753 . S
C1889 C11 1.040 . S
C1894 C67 1.040 . S
C1919 C25 1.040 . S
C1924 C81 1.040 . S
C1949 C95 1.041 . S
C1954 C39 1.041 . S
C1979 C109 1.041 . S
C1984 C53 1.041 . S
C2009 C179 1.040 . S
C2014 C123 1.040 . S
C2039 C193 1.040 . S
C2044 C137 1.040 . S
C2069 C207 1.041 . S
C2074 C151 1.041 . S
C2099 C221 1.041 . S
C2104 C165 1.041 . S
C2129 C235 1.041 . S
C2134 C291 1.041 . S
C2159 C249 1.040 . S
C2164 C305 1.040 . S
C2189 C263 1.040 . S
C2194 C319 1.040 . S
C2219 C333 1.041 . S
C2224 C277 1.041 . S
C2249 C347 1.041 . S
C2254 C403 1.041 . S
C2279 C417 1.040 . S
C2284 C361 1.040 . S
C2309 C431 1.040 . S
C2314 C375 1.040 . S
C2339 C445 1.041 . S
C2344 C389 1.041 . S
