# Generated by pormake.
# Topology unc, (4)-cn, num edge types: 1
# Building blocks:
#     Node 0, Type 0, BuildingBlock: GALJAG_clean_sbu_0, # of connection points: 4
#     Node 1, Type 0, BuildingBlock: GALJAG_clean_sbu_0, # of connection points: 4
#     Node 2, Type 0, BuildingBlock: GALJAG_clean_sbu_0, # of connection points: 4
#     Node 3, Type 0, BuildingBlock: GALJAG_clean_sbu_0, # of connection points: 4
#     Edge 4, Type (0, 0), BuildingBlock: MIFKUJ_clean_linker_0, # of connection points: 2
#     Edge 5, Type (0, 0), BuildingBlock: MIFKUJ_clean_linker_0, # of connection points: 2
#     Edge 6, Type (0, 0), BuildingBlock: MIFKUJ_clean_linker_0, # of connection points: 2
#     Edge 7, Type (0, 0), BuildingBlock: MIFKUJ_clean_linker_0, # of connection points: 2
#     Edge 8, Type (0, 0), BuildingBlock: MIFKUJ_clean_linker_0, # of connection points: 2
#     Edge 9, Type (0, 0), BuildingBlock: MIFKUJ_clean_linker_0, # of connection points: 2
#     Edge 10, Type (0, 0), BuildingBlock: MIFKUJ_clean_linker_0, # of connection points: 2
#     Edge 11, Type (0, 0), BuildingBlock: MIFKUJ_clean_linker_0, # of connection points: 2
# Relax obj value: 0.013
# Max RMSD: 0.034
# Mean RMSD: 0.034
data_MOF--net-unc--node1-GALJAG_clean_sbu_0--edge1-MIFKUJ_clean_linker_0
_symmetry_space_group_name_H-M    P1
_symmetry_Int_Tables_number       1
_symmetry_cell_setting            triclinic
loop_
_symmetry_equiv_pos_as_xyz
'x, y, z'
_cell_length_a     40.919881
_cell_length_b     40.949241
_cell_length_c     26.204302
_cell_angle_alpha  89.966143
_cell_angle_beta   89.970186
_cell_angle_gamma 90.005527
loop_
_atom_site_label
_atom_site_type_symbol
_atom_site_fract_x
_atom_site_fract_y
_atom_site_fract_z
_atom_type_partial_charge
In0 In 0.99529 0.67913 0.99563 0.0
O1 O 0.04169 0.70941 0.98664 0.0
O2 O 0.01606 0.71257 0.05715 0.0
C3 C 0.00327 0.63547 0.91921 0.0
C4 C 0.9489 0.72126 0.96314 0.0
C5 C 0.9901 0.63564 0.07252 0.0
O6 O 0.02674 0.65189 0.93693 0.0
O7 O 0.97593 0.6418 0.93896 0.0
O8 O 0.96587 0.65184 0.05663 0.0
O9 O 0.01675 0.64198 0.05042 0.0
C10 C 0.04026 0.72167 0.0308 0.0
O11 O 0.94386 0.70119 0.99888 0.0
O12 O 0.97718 0.72008 0.94412 0.0
In13 In 0.32242 0.99444 0.25153 0.0
O14 O 0.29081 0.94886 0.26344 0.0
O15 O 0.29262 0.9695 0.18922 0.0
C16 C 0.36591 0.98789 0.32799 0.0
C17 C 0.27958 0.0405 0.28287 0.0
C18 C 0.36871 0.00358 0.17963 0.0
O19 O 0.3509 0.96369 0.3094 0.0
O20 O 0.35823 0.01513 0.30893 0.0
O21 O 0.34856 0.0257 0.19155 0.0
O22 O 0.36473 0.97685 0.20279 0.0
C23 C 0.28122 0.9475 0.21775 0.0
O24 O 0.2925 0.04109 0.23911 0.0
O25 O 0.28826 0.01682 0.31045 0.0
In26 In 0.00438 0.32223 0.4978 0.0
O27 O 0.04911 0.28951 0.51008 0.0
O28 O 0.02843 0.29156 0.43583 0.0
C29 C 0.01253 0.36549 0.57429 0.0
C30 C 0.95795 0.27971 0.52867 0.0
C31 C 0.9961 0.36764 0.42444 0.0
O32 O 0.03644 0.35158 0.55289 0.0
O33 O 0.98486 0.35707 0.55773 0.0
O34 O 0.97256 0.35076 0.44125 0.0
O35 O 0.02348 0.36111 0.44401 0.0
C36 C 0.05025 0.27984 0.46439 0.0
O37 O 0.95753 0.29265 0.48489 0.0
O38 O 0.98167 0.28818 0.55636 0.0
In39 In 0.67697 0.0066 0.75395 0.0
O40 O 0.68892 0.95241 0.76434 0.0
O41 O 0.72627 0.98702 0.78035 0.0
C42 C 0.63289 0.99665 0.67868 0.0
C43 C 0.71966 0.05111 0.7175 0.0
C44 C 0.63905 0.01965 0.83666 0.0
O45 O 0.65169 0.97432 0.69414 0.0
O46 O 0.63664 0.02372 0.7007 0.0
O47 O 0.64528 0.04074 0.80306 0.0
O48 O 0.65281 0.99258 0.82951 0.0
C49 C 0.71792 0.95738 0.77885 0.0
O50 O 0.71152 0.04993 0.76402 0.0
O51 O 0.70632 0.02983 0.68954 0.0
H52 H 0.93454 0.60809 0.11177 0.0
H53 H 0.93099 0.56181 0.17087 0.0
H54 H 0.03625 0.55908 0.18083 0.0
H55 H 0.03989 0.60453 0.12087 0.0
H56 H 0.01362 0.50028 0.16525 0.0
H57 H 0.98615 0.58884 0.27909 0.0
H58 H 0.95455 0.63666 0.30801 0.0
H59 H 0.86703 0.57882 0.31124 0.0
H60 H 0.89807 0.53073 0.28171 0.0
H61 H 0.04389 0.40523 0.38279 0.0
H62 H 0.03789 0.44968 0.32159 0.0
H63 H 0.93365 0.43408 0.31802 0.0
H64 H 0.93947 0.38947 0.38007 0.0
H65 H 0.94971 0.49921 0.32617 0.0
H66 H 0.97908 0.40938 0.2191 0.0
H67 H 0.01165 0.36176 0.19211 0.0
H68 H 0.09665 0.42253 0.17731 0.0
H69 H 0.0647 0.47045 0.20492 0.0
C70 C 0.95687 0.59779 0.12705 0.0
C71 C 0.98749 0.60985 0.1117 0.0
C72 C 0.95482 0.5714 0.16089 0.0
C73 C 0.98336 0.55702 0.1805 0.0
C74 C 0.0139 0.56964 0.16603 0.0
C75 C 0.01595 0.59571 0.13191 0.0
C76 C 0.98182 0.528 0.21446 0.0
C77 C 0.99989 0.50022 0.20069 0.0
C78 C 0.963 0.52742 0.25983 0.0
C79 C 0.94436 0.5563 0.27764 0.0
C80 C 0.96012 0.58639 0.28557 0.0
C81 C 0.94232 0.61353 0.30215 0.0
C82 C 0.90879 0.61081 0.3113 0.0
C83 C 0.893 0.58091 0.30405 0.0
C84 C 0.91068 0.5537 0.28742 0.0
C85 C 0.01967 0.4111 0.36885 0.0
C86 C 0.99215 0.39377 0.38603 0.0
C87 C 0.0163 0.43647 0.33375 0.0
C88 C 0.98537 0.44493 0.31481 0.0
C89 C 0.95775 0.42784 0.33208 0.0
C90 C 0.96112 0.40232 0.36729 0.0
C91 C 0.98222 0.47199 0.27751 0.0
C92 C 0.96319 0.49926 0.2905 0.0
C93 C 1.00027 0.47221 0.23146 0.0
C94 C 0.01952 0.44347 0.21442 0.0
C95 C 0.00476 0.41255 0.21042 0.0
C96 C 0.02311 0.38551 0.19496 0.0
C97 C 0.05621 0.38911 0.18309 0.0
C98 C 0.07101 0.41978 0.18653 0.0
C99 C 0.05278 0.4469 0.20202 0.0
H100 H 0.07038 0.36814 0.17114 0.0
H101 H 0.89505 0.63185 0.32414 0.0
H102 H 0.4019 0.03675 0.36989 0.0
H103 H 0.44859 0.03175 0.42714 0.0
H104 H 0.43688 0.92707 0.42924 0.0
H105 H 0.38971 0.93191 0.37179 0.0
H106 H 0.45049 0.95243 0.5249 0.0
H107 H 0.49517 0.95789 0.35781 0.0
H108 H 0.50248 0.97925 0.27057 0.0
H109 H 0.53656 0.07052 0.33108 0.0
H110 H 0.52893 0.04991 0.41876 0.0
H111 H 0.60961 0.93875 0.64121 0.0
H112 H 0.5654 0.93121 0.5789 0.0
H113 H 0.55572 0.0357 0.56463 0.0
H114 H 0.59939 0.04339 0.62706 0.0
H115 H 0.55553 0.00206 0.47026 0.0
H116 H 0.50417 0.99754 0.63701 0.0
H117 H 0.49648 0.9757 0.72391 0.0
H118 H 0.47571 0.88083 0.66217 0.0
H119 H 0.48375 0.90204 0.57486 0.0
C120 C 0.40904 0.01266 0.38279 0.0
C121 C 0.39227 0.9847 0.36614 0.0
C122 C 0.43584 0.00983 0.41532 0.0
C123 C 0.44651 0.979 0.43169 0.0
C124 C 0.4291 0.95106 0.41675 0.0
C125 C 0.40222 0.95387 0.38399 0.0
C126 C 0.47625 0.97633 0.46366 0.0
C127 C 0.47365 0.96266 0.51259 0.0
C128 C 0.50638 0.98991 0.44764 0.0
C129 C 0.51124 0.00241 0.39493 0.0
C130 C 0.50399 0.98261 0.35255 0.0
C131 C 0.50822 0.99457 0.303 0.0
C132 C 0.51993 0.02624 0.29529 0.0
C133 C 0.52748 0.04599 0.33712 0.0
C134 C 0.52323 0.03417 0.38676 0.0
C135 C 0.59817 0.96006 0.62444 0.0
C136 C 0.6078 0.99165 0.63902 0.0
C137 C 0.57293 0.95572 0.58905 0.0
C138 C 0.55728 0.98292 0.56741 0.0
C139 C 0.56755 0.01442 0.58088 0.0
C140 C 0.59239 0.01876 0.61666 0.0
C141 C 0.5295 0.97892 0.53183 0.0
C142 C 0.53251 0.99134 0.48217 0.0
C143 C 0.49986 0.964 0.54707 0.0
C144 C 0.49499 0.95127 0.59948 0.0
C145 C 0.49828 0.97195 0.642 0.0
C146 C 0.49379 0.95971 0.69131 0.0
C147 C 0.48573 0.92687 0.69857 0.0
C148 C 0.48204 0.90624 0.6565 0.0
C149 C 0.48655 0.91836 0.6071 0.0
H150 H 0.48224 0.91744 0.73678 0.0
H151 H 0.5232 0.03545 0.25689 0.0
H152 H 0.05962 0.61654 0.8711 0.0
H153 H 0.0668 0.5699 0.81341 0.0
H154 H 0.96391 0.54816 0.8251 0.0
H155 H 0.95659 0.59448 0.88258 0.0
H156 H 0.00191 0.49418 0.84029 0.0
H157 H 0.99394 0.58272 0.71924 0.0
H158 H 0.00961 0.63546 0.68091 0.0
H159 H 0.10616 0.59882 0.6519 0.0
H160 H 0.09117 0.54597 0.69073 0.0
H161 H 0.96474 0.39208 0.63302 0.0
H162 H 0.96978 0.4366 0.69437 0.0
H163 H 0.07348 0.44151 0.66577 0.0
H164 H 0.06861 0.39665 0.60402 0.0
H165 H 0.04317 0.5023 0.66266 0.0
H166 H 0.04907 0.41159 0.77575 0.0
H167 H 0.03283 0.35875 0.81308 0.0
H168 H 0.94021 0.39922 0.85706 0.0
H169 H 0.9557 0.4522 0.8193 0.0
C170 C 0.03851 0.60197 0.86092 0.0
C171 C 0.00754 0.60913 0.8813 0.0
C172 C 0.04264 0.57538 0.82799 0.0
C173 C 0.01587 0.55559 0.81504 0.0
C174 C 0.9849 0.56305 0.83481 0.0
C175 C 0.98074 0.58963 0.86743 0.0
C176 C 0.01997 0.52655 0.78193 0.0
C177 C 0.01072 0.49597 0.80132 0.0
C178 C 0.03251 0.52879 0.73173 0.0
C179 C 0.04156 0.56055 0.70847 0.0
C180 C 0.01861 0.58602 0.70514 0.0
C181 C 0.02734 0.61591 0.68322 0.0
C182 C 0.0589 0.62053 0.66414 0.0
C183 C 0.08175 0.59523 0.6668 0.0
C184 C 0.07315 0.5653 0.68874 0.0
C185 C 0.98869 0.40241 0.64009 0.0
C186 C 0.0163 0.39088 0.61383 0.0
C187 C 0.99154 0.42778 0.67527 0.0
C188 C 0.02204 0.44218 0.68486 0.0
C189 C 0.04975 0.43063 0.65895 0.0
C190 C 0.04696 0.40496 0.62394 0.0
C191 C 0.02434 0.47007 0.72065 0.0
C192 C 0.03483 0.50042 0.70186 0.0
C193 C 0.01292 0.46765 0.77146 0.0
C194 C 0.00348 0.43583 0.79433 0.0
C195 C 0.02513 0.40916 0.79301 0.0
C196 C 0.01608 0.37919 0.81432 0.0
C197 C 0.98549 0.37561 0.83734 0.0
C198 C 0.9639 0.40202 0.83918 0.0
C199 C 0.97282 0.43204 0.81789 0.0
H200 H 0.97853 0.35239 0.85383 0.0
H201 H 0.06561 0.64368 0.64716 0.0
H202 H 0.38 0.05659 0.11821 0.0
H203 H 0.42711 0.06573 0.06192 0.0
H204 H 0.46657 0.97207 0.10524 0.0
H205 H 0.4197 0.96272 0.16111 0.0
H206 H 0.51262 0.02152 0.10881 0.0
H207 H 0.43075 0.98017 0.99307 0.0
H208 H 0.37706 0.97956 0.95039 0.0
H209 H 0.39495 0.07551 0.89035 0.0
H210 H 0.4486 0.07686 0.93332 0.0
H211 H 0.62535 0.97892 0.91597 0.0
H212 H 0.58102 0.98387 0.97787 0.0
H213 H 0.55332 0.07639 0.91201 0.0
H214 H 0.59774 0.0715 0.84961 0.0
H215 H 0.50146 0.03566 0.92158 0.0
H216 H 0.58648 0.07421 0.0293 0.0
H217 H 0.64028 0.07439 0.07154 0.0
H218 H 0.61696 0.98421 0.1469 0.0
H219 H 0.56318 0.9832 0.10449 0.0
C220 C 0.39865 0.0379 0.11544 0.0
C221 C 0.39612 0.00889 0.14385 0.0
C222 C 0.42551 0.04315 0.08333 0.0
C223 C 0.45028 0.01955 0.07943 0.0
C224 C 0.44776 0.99062 0.10783 0.0
C225 C 0.42086 0.98524 0.13949 0.0
C226 C 0.47899 0.02474 0.04586 0.0
C227 C 0.51026 0.0244 0.06781 0.0
C228 C 0.47575 0.02953 0.99265 0.0
C229 C 0.44348 0.02879 0.96695 0.0
C230 C 0.42309 0.00127 0.97119 0.0
C231 C 0.3927 0.00076 0.94686 0.0
C232 C 0.38255 0.02753 0.91783 0.0
C233 C 0.40281 0.05483 0.91296 0.0
C234 C 0.43321 0.05548 0.93727 0.0
C235 C 0.61018 0.00059 0.91518 0.0
C236 C 0.61499 0.02482 0.87795 0.0
C237 C 0.5849 0.00345 0.9507 0.0
C238 C 0.56395 0.03059 0.94975 0.0
C239 C 0.56924 0.05528 0.91345 0.0
C240 C 0.5947 0.05252 0.87802 0.0
C241 C 0.53526 0.03181 0.98436 0.0
C242 C 0.50393 0.03331 0.96265 0.0
C243 C 0.53846 0.0281 0.03783 0.0
C244 C 0.57086 0.0285 0.06333 0.0
C245 C 0.59292 0.05425 0.05451 0.0
C246 C 0.6234 0.05453 0.07856 0.0
C247 C 0.63206 0.02929 0.11179 0.0
C248 C 0.61023 0.00373 0.12111 0.0
C249 C 0.57972 0.00331 0.09711 0.0
H250 H 0.65567 0.02956 0.1304 0.0
H251 H 0.35902 0.02708 0.89898 0.0
H252 H 0.26505 0.93405 0.11917 0.0
H253 H 0.22471 0.89478 0.08837 0.0
H254 H 0.20303 0.86682 0.24358 0.0
H255 H 0.24432 0.90532 0.2745 0.0
H256 H 0.20418 0.81479 0.18667 0.0
H257 H 0.15237 0.91889 0.17348 0.0
H258 H 0.1465 0.9766 0.14818 0.0
H259 H 0.15147 0.94936 0.99016 0.0
H260 H 0.15783 0.8915 0.01453 0.0
H261 H 0.04961 0.74117 0.12926 0.0
H262 H 0.09137 0.77873 0.16159 0.0
H263 H 0.12835 0.79192 0.00883 0.0
H264 H 0.08697 0.75399 0.97629 0.0
H265 H 0.11833 0.85122 0.06564 0.0
H266 H 0.16993 0.74579 0.0828 0.0
H267 H 0.17327 0.68857 0.11163 0.0
H268 H 0.1651 0.71963 0.26759 0.0
H269 H 0.16121 0.77706 0.23962 0.0
C270 C 0.25177 0.91943 0.14672 0.0
C271 C 0.25768 0.92285 0.19925 0.0
C272 C 0.22857 0.89712 0.12909 0.0
C273 C 0.2103 0.87827 0.16368 0.0
C274 C 0.21671 0.88115 0.21616 0.0
C275 C 0.24026 0.90319 0.23379 0.0
C276 C 0.18445 0.85572 0.14504 0.0
C277 C 0.18517 0.82293 0.16077 0.0
C278 C 0.1598 0.86612 0.1107 0.0
C279 C 0.1559 0.90089 0.09586 0.0
C280 C 0.15246 0.92523 0.13334 0.0
C281 C 0.14901 0.95797 0.11917 0.0
C282 C 0.1487 0.96665 0.0676 0.0
C283 C 0.15176 0.9426 0.03009 0.0
C284 C 0.15526 0.90983 0.04406 0.0
C285 C 0.06664 0.75209 0.10258 0.0
C286 C 0.06511 0.74464 0.05028 0.0
C287 C 0.09049 0.77343 0.12111 0.0
C288 C 0.11297 0.78793 0.08758 0.0
C289 C 0.1112 0.78092 0.03526 0.0
C290 C 0.08765 0.75922 0.0168 0.0
C291 C 0.13831 0.8105 0.10709 0.0
C292 C 0.1374 0.84324 0.09158 0.0
C293 C 0.16243 0.80018 0.14219 0.0
C294 C 0.16493 0.76569 0.15908 0.0
C295 C 0.16855 0.7404 0.12322 0.0
C296 C 0.1706 0.70793 0.13941 0.0
C297 C 0.16931 0.70046 0.1914 0.0
C298 C 0.16605 0.72546 0.22732 0.0
C299 C 0.16395 0.75797 0.21133 0.0
H300 H 0.17091 0.67531 0.20386 0.0
H301 H 0.14601 0.99201 0.0567 0.0
H302 H 0.25172 0.08993 0.22774 0.0
H303 H 0.21288 0.13105 0.25806 0.0
H304 H 0.21659 0.0891 0.40908 0.0
H305 H 0.25462 0.04745 0.37862 0.0
H306 H 0.15612 0.10283 0.3863 0.0
H307 H 0.25748 0.16097 0.37777 0.0
H308 H 0.30807 0.18152 0.33794 0.0
H309 H 0.25159 0.23337 0.22612 0.0
H310 H 0.20063 0.21276 0.26489 0.0
H311 H 0.08924 0.23949 0.52077 0.0
H312 H 0.12848 0.19904 0.48889 0.0
H313 H 0.10627 0.22717 0.33415 0.0
H314 H 0.06655 0.26715 0.36564 0.0
H315 H 0.17566 0.22115 0.35879 0.0
H316 H 0.07399 0.16208 0.37037 0.0
H317 H 0.02437 0.14261 0.41433 0.0
H318 H 0.08349 0.09337 0.5257 0.0
H319 H 0.1335 0.113 0.48283 0.0
C320 C 0.24424 0.08952 0.26739 0.0
C321 C 0.25627 0.06555 0.30085 0.0
C322 C 0.22216 0.11311 0.28476 0.0
C323 C 0.21211 0.11347 0.33607 0.0
C324 C 0.22396 0.08935 0.36937 0.0
C325 C 0.24578 0.06562 0.35193 0.0
C326 C 0.1891 0.13878 0.35511 0.0
C327 C 0.16068 0.12869 0.3808 0.0
C328 C 0.19466 0.17258 0.34732 0.0
C329 C 0.22525 0.18504 0.32392 0.0
C330 C 0.25585 0.17654 0.34444 0.0
C331 C 0.28459 0.18824 0.3221 0.0
C332 C 0.28305 0.20866 0.27944 0.0
C333 C 0.25275 0.2175 0.25911 0.0
C334 C 0.22393 0.20584 0.28128 0.0
C335 C 0.09283 0.2371 0.47999 0.0
C336 C 0.07482 0.25634 0.44564 0.0
C337 C 0.11515 0.214 0.46187 0.0
C338 C 0.12011 0.21013 0.40921 0.0
C339 C 0.10274 0.22985 0.37491 0.0
C340 C 0.08002 0.25255 0.39295 0.0
C341 C 0.143 0.18507 0.38985 0.0
C342 C 0.17128 0.19524 0.36416 0.0
C343 C 0.13752 0.1514 0.39814 0.0
C344 C 0.10749 0.13932 0.42371 0.0
C345 C 0.07642 0.14735 0.4045 0.0
C346 C 0.04822 0.13624 0.42917 0.0
C347 C 0.05077 0.11685 0.47287 0.0
C348 C 0.08155 0.10844 0.49189 0.0
C349 C 0.10983 0.11954 0.4674 0.0
H350 H 0.02891 0.10829 0.49191 0.0
H351 H 0.30533 0.2177 0.2622 0.0
H352 H 0.76188 0.08932 0.77155 0.0
H353 H 0.80176 0.12826 0.73796 0.0
H354 H 0.76997 0.10683 0.58452 0.0
H355 H 0.73106 0.0668 0.61795 0.0
H356 H 0.83279 0.11054 0.58503 0.0
H357 H 0.7477 0.17905 0.65087 0.0
H358 H 0.70897 0.1999 0.71521 0.0
H359 H 0.78894 0.22635 0.81285 0.0
H360 H 0.82814 0.20527 0.74936 0.0
H361 H 0.90919 0.25096 0.47307 0.0
H362 H 0.86781 0.21226 0.50374 0.0
H363 H 0.90829 0.21795 0.6554 0.0
H364 H 0.94973 0.25636 0.62507 0.0
H365 H 0.84017 0.22328 0.65329 0.0
H366 H 0.92485 0.15362 0.58595 0.0
H367 H 0.96282 0.13406 0.51953 0.0
H368 H 0.88175 0.11141 0.42176 0.0
H369 H 0.84331 0.13129 0.48735 0.0
C370 C 0.76337 0.093 0.73067 0.0
C371 C 0.74329 0.07516 0.69736 0.0
C372 C 0.78606 0.11539 0.71148 0.0
C373 C 0.78854 0.12099 0.65867 0.0
C374 C 0.76854 0.10302 0.62538 0.0
C375 C 0.74623 0.08023 0.64452 0.0
C376 C 0.81228 0.1452 0.63809 0.0
C377 C 0.834 0.13533 0.59948 0.0
C378 C 0.81436 0.17747 0.65738 0.0
C379 C 0.79084 0.19031 0.69554 0.0
C380 C 0.75702 0.18911 0.68621 0.0
C381 C 0.73498 0.201 0.7225 0.0
C382 C 0.74648 0.21437 0.76814 0.0
C383 C 0.78006 0.21596 0.77751 0.0
C384 C 0.8022 0.20408 0.74136 0.0
C385 C 0.90922 0.24394 0.51292 0.0
C386 C 0.93271 0.2566 0.54666 0.0
C387 C 0.88566 0.22181 0.53034 0.0
C388 C 0.88513 0.21216 0.58178 0.0
C389 C 0.9083 0.22511 0.61559 0.0
C390 C 0.93201 0.24695 0.59814 0.0
C391 C 0.8605 0.1885 0.60058 0.0
C392 C 0.8387 0.19851 0.6388 0.0
C393 C 0.85815 0.15651 0.58063 0.0
C394 C 0.88122 0.14426 0.54136 0.0
C395 C 0.91513 0.14472 0.55013 0.0
C396 C 0.93674 0.13353 0.51267 0.0
C397 C 0.92471 0.12159 0.46641 0.0
C398 C 0.89104 0.12071 0.45759 0.0
C399 C 0.86933 0.13191 0.49491 0.0
H400 H 0.94148 0.11295 0.43744 0.0
H401 H 0.72939 0.22356 0.79619 0.0
H402 H 0.78416 0.9599 0.78686 0.0
H403 H 0.82103 0.91651 0.81566 0.0
H404 H 0.7388 0.85205 0.83673 0.0
H405 H 0.70175 0.89515 0.80667 0.0
H406 H 0.78616 0.8588 0.92351 0.0
H407 H 0.78051 0.83462 0.74374 0.0
H408 H 0.78355 0.84809 0.65215 0.0
H409 H 0.88366 0.87739 0.66979 0.0
H410 H 0.88106 0.86456 0.76171 0.0
H411 H 0.88298 0.719 0.97957 0.0
H412 H 0.84147 0.75643 0.94635 0.0
H413 H 0.91694 0.81338 0.87314 0.0
H414 H 0.9582 0.77517 0.90424 0.0
H415 H 0.86946 0.80811 0.81104 0.0
H416 H 0.87659 0.83711 0.98798 0.0
H417 H 0.87564 0.82794 0.08099 0.0
H418 H 0.77623 0.79489 0.07154 0.0
H419 H 0.77673 0.80347 0.97832 0.0
C420 C 0.77397 0.93641 0.79732 0.0
C421 C 0.74014 0.93082 0.79449 0.0
C422 C 0.79503 0.9117 0.81368 0.0
C423 C 0.78256 0.88117 0.82822 0.0
C424 C 0.7488 0.8755 0.82561 0.0
C425 C 0.72775 0.90004 0.80827 0.0
C426 C 0.80495 0.8555 0.84702 0.0
C427 C 0.80406 0.84721 0.8989 0.0
C428 C 0.82882 0.84132 0.81502 0.0
C429 C 0.83048 0.84892 0.75972 0.0
C430 C 0.80308 0.84423 0.7282 0.0
C431 C 0.80474 0.85168 0.67619 0.0
C432 C 0.83375 0.86367 0.65518 0.0
C433 C 0.86119 0.86814 0.68612 0.0
C434 C 0.85964 0.86075 0.73817 0.0
C435 C 0.89064 0.73956 0.95646 0.0
C436 C 0.92378 0.74425 0.94456 0.0
C437 C 0.86693 0.76105 0.93768 0.0
C438 C 0.87603 0.78809 0.90776 0.0
C439 C 0.90921 0.79272 0.896 0.0
C440 C 0.93281 0.77093 0.91395 0.0
C441 C 0.85114 0.81142 0.88808 0.0
C442 C 0.85151 0.81938 0.83589 0.0
C443 C 0.82718 0.8258 0.92009 0.0
C444 C 0.82682 0.82058 0.97611 0.0
C445 C 0.85461 0.82764 0.00569 0.0
C446 C 0.85414 0.82259 0.05845 0.0
C447 C 0.82593 0.81074 0.08214 0.0
C448 C 0.79809 0.804 0.05312 0.0
C449 C 0.79844 0.80898 0.00033 0.0
H450 H 0.82561 0.80686 0.12299 0.0
H451 H 0.83499 0.86942 0.61491 0.0
loop_
_geom_bond_atom_site_label_1
_geom_bond_atom_site_label_2
_geom_bond_distance
_geom_bond_site_symmetry_2
_ccdc_geom_bond_type
In0 O1 2.294 1_554 S
In0 O2 2.326 . S
In0 O6 2.266 1_554 S
In0 O7 2.326 1_454 S
In0 O8 2.266 1_455 S
In0 O9 2.326 . S
In0 O11 2.294 1_455 S
In0 O12 2.326 1_454 S
O1 In0 2.294 1_556 S
O1 C10 1.240 1_556 S
O2 In0 2.326 . S
O2 C10 1.252 . S
C3 O6 1.254 . S
C3 O7 1.258 1_455 S
C4 O11 1.240 1_556 S
C4 O12 1.252 . S
C5 O8 1.254 1_455 S
C5 O9 1.258 . S
O6 In0 2.266 1_556 S
O6 C3 1.254 . S
O7 In0 2.326 1_656 S
O7 C3 1.258 1_655 S
O8 In0 2.266 1_655 S
O8 C5 1.254 1_655 S
O9 In0 2.326 . S
O9 C5 1.258 . S
C10 O1 1.240 1_554 S
C10 O2 1.252 . S
O11 In0 2.294 1_655 S
O11 C4 1.240 1_554 S
O12 In0 2.326 1_656 S
O12 C4 1.252 . S
In13 O14 2.294 1_545 S
In13 O15 2.326 1_545 S
In13 O19 2.266 1_545 S
In13 O20 2.326 . S
In13 O21 2.266 . S
In13 O22 2.326 1_545 S
In13 O24 2.294 . S
In13 O25 2.326 . S
O14 In13 2.294 1_565 S
O14 C23 1.240 . S
O15 In13 2.326 1_565 S
O15 C23 1.252 . S
C16 O19 1.254 1_545 S
C16 O20 1.258 . S
C17 O24 1.240 . S
C17 O25 1.252 . S
C18 O21 1.254 . S
C18 O22 1.258 1_545 S
O19 In13 2.266 1_565 S
O19 C16 1.254 1_565 S
O20 In13 2.326 . S
O20 C16 1.258 . S
O21 In13 2.266 . S
O21 C18 1.254 . S
O22 In13 2.326 1_565 S
O22 C18 1.258 1_565 S
C23 O14 1.240 . S
C23 O15 1.252 . S
O24 In13 2.294 . S
O24 C17 1.240 . S
O25 In13 2.326 . S
O25 C17 1.252 . S
In26 O27 2.294 . S
In26 O28 2.326 . S
In26 O32 2.266 . S
In26 O33 2.326 1_455 S
In26 O34 2.266 1_455 S
In26 O35 2.326 . S
In26 O37 2.294 1_455 S
In26 O38 2.326 1_455 S
O27 In26 2.294 . S
O27 C36 1.240 . S
O28 In26 2.326 . S
O28 C36 1.252 . S
C29 O32 1.254 . S
C29 O33 1.258 1_455 S
C30 O37 1.240 . S
C30 O38 1.252 . S
C31 O34 1.254 1_455 S
C31 O35 1.258 . S
O32 In26 2.266 . S
O32 C29 1.254 . S
O33 In26 2.326 1_655 S
O33 C29 1.258 1_655 S
O34 In26 2.266 1_655 S
O34 C31 1.254 1_655 S
O35 In26 2.326 . S
O35 C31 1.258 . S
C36 O27 1.240 . S
C36 O28 1.252 . S
O37 In26 2.294 1_655 S
O37 C30 1.240 . S
O38 In26 2.326 1_655 S
O38 C30 1.252 . S
In39 O40 2.294 1_545 S
In39 O41 2.326 1_545 S
In39 O45 2.266 1_545 S
In39 O46 2.326 . S
In39 O47 2.266 . S
In39 O48 2.326 1_545 S
In39 O50 2.294 . S
In39 O51 2.326 . S
O40 In39 2.294 1_565 S
O40 C49 1.240 . S
O41 In39 2.326 1_565 S
O41 C49 1.252 . S
C42 O45 1.254 1_545 S
C42 O46 1.258 . S
C43 O50 1.240 . S
C43 O51 1.252 . S
C44 O47 1.254 . S
C44 O48 1.258 1_545 S
O45 In39 2.266 1_565 S
O45 C42 1.254 1_565 S
O46 In39 2.326 . S
O46 C42 1.258 . S
O47 In39 2.266 . S
O47 C44 1.254 . S
O48 In39 2.326 1_565 S
O48 C44 1.258 1_565 S
C49 O40 1.240 . S
C49 O41 1.252 . S
O50 In39 2.294 . S
O50 C43 1.240 . S
O51 In39 2.326 . S
O51 C43 1.252 . S
H52 C70 0.951 . S
H53 C72 0.951 . S
H54 C74 0.950 . S
H55 C75 0.950 . S
H56 C77 0.950 . S
H57 C80 0.950 . S
H58 C81 0.950 . S
H59 C83 0.950 . S
H60 C84 0.950 . S
H61 C85 0.951 . S
H62 C87 0.951 . S
H63 C89 0.950 . S
H64 C90 0.950 . S
H65 C92 0.950 . S
H66 C95 0.950 . S
H67 C96 0.950 . S
H68 C98 0.950 . S
H69 C99 0.950 . S
C70 H52 0.951 . S
C70 C71 1.382 . S
C70 C72 1.388 . S
C71 C70 1.382 . S
C71 C75 1.369 1_655 S
C72 H53 0.951 . S
C72 C70 1.388 . S
C72 C73 1.366 . S
C73 C72 1.366 . S
C73 C74 1.414 1_655 S
C73 C76 1.499 . S
C74 H54 0.950 . S
C74 C73 1.414 1_455 S
C74 C75 1.374 . S
C75 H55 0.950 . S
C75 C71 1.369 1_455 S
C75 C74 1.374 . S
C76 C73 1.499 . S
C76 C77 1.352 1_655 S
C76 C78 1.410 . S
C77 H56 0.950 . S
C77 C76 1.352 1_455 S
C77 C93 1.377 . S
C78 C76 1.410 . S
C78 C79 1.524 . S
C78 C92 1.377 . S
C79 C78 1.524 . S
C79 C80 1.397 . S
C79 C84 1.363 . S
C80 H57 0.950 . S
C80 C79 1.397 . S
C80 C81 1.334 . S
C81 H58 0.950 . S
C81 C80 1.334 . S
C81 C82 1.287 . S
C82 C81 1.287 . S
C82 C83 1.524 . S
C82 H101 0.913 . S
C83 H59 0.950 . S
C83 C82 1.524 . S
C83 C84 1.415 . S
C84 H60 0.950 . S
C84 C79 1.363 . S
C84 C83 1.415 . S
C85 H61 0.951 . S
C85 C86 1.347 1_455 S
C85 C87 1.388 . S
C86 C85 1.347 1_655 S
C86 C90 1.403 . S
C87 H62 0.951 . S
C87 C85 1.388 . S
C87 C88 1.367 . S
C88 C87 1.367 . S
C88 C89 1.412 1_455 S
C88 C91 1.498 1_455 S
C89 H63 0.950 . S
C89 C88 1.412 1_655 S
C89 C90 1.374 . S
C90 H64 0.950 . S
C90 C86 1.403 . S
C90 C89 1.374 . S
C91 C88 1.498 1_655 S
C91 C92 1.391 . S
C91 C93 1.372 1_655 S
C92 H65 0.950 . S
C92 C78 1.377 . S
C92 C91 1.391 . S
C93 C77 1.377 . S
C93 C91 1.372 1_455 S
C93 C94 1.524 . S
C94 C93 1.524 . S
C94 C95 1.397 . S
C94 C99 1.363 . S
C95 H66 0.950 . S
C95 C94 1.397 . S
C95 C96 1.334 . S
C96 H67 0.950 . S
C96 C95 1.334 . S
C96 C97 1.287 . S
C97 C96 1.287 . S
C97 C98 1.524 . S
C97 H100 0.999 . S
C98 H68 0.950 . S
C98 C97 1.524 . S
C98 C99 1.415 . S
C99 H69 0.950 . S
C99 C94 1.363 . S
C99 C98 1.415 . S
H100 C97 0.999 . S
H101 C82 0.913 . S
H102 C120 0.951 . S
H103 C122 0.951 . S
H104 C124 0.950 . S
H105 C125 0.950 . S
H106 C127 0.950 . S
H107 C130 0.950 . S
H108 C131 0.950 . S
H109 C133 0.950 . S
H110 C134 0.950 . S
H111 C135 0.951 . S
H112 C137 0.951 . S
H113 C139 0.950 . S
H114 C140 0.950 . S
H115 C142 0.950 . S
H116 C145 0.950 . S
H117 C146 0.964 . S
H118 C148 0.950 . S
H119 C149 0.950 . S
C120 H102 0.951 . S
C120 C121 1.347 1_545 S
C120 C122 1.388 . S
C121 C120 1.347 1_565 S
C121 C125 1.404 . S
C122 H103 0.951 . S
C122 C120 1.388 . S
C122 C123 1.366 1_545 S
C123 C122 1.366 1_565 S
C123 C124 1.414 . S
C123 C126 1.499 . S
C124 H104 0.950 . S
C124 C123 1.414 . S
C124 C125 1.374 . S
C125 H105 0.950 . S
C125 C121 1.404 . S
C125 C124 1.374 . S
C126 C123 1.499 . S
C126 C127 1.373 . S
C126 C128 1.389 1_565 S
C127 H106 0.950 . S
C127 C126 1.373 . S
C127 C143 1.377 . S
C128 C126 1.389 1_545 S
C128 C129 1.524 . S
C128 C142 1.377 . S
C129 C128 1.524 . S
C129 C130 1.397 1_545 S
C129 C134 1.363 . S
C130 H107 0.950 . S
C130 C129 1.397 1_565 S
C130 C131 1.334 . S
C131 H108 0.950 . S
C131 C130 1.334 . S
C131 C132 1.287 1_565 S
C132 C131 1.287 1_545 S
C132 C133 1.524 . S
C132 H151 0.913 . S
C133 H109 0.950 . S
C133 C132 1.524 . S
C133 C134 1.415 . S
C134 H110 0.950 . S
C134 C129 1.363 . S
C134 C133 1.415 . S
C135 H111 0.951 . S
C135 C136 1.385 . S
C135 C137 1.388 . S
C136 C135 1.385 . S
C136 C140 1.365 1_565 S
C137 H112 0.951 . S
C137 C135 1.388 . S
C137 C138 1.368 1_565 S
C138 C137 1.368 1_545 S
C138 C139 1.411 . S
C138 C141 1.499 . S
C139 H113 0.950 . S
C139 C138 1.411 . S
C139 C140 1.374 . S
C140 H114 0.950 . S
C140 C136 1.365 1_545 S
C140 C139 1.374 . S
C141 C138 1.499 . S
C141 C142 1.373 . S
C141 C143 1.389 1_545 S
C142 H115 0.950 . S
C142 C128 1.377 . S
C142 C141 1.373 . S
C143 C127 1.377 . S
C143 C141 1.389 1_565 S
C143 C144 1.524 . S
C144 C143 1.524 . S
C144 C145 1.397 1_565 S
C144 C149 1.363 . S
C145 H116 0.950 . S
C145 C144 1.397 1_545 S
C145 C146 1.337 . S
C146 H117 0.964 . S
C146 C145 1.337 . S
C146 C147 1.270 1_545 S
C147 C146 1.270 1_565 S
C147 C148 1.524 . S
C147 H150 0.999 . S
C148 H118 0.950 . S
C148 C147 1.524 . S
C148 C149 1.415 . S
C149 H119 0.950 . S
C149 C144 1.363 . S
C149 C148 1.415 . S
H150 C147 0.999 . S
H151 C132 0.913 . S
H152 C170 0.951 . S
H153 C172 0.951 . S
H154 C174 0.950 . S
H155 C175 0.950 . S
H156 C177 0.950 . S
H157 C180 0.950 . S
H158 C181 0.950 . S
H159 C183 0.934 1_455 S
H160 C184 0.960 . S
H161 C185 0.951 . S
H162 C187 0.951 . S
H163 C189 0.950 . S
H164 C190 0.950 . S
H165 C192 0.950 . S
H166 C195 0.950 . S
H167 C196 0.950 . S
H168 C198 0.963 . S
H169 C199 0.950 1_655 S
C170 H152 0.951 . S
C170 C171 1.383 . S
C170 C172 1.388 . S
C171 C170 1.383 . S
C171 C175 1.367 1_455 S
C172 H153 0.951 . S
C172 C170 1.388 . S
C172 C173 1.355 1_455 S
C173 C172 1.355 1_655 S
C173 C174 1.423 . S
C173 C176 1.499 . S
C174 H154 0.950 . S
C174 C173 1.423 . S
C174 C175 1.374 . S
C175 H155 0.950 . S
C175 C171 1.367 1_655 S
C175 C174 1.374 . S
C176 C173 1.499 . S
C176 C177 1.373 1_655 S
C176 C178 1.389 . S
C177 H156 0.950 . S
C177 C176 1.373 1_455 S
C177 C193 1.377 . S
C178 C176 1.389 . S
C178 C179 1.524 . S
C178 C192 1.377 . S
C179 C178 1.524 . S
C179 C180 1.397 . S
C179 C184 1.357 1_655 S
C180 H157 0.950 . S
C180 C179 1.397 . S
C180 C181 1.334 . S
C181 H158 0.950 . S
C181 C180 1.334 . S
C181 C182 1.287 . S
C182 C181 1.287 . S
C182 C183 1.524 . S
C182 H201 0.913 . S
C183 H159 0.934 1_655 S
C183 C182 1.524 . S
C183 C184 1.411 1_655 S
C184 H160 0.960 . S
C184 C179 1.357 1_455 S
C184 C183 1.411 1_455 S
C185 H161 0.951 . S
C185 C186 1.350 1_655 S
C185 C187 1.388 . S
C186 C185 1.350 1_455 S
C186 C190 1.401 . S
C187 H162 0.951 . S
C187 C185 1.388 . S
C187 C188 1.366 1_655 S
C188 C187 1.366 1_455 S
C188 C189 1.414 . S
C188 C191 1.499 . S
C189 H163 0.950 . S
C189 C188 1.414 . S
C189 C190 1.374 . S
C190 H164 0.950 . S
C190 C186 1.401 . S
C190 C189 1.374 . S
C191 C188 1.499 . S
C191 C192 1.373 1_455 S
C191 C193 1.389 . S
C192 H165 0.950 . S
C192 C178 1.377 . S
C192 C191 1.373 1_655 S
C193 C177 1.377 . S
C193 C191 1.389 . S
C193 C194 1.524 . S
C194 C193 1.524 . S
C194 C195 1.397 . S
C194 C199 1.363 . S
C195 H166 0.950 . S
C195 C194 1.397 . S
C195 C196 1.334 . S
C196 H167 0.950 . S
C196 C195 1.334 . S
C196 C197 1.287 . S
C197 C196 1.287 . S
C197 C198 1.524 . S
C197 H200 0.999 . S
C198 H168 0.963 . S
C198 C197 1.524 . S
C198 C199 1.415 . S
C199 H169 0.950 1_455 S
C199 C194 1.363 . S
C199 C198 1.415 . S
H200 C197 0.999 . S
H201 C182 0.913 . S
H202 C220 0.951 . S
H203 C222 0.951 . S
H204 C224 0.950 . S
H205 C225 0.950 . S
H206 C227 0.950 . S
H207 C230 0.950 1_554 S
H208 C231 0.959 . S
H209 C233 0.950 . S
H210 C234 0.950 . S
H211 C235 0.951 . S
H212 C237 0.951 . S
H213 C239 0.950 . S
H214 C240 0.950 . S
H215 C242 0.950 . S
H216 C245 0.950 1_556 S
H217 C246 0.959 . S
H218 C248 0.950 . S
H219 C249 0.950 . S
C220 H202 0.951 . S
C220 C221 1.378 . S
C220 C222 1.388 . S
C221 C220 1.378 . S
C221 C225 1.372 1_545 S
C222 H203 0.951 . S
C222 C220 1.388 . S
C222 C223 1.355 1_545 S
C223 C222 1.355 1_565 S
C223 C224 1.423 . S
C223 C226 1.499 . S
C224 H204 0.950 . S
C224 C223 1.423 . S
C224 C225 1.374 . S
C225 H205 0.950 . S
C225 C221 1.372 1_565 S
C225 C224 1.374 . S
C226 C223 1.499 . S
C226 C227 1.373 1_565 S
C226 C228 1.389 1_554 S
C227 H206 0.950 . S
C227 C226 1.373 1_545 S
C227 C243 1.377 . S
C228 C226 1.389 1_556 S
C228 C229 1.524 . S
C228 C242 1.377 . S
C229 C228 1.524 . S
C229 C230 1.397 . S
C229 C234 1.363 . S
C230 H207 0.950 1_556 S
C230 C229 1.397 . S
C230 C231 1.334 . S
C231 H208 0.959 . S
C231 C230 1.334 . S
C231 C232 1.287 . S
C232 C231 1.287 . S
C232 C233 1.524 . S
C232 H251 0.913 . S
C233 H209 0.950 . S
C233 C232 1.524 . S
C233 C234 1.415 . S
C234 H210 0.950 . S
C234 C229 1.363 . S
C234 C233 1.415 . S
C235 H211 0.951 . S
C235 C236 1.355 1_565 S
C235 C237 1.388 . S
C236 C235 1.355 1_545 S
C236 C240 1.396 . S
C237 H212 0.951 . S
C237 C235 1.388 . S
C237 C238 1.366 1_565 S
C238 C237 1.366 1_545 S
C238 C239 1.414 . S
C238 C241 1.499 . S
C239 H213 0.950 . S
C239 C238 1.414 . S
C239 C240 1.374 . S
C240 H214 0.950 . S
C240 C236 1.396 . S
C240 C239 1.374 . S
C241 C238 1.499 . S
C241 C242 1.373 1_545 S
C241 C243 1.389 1_556 S
C242 H215 0.950 . S
C242 C228 1.377 . S
C242 C241 1.373 1_565 S
C243 C227 1.377 . S
C243 C241 1.389 1_554 S
C243 C244 1.524 . S
C244 C243 1.524 . S
C244 C245 1.397 . S
C244 C249 1.363 . S
C245 H216 0.950 1_554 S
C245 C244 1.397 . S
C245 C246 1.334 . S
C246 H217 0.959 . S
C246 C245 1.334 . S
C246 C247 1.287 . S
C247 C246 1.287 . S
C247 C248 1.524 . S
C247 H250 0.999 . S
C248 H218 0.950 . S
C248 C247 1.524 . S
C248 C249 1.415 . S
C249 H219 0.950 . S
C249 C244 1.363 . S
C249 C248 1.415 . S
H250 C247 0.999 . S
H251 C232 0.913 . S
H252 C270 0.951 . S
H253 C272 0.951 . S
H254 C274 0.950 . S
H255 C275 0.950 . S
H256 C277 0.950 . S
H257 C280 0.950 . S
H258 C281 0.950 . S
H259 C283 0.950 . S
H260 C284 0.950 . S
H261 C285 0.951 . S
H262 C287 0.951 . S
H263 C289 0.950 . S
H264 C290 0.950 1_556 S
H265 C292 0.950 . S
H266 C295 0.950 . S
H267 C296 0.950 . S
H268 C298 0.950 . S
H269 C299 0.950 . S
C270 H252 0.951 . S
C270 C271 1.366 . S
C270 C272 1.388 . S
C271 C270 1.366 . S
C271 C275 1.385 . S
C272 H253 0.951 . S
C272 C270 1.388 . S
C272 C273 1.366 . S
C273 C272 1.366 . S
C273 C274 1.414 . S
C273 C276 1.499 . S
C274 H254 0.950 . S
C274 C273 1.414 . S
C274 C275 1.374 . S
C275 H255 0.950 . S
C275 C271 1.385 . S
C275 C274 1.374 . S
C276 C273 1.499 . S
C276 C277 1.373 . S
C276 C278 1.389 . S
C277 H256 0.950 . S
C277 C276 1.373 . S
C277 C293 1.377 . S
C278 C276 1.389 . S
C278 C279 1.524 . S
C278 C292 1.377 . S
C279 C278 1.524 . S
C279 C280 1.397 . S
C279 C284 1.363 . S
C280 H257 0.950 . S
C280 C279 1.397 . S
C280 C281 1.334 . S
C281 H258 0.950 . S
C281 C280 1.334 . S
C281 C282 1.287 . S
C282 C281 1.287 . S
C282 C283 1.524 . S
C282 H301 0.913 . S
C283 H259 0.950 . S
C283 C282 1.524 . S
C283 C284 1.415 . S
C284 H260 0.950 . S
C284 C279 1.363 . S
C284 C283 1.415 . S
C285 H261 0.951 . S
C285 C286 1.366 . S
C285 C287 1.388 . S
C286 C285 1.366 . S
C286 C290 1.385 . S
C287 H262 0.951 . S
C287 C285 1.388 . S
C287 C288 1.366 . S
C288 C287 1.366 . S
C288 C289 1.414 . S
C288 C291 1.499 . S
C289 H263 0.950 . S
C289 C288 1.414 . S
C289 C290 1.374 . S
C290 H264 0.950 1_554 S
C290 C286 1.385 . S
C290 C289 1.374 . S
C291 C288 1.499 . S
C291 C292 1.373 . S
C291 C293 1.389 . S
C292 H265 0.950 . S
C292 C278 1.377 . S
C292 C291 1.373 . S
C293 C277 1.377 . S
C293 C291 1.389 . S
C293 C294 1.524 . S
C294 C293 1.524 . S
C294 C295 1.397 . S
C294 C299 1.363 . S
C295 H266 0.950 . S
C295 C294 1.397 . S
C295 C296 1.334 . S
C296 H267 0.950 . S
C296 C295 1.334 . S
C296 C297 1.287 . S
C297 C296 1.287 . S
C297 C298 1.524 . S
C297 H300 0.999 . S
C298 H268 0.950 . S
C298 C297 1.524 . S
C298 C299 1.415 . S
C299 H269 0.950 . S
C299 C294 1.363 . S
C299 C298 1.415 . S
H300 C297 0.999 . S
H301 C282 0.913 . S
H302 C320 0.951 . S
H303 C322 0.951 . S
H304 C324 0.950 . S
H305 C325 0.950 . S
H306 C327 0.950 . S
H307 C330 0.950 . S
H308 C331 0.950 . S
H309 C333 0.950 . S
H310 C334 0.950 . S
H311 C335 0.951 . S
H312 C337 0.951 . S
H313 C339 0.950 . S
H314 C340 0.950 . S
H315 C342 0.950 . S
H316 C345 0.950 . S
H317 C346 0.950 . S
H318 C348 0.950 . S
H319 C349 0.950 . S
C320 H302 0.951 . S
C320 C321 1.366 . S
C320 C322 1.388 . S
C321 C320 1.366 . S
C321 C325 1.385 . S
C322 H303 0.951 . S
C322 C320 1.388 . S
C322 C323 1.366 . S
C323 C322 1.366 . S
C323 C324 1.414 . S
C323 C326 1.499 . S
C324 H304 0.950 . S
C324 C323 1.414 . S
C324 C325 1.374 . S
C325 H305 0.950 . S
C325 C321 1.385 . S
C325 C324 1.374 . S
C326 C323 1.499 . S
C326 C327 1.373 . S
C326 C328 1.389 . S
C327 H306 0.950 . S
C327 C326 1.373 . S
C327 C343 1.377 . S
C328 C326 1.389 . S
C328 C329 1.524 . S
C328 C342 1.377 . S
C329 C328 1.524 . S
C329 C330 1.397 . S
C329 C334 1.363 . S
C330 H307 0.950 . S
C330 C329 1.397 . S
C330 C331 1.334 . S
C331 H308 0.950 . S
C331 C330 1.334 . S
C331 C332 1.287 . S
C332 C331 1.287 . S
C332 C333 1.524 . S
C332 H351 0.913 . S
C333 H309 0.950 . S
C333 C332 1.524 . S
C333 C334 1.415 . S
C334 H310 0.950 . S
C334 C329 1.363 . S
C334 C333 1.415 . S
C335 H311 0.951 . S
C335 C336 1.366 . S
C335 C337 1.388 . S
C336 C335 1.366 . S
C336 C340 1.385 . S
C337 H312 0.951 . S
C337 C335 1.388 . S
C337 C338 1.366 . S
C338 C337 1.366 . S
C338 C339 1.414 . S
C338 C341 1.499 . S
C339 H313 0.950 . S
C339 C338 1.414 . S
C339 C340 1.374 . S
C340 H314 0.950 . S
C340 C336 1.385 . S
C340 C339 1.374 . S
C341 C338 1.499 . S
C341 C342 1.373 . S
C341 C343 1.389 . S
C342 H315 0.950 . S
C342 C328 1.377 . S
C342 C341 1.373 . S
C343 C327 1.377 . S
C343 C341 1.389 . S
C343 C344 1.524 . S
C344 C343 1.524 . S
C344 C345 1.397 . S
C344 C349 1.363 . S
C345 H316 0.950 . S
C345 C344 1.397 . S
C345 C346 1.334 . S
C346 H317 0.950 . S
C346 C345 1.334 . S
C346 C347 1.287 . S
C347 C346 1.287 . S
C347 C348 1.524 . S
C347 H350 0.999 . S
C348 H318 0.950 . S
C348 C347 1.524 . S
C348 C349 1.415 . S
C349 H319 0.950 . S
C349 C344 1.363 . S
C349 C348 1.415 . S
H350 C347 0.999 . S
H351 C332 0.913 . S
H352 C370 0.951 . S
H353 C372 0.951 . S
H354 C374 0.950 . S
H355 C375 0.950 . S
H356 C377 0.950 . S
H357 C380 0.950 . S
H358 C381 0.950 . S
H359 C383 0.950 . S
H360 C384 0.950 . S
H361 C385 0.951 . S
H362 C387 0.951 . S
H363 C389 0.950 . S
H364 C390 0.950 . S
H365 C392 0.950 . S
H366 C395 0.950 . S
H367 C396 0.950 . S
H368 C398 0.950 . S
H369 C399 0.950 . S
C370 H352 0.951 . S
C370 C371 1.366 . S
C370 C372 1.388 . S
C371 C370 1.366 . S
C371 C375 1.385 . S
C372 H353 0.951 . S
C372 C370 1.388 . S
C372 C373 1.366 . S
C373 C372 1.366 . S
C373 C374 1.414 . S
C373 C376 1.499 . S
C374 H354 0.950 . S
C374 C373 1.414 . S
C374 C375 1.374 . S
C375 H355 0.950 . S
C375 C371 1.385 . S
C375 C374 1.374 . S
C376 C373 1.499 . S
C376 C377 1.373 . S
C376 C378 1.389 . S
C377 H356 0.950 . S
C377 C376 1.373 . S
C377 C393 1.377 . S
C378 C376 1.389 . S
C378 C379 1.524 . S
C378 C392 1.377 . S
C379 C378 1.524 . S
C379 C380 1.397 . S
C379 C384 1.363 . S
C380 H357 0.950 . S
C380 C379 1.397 . S
C380 C381 1.334 . S
C381 H358 0.950 . S
C381 C380 1.334 . S
C381 C382 1.287 . S
C382 C381 1.287 . S
C382 C383 1.524 . S
C382 H401 0.913 . S
C383 H359 0.950 . S
C383 C382 1.524 . S
C383 C384 1.415 . S
C384 H360 0.950 . S
C384 C379 1.363 . S
C384 C383 1.415 . S
C385 H361 0.951 . S
C385 C386 1.366 . S
C385 C387 1.388 . S
C386 C385 1.366 . S
C386 C390 1.385 . S
C387 H362 0.951 . S
C387 C385 1.388 . S
C387 C388 1.366 . S
C388 C387 1.366 . S
C388 C389 1.414 . S
C388 C391 1.499 . S
C389 H363 0.950 . S
C389 C388 1.414 . S
C389 C390 1.374 . S
C390 H364 0.950 . S
C390 C386 1.385 . S
C390 C389 1.374 . S
C391 C388 1.499 . S
C391 C392 1.373 . S
C391 C393 1.389 . S
C392 H365 0.950 . S
C392 C378 1.377 . S
C392 C391 1.373 . S
C393 C377 1.377 . S
C393 C391 1.389 . S
C393 C394 1.524 . S
C394 C393 1.524 . S
C394 C395 1.397 . S
C394 C399 1.363 . S
C395 H366 0.950 . S
C395 C394 1.397 . S
C395 C396 1.334 . S
C396 H367 0.950 . S
C396 C395 1.334 . S
C396 C397 1.287 . S
C397 C396 1.287 . S
C397 C398 1.524 . S
C397 H400 0.999 . S
C398 H368 0.950 . S
C398 C397 1.524 . S
C398 C399 1.415 . S
C399 H369 0.950 . S
C399 C394 1.363 . S
C399 C398 1.415 . S
H400 C397 0.999 . S
H401 C382 0.913 . S
H402 C420 0.951 . S
H403 C422 0.951 . S
H404 C424 0.950 . S
H405 C425 0.950 . S
H406 C427 0.950 . S
H407 C430 0.950 . S
H408 C431 0.950 . S
H409 C433 0.950 . S
H410 C434 0.950 . S
H411 C435 0.951 . S
H412 C437 0.951 . S
H413 C439 0.950 . S
H414 C440 0.950 . S
H415 C442 0.950 . S
H416 C445 0.950 1_556 S
H417 C446 0.950 . S
H418 C448 0.950 . S
H419 C449 0.950 1_556 S
C420 H402 0.951 . S
C420 C421 1.366 . S
C420 C422 1.388 . S
C421 C420 1.366 . S
C421 C425 1.385 . S
C422 H403 0.951 . S
C422 C420 1.388 . S
C422 C423 1.366 . S
C423 C422 1.366 . S
C423 C424 1.414 . S
C423 C426 1.499 . S
C424 H404 0.950 . S
C424 C423 1.414 . S
C424 C425 1.374 . S
C425 H405 0.950 . S
C425 C421 1.385 . S
C425 C424 1.374 . S
C426 C423 1.499 . S
C426 C427 1.373 . S
C426 C428 1.389 . S
C427 H406 0.950 . S
C427 C426 1.373 . S
C427 C443 1.377 . S
C428 C426 1.389 . S
C428 C429 1.524 . S
C428 C442 1.377 . S
C429 C428 1.524 . S
C429 C430 1.397 . S
C429 C434 1.363 . S
C430 H407 0.950 . S
C430 C429 1.397 . S
C430 C431 1.334 . S
C431 H408 0.950 . S
C431 C430 1.334 . S
C431 C432 1.287 . S
C432 C431 1.287 . S
C432 C433 1.524 . S
C432 H451 0.913 . S
C433 H409 0.950 . S
C433 C432 1.524 . S
C433 C434 1.415 . S
C434 H410 0.950 . S
C434 C429 1.363 . S
C434 C433 1.415 . S
C435 H411 0.951 . S
C435 C436 1.366 . S
C435 C437 1.388 . S
C436 C435 1.366 . S
C436 C440 1.385 . S
C437 H412 0.951 . S
C437 C435 1.388 . S
C437 C438 1.366 . S
C438 C437 1.366 . S
C438 C439 1.414 . S
C438 C441 1.499 . S
C439 H413 0.950 . S
C439 C438 1.414 . S
C439 C440 1.374 . S
C440 H414 0.950 . S
C440 C436 1.385 . S
C440 C439 1.374 . S
C441 C438 1.499 . S
C441 C442 1.373 . S
C441 C443 1.389 . S
C442 H415 0.950 . S
C442 C428 1.377 . S
C442 C441 1.373 . S
C443 C427 1.377 . S
C443 C441 1.389 . S
C443 C444 1.524 . S
C444 C443 1.524 . S
C444 C445 1.397 1_556 S
C444 C449 1.363 1_556 S
C445 H416 0.950 1_554 S
C445 C444 1.397 1_554 S
C445 C446 1.334 . S
C446 H417 0.950 . S
C446 C445 1.334 . S
C446 C447 1.287 . S
C447 C446 1.287 . S
C447 C448 1.524 . S
C447 H450 0.999 . S
C448 H418 0.950 . S
C448 C447 1.524 . S
C448 C449 1.415 . S
C449 H419 0.950 1_554 S
C449 C444 1.363 1_554 S
C449 C448 1.415 . S
H450 C447 0.999 . S
H451 C432 0.913 . S
C71 C5 1.452 1_655 S
C86 C31 1.451 1_655 S
C121 C16 1.453 1_565 S
C136 C42 1.452 1_565 S
C171 C3 1.452 . S
C186 C29 1.454 . S
C221 C18 1.452 . S
C236 C44 1.452 . S
C271 C23 1.568 . S
C286 C10 1.567 . S
C321 C17 1.568 . S
C336 C36 1.563 . S
C371 C43 1.568 . S
C386 C30 1.568 . S
C421 C49 1.568 . S
C436 C4 1.575 . S
