# Generated by pormake.
# Topology wjd, (6)-cn, num edge types: 1
# Building blocks:
#     Node 0, Type 0, BuildingBlock: PAMTOO_clean_sbu_0, # of connection points: 6
#     Node 1, Type 0, BuildingBlock: PAMTOO_clean_sbu_0, # of connection points: 6
#     Node 2, Type 0, BuildingBlock: PAMTOO_clean_sbu_0, # of connection points: 6
#     Node 3, Type 0, BuildingBlock: PAMTOO_clean_sbu_0, # of connection points: 6
#     Node 4, Type 0, BuildingBlock: PAMTOO_clean_sbu_0, # of connection points: 6
#     Node 5, Type 0, BuildingBlock: PAMTOO_clean_sbu_0, # of connection points: 6
#     Node 6, Type 0, BuildingBlock: PAMTOO_clean_sbu_0, # of connection points: 6
#     Node 7, Type 0, BuildingBlock: PAMTOO_clean_sbu_0, # of connection points: 6
#     Node 8, Type 0, BuildingBlock: PAMTOO_clean_sbu_0, # of connection points: 6
#     Node 9, Type 0, BuildingBlock: PAMTOO_clean_sbu_0, # of connection points: 6
#     Node 10, Type 0, BuildingBlock: PAMTOO_clean_sbu_0, # of connection points: 6
#     Node 11, Type 0, BuildingBlock: PAMTOO_clean_sbu_0, # of connection points: 6
#     Edge 12, Type (0, 0), None
#     Edge 13, Type (0, 0), None
#     Edge 14, Type (0, 0), None
#     Edge 15, Type (0, 0), None
#     Edge 16, Type (0, 0), None
#     Edge 17, Type (0, 0), None
#     Edge 18, Type (0, 0), None
#     Edge 19, Type (0, 0), None
#     Edge 20, Type (0, 0), None
#     Edge 21, Type (0, 0), None
#     Edge 22, Type (0, 0), None
#     Edge 23, Type (0, 0), None
#     Edge 24, Type (0, 0), None
#     Edge 25, Type (0, 0), None
#     Edge 26, Type (0, 0), None
#     Edge 27, Type (0, 0), None
#     Edge 28, Type (0, 0), None
#     Edge 29, Type (0, 0), None
#     Edge 30, Type (0, 0), None
#     Edge 31, Type (0, 0), None
#     Edge 32, Type (0, 0), None
#     Edge 33, Type (0, 0), None
#     Edge 34, Type (0, 0), None
#     Edge 35, Type (0, 0), None
#     Edge 36, Type (0, 0), None
#     Edge 37, Type (0, 0), None
#     Edge 38, Type (0, 0), None
#     Edge 39, Type (0, 0), None
#     Edge 40, Type (0, 0), None
#     Edge 41, Type (0, 0), None
#     Edge 42, Type (0, 0), None
#     Edge 43, Type (0, 0), None
#     Edge 44, Type (0, 0), None
#     Edge 45, Type (0, 0), None
#     Edge 46, Type (0, 0), None
#     Edge 47, Type (0, 0), None
# Relax obj value: 0.110
# Max RMSD: 0.283
# Mean RMSD: 0.283
data_MOF--net-wjd--node1-PAMTOO_clean_sbu_0--edge1-none
_symmetry_space_group_name_H-M    P1
_symmetry_Int_Tables_number       1
_symmetry_cell_setting            triclinic
loop_
_symmetry_equiv_pos_as_xyz
'x, y, z'
_cell_length_a     24.00224
_cell_length_b     23.998729
_cell_length_c     23.02212
_cell_angle_alpha  89.987195
_cell_angle_beta   89.954112
_cell_angle_gamma 120.062
loop_
_atom_site_label
_atom_site_type_symbol
_atom_site_fract_x
_atom_site_fract_y
_atom_site_fract_z
_atom_type_partial_charge
Dy0 Dy 0.31156 0.0531 0.10393 0.0
Dy1 Dy 0.40756 0.19569 0.06594 0.0
C2 C 0.35923 0.05799 0.97974 0.0
O3 O 0.41344 0.05977 0.10195 0.0
O4 O 0.47999 0.16527 0.06862 0.0
O5 O 0.23118 0.98762 0.05311 0.0
O6 O 0.24876 0.95434 0.13546 0.0
O7 O 0.41872 0.19565 0.16438 0.0
O8 O 0.33037 0.09715 0.18843 0.0
O9 O 0.30964 0.18212 0.05037 0.0
O10 O 0.263 0.11111 0.12395 0.0
O11 O 0.42265 0.29161 0.07276 0.0
O12 O 0.48017 0.27352 0.01077 0.0
C13 C 0.47155 0.10894 0.08462 0.0
O14 O 0.35364 0.0946 0.01864 0.0
O15 O 0.35241 0.09445 0.02033 0.0
C16 C 0.13773 0.90877 0.10063 0.0
C17 C 1.00119 0.83288 0.09954 0.0
C18 C 0.03272 0.88843 0.06541 0.0
C19 C 0.09994 0.92617 0.06625 0.0
C20 C 0.10566 0.85436 0.13669 0.0
C21 C 0.03798 0.81686 0.13625 0.0
C22 C 0.20903 0.94141 0.09146 0.0
C23 C 0.38019 0.15229 0.20282 0.0
C24 C 0.26445 0.15543 0.08962 0.0
C25 C 0.52352 0.38436 0.0488 0.0
C26 C 0.61761 0.51637 0.0764 0.0
C27 C 0.59645 0.46695 0.11845 0.0
C28 C 0.54963 0.40237 0.1052 0.0
C29 C 0.54391 0.43385 0.00707 0.0
C30 C 0.59036 0.49834 0.02044 0.0
C31 C 0.46931 0.31712 0.03474 0.0
H32 H 1.00551 0.90128 0.03624 0.0
H33 H 0.12221 0.96739 0.03745 0.0
H34 H 0.13293 0.83912 0.16316 0.0
H35 H 1.01452 0.77362 0.16255 0.0
H36 H 0.61825 0.47778 0.16117 0.0
H37 H 0.53449 0.36623 0.13899 0.0
H38 H 0.5242 0.42255 0.96355 0.0
H39 H 0.6074 0.53382 -0.01407 0.0
Dy40 Dy 0.82506 0.63937 0.39787 0.0
Dy41 Dy 0.78013 0.73555 0.35528 0.0
C42 C 0.79794 0.6536 0.26386 0.0
O43 O 0.92013 0.72968 0.39607 0.0
O44 O 0.88825 0.7844 0.33532 0.0
O45 O 0.81524 0.54555 0.38985 0.0
O46 O 0.87977 0.61046 0.45585 0.0
O47 O 0.77977 0.69786 0.44312 0.0
O48 O 0.78096 0.69839 0.44172 0.0
O49 O 0.6813 0.63853 0.36427 0.0
O50 O 0.71951 0.57389 0.40195 0.0
O51 O 0.77462 0.81264 0.39743 0.0
O52 O 0.75938 0.80099 0.30483 0.0
C53 C 0.93415 0.77862 0.36178 0.0
O54 O 0.83841 0.64942 0.29986 0.0
O55 O 0.75605 0.66878 0.28298 0.0
C56 C 0.90258 0.52749 0.41483 0.0
C57 C 0.95563 0.44394 0.39177 0.0
C58 C 0.93475 0.46873 0.3464 0.0
C59 C 0.90905 0.50973 0.35758 0.0
C60 C 0.92754 0.50636 0.45976 0.0
C61 C 0.95305 0.46528 0.44852 0.0
C62 C 0.85878 0.55506 0.42876 0.0
C63 C 0.73813 0.69275 0.48257 0.0
C64 C 0.67163 0.58153 0.38482 0.0
C65 C 0.80593 0.90976 0.34524 0.0
C66 C 0.86459 0.04725 0.35041 0.0
C67 C 0.88615 1.01444 0.38626 0.0
C68 C 0.85744 0.94682 0.38367 0.0
C69 C 0.78622 0.9431 0.30786 0.0
C70 C 0.81495 1.01079 0.31054 0.0
C71 C 0.76681 0.83734 0.35004 0.0
H72 H 0.93258 0.45158 0.30247 0.0
H73 H 0.88984 0.52365 0.32141 0.0
H74 H 0.9227 0.51739 0.50445 0.0
H75 H 0.96535 0.44529 0.48522 0.0
H76 H 0.92339 0.04084 0.41819 0.0
H77 H 0.87391 0.92339 0.4137 0.0
H78 H 0.74645 0.91652 0.27827 0.0
H79 H 0.79659 0.03446 0.28287 0.0
Dy80 Dy 0.99502 0.26479 0.10038 0.0
Dy81 Dy 0.85387 0.22954 0.06524 0.0
C82 C 0.99277 0.31452 0.97847 0.0
O83 O 0.99237 0.36262 0.1046 0.0
O84 O 0.89646 0.33315 0.05622 0.0
O85 O 0.07206 0.26484 0.05375 0.0
O86 O 0.08725 0.29406 0.14398 0.0
O87 O 0.85812 0.24479 0.16258 0.0
O88 O 0.94099 0.22511 0.18069 0.0
O89 O 0.8376 0.13519 0.09844 0.0
O90 O 0.94147 0.15612 0.0917 0.0
O91 O 0.77263 0.24445 0.06173 0.0
O92 O 0.7695 0.1667 0.01104 0.0
C93 C 0.94949 0.37704 0.08042 0.0
O94 O 0.95551 0.2701 0.01542 0.0
O95 O 0.95448 0.26842 0.01701 0.0
C96 C 0.14305 0.2407 0.10406 0.0
C97 C 0.21964 0.18061 0.09846 0.0
C98 C 0.16392 0.15776 0.0646 0.0
C99 C 0.12588 0.187 0.06762 0.0
C100 C 0.19773 0.26196 0.1395 0.0
C101 C 0.23548 0.23211 0.13686 0.0
C102 C 0.11029 0.27973 0.09816 0.0
C103 C 0.89409 0.2336 0.19871 0.0
C104 C 0.87947 0.11534 0.09882 0.0
C105 C 0.6664 0.15336 0.04852 0.0
C106 C 0.53194 0.10459 0.0773 0.0
C107 C 0.58052 0.13081 0.12012 0.0
C108 C 0.64625 0.15432 0.10617 0.0
C109 C 0.61743 0.12348 0.00648 0.0
C110 C 0.55179 0.09999 0.0205 0.0
C111 C 0.73677 0.19366 0.0301 0.0
H112 H 0.15088 0.11852 0.03438 0.0
H113 H 0.0844 0.16903 0.0393 0.0
H114 H 0.21285 0.30339 0.16744 0.0
H115 H 0.27855 0.25095 0.16319 0.0
H116 H 0.56847 0.13838 0.16366 0.0
H117 H 0.68188 0.17752 0.14002 0.0
H118 H 0.63031 0.12263 0.96152 0.0
H119 H 0.51705 0.08353 -0.01455 0.0
Dy120 Dy 0.4115 0.19476 0.39792 0.0
Dy121 Dy 0.31545 0.0534 0.35525 0.0
C122 C 0.39704 0.15348 0.26365 0.0
O123 O 0.32118 0.19892 0.39677 0.0
O124 O 0.26702 0.11282 0.33527 0.0
O125 O 0.50541 0.27883 0.39022 0.0
O126 O 0.44006 0.27832 0.4559 0.0
O127 O 0.35228 0.09132 0.44326 0.0
O128 O 0.35171 0.09177 0.44175 0.0
O129 O 0.41199 0.05137 0.36482 0.0
O130 O 0.47652 0.15427 0.40263 0.0
O131 O 0.2376 0.971 0.39703 0.0
O132 O 0.25034 0.96705 0.30468 0.0
C133 C 0.27265 0.16425 0.36211 0.0
O134 O 0.40153 0.19817 0.29986 0.0
O135 O 0.3817 0.09624 0.28251 0.0
C136 C 0.52321 0.38415 0.41507 0.0
C137 C 0.6069 0.52073 0.39204 0.0
C138 C 0.58197 0.47515 0.3466 0.0
C139 C 0.54088 0.4084 0.35779 0.0
C140 C 0.54446 0.43019 0.46005 0.0
C141 C 0.58564 0.49679 0.44881 0.0
C142 C 0.49564 0.3128 0.42903 0.0
C143 C 0.35444 0.05478 0.48441 0.0
C144 C 0.46883 0.09868 0.38553 0.0
C145 C 0.14123 0.90476 0.3445 0.0
C146 C 1.00388 0.8258 0.3508 0.0
C147 C 0.0365 0.88296 0.38322 0.0
C148 C 0.10412 0.92192 0.38012 0.0
C149 C 0.10805 0.8489 0.31031 0.0
C150 C 0.04043 0.80988 0.31356 0.0
C151 C 0.21353 0.9382 0.34971 0.0
H152 H 0.5991 0.49022 0.30265 0.0
H153 H 0.52683 0.37524 0.32162 0.0
H154 H 0.53346 0.41426 0.50475 0.0
H155 H 0.60577 0.52909 0.48551 0.0
H156 H 1.01 0.89605 0.41303 0.0
H157 H 0.12753 0.96407 0.40769 0.0
H158 H 0.13473 0.83365 0.28302 0.0
H159 H 1.01686 0.76579 0.2885 0.0
Dy160 Dy 0.78204 0.73776 0.10403 0.0
Dy161 Dy 0.83272 0.64458 0.06622 0.0
C162 C 0.74866 0.69892 0.97637 0.0
O163 O 0.68886 0.63472 0.10039 0.0
O164 O 0.73043 0.5702 0.0678 0.0
O165 O 0.80028 0.82155 0.0566 0.0
O166 O 0.73945 0.79518 0.13385 0.0
O167 O 0.8198 0.6329 0.16466 0.0
O168 O 0.80684 0.71952 0.18862 0.0
O169 O 0.91422 0.74362 0.05046 0.0
O170 O 0.88821 0.78701 0.12554 0.0
O171 O 0.91444 0.63169 0.07735 0.0
O172 O 0.84348 0.57488 0.01138 0.0
C173 C 0.68164 0.5773 0.08342 0.0
O174 O 0.78436 0.69768 0.01856 0.0
O175 O 0.78525 0.69863 0.0205 0.0
C176 C 0.80236 0.90881 0.10582 0.0
C177 C 0.85524 0.04488 0.10559 0.0
C178 C 0.89192 1.01768 0.08632 0.0
C179 C 0.86588 0.95066 0.08636 0.0
C180 C 0.76721 0.93623 0.12838 0.0
C181 C 0.79327 1.00338 0.12829 0.0
C182 C 0.76942 0.83835 0.09278 0.0
C183 C 0.81333 0.67047 0.20301 0.0
C184 C 0.93169 0.78739 0.09077 0.0
C185 C 0.91289 0.53403 0.05128 0.0
C186 C 0.95582 0.44276 0.07583 0.0
C187 C 0.9303 0.46465 0.11984 0.0
C188 C 0.91002 0.50998 0.10801 0.0
C189 C 0.9396 0.51327 0.00771 0.0
C190 C 0.95984 0.46825 0.01958 0.0
C191 C 0.89696 0.58661 0.03811 0.0
H192 H 0.93969 0.04792 0.06857 0.0
H193 H 0.8947 0.93166 0.06837 0.0
H194 H 0.71831 0.90563 0.14349 0.0
H195 H 0.76398 0.02268 0.14443 0.0
H196 H 0.92233 0.44375 0.16288 0.0
H197 H 0.89079 0.52524 0.14321 0.0
H198 H 0.94401 0.53121 0.96377 0.0
H199 H 0.97494 0.44996 -0.01652 0.0
Dy200 Dy 0.85532 0.22573 0.39577 0.0
Dy201 Dy 0.99814 0.27102 0.35593 0.0
C202 C 0.8994 0.24957 0.26004 0.0
O203 O 0.85037 0.13065 0.39347 0.0
O204 O 0.93932 0.16302 0.33542 0.0
O205 O 0.77133 0.23567 0.38911 0.0
O206 O 0.77203 0.17029 0.45401 0.0
O207 O 0.95736 0.27024 0.44233 0.0
O208 O 0.95717 0.2693 0.44072 0.0
O209 O 0.99937 0.3696 0.36502 0.0
O210 O 0.89549 0.33118 0.40045 0.0
O211 O 0.07293 0.26543 0.40186 0.0
O212 O 0.0909 0.2998 0.31329 0.0
C213 C 0.88652 0.11696 0.36058 0.0
O214 O 0.85266 0.21496 0.29739 0.0
O215 O 0.95935 0.28566 0.27605 0.0
C216 C 0.66619 0.1479 0.4142 0.0
C217 C 0.52962 0.09485 0.39215 0.0
C218 C 0.57493 0.11596 0.34641 0.0
C219 C 0.6417 0.14169 0.35713 0.0
C220 C 0.6204 0.12262 0.45944 0.0
C221 C 0.55375 0.09704 0.44867 0.0
C222 C 0.73753 0.19165 0.42783 0.0
C223 C 0.99373 0.30783 0.48404 0.0
C224 C 0.9516 0.37916 0.38449 0.0
C225 C 0.14589 0.24405 0.35011 0.0
C226 C 0.22499 0.18605 0.35228 0.0
C227 C 0.1689 0.16112 0.38618 0.0
C228 C 0.12985 0.1895 0.38507 0.0
C229 C 0.20064 0.26709 0.31427 0.0
C230 C 0.23976 0.2386 0.31548 0.0
C231 C 0.11239 0.28242 0.35812 0.0
H232 H 0.55963 0.1183 0.30267 0.0
H233 H 0.67468 0.16114 0.3208 0.0
H234 H 0.63657 0.12727 0.504 0.0
H235 H 0.52158 0.08434 0.48557 0.0
H236 H 0.15687 0.12152 0.41575 0.0
H237 H 0.08865 0.17034 0.41389 0.0
H238 H 0.21503 0.3092 0.28739 0.0
H239 H 0.28316 0.2594 0.28936 0.0
Dy240 Dy 0.20537 0.39471 0.56612 0.0
Dy241 Dy 0.06178 0.30093 0.60464 0.0
C242 C 0.16091 0.37119 0.70352 0.0
O243 O 0.18711 0.29553 0.55022 0.0
O244 O 0.12011 0.25346 0.62696 0.0
O245 O 0.29999 0.4062 0.57101 0.0
O246 O 0.28359 0.46591 0.51025 0.0
O247 O 0.10399 0.3423 0.51933 0.0
O248 O 0.10379 0.34115 0.52112 0.0
O249 O 0.07044 0.40345 0.60033 0.0
O250 O 0.17787 0.46914 0.57131 0.0
O251 O 0.99613 0.21811 0.55591 0.0
O252 O 0.96242 0.2406 0.6356 0.0
C253 C 0.16229 0.25257 0.59138 0.0
O254 O 0.20676 0.40503 0.66495 0.0
O255 O 0.10337 0.32473 0.68976 0.0
C256 C 0.39462 0.50545 0.54639 0.0
C257 C 0.52848 0.59621 0.57148 0.0
C258 C 0.48104 0.573 0.61552 0.0
C259 C 0.41558 0.52796 0.6034 0.0
C260 C 0.44209 0.52772 0.50259 0.0
C261 C 0.50736 0.57271 0.51476 0.0
C262 C 0.32624 0.45298 0.53315 0.0
C263 C 0.06758 0.34502 0.47858 0.0
C264 C 0.12136 0.46148 0.58542 0.0
C265 C 0.91414 0.12757 0.60559 0.0
C266 C 0.83307 0.99112 0.60846 0.0
C267 C 0.89108 1.01933 0.57734 0.0
C268 C 0.93107 0.08651 0.5759 0.0
C269 C 0.85758 0.09883 0.63924 0.0
C270 C 0.81738 0.03139 0.64046 0.0
C271 C 0.94933 0.19862 0.59353 0.0
H272 H 0.49399 0.59239 0.65906 0.0
H273 H 0.38104 0.51151 0.63866 0.0
H274 H 0.42855 0.5109 0.45839 0.0
H275 H 0.54105 0.59194 0.47888 0.0
H276 H 0.90376 0.98964 0.55138 0.0
H277 H 0.97375 0.10619 0.54889 0.0
H278 H 0.84268 0.1286 0.6622 0.0
H279 H 0.77257 1.01079 0.6645 0.0
Dy280 Dy 0.28446 0.98788 0.85711 0.0
Dy281 Dy 0.23795 0.84505 0.89758 0.0
C282 C 0.32157 0.984 -0.01478 0.0
O283 O 0.38253 0.98877 0.86699 0.0
O284 O 0.34287 0.88355 0.89946 0.0
O285 O 0.28277 0.06565 0.90167 0.0
O286 O 0.31004 0.07828 0.81117 0.0
O287 O 0.22468 0.84241 0.79959 0.0
O288 O 0.30417 0.94614 0.78141 0.0
O289 O 0.14371 0.84058 0.894 0.0
O290 O 0.17723 0.92954 0.83565 0.0
O291 O 0.24701 0.76065 0.89053 0.0
O292 O 0.18214 0.76191 0.95583 0.0
C293 C 0.39114 0.93985 0.88469 0.0
O294 O 0.28291 0.94771 0.94402 0.0
O295 O 0.28187 0.9473 0.94248 0.0
C296 C 0.25784 0.13634 0.84991 0.0
C297 C 0.20007 0.21602 0.85464 0.0
C298 C 0.17528 0.15929 0.88776 0.0
C299 C 0.2036 0.12005 0.88546 0.0
C300 C 0.28071 0.19173 0.81492 0.0
C301 C 0.25243 0.23108 0.81742 0.0
C302 C 0.29637 0.10259 0.85639 0.0
C303 C 0.263 0.88824 0.76315 0.0
C304 C 0.13096 0.8767 0.86032 0.0
C305 C 0.15869 0.65599 0.9154 0.0
C306 C 0.10596 0.51974 0.89249 0.0
C307 C 0.12568 0.56511 0.8469 0.0
C308 C 0.15134 0.6318 0.85806 0.0
C309 C 0.13452 0.6101 0.96049 0.0
C310 C 0.10929 0.54367 0.9493 0.0
C311 C 0.20294 0.72708 0.92929 0.0
H312 H 0.13574 0.14676 0.91754 0.0
H313 H 0.18457 0.07835 0.91368 0.0
H314 H 0.32255 0.20639 0.78759 0.0
H315 H 0.27308 0.27474 0.79169 0.0
H316 H 0.12719 0.54999 0.80287 0.0
H317 H 0.16998 0.66498 0.82181 0.0
H318 H 0.14007 0.62607 0.00519 0.0
H319 H 0.09798 0.51151 -0.01397 0.0
Dy320 Dy 0.64576 0.8134 0.56557 0.0
Dy321 Dy 0.74267 0.76858 0.60604 0.0
C322 C 0.66423 0.78908 0.69985 0.0
O323 O 0.73542 0.90811 0.56641 0.0
O324 O 0.79165 0.87635 0.62544 0.0
O325 O 0.5509 0.80082 0.57297 0.0
O326 O 0.61645 0.86908 0.50929 0.0
O327 O 0.70385 0.76883 0.51882 0.0
O328 O 0.70449 0.76988 0.52034 0.0
O329 O 0.64628 0.66993 0.59729 0.0
O330 O 0.58051 0.70829 0.56291 0.0
O331 O 0.81947 0.76542 0.56153 0.0
O332 O 0.80985 0.74778 0.65378 0.0
C333 C 0.7848 0.92193 0.5998 0.0
O334 O 0.65772 0.8279 0.6634 0.0
O335 O 0.67978 0.74726 0.68117 0.0
C336 C 0.53148 0.88784 0.55163 0.0
C337 C 0.44509 0.9366 0.57703 0.0
C338 C 0.46876 0.91341 0.62138 0.0
C339 C 0.51134 0.88996 0.60907 0.0
C340 C 0.51142 0.91519 0.50796 0.0
C341 C 0.46901 0.93877 0.52037 0.0
C342 C 0.56036 0.84582 0.53569 0.0
C343 C 0.70136 0.72998 0.47767 0.0
C344 C 0.58885 0.66057 0.57871 0.0
C345 C 0.91763 0.79685 0.61036 0.0
C346 C 0.05462 0.85748 0.6004 0.0
C347 C 1.01988 0.87784 0.566 0.0
C348 C 0.95247 0.84831 0.5711 0.0
C349 C 0.95296 0.77806 0.64604 0.0
C350 C 1.02055 0.80811 0.64126 0.0
C351 C 0.84534 0.75674 0.60751 0.0
H352 H 0.44983 0.90795 0.66503 0.0
H353 H 0.52457 0.86893 0.64425 0.0
H354 H 0.52442 0.91374 0.46315 0.0
H355 H 0.45013 0.95334 0.48437 0.0
H356 H 0.04467 0.91541 0.53391 0.0
H357 H 0.92744 0.86422 0.54241 0.0
H358 H 0.92804 0.73828 0.67604 0.0
H359 H 0.04602 0.79107 0.6681 0.0
Dy360 Dy 0.06604 0.30638 0.8556 0.0
Dy361 Dy 0.20652 0.40262 0.8977 0.0
C362 C 0.06691 0.34925 -0.01657 0.0
O363 O 0.06402 0.40305 0.86271 0.0
O364 O 0.16493 0.46649 0.9043 0.0
O365 O 0.97675 0.23498 0.89417 0.0
O366 O 0.98628 0.23697 0.80105 0.0
O367 O 0.20897 0.39136 0.79971 0.0
O368 O 0.1087 0.37576 0.78498 0.0
O369 O 0.21305 0.31341 0.89767 0.0
O370 O 0.12516 0.25656 0.83875 0.0
O371 O 0.2883 0.49768 0.88782 0.0
O372 O 0.2926 0.43461 0.95325 0.0
C373 C 0.11023 0.45932 0.88528 0.0
O374 O 0.10272 0.34272 0.94404 0.0
O375 O 0.10355 0.34231 0.94274 0.0
C376 C 0.91936 0.13308 0.84764 0.0
C377 C 0.846 0.99621 0.86102 0.0
C378 C 0.89877 0.03379 0.89739 0.0
C379 C 0.93533 0.10122 0.89052 0.0
C380 C 0.86738 0.09505 0.81053 0.0
C381 C 0.83143 0.02755 0.81691 0.0
C382 C 0.95094 0.20531 0.84594 0.0
C383 C 0.1646 0.3889 0.76444 0.0
C384 C 0.1776 0.26345 0.86465 0.0
C385 C 0.39599 0.52015 0.90968 0.0
C386 C 0.5318 0.6073 0.88516 0.0
C387 C 0.48495 0.58504 0.84077 0.0
C388 C 0.41869 0.54219 0.85263 0.0
C389 C 0.44334 0.5391 0.95333 0.0
C390 C 0.50956 0.58185 0.94138 0.0
C391 C 0.32466 0.49003 0.92552 0.0
H392 H 0.91098 1.01114 0.93195 0.0
H393 H 0.97483 0.12862 0.92016 0.0
H394 H 0.8531 0.11779 0.77773 0.0
H395 H 0.79055 1.0 0.78866 0.0
H396 H 0.49869 0.6051 0.79749 0.0
H397 H 0.38461 0.53002 0.81744 0.0
H398 H 0.42871 0.52476 -0.00209 0.0
H399 H 0.54292 0.59948 0.97751 0.0
Dy400 Dy 0.22897 0.84369 0.56612 0.0
Dy401 Dy 0.27506 0.98636 0.60304 0.0
C402 C 0.2464 0.88829 0.70245 0.0
O403 O 0.14298 0.85533 0.55193 0.0
O404 O 0.16828 0.9288 0.62347 0.0
O405 O 0.149 0.74737 0.57443 0.0
O406 O 0.22378 0.76559 0.51139 0.0
O407 O 0.27516 0.94436 0.51795 0.0
O408 O 0.27404 0.94446 0.51961 0.0
O409 O 0.37058 0.98032 0.60153 0.0
O410 O 0.3323 0.87527 0.56759 0.0
O411 O 0.26107 0.0522 0.55201 0.0
O412 O 0.31156 0.08517 0.63448 0.0
C413 C 0.12486 0.88315 0.59041 0.0
O414 O 0.24219 0.84504 0.66433 0.0
O415 O 0.25007 0.94258 0.68769 0.0
C416 C 0.15705 0.65468 0.55026 0.0
C417 C 0.11852 0.52252 0.5782 0.0
C418 C 0.14708 0.57203 0.6201 0.0
C419 C 0.16512 0.63666 0.60669 0.0
C420 C 0.12791 0.60514 0.50861 0.0
C421 C 0.10966 0.54062 0.52213 0.0
C422 C 0.16982 0.72186 0.53617 0.0
C423 C 0.31781 0.98079 0.47918 0.0
C424 C 0.38001 0.93168 0.58379 0.0
C425 C 0.24687 0.13128 0.59912 0.0
C426 C 0.1861 0.2069 0.59927 0.0
C427 C 0.16446 0.15394 0.5622 0.0
C428 C 0.19394 0.11632 0.5624 0.0
C429 C 0.26706 0.18324 0.63783 0.0
C430 C 0.23674 0.22057 0.63805 0.0
C431 C 0.28526 0.0984 0.59028 0.0
H432 H 0.15802 0.56122 0.66285 0.0
H433 H 0.18622 0.67281 0.64042 0.0
H434 H 0.11959 0.61641 0.46504 0.0
H435 H 0.09142 0.50518 0.48763 0.0
H436 H 0.12618 0.14301 0.53142 0.0
H437 H 0.17677 0.07717 0.53146 0.0
H438 H 0.30791 0.19666 0.6661 0.0
H439 H 0.25485 0.26198 0.66651 0.0
Dy440 Dy 0.75322 0.77547 0.85611 0.0
Dy441 Dy 0.65941 0.8233 0.89778 0.0
C442 C 0.71162 0.73574 -0.0172 0.0
O443 O 0.65016 0.68102 0.85862 0.0
O444 O 0.58632 0.72012 0.89815 0.0
O445 O 0.83588 0.79013 0.9034 0.0
O446 O 0.81263 0.73691 0.82189 0.0
O447 O 0.64433 0.80921 0.79975 0.0
O448 O 0.73466 0.8043 0.77312 0.0
O449 O 0.75847 0.90735 0.91218 0.0
O450 O 0.8021 0.88256 0.83654 0.0
O451 O 0.64535 0.90464 0.89007 0.0
O452 O 0.58858 0.83081 0.95392 0.0
C453 C 0.59312 0.67208 0.87926 0.0
O454 O 0.71414 0.77562 0.94279 0.0
O455 O 0.71528 0.7766 0.94099 0.0
C456 C 0.92573 0.80016 0.85186 0.0
C457 C 0.06208 0.85584 0.85027 0.0
C458 C 0.03365 0.88657 0.87941 0.0
C459 C 0.96647 0.85923 0.8802 0.0
C460 C 0.95471 0.77148 0.81991 0.0
C461 C 1.02212 0.79885 0.81938 0.0
C462 C 0.85482 0.76398 0.86414 0.0
C463 C 0.68303 0.80677 0.76008 0.0
C464 C 0.80267 0.9258 0.87189 0.0
C465 C 0.54637 0.89999 0.91637 0.0
C466 C 0.45525 0.94304 0.892 0.0
C467 C 0.47856 0.91926 0.8477 0.0
C468 C 0.52374 0.89891 0.85945 0.0
C469 C 0.52371 0.92443 0.96048 0.0
C470 C 0.47858 0.94467 0.94869 0.0
C471 C 0.59973 0.88503 0.92906 0.0
H472 H 0.0631 0.92972 0.90455 0.0
H473 H 0.94652 0.88291 0.90584 0.0
H474 H 0.92514 0.72603 0.798 0.0
H475 H 0.04292 0.77394 0.79688 0.0
H476 H 0.45932 0.9133 0.80415 0.0
H477 H 0.54035 0.88141 0.82389 0.0
H478 H 0.54051 0.92738 0.00464 0.0
H479 H 0.45929 0.95869 -0.01521 0.0
loop_
_geom_bond_atom_site_label_1
_geom_bond_atom_site_label_2
_geom_bond_distance
_geom_bond_site_symmetry_2
_ccdc_geom_bond_type
Dy0 O3 2.307 . S
Dy0 O5 2.395 1_545 S
Dy0 O6 2.379 1_545 S
Dy0 O8 2.339 . S
Dy0 O10 2.298 . S
Dy0 O14 2.275 . S
Dy0 C22 2.738 1_545 S
Dy1 O4 2.298 . S
Dy1 O7 2.275 . S
Dy1 O9 2.307 . S
Dy1 O11 2.395 . S
Dy1 O12 2.379 . S
Dy1 O15 2.339 1_554 S
Dy1 C31 2.738 . S
C2 O14 1.254 1_556 S
C2 O15 1.257 . S
O3 Dy0 2.307 . S
O3 C13 1.266 . S
O4 Dy1 2.298 . S
O4 C13 1.236 . S
O5 Dy0 2.395 1_565 S
O5 C22 1.255 . S
O6 Dy0 2.379 1_565 S
O6 C22 1.249 . S
O7 Dy1 2.275 . S
O7 C23 1.254 . S
O8 Dy0 2.339 . S
O8 C23 1.257 . S
O9 Dy1 2.307 . S
O9 C24 1.266 . S
O10 Dy0 2.298 . S
O10 C24 1.236 . S
O11 Dy1 2.395 . S
O11 C31 1.255 . S
O12 Dy1 2.379 . S
O12 C31 1.249 . S
C13 O3 1.266 . S
C13 O4 1.236 . S
O14 Dy0 2.275 . S
O14 C2 1.254 1_554 S
O15 Dy1 2.339 1_556 S
O15 C2 1.257 . S
C16 C19 1.344 . S
C16 C20 1.328 . S
C16 C22 1.516 . S
C17 C18 1.304 1_655 S
C17 C21 1.323 1_655 S
C18 C17 1.304 1_455 S
C18 C19 1.371 . S
C18 H32 0.930 1_455 S
C19 C16 1.344 . S
C19 C18 1.371 . S
C19 H33 0.931 . S
C20 C16 1.328 . S
C20 C21 1.433 . S
C20 H34 0.931 . S
C21 C17 1.323 1_455 S
C21 C20 1.433 . S
C21 H35 0.933 . S
C22 Dy0 2.738 1_565 S
C22 O5 1.255 . S
C22 O6 1.249 . S
C22 C16 1.516 . S
C23 O7 1.254 . S
C23 O8 1.257 . S
C24 O9 1.266 . S
C24 O10 1.236 . S
C25 C28 1.344 . S
C25 C29 1.328 1_554 S
C25 C31 1.516 . S
C26 C27 1.304 . S
C26 C30 1.323 1_554 S
C27 C26 1.304 . S
C27 C28 1.371 . S
C27 H36 0.930 . S
C28 C25 1.344 . S
C28 C27 1.371 . S
C28 H37 0.931 . S
C29 C25 1.328 1_556 S
C29 C30 1.433 . S
C29 H38 0.931 . S
C30 C26 1.323 1_556 S
C30 C29 1.433 . S
C30 H39 0.933 . S
C31 Dy1 2.738 . S
C31 O11 1.255 . S
C31 O12 1.249 . S
C31 C25 1.516 . S
H32 C18 0.930 1_655 S
H33 C19 0.931 . S
H34 C20 0.931 . S
H35 C21 0.933 . S
H36 C27 0.930 . S
H37 C28 0.931 . S
H38 C29 0.931 . S
H39 C30 0.933 . S
Dy40 O43 2.307 . S
Dy40 O45 2.395 . S
Dy40 O46 2.379 . S
Dy40 O48 2.339 . S
Dy40 O50 2.298 . S
Dy40 O54 2.275 . S
Dy40 C62 2.738 . S
Dy41 O44 2.298 . S
Dy41 O47 2.275 . S
Dy41 O49 2.307 . S
Dy41 O51 2.395 . S
Dy41 O52 2.379 . S
Dy41 O55 2.339 . S
Dy41 C71 2.738 . S
C42 O54 1.254 . S
C42 O55 1.257 . S
O43 Dy40 2.307 . S
O43 C53 1.266 . S
O44 Dy41 2.298 . S
O44 C53 1.236 . S
O45 Dy40 2.395 . S
O45 C62 1.255 . S
O46 Dy40 2.379 . S
O46 C62 1.249 . S
O47 Dy41 2.275 . S
O47 C63 1.254 . S
O48 Dy40 2.339 . S
O48 C63 1.257 . S
O49 Dy41 2.307 . S
O49 C64 1.266 . S
O50 Dy40 2.298 . S
O50 C64 1.236 . S
O51 Dy41 2.395 . S
O51 C71 1.255 . S
O52 Dy41 2.379 . S
O52 C71 1.249 . S
C53 O43 1.266 . S
C53 O44 1.236 . S
O54 Dy40 2.275 . S
O54 C42 1.254 . S
O55 Dy41 2.339 . S
O55 C42 1.257 . S
C56 C59 1.344 . S
C56 C60 1.328 . S
C56 C62 1.516 . S
C57 C58 1.304 . S
C57 C61 1.323 . S
C58 C57 1.304 . S
C58 C59 1.371 . S
C58 H72 0.930 . S
C59 C56 1.344 . S
C59 C58 1.371 . S
C59 H73 0.931 . S
C60 C56 1.328 . S
C60 C61 1.433 . S
C60 H74 0.931 . S
C61 C57 1.323 . S
C61 C60 1.433 . S
C61 H75 0.933 . S
C62 Dy40 2.738 . S
C62 O45 1.255 . S
C62 O46 1.249 . S
C62 C56 1.516 . S
C63 O47 1.254 . S
C63 O48 1.257 . S
C64 O49 1.266 . S
C64 O50 1.236 . S
C65 C68 1.344 . S
C65 C69 1.328 . S
C65 C71 1.516 . S
C66 C67 1.304 1_545 S
C66 C70 1.323 1_545 S
C67 C66 1.304 1_565 S
C67 C68 1.371 . S
C67 H76 0.930 1_565 S
C68 C65 1.344 . S
C68 C67 1.371 . S
C68 H77 0.931 . S
C69 C65 1.328 . S
C69 C70 1.433 . S
C69 H78 0.931 . S
C70 C66 1.323 1_565 S
C70 C69 1.433 . S
C70 H79 0.933 . S
C71 Dy41 2.738 . S
C71 O51 1.255 . S
C71 O52 1.249 . S
C71 C65 1.516 . S
H72 C58 0.930 . S
H73 C59 0.931 . S
H74 C60 0.931 . S
H75 C61 0.933 . S
H76 C67 0.930 1_545 S
H77 C68 0.931 . S
H78 C69 0.931 . S
H79 C70 0.933 . S
Dy80 O83 2.307 . S
Dy80 O85 2.395 1_655 S
Dy80 O86 2.379 1_655 S
Dy80 O88 2.339 . S
Dy80 O90 2.298 . S
Dy80 O94 2.275 . S
Dy80 C102 2.738 1_655 S
Dy81 O84 2.298 . S
Dy81 O87 2.275 . S
Dy81 O89 2.307 . S
Dy81 O91 2.395 . S
Dy81 O92 2.379 . S
Dy81 O95 2.339 1_554 S
Dy81 C111 2.738 . S
C82 O94 1.254 1_556 S
C82 O95 1.257 . S
O83 Dy80 2.307 . S
O83 C93 1.266 . S
O84 Dy81 2.298 . S
O84 C93 1.236 . S
O85 Dy80 2.395 1_455 S
O85 C102 1.255 . S
O86 Dy80 2.379 1_455 S
O86 C102 1.249 . S
O87 Dy81 2.275 . S
O87 C103 1.254 . S
O88 Dy80 2.339 . S
O88 C103 1.257 . S
O89 Dy81 2.307 . S
O89 C104 1.266 . S
O90 Dy80 2.298 . S
O90 C104 1.236 . S
O91 Dy81 2.395 . S
O91 C111 1.255 . S
O92 Dy81 2.379 . S
O92 C111 1.249 . S
C93 O83 1.266 . S
C93 O84 1.236 . S
O94 Dy80 2.275 . S
O94 C82 1.254 1_554 S
O95 Dy81 2.339 1_556 S
O95 C82 1.257 . S
C96 C99 1.344 . S
C96 C100 1.328 . S
C96 C102 1.516 . S
C97 C98 1.304 . S
C97 C101 1.323 . S
C98 C97 1.304 . S
C98 C99 1.371 . S
C98 H112 0.930 . S
C99 C96 1.344 . S
C99 C98 1.371 . S
C99 H113 0.931 . S
C100 C96 1.328 . S
C100 C101 1.433 . S
C100 H114 0.931 . S
C101 C97 1.323 . S
C101 C100 1.433 . S
C101 H115 0.933 . S
C102 Dy80 2.738 1_455 S
C102 O85 1.255 . S
C102 O86 1.249 . S
C102 C96 1.516 . S
C103 O87 1.254 . S
C103 O88 1.257 . S
C104 O89 1.266 . S
C104 O90 1.236 . S
C105 C108 1.344 . S
C105 C109 1.328 1_554 S
C105 C111 1.516 . S
C106 C107 1.304 . S
C106 C110 1.323 1_554 S
C107 C106 1.304 . S
C107 C108 1.371 . S
C107 H116 0.930 . S
C108 C105 1.344 . S
C108 C107 1.371 . S
C108 H117 0.931 . S
C109 C105 1.328 1_556 S
C109 C110 1.433 . S
C109 H118 0.931 . S
C110 C106 1.323 1_556 S
C110 C109 1.433 . S
C110 H119 0.933 . S
C111 Dy81 2.738 . S
C111 O91 1.255 . S
C111 O92 1.249 . S
C111 C105 1.516 . S
H112 C98 0.930 . S
H113 C99 0.931 . S
H114 C100 0.931 . S
H115 C101 0.933 . S
H116 C107 0.930 . S
H117 C108 0.931 . S
H118 C109 0.931 . S
H119 C110 0.933 . S
Dy120 O123 2.307 . S
Dy120 O125 2.395 . S
Dy120 O126 2.379 . S
Dy120 O128 2.339 . S
Dy120 O130 2.298 . S
Dy120 O134 2.275 . S
Dy120 C142 2.738 . S
Dy121 O124 2.298 . S
Dy121 O127 2.275 . S
Dy121 O129 2.307 . S
Dy121 O131 2.395 1_545 S
Dy121 O132 2.379 1_545 S
Dy121 O135 2.339 . S
Dy121 C151 2.738 1_545 S
C122 O134 1.254 . S
C122 O135 1.257 . S
O123 Dy120 2.307 . S
O123 C133 1.266 . S
O124 Dy121 2.298 . S
O124 C133 1.236 . S
O125 Dy120 2.395 . S
O125 C142 1.255 . S
O126 Dy120 2.379 . S
O126 C142 1.249 . S
O127 Dy121 2.275 . S
O127 C143 1.254 . S
O128 Dy120 2.339 . S
O128 C143 1.257 . S
O129 Dy121 2.307 . S
O129 C144 1.266 . S
O130 Dy120 2.298 . S
O130 C144 1.236 . S
O131 Dy121 2.395 1_565 S
O131 C151 1.255 . S
O132 Dy121 2.379 1_565 S
O132 C151 1.249 . S
C133 O123 1.266 . S
C133 O124 1.236 . S
O134 Dy120 2.275 . S
O134 C122 1.254 . S
O135 Dy121 2.339 . S
O135 C122 1.257 . S
C136 C139 1.344 . S
C136 C140 1.328 . S
C136 C142 1.516 . S
C137 C138 1.304 . S
C137 C141 1.323 . S
C138 C137 1.304 . S
C138 C139 1.371 . S
C138 H152 0.930 . S
C139 C136 1.344 . S
C139 C138 1.371 . S
C139 H153 0.931 . S
C140 C136 1.328 . S
C140 C141 1.433 . S
C140 H154 0.931 . S
C141 C137 1.323 . S
C141 C140 1.433 . S
C141 H155 0.933 . S
C142 Dy120 2.738 . S
C142 O125 1.255 . S
C142 O126 1.249 . S
C142 C136 1.516 . S
C143 O127 1.254 . S
C143 O128 1.257 . S
C144 O129 1.266 . S
C144 O130 1.236 . S
C145 C148 1.344 . S
C145 C149 1.328 . S
C145 C151 1.516 . S
C146 C147 1.304 1_655 S
C146 C150 1.323 1_655 S
C147 C146 1.304 1_455 S
C147 C148 1.371 . S
C147 H156 0.930 1_455 S
C148 C145 1.344 . S
C148 C147 1.371 . S
C148 H157 0.931 . S
C149 C145 1.328 . S
C149 C150 1.433 . S
C149 H158 0.931 . S
C150 C146 1.323 1_455 S
C150 C149 1.433 . S
C150 H159 0.933 . S
C151 Dy121 2.738 1_565 S
C151 O131 1.255 . S
C151 O132 1.249 . S
C151 C145 1.516 . S
H152 C138 0.930 . S
H153 C139 0.931 . S
H154 C140 0.931 . S
H155 C141 0.933 . S
H156 C147 0.930 1_655 S
H157 C148 0.931 . S
H158 C149 0.931 . S
H159 C150 0.933 . S
Dy160 O163 2.307 . S
Dy160 O165 2.395 . S
Dy160 O166 2.379 . S
Dy160 O168 2.339 . S
Dy160 O170 2.298 . S
Dy160 O174 2.275 . S
Dy160 C182 2.738 . S
Dy161 O164 2.298 . S
Dy161 O167 2.275 . S
Dy161 O169 2.307 . S
Dy161 O171 2.395 . S
Dy161 O172 2.379 . S
Dy161 O175 2.339 1_554 S
Dy161 C191 2.738 . S
C162 O174 1.254 1_556 S
C162 O175 1.257 . S
O163 Dy160 2.307 . S
O163 C173 1.266 . S
O164 Dy161 2.298 . S
O164 C173 1.236 . S
O165 Dy160 2.395 . S
O165 C182 1.255 . S
O166 Dy160 2.379 . S
O166 C182 1.249 . S
O167 Dy161 2.275 . S
O167 C183 1.254 . S
O168 Dy160 2.339 . S
O168 C183 1.257 . S
O169 Dy161 2.307 . S
O169 C184 1.266 . S
O170 Dy160 2.298 . S
O170 C184 1.236 . S
O171 Dy161 2.395 . S
O171 C191 1.255 . S
O172 Dy161 2.379 . S
O172 C191 1.249 . S
C173 O163 1.266 . S
C173 O164 1.236 . S
O174 Dy160 2.275 . S
O174 C162 1.254 1_554 S
O175 Dy161 2.339 1_556 S
O175 C162 1.257 . S
C176 C179 1.344 . S
C176 C180 1.328 . S
C176 C182 1.516 . S
C177 C178 1.304 1_545 S
C177 C181 1.323 1_545 S
C178 C177 1.304 1_565 S
C178 C179 1.371 . S
C178 H192 0.930 1_565 S
C179 C176 1.344 . S
C179 C178 1.371 . S
C179 H193 0.931 . S
C180 C176 1.328 . S
C180 C181 1.433 . S
C180 H194 0.931 . S
C181 C177 1.323 1_565 S
C181 C180 1.433 . S
C181 H195 0.933 . S
C182 Dy160 2.738 . S
C182 O165 1.255 . S
C182 O166 1.249 . S
C182 C176 1.516 . S
C183 O167 1.254 . S
C183 O168 1.257 . S
C184 O169 1.266 . S
C184 O170 1.236 . S
C185 C188 1.344 . S
C185 C189 1.328 1_554 S
C185 C191 1.516 . S
C186 C187 1.304 . S
C186 C190 1.323 1_554 S
C187 C186 1.304 . S
C187 C188 1.371 . S
C187 H196 0.930 . S
C188 C185 1.344 . S
C188 C187 1.371 . S
C188 H197 0.931 . S
C189 C185 1.328 1_556 S
C189 C190 1.433 . S
C189 H198 0.931 . S
C190 C186 1.323 1_556 S
C190 C189 1.433 . S
C190 H199 0.933 . S
C191 Dy161 2.738 . S
C191 O171 1.255 . S
C191 O172 1.249 . S
C191 C185 1.516 . S
H192 C178 0.930 1_545 S
H193 C179 0.931 . S
H194 C180 0.931 . S
H195 C181 0.933 . S
H196 C187 0.930 . S
H197 C188 0.931 . S
H198 C189 0.931 . S
H199 C190 0.933 . S
Dy200 O203 2.307 . S
Dy200 O205 2.395 . S
Dy200 O206 2.379 . S
Dy200 O208 2.339 . S
Dy200 O210 2.298 . S
Dy200 O214 2.275 . S
Dy200 C222 2.738 . S
Dy201 O204 2.298 . S
Dy201 O207 2.275 . S
Dy201 O209 2.307 . S
Dy201 O211 2.395 1_655 S
Dy201 O212 2.379 1_655 S
Dy201 O215 2.339 . S
Dy201 C231 2.738 1_655 S
C202 O214 1.254 . S
C202 O215 1.257 . S
O203 Dy200 2.307 . S
O203 C213 1.266 . S
O204 Dy201 2.298 . S
O204 C213 1.236 . S
O205 Dy200 2.395 . S
O205 C222 1.255 . S
O206 Dy200 2.379 . S
O206 C222 1.249 . S
O207 Dy201 2.275 . S
O207 C223 1.254 . S
O208 Dy200 2.339 . S
O208 C223 1.257 . S
O209 Dy201 2.307 . S
O209 C224 1.266 . S
O210 Dy200 2.298 . S
O210 C224 1.236 . S
O211 Dy201 2.395 1_455 S
O211 C231 1.255 . S
O212 Dy201 2.379 1_455 S
O212 C231 1.249 . S
C213 O203 1.266 . S
C213 O204 1.236 . S
O214 Dy200 2.275 . S
O214 C202 1.254 . S
O215 Dy201 2.339 . S
O215 C202 1.257 . S
C216 C219 1.344 . S
C216 C220 1.328 . S
C216 C222 1.516 . S
C217 C218 1.304 . S
C217 C221 1.323 . S
C218 C217 1.304 . S
C218 C219 1.371 . S
C218 H232 0.930 . S
C219 C216 1.344 . S
C219 C218 1.371 . S
C219 H233 0.931 . S
C220 C216 1.328 . S
C220 C221 1.433 . S
C220 H234 0.931 . S
C221 C217 1.323 . S
C221 C220 1.433 . S
C221 H235 0.933 . S
C222 Dy200 2.738 . S
C222 O205 1.255 . S
C222 O206 1.249 . S
C222 C216 1.516 . S
C223 O207 1.254 . S
C223 O208 1.257 . S
C224 O209 1.266 . S
C224 O210 1.236 . S
C225 C228 1.344 . S
C225 C229 1.328 . S
C225 C231 1.516 . S
C226 C227 1.304 . S
C226 C230 1.323 . S
C227 C226 1.304 . S
C227 C228 1.371 . S
C227 H236 0.930 . S
C228 C225 1.344 . S
C228 C227 1.371 . S
C228 H237 0.931 . S
C229 C225 1.328 . S
C229 C230 1.433 . S
C229 H238 0.931 . S
C230 C226 1.323 . S
C230 C229 1.433 . S
C230 H239 0.933 . S
C231 Dy201 2.738 1_455 S
C231 O211 1.255 . S
C231 O212 1.249 . S
C231 C225 1.516 . S
H232 C218 0.930 . S
H233 C219 0.931 . S
H234 C220 0.931 . S
H235 C221 0.933 . S
H236 C227 0.930 . S
H237 C228 0.931 . S
H238 C229 0.931 . S
H239 C230 0.933 . S
Dy240 O243 2.307 . S
Dy240 O245 2.395 . S
Dy240 O246 2.379 . S
Dy240 O248 2.339 . S
Dy240 O250 2.298 . S
Dy240 O254 2.275 . S
Dy240 C262 2.738 . S
Dy241 O244 2.298 . S
Dy241 O247 2.275 . S
Dy241 O249 2.307 . S
Dy241 O251 2.395 1_455 S
Dy241 O252 2.379 1_455 S
Dy241 O255 2.339 . S
Dy241 C271 2.738 1_455 S
C242 O254 1.254 . S
C242 O255 1.257 . S
O243 Dy240 2.307 . S
O243 C253 1.266 . S
O244 Dy241 2.298 . S
O244 C253 1.236 . S
O245 Dy240 2.395 . S
O245 C262 1.255 . S
O246 Dy240 2.379 . S
O246 C262 1.249 . S
O247 Dy241 2.275 . S
O247 C263 1.254 . S
O248 Dy240 2.339 . S
O248 C263 1.257 . S
O249 Dy241 2.307 . S
O249 C264 1.266 . S
O250 Dy240 2.298 . S
O250 C264 1.236 . S
O251 Dy241 2.395 1_655 S
O251 C271 1.255 . S
O252 Dy241 2.379 1_655 S
O252 C271 1.249 . S
C253 O243 1.266 . S
C253 O244 1.236 . S
O254 Dy240 2.275 . S
O254 C242 1.254 . S
O255 Dy241 2.339 . S
O255 C242 1.257 . S
C256 C259 1.344 . S
C256 C260 1.328 . S
C256 C262 1.516 . S
C257 C258 1.304 . S
C257 C261 1.323 . S
C258 C257 1.304 . S
C258 C259 1.371 . S
C258 H272 0.930 . S
C259 C256 1.344 . S
C259 C258 1.371 . S
C259 H273 0.931 . S
C260 C256 1.328 . S
C260 C261 1.433 . S
C260 H274 0.931 . S
C261 C257 1.323 . S
C261 C260 1.433 . S
C261 H275 0.933 . S
C262 Dy240 2.738 . S
C262 O245 1.255 . S
C262 O246 1.249 . S
C262 C256 1.516 . S
C263 O247 1.254 . S
C263 O248 1.257 . S
C264 O249 1.266 . S
C264 O250 1.236 . S
C265 C268 1.344 . S
C265 C269 1.328 . S
C265 C271 1.516 . S
C266 C267 1.304 1_565 S
C266 C270 1.323 1_565 S
C267 C266 1.304 1_545 S
C267 C268 1.371 . S
C267 H276 0.930 1_545 S
C268 C265 1.344 . S
C268 C267 1.371 . S
C268 H277 0.931 . S
C269 C265 1.328 . S
C269 C270 1.433 . S
C269 H278 0.931 . S
C270 C266 1.323 1_545 S
C270 C269 1.433 . S
C270 H279 0.933 . S
C271 Dy241 2.738 1_655 S
C271 O251 1.255 . S
C271 O252 1.249 . S
C271 C265 1.516 . S
H272 C258 0.930 . S
H273 C259 0.931 . S
H274 C260 0.931 . S
H275 C261 0.933 . S
H276 C267 0.930 1_565 S
H277 C268 0.931 . S
H278 C269 0.931 . S
H279 C270 0.933 . S
Dy280 O283 2.307 . S
Dy280 O285 2.395 1_565 S
Dy280 O286 2.379 1_565 S
Dy280 O288 2.339 . S
Dy280 O290 2.298 . S
Dy280 O294 2.275 . S
Dy280 C302 2.738 1_565 S
Dy281 O284 2.298 . S
Dy281 O287 2.275 . S
Dy281 O289 2.307 . S
Dy281 O291 2.395 . S
Dy281 O292 2.379 . S
Dy281 O295 2.339 1_556 S
Dy281 C311 2.738 . S
C282 O294 1.254 1_554 S
C282 O295 1.257 . S
O283 Dy280 2.307 . S
O283 C293 1.266 . S
O284 Dy281 2.298 . S
O284 C293 1.236 . S
O285 Dy280 2.395 1_545 S
O285 C302 1.255 . S
O286 Dy280 2.379 1_545 S
O286 C302 1.249 . S
O287 Dy281 2.275 . S
O287 C303 1.254 . S
O288 Dy280 2.339 . S
O288 C303 1.257 . S
O289 Dy281 2.307 . S
O289 C304 1.266 . S
O290 Dy280 2.298 . S
O290 C304 1.236 . S
O291 Dy281 2.395 . S
O291 C311 1.255 . S
O292 Dy281 2.379 . S
O292 C311 1.249 . S
C293 O283 1.266 . S
C293 O284 1.236 . S
O294 Dy280 2.275 . S
O294 C282 1.254 1_556 S
O295 Dy281 2.339 1_554 S
O295 C282 1.257 . S
C296 C299 1.344 . S
C296 C300 1.328 . S
C296 C302 1.516 . S
C297 C298 1.304 . S
C297 C301 1.323 . S
C298 C297 1.304 . S
C298 C299 1.371 . S
C298 H312 0.930 . S
C299 C296 1.344 . S
C299 C298 1.371 . S
C299 H313 0.931 . S
C300 C296 1.328 . S
C300 C301 1.433 . S
C300 H314 0.931 . S
C301 C297 1.323 . S
C301 C300 1.433 . S
C301 H315 0.933 . S
C302 Dy280 2.738 1_545 S
C302 O285 1.255 . S
C302 O286 1.249 . S
C302 C296 1.516 . S
C303 O287 1.254 . S
C303 O288 1.257 . S
C304 O289 1.266 . S
C304 O290 1.236 . S
C305 C308 1.344 . S
C305 C309 1.328 1_556 S
C305 C311 1.516 . S
C306 C307 1.304 . S
C306 C310 1.323 1_556 S
C307 C306 1.304 . S
C307 C308 1.371 . S
C307 H316 0.930 . S
C308 C305 1.344 . S
C308 C307 1.371 . S
C308 H317 0.931 . S
C309 C305 1.328 1_554 S
C309 C310 1.433 . S
C309 H318 0.931 . S
C310 C306 1.323 1_554 S
C310 C309 1.433 . S
C310 H319 0.933 . S
C311 Dy281 2.738 . S
C311 O291 1.255 . S
C311 O292 1.249 . S
C311 C305 1.516 . S
H312 C298 0.930 . S
H313 C299 0.931 . S
H314 C300 0.931 . S
H315 C301 0.933 . S
H316 C307 0.930 . S
H317 C308 0.931 . S
H318 C309 0.931 . S
H319 C310 0.933 . S
Dy320 O323 2.307 . S
Dy320 O325 2.395 . S
Dy320 O326 2.379 . S
Dy320 O328 2.339 . S
Dy320 O330 2.298 . S
Dy320 O334 2.275 . S
Dy320 C342 2.738 . S
Dy321 O324 2.298 . S
Dy321 O327 2.275 . S
Dy321 O329 2.307 . S
Dy321 O331 2.395 . S
Dy321 O332 2.379 . S
Dy321 O335 2.339 . S
Dy321 C351 2.738 . S
C322 O334 1.254 . S
C322 O335 1.257 . S
O323 Dy320 2.307 . S
O323 C333 1.266 . S
O324 Dy321 2.298 . S
O324 C333 1.236 . S
O325 Dy320 2.395 . S
O325 C342 1.255 . S
O326 Dy320 2.379 . S
O326 C342 1.249 . S
O327 Dy321 2.275 . S
O327 C343 1.254 . S
O328 Dy320 2.339 . S
O328 C343 1.257 . S
O329 Dy321 2.307 . S
O329 C344 1.266 . S
O330 Dy320 2.298 . S
O330 C344 1.236 . S
O331 Dy321 2.395 . S
O331 C351 1.255 . S
O332 Dy321 2.379 . S
O332 C351 1.249 . S
C333 O323 1.266 . S
C333 O324 1.236 . S
O334 Dy320 2.275 . S
O334 C322 1.254 . S
O335 Dy321 2.339 . S
O335 C322 1.257 . S
C336 C339 1.344 . S
C336 C340 1.328 . S
C336 C342 1.516 . S
C337 C338 1.304 . S
C337 C341 1.323 . S
C338 C337 1.304 . S
C338 C339 1.371 . S
C338 H352 0.930 . S
C339 C336 1.344 . S
C339 C338 1.371 . S
C339 H353 0.931 . S
C340 C336 1.328 . S
C340 C341 1.433 . S
C340 H354 0.931 . S
C341 C337 1.323 . S
C341 C340 1.433 . S
C341 H355 0.933 . S
C342 Dy320 2.738 . S
C342 O325 1.255 . S
C342 O326 1.249 . S
C342 C336 1.516 . S
C343 O327 1.254 . S
C343 O328 1.257 . S
C344 O329 1.266 . S
C344 O330 1.236 . S
C345 C348 1.344 . S
C345 C349 1.328 . S
C345 C351 1.516 . S
C346 C347 1.304 1_455 S
C346 C350 1.323 1_455 S
C347 C346 1.304 1_655 S
C347 C348 1.371 . S
C347 H356 0.930 1_655 S
C348 C345 1.344 . S
C348 C347 1.371 . S
C348 H357 0.931 . S
C349 C345 1.328 . S
C349 C350 1.433 . S
C349 H358 0.931 . S
C350 C346 1.323 1_655 S
C350 C349 1.433 . S
C350 H359 0.933 . S
C351 Dy321 2.738 . S
C351 O331 1.255 . S
C351 O332 1.249 . S
C351 C345 1.516 . S
H352 C338 0.930 . S
H353 C339 0.931 . S
H354 C340 0.931 . S
H355 C341 0.933 . S
H356 C347 0.930 1_455 S
H357 C348 0.931 . S
H358 C349 0.931 . S
H359 C350 0.933 . S
Dy360 O363 2.307 . S
Dy360 O365 2.395 1_455 S
Dy360 O366 2.379 1_455 S
Dy360 O368 2.339 . S
Dy360 O370 2.298 . S
Dy360 O374 2.275 . S
Dy360 C382 2.738 1_455 S
Dy361 O364 2.298 . S
Dy361 O367 2.275 . S
Dy361 O369 2.307 . S
Dy361 O371 2.395 . S
Dy361 O372 2.379 . S
Dy361 O375 2.339 1_556 S
Dy361 C391 2.738 . S
C362 O374 1.254 1_554 S
C362 O375 1.257 . S
O363 Dy360 2.307 . S
O363 C373 1.266 . S
O364 Dy361 2.298 . S
O364 C373 1.236 . S
O365 Dy360 2.395 1_655 S
O365 C382 1.255 . S
O366 Dy360 2.379 1_655 S
O366 C382 1.249 . S
O367 Dy361 2.275 . S
O367 C383 1.254 . S
O368 Dy360 2.339 . S
O368 C383 1.257 . S
O369 Dy361 2.307 . S
O369 C384 1.266 . S
O370 Dy360 2.298 . S
O370 C384 1.236 . S
O371 Dy361 2.395 . S
O371 C391 1.255 . S
O372 Dy361 2.379 . S
O372 C391 1.249 . S
C373 O363 1.266 . S
C373 O364 1.236 . S
O374 Dy360 2.275 . S
O374 C362 1.254 1_556 S
O375 Dy361 2.339 1_554 S
O375 C362 1.257 . S
C376 C379 1.344 . S
C376 C380 1.328 . S
C376 C382 1.516 . S
C377 C378 1.304 1_565 S
C377 C381 1.323 1_565 S
C378 C377 1.304 1_545 S
C378 C379 1.371 . S
C378 H392 0.930 1_545 S
C379 C376 1.344 . S
C379 C378 1.371 . S
C379 H393 0.931 . S
C380 C376 1.328 . S
C380 C381 1.433 . S
C380 H394 0.931 . S
C381 C377 1.323 1_545 S
C381 C380 1.433 . S
C381 H395 0.933 . S
C382 Dy360 2.738 1_655 S
C382 O365 1.255 . S
C382 O366 1.249 . S
C382 C376 1.516 . S
C383 O367 1.254 . S
C383 O368 1.257 . S
C384 O369 1.266 . S
C384 O370 1.236 . S
C385 C388 1.344 . S
C385 C389 1.328 1_556 S
C385 C391 1.516 . S
C386 C387 1.304 . S
C386 C390 1.323 1_556 S
C387 C386 1.304 . S
C387 C388 1.371 . S
C387 H396 0.930 . S
C388 C385 1.344 . S
C388 C387 1.371 . S
C388 H397 0.931 . S
C389 C385 1.328 1_554 S
C389 C390 1.433 . S
C389 H398 0.931 . S
C390 C386 1.323 1_554 S
C390 C389 1.433 . S
C390 H399 0.933 . S
C391 Dy361 2.738 . S
C391 O371 1.255 . S
C391 O372 1.249 . S
C391 C385 1.516 . S
H392 C378 0.930 1_565 S
H393 C379 0.931 . S
H394 C380 0.931 . S
H395 C381 0.933 . S
H396 C387 0.930 . S
H397 C388 0.931 . S
H398 C389 0.931 . S
H399 C390 0.933 . S
Dy400 O403 2.307 . S
Dy400 O405 2.395 . S
Dy400 O406 2.379 . S
Dy400 O408 2.339 . S
Dy400 O410 2.298 . S
Dy400 O414 2.275 . S
Dy400 C422 2.738 . S
Dy401 O404 2.298 . S
Dy401 O407 2.275 . S
Dy401 O409 2.307 . S
Dy401 O411 2.395 1_565 S
Dy401 O412 2.379 1_565 S
Dy401 O415 2.339 . S
Dy401 C431 2.738 1_565 S
C402 O414 1.254 . S
C402 O415 1.257 . S
O403 Dy400 2.307 . S
O403 C413 1.266 . S
O404 Dy401 2.298 . S
O404 C413 1.236 . S
O405 Dy400 2.395 . S
O405 C422 1.255 . S
O406 Dy400 2.379 . S
O406 C422 1.249 . S
O407 Dy401 2.275 . S
O407 C423 1.254 . S
O408 Dy400 2.339 . S
O408 C423 1.257 . S
O409 Dy401 2.307 . S
O409 C424 1.266 . S
O410 Dy400 2.298 . S
O410 C424 1.236 . S
O411 Dy401 2.395 1_545 S
O411 C431 1.255 . S
O412 Dy401 2.379 1_545 S
O412 C431 1.249 . S
C413 O403 1.266 . S
C413 O404 1.236 . S
O414 Dy400 2.275 . S
O414 C402 1.254 . S
O415 Dy401 2.339 . S
O415 C402 1.257 . S
C416 C419 1.344 . S
C416 C420 1.328 . S
C416 C422 1.516 . S
C417 C418 1.304 . S
C417 C421 1.323 . S
C418 C417 1.304 . S
C418 C419 1.371 . S
C418 H432 0.930 . S
C419 C416 1.344 . S
C419 C418 1.371 . S
C419 H433 0.931 . S
C420 C416 1.328 . S
C420 C421 1.433 . S
C420 H434 0.931 . S
C421 C417 1.323 . S
C421 C420 1.433 . S
C421 H435 0.933 . S
C422 Dy400 2.738 . S
C422 O405 1.255 . S
C422 O406 1.249 . S
C422 C416 1.516 . S
C423 O407 1.254 . S
C423 O408 1.257 . S
C424 O409 1.266 . S
C424 O410 1.236 . S
C425 C428 1.344 . S
C425 C429 1.328 . S
C425 C431 1.516 . S
C426 C427 1.304 . S
C426 C430 1.323 . S
C427 C426 1.304 . S
C427 C428 1.371 . S
C427 H436 0.930 . S
C428 C425 1.344 . S
C428 C427 1.371 . S
C428 H437 0.931 . S
C429 C425 1.328 . S
C429 C430 1.433 . S
C429 H438 0.931 . S
C430 C426 1.323 . S
C430 C429 1.433 . S
C430 H439 0.933 . S
C431 Dy401 2.738 1_545 S
C431 O411 1.255 . S
C431 O412 1.249 . S
C431 C425 1.516 . S
H432 C418 0.930 . S
H433 C419 0.931 . S
H434 C420 0.931 . S
H435 C421 0.933 . S
H436 C427 0.930 . S
H437 C428 0.931 . S
H438 C429 0.931 . S
H439 C430 0.933 . S
Dy440 O443 2.307 . S
Dy440 O445 2.395 . S
Dy440 O446 2.379 . S
Dy440 O448 2.339 . S
Dy440 O450 2.298 . S
Dy440 O454 2.275 . S
Dy440 C462 2.738 . S
Dy441 O444 2.298 . S
Dy441 O447 2.275 . S
Dy441 O449 2.307 . S
Dy441 O451 2.395 . S
Dy441 O452 2.379 . S
Dy441 O455 2.339 1_556 S
Dy441 C471 2.738 . S
C442 O454 1.254 1_554 S
C442 O455 1.257 . S
O443 Dy440 2.307 . S
O443 C453 1.266 . S
O444 Dy441 2.298 . S
O444 C453 1.236 . S
O445 Dy440 2.395 . S
O445 C462 1.255 . S
O446 Dy440 2.379 . S
O446 C462 1.249 . S
O447 Dy441 2.275 . S
O447 C463 1.254 . S
O448 Dy440 2.339 . S
O448 C463 1.257 . S
O449 Dy441 2.307 . S
O449 C464 1.266 . S
O450 Dy440 2.298 . S
O450 C464 1.236 . S
O451 Dy441 2.395 . S
O451 C471 1.255 . S
O452 Dy441 2.379 . S
O452 C471 1.249 . S
C453 O443 1.266 . S
C453 O444 1.236 . S
O454 Dy440 2.275 . S
O454 C442 1.254 1_556 S
O455 Dy441 2.339 1_554 S
O455 C442 1.257 . S
C456 C459 1.344 . S
C456 C460 1.328 . S
C456 C462 1.516 . S
C457 C458 1.304 1_455 S
C457 C461 1.323 1_455 S
C458 C457 1.304 1_655 S
C458 C459 1.371 . S
C458 H472 0.930 1_655 S
C459 C456 1.344 . S
C459 C458 1.371 . S
C459 H473 0.931 . S
C460 C456 1.328 . S
C460 C461 1.433 . S
C460 H474 0.931 . S
C461 C457 1.323 1_655 S
C461 C460 1.433 . S
C461 H475 0.933 . S
C462 Dy440 2.738 . S
C462 O445 1.255 . S
C462 O446 1.249 . S
C462 C456 1.516 . S
C463 O447 1.254 . S
C463 O448 1.257 . S
C464 O449 1.266 . S
C464 O450 1.236 . S
C465 C468 1.344 . S
C465 C469 1.328 1_556 S
C465 C471 1.516 . S
C466 C467 1.304 . S
C466 C470 1.323 1_556 S
C467 C466 1.304 . S
C467 C468 1.371 . S
C467 H476 0.930 . S
C468 C465 1.344 . S
C468 C467 1.371 . S
C468 H477 0.931 . S
C469 C465 1.328 1_554 S
C469 C470 1.433 . S
C469 H478 0.931 . S
C470 C466 1.323 1_554 S
C470 C469 1.433 . S
C470 H479 0.933 . S
C471 Dy441 2.738 . S
C471 O451 1.255 . S
C471 O452 1.249 . S
C471 C465 1.516 . S
H472 C458 0.930 1_455 S
H473 C459 0.931 . S
H474 C460 0.931 . S
H475 C461 0.933 . S
H476 C467 0.930 . S
H477 C468 0.931 . S
H478 C469 0.931 . S
H479 C470 0.933 . S
C97 C24 2.011 . S
C146 C53 2.012 . S
C104 C177 2.012 . S
C133 C226 2.011 . S
C17 C184 2.012 . S
C66 C213 2.012 . S
C426 C253 2.011 . S
C304 C457 2.012 . S
C333 C266 2.012 . S
C384 C297 2.011 . S
C413 C346 2.012 . S
C377 C464 2.012 . S
C122 C23 1.761 . S
C42 C183 1.760 . S
C103 C202 1.761 . S
C242 C383 1.761 . S
C303 C402 1.761 . S
C322 C463 1.760 . S
C282 C2 4.834 1_564 S
C63 C343 4.834 . S
C362 C82 4.834 1_454 S
C143 C423 4.834 1_545 S
C162 C442 4.834 1_556 S
C263 C223 4.834 1_455 S
C106 C13 2.347 . S
C64 C137 2.347 . S
C93 C186 2.347 . S
C144 C217 2.347 . S
C26 C173 2.347 . S
C57 C224 2.347 . S
C417 C264 2.347 . S
C293 C466 2.347 . S
C344 C257 2.347 . S
C306 C373 2.347 . S
C424 C337 2.347 . S
C453 C386 2.347 . S
