# Generated by pormake.
# Topology bmn, (3)-cn, num edge types: 1
# Building blocks:
#     Node 0, Type 0, BuildingBlock: WUSLED_clean_sbu_0, # of connection points: 3
#     Node 1, Type 0, BuildingBlock: WUSLED_clean_sbu_0, # of connection points: 3
#     Node 2, Type 0, BuildingBlock: WUSLED_clean_sbu_0, # of connection points: 3
#     Node 3, Type 0, BuildingBlock: WUSLED_clean_sbu_0, # of connection points: 3
#     Node 4, Type 0, BuildingBlock: WUSLED_clean_sbu_0, # of connection points: 3
#     Node 5, Type 0, BuildingBlock: WUSLED_clean_sbu_0, # of connection points: 3
#     Node 6, Type 0, BuildingBlock: WUSLED_clean_sbu_0, # of connection points: 3
#     Node 7, Type 0, BuildingBlock: WUSLED_clean_sbu_0, # of connection points: 3
#     Node 8, Type 0, BuildingBlock: WUSLED_clean_sbu_0, # of connection points: 3
#     Node 9, Type 0, BuildingBlock: WUSLED_clean_sbu_0, # of connection points: 3
#     Node 10, Type 0, BuildingBlock: WUSLED_clean_sbu_0, # of connection points: 3
#     Node 11, Type 0, BuildingBlock: WUSLED_clean_sbu_0, # of connection points: 3
#     Node 12, Type 0, BuildingBlock: WUSLED_clean_sbu_0, # of connection points: 3
#     Node 13, Type 0, BuildingBlock: WUSLED_clean_sbu_0, # of connection points: 3
#     Node 14, Type 0, BuildingBlock: WUSLED_clean_sbu_0, # of connection points: 3
#     Node 15, Type 0, BuildingBlock: WUSLED_clean_sbu_0, # of connection points: 3
#     Node 16, Type 0, BuildingBlock: WUSLED_clean_sbu_0, # of connection points: 3
#     Node 17, Type 0, BuildingBlock: WUSLED_clean_sbu_0, # of connection points: 3
#     Node 18, Type 0, BuildingBlock: WUSLED_clean_sbu_0, # of connection points: 3
#     Node 19, Type 0, BuildingBlock: WUSLED_clean_sbu_0, # of connection points: 3
#     Node 20, Type 0, BuildingBlock: WUSLED_clean_sbu_0, # of connection points: 3
#     Node 21, Type 0, BuildingBlock: WUSLED_clean_sbu_0, # of connection points: 3
#     Node 22, Type 0, BuildingBlock: WUSLED_clean_sbu_0, # of connection points: 3
#     Node 23, Type 0, BuildingBlock: WUSLED_clean_sbu_0, # of connection points: 3
#     Edge 24, Type (0, 0), BuildingBlock: XIVTED_clean_linker_0, # of connection points: 2
#     Edge 25, Type (0, 0), BuildingBlock: XIVTED_clean_linker_0, # of connection points: 2
#     Edge 26, Type (0, 0), BuildingBlock: XIVTED_clean_linker_0, # of connection points: 2
#     Edge 27, Type (0, 0), BuildingBlock: XIVTED_clean_linker_0, # of connection points: 2
#     Edge 28, Type (0, 0), BuildingBlock: XIVTED_clean_linker_0, # of connection points: 2
#     Edge 29, Type (0, 0), BuildingBlock: XIVTED_clean_linker_0, # of connection points: 2
#     Edge 30, Type (0, 0), BuildingBlock: XIVTED_clean_linker_0, # of connection points: 2
#     Edge 31, Type (0, 0), BuildingBlock: XIVTED_clean_linker_0, # of connection points: 2
#     Edge 32, Type (0, 0), BuildingBlock: XIVTED_clean_linker_0, # of connection points: 2
#     Edge 33, Type (0, 0), BuildingBlock: XIVTED_clean_linker_0, # of connection points: 2
#     Edge 34, Type (0, 0), BuildingBlock: XIVTED_clean_linker_0, # of connection points: 2
#     Edge 35, Type (0, 0), BuildingBlock: XIVTED_clean_linker_0, # of connection points: 2
#     Edge 36, Type (0, 0), BuildingBlock: XIVTED_clean_linker_0, # of connection points: 2
#     Edge 37, Type (0, 0), BuildingBlock: XIVTED_clean_linker_0, # of connection points: 2
#     Edge 38, Type (0, 0), BuildingBlock: XIVTED_clean_linker_0, # of connection points: 2
#     Edge 39, Type (0, 0), BuildingBlock: XIVTED_clean_linker_0, # of connection points: 2
#     Edge 40, Type (0, 0), BuildingBlock: XIVTED_clean_linker_0, # of connection points: 2
#     Edge 41, Type (0, 0), BuildingBlock: XIVTED_clean_linker_0, # of connection points: 2
#     Edge 42, Type (0, 0), BuildingBlock: XIVTED_clean_linker_0, # of connection points: 2
#     Edge 43, Type (0, 0), BuildingBlock: XIVTED_clean_linker_0, # of connection points: 2
#     Edge 44, Type (0, 0), BuildingBlock: XIVTED_clean_linker_0, # of connection points: 2
#     Edge 45, Type (0, 0), BuildingBlock: XIVTED_clean_linker_0, # of connection points: 2
#     Edge 46, Type (0, 0), BuildingBlock: XIVTED_clean_linker_0, # of connection points: 2
#     Edge 47, Type (0, 0), BuildingBlock: XIVTED_clean_linker_0, # of connection points: 2
#     Edge 48, Type (0, 0), BuildingBlock: XIVTED_clean_linker_0, # of connection points: 2
#     Edge 49, Type (0, 0), BuildingBlock: XIVTED_clean_linker_0, # of connection points: 2
#     Edge 50, Type (0, 0), BuildingBlock: XIVTED_clean_linker_0, # of connection points: 2
#     Edge 51, Type (0, 0), BuildingBlock: XIVTED_clean_linker_0, # of connection points: 2
#     Edge 52, Type (0, 0), BuildingBlock: XIVTED_clean_linker_0, # of connection points: 2
#     Edge 53, Type (0, 0), BuildingBlock: XIVTED_clean_linker_0, # of connection points: 2
#     Edge 54, Type (0, 0), BuildingBlock: XIVTED_clean_linker_0, # of connection points: 2
#     Edge 55, Type (0, 0), BuildingBlock: XIVTED_clean_linker_0, # of connection points: 2
#     Edge 56, Type (0, 0), BuildingBlock: XIVTED_clean_linker_0, # of connection points: 2
#     Edge 57, Type (0, 0), BuildingBlock: XIVTED_clean_linker_0, # of connection points: 2
#     Edge 58, Type (0, 0), BuildingBlock: XIVTED_clean_linker_0, # of connection points: 2
#     Edge 59, Type (0, 0), BuildingBlock: XIVTED_clean_linker_0, # of connection points: 2
# Relax obj value: 0.187
# Max RMSD: 0.300
# Mean RMSD: 0.113
data_MOF--net-bmn--node1-WUSLED_clean_sbu_0--edge1-XIVTED_clean_linker_0
_symmetry_space_group_name_H-M    P1
_symmetry_Int_Tables_number       1
_symmetry_cell_setting            triclinic
loop_
_symmetry_equiv_pos_as_xyz
'x, y, z'
_cell_length_a     78.844724
_cell_length_b     79.281658
_cell_length_c     79.265322
_cell_angle_alpha  67.881299
_cell_angle_beta   68.909669
_cell_angle_gamma 68.87993
loop_
_atom_site_label
_atom_site_type_symbol
_atom_site_fract_x
_atom_site_fract_y
_atom_site_fract_z
_atom_type_partial_charge
C0 C 0.08663 0.23473 0.52679 0.0
C1 C 0.07976 0.23219 0.51409 0.0
C2 C 0.09914 0.19958 0.51893 0.0
C3 C 0.08589 0.21471 0.51028 0.0
C4 C 0.10531 0.20217 0.53217 0.0
C5 C 0.09908 0.21951 0.53606 0.0
U6 U 0.06458 0.28872 0.51713 0.0
O7 O 0.05662 0.30701 0.53566 0.0
O8 O 0.0806 0.30898 0.51041 0.0
C9 C 0.07068 0.31478 0.52545 0.0
C10 C 0.08309 0.25342 0.52903 0.0
C11 C 0.06901 0.33435 0.52422 0.0
C12 C 0.0765 0.35459 0.53579 0.0
C13 C 0.07371 0.33727 0.53821 0.0
C14 C 0.06887 0.36677 0.50572 0.0
C15 C 0.07471 0.36939 0.51922 0.0
C16 C 0.06611 0.34939 0.50815 0.0
C17 C 0.03124 0.30817 0.4828 0.0
C18 C 0.02528 0.33593 0.45674 0.0
C19 C 0.01226 0.3099 0.46371 0.0
C20 C 0.02012 0.30037 0.47902 0.0
C21 C 0.01541 0.32744 0.45194 0.0
C22 C 0.03324 0.3263 0.47205 0.0
C23 C 0.04327 0.29547 0.49535 0.0
O24 O 0.09011 0.26563 0.51387 0.0
O25 O 0.06619 0.26087 0.53844 0.0
O26 O 0.03655 0.2931 0.51363 0.0
O27 O 0.06126 0.29498 0.48902 0.0
H28 H 0.07017 0.24383 0.50672 0.0
H29 H 0.08053 0.21321 0.50026 0.0
H30 H 0.1157 0.19112 0.53893 0.0
H31 H 0.10468 0.22127 0.54575 0.0
H32 H 0.08111 0.35602 0.5464 0.0
H33 H 0.07629 0.32575 0.55061 0.0
H34 H 0.06706 0.37799 0.49293 0.0
H35 H 0.0626 0.34744 0.4971 0.0
H36 H 0.02804 0.3494 0.4479 0.0
H37 H 0.00443 0.30315 0.46062 0.0
H38 H 0.01854 0.28631 0.48716 0.0
H39 H 0.04192 0.33245 0.47473 0.0
C40 C 0.07509 0.86947 0.87642 0.0
C41 C 0.09401 0.8629 0.86717 0.0
C42 C 0.10365 0.88028 0.8804 0.0
C43 C 0.10821 0.86818 0.86925 0.0
C44 C 0.08479 0.88592 0.89033 0.0
C45 C 0.07073 0.88057 0.88835 0.0
U46 U 0.04704 0.84855 0.85999 0.0
O47 O 0.01675 0.84952 0.87258 0.0
O48 O 0.02663 0.86634 0.84307 0.0
C49 C 0.01234 0.86189 0.85716 0.0
C50 C 0.05924 0.86731 0.87239 0.0
C51 C 0.99277 0.86945 0.85536 0.0
C52 C 0.95968 0.88384 0.86791 0.0
C53 C 0.97781 0.87433 0.87043 0.0
C54 C 0.97105 0.88314 0.8354 0.0
C55 C 0.95615 0.88862 0.85025 0.0
C56 C 0.98917 0.87375 0.8379 0.0
C57 C 0.07719 0.80321 0.84107 0.0
C58 C 0.07785 0.78899 0.81837 0.0
C59 C 0.10311 0.77667 0.83377 0.0
C60 C 0.09407 0.78991 0.84395 0.0
C61 C 0.09549 0.77641 0.82036 0.0
C62 C 0.06882 0.80241 0.82856 0.0
C63 C 0.07068 0.81902 0.84933 0.0
O64 O 0.05984 0.87112 0.8546 0.0
O65 O 0.05188 0.85318 0.88353 0.0
O66 O 0.05943 0.81762 0.86644 0.0
O67 O 0.06833 0.83625 0.83793 0.0
H68 H 0.09769 0.85436 0.85782 0.0
H69 H 0.12259 0.86358 0.86137 0.0
H70 H 0.08078 0.89488 0.89934 0.0
H71 H 0.05622 0.8858 0.8956 0.0
H72 H 0.94857 0.88797 0.87962 0.0
H73 H 0.98028 0.87144 0.88396 0.0
H74 H 0.96874 0.88625 0.82175 0.0
H75 H 1.00046 0.87014 0.82606 0.0
H76 H 0.07157 0.78923 0.80815 0.0
H77 H 0.11641 0.76698 0.83604 0.0
H78 H 0.10079 0.79033 0.8535 0.0
H79 H 0.05582 0.81263 0.82606 0.0
C80 C 0.84857 0.71022 0.98482 0.0
C81 C 0.83773 0.69843 0.98698 0.0
C82 C 0.86639 0.67474 0.97806 0.0
C83 C 0.84664 0.68069 0.98366 0.0
C84 C 0.87704 0.68605 0.97717 0.0
C85 C 0.86819 0.70358 0.98061 0.0
U86 U 0.80755 0.75383 0.99332 0.0
O87 O 0.8077 0.77871 0.99949 0.0
O88 O 0.80186 0.78198 0.97316 0.0
C89 C 0.80403 0.79031 0.98349 0.0
C90 C 0.84031 0.73027 0.98415 0.0
C91 C 0.81357 0.80574 0.9734 0.0
C92 C 0.84103 0.81848 0.95624 0.0
C93 C 0.83317 0.80289 0.96591 0.0
C94 C 0.80982 0.83959 0.96134 0.0
C95 C 0.82941 0.83714 0.95389 0.0
C96 C 0.80211 0.82418 0.97101 0.0
C97 C 0.75777 0.7428 0.01854 0.0
C98 C 0.72603 0.76198 0.02819 0.0
C99 C 0.73092 0.73034 0.02725 0.0
C100 C 0.75028 0.72811 0.02141 0.0
C101 C 0.7185 0.74744 0.03022 0.0
C102 C 0.74561 0.75969 0.0223 0.0
C103 C 0.77827 0.73971 0.01094 0.0
O104 O 0.82935 0.74003 0.97269 0.0
O105 O 0.83399 0.73451 1.00022 0.0
O106 O 0.78779 0.74252 0.01983 0.0
O107 O 0.78461 0.74487 0.99251 0.0
H108 H 0.82252 0.70336 0.99017 0.0
H109 H 0.8382 0.67225 0.98418 0.0
H110 H 0.89228 0.68177 0.97273 0.0
H111 H 0.87677 0.71248 0.97882 0.0
H112 H 0.85617 0.81591 0.95085 0.0
H113 H 0.84233 0.78872 0.96754 0.0
H114 H 0.80018 0.85351 0.95945 0.0
H115 H 0.78696 0.82674 0.9765 0.0
H116 H 0.71682 0.77535 0.03033 0.0
H117 H 0.72567 0.7187 0.02909 0.0
H118 H 0.75948 0.71491 0.01875 0.0
H119 H 0.75118 0.77118 0.02023 0.0
C120 C 0.57171 0.50491 0.14614 0.0
C121 C 0.59111 0.49923 0.14464 0.0
C122 C 0.58721 0.52166 0.16105 0.0
C123 C 0.59877 0.50749 0.15208 0.0
C124 C 0.56773 0.52692 0.1628 0.0
C125 C 0.56013 0.51862 0.15546 0.0
U126 U 0.5705 0.47311 0.11912 0.0
O127 O 0.54718 0.4612 0.12409 0.0
O128 O 0.55563 0.48198 0.09717 0.0
C129 C 0.54416 0.47111 0.10742 0.0
C130 C 0.56304 0.49765 0.1375 0.0
C131 C 0.52452 0.4784 0.10581 0.0
C132 C 0.49278 0.49941 0.11044 0.0
C133 C 0.51097 0.49279 0.1134 0.0
C134 C 0.50162 0.47715 0.0927 0.0
C135 C 0.48801 0.49184 0.09975 0.0
C136 C 0.51956 0.47061 0.09566 0.0
C137 C 0.61916 0.4364 0.10339 0.0
C138 C 0.63022 0.41429 0.08463 0.0
C139 C 0.65185 0.41804 0.09735 0.0
C140 C 0.63735 0.43129 0.10557 0.0
C141 C 0.64864 0.40923 0.08673 0.0
C142 C 0.61559 0.42778 0.09287 0.0
C143 C 0.60494 0.45121 0.11194 0.0
O144 O 0.56836 0.5016 0.11903 0.0
O145 O 0.56107 0.48042 0.1459 0.0
O146 O 0.59165 0.44631 0.12711 0.0
O147 O 0.59931 0.46793 0.10062 0.0
H148 H 0.60031 0.48862 0.13754 0.0
H149 H 0.61378 0.50277 0.15075 0.0
H150 H 0.55836 0.53791 0.16931 0.0
H151 H 0.54512 0.52325 0.1567 0.0
H152 H 0.48266 0.51074 0.11608 0.0
H153 H 0.51449 0.49901 0.12132 0.0
H154 H 0.49843 0.47059 0.08485 0.0
H155 H 0.52972 0.45943 0.0898 0.0
H156 H 0.62704 0.40777 0.07674 0.0
H157 H 0.66576 0.41512 0.099 0.0
H158 H 0.64048 0.43784 0.11349 0.0
H159 H 0.60163 0.43152 0.09096 0.0
C160 C 0.23023 0.74456 0.58842 0.0
C161 C 0.22248 0.75793 0.59859 0.0
C162 C 0.23634 0.78093 0.57129 0.0
C163 C 0.22554 0.77596 0.5901 0.0
C164 C 0.24498 0.76706 0.56164 0.0
C165 C 0.24193 0.74907 0.57015 0.0
U166 U 0.20902 0.70521 0.62773 0.0
O167 O 0.18933 0.69184 0.62704 0.0
O168 O 0.21751 0.67479 0.63032 0.0
C169 C 0.20153 0.67524 0.62822 0.0
C170 C 0.22484 0.72667 0.59565 0.0
C171 C 0.20248 0.66509 0.6155 0.0
C172 C 0.21149 0.65987 0.58467 0.0
C173 C 0.21206 0.66932 0.59628 0.0
C174 C 0.19192 0.64195 0.61142 0.0
C175 C 0.20122 0.64615 0.59207 0.0
C176 C 0.19263 0.65123 0.62293 0.0
C177 C 0.19164 0.71435 0.6784 0.0
C178 C 0.16752 0.70767 0.70782 0.0
C179 C 0.18808 0.72599 0.70411 0.0
C180 C 0.1974 0.724 0.68605 0.0
C181 C 0.17279 0.71814 0.71523 0.0
C182 C 0.1768 0.70589 0.68948 0.0
C183 C 0.20002 0.71584 0.65815 0.0
O184 O 0.23456 0.71241 0.60654 0.0
O185 O 0.20665 0.72816 0.6017 0.0
O186 O 0.18865 0.72126 0.64731 0.0
O187 O 0.21618 0.70404 0.65279 0.0
H188 H 0.21349 0.75468 0.61279 0.0
H189 H 0.21898 0.78618 0.59808 0.0
H190 H 0.25324 0.77039 0.54714 0.0
H191 H 0.24802 0.73891 0.5621 0.0
H192 H 0.21906 0.66337 0.56993 0.0
H193 H 0.21977 0.68001 0.59023 0.0
H194 H 0.18349 0.63188 0.61772 0.0
H195 H 0.18504 0.64784 0.63769 0.0
H196 H 0.15602 0.70116 0.716 0.0
H197 H 0.19241 0.73452 0.70889 0.0
H198 H 0.20864 0.73086 0.67764 0.0
H199 H 0.17205 0.69843 0.68381 0.0
C200 C 0.46775 0.86074 0.98697 0.0
C201 C 0.46019 0.84776 0.98588 0.0
C202 C 0.43306 0.87301 0.9776 0.0
C203 C 0.44293 0.8538 0.9814 0.0
C204 C 0.44075 0.88588 0.97888 0.0
C205 C 0.45781 0.87977 0.9837 0.0
U206 U 0.5188 0.84252 0.99845 0.0
O207 O 0.54289 0.84919 0.97466 0.0
O208 O 0.53137 0.86397 0.99678 0.0
C209 C 0.54452 0.86111 0.98151 0.0
C210 C 0.48615 0.85453 0.99108 0.0
C211 C 0.5535 0.87609 0.96869 0.0
C212 C 0.55444 0.90605 0.94468 0.0
C213 C 0.5444 0.89275 0.9572 0.0
C214 C 0.58228 0.88608 0.9555 0.0
C215 C 0.57356 0.90255 0.94359 0.0
C216 C 0.57232 0.87302 0.96795 0.0
C217 C 0.54693 0.80148 0.02869 0.0
C218 C 0.57664 0.80367 0.0293 0.0
C219 C 0.56972 0.77325 0.04096 0.0
C220 C 0.55219 0.78193 0.03684 0.0
C221 C 0.58203 0.7841 0.0372 0.0
C222 C 0.5593 0.81229 0.02491 0.0
C223 C 0.52912 0.81045 0.0231 0.0
O224 O 0.48908 0.85933 1.0038 0.0
O225 O 0.50072 0.84352 0.98227 0.0
O226 O 0.5305 0.81173 0.00567 0.0
O227 O 0.51911 0.8261 0.02776 0.0
H228 H 0.46763 0.83295 0.98854 0.0
H229 H 0.43737 0.8434 0.98089 0.0
H230 H 0.43388 0.90083 0.97567 0.0
H231 H 0.4635 0.89001 0.98436 0.0
H232 H 0.54755 0.91868 0.93548 0.0
H233 H 0.5298 0.89527 0.9577 0.0
H234 H 0.59697 0.88316 0.95495 0.0
H235 H 0.57946 0.86025 0.97684 0.0
H236 H 0.58611 0.81221 0.026 0.0
H237 H 0.57375 0.75809 0.04692 0.0
H238 H 0.5429 0.77337 0.03968 0.0
H239 H 0.55564 0.82737 0.01833 0.0
C240 C 0.88828 0.30679 0.94099 0.0
C241 C 0.8798 0.32362 0.94619 0.0
C242 C 0.90933 0.33294 0.93087 0.0
C243 C 0.89029 0.3366 0.94121 0.0
C244 C 0.91776 0.3158 0.92622 0.0
C245 C 0.90734 0.3029 0.93124 0.0
U246 U 0.8451 0.28521 0.96244 0.0
O247 O 0.83504 0.27339 0.94788 0.0
O248 O 0.846 0.25492 0.97238 0.0
C249 C 0.83953 0.25608 0.95873 0.0
C250 C 0.87769 0.29334 0.94447 0.0
C251 C 0.84856 0.24071 0.94944 0.0
C252 C 0.86966 0.22748 0.92354 0.0
C253 C 0.86292 0.2419 0.93249 0.0
C254 C 0.84806 0.21054 0.94851 0.0
C255 C 0.86218 0.21163 0.93138 0.0
C256 C 0.84144 0.2248 0.95738 0.0
C257 C 0.80085 0.31273 0.99607 0.0
C258 C 0.76658 0.31886 0.00663 0.0
C259 C 0.78263 0.33082 0.01873 0.0
C260 C 0.79991 0.32262 0.00791 0.0
C261 C 0.7656 0.32925 0.01822 0.0
C262 C 0.78402 0.31075 0.99559 0.0
C263 C 0.81947 0.30667 0.98327 0.0
O264 O 0.87443 0.28172 0.96153 0.0
O265 O 0.86331 0.29991 0.93705 0.0
O266 O 0.82064 0.30968 0.96545 0.0
O267 O 0.83191 0.29154 0.98996 0.0
H268 H 0.86507 0.32688 0.95371 0.0
H269 H 0.88335 0.34974 0.94488 0.0
H270 H 0.93244 0.31239 0.91857 0.0
H271 H 0.91412 0.28994 0.92717 0.0
H272 H 0.88068 0.22878 0.91049 0.0
H273 H 0.86869 0.25404 0.92604 0.0
H274 H 0.84158 0.19889 0.9549 0.0
H275 H 0.83027 0.22361 0.97033 0.0
H276 H 0.75388 0.31707 0.00597 0.0
H277 H 0.78269 0.33897 0.027 0.0
H278 H 0.81265 0.3246 0.00833 0.0
H279 H 0.78433 0.30328 0.98648 0.0
C280 C 0.9524 0.47434 0.22316 0.0
C281 C 0.94147 0.47105 0.24197 0.0
C282 C 0.91275 0.48766 0.23135 0.0
C283 C 0.92179 0.4777 0.24603 0.0
C284 C 0.92382 0.49032 0.21259 0.0
C285 C 0.9434 0.48371 0.20858 0.0
U286 U 0.99939 0.44533 0.23502 0.0
O287 O 0.02685 0.43398 0.21701 0.0
O288 O 0.02424 0.45424 0.23121 0.0
C289 C 0.03539 0.44368 0.22003 0.0
C290 C 0.97315 0.46919 0.21834 0.0
C291 C 0.05043 0.4512 0.20451 0.0
C292 C 0.06378 0.46835 0.17229 0.0
C293 C 0.04865 0.46157 0.18613 0.0
C294 C 0.08237 0.45413 0.19506 0.0
C295 C 0.08074 0.46492 0.17675 0.0
C296 C 0.06744 0.44746 0.2087 0.0
C297 C 0.99347 0.40954 0.28568 0.0
C298 C 0.01435 0.39482 0.30643 0.0
C299 C 0.98299 0.39011 0.3174 0.0
C300 C 0.97968 0.40123 0.29991 0.0
C301 C 1.00017 0.38717 0.32088 0.0
C302 C 0.01104 0.40596 0.28881 0.0
C303 C 0.98792 0.42364 0.26893 0.0
O304 O 0.98052 0.47365 0.22802 0.0
O305 O 0.98176 0.45234 0.2159 0.0
O306 O 0.99281 0.41839 0.25359 0.0
O307 O 0.98924 0.44069 0.26562 0.0
H308 H 0.94816 0.46371 0.25347 0.0
H309 H 0.91369 0.47518 0.26063 0.0
H310 H 0.91744 0.49814 0.20092 0.0
H311 H 0.95159 0.4864 0.194 0.0
H312 H 0.06207 0.47662 0.15831 0.0
H313 H 0.03564 0.46455 0.18256 0.0
H314 H 0.0953 0.4508 0.19894 0.0
H315 H 0.06919 0.43932 0.22271 0.0
H316 H 0.02764 0.39276 0.30903 0.0
H317 H 0.97184 0.38452 0.3285 0.0
H318 H 0.96598 0.40404 0.29778 0.0
H319 H 0.02179 0.4124 0.278 0.0
C320 C 0.52612 0.08079 0.33298 0.0
C321 C 0.5124 0.07387 0.34875 0.0
C322 C 0.52161 0.08453 0.36862 0.0
C323 C 0.51018 0.07571 0.3664 0.0
C324 C 0.5359 0.09058 0.35289 0.0
C325 C 0.53807 0.08876 0.33529 0.0
U326 U 0.51306 0.06895 0.29691 0.0
O327 O 0.50333 0.08969 0.27241 0.0
O328 O 0.52929 0.06672 0.26809 0.0
C329 C 0.51787 0.08224 0.26034 0.0
C330 C 0.52685 0.08199 0.31372 0.0
C331 C 0.51649 0.08619 0.24111 0.0
C332 C 0.5242 0.10498 0.2085 0.0
C333 C 0.52701 0.09803 0.22653 0.0
C334 C 0.50096 0.08742 0.21891 0.0
C335 C 0.51074 0.10027 0.20454 0.0
C336 C 0.50369 0.08054 0.23717 0.0
C337 C 0.48055 0.03375 0.32192 0.0
C338 C 0.45664 0.02843 0.31352 0.0
C339 C 0.46035 0.01436 0.34538 0.0
C340 C 0.47534 0.02213 0.34017 0.0
C341 C 0.45037 0.01795 0.33232 0.0
C342 C 0.4716 0.03646 0.30837 0.0
C343 C 0.49299 0.04504 0.31894 0.0
O344 O 0.53608 0.06685 0.30789 0.0
O345 O 0.5109 0.09062 0.30894 0.0
O346 O 0.48595 0.06342 0.31453 0.0
O347 O 0.51097 0.03956 0.31069 0.0
H348 H 0.50294 0.06776 0.34725 0.0
H349 H 0.49892 0.07099 0.37808 0.0
H350 H 0.54525 0.09704 0.35405 0.0
H351 H 0.54873 0.0942 0.32329 0.0
H352 H 0.53222 0.11456 0.19774 0.0
H353 H 0.53691 0.10259 0.22929 0.0
H354 H 0.49048 0.08354 0.21632 0.0
H355 H 0.49536 0.07146 0.2483 0.0
H356 H 0.44947 0.03116 0.30304 0.0
H357 H 0.45583 0.00667 0.36002 0.0
H358 H 0.48205 0.02009 0.35082 0.0
H359 H 0.4755 0.04549 0.2942 0.0
C360 C 0.49527 0.15952 0.57502 0.0
C361 C 0.48627 0.16338 0.59248 0.0
C362 C 0.51274 0.17437 0.5899 0.0
C363 C 0.49487 0.17084 0.59979 0.0
C364 C 0.52145 0.17061 0.57231 0.0
C365 C 0.51279 0.16336 0.56499 0.0
U366 U 0.46226 0.13264 0.57473 0.0
O367 O 0.45037 0.13751 0.55143 0.0
O368 O 0.47094 0.11083 0.56027 0.0
C369 C 0.46028 0.12102 0.54858 0.0
C370 C 0.48723 0.15124 0.56676 0.0
C371 C 0.46793 0.11985 0.52891 0.0
C372 C 0.49164 0.12194 0.49864 0.0
C373 C 0.48445 0.12501 0.51662 0.0
C374 C 0.46574 0.10899 0.50506 0.0
C375 C 0.48254 0.11348 0.49283 0.0
C376 C 0.4586 0.11213 0.52279 0.0
C377 C 0.42631 0.11537 0.62438 0.0
C378 C 0.39841 0.10326 0.63644 0.0
C379 C 0.41426 0.10203 0.65809 0.0
C380 C 0.4273 0.11048 0.64298 0.0
C381 C 0.39974 0.098 0.65516 0.0
C382 C 0.41162 0.11186 0.62114 0.0
C383 C 0.44066 0.12465 0.60939 0.0
O384 O 0.49099 0.13276 0.57204 0.0
O385 O 0.46989 0.15956 0.56519 0.0
O386 O 0.43545 0.13964 0.59591 0.0
O387 O 0.4575 0.11393 0.60384 0.0
H388 H 0.4727 0.16059 0.60045 0.0
H389 H 0.48743 0.17388 0.61318 0.0
H390 H 0.53526 0.17272 0.56432 0.0
H391 H 0.51998 0.16045 0.5515 0.0
H392 H 0.50461 0.12558 0.48957 0.0
H393 H 0.49193 0.131 0.52105 0.0
H394 H 0.45808 0.10288 0.50099 0.0
H395 H 0.44582 0.10811 0.53196 0.0
H396 H 0.38743 0.10038 0.63361 0.0
H397 H 0.41555 0.09873 0.6722 0.0
H398 H 0.43828 0.11331 0.6459 0.0
H399 H 0.41042 0.11566 0.60691 0.0
C400 C 0.5946 0.22354 0.67131 0.0
C401 C 0.60654 0.21251 0.65908 0.0
C402 C 0.57994 0.2162 0.64784 0.0
C403 C 0.59925 0.209 0.64724 0.0
C404 C 0.56844 0.22793 0.65944 0.0
C405 C 0.57571 0.23159 0.67094 0.0
U406 U 0.62571 0.22018 0.70304 0.0
O407 O 0.6193 0.24088 0.71837 0.0
O408 O 0.61699 0.21195 0.73394 0.0
C409 C 0.61494 0.22876 0.73494 0.0
C410 C 0.60017 0.22546 0.68625 0.0
C411 C 0.59846 0.23558 0.74929 0.0
C412 C 0.56569 0.23838 0.76706 0.0
C413 C 0.58023 0.23515 0.75109 0.0
C414 C 0.58718 0.24375 0.77879 0.0
C415 C 0.56922 0.24229 0.7812 0.0
C416 C 0.60169 0.24036 0.76299 0.0
C417 C 0.67917 0.19811 0.69654 0.0
C418 C 0.69859 0.19877 0.71411 0.0
C419 C 0.70943 0.17514 0.69756 0.0
C420 C 0.6931 0.18273 0.69124 0.0
C421 C 0.71243 0.18287 0.70927 0.0
C422 C 0.68205 0.2062 0.70796 0.0
C423 C 0.66165 0.20475 0.69044 0.0
O424 O 0.60516 0.21 0.69937 0.0
O425 O 0.60941 0.23804 0.68196 0.0
O426 O 0.65405 0.22306 0.6856 0.0
O427 O 0.64921 0.19495 0.70063 0.0
H428 H 0.62118 0.20608 0.65921 0.0
H429 H 0.6084 0.19986 0.63845 0.0
H430 H 0.55357 0.23378 0.66009 0.0
H431 H 0.56626 0.24011 0.68028 0.0
H432 H 0.55191 0.23708 0.76876 0.0
H433 H 0.57748 0.23141 0.74069 0.0
H434 H 0.59028 0.24643 0.78966 0.0
H435 H 0.61571 0.24056 0.76194 0.0
H436 H 0.70039 0.20551 0.72271 0.0
H437 H 0.71934 0.16274 0.69372 0.0
H438 H 0.69112 0.17624 0.68249 0.0
H439 H 0.67149 0.21812 0.71225 0.0
C440 C 0.48277 0.22272 0.95525 0.0
C441 C 0.47431 0.23977 0.94357 0.0
C442 C 0.4957 0.23034 0.91556 0.0
C443 C 0.48076 0.24356 0.92384 0.0
C444 C 0.50396 0.21337 0.92748 0.0
C445 C 0.49753 0.20962 0.94702 0.0
U446 U 0.45244 0.23442 1.00168 0.0
O447 O 0.44097 0.21594 0.02933 0.0
O448 O 0.46081 0.23104 0.02666 0.0
C449 C 0.45026 0.21949 0.03792 0.0
C450 C 0.47711 0.21831 0.97598 0.0
C451 C 0.45735 0.20429 0.0535 0.0
C452 C 0.47827 0.17457 0.0668 0.0
C453 C 0.47161 0.18779 0.05123 0.0
C454 C 0.4562 0.19412 0.08677 0.0
C455 C 0.47086 0.17786 0.08468 0.0
C456 C 0.4496 0.20711 0.07142 0.0
C457 C 0.41547 0.28396 0.9939 0.0
C458 C 0.39723 0.30446 0.01414 0.0
C459 C 0.39622 0.31489 0.98148 0.0
C460 C 0.40838 0.29773 0.97905 0.0
C461 C 0.39086 0.31865 0.99888 0.0
C462 C 0.40962 0.28718 0.01162 0.0
C463 C 0.43025 0.26747 0.98941 0.0
O464 O 0.48092 0.22878 0.98293 0.0
O465 O 0.46041 0.21508 0.98454 0.0
O466 O 0.4256 0.25159 0.99444 0.0
O467 O 0.44689 0.26522 0.99124 0.0
H468 H 0.46287 0.25012 0.94969 0.0
H469 H 0.47398 0.25672 0.91512 0.0
H470 H 0.51576 0.20303 0.92173 0.0
H471 H 0.50432 0.19649 0.95578 0.0
H472 H 0.48959 0.16218 0.06473 0.0
H473 H 0.47777 0.18532 0.03748 0.0
H474 H 0.44989 0.19695 0.10036 0.0
H475 H 0.43851 0.21966 0.07352 0.0
H476 H 0.39333 0.30704 0.02769 0.0
H477 H 0.39131 0.32542 0.96958 0.0
H478 H 0.41278 0.29545 0.96529 0.0
H479 H 0.41507 0.27668 0.02322 0.0
C480 C 0.32594 0.52711 0.07206 0.0
C481 C 0.34198 0.51421 0.06471 0.0
C482 C 0.36173 0.52443 0.07468 0.0
C483 C 0.35974 0.51291 0.06597 0.0
C484 C 0.34567 0.5379 0.08117 0.0
C485 C 0.328 0.53918 0.07989 0.0
U486 U 0.2898 0.51145 0.06265 0.0
O487 O 0.26595 0.50159 0.08423 0.0
O488 O 0.26062 0.52697 0.06041 0.0
C489 C 0.25342 0.51565 0.07645 0.0
C490 C 0.30677 0.5269 0.07378 0.0
C491 C 0.2346 0.51315 0.08041 0.0
C492 C 0.20143 0.52243 0.09616 0.0
C493 C 0.21921 0.52584 0.08869 0.0
C494 C 0.21378 0.49403 0.08613 0.0
C495 C 0.19856 0.50618 0.09556 0.0
C496 C 0.23176 0.49741 0.07873 0.0
C497 C 0.31432 0.47772 0.02961 0.0
C498 C 0.30569 0.45359 0.02515 0.0
C499 C 0.33763 0.45688 0.01162 0.0
C500 C 0.33256 0.47212 0.01865 0.0
C501 C 0.32445 0.44702 0.01526 0.0
C502 C 0.30068 0.4688 0.03245 0.0
C503 C 0.31138 0.49077 0.03997 0.0
O504 O 0.30036 0.53538 0.05866 0.0
O505 O 0.30263 0.51071 0.08335 0.0
O506 O 0.30759 0.48416 0.05843 0.0
O507 O 0.3027 0.50859 0.03376 0.0
H508 H 0.34067 0.50467 0.05869 0.0
H509 H 0.37173 0.50228 0.06091 0.0
H510 H 0.34666 0.54729 0.08757 0.0
H511 H 0.31578 0.54922 0.08564 0.0
H512 H 0.19 0.53229 0.10296 0.0
H513 H 0.22111 0.53802 0.09022 0.0
H514 H 0.21207 0.48138 0.08544 0.0
H515 H 0.24352 0.48737 0.07248 0.0
H516 H 0.29511 0.44653 0.0279 0.0
H517 H 0.35225 0.45215 0.00441 0.0
H518 H 0.34328 0.4788 0.01651 0.0
H519 H 0.2865 0.473 0.04097 0.0
C520 C 0.66977 0.59801 0.21431 0.0
C521 C 0.66088 0.61008 0.19994 0.0
C522 C 0.64491 0.58657 0.20527 0.0
C523 C 0.64857 0.60433 0.1954 0.0
C524 C 0.65304 0.57502 0.22024 0.0
C525 C 0.66541 0.58068 0.22466 0.0
U526 U 0.70311 0.62605 0.21278 0.0
O527 O 0.71882 0.61837 0.23386 0.0
O528 O 0.73396 0.6168 0.20495 0.0
C529 C 0.73521 0.61411 0.2219 0.0
C530 C 0.68557 0.60145 0.21722 0.0
C531 C 0.74949 0.59733 0.22895 0.0
C532 C 0.7663 0.56421 0.23332 0.0
C533 C 0.75081 0.57919 0.22898 0.0
C534 C 0.77881 0.58534 0.23814 0.0
C535 C 0.78075 0.56721 0.23752 0.0
C536 C 0.76333 0.60015 0.23397 0.0
C537 C 0.69774 0.67939 0.19201 0.0
C538 C 0.72355 0.69382 0.18203 0.0
C539 C 0.69266 0.71339 0.17845 0.0
C540 C 0.68574 0.69733 0.18652 0.0
C541 C 0.71178 0.71175 0.17559 0.0
C542 C 0.7166 0.67779 0.19017 0.0
C543 C 0.69082 0.6625 0.19788 0.0
O544 O 0.69877 0.60654 0.20207 0.0
O545 O 0.68194 0.6098 0.23014 0.0
O546 O 0.68611 0.65421 0.2161 0.0
O547 O 0.70054 0.65049 0.18789 0.0
H548 H 0.66412 0.62348 0.1917 0.0
H549 H 0.64246 0.61341 0.18374 0.0
H550 H 0.65063 0.56118 0.22787 0.0
H551 H 0.6723 0.57106 0.23562 0.0
H552 H 0.76714 0.55039 0.23301 0.0
H553 H 0.74022 0.57674 0.22512 0.0
H554 H 0.78968 0.58841 0.24094 0.0
H555 H 0.7626 0.6141 0.23388 0.0
H556 H 0.73828 0.69213 0.18033 0.0
H557 H 0.68325 0.72694 0.17358 0.0
H558 H 0.67115 0.69884 0.18781 0.0
H559 H 0.72609 0.66409 0.19441 0.0
C560 C 0.15395 0.57578 0.49838 0.0
C561 C 0.15219 0.59524 0.49289 0.0
C562 C 0.16874 0.59067 0.51583 0.0
C563 C 0.15953 0.60262 0.50154 0.0
C564 C 0.17087 0.57115 0.52075 0.0
C565 C 0.16352 0.56386 0.51218 0.0
U566 U 0.12696 0.57462 0.46596 0.0
O567 O 0.1321 0.55142 0.45424 0.0
O568 O 0.10549 0.5591 0.47498 0.0
C569 C 0.11581 0.54776 0.46436 0.0
C570 C 0.14532 0.56728 0.49094 0.0
C571 C 0.11511 0.52773 0.47202 0.0
C572 C 0.11326 0.49833 0.49731 0.0
C573 C 0.11576 0.51672 0.49058 0.0
C574 C 0.10962 0.50184 0.46706 0.0
C575 C 0.11003 0.49067 0.48562 0.0
C576 C 0.11221 0.51997 0.4604 0.0
C577 C 0.11165 0.62388 0.42803 0.0
C578 C 0.09273 0.63612 0.40538 0.0
C579 C 0.10638 0.65682 0.40927 0.0
C580 C 0.1145 0.64182 0.42276 0.0
C581 C 0.09524 0.65438 0.40033 0.0
C582 C 0.10078 0.62104 0.41916 0.0
C583 C 0.11982 0.60917 0.44333 0.0
O584 O 0.12687 0.57257 0.49445 0.0
O585 O 0.15372 0.56534 0.47389 0.0
O586 O 0.13498 0.59587 0.43898 0.0
O587 O 0.10834 0.60342 0.45978 0.0
H588 H 0.14481 0.60472 0.48226 0.0
H589 H 0.15745 0.61773 0.49743 0.0
H590 H 0.17822 0.56137 0.53129 0.0
H591 H 0.16509 0.54879 0.51658 0.0
H592 H 0.11384 0.49016 0.51163 0.0
H593 H 0.11791 0.5224 0.4999 0.0
H594 H 0.10673 0.49684 0.45767 0.0
H595 H 0.11141 0.52822 0.44614 0.0
H596 H 0.08456 0.63339 0.39872 0.0
H597 H 0.10847 0.6705 0.40637 0.0
H598 H 0.12276 0.64439 0.42947 0.0
H599 H 0.09841 0.60729 0.42295 0.0
C600 C 0.78921 0.97034 0.82617 0.0
C601 C 0.80483 0.96895 0.81051 0.0
C602 C 0.82612 0.9561 0.83104 0.0
C603 C 0.82317 0.96191 0.81293 0.0
C604 C 0.81036 0.9583 0.84644 0.0
C605 C 0.79216 0.96529 0.84401 0.0
U606 U 0.74886 0.99203 0.80071 0.0
O607 O 0.72601 0.98001 0.8051 0.0
O608 O 0.71935 0.00672 0.81149 0.0
C609 C 0.71282 0.99366 0.81142 0.0
C610 C 0.76966 0.97555 0.8249 0.0
C611 C 0.69747 0.98795 0.8276 0.0
C612 C 0.686 0.96774 0.85855 0.0
C613 C 0.70076 0.97472 0.84458 0.0
C614 C 0.6645 0.98785 0.83908 0.0
C615 C 0.66788 0.97407 0.85569 0.0
C616 C 0.67923 0.99473 0.82513 0.0
C617 C 0.75874 0.01513 0.74695 0.0
C618 C 0.73888 0.02041 0.72708 0.0
C619 C 0.76894 0.02822 0.7131 0.0
C620 C 0.77195 0.02241 0.73095 0.0
C621 C 0.75262 0.02684 0.71102 0.0
C622 C 0.74188 0.01463 0.74504 0.0
C623 C 0.76402 0.00627 0.76491 0.0
O624 O 0.76083 0.99358 0.82117 0.0
O625 O 0.76623 0.96645 0.81614 0.0
O626 O 0.76414 0.98839 0.77261 0.0
O627 O 0.75682 0.01612 0.77715 0.0
H628 H 0.80285 0.97276 0.79658 0.0
H629 H 0.83495 0.96034 0.80075 0.0
H630 H 0.81204 0.9544 0.8605 0.0
H631 H 0.7803 0.9663 0.85625 0.0
H632 H 0.68883 0.95689 0.87125 0.0
H633 H 0.7148 0.96927 0.84668 0.0
H634 H 0.6507 0.99261 0.83651 0.0
H635 H 0.67651 0.00481 0.81203 0.0
H636 H 0.72633 0.01901 0.72563 0.0
H637 H 0.77982 0.03282 0.70082 0.0
H638 H 0.78507 0.02276 0.73218 0.0
H639 H 0.73154 0.00895 0.75728 0.0
C640 C 0.22254 0.95764 0.48969 0.0
C641 C 0.23824 0.94575 0.4805 0.0
C642 C 0.22831 0.91806 0.50371 0.0
C643 C 0.24112 0.92605 0.48748 0.0
C644 C 0.21282 0.9302 0.51282 0.0
C645 C 0.20996 0.94969 0.50584 0.0
U646 U 0.23632 0.00381 0.45865 0.0
O647 O 0.21905 0.03151 0.44583 0.0
O648 O 0.2329 0.02876 0.4667 0.0
C649 C 0.22189 0.04002 0.45559 0.0
C650 C 0.21893 0.97833 0.48332 0.0
C651 C 0.20586 0.05452 0.46286 0.0
C652 C 0.17791 0.06492 0.48655 0.0
C653 C 0.19204 0.05028 0.47981 0.0
C654 C 0.19127 0.08793 0.45944 0.0
C655 C 0.17743 0.08398 0.47648 0.0
C656 C 0.20521 0.0734 0.45274 0.0
C657 C 0.28641 0.99574 0.42302 0.0
C658 C 0.30695 0.01638 0.40356 0.0
C659 C 0.31754 0.98327 0.40485 0.0
C660 C 0.30031 0.98069 0.41709 0.0
C661 C 0.32122 1.001 0.39826 0.0
C662 C 0.28959 0.01374 0.416 0.0
C663 C 0.26957 0.99134 0.43757 0.0
O664 O 0.22938 0.98517 0.48741 0.0
O665 O 0.21651 0.98682 0.46625 0.0
O666 O 0.25396 0.99638 0.43241 0.0
O667 O 0.26697 0.99332 0.45412 0.0
H668 H 0.24821 0.95166 0.46801 0.0
H669 H 0.25316 0.91715 0.48006 0.0
H670 H 0.20293 0.92467 0.52562 0.0
H671 H 0.1979 0.95861 0.51323 0.0
H672 H 0.1674 0.06132 0.49963 0.0
H673 H 0.19232 0.03575 0.48788 0.0
H674 H 0.19174 0.10231 0.45144 0.0
H675 H 0.21583 0.07697 0.43973 0.0
H676 H 0.30948 0.0302 0.39871 0.0
H677 H 0.32812 0.97125 0.40076 0.0
H678 H 0.29802 0.96673 0.42238 0.0
H679 H 0.27896 0.02551 0.42052 0.0
C680 C 0.23503 0.94795 0.86985 0.0
C681 C 0.22299 0.9579 0.85785 0.0
C682 C 0.20469 0.93431 0.87381 0.0
C683 C 0.2079 0.95113 0.85983 0.0
C684 C 0.21658 0.92485 0.88601 0.0
C685 C 0.23153 0.93155 0.88399 0.0
U686 U 0.27732 0.9726 0.85101 0.0
O687 O 0.28719 0.97968 0.86969 0.0
O688 O 0.30513 0.95719 0.85631 0.0
C689 C 0.30321 0.96665 0.86766 0.0
C690 C 0.25142 0.95373 0.8686 0.0
C691 C 0.31072 0.95598 0.88433 0.0
C692 C 0.31654 0.92815 0.9107 0.0
C693 C 0.30691 0.9388 0.89659 0.0
C694 C 0.33313 0.95213 0.9008 0.0
C695 C 0.32992 0.93467 0.91275 0.0
C696 C 0.32366 0.96261 0.88675 0.0
C697 C 0.29086 0.00874 0.80183 0.0
C698 C 0.31897 0.02058 0.78774 0.0
C699 C 0.29594 0.03043 0.77013 0.0
C700 C 0.28493 0.01952 0.78537 0.0
C701 C 0.31329 0.03106 0.77088 0.0
C702 C 0.30794 0.00948 0.80301 0.0
C703 C 0.27924 0.99634 0.81687 0.0
O704 O 0.26775 0.94737 0.8576 0.0
O705 O 0.24895 0.97071 0.86951 0.0
O706 O 0.26953 1.00142 0.83236 0.0
O707 O 0.28686 0.97808 0.82015 0.0
H708 H 0.22536 0.97068 0.84688 0.0
H709 H 0.19909 0.95879 0.85013 0.0
H710 H 0.21437 0.91219 0.89725 0.0
H711 H 0.2405 0.92376 0.89355 0.0
H712 H 0.31379 0.91475 0.9198 0.0
H713 H 0.29698 0.93341 0.89491 0.0
H714 H 0.34354 0.95738 0.90182 0.0
H715 H 0.32695 0.97571 0.87731 0.0
H716 H 0.33198 0.02086 0.78922 0.0
H717 H 0.29101 0.03786 0.7575 0.0
H718 H 0.27185 0.01914 0.7841 0.0
H719 H 0.31283 1.00134 0.8156 0.0
C720 C 0.98575 0.47053 0.86611 0.0
C721 C 0.99351 0.45573 0.85782 0.0
C722 C 0.9723 0.43793 0.88263 0.0
C723 C 0.98693 0.4396 0.86598 0.0
C724 C 0.96482 0.45269 0.89123 0.0
C725 C 0.97149 0.46894 0.88298 0.0
U726 U 0.99427 0.52154 0.85073 0.0
O727 O 0.96835 0.5408 0.8628 0.0
O728 O 0.99305 0.52965 0.87502 0.0
C729 C 0.97581 0.54046 0.87534 0.0
C730 C 0.99243 0.48759 0.85581 0.0
C731 C 0.96539 0.55109 0.88923 0.0
C732 C 0.93754 0.5594 0.91386 0.0
C733 C 0.9484 0.54776 0.90205 0.0
C734 C 0.96072 0.57753 0.90015 0.0
C735 C 0.94338 0.5747 0.91263 0.0
C736 C 0.97166 0.56576 0.88862 0.0
C737 C 0.02095 0.55497 0.80886 0.0
C738 C 0.01608 0.588 0.80502 0.0
C739 C 0.04226 0.57236 0.78366 0.0
C740 C 0.03679 0.55558 0.79335 0.0
C741 C 0.03189 0.58861 0.78947 0.0
C742 C 0.01061 0.57125 0.8147 0.0
C743 C 0.01539 0.53727 0.81853 0.0
O744 O 0.00452 0.49067 0.86148 0.0
O745 O 0.98064 0.50297 0.84849 0.0
O746 O 0.99764 0.53842 0.82111 0.0
O747 O 0.02183 0.52657 0.83334 0.0
H748 H 0.00455 0.45678 0.84475 0.0
H749 H 0.99334 0.42844 0.85914 0.0
H750 H 0.95341 0.45198 0.90396 0.0
H751 H 0.96529 0.48033 0.8895 0.0
H752 H 0.9242 0.55698 0.92327 0.0
H753 H 0.94335 0.53647 0.90263 0.0
H754 H 0.96566 0.58911 0.89902 0.0
H755 H 0.98468 0.56856 0.87871 0.0
H756 H 0.00805 0.60049 0.80971 0.0
H757 H 0.0546 0.57263 0.77179 0.0
H758 H 0.04492 0.54307 0.78874 0.0
H759 H 0.99837 0.57098 0.82669 0.0
C760 C 0.96204 0.83349 0.79744 0.0
C761 C 0.96496 0.81735 0.81271 0.0
C762 C 0.94874 0.83658 0.83479 0.0
C763 C 0.95842 0.81891 0.83125 0.0
C764 C 0.94641 0.85263 0.8193 0.0
C765 C 0.95295 0.85107 0.80093 0.0
U766 U 0.98503 0.81002 0.75615 0.0
O767 O 0.97331 0.81434 0.73308 0.0
O768 O 0.99938 0.8224 0.72667 0.0
C769 C 0.98693 0.82126 0.71998 0.0
C770 C 0.96738 0.83277 0.77776 0.0
C771 C 0.9819 0.83638 0.70345 0.0
C772 C 0.96352 0.86692 0.68858 0.0
C773 C 0.96907 0.85383 0.70467 0.0
C774 C 0.98395 0.84537 0.67007 0.0
C775 C 0.97063 0.86262 0.67119 0.0
C776 C 0.98948 0.83242 0.68604 0.0
C777 C 0.01141 0.75733 0.764 0.0
C778 C 0.01336 0.73397 0.74995 0.0
C779 C 0.03484 0.7273 0.76848 0.0
C780 C 0.02664 0.74512 0.77133 0.0
C781 C 0.02773 0.72114 0.75853 0.0
C782 C 0.0053 0.75197 0.75261 0.0
C783 C 1.0011 0.77449 0.77021 0.0
O784 O 0.9853 0.83049 0.76866 0.0
O785 O 0.959 0.82328 0.77425 0.0
O786 O 0.98313 0.78088 0.77059 0.0
O787 O 0.00985 0.78786 0.76385 0.0
H788 H 0.97196 0.80361 0.81035 0.0
H789 H 0.96042 0.80623 0.84283 0.0
H790 H 0.93943 0.8665 0.82136 0.0
H791 H 0.95062 0.86369 0.78936 0.0
H792 H 0.95313 0.88004 0.68995 0.0
H793 H 0.96304 0.8571 0.71804 0.0
H794 H 0.98999 0.84173 0.65688 0.0
H795 H 0.99943 0.81902 0.68486 0.0
H796 H 0.00749 0.72978 0.7422 0.0
H797 H 0.0463 0.71809 0.77476 0.0
H798 H 0.0317 0.74906 0.77997 0.0
H799 H 0.99368 0.76128 0.7466 0.0
C800 C 0.86512 0.88001 0.0761 0.0
C801 C 0.85799 0.87052 0.09498 0.0
C802 C 0.87509 0.88344 0.10547 0.0
C803 C 0.86285 0.87229 0.10951 0.0
C804 C 0.88128 0.8937 0.08659 0.0
C805 C 0.87632 0.89201 0.07213 0.0
U806 U 0.84167 0.86178 0.05328 0.0
O807 O 0.83831 0.87194 0.02427 0.0
O808 O 0.85552 0.84331 0.0346 0.0
C809 C 0.84868 0.85589 0.0206 0.0
C810 C 0.86299 0.87612 0.06021 0.0
C811 C 0.86032 0.85606 1.00117 0.0
C812 C 0.88724 0.86168 0.97429 0.0
C813 C 0.87627 0.86322 0.99242 0.0
C814 C 0.86626 0.84611 0.97362 0.0
C815 C 0.8825 0.85279 0.96474 0.0
C816 C 0.85537 0.84776 0.99148 0.0
C817 C 0.79839 0.84174 0.08695 0.0
C818 C 0.78422 0.82087 0.08371 0.0
C819 C 0.77383 0.8294 0.11279 0.0
C820 C 0.78638 0.84071 0.1051 0.0
C821 C 0.77289 0.81888 0.10244 0.0
C822 C 0.79698 0.8321 0.07607 0.0
C823 C 0.81343 0.85125 0.08101 0.0
O824 O 0.86689 0.85822 0.06133 0.0
O825 O 0.84815 0.88651 0.05374 0.0
O826 O 0.81157 0.86801 0.06867 0.0
O827 O 0.83074 0.84052 0.07828 0.0
H828 H 0.8492 0.86125 0.09842 0.0
H829 H 0.85735 0.86454 0.12387 0.0
H830 H 0.8908 0.90232 0.08275 0.0
H831 H 0.882 0.89944 0.05767 0.0
H832 H 0.89969 0.86692 0.96803 0.0
H833 H 0.88039 0.86967 0.99967 0.0
H834 H 0.86186 0.83945 0.96684 0.0
H835 H 0.84309 0.84219 0.99792 0.0
H836 H 0.78363 0.81335 0.0751 0.0
H837 H 0.76564 0.82816 0.12727 0.0
H838 H 0.78734 0.84799 0.11374 0.0
H839 H 0.80613 0.83275 0.06198 0.0
C840 C 0.94832 0.87099 0.23359 0.0
C841 C 0.95338 0.85551 0.22663 0.0
C842 C 0.93442 0.8741 0.20377 0.0
C843 C 0.94657 0.85708 0.21179 0.0
C844 C 0.92981 0.88958 0.21068 0.0
C845 C 0.93672 0.88802 0.22531 0.0
U846 U 0.9715 0.85207 0.27686 0.0
O847 O 0.97945 0.87033 0.28639 0.0
O848 O 0.95587 0.85768 0.30421 0.0
C849 C 0.96606 0.8686 0.30221 0.0
C850 C 0.95351 0.87002 0.25018 0.0
C851 C 0.95637 0.88516 0.3095 0.0
C852 C 0.92857 0.91001 0.31785 0.0
C853 C 0.93843 0.89672 0.30754 0.0
C854 C 0.95487 0.9008 0.33124 0.0
C855 C 0.9365 0.91159 0.33035 0.0
C856 C 0.96467 0.88779 0.32091 0.0
C857 C 0.00557 0.80212 0.2922 0.0
C858 C 0.02378 0.78936 0.31563 0.0
C859 C 0.01992 0.76838 0.30249 0.0
C860 C 0.0093 0.78376 0.29133 0.0
C861 C 0.02719 0.77083 0.31498 0.0
C862 C 0.013 0.80488 0.30439 0.0
C863 C 0.99396 0.81767 0.28003 0.0
O864 O 0.94661 0.85904 0.26659 0.0
O865 O 0.97058 0.87077 0.24808 0.0
O866 O 0.99985 0.83299 0.27023 0.0
O867 O 0.97561 0.82125 0.28705 0.0
H868 H 0.96231 0.8422 0.23281 0.0
H869 H 0.95078 0.84491 0.20669 0.0
H870 H 0.92031 0.90281 0.20529 0.0
H871 H 0.93252 0.90012 0.23056 0.0
H872 H 0.9144 0.91816 0.31696 0.0
H873 H 0.93174 0.89488 0.2988 0.0
H874 H 0.96139 0.90185 0.3406 0.0
H875 H 0.97846 0.87902 0.32263 0.0
H876 H 0.02907 0.79183 0.32512 0.0
H877 H 0.02252 0.75448 0.30121 0.0
H878 H 0.0039 0.78126 0.28194 0.0
H879 H 0.01037 0.81893 0.30533 0.0
C880 C 0.86191 0.98766 0.46488 0.0
C881 C 0.84938 0.98353 0.45906 0.0
C882 C 0.87392 0.97749 0.43124 0.0
C883 C 0.85536 0.97847 0.44234 0.0
C884 C 0.88627 0.98222 0.43673 0.0
C885 C 0.88026 0.98741 0.4534 0.0
U886 U 0.84371 0.99834 0.51578 0.0
O887 O 0.85094 0.97459 0.53998 0.0
O888 O 0.86448 0.99811 0.52853 0.0
C889 C 0.86221 0.98234 0.54168 0.0
C890 C 0.85602 0.99154 0.48318 0.0
C891 C 0.87734 0.97033 0.5508 0.0
C892 C 0.90536 0.94456 0.55422 0.0
C893 C 0.89191 0.95605 0.54404 0.0
C894 C 0.88957 0.96168 0.57771 0.0
C895 C 0.90428 0.94726 0.57123 0.0
C896 C 0.87635 0.97309 0.56756 0.0
C897 C 0.80068 0.02764 0.54253 0.0
C898 C 0.80043 0.03207 0.57131 0.0
C899 C 0.77105 0.0355 0.56548 0.0
C900 C 0.78097 0.03166 0.54818 0.0
C901 C 0.78077 0.03559 0.57716 0.0
C902 C 0.81036 0.02798 0.55416 0.0
C903 C 0.811 0.02172 0.52526 0.0
O904 O 0.86042 0.00469 0.48587 0.0
O905 O 0.84552 0.9819 0.49801 0.0
O906 O 0.81298 0.00397 0.52719 0.0
O907 O 0.82649 0.02721 0.51558 0.0
H908 H 0.8351 0.98379 0.46766 0.0
H909 H 0.84573 0.9746 0.43843 0.0
H910 H 0.90077 0.98117 0.42851 0.0
H911 H 0.89013 0.99053 0.45768 0.0
H912 H 0.91657 0.93363 0.54879 0.0
H913 H 0.89278 0.95373 0.5311 0.0
H914 H 0.88789 0.9639 0.59095 0.0
H915 H 0.86504 0.98396 0.57305 0.0
H916 H 0.80814 0.03171 0.58039 0.0
H917 H 0.75588 0.03788 0.56998 0.0
H918 H 0.7733 0.03126 0.53947 0.0
H919 H 0.8256 0.02461 0.55023 0.0
C920 C 0.88041 0.08094 0.86201 0.0
C921 C 0.87194 0.09978 0.85338 0.0
C922 C 0.88253 0.11098 0.87187 0.0
C923 C 0.8731 0.11469 0.8582 0.0
C924 C 0.89174 0.09216 0.87958 0.0
C925 C 0.89067 0.07742 0.87472 0.0
U926 U 0.86444 0.0543 0.83979 0.0
O927 O 0.87709 0.02505 0.83746 0.0
O928 O 0.84816 0.03299 0.85492 0.0
C929 C 0.86168 0.01975 0.84822 0.0
C930 C 0.87755 0.06444 0.85977 0.0
C931 C 0.86238 0.99963 0.8589 0.0
C932 C 0.87573 0.96822 0.87792 0.0
C933 C 0.87646 0.98712 0.86806 0.0
C934 C 0.84753 0.97409 0.8688 0.0
C935 C 0.86094 0.96162 0.87874 0.0
C936 C 0.84819 0.99273 0.8592 0.0
C937 C 0.84169 0.08968 0.797 0.0
C938 C 0.8231 0.08958 0.77823 0.0
C939 C 0.82669 0.11906 0.77718 0.0
C940 C 0.83807 0.10929 0.78961 0.0
C941 C 0.81858 0.10945 0.77175 0.0
C942 C 0.8345 0.0797 0.79097 0.0
C943 C 0.85141 0.08108 0.8122 0.0
O944 O 0.86006 0.06366 0.86422 0.0
O945 O 0.88821 0.0586 0.84489 0.0
O946 O 0.86863 0.07006 0.80944 0.0
O947 O 0.84117 0.07691 0.82967 0.0
H948 H 0.86393 0.1029 0.84349 0.0
H949 H 0.86583 0.12899 0.85195 0.0
H950 H 0.89951 0.0887 0.88979 0.0
H951 H 0.89738 0.06306 0.88149 0.0
H952 H 0.88636 0.95899 0.88535 0.0
H953 H 0.88775 0.99197 0.86784 0.0
H954 H 0.83626 0.96949 0.86857 0.0
H955 H 0.8374 1.0019 0.85193 0.0
H956 H 0.81702 0.08181 0.77428 0.0
H957 H 0.82372 0.1343 0.77225 0.0
H958 H 0.84349 0.11724 0.79406 0.0
H959 H 0.8371 0.06452 0.79656 0.0
H960 H 0.99521 0.40464 0.34625 0.0
H961 H 0.0185 0.30917 0.4273 0.0
H962 H 0.00879 0.34955 0.33932 0.0
H963 H 1.00126 0.36473 0.4347 0.0
H964 H 0.01358 0.32337 0.39574 0.0
H965 H 0.99666 0.39003 0.37911 0.0
C966 C 0.99869 0.38941 0.35172 0.0
C967 C 1.00219 0.37818 0.34022 0.0
C968 C 0.01073 0.33244 0.40432 0.0
C969 C 0.00371 0.36135 0.37765 0.0
C970 C 0.01336 0.32435 0.42244 0.0
C971 C 0.01035 0.33581 0.43367 0.0
C972 C 0.00516 0.35214 0.39732 0.0
C973 C 0.00404 0.35538 0.42644 0.0
C974 C 0.9994 0.38108 0.37044 0.0
C975 C 0.00626 0.35857 0.34785 0.0
N976 N 1.00177 0.36293 0.40868 0.0
N977 N 0.00702 0.35071 0.36614 0.0
H978 H 0.18575 0.72251 0.74098 0.0
H979 H 0.08333 0.75686 0.80644 0.0
H980 H 0.13458 0.72309 0.73209 0.0
H981 H 0.13357 0.76851 0.80444 0.0
H982 H 0.10227 0.73929 0.78316 0.0
H983 H 0.16712 0.73405 0.76829 0.0
C984 C 0.17061 0.725 0.74471 0.0
C985 C 0.1618 0.72219 0.73374 0.0
C986 C 0.10911 0.74559 0.78797 0.0
C987 C 0.1403 0.73507 0.76557 0.0
C988 C 0.09831 0.75569 0.8012 0.0
C989 C 0.10678 0.76431 0.80742 0.0
C990 C 0.12853 0.74409 0.7809 0.0
C991 C 0.12635 0.76198 0.80033 0.0
C992 C 0.15997 0.7315 0.76045 0.0
C993 C 0.14212 0.725 0.73996 0.0
N994 N 0.13648 0.75223 0.78743 0.0
N995 N 0.13204 0.73142 0.75534 0.0
H996 H 0.70097 0.73603 0.014 0.0
H997 H 0.5968 0.78851 0.06108 0.0
H998 H 0.68906 0.76568 0.0545 0.0
H999 H 0.61042 0.75988 0.01942 0.0
H1000 H 0.62989 0.77698 0.06221 0.0
H1001 H 0.66745 0.74158 0.01888 0.0
C1002 C 0.6913 0.74351 0.02415 0.0
C1003 C 0.69792 0.75038 0.03387 0.0
C1004 C 0.62562 0.77306 0.05296 0.0
C1005 C 0.65922 0.75716 0.03927 0.0
C1006 C 0.60679 0.77957 0.05237 0.0
C1007 C 0.60107 0.77509 0.04013 0.0
C1008 C 0.63877 0.76232 0.04093 0.0
C1009 C 0.61436 0.76351 0.0291 0.0
C1010 C 0.67209 0.74678 0.02684 0.0
C1011 C 0.68461 0.76033 0.04653 0.0
N1012 N 0.63266 0.75771 0.02959 0.0
N1013 N 0.66586 0.76351 0.04881 0.0
H1014 H 0.73135 0.34577 0.00899 0.0
H1015 H 0.67904 0.38405 0.10005 0.0
H1016 H 0.75727 0.33532 0.05281 0.0
H1017 H 0.65524 0.40211 0.05285 0.0
H1018 H 0.70648 0.36382 0.0841 0.0
H1019 H 0.70214 0.36346 0.02626 0.0
C1020 C 0.73096 0.34697 0.02229 0.0
C1021 C 0.7471 0.33903 0.02922 0.0
C1022 C 0.69525 0.37215 0.07722 0.0
C1023 C 0.71352 0.35971 0.04901 0.0
C1024 C 0.67951 0.3839 0.08629 0.0
C1025 C 0.6647 0.39528 0.07775 0.0
C1026 C 0.69634 0.3714 0.05943 0.0
C1027 C 0.66612 0.39368 0.06014 0.0
C1028 C 0.71425 0.35727 0.03207 0.0
C1029 C 0.74552 0.34144 0.04651 0.0
N1030 N 0.68165 0.38208 0.05157 0.0
N1031 N 0.72916 0.35157 0.05568 0.0
H1032 H 0.33108 0.02908 0.36638 0.0
H1033 H 0.44112 0.9863 0.35939 0.0
H1034 H 0.35477 0.97722 0.4043 0.0
H1035 H 0.41796 0.03825 0.32108 0.0
H1036 H 0.40971 0.98141 0.37433 0.0
H1037 H 0.36301 0.03166 0.34808 0.0
C1038 C 0.343 0.01828 0.37084 0.0
C1039 C 0.3403 1.00293 0.38683 0.0
C1040 C 0.41154 0.99376 0.36249 0.0
C1041 C 0.37673 0.00568 0.36603 0.0
C1042 C 0.42949 0.99659 0.35397 0.0
C1043 C 0.43222 0.01285 0.33907 0.0
C1044 C 0.39618 0.00722 0.35604 0.0
C1045 C 0.41663 0.02544 0.3324 0.0
C1046 C 0.36119 0.01967 0.36035 0.0
C1047 C 0.35621 0.98918 0.39192 0.0
N1048 N 0.39925 0.02244 0.34105 0.0
N1049 N 0.37373 0.99093 0.3816 0.0
H1050 H 0.4085 0.06907 0.68577 0.0
H1051 H 0.30272 0.06367 0.74289 0.0
H1052 H 0.36107 0.10373 0.66269 0.0
H1053 H 0.35219 0.02357 0.75954 0.0
H1054 H 0.32309 0.07969 0.7145 0.0
H1055 H 0.38743 0.05384 0.71369 0.0
C1056 C 0.39361 0.07359 0.68655 0.0
C1057 C 0.38665 0.08793 0.67176 0.0
C1058 C 0.32945 0.0674 0.72441 0.0
C1059 C 0.36216 0.07012 0.70406 0.0
C1060 C 0.31781 0.05808 0.74068 0.0
C1061 C 0.32555 0.04195 0.75391 0.0
C1062 C 0.34909 0.06078 0.72125 0.0
C1063 C 0.34532 0.03598 0.75017 0.0
C1064 C 0.38154 0.06474 0.70256 0.0
C1065 C 0.36717 0.09272 0.67362 0.0
N1066 N 0.35628 0.04535 0.73431 0.0
N1067 N 0.35561 0.08392 0.68949 0.0
H1068 H 0.71576 0.18179 0.7432 0.0
H1069 H 0.81483 0.10521 0.74023 0.0
H1070 H 0.74804 0.16254 0.69373 0.0
H1071 H 0.78918 0.13909 0.77904 0.0
H1072 H 0.79013 0.12439 0.72342 0.0
H1073 H 0.74239 0.16515 0.75675 0.0
C1074 C 0.72844 0.17434 0.73496 0.0
C1075 C 0.72933 0.17368 0.71718 0.0
C1076 C 0.79004 0.12763 0.73557 0.0
C1077 C 0.75999 0.15375 0.73324 0.0
C1078 C 0.80402 0.11663 0.74521 0.0
C1079 C 0.80406 0.12056 0.76105 0.0
C1080 C 0.77586 0.14238 0.74209 0.0
C1081 C 0.78982 0.13563 0.76681 0.0
C1082 C 0.74368 0.16461 0.74288 0.0
C1083 C 0.74628 0.16318 0.70766 0.0
N1084 N 0.7763 0.14585 0.75745 0.0
N1085 N 0.76083 0.15349 0.71588 0.0
H1086 H 0.39643 0.35216 0.9741 0.0
H1087 H 0.31255 0.41482 0.03576 0.0
H1088 H 0.36016 0.32867 0.02715 0.0
H1089 H 0.35167 0.43735 0.98455 0.0
H1090 H 0.3271 0.38369 0.03079 0.0
H1091 H 0.37817 0.38373 0.97633 0.0
C1092 C 0.38449 0.35367 0.98617 0.0
C1093 C 0.37974 0.33778 1.00044 0.0
C1094 C 0.33242 0.39548 0.0206 0.0
C1095 C 0.3588 0.37395 1.00315 0.0
C1096 C 0.32395 0.41337 0.02327 0.0
C1097 C 0.331 0.4288 0.01068 0.0
C1098 C 0.34813 0.39297 0.00532 0.0
C1099 C 0.34602 0.42584 0.99492 0.0
C1100 C 0.3741 0.37171 0.98746 0.0
C1101 C 0.36435 0.34056 0.01592 0.0
N1102 N 0.35421 0.40825 0.99282 0.0
N1103 N 0.35439 0.35834 0.01687 0.0
H1104 H 0.73889 0.82047 0.12992 0.0
H1105 H 0.74439 0.71265 0.1478 0.0
H1106 H 0.78113 0.78435 0.09682 0.0
H1107 H 0.69737 0.74855 0.17769 0.0
H1108 H 0.75772 0.73938 0.12928 0.0
H1109 H 0.72308 0.79509 0.14759 0.0
C1110 C 0.74484 0.80731 0.12624 0.0
C1111 C 0.76157 0.80465 0.11181 0.0
C1112 C 0.74448 0.74151 0.13987 0.0
C1113 C 0.7433 0.77557 0.13197 0.0
C1114 C 0.73694 0.72616 0.15061 0.0
C1115 C 0.71985 0.72825 0.16452 0.0
C1116 C 0.735 0.75925 0.14301 0.0
C1117 C 0.71059 0.74629 0.16712 0.0
C1118 C 0.7357 0.79285 0.13632 0.0
C1119 C 0.76824 0.78734 0.10756 0.0
N1120 N 0.71835 0.76109 0.15655 0.0
N1121 N 0.75918 0.77353 0.11763 0.0
H1122 H 0.06151 0.66093 0.39241 0.0
H1123 H 0.05912 0.76647 0.32504 0.0
H1124 H 0.10723 0.68637 0.37631 0.0
H1125 H 0.01945 0.73634 0.3335 0.0
H1126 H 0.07628 0.73806 0.34488 0.0
H1127 H 0.04578 0.68875 0.37136 0.0
C1128 C 0.06844 0.67217 0.3844 0.0
C1129 C 0.08584 0.67102 0.3865 0.0
C1130 C 0.06384 0.73768 0.34233 0.0
C1131 C 0.06733 0.70357 0.36249 0.0
C1132 C 0.05394 0.75397 0.33111 0.0
C1133 C 0.03777 0.75391 0.32744 0.0
C1134 C 0.05746 0.7212 0.35018 0.0
C1135 C 0.03194 0.73711 0.33561 0.0
C1136 C 0.05927 0.68824 0.37244 0.0
C1137 C 0.09366 0.68653 0.37576 0.0
N1138 N 0.04169 0.72157 0.34655 0.0
N1139 N 0.08433 0.70211 0.36441 0.0
H1140 H 0.77117 0.06547 0.59111 0.0
H1141 H 0.76496 0.99938 0.69422 0.0
H1142 H 0.76902 0.00788 0.6069 0.0
H1143 H 0.73944 0.05904 0.6849 0.0
H1144 H 0.76744 1.00275 0.66157 0.0
H1145 H 0.75973 0.0646 0.6247 0.0
C1146 C 0.76789 0.05282 0.60169 0.0
C1147 C 0.77093 0.03671 0.59649 0.0
C1148 C 0.76098 0.01509 0.66669 0.0
C1149 C 0.75851 0.03542 0.63446 0.0
C1150 C 0.75955 0.01314 0.68528 0.0
C1151 C 0.7518 0.02892 0.6921 0.0
C1152 C 0.75501 0.03305 0.65471 0.0
C1153 C 0.74537 0.04657 0.68 0.0
C1154 C 0.76139 0.05232 0.62074 0.0
C1155 C 0.76672 0.02056 0.61049 0.0
N1156 N 0.74731 0.04825 0.6617 0.0
N1157 N 0.76101 0.02022 0.62889 0.0
H1158 H 0.03156 0.7052 0.73118 0.0
H1159 H 0.05272 0.60093 0.8005 0.0
H1160 H 0.03699 0.69059 0.78768 0.0
H1161 H 0.02391 0.61596 0.75786 0.0
H1162 H 0.0571 0.63276 0.78903 0.0
H1163 H 0.03762 0.6715 0.73489 0.0
C1164 C 0.03421 0.69501 0.74424 0.0
C1165 C 0.03371 0.70088 0.75914 0.0
C1166 C 0.05012 0.62902 0.78194 0.0
C1167 C 0.04103 0.66251 0.76319 0.0
C1168 C 0.04773 0.61091 0.78842 0.0
C1169 C 0.03786 0.60613 0.78012 0.0
C1170 C 0.04241 0.64241 0.76722 0.0
C1171 C 0.03155 0.61936 0.76455 0.0
C1172 C 0.03777 0.67583 0.74626 0.0
C1173 C 0.03757 0.68694 0.7756 0.0
N1174 N 0.0337 0.63713 0.75869 0.0
N1175 N 0.04096 0.6685 0.77718 0.0
H1176 H 0.09124 0.47212 0.52116 0.0
H1177 H 0.09581 0.38746 0.48624 0.0
H1178 H 0.12112 0.4649 0.46575 0.0
H1179 H 0.0675 0.39062 0.54315 0.0
H1180 H 0.10564 0.41562 0.47934 0.0
H1181 H 0.08351 0.44192 0.53052 0.0
C1182 C 0.09635 0.4642 0.51099 0.0
C1183 C 0.10663 0.47142 0.49246 0.0
C1184 C 0.09724 0.41027 0.49336 0.0
C1185 C 0.09751 0.43691 0.50308 0.0
C1186 C 0.09147 0.39421 0.49727 0.0
C1187 C 0.08051 0.38678 0.51521 0.0
C1188 C 0.09203 0.41923 0.50744 0.0
C1189 C 0.07587 0.39589 0.52909 0.0
C1190 C 0.09179 0.44699 0.51634 0.0
C1191 C 0.11271 0.46039 0.47999 0.0
N1192 N 0.08153 0.41172 0.52488 0.0
N1193 N 0.10796 0.4439 0.48547 0.0
H1194 H 0.8364 0.92622 0.86044 0.0
H1195 H 0.94696 0.91819 0.81992 0.0
H1196 H 0.85981 0.9646 0.80882 0.0
H1197 H 0.92192 0.88409 0.87371 0.0
H1198 H 0.91543 0.93542 0.81532 0.0
H1199 H 0.86775 0.9106 0.86521 0.0
C1200 C 0.84808 0.93157 0.85019 0.0
C1201 C 0.84533 0.94685 0.83418 0.0
C1202 C 0.91684 0.92412 0.82814 0.0
C1203 C 0.88158 0.92881 0.83963 0.0
C1204 C 0.93484 0.9142 0.83074 0.0
C1205 C 0.93711 0.89947 0.84725 0.0
C1206 C 0.90096 0.91912 0.84204 0.0
C1207 C 0.92085 0.89526 0.86089 0.0
C1208 C 0.86607 0.92255 0.85292 0.0
C1209 C 0.86122 0.95276 0.82125 0.0
N1210 N 0.90354 0.90485 0.85794 0.0
N1211 N 0.87865 0.94374 0.82425 0.0
H1212 H 0.87044 0.63649 0.99531 0.0
H1213 H 0.93472 0.61267 0.89839 0.0
H1214 H 0.8843 0.67728 0.94172 0.0
H1215 H 0.92338 0.56874 0.95014 0.0
H1216 H 0.91518 0.63615 0.91487 0.0
H1217 H 0.88862 0.61097 0.98002 0.0
C1218 C 0.87718 0.64 0.98033 0.0
C1219 C 0.87601 0.65889 0.96966 0.0
C1220 C 0.91689 0.62141 0.92277 0.0
C1221 C 0.89654 0.63018 0.95224 0.0
C1222 C 0.92817 0.60798 0.91333 0.0
C1223 C 0.9309 0.58875 0.92296 0.0
C1224 C 0.90814 0.61572 0.94211 0.0
C1225 C 0.92164 0.58347 0.94223 0.0
C1226 C 0.88755 0.62553 0.97165 0.0
C1227 C 0.88498 0.66286 0.95039 0.0
N1228 N 0.91072 0.59692 0.95127 0.0
N1229 N 0.89483 0.64867 0.94235 0.0
H1230 H 0.61141 0.57684 0.22367 0.0
H1231 H 0.62109 0.53089 0.14515 0.0
H1232 H 0.65569 0.57829 0.17217 0.0
H1233 H 0.57207 0.53526 0.19234 0.0
H1234 H 0.63415 0.54732 0.15585 0.0
H1235 H 0.59646 0.56156 0.21305 0.0
C1236 C 0.61784 0.57407 0.21006 0.0
C1237 C 0.63464 0.57897 0.19864 0.0
C1238 C 0.62051 0.54474 0.16388 0.0
C1239 C 0.61807 0.5611 0.18667 0.0
C1240 C 0.61309 0.53512 0.15787 0.0
C1241 C 0.59543 0.53147 0.16784 0.0
C1242 C 0.61028 0.55089 0.18003 0.0
C1243 C 0.58563 0.53786 0.184 0.0
C1244 C 0.60938 0.56533 0.20403 0.0
C1245 C 0.64259 0.57496 0.18124 0.0
N1246 N 0.59319 0.54721 0.1896 0.0
N1247 N 0.63433 0.56614 0.17586 0.0
H1248 H 0.19813 0.60995 0.60127 0.0
H1249 H 0.18375 0.62137 0.50213 0.0
H1250 H 0.20012 0.6606 0.55465 0.0
H1251 H 0.16917 0.57772 0.55322 0.0
H1252 H 0.19359 0.63416 0.51976 0.0
H1253 H 0.19157 0.59613 0.58236 0.0
C1254 C 0.19717 0.61826 0.58709 0.0
C1255 C 0.19937 0.63673 0.5798 0.0
C1256 C 0.1883 0.62173 0.52705 0.0
C1257 C 0.19227 0.62058 0.55775 0.0
C1258 C 0.18255 0.61446 0.51702 0.0
C1259 C 0.1755 0.5984 0.5261 0.0
C1260 C 0.18712 0.61286 0.54632 0.0
C1261 C 0.17474 0.58991 0.5454 0.0
C1262 C 0.19352 0.61024 0.57623 0.0
C1263 C 0.19863 0.64634 0.56099 0.0
N1264 N 0.18043 0.59724 0.5548 0.0
N1265 N 0.19506 0.6382 0.55068 0.0
H1266 H 0.66622 0.94015 0.85762 0.0
H1267 H 0.56903 0.94011 0.93814 0.0
H1268 H 0.63636 0.98633 0.88206 0.0
H1269 H 0.60482 0.89277 0.91697 0.0
H1270 H 0.59141 0.95888 0.91615 0.0
H1271 H 0.64177 0.92396 0.87779 0.0
C1272 C 0.65451 0.94673 0.86746 0.0
C1273 C 0.6533 0.96433 0.86851 0.0
C1274 C 0.59423 0.94443 0.91626 0.0
C1275 C 0.6252 0.94606 0.89163 0.0
C1276 C 0.58144 0.93384 0.92864 0.0
C1277 C 0.58522 0.91497 0.92923 0.0
C1278 C 0.61067 0.936 0.90443 0.0
C1279 C 0.60151 0.90728 0.91692 0.0
C1280 C 0.64051 0.93758 0.87892 0.0
C1281 C 0.63773 0.9726 0.88111 0.0
N1282 N 0.61362 0.9178 0.90507 0.0
N1283 N 0.62424 0.96332 0.89235 0.0
H1284 H 0.93377 0.34304 0.89639 0.0
H1285 H 0.95948 0.41905 0.91987 0.0
H1286 H 0.90968 0.35535 0.95006 0.0
H1287 H 0.96727 0.4185 0.86326 0.0
H1288 H 0.94545 0.39242 0.93216 0.0
H1289 H 0.95079 0.36715 0.88518 0.0
C1290 C 0.93218 0.35069 0.9059 0.0
C1291 C 0.92019 0.34719 0.9242 0.0
C1292 C 0.95031 0.39814 0.91705 0.0
C1293 C 0.93957 0.37496 0.91135 0.0
C1294 C 0.95823 0.41341 0.91001 0.0
C1295 C 0.96449 0.42119 0.89048 0.0
C1296 C 0.94875 0.3905 0.90449 0.0
C1297 C 0.96289 0.41291 0.87842 0.0
C1298 C 0.94181 0.36455 0.89943 0.0
C1299 C 0.91855 0.35775 0.93578 0.0
N1300 N 0.95517 0.39806 0.88562 0.0
N1301 N 0.92813 0.37116 0.92915 0.0
H1302 H 0.88988 0.50486 0.25907 0.0
H1303 H 0.79943 0.53977 0.21911 0.0
H1304 H 0.88824 0.49003 0.21266 0.0
H1305 H 0.80289 0.56028 0.26082 0.0
H1306 H 0.8302 0.51771 0.22019 0.0
H1307 H 0.8565 0.5215 0.26324 0.0
C1308 C 0.88248 0.50485 0.24992 0.0
C1309 C 0.89201 0.49615 0.23536 0.0
C1310 C 0.82417 0.52698 0.22918 0.0
C1311 C 0.85381 0.51546 0.23989 0.0
C1312 C 0.80645 0.53949 0.22873 0.0
C1313 C 0.79848 0.55214 0.23975 0.0
C1314 C 0.83413 0.5271 0.24066 0.0
C1315 C 0.80857 0.55116 0.25171 0.0
C1316 C 0.86344 0.5145 0.25222 0.0
C1317 C 0.88164 0.49684 0.22382 0.0
N1318 N 0.82591 0.53901 0.25172 0.0
N1319 N 0.86318 0.50643 0.22626 0.0
H1320 H 0.4843 0.08125 0.48642 0.0
H1321 H 0.52467 0.11542 0.37439 0.0
H1322 H 0.49914 0.13421 0.45751 0.0
H1323 H 0.51021 0.06236 0.4048 0.0
H1324 H 0.51721 0.12199 0.40437 0.0
H1325 H 0.49512 0.07386 0.45654 0.0
C1326 C 0.48979 0.09141 0.47376 0.0
C1327 C 0.49053 0.10854 0.47456 0.0
C1328 C 0.51574 0.10888 0.40447 0.0
C1329 C 0.50324 0.09996 0.43998 0.0
C1330 C 0.52015 0.10501 0.38733 0.0
C1331 C 0.51804 0.08828 0.38691 0.0
C1332 C 0.50909 0.096 0.42143 0.0
C1333 C 0.51176 0.07559 0.40425 0.0
C1334 C 0.49608 0.08709 0.45665 0.0
C1335 C 0.49829 0.12084 0.45764 0.0
N1336 N 0.50746 0.07975 0.42071 0.0
N1337 N 0.50422 0.11638 0.44103 0.0
H1338 H 0.51076 0.16713 0.62729 0.0
H1339 H 0.58941 0.21758 0.61023 0.0
H1340 H 0.53767 0.19707 0.57145 0.0
H1341 H 0.55013 0.20103 0.66372 0.0
H1342 H 0.57305 0.20809 0.5953 0.0
H1343 H 0.52717 0.17766 0.6405 0.0
C1344 C 0.51991 0.17609 0.61772 0.0
C1345 C 0.52258 0.18122 0.59812 0.0
C1346 C 0.56806 0.20657 0.6103 0.0
C1347 C 0.54211 0.19294 0.61338 0.0
C1348 C 0.57744 0.21186 0.61881 0.0
C1349 C 0.57107 0.21011 0.63822 0.0
C1350 C 0.55246 0.19917 0.62141 0.0
C1351 C 0.55543 0.20275 0.6487 0.0
C1352 C 0.52947 0.18198 0.62534 0.0
C1353 C 0.53525 0.19243 0.58662 0.0
N1354 N 0.54676 0.19751 0.6402 0.0
N1355 N 0.54459 0.19784 0.5944 0.0
H1356 H 0.55686 0.21248 0.80674 0.0
H1357 H 0.50044 0.26382 0.88827 0.0
H1358 H 0.55082 0.27119 0.79769 0.0
H1359 H 0.50789 0.20517 0.89502 0.0
H1360 H 0.51595 0.26812 0.85452 0.0
H1361 H 0.53667 0.21061 0.83869 0.0
C1362 C 0.5509 0.22508 0.81145 0.0
C1363 C 0.55526 0.24203 0.79963 0.0
C1364 C 0.5141 0.25435 0.86343 0.0
C1365 C 0.53223 0.24009 0.83625 0.0
C1366 C 0.50512 0.2519 0.88269 0.0
C1367 C 0.50312 0.234 0.89468 0.0
C1368 C 0.52111 0.23879 0.85614 0.0
C1369 C 0.50955 0.2191 0.88655 0.0
C1370 C 0.53947 0.22403 0.82971 0.0
C1371 C 0.54761 0.2579 0.80645 0.0
N1372 N 0.51836 0.22181 0.86792 0.0
N1373 N 0.53643 0.25656 0.82437 0.0
H1374 H 0.47919 0.1886 0.10888 0.0
H1375 H 0.50418 0.08601 0.18104 0.0
H1376 H 0.4806 0.13871 0.09795 0.0
H1377 H 0.50592 0.13766 0.18606 0.0
H1378 H 0.49591 0.10387 0.15076 0.0
H1379 H 0.48947 0.1691 0.13715 0.0
C1380 C 0.48165 0.17346 0.11246 0.0
C1381 C 0.47875 0.16535 0.10109 0.0
C1382 C 0.49821 0.1112 0.1585 0.0
C1383 C 0.49083 0.14261 0.13378 0.0
C1384 C 0.50284 0.10105 0.1758 0.0
C1385 C 0.50588 0.11031 0.18609 0.0
C1386 C 0.49642 0.13074 0.15162 0.0
C1387 C 0.50405 0.12979 0.17857 0.0
C1388 C 0.48763 0.16226 0.12865 0.0
C1389 C 0.48264 0.14557 0.1063 0.0
N1390 N 0.49942 0.13926 0.16194 0.0
N1391 N 0.48835 0.13484 0.12238 0.0
H1392 H 0.36834 0.5266 0.10554 0.0
H1393 H 0.48049 0.49735 0.06663 0.0
H1394 H 0.39738 0.51597 0.05138 0.0
H1395 H 0.4526 0.5031 0.1228 0.0
H1396 H 0.44999 0.50654 0.06023 0.0
H1397 H 0.39868 0.52077 0.11124 0.0
C1398 C 0.38105 0.52325 0.09472 0.0
C1399 C 0.38018 0.52176 0.07792 0.0
C1400 C 0.45047 0.50585 0.07396 0.0
C1401 C 0.41513 0.51474 0.08459 0.0
C1402 C 0.46794 0.50049 0.0777 0.0
C1403 C 0.46924 0.49911 0.09543 0.0
C1404 C 0.43394 0.51002 0.08798 0.0
C1405 C 0.45237 0.50396 0.10893 0.0
C1406 C 0.39841 0.51977 0.09809 0.0
C1407 C 0.39726 0.51702 0.06465 0.0
N1408 N 0.43543 0.50908 0.10497 0.0
N1409 N 0.41396 0.51366 0.0683 0.0
H1410 H 0.20081 0.89929 0.51915 0.0
H1411 H 0.26614 0.79484 0.54511 0.0
H1412 H 0.26113 0.88918 0.50574 0.0
H1413 H 0.20763 0.81262 0.57394 0.0
H1414 H 0.26536 0.82795 0.52709 0.0
H1415 H 0.20387 0.86601 0.53523 0.0
C1416 C 0.21475 0.8901 0.51963 0.0
C1417 C 0.23068 0.89726 0.51145 0.0
C1418 C 0.2528 0.82451 0.5375 0.0
C1419 C 0.23431 0.85871 0.52967 0.0
C1420 C 0.25318 0.80566 0.54774 0.0
C1421 C 0.23694 0.80089 0.56119 0.0
C1422 C 0.23597 0.8386 0.54054 0.0
C1423 C 0.2206 0.81553 0.56403 0.0
C1424 C 0.21648 0.87102 0.5288 0.0
C1425 C 0.24843 0.88436 0.51191 0.0
N1426 N 0.22053 0.83361 0.55375 0.0
N1427 N 0.24979 0.86566 0.52098 0.0
H1428 H 0.09988 0.91631 0.87967 0.0
H1429 H 0.20573 0.89697 0.88264 0.0
H1430 H 0.14053 0.86223 0.88176 0.0
H1431 H 0.16881 0.95286 0.86897 0.0
H1432 H 0.18095 0.88369 0.88575 0.0
H1433 H 0.12382 0.92933 0.87919 0.0
C1434 C 0.11379 0.90707 0.88023 0.0
C1435 C 0.11813 0.88807 0.88076 0.0
C1436 C 0.17825 0.89886 0.88206 0.0
C1437 C 0.1458 0.9031 0.87995 0.0
C1438 C 0.19238 0.90652 0.88042 0.0
C1439 C 0.18947 0.92617 0.87554 0.0
C1440 C 0.16094 0.91085 0.87883 0.0
C1441 C 0.17188 0.93768 0.8725 0.0
C1442 C 0.12751 0.91461 0.87978 0.0
C1443 C 0.13655 0.87698 0.88113 0.0
N1444 N 0.1583 0.92986 0.87421 0.0
N1445 N 0.14967 0.88464 0.88073 0.0
H1446 H 0.82815 0.95281 0.90133 0.0
H1447 H 0.86111 0.84199 0.92368 0.0
H1448 H 0.88746 0.92662 0.88383 0.0
H1449 H 0.81584 0.87151 0.96124 0.0
H1450 H 0.87113 0.87137 0.90617 0.0
H1451 H 0.82274 0.92202 0.91963 0.0
C1452 C 0.8401 0.94056 0.90122 0.0
C1453 C 0.85829 0.94245 0.89074 0.0
C1454 C 0.85903 0.87126 0.91828 0.0
C1455 C 0.85207 0.9067 0.91208 0.0
C1456 C 0.85328 0.85449 0.92836 0.0
C1457 C 0.83714 0.85419 0.94376 0.0
C1458 C 0.84838 0.88791 0.92344 0.0
C1459 C 0.82779 0.87098 0.94905 0.0
C1460 C 0.83698 0.92292 0.91185 0.0
C1461 C 0.8732 0.92588 0.89166 0.0
N1462 N 0.83332 0.88705 0.93879 0.0
N1463 N 0.86976 0.90863 0.90198 0.0
H1464 H 0.16217 0.08572 0.51328 0.0
H1465 H 0.10731 0.19491 0.48388 0.0
H1466 H 0.15996 0.11868 0.45623 0.0
H1467 H 0.11079 0.16322 0.54091 0.0
H1468 H 0.12387 0.16617 0.47427 0.0
H1469 H 0.14086 0.11294 0.52426 0.0
C1470 C 0.15708 0.09856 0.50306 0.0
C1471 C 0.16313 0.09984 0.48372 0.0
C1472 C 0.12094 0.16548 0.48891 0.0
C1473 C 0.13889 0.13124 0.49624 0.0
C1474 C 0.11127 0.18191 0.4945 0.0
C1475 C 0.10764 0.18169 0.51328 0.0
C1476 C 0.1272 0.14859 0.50212 0.0
C1477 C 0.11355 0.1643 0.5262 0.0
C1478 C 0.14501 0.11417 0.50935 0.0
C1479 C 0.15612 0.11703 0.4712 0.0
N1480 N 0.12314 0.14853 0.52036 0.0
N1481 N 0.14453 0.13201 0.47765 0.0
H1482 H 0.86639 0.1735 0.9477 0.0
H1483 H 0.88494 0.14786 0.85262 0.0
H1484 H 0.87228 0.21479 0.89313 0.0
H1485 H 0.8778 0.10891 0.90847 0.0
H1486 H 0.88241 0.17227 0.86617 0.0
H1487 H 0.87281 0.14947 0.93263 0.0
C1488 C 0.86901 0.1776 0.93251 0.0
C1489 C 0.86838 0.19645 0.9218 0.0
C1490 C 0.88151 0.15833 0.8754 0.0
C1491 C 0.87611 0.16853 0.9042 0.0
C1492 C 0.88286 0.1444 0.86768 0.0
C1493 C 0.88163 0.12618 0.87936 0.0
C1494 C 0.87874 0.15408 0.89496 0.0
C1495 C 0.87913 0.12256 0.89877 0.0
C1496 C 0.8728 0.16375 0.92386 0.0
C1497 C 0.87257 0.20053 0.90205 0.0
N1498 N 0.8777 0.13631 0.90588 0.0
N1499 N 0.87609 0.18675 0.89392 0.0
H1500 H 0.09582 0.46708 0.13871 0.0
H1501 H 0.17754 0.50968 0.13046 0.0
H1502 H 0.10204 0.481 0.18343 0.0
H1503 H 0.17798 0.4911 0.08561 0.0
H1504 H 0.1481 0.50144 0.14859 0.0
H1505 H 0.1239 0.47808 0.11763 0.0
C1506 C 0.10295 0.47256 0.14405 0.0
C1507 C 0.09666 0.47286 0.16298 0.0
C1508 C 0.1545 0.49918 0.13476 0.0
C1509 C 0.12874 0.48532 0.13906 0.0
C1510 C 0.17133 0.50405 0.12427 0.0
C1511 C 0.18027 0.50125 0.10634 0.0
C1512 C 0.14632 0.49132 0.12745 0.0
C1513 C 0.17165 0.49342 0.09941 0.0
C1514 C 0.11904 0.47871 0.13207 0.0
C1515 C 0.10652 0.48008 0.16912 0.0
N1516 N 0.15512 0.48873 0.10997 0.0
N1517 N 0.12199 0.4859 0.15728 0.0
H1518 H 0.34982 0.89757 0.91804 0.0
H1519 H 0.40215 0.90206 0.98548 0.0
H1520 H 0.33706 0.94567 0.93775 0.0
H1521 H 0.42309 0.85958 0.956 0.0
H1522 H 0.37489 0.91532 0.97252 0.0
H1523 H 0.37306 0.88045 0.93667 0.0
C1524 C 0.35163 0.90436 0.92661 0.0
C1525 C 0.34159 0.92308 0.9263 0.0
C1526 C 0.38539 0.90301 0.96901 0.0
C1527 C 0.3682 0.90373 0.94744 0.0
C1528 C 0.40108 0.89547 0.9763 0.0
C1529 C 0.41527 0.87984 0.97159 0.0
C1530 C 0.38366 0.89481 0.95701 0.0
C1531 C 0.4126 0.87158 0.96014 0.0
C1532 C 0.36499 0.89467 0.9371 0.0
C1533 C 0.34463 0.93132 0.93747 0.0
N1534 N 0.3972 0.87925 0.95314 0.0
N1535 N 0.35772 0.92164 0.94749 0.0
H1536 H 0.96374 0.81846 0.86566 0.0
H1537 H 0.90286 0.87617 0.9351 0.0
H1538 H 0.91455 0.85892 0.84887 0.0
H1539 H 0.88951 0.82306 0.95095 0.0
H1540 H 0.92119 0.87154 0.90414 0.0
H1541 H 0.94929 0.82221 0.89773 0.0
C1542 C 0.94995 0.82807 0.86866 0.0
C1543 C 0.94043 0.83844 0.85442 0.0
C1544 C 0.914 0.8611 0.91435 0.0
C1545 C 0.92412 0.84289 0.89086 0.0
C1546 C 0.90374 0.86355 0.93218 0.0
C1547 C 0.89434 0.85011 0.94581 0.0
C1548 C 0.91478 0.8452 0.90999 0.0
C1549 C 0.89604 0.8341 0.94091 0.0
C1550 C 0.94183 0.83025 0.88688 0.0
C1551 C 0.92261 0.85083 0.8592 0.0
N1552 N 0.9059 0.83217 0.92339 0.0
N1553 N 0.91501 0.85263 0.877 0.0
H1554 H 0.92399 0.84661 0.19944 0.0
H1555 H 0.88439 0.91226 0.10918 0.0
H1556 H 0.92495 0.90509 0.1741 0.0
H1557 H 0.8833 0.85396 0.13619 0.0
H1558 H 0.8989 0.91038 0.13265 0.0
H1559 H 0.90927 0.84942 0.17597 0.0
C1560 C 0.92132 0.86003 0.18888 0.0
C1561 C 0.9259 0.87558 0.18892 0.0
C1562 C 0.89537 0.89805 0.13347 0.0
C1563 C 0.90839 0.87903 0.16199 0.0
C1564 C 0.88713 0.89906 0.11999 0.0
C1565 C 0.88253 0.88323 0.12053 0.0
C1566 C 0.89909 0.88108 0.14766 0.0
C1567 C 0.88621 0.86667 0.13521 0.0
C1568 C 0.91267 0.86167 0.17553 0.0
C1569 C 0.92151 0.8927 0.17496 0.0
N1570 N 0.89428 0.86605 0.14805 0.0
N1571 N 0.91302 0.89396 0.16213 0.0
H1572 H 0.91553 0.94891 0.32446 0.0
H1573 H 0.88662 0.94044 0.43474 0.0
H1574 H 0.93186 0.89868 0.36801 0.0
H1575 H 0.87785 0.9944 0.39314 0.0
H1576 H 0.90016 0.92496 0.40976 0.0
H1577 H 0.89869 0.96608 0.34863 0.0
C1578 C 0.91546 0.94152 0.33908 0.0
C1579 C 0.92524 0.92242 0.34427 0.0
C1580 C 0.89528 0.94019 0.40595 0.0
C1581 C 0.90611 0.94172 0.37176 0.0
C1582 C 0.88751 0.94897 0.42024 0.0
C1583 C 0.88125 0.96859 0.41586 0.0
C1584 C 0.89681 0.95111 0.38705 0.0
C1585 C 0.88265 0.97916 0.39692 0.0
C1586 C 0.90596 0.95129 0.3528 0.0
C1587 C 0.92475 0.91345 0.36335 0.0
N1588 N 0.89035 0.97026 0.38309 0.0
N1589 N 0.91541 0.92314 0.37631 0.0
H1590 H 0.9624 0.90136 0.6588 0.0
H1591 H 0.92007 0.90903 0.57758 0.0
H1592 H 0.96259 0.85326 0.64548 0.0
H1593 H 0.91916 0.95709 0.59151 0.0
H1594 H 0.93894 0.88851 0.59989 0.0
H1595 H 0.94909 0.92213 0.63226 0.0
C1596 C 0.95966 0.89516 0.6503 0.0
C1597 C 0.96353 0.87552 0.65449 0.0
C1598 C 0.93468 0.90357 0.59798 0.0
C1599 C 0.94841 0.8992 0.62397 0.0
C1600 C 0.92403 0.91532 0.5851 0.0
C1601 C 0.91773 0.93482 0.58284 0.0
C1602 C 0.93897 0.91135 0.60873 0.0
C1603 C 0.92323 0.9421 0.59313 0.0
C1604 C 0.95217 0.90702 0.63507 0.0
C1605 C 0.96002 0.86829 0.64273 0.0
N1606 N 0.93334 0.93036 0.60575 0.0
N1607 N 0.95256 0.88012 0.62811 0.0
loop_
_geom_bond_atom_site_label_1
_geom_bond_atom_site_label_2
_geom_bond_distance
_geom_bond_site_symmetry_2
_ccdc_geom_bond_type
C0 C1 1.264 . S
C0 C5 1.479 . S
C0 C10 1.465 . S
C1 C0 1.264 . S
C1 C3 1.339 . S
C1 H28 0.931 . S
C2 C3 1.395 . S
C2 C4 1.320 . S
C3 C1 1.339 . S
C3 C2 1.395 . S
C3 H29 0.929 . S
C4 C2 1.320 . S
C4 C5 1.405 . S
C4 H30 0.930 . S
C5 C0 1.479 . S
C5 C4 1.405 . S
C5 H31 0.931 . S
U6 O7 2.454 . S
U6 O8 2.458 . S
U6 C9 2.984 . S
U6 C10 2.847 . S
U6 C23 2.882 . S
U6 O24 2.441 . S
U6 O25 2.420 . S
U6 O26 2.455 . S
U6 O27 2.449 . S
O7 U6 2.454 . S
O7 C9 1.353 . S
O8 U6 2.458 . S
O8 C9 1.286 . S
C9 U6 2.984 . S
C9 O7 1.353 . S
C9 O8 1.286 . S
C9 C11 1.363 . S
C10 C0 1.465 . S
C10 U6 2.847 . S
C10 O24 1.249 . S
C10 O25 1.202 . S
C11 C9 1.363 . S
C11 C13 1.408 . S
C11 C16 1.342 . S
C12 C13 1.310 . S
C12 C15 1.461 . S
C12 H32 0.932 . S
C13 C11 1.408 . S
C13 C12 1.310 . S
C13 H33 0.930 . S
C14 C15 1.474 . S
C14 C16 1.285 . S
C14 H34 0.929 . S
C15 C12 1.461 . S
C15 C14 1.474 . S
C16 C11 1.342 . S
C16 C14 1.285 . S
C16 H35 0.930 . S
C17 C20 1.424 . S
C17 C22 1.239 1_455 S
C17 C23 1.428 . S
C18 C21 1.260 . S
C18 C22 1.526 . S
C18 H36 0.932 . S
C19 C20 1.384 1_655 S
C19 C21 1.479 . S
C19 H37 0.929 . S
C20 C17 1.424 . S
C20 C19 1.384 1_455 S
C20 H38 0.928 . S
C21 C18 1.260 . S
C21 C19 1.479 . S
C22 C17 1.239 1_655 S
C22 C18 1.526 . S
C22 H39 0.877 1_655 S
C23 U6 2.882 . S
C23 C17 1.428 . S
C23 O26 1.301 . S
C23 O27 1.282 . S
O24 U6 2.441 . S
O24 C10 1.249 . S
O25 U6 2.420 . S
O25 C10 1.202 . S
O26 U6 2.455 . S
O26 C23 1.301 . S
O27 U6 2.449 . S
O27 C23 1.282 . S
H28 C1 0.931 . S
H29 C3 0.929 . S
H30 C4 0.930 . S
H31 C5 0.931 . S
H32 C12 0.932 . S
H33 C13 0.930 . S
H34 C14 0.929 . S
H35 C16 0.930 . S
H36 C18 0.932 . S
H37 C19 0.929 . S
H38 C20 0.928 . S
H39 C22 0.877 1_455 S
C40 C41 1.264 . S
C40 C45 1.479 . S
C40 C50 1.465 . S
C41 C40 1.264 . S
C41 C43 1.339 . S
C41 H68 0.931 . S
C42 C43 1.395 . S
C42 C44 1.320 . S
C43 C41 1.339 . S
C43 C42 1.395 . S
C43 H69 0.929 . S
C44 C42 1.320 . S
C44 C45 1.405 . S
C44 H70 0.930 . S
C45 C40 1.479 . S
C45 C44 1.405 . S
C45 H71 0.931 . S
U46 O47 2.454 . S
U46 O48 2.458 . S
U46 C49 2.984 . S
U46 C50 2.847 . S
U46 C63 2.882 . S
U46 O64 2.441 . S
U46 O65 2.420 . S
U46 O66 2.455 . S
U46 O67 2.449 . S
O47 U46 2.454 . S
O47 C49 1.353 . S
O48 U46 2.458 . S
O48 C49 1.286 . S
C49 U46 2.984 . S
C49 O47 1.353 . S
C49 O48 1.286 . S
C49 C51 1.363 1_455 S
C50 C40 1.465 . S
C50 U46 2.847 . S
C50 O64 1.249 . S
C50 O65 1.202 . S
C51 C49 1.363 1_655 S
C51 C53 1.408 . S
C51 C56 1.342 . S
C52 C53 1.310 . S
C52 C55 1.461 . S
C52 H72 0.932 . S
C53 C51 1.408 . S
C53 C52 1.310 . S
C53 H73 0.930 . S
C54 C55 1.474 . S
C54 C56 1.285 . S
C54 H74 0.929 . S
C55 C52 1.461 . S
C55 C54 1.474 . S
C56 C51 1.342 . S
C56 C54 1.285 . S
C56 H75 0.930 . S
C57 C60 1.424 . S
C57 C62 1.245 . S
C57 C63 1.428 . S
C58 C61 1.260 . S
C58 C62 1.477 . S
C58 H76 0.932 . S
C59 C60 1.384 . S
C59 C61 1.479 . S
C59 H77 0.929 . S
C60 C57 1.424 . S
C60 C59 1.384 . S
C60 H78 0.928 . S
C61 C58 1.260 . S
C61 C59 1.479 . S
C62 C57 1.245 . S
C62 C58 1.477 . S
C62 H79 0.932 . S
C63 U46 2.882 . S
C63 C57 1.428 . S
C63 O66 1.301 . S
C63 O67 1.282 . S
O64 U46 2.441 . S
O64 C50 1.249 . S
O65 U46 2.420 . S
O65 C50 1.202 . S
O66 U46 2.455 . S
O66 C63 1.301 . S
O67 U46 2.449 . S
O67 C63 1.282 . S
H68 C41 0.931 . S
H69 C43 0.929 . S
H70 C44 0.930 . S
H71 C45 0.931 . S
H72 C52 0.932 . S
H73 C53 0.930 . S
H74 C54 0.929 . S
H75 C56 0.930 . S
H76 C58 0.932 . S
H77 C59 0.929 . S
H78 C60 0.928 . S
H79 C62 0.932 . S
C80 C81 1.272 1_556 S
C80 C85 1.490 . S
C80 C90 1.445 1_556 S
C81 C80 1.272 1_554 S
C81 C83 1.341 1_554 S
C81 H108 0.931 . S
C82 C83 1.393 . S
C82 C84 1.320 . S
C83 C81 1.341 1_556 S
C83 C82 1.393 . S
C83 H109 0.928 1_556 S
C84 C82 1.320 . S
C84 C85 1.405 . S
C84 H110 0.930 . S
C85 C80 1.490 . S
C85 C84 1.405 . S
C85 H111 0.931 . S
U86 O87 2.454 1_554 S
U86 O88 2.458 . S
U86 C89 2.984 1_554 S
U86 C90 2.847 . S
U86 C103 2.882 . S
U86 O104 2.441 1_554 S
U86 O105 2.420 . S
U86 O106 2.455 . S
U86 O107 2.449 . S
O87 U86 2.454 1_556 S
O87 C89 1.353 . S
O88 U86 2.458 . S
O88 C89 1.286 1_554 S
C89 U86 2.984 1_556 S
C89 O87 1.353 . S
C89 O88 1.286 1_556 S
C89 C91 1.363 . S
C90 C80 1.445 1_554 S
C90 U86 2.847 . S
C90 O104 1.249 1_554 S
C90 O105 1.202 . S
C91 C89 1.363 . S
C91 C93 1.408 . S
C91 C96 1.342 . S
C92 C93 1.310 . S
C92 C95 1.461 . S
C92 H112 0.932 . S
C93 C91 1.408 . S
C93 C92 1.310 . S
C93 H113 0.930 . S
C94 C95 1.474 . S
C94 C96 1.285 . S
C94 H114 0.929 . S
C95 C92 1.461 . S
C95 C94 1.474 . S
C96 C91 1.342 . S
C96 C94 1.285 . S
C96 H115 0.930 . S
C97 C100 1.424 . S
C97 C102 1.245 . S
C97 C103 1.428 . S
C98 C101 1.260 . S
C98 C102 1.477 . S
C98 H116 0.932 . S
C99 C100 1.384 . S
C99 C101 1.479 . S
C99 H117 0.929 . S
C100 C97 1.424 . S
C100 C99 1.384 . S
C100 H118 0.928 . S
C101 C98 1.260 . S
C101 C99 1.479 . S
C102 C97 1.245 . S
C102 C98 1.477 . S
C102 H119 0.932 . S
C103 U86 2.882 . S
C103 C97 1.428 . S
C103 O106 1.301 . S
C103 O107 1.282 . S
O104 U86 2.441 1_556 S
O104 C90 1.249 1_556 S
O105 U86 2.420 . S
O105 C90 1.202 . S
O106 U86 2.455 . S
O106 C103 1.301 . S
O107 U86 2.449 . S
O107 C103 1.282 . S
H108 C81 0.931 . S
H109 C83 0.928 1_554 S
H110 C84 0.930 . S
H111 C85 0.931 . S
H112 C92 0.932 . S
H113 C93 0.930 . S
H114 C94 0.929 . S
H115 C96 0.930 . S
H116 C98 0.932 . S
H117 C99 0.929 . S
H118 C100 0.928 . S
H119 C102 0.932 . S
C120 C121 1.264 . S
C120 C125 1.479 . S
C120 C130 1.465 . S
C121 C120 1.264 . S
C121 C123 1.339 . S
C121 H148 0.931 . S
C122 C123 1.395 . S
C122 C124 1.320 . S
C123 C121 1.339 . S
C123 C122 1.395 . S
C123 H149 0.929 . S
C124 C122 1.320 . S
C124 C125 1.405 . S
C124 H150 0.930 . S
C125 C120 1.479 . S
C125 C124 1.405 . S
C125 H151 0.931 . S
U126 O127 2.454 . S
U126 O128 2.458 . S
U126 C129 2.984 . S
U126 C130 2.847 . S
U126 C143 2.882 . S
U126 O144 2.441 . S
U126 O145 2.420 . S
U126 O146 2.455 . S
U126 O147 2.449 . S
O127 U126 2.454 . S
O127 C129 1.353 . S
O128 U126 2.458 . S
O128 C129 1.286 . S
C129 U126 2.984 . S
C129 O127 1.353 . S
C129 O128 1.286 . S
C129 C131 1.363 . S
C130 C120 1.465 . S
C130 U126 2.847 . S
C130 O144 1.249 . S
C130 O145 1.202 . S
C131 C129 1.363 . S
C131 C133 1.408 . S
C131 C136 1.342 . S
C132 C133 1.310 . S
C132 C135 1.461 . S
C132 H152 0.932 . S
C133 C131 1.408 . S
C133 C132 1.310 . S
C133 H153 0.930 . S
C134 C135 1.474 . S
C134 C136 1.285 . S
C134 H154 0.929 . S
C135 C132 1.461 . S
C135 C134 1.474 . S
C136 C131 1.342 . S
C136 C134 1.285 . S
C136 H155 0.930 . S
C137 C140 1.424 . S
C137 C142 1.245 . S
C137 C143 1.428 . S
C138 C141 1.260 . S
C138 C142 1.477 . S
C138 H156 0.932 . S
C139 C140 1.384 . S
C139 C141 1.479 . S
C139 H157 0.929 . S
C140 C137 1.424 . S
C140 C139 1.384 . S
C140 H158 0.928 . S
C141 C138 1.260 . S
C141 C139 1.479 . S
C142 C137 1.245 . S
C142 C138 1.477 . S
C142 H159 0.932 . S
C143 U126 2.882 . S
C143 C137 1.428 . S
C143 O146 1.301 . S
C143 O147 1.282 . S
O144 U126 2.441 . S
O144 C130 1.249 . S
O145 U126 2.420 . S
O145 C130 1.202 . S
O146 U126 2.455 . S
O146 C143 1.301 . S
O147 U126 2.449 . S
O147 C143 1.282 . S
H148 C121 0.931 . S
H149 C123 0.929 . S
H150 C124 0.930 . S
H151 C125 0.931 . S
H152 C132 0.932 . S
H153 C133 0.930 . S
H154 C134 0.929 . S
H155 C136 0.930 . S
H156 C138 0.932 . S
H157 C139 0.929 . S
H158 C140 0.928 . S
H159 C142 0.932 . S
C160 C161 1.264 . S
C160 C165 1.479 . S
C160 C170 1.465 . S
C161 C160 1.264 . S
C161 C163 1.339 . S
C161 H188 0.931 . S
C162 C163 1.395 . S
C162 C164 1.320 . S
C163 C161 1.339 . S
C163 C162 1.395 . S
C163 H189 0.929 . S
C164 C162 1.320 . S
C164 C165 1.405 . S
C164 H190 0.930 . S
C165 C160 1.479 . S
C165 C164 1.405 . S
C165 H191 0.931 . S
U166 O167 2.454 . S
U166 O168 2.458 . S
U166 C169 2.984 . S
U166 C170 2.847 . S
U166 C183 2.882 . S
U166 O184 2.441 . S
U166 O185 2.420 . S
U166 O186 2.455 . S
U166 O187 2.449 . S
O167 U166 2.454 . S
O167 C169 1.353 . S
O168 U166 2.458 . S
O168 C169 1.286 . S
C169 U166 2.984 . S
C169 O167 1.353 . S
C169 O168 1.286 . S
C169 C171 1.363 . S
C170 C160 1.465 . S
C170 U166 2.847 . S
C170 O184 1.249 . S
C170 O185 1.202 . S
C171 C169 1.363 . S
C171 C173 1.408 . S
C171 C176 1.342 . S
C172 C173 1.310 . S
C172 C175 1.461 . S
C172 H192 0.932 . S
C173 C171 1.408 . S
C173 C172 1.310 . S
C173 H193 0.930 . S
C174 C175 1.474 . S
C174 C176 1.285 . S
C174 H194 0.929 . S
C175 C172 1.461 . S
C175 C174 1.474 . S
C176 C171 1.342 . S
C176 C174 1.285 . S
C176 H195 0.930 . S
C177 C180 1.424 . S
C177 C182 1.245 . S
C177 C183 1.428 . S
C178 C181 1.260 . S
C178 C182 1.477 . S
C178 H196 0.932 . S
C179 C180 1.384 . S
C179 C181 1.479 . S
C179 H197 0.929 . S
C180 C177 1.424 . S
C180 C179 1.384 . S
C180 H198 0.928 . S
C181 C178 1.260 . S
C181 C179 1.479 . S
C182 C177 1.245 . S
C182 C178 1.477 . S
C182 H199 0.932 . S
C183 U166 2.882 . S
C183 C177 1.428 . S
C183 O186 1.301 . S
C183 O187 1.282 . S
O184 U166 2.441 . S
O184 C170 1.249 . S
O185 U166 2.420 . S
O185 C170 1.202 . S
O186 U166 2.455 . S
O186 C183 1.301 . S
O187 U166 2.449 . S
O187 C183 1.282 . S
H188 C161 0.931 . S
H189 C163 0.929 . S
H190 C164 0.930 . S
H191 C165 0.931 . S
H192 C172 0.932 . S
H193 C173 0.930 . S
H194 C174 0.929 . S
H195 C176 0.930 . S
H196 C178 0.932 . S
H197 C179 0.929 . S
H198 C180 0.928 . S
H199 C182 0.932 . S
C200 C201 1.264 1_556 S
C200 C205 1.479 . S
C200 C210 1.465 . S
C201 C200 1.264 1_554 S
C201 C203 1.339 . S
C201 H228 0.931 . S
C202 C203 1.395 1_556 S
C202 C204 1.320 . S
C203 C201 1.339 . S
C203 C202 1.395 1_554 S
C203 H229 0.929 . S
C204 C202 1.320 . S
C204 C205 1.405 . S
C204 H230 0.930 . S
C205 C200 1.479 . S
C205 C204 1.405 . S
C205 H231 0.931 . S
U206 O207 2.454 . S
U206 O208 2.458 . S
U206 C209 2.984 . S
U206 C210 2.847 . S
U206 C223 2.882 1_556 S
U206 O224 2.441 . S
U206 O225 2.420 . S
U206 O226 2.455 1_556 S
U206 O227 2.449 1_556 S
O207 U206 2.454 . S
O207 C209 1.353 . S
O208 U206 2.458 . S
O208 C209 1.286 . S
C209 U206 2.984 . S
C209 O207 1.353 . S
C209 O208 1.286 . S
C209 C211 1.363 . S
C210 C200 1.465 . S
C210 U206 2.847 . S
C210 O224 1.249 . S
C210 O225 1.202 . S
C211 C209 1.363 . S
C211 C213 1.408 . S
C211 C216 1.342 . S
C212 C213 1.310 . S
C212 C215 1.461 . S
C212 H232 0.932 . S
C213 C211 1.408 . S
C213 C212 1.310 . S
C213 H233 0.930 . S
C214 C215 1.474 . S
C214 C216 1.285 . S
C214 H234 0.929 . S
C215 C212 1.461 . S
C215 C214 1.474 . S
C216 C211 1.342 . S
C216 C214 1.285 . S
C216 H235 0.930 . S
C217 C220 1.424 . S
C217 C222 1.245 . S
C217 C223 1.428 . S
C218 C221 1.260 . S
C218 C222 1.477 . S
C218 H236 0.932 . S
C219 C220 1.384 . S
C219 C221 1.479 . S
C219 H237 0.929 . S
C220 C217 1.424 . S
C220 C219 1.384 . S
C220 H238 0.928 . S
C221 C218 1.260 . S
C221 C219 1.479 . S
C222 C217 1.245 . S
C222 C218 1.477 . S
C222 H239 0.932 . S
C223 U206 2.882 1_554 S
C223 C217 1.428 . S
C223 O226 1.301 . S
C223 O227 1.282 . S
O224 U206 2.441 . S
O224 C210 1.249 . S
O225 U206 2.420 . S
O225 C210 1.202 . S
O226 U206 2.455 1_554 S
O226 C223 1.301 . S
O227 U206 2.449 1_554 S
O227 C223 1.282 . S
H228 C201 0.931 . S
H229 C203 0.929 . S
H230 C204 0.930 . S
H231 C205 0.931 . S
H232 C212 0.932 . S
H233 C213 0.930 . S
H234 C214 0.929 . S
H235 C216 0.930 . S
H236 C218 0.932 . S
H237 C219 0.929 . S
H238 C220 0.928 . S
H239 C222 0.932 . S
C240 C241 1.264 . S
C240 C245 1.479 . S
C240 C250 1.465 . S
C241 C240 1.264 . S
C241 C243 1.339 . S
C241 H268 0.931 . S
C242 C243 1.395 . S
C242 C244 1.320 . S
C243 C241 1.339 . S
C243 C242 1.395 . S
C243 H269 0.929 . S
C244 C242 1.320 . S
C244 C245 1.405 . S
C244 H270 0.930 . S
C245 C240 1.479 . S
C245 C244 1.405 . S
C245 H271 0.931 . S
U246 O247 2.454 . S
U246 O248 2.458 . S
U246 C249 2.984 . S
U246 C250 2.847 . S
U246 C263 2.882 . S
U246 O264 2.441 . S
U246 O265 2.420 . S
U246 O266 2.455 . S
U246 O267 2.449 . S
O247 U246 2.454 . S
O247 C249 1.353 . S
O248 U246 2.458 . S
O248 C249 1.286 . S
C249 U246 2.984 . S
C249 O247 1.353 . S
C249 O248 1.286 . S
C249 C251 1.363 . S
C250 C240 1.465 . S
C250 U246 2.847 . S
C250 O264 1.249 . S
C250 O265 1.202 . S
C251 C249 1.363 . S
C251 C253 1.408 . S
C251 C256 1.342 . S
C252 C253 1.310 . S
C252 C255 1.461 . S
C252 H272 0.932 . S
C253 C251 1.408 . S
C253 C252 1.310 . S
C253 H273 0.930 . S
C254 C255 1.474 . S
C254 C256 1.285 . S
C254 H274 0.929 . S
C255 C252 1.461 . S
C255 C254 1.474 . S
C256 C251 1.342 . S
C256 C254 1.285 . S
C256 H275 0.930 . S
C257 C260 1.424 1_556 S
C257 C262 1.245 1_556 S
C257 C263 1.428 . S
C258 C261 1.260 . S
C258 C262 1.477 . S
C258 H276 0.932 . S
C259 C260 1.384 . S
C259 C261 1.479 . S
C259 H277 0.929 . S
C260 C257 1.424 1_554 S
C260 C259 1.384 . S
C260 H278 0.923 . S
C261 C258 1.260 . S
C261 C259 1.479 . S
C262 C257 1.245 1_554 S
C262 C258 1.477 . S
C262 H279 0.932 . S
C263 U246 2.882 . S
C263 C257 1.428 . S
C263 O266 1.301 . S
C263 O267 1.282 . S
O264 U246 2.441 . S
O264 C250 1.249 . S
O265 U246 2.420 . S
O265 C250 1.202 . S
O266 U246 2.455 . S
O266 C263 1.301 . S
O267 U246 2.449 . S
O267 C263 1.282 . S
H268 C241 0.931 . S
H269 C243 0.929 . S
H270 C244 0.930 . S
H271 C245 0.931 . S
H272 C252 0.932 . S
H273 C253 0.930 . S
H274 C254 0.929 . S
H275 C256 0.930 . S
H276 C258 0.932 . S
H277 C259 0.929 . S
H278 C260 0.923 . S
H279 C262 0.932 . S
C280 C281 1.264 . S
C280 C285 1.479 . S
C280 C290 1.465 . S
C281 C280 1.264 . S
C281 C283 1.339 . S
C281 H308 0.931 . S
C282 C283 1.395 . S
C282 C284 1.320 . S
C283 C281 1.339 . S
C283 C282 1.395 . S
C283 H309 0.929 . S
C284 C282 1.320 . S
C284 C285 1.405 . S
C284 H310 0.930 . S
C285 C280 1.479 . S
C285 C284 1.405 . S
C285 H311 0.931 . S
U286 O287 2.477 . S
U286 O288 2.511 . S
U286 C289 3.026 . S
U286 C290 2.797 1_455 S
U286 C303 2.893 . S
U286 O304 2.404 1_455 S
U286 O305 2.366 1_455 S
U286 O306 2.487 . S
U286 O307 2.435 1_455 S
O287 U286 2.477 . S
O287 C289 1.353 . S
O288 U286 2.511 . S
O288 C289 1.286 . S
C289 U286 3.026 . S
C289 O287 1.353 . S
C289 O288 1.286 . S
C289 C291 1.363 . S
C290 C280 1.465 . S
C290 U286 2.797 1_655 S
C290 O304 1.249 . S
C290 O305 1.202 . S
C291 C289 1.363 . S
C291 C293 1.408 . S
C291 C296 1.342 . S
C292 C293 1.310 . S
C292 C295 1.461 . S
C292 H312 0.932 . S
C293 C291 1.408 . S
C293 C292 1.310 . S
C293 H313 0.930 . S
C294 C295 1.474 . S
C294 C296 1.285 . S
C294 H314 0.929 . S
C295 C292 1.461 . S
C295 C294 1.474 . S
C296 C291 1.342 . S
C296 C294 1.285 . S
C296 H315 0.930 . S
C297 C300 1.424 1_455 S
C297 C302 1.245 . S
C297 C303 1.428 . S
C298 C301 1.260 . S
C298 C302 1.477 . S
C298 H316 0.932 . S
C299 C300 1.384 . S
C299 C301 1.479 1_655 S
C299 H317 0.929 . S
C300 C297 1.424 1_655 S
C300 C299 1.384 . S
C300 H318 0.928 . S
C301 C298 1.260 . S
C301 C299 1.479 1_455 S
C302 C297 1.245 . S
C302 C298 1.477 . S
C302 H319 0.932 . S
C303 U286 2.893 . S
C303 C297 1.428 . S
C303 O306 1.301 . S
C303 O307 1.282 1_455 S
O304 U286 2.404 1_655 S
O304 C290 1.249 . S
O305 U286 2.366 1_655 S
O305 C290 1.202 . S
O306 U286 2.487 . S
O306 C303 1.301 . S
O307 U286 2.435 1_655 S
O307 C303 1.282 1_655 S
H308 C281 0.931 . S
H309 C283 0.929 . S
H310 C284 0.930 . S
H311 C285 0.931 . S
H312 C292 0.932 . S
H313 C293 0.930 . S
H314 C294 0.929 . S
H315 C296 0.930 . S
H316 C298 0.932 . S
H317 C299 0.929 . S
H318 C300 0.928 . S
H319 C302 0.932 . S
C320 C321 1.264 . S
C320 C325 1.479 . S
C320 C330 1.465 . S
C321 C320 1.264 . S
C321 C323 1.339 . S
C321 H348 0.931 . S
C322 C323 1.395 . S
C322 C324 1.320 . S
C323 C321 1.339 . S
C323 C322 1.395 . S
C323 H349 0.929 . S
C324 C322 1.320 . S
C324 C325 1.405 . S
C324 H350 0.930 . S
C325 C320 1.479 . S
C325 C324 1.405 . S
C325 H351 0.931 . S
U326 O327 2.454 . S
U326 O328 2.458 . S
U326 C329 2.984 . S
U326 C330 2.847 . S
U326 C343 2.882 . S
U326 O344 2.441 . S
U326 O345 2.420 . S
U326 O346 2.455 . S
U326 O347 2.449 . S
O327 U326 2.454 . S
O327 C329 1.353 . S
O328 U326 2.458 . S
O328 C329 1.286 . S
C329 U326 2.984 . S
C329 O327 1.353 . S
C329 O328 1.286 . S
C329 C331 1.363 . S
C330 C320 1.465 . S
C330 U326 2.847 . S
C330 O344 1.249 . S
C330 O345 1.202 . S
C331 C329 1.363 . S
C331 C333 1.408 . S
C331 C336 1.342 . S
C332 C333 1.310 . S
C332 C335 1.461 . S
C332 H352 0.932 . S
C333 C331 1.408 . S
C333 C332 1.310 . S
C333 H353 0.930 . S
C334 C335 1.474 . S
C334 C336 1.285 . S
C334 H354 0.929 . S
C335 C332 1.461 . S
C335 C334 1.474 . S
C336 C331 1.342 . S
C336 C334 1.285 . S
C336 H355 0.930 . S
C337 C340 1.424 . S
C337 C342 1.245 . S
C337 C343 1.428 . S
C338 C341 1.260 1_545 S
C338 C342 1.477 . S
C338 H356 0.934 . S
C339 C340 1.384 1_565 S
C339 C341 1.479 . S
C339 H357 0.929 . S
C340 C337 1.424 . S
C340 C339 1.384 1_545 S
C340 H358 0.928 . S
C341 C338 1.260 1_565 S
C341 C339 1.479 . S
C342 C337 1.245 . S
C342 C338 1.477 . S
C342 H359 0.932 . S
C343 U326 2.882 . S
C343 C337 1.428 . S
C343 O346 1.301 . S
C343 O347 1.282 . S
O344 U326 2.441 . S
O344 C330 1.249 . S
O345 U326 2.420 . S
O345 C330 1.202 . S
O346 U326 2.455 . S
O346 C343 1.301 . S
O347 U326 2.449 . S
O347 C343 1.282 . S
H348 C321 0.931 . S
H349 C323 0.929 . S
H350 C324 0.930 . S
H351 C325 0.931 . S
H352 C332 0.932 . S
H353 C333 0.930 . S
H354 C334 0.929 . S
H355 C336 0.930 . S
H356 C338 0.934 . S
H357 C339 0.929 . S
H358 C340 0.928 . S
H359 C342 0.932 . S
C360 C361 1.264 . S
C360 C365 1.479 . S
C360 C370 1.465 . S
C361 C360 1.264 . S
C361 C363 1.339 . S
C361 H388 0.931 . S
C362 C363 1.395 . S
C362 C364 1.320 . S
C363 C361 1.339 . S
C363 C362 1.395 . S
C363 H389 0.929 . S
C364 C362 1.320 . S
C364 C365 1.405 . S
C364 H390 0.930 . S
C365 C360 1.479 . S
C365 C364 1.405 . S
C365 H391 0.931 . S
U366 O367 2.454 . S
U366 O368 2.458 . S
U366 C369 2.984 . S
U366 C370 2.847 . S
U366 C383 2.882 . S
U366 O384 2.441 . S
U366 O385 2.420 . S
U366 O386 2.455 . S
U366 O387 2.449 . S
O367 U366 2.454 . S
O367 C369 1.353 . S
O368 U366 2.458 . S
O368 C369 1.286 . S
C369 U366 2.984 . S
C369 O367 1.353 . S
C369 O368 1.286 . S
C369 C371 1.363 . S
C370 C360 1.465 . S
C370 U366 2.847 . S
C370 O384 1.249 . S
C370 O385 1.202 . S
C371 C369 1.363 . S
C371 C373 1.408 . S
C371 C376 1.342 . S
C372 C373 1.310 . S
C372 C375 1.461 . S
C372 H392 0.932 . S
C373 C371 1.408 . S
C373 C372 1.310 . S
C373 H393 0.930 . S
C374 C375 1.474 . S
C374 C376 1.285 . S
C374 H394 0.929 . S
C375 C372 1.461 . S
C375 C374 1.474 . S
C376 C371 1.342 . S
C376 C374 1.285 . S
C376 H395 0.930 . S
C377 C380 1.424 . S
C377 C382 1.245 . S
C377 C383 1.428 . S
C378 C381 1.260 . S
C378 C382 1.477 . S
C378 H396 0.932 . S
C379 C380 1.384 . S
C379 C381 1.479 . S
C379 H397 0.929 . S
C380 C377 1.424 . S
C380 C379 1.384 . S
C380 H398 0.928 . S
C381 C378 1.260 . S
C381 C379 1.479 . S
C382 C377 1.245 . S
C382 C378 1.477 . S
C382 H399 0.932 . S
C383 U366 2.882 . S
C383 C377 1.428 . S
C383 O386 1.301 . S
C383 O387 1.282 . S
O384 U366 2.441 . S
O384 C370 1.249 . S
O385 U366 2.420 . S
O385 C370 1.202 . S
O386 U366 2.455 . S
O386 C383 1.301 . S
O387 U366 2.449 . S
O387 C383 1.282 . S
H388 C361 0.931 . S
H389 C363 0.929 . S
H390 C364 0.930 . S
H391 C365 0.931 . S
H392 C372 0.932 . S
H393 C373 0.930 . S
H394 C374 0.929 . S
H395 C376 0.930 . S
H396 C378 0.932 . S
H397 C379 0.929 . S
H398 C380 0.928 . S
H399 C382 0.932 . S
C400 C401 1.264 . S
C400 C405 1.479 . S
C400 C410 1.465 . S
C401 C400 1.264 . S
C401 C403 1.339 . S
C401 H428 0.931 . S
C402 C403 1.395 . S
C402 C404 1.320 . S
C403 C401 1.339 . S
C403 C402 1.395 . S
C403 H429 0.929 . S
C404 C402 1.320 . S
C404 C405 1.405 . S
C404 H430 0.930 . S
C405 C400 1.479 . S
C405 C404 1.405 . S
C405 H431 0.931 . S
U406 O407 2.454 . S
U406 O408 2.458 . S
U406 C409 2.984 . S
U406 C410 2.847 . S
U406 C423 2.882 . S
U406 O424 2.441 . S
U406 O425 2.420 . S
U406 O426 2.455 . S
U406 O427 2.449 . S
O407 U406 2.454 . S
O407 C409 1.353 . S
O408 U406 2.458 . S
O408 C409 1.286 . S
C409 U406 2.984 . S
C409 O407 1.353 . S
C409 O408 1.286 . S
C409 C411 1.363 . S
C410 C400 1.465 . S
C410 U406 2.847 . S
C410 O424 1.249 . S
C410 O425 1.202 . S
C411 C409 1.363 . S
C411 C413 1.408 . S
C411 C416 1.342 . S
C412 C413 1.310 . S
C412 C415 1.461 . S
C412 H432 0.932 . S
C413 C411 1.408 . S
C413 C412 1.310 . S
C413 H433 0.930 . S
C414 C415 1.474 . S
C414 C416 1.285 . S
C414 H434 0.929 . S
C415 C412 1.461 . S
C415 C414 1.474 . S
C416 C411 1.342 . S
C416 C414 1.285 . S
C416 H435 0.930 . S
C417 C420 1.424 . S
C417 C422 1.245 . S
C417 C423 1.428 . S
C418 C421 1.260 . S
C418 C422 1.477 . S
C418 H436 0.932 . S
C419 C420 1.384 . S
C419 C421 1.479 . S
C419 H437 0.929 . S
C420 C417 1.424 . S
C420 C419 1.384 . S
C420 H438 0.928 . S
C421 C418 1.260 . S
C421 C419 1.479 . S
C422 C417 1.245 . S
C422 C418 1.477 . S
C422 H439 0.932 . S
C423 U406 2.882 . S
C423 C417 1.428 . S
C423 O426 1.301 . S
C423 O427 1.282 . S
O424 U406 2.441 . S
O424 C410 1.249 . S
O425 U406 2.420 . S
O425 C410 1.202 . S
O426 U406 2.455 . S
O426 C423 1.301 . S
O427 U406 2.449 . S
O427 C423 1.282 . S
H428 C401 0.931 . S
H429 C403 0.929 . S
H430 C404 0.930 . S
H431 C405 0.931 . S
H432 C412 0.932 . S
H433 C413 0.930 . S
H434 C414 0.929 . S
H435 C416 0.930 . S
H436 C418 0.932 . S
H437 C419 0.929 . S
H438 C420 0.928 . S
H439 C422 0.932 . S
C440 C441 1.264 . S
C440 C445 1.479 . S
C440 C450 1.465 . S
C441 C440 1.264 . S
C441 C443 1.339 . S
C441 H468 0.931 . S
C442 C443 1.395 . S
C442 C444 1.320 . S
C443 C441 1.339 . S
C443 C442 1.395 . S
C443 H469 0.929 . S
C444 C442 1.320 . S
C444 C445 1.405 . S
C444 H470 0.930 . S
C445 C440 1.479 . S
C445 C444 1.405 . S
C445 H471 0.931 . S
U446 O447 2.454 . S
U446 O448 2.458 . S
U446 C449 2.984 . S
U446 C450 2.847 1_554 S
U446 C463 2.882 . S
U446 O464 2.441 1_554 S
U446 O465 2.420 1_554 S
U446 O466 2.455 . S
U446 O467 2.449 1_554 S
O447 U446 2.454 . S
O447 C449 1.353 . S
O448 U446 2.458 . S
O448 C449 1.286 . S
C449 U446 2.984 . S
C449 O447 1.353 . S
C449 O448 1.286 . S
C449 C451 1.363 . S
C450 C440 1.465 . S
C450 U446 2.847 1_556 S
C450 O464 1.249 . S
C450 O465 1.202 . S
C451 C449 1.363 . S
C451 C453 1.408 . S
C451 C456 1.342 . S
C452 C453 1.310 . S
C452 C455 1.461 . S
C452 H472 0.932 . S
C453 C451 1.408 . S
C453 C452 1.310 . S
C453 H473 0.930 . S
C454 C455 1.474 . S
C454 C456 1.285 . S
C454 H474 0.929 . S
C455 C452 1.461 . S
C455 C454 1.474 . S
C456 C451 1.342 . S
C456 C454 1.285 . S
C456 H475 0.930 . S
C457 C460 1.424 1_554 S
C457 C462 1.245 . S
C457 C463 1.428 . S
C458 C461 1.260 . S
C458 C462 1.477 . S
C458 H476 0.932 . S
C459 C460 1.384 . S
C459 C461 1.479 1_556 S
C459 H477 0.929 . S
C460 C457 1.424 1_556 S
C460 C459 1.384 . S
C460 H478 0.928 . S
C461 C458 1.260 . S
C461 C459 1.479 1_554 S
C462 C457 1.245 . S
C462 C458 1.477 . S
C462 H479 0.932 . S
C463 U446 2.882 . S
C463 C457 1.428 . S
C463 O466 1.301 . S
C463 O467 1.282 1_554 S
O464 U446 2.441 1_556 S
O464 C450 1.249 . S
O465 U446 2.420 1_556 S
O465 C450 1.202 . S
O466 U446 2.455 . S
O466 C463 1.301 . S
O467 U446 2.449 1_556 S
O467 C463 1.282 1_556 S
H468 C441 0.931 . S
H469 C443 0.929 . S
H470 C444 0.930 . S
H471 C445 0.931 . S
H472 C452 0.932 . S
H473 C453 0.930 . S
H474 C454 0.929 . S
H475 C456 0.930 . S
H476 C458 0.932 . S
H477 C459 0.929 . S
H478 C460 0.928 . S
H479 C462 0.932 . S
C480 C481 1.264 . S
C480 C485 1.479 . S
C480 C490 1.465 . S
C481 C480 1.264 . S
C481 C483 1.339 . S
C481 H508 0.931 . S
C482 C483 1.395 . S
C482 C484 1.320 . S
C483 C481 1.339 . S
C483 C482 1.395 . S
C483 H509 0.929 . S
C484 C482 1.320 . S
C484 C485 1.405 . S
C484 H510 0.930 . S
C485 C480 1.479 . S
C485 C484 1.405 . S
C485 H511 0.931 . S
U486 O487 2.454 . S
U486 O488 2.458 . S
U486 C489 2.984 . S
U486 C490 2.847 . S
U486 C503 2.882 . S
U486 O504 2.441 . S
U486 O505 2.420 . S
U486 O506 2.455 . S
U486 O507 2.449 . S
O487 U486 2.454 . S
O487 C489 1.353 . S
O488 U486 2.458 . S
O488 C489 1.286 . S
C489 U486 2.984 . S
C489 O487 1.353 . S
C489 O488 1.286 . S
C489 C491 1.363 . S
C490 C480 1.465 . S
C490 U486 2.847 . S
C490 O504 1.249 . S
C490 O505 1.202 . S
C491 C489 1.363 . S
C491 C493 1.408 . S
C491 C496 1.342 . S
C492 C493 1.310 . S
C492 C495 1.461 . S
C492 H512 0.932 . S
C493 C491 1.408 . S
C493 C492 1.310 . S
C493 H513 0.930 . S
C494 C495 1.474 . S
C494 C496 1.285 . S
C494 H514 0.929 . S
C495 C492 1.461 . S
C495 C494 1.474 . S
C496 C491 1.342 . S
C496 C494 1.285 . S
C496 H515 0.930 . S
C497 C500 1.424 . S
C497 C502 1.245 . S
C497 C503 1.428 . S
C498 C501 1.260 . S
C498 C502 1.477 1_556 S
C498 H516 0.932 . S
C499 C500 1.384 1_556 S
C499 C501 1.479 . S
C499 H517 0.929 . S
C500 C497 1.424 . S
C500 C499 1.384 1_554 S
C500 H518 0.928 . S
C501 C498 1.260 . S
C501 C499 1.479 . S
C502 C497 1.245 . S
C502 C498 1.477 1_554 S
C502 H519 0.932 . S
C503 U486 2.882 . S
C503 C497 1.428 . S
C503 O506 1.301 . S
C503 O507 1.282 . S
O504 U486 2.441 . S
O504 C490 1.249 . S
O505 U486 2.420 . S
O505 C490 1.202 . S
O506 U486 2.455 . S
O506 C503 1.301 . S
O507 U486 2.449 . S
O507 C503 1.282 . S
H508 C481 0.931 . S
H509 C483 0.929 . S
H510 C484 0.930 . S
H511 C485 0.931 . S
H512 C492 0.932 . S
H513 C493 0.930 . S
H514 C494 0.929 . S
H515 C496 0.930 . S
H516 C498 0.932 . S
H517 C499 0.929 . S
H518 C500 0.928 . S
H519 C502 0.932 . S
C520 C521 1.264 . S
C520 C525 1.479 . S
C520 C530 1.465 . S
C521 C520 1.264 . S
C521 C523 1.339 . S
C521 H548 0.931 . S
C522 C523 1.395 . S
C522 C524 1.320 . S
C523 C521 1.339 . S
C523 C522 1.395 . S
C523 H549 0.929 . S
C524 C522 1.320 . S
C524 C525 1.405 . S
C524 H550 0.930 . S
C525 C520 1.479 . S
C525 C524 1.405 . S
C525 H551 0.931 . S
U526 O527 2.454 . S
U526 O528 2.458 . S
U526 C529 2.984 . S
U526 C530 2.847 . S
U526 C543 2.882 . S
U526 O544 2.441 . S
U526 O545 2.420 . S
U526 O546 2.455 . S
U526 O547 2.449 . S
O527 U526 2.454 . S
O527 C529 1.353 . S
O528 U526 2.458 . S
O528 C529 1.286 . S
C529 U526 2.984 . S
C529 O527 1.353 . S
C529 O528 1.286 . S
C529 C531 1.363 . S
C530 C520 1.465 . S
C530 U526 2.847 . S
C530 O544 1.249 . S
C530 O545 1.202 . S
C531 C529 1.363 . S
C531 C533 1.408 . S
C531 C536 1.342 . S
C532 C533 1.310 . S
C532 C535 1.461 . S
C532 H552 0.932 . S
C533 C531 1.408 . S
C533 C532 1.310 . S
C533 H553 0.930 . S
C534 C535 1.474 . S
C534 C536 1.285 . S
C534 H554 0.929 . S
C535 C532 1.461 . S
C535 C534 1.474 . S
C536 C531 1.342 . S
C536 C534 1.285 . S
C536 H555 0.930 . S
C537 C540 1.424 . S
C537 C542 1.245 . S
C537 C543 1.428 . S
C538 C541 1.260 . S
C538 C542 1.477 . S
C538 H556 0.932 . S
C539 C540 1.384 . S
C539 C541 1.479 . S
C539 H557 0.929 . S
C540 C537 1.424 . S
C540 C539 1.384 . S
C540 H558 0.928 . S
C541 C538 1.260 . S
C541 C539 1.479 . S
C542 C537 1.245 . S
C542 C538 1.477 . S
C542 H559 0.932 . S
C543 U526 2.882 . S
C543 C537 1.428 . S
C543 O546 1.301 . S
C543 O547 1.282 . S
O544 U526 2.441 . S
O544 C530 1.249 . S
O545 U526 2.420 . S
O545 C530 1.202 . S
O546 U526 2.455 . S
O546 C543 1.301 . S
O547 U526 2.449 . S
O547 C543 1.282 . S
H548 C521 0.931 . S
H549 C523 0.929 . S
H550 C524 0.930 . S
H551 C525 0.931 . S
H552 C532 0.932 . S
H553 C533 0.930 . S
H554 C534 0.929 . S
H555 C536 0.930 . S
H556 C538 0.932 . S
H557 C539 0.929 . S
H558 C540 0.928 . S
H559 C542 0.932 . S
C560 C561 1.264 . S
C560 C565 1.479 . S
C560 C570 1.465 . S
C561 C560 1.264 . S
C561 C563 1.339 . S
C561 H588 0.931 . S
C562 C563 1.395 . S
C562 C564 1.320 . S
C563 C561 1.339 . S
C563 C562 1.395 . S
C563 H589 0.929 . S
C564 C562 1.320 . S
C564 C565 1.405 . S
C564 H590 0.930 . S
C565 C560 1.479 . S
C565 C564 1.405 . S
C565 H591 0.931 . S
U566 O567 2.454 . S
U566 O568 2.458 . S
U566 C569 2.984 . S
U566 C570 2.847 . S
U566 C583 2.882 . S
U566 O584 2.441 . S
U566 O585 2.420 . S
U566 O586 2.455 . S
U566 O587 2.449 . S
O567 U566 2.454 . S
O567 C569 1.353 . S
O568 U566 2.458 . S
O568 C569 1.286 . S
C569 U566 2.984 . S
C569 O567 1.353 . S
C569 O568 1.286 . S
C569 C571 1.363 . S
C570 C560 1.465 . S
C570 U566 2.847 . S
C570 O584 1.249 . S
C570 O585 1.202 . S
C571 C569 1.363 . S
C571 C573 1.408 . S
C571 C576 1.342 . S
C572 C573 1.310 . S
C572 C575 1.461 . S
C572 H592 0.932 . S
C573 C571 1.408 . S
C573 C572 1.310 . S
C573 H593 0.930 . S
C574 C575 1.474 . S
C574 C576 1.285 . S
C574 H594 0.929 . S
C575 C572 1.461 . S
C575 C574 1.474 . S
C576 C571 1.342 . S
C576 C574 1.285 . S
C576 H595 0.930 . S
C577 C580 1.424 . S
C577 C582 1.245 . S
C577 C583 1.428 . S
C578 C581 1.260 . S
C578 C582 1.477 . S
C578 H596 0.932 . S
C579 C580 1.384 . S
C579 C581 1.479 . S
C579 H597 0.929 . S
C580 C577 1.424 . S
C580 C579 1.384 . S
C580 H598 0.928 . S
C581 C578 1.260 . S
C581 C579 1.479 . S
C582 C577 1.245 . S
C582 C578 1.477 . S
C582 H599 0.932 . S
C583 U566 2.882 . S
C583 C577 1.428 . S
C583 O586 1.301 . S
C583 O587 1.282 . S
O584 U566 2.441 . S
O584 C570 1.249 . S
O585 U566 2.420 . S
O585 C570 1.202 . S
O586 U566 2.455 . S
O586 C583 1.301 . S
O587 U566 2.449 . S
O587 C583 1.282 . S
H588 C561 0.931 . S
H589 C563 0.929 . S
H590 C564 0.930 . S
H591 C565 0.931 . S
H592 C572 0.932 . S
H593 C573 0.930 . S
H594 C574 0.929 . S
H595 C576 0.930 . S
H596 C578 0.932 . S
H597 C579 0.929 . S
H598 C580 0.928 . S
H599 C582 0.932 . S
C600 C601 1.264 . S
C600 C605 1.479 . S
C600 C610 1.465 . S
C601 C600 1.264 . S
C601 C603 1.339 . S
C601 H628 0.931 . S
C602 C603 1.395 . S
C602 C604 1.320 . S
C603 C601 1.339 . S
C603 C602 1.395 . S
C603 H629 0.929 . S
C604 C602 1.320 . S
C604 C605 1.405 . S
C604 H630 0.930 . S
C605 C600 1.479 . S
C605 C604 1.405 . S
C605 H631 0.931 . S
U606 O607 2.454 . S
U606 O608 2.458 . S
U606 C609 2.984 . S
U606 C610 2.847 . S
U606 C623 2.882 1_565 S
U606 O624 2.441 . S
U606 O625 2.420 . S
U606 O626 2.455 1_565 S
U606 O627 2.449 . S
O607 U606 2.454 . S
O607 C609 1.353 . S
O608 U606 2.458 . S
O608 C609 1.286 . S
C609 U606 2.984 . S
C609 O607 1.353 . S
C609 O608 1.286 . S
C609 C611 1.363 . S
C610 C600 1.465 . S
C610 U606 2.847 . S
C610 O624 1.249 . S
C610 O625 1.202 . S
C611 C609 1.363 . S
C611 C613 1.408 . S
C611 C616 1.342 . S
C612 C613 1.310 . S
C612 C615 1.461 . S
C612 H632 0.932 . S
C613 C611 1.408 . S
C613 C612 1.310 . S
C613 H633 0.930 . S
C614 C615 1.474 . S
C614 C616 1.285 . S
C614 H634 0.929 . S
C615 C612 1.461 . S
C615 C614 1.474 . S
C616 C611 1.342 . S
C616 C614 1.285 . S
C616 H635 0.937 . S
C617 C620 1.424 . S
C617 C622 1.245 . S
C617 C623 1.428 . S
C618 C621 1.260 . S
C618 C622 1.477 . S
C618 H636 0.932 . S
C619 C620 1.384 . S
C619 C621 1.479 . S
C619 H637 0.929 . S
C620 C617 1.424 . S
C620 C619 1.384 . S
C620 H638 0.928 . S
C621 C618 1.260 . S
C621 C619 1.479 . S
C622 C617 1.245 . S
C622 C618 1.477 . S
C622 H639 0.932 . S
C623 U606 2.882 1_545 S
C623 C617 1.428 . S
C623 O626 1.302 . S
C623 O627 1.282 1_545 S
O624 U606 2.441 . S
O624 C610 1.249 . S
O625 U606 2.420 . S
O625 C610 1.202 . S
O626 U606 2.455 1_545 S
O626 C623 1.302 . S
O627 U606 2.449 . S
O627 C623 1.282 1_565 S
H628 C601 0.931 . S
H629 C603 0.929 . S
H630 C604 0.930 . S
H631 C605 0.931 . S
H632 C612 0.932 . S
H633 C613 0.930 . S
H634 C614 0.929 . S
H635 C616 0.937 . S
H636 C618 0.932 . S
H637 C619 0.929 . S
H638 C620 0.928 . S
H639 C622 0.932 . S
C640 C641 1.264 . S
C640 C645 1.479 . S
C640 C650 1.465 . S
C641 C640 1.264 . S
C641 C643 1.339 . S
C641 H668 0.931 . S
C642 C643 1.395 . S
C642 C644 1.320 . S
C643 C641 1.339 . S
C643 C642 1.395 . S
C643 H669 0.929 . S
C644 C642 1.320 . S
C644 C645 1.405 . S
C644 H670 0.930 . S
C645 C640 1.479 . S
C645 C644 1.405 . S
C645 H671 0.931 . S
U646 O647 2.454 . S
U646 O648 2.458 . S
U646 C649 2.984 . S
U646 C650 2.847 1_545 S
U646 C663 2.882 . S
U646 O664 2.441 1_545 S
U646 O665 2.420 1_545 S
U646 O666 2.455 . S
U646 O667 2.449 1_545 S
O647 U646 2.454 . S
O647 C649 1.353 . S
O648 U646 2.458 . S
O648 C649 1.286 . S
C649 U646 2.984 . S
C649 O647 1.353 . S
C649 O648 1.286 . S
C649 C651 1.363 . S
C650 C640 1.465 . S
C650 U646 2.847 1_565 S
C650 O664 1.249 . S
C650 O665 1.202 . S
C651 C649 1.363 . S
C651 C653 1.408 . S
C651 C656 1.342 . S
C652 C653 1.310 . S
C652 C655 1.461 . S
C652 H672 0.932 . S
C653 C651 1.408 . S
C653 C652 1.310 . S
C653 H673 0.930 . S
C654 C655 1.474 . S
C654 C656 1.285 . S
C654 H674 0.929 . S
C655 C652 1.461 . S
C655 C654 1.474 . S
C656 C651 1.342 . S
C656 C654 1.285 . S
C656 H675 0.930 . S
C657 C660 1.424 1_545 S
C657 C662 1.245 . S
C657 C663 1.428 . S
C658 C661 1.260 . S
C658 C662 1.477 . S
C658 H676 0.932 . S
C659 C660 1.384 . S
C659 C661 1.479 1_565 S
C659 H677 0.929 . S
C660 C657 1.424 1_565 S
C660 C659 1.384 . S
C660 H678 0.928 . S
C661 C658 1.260 . S
C661 C659 1.479 1_545 S
C662 C657 1.245 . S
C662 C658 1.477 . S
C662 H679 0.932 . S
C663 U646 2.882 . S
C663 C657 1.428 . S
C663 O666 1.301 . S
C663 O667 1.282 1_545 S
O664 U646 2.441 1_565 S
O664 C650 1.249 . S
O665 U646 2.420 1_565 S
O665 C650 1.202 . S
O666 U646 2.455 . S
O666 C663 1.301 . S
O667 U646 2.449 1_565 S
O667 C663 1.282 1_565 S
H668 C641 0.931 . S
H669 C643 0.929 . S
H670 C644 0.930 . S
H671 C645 0.931 . S
H672 C652 0.932 . S
H673 C653 0.930 . S
H674 C654 0.929 . S
H675 C656 0.930 . S
H676 C658 0.932 . S
H677 C659 0.929 . S
H678 C660 0.928 . S
H679 C662 0.932 . S
C680 C681 1.264 . S
C680 C685 1.479 . S
C680 C690 1.465 . S
C681 C680 1.264 . S
C681 C683 1.339 . S
C681 H708 0.931 . S
C682 C683 1.395 . S
C682 C684 1.320 . S
C683 C681 1.339 . S
C683 C682 1.395 . S
C683 H709 0.929 . S
C684 C682 1.320 . S
C684 C685 1.405 . S
C684 H710 0.930 . S
C685 C680 1.479 . S
C685 C684 1.405 . S
C685 H711 0.931 . S
U686 O687 2.454 . S
U686 O688 2.458 . S
U686 C689 2.984 . S
U686 C690 2.847 . S
U686 C703 2.882 1_565 S
U686 O704 2.441 . S
U686 O705 2.420 . S
U686 O706 2.455 1_565 S
U686 O707 2.449 1_565 S
O687 U686 2.454 . S
O687 C689 1.353 . S
O688 U686 2.458 . S
O688 C689 1.286 . S
C689 U686 2.984 . S
C689 O687 1.353 . S
C689 O688 1.286 . S
C689 C691 1.363 . S
C690 C680 1.465 . S
C690 U686 2.847 . S
C690 O704 1.249 . S
C690 O705 1.202 . S
C691 C689 1.363 . S
C691 C693 1.408 . S
C691 C696 1.342 . S
C692 C693 1.310 . S
C692 C695 1.461 . S
C692 H712 0.932 . S
C693 C691 1.408 . S
C693 C692 1.310 . S
C693 H713 0.930 . S
C694 C695 1.474 . S
C694 C696 1.285 . S
C694 H714 0.929 . S
C695 C692 1.461 . S
C695 C694 1.474 . S
C696 C691 1.342 . S
C696 C694 1.285 . S
C696 H715 0.930 . S
C697 C700 1.424 . S
C697 C702 1.245 . S
C697 C703 1.428 . S
C698 C701 1.260 . S
C698 C702 1.477 . S
C698 H716 0.932 . S
C699 C700 1.384 . S
C699 C701 1.479 . S
C699 H717 0.929 . S
C700 C697 1.424 . S
C700 C699 1.384 . S
C700 H718 0.928 . S
C701 C698 1.260 . S
C701 C699 1.479 . S
C702 C697 1.245 . S
C702 C698 1.477 . S
C702 H719 0.932 . S
C703 U686 2.882 1_545 S
C703 C697 1.428 . S
C703 O706 1.301 . S
C703 O707 1.282 . S
O704 U686 2.441 . S
O704 C690 1.249 . S
O705 U686 2.420 . S
O705 C690 1.202 . S
O706 U686 2.455 1_545 S
O706 C703 1.301 . S
O707 U686 2.449 1_545 S
O707 C703 1.282 . S
H708 C681 0.931 . S
H709 C683 0.929 . S
H710 C684 0.930 . S
H711 C685 0.931 . S
H712 C692 0.932 . S
H713 C693 0.930 . S
H714 C694 0.929 . S
H715 C696 0.930 . S
H716 C698 0.932 . S
H717 C699 0.929 . S
H718 C700 0.928 . S
H719 C702 0.932 . S
C720 C721 1.258 1_655 S
C720 C725 1.479 . S
C720 C730 1.465 . S
C721 C720 1.258 1_455 S
C721 C723 1.329 . S
C721 H748 0.950 . S
C722 C723 1.395 1_655 S
C722 C724 1.320 . S
C723 C721 1.329 . S
C723 C722 1.395 1_455 S
C723 H749 0.929 . S
C724 C722 1.320 . S
C724 C725 1.405 . S
C724 H750 0.930 . S
C725 C720 1.479 . S
C725 C724 1.405 . S
C725 H751 0.931 . S
U726 O727 2.454 . S
U726 O728 2.458 . S
U726 C729 2.984 . S
U726 C730 2.847 . S
U726 C743 2.882 1_655 S
U726 O744 2.441 . S
U726 O745 2.420 . S
U726 O746 2.455 1_655 S
U726 O747 2.449 1_655 S
O727 U726 2.454 . S
O727 C729 1.353 . S
O728 U726 2.458 . S
O728 C729 1.286 . S
C729 U726 2.984 . S
C729 O727 1.353 . S
C729 O728 1.286 . S
C729 C731 1.363 . S
C730 C720 1.465 . S
C730 U726 2.847 . S
C730 O744 1.249 . S
C730 O745 1.202 . S
C731 C729 1.363 . S
C731 C733 1.408 . S
C731 C736 1.342 . S
C732 C733 1.310 . S
C732 C735 1.461 . S
C732 H752 0.932 . S
C733 C731 1.408 . S
C733 C732 1.310 . S
C733 H753 0.930 . S
C734 C735 1.474 . S
C734 C736 1.285 . S
C734 H754 0.929 . S
C735 C732 1.461 . S
C735 C734 1.474 . S
C736 C731 1.342 . S
C736 C734 1.285 . S
C736 H755 0.930 . S
C737 C740 1.424 . S
C737 C742 1.245 . S
C737 C743 1.428 . S
C738 C741 1.260 . S
C738 C742 1.477 . S
C738 H756 0.932 . S
C739 C740 1.384 . S
C739 C741 1.479 . S
C739 H757 0.929 . S
C740 C737 1.424 . S
C740 C739 1.384 . S
C740 H758 0.928 . S
C741 C738 1.260 . S
C741 C739 1.479 . S
C742 C737 1.245 . S
C742 C738 1.477 . S
C742 H759 0.932 . S
C743 U726 2.882 1_455 S
C743 C737 1.428 . S
C743 O746 1.301 . S
C743 O747 1.282 . S
O744 U726 2.441 . S
O744 C730 1.249 . S
O745 U726 2.420 . S
O745 C730 1.202 . S
O746 U726 2.455 1_455 S
O746 C743 1.301 . S
O747 U726 2.449 1_455 S
O747 C743 1.282 . S
H748 C721 0.950 . S
H749 C723 0.929 . S
H750 C724 0.930 . S
H751 C725 0.931 . S
H752 C732 0.932 . S
H753 C733 0.930 . S
H754 C734 0.929 . S
H755 C736 0.930 . S
H756 C738 0.932 . S
H757 C739 0.929 . S
H758 C740 0.928 . S
H759 C742 0.932 . S
C760 C761 1.264 . S
C760 C765 1.479 . S
C760 C770 1.465 . S
C761 C760 1.264 . S
C761 C763 1.339 . S
C761 H788 0.931 . S
C762 C763 1.395 . S
C762 C764 1.320 . S
C763 C761 1.339 . S
C763 C762 1.395 . S
C763 H789 0.929 . S
C764 C762 1.320 . S
C764 C765 1.405 . S
C764 H790 0.930 . S
C765 C760 1.479 . S
C765 C764 1.405 . S
C765 H791 0.931 . S
U766 O767 2.454 . S
U766 O768 2.458 . S
U766 C769 2.984 . S
U766 C770 2.847 . S
U766 C783 2.882 1_655 S
U766 O784 2.441 . S
U766 O785 2.420 . S
U766 O786 2.457 1_655 S
U766 O787 2.449 . S
O767 U766 2.454 . S
O767 C769 1.353 . S
O768 U766 2.458 . S
O768 C769 1.286 . S
C769 U766 2.984 . S
C769 O767 1.353 . S
C769 O768 1.286 . S
C769 C771 1.363 . S
C770 C760 1.465 . S
C770 U766 2.847 . S
C770 O784 1.249 . S
C770 O785 1.202 . S
C771 C769 1.363 . S
C771 C773 1.408 . S
C771 C776 1.342 . S
C772 C773 1.310 . S
C772 C775 1.461 . S
C772 H792 0.932 . S
C773 C771 1.408 . S
C773 C772 1.310 . S
C773 H793 0.930 . S
C774 C775 1.474 . S
C774 C776 1.285 . S
C774 H794 0.929 . S
C775 C772 1.461 . S
C775 C774 1.474 . S
C776 C771 1.342 . S
C776 C774 1.285 . S
C776 H795 0.930 . S
C777 C780 1.424 . S
C777 C782 1.245 . S
C777 C783 1.428 . S
C778 C781 1.260 . S
C778 C782 1.477 . S
C778 H796 0.932 . S
C779 C780 1.384 . S
C779 C781 1.479 . S
C779 H797 0.929 . S
C780 C777 1.424 . S
C780 C779 1.384 . S
C780 H798 0.928 . S
C781 C778 1.260 . S
C781 C779 1.479 . S
C782 C777 1.245 . S
C782 C778 1.477 . S
C782 H799 0.932 . S
C783 U766 2.882 1_455 S
C783 C777 1.428 . S
C783 O786 1.309 . S
C783 O787 1.282 1_455 S
O784 U766 2.441 . S
O784 C770 1.249 . S
O785 U766 2.420 . S
O785 C770 1.202 . S
O786 U766 2.457 1_455 S
O786 C783 1.309 . S
O787 U766 2.449 . S
O787 C783 1.282 1_655 S
H788 C761 0.931 . S
H789 C763 0.929 . S
H790 C764 0.930 . S
H791 C765 0.931 . S
H792 C772 0.932 . S
H793 C773 0.930 . S
H794 C774 0.929 . S
H795 C776 0.930 . S
H796 C778 0.932 . S
H797 C779 0.929 . S
H798 C780 0.928 . S
H799 C782 0.932 . S
C800 C801 1.264 . S
C800 C805 1.479 . S
C800 C810 1.465 . S
C801 C800 1.264 . S
C801 C803 1.339 . S
C801 H828 0.931 . S
C802 C803 1.395 . S
C802 C804 1.320 . S
C803 C801 1.339 . S
C803 C802 1.395 . S
C803 H829 0.929 . S
C804 C802 1.320 . S
C804 C805 1.405 . S
C804 H830 0.930 . S
C805 C800 1.479 . S
C805 C804 1.405 . S
C805 H831 0.931 . S
U806 O807 2.454 . S
U806 O808 2.458 . S
U806 C809 3.005 . S
U806 C810 2.847 . S
U806 C823 2.882 . S
U806 O824 2.441 . S
U806 O825 2.420 . S
U806 O826 2.455 . S
U806 O827 2.449 . S
O807 U806 2.454 . S
O807 C809 1.374 . S
O808 U806 2.458 . S
O808 C809 1.290 . S
C809 U806 3.005 . S
C809 O807 1.374 . S
C809 O808 1.290 . S
C809 C811 1.343 1_554 S
C810 C800 1.465 . S
C810 U806 2.847 . S
C810 O824 1.249 . S
C810 O825 1.202 . S
C811 C809 1.343 1_556 S
C811 C813 1.408 . S
C811 C816 1.342 . S
C812 C813 1.310 . S
C812 C815 1.461 . S
C812 H832 0.932 . S
C813 C811 1.408 . S
C813 C812 1.310 . S
C813 H833 0.930 . S
C814 C815 1.474 . S
C814 C816 1.285 . S
C814 H834 0.929 . S
C815 C812 1.461 . S
C815 C814 1.474 . S
C816 C811 1.342 . S
C816 C814 1.285 . S
C816 H835 0.930 . S
C817 C820 1.424 . S
C817 C822 1.245 . S
C817 C823 1.428 . S
C818 C821 1.260 . S
C818 C822 1.477 . S
C818 H836 0.932 . S
C819 C820 1.384 . S
C819 C821 1.479 . S
C819 H837 0.929 . S
C820 C817 1.424 . S
C820 C819 1.384 . S
C820 H838 0.928 . S
C821 C818 1.260 . S
C821 C819 1.479 . S
C822 C817 1.245 . S
C822 C818 1.477 . S
C822 H839 0.932 . S
C823 U806 2.882 . S
C823 C817 1.428 . S
C823 O826 1.301 . S
C823 O827 1.282 . S
O824 U806 2.441 . S
O824 C810 1.249 . S
O825 U806 2.420 . S
O825 C810 1.202 . S
O826 U806 2.455 . S
O826 C823 1.301 . S
O827 U806 2.449 . S
O827 C823 1.282 . S
H828 C801 0.931 . S
H829 C803 0.929 . S
H830 C804 0.930 . S
H831 C805 0.931 . S
H832 C812 0.932 . S
H833 C813 0.930 . S
H834 C814 0.929 . S
H835 C816 0.930 . S
H836 C818 0.932 . S
H837 C819 0.929 . S
H838 C820 0.928 . S
H839 C822 0.932 . S
C840 C841 1.264 . S
C840 C845 1.479 . S
C840 C850 1.465 . S
C841 C840 1.264 . S
C841 C843 1.339 . S
C841 H868 0.931 . S
C842 C843 1.395 . S
C842 C844 1.320 . S
C843 C841 1.339 . S
C843 C842 1.395 . S
C843 H869 0.929 . S
C844 C842 1.320 . S
C844 C845 1.405 . S
C844 H870 0.930 . S
C845 C840 1.479 . S
C845 C844 1.405 . S
C845 H871 0.931 . S
U846 O847 2.454 . S
U846 O848 2.458 . S
U846 C849 2.984 . S
U846 C850 2.847 . S
U846 C863 2.882 1_655 S
U846 O864 2.441 . S
U846 O865 2.420 . S
U846 O866 2.503 . S
U846 O867 2.449 1_655 S
O847 U846 2.454 . S
O847 C849 1.353 . S
O848 U846 2.458 . S
O848 C849 1.286 . S
C849 U846 2.984 . S
C849 O847 1.353 . S
C849 O848 1.286 . S
C849 C851 1.363 . S
C850 C840 1.465 . S
C850 U846 2.847 . S
C850 O864 1.249 . S
C850 O865 1.202 . S
C851 C849 1.363 . S
C851 C853 1.408 . S
C851 C856 1.342 . S
C852 C853 1.310 . S
C852 C855 1.461 . S
C852 H872 0.932 . S
C853 C851 1.408 . S
C853 C852 1.310 . S
C853 H873 0.930 . S
C854 C855 1.474 . S
C854 C856 1.285 . S
C854 H874 0.929 . S
C855 C852 1.461 . S
C855 C854 1.474 . S
C856 C851 1.342 . S
C856 C854 1.285 . S
C856 H875 0.930 . S
C857 C860 1.424 . S
C857 C862 1.245 . S
C857 C863 1.428 . S
C858 C861 1.260 . S
C858 C862 1.477 . S
C858 H876 0.932 . S
C859 C860 1.384 . S
C859 C861 1.479 . S
C859 H877 0.929 . S
C860 C857 1.424 . S
C860 C859 1.384 . S
C860 H878 0.928 . S
C861 C858 1.260 . S
C861 C859 1.479 . S
C862 C857 1.245 . S
C862 C858 1.477 . S
C862 H879 0.932 . S
C863 U846 2.882 1_455 S
C863 C857 1.428 . S
C863 O866 1.306 1_455 S
C863 O867 1.282 . S
O864 U846 2.441 . S
O864 C850 1.249 . S
O865 U846 2.420 . S
O865 C850 1.202 . S
O866 U846 2.503 . S
O866 C863 1.306 1_655 S
O867 U846 2.449 1_455 S
O867 C863 1.282 . S
H868 C841 0.931 . S
H869 C843 0.929 . S
H870 C844 0.930 . S
H871 C845 0.931 . S
H872 C852 0.932 . S
H873 C853 0.930 . S
H874 C854 0.929 . S
H875 C856 0.930 . S
H876 C858 0.932 . S
H877 C859 0.929 . S
H878 C860 0.928 . S
H879 C862 0.932 . S
C880 C881 1.264 1_565 S
C880 C885 1.479 . S
C880 C890 1.465 . S
C881 C880 1.264 1_545 S
C881 C883 1.339 . S
C881 H908 0.931 . S
C882 C883 1.395 1_565 S
C882 C884 1.320 . S
C883 C881 1.339 . S
C883 C882 1.395 1_545 S
C883 H909 0.929 . S
C884 C882 1.320 . S
C884 C885 1.405 . S
C884 H910 0.930 . S
C885 C880 1.479 . S
C885 C884 1.405 . S
C885 H911 0.931 . S
U886 O887 2.454 . S
U886 O888 2.458 . S
U886 C889 2.984 . S
U886 C890 2.847 . S
U886 C903 2.882 1_565 S
U886 O904 2.441 . S
U886 O905 2.420 . S
U886 O906 2.455 1_565 S
U886 O907 2.449 1_565 S
O887 U886 2.454 . S
O887 C889 1.353 . S
O888 U886 2.458 . S
O888 C889 1.286 . S
C889 U886 2.984 . S
C889 O887 1.353 . S
C889 O888 1.286 . S
C889 C891 1.363 . S
C890 C880 1.465 . S
C890 U886 2.847 . S
C890 O904 1.249 . S
C890 O905 1.202 . S
C891 C889 1.363 . S
C891 C893 1.408 . S
C891 C896 1.342 . S
C892 C893 1.310 . S
C892 C895 1.461 . S
C892 H912 0.932 . S
C893 C891 1.408 . S
C893 C892 1.310 . S
C893 H913 0.930 . S
C894 C895 1.474 . S
C894 C896 1.285 . S
C894 H914 0.929 . S
C895 C892 1.461 . S
C895 C894 1.474 . S
C896 C891 1.342 . S
C896 C894 1.285 . S
C896 H915 0.930 . S
C897 C900 1.424 . S
C897 C902 1.245 . S
C897 C903 1.428 . S
C898 C901 1.260 . S
C898 C902 1.477 . S
C898 H916 0.932 . S
C899 C900 1.384 . S
C899 C901 1.479 . S
C899 H917 0.929 . S
C900 C897 1.424 . S
C900 C899 1.384 . S
C900 H918 0.928 . S
C901 C898 1.260 . S
C901 C899 1.479 . S
C902 C897 1.245 . S
C902 C898 1.477 . S
C902 H919 0.932 . S
C903 U886 2.882 1_545 S
C903 C897 1.428 . S
C903 O906 1.301 . S
C903 O907 1.282 . S
O904 U886 2.441 . S
O904 C890 1.249 . S
O905 U886 2.420 . S
O905 C890 1.202 . S
O906 U886 2.455 1_545 S
O906 C903 1.301 . S
O907 U886 2.449 1_545 S
O907 C903 1.282 . S
H908 C881 0.931 . S
H909 C883 0.929 . S
H910 C884 0.930 . S
H911 C885 0.931 . S
H912 C892 0.932 . S
H913 C893 0.930 . S
H914 C894 0.929 . S
H915 C896 0.930 . S
H916 C898 0.932 . S
H917 C899 0.929 . S
H918 C900 0.928 . S
H919 C902 0.932 . S
C920 C921 1.264 . S
C920 C925 1.479 . S
C920 C930 1.465 . S
C921 C920 1.264 . S
C921 C923 1.339 . S
C921 H948 0.931 . S
C922 C923 1.395 . S
C922 C924 1.320 . S
C923 C921 1.339 . S
C923 C922 1.395 . S
C923 H949 0.929 . S
C924 C922 1.320 . S
C924 C925 1.405 . S
C924 H950 0.930 . S
C925 C920 1.479 . S
C925 C924 1.405 . S
C925 H951 0.931 . S
U926 O927 2.454 . S
U926 O928 2.458 . S
U926 C929 2.984 . S
U926 C930 2.847 . S
U926 C943 2.882 . S
U926 O944 2.441 . S
U926 O945 2.420 . S
U926 O946 2.455 . S
U926 O947 2.449 . S
O927 U926 2.454 . S
O927 C929 1.353 . S
O928 U926 2.458 . S
O928 C929 1.286 . S
C929 U926 2.984 . S
C929 O927 1.353 . S
C929 O928 1.286 . S
C929 C931 1.363 1_545 S
C930 C920 1.465 . S
C930 U926 2.847 . S
C930 O944 1.249 . S
C930 O945 1.202 . S
C931 C929 1.363 1_565 S
C931 C933 1.408 . S
C931 C936 1.342 . S
C932 C933 1.310 . S
C932 C935 1.461 . S
C932 H952 0.932 . S
C933 C931 1.408 . S
C933 C932 1.310 . S
C933 H953 0.930 . S
C934 C935 1.474 . S
C934 C936 1.285 . S
C934 H954 0.929 . S
C935 C932 1.461 . S
C935 C934 1.474 . S
C936 C931 1.342 . S
C936 C934 1.285 . S
C936 H955 0.930 . S
C937 C940 1.424 . S
C937 C942 1.245 . S
C937 C943 1.428 . S
C938 C941 1.260 . S
C938 C942 1.477 . S
C938 H956 0.932 . S
C939 C940 1.384 . S
C939 C941 1.479 . S
C939 H957 0.929 . S
C940 C937 1.424 . S
C940 C939 1.384 . S
C940 H958 0.928 . S
C941 C938 1.260 . S
C941 C939 1.479 . S
C942 C937 1.245 . S
C942 C938 1.477 . S
C942 H959 0.932 . S
C943 U926 2.882 . S
C943 C937 1.428 . S
C943 O946 1.301 . S
C943 O947 1.282 . S
O944 U926 2.441 . S
O944 C930 1.249 . S
O945 U926 2.420 . S
O945 C930 1.202 . S
O946 U926 2.455 . S
O946 C943 1.301 . S
O947 U926 2.449 . S
O947 C943 1.282 . S
H948 C921 0.931 . S
H949 C923 0.929 . S
H950 C924 0.930 . S
H951 C925 0.931 . S
H952 C932 0.932 . S
H953 C933 0.930 . S
H954 C934 0.929 . S
H955 C936 0.930 . S
H956 C938 0.932 . S
H957 C939 0.929 . S
H958 C940 0.928 . S
H959 C942 0.932 . S
H960 C966 0.931 1_655 S
H961 C970 0.930 . S
H962 C975 0.929 . S
H963 C973 0.929 . S
H964 C968 0.941 1_455 S
H965 C974 0.929 . S
C966 H960 0.931 1_455 S
C966 C967 1.367 . S
C966 C974 1.378 1_455 S
C967 C966 1.367 . S
C967 C975 1.433 . S
C968 H964 0.941 1_655 S
C968 C970 1.378 . S
C968 C972 1.350 . S
C969 C972 1.461 . S
C969 C974 1.346 . S
C969 N977 1.438 1_655 S
C970 H961 0.930 . S
C970 C968 1.378 . S
C970 C971 1.367 . S
C971 C970 1.367 . S
C971 C973 1.433 . S
C972 C968 1.350 . S
C972 C969 1.461 . S
C972 N976 1.427 . S
C973 H963 0.929 . S
C973 C971 1.433 . S
C973 N976 1.384 . S
C974 H965 0.929 . S
C974 C966 1.378 1_655 S
C974 C969 1.346 . S
C975 H962 0.929 . S
C975 C967 1.433 . S
C975 N977 1.384 . S
N976 C972 1.427 . S
N976 C973 1.384 . S
N977 C969 1.438 1_455 S
N977 C975 1.384 . S
H978 C984 0.930 . S
H979 C988 0.930 . S
H980 C993 0.929 . S
H981 C991 0.929 . S
H982 C986 0.929 . S
H983 C992 0.929 . S
C984 H978 0.930 . S
C984 C985 1.367 . S
C984 C992 1.378 . S
C985 C984 1.367 . S
C985 C993 1.433 . S
C986 H982 0.929 . S
C986 C988 1.378 . S
C986 C990 1.350 . S
C987 C990 1.463 . S
C987 C992 1.350 . S
C987 N995 1.427 . S
C988 H979 0.930 . S
C988 C986 1.378 . S
C988 C989 1.367 . S
C989 C988 1.367 . S
C989 C991 1.433 . S
C990 C986 1.350 . S
C990 C987 1.463 . S
C990 N994 1.427 . S
C991 H981 0.929 . S
C991 C989 1.433 . S
C991 N994 1.384 . S
C992 H983 0.929 . S
C992 C984 1.378 . S
C992 C987 1.350 . S
C993 H980 0.929 . S
C993 C985 1.433 . S
C993 N995 1.384 . S
N994 C990 1.427 . S
N994 C991 1.384 . S
N995 C987 1.427 . S
N995 C993 1.384 . S
H996 C1002 0.930 . S
H997 C1006 0.930 . S
H998 C1011 0.929 . S
H999 C1009 0.929 . S
H1000 C1004 0.929 . S
H1001 C1010 0.929 . S
C1002 H996 0.930 . S
C1002 C1003 1.367 . S
C1002 C1010 1.378 . S
C1003 C1002 1.367 . S
C1003 C1011 1.433 . S
C1004 H1000 0.929 . S
C1004 C1006 1.378 . S
C1004 C1008 1.350 . S
C1005 C1008 1.463 . S
C1005 C1010 1.350 . S
C1005 N1013 1.427 . S
C1006 H997 0.930 . S
C1006 C1004 1.378 . S
C1006 C1007 1.367 . S
C1007 C1006 1.367 . S
C1007 C1009 1.433 . S
C1008 C1004 1.350 . S
C1008 C1005 1.463 . S
C1008 N1012 1.427 . S
C1009 H999 0.929 . S
C1009 C1007 1.433 . S
C1009 N1012 1.384 . S
C1010 H1001 0.929 . S
C1010 C1002 1.378 . S
C1010 C1005 1.350 . S
C1011 H998 0.929 . S
C1011 C1003 1.433 . S
C1011 N1013 1.384 . S
N1012 C1008 1.427 . S
N1012 C1009 1.384 . S
N1013 C1005 1.427 . S
N1013 C1011 1.384 . S
H1014 C1020 0.930 . S
H1015 C1024 0.930 . S
H1016 C1029 0.929 . S
H1017 C1027 0.929 . S
H1018 C1022 0.929 . S
H1019 C1028 0.929 . S
C1020 H1014 0.930 . S
C1020 C1021 1.367 . S
C1020 C1028 1.378 . S
C1021 C1020 1.367 . S
C1021 C1029 1.433 . S
C1022 H1018 0.929 . S
C1022 C1024 1.378 . S
C1022 C1026 1.350 . S
C1023 C1026 1.463 . S
C1023 C1028 1.350 . S
C1023 N1031 1.427 . S
C1024 H1015 0.930 . S
C1024 C1022 1.378 . S
C1024 C1025 1.367 . S
C1025 C1024 1.367 . S
C1025 C1027 1.433 . S
C1026 C1022 1.350 . S
C1026 C1023 1.463 . S
C1026 N1030 1.427 . S
C1027 H1017 0.929 . S
C1027 C1025 1.433 . S
C1027 N1030 1.384 . S
C1028 H1019 0.929 . S
C1028 C1020 1.378 . S
C1028 C1023 1.350 . S
C1029 H1016 0.929 . S
C1029 C1021 1.433 . S
C1029 N1031 1.384 . S
N1030 C1026 1.427 . S
N1030 C1027 1.384 . S
N1031 C1023 1.427 . S
N1031 C1029 1.384 . S
H1032 C1038 0.930 . S
H1033 C1042 0.930 . S
H1034 C1047 0.929 . S
H1035 C1045 0.943 . S
H1036 C1040 0.929 . S
H1037 C1046 0.929 . S
C1038 H1032 0.930 . S
C1038 C1039 1.367 . S
C1038 C1046 1.378 . S
C1039 C1038 1.367 . S
C1039 C1047 1.433 1_545 S
C1040 H1036 0.929 . S
C1040 C1042 1.378 . S
C1040 C1044 1.350 . S
C1041 C1044 1.463 . S
C1041 C1046 1.350 1_565 S
C1041 N1049 1.427 . S
C1042 H1033 0.930 . S
C1042 C1040 1.378 . S
C1042 C1043 1.367 . S
C1043 C1042 1.367 . S
C1043 C1045 1.420 1_565 S
C1044 C1040 1.350 . S
C1044 C1041 1.463 . S
C1044 N1048 1.427 1_565 S
C1045 H1035 0.943 . S
C1045 C1043 1.420 1_545 S
C1045 N1048 1.384 . S
C1046 H1037 0.929 . S
C1046 C1038 1.378 . S
C1046 C1041 1.350 1_545 S
C1047 H1034 0.929 . S
C1047 C1039 1.433 1_565 S
C1047 N1049 1.384 . S
N1048 C1044 1.427 1_545 S
N1048 C1045 1.384 . S
N1049 C1041 1.427 . S
N1049 C1047 1.384 . S
H1050 C1056 0.930 . S
H1051 C1060 0.930 . S
H1052 C1065 0.929 . S
H1053 C1063 0.929 . S
H1054 C1058 0.929 . S
H1055 C1064 0.929 . S
C1056 H1050 0.930 . S
C1056 C1057 1.367 . S
C1056 C1064 1.378 . S
C1057 C1056 1.367 . S
C1057 C1065 1.433 . S
C1058 H1054 0.929 . S
C1058 C1060 1.378 . S
C1058 C1062 1.350 . S
C1059 C1062 1.463 . S
C1059 C1064 1.350 . S
C1059 N1067 1.427 . S
C1060 H1051 0.930 . S
C1060 C1058 1.378 . S
C1060 C1061 1.367 . S
C1061 C1060 1.367 . S
C1061 C1063 1.433 . S
C1062 C1058 1.350 . S
C1062 C1059 1.463 . S
C1062 N1066 1.427 . S
C1063 H1053 0.929 . S
C1063 C1061 1.433 . S
C1063 N1066 1.384 . S
C1064 H1055 0.929 . S
C1064 C1056 1.378 . S
C1064 C1059 1.350 . S
C1065 H1052 0.929 . S
C1065 C1057 1.433 . S
C1065 N1067 1.384 . S
N1066 C1062 1.427 . S
N1066 C1063 1.384 . S
N1067 C1059 1.427 . S
N1067 C1065 1.384 . S
H1068 C1074 0.930 . S
H1069 C1078 0.930 . S
H1070 C1083 0.929 . S
H1071 C1081 0.929 . S
H1072 C1076 0.929 . S
H1073 C1082 0.929 . S
C1074 H1068 0.930 . S
C1074 C1075 1.367 . S
C1074 C1082 1.378 . S
C1075 C1074 1.367 . S
C1075 C1083 1.433 . S
C1076 H1072 0.929 . S
C1076 C1078 1.378 . S
C1076 C1080 1.350 . S
C1077 C1080 1.463 . S
C1077 C1082 1.350 . S
C1077 N1085 1.427 . S
C1078 H1069 0.930 . S
C1078 C1076 1.378 . S
C1078 C1079 1.367 . S
C1079 C1078 1.367 . S
C1079 C1081 1.433 . S
C1080 C1076 1.350 . S
C1080 C1077 1.463 . S
C1080 N1084 1.427 . S
C1081 H1071 0.929 . S
C1081 C1079 1.433 . S
C1081 N1084 1.384 . S
C1082 H1073 0.929 . S
C1082 C1074 1.378 . S
C1082 C1077 1.350 . S
C1083 H1070 0.929 . S
C1083 C1075 1.433 . S
C1083 N1085 1.384 . S
N1084 C1080 1.427 . S
N1084 C1081 1.384 . S
N1085 C1077 1.427 . S
N1085 C1083 1.384 . S
H1086 C1092 0.930 . S
H1087 C1096 0.930 1_554 S
H1088 C1101 0.929 . S
H1089 C1099 0.929 . S
H1090 C1094 0.929 . S
H1091 C1100 0.929 . S
C1092 H1086 0.930 . S
C1092 C1093 1.367 1_556 S
C1092 C1100 1.378 . S
C1093 C1092 1.367 1_554 S
C1093 C1101 1.433 . S
C1094 H1090 0.929 . S
C1094 C1096 1.378 1_554 S
C1094 C1098 1.350 1_554 S
C1095 C1098 1.463 . S
C1095 C1100 1.350 . S
C1095 N1103 1.427 1_556 S
C1096 H1087 0.930 1_556 S
C1096 C1094 1.378 1_556 S
C1096 C1097 1.367 . S
C1097 C1096 1.367 . S
C1097 C1099 1.433 . S
C1098 C1094 1.350 1_556 S
C1098 C1095 1.463 . S
C1098 N1102 1.427 . S
C1099 H1089 0.929 . S
C1099 C1097 1.433 . S
C1099 N1102 1.384 . S
C1100 H1091 0.929 . S
C1100 C1092 1.378 . S
C1100 C1095 1.350 . S
C1101 H1088 0.929 . S
C1101 C1093 1.433 . S
C1101 N1103 1.384 . S
N1102 C1098 1.427 . S
N1102 C1099 1.384 . S
N1103 C1095 1.427 1_554 S
N1103 C1101 1.384 . S
H1104 C1110 0.930 . S
H1105 C1114 0.930 . S
H1106 C1119 0.929 . S
H1107 C1117 0.929 . S
H1108 C1112 0.929 . S
H1109 C1118 0.929 . S
C1110 H1104 0.930 . S
C1110 C1111 1.367 . S
C1110 C1118 1.378 . S
C1111 C1110 1.367 . S
C1111 C1119 1.433 . S
C1112 H1108 0.929 . S
C1112 C1114 1.378 . S
C1112 C1116 1.350 . S
C1113 C1116 1.463 . S
C1113 C1118 1.350 . S
C1113 N1121 1.427 . S
C1114 H1105 0.930 . S
C1114 C1112 1.378 . S
C1114 C1115 1.367 . S
C1115 C1114 1.367 . S
C1115 C1117 1.433 . S
C1116 C1112 1.350 . S
C1116 C1113 1.463 . S
C1116 N1120 1.427 . S
C1117 H1107 0.929 . S
C1117 C1115 1.433 . S
C1117 N1120 1.384 . S
C1118 H1109 0.929 . S
C1118 C1110 1.378 . S
C1118 C1113 1.350 . S
C1119 H1106 0.929 . S
C1119 C1111 1.433 . S
C1119 N1121 1.384 . S
N1120 C1116 1.427 . S
N1120 C1117 1.384 . S
N1121 C1113 1.427 . S
N1121 C1119 1.384 . S
H1122 C1128 0.930 . S
H1123 C1132 0.930 . S
H1124 C1137 0.929 . S
H1125 C1135 0.929 . S
H1126 C1130 0.929 . S
H1127 C1136 0.929 . S
C1128 H1122 0.930 . S
C1128 C1129 1.367 . S
C1128 C1136 1.378 . S
C1129 C1128 1.367 . S
C1129 C1137 1.433 . S
C1130 H1126 0.929 . S
C1130 C1132 1.378 . S
C1130 C1134 1.350 . S
C1131 C1134 1.463 . S
C1131 C1136 1.350 . S
C1131 N1139 1.427 . S
C1132 H1123 0.930 . S
C1132 C1130 1.378 . S
C1132 C1133 1.367 . S
C1133 C1132 1.367 . S
C1133 C1135 1.433 . S
C1134 C1130 1.350 . S
C1134 C1131 1.463 . S
C1134 N1138 1.427 . S
C1135 H1125 0.929 . S
C1135 C1133 1.433 . S
C1135 N1138 1.384 . S
C1136 H1127 0.929 . S
C1136 C1128 1.378 . S
C1136 C1131 1.350 . S
C1137 H1124 0.929 . S
C1137 C1129 1.433 . S
C1137 N1139 1.384 . S
N1138 C1134 1.427 . S
N1138 C1135 1.384 . S
N1139 C1131 1.427 . S
N1139 C1137 1.384 . S
H1140 C1146 0.930 . S
H1141 C1150 0.930 . S
H1142 C1155 0.929 . S
H1143 C1153 0.929 . S
H1144 C1148 0.929 . S
H1145 C1154 0.929 . S
C1146 H1140 0.930 . S
C1146 C1147 1.367 . S
C1146 C1154 1.378 . S
C1147 C1146 1.367 . S
C1147 C1155 1.433 . S
C1148 H1144 0.929 . S
C1148 C1150 1.378 . S
C1148 C1152 1.350 . S
C1149 C1152 1.463 . S
C1149 C1154 1.350 . S
C1149 N1157 1.427 . S
C1150 H1141 0.930 . S
C1150 C1148 1.378 . S
C1150 C1151 1.367 . S
C1151 C1150 1.367 . S
C1151 C1153 1.433 . S
C1152 C1148 1.350 . S
C1152 C1149 1.463 . S
C1152 N1156 1.427 . S
C1153 H1143 0.929 . S
C1153 C1151 1.433 . S
C1153 N1156 1.384 . S
C1154 H1145 0.929 . S
C1154 C1146 1.378 . S
C1154 C1149 1.350 . S
C1155 H1142 0.929 . S
C1155 C1147 1.433 . S
C1155 N1157 1.384 . S
N1156 C1152 1.427 . S
N1156 C1153 1.384 . S
N1157 C1149 1.427 . S
N1157 C1155 1.384 . S
H1158 C1164 0.930 . S
H1159 C1168 0.930 . S
H1160 C1173 0.929 . S
H1161 C1171 0.929 . S
H1162 C1166 0.929 . S
H1163 C1172 0.929 . S
C1164 H1158 0.930 . S
C1164 C1165 1.367 . S
C1164 C1172 1.378 . S
C1165 C1164 1.367 . S
C1165 C1173 1.433 . S
C1166 H1162 0.929 . S
C1166 C1168 1.378 . S
C1166 C1170 1.350 . S
C1167 C1170 1.463 . S
C1167 C1172 1.350 . S
C1167 N1175 1.427 . S
C1168 H1159 0.930 . S
C1168 C1166 1.378 . S
C1168 C1169 1.367 . S
C1169 C1168 1.367 . S
C1169 C1171 1.433 . S
C1170 C1166 1.350 . S
C1170 C1167 1.463 . S
C1170 N1174 1.427 . S
C1171 H1161 0.929 . S
C1171 C1169 1.433 . S
C1171 N1174 1.384 . S
C1172 H1163 0.929 . S
C1172 C1164 1.378 . S
C1172 C1167 1.350 . S
C1173 H1160 0.929 . S
C1173 C1165 1.433 . S
C1173 N1175 1.384 . S
N1174 C1170 1.427 . S
N1174 C1171 1.384 . S
N1175 C1167 1.427 . S
N1175 C1173 1.384 . S
H1176 C1182 0.930 . S
H1177 C1186 0.930 . S
H1178 C1191 0.929 . S
H1179 C1189 0.929 . S
H1180 C1184 0.929 . S
H1181 C1190 0.929 . S
C1182 H1176 0.930 . S
C1182 C1183 1.367 . S
C1182 C1190 1.378 . S
C1183 C1182 1.367 . S
C1183 C1191 1.433 . S
C1184 H1180 0.929 . S
C1184 C1186 1.378 . S
C1184 C1188 1.350 . S
C1185 C1188 1.463 . S
C1185 C1190 1.350 . S
C1185 N1193 1.427 . S
C1186 H1177 0.930 . S
C1186 C1184 1.378 . S
C1186 C1187 1.367 . S
C1187 C1186 1.367 . S
C1187 C1189 1.433 . S
C1188 C1184 1.350 . S
C1188 C1185 1.463 . S
C1188 N1192 1.427 . S
C1189 H1179 0.929 . S
C1189 C1187 1.433 . S
C1189 N1192 1.384 . S
C1190 H1181 0.929 . S
C1190 C1182 1.378 . S
C1190 C1185 1.350 . S
C1191 H1178 0.929 . S
C1191 C1183 1.433 . S
C1191 N1193 1.384 . S
N1192 C1188 1.427 . S
N1192 C1189 1.384 . S
N1193 C1185 1.427 . S
N1193 C1191 1.384 . S
H1194 C1200 0.930 . S
H1195 C1204 0.930 . S
H1196 C1209 0.929 . S
H1197 C1207 0.929 . S
H1198 C1202 0.929 . S
H1199 C1208 0.929 . S
C1200 H1194 0.930 . S
C1200 C1201 1.367 . S
C1200 C1208 1.378 . S
C1201 C1200 1.367 . S
C1201 C1209 1.433 . S
C1202 H1198 0.929 . S
C1202 C1204 1.378 . S
C1202 C1206 1.350 . S
C1203 C1206 1.463 . S
C1203 C1208 1.350 . S
C1203 N1211 1.427 . S
C1204 H1195 0.930 . S
C1204 C1202 1.378 . S
C1204 C1205 1.367 . S
C1205 C1204 1.367 . S
C1205 C1207 1.433 . S
C1206 C1202 1.350 . S
C1206 C1203 1.463 . S
C1206 N1210 1.427 . S
C1207 H1197 0.929 . S
C1207 C1205 1.433 . S
C1207 N1210 1.384 . S
C1208 H1199 0.929 . S
C1208 C1200 1.378 . S
C1208 C1203 1.350 . S
C1209 H1196 0.929 . S
C1209 C1201 1.433 . S
C1209 N1211 1.384 . S
N1210 C1206 1.427 . S
N1210 C1207 1.384 . S
N1211 C1203 1.427 . S
N1211 C1209 1.384 . S
H1212 C1218 0.930 1_554 S
H1213 C1222 0.930 . S
H1214 C1227 0.929 . S
H1215 C1225 0.929 . S
H1216 C1220 0.929 . S
H1217 C1226 0.929 . S
C1218 H1212 0.930 1_556 S
C1218 C1219 1.367 . S
C1218 C1226 1.378 . S
C1219 C1218 1.367 . S
C1219 C1227 1.433 . S
C1220 H1216 0.929 . S
C1220 C1222 1.378 . S
C1220 C1224 1.350 . S
C1221 C1224 1.463 . S
C1221 C1226 1.350 . S
C1221 N1229 1.427 . S
C1222 H1213 0.930 . S
C1222 C1220 1.378 . S
C1222 C1223 1.367 . S
C1223 C1222 1.367 . S
C1223 C1225 1.433 . S
C1224 C1220 1.350 . S
C1224 C1221 1.463 . S
C1224 N1228 1.427 . S
C1225 H1215 0.929 . S
C1225 C1223 1.433 . S
C1225 N1228 1.384 . S
C1226 H1217 0.929 . S
C1226 C1218 1.378 . S
C1226 C1221 1.350 . S
C1227 H1214 0.929 . S
C1227 C1219 1.433 . S
C1227 N1229 1.384 . S
N1228 C1224 1.427 . S
N1228 C1225 1.384 . S
N1229 C1221 1.427 . S
N1229 C1227 1.384 . S
H1230 C1236 0.930 . S
H1231 C1240 0.930 . S
H1232 C1245 0.929 . S
H1233 C1243 0.929 . S
H1234 C1238 0.929 . S
H1235 C1244 0.929 . S
C1236 H1230 0.930 . S
C1236 C1237 1.367 . S
C1236 C1244 1.378 . S
C1237 C1236 1.367 . S
C1237 C1245 1.433 . S
C1238 H1234 0.929 . S
C1238 C1240 1.378 . S
C1238 C1242 1.350 . S
C1239 C1242 1.463 . S
C1239 C1244 1.350 . S
C1239 N1247 1.427 . S
C1240 H1231 0.930 . S
C1240 C1238 1.378 . S
C1240 C1241 1.367 . S
C1241 C1240 1.367 . S
C1241 C1243 1.433 . S
C1242 C1238 1.350 . S
C1242 C1239 1.463 . S
C1242 N1246 1.427 . S
C1243 H1233 0.929 . S
C1243 C1241 1.433 . S
C1243 N1246 1.384 . S
C1244 H1235 0.929 . S
C1244 C1236 1.378 . S
C1244 C1239 1.350 . S
C1245 H1232 0.929 . S
C1245 C1237 1.433 . S
C1245 N1247 1.384 . S
N1246 C1242 1.427 . S
N1246 C1243 1.384 . S
N1247 C1239 1.427 . S
N1247 C1245 1.384 . S
H1248 C1254 0.930 . S
H1249 C1258 0.930 . S
H1250 C1263 0.929 . S
H1251 C1261 0.929 . S
H1252 C1256 0.929 . S
H1253 C1262 0.929 . S
C1254 H1248 0.930 . S
C1254 C1255 1.367 . S
C1254 C1262 1.378 . S
C1255 C1254 1.367 . S
C1255 C1263 1.433 . S
C1256 H1252 0.929 . S
C1256 C1258 1.378 . S
C1256 C1260 1.350 . S
C1257 C1260 1.463 . S
C1257 C1262 1.350 . S
C1257 N1265 1.427 . S
C1258 H1249 0.930 . S
C1258 C1256 1.378 . S
C1258 C1259 1.367 . S
C1259 C1258 1.367 . S
C1259 C1261 1.433 . S
C1260 C1256 1.350 . S
C1260 C1257 1.463 . S
C1260 N1264 1.427 . S
C1261 H1251 0.929 . S
C1261 C1259 1.433 . S
C1261 N1264 1.384 . S
C1262 H1253 0.929 . S
C1262 C1254 1.378 . S
C1262 C1257 1.350 . S
C1263 H1250 0.929 . S
C1263 C1255 1.433 . S
C1263 N1265 1.384 . S
N1264 C1260 1.427 . S
N1264 C1261 1.384 . S
N1265 C1257 1.427 . S
N1265 C1263 1.384 . S
H1266 C1272 0.930 . S
H1267 C1276 0.930 . S
H1268 C1281 0.929 . S
H1269 C1279 0.929 . S
H1270 C1274 0.929 . S
H1271 C1280 0.929 . S
C1272 H1266 0.930 . S
C1272 C1273 1.367 . S
C1272 C1280 1.378 . S
C1273 C1272 1.367 . S
C1273 C1281 1.433 . S
C1274 H1270 0.929 . S
C1274 C1276 1.378 . S
C1274 C1278 1.350 . S
C1275 C1278 1.463 . S
C1275 C1280 1.350 . S
C1275 N1283 1.427 . S
C1276 H1267 0.930 . S
C1276 C1274 1.378 . S
C1276 C1277 1.367 . S
C1277 C1276 1.367 . S
C1277 C1279 1.433 . S
C1278 C1274 1.350 . S
C1278 C1275 1.463 . S
C1278 N1282 1.427 . S
C1279 H1269 0.929 . S
C1279 C1277 1.433 . S
C1279 N1282 1.384 . S
C1280 H1271 0.929 . S
C1280 C1272 1.378 . S
C1280 C1275 1.350 . S
C1281 H1268 0.929 . S
C1281 C1273 1.433 . S
C1281 N1283 1.384 . S
N1282 C1278 1.427 . S
N1282 C1279 1.384 . S
N1283 C1275 1.427 . S
N1283 C1281 1.384 . S
H1284 C1290 0.930 . S
H1285 C1294 0.930 . S
H1286 C1299 0.929 . S
H1287 C1297 0.929 . S
H1288 C1292 0.929 . S
H1289 C1298 0.929 . S
C1290 H1284 0.930 . S
C1290 C1291 1.367 . S
C1290 C1298 1.378 . S
C1291 C1290 1.367 . S
C1291 C1299 1.433 . S
C1292 H1288 0.929 . S
C1292 C1294 1.378 . S
C1292 C1296 1.350 . S
C1293 C1296 1.463 . S
C1293 C1298 1.350 . S
C1293 N1301 1.427 . S
C1294 H1285 0.930 . S
C1294 C1292 1.378 . S
C1294 C1295 1.367 . S
C1295 C1294 1.367 . S
C1295 C1297 1.433 . S
C1296 C1292 1.350 . S
C1296 C1293 1.463 . S
C1296 N1300 1.427 . S
C1297 H1287 0.929 . S
C1297 C1295 1.433 . S
C1297 N1300 1.384 . S
C1298 H1289 0.929 . S
C1298 C1290 1.378 . S
C1298 C1293 1.350 . S
C1299 H1286 0.929 . S
C1299 C1291 1.433 . S
C1299 N1301 1.384 . S
N1300 C1296 1.427 . S
N1300 C1297 1.384 . S
N1301 C1293 1.427 . S
N1301 C1299 1.384 . S
H1302 C1308 0.930 . S
H1303 C1312 0.930 . S
H1304 C1317 0.929 . S
H1305 C1315 0.929 . S
H1306 C1310 0.929 . S
H1307 C1316 0.929 . S
C1308 H1302 0.930 . S
C1308 C1309 1.367 . S
C1308 C1316 1.378 . S
C1309 C1308 1.367 . S
C1309 C1317 1.433 . S
C1310 H1306 0.929 . S
C1310 C1312 1.378 . S
C1310 C1314 1.350 . S
C1311 C1314 1.463 . S
C1311 C1316 1.350 . S
C1311 N1319 1.427 . S
C1312 H1303 0.930 . S
C1312 C1310 1.378 . S
C1312 C1313 1.367 . S
C1313 C1312 1.367 . S
C1313 C1315 1.433 . S
C1314 C1310 1.350 . S
C1314 C1311 1.463 . S
C1314 N1318 1.427 . S
C1315 H1305 0.929 . S
C1315 C1313 1.433 . S
C1315 N1318 1.384 . S
C1316 H1307 0.929 . S
C1316 C1308 1.378 . S
C1316 C1311 1.350 . S
C1317 H1304 0.929 . S
C1317 C1309 1.433 . S
C1317 N1319 1.384 . S
N1318 C1314 1.427 . S
N1318 C1315 1.384 . S
N1319 C1311 1.427 . S
N1319 C1317 1.384 . S
H1320 C1326 0.930 . S
H1321 C1330 0.930 . S
H1322 C1335 0.929 . S
H1323 C1333 0.929 . S
H1324 C1328 0.929 . S
H1325 C1334 0.929 . S
C1326 H1320 0.930 . S
C1326 C1327 1.367 . S
C1326 C1334 1.378 . S
C1327 C1326 1.367 . S
C1327 C1335 1.433 . S
C1328 H1324 0.929 . S
C1328 C1330 1.378 . S
C1328 C1332 1.350 . S
C1329 C1332 1.463 . S
C1329 C1334 1.350 . S
C1329 N1337 1.427 . S
C1330 H1321 0.930 . S
C1330 C1328 1.378 . S
C1330 C1331 1.367 . S
C1331 C1330 1.367 . S
C1331 C1333 1.433 . S
C1332 C1328 1.350 . S
C1332 C1329 1.463 . S
C1332 N1336 1.427 . S
C1333 H1323 0.929 . S
C1333 C1331 1.433 . S
C1333 N1336 1.384 . S
C1334 H1325 0.929 . S
C1334 C1326 1.378 . S
C1334 C1329 1.350 . S
C1335 H1322 0.929 . S
C1335 C1327 1.433 . S
C1335 N1337 1.384 . S
N1336 C1332 1.427 . S
N1336 C1333 1.384 . S
N1337 C1329 1.427 . S
N1337 C1335 1.384 . S
H1338 C1344 0.930 . S
H1339 C1348 0.930 . S
H1340 C1353 0.929 . S
H1341 C1351 0.929 . S
H1342 C1346 0.929 . S
H1343 C1352 0.929 . S
C1344 H1338 0.930 . S
C1344 C1345 1.367 . S
C1344 C1352 1.378 . S
C1345 C1344 1.367 . S
C1345 C1353 1.433 . S
C1346 H1342 0.929 . S
C1346 C1348 1.378 . S
C1346 C1350 1.350 . S
C1347 C1350 1.463 . S
C1347 C1352 1.350 . S
C1347 N1355 1.427 . S
C1348 H1339 0.930 . S
C1348 C1346 1.378 . S
C1348 C1349 1.367 . S
C1349 C1348 1.367 . S
C1349 C1351 1.433 . S
C1350 C1346 1.350 . S
C1350 C1347 1.463 . S
C1350 N1354 1.427 . S
C1351 H1341 0.929 . S
C1351 C1349 1.433 . S
C1351 N1354 1.384 . S
C1352 H1343 0.929 . S
C1352 C1344 1.378 . S
C1352 C1347 1.350 . S
C1353 H1340 0.929 . S
C1353 C1345 1.433 . S
C1353 N1355 1.384 . S
N1354 C1350 1.427 . S
N1354 C1351 1.384 . S
N1355 C1347 1.427 . S
N1355 C1353 1.384 . S
H1356 C1362 0.930 . S
H1357 C1366 0.930 . S
H1358 C1371 0.929 . S
H1359 C1369 0.929 . S
H1360 C1364 0.929 . S
H1361 C1370 0.929 . S
C1362 H1356 0.930 . S
C1362 C1363 1.367 . S
C1362 C1370 1.378 . S
C1363 C1362 1.367 . S
C1363 C1371 1.433 . S
C1364 H1360 0.929 . S
C1364 C1366 1.378 . S
C1364 C1368 1.350 . S
C1365 C1368 1.463 . S
C1365 C1370 1.350 . S
C1365 N1373 1.427 . S
C1366 H1357 0.930 . S
C1366 C1364 1.378 . S
C1366 C1367 1.367 . S
C1367 C1366 1.367 . S
C1367 C1369 1.433 . S
C1368 C1364 1.350 . S
C1368 C1365 1.463 . S
C1368 N1372 1.427 . S
C1369 H1359 0.929 . S
C1369 C1367 1.433 . S
C1369 N1372 1.384 . S
C1370 H1361 0.929 . S
C1370 C1362 1.378 . S
C1370 C1365 1.350 . S
C1371 H1358 0.929 . S
C1371 C1363 1.433 . S
C1371 N1373 1.384 . S
N1372 C1368 1.427 . S
N1372 C1369 1.384 . S
N1373 C1365 1.427 . S
N1373 C1371 1.384 . S
H1374 C1380 0.930 . S
H1375 C1384 0.930 . S
H1376 C1389 0.929 . S
H1377 C1387 0.929 . S
H1378 C1382 0.929 . S
H1379 C1388 0.929 . S
C1380 H1374 0.930 . S
C1380 C1381 1.367 . S
C1380 C1388 1.378 . S
C1381 C1380 1.367 . S
C1381 C1389 1.433 . S
C1382 H1378 0.929 . S
C1382 C1384 1.378 . S
C1382 C1386 1.350 . S
C1383 C1386 1.463 . S
C1383 C1388 1.350 . S
C1383 N1391 1.427 . S
C1384 H1375 0.930 . S
C1384 C1382 1.378 . S
C1384 C1385 1.367 . S
C1385 C1384 1.367 . S
C1385 C1387 1.433 . S
C1386 C1382 1.350 . S
C1386 C1383 1.463 . S
C1386 N1390 1.427 . S
C1387 H1377 0.929 . S
C1387 C1385 1.433 . S
C1387 N1390 1.384 . S
C1388 H1379 0.929 . S
C1388 C1380 1.378 . S
C1388 C1383 1.350 . S
C1389 H1376 0.929 . S
C1389 C1381 1.433 . S
C1389 N1391 1.384 . S
N1390 C1386 1.427 . S
N1390 C1387 1.384 . S
N1391 C1383 1.427 . S
N1391 C1389 1.384 . S
H1392 C1398 0.930 . S
H1393 C1402 0.930 . S
H1394 C1407 0.929 . S
H1395 C1405 0.929 . S
H1396 C1400 0.929 . S
H1397 C1406 0.929 . S
C1398 H1392 0.930 . S
C1398 C1399 1.367 . S
C1398 C1406 1.378 . S
C1399 C1398 1.367 . S
C1399 C1407 1.433 . S
C1400 H1396 0.929 . S
C1400 C1402 1.378 . S
C1400 C1404 1.350 . S
C1401 C1404 1.463 . S
C1401 C1406 1.350 . S
C1401 N1409 1.427 . S
C1402 H1393 0.930 . S
C1402 C1400 1.378 . S
C1402 C1403 1.367 . S
C1403 C1402 1.367 . S
C1403 C1405 1.433 . S
C1404 C1400 1.350 . S
C1404 C1401 1.463 . S
C1404 N1408 1.427 . S
C1405 H1395 0.929 . S
C1405 C1403 1.433 . S
C1405 N1408 1.384 . S
C1406 H1397 0.929 . S
C1406 C1398 1.378 . S
C1406 C1401 1.350 . S
C1407 H1394 0.929 . S
C1407 C1399 1.433 . S
C1407 N1409 1.384 . S
N1408 C1404 1.427 . S
N1408 C1405 1.384 . S
N1409 C1401 1.427 . S
N1409 C1407 1.384 . S
H1410 C1416 0.930 . S
H1411 C1420 0.930 . S
H1412 C1425 0.929 . S
H1413 C1423 0.929 . S
H1414 C1418 0.929 . S
H1415 C1424 0.929 . S
C1416 H1410 0.930 . S
C1416 C1417 1.367 . S
C1416 C1424 1.378 . S
C1417 C1416 1.367 . S
C1417 C1425 1.433 . S
C1418 H1414 0.929 . S
C1418 C1420 1.378 . S
C1418 C1422 1.350 . S
C1419 C1422 1.463 . S
C1419 C1424 1.350 . S
C1419 N1427 1.427 . S
C1420 H1411 0.930 . S
C1420 C1418 1.378 . S
C1420 C1421 1.367 . S
C1421 C1420 1.367 . S
C1421 C1423 1.433 . S
C1422 C1418 1.350 . S
C1422 C1419 1.463 . S
C1422 N1426 1.427 . S
C1423 H1413 0.929 . S
C1423 C1421 1.433 . S
C1423 N1426 1.384 . S
C1424 H1415 0.929 . S
C1424 C1416 1.378 . S
C1424 C1419 1.350 . S
C1425 H1412 0.929 . S
C1425 C1417 1.433 . S
C1425 N1427 1.384 . S
N1426 C1422 1.427 . S
N1426 C1423 1.384 . S
N1427 C1419 1.427 . S
N1427 C1425 1.384 . S
H1428 C1434 0.930 . S
H1429 C1438 0.930 . S
H1430 C1443 0.929 . S
H1431 C1441 0.929 . S
H1432 C1436 0.929 . S
H1433 C1442 0.929 . S
C1434 H1428 0.930 . S
C1434 C1435 1.367 . S
C1434 C1442 1.378 . S
C1435 C1434 1.367 . S
C1435 C1443 1.433 . S
C1436 H1432 0.929 . S
C1436 C1438 1.378 . S
C1436 C1440 1.350 . S
C1437 C1440 1.463 . S
C1437 C1442 1.350 . S
C1437 N1445 1.427 . S
C1438 H1429 0.930 . S
C1438 C1436 1.378 . S
C1438 C1439 1.367 . S
C1439 C1438 1.367 . S
C1439 C1441 1.433 . S
C1440 C1436 1.350 . S
C1440 C1437 1.463 . S
C1440 N1444 1.427 . S
C1441 H1431 0.929 . S
C1441 C1439 1.433 . S
C1441 N1444 1.384 . S
C1442 H1433 0.929 . S
C1442 C1434 1.378 . S
C1442 C1437 1.350 . S
C1443 H1430 0.929 . S
C1443 C1435 1.433 . S
C1443 N1445 1.384 . S
N1444 C1440 1.427 . S
N1444 C1441 1.384 . S
N1445 C1437 1.427 . S
N1445 C1443 1.384 . S
H1446 C1452 0.930 . S
H1447 C1456 0.930 . S
H1448 C1461 0.929 . S
H1449 C1459 0.929 . S
H1450 C1454 0.929 . S
H1451 C1460 0.929 . S
C1452 H1446 0.930 . S
C1452 C1453 1.367 . S
C1452 C1460 1.378 . S
C1453 C1452 1.367 . S
C1453 C1461 1.433 . S
C1454 H1450 0.929 . S
C1454 C1456 1.378 . S
C1454 C1458 1.350 . S
C1455 C1458 1.463 . S
C1455 C1460 1.350 . S
C1455 N1463 1.427 . S
C1456 H1447 0.930 . S
C1456 C1454 1.378 . S
C1456 C1457 1.367 . S
C1457 C1456 1.367 . S
C1457 C1459 1.433 . S
C1458 C1454 1.350 . S
C1458 C1455 1.463 . S
C1458 N1462 1.427 . S
C1459 H1449 0.929 . S
C1459 C1457 1.433 . S
C1459 N1462 1.384 . S
C1460 H1451 0.929 . S
C1460 C1452 1.378 . S
C1460 C1455 1.350 . S
C1461 H1448 0.929 . S
C1461 C1453 1.433 . S
C1461 N1463 1.384 . S
N1462 C1458 1.427 . S
N1462 C1459 1.384 . S
N1463 C1455 1.427 . S
N1463 C1461 1.384 . S
H1464 C1470 0.930 . S
H1465 C1474 0.930 . S
H1466 C1479 0.929 . S
H1467 C1477 0.929 . S
H1468 C1472 0.929 . S
H1469 C1478 0.929 . S
C1470 H1464 0.930 . S
C1470 C1471 1.367 . S
C1470 C1478 1.378 . S
C1471 C1470 1.367 . S
C1471 C1479 1.433 . S
C1472 H1468 0.929 . S
C1472 C1474 1.378 . S
C1472 C1476 1.350 . S
C1473 C1476 1.463 . S
C1473 C1478 1.350 . S
C1473 N1481 1.427 . S
C1474 H1465 0.930 . S
C1474 C1472 1.378 . S
C1474 C1475 1.367 . S
C1475 C1474 1.367 . S
C1475 C1477 1.433 . S
C1476 C1472 1.350 . S
C1476 C1473 1.463 . S
C1476 N1480 1.427 . S
C1477 H1467 0.929 . S
C1477 C1475 1.433 . S
C1477 N1480 1.384 . S
C1478 H1469 0.929 . S
C1478 C1470 1.378 . S
C1478 C1473 1.350 . S
C1479 H1466 0.929 . S
C1479 C1471 1.433 . S
C1479 N1481 1.384 . S
N1480 C1476 1.427 . S
N1480 C1477 1.384 . S
N1481 C1473 1.427 . S
N1481 C1479 1.384 . S
H1482 C1488 0.930 . S
H1483 C1492 0.930 . S
H1484 C1497 0.929 . S
H1485 C1495 0.929 . S
H1486 C1490 0.929 . S
H1487 C1496 0.929 . S
C1488 H1482 0.930 . S
C1488 C1489 1.367 . S
C1488 C1496 1.378 . S
C1489 C1488 1.367 . S
C1489 C1497 1.433 . S
C1490 H1486 0.929 . S
C1490 C1492 1.378 . S
C1490 C1494 1.350 . S
C1491 C1494 1.463 . S
C1491 C1496 1.350 . S
C1491 N1499 1.427 . S
C1492 H1483 0.930 . S
C1492 C1490 1.378 . S
C1492 C1493 1.367 . S
C1493 C1492 1.367 . S
C1493 C1495 1.433 . S
C1494 C1490 1.350 . S
C1494 C1491 1.463 . S
C1494 N1498 1.427 . S
C1495 H1485 0.929 . S
C1495 C1493 1.433 . S
C1495 N1498 1.384 . S
C1496 H1487 0.929 . S
C1496 C1488 1.378 . S
C1496 C1491 1.350 . S
C1497 H1484 0.929 . S
C1497 C1489 1.433 . S
C1497 N1499 1.384 . S
N1498 C1494 1.427 . S
N1498 C1495 1.384 . S
N1499 C1491 1.427 . S
N1499 C1497 1.384 . S
H1500 C1506 0.930 . S
H1501 C1510 0.930 . S
H1502 C1515 0.929 . S
H1503 C1513 0.929 . S
H1504 C1508 0.929 . S
H1505 C1514 0.929 . S
C1506 H1500 0.930 . S
C1506 C1507 1.367 . S
C1506 C1514 1.378 . S
C1507 C1506 1.367 . S
C1507 C1515 1.433 . S
C1508 H1504 0.929 . S
C1508 C1510 1.378 . S
C1508 C1512 1.350 . S
C1509 C1512 1.463 . S
C1509 C1514 1.350 . S
C1509 N1517 1.427 . S
C1510 H1501 0.930 . S
C1510 C1508 1.378 . S
C1510 C1511 1.367 . S
C1511 C1510 1.367 . S
C1511 C1513 1.433 . S
C1512 C1508 1.350 . S
C1512 C1509 1.463 . S
C1512 N1516 1.427 . S
C1513 H1503 0.929 . S
C1513 C1511 1.433 . S
C1513 N1516 1.384 . S
C1514 H1505 0.929 . S
C1514 C1506 1.378 . S
C1514 C1509 1.350 . S
C1515 H1502 0.929 . S
C1515 C1507 1.433 . S
C1515 N1517 1.384 . S
N1516 C1512 1.427 . S
N1516 C1513 1.384 . S
N1517 C1509 1.427 . S
N1517 C1515 1.384 . S
H1518 C1524 0.930 . S
H1519 C1528 0.930 1_554 S
H1520 C1533 0.929 . S
H1521 C1531 0.929 . S
H1522 C1526 0.929 . S
H1523 C1532 0.929 . S
C1524 H1518 0.930 . S
C1524 C1525 1.367 . S
C1524 C1532 1.378 . S
C1525 C1524 1.367 . S
C1525 C1533 1.433 . S
C1526 H1522 0.929 . S
C1526 C1528 1.378 . S
C1526 C1530 1.350 . S
C1527 C1530 1.463 . S
C1527 C1532 1.350 . S
C1527 N1535 1.427 . S
C1528 H1519 0.930 1_556 S
C1528 C1526 1.378 . S
C1528 C1529 1.367 . S
C1529 C1528 1.367 . S
C1529 C1531 1.433 . S
C1530 C1526 1.350 . S
C1530 C1527 1.463 . S
C1530 N1534 1.427 . S
C1531 H1521 0.929 . S
C1531 C1529 1.433 . S
C1531 N1534 1.384 . S
C1532 H1523 0.929 . S
C1532 C1524 1.378 . S
C1532 C1527 1.350 . S
C1533 H1520 0.929 . S
C1533 C1525 1.433 . S
C1533 N1535 1.384 . S
N1534 C1530 1.427 . S
N1534 C1531 1.384 . S
N1535 C1527 1.427 . S
N1535 C1533 1.384 . S
H1536 C1542 0.930 . S
H1537 C1546 0.930 . S
H1538 C1551 0.929 . S
H1539 C1549 0.929 . S
H1540 C1544 0.929 . S
H1541 C1550 0.929 . S
C1542 H1536 0.930 . S
C1542 C1543 1.367 . S
C1542 C1550 1.378 . S
C1543 C1542 1.367 . S
C1543 C1551 1.433 . S
C1544 H1540 0.929 . S
C1544 C1546 1.378 . S
C1544 C1548 1.350 . S
C1545 C1548 1.463 . S
C1545 C1550 1.350 . S
C1545 N1553 1.427 . S
C1546 H1537 0.930 . S
C1546 C1544 1.378 . S
C1546 C1547 1.367 . S
C1547 C1546 1.367 . S
C1547 C1549 1.433 . S
C1548 C1544 1.350 . S
C1548 C1545 1.463 . S
C1548 N1552 1.427 . S
C1549 H1539 0.929 . S
C1549 C1547 1.433 . S
C1549 N1552 1.384 . S
C1550 H1541 0.929 . S
C1550 C1542 1.378 . S
C1550 C1545 1.350 . S
C1551 H1538 0.929 . S
C1551 C1543 1.433 . S
C1551 N1553 1.384 . S
N1552 C1548 1.427 . S
N1552 C1549 1.384 . S
N1553 C1545 1.427 . S
N1553 C1551 1.384 . S
H1554 C1560 0.930 . S
H1555 C1564 0.930 . S
H1556 C1569 0.929 . S
H1557 C1567 0.929 . S
H1558 C1562 0.929 . S
H1559 C1568 0.929 . S
C1560 H1554 0.930 . S
C1560 C1561 1.367 . S
C1560 C1568 1.378 . S
C1561 C1560 1.367 . S
C1561 C1569 1.433 . S
C1562 H1558 0.929 . S
C1562 C1564 1.378 . S
C1562 C1566 1.350 . S
C1563 C1566 1.463 . S
C1563 C1568 1.350 . S
C1563 N1571 1.427 . S
C1564 H1555 0.930 . S
C1564 C1562 1.378 . S
C1564 C1565 1.367 . S
C1565 C1564 1.367 . S
C1565 C1567 1.433 . S
C1566 C1562 1.350 . S
C1566 C1563 1.463 . S
C1566 N1570 1.427 . S
C1567 H1557 0.929 . S
C1567 C1565 1.433 . S
C1567 N1570 1.384 . S
C1568 H1559 0.929 . S
C1568 C1560 1.378 . S
C1568 C1563 1.350 . S
C1569 H1556 0.929 . S
C1569 C1561 1.433 . S
C1569 N1571 1.384 . S
N1570 C1566 1.427 . S
N1570 C1567 1.384 . S
N1571 C1563 1.427 . S
N1571 C1569 1.384 . S
H1572 C1578 0.930 . S
H1573 C1582 0.930 . S
H1574 C1587 0.929 . S
H1575 C1585 0.929 1_545 S
H1576 C1580 0.929 . S
H1577 C1586 0.929 . S
C1578 H1572 0.930 . S
C1578 C1579 1.367 . S
C1578 C1586 1.378 . S
C1579 C1578 1.367 . S
C1579 C1587 1.433 . S
C1580 H1576 0.929 . S
C1580 C1582 1.378 . S
C1580 C1584 1.350 . S
C1581 C1584 1.463 . S
C1581 C1586 1.350 . S
C1581 N1589 1.427 . S
C1582 H1573 0.930 . S
C1582 C1580 1.378 . S
C1582 C1583 1.367 . S
C1583 C1582 1.367 . S
C1583 C1585 1.433 . S
C1584 C1580 1.350 . S
C1584 C1581 1.463 . S
C1584 N1588 1.427 . S
C1585 H1575 0.929 1_565 S
C1585 C1583 1.433 . S
C1585 N1588 1.384 . S
C1586 H1577 0.929 . S
C1586 C1578 1.378 . S
C1586 C1581 1.350 . S
C1587 H1574 0.929 . S
C1587 C1579 1.433 . S
C1587 N1589 1.384 . S
N1588 C1584 1.427 . S
N1588 C1585 1.384 . S
N1589 C1581 1.427 . S
N1589 C1587 1.384 . S
H1590 C1596 0.930 . S
H1591 C1600 0.930 . S
H1592 C1605 0.929 . S
H1593 C1603 0.929 . S
H1594 C1598 0.929 . S
H1595 C1604 0.929 . S
C1596 H1590 0.930 . S
C1596 C1597 1.367 . S
C1596 C1604 1.378 . S
C1597 C1596 1.367 . S
C1597 C1605 1.433 . S
C1598 H1594 0.929 . S
C1598 C1600 1.378 . S
C1598 C1602 1.350 . S
C1599 C1602 1.463 . S
C1599 C1604 1.350 . S
C1599 N1607 1.427 . S
C1600 H1591 0.930 . S
C1600 C1598 1.378 . S
C1600 C1601 1.367 . S
C1601 C1600 1.367 . S
C1601 C1603 1.433 . S
C1602 C1598 1.350 . S
C1602 C1599 1.463 . S
C1602 N1606 1.427 . S
C1603 H1593 0.929 . S
C1603 C1601 1.433 . S
C1603 N1606 1.384 . S
C1604 H1595 0.929 . S
C1604 C1596 1.378 . S
C1604 C1599 1.350 . S
C1605 H1592 0.929 . S
C1605 C1597 1.433 . S
C1605 N1607 1.384 . S
N1606 C1602 1.427 . S
N1606 C1603 1.384 . S
N1607 C1599 1.427 . S
N1607 C1605 1.384 . S
C967 C301 1.186 . S
C971 C21 1.152 . S
C985 C181 1.664 . S
C989 C61 1.798 . S
C1003 C101 2.292 . S
C1007 C221 1.947 . S
C1021 C261 1.879 . S
C1025 C141 1.953 . S
C1039 C661 1.135 . S
C1043 C341 1.003 . S
C1057 C381 2.020 . S
C1061 C701 2.030 . S
C1075 C421 1.772 . S
C1079 C941 1.791 . S
C1093 C461 1.122 . S
C1097 C501 0.981 . S
C1111 C821 1.847 . S
C1115 C541 1.828 . S
C1129 C581 1.991 . S
C1133 C861 1.997 . S
C1147 C901 1.895 . S
C1151 C621 2.156 . S
C1165 C781 2.108 . S
C1169 C741 1.832 . S
C1183 C575 2.382 . S
C1187 C15 2.221 . S
C1201 C602 2.617 . S
C1205 C55 2.707 . S
C1219 C82 1.405 . S
C1223 C735 1.402 . S
C1237 C522 1.739 . S
C1241 C122 1.778 . S
C1255 C175 1.773 . S
C1259 C562 1.829 . S
C1273 C615 1.342 . S
C1277 C215 1.390 . S
C1291 C242 1.921 . S
C1295 C722 1.798 . S
C1309 C282 2.073 . S
C1313 C535 1.980 . S
C1327 C375 2.391 . S
C1331 C322 2.140 . S
C1345 C362 1.807 . S
C1349 C402 1.764 . S
C1363 C415 1.921 . S
C1367 C442 2.026 . S
C1381 C455 2.499 . S
C1385 C335 2.364 . S
C1399 C482 2.052 . S
C1403 C135 2.299 . S
C1417 C642 1.979 . S
C1421 C162 1.806 . S
C1435 C42 2.288 . S
C1439 C682 2.282 . S
C1453 C935 2.714 . S
C1457 C95 2.728 . S
C1471 C655 2.474 . S
C1475 C2 2.437 . S
C1489 C255 2.298 . S
C1493 C922 2.292 . S
C1507 C295 2.538 . S
C1511 C495 2.404 . S
C1525 C695 2.063 . S
C1529 C202 1.888 . S
C1543 C762 2.634 . S
C1547 C815 2.723 . S
C1561 C842 2.305 . S
C1565 C802 2.309 . S
C1579 C855 2.012 . S
C1583 C882 1.831 . S
C1597 C775 1.335 . S
C1601 C895 1.368 . S
