# Generated by pormake.
# Topology rac, (4)-cn, num edge types: 1
# Building blocks:
#     Node 0, Type 0, BuildingBlock: UXUYUI_clean_sbu_0, # of connection points: 4
#     Node 1, Type 0, BuildingBlock: UXUYUI_clean_sbu_0, # of connection points: 4
#     Node 2, Type 0, BuildingBlock: UXUYUI_clean_sbu_0, # of connection points: 4
#     Node 3, Type 0, BuildingBlock: UXUYUI_clean_sbu_0, # of connection points: 4
#     Node 4, Type 0, BuildingBlock: UXUYUI_clean_sbu_0, # of connection points: 4
#     Node 5, Type 0, BuildingBlock: UXUYUI_clean_sbu_0, # of connection points: 4
#     Node 6, Type 0, BuildingBlock: UXUYUI_clean_sbu_0, # of connection points: 4
#     Node 7, Type 0, BuildingBlock: UXUYUI_clean_sbu_0, # of connection points: 4
#     Edge 8, Type (0, 0), BuildingBlock: KIFKEQ_clean_linker_1, # of connection points: 2
#     Edge 9, Type (0, 0), BuildingBlock: KIFKEQ_clean_linker_1, # of connection points: 2
#     Edge 10, Type (0, 0), BuildingBlock: KIFKEQ_clean_linker_1, # of connection points: 2
#     Edge 11, Type (0, 0), BuildingBlock: KIFKEQ_clean_linker_1, # of connection points: 2
#     Edge 12, Type (0, 0), BuildingBlock: KIFKEQ_clean_linker_1, # of connection points: 2
#     Edge 13, Type (0, 0), BuildingBlock: KIFKEQ_clean_linker_1, # of connection points: 2
#     Edge 14, Type (0, 0), BuildingBlock: KIFKEQ_clean_linker_1, # of connection points: 2
#     Edge 15, Type (0, 0), BuildingBlock: KIFKEQ_clean_linker_1, # of connection points: 2
#     Edge 16, Type (0, 0), BuildingBlock: KIFKEQ_clean_linker_1, # of connection points: 2
#     Edge 17, Type (0, 0), BuildingBlock: KIFKEQ_clean_linker_1, # of connection points: 2
#     Edge 18, Type (0, 0), BuildingBlock: KIFKEQ_clean_linker_1, # of connection points: 2
#     Edge 19, Type (0, 0), BuildingBlock: KIFKEQ_clean_linker_1, # of connection points: 2
#     Edge 20, Type (0, 0), BuildingBlock: KIFKEQ_clean_linker_1, # of connection points: 2
#     Edge 21, Type (0, 0), BuildingBlock: KIFKEQ_clean_linker_1, # of connection points: 2
#     Edge 22, Type (0, 0), BuildingBlock: KIFKEQ_clean_linker_1, # of connection points: 2
#     Edge 23, Type (0, 0), BuildingBlock: KIFKEQ_clean_linker_1, # of connection points: 2
# Relax obj value: 0.361
# Max RMSD: 0.174
# Mean RMSD: 0.174
data_MOF--net-rac--node1-UXUYUI_clean_sbu_0--edge1-KIFKEQ_clean_linker_1
_symmetry_space_group_name_H-M    P1
_symmetry_Int_Tables_number       1
_symmetry_cell_setting            triclinic
loop_
_symmetry_equiv_pos_as_xyz
'x, y, z'
_cell_length_a     57.984531
_cell_length_b     29.842709
_cell_length_c     62.422961
_cell_angle_alpha  90.011162
_cell_angle_beta   90.006031
_cell_angle_gamma 90.014528
loop_
_atom_site_label
_atom_site_type_symbol
_atom_site_fract_x
_atom_site_fract_y
_atom_site_fract_z
_atom_type_partial_charge
Li0 Li 0.40718 0.26286 0.06157 0.0
Li1 Li 0.39644 0.24123 0.09937 0.0
Li2 Li 0.37933 0.19918 0.06744 0.0
Li3 Li 0.36893 0.27566 0.07486 0.0
C4 C 0.42959 0.18269 0.06512 0.0
N5 N 0.46363 0.1432 0.04065 0.0
C6 C 0.45204 0.17929 0.07307 0.0
C7 C 0.42442 0.1662 0.04473 0.0
C8 C 0.46902 0.15916 0.06045 0.0
C9 C 0.44188 0.14628 0.03261 0.0
C10 C 0.39142 0.3427 0.09182 0.0
C11 C 0.37053 0.39201 0.11548 0.0
N12 N 0.37587 0.42723 0.10257 0.0
C13 C 0.39683 0.37939 0.07886 0.0
C14 C 0.37827 0.34901 0.11034 0.0
C15 C 0.38877 0.42187 0.08455 0.0
C16 C 0.42149 0.3197 0.02884 0.0
N17 N 0.42987 0.29391 0.045 0.0
C18 C 0.46623 0.33179 0.04322 0.0
C19 C 0.45191 0.29879 0.05209 0.0
C20 C 0.45767 0.36046 0.02714 0.0
C21 C 0.43513 0.35308 0.01959 0.0
H22 H 0.40359 0.31676 0.02423 0.0
H23 H 0.45792 0.27902 0.06549 0.0
C24 C 0.39987 0.20389 0.14116 0.0
N25 N 0.406 0.23888 0.12844 0.0
C26 C 0.40393 0.20572 0.16324 0.0
C27 C 0.42108 0.27891 0.15848 0.0
C28 C 0.41689 0.27549 0.13654 0.0
C29 C 0.41419 0.2441 0.17218 0.0
H30 H 0.39096 0.17545 0.13429 0.0
H31 H 0.4216 0.30281 0.12603 0.0
C32 C 0.36337 0.2464 0.03 0.0
N33 N 0.3342 0.23787 0.99523 0.0
C34 C 0.33951 0.24413 0.03305 0.0
C35 C 0.37239 0.24432 0.00926 0.0
C36 C 0.32506 0.23982 0.01527 0.0
C37 C 0.35736 0.24001 0.99189 0.0
C38 C 0.3436 0.22019 0.10345 0.0
C39 C 0.32448 0.20335 0.09242 0.0
C40 C 0.34129 0.23313 0.12487 0.0
C41 C 0.30331 0.20005 0.10296 0.0
C42 C 0.31981 0.22935 0.13484 0.0
N43 N 0.30142 0.21304 0.12377 0.0
C44 C 0.35767 0.11783 0.07685 0.0
C45 C 0.35528 0.13655 0.04006 0.0
C46 C 0.33978 0.08666 0.07462 0.0
N47 N 0.36429 0.14352 0.05992 0.0
C48 C 0.33707 0.10633 0.0372 0.0
C49 C 0.32849 0.08228 0.05483 0.0
H50 H 0.36476 0.12448 0.09256 0.0
H51 H 0.36097 0.15659 0.0267 0.0
C52 C 0.34776 0.3457 0.05441 0.0
N53 N 0.34523 0.3186 0.07177 0.0
C54 C 0.33165 0.37906 0.0502 0.0
C55 C 0.31067 0.35615 0.08189 0.0
C56 C 0.32728 0.32342 0.08558 0.0
C57 C 0.31291 0.3841 0.06403 0.0
H58 H 0.36246 0.3415 0.04393 0.0
H59 H 0.32593 0.3026 0.09958 0.0
O60 O 0.41288 0.20319 0.07701 0.0
O61 O 0.3985 0.30062 0.08617 0.0
O62 O 0.37793 0.25046 0.04713 0.0
O63 O 0.36458 0.22321 0.09354 0.0
H64 H 0.45629 0.19227 0.08878 0.0
H65 H 0.40716 0.16907 0.03827 0.0
H66 H 0.48649 0.1563 0.06637 0.0
H67 H 0.43816 0.13339 0.01678 0.0
H68 H 0.36017 0.39733 0.12966 0.0
H69 H 0.40697 0.37508 0.06447 0.0
H70 H 0.37378 0.32087 0.12045 0.0
H71 H 0.39272 0.45055 0.07461 0.0
H72 H 0.48353 0.33587 0.04945 0.0
H73 H 0.4275 0.37475 0.00762 0.0
H74 H 0.39819 0.17833 0.17329 0.0
H75 H 0.42928 0.30881 0.16472 0.0
H76 H 0.33221 0.24571 0.04894 0.0
H77 H 0.39083 0.2456 0.00663 0.0
H78 H 0.30657 0.23801 0.01741 0.0
H79 H 0.3641 0.23826 0.97576 0.0
H80 H 0.32593 0.19276 0.07592 0.0
H81 H 0.35586 0.24633 0.13366 0.0
H82 H 0.28838 0.18709 0.0946 0.0
H83 H 0.31775 0.23942 0.15138 0.0
H84 H 0.33365 0.0689 0.08864 0.0
H85 H 0.32908 0.10333 0.02158 0.0
H86 H 0.33381 0.40077 0.03643 0.0
H87 H 0.29642 0.36006 0.09296 0.0
Li88 Li 0.09558 0.73862 0.06125 0.0
Li89 Li 0.10623 0.76154 0.09869 0.0
Li90 Li 0.12383 0.80102 0.06633 0.0
Li91 Li 0.13378 0.72422 0.07474 0.0
C92 C 0.06986 0.81149 0.06756 0.0
N93 N 0.02775 0.83388 0.04995 0.0
C94 C 0.04961 0.80471 0.07924 0.0
C95 C 0.06878 0.83006 0.04705 0.0
C96 C 0.02846 0.81616 0.07002 0.0
C97 C 0.0473 0.84103 0.03839 0.0
C98 C 0.11005 0.6593 0.09217 0.0
C99 C 0.13019 0.60955 0.11616 0.0
N100 N 0.12425 0.57424 0.10352 0.0
C101 C 0.10405 0.62255 0.07946 0.0
C102 C 0.12314 0.65283 0.11071 0.0
C103 C 0.11143 0.57979 0.08546 0.0
C104 C 0.0813 0.68267 0.0278 0.0
N105 N 0.07293 0.70615 0.04478 0.0
C106 C 0.03791 0.66337 0.04382 0.0
C107 C 0.05153 0.69747 0.05275 0.0
C108 C 0.04662 0.63734 0.02685 0.0
C109 C 0.06835 0.64842 0.01845 0.0
H110 H 0.09878 0.68801 0.02246 0.0
H111 H 0.04568 0.7146 0.06699 0.0
C112 C 0.10426 0.80149 0.13975 0.0
N113 N 0.0972 0.76598 0.12782 0.0
C114 C 0.10074 0.80174 0.1619 0.0
C115 C 0.08233 0.72934 0.15892 0.0
C116 C 0.08599 0.73072 0.13682 0.0
C117 C 0.09011 0.7648 0.17189 0.0
H118 H 0.11329 0.82894 0.13214 0.0
H119 H 0.08074 0.70274 0.12695 0.0
C120 C 0.13287 0.75431 0.02657 0.0
N121 N 0.1483 0.76677 0.98513 0.0
C122 C 0.1558 0.74493 0.02127 0.0
C123 C 0.11776 0.7698 0.01077 0.0
C124 C 0.16327 0.75156 1.00024 0.0
C125 C 0.1259 0.7759 0.98991 0.0
C126 C 0.1612 0.78867 0.09654 0.0
C127 C 0.1768 0.79131 0.07951 0.0
C128 C 0.16857 0.79871 0.11729 0.0
C129 C 0.19952 0.80442 0.08352 0.0
C130 C 0.19147 0.8115 0.12067 0.0
N131 N 0.20633 0.81414 0.10385 0.0
C132 C 0.14514 0.8837 0.075 0.0
C133 C 0.1503 0.86048 0.03907 0.0
C134 C 0.16336 0.91431 0.07313 0.0
N135 N 0.13967 0.85603 0.0584 0.0
C136 C 0.16877 0.89016 0.03659 0.0
C137 C 0.17613 0.91616 0.05404 0.0
H138 H 0.13683 0.87908 0.09036 0.0
H139 H 0.14577 0.83892 0.02594 0.0
C140 C 0.15464 0.6519 0.05601 0.0
N141 N 0.15717 0.68124 0.0725 0.0
C142 C 0.17125 0.6192 0.05235 0.0
C143 C 0.19278 0.64781 0.08267 0.0
C144 C 0.17549 0.67937 0.08603 0.0
C145 C 0.19066 0.61754 0.06562 0.0
H146 H 0.13972 0.6542 0.04567 0.0
H147 H 0.17672 0.70226 0.09937 0.0
O148 O 0.09068 0.79999 0.07616 0.0
O149 O 0.10364 0.70158 0.08622 0.0
O150 O 0.12523 0.74815 0.04709 0.0
O151 O 0.13876 0.77664 0.09297 0.0
H152 H 0.05025 0.79041 0.09517 0.0
H153 H 0.08438 0.83593 0.03795 0.0
H154 H 0.01261 0.81089 0.07881 0.0
H155 H 0.04616 0.85527 0.02249 0.0
H156 H 0.14047 0.60405 0.13038 0.0
H157 H 0.09398 0.627 0.06503 0.0
H158 H 0.12812 0.68104 0.12059 0.0
H159 H 0.10701 0.55105 0.07573 0.0
H160 H 0.02143 0.65555 0.05106 0.0
H161 H 0.07575 0.62947 0.00535 0.0
H162 H 0.10667 0.83023 0.17113 0.0
H163 H 0.07436 0.69986 0.1658 0.0
H164 H 0.16774 0.73284 0.03326 0.0
H165 H 0.09993 0.77693 0.01456 0.0
H166 H 0.18098 0.7446 0.99594 0.0
H167 H 0.11441 0.78789 0.97752 0.0
H168 H 0.17139 0.7835 0.06338 0.0
H169 H 0.15672 0.79667 0.13065 0.0
H170 H 0.21173 0.80689 0.07047 0.0
H171 H 0.19742 0.81939 0.13665 0.0
H172 H 0.16853 0.93367 0.087 0.0
H173 H 0.17793 0.89117 0.02148 0.0
H174 H 0.16919 0.59603 0.03912 0.0
H175 H 0.2075 0.64666 0.09336 0.0
Li176 Li 0.37197 0.22176 0.42681 0.0
Li177 Li 0.37931 0.29597 0.43815 0.0
Li178 Li 0.39939 0.26452 0.40609 0.0
Li179 Li 0.40826 0.2353 0.44303 0.0
C180 C 0.34397 0.29061 0.40864 0.0
N181 N 0.29936 0.32283 0.40624 0.0
C182 C 0.32801 0.2802 0.42468 0.0
C183 C 0.33721 0.31728 0.39135 0.0
C184 C 0.30555 0.29682 0.42318 0.0
C185 C 0.31458 0.33327 0.39044 0.0
C186 C 0.38014 0.25307 0.47742 0.0
C187 C 0.39909 0.29675 0.50476 0.0
N188 N 0.38587 0.27649 0.51992 0.0
C189 C 0.36676 0.23263 0.49328 0.0
C190 C 0.39648 0.28536 0.48319 0.0
C191 C 0.3699 0.24494 0.51467 0.0
C192 C 0.3488 0.14706 0.44124 0.0
N193 N 0.34918 0.17749 0.42511 0.0
C194 C 0.31621 0.14445 0.40879 0.0
C195 C 0.33367 0.17643 0.40882 0.0
C196 C 0.31509 0.11286 0.42547 0.0
C197 C 0.33192 0.11398 0.44165 0.0
H198 H 0.36163 0.14867 0.45379 0.0
H199 H 0.33467 0.2008 0.39605 0.0
C200 C 0.36133 0.38459 0.43502 0.0
N201 N 0.36199 0.34773 0.44783 0.0
C202 C 0.34351 0.41606 0.43717 0.0
C203 C 0.32808 0.37236 0.46634 0.0
C204 C 0.34614 0.34192 0.46368 0.0
C205 C 0.32605 0.40936 0.45254 0.0
H206 H 0.37359 0.38782 0.42205 0.0
H207 H 0.34605 0.31155 0.473 0.0
C208 C 0.39732 0.16168 0.40792 0.0
N209 N 0.38516 0.07901 0.3915 0.0
C210 C 0.40266 0.12259 0.41919 0.0
C211 C 0.38593 0.15874 0.38823 0.0
C212 C 0.39633 0.08111 0.41064 0.0
C213 C 0.37989 0.11663 0.38022 0.0
C214 C 0.43594 0.31035 0.42994 0.0
C215 C 0.4509 0.28653 0.41661 0.0
C216 C 0.44428 0.3465 0.44187 0.0
C217 C 0.47406 0.29924 0.41547 0.0
C218 C 0.46756 0.35815 0.44032 0.0
N219 N 0.48184 0.33448 0.42725 0.0
C220 C 0.40197 0.30778 0.36545 0.0
C221 C 0.42259 0.2395 0.36854 0.0
C222 C 0.40574 0.30847 0.3433 0.0
N223 N 0.40994 0.27305 0.37744 0.0
C224 C 0.42663 0.23871 0.34653 0.0
C225 C 0.41759 0.2728 0.33353 0.0
H226 H 0.39173 0.33373 0.37291 0.0
H227 H 0.42857 0.21206 0.37838 0.0
C228 C 0.41961 0.17014 0.47278 0.0
N229 N 0.42992 0.20174 0.46031 0.0
C230 C 0.43254 0.13617 0.48236 0.0
C231 C 0.46686 0.16824 0.46679 0.0
C232 C 0.4532 0.20185 0.45752 0.0
C233 C 0.45646 0.13406 0.47899 0.0
H234 H 0.40104 0.16922 0.47405 0.0
H235 H 0.46115 0.22643 0.44725 0.0
O236 O 0.36631 0.27603 0.41011 0.0
O237 O 0.37719 0.24096 0.45645 0.0
O238 O 0.40286 0.2027 0.41626 0.0
O239 O 0.41312 0.29908 0.4311 0.0
H240 H 0.33299 0.26002 0.43831 0.0
H241 H 0.34935 0.3258 0.37883 0.0
H242 H 0.29308 0.28925 0.43555 0.0
H243 H 0.30914 0.35409 0.37718 0.0
H244 H 0.41165 0.32171 0.50944 0.0
H245 H 0.35408 0.2075 0.48906 0.0
H246 H 0.40702 0.30155 0.47124 0.0
H247 H 0.35965 0.22941 0.52709 0.0
H248 H 0.30348 0.14518 0.39611 0.0
H249 H 0.33207 0.08967 0.45452 0.0
H250 H 0.34293 0.44429 0.42631 0.0
H251 H 0.31491 0.3649 0.47811 0.0
H252 H 0.41153 0.12419 0.43439 0.0
H253 H 0.38139 0.1887 0.37943 0.0
H254 H 0.40028 0.05058 0.41923 0.0
H255 H 0.37091 0.11387 0.36508 0.0
H256 H 0.44484 0.25797 0.40762 0.0
H257 H 0.43286 0.36539 0.45221 0.0
H258 H 0.48587 0.28093 0.4053 0.0
H259 H 0.47426 0.38603 0.44949 0.0
H260 H 0.39836 0.33524 0.33381 0.0
H261 H 0.43608 0.2109 0.33966 0.0
H262 H 0.42361 0.11023 0.49121 0.0
H263 H 0.48527 0.16825 0.46389 0.0
Li264 Li 0.1228 0.70259 0.43788 0.0
Li265 Li 0.12905 0.78088 0.42803 0.0
Li266 Li 0.09253 0.76125 0.44393 0.0
Li267 Li 0.10177 0.73814 0.40621 0.0
C268 C 0.12243 0.74167 0.47774 0.0
N269 N 0.11947 0.71229 0.5196 0.0
C270 C 0.1379 0.75762 0.49312 0.0
C271 C 0.10546 0.71081 0.48363 0.0
C272 C 0.13613 0.74234 0.51421 0.0
C273 C 0.10424 0.69636 0.50488 0.0
C274 C 0.15155 0.72235 0.39561 0.0
C275 C 0.16779 0.74146 0.36121 0.0
N276 N 0.18554 0.7127 0.36487 0.0
C277 C 0.16989 0.69273 0.39894 0.0
C278 C 0.15045 0.74674 0.37653 0.0
C279 C 0.18693 0.68843 0.38325 0.0
C280 C 0.13932 0.61042 0.43988 0.0
N281 N 0.14181 0.65333 0.44686 0.0
C282 C 0.17941 0.63681 0.46059 0.0
C283 C 0.16121 0.66657 0.45735 0.0
C284 C 0.17791 0.59262 0.45291 0.0
C285 C 0.15721 0.57927 0.44287 0.0
H286 H 0.12404 0.60098 0.43101 0.0
H287 H 0.1633 0.7013 0.46183 0.0
C288 C 0.14722 0.86718 0.43429 0.0
N289 N 0.1523 0.82475 0.42791 0.0
C290 C 0.16432 0.8999 0.43455 0.0
C291 C 0.19192 0.84376 0.42336 0.0
C292 C 0.1742 0.81235 0.42294 0.0
C293 C 0.1869 0.88812 0.42899 0.0
H294 H 0.13 0.87553 0.43945 0.0
H295 H 0.17804 0.77798 0.41902 0.0
C296 C 0.06631 0.68585 0.43017 0.0
N297 N 0.02078 0.65853 0.42989 0.0
C298 C 0.05058 0.70574 0.41614 0.0
C299 C 0.05895 0.6518 0.44393 0.0
C300 C 0.02762 0.69154 0.41627 0.0
C301 C 0.03584 0.63855 0.44359 0.0
C302 C 0.09736 0.8422 0.41187 0.0
C303 C 0.08509 0.8742 0.42363 0.0
C304 C 0.10922 0.8554 0.39343 0.0
C305 C 0.08515 0.91884 0.4169 0.0
C306 C 0.10889 0.90036 0.38722 0.0
N307 N 0.09697 0.9309 0.39899 0.0
C308 C 0.07839 0.81663 0.47782 0.0
C309 C 0.04737 0.7948 0.45551 0.0
C310 C 0.06474 0.84921 0.48766 0.0
N311 N 0.06975 0.79058 0.4618 0.0
C312 C 0.03311 0.82737 0.46484 0.0
C313 C 0.04197 0.85601 0.48074 0.0
H314 H 0.09646 0.81499 0.48183 0.0
H315 H 0.04099 0.77547 0.44218 0.0
C316 C 0.09989 0.69723 0.365 0.0
N317 N 0.09192 0.73162 0.37723 0.0
C318 C 0.09675 0.69785 0.34278 0.0
C319 C 0.07637 0.7681 0.34639 0.0
C320 C 0.07978 0.766 0.36848 0.0
C321 C 0.08546 0.73439 0.33318 0.0
H322 H 0.10982 0.67068 0.37236 0.0
H323 H 0.07359 0.79287 0.37855 0.0
O324 O 0.12406 0.75633 0.45702 0.0
O325 O 0.13469 0.72689 0.41085 0.0
O326 O 0.08893 0.69877 0.43012 0.0
O327 O 0.09765 0.7983 0.41835 0.0
H328 H 0.15115 0.78153 0.48877 0.0
H329 H 0.0933 0.69828 0.47199 0.0
H330 H 0.14799 0.75438 0.52628 0.0
H331 H 0.09117 0.67252 0.50967 0.0
H332 H 0.16709 0.76013 0.34637 0.0
H333 H 0.17108 0.6733 0.41348 0.0
H334 H 0.13626 0.76908 0.3734 0.0
H335 H 0.20124 0.66575 0.3857 0.0
H336 H 0.19507 0.64936 0.46789 0.0
H337 H 0.15509 0.54553 0.4368 0.0
H338 H 0.16008 0.93375 0.43944 0.0
H339 H 0.20929 0.83364 0.4192 0.0
H340 H 0.05592 0.73239 0.40554 0.0
H341 H 0.07098 0.6357 0.45473 0.0
H342 H 0.01522 0.70688 0.4056 0.0
H343 H 0.02989 0.6123 0.45419 0.0
H344 H 0.0757 0.86494 0.43787 0.0
H345 H 0.11871 0.83135 0.38407 0.0
H346 H 0.07581 0.94389 0.42593 0.0
H347 H 0.11812 0.91096 0.37304 0.0
H348 H 0.07254 0.87103 0.49948 0.0
H349 H 0.01563 0.83131 0.45902 0.0
H350 H 0.10418 0.67137 0.33313 0.0
H351 H 0.06729 0.79651 0.33965 0.0
Li352 Li 0.5924 0.73871 0.94369 0.0
Li353 Li 0.62857 0.7204 0.92791 0.0
Li354 Li 0.62295 0.79701 0.93751 0.0
Li355 Li 0.60279 0.76376 0.90543 0.0
C356 C 0.62048 0.76027 0.97771 0.0
N357 N 0.61473 0.79353 0.01875 0.0
C358 C 0.63178 0.74018 0.99503 0.0
C359 C 0.60642 0.79759 0.98133 0.0
C360 C 0.62861 0.7574 0.01563 0.0
C361 C 0.60368 0.8138 0.00216 0.0
C362 C 0.6007 0.65911 0.91272 0.0
C363 C 0.60773 0.59982 0.88732 0.0
N364 N 0.60766 0.56957 0.90362 0.0
C365 C 0.60059 0.62745 0.92922 0.0
C366 C 0.6042 0.64526 0.89158 0.0
C367 C 0.60418 0.58233 0.92429 0.0
C368 C 0.55177 0.68936 0.9471 0.0
N369 N 0.56822 0.70893 0.95953 0.0
C370 C 0.55626 0.66497 0.98967 0.0
C371 C 0.57024 0.69821 0.98064 0.0
C372 C 0.54022 0.6419 0.97684 0.0
C373 C 0.53756 0.65569 0.95543 0.0
H374 H 0.55088 0.69743 0.93022 0.0
H375 H 0.58358 0.71317 0.99029 0.0
C376 C 0.65934 0.65534 0.9096 0.0
N377 N 0.65078 0.67386 0.92783 0.0
C378 C 0.67592 0.62166 0.91077 0.0
C379 C 0.67369 0.6252 0.94942 0.0
C380 C 0.65729 0.65895 0.94747 0.0
C381 C 0.68344 0.60665 0.9309 0.0
H382 H 0.65318 0.66614 0.89417 0.0
H383 H 0.64975 0.67332 0.96164 0.0
C384 C 0.58033 0.8421 0.92698 0.0
N385 N 0.56326 0.92766 0.92121 0.0
C386 C 0.58797 0.86821 0.90983 0.0
C387 C 0.56391 0.85935 0.94114 0.0
C388 C 0.57916 0.91143 0.90719 0.0
C389 C 0.55553 0.90274 0.93798 0.0
C390 C 0.6542 0.77051 0.89726 0.0
C391 C 0.67484 0.79217 0.90241 0.0
C392 C 0.65234 0.7475 0.87783 0.0
C393 C 0.69332 0.79022 0.88808 0.0
C394 C 0.67122 0.74621 0.86396 0.0
N395 N 0.69115 0.76746 0.86931 0.0
C396 C 0.66091 0.83264 0.95796 0.0
C397 C 0.63974 0.88967 0.94046 0.0
C398 C 0.67924 0.86195 0.96167 0.0
N399 N 0.64184 0.84644 0.9471 0.0
C400 C 0.65771 0.92031 0.94392 0.0
C401 C 0.67816 0.90624 0.95411 0.0
H402 H 0.66266 0.79779 0.96239 0.0
H403 H 0.62474 0.90001 0.93154 0.0
C404 C 0.57425 0.74692 0.86952 0.0
N405 N 0.59228 0.77186 0.87669 0.0
C406 C 0.56875 0.74619 0.84771 0.0
C407 C 0.60004 0.79791 0.84121 0.0
C408 C 0.6047 0.79809 0.86314 0.0
C409 C 0.58215 0.77095 0.83308 0.0
H410 H 0.56473 0.72615 0.88064 0.0
H411 H 0.6191 0.81733 0.86918 0.0
O412 O 0.62375 0.74405 0.95737 0.0
O413 O 0.59773 0.70352 0.91728 0.0
O414 O 0.5885 0.79952 0.92975 0.0
O415 O 0.63553 0.77406 0.91059 0.0
H416 H 0.64294 0.71161 0.9927 0.0
H417 H 0.5978 0.81416 0.96828 0.0
H418 H 0.63723 0.74208 0.02914 0.0
H419 H 0.59282 0.84259 0.00513 0.0
H420 H 0.61061 0.58862 0.87105 0.0
H421 H 0.59809 0.63769 0.94569 0.0
H422 H 0.60447 0.66939 0.87865 0.0
H423 H 0.60427 0.55748 0.9369 0.0
H424 H 0.55868 0.65622 0.00635 0.0
H425 H 0.5257 0.63872 0.94477 0.0
H426 H 0.68271 0.60739 0.89612 0.0
H427 H 0.67907 0.61453 0.96523 0.0
H428 H 0.60089 0.8556 0.89894 0.0
H429 H 0.55771 0.83939 0.95443 0.0
H430 H 0.58504 0.93212 0.89406 0.0
H431 H 0.54286 0.91657 0.94884 0.0
H432 H 0.67654 0.81076 0.91717 0.0
H433 H 0.63653 0.73043 0.87358 0.0
H434 H 0.70936 0.80699 0.89185 0.0
H435 H 0.67001 0.72836 0.84891 0.0
H436 H 0.69469 0.84902 0.9692 0.0
H437 H 0.65589 0.95425 0.93804 0.0
H438 H 0.55451 0.72558 0.84236 0.0
H439 H 0.61116 0.81703 0.83071 0.0
Li440 Li 0.90905 0.26231 0.94306 0.0
Li441 Li 0.87139 0.27971 0.92966 0.0
Li442 Li 0.8789 0.20376 0.93801 0.0
Li443 Li 0.89692 0.23951 0.90544 0.0
C444 C 0.88162 0.245 0.979 0.0
N445 N 0.88711 0.22329 0.02168 0.0
C446 C 0.87272 0.27309 0.99488 0.0
C447 C 0.89316 0.20575 0.98477 0.0
C448 C 0.87574 0.26158 0.01639 0.0
C449 C 0.89578 0.19536 0.00646 0.0
C450 C 0.9037 0.345 0.91922 0.0
C451 C 0.91318 0.41601 0.90308 0.0
N452 N 0.90956 0.4366 0.92223 0.0
C453 C 0.89996 0.36684 0.93873 0.0
C454 C 0.91031 0.36969 0.90124 0.0
C455 C 0.90308 0.41318 0.93993 0.0
C456 C 0.94993 0.31218 0.94503 0.0
N457 N 0.9343 0.29156 0.95798 0.0
C458 C 0.94811 0.3334 0.98815 0.0
C459 C 0.93377 0.30044 0.97937 0.0
C460 C 0.96306 0.35794 0.97483 0.0
C461 C 0.96441 0.3457 0.9531 0.0
H462 H 0.94984 0.30521 0.92802 0.0
H463 H 0.9214 0.28409 0.98955 0.0
C464 C 0.83188 0.31633 0.94699 0.0
N465 N 0.84772 0.32243 0.93123 0.0
C466 C 0.81376 0.34649 0.94938 0.0
C467 C 0.82876 0.38855 0.91927 0.0
C468 C 0.84642 0.3573 0.91732 0.0
C469 C 0.81223 0.38326 0.93549 0.0
H470 H 0.83333 0.28788 0.95764 0.0
H471 H 0.85897 0.36065 0.90462 0.0
C472 C 0.91996 0.15921 0.92684 0.0
N473 N 0.93458 0.07136 0.92367 0.0
C474 C 0.91568 0.13468 0.90819 0.0
C475 C 0.932 0.13932 0.94374 0.0
C476 C 0.92313 0.09024 0.90693 0.0
C477 C 0.93914 0.09478 0.94188 0.0
C478 C 0.84372 0.23951 0.90334 0.0
C479 C 0.82315 0.22508 0.91273 0.0
C480 C 0.84302 0.26849 0.88576 0.0
C481 C 0.80216 0.2401 0.90442 0.0
C482 C 0.82169 0.28273 0.87792 0.0
N483 N 0.80187 0.26839 0.88734 0.0
C484 C 0.8445 0.16081 0.96205 0.0
C485 C 0.86147 0.11318 0.93618 0.0
C486 C 0.82663 0.1302 0.96544 0.0
N487 N 0.86128 0.15233 0.94735 0.0
C488 C 0.84393 0.08145 0.93914 0.0
C489 C 0.82572 0.09038 0.95344 0.0
H490 H 0.84381 0.19299 0.96993 0.0
H491 H 0.87427 0.10768 0.92394 0.0
C492 C 0.92432 0.25579 0.86841 0.0
N493 N 0.90539 0.23425 0.8761 0.0
C494 C 0.92826 0.25803 0.84631 0.0
C495 C 0.89341 0.21512 0.84065 0.0
C496 C 0.89033 0.21316 0.86279 0.0
C497 C 0.9123 0.23855 0.83216 0.0
H498 H 0.93582 0.2728 0.87938 0.0
H499 H 0.87538 0.1964 0.86935 0.0
O500 O 0.87864 0.25583 0.95791 0.0
O501 O 0.9007 0.29968 0.91762 0.0
O502 O 0.91296 0.20284 0.92835 0.0
O503 O 0.86446 0.22618 0.9116 0.0
H504 H 0.86368 0.30355 0.99062 0.0
H505 H 0.89983 0.18343 0.97266 0.0
H506 H 0.86903 0.28308 0.02887 0.0
H507 H 0.90467 0.16507 0.01118 0.0
H508 H 0.91828 0.43559 0.88929 0.0
H509 H 0.89462 0.34822 0.95276 0.0
H510 H 0.91314 0.35323 0.886 0.0
H511 H 0.9003 0.43054 0.95493 0.0
H512 H 0.94683 0.3407 0.0051 0.0
H513 H 0.97545 0.3637 0.94208 0.0
H514 H 0.80127 0.34148 0.96206 0.0
H515 H 0.8278 0.41614 0.90803 0.0
H516 H 0.90645 0.14956 0.89495 0.0
H517 H 0.9359 0.15813 0.95812 0.0
H518 H 0.91978 0.07074 0.89265 0.0
H519 H 0.94837 0.07889 0.95487 0.0
H520 H 0.82336 0.20278 0.92637 0.0
H521 H 0.8588 0.28057 0.87852 0.0
H522 H 0.7861 0.22934 0.91159 0.0
H523 H 0.82089 0.30541 0.86442 0.0
H524 H 0.81282 0.13928 0.97628 0.0
H525 H 0.84415 0.05111 0.92964 0.0
H526 H 0.94294 0.27666 0.84033 0.0
H527 H 0.88084 0.19937 0.83024 0.0
Li528 Li 0.6052 0.73828 0.59928 0.0
Li529 Li 0.6246 0.70851 0.56779 0.0
Li530 Li 0.62932 0.78675 0.57586 0.0
Li531 Li 0.59157 0.75897 0.56131 0.0
C532 C 0.65347 0.72404 0.60887 0.0
N533 N 0.68453 0.70026 0.64047 0.0
C534 C 0.65987 0.67919 0.61152 0.0
C535 C 0.6629 0.75677 0.62229 0.0
C536 C 0.67559 0.66786 0.62758 0.0
C537 C 0.67855 0.74407 0.63818 0.0
C538 C 0.58832 0.65371 0.57562 0.0
C539 C 0.57416 0.58749 0.55785 0.0
N540 N 0.58249 0.56195 0.57416 0.0
C541 C 0.59669 0.6269 0.59224 0.0
C542 C 0.57693 0.634 0.5583 0.0
C543 C 0.5936 0.58052 0.59119 0.0
C544 C 0.57704 0.75554 0.63532 0.0
N545 N 0.59553 0.73142 0.62851 0.0
C546 C 0.60331 0.70741 0.66433 0.0
C547 C 0.60816 0.70651 0.64245 0.0
C548 C 0.58491 0.73355 0.67206 0.0
C549 C 0.57133 0.75694 0.65708 0.0
H550 H 0.56714 0.7749 0.62391 0.0
H551 H 0.62246 0.68684 0.63677 0.0
C552 C 0.66753 0.6796 0.55827 0.0
N553 N 0.64583 0.66229 0.55834 0.0
C554 C 0.68664 0.65222 0.55504 0.0
C555 C 0.66099 0.58912 0.55086 0.0
C556 C 0.64217 0.61803 0.5542 0.0
C557 C 0.68366 0.60606 0.55187 0.0
H558 H 0.67005 0.71482 0.56157 0.0
H559 H 0.62488 0.60471 0.55416 0.0
C560 C 0.59726 0.83771 0.59759 0.0
N561 N 0.59668 0.91862 0.61908 0.0
C562 C 0.58495 0.87398 0.58924 0.0
C563 C 0.60923 0.84254 0.61688 0.0
C564 C 0.58489 0.91463 0.60033 0.0
C565 C 0.60873 0.88372 0.6275 0.0
C566 C 0.63084 0.74279 0.5293 0.0
C567 C 0.65249 0.75606 0.5218 0.0
C568 C 0.61832 0.7102 0.51821 0.0
C569 C 0.66137 0.73612 0.50332 0.0
C570 C 0.62781 0.69106 0.49979 0.0
N571 N 0.64896 0.70429 0.49279 0.0
C572 C 0.67286 0.82391 0.57703 0.0
C573 C 0.6433 0.87572 0.56823 0.0
C574 C 0.6896 0.85678 0.57444 0.0
N575 N 0.65026 0.83406 0.57414 0.0
C576 C 0.65948 0.90979 0.56555 0.0
C577 C 0.68295 0.90029 0.56858 0.0
H578 H 0.67788 0.79004 0.58099 0.0
H579 H 0.62529 0.88222 0.56511 0.0
C580 C 0.54814 0.80006 0.55649 0.0
N581 N 0.56681 0.7851 0.54542 0.0
C582 C 0.53383 0.83313 0.54772 0.0
C583 C 0.55732 0.83246 0.51578 0.0
C584 C 0.57123 0.79963 0.52519 0.0
C585 C 0.5389 0.85116 0.52742 0.0
H586 H 0.54556 0.78936 0.57287 0.0
H587 H 0.58658 0.78838 0.51697 0.0
O588 O 0.63834 0.73594 0.59303 0.0
O589 O 0.5909 0.69914 0.5765 0.0
O590 O 0.59769 0.79776 0.58687 0.0
O591 O 0.62208 0.76109 0.54763 0.0
H592 H 0.65255 0.65327 0.60149 0.0
H593 H 0.6583 0.79166 0.62039 0.0
H594 H 0.68064 0.63329 0.62983 0.0
H595 H 0.68598 0.76906 0.64866 0.0
H596 H 0.56539 0.57171 0.54454 0.0
H597 H 0.60557 0.64173 0.60573 0.0
H598 H 0.57027 0.65443 0.54537 0.0
H599 H 0.60005 0.5593 0.60389 0.0
H600 H 0.6145 0.6891 0.67508 0.0
H601 H 0.55666 0.77675 0.66209 0.0
H602 H 0.70368 0.66706 0.55547 0.0
H603 H 0.65788 0.55371 0.54842 0.0
H604 H 0.57576 0.87096 0.57422 0.0
H605 H 0.61876 0.81477 0.62358 0.0
H606 H 0.57551 0.94304 0.59402 0.0
H607 H 0.61792 0.88792 0.64245 0.0
H608 H 0.66238 0.78121 0.53029 0.0
H609 H 0.60156 0.69957 0.52389 0.0
H610 H 0.67816 0.74587 0.49736 0.0
H611 H 0.61837 0.66563 0.49108 0.0
H612 H 0.70755 0.84827 0.57703 0.0
H613 H 0.65378 0.94281 0.56068 0.0
H614 H 0.52007 0.84677 0.55746 0.0
H615 H 0.5617 0.84469 0.49997 0.0
Li616 Li 0.88056 0.30033 0.5652 0.0
Li617 Li 0.89781 0.26702 0.5986 0.0
Li618 Li 0.91036 0.24117 0.56104 0.0
Li619 Li 0.87251 0.22421 0.57474 0.0
C620 C 0.91885 0.34574 0.57117 0.0
N621 N 0.92685 0.43522 0.56284 0.0
C622 C 0.92035 0.37634 0.58805 0.0
C623 C 0.92158 0.36044 0.55008 0.0
C624 C 0.92438 0.4215 0.5835 0.0
C625 C 0.92555 0.40589 0.54619 0.0
C626 C 0.8443 0.26824 0.59951 0.0
C627 C 0.82048 0.23032 0.62548 0.0
N628 N 0.80135 0.24331 0.6145 0.0
C629 C 0.82441 0.28134 0.58852 0.0
C630 C 0.84236 0.24259 0.61816 0.0
C631 C 0.80285 0.26836 0.59635 0.0
C632 C 0.84852 0.34504 0.53871 0.0
N633 N 0.86335 0.35149 0.55533 0.0
C634 C 0.84384 0.4194 0.56488 0.0
C635 C 0.8615 0.38812 0.56819 0.0
C636 C 0.82761 0.41245 0.54846 0.0
C637 C 0.83059 0.37533 0.53488 0.0
H638 H 0.84937 0.31454 0.52945 0.0
H639 H 0.87256 0.39135 0.58203 0.0
C640 C 0.92555 0.25477 0.63558 0.0
N641 N 0.90636 0.27503 0.6277 0.0
C642 C 0.93001 0.25525 0.6576 0.0
C643 C 0.89516 0.2983 0.66279 0.0
C644 C 0.89154 0.29742 0.6407 0.0
C645 C 0.91442 0.27637 0.67165 0.0
H646 H 0.93697 0.23697 0.62484 0.0
H647 H 0.87634 0.31303 0.63398 0.0
C648 C 0.88112 0.23601 0.52538 0.0
N649 N 0.88305 0.21243 0.48261 0.0
C650 C 0.87732 0.1916 0.51917 0.0
C651 C 0.88585 0.26846 0.50983 0.0
C652 C 0.87842 0.18034 0.49748 0.0
C653 C 0.88672 0.25586 0.48829 0.0
C654 C 0.90273 0.16109 0.59071 0.0
C655 C 0.90247 0.13119 0.57348 0.0
C656 C 0.90384 0.14465 0.61165 0.0
C657 C 0.90325 0.08518 0.57749 0.0
C658 C 0.90454 0.09838 0.61499 0.0
N659 N 0.90424 0.06986 0.59799 0.0
C660 C 0.94966 0.18799 0.56088 0.0
C661 C 0.93667 0.20189 0.52559 0.0
C662 C 0.96372 0.15304 0.55371 0.0
N663 N 0.9356 0.21016 0.54702 0.0
C664 C 0.9505 0.16711 0.5177 0.0
C665 C 0.96349 0.14078 0.53197 0.0
H666 H 0.94867 0.19515 0.57785 0.0
H667 H 0.92585 0.22019 0.51466 0.0
C668 C 0.83328 0.18717 0.55719 0.0
N669 N 0.8483 0.18213 0.57371 0.0
C670 C 0.81468 0.15811 0.55497 0.0
C671 C 0.827 0.12001 0.58722 0.0
C672 C 0.84534 0.14992 0.58883 0.0
C673 C 0.81152 0.12383 0.57003 0.0
H674 H 0.83573 0.21395 0.54576 0.0
H675 H 0.85693 0.14785 0.60232 0.0
O676 O 0.91462 0.30157 0.57527 0.0
O677 O 0.86558 0.27943 0.59174 0.0
O678 O 0.87995 0.24778 0.54652 0.0
O679 O 0.90213 0.20628 0.58715 0.0
H680 H 0.91825 0.36533 0.60446 0.0
H681 H 0.92054 0.33701 0.53688 0.0
H682 H 0.92549 0.44566 0.59638 0.0
H683 H 0.92759 0.41785 0.52995 0.0
H684 H 0.81873 0.21021 0.6398 0.0
H685 H 0.82559 0.30092 0.574 0.0
H686 H 0.8576 0.23154 0.62666 0.0
H687 H 0.78732 0.27807 0.58796 0.0
H688 H 0.842 0.44698 0.57603 0.0
H689 H 0.81857 0.36862 0.522 0.0
H690 H 0.9453 0.23855 0.66355 0.0
H691 H 0.8824 0.3144 0.67284 0.0
H692 H 0.87357 0.16607 0.53096 0.0
H693 H 0.88891 0.30295 0.51436 0.0
H694 H 0.87557 0.14609 0.49245 0.0
H695 H 0.89039 0.2806 0.47609 0.0
H696 H 0.90174 0.14339 0.55719 0.0
H697 H 0.90399 0.16737 0.62516 0.0
H698 H 0.90308 0.06166 0.5643 0.0
H699 H 0.90532 0.08515 0.63111 0.0
H700 H 0.9739 0.13457 0.56526 0.0
H701 H 0.94982 0.1592 0.50078 0.0
H702 H 0.8031 0.16207 0.54149 0.0
H703 H 0.82477 0.09461 0.59944 0.0
H704 H 0.31939 0.99712 0.06908 0.0
H705 H 0.28781 0.1101 0.03746 0.0
H706 H 0.28242 0.95719 0.06822 0.0
H707 H 0.25086 0.07044 0.0368 0.0
H708 H 0.18466 0.00313 0.06604 0.0
H709 H 0.22171 0.04293 0.06537 0.0
H710 H 0.25472 0.92497 0.0397 0.0
H711 H 0.21775 0.88546 0.04017 0.0
C712 C 0.30459 0.01326 0.06186 0.0
C713 C 0.30655 0.05655 0.05318 0.0
C714 C 0.28346 0.99042 0.06131 0.0
C715 C 0.26373 0.01075 0.05249 0.0
C716 C 0.26571 0.05403 0.04381 0.0
C717 C 0.28692 0.07651 0.044 0.0
C718 C 0.19983 0.98588 0.06016 0.0
C719 C 0.19827 0.94135 0.05298 0.0
C720 C 0.22099 0.00865 0.0597 0.0
C721 C 0.24112 0.98704 0.05248 0.0
C722 C 0.23955 0.94243 0.04543 0.0
C723 C 0.21835 0.91998 0.04552 0.0
H724 H 0.21048 0.58657 0.48486 0.0
H725 H 0.19254 0.53039 0.42327 0.0
H726 H 0.24635 0.54476 0.48462 0.0
H727 H 0.22764 0.48585 0.42378 0.0
H728 H 0.30308 0.44811 0.4187 0.0
H729 H 0.26759 0.4913 0.41938 0.0
H730 H 0.26402 0.47536 0.48812 0.0
H731 H 0.30043 0.43521 0.48761 0.0
C732 C 0.21404 0.565 0.47131 0.0
C733 C 0.19852 0.56241 0.454 0.0
C734 C 0.23459 0.5404 0.47131 0.0
C735 C 0.2402 0.51187 0.45411 0.0
C736 C 0.22429 0.50807 0.43713 0.0
C737 C 0.20383 0.5331 0.43703 0.0
C738 C 0.29507 0.45468 0.43405 0.0
C739 C 0.30488 0.43813 0.45311 0.0
C740 C 0.27434 0.47881 0.4344 0.0
C741 C 0.26259 0.48673 0.45379 0.0
C742 C 0.27254 0.47055 0.47286 0.0
C743 C 0.29339 0.44689 0.47254 0.0
H744 H 0.69359 0.96681 0.92423 0.0
H745 H 0.71029 0.91251 0.98649 0.0
H746 H 0.72883 0.01091 0.92488 0.0
H747 H 0.74624 0.95463 0.98656 0.0
H748 H 0.79915 0.06882 0.98856 0.0
H749 H 0.76307 0.02701 0.9893 0.0
H750 H 0.76927 0.00175 0.92139 0.0
H751 H 0.80454 0.04563 0.92042 0.0
C752 C 0.70463 0.9645 0.93818 0.0
C753 C 0.69894 0.93591 0.95531 0.0
C754 C 0.72514 0.98929 0.93838 0.0
C755 C 0.74067 0.98607 0.95565 0.0
C756 C 0.73473 0.9583 0.97302 0.0
C757 C 0.71415 0.93368 0.97287 0.0
C758 C 0.79278 0.05455 0.97375 0.0
C759 C 0.80488 0.06085 0.95442 0.0
C760 C 0.77214 0.03011 0.97421 0.0
C761 C 0.76303 0.01111 0.95538 0.0
C762 C 0.77544 0.0165 0.93617 0.0
C763 C 0.796 0.04109 0.93568 0.0
H764 H 0.72234 0.6094 0.57668 0.0
H765 H 0.69166 0.53487 0.52469 0.0
H766 H 0.75677 0.56335 0.57447 0.0
H767 H 0.72645 0.48864 0.52228 0.0
H768 H 0.78306 0.38608 0.54086 0.0
H769 H 0.74832 0.43193 0.54077 0.0
H770 H 0.78966 0.5499 0.55243 0.0
H771 H 0.82441 0.50385 0.55272 0.0
C772 C 0.72304 0.58342 0.56458 0.0
C773 C 0.70428 0.57622 0.5507 0.0
C774 C 0.74288 0.55701 0.56327 0.0
C775 C 0.74463 0.52251 0.54801 0.0
C776 C 0.7257 0.51469 0.53433 0.0
C777 C 0.70573 0.54117 0.5357 0.0
C778 C 0.78481 0.42192 0.54304 0.0
C779 C 0.80661 0.44123 0.5468 0.0
C780 C 0.76482 0.44827 0.54301 0.0
C781 C 0.76605 0.4947 0.54672 0.0
C782 C 0.78793 0.51415 0.54994 0.0
C783 C 0.80791 0.48777 0.55005 0.0
H784 H 0.40321 0.31678 0.1966 0.0
H785 H 0.43019 0.18231 0.20095 0.0
H786 H 0.40525 0.32411 0.23538 0.0
H787 H 0.433 0.18992 0.23978 0.0
H788 H 0.40901 0.199 0.30919 0.0
H789 H 0.40939 0.19258 0.2704 0.0
H790 H 0.42976 0.3316 0.26539 0.0
H791 H 0.42864 0.33817 0.3044 0.0
C792 C 0.40995 0.28903 0.20586 0.0
C793 C 0.41654 0.24895 0.19575 0.0
C794 C 0.41121 0.29326 0.22813 0.0
C795 C 0.41929 0.25763 0.24083 0.0
C796 C 0.42628 0.21779 0.2306 0.0
C797 C 0.42477 0.21341 0.20834 0.0
C798 C 0.41383 0.22807 0.29981 0.0
C799 C 0.41891 0.26905 0.30985 0.0
C800 C 0.41412 0.22438 0.27752 0.0
C801 C 0.4197 0.2615 0.26465 0.0
C802 C 0.42504 0.30245 0.27474 0.0
C803 C 0.4245 0.30625 0.29709 0.0
H804 H 0.07468 0.67054 0.30317 0.0
H805 H 0.09499 0.8091 0.30976 0.0
H806 H 0.07498 0.67869 0.2641 0.0
H807 H 0.09504 0.81732 0.27089 0.0
H808 H 0.1212 0.79434 0.20187 0.0
H809 H 0.11897 0.78761 0.24065 0.0
H810 H 0.05333 0.72046 0.23493 0.0
H811 H 0.05508 0.72833 0.19605 0.0
C812 C 0.07912 0.70271 0.29627 0.0
C813 C 0.08471 0.73922 0.30951 0.0
C814 C 0.07913 0.70746 0.27395 0.0
C815 C 0.08505 0.74864 0.26447 0.0
C816 C 0.09056 0.78511 0.27774 0.0
C817 C 0.09031 0.7805 0.29999 0.0
C818 C 0.10603 0.77893 0.20879 0.0
C819 C 0.08827 0.76208 0.19569 0.0
C820 C 0.10484 0.77486 0.23106 0.0
C821 C 0.08599 0.75345 0.24081 0.0
C822 C 0.0682 0.73664 0.22783 0.0
C823 C 0.06926 0.74112 0.20554 0.0
H824 H 0.56873 0.69631 0.81042 0.0
H825 H 0.58785 0.83523 0.80189 0.0
H826 H 0.56554 0.68762 0.77193 0.0
H827 H 0.58676 0.82538 0.76338 0.0
H828 H 0.5695 0.80737 0.69425 0.0
H829 H 0.56494 0.81598 0.73264 0.0
H830 H 0.58866 0.68001 0.74195 0.0
H831 H 0.59112 0.67007 0.70353 0.0
C832 C 0.57209 0.7252 0.80042 0.0
C833 C 0.57864 0.7665 0.80947 0.0
C834 C 0.57068 0.71994 0.7782 0.0
C835 C 0.57616 0.75557 0.76433 0.0
C836 C 0.58215 0.79717 0.7734 0.0
C837 C 0.58317 0.80266 0.79562 0.0
C838 C 0.57315 0.77882 0.70439 0.0
C839 C 0.58079 0.73801 0.69558 0.0
C840 C 0.57093 0.78407 0.72656 0.0
C841 C 0.57665 0.74892 0.74061 0.0
C842 C 0.5838 0.70781 0.73178 0.0
C843 C 0.58562 0.70231 0.70961 0.0
H844 H 0.9316 0.2061 0.6953 0.0
H845 H 0.90367 0.33978 0.70205 0.0
H846 H 0.93327 0.19905 0.73418 0.0
H847 H 0.90445 0.33155 0.74088 0.0
H848 H 0.87905 0.26786 0.80493 0.0
H849 H 0.88183 0.27917 0.76627 0.0
H850 H 0.95282 0.23572 0.76768 0.0
H851 H 0.95008 0.22473 0.80662 0.0
C852 C 0.92617 0.2343 0.70497 0.0
C853 C 0.91735 0.27346 0.69537 0.0
C854 C 0.92704 0.23008 0.72727 0.0
C855 C 0.91882 0.2646 0.74049 0.0
C856 C 0.91062 0.30417 0.73103 0.0
C857 C 0.91006 0.30871 0.70875 0.0
C858 C 0.89523 0.26063 0.79698 0.0
C859 C 0.91432 0.2452 0.80871 0.0
C860 C 0.89688 0.26747 0.77491 0.0
C861 C 0.91756 0.25845 0.76403 0.0
C862 C 0.93667 0.24281 0.77571 0.0
C863 C 0.93513 0.2367 0.79792 0.0
H864 H 0.48592 0.41572 0.05062 0.0
H865 H 0.45979 0.39595 0.98648 0.0
H866 H 0.50568 0.48343 0.0389 0.0
H867 H 0.47932 0.46413 0.97487 0.0
H868 H 0.49582 0.61427 0.96818 0.0
H869 H 0.47671 0.54576 0.98004 0.0
H870 H 0.5374 0.50904 0.01605 0.0
H871 H 0.55664 0.57697 0.004 0.0
C872 C 0.48466 0.42529 0.03393 0.0
C873 C 0.47121 0.40006 0.01952 0.0
C874 C 0.49593 0.46436 0.02723 0.0
C875 C 0.49399 0.47947 0.00596 0.0
C876 C 0.48086 0.45395 0.99147 0.0
C877 C 0.46968 0.41474 0.99813 0.0
C878 C 0.50516 0.59155 0.97855 0.0
C879 C 0.52781 0.6015 0.98514 0.0
C880 C 0.49419 0.55218 0.98534 0.0
C881 C 0.50553 0.52175 0.99897 0.0
C882 C 0.52803 0.53196 0.00579 0.0
C883 C 0.53903 0.57117 0.99893 0.0
H884 H 1.00021 0.62674 0.01908 0.0
H885 H 0.06488 0.55516 0.01761 0.0
H886 H 0.98024 0.55946 0.00664 0.0
H887 H 0.04504 0.48798 0.00558 0.0
H888 H 0.00653 0.38754 0.96395 0.0
H889 H 0.02604 0.45535 0.97584 0.0
H890 H 0.96841 0.48635 0.01713 0.0
H891 H 0.94835 0.42003 0.0043 0.0
C892 C 0.01015 0.59661 0.0162 0.0
C893 C 0.03419 0.5966 0.01913 0.0
C894 C 0.9987 0.5579 0.00913 0.0
C895 C 0.01098 0.51806 0.00499 0.0
C896 C 0.03501 0.51811 0.00812 0.0
C897 C 0.04643 0.55678 0.01504 0.0
C898 C 0.99791 0.40893 0.97544 0.0
C899 C 0.97582 0.39794 0.98315 0.0
C900 C 0.00924 0.44771 0.98248 0.0
C901 C 0.99888 0.47659 0.99751 0.0
C902 C 0.97687 0.46539 0.00535 0.0
C903 C 0.96549 0.42675 0.99824 0.0
H904 H 0.55728 0.92308 0.5061 0.0
H905 H 0.49282 0.87262 0.53107 0.0
H906 H 0.53809 0.99148 0.49476 0.0
H907 H 0.4736 0.94144 0.51974 0.0
H908 H 0.4522 0.0891 0.51722 0.0
H909 H 0.47184 0.02076 0.52843 0.0
H910 H 0.51047 0.02028 0.46928 0.0
H911 H 0.49083 0.0885 0.45806 0.0
C912 C 0.53891 0.92613 0.50886 0.0
C913 C 0.52662 0.89192 0.51941 0.0
C914 C 0.52791 0.96561 0.5024 0.0
C915 C 0.50428 0.97219 0.50634 0.0
C916 C 0.4919 0.93789 0.51674 0.0
C917 C 0.50292 0.8983 0.52318 0.0
C918 C 0.46488 0.07443 0.50658 0.0
C919 C 0.4699 0.0945 0.48671 0.0
C920 C 0.47609 0.03508 0.51299 0.0
C921 C 0.49267 0.0147 0.49973 0.0
C922 C 0.49802 0.03525 0.48005 0.0
C923 C 0.48679 0.07458 0.47363 0.0
H924 H 0.96576 0.06003 0.55266 0.0
H925 H 0.98727 0.126 0.4944 0.0
H926 H 0.98356 0.99077 0.54049 0.0
H927 H 0.0051 0.05641 0.48216 0.0
H928 H 0.01479 0.91346 0.45755 0.0
H929 H 0.99552 0.98138 0.4699 0.0
H930 H 0.0208 0.9574 0.53397 0.0
H931 H 0.03936 0.88869 0.52178 0.0
C932 C 0.97461 0.06003 0.53738 0.0
C933 C 0.97523 0.09892 0.52462 0.0
C934 C 0.98477 0.02013 0.53035 0.0
C935 C 0.99581 0.01784 0.51033 0.0
C936 C 0.99645 0.0567 0.49754 0.0
C937 C 0.98628 0.0967 0.50458 0.0
C938 C 0.01585 0.92217 0.47437 0.0
C939 C 0.02858 0.8954 0.48868 0.0
C940 C 0.00509 0.96155 0.48139 0.0
C941 C 0.0067 0.97518 0.50292 0.0
C942 C 0.01901 0.94787 0.51732 0.0
C943 C 0.02982 0.90857 0.51029 0.0
H944 H 0.18567 0.52743 0.06564 0.0
H945 H 0.23573 0.63286 0.05715 0.0
H946 H 0.21606 0.47138 0.06218 0.0
H947 H 0.26615 0.57706 0.05253 0.0
H948 H 0.31587 0.46928 0.07776 0.0
H949 H 0.28628 0.52712 0.07519 0.0
H950 H 0.24301 0.43598 0.03913 0.0
H951 H 0.2725 0.37774 0.04267 0.0
C952 C 0.2032 0.53833 0.06262 0.0
C953 C 0.20863 0.58401 0.06185 0.0
C954 C 0.22056 0.50641 0.06046 0.0
C955 C 0.24355 0.51979 0.05715 0.0
C956 C 0.2487 0.56571 0.0555 0.0
C957 C 0.23138 0.5976 0.05805 0.0
C958 C 0.30006 0.46215 0.06914 0.0
C959 C 0.29612 0.41967 0.06045 0.0
C960 C 0.28321 0.49516 0.06749 0.0
C961 C 0.26225 0.48611 0.05698 0.0
C962 C 0.25881 0.44375 0.04761 0.0
C963 C 0.27563 0.41061 0.04946 0.0
H964 H 0.29241 0.08164 0.46089 0.0
H965 H 0.29481 0.06897 0.39182 0.0
H966 H 0.26128 0.02677 0.46214 0.0
H967 H 0.26282 0.01595 0.39323 0.0
H968 H 0.1873 0.96772 0.40811 0.0
H969 H 0.21861 0.02297 0.40741 0.0
H970 H 0.25874 0.93955 0.44988 0.0
H971 H 0.2276 0.88396 0.45031 0.0
C972 C 0.28646 0.06702 0.446 0.0
C973 C 0.29618 0.0796 0.42624 0.0
C974 C 0.26856 0.03595 0.44676 0.0
C975 C 0.25981 0.01764 0.42778 0.0
C976 C 0.26927 0.03023 0.40803 0.0
C977 C 0.28746 0.06067 0.40727 0.0
C978 C 0.20281 0.96147 0.41733 0.0
C979 C 0.20527 0.92189 0.42921 0.0
C980 C 0.22063 0.99275 0.41684 0.0
C981 C 0.24089 0.98509 0.42856 0.0
C982 C 0.24316 0.94596 0.4408 0.0
C983 C 0.22551 0.91429 0.44097 0.0
H984 H 0.72344 0.60398 0.90836 0.0
H985 H 0.68523 0.53395 0.95747 0.0
H986 H 0.75448 0.54953 0.91139 0.0
H987 H 0.71677 0.48013 0.96106 0.0
H988 H 0.76638 0.36563 0.9397 0.0
H989 H 0.73481 0.41984 0.94012 0.0
H990 H 0.78421 0.52818 0.93691 0.0
H991 H 0.81565 0.47393 0.93611 0.0
C992 C 0.72167 0.57679 0.91974 0.0
C993 C 0.70194 0.57298 0.93261 0.0
C994 C 0.73956 0.54601 0.9217 0.0
C995 C 0.73809 0.51085 0.93659 0.0
C996 C 0.71829 0.50683 0.9494 0.0
C997 C 0.70036 0.53773 0.94745 0.0
C998 C 0.77041 0.40108 0.93937 0.0
C999 C 0.79332 0.41581 0.93762 0.0
C1000 C 0.7524 0.43205 0.93965 0.0
C1001 C 0.75709 0.47815 0.93831 0.0
C1002 C 0.7801 0.49279 0.93749 0.0
C1003 C 0.79805 0.46187 0.93706 0.0
H1004 H 0.68166 0.98629 0.58323 0.0
H1005 H 0.72385 0.8933 0.54746 0.0
H1006 H 0.71239 0.04205 0.58135 0.0
H1007 H 0.75452 0.94905 0.54551 0.0
H1008 H 0.81277 0.03338 0.57504 0.0
H1009 H 0.78073 0.98092 0.57243 0.0
H1010 H 0.73476 0.09004 0.55665 0.0
H1011 H 0.76677 0.14285 0.55997 0.0
C1012 C 0.69735 0.97813 0.57466 0.0
C1013 C 0.70056 0.93542 0.56572 0.0
C1014 C 0.7149 0.00999 0.57355 0.0
C1015 C 0.73588 0.99962 0.56346 0.0
C1016 C 0.73867 0.95756 0.55374 0.0
C1017 C 0.72116 0.92572 0.55487 0.0
C1018 C 0.79579 0.04614 0.57113 0.0
C1019 C 0.79218 0.0921 0.56782 0.0
C1020 C 0.77753 0.0161 0.56936 0.0
C1021 C 0.75531 0.03147 0.56425 0.0
C1022 C 0.75171 0.0774 0.56073 0.0
C1023 C 0.77002 0.10749 0.56246 0.0
loop_
_geom_bond_atom_site_label_1
_geom_bond_atom_site_label_2
_geom_bond_distance
_geom_bond_site_symmetry_2
_ccdc_geom_bond_type
Li0 N17 1.990 . S
Li0 O60 1.956 . S
Li0 O61 1.970 . S
Li0 O62 1.961 . S
Li1 N25 1.990 . S
Li1 O60 1.970 . S
Li1 O61 1.956 . S
Li1 O63 1.961 . S
Li2 N47 1.990 . S
Li2 O60 1.961 . S
Li2 O62 1.956 . S
Li2 O63 1.970 . S
Li3 N53 1.990 . S
Li3 O61 1.961 . S
Li3 O62 1.970 . S
Li3 O63 1.956 . S
C4 C6 1.348 . S
C4 C7 1.356 . S
C4 O60 1.325 . S
N5 C8 1.314 . S
N5 C9 1.279 . S
C6 C4 1.348 . S
C6 C8 1.353 . S
C6 H64 0.929 . S
C7 C4 1.356 . S
C7 C9 1.358 . S
C7 H65 0.930 . S
C8 N5 1.314 . S
C8 C6 1.353 . S
C8 H66 0.930 . S
C9 N5 1.279 . S
C9 C7 1.358 . S
C9 H67 0.930 . S
C10 C13 1.348 . S
C10 C14 1.356 . S
C10 O61 1.325 . S
C11 N12 1.279 . S
C11 C14 1.358 . S
C11 H68 0.930 . S
N12 C11 1.279 . S
N12 C15 1.314 . S
C13 C10 1.348 . S
C13 C15 1.353 . S
C13 H69 0.929 . S
C14 C10 1.356 . S
C14 C11 1.358 . S
C14 H70 0.930 . S
C15 N12 1.314 . S
C15 C13 1.353 . S
C15 H71 0.930 . S
C16 N17 1.314 . S
C16 C21 1.353 . S
C16 H22 0.930 . S
N17 Li0 1.990 . S
N17 C16 1.314 . S
N17 C19 1.279 . S
C18 C19 1.358 . S
C18 C20 1.356 . S
C18 H72 0.930 . S
C19 N17 1.279 . S
C19 C18 1.358 . S
C19 H23 0.930 . S
C20 C18 1.356 . S
C20 C21 1.348 . S
C21 C16 1.353 . S
C21 C20 1.348 . S
C21 H73 0.938 . S
H22 C16 0.930 . S
H23 C19 0.930 . S
C24 N25 1.314 . S
C24 C26 1.353 . S
C24 H30 0.930 . S
N25 Li1 1.990 . S
N25 C24 1.314 . S
N25 C28 1.279 . S
C26 C24 1.353 . S
C26 C29 1.348 . S
C26 H74 0.929 . S
C27 C28 1.358 . S
C27 C29 1.356 . S
C27 H75 0.930 . S
C28 N25 1.279 . S
C28 C27 1.358 . S
C28 H31 0.930 . S
C29 C26 1.348 . S
C29 C27 1.356 . S
H30 C24 0.930 . S
H31 C28 0.930 . S
C32 C34 1.348 . S
C32 C35 1.356 . S
C32 O62 1.325 . S
N33 C36 1.314 . S
N33 C37 1.279 . S
C34 C32 1.348 . S
C34 C36 1.353 1_554 S
C34 H76 0.929 . S
C35 C32 1.356 . S
C35 C37 1.358 1_554 S
C35 H77 0.930 . S
C36 N33 1.314 . S
C36 C34 1.353 1_556 S
C36 H78 0.930 . S
C37 N33 1.279 . S
C37 C35 1.358 1_556 S
C37 H79 0.930 . S
C38 C39 1.348 . S
C38 C40 1.356 . S
C38 O63 1.325 . S
C39 C38 1.348 . S
C39 C41 1.353 . S
C39 H80 0.929 . S
C40 C38 1.356 . S
C40 C42 1.358 . S
C40 H81 0.930 . S
C41 C39 1.353 . S
C41 N43 1.314 . S
C41 H82 0.930 . S
C42 C40 1.358 . S
C42 N43 1.279 . S
C42 H83 0.930 . S
N43 C41 1.314 . S
N43 C42 1.279 . S
C44 C46 1.353 . S
C44 N47 1.314 . S
C44 H50 0.930 . S
C45 N47 1.279 . S
C45 C48 1.358 . S
C45 H51 0.930 . S
C46 C44 1.353 . S
C46 C49 1.348 . S
C46 H84 0.929 . S
N47 Li2 1.990 . S
N47 C44 1.314 . S
N47 C45 1.279 . S
C48 C45 1.358 . S
C48 C49 1.356 . S
C48 H85 0.930 . S
C49 C46 1.348 . S
C49 C48 1.356 . S
H50 C44 0.930 . S
H51 C45 0.930 . S
C52 N53 1.314 . S
C52 C54 1.353 . S
C52 H58 0.930 . S
N53 Li3 1.990 . S
N53 C52 1.314 . S
N53 C56 1.279 . S
C54 C52 1.353 . S
C54 C57 1.348 . S
C54 H86 0.929 . S
C55 C56 1.358 . S
C55 C57 1.356 . S
C55 H87 0.930 . S
C56 N53 1.279 . S
C56 C55 1.358 . S
C56 H59 0.930 . S
C57 C54 1.348 . S
C57 C55 1.356 . S
H58 C52 0.930 . S
H59 C56 0.930 . S
O60 Li0 1.956 . S
O60 Li1 1.970 . S
O60 Li2 1.961 . S
O60 C4 1.325 . S
O61 Li0 1.970 . S
O61 Li1 1.956 . S
O61 Li3 1.961 . S
O61 C10 1.325 . S
O62 Li0 1.961 . S
O62 Li2 1.956 . S
O62 Li3 1.970 . S
O62 C32 1.325 . S
O63 Li1 1.961 . S
O63 Li2 1.970 . S
O63 Li3 1.956 . S
O63 C38 1.325 . S
H64 C6 0.929 . S
H65 C7 0.930 . S
H66 C8 0.930 . S
H67 C9 0.930 . S
H68 C11 0.930 . S
H69 C13 0.929 . S
H70 C14 0.930 . S
H71 C15 0.930 . S
H72 C18 0.930 . S
H73 C21 0.938 . S
H74 C26 0.929 . S
H75 C27 0.930 . S
H76 C34 0.929 . S
H77 C35 0.930 . S
H78 C36 0.930 . S
H79 C37 0.930 . S
H80 C39 0.929 . S
H81 C40 0.930 . S
H82 C41 0.930 . S
H83 C42 0.930 . S
H84 C46 0.929 . S
H85 C48 0.930 . S
H86 C54 0.929 . S
H87 C55 0.930 . S
Li88 N105 1.990 . S
Li88 O148 1.956 . S
Li88 O149 1.970 . S
Li88 O150 1.961 . S
Li89 N113 1.990 . S
Li89 O148 1.970 . S
Li89 O149 1.956 . S
Li89 O151 1.961 . S
Li90 N135 1.990 . S
Li90 O148 1.961 . S
Li90 O150 1.956 . S
Li90 O151 1.970 . S
Li91 N141 1.990 . S
Li91 O149 1.961 . S
Li91 O150 1.970 . S
Li91 O151 1.956 . S
C92 C94 1.348 . S
C92 C95 1.356 . S
C92 O148 1.325 . S
N93 C96 1.314 . S
N93 C97 1.279 . S
C94 C92 1.348 . S
C94 C96 1.353 . S
C94 H152 0.929 . S
C95 C92 1.356 . S
C95 C97 1.358 . S
C95 H153 0.930 . S
C96 N93 1.314 . S
C96 C94 1.353 . S
C96 H154 0.930 . S
C97 N93 1.279 . S
C97 C95 1.358 . S
C97 H155 0.930 . S
C98 C101 1.348 . S
C98 C102 1.356 . S
C98 O149 1.325 . S
C99 N100 1.279 . S
C99 C102 1.358 . S
C99 H156 0.930 . S
N100 C99 1.279 . S
N100 C103 1.314 . S
C101 C98 1.348 . S
C101 C103 1.353 . S
C101 H157 0.929 . S
C102 C98 1.356 . S
C102 C99 1.358 . S
C102 H158 0.930 . S
C103 N100 1.314 . S
C103 C101 1.353 . S
C103 H159 0.930 . S
C104 N105 1.314 . S
C104 C109 1.353 . S
C104 H110 0.930 . S
N105 Li88 1.990 . S
N105 C104 1.314 . S
N105 C107 1.279 . S
C106 C107 1.358 . S
C106 C108 1.356 . S
C106 H160 0.930 . S
C107 N105 1.279 . S
C107 C106 1.358 . S
C107 H111 0.930 . S
C108 C106 1.356 . S
C108 C109 1.348 . S
C109 C104 1.353 . S
C109 C108 1.348 . S
C109 H161 0.938 . S
H110 C104 0.930 . S
H111 C107 0.930 . S
C112 N113 1.314 . S
C112 C114 1.353 . S
C112 H118 0.930 . S
N113 Li89 1.990 . S
N113 C112 1.314 . S
N113 C116 1.279 . S
C114 C112 1.353 . S
C114 C117 1.348 . S
C114 H162 0.929 . S
C115 C116 1.358 . S
C115 C117 1.356 . S
C115 H163 0.930 . S
C116 N113 1.279 . S
C116 C115 1.358 . S
C116 H119 0.930 . S
C117 C114 1.348 . S
C117 C115 1.356 . S
H118 C112 0.930 . S
H119 C116 0.930 . S
C120 C122 1.348 . S
C120 C123 1.356 . S
C120 O150 1.325 . S
N121 C124 1.314 . S
N121 C125 1.279 . S
C122 C120 1.348 . S
C122 C124 1.353 1_554 S
C122 H164 0.929 . S
C123 C120 1.356 . S
C123 C125 1.358 1_554 S
C123 H165 0.930 . S
C124 N121 1.314 . S
C124 C122 1.353 1_556 S
C124 H166 0.930 . S
C125 N121 1.279 . S
C125 C123 1.358 1_556 S
C125 H167 0.930 . S
C126 C127 1.348 . S
C126 C128 1.356 . S
C126 O151 1.325 . S
C127 C126 1.348 . S
C127 C129 1.353 . S
C127 H168 0.929 . S
C128 C126 1.356 . S
C128 C130 1.358 . S
C128 H169 0.930 . S
C129 C127 1.353 . S
C129 N131 1.314 . S
C129 H170 0.930 . S
C130 C128 1.358 . S
C130 N131 1.279 . S
C130 H171 0.930 . S
N131 C129 1.314 . S
N131 C130 1.279 . S
C132 C134 1.353 . S
C132 N135 1.314 . S
C132 H138 0.930 . S
C133 N135 1.279 . S
C133 C136 1.358 . S
C133 H139 0.930 . S
C134 C132 1.353 . S
C134 C137 1.348 . S
C134 H172 0.929 . S
N135 Li90 1.990 . S
N135 C132 1.314 . S
N135 C133 1.279 . S
C136 C133 1.358 . S
C136 C137 1.356 . S
C136 H173 0.930 . S
C137 C134 1.348 . S
C137 C136 1.356 . S
H138 C132 0.930 . S
H139 C133 0.930 . S
C140 N141 1.314 . S
C140 C142 1.353 . S
C140 H146 0.930 . S
N141 Li91 1.990 . S
N141 C140 1.314 . S
N141 C144 1.279 . S
C142 C140 1.353 . S
C142 C145 1.348 . S
C142 H174 0.929 . S
C143 C144 1.358 . S
C143 C145 1.356 . S
C143 H175 0.930 . S
C144 N141 1.279 . S
C144 C143 1.358 . S
C144 H147 0.930 . S
C145 C142 1.348 . S
C145 C143 1.356 . S
H146 C140 0.930 . S
H147 C144 0.930 . S
O148 Li88 1.956 . S
O148 Li89 1.970 . S
O148 Li90 1.961 . S
O148 C92 1.325 . S
O149 Li88 1.970 . S
O149 Li89 1.956 . S
O149 Li91 1.961 . S
O149 C98 1.325 . S
O150 Li88 1.961 . S
O150 Li90 1.956 . S
O150 Li91 1.970 . S
O150 C120 1.325 . S
O151 Li89 1.961 . S
O151 Li90 1.970 . S
O151 Li91 1.956 . S
O151 C126 1.325 . S
H152 C94 0.929 . S
H153 C95 0.930 . S
H154 C96 0.930 . S
H155 C97 0.930 . S
H156 C99 0.930 . S
H157 C101 0.929 . S
H158 C102 0.930 . S
H159 C103 0.930 . S
H160 C106 0.930 . S
H161 C109 0.938 . S
H162 C114 0.929 . S
H163 C115 0.930 . S
H164 C122 0.929 . S
H165 C123 0.930 . S
H166 C124 0.930 . S
H167 C125 0.930 . S
H168 C127 0.929 . S
H169 C128 0.930 . S
H170 C129 0.930 . S
H171 C130 0.930 . S
H172 C134 0.929 . S
H173 C136 0.930 . S
H174 C142 0.929 . S
H175 C143 0.930 . S
Li176 N193 1.990 . S
Li176 O236 1.956 . S
Li176 O237 1.970 . S
Li176 O238 1.961 . S
Li177 N201 1.990 . S
Li177 O236 1.970 . S
Li177 O237 1.956 . S
Li177 O239 1.961 . S
Li178 N223 1.990 . S
Li178 O236 1.961 . S
Li178 O238 1.956 . S
Li178 O239 1.970 . S
Li179 N229 1.990 . S
Li179 O237 1.961 . S
Li179 O238 1.970 . S
Li179 O239 1.956 . S
C180 C182 1.348 . S
C180 C183 1.356 . S
C180 O236 1.325 . S
N181 C184 1.314 . S
N181 C185 1.279 . S
C182 C180 1.348 . S
C182 C184 1.353 . S
C182 H240 0.929 . S
C183 C180 1.356 . S
C183 C185 1.358 . S
C183 H241 0.930 . S
C184 N181 1.314 . S
C184 C182 1.353 . S
C184 H242 0.930 . S
C185 N181 1.279 . S
C185 C183 1.358 . S
C185 H243 0.930 . S
C186 C189 1.348 . S
C186 C190 1.356 . S
C186 O237 1.325 . S
C187 N188 1.279 . S
C187 C190 1.358 . S
C187 H244 0.930 . S
N188 C187 1.279 . S
N188 C191 1.314 . S
C189 C186 1.348 . S
C189 C191 1.353 . S
C189 H245 0.929 . S
C190 C186 1.356 . S
C190 C187 1.358 . S
C190 H246 0.930 . S
C191 N188 1.314 . S
C191 C189 1.353 . S
C191 H247 0.930 . S
C192 N193 1.314 . S
C192 C197 1.353 . S
C192 H198 0.930 . S
N193 Li176 1.990 . S
N193 C192 1.314 . S
N193 C195 1.279 . S
C194 C195 1.358 . S
C194 C196 1.356 . S
C194 H248 0.930 . S
C195 N193 1.279 . S
C195 C194 1.358 . S
C195 H199 0.930 . S
C196 C194 1.356 . S
C196 C197 1.348 . S
C197 C192 1.353 . S
C197 C196 1.348 . S
C197 H249 0.929 . S
H198 C192 0.930 . S
H199 C195 0.930 . S
C200 N201 1.314 . S
C200 C202 1.353 . S
C200 H206 0.930 . S
N201 Li177 1.990 . S
N201 C200 1.314 . S
N201 C204 1.279 . S
C202 C200 1.353 . S
C202 C205 1.348 . S
C202 H250 0.929 . S
C203 C204 1.358 . S
C203 C205 1.356 . S
C203 H251 0.930 . S
C204 N201 1.279 . S
C204 C203 1.358 . S
C204 H207 0.930 . S
C205 C202 1.348 . S
C205 C203 1.356 . S
H206 C200 0.930 . S
H207 C204 0.930 . S
C208 C210 1.348 . S
C208 C211 1.356 . S
C208 O238 1.325 . S
N209 C212 1.314 . S
N209 C213 1.279 . S
C210 C208 1.348 . S
C210 C212 1.353 . S
C210 H252 0.929 . S
C211 C208 1.356 . S
C211 C213 1.358 . S
C211 H253 0.930 . S
C212 N209 1.314 . S
C212 C210 1.353 . S
C212 H254 0.930 . S
C213 N209 1.279 . S
C213 C211 1.358 . S
C213 H255 0.930 . S
C214 C215 1.348 . S
C214 C216 1.356 . S
C214 O239 1.325 . S
C215 C214 1.348 . S
C215 C217 1.353 . S
C215 H256 0.929 . S
C216 C214 1.356 . S
C216 C218 1.358 . S
C216 H257 0.930 . S
C217 C215 1.353 . S
C217 N219 1.314 . S
C217 H258 0.930 . S
C218 C216 1.358 . S
C218 N219 1.279 . S
C218 H259 0.930 . S
N219 C217 1.314 . S
N219 C218 1.279 . S
C220 C222 1.353 . S
C220 N223 1.314 . S
C220 H226 0.930 . S
C221 N223 1.279 . S
C221 C224 1.358 . S
C221 H227 0.930 . S
C222 C220 1.353 . S
C222 C225 1.348 . S
C222 H260 0.929 . S
N223 Li178 1.990 . S
N223 C220 1.314 . S
N223 C221 1.279 . S
C224 C221 1.358 . S
C224 C225 1.356 . S
C224 H261 0.930 . S
C225 C222 1.348 . S
C225 C224 1.356 . S
H226 C220 0.930 . S
H227 C221 0.930 . S
C228 N229 1.314 . S
C228 C230 1.353 . S
C228 H234 0.930 . S
N229 Li179 1.990 . S
N229 C228 1.314 . S
N229 C232 1.279 . S
C230 C228 1.353 . S
C230 C233 1.348 . S
C230 H262 0.929 . S
C231 C232 1.358 . S
C231 C233 1.356 . S
C231 H263 0.930 . S
C232 N229 1.279 . S
C232 C231 1.358 . S
C232 H235 0.930 . S
C233 C230 1.348 . S
C233 C231 1.356 . S
H234 C228 0.930 . S
H235 C232 0.930 . S
O236 Li176 1.956 . S
O236 Li177 1.970 . S
O236 Li178 1.961 . S
O236 C180 1.325 . S
O237 Li176 1.970 . S
O237 Li177 1.956 . S
O237 Li179 1.961 . S
O237 C186 1.325 . S
O238 Li176 1.961 . S
O238 Li178 1.956 . S
O238 Li179 1.970 . S
O238 C208 1.325 . S
O239 Li177 1.961 . S
O239 Li178 1.970 . S
O239 Li179 1.956 . S
O239 C214 1.325 . S
H240 C182 0.929 . S
H241 C183 0.930 . S
H242 C184 0.930 . S
H243 C185 0.930 . S
H244 C187 0.930 . S
H245 C189 0.929 . S
H246 C190 0.930 . S
H247 C191 0.930 . S
H248 C194 0.930 . S
H249 C197 0.929 . S
H250 C202 0.929 . S
H251 C203 0.930 . S
H252 C210 0.929 . S
H253 C211 0.930 . S
H254 C212 0.930 . S
H255 C213 0.930 . S
H256 C215 0.929 . S
H257 C216 0.930 . S
H258 C217 0.930 . S
H259 C218 0.930 . S
H260 C222 0.929 . S
H261 C224 0.930 . S
H262 C230 0.929 . S
H263 C231 0.930 . S
Li264 N281 1.990 . S
Li264 O324 1.956 . S
Li264 O325 1.970 . S
Li264 O326 1.961 . S
Li265 N289 1.990 . S
Li265 O324 1.970 . S
Li265 O325 1.956 . S
Li265 O327 1.961 . S
Li266 N311 1.990 . S
Li266 O324 1.961 . S
Li266 O326 1.956 . S
Li266 O327 1.970 . S
Li267 N317 1.990 . S
Li267 O325 1.961 . S
Li267 O326 1.970 . S
Li267 O327 1.956 . S
C268 C270 1.348 . S
C268 C271 1.356 . S
C268 O324 1.325 . S
N269 C272 1.314 . S
N269 C273 1.279 . S
C270 C268 1.348 . S
C270 C272 1.353 . S
C270 H328 0.929 . S
C271 C268 1.356 . S
C271 C273 1.358 . S
C271 H329 0.930 . S
C272 N269 1.314 . S
C272 C270 1.353 . S
C272 H330 0.930 . S
C273 N269 1.279 . S
C273 C271 1.358 . S
C273 H331 0.930 . S
C274 C277 1.348 . S
C274 C278 1.356 . S
C274 O325 1.325 . S
C275 N276 1.279 . S
C275 C278 1.358 . S
C275 H332 0.930 . S
N276 C275 1.279 . S
N276 C279 1.314 . S
C277 C274 1.348 . S
C277 C279 1.353 . S
C277 H333 0.929 . S
C278 C274 1.356 . S
C278 C275 1.358 . S
C278 H334 0.930 . S
C279 N276 1.314 . S
C279 C277 1.353 . S
C279 H335 0.930 . S
C280 N281 1.314 . S
C280 C285 1.353 . S
C280 H286 0.930 . S
N281 Li264 1.990 . S
N281 C280 1.314 . S
N281 C283 1.279 . S
C282 C283 1.358 . S
C282 C284 1.356 . S
C282 H336 0.930 . S
C283 N281 1.279 . S
C283 C282 1.358 . S
C283 H287 0.930 . S
C284 C282 1.356 . S
C284 C285 1.348 . S
C285 C280 1.353 . S
C285 C284 1.348 . S
C285 H337 0.929 . S
H286 C280 0.930 . S
H287 C283 0.930 . S
C288 N289 1.314 . S
C288 C290 1.353 . S
C288 H294 0.930 . S
N289 Li265 1.990 . S
N289 C288 1.314 . S
N289 C292 1.279 . S
C290 C288 1.353 . S
C290 C293 1.348 . S
C290 H338 0.929 . S
C291 C292 1.358 . S
C291 C293 1.356 . S
C291 H339 0.930 . S
C292 N289 1.279 . S
C292 C291 1.358 . S
C292 H295 0.930 . S
C293 C290 1.348 . S
C293 C291 1.356 . S
H294 C288 0.930 . S
H295 C292 0.930 . S
C296 C298 1.348 . S
C296 C299 1.356 . S
C296 O326 1.325 . S
N297 C300 1.314 . S
N297 C301 1.279 . S
C298 C296 1.348 . S
C298 C300 1.353 . S
C298 H340 0.929 . S
C299 C296 1.356 . S
C299 C301 1.358 . S
C299 H341 0.930 . S
C300 N297 1.314 . S
C300 C298 1.353 . S
C300 H342 0.930 . S
C301 N297 1.279 . S
C301 C299 1.358 . S
C301 H343 0.930 . S
C302 C303 1.348 . S
C302 C304 1.356 . S
C302 O327 1.325 . S
C303 C302 1.348 . S
C303 C305 1.353 . S
C303 H344 0.929 . S
C304 C302 1.356 . S
C304 C306 1.358 . S
C304 H345 0.930 . S
C305 C303 1.353 . S
C305 N307 1.314 . S
C305 H346 0.930 . S
C306 C304 1.358 . S
C306 N307 1.279 . S
C306 H347 0.930 . S
N307 C305 1.314 . S
N307 C306 1.279 . S
C308 C310 1.353 . S
C308 N311 1.314 . S
C308 H314 0.930 . S
C309 N311 1.279 . S
C309 C312 1.358 . S
C309 H315 0.930 . S
C310 C308 1.353 . S
C310 C313 1.348 . S
C310 H348 0.929 . S
N311 Li266 1.990 . S
N311 C308 1.314 . S
N311 C309 1.279 . S
C312 C309 1.358 . S
C312 C313 1.356 . S
C312 H349 0.930 . S
C313 C310 1.348 . S
C313 C312 1.356 . S
H314 C308 0.930 . S
H315 C309 0.930 . S
C316 N317 1.314 . S
C316 C318 1.353 . S
C316 H322 0.930 . S
N317 Li267 1.990 . S
N317 C316 1.314 . S
N317 C320 1.279 . S
C318 C316 1.353 . S
C318 C321 1.348 . S
C318 H350 0.929 . S
C319 C320 1.358 . S
C319 C321 1.356 . S
C319 H351 0.930 . S
C320 N317 1.279 . S
C320 C319 1.358 . S
C320 H323 0.930 . S
C321 C318 1.348 . S
C321 C319 1.356 . S
H322 C316 0.930 . S
H323 C320 0.930 . S
O324 Li264 1.956 . S
O324 Li265 1.970 . S
O324 Li266 1.961 . S
O324 C268 1.325 . S
O325 Li264 1.970 . S
O325 Li265 1.956 . S
O325 Li267 1.961 . S
O325 C274 1.325 . S
O326 Li264 1.961 . S
O326 Li266 1.956 . S
O326 Li267 1.970 . S
O326 C296 1.325 . S
O327 Li265 1.961 . S
O327 Li266 1.970 . S
O327 Li267 1.956 . S
O327 C302 1.325 . S
H328 C270 0.929 . S
H329 C271 0.930 . S
H330 C272 0.930 . S
H331 C273 0.930 . S
H332 C275 0.930 . S
H333 C277 0.929 . S
H334 C278 0.930 . S
H335 C279 0.930 . S
H336 C282 0.930 . S
H337 C285 0.929 . S
H338 C290 0.929 . S
H339 C291 0.930 . S
H340 C298 0.929 . S
H341 C299 0.930 . S
H342 C300 0.930 . S
H343 C301 0.930 . S
H344 C303 0.929 . S
H345 C304 0.930 . S
H346 C305 0.930 . S
H347 C306 0.930 . S
H348 C310 0.929 . S
H349 C312 0.930 . S
H350 C318 0.929 . S
H351 C319 0.930 . S
Li352 N369 1.990 . S
Li352 O412 1.956 . S
Li352 O413 1.970 . S
Li352 O414 1.961 . S
Li353 N377 1.990 . S
Li353 O412 1.970 . S
Li353 O413 1.956 . S
Li353 O415 1.961 . S
Li354 N399 1.990 . S
Li354 O412 1.961 . S
Li354 O414 1.956 . S
Li354 O415 1.970 . S
Li355 N405 1.990 . S
Li355 O413 1.961 . S
Li355 O414 1.970 . S
Li355 O415 1.956 . S
C356 C358 1.348 . S
C356 C359 1.356 . S
C356 O412 1.325 . S
N357 C360 1.314 . S
N357 C361 1.279 . S
C358 C356 1.348 . S
C358 C360 1.353 1_556 S
C358 H416 0.929 . S
C359 C356 1.356 . S
C359 C361 1.358 1_556 S
C359 H417 0.930 . S
C360 N357 1.314 . S
C360 C358 1.353 1_554 S
C360 H418 0.930 . S
C361 N357 1.279 . S
C361 C359 1.358 1_554 S
C361 H419 0.930 . S
C362 C365 1.348 . S
C362 C366 1.356 . S
C362 O413 1.325 . S
C363 N364 1.279 . S
C363 C366 1.358 . S
C363 H420 0.930 . S
N364 C363 1.279 . S
N364 C367 1.314 . S
C365 C362 1.348 . S
C365 C367 1.353 . S
C365 H421 0.929 . S
C366 C362 1.356 . S
C366 C363 1.358 . S
C366 H422 0.930 . S
C367 N364 1.314 . S
C367 C365 1.353 . S
C367 H423 0.930 . S
C368 N369 1.314 . S
C368 C373 1.353 . S
C368 H374 0.930 . S
N369 Li352 1.990 . S
N369 C368 1.314 . S
N369 C371 1.279 . S
C370 C371 1.358 . S
C370 C372 1.356 . S
C370 H424 0.930 1_556 S
C371 N369 1.279 . S
C371 C370 1.358 . S
C371 H375 0.930 . S
C372 C370 1.356 . S
C372 C373 1.348 . S
C373 C368 1.353 . S
C373 C372 1.348 . S
C373 H425 0.929 . S
H374 C368 0.930 . S
H375 C371 0.930 . S
C376 N377 1.314 . S
C376 C378 1.353 . S
C376 H382 0.930 . S
N377 Li353 1.990 . S
N377 C376 1.314 . S
N377 C380 1.279 . S
C378 C376 1.353 . S
C378 C381 1.348 . S
C378 H426 0.929 . S
C379 C380 1.358 . S
C379 C381 1.356 . S
C379 H427 0.930 . S
C380 N377 1.279 . S
C380 C379 1.358 . S
C380 H383 0.930 . S
C381 C378 1.348 . S
C381 C379 1.356 . S
H382 C376 0.930 . S
H383 C380 0.930 . S
C384 C386 1.348 . S
C384 C387 1.356 . S
C384 O414 1.325 . S
N385 C388 1.314 . S
N385 C389 1.279 . S
C386 C384 1.348 . S
C386 C388 1.353 . S
C386 H428 0.929 . S
C387 C384 1.356 . S
C387 C389 1.358 . S
C387 H429 0.930 . S
C388 N385 1.314 . S
C388 C386 1.353 . S
C388 H430 0.930 . S
C389 N385 1.279 . S
C389 C387 1.358 . S
C389 H431 0.930 . S
C390 C391 1.348 . S
C390 C392 1.356 . S
C390 O415 1.325 . S
C391 C390 1.348 . S
C391 C393 1.353 . S
C391 H432 0.929 . S
C392 C390 1.356 . S
C392 C394 1.358 . S
C392 H433 0.930 . S
C393 C391 1.353 . S
C393 N395 1.314 . S
C393 H434 0.930 . S
C394 C392 1.358 . S
C394 N395 1.279 . S
C394 H435 0.930 . S
N395 C393 1.314 . S
N395 C394 1.279 . S
C396 C398 1.353 . S
C396 N399 1.314 . S
C396 H402 0.930 . S
C397 N399 1.279 . S
C397 C400 1.358 . S
C397 H403 0.930 . S
C398 C396 1.353 . S
C398 C401 1.348 . S
C398 H436 0.929 . S
N399 Li354 1.990 . S
N399 C396 1.314 . S
N399 C397 1.279 . S
C400 C397 1.358 . S
C400 C401 1.356 . S
C400 H437 0.930 . S
C401 C398 1.348 . S
C401 C400 1.356 . S
H402 C396 0.930 . S
H403 C397 0.930 . S
C404 N405 1.314 . S
C404 C406 1.353 . S
C404 H410 0.930 . S
N405 Li355 1.990 . S
N405 C404 1.314 . S
N405 C408 1.279 . S
C406 C404 1.353 . S
C406 C409 1.348 . S
C406 H438 0.929 . S
C407 C408 1.358 . S
C407 C409 1.356 . S
C407 H439 0.930 . S
C408 N405 1.279 . S
C408 C407 1.358 . S
C408 H411 0.930 . S
C409 C406 1.348 . S
C409 C407 1.356 . S
H410 C404 0.930 . S
H411 C408 0.930 . S
O412 Li352 1.956 . S
O412 Li353 1.970 . S
O412 Li354 1.961 . S
O412 C356 1.325 . S
O413 Li352 1.970 . S
O413 Li353 1.956 . S
O413 Li355 1.961 . S
O413 C362 1.325 . S
O414 Li352 1.961 . S
O414 Li354 1.956 . S
O414 Li355 1.970 . S
O414 C384 1.325 . S
O415 Li353 1.961 . S
O415 Li354 1.970 . S
O415 Li355 1.956 . S
O415 C390 1.325 . S
H416 C358 0.929 . S
H417 C359 0.930 . S
H418 C360 0.930 . S
H419 C361 0.930 . S
H420 C363 0.930 . S
H421 C365 0.929 . S
H422 C366 0.930 . S
H423 C367 0.930 . S
H424 C370 0.930 1_554 S
H425 C373 0.929 . S
H426 C378 0.929 . S
H427 C379 0.930 . S
H428 C386 0.929 . S
H429 C387 0.930 . S
H430 C388 0.930 . S
H431 C389 0.930 . S
H432 C391 0.929 . S
H433 C392 0.930 . S
H434 C393 0.930 . S
H435 C394 0.930 . S
H436 C398 0.929 . S
H437 C400 0.930 . S
H438 C406 0.929 . S
H439 C407 0.930 . S
Li440 N457 1.990 . S
Li440 O500 1.956 . S
Li440 O501 1.970 . S
Li440 O502 1.961 . S
Li441 N465 1.990 . S
Li441 O500 1.970 . S
Li441 O501 1.956 . S
Li441 O503 1.961 . S
Li442 N487 1.990 . S
Li442 O500 1.961 . S
Li442 O502 1.956 . S
Li442 O503 1.970 . S
Li443 N493 1.990 . S
Li443 O501 1.961 . S
Li443 O502 1.970 . S
Li443 O503 1.956 . S
C444 C446 1.348 . S
C444 C447 1.356 . S
C444 O500 1.325 . S
N445 C448 1.314 . S
N445 C449 1.279 . S
C446 C444 1.348 . S
C446 C448 1.353 1_556 S
C446 H504 0.929 . S
C447 C444 1.356 . S
C447 C449 1.358 1_556 S
C447 H505 0.930 . S
C448 N445 1.314 . S
C448 C446 1.353 1_554 S
C448 H506 0.930 . S
C449 N445 1.279 . S
C449 C447 1.358 1_554 S
C449 H507 0.930 . S
C450 C453 1.348 . S
C450 C454 1.356 . S
C450 O501 1.325 . S
C451 N452 1.279 . S
C451 C454 1.358 . S
C451 H508 0.930 . S
N452 C451 1.279 . S
N452 C455 1.314 . S
C453 C450 1.348 . S
C453 C455 1.353 . S
C453 H509 0.929 . S
C454 C450 1.356 . S
C454 C451 1.358 . S
C454 H510 0.930 . S
C455 N452 1.314 . S
C455 C453 1.353 . S
C455 H511 0.930 . S
C456 N457 1.314 . S
C456 C461 1.353 . S
C456 H462 0.930 . S
N457 Li440 1.990 . S
N457 C456 1.314 . S
N457 C459 1.279 . S
C458 C459 1.358 . S
C458 C460 1.356 . S
C458 H512 0.930 1_556 S
C459 N457 1.279 . S
C459 C458 1.358 . S
C459 H463 0.930 . S
C460 C458 1.356 . S
C460 C461 1.348 . S
C461 C456 1.353 . S
C461 C460 1.348 . S
C461 H513 0.929 . S
H462 C456 0.930 . S
H463 C459 0.930 . S
C464 N465 1.314 . S
C464 C466 1.353 . S
C464 H470 0.930 . S
N465 Li441 1.990 . S
N465 C464 1.314 . S
N465 C468 1.279 . S
C466 C464 1.353 . S
C466 C469 1.348 . S
C466 H514 0.929 . S
C467 C468 1.358 . S
C467 C469 1.356 . S
C467 H515 0.930 . S
C468 N465 1.279 . S
C468 C467 1.358 . S
C468 H471 0.930 . S
C469 C466 1.348 . S
C469 C467 1.356 . S
H470 C464 0.930 . S
H471 C468 0.930 . S
C472 C474 1.348 . S
C472 C475 1.356 . S
C472 O502 1.325 . S
N473 C476 1.314 . S
N473 C477 1.279 . S
C474 C472 1.348 . S
C474 C476 1.353 . S
C474 H516 0.929 . S
C475 C472 1.356 . S
C475 C477 1.358 . S
C475 H517 0.930 . S
C476 N473 1.314 . S
C476 C474 1.353 . S
C476 H518 0.930 . S
C477 N473 1.279 . S
C477 C475 1.358 . S
C477 H519 0.930 . S
C478 C479 1.348 . S
C478 C480 1.356 . S
C478 O503 1.325 . S
C479 C478 1.348 . S
C479 C481 1.353 . S
C479 H520 0.929 . S
C480 C478 1.356 . S
C480 C482 1.358 . S
C480 H521 0.930 . S
C481 C479 1.353 . S
C481 N483 1.314 . S
C481 H522 0.930 . S
C482 C480 1.358 . S
C482 N483 1.279 . S
C482 H523 0.930 . S
N483 C481 1.314 . S
N483 C482 1.279 . S
C484 C486 1.353 . S
C484 N487 1.314 . S
C484 H490 0.930 . S
C485 N487 1.279 . S
C485 C488 1.358 . S
C485 H491 0.930 . S
C486 C484 1.353 . S
C486 C489 1.348 . S
C486 H524 0.929 . S
N487 Li442 1.990 . S
N487 C484 1.314 . S
N487 C485 1.279 . S
C488 C485 1.358 . S
C488 C489 1.356 . S
C488 H525 0.930 . S
C489 C486 1.348 . S
C489 C488 1.356 . S
H490 C484 0.930 . S
H491 C485 0.930 . S
C492 N493 1.314 . S
C492 C494 1.353 . S
C492 H498 0.930 . S
N493 Li443 1.990 . S
N493 C492 1.314 . S
N493 C496 1.279 . S
C494 C492 1.353 . S
C494 C497 1.348 . S
C494 H526 0.929 . S
C495 C496 1.358 . S
C495 C497 1.356 . S
C495 H527 0.930 . S
C496 N493 1.279 . S
C496 C495 1.358 . S
C496 H499 0.930 . S
C497 C494 1.348 . S
C497 C495 1.356 . S
H498 C492 0.930 . S
H499 C496 0.930 . S
O500 Li440 1.956 . S
O500 Li441 1.970 . S
O500 Li442 1.961 . S
O500 C444 1.325 . S
O501 Li440 1.970 . S
O501 Li441 1.956 . S
O501 Li443 1.961 . S
O501 C450 1.325 . S
O502 Li440 1.961 . S
O502 Li442 1.956 . S
O502 Li443 1.970 . S
O502 C472 1.325 . S
O503 Li441 1.961 . S
O503 Li442 1.970 . S
O503 Li443 1.956 . S
O503 C478 1.325 . S
H504 C446 0.929 . S
H505 C447 0.930 . S
H506 C448 0.930 . S
H507 C449 0.930 . S
H508 C451 0.930 . S
H509 C453 0.929 . S
H510 C454 0.930 . S
H511 C455 0.930 . S
H512 C458 0.930 1_554 S
H513 C461 0.929 . S
H514 C466 0.929 . S
H515 C467 0.930 . S
H516 C474 0.929 . S
H517 C475 0.930 . S
H518 C476 0.930 . S
H519 C477 0.930 . S
H520 C479 0.929 . S
H521 C480 0.930 . S
H522 C481 0.930 . S
H523 C482 0.930 . S
H524 C486 0.929 . S
H525 C488 0.930 . S
H526 C494 0.929 . S
H527 C495 0.930 . S
Li528 N545 1.990 . S
Li528 O588 1.956 . S
Li528 O589 1.970 . S
Li528 O590 1.961 . S
Li529 N553 1.990 . S
Li529 O588 1.970 . S
Li529 O589 1.956 . S
Li529 O591 1.961 . S
Li530 N575 1.990 . S
Li530 O588 1.961 . S
Li530 O590 1.956 . S
Li530 O591 1.970 . S
Li531 N581 1.990 . S
Li531 O589 1.961 . S
Li531 O590 1.970 . S
Li531 O591 1.956 . S
C532 C534 1.348 . S
C532 C535 1.356 . S
C532 O588 1.325 . S
N533 C536 1.314 . S
N533 C537 1.279 . S
C534 C532 1.348 . S
C534 C536 1.353 . S
C534 H592 0.929 . S
C535 C532 1.356 . S
C535 C537 1.358 . S
C535 H593 0.930 . S
C536 N533 1.314 . S
C536 C534 1.353 . S
C536 H594 0.930 . S
C537 N533 1.279 . S
C537 C535 1.358 . S
C537 H595 0.930 . S
C538 C541 1.348 . S
C538 C542 1.356 . S
C538 O589 1.325 . S
C539 N540 1.279 . S
C539 C542 1.358 . S
C539 H596 0.930 . S
N540 C539 1.279 . S
N540 C543 1.314 . S
C541 C538 1.348 . S
C541 C543 1.353 . S
C541 H597 0.929 . S
C542 C538 1.356 . S
C542 C539 1.358 . S
C542 H598 0.930 . S
C543 N540 1.314 . S
C543 C541 1.353 . S
C543 H599 0.930 . S
C544 N545 1.314 . S
C544 C549 1.353 . S
C544 H550 0.930 . S
N545 Li528 1.990 . S
N545 C544 1.314 . S
N545 C547 1.279 . S
C546 C547 1.358 . S
C546 C548 1.356 . S
C546 H600 0.930 . S
C547 N545 1.279 . S
C547 C546 1.358 . S
C547 H551 0.930 . S
C548 C546 1.356 . S
C548 C549 1.348 . S
C549 C544 1.353 . S
C549 C548 1.348 . S
C549 H601 0.929 . S
H550 C544 0.930 . S
H551 C547 0.930 . S
C552 N553 1.314 . S
C552 C554 1.353 . S
C552 H558 0.930 . S
N553 Li529 1.990 . S
N553 C552 1.314 . S
N553 C556 1.279 . S
C554 C552 1.353 . S
C554 C557 1.348 . S
C554 H602 0.929 . S
C555 C556 1.358 . S
C555 C557 1.356 . S
C555 H603 0.930 . S
C556 N553 1.279 . S
C556 C555 1.358 . S
C556 H559 0.930 . S
C557 C554 1.348 . S
C557 C555 1.356 . S
H558 C552 0.930 . S
H559 C556 0.930 . S
C560 C562 1.348 . S
C560 C563 1.356 . S
C560 O590 1.325 . S
N561 C564 1.314 . S
N561 C565 1.279 . S
C562 C560 1.348 . S
C562 C564 1.353 . S
C562 H604 0.929 . S
C563 C560 1.356 . S
C563 C565 1.358 . S
C563 H605 0.930 . S
C564 N561 1.314 . S
C564 C562 1.353 . S
C564 H606 0.930 . S
C565 N561 1.279 . S
C565 C563 1.358 . S
C565 H607 0.930 . S
C566 C567 1.348 . S
C566 C568 1.356 . S
C566 O591 1.325 . S
C567 C566 1.348 . S
C567 C569 1.353 . S
C567 H608 0.929 . S
C568 C566 1.356 . S
C568 C570 1.358 . S
C568 H609 0.930 . S
C569 C567 1.353 . S
C569 N571 1.314 . S
C569 H610 0.930 . S
C570 C568 1.358 . S
C570 N571 1.279 . S
C570 H611 0.930 . S
N571 C569 1.314 . S
N571 C570 1.279 . S
C572 C574 1.353 . S
C572 N575 1.314 . S
C572 H578 0.930 . S
C573 N575 1.279 . S
C573 C576 1.358 . S
C573 H579 0.930 . S
C574 C572 1.353 . S
C574 C577 1.348 . S
C574 H612 0.929 . S
N575 Li530 1.990 . S
N575 C572 1.314 . S
N575 C573 1.279 . S
C576 C573 1.358 . S
C576 C577 1.356 . S
C576 H613 0.930 . S
C577 C574 1.348 . S
C577 C576 1.356 . S
H578 C572 0.930 . S
H579 C573 0.930 . S
C580 N581 1.314 . S
C580 C582 1.353 . S
C580 H586 0.930 . S
N581 Li531 1.990 . S
N581 C580 1.314 . S
N581 C584 1.279 . S
C582 C580 1.353 . S
C582 C585 1.348 . S
C582 H614 0.929 . S
C583 C584 1.358 . S
C583 C585 1.356 . S
C583 H615 0.930 . S
C584 N581 1.279 . S
C584 C583 1.358 . S
C584 H587 0.930 . S
C585 C582 1.348 . S
C585 C583 1.356 . S
H586 C580 0.930 . S
H587 C584 0.930 . S
O588 Li528 1.956 . S
O588 Li529 1.970 . S
O588 Li530 1.961 . S
O588 C532 1.325 . S
O589 Li528 1.970 . S
O589 Li529 1.956 . S
O589 Li531 1.961 . S
O589 C538 1.325 . S
O590 Li528 1.961 . S
O590 Li530 1.956 . S
O590 Li531 1.970 . S
O590 C560 1.325 . S
O591 Li529 1.961 . S
O591 Li530 1.970 . S
O591 Li531 1.956 . S
O591 C566 1.325 . S
H592 C534 0.929 . S
H593 C535 0.930 . S
H594 C536 0.930 . S
H595 C537 0.930 . S
H596 C539 0.930 . S
H597 C541 0.929 . S
H598 C542 0.930 . S
H599 C543 0.930 . S
H600 C546 0.930 . S
H601 C549 0.929 . S
H602 C554 0.929 . S
H603 C555 0.930 . S
H604 C562 0.929 . S
H605 C563 0.930 . S
H606 C564 0.930 . S
H607 C565 0.930 . S
H608 C567 0.929 . S
H609 C568 0.930 . S
H610 C569 0.930 . S
H611 C570 0.930 . S
H612 C574 0.929 . S
H613 C576 0.930 . S
H614 C582 0.929 . S
H615 C583 0.930 . S
Li616 N633 1.990 . S
Li616 O676 1.956 . S
Li616 O677 1.970 . S
Li616 O678 1.961 . S
Li617 N641 1.990 . S
Li617 O676 1.970 . S
Li617 O677 1.956 . S
Li617 O679 1.961 . S
Li618 N663 1.990 . S
Li618 O676 1.961 . S
Li618 O678 1.956 . S
Li618 O679 1.970 . S
Li619 N669 1.990 . S
Li619 O677 1.961 . S
Li619 O678 1.970 . S
Li619 O679 1.956 . S
C620 C622 1.348 . S
C620 C623 1.356 . S
C620 O676 1.325 . S
N621 C624 1.314 . S
N621 C625 1.279 . S
C622 C620 1.348 . S
C622 C624 1.353 . S
C622 H680 0.929 . S
C623 C620 1.356 . S
C623 C625 1.358 . S
C623 H681 0.930 . S
C624 N621 1.314 . S
C624 C622 1.353 . S
C624 H682 0.930 . S
C625 N621 1.279 . S
C625 C623 1.358 . S
C625 H683 0.930 . S
C626 C629 1.348 . S
C626 C630 1.356 . S
C626 O677 1.325 . S
C627 N628 1.279 . S
C627 C630 1.358 . S
C627 H684 0.930 . S
N628 C627 1.279 . S
N628 C631 1.314 . S
C629 C626 1.348 . S
C629 C631 1.353 . S
C629 H685 0.929 . S
C630 C626 1.356 . S
C630 C627 1.358 . S
C630 H686 0.930 . S
C631 N628 1.314 . S
C631 C629 1.353 . S
C631 H687 0.930 . S
C632 N633 1.314 . S
C632 C637 1.353 . S
C632 H638 0.930 . S
N633 Li616 1.990 . S
N633 C632 1.314 . S
N633 C635 1.279 . S
C634 C635 1.358 . S
C634 C636 1.356 . S
C634 H688 0.930 . S
C635 N633 1.279 . S
C635 C634 1.358 . S
C635 H639 0.930 . S
C636 C634 1.356 . S
C636 C637 1.348 . S
C637 C632 1.353 . S
C637 C636 1.348 . S
C637 H689 0.929 . S
H638 C632 0.930 . S
H639 C635 0.930 . S
C640 N641 1.314 . S
C640 C642 1.353 . S
C640 H646 0.930 . S
N641 Li617 1.990 . S
N641 C640 1.314 . S
N641 C644 1.279 . S
C642 C640 1.353 . S
C642 C645 1.348 . S
C642 H690 0.929 . S
C643 C644 1.358 . S
C643 C645 1.356 . S
C643 H691 0.930 . S
C644 N641 1.279 . S
C644 C643 1.358 . S
C644 H647 0.930 . S
C645 C642 1.348 . S
C645 C643 1.356 . S
H646 C640 0.930 . S
H647 C644 0.930 . S
C648 C650 1.348 . S
C648 C651 1.356 . S
C648 O678 1.325 . S
N649 C652 1.314 . S
N649 C653 1.279 . S
C650 C648 1.348 . S
C650 C652 1.353 . S
C650 H692 0.929 . S
C651 C648 1.356 . S
C651 C653 1.358 . S
C651 H693 0.930 . S
C652 N649 1.314 . S
C652 C650 1.353 . S
C652 H694 0.930 . S
C653 N649 1.279 . S
C653 C651 1.358 . S
C653 H695 0.930 . S
C654 C655 1.348 . S
C654 C656 1.356 . S
C654 O679 1.325 . S
C655 C654 1.348 . S
C655 C657 1.353 . S
C655 H696 0.929 . S
C656 C654 1.356 . S
C656 C658 1.358 . S
C656 H697 0.930 . S
C657 C655 1.353 . S
C657 N659 1.314 . S
C657 H698 0.930 . S
C658 C656 1.358 . S
C658 N659 1.279 . S
C658 H699 0.930 . S
N659 C657 1.314 . S
N659 C658 1.279 . S
C660 C662 1.353 . S
C660 N663 1.314 . S
C660 H666 0.930 . S
C661 N663 1.279 . S
C661 C664 1.358 . S
C661 H667 0.930 . S
C662 C660 1.353 . S
C662 C665 1.348 . S
C662 H700 0.929 . S
N663 Li618 1.990 . S
N663 C660 1.314 . S
N663 C661 1.279 . S
C664 C661 1.358 . S
C664 C665 1.356 . S
C664 H701 0.930 . S
C665 C662 1.348 . S
C665 C664 1.356 . S
H666 C660 0.930 . S
H667 C661 0.930 . S
C668 N669 1.314 . S
C668 C670 1.353 . S
C668 H674 0.930 . S
N669 Li619 1.990 . S
N669 C668 1.314 . S
N669 C672 1.279 . S
C670 C668 1.353 . S
C670 C673 1.348 . S
C670 H702 0.929 . S
C671 C672 1.358 . S
C671 C673 1.356 . S
C671 H703 0.930 . S
C672 N669 1.279 . S
C672 C671 1.358 . S
C672 H675 0.930 . S
C673 C670 1.348 . S
C673 C671 1.356 . S
H674 C668 0.930 . S
H675 C672 0.930 . S
O676 Li616 1.956 . S
O676 Li617 1.970 . S
O676 Li618 1.961 . S
O676 C620 1.325 . S
O677 Li616 1.970 . S
O677 Li617 1.956 . S
O677 Li619 1.961 . S
O677 C626 1.325 . S
O678 Li616 1.961 . S
O678 Li618 1.956 . S
O678 Li619 1.970 . S
O678 C648 1.325 . S
O679 Li617 1.961 . S
O679 Li618 1.970 . S
O679 Li619 1.956 . S
O679 C654 1.325 . S
H680 C622 0.929 . S
H681 C623 0.930 . S
H682 C624 0.930 . S
H683 C625 0.930 . S
H684 C627 0.930 . S
H685 C629 0.929 . S
H686 C630 0.930 . S
H687 C631 0.930 . S
H688 C634 0.930 . S
H689 C637 0.929 . S
H690 C642 0.929 . S
H691 C643 0.930 . S
H692 C650 0.929 . S
H693 C651 0.930 . S
H694 C652 0.930 . S
H695 C653 0.930 . S
H696 C655 0.929 . S
H697 C656 0.930 . S
H698 C657 0.930 . S
H699 C658 0.930 . S
H700 C662 0.929 . S
H701 C664 0.930 . S
H702 C670 0.929 . S
H703 C671 0.930 . S
H704 C712 0.937 1_565 S
H705 C717 0.950 . S
H706 C714 0.950 . S
H707 C716 0.950 . S
H708 C718 0.937 1_545 S
H709 C720 0.950 . S
H710 C722 0.950 . S
H711 C723 0.950 . S
C712 H704 0.937 1_545 S
C712 C713 1.407 . S
C712 C714 1.383 1_545 S
C713 C712 1.407 . S
C713 C717 1.393 . S
C714 H706 0.950 . S
C714 C712 1.383 1_565 S
C714 C715 1.400 1_565 S
C715 C714 1.400 1_545 S
C715 C716 1.398 . S
C715 C721 1.491 1_545 S
C716 H707 0.950 . S
C716 C715 1.398 . S
C716 C717 1.391 . S
C717 H705 0.950 . S
C717 C713 1.393 . S
C717 C716 1.391 . S
C718 H708 0.937 1_565 S
C718 C719 1.407 . S
C718 C720 1.383 1_565 S
C719 C718 1.407 . S
C719 C723 1.393 . S
C720 H709 0.950 . S
C720 C718 1.383 1_545 S
C720 C721 1.400 1_545 S
C721 C715 1.491 1_565 S
C721 C720 1.400 1_565 S
C721 C722 1.398 . S
C722 H710 0.950 . S
C722 C721 1.398 . S
C722 C723 1.391 . S
C723 H711 0.950 . S
C723 C719 1.393 . S
C723 C722 1.391 . S
H724 C732 0.950 . S
H725 C737 0.950 . S
H726 C734 0.950 . S
H727 C736 0.950 . S
H728 C738 0.950 . S
H729 C740 0.950 . S
H730 C742 0.950 . S
H731 C743 0.950 . S
C732 H724 0.950 . S
C732 C733 1.386 . S
C732 C734 1.391 . S
C733 C732 1.386 . S
C733 C737 1.393 . S
C734 H726 0.950 . S
C734 C732 1.391 . S
C734 C735 1.400 . S
C735 C734 1.400 . S
C735 C736 1.398 . S
C735 C741 1.491 . S
C736 H727 0.950 . S
C736 C735 1.398 . S
C736 C737 1.391 . S
C737 H725 0.950 . S
C737 C733 1.393 . S
C737 C736 1.391 . S
C738 H728 0.950 . S
C738 C739 1.386 . S
C738 C740 1.391 . S
C739 C738 1.386 . S
C739 C743 1.393 . S
C740 H729 0.950 . S
C740 C738 1.391 . S
C740 C741 1.400 . S
C741 C735 1.491 . S
C741 C740 1.400 . S
C741 C742 1.398 . S
C742 H730 0.950 . S
C742 C741 1.398 . S
C742 C743 1.391 . S
C743 H731 0.950 . S
C743 C739 1.393 . S
C743 C742 1.391 . S
H744 C752 0.950 . S
H745 C757 0.956 . S
H746 C754 0.950 . S
H747 C756 0.950 . S
H748 C758 0.950 . S
H749 C760 0.950 . S
H750 C762 0.950 . S
H751 C763 0.956 . S
C752 H744 0.950 . S
C752 C753 1.386 . S
C752 C754 1.391 . S
C753 C752 1.386 . S
C753 C757 1.393 . S
C754 H746 0.950 . S
C754 C752 1.391 . S
C754 C755 1.400 . S
C755 C754 1.400 . S
C755 C756 1.398 1_565 S
C755 C761 1.491 1_565 S
C756 H747 0.950 . S
C756 C755 1.398 1_545 S
C756 C757 1.391 1_545 S
C757 H745 0.956 . S
C757 C753 1.393 . S
C757 C756 1.391 1_565 S
C758 H748 0.950 . S
C758 C759 1.386 . S
C758 C760 1.391 . S
C759 C758 1.386 . S
C759 C763 1.393 . S
C760 H749 0.950 . S
C760 C758 1.391 . S
C760 C761 1.400 . S
C761 C755 1.491 1_545 S
C761 C760 1.400 . S
C761 C762 1.398 1_545 S
C762 H750 0.950 . S
C762 C761 1.398 1_565 S
C762 C763 1.391 1_565 S
C763 H751 0.956 . S
C763 C759 1.393 . S
C763 C762 1.391 1_545 S
H764 C772 0.950 . S
H765 C777 0.950 . S
H766 C774 0.950 . S
H767 C776 0.950 . S
H768 C778 0.950 . S
H769 C780 0.950 . S
H770 C782 0.950 . S
H771 C783 0.950 . S
C772 H764 0.950 . S
C772 C773 1.386 . S
C772 C774 1.391 . S
C773 C772 1.386 . S
C773 C777 1.393 . S
C774 H766 0.950 . S
C774 C772 1.391 . S
C774 C775 1.400 . S
C775 C774 1.400 . S
C775 C776 1.398 . S
C775 C781 1.491 . S
C776 H767 0.950 . S
C776 C775 1.398 . S
C776 C777 1.391 . S
C777 H765 0.950 . S
C777 C773 1.393 . S
C777 C776 1.391 . S
C778 H768 0.950 . S
C778 C779 1.386 . S
C778 C780 1.391 . S
C779 C778 1.386 . S
C779 C783 1.393 . S
C780 H769 0.950 . S
C780 C778 1.391 . S
C780 C781 1.400 . S
C781 C775 1.491 . S
C781 C780 1.400 . S
C781 C782 1.398 . S
C782 H770 0.950 . S
C782 C781 1.398 . S
C782 C783 1.391 . S
C783 H771 0.950 . S
C783 C779 1.393 . S
C783 C782 1.391 . S
H784 C792 0.950 . S
H785 C797 0.950 . S
H786 C794 0.950 . S
H787 C796 0.950 . S
H788 C798 0.950 . S
H789 C800 0.950 . S
H790 C802 0.950 . S
H791 C803 0.950 . S
C792 H784 0.950 . S
C792 C793 1.386 . S
C792 C794 1.391 . S
C793 C792 1.386 . S
C793 C797 1.393 . S
C794 H786 0.950 . S
C794 C792 1.391 . S
C794 C795 1.400 . S
C795 C794 1.400 . S
C795 C796 1.398 . S
C795 C801 1.491 . S
C796 H787 0.950 . S
C796 C795 1.398 . S
C796 C797 1.391 . S
C797 H785 0.950 . S
C797 C793 1.393 . S
C797 C796 1.391 . S
C798 H788 0.950 . S
C798 C799 1.386 . S
C798 C800 1.391 . S
C799 C798 1.386 . S
C799 C803 1.393 . S
C800 H789 0.950 . S
C800 C798 1.391 . S
C800 C801 1.400 . S
C801 C795 1.491 . S
C801 C800 1.400 . S
C801 C802 1.398 . S
C802 H790 0.950 . S
C802 C801 1.398 . S
C802 C803 1.391 . S
C803 H791 0.950 . S
C803 C799 1.393 . S
C803 C802 1.391 . S
H804 C812 0.950 . S
H805 C817 0.950 . S
H806 C814 0.950 . S
H807 C816 0.950 . S
H808 C818 0.950 . S
H809 C820 0.950 . S
H810 C822 0.950 . S
H811 C823 0.950 . S
C812 H804 0.950 . S
C812 C813 1.386 . S
C812 C814 1.391 . S
C813 C812 1.386 . S
C813 C817 1.393 . S
C814 H806 0.950 . S
C814 C812 1.391 . S
C814 C815 1.400 . S
C815 C814 1.400 . S
C815 C816 1.398 . S
C815 C821 1.491 . S
C816 H807 0.950 . S
C816 C815 1.398 . S
C816 C817 1.391 . S
C817 H805 0.950 . S
C817 C813 1.393 . S
C817 C816 1.391 . S
C818 H808 0.950 . S
C818 C819 1.386 . S
C818 C820 1.391 . S
C819 C818 1.386 . S
C819 C823 1.393 . S
C820 H809 0.950 . S
C820 C818 1.391 . S
C820 C821 1.400 . S
C821 C815 1.491 . S
C821 C820 1.400 . S
C821 C822 1.398 . S
C822 H810 0.950 . S
C822 C821 1.398 . S
C822 C823 1.391 . S
C823 H811 0.950 . S
C823 C819 1.393 . S
C823 C822 1.391 . S
H824 C832 0.950 . S
H825 C837 0.950 . S
H826 C834 0.950 . S
H827 C836 0.950 . S
H828 C838 0.950 . S
H829 C840 0.950 . S
H830 C842 0.950 . S
H831 C843 0.950 . S
C832 H824 0.950 . S
C832 C833 1.386 . S
C832 C834 1.391 . S
C833 C832 1.386 . S
C833 C837 1.393 . S
C834 H826 0.950 . S
C834 C832 1.391 . S
C834 C835 1.400 . S
C835 C834 1.400 . S
C835 C836 1.398 . S
C835 C841 1.491 . S
C836 H827 0.950 . S
C836 C835 1.398 . S
C836 C837 1.391 . S
C837 H825 0.950 . S
C837 C833 1.393 . S
C837 C836 1.391 . S
C838 H828 0.950 . S
C838 C839 1.386 . S
C838 C840 1.391 . S
C839 C838 1.386 . S
C839 C843 1.393 . S
C840 H829 0.950 . S
C840 C838 1.391 . S
C840 C841 1.400 . S
C841 C835 1.491 . S
C841 C840 1.400 . S
C841 C842 1.398 . S
C842 H830 0.950 . S
C842 C841 1.398 . S
C842 C843 1.391 . S
C843 H831 0.950 . S
C843 C839 1.393 . S
C843 C842 1.391 . S
H844 C852 0.950 . S
H845 C857 0.950 . S
H846 C854 0.950 . S
H847 C856 0.950 . S
H848 C858 0.950 . S
H849 C860 0.950 . S
H850 C862 0.950 . S
H851 C863 0.950 . S
C852 H844 0.950 . S
C852 C853 1.386 . S
C852 C854 1.391 . S
C853 C852 1.386 . S
C853 C857 1.393 . S
C854 H846 0.950 . S
C854 C852 1.391 . S
C854 C855 1.400 . S
C855 C854 1.400 . S
C855 C856 1.398 . S
C855 C861 1.491 . S
C856 H847 0.950 . S
C856 C855 1.398 . S
C856 C857 1.391 . S
C857 H845 0.950 . S
C857 C853 1.393 . S
C857 C856 1.391 . S
C858 H848 0.950 . S
C858 C859 1.386 . S
C858 C860 1.391 . S
C859 C858 1.386 . S
C859 C863 1.393 . S
C860 H849 0.950 . S
C860 C858 1.391 . S
C860 C861 1.400 . S
C861 C855 1.491 . S
C861 C860 1.400 . S
C861 C862 1.398 . S
C862 H850 0.950 . S
C862 C861 1.398 . S
C862 C863 1.391 . S
C863 H851 0.950 . S
C863 C859 1.393 . S
C863 C862 1.391 . S
H864 C872 0.950 . S
H865 C877 0.950 . S
H866 C874 0.950 . S
H867 C876 0.950 . S
H868 C878 0.950 . S
H869 C880 0.950 . S
H870 C882 0.950 . S
H871 C883 0.950 . S
C872 H864 0.950 . S
C872 C873 1.386 . S
C872 C874 1.391 . S
C873 C872 1.386 . S
C873 C877 1.393 1_554 S
C874 H866 0.950 . S
C874 C872 1.391 . S
C874 C875 1.420 . S
C875 C874 1.420 . S
C875 C876 1.384 1_554 S
C875 C881 1.487 1_554 S
C876 H867 0.950 . S
C876 C875 1.384 1_556 S
C876 C877 1.391 . S
C877 H865 0.950 . S
C877 C873 1.393 1_556 S
C877 C876 1.391 . S
C878 H868 0.950 . S
C878 C879 1.386 . S
C878 C880 1.391 . S
C879 C878 1.386 . S
C879 C883 1.393 1_556 S
C880 H869 0.950 . S
C880 C878 1.391 . S
C880 C881 1.415 . S
C881 C875 1.487 1_556 S
C881 C880 1.415 . S
C881 C882 1.387 1_556 S
C882 H870 0.950 . S
C882 C881 1.387 1_554 S
C882 C883 1.391 . S
C883 H871 0.950 . S
C883 C879 1.393 1_554 S
C883 C882 1.391 . S
H884 C892 0.950 . S
H885 C897 0.950 . S
H886 C894 0.950 . S
H887 C896 0.950 . S
H888 C898 0.950 . S
H889 C900 0.950 . S
H890 C902 0.950 . S
H891 C903 0.950 . S
C892 H884 0.950 . S
C892 C893 1.386 1_656 S
C892 C894 1.391 . S
C893 C892 1.386 1_454 S
C893 C897 1.393 . S
C894 H886 0.950 . S
C894 C892 1.391 . S
C894 C895 1.388 1_656 S
C895 C894 1.388 1_454 S
C895 C896 1.417 . S
C895 C901 1.487 1_454 S
C896 H887 0.950 . S
C896 C895 1.417 . S
C896 C897 1.391 . S
C897 H885 0.950 . S
C897 C893 1.393 . S
C897 C896 1.391 . S
C898 H888 0.950 . S
C898 C899 1.386 1_454 S
C898 C900 1.391 . S
C899 C898 1.386 1_656 S
C899 C903 1.393 . S
C900 H889 0.950 . S
C900 C898 1.391 . S
C900 C901 1.390 1_454 S
C901 C895 1.487 1_656 S
C901 C900 1.390 1_656 S
C901 C902 1.412 . S
C902 H890 0.950 . S
C902 C901 1.412 . S
C902 C903 1.391 . S
C903 H891 0.950 . S
C903 C899 1.393 . S
C903 C902 1.391 . S
H904 C912 0.950 . S
H905 C917 0.950 . S
H906 C914 0.950 . S
H907 C916 0.950 . S
H908 C918 0.950 . S
H909 C920 0.950 . S
H910 C922 0.950 . S
H911 C923 0.950 . S
C912 H904 0.950 . S
C912 C913 1.386 . S
C912 C914 1.391 . S
C913 C912 1.386 . S
C913 C917 1.393 . S
C914 H906 0.950 . S
C914 C912 1.391 . S
C914 C915 1.400 . S
C915 C914 1.400 . S
C915 C916 1.398 . S
C915 C921 1.491 1_565 S
C916 H907 0.950 . S
C916 C915 1.398 . S
C916 C917 1.391 . S
C917 H905 0.950 . S
C917 C913 1.393 . S
C917 C916 1.391 . S
C918 H908 0.950 . S
C918 C919 1.386 . S
C918 C920 1.391 . S
C919 C918 1.386 . S
C919 C923 1.393 . S
C920 H909 0.950 . S
C920 C918 1.391 . S
C920 C921 1.400 . S
C921 C915 1.491 1_545 S
C921 C920 1.400 . S
C921 C922 1.398 . S
C922 H910 0.950 . S
C922 C921 1.398 . S
C922 C923 1.391 . S
C923 H911 0.950 . S
C923 C919 1.393 . S
C923 C922 1.391 . S
H924 C932 0.950 . S
H925 C937 0.950 . S
H926 C934 0.950 . S
H927 C936 0.950 . S
H928 C938 0.950 . S
H929 C940 0.950 . S
H930 C942 0.950 . S
H931 C943 0.950 . S
C932 H924 0.950 . S
C932 C933 1.386 . S
C932 C934 1.391 . S
C933 C932 1.386 . S
C933 C937 1.393 . S
C934 H926 0.950 . S
C934 C932 1.391 . S
C934 C935 1.400 . S
C935 C934 1.400 . S
C935 C936 1.398 . S
C935 C941 1.491 1_645 S
C936 H927 0.950 . S
C936 C935 1.398 . S
C936 C937 1.391 . S
C937 H925 0.950 . S
C937 C933 1.393 . S
C937 C936 1.391 . S
C938 H928 0.950 . S
C938 C939 1.386 . S
C938 C940 1.391 . S
C939 C938 1.386 . S
C939 C943 1.393 . S
C940 H929 0.950 . S
C940 C938 1.391 . S
C940 C941 1.400 . S
C941 C935 1.491 1_465 S
C941 C940 1.400 . S
C941 C942 1.398 . S
C942 H930 0.950 . S
C942 C941 1.398 . S
C942 C943 1.391 . S
C943 H931 0.950 . S
C943 C939 1.393 . S
C943 C942 1.391 . S
H944 C952 0.950 . S
H945 C957 0.950 . S
H946 C954 0.950 . S
H947 C956 0.950 . S
H948 C958 0.950 . S
H949 C960 0.950 . S
H950 C962 0.950 . S
H951 C963 0.950 . S
C952 H944 0.950 . S
C952 C953 1.386 . S
C952 C954 1.391 . S
C953 C952 1.386 . S
C953 C957 1.393 . S
C954 H946 0.950 . S
C954 C952 1.391 . S
C954 C955 1.400 . S
C955 C954 1.400 . S
C955 C956 1.398 . S
C955 C961 1.491 . S
C956 H947 0.950 . S
C956 C955 1.398 . S
C956 C957 1.391 . S
C957 H945 0.950 . S
C957 C953 1.393 . S
C957 C956 1.391 . S
C958 H948 0.950 . S
C958 C959 1.386 . S
C958 C960 1.391 . S
C959 C958 1.386 . S
C959 C963 1.393 . S
C960 H949 0.950 . S
C960 C958 1.391 . S
C960 C961 1.400 . S
C961 C955 1.491 . S
C961 C960 1.400 . S
C961 C962 1.398 . S
C962 H950 0.950 . S
C962 C961 1.398 . S
C962 C963 1.391 . S
C963 H951 0.950 . S
C963 C959 1.393 . S
C963 C962 1.391 . S
H964 C972 0.950 . S
H965 C977 0.950 . S
H966 C974 0.950 . S
H967 C976 0.950 . S
H968 C978 0.950 . S
H969 C980 0.950 . S
H970 C982 0.950 . S
H971 C983 0.950 . S
C972 H964 0.950 . S
C972 C973 1.386 . S
C972 C974 1.391 . S
C973 C972 1.386 . S
C973 C977 1.393 . S
C974 H966 0.950 . S
C974 C972 1.391 . S
C974 C975 1.400 . S
C975 C974 1.400 . S
C975 C976 1.398 . S
C975 C981 1.491 1_545 S
C976 H967 0.950 . S
C976 C975 1.398 . S
C976 C977 1.391 . S
C977 H965 0.950 . S
C977 C973 1.393 . S
C977 C976 1.391 . S
C978 H968 0.950 . S
C978 C979 1.386 . S
C978 C980 1.391 . S
C979 C978 1.386 . S
C979 C983 1.393 . S
C980 H969 0.950 . S
C980 C978 1.391 . S
C980 C981 1.400 . S
C981 C975 1.491 1_565 S
C981 C980 1.400 . S
C981 C982 1.398 . S
C982 H970 0.950 . S
C982 C981 1.398 . S
C982 C983 1.391 . S
C983 H971 0.950 . S
C983 C979 1.393 . S
C983 C982 1.391 . S
H984 C992 0.950 . S
H985 C997 0.950 . S
H986 C994 0.950 . S
H987 C996 0.950 . S
H988 C998 0.950 . S
H989 C1000 0.950 . S
H990 C1002 0.950 . S
H991 C1003 0.950 . S
C992 H984 0.950 . S
C992 C993 1.386 . S
C992 C994 1.391 . S
C993 C992 1.386 . S
C993 C997 1.393 . S
C994 H986 0.950 . S
C994 C992 1.391 . S
C994 C995 1.400 . S
C995 C994 1.400 . S
C995 C996 1.398 . S
C995 C1001 1.491 . S
C996 H987 0.950 . S
C996 C995 1.398 . S
C996 C997 1.391 . S
C997 H985 0.950 . S
C997 C993 1.393 . S
C997 C996 1.391 . S
C998 H988 0.950 . S
C998 C999 1.386 . S
C998 C1000 1.391 . S
C999 C998 1.386 . S
C999 C1003 1.393 . S
C1000 H989 0.950 . S
C1000 C998 1.391 . S
C1000 C1001 1.400 . S
C1001 C995 1.491 . S
C1001 C1000 1.400 . S
C1001 C1002 1.398 . S
C1002 H990 0.950 . S
C1002 C1001 1.398 . S
C1002 C1003 1.391 . S
C1003 H991 0.950 . S
C1003 C999 1.393 . S
C1003 C1002 1.391 . S
H1004 C1012 0.950 . S
H1005 C1017 0.950 . S
H1006 C1014 0.950 1_545 S
H1007 C1016 0.950 . S
H1008 C1018 0.950 . S
H1009 C1020 0.950 1_565 S
H1010 C1022 0.950 . S
H1011 C1023 0.950 . S
C1012 H1004 0.950 . S
C1012 C1013 1.386 . S
C1012 C1014 1.391 . S
C1013 C1012 1.386 . S
C1013 C1017 1.393 . S
C1014 H1006 0.950 1_565 S
C1014 C1012 1.391 . S
C1014 C1015 1.400 . S
C1015 C1014 1.400 . S
C1015 C1016 1.398 . S
C1015 C1021 1.491 1_565 S
C1016 H1007 0.950 . S
C1016 C1015 1.398 . S
C1016 C1017 1.391 . S
C1017 H1005 0.950 . S
C1017 C1013 1.393 . S
C1017 C1016 1.391 . S
C1018 H1008 0.950 . S
C1018 C1019 1.386 . S
C1018 C1020 1.391 . S
C1019 C1018 1.386 . S
C1019 C1023 1.393 . S
C1020 H1009 0.950 1_545 S
C1020 C1018 1.391 . S
C1020 C1021 1.400 . S
C1021 C1015 1.491 1_545 S
C1021 C1020 1.400 . S
C1021 C1022 1.398 . S
C1022 H1010 0.950 . S
C1022 C1021 1.398 . S
C1022 C1023 1.391 . S
C1023 H1011 0.950 . S
C1023 C1019 1.393 . S
C1023 C1022 1.391 . S
C713 C49 1.916 . S
C719 C137 1.926 . S
C733 C284 1.943 . S
C739 C205 1.938 . S
C753 C401 1.947 . S
C759 C489 1.953 . S
C773 C557 1.939 . S
C779 C636 1.950 . S
C793 C29 1.614 . S
C799 C225 1.624 . S
C813 C321 1.618 . S
C819 C117 1.613 . S
C833 C409 1.623 . S
C839 C548 1.611 . S
C853 C645 1.623 . S
C859 C497 1.613 . S
C873 C20 2.262 . S
C879 C372 2.256 . S
C893 C108 2.253 . S
C899 C460 2.247 . S
C913 C585 2.259 . S
C919 C233 2.265 . S
C933 C665 2.234 . S
C939 C313 2.241 . S
C953 C145 0.176 . S
C959 C57 0.095 . S
C973 C196 0.132 . S
C979 C293 0.130 . S
C993 C381 0.171 . S
C999 C469 0.095 . S
C1013 C577 0.080 . S
C1019 C673 0.168 . S
