# Generated by pormake.
# Topology umx, (4)-cn, num edge types: 1
# Building blocks:
#     Node 0, Type 0, BuildingBlock: MUDLON_clean_sbu_0, # of connection points: 4
#     Node 1, Type 0, BuildingBlock: MUDLON_clean_sbu_0, # of connection points: 4
#     Node 2, Type 0, BuildingBlock: MUDLON_clean_sbu_0, # of connection points: 4
#     Node 3, Type 0, BuildingBlock: MUDLON_clean_sbu_0, # of connection points: 4
#     Node 4, Type 0, BuildingBlock: MUDLON_clean_sbu_0, # of connection points: 4
#     Node 5, Type 0, BuildingBlock: MUDLON_clean_sbu_0, # of connection points: 4
#     Node 6, Type 0, BuildingBlock: MUDLON_clean_sbu_0, # of connection points: 4
#     Node 7, Type 0, BuildingBlock: MUDLON_clean_sbu_0, # of connection points: 4
#     Edge 8, Type (0, 0), BuildingBlock: XIVTED_clean_linker_0, # of connection points: 2
#     Edge 9, Type (0, 0), BuildingBlock: XIVTED_clean_linker_0, # of connection points: 2
#     Edge 10, Type (0, 0), BuildingBlock: XIVTED_clean_linker_0, # of connection points: 2
#     Edge 11, Type (0, 0), BuildingBlock: XIVTED_clean_linker_0, # of connection points: 2
#     Edge 12, Type (0, 0), BuildingBlock: XIVTED_clean_linker_0, # of connection points: 2
#     Edge 13, Type (0, 0), BuildingBlock: XIVTED_clean_linker_0, # of connection points: 2
#     Edge 14, Type (0, 0), BuildingBlock: XIVTED_clean_linker_0, # of connection points: 2
#     Edge 15, Type (0, 0), BuildingBlock: XIVTED_clean_linker_0, # of connection points: 2
#     Edge 16, Type (0, 0), BuildingBlock: XIVTED_clean_linker_0, # of connection points: 2
#     Edge 17, Type (0, 0), BuildingBlock: XIVTED_clean_linker_0, # of connection points: 2
#     Edge 18, Type (0, 0), BuildingBlock: XIVTED_clean_linker_0, # of connection points: 2
#     Edge 19, Type (0, 0), BuildingBlock: XIVTED_clean_linker_0, # of connection points: 2
#     Edge 20, Type (0, 0), BuildingBlock: XIVTED_clean_linker_0, # of connection points: 2
#     Edge 21, Type (0, 0), BuildingBlock: XIVTED_clean_linker_0, # of connection points: 2
#     Edge 22, Type (0, 0), BuildingBlock: XIVTED_clean_linker_0, # of connection points: 2
#     Edge 23, Type (0, 0), BuildingBlock: XIVTED_clean_linker_0, # of connection points: 2
# Relax obj value: 0.023
# Max RMSD: 0.223
# Mean RMSD: 0.222
data_MOF--net-umx--node1-MUDLON_clean_sbu_0--edge1-XIVTED_clean_linker_0
_symmetry_space_group_name_H-M    P1
_symmetry_Int_Tables_number       1
_symmetry_cell_setting            triclinic
loop_
_symmetry_equiv_pos_as_xyz
'x, y, z'
_cell_length_a     40.721078
_cell_length_b     41.042033
_cell_length_c     30.087428
_cell_angle_alpha  90.90949
_cell_angle_beta   90.500298
_cell_angle_gamma 90.021883
loop_
_atom_site_label
_atom_site_type_symbol
_atom_site_fract_x
_atom_site_fract_y
_atom_site_fract_z
_atom_type_partial_charge
Mg0 Mg 0.18064 0.44354 0.02179 0.0
C1 C 0.11703 0.47453 0.99894 0.0
O2 O 0.13821 0.49393 0.97998 0.0
C3 C 0.19734 0.37322 0.05218 0.0
O4 O 0.18611 0.38228 0.09126 0.0
C5 C 0.21684 0.45814 0.11113 0.0
O6 O 0.23554 0.43329 0.10004 0.0
O7 O 0.19495 0.46784 0.08395 0.0
O8 O 0.12763 0.44934 1.01858 0.0
O9 O 0.2001 0.46485 0.96149 0.0
C10 C 0.19852 0.44658 0.92692 0.0
O11 O 0.18707 0.41683 0.93077 0.0
O12 O 0.19643 0.39303 1.02016 0.0
Mg13 Mg 0.54524 0.18688 0.54417 0.0
C14 C 0.53533 0.18601 0.44719 0.0
O15 O 0.55914 0.16498 0.45376 0.0
C16 C 0.53354 0.21205 0.63745 0.0
O17 O 0.56491 0.21877 0.6336 0.0
C18 C 0.60611 0.22521 0.51947 0.0
O19 O 0.58849 0.23028 0.4835 0.0
O20 O 0.59458 0.20728 0.54969 0.0
O21 O 0.523 0.20055 0.48082 0.0
O22 O 0.54538 0.13408 0.54338 0.0
C23 C 0.51713 0.12107 0.53941 0.0
O24 O 0.49132 0.14013 0.53623 0.0
O25 O 0.51801 0.20041 0.60386 0.0
Mg26 Mg 0.81495 0.55209 0.05734 0.0
C27 C 0.8845 0.55307 0.02316 0.0
O28 O 0.86976 0.56699 0.9894 0.0
C29 C 0.79352 0.61825 0.0239 0.0
O30 O 0.79727 0.60356 0.98516 0.0
C31 C 0.79907 0.54856 0.15315 0.0
O32 O 0.80936 0.57869 0.14893 0.0
O33 O 0.79748 0.53027 0.11857 0.0
O34 O 0.86779 0.54586 0.0571 0.0
O35 O 0.79745 0.53081 0.99449 0.0
C36 C 0.81235 0.50614 0.97841 0.0
O37 O 0.83476 0.49178 1.00293 0.0
O38 O 0.80055 0.60296 0.05912 0.0
Mg39 Mg 0.4569 0.81262 0.52634 0.0
C40 C 0.4693 0.78603 0.43373 0.0
O41 O 0.43846 0.77735 0.43813 0.0
C42 C 0.4638 0.80963 0.6235 0.0
O43 O 0.437 0.82686 0.61723 0.0
C44 C 0.40101 0.76772 0.54627 0.0
O45 O 0.42333 0.75718 0.57434 0.0
O46 O 0.40786 0.79162 0.52164 0.0
O47 O 0.48418 0.79934 0.4667 0.0
O48 O 0.45631 0.86541 0.52765 0.0
C49 C 0.4845 0.87848 0.532 0.0
O50 O 0.51035 0.85949 0.53526 0.0
O51 O 0.47922 0.79904 0.58959 0.0
Mg52 Mg 0.1912 0.54178 0.52483 0.0
C53 C 0.18702 0.53042 0.42824 0.0
O54 O 0.16242 0.55014 0.43704 0.0
C55 C 0.20843 0.53327 0.61912 0.0
O56 O 0.20209 0.56454 0.61612 0.0
C57 C 0.22039 0.60837 0.49961 0.0
O58 O 0.21458 0.59853 0.45856 0.0
O59 O 0.21195 0.59043 0.53162 0.0
O60 O 0.20501 0.52097 0.46037 0.0
O61 O 0.13802 0.54141 0.52755 0.0
C62 C 0.12497 0.51326 0.52595 0.0
O63 O 0.14417 0.48763 0.52254 0.0
O64 O 0.20707 0.51565 0.5839 0.0
Mg65 Mg 0.43973 0.18166 0.04339 0.0
C66 C 0.44938 0.20901 0.13641 0.0
O67 O 0.41787 0.21468 0.13097 0.0
C68 C 0.45233 0.18133 0.94687 0.0
O69 O 0.4326 0.15637 0.95212 0.0
C70 C 0.37371 0.20997 1.01512 0.0
O71 O 0.38839 0.21077 0.97648 0.0
O72 O 0.38884 0.19795 0.04816 0.0
O73 O 0.46562 0.19724 0.10393 0.0
O74 O 0.44468 0.12904 0.04198 0.0
C75 C 0.47418 0.11905 0.03942 0.0
O76 O 0.49791 0.14071 0.03804 0.0
O77 O 0.46089 0.19809 0.98104 0.0
Mg78 Mg 0.8154 0.45131 0.55431 0.0
C79 C 0.88135 0.47991 0.54786 0.0
O80 O 0.86222 0.50552 0.55223 0.0
C81 C 0.78347 0.38636 0.57977 0.0
O82 O 0.78615 0.39829 0.62038 0.0
C83 C 0.79585 0.46096 0.46127 0.0
O84 O 0.80295 0.42981 0.46354 0.0
O85 O 0.79747 0.47825 0.4968 0.0
O86 O 0.86836 0.45172 0.54743 0.0
O87 O 0.80516 0.47025 0.62131 0.0
C88 C 0.82442 0.45853 0.65058 0.0
O89 O 0.84758 0.43839 0.63737 0.0
O90 O 0.79471 0.40252 0.54756 0.0
Mg91 Mg 0.56091 0.81729 0.02701 0.0
C92 C 0.54734 0.81858 0.12331 0.0
O93 O 0.56522 0.84481 0.11755 0.0
C94 C 0.55202 0.79127 0.93365 0.0
O95 O 0.58392 0.78814 0.93866 0.0
C96 C 0.62935 0.7942 0.0562 0.0
O97 O 0.61812 0.80071 0.09613 0.0
O98 O 0.61146 0.80025 0.02249 0.0
O99 O 0.54011 0.80083 0.08952 0.0
O100 O 0.55613 0.86992 0.02767 0.0
C101 C 0.5266 0.87994 0.0294 0.0
O102 O 0.50284 0.8583 0.03042 0.0
O103 O 0.5351 0.80118 0.96661 0.0
H104 H 0.25341 0.4375 0.18277 0.0
H105 H 0.15644 0.55256 0.35385 0.0
H106 H 0.18134 0.50923 0.14486 0.0
H107 H 0.23323 0.48705 0.3957 0.0
H108 H 0.16696 0.53741 0.27695 0.0
H109 H 0.24874 0.45624 0.26025 0.0
C110 C 0.23692 0.45744 0.19057 0.0
C111 C 0.21758 0.47166 0.15717 0.0
C112 C 0.18165 0.52633 0.30279 0.0
C113 C 0.21191 0.49297 0.24583 0.0
C114 C 0.17557 0.53491 0.34691 0.0
C115 C 0.19387 0.52095 0.38146 0.0
C116 C 0.20615 0.50339 0.29272 0.0
C117 C 0.21846 0.49836 0.37015 0.0
C118 C 0.23419 0.46803 0.23487 0.0
C119 C 0.19661 0.49736 0.16937 0.0
N120 N 0.2238 0.49015 0.3267 0.0
N121 N 0.19421 0.50698 0.21261 0.0
H122 H 0.47307 0.18898 0.66153 0.0
H123 H 0.50072 0.22433 0.92231 0.0
H124 H 0.55912 0.23751 0.71506 0.0
H125 H 0.42783 0.15813 0.86799 0.0
H126 H 0.51828 0.23627 0.84635 0.0
H127 H 0.45146 0.18509 0.73681 0.0
C128 C 0.48724 0.19921 0.689 0.0
C129 C 0.5181 0.21335 0.68192 0.0
C130 C 0.49836 0.21924 0.85118 0.0
C131 C 0.49359 0.20875 0.76837 0.0
C132 C 0.48832 0.21245 0.89448 0.0
C133 C 0.46295 0.19001 0.90156 0.0
C134 C 0.48265 0.20373 0.81477 0.0
C135 C 0.44771 0.17537 0.86424 0.0
C136 C 0.47497 0.19681 0.73205 0.0
C137 C 0.53533 0.22618 0.71894 0.0
N138 N 0.45779 0.18246 0.82259 0.0
N139 N 0.52294 0.22341 0.76056 0.0
H140 H 0.79332 0.52586 0.43888 0.0
H141 H 0.78409 0.48583 0.17699 0.0
H142 H 0.78442 0.42882 0.3827 0.0
H143 H 0.7989 0.58252 0.23208 0.0
H144 H 0.77792 0.46528 0.25242 0.0
H145 H 0.78904 0.54794 0.36374 0.0
C146 C 0.79006 0.50923 0.41088 0.0
C147 C 0.78952 0.47543 0.41713 0.0
C148 C 0.7823 0.49105 0.24798 0.0
C149 C 0.78481 0.50045 0.33106 0.0
C150 C 0.78576 0.50279 0.20486 0.0
C151 C 0.79231 0.5359 0.19811 0.0
C152 C 0.7854 0.51255 0.28469 0.0
C153 C 0.79414 0.55674 0.23561 0.0
C154 C 0.78774 0.52182 0.36795 0.0
C155 C 0.78529 0.45504 0.37953 0.0
N156 N 0.79092 0.54471 0.2772 0.0
N157 N 0.78331 0.46782 0.33822 0.0
H158 H 0.58119 0.76903 0.85743 0.0
H159 H 0.43208 0.82339 0.70105 0.0
H160 H 0.4891 0.80611 0.90701 0.0
H161 H 0.5214 0.78057 0.65069 0.0
H162 H 0.45158 0.81445 0.77665 0.0
H163 H 0.55864 0.76975 0.78199 0.0
C164 C 0.55609 0.77701 0.85255 0.0
C165 C 0.5371 0.78775 0.88869 0.0
C166 C 0.46691 0.80684 0.74915 0.0
C167 C 0.5112 0.78891 0.80209 0.0
C168 C 0.45582 0.81201 0.70585 0.0
C169 C 0.47524 0.80292 0.66936 0.0
C170 C 0.49781 0.79262 0.75629 0.0
C171 C 0.50566 0.78806 0.67779 0.0
C172 C 0.54325 0.77746 0.80937 0.0
C173 C 0.50469 0.79769 0.88023 0.0
N174 N 0.5161 0.78357 0.72038 0.0
N175 N 0.49289 0.79829 0.8378 0.0
H176 H 0.85748 0.43034 0.71874 0.0
H177 H 0.77538 0.53613 0.91354 0.0
H178 H 0.7818 0.50135 0.69284 0.0
H179 H 0.8417 0.45563 0.93407 0.0
H180 H 0.77574 0.52399 0.83336 0.0
H181 H 0.85115 0.44008 0.7979 0.0
C182 C 0.83948 0.4481 0.72966 0.0
C183 C 0.82022 0.46513 0.69887 0.0
C184 C 0.78994 0.50884 0.85553 0.0
C185 C 0.81277 0.47648 0.79044 0.0
C186 C 0.78966 0.51566 0.90134 0.0
C187 C 0.80867 0.49696 0.93069 0.0
C188 C 0.80947 0.48325 0.83899 0.0
C189 C 0.82677 0.47084 0.91287 0.0
C190 C 0.83579 0.45357 0.77511 0.0
C191 C 0.79722 0.48771 0.71536 0.0
N192 N 0.82688 0.46495 0.86833 0.0
N193 N 0.79422 0.49285 0.76008 0.0
H194 H 0.50222 0.77248 0.14882 0.0
H195 H 0.52813 0.81231 0.4087 0.0
H196 H 0.56991 0.84451 0.20163 0.0
H197 H 0.44499 0.75809 0.35684 0.0
H198 H 0.5491 0.81671 0.33322 0.0
H199 H 0.48567 0.76012 0.2251 0.0
C200 C 0.51368 0.78557 0.17638 0.0
C201 C 0.53729 0.80975 0.16879 0.0
C202 C 0.52639 0.80363 0.33838 0.0
C203 C 0.51877 0.79555 0.25589 0.0
C204 C 0.51448 0.80095 0.38155 0.0
C205 C 0.48458 0.78505 0.38916 0.0
C206 C 0.50838 0.79023 0.30244 0.0
C207 C 0.46802 0.77079 0.35254 0.0
C208 C 0.50422 0.77854 0.21985 0.0
C209 C 0.55139 0.8259 0.20577 0.0
N210 N 0.48003 0.77388 0.31075 0.0
N211 N 0.54193 0.81853 0.24758 0.0
H212 H 0.21487 0.50903 0.90364 0.0
H213 H 0.21037 0.46852 0.64189 0.0
H214 H 0.19995 0.41244 0.84824 0.0
H215 H 0.21822 0.56572 0.6979 0.0
H216 H 0.21323 0.44663 0.71717 0.0
H217 H 0.22279 0.5294 0.82846 0.0
C218 C 0.21357 0.49205 0.87575 0.0
C219 C 0.20646 0.45903 0.88229 0.0
C220 C 0.21459 0.47274 0.71291 0.0
C221 C 0.21534 0.48217 0.79606 0.0
C222 C 0.21308 0.48523 0.66991 0.0
C223 C 0.21375 0.51901 0.66356 0.0
C224 C 0.21686 0.4942 0.74976 0.0
C225 C 0.21728 0.53951 0.70117 0.0
C226 C 0.21802 0.50369 0.83279 0.0
C227 C 0.20511 0.43815 0.84483 0.0
N228 N 0.21849 0.52681 0.74256 0.0
N229 N 0.20929 0.45009 0.80338 0.0
H230 H 0.56379 0.16588 0.36985 0.0
H231 H 0.42187 0.23427 0.21226 0.0
H232 H 0.48189 0.22191 0.41954 0.0
H233 H 0.51061 0.18916 0.16367 0.0
H234 H 0.44403 0.23211 0.28792 0.0
H235 H 0.54509 0.17567 0.29416 0.0
C236 C 0.54183 0.18031 0.36488 0.0
C237 C 0.52427 0.19293 0.40123 0.0
C238 C 0.45879 0.22298 0.26068 0.0
C239 C 0.50261 0.20424 0.31413 0.0
C240 C 0.44618 0.22423 0.21739 0.0
C241 C 0.46431 0.21167 0.18147 0.0
C242 C 0.48968 0.20883 0.26826 0.0
C243 C 0.4957 0.19907 0.19025 0.0
C244 C 0.53123 0.18599 0.32151 0.0
C245 C 0.49615 0.21165 0.39255 0.0
N246 N 0.50723 0.1977 0.23275 0.0
N247 N 0.48605 0.21655 0.34988 0.0
H248 H 0.92895 0.56849 0.95903 0.0
H249 H 0.06839 0.44893 0.05061 0.0
H250 H 0.91883 0.51317 0.079 0.0
H251 H 0.0859 0.52168 0.95149 0.0
H252 H 0.0116 0.46808 0.05659 0.0
H253 H 0.98511 0.54817 0.95166 0.0
C254 C 0.93858 0.55221 0.98395 0.0
C255 C 0.91917 0.54261 1.01976 0.0
C256 C 0.02789 0.47977 0.03347 0.0
C257 C 0.9833 0.51892 1.0112 0.0
C258 C 0.06023 0.46872 0.02984 0.0
C259 C 0.08195 0.4838 1.00061 0.0
C260 C 0.01714 0.50587 1.0074 0.0
C261 C 0.07007 0.50943 0.97463 0.0
C262 C 0.97063 0.54058 0.97969 0.0
C263 C 0.93295 0.52137 0.05098 0.0
N264 N 0.0385 0.51964 0.97863 0.0
N265 N 0.9641 0.51012 0.04586 0.0
H266 H 0.4368 0.92559 0.52618 0.0
H267 H 0.56477 0.07392 0.54518 0.0
H268 H 0.5416 0.91305 0.54054 0.0
H269 H 0.45994 0.08656 0.53132 0.0
H270 H 0.55678 0.01484 0.5435 0.0
H271 H 0.44473 0.9847 0.52801 0.0
C272 C 0.46146 0.93525 0.52973 0.0
C273 C 0.48856 0.91432 0.5332 0.0
C274 C 0.53553 0.03055 0.54083 0.0
C275 C 0.49784 0.98193 0.5353 0.0
C276 C 0.54009 0.0643 0.54178 0.0
C277 C 0.513 0.08525 0.5384 0.0
C278 C 0.50365 0.01765 0.53645 0.0
C279 C 0.48157 0.07137 0.53404 0.0
C280 C 0.46598 0.969 0.53077 0.0
C281 C 0.51996 0.92822 0.53775 0.0
N282 N 0.47777 0.03849 0.5332 0.0
N283 N 0.52373 0.96111 0.53865 0.0
H284 H 0.07756 0.56054 0.53356 0.0
H285 H 0.92868 0.43267 0.53879 0.0
H286 H 0.09026 0.45625 0.52383 0.0
H287 H 0.91594 0.53698 0.54789 0.0
H288 H 0.98798 0.4408 0.53273 0.0
H289 H 0.01818 0.55245 0.53828 0.0
C290 C 0.06788 0.53596 0.53237 0.0
C291 C 0.08894 0.50904 0.52834 0.0
C292 C 0.97219 0.46191 0.53603 0.0
C293 C 0.021 0.49957 0.53376 0.0
C294 C 0.93833 0.45727 0.53948 0.0
C295 C 0.91729 0.48417 0.54388 0.0
C296 C 0.98514 0.49368 0.53699 0.0
C297 C 0.93119 0.5155 0.54458 0.0
C298 C 0.03397 0.53133 0.53507 0.0
C299 C 0.075 0.47773 0.52694 0.0
N300 N 0.9642 0.51938 0.5412 0.0
N301 N 0.04195 0.47387 0.52969 0.0
H302 H 0.46596 0.90818 0.03347 0.0
H303 H 0.5348 0.09083 0.03433 0.0
H304 H 0.56912 0.93195 0.02823 0.0
H305 H 0.4317 0.06703 0.04087 0.0
H306 H 0.54777 0.03284 0.03171 0.0
H307 H 0.45299 0.96617 0.03581 0.0
C308 C 0.48593 0.92559 0.03279 0.0
C309 C 0.51872 0.91514 0.03064 0.0
C310 C 0.52231 0.04026 0.03372 0.0
C311 C 0.50396 0.98176 0.03334 0.0
C312 C 0.51484 0.07342 0.03522 0.0
C313 C 0.48207 0.08386 0.03785 0.0
C314 C 0.49684 0.01724 0.03484 0.0
C315 C 0.45729 0.06011 0.03888 0.0
C316 C 0.47847 0.95875 0.03414 0.0
C317 C 0.54352 0.93887 0.02987 0.0
N318 N 0.4652 0.02792 0.03737 0.0
N319 N 0.53561 0.97107 0.03122 0.0
H320 H 0.2155 0.34357 0.97446 0.0
H321 H 0.34055 0.22227 0.09282 0.0
H322 H 0.22154 0.33287 0.11678 0.0
H323 H 0.33432 0.23617 0.95107 0.0
H324 H 0.29163 0.25629 0.10216 0.0
H325 H 0.25305 0.29785 0.96528 0.0
C326 C 0.22443 0.33133 1.00383 0.0
C327 C 0.2157 0.34236 0.0465 0.0
C328 C 0.30076 0.25155 0.06898 0.0
C329 C 0.25919 0.29008 0.03622 0.0
C330 C 0.32866 0.23208 0.06361 0.0
C331 C 0.34182 0.22669 0.02112 0.0
C332 C 0.28596 0.26572 0.03162 0.0
C333 C 0.32531 0.23994 0.98449 0.0
C334 C 0.24594 0.3052 0.99855 0.0
C335 C 0.22776 0.32529 0.08328 0.0
N336 N 0.29847 0.25906 0.99064 0.0
N337 N 0.24929 0.30026 0.07732 0.0
H338 H 0.7561 0.34528 0.64017 0.0
H339 H 0.64102 0.25913 0.45844 0.0
H340 H 0.76494 0.36025 0.49905 0.0
H341 H 0.64216 0.23223 0.59656 0.0
H342 H 0.68907 0.29344 0.47217 0.0
H343 H 0.71732 0.30098 0.6247 0.0
C344 C 0.7502 0.33902 0.60591 0.0
C345 C 0.76352 0.35678 0.57088 0.0
C346 C 0.67907 0.27978 0.49942 0.0
C347 C 0.71891 0.30628 0.55297 0.0
C348 C 0.65156 0.26021 0.49161 0.0
C349 C 0.63735 0.24303 0.5265 0.0
C350 C 0.6923 0.28256 0.54259 0.0
C351 C 0.65224 0.24516 0.56872 0.0
C352 C 0.72805 0.3137 0.59711 0.0
C353 C 0.75513 0.34741 0.52715 0.0
N354 N 0.67868 0.2649 0.57571 0.0
N355 N 0.73307 0.32308 0.51948 0.0
H356 H 0.76893 0.65501 0.95597 0.0
H357 H 0.6719 0.77402 0.12117 0.0
H358 H 0.77961 0.65425 0.09885 0.0
H359 H 0.6569 0.7713 0.97892 0.0
H360 H 0.71799 0.73652 0.11246 0.0
H361 H 0.73464 0.70366 0.9627 0.0
C362 C 0.76444 0.6653 0.98873 0.0
C363 C 0.7768 0.65023 0.02694 0.0
C364 C 0.70486 0.7444 0.08309 0.0
C365 C 0.73737 0.70583 0.03489 0.0
C366 C 0.67854 0.76589 0.08803 0.0
C367 C 0.66017 0.77548 0.05078 0.0
C368 C 0.71284 0.73229 0.04061 0.0
C369 C 0.67014 0.76431 1.00864 0.0
C370 C 0.74479 0.69307 0.99255 0.0
C371 C 0.77032 0.66481 0.06849 0.0
N372 N 0.69555 0.74302 1.00475 0.0
N373 N 0.75078 0.69157 0.07137 0.0
H374 H 0.35701 0.76913 0.4766 0.0
H375 H 0.2433 0.63106 0.58004 0.0
H376 H 0.37349 0.72602 0.60478 0.0
H377 H 0.24425 0.65229 0.43993 0.0
H378 H 0.28286 0.6748 0.5934 0.0
H379 H 0.30788 0.735 0.46668 0.0
C380 C 0.35005 0.75283 0.50287 0.0
C381 C 0.3695 0.75014 0.54139 0.0
C382 C 0.27418 0.67009 0.55978 0.0
C383 C 0.3135 0.71131 0.53035 0.0
C384 C 0.25149 0.64516 0.5521 0.0
C385 C 0.24075 0.63766 0.50866 0.0
C386 C 0.2862 0.68779 0.52386 0.0
C387 C 0.25212 0.65699 0.47388 0.0
C388 C 0.32214 0.73331 0.49711 0.0
C389 C 0.35941 0.72861 0.57435 0.0
N390 N 0.27446 0.68103 0.48218 0.0
N391 N 0.33219 0.70997 0.56801 0.0
loop_
_geom_bond_atom_site_label_1
_geom_bond_atom_site_label_2
_geom_bond_distance
_geom_bond_site_symmetry_2
_ccdc_geom_bond_type
Mg0 O7 2.141 . S
Mg0 O8 2.048 . S
Mg0 O9 2.048 1_554 S
Mg0 O12 2.141 . S
C1 O2 1.313 . S
C1 O8 1.195 . S
O2 C1 1.313 . S
C3 O4 1.245 . S
C3 O12 1.289 . S
O4 C3 1.245 . S
C5 O6 1.245 . S
C5 O7 1.289 . S
O6 C5 1.245 . S
O7 Mg0 2.141 . S
O7 C5 1.289 . S
O8 Mg0 2.048 . S
O8 C1 1.195 . S
O9 Mg0 2.048 1_556 S
O9 C10 1.195 . S
C10 O9 1.195 . S
C10 O11 1.313 . S
O11 C10 1.313 . S
O12 Mg0 2.141 . S
O12 C3 1.289 . S
Mg13 O20 2.141 . S
Mg13 O21 2.048 . S
Mg13 O22 2.048 . S
Mg13 O25 2.141 . S
C14 O15 1.313 . S
C14 O21 1.195 . S
O15 C14 1.313 . S
C16 O17 1.245 . S
C16 O25 1.289 . S
O17 C16 1.245 . S
C18 O19 1.245 . S
C18 O20 1.289 . S
O19 C18 1.245 . S
O20 Mg13 2.141 . S
O20 C18 1.289 . S
O21 Mg13 2.048 . S
O21 C14 1.195 . S
O22 Mg13 2.048 . S
O22 C23 1.195 . S
C23 O22 1.195 . S
C23 O24 1.313 . S
O24 C23 1.313 . S
O25 Mg13 2.141 . S
O25 C16 1.289 . S
Mg26 O33 2.141 . S
Mg26 O34 2.048 . S
Mg26 O35 2.048 1_554 S
Mg26 O38 2.141 . S
C27 O28 1.313 . S
C27 O34 1.195 . S
O28 C27 1.313 . S
C29 O30 1.245 . S
C29 O38 1.289 . S
O30 C29 1.245 . S
C31 O32 1.245 . S
C31 O33 1.289 . S
O32 C31 1.245 . S
O33 Mg26 2.141 . S
O33 C31 1.289 . S
O34 Mg26 2.048 . S
O34 C27 1.195 . S
O35 Mg26 2.048 1_556 S
O35 C36 1.195 . S
C36 O35 1.195 . S
C36 O37 1.313 . S
O37 C36 1.313 . S
O38 Mg26 2.141 . S
O38 C29 1.289 . S
Mg39 O46 2.141 . S
Mg39 O47 2.048 . S
Mg39 O48 2.048 . S
Mg39 O51 2.141 . S
C40 O41 1.313 . S
C40 O47 1.195 . S
O41 C40 1.313 . S
C42 O43 1.245 . S
C42 O51 1.289 . S
O43 C42 1.245 . S
C44 O45 1.245 . S
C44 O46 1.289 . S
O45 C44 1.245 . S
O46 Mg39 2.141 . S
O46 C44 1.289 . S
O47 Mg39 2.048 . S
O47 C40 1.195 . S
O48 Mg39 2.048 . S
O48 C49 1.195 . S
C49 O48 1.195 . S
C49 O50 1.313 . S
O50 C49 1.313 . S
O51 Mg39 2.141 . S
O51 C42 1.289 . S
Mg52 O59 2.141 . S
Mg52 O60 2.048 . S
Mg52 O61 2.048 . S
Mg52 O64 2.141 . S
C53 O54 1.313 . S
C53 O60 1.195 . S
O54 C53 1.313 . S
C55 O56 1.245 . S
C55 O64 1.289 . S
O56 C55 1.245 . S
C57 O58 1.245 . S
C57 O59 1.289 . S
O58 C57 1.245 . S
O59 Mg52 2.141 . S
O59 C57 1.289 . S
O60 Mg52 2.048 . S
O60 C53 1.195 . S
O61 Mg52 2.048 . S
O61 C62 1.195 . S
C62 O61 1.195 . S
C62 O63 1.313 . S
O63 C62 1.313 . S
O64 Mg52 2.141 . S
O64 C55 1.289 . S
Mg65 O72 2.141 . S
Mg65 O73 2.048 . S
Mg65 O74 2.048 . S
Mg65 O77 2.141 1_554 S
C66 O67 1.313 . S
C66 O73 1.195 . S
O67 C66 1.313 . S
C68 O69 1.245 . S
C68 O77 1.289 . S
O69 C68 1.245 . S
C70 O71 1.245 . S
C70 O72 1.289 . S
O71 C70 1.245 . S
O72 Mg65 2.141 . S
O72 C70 1.289 . S
O73 Mg65 2.048 . S
O73 C66 1.195 . S
O74 Mg65 2.048 . S
O74 C75 1.195 . S
C75 O74 1.195 . S
C75 O76 1.313 . S
O76 C75 1.313 . S
O77 Mg65 2.141 1_556 S
O77 C68 1.289 . S
Mg78 O85 2.141 . S
Mg78 O86 2.048 . S
Mg78 O87 2.048 . S
Mg78 O90 2.141 . S
C79 O80 1.313 . S
C79 O86 1.195 . S
O80 C79 1.313 . S
C81 O82 1.245 . S
C81 O90 1.289 . S
O82 C81 1.245 . S
C83 O84 1.245 . S
C83 O85 1.289 . S
O84 C83 1.245 . S
O85 Mg78 2.141 . S
O85 C83 1.289 . S
O86 Mg78 2.048 . S
O86 C79 1.195 . S
O87 Mg78 2.048 . S
O87 C88 1.195 . S
C88 O87 1.195 . S
C88 O89 1.313 . S
O89 C88 1.313 . S
O90 Mg78 2.141 . S
O90 C81 1.289 . S
Mg91 O98 2.141 . S
Mg91 O99 2.048 . S
Mg91 O100 2.048 . S
Mg91 O103 2.141 1_554 S
C92 O93 1.313 . S
C92 O99 1.195 . S
O93 C92 1.313 . S
C94 O95 1.245 . S
C94 O103 1.289 . S
O95 C94 1.245 . S
C96 O97 1.245 . S
C96 O98 1.289 . S
O97 C96 1.245 . S
O98 Mg91 2.141 . S
O98 C96 1.289 . S
O99 Mg91 2.048 . S
O99 C92 1.195 . S
O100 Mg91 2.048 . S
O100 C101 1.195 . S
C101 O100 1.195 . S
C101 O102 1.313 . S
O102 C101 1.313 . S
O103 Mg91 2.141 1_556 S
O103 C94 1.289 . S
H104 C110 0.930 . S
H105 C114 0.930 . S
H106 C119 0.929 . S
H107 C117 0.929 . S
H108 C112 0.929 . S
H109 C118 0.929 . S
C110 H104 0.930 . S
C110 C111 1.367 . S
C110 C118 1.378 . S
C111 C110 1.367 . S
C111 C119 1.433 . S
C112 H108 0.929 . S
C112 C114 1.378 . S
C112 C116 1.350 . S
C113 C116 1.463 . S
C113 C118 1.350 . S
C113 N121 1.427 . S
C114 H105 0.930 . S
C114 C112 1.378 . S
C114 C115 1.367 . S
C115 C114 1.367 . S
C115 C117 1.433 . S
C116 C112 1.350 . S
C116 C113 1.463 . S
C116 N120 1.427 . S
C117 H107 0.929 . S
C117 C115 1.433 . S
C117 N120 1.384 . S
C118 H109 0.929 . S
C118 C110 1.378 . S
C118 C113 1.350 . S
C119 H106 0.929 . S
C119 C111 1.433 . S
C119 N121 1.384 . S
N120 C116 1.427 . S
N120 C117 1.384 . S
N121 C113 1.427 . S
N121 C119 1.384 . S
H122 C128 0.930 . S
H123 C132 0.930 . S
H124 C137 0.929 . S
H125 C135 0.929 . S
H126 C130 0.929 . S
H127 C136 0.929 . S
C128 H122 0.930 . S
C128 C129 1.367 . S
C128 C136 1.378 . S
C129 C128 1.367 . S
C129 C137 1.433 . S
C130 H126 0.929 . S
C130 C132 1.378 . S
C130 C134 1.350 . S
C131 C134 1.463 . S
C131 C136 1.350 . S
C131 N139 1.427 . S
C132 H123 0.930 . S
C132 C130 1.378 . S
C132 C133 1.367 . S
C133 C132 1.367 . S
C133 C135 1.433 . S
C134 C130 1.350 . S
C134 C131 1.463 . S
C134 N138 1.427 . S
C135 H125 0.929 . S
C135 C133 1.433 . S
C135 N138 1.384 . S
C136 H127 0.929 . S
C136 C128 1.378 . S
C136 C131 1.350 . S
C137 H124 0.929 . S
C137 C129 1.433 . S
C137 N139 1.384 . S
N138 C134 1.427 . S
N138 C135 1.384 . S
N139 C131 1.427 . S
N139 C137 1.384 . S
H140 C146 0.930 . S
H141 C150 0.930 . S
H142 C155 0.929 . S
H143 C153 0.929 . S
H144 C148 0.929 . S
H145 C154 0.929 . S
C146 H140 0.930 . S
C146 C147 1.367 . S
C146 C154 1.378 . S
C147 C146 1.367 . S
C147 C155 1.433 . S
C148 H144 0.929 . S
C148 C150 1.378 . S
C148 C152 1.350 . S
C149 C152 1.463 . S
C149 C154 1.350 . S
C149 N157 1.427 . S
C150 H141 0.930 . S
C150 C148 1.378 . S
C150 C151 1.367 . S
C151 C150 1.367 . S
C151 C153 1.433 . S
C152 C148 1.350 . S
C152 C149 1.463 . S
C152 N156 1.427 . S
C153 H143 0.929 . S
C153 C151 1.433 . S
C153 N156 1.384 . S
C154 H145 0.929 . S
C154 C146 1.378 . S
C154 C149 1.350 . S
C155 H142 0.929 . S
C155 C147 1.433 . S
C155 N157 1.384 . S
N156 C152 1.427 . S
N156 C153 1.384 . S
N157 C149 1.427 . S
N157 C155 1.384 . S
H158 C164 0.930 . S
H159 C168 0.930 . S
H160 C173 0.929 . S
H161 C171 0.929 . S
H162 C166 0.929 . S
H163 C172 0.929 . S
C164 H158 0.930 . S
C164 C165 1.367 . S
C164 C172 1.378 . S
C165 C164 1.367 . S
C165 C173 1.433 . S
C166 H162 0.929 . S
C166 C168 1.378 . S
C166 C170 1.350 . S
C167 C170 1.463 . S
C167 C172 1.350 . S
C167 N175 1.427 . S
C168 H159 0.930 . S
C168 C166 1.378 . S
C168 C169 1.367 . S
C169 C168 1.367 . S
C169 C171 1.433 . S
C170 C166 1.350 . S
C170 C167 1.463 . S
C170 N174 1.427 . S
C171 H161 0.929 . S
C171 C169 1.433 . S
C171 N174 1.384 . S
C172 H163 0.929 . S
C172 C164 1.378 . S
C172 C167 1.350 . S
C173 H160 0.929 . S
C173 C165 1.433 . S
C173 N175 1.384 . S
N174 C170 1.427 . S
N174 C171 1.384 . S
N175 C167 1.427 . S
N175 C173 1.384 . S
H176 C182 0.930 . S
H177 C186 0.930 . S
H178 C191 0.929 . S
H179 C189 0.929 . S
H180 C184 0.929 . S
H181 C190 0.929 . S
C182 H176 0.930 . S
C182 C183 1.367 . S
C182 C190 1.378 . S
C183 C182 1.367 . S
C183 C191 1.433 . S
C184 H180 0.929 . S
C184 C186 1.378 . S
C184 C188 1.350 . S
C185 C188 1.463 . S
C185 C190 1.350 . S
C185 N193 1.427 . S
C186 H177 0.930 . S
C186 C184 1.378 . S
C186 C187 1.367 . S
C187 C186 1.367 . S
C187 C189 1.433 . S
C188 C184 1.350 . S
C188 C185 1.463 . S
C188 N192 1.427 . S
C189 H179 0.929 . S
C189 C187 1.433 . S
C189 N192 1.384 . S
C190 H181 0.929 . S
C190 C182 1.378 . S
C190 C185 1.350 . S
C191 H178 0.929 . S
C191 C183 1.433 . S
C191 N193 1.384 . S
N192 C188 1.427 . S
N192 C189 1.384 . S
N193 C185 1.427 . S
N193 C191 1.384 . S
H194 C200 0.930 . S
H195 C204 0.930 . S
H196 C209 0.929 . S
H197 C207 0.929 . S
H198 C202 0.929 . S
H199 C208 0.929 . S
C200 H194 0.930 . S
C200 C201 1.367 . S
C200 C208 1.378 . S
C201 C200 1.367 . S
C201 C209 1.433 . S
C202 H198 0.929 . S
C202 C204 1.378 . S
C202 C206 1.350 . S
C203 C206 1.463 . S
C203 C208 1.350 . S
C203 N211 1.427 . S
C204 H195 0.930 . S
C204 C202 1.378 . S
C204 C205 1.367 . S
C205 C204 1.367 . S
C205 C207 1.433 . S
C206 C202 1.350 . S
C206 C203 1.463 . S
C206 N210 1.427 . S
C207 H197 0.929 . S
C207 C205 1.433 . S
C207 N210 1.384 . S
C208 H199 0.929 . S
C208 C200 1.378 . S
C208 C203 1.350 . S
C209 H196 0.929 . S
C209 C201 1.433 . S
C209 N211 1.384 . S
N210 C206 1.427 . S
N210 C207 1.384 . S
N211 C203 1.427 . S
N211 C209 1.384 . S
H212 C218 0.930 . S
H213 C222 0.930 . S
H214 C227 0.929 . S
H215 C225 0.929 . S
H216 C220 0.929 . S
H217 C226 0.929 . S
C218 H212 0.930 . S
C218 C219 1.367 . S
C218 C226 1.378 . S
C219 C218 1.367 . S
C219 C227 1.433 . S
C220 H216 0.929 . S
C220 C222 1.378 . S
C220 C224 1.350 . S
C221 C224 1.463 . S
C221 C226 1.350 . S
C221 N229 1.427 . S
C222 H213 0.930 . S
C222 C220 1.378 . S
C222 C223 1.367 . S
C223 C222 1.367 . S
C223 C225 1.433 . S
C224 C220 1.350 . S
C224 C221 1.463 . S
C224 N228 1.427 . S
C225 H215 0.929 . S
C225 C223 1.433 . S
C225 N228 1.384 . S
C226 H217 0.929 . S
C226 C218 1.378 . S
C226 C221 1.350 . S
C227 H214 0.929 . S
C227 C219 1.433 . S
C227 N229 1.384 . S
N228 C224 1.427 . S
N228 C225 1.384 . S
N229 C221 1.427 . S
N229 C227 1.384 . S
H230 C236 0.930 . S
H231 C240 0.930 . S
H232 C245 0.929 . S
H233 C243 0.929 . S
H234 C238 0.929 . S
H235 C244 0.929 . S
C236 H230 0.930 . S
C236 C237 1.367 . S
C236 C244 1.378 . S
C237 C236 1.367 . S
C237 C245 1.433 . S
C238 H234 0.929 . S
C238 C240 1.378 . S
C238 C242 1.350 . S
C239 C242 1.463 . S
C239 C244 1.350 . S
C239 N247 1.427 . S
C240 H231 0.930 . S
C240 C238 1.378 . S
C240 C241 1.367 . S
C241 C240 1.367 . S
C241 C243 1.433 . S
C242 C238 1.350 . S
C242 C239 1.463 . S
C242 N246 1.427 . S
C243 H233 0.929 . S
C243 C241 1.433 . S
C243 N246 1.384 . S
C244 H235 0.929 . S
C244 C236 1.378 . S
C244 C239 1.350 . S
C245 H232 0.929 . S
C245 C237 1.433 . S
C245 N247 1.384 . S
N246 C242 1.427 . S
N246 C243 1.384 . S
N247 C239 1.427 . S
N247 C245 1.384 . S
H248 C254 0.930 1_556 S
H249 C258 0.930 . S
H250 C263 0.929 . S
H251 C261 0.929 1_556 S
H252 C256 0.929 . S
H253 C262 0.929 1_556 S
C254 H248 0.930 1_554 S
C254 C255 1.367 . S
C254 C262 1.378 . S
C255 C254 1.367 . S
C255 C263 1.433 . S
C256 H252 0.929 . S
C256 C258 1.378 . S
C256 C260 1.350 . S
C257 C260 1.463 1_655 S
C257 C262 1.350 . S
C257 N265 1.427 . S
C258 H249 0.930 . S
C258 C256 1.378 . S
C258 C259 1.367 . S
C259 C258 1.367 . S
C259 C261 1.433 . S
C260 C256 1.350 . S
C260 C257 1.463 1_455 S
C260 N264 1.427 . S
C261 H251 0.929 1_554 S
C261 C259 1.433 . S
C261 N264 1.384 . S
C262 H253 0.929 1_554 S
C262 C254 1.378 . S
C262 C257 1.350 . S
C263 H250 0.929 . S
C263 C255 1.433 . S
C263 N265 1.384 . S
N264 C260 1.427 . S
N264 C261 1.384 . S
N265 C257 1.427 . S
N265 C263 1.384 . S
H266 C272 0.930 . S
H267 C276 0.930 . S
H268 C281 0.929 . S
H269 C279 0.929 . S
H270 C274 0.929 . S
H271 C280 0.929 . S
C272 H266 0.930 . S
C272 C273 1.367 . S
C272 C280 1.378 . S
C273 C272 1.367 . S
C273 C281 1.433 . S
C274 H270 0.929 . S
C274 C276 1.378 . S
C274 C278 1.350 . S
C275 C278 1.463 1_565 S
C275 C280 1.350 . S
C275 N283 1.427 . S
C276 H267 0.930 . S
C276 C274 1.378 . S
C276 C277 1.367 . S
C277 C276 1.367 . S
C277 C279 1.433 . S
C278 C274 1.350 . S
C278 C275 1.463 1_545 S
C278 N282 1.427 . S
C279 H269 0.929 . S
C279 C277 1.433 . S
C279 N282 1.384 . S
C280 H271 0.929 . S
C280 C272 1.378 . S
C280 C275 1.350 . S
C281 H268 0.929 . S
C281 C273 1.433 . S
C281 N283 1.384 . S
N282 C278 1.427 . S
N282 C279 1.384 . S
N283 C275 1.427 . S
N283 C281 1.384 . S
H284 C290 0.930 . S
H285 C294 0.930 . S
H286 C299 0.929 . S
H287 C297 0.929 . S
H288 C292 0.929 . S
H289 C298 0.929 . S
C290 H284 0.930 . S
C290 C291 1.367 . S
C290 C298 1.378 . S
C291 C290 1.367 . S
C291 C299 1.433 . S
C292 H288 0.929 . S
C292 C294 1.378 . S
C292 C296 1.350 . S
C293 C296 1.463 1_455 S
C293 C298 1.350 . S
C293 N301 1.427 . S
C294 H285 0.930 . S
C294 C292 1.378 . S
C294 C295 1.367 . S
C295 C294 1.367 . S
C295 C297 1.433 . S
C296 C292 1.350 . S
C296 C293 1.463 1_655 S
C296 N300 1.427 . S
C297 H287 0.929 . S
C297 C295 1.433 . S
C297 N300 1.384 . S
C298 H289 0.929 . S
C298 C290 1.378 . S
C298 C293 1.350 . S
C299 H286 0.929 . S
C299 C291 1.433 . S
C299 N301 1.384 . S
N300 C296 1.427 . S
N300 C297 1.384 . S
N301 C293 1.427 . S
N301 C299 1.384 . S
H302 C308 0.930 . S
H303 C312 0.930 . S
H304 C317 0.929 . S
H305 C315 0.929 . S
H306 C310 0.929 . S
H307 C316 0.929 . S
C308 H302 0.930 . S
C308 C309 1.367 1_556 S
C308 C316 1.378 . S
C309 C308 1.367 1_554 S
C309 C317 1.433 . S
C310 H306 0.929 . S
C310 C312 1.378 . S
C310 C314 1.350 . S
C311 C314 1.463 1_565 S
C311 C316 1.350 1_554 S
C311 N319 1.427 . S
C312 H303 0.930 . S
C312 C310 1.378 . S
C312 C313 1.367 . S
C313 C312 1.367 . S
C313 C315 1.433 1_554 S
C314 C310 1.350 . S
C314 C311 1.463 1_545 S
C314 N318 1.427 1_554 S
C315 H305 0.929 . S
C315 C313 1.433 1_556 S
C315 N318 1.384 . S
C316 H307 0.929 . S
C316 C308 1.378 . S
C316 C311 1.350 1_556 S
C317 H304 0.929 . S
C317 C309 1.433 . S
C317 N319 1.384 . S
N318 C314 1.427 1_556 S
N318 C315 1.384 . S
N319 C311 1.427 . S
N319 C317 1.384 . S
H320 C326 0.930 . S
H321 C330 0.930 . S
H322 C335 0.929 . S
H323 C333 0.933 . S
H324 C328 0.929 . S
H325 C334 0.940 . S
C326 H320 0.930 . S
C326 C327 1.367 1_556 S
C326 C334 1.378 . S
C327 C326 1.367 1_554 S
C327 C335 1.433 . S
C328 H324 0.929 . S
C328 C330 1.378 . S
C328 C332 1.350 . S
C329 C332 1.463 . S
C329 C334 1.339 1_554 S
C329 N337 1.427 . S
C330 H321 0.930 . S
C330 C328 1.378 . S
C330 C331 1.367 . S
C331 C330 1.367 . S
C331 C333 1.430 1_554 S
C332 C328 1.350 . S
C332 C329 1.463 . S
C332 N336 1.423 1_554 S
C333 H323 0.933 . S
C333 C331 1.430 1_556 S
C333 N336 1.384 . S
C334 H325 0.940 . S
C334 C326 1.378 . S
C334 C329 1.339 1_556 S
C335 H322 0.929 . S
C335 C327 1.433 . S
C335 N337 1.384 . S
N336 C332 1.423 1_556 S
N336 C333 1.384 . S
N337 C329 1.427 . S
N337 C335 1.384 . S
H338 C344 0.930 . S
H339 C348 0.930 . S
H340 C353 0.929 . S
H341 C351 0.929 . S
H342 C346 0.929 . S
H343 C352 0.929 . S
C344 H338 0.930 . S
C344 C345 1.367 . S
C344 C352 1.378 . S
C345 C344 1.367 . S
C345 C353 1.433 . S
C346 H342 0.929 . S
C346 C348 1.378 . S
C346 C350 1.350 . S
C347 C350 1.463 . S
C347 C352 1.350 . S
C347 N355 1.427 . S
C348 H339 0.930 . S
C348 C346 1.378 . S
C348 C349 1.367 . S
C349 C348 1.367 . S
C349 C351 1.433 . S
C350 C346 1.350 . S
C350 C347 1.463 . S
C350 N354 1.427 . S
C351 H341 0.929 . S
C351 C349 1.433 . S
C351 N354 1.384 . S
C352 H343 0.929 . S
C352 C344 1.378 . S
C352 C347 1.350 . S
C353 H340 0.929 . S
C353 C345 1.433 . S
C353 N355 1.384 . S
N354 C350 1.427 . S
N354 C351 1.384 . S
N355 C347 1.427 . S
N355 C353 1.384 . S
H356 C362 0.930 . S
H357 C366 0.930 . S
H358 C371 0.929 . S
H359 C369 0.929 . S
H360 C364 0.929 . S
H361 C370 0.929 . S
C362 H356 0.930 . S
C362 C363 1.367 1_556 S
C362 C370 1.378 . S
C363 C362 1.367 1_554 S
C363 C371 1.433 . S
C364 H360 0.929 . S
C364 C366 1.378 . S
C364 C368 1.350 . S
C365 C368 1.463 . S
C365 C370 1.350 1_554 S
C365 N373 1.427 . S
C366 H357 0.930 . S
C366 C364 1.378 . S
C366 C367 1.367 . S
C367 C366 1.367 . S
C367 C369 1.433 1_554 S
C368 C364 1.350 . S
C368 C365 1.463 . S
C368 N372 1.427 1_554 S
C369 H359 0.929 . S
C369 C367 1.433 1_556 S
C369 N372 1.384 . S
C370 H361 0.929 . S
C370 C362 1.378 . S
C370 C365 1.350 1_556 S
C371 H358 0.929 . S
C371 C363 1.433 . S
C371 N373 1.384 . S
N372 C368 1.427 1_556 S
N372 C369 1.384 . S
N373 C365 1.427 . S
N373 C371 1.384 . S
H374 C380 0.930 . S
H375 C384 0.930 . S
H376 C389 0.929 . S
H377 C387 0.929 . S
H378 C382 0.929 . S
H379 C388 0.929 . S
C380 H374 0.930 . S
C380 C381 1.367 . S
C380 C388 1.378 . S
C381 C380 1.367 . S
C381 C389 1.433 . S
C382 H378 0.929 . S
C382 C384 1.378 . S
C382 C386 1.350 . S
C383 C386 1.463 . S
C383 C388 1.350 . S
C383 N391 1.427 . S
C384 H375 0.930 . S
C384 C382 1.378 . S
C384 C385 1.367 . S
C385 C384 1.367 . S
C385 C387 1.433 . S
C386 C382 1.350 . S
C386 C383 1.463 . S
C386 N390 1.427 . S
C387 H377 0.929 . S
C387 C385 1.433 . S
C387 N390 1.384 . S
C388 H379 0.929 . S
C388 C380 1.378 . S
C388 C383 1.350 . S
C389 H376 0.929 . S
C389 C381 1.433 . S
C389 N391 1.384 . S
N390 C386 1.427 . S
N390 C387 1.384 . S
N391 C383 1.427 . S
N391 C389 1.384 . S
C111 C5 1.526 . S
C115 C53 1.521 . S
C129 C16 1.491 . S
C133 C68 1.487 . S
C147 C83 1.515 . S
C151 C31 1.516 . S
C165 C94 1.479 . S
C169 C42 1.483 . S
C183 C88 1.634 . S
C187 C36 1.637 . S
C201 C92 1.607 . S
C205 C40 1.606 . S
C219 C10 1.624 . S
C223 C55 1.628 . S
C237 C14 1.601 . S
C241 C66 1.600 . S
C255 C27 1.938 . S
C259 C1 1.939 . S
C273 C49 2.039 . S
C277 C23 2.039 . S
C291 C62 1.946 . S
C295 C79 1.946 . S
C309 C101 2.045 . S
C313 C75 2.043 . S
C327 C3 1.866 . S
C331 C70 1.932 . S
C345 C81 1.854 . S
C349 C18 1.933 . S
C363 C29 1.859 . S
C367 C96 1.934 . S
C381 C44 1.932 . S
C385 C57 1.867 . S
