# Generated by pormake.
# Topology smd, (6)-cn, num edge types: 1
# Building blocks:
#     Node 0, Type 0, BuildingBlock: OJICUG_clean_sbu_0, # of connection points: 6
#     Node 1, Type 0, BuildingBlock: OJICUG_clean_sbu_0, # of connection points: 6
#     Node 2, Type 0, BuildingBlock: OJICUG_clean_sbu_0, # of connection points: 6
#     Node 3, Type 0, BuildingBlock: OJICUG_clean_sbu_0, # of connection points: 6
#     Node 4, Type 0, BuildingBlock: OJICUG_clean_sbu_0, # of connection points: 6
#     Node 5, Type 0, BuildingBlock: OJICUG_clean_sbu_0, # of connection points: 6
#     Node 6, Type 0, BuildingBlock: OJICUG_clean_sbu_0, # of connection points: 6
#     Node 7, Type 0, BuildingBlock: OJICUG_clean_sbu_0, # of connection points: 6
#     Node 8, Type 0, BuildingBlock: OJICUG_clean_sbu_0, # of connection points: 6
#     Node 9, Type 0, BuildingBlock: OJICUG_clean_sbu_0, # of connection points: 6
#     Node 10, Type 0, BuildingBlock: OJICUG_clean_sbu_0, # of connection points: 6
#     Node 11, Type 0, BuildingBlock: OJICUG_clean_sbu_0, # of connection points: 6
#     Node 12, Type 0, BuildingBlock: OJICUG_clean_sbu_0, # of connection points: 6
#     Node 13, Type 0, BuildingBlock: OJICUG_clean_sbu_0, # of connection points: 6
#     Node 14, Type 0, BuildingBlock: OJICUG_clean_sbu_0, # of connection points: 6
#     Node 15, Type 0, BuildingBlock: OJICUG_clean_sbu_0, # of connection points: 6
#     Node 16, Type 0, BuildingBlock: OJICUG_clean_sbu_0, # of connection points: 6
#     Node 17, Type 0, BuildingBlock: OJICUG_clean_sbu_0, # of connection points: 6
#     Edge 18, Type (0, 0), BuildingBlock: ZUJKAS_clean_linker_0, # of connection points: 2
#     Edge 19, Type (0, 0), BuildingBlock: ZUJKAS_clean_linker_0, # of connection points: 2
#     Edge 20, Type (0, 0), BuildingBlock: ZUJKAS_clean_linker_0, # of connection points: 2
#     Edge 21, Type (0, 0), BuildingBlock: ZUJKAS_clean_linker_0, # of connection points: 2
#     Edge 22, Type (0, 0), BuildingBlock: ZUJKAS_clean_linker_0, # of connection points: 2
#     Edge 23, Type (0, 0), BuildingBlock: ZUJKAS_clean_linker_0, # of connection points: 2
#     Edge 24, Type (0, 0), BuildingBlock: ZUJKAS_clean_linker_0, # of connection points: 2
#     Edge 25, Type (0, 0), BuildingBlock: ZUJKAS_clean_linker_0, # of connection points: 2
#     Edge 26, Type (0, 0), BuildingBlock: ZUJKAS_clean_linker_0, # of connection points: 2
#     Edge 27, Type (0, 0), BuildingBlock: ZUJKAS_clean_linker_0, # of connection points: 2
#     Edge 28, Type (0, 0), BuildingBlock: ZUJKAS_clean_linker_0, # of connection points: 2
#     Edge 29, Type (0, 0), BuildingBlock: ZUJKAS_clean_linker_0, # of connection points: 2
#     Edge 30, Type (0, 0), BuildingBlock: ZUJKAS_clean_linker_0, # of connection points: 2
#     Edge 31, Type (0, 0), BuildingBlock: ZUJKAS_clean_linker_0, # of connection points: 2
#     Edge 32, Type (0, 0), BuildingBlock: ZUJKAS_clean_linker_0, # of connection points: 2
#     Edge 33, Type (0, 0), BuildingBlock: ZUJKAS_clean_linker_0, # of connection points: 2
#     Edge 34, Type (0, 0), BuildingBlock: ZUJKAS_clean_linker_0, # of connection points: 2
#     Edge 35, Type (0, 0), BuildingBlock: ZUJKAS_clean_linker_0, # of connection points: 2
#     Edge 36, Type (0, 0), BuildingBlock: ZUJKAS_clean_linker_0, # of connection points: 2
#     Edge 37, Type (0, 0), BuildingBlock: ZUJKAS_clean_linker_0, # of connection points: 2
#     Edge 38, Type (0, 0), BuildingBlock: ZUJKAS_clean_linker_0, # of connection points: 2
#     Edge 39, Type (0, 0), BuildingBlock: ZUJKAS_clean_linker_0, # of connection points: 2
#     Edge 40, Type (0, 0), BuildingBlock: ZUJKAS_clean_linker_0, # of connection points: 2
#     Edge 41, Type (0, 0), BuildingBlock: ZUJKAS_clean_linker_0, # of connection points: 2
#     Edge 42, Type (0, 0), BuildingBlock: ZUJKAS_clean_linker_0, # of connection points: 2
#     Edge 43, Type (0, 0), BuildingBlock: ZUJKAS_clean_linker_0, # of connection points: 2
#     Edge 44, Type (0, 0), BuildingBlock: ZUJKAS_clean_linker_0, # of connection points: 2
#     Edge 45, Type (0, 0), BuildingBlock: ZUJKAS_clean_linker_0, # of connection points: 2
#     Edge 46, Type (0, 0), BuildingBlock: ZUJKAS_clean_linker_0, # of connection points: 2
#     Edge 47, Type (0, 0), BuildingBlock: ZUJKAS_clean_linker_0, # of connection points: 2
#     Edge 48, Type (0, 0), BuildingBlock: ZUJKAS_clean_linker_0, # of connection points: 2
#     Edge 49, Type (0, 0), BuildingBlock: ZUJKAS_clean_linker_0, # of connection points: 2
#     Edge 50, Type (0, 0), BuildingBlock: ZUJKAS_clean_linker_0, # of connection points: 2
#     Edge 51, Type (0, 0), BuildingBlock: ZUJKAS_clean_linker_0, # of connection points: 2
#     Edge 52, Type (0, 0), BuildingBlock: ZUJKAS_clean_linker_0, # of connection points: 2
#     Edge 53, Type (0, 0), BuildingBlock: ZUJKAS_clean_linker_0, # of connection points: 2
#     Edge 54, Type (0, 0), BuildingBlock: ZUJKAS_clean_linker_0, # of connection points: 2
#     Edge 55, Type (0, 0), BuildingBlock: ZUJKAS_clean_linker_0, # of connection points: 2
#     Edge 56, Type (0, 0), BuildingBlock: ZUJKAS_clean_linker_0, # of connection points: 2
#     Edge 57, Type (0, 0), BuildingBlock: ZUJKAS_clean_linker_0, # of connection points: 2
#     Edge 58, Type (0, 0), BuildingBlock: ZUJKAS_clean_linker_0, # of connection points: 2
#     Edge 59, Type (0, 0), BuildingBlock: ZUJKAS_clean_linker_0, # of connection points: 2
#     Edge 60, Type (0, 0), BuildingBlock: ZUJKAS_clean_linker_0, # of connection points: 2
#     Edge 61, Type (0, 0), BuildingBlock: ZUJKAS_clean_linker_0, # of connection points: 2
#     Edge 62, Type (0, 0), BuildingBlock: ZUJKAS_clean_linker_0, # of connection points: 2
#     Edge 63, Type (0, 0), BuildingBlock: ZUJKAS_clean_linker_0, # of connection points: 2
#     Edge 64, Type (0, 0), BuildingBlock: ZUJKAS_clean_linker_0, # of connection points: 2
#     Edge 65, Type (0, 0), BuildingBlock: ZUJKAS_clean_linker_0, # of connection points: 2
#     Edge 66, Type (0, 0), BuildingBlock: ZUJKAS_clean_linker_0, # of connection points: 2
#     Edge 67, Type (0, 0), BuildingBlock: ZUJKAS_clean_linker_0, # of connection points: 2
#     Edge 68, Type (0, 0), BuildingBlock: ZUJKAS_clean_linker_0, # of connection points: 2
#     Edge 69, Type (0, 0), BuildingBlock: ZUJKAS_clean_linker_0, # of connection points: 2
#     Edge 70, Type (0, 0), BuildingBlock: ZUJKAS_clean_linker_0, # of connection points: 2
#     Edge 71, Type (0, 0), BuildingBlock: ZUJKAS_clean_linker_0, # of connection points: 2
# Relax obj value: 0.160
# Max RMSD: 0.216
# Mean RMSD: 0.216
data_MOF--net-smd--node1-OJICUG_clean_sbu_0--edge1-ZUJKAS_clean_linker_0
_symmetry_space_group_name_H-M    P1
_symmetry_Int_Tables_number       1
_symmetry_cell_setting            triclinic
loop_
_symmetry_equiv_pos_as_xyz
'x, y, z'
_cell_length_a     96.905754
_cell_length_b     96.950188
_cell_length_c     20.273349
_cell_angle_alpha  90.005761
_cell_angle_beta   89.999786
_cell_angle_gamma 119.987
loop_
_atom_site_label
_atom_site_type_symbol
_atom_site_fract_x
_atom_site_fract_y
_atom_site_fract_z
_atom_type_partial_charge
Sc0 Sc 0.99306 0.22973 0.44691 0.0
Sc1 Sc 0.01041 0.20767 0.50608 0.0
Sc2 Sc 0.02247 0.24588 0.56995 0.0
O3 O 0.00862 0.22771 0.50776 0.0
C4 C 0.02285 0.26461 0.43952 0.0
C5 C 0.00507 0.21138 0.3533 0.0
C6 C 0.04676 0.23545 0.5165 0.0
C7 C 0.97282 0.19384 0.49609 0.0
C8 C 0.98989 0.24593 0.57932 0.0
C9 C 0.01481 0.21586 0.65971 0.0
O10 O 0.01089 0.25301 0.41177 0.0
O11 O 0.01087 0.20682 0.39903 0.0
O12 O 0.0437 0.24585 0.5393 0.0
O13 O 0.9738 0.20672 0.47571 0.0
O14 O 0.00259 0.24791 0.60652 0.0
O15 O 0.01024 0.20575 0.61299 0.0
O16 O 0.98564 0.24017 0.52182 0.0
O17 O 0.98496 0.19241 0.50759 0.0
O18 O 0.01959 0.23051 0.6507 0.0
O19 O -0.00175 0.21942 0.36427 0.0
O20 O 0.02753 0.26363 0.49684 0.0
O21 O 0.03602 0.22119 0.50398 0.0
Sc22 Sc 0.78898 0.7788 0.44586 0.0
Sc23 Sc 0.8133 0.81661 0.51583 0.0
Sc24 Sc 0.77608 0.79033 0.58582 0.0
O25 O 0.79279 0.79523 0.51583 0.0
C26 C 0.75451 0.77536 0.45954 0.0
C27 C 0.80619 0.81006 0.36017 0.0
C28 C 0.7878 0.82668 0.54799 0.0
C29 C 0.82575 0.7929 0.48444 0.0
C30 C 0.77479 0.75679 0.57139 0.0
C31 C 0.8071 0.80915 0.67149 0.0
O32 O 0.76443 0.77245 0.43056 0.0
O33 O 0.8145 0.81873 0.4082 0.0
O34 O 0.77879 0.8138 0.57878 0.0
O35 O 0.81308 0.78316 0.45392 0.0
O36 O 0.77127 0.76623 0.60073 0.0
O37 O 0.81537 0.81789 0.62351 0.0
O38 O 0.78206 0.76011 0.51655 0.0
O39 O 0.82737 0.8052 0.51403 0.0
O40 O 0.79306 0.79754 0.66413 0.0
O41 O 0.79534 0.79566 0.36751 0.0
O42 O 0.7574 0.78258 0.51443 0.0
O43 O 0.80034 0.82918 0.51766 0.0
Sc44 Sc 0.2417 0.02487 0.45592 0.0
Sc45 Sc 0.2023 0.0065 0.51678 0.0
Sc46 Sc 0.22847 0.99349 0.57075 0.0
O47 O 0.22416 0.00831 0.51451 0.0
C48 C 0.24609 0.99461 0.43663 0.0
C49 C 0.21113 0.01329 0.36393 0.0
C50 C 0.19307 0.97004 0.52101 0.0
C51 C 0.2256 0.04417 0.51232 0.0
C52 C 0.26153 0.02607 0.58322 0.0
C53 C 0.20768 0.00143 0.66885 0.0
O54 O 0.24807 0.00795 0.41682 0.0
O55 O 0.20086 0.00732 0.40997 0.0
O56 O 0.20639 0.97274 0.54384 0.0
O57 O 0.23743 0.04357 0.48841 0.0
O58 O 0.25139 0.01232 0.60434 0.0
O59 O 0.20115 0.00544 0.62399 0.0
O60 O 0.25946 0.03203 0.53106 0.0
O61 O 0.21228 0.03181 0.52436 0.0
O62 O 0.21778 -0.00294 0.65654 0.0
O63 O 0.22604 0.01995 0.37378 0.0
O64 O 0.23927 0.98818 0.49055 0.0
O65 O 0.18993 0.98103 0.50893 0.0
Sc66 Sc 0.02063 0.79292 0.56438 0.0
Sc67 Sc 0.00936 0.81898 0.49436 0.0
Sc68 Sc -0.00423 0.78099 0.4256 0.0
O69 O 0.00857 0.79762 0.49478 0.0
C70 C 0.0268 0.77755 0.43815 0.0
C71 C 0.04513 0.82906 0.52331 0.0
C72 C 0.00952 0.81211 0.33884 0.0
C73 C 0.00865 0.812 0.65017 0.0
C74 C 0.98836 0.75936 0.55249 0.0
C75 C 0.97311 0.79505 0.4651 0.0
O76 O 0.03111 0.78471 0.49312 0.0
O77 O 0.03488 0.8316 0.49511 0.0
O78 O 0.00587 0.79769 0.34645 0.0
O79 O 0.01138 0.80059 0.64302 0.0
O80 O 0.98439 0.76244 0.49715 0.0
O81 O 0.98388 0.80752 0.49335 0.0
O82 O 0.00129 0.76897 0.58163 0.0
O83 O 0.00871 0.82048 0.60197 0.0
O84 O 0.97595 0.78518 0.43506 0.0
O85 O 0.04146 0.81623 0.55415 0.0
O86 O 0.01401 0.77472 0.40903 0.0
O87 O 0.01011 0.82091 0.38674 0.0
Sc88 Sc 0.22353 0.24066 0.57839 0.0
Sc89 Sc 0.19672 0.20281 0.51335 0.0
Sc90 Sc 0.23593 0.22476 0.45154 0.0
O91 O 0.21872 0.22272 0.51441 0.0
C92 C 0.2408 0.25995 0.44949 0.0
C93 C 0.18796 0.22994 0.53195 0.0
C94 C 0.20545 0.20821 0.35862 0.0
C95 C 0.20309 0.21051 0.66878 0.0
C96 C 0.25647 0.24044 0.57968 0.0
C97 C 0.21947 0.18828 0.49727 0.0
O98 O 0.23309 0.25821 0.50237 0.0
O99 O 0.18494 0.21652 0.50892 0.0
O100 O 0.22022 0.21743 0.36873 0.0
O101 O 0.21439 0.22467 0.66023 0.0
O102 O 0.25357 0.23231 0.52727 0.0
O103 O 0.20664 0.18741 0.51752 0.0
O104 O 0.24703 0.24479 0.60277 0.0
O105 O 0.19497 0.20148 0.62111 0.0
O106 O 0.23065 0.20069 0.47017 0.0
O107 O 0.20091 0.23929 0.56144 0.0
O108 O 0.24341 0.24925 0.4264 0.0
O109 O 0.19551 0.20147 0.40551 0.0
Sc110 Sc 0.77773 -0.00293 0.60122 0.0
Sc111 Sc 0.815 0.00761 0.53264 0.0
Sc112 Sc 0.79143 0.02193 0.46278 0.0
O113 O 0.79472 0.0089 0.53224 0.0
C114 C 0.75654 0.9912 0.4747 0.0
C115 C 0.78905 0.97216 0.56248 0.0
C116 C 0.80837 0.00762 0.37698 0.0
C117 C 0.80844 0.00864 0.68807 0.0
C118 C 0.77659 0.0294 0.58662 0.0
C119 C 0.82822 0.04395 0.50339 0.0
O120 O 0.75929 0.98653 0.52905 0.0
O121 O 0.80163 0.98217 0.53243 0.0
O122 O 0.79771 0.01142 0.38432 0.0
O123 O 0.79456 0.00663 0.68016 0.0
O124 O 0.78459 0.03371 0.53357 0.0
O125 O 0.82948 0.03301 0.53242 0.0
O126 O 0.7727 0.01627 0.61523 0.0
O127 O 0.81668 0.00799 0.64037 0.0
O128 O 0.8157 0.04141 0.47246 0.0
O129 O 0.78022 0.97613 0.59428 0.0
O130 O 0.76671 0.00402 0.44628 0.0
O131 O 0.81652 0.00699 0.42507 0.0
Sc132 Sc 0.66241 0.56131 0.77718 0.0
Sc133 Sc 0.67415 0.53564 0.84821 0.0
Sc134 Sc 0.68629 0.57314 0.91913 0.0
O135 O 0.67427 0.55669 0.84822 0.0
C136 C 0.69406 0.59522 0.79318 0.0
C137 C 0.67559 0.54305 0.69254 0.0
C138 C 0.71007 0.56023 0.8819 0.0
C139 C 0.63838 0.52462 0.81343 0.0
C140 C 0.65489 0.57591 0.90294 0.0
C141 C 0.67284 0.54171 1.0039 0.0
O142 O 0.68157 0.58546 0.76183 0.0
O143 O 0.67571 0.53468 0.74079 0.0
O144 O 0.70675 0.56985 0.91115 0.0
O145 O 0.64185 0.53766 0.78466 0.0
O146 O 0.6673 0.57843 0.93446 0.0
O147 O 0.67257 0.53314 0.95565 0.0
O148 O 0.65127 0.56922 0.84682 0.0
O149 O 0.64866 0.52236 0.84301 0.0
O150 O 0.67629 0.55608 0.99694 0.0
O151 O 0.67233 0.55411 0.69947 0.0
O152 O 0.69759 0.59212 0.84939 0.0
O153 O 0.69964 0.54767 0.85296 0.0
Sc154 Sc 0.45877 0.11488 0.79714 0.0
Sc155 Sc 0.48155 0.15326 0.86327 0.0
Sc156 Sc 0.44408 0.12664 0.93024 0.0
O157 O 0.46147 0.13159 0.86358 0.0
C158 C 0.42348 0.10992 0.80448 0.0
C159 C 0.4749 0.14555 0.70804 0.0
C160 C 0.45526 0.16263 0.88821 0.0
C161 C 0.49563 0.13075 0.83792 0.0
C162 C 0.44429 0.09366 0.92345 0.0
C163 C 0.47448 0.14624 0.01867 0.0
O164 O 0.43378 0.10686 0.78018 0.0
O165 O 0.48302 0.15466 0.75548 0.0
O166 O 0.44628 0.14992 0.92013 0.0
O167 O 0.48332 0.12055 0.80666 0.0
O168 O 0.43944 0.10262 0.94768 0.0
O169 O 0.48295 0.15497 0.97101 0.0
O170 O 0.45279 0.09723 0.87177 0.0
O171 O 0.49643 0.1428 0.86637 0.0
O172 O 0.46057 0.13445 0.01059 0.0
O173 O 0.46443 0.13104 0.71648 0.0
O174 O 0.42604 0.1183 0.85598 0.0
O175 O 0.46801 0.16514 0.85994 0.0
Sc176 Sc 0.90639 0.35846 0.77366 0.0
Sc177 Sc 0.86915 0.34739 0.84447 0.0
Sc178 Sc 0.89448 0.33561 0.91827 0.0
O179 O 0.89002 0.34714 0.84549 0.0
C180 C 0.9093 0.32733 0.79525 0.0
C181 C 0.87515 0.34546 0.68896 0.0
C182 C 0.85808 0.31157 0.87787 0.0
C183 C 0.8941 0.38287 0.80897 0.0
C184 C 0.92838 0.36708 0.90067 0.0
C185 C 0.87596 0.34883 1.00057 0.0
O186 O 0.91164 0.33934 0.76118 0.0
O187 O 0.86692 0.34602 0.7369 0.0
O188 O 0.87089 0.31499 0.90861 0.0
O189 O 0.90325 0.37904 0.77879 0.0
O190 O 0.91856 0.35494 0.93382 0.0
O191 O 0.86768 0.34884 0.95177 0.0
O192 O 0.92535 0.37003 0.84319 0.0
O193 O 0.88166 0.37286 0.83997 0.0
O194 O 0.88706 0.34563 0.99449 0.0
O195 O 0.88923 0.34802 0.69631 0.0
O196 O 0.90271 0.32429 0.85149 0.0
O197 O 0.85586 0.32193 0.84875 0.0
Sc198 Sc 0.69303 0.1275 0.88167 0.0
Sc199 Sc 0.67992 0.15371 0.82963 0.0
Sc200 Sc 0.66312 0.11516 0.76054 0.0
O201 O 0.67868 0.13213 0.82389 0.0
C202 C 0.69414 0.11188 0.74522 0.0
C203 C 0.71647 0.16364 0.84015 0.0
C204 C 0.67482 0.14662 0.67483 0.0
C205 C 0.6835 0.14665 0.9816 0.0
C206 C 0.66082 0.0939 0.8841 0.0
C207 C 0.64249 0.12977 0.81792 0.0
O208 O 0.6999 0.1183 0.80054 0.0
O209 O 0.70548 0.16659 0.82512 0.0
O210 O 0.66872 0.13168 0.68127 0.0
O211 O 0.68778 0.13652 0.96851 0.0
O212 O 0.65529 0.09656 0.832 0.0
O213 O 0.65446 0.14301 0.83447 0.0
O214 O 0.67427 0.1039 0.90827 0.0
O215 O 0.68029 0.15389 0.93701 0.0
O216 O 0.64376 0.11862 0.7909 0.0
O217 O 0.71371 0.15024 0.86221 0.0
O218 O 0.68083 0.10964 0.72358 0.0
O219 O 0.67975 0.15629 0.72316 0.0
Sc220 Sc 0.89461 0.57681 0.91085 0.0
Sc221 Sc 0.86983 0.53906 0.84077 0.0
Sc222 Sc 0.90712 0.56509 0.76985 0.0
O223 O 0.89053 0.56033 0.84049 0.0
C224 C 0.90867 0.59869 0.78402 0.0
C225 C 0.85787 0.56324 0.87238 0.0
C226 C 0.87584 0.54614 0.6849 0.0
C227 C 0.87697 0.54549 0.99646 0.0
C228 C 0.92903 0.58015 0.89605 0.0
C229 C 0.89532 0.52879 0.80917 0.0
O230 O 0.90213 0.59568 0.84046 0.0
O231 O 0.85598 0.55072 0.84384 0.0
O232 O 0.89006 0.5574 0.69176 0.0
O233 O 0.88775 0.55991 0.9893 0.0
O234 O 0.92616 0.57352 0.83982 0.0
O235 O 0.88259 0.5263 0.83783 0.0
O236 O 0.91896 0.58246 0.9272 0.0
O237 O 0.86877 0.53679 0.94829 0.0
O238 O 0.90462 0.54172 0.77921 0.0
O239 O 0.8707 0.57304 0.90186 0.0
O240 O 0.91153 0.58897 0.75313 0.0
O241 O 0.86742 0.53776 0.73326 0.0
Sc242 Sc 0.44239 0.33174 0.89167 0.0
Sc243 Sc 0.47925 0.34252 0.81866 0.0
Sc244 Sc 0.45456 0.35596 0.75095 0.0
O245 O 0.45873 0.34342 0.82032 0.0
C246 C 0.42024 0.32477 0.76686 0.0
C247 C 0.45395 0.30702 0.85289 0.0
C248 C 0.47164 0.34195 0.66354 0.0
C249 C 0.47381 0.34417 0.97475 0.0
C250 C 0.44083 0.36383 0.87812 0.0
C251 C 0.49152 0.3787 0.78699 0.0
O252 O 0.42344 0.32075 0.82182 0.0
O253 O 0.46635 0.31698 0.82163 0.0
O254 O 0.46094 0.34569 0.67165 0.0
O255 O 0.45971 0.34163 0.96844 0.0
O256 O 0.44764 0.36763 0.82229 0.0
O257 O 0.49329 0.36797 0.81527 0.0
O258 O 0.43767 0.35101 0.9077 0.0
O259 O 0.4819 0.34364 0.9262 0.0
O260 O 0.47864 0.37586 0.75837 0.0
O261 O 0.44506 0.31097 0.88421 0.0
O262 O 0.42995 0.33749 0.73662 0.0
O263 O 0.47991 0.34132 0.71112 0.0
Sc264 Sc 0.33085 0.89621 0.0984 0.0
Sc265 Sc 0.34303 0.87062 0.16641 0.0
Sc266 Sc 0.35703 0.90882 0.23283 0.0
O267 O 0.34361 0.89187 0.16591 0.0
C268 C 0.36333 0.9298 0.10542 0.0
C269 C 0.3428 0.87732 0.01088 0.0
C270 C 0.37942 0.89455 0.19219 0.0
C271 C 0.30697 0.85993 0.14055 0.0
C272 C 0.32603 0.91259 0.22374 0.0
C273 C 0.34357 0.87809 0.32169 0.0
O274 O 0.34985 0.92036 0.0796 0.0
O275 O 0.3432 0.869 0.0588 0.0
O276 O 0.37673 0.90445 0.22273 0.0
O277 O 0.31022 0.87269 0.10998 0.0
O278 O 0.33921 0.91568 0.24999 0.0
O279 O 0.34279 0.86911 0.27413 0.0
O280 O 0.32077 0.9045 0.17121 0.0
O281 O 0.31754 0.85776 0.16786 0.0
O282 O 0.34719 0.89249 0.31336 0.0
O283 O 0.33978 0.88852 0.01863 0.0
O284 O 0.36809 0.92671 0.15875 0.0
O285 O 0.36848 0.88206 0.16479 0.0
Sc286 Sc 0.12447 0.44813 0.08542 0.0
Sc287 Sc 0.15056 0.48483 0.15992 0.0
Sc288 Sc 0.11302 0.45966 0.22965 0.0
O289 O 0.12933 0.46417 0.15829 0.0
C290 C 0.09114 0.4471 0.10253 0.0
C291 C 0.14379 0.47975 1.00367 0.0
C292 C 0.1267 0.49664 0.19562 0.0
C293 C 0.16061 0.45935 0.12618 0.0
C294 C 0.10867 0.42503 0.20717 0.0
C295 C 0.14411 0.47672 0.3152 0.0
O296 O 0.10059 0.44404 0.07045 0.0
O297 O 0.15236 0.48771 0.0525 0.0
O298 O 0.11737 0.48383 0.22632 0.0
O299 O 0.14784 0.45047 0.09417 0.0
O300 O 0.10647 0.43491 0.24031 0.0
O301 O 0.15246 0.48558 0.26767 0.0
O302 O 0.11582 0.42849 0.15207 0.0
O303 O 0.16308 0.47186 0.15671 0.0
O304 O 0.12998 0.46532 0.30725 0.0
O305 O 0.13219 0.4657 0.0096 0.0
O306 O 0.09437 0.45341 0.15943 0.0
O307 O 0.13882 0.49856 0.16347 0.0
Sc308 Sc 0.57179 0.68909 0.11084 0.0
Sc309 Sc 0.53391 0.67685 0.1781 0.0
Sc310 Sc 0.55851 0.66357 0.24756 0.0
O311 O 0.55473 0.67649 0.17878 0.0
C312 C 0.57378 0.65712 0.12173 0.0
C313 C 0.54094 0.67664 0.02277 0.0
C314 C 0.52198 0.64061 0.20659 0.0
C315 C 0.55911 0.71288 0.15033 0.0
C316 C 0.59276 0.69502 0.23866 0.0
C317 C 0.54056 0.67686 0.33381 0.0
O318 O 0.57708 0.67014 0.0934 0.0
O319 O 0.53213 0.67615 0.07048 0.0
O320 O 0.53472 0.64352 0.23643 0.0
O321 O 0.56874 0.7096 0.12101 0.0
O322 O 0.58279 0.68201 0.26618 0.0
O323 O 0.5325 0.67761 0.28563 0.0
O324 O 0.59011 0.69959 0.18388 0.0
O325 O 0.54629 0.70235 0.17732 0.0
O326 O 0.5513 0.67315 0.32655 0.0
O327 O 0.55524 0.67989 0.03081 0.0
O328 O 0.5663 0.65276 0.17603 0.0
O329 O 0.52015 0.65137 0.17896 0.0
Sc330 Sc 0.35351 0.45735 0.25043 0.0
Sc331 Sc 0.33928 0.48132 0.18297 0.0
Sc332 Sc 0.32844 0.44417 0.11237 0.0
O333 O 0.34039 0.46093 0.18198 0.0
C334 C 0.36113 0.44358 0.12297 0.0
C335 C 0.37562 0.49419 0.21223 0.0
C336 C 0.34012 0.47524 0.0271 0.0
C337 C 0.33924 0.47404 0.33827 0.0
C338 C 0.32295 0.42251 0.23724 0.0
C339 C 0.30364 0.45554 0.15265 0.0
O340 O 0.36525 0.45082 0.17787 0.0
O341 O 0.36473 0.49565 0.18374 0.0
O342 O 0.3376 0.46117 0.03404 0.0
O343 O 0.34305 0.4634 0.33015 0.0
O344 O 0.31816 0.42537 0.18344 0.0
O345 O 0.31375 0.4682 0.18199 0.0
O346 O 0.33577 0.43262 0.26566 0.0
O347 O 0.33854 0.48228 0.29068 0.0
O348 O 0.30747 0.44648 0.12192 0.0
O349 O 0.37298 0.48156 0.24228 0.0
O350 O 0.34795 0.43983 0.09503 0.0
O351 O 0.33988 0.48355 0.07539 0.0
Sc352 Sc 0.56324 0.91161 0.21612 0.0
Sc353 Sc 0.53872 0.87279 0.15411 0.0
Sc354 Sc 0.57759 0.89699 0.09097 0.0
O355 O 0.55983 0.89378 0.15368 0.0
C356 C 0.58001 0.93099 0.08541 0.0
C357 C 0.52734 0.89826 0.16798 0.0
C358 C 0.54722 0.87738 0.99904 0.0
C359 C 0.54374 0.88146 0.30905 0.0
C360 C 0.59731 0.91403 0.22066 0.0
C361 C 0.56409 0.86121 0.1408 0.0
O362 O 0.57311 0.92925 0.14047 0.0
O363 O 0.52508 0.88471 0.15017 0.0
O364 O 0.56188 0.88716 0.00869 0.0
O365 O 0.55365 0.89606 0.2989 0.0
O366 O 0.59548 0.90711 0.16561 0.0
O367 O 0.55055 0.85907 0.1582 0.0
O368 O 0.58669 0.91644 0.24603 0.0
O369 O 0.53717 0.87152 0.26203 0.0
O370 O 0.57483 0.8741 0.11498 0.0
O371 O 0.54032 0.90893 0.19342 0.0
O372 O 0.58257 0.92044 0.06041 0.0
O373 O 0.53729 0.8711 0.0463 0.0
Sc374 Sc 0.11201 0.66509 0.25257 0.0
Sc375 Sc 0.14986 0.67807 0.18384 0.0
Sc376 Sc 0.1245 0.69036 0.11517 0.0
O377 O 0.12878 0.67784 0.18388 0.0
C378 C 0.09038 0.6586 0.12678 0.0
C379 C 0.12539 0.64194 0.21217 0.0
C380 C 0.14269 0.67763 0.02829 0.0
C381 C 0.14304 0.67817 0.33943 0.0
C382 C 0.10948 0.6967 0.24167 0.0
C383 C 0.16103 0.71402 0.15469 0.0
O384 O 0.09348 0.65407 0.18068 0.0
O385 O 0.13788 0.65259 0.18361 0.0
O386 O 0.13141 0.68054 0.03597 0.0
O387 O 0.12873 0.67492 0.33181 0.0
O388 O 0.11708 0.70133 0.1877 0.0
O389 O 0.16307 0.70358 0.18401 0.0
O390 O 0.1061 0.68358 0.26914 0.0
O391 O 0.15174 0.67853 0.2915 0.0
O392 O 0.14828 0.71067 0.12372 0.0
O393 O 0.11577 0.64499 0.24306 0.0
O394 O 0.10012 0.67168 0.09894 0.0
O395 O 0.15124 0.67761 0.07613 0.0
H396 H 0.10923 0.40029 0.1451 0.0
H397 H 0.09441 0.3722 0.17428 0.0
H398 H 0.07681 0.3835 0.34956 0.0
H399 H 0.0913 0.41173 0.31994 0.0
H400 H 0.09555 0.35596 0.27914 0.0
H401 H 0.03589 0.35033 0.26171 0.0
H402 H 0.05372 0.36759 0.23195 0.0
H403 H 0.04881 0.36557 0.31835 0.0
C404 C 0.10229 0.39689 0.19014 0.0
C405 C 0.10133 0.4083 0.22984 0.0
C406 C 0.09379 0.38078 0.2066 0.0
C407 C 0.08419 0.37574 0.26309 0.0
C408 C 0.08379 0.38712 0.30464 0.0
H409 H 0.0492 0.29118 0.4842 0.0
H410 H 0.06373 0.31702 0.43183 0.0
C411 C 0.09222 0.40327 0.28802 0.0
C412 C 0.07473 0.35856 0.27859 0.0
H413 H 0.03703 0.32864 0.31263 0.0
C414 C 0.08274 0.34995 0.28585 0.0
C415 C 0.05796 0.35064 0.28548 0.0
C416 C 0.04856 0.35896 0.27327 0.0
C417 C 0.07451 0.3338 0.303 0.0
C418 C 0.05792 0.32618 0.31463 0.0
C419 C 0.04978 0.33456 0.30422 0.0
C420 C 0.04913 0.3101 0.34394 0.0
C421 C 0.08371 0.32507 0.30915 0.0
C422 C 0.03578 0.29768 0.31251 0.0
C423 C 0.02723 0.28273 0.34278 0.0
C424 C 0.03186 0.2801 0.40514 0.0
C425 C 0.04526 0.29267 0.43609 0.0
C426 C 0.05372 0.30748 0.40599 0.0
H427 H 0.09456 0.33061 0.27776 0.0
H428 H 0.08759 0.32567 0.36108 0.0
H429 H 0.07628 0.31235 0.29508 0.0
H430 H 0.03199 0.29957 0.26476 0.0
H431 H 0.01695 0.27333 0.31772 0.0
H432 H 0.7334 0.78556 0.48448 0.0
H433 H 0.7059 0.77361 0.44612 0.0
H434 H 0.7117 0.73909 0.33349 0.0
H435 H 0.73941 0.75127 0.37002 0.0
H436 H 0.695 0.7499 0.26637 0.0
H437 H 0.67056 0.73221 0.51926 0.0
H438 H 0.68388 0.75322 0.51052 0.0
H439 H 0.69128 0.73962 0.50042 0.0
C440 C 0.72886 0.77549 0.45114 0.0
C441 C 0.7385 0.76923 0.43082 0.0
C442 C 0.71312 0.76862 0.42965 0.0
C443 C 0.70666 0.75521 0.38852 0.0
C444 C 0.71645 0.74937 0.36575 0.0
H445 H 0.60763 0.68564 0.3277 0.0
H446 H 0.63525 0.70097 0.36534 0.0
C447 C 0.73227 0.75636 0.38654 0.0
C448 C 0.68962 0.74703 0.37018 0.0
H449 H 0.65204 0.7282 0.43453 0.0
C450 C 0.68559 0.74514 0.30306 0.0
C451 C 0.67739 0.74062 0.41829 0.0
C452 C 0.68096 0.74136 0.49112 0.0
C453 C 0.66964 0.73705 0.28259 0.0
C454 C 0.65742 0.73112 0.33072 0.0
C455 C 0.66145 0.73295 0.39784 0.0
C456 C 0.64038 0.7224 0.31231 0.0
C457 C 0.66607 0.73454 0.20967 0.0
C458 C 0.63398 0.72958 0.27207 0.0
C459 C 0.61828 0.72081 0.24994 0.0
C460 C 0.60863 0.7048 0.26874 0.0
C461 C 0.61477 0.69795 0.31236 0.0
C462 C 0.63055 0.70667 0.33378 0.0
H463 H 0.67646 0.73586 0.18114 0.0
H464 H 0.65573 0.72255 0.19972 0.0
H465 H 0.66319 0.74359 0.19128 0.0
H466 H 0.64123 0.74186 0.25662 0.0
H467 H 0.6138 0.7265 0.21714 0.0
H468 H 0.27284 0.00778 0.35901 0.0
H469 H 0.28652 0.99409 0.31609 0.0
H470 H 0.24818 0.94928 0.38705 0.0
H471 H 0.23468 0.96283 0.43078 0.0
H472 H 0.2778 0.95632 0.43381 0.0
H473 H 0.27846 0.96347 0.16149 0.0
H474 H 0.28568 0.9815 0.20855 0.0
H475 H 0.26511 0.9663 0.21461 0.0
C476 C 0.26716 0.99496 0.36371 0.0
C477 C 0.25279 0.98637 0.39861 0.0
C478 C 0.27497 0.98716 0.33925 0.0
C479 C 0.26834 0.97068 0.34858 0.0
C480 C 0.25351 0.96201 0.3797 0.0
H481 H 0.29572 0.90542 0.19338 0.0
H482 H 0.28217 0.91974 0.22726 0.0
C483 C 0.24582 0.96977 0.40454 0.0
C484 C 0.27739 0.96258 0.33214 0.0
H485 H 0.2931 0.95195 0.20467 0.0
C486 C 0.28117 0.95536 0.3837 0.0
C487 C 0.28167 0.96134 0.26677 0.0
C488 C 0.27744 0.96844 0.20945 0.0
C489 C 0.28898 0.94675 0.3716 0.0
C490 C 0.29339 0.94561 0.30631 0.0
C491 C 0.28973 0.95293 0.25474 0.0
C492 C 0.30133 0.93641 0.28998 0.0
C493 C 0.29204 0.93859 0.42847 0.0
C494 C 0.31649 0.94088 0.31511 0.0
C495 C 0.32426 0.93263 0.29627 0.0
C496 C 0.31705 0.91989 0.25135 0.0
C497 C 0.30165 0.9152 0.22785 0.0
C498 C 0.2939 0.9234 0.24692 0.0
H499 H 0.28459 0.93744 0.47207 0.0
H500 H 0.28963 0.92654 0.41401 0.0
H501 H 0.30473 0.9457 0.44335 0.0
H502 H 0.32251 0.95103 0.34775 0.0
H503 H 0.33616 0.93664 0.31482 0.0
H504 H 0.28293 0.05778 0.57236 0.0
H505 H 0.31029 0.07189 0.61279 0.0
H506 H 0.30312 0.02903 0.70808 0.0
H507 H 0.27552 0.01478 0.66865 0.0
H508 H 0.32079 0.05635 0.78357 0.0
H509 H 0.34445 0.06454 0.52879 0.0
H510 H 0.3312 0.07224 0.54065 0.0
H511 H 0.32377 0.05119 0.54833 0.0
C512 C 0.28709 0.05136 0.60255 0.0
C513 C 0.27712 0.03509 0.61659 0.0
C514 C 0.30276 0.05944 0.62524 0.0
C515 C 0.30882 0.05137 0.66171 0.0
C516 C 0.29867 0.0354 0.6793 0.0
H517 H 0.40978 0.08474 0.71855 0.0
H518 H 0.38189 0.07019 0.68326 0.0
C519 C 0.2829 0.0273 0.65697 0.0
C520 C 0.32589 0.05951 0.67958 0.0
H521 H 0.36327 0.079 0.61334 0.0
C522 C 0.33009 0.06124 0.74645 0.0
C523 C 0.33797 0.06559 0.63086 0.0
C524 C 0.33416 0.06317 0.55813 0.0
C525 C 0.34612 0.06933 0.76606 0.0
C526 C 0.35818 0.07612 0.71739 0.0
C527 C 0.35398 0.07397 0.65049 0.0
C528 C 0.37525 0.08552 0.73506 0.0
C529 C 0.34996 0.07035 0.83866 0.0
C530 C 0.38083 0.09928 0.77367 0.0
C531 C 0.39669 0.10758 0.79405 0.0
C532 C 0.40733 0.10236 0.77549 0.0
C533 C 0.4019 0.08907 0.73371 0.0
C534 C 0.38597 0.0807 0.71372 0.0
H535 H 0.33991 0.06087 0.86724 0.0
H536 H 0.36075 0.06936 0.84734 0.0
H537 H 0.35228 0.08203 0.85799 0.0
H538 H 0.37284 0.10346 0.78899 0.0
H539 H 0.40053 0.1179 0.82548 0.0
H540 H 0.90796 0.30191 0.85905 0.0
H541 H 0.92096 0.28696 0.82845 0.0
H542 H 0.93765 0.31393 0.64806 0.0
H543 H 0.92502 0.32945 0.67927 0.0
H544 H 0.91766 0.26807 0.72707 0.0
H545 H 0.97872 0.32041 0.72836 0.0
H546 H 0.96174 0.32124 0.7599 0.0
H547 H 0.96554 0.32257 0.67258 0.0
C548 C 0.91432 0.30469 0.81261 0.0
C549 C 0.9156 0.31707 0.77196 0.0
C550 C 0.92175 0.29609 0.79525 0.0
C551 C 0.93058 0.29958 0.73681 0.0
C552 C 0.93126 0.31136 0.69435 0.0
H553 H 0.96168 0.2426 0.53714 0.0
H554 H 0.94708 0.25461 0.5833 0.0
C555 C 0.92391 0.32011 0.71195 0.0
C556 C 0.93914 0.29092 0.72113 0.0
H557 H 0.97592 0.29623 0.68618 0.0
C558 C 0.93042 0.27422 0.71845 0.0
C559 C 0.95584 0.29893 0.71175 0.0
C560 C 0.96605 0.31676 0.71896 0.0
C561 C 0.93787 0.26533 0.70456 0.0
C562 C 0.95441 0.2734 0.69127 0.0
C563 C 0.96322 0.29007 0.696 0.0
C564 C 0.96262 0.26494 0.66758 0.0
C565 C 0.92794 0.24739 0.7047 0.0
C566 C 0.97638 0.26688 0.69928 0.0
C567 C 0.98499 0.26017 0.67237 0.0
C568 C 0.98 0.2515 0.61309 0.0
C569 C 0.96592 0.24919 0.58286 0.0
C570 C 0.95742 0.25594 0.60951 0.0
H571 H 0.91742 0.2432 0.73757 0.0
H572 H 0.92348 0.24319 0.65406 0.0
H573 H 0.935 0.24185 0.72093 0.0
H574 H 0.98063 0.27388 0.74403 0.0
H575 H -0.00422 0.2622 0.69683 0.0
H576 H 0.75998 0.745 0.69024 0.0
H577 H 0.74868 0.71773 0.73101 0.0
H578 H 0.7652 0.70499 0.55632 0.0
H579 H 0.77682 0.73218 0.51589 0.0
H580 H 0.72527 0.69152 0.67113 0.0
H581 H 0.7787 0.68519 0.69933 0.0
H582 H 0.77996 0.7043 0.68949 0.0
H583 H 0.77719 0.69196 0.61873 0.0
C584 C 0.76144 0.73647 0.66098 0.0
C585 C 0.76929 0.7408 0.59971 0.0
C586 C 0.75497 0.7209 0.68434 0.0
C587 C 0.75627 0.7094 0.64701 0.0
C588 C 0.76439 0.71376 0.58664 0.0
H589 H 0.69106 0.60734 0.67495 0.0
H590 H 0.70679 0.63486 0.63634 0.0
C591 C 0.77094 0.72932 0.56342 0.0
C592 C 0.74799 0.69256 0.66835 0.0
H593 H 0.7535 0.66108 0.70002 0.0
C594 C 0.73145 0.68488 0.67792 0.0
C595 C 0.75612 0.68398 0.67749 0.0
C596 C 0.77399 0.69182 0.67138 0.0
C597 C 0.72275 0.66878 0.69565 0.0
C598 C 0.73078 0.66004 0.7023 0.0
C599 C 0.74736 0.66776 0.69372 0.0
C600 C 0.72226 0.64307 0.72173 0.0
C601 C 0.70511 0.66137 0.70839 0.0
C602 C 0.72627 0.63846 0.78085 0.0
C603 C 0.71747 0.62277 0.80268 0.0
C604 C 0.70443 0.61135 0.76578 0.0
C605 C 0.70091 0.61585 0.70491 0.0
C606 C 0.70981 0.63159 0.68295 0.0
H607 H 0.70164 0.67054 0.71739 0.0
H608 H 0.69843 0.65433 0.66461 0.0
H609 H 0.70142 0.65326 0.75159 0.0
H610 H 0.73591 0.64714 0.81124 0.0
H611 H 0.72062 0.61974 0.84957 0.0
H612 H 0.9922 0.74747 0.66969 0.0
H613 H 0.97656 0.7201 0.70999 0.0
H614 H 0.94574 0.70771 0.54039 0.0
H615 H 0.96098 0.73499 0.50038 0.0
H616 H 0.92925 0.69413 0.65485 0.0
H617 H 0.98049 0.68403 0.62496 0.0
H618 H 0.98447 0.70046 0.67795 0.0
H619 H 0.98049 0.7013 0.59185 0.0
C620 C 0.98199 0.73898 0.64128 0.0
C621 C 0.97799 0.7434 0.58132 0.0
C622 C 0.97314 0.72333 0.66421 0.0
C623 C 0.96025 0.71184 0.62731 0.0
C624 C 0.95573 0.71639 0.5693 0.0
H625 H 0.92203 0.60987 0.66239 0.0
H626 H 0.93303 0.63699 0.62014 0.0
C627 C 0.9645 0.73201 0.5465 0.0
C628 C 0.95181 0.69493 0.64742 0.0
H629 H 0.95735 0.66336 0.67561 0.0
C630 C 0.93536 0.68737 0.65935 0.0
C631 C 0.95978 0.68609 0.65171 0.0
C632 C 0.97724 0.69331 0.63534 0.0
C633 C 0.92669 0.67121 0.6768 0.0
C634 C 0.9348 0.66255 0.68365 0.0
C635 C 0.95119 0.67006 0.67059 0.0
C636 C 0.92668 0.64582 0.70624 0.0
C637 C 0.90893 0.66354 0.68671 0.0
C638 C 0.91936 0.6418 0.76833 0.0
C639 C 0.91299 0.62633 0.79244 0.0
C640 C 0.91402 0.61461 0.75527 0.0
C641 C 0.92106 0.61859 0.69236 0.0
C642 C 0.92736 0.63408 0.66814 0.0
H643 H 0.90397 0.67014 0.66025 0.0
H644 H 0.90266 0.651 0.6694 0.0
H645 H 0.9064 0.66363 0.74004 0.0
H646 H 0.91904 0.65075 0.79918 0.0
H647 H 0.90773 0.62373 0.84121 0.0
H648 H 0.27699 0.22917 0.56222 0.0
H649 H 0.30467 0.24157 0.59838 0.0
H650 H 0.2997 0.27793 0.70009 0.0
H651 H 0.27188 0.26543 0.66526 0.0
H652 H 0.3275 0.27131 0.56304 0.0
H653 H 0.32302 0.26641 0.83552 0.0
H654 H 0.30618 0.25493 0.78209 0.0
H655 H 0.31231 0.27534 0.8008 0.0
C656 C 0.28168 0.23963 0.59342 0.0
C657 C 0.27225 0.24636 0.61067 0.0
C658 C 0.29751 0.2467 0.61391 0.0
C659 C 0.30422 0.26063 0.65204 0.0
C660 C 0.29468 0.26702 0.67167 0.0
H661 H 0.40409 0.33274 0.67784 0.0
H662 H 0.37606 0.3166 0.64591 0.0
C663 C 0.27877 0.25988 0.65161 0.0
C664 C 0.3215 0.26916 0.66634 0.0
H665 H 0.34867 0.28435 0.79107 0.0
C666 C 0.33215 0.27406 0.61293 0.0
C667 C 0.3275 0.2726 0.7314 0.0
C668 C 0.31666 0.26691 0.79077 0.0
C669 C 0.34868 0.28254 0.62281 0.0
C670 C 0.35468 0.28651 0.68777 0.0
C671 C 0.34403 0.28139 0.74122 0.0
C672 C 0.37195 0.29586 0.70189 0.0
C673 C 0.35955 0.28696 0.5637 0.0
C674 C 0.37891 0.28955 0.74384 0.0
C675 C 0.3948 0.29877 0.76268 0.0
C676 C 0.40409 0.31451 0.73985 0.0
C677 C 0.39728 0.32062 0.69576 0.0
C678 C 0.38128 0.3114 0.67737 0.0
H679 H 0.35335 0.27928 0.52052 0.0
H680 H 0.36356 0.29947 0.54962 0.0
H681 H 0.37025 0.28599 0.57496 0.0
H682 H 0.37192 0.27758 0.76316 0.0
H683 H 0.39972 0.29367 0.79636 0.0
H684 H 0.68184 0.08476 0.6706 0.0
H685 H 0.69613 0.07095 0.63669 0.0
H686 H 0.74026 0.11061 0.70586 0.0
H687 H 0.72611 0.12431 0.74057 0.0
H688 H 0.72405 0.07877 0.55683 0.0
H689 H 0.73272 0.07233 0.82338 0.0
H690 H 0.71884 0.07818 0.79355 0.0
H691 H 0.73977 0.0925 0.79766 0.0
C692 C 0.69466 0.09071 0.67662 0.0
C693 C 0.70287 0.10548 0.70895 0.0
C694 C 0.70277 0.08279 0.65763 0.0
C695 C 0.71913 0.08963 0.67051 0.0
C696 C 0.72756 0.10502 0.69694 0.0
H697 H 0.78585 0.06008 0.55283 0.0
H698 H 0.7717 0.07449 0.57543 0.0
C699 C 0.71948 0.11284 0.71639 0.0
C700 C 0.72723 0.08027 0.66212 0.0
H701 H 0.74681 0.06502 0.7484 0.0
C702 C 0.72898 0.07569 0.59858 0.0
C703 C 0.73334 0.07603 0.71704 0.0
C704 C 0.73096 0.07986 0.78686 0.0
C705 C 0.73718 0.06736 0.58826 0.0
C706 C 0.74398 0.06382 0.64291 0.0
C707 C 0.74177 0.06797 0.70661 0.0
C708 C 0.75339 0.05575 0.63488 0.0
C709 C 0.73836 0.06229 0.51907 0.0
C710 C 0.74832 0.04088 0.66434 0.0
C711 C 0.7565 0.03267 0.65228 0.0
C712 C 0.76987 0.03923 0.61046 0.0
C713 C 0.77548 0.0546 0.58459 0.0
C714 C 0.76734 0.0628 0.59694 0.0
H715 H 0.72905 0.06206 0.48631 0.0
H716 H 0.75016 0.07089 0.4981 0.0
H717 H 0.7372 0.0503 0.51889 0.0
H718 H 0.73767 0.03536 0.69453 0.0
H719 H 0.75185 0.02086 0.67292 0.0
H720 H 0.62332 0.91305 0.1757 0.0
H721 H 0.64959 0.92488 0.22524 0.0
H722 H 0.63325 0.94079 0.39087 0.0
H723 H 0.60675 0.92925 0.34061 0.0
H724 H 0.66122 0.96428 0.34097 0.0
H725 H 0.66529 0.9099 0.37804 0.0
H726 H 0.66033 0.9117 0.29448 0.0
H727 H 0.64671 0.90919 0.35996 0.0
C728 C 0.62516 0.91889 0.22306 0.0
C729 C 0.61286 0.92018 0.2542 0.0
C730 C 0.64022 0.92556 0.25153 0.0
C731 C 0.64329 0.93345 0.31223 0.0
C732 C 0.63105 0.93463 0.34411 0.0
H733 H 0.731 0.96516 0.52864 0.0
H734 H 0.70363 0.95141 0.48947 0.0
C735 C 0.61593 0.92801 0.31539 0.0
C736 C 0.65959 0.9413 0.33983 0.0
H737 H 0.68999 0.9347 0.37998 0.0
C738 C 0.66748 0.95781 0.35024 0.0
C739 C 0.66765 0.93278 0.35243 0.0
C740 C 0.65949 0.91489 0.34631 0.0
C741 C 0.68338 0.96613 0.37129 0.0
C742 C 0.6917 0.95773 0.3804 0.0
C743 C 0.68367 0.94116 0.37173 0.0
C744 C 0.70855 0.96581 0.40168 0.0
C745 C 0.69103 0.98377 0.3844 0.0
C746 C 0.72052 0.97821 0.36427 0.0
C747 C 0.73626 0.98625 0.38678 0.0
C748 C 0.74031 0.98185 0.4467 0.0
C749 C 0.72836 0.96894 0.48238 0.0
C750 C 0.71266 0.96103 0.46013 0.0
H751 H 0.68198 0.98742 0.39267 0.0
H752 H 0.69898 0.98728 0.42814 0.0
H753 H 0.69829 0.99043 0.34102 0.0
H754 H 0.71765 0.98179 0.31803 0.0
H755 H 0.74518 -0.00395 0.35782 0.0
H756 H 0.01765 0.7529 0.35117 0.0
H757 H 0.03304 0.74028 0.31805 0.0
H758 H 0.07353 0.7756 0.42742 0.0
H759 H 0.05815 0.78802 0.46216 0.0
H760 H 0.06091 0.75041 0.25193 0.0
H761 H 0.06655 0.7345 0.50938 0.0
H762 H 0.05339 0.74184 0.48663 0.0
H763 H 0.07435 0.75545 0.49771 0.0
C764 C 0.02989 0.75808 0.36749 0.0
C765 C 0.03663 0.7713 0.41001 0.0
C766 C 0.03864 0.75084 0.34871 0.0
C767 C 0.05426 0.75677 0.37185 0.0
C768 C 0.06133 0.77056 0.41078 0.0
H769 H 0.11983 0.72811 0.21857 0.0
H770 H 0.10713 0.74323 0.2534 0.0
C771 C 0.05256 0.77769 0.43019 0.0
C772 C 0.06301 0.7483 0.35665 0.0
H773 H 0.08159 0.73007 0.42822 0.0
C774 C 0.06542 0.74594 0.29039 0.0
C775 C 0.06862 0.74224 0.40708 0.0
C776 C 0.06547 0.74347 0.47917 0.0
C777 C 0.07347 0.73782 0.27306 0.0
C778 C 0.07963 0.73232 0.3235 0.0
C779 C 0.07705 0.73451 0.38975 0.0
C780 C 0.08832 0.72378 0.30836 0.0
C781 C 0.07494 0.73488 0.20094 0.0
C782 C 0.0825 0.70817 0.33115 0.0
C783 C 0.08989 0.69958 0.31234 0.0
C784 C 0.10317 0.70646 0.27011 0.0
C785 C 0.10947 0.7224 0.25035 0.0
C786 C 0.10217 0.73102 0.26979 0.0
H787 H 0.06595 0.73589 0.17047 0.0
H788 H 0.08692 0.74391 0.18298 0.0
H789 H 0.07348 0.72289 0.19315 0.0
H790 H 0.07189 0.70243 0.36152 0.0
H791 H 0.08476 0.68733 0.32838 0.0
H792 H 0.33285 0.4083 0.32762 0.0
H793 H 0.31888 0.38028 0.3607 0.0
H794 H 0.27846 0.37193 0.24216 0.0
H795 H 0.29242 0.39977 0.20765 0.0
H796 H 0.29082 0.36171 0.42346 0.0
H797 H 0.28858 0.33889 0.17071 0.0
H798 H 0.30068 0.35968 0.19177 0.0
H799 H 0.2797 0.35125 0.17633 0.0
C800 C 0.32093 0.40054 0.30909 0.0
C801 C 0.31381 0.40621 0.2644 0.0
C802 C 0.313 0.38453 0.32782 0.0
C803 C 0.29783 0.37397 0.30238 0.0
C804 C 0.29036 0.37979 0.26067 0.0
H805 H 0.231 0.28173 0.45814 0.0
H806 H 0.24494 0.30916 0.41856 0.0
C807 C 0.29832 0.39573 0.24146 0.0
C808 C 0.28981 0.35686 0.3194 0.0
H809 H 0.27273 0.31963 0.25205 0.0
C810 C 0.28694 0.35251 0.38605 0.0
C811 C 0.28505 0.34491 0.27049 0.0
C812 C 0.2888 0.3489 0.19838 0.0
C813 C 0.27902 0.33647 0.40511 0.0
C814 C 0.27349 0.3245 0.35598 0.0
C815 C 0.27677 0.32885 0.28944 0.0
C816 C 0.26421 0.30741 0.37306 0.0
C817 C 0.27682 0.33252 0.47775 0.0
C818 C 0.26993 0.29709 0.35693 0.0
C819 C 0.26184 0.28128 0.37863 0.0
C820 C 0.24797 0.27566 0.41698 0.0
C821 C 0.24181 0.2858 0.42959 0.0
C822 C 0.24979 0.3015 0.40738 0.0
H823 H 0.28559 0.34267 0.50817 0.0
H824 H 0.26472 0.32981 0.49294 0.0
H825 H 0.27806 0.32196 0.48864 0.0
H826 H 0.28097 0.30143 0.32981 0.0
H827 H 0.26686 0.27373 0.36816 0.0
H828 H 0.95233 0.39384 0.84336 0.0
H829 H 0.97996 0.4092 0.87858 0.0
H830 H 0.96896 0.38019 0.05332 0.0
H831 H 0.94118 0.36435 0.01766 0.0
H832 H -0.00515 0.42684 0.98791 0.0
H833 H 0.00381 0.37475 0.96559 0.0
H834 H 0.98626 0.37456 0.93469 0.0
H835 H 0.98813 0.37176 0.02122 0.0
C836 C 0.95568 0.39072 0.8896 0.0
C837 C 0.94455 0.37765 0.92716 0.0
C838 C 0.97151 0.39958 0.90967 0.0
C839 C 0.97654 0.3956 0.96771 0.0
C840 C 0.96534 0.38319 0.00747 0.0
H841 H 0.06719 0.44984 0.16056 0.0
H842 H 0.03984 0.43856 0.12309 0.0
C843 C 0.94946 0.37422 0.98724 0.0
C844 C -0.00634 0.40407 0.98458 0.0
H845 H 0.02534 0.39845 0.00855 0.0
C846 C 0.00154 0.42066 0.99244 0.0
C847 C 0.0024 0.39599 0.98877 0.0
C848 C -0.00522 0.37831 0.97651 0.0
C849 C 0.01793 0.4294 1.00558 0.0
C850 C 0.02653 0.42123 0.01236 0.0
C851 C 0.01869 0.40467 1.00348 0.0
C852 C 0.04352 0.42945 0.03135 0.0
C853 C 0.0259 0.44728 0.01102 0.0
C854 C 0.05469 0.42799 0.99232 0.0
C855 C 0.07039 0.43426 0.01401 0.0
C856 C 0.07514 0.44206 0.07528 0.0
C857 C 0.064 0.44395 0.11305 0.0
C858 C 0.04834 0.43761 0.09151 0.0
H859 H 0.01909 0.45196 0.98424 0.0
H860 H 0.02648 0.45063 0.06371 0.0
H861 H 0.03823 0.45314 0.99117 0.0
H862 H 0.05116 0.42166 0.94578 0.0
H863 H 0.07865 0.4326 0.98367 0.0
H864 H 0.65751 0.59036 0.02261 0.0
H865 H 0.64192 0.60227 0.06182 0.0
H866 H 0.61422 0.5877 0.88266 0.0
H867 H 0.62934 0.57547 0.84384 0.0
H868 H 0.64004 0.62651 1.00449 0.0
H869 H 0.57971 0.5735 0.02015 0.0
H870 H 0.59745 0.57198 0.01203 0.0
H871 H 0.58865 0.57556 0.94062 0.0
C872 C 0.64793 0.58946 0.99202 0.0
C873 C 0.64469 0.58192 0.93009 0.0
C874 C 0.63906 0.5963 0.01444 0.0
C875 C 0.62678 0.59569 0.9755 0.0
C876 C 0.62337 0.58798 0.91423 0.0
H877 H 0.59078 0.66181 1.00714 0.0
H878 H 0.60307 0.64653 0.96829 0.0
C879 C 0.63214 0.58107 0.89197 0.0
C880 C 0.61824 0.60402 0.99661 0.0
H881 H 0.58114 0.59883 0.02261 0.0
C882 C 0.62717 0.62044 0.00894 0.0
C883 C 0.60145 0.59606 1.00275 0.0
C884 C 0.59127 0.57827 0.99384 0.0
C885 C 0.61977 0.62918 0.0265 0.0
C886 C 0.60295 0.62133 0.0301 0.0
C887 C 0.59402 0.60487 0.01868 0.0
C888 C 0.59444 0.62982 0.0496 0.0
C889 C 0.63007 0.64665 0.04241 0.0
C890 C 0.58489 0.625 0.10625 0.0
C891 C 0.57769 0.63353 0.12803 0.0
C892 C 0.57992 0.64711 0.09364 0.0
C893 C 0.58893 0.65151 0.03514 0.0
C894 C 0.59607 0.64287 0.01314 0.0
H895 H 0.64253 0.64981 0.05371 0.0
H896 H 0.63035 0.65382 0.99922 0.0
H897 H 0.62524 0.65005 0.08518 0.0
H898 H 0.58339 0.6149 0.13484 0.0
H899 H 0.57076 0.6297 0.17306 0.0
H900 H 0.41932 0.07723 0.00834 0.0
H901 H 0.40751 0.0493 0.04067 0.0
H902 H 0.44443 0.046 0.93539 0.0
H903 H 0.45617 0.07379 0.90186 0.0
H904 H 0.41459 0.02265 0.90029 0.0
H905 H 0.42068 0.02647 0.17264 0.0
H906 H 0.41123 0.03687 0.13993 0.0
H907 H 0.43167 0.0435 0.11962 0.0
C908 C 0.42514 0.07067 0.99329 0.0
C909 C 0.43864 0.07771 0.95225 0.0
C910 C 0.41838 0.05471 0.01192 0.0
C911 C 0.42515 0.04562 0.99066 0.0
C912 C 0.43902 0.05282 0.95218 0.0
H913 H 0.39488 0.95017 0.12834 0.0
H914 H 0.4106 0.97794 0.09429 0.0
C915 C 0.44572 0.06871 0.93319 0.0
C916 C 0.41711 0.02832 1.00397 0.0
H917 H 0.40324 0.00079 0.12748 0.0
C918 C 0.41221 0.01785 0.94997 0.0
C919 C 0.41415 0.02214 0.06876 0.0
C920 C 0.41984 0.03282 0.12859 0.0
C921 C 0.40417 0.0013 0.95904 0.0
C922 C 0.40069 0.99511 0.0238 0.0
C923 C 0.40584 0.00559 0.0778 0.0
C924 C 0.39168 0.9778 0.03713 0.0
C925 C 0.39963 0.99061 0.89931 0.0
C926 C 0.37594 0.96842 0.01491 0.0
C927 C 0.36692 0.95246 0.03387 0.0
C928 C 0.37346 0.94573 0.07618 0.0
C929 C 0.38945 0.95502 0.09609 0.0
C930 C 0.39845 0.9709 0.07678 0.0
H931 H 0.40694 -0.00294 0.85561 0.0
H932 H 0.40104 0.98011 0.90899 0.0
H933 H 0.38696 0.98628 0.88698 0.0
H934 H 0.3704 0.97361 0.98519 0.0
H935 H 0.35461 0.94566 0.01815 0.0
H936 H 0.62942 0.07227 0.86546 0.0
H937 H 0.61515 0.04452 0.90078 0.0
H938 H 0.65717 0.05118 1.00237 0.0
H939 H 0.67153 0.07913 0.96808 0.0
H940 H 0.6236 0.02224 0.86651 0.0
H941 H 0.62207 0.02777 0.13876 0.0
H942 H 0.62676 0.04416 0.08364 0.0
H943 H 0.64159 0.03883 0.10309 0.0
C944 C 0.63558 0.06793 0.89625 0.0
C945 C 0.65164 0.07789 0.91383 0.0
C946 C 0.62741 0.05206 0.91622 0.0
C947 C 0.6351 0.04583 0.9542 0.0
C948 C 0.65095 0.05584 0.97388 0.0
H949 H 0.60487 0.94518 0.99815 0.0
H950 H 0.61808 0.97292 0.9607 0.0
C951 C 0.65914 0.0718 0.95424 0.0
C952 C 0.62675 0.02862 0.96947 0.0
H953 H 0.6135 0.00195 0.09617 0.0
C954 C 0.62134 0.01777 0.91671 0.0
C955 C 0.62377 0.02289 0.03496 0.0
C956 C 0.62871 0.03399 0.09344 0.0
C957 C 0.61299 0.00129 0.92771 0.0
C958 C 0.61026 -0.00444 0.99321 0.0
C959 C 0.61569 0.00641 0.04595 0.0
C960 C 0.60141 0.97837 0.00873 0.0
C961 C 0.60687 0.99017 0.8693 0.0
C962 C 0.5876 0.97224 0.04733 0.0
C963 C 0.58014 0.95652 0.06912 0.0
C964 C 0.58636 0.94661 0.05268 0.0
C965 C 0.59974 0.9525 0.01111 0.0
C966 C 0.60729 0.96834 0.98969 0.0
H967 H 0.60647 -0.00362 0.82388 0.0
H968 H 0.61491 0.98532 0.8599 0.0
H969 H 0.59474 0.98001 0.87908 0.0
H970 H 0.58285 0.97978 0.06227 0.0
H971 H 0.56978 0.95229 0.10069 0.0
H972 H 0.07841 0.66354 0.01193 0.0
H973 H 0.05089 0.64866 0.97249 0.0
H974 H 0.03822 0.61687 0.13881 0.0
H975 H 0.06564 0.63133 0.17781 0.0
H976 H 0.02441 0.60104 0.02502 0.0
H977 H 0.01502 0.65259 0.05813 0.0
H978 H 0.03133 0.65656 1.00445 0.0
H979 H 0.03226 0.65235 0.09022 0.0
C980 C 0.06981 0.65329 0.03981 0.0
C981 C 0.07423 0.64876 0.09847 0.0
C982 C 0.05407 0.64488 0.01743 0.0
C983 C 0.04247 0.63191 0.05364 0.0
C984 C 0.04698 0.62693 0.11044 0.0
H985 H 0.94024 0.59404 0.01711 0.0
H986 H 0.96744 0.6054 0.05939 0.0
C987 C 0.06269 0.63524 0.13264 0.0
C988 C 0.02552 0.62372 0.03356 0.0
H989 H -0.00579 0.62975 1.00586 0.0
C990 C 0.01778 0.60729 0.02092 0.0
C991 C 0.01683 0.63185 0.02977 0.0
C992 C 0.02421 0.64928 0.04698 0.0
C993 C 0.00163 0.59883 1.00323 0.0
C994 C 0.99313 0.6071 0.99667 0.0
C995 C 0.00079 0.62346 0.01056 0.0
C996 C 0.97643 0.59918 0.97341 0.0
C997 C -0.0062 0.58108 0.99271 0.0
C998 C 0.97249 0.59191 0.91121 0.0
C999 C 0.95699 0.58534 0.88713 0.0
C1000 C 0.94512 0.58609 0.92439 0.0
C1001 C 0.94906 0.59324 0.98712 0.0
C1002 C 0.9646 0.59975 0.01134 0.0
H1003 H 0.00023 0.57595 0.01928 0.0
H1004 H 0.98121 0.57489 0.00952 0.0
H1005 H -0.00602 0.57863 0.93934 0.0
H1006 H 0.98151 0.59168 0.88043 0.0
H1007 H 0.95446 0.58002 0.83845 0.0
H1008 H 0.35746 0.42853 1.00429 0.0
H1009 H 0.37328 0.4172 0.96178 0.0
H1010 H 0.40406 0.43494 0.13171 0.0
H1011 H 0.38861 0.44657 0.17406 0.0
H1012 H 0.42055 0.4384 0.01556 0.0
H1013 H 0.3695 0.37695 0.04408 0.0
H1014 H 0.36534 0.38953 0.99279 0.0
H1015 H 0.36954 0.39408 0.07897 0.0
C1016 C 0.36769 0.43017 0.03234 0.0
C1017 C 0.37162 0.43827 0.09307 0.0
C1018 C 0.37666 0.42363 0.0081 0.0
C1019 C 0.38959 0.42495 0.04444 0.0
C1020 C 0.39404 0.4337 0.10323 0.0
H1021 H 0.42781 0.36146 1.00054 0.0
H1022 H 0.41699 0.37754 0.04494 0.0
C1023 C 0.38516 0.44032 0.12735 0.0
C1024 C 0.39805 0.41659 0.02296 0.0
H1025 H 0.39253 0.37962 0.99145 0.0
C1026 C 0.41446 0.42555 0.01033 0.0
C1027 C 0.3901 0.39981 0.0177 0.0
C1028 C 0.37269 0.38949 0.03469 0.0
C1029 C 0.42311 0.41815 0.99118 0.0
C1030 C 0.41503 0.40142 0.98341 0.0
C1031 C 0.39868 0.39247 0.99718 0.0
C1032 C 0.42311 0.39287 0.95946 0.0
C1033 C 0.44084 0.4283 0.98045 0.0
C1034 C 0.43026 0.39628 0.89699 0.0
C1035 C 0.43653 0.38719 0.87162 0.0
C1036 C 0.43557 0.37436 0.90791 0.0
C1037 C 0.42871 0.37121 0.97119 0.0
C1038 C 0.42252 0.38038 0.99666 0.0
H1039 H 0.44584 0.4398 0.00733 0.0
H1040 H 0.44719 0.42202 0.99672 0.0
H1041 H 0.44321 0.43101 0.9271 0.0
H1042 H 0.43051 0.40562 0.86683 0.0
H1043 H 0.44165 0.38993 0.8226 0.0
H1044 H 0.07357 0.26296 0.55437 0.0
H1045 H 0.10126 0.2691 0.54523 0.0
H1046 H 0.08565 0.2242 0.44725 0.0
H1047 H 0.05808 0.218 0.45544 0.0
H1048 H 0.11225 0.25052 0.60307 0.0
H1049 H 0.12353 0.25506 0.33464 0.0
H1050 H 0.10742 0.25681 0.37084 0.0
H1051 H 0.10516 0.23749 0.35548 0.0
C1052 C 0.07605 0.25451 0.52984 0.0
C1053 C 0.06359 0.23993 0.50603 0.0
C1054 C 0.09187 0.25806 0.52459 0.0
C1055 C 0.09548 0.24721 0.49469 0.0
C1056 C 0.08313 0.2329 0.46913 0.0
H1057 H 0.15829 0.21279 0.47767 0.0
H1058 H 0.13811 0.22063 0.46694 0.0
C1059 C 0.06735 0.2293 0.47454 0.0
C1060 C 0.11181 0.24974 0.49692 0.0
H1061 H 0.13951 0.24747 0.40111 0.0
C1062 C 0.11847 0.25029 0.55897 0.0
C1063 C 0.11985 0.24949 0.43921 0.0
C1064 C 0.11369 0.24985 0.37128 0.0
C1065 C 0.13232 0.24924 0.56503 0.0
C1066 C 0.13974 0.24786 0.50736 0.0
C1067 C 0.13368 0.24842 0.44519 0.0
C1068 C 0.15256 0.24389 0.51079 0.0
C1069 C 0.13826 0.24849 0.63304 0.0
C1070 C 0.16742 0.25449 0.53837 0.0
C1071 C 0.179 0.25001 0.54507 0.0
C1072 C 0.17589 0.23489 0.52391 0.0
C1073 C 0.16108 0.22449 0.49481 0.0
C1074 C 0.14955 0.22896 0.48833 0.0
H1075 H 0.12976 0.24734 0.67235 0.0
H1076 H 0.14036 0.23826 0.63677 0.0
H1077 H 0.14975 0.25954 0.64231 0.0
H1078 H 0.17001 0.26615 0.55518 0.0
H1079 H 0.19033 0.25838 0.56708 0.0
H1080 H 0.80292 0.95872 0.4895 0.0
H1081 H 0.79601 0.93092 0.48696 0.0
H1082 H 0.75805 0.91911 0.62613 0.0
H1083 H 0.76493 0.9471 0.62962 0.0
H1084 H 0.77861 0.90763 0.65977 0.0
H1085 H 0.75795 0.89226 0.40193 0.0
H1086 H 0.77671 0.91043 0.40746 0.0
H1087 H 0.75922 0.90933 0.44365 0.0
C1088 C 0.79302 0.95026 0.51937 0.0
C1089 C 0.7845 0.95517 0.5599 0.0
C1090 C 0.78899 0.93432 0.51728 0.0
C1091 C 0.77633 0.92296 0.55534 0.0
C1092 C 0.76774 0.92773 0.59582 0.0
H1093 H 0.76264 0.82664 0.61022 0.0
H1094 H 0.75645 0.84821 0.61319 0.0
C1095 C 0.77172 0.94371 0.5978 0.0
C1096 C 0.77312 0.9064 0.55631 0.0
H1097 H 0.76768 0.87625 0.45363 0.0
C1098 C 0.77581 0.90054 0.61521 0.0
C1099 C 0.7694 0.89723 0.49804 0.0
C1100 C 0.76549 0.90257 0.43435 0.0
C1101 C 0.77615 0.88625 0.61617 0.0
C1102 C 0.77353 0.87764 0.55681 0.0
C1103 C 0.76979 0.88298 0.4989 0.0
C1104 C 0.77643 0.86414 0.55222 0.0
C1105 C 0.78036 0.88102 0.67949 0.0
C1106 C 0.7895 0.86592 0.51573 0.0
C1107 C 0.79309 0.85369 0.51378 0.0
C1108 C 0.78361 0.8394 0.54823 0.0
C1109 C 0.77026 0.83753 0.58348 0.0
C1110 C 0.76669 0.84981 0.5854 0.0
H1111 H 0.78407 0.89015 0.71895 0.0
H1112 H 0.76985 0.86991 0.69728 0.0
H1113 H 0.79016 0.87843 0.6709 0.0
H1114 H 0.79714 0.87693 0.48978 0.0
H1115 H 0.8034 0.85553 0.48585 0.0
H1116 H 0.07109 0.82726 0.56528 0.0
H1117 H 0.09914 0.8479 0.55751 0.0
H1118 H 0.08568 0.87942 0.46434 0.0
H1119 H 0.05769 0.85891 0.47092 0.0
H1120 H 0.11153 0.8782 0.40241 0.0
H1121 H 0.11975 0.88819 0.67392 0.0
H1122 H 0.11224 0.86816 0.6449 0.0
H1123 H 0.10027 0.87742 0.6366 0.0
C1124 C 0.07407 0.83859 0.54325 0.0
C1125 C 0.06211 0.84147 0.51919 0.0
C1126 C 0.09011 0.85035 0.53891 0.0
C1127 C 0.0944 0.86517 0.51091 0.0
C1128 C 0.08255 0.86801 0.48607 0.0
H1129 H 0.16459 0.9595 0.45849 0.0
H1130 H 0.14273 0.93219 0.44964 0.0
C1131 C 0.06656 0.85629 0.49015 0.0
C1132 C 0.11117 0.87803 0.50867 0.0
H1133 H 0.14103 0.90531 0.60603 0.0
C1134 C 0.11811 0.88401 0.44687 0.0
C1135 C 0.11971 0.88543 0.56686 0.0
C1136 C 0.11265 0.8796 0.63446 0.0
C1137 C 0.13313 0.89771 0.44171 0.0
C1138 C 0.14122 0.90567 0.49984 0.0
C1139 C 0.13474 0.89913 0.56161 0.0
C1140 C 0.15528 0.92181 0.4981 0.0
C1141 C 0.14001 0.90379 0.37415 0.0
C1142 C 0.16955 0.92499 0.52869 0.0
C1143 C 0.1821 0.94066 0.53425 0.0
C1144 C 0.18044 0.95337 0.51008 0.0
C1145 C 0.16625 0.95002 0.47789 0.0
C1146 C 0.15379 0.93439 0.47213 0.0
H1147 H 0.13529 0.89398 0.33735 0.0
H1148 H 0.1366 0.91261 0.35785 0.0
H1149 H 0.15322 0.9097 0.37469 0.0
H1150 H 0.17082 0.9154 0.5496 0.0
H1151 H 0.19287 0.94282 0.55932 0.0
H1152 H 0.19848 0.15961 0.55288 0.0
H1153 H 0.20145 0.13617 0.56408 0.0
H1154 H 0.24761 0.16134 0.47124 0.0
H1155 H 0.24489 0.18498 0.46027 0.0
H1156 H 0.20575 0.11995 0.45825 0.0
H1157 H 0.25572 0.14191 0.63772 0.0
H1158 H 0.24414 0.15162 0.62553 0.0
H1159 H 0.25924 0.15443 0.56702 0.0
C1160 C 0.20934 0.16025 0.53519 0.0
C1161 C 0.22144 0.17419 0.50552 0.0
C1162 C 0.21101 0.14684 0.54178 0.0
C1163 C 0.22482 0.14714 0.51925 0.0
C1164 C 0.23699 0.16102 0.49008 0.0
H1165 H 0.24992 0.07346 0.47427 0.0
H1166 H 0.25036 0.09889 0.4798 0.0
C1167 C 0.23534 0.17446 0.48342 0.0
C1168 C 0.22598 0.13254 0.52247 0.0
H1169 H 0.24729 0.11664 0.58911 0.0
C1170 C 0.21478 0.11918 0.48707 0.0
C1171 C 0.23786 0.1317 0.55981 0.0
C1172 C 0.24987 0.14562 0.60018 0.0
C1173 C 0.2152 0.10497 0.48755 0.0
C1174 C 0.22697 0.10405 0.52541 0.0
C1175 C 0.23827 0.11744 0.5604 0.0
C1176 C 0.22758 0.08917 0.52899 0.0
C1177 C 0.20321 0.09112 0.44668 0.0
C1178 C 0.21488 0.0755 0.55693 0.0
C1179 C 0.21454 0.06097 0.5537 0.0
C1180 C 0.22696 0.0599 0.52276 0.0
C1181 C 0.24012 0.07385 0.49813 0.0
C1182 C 0.24041 0.08839 0.50125 0.0
H1183 H 0.19757 0.09495 0.40862 0.0
H1184 H 0.20888 0.08501 0.4218 0.0
H1185 H 0.19365 0.08237 0.47939 0.0
H1186 H 0.20501 0.07599 0.5796 0.0
H1187 H 0.20432 0.05052 0.57399 0.0
H1188 H 0.85764 0.05371 0.55593 0.0
H1189 H 0.88069 0.0805 0.55618 0.0
H1190 H 0.85347 0.09815 0.45523 0.0
H1191 H 0.83017 0.07131 0.45474 0.0
H1192 H 0.89462 0.09907 0.43605 0.0
H1193 H 0.87479 0.12879 0.61743 0.0
H1194 H 0.86618 0.10742 0.61441 0.0
H1195 H 0.86115 0.11737 0.55248 0.0
C1196 C 0.85645 0.06326 0.5341 0.0
C1197 C 0.84203 0.06032 0.50515 0.0
C1198 C 0.86965 0.07856 0.53437 0.0
C1199 C 0.86867 0.09124 0.50626 0.0
C1200 C 0.85432 0.08849 0.47791 0.0
H1201 H 0.94389 0.19028 0.46042 0.0
H1202 H 0.91798 0.16576 0.46275 0.0
C1203 C 0.84108 0.07313 0.47738 0.0
C1204 C 0.88303 0.10713 0.50369 0.0
H1205 H 0.90011 0.14454 0.56899 0.0
C1206 C 0.89583 0.10904 0.46487 0.0
C1207 C 0.88441 0.12007 0.54101 0.0
C1208 C 0.87097 0.11841 0.58411 0.0
C1209 C 0.91015 0.12357 0.46297 0.0
C1210 C 0.91176 0.13637 0.50204 0.0
C1211 C 0.8988 0.13462 0.53948 0.0
C1212 C 0.92704 0.15147 0.50596 0.0
C1213 C 0.92343 0.12511 0.41905 0.0
C1214 C 0.94052 0.15156 0.53149 0.0
C1215 C 0.95532 0.16547 0.53011 0.0
C1216 C 0.95687 0.17958 0.50351 0.0
C1217 C 0.94314 0.17961 0.48092 0.0
C1218 C 0.92833 0.16564 0.48221 0.0
H1219 H 0.9189 0.11589 0.37973 0.0
H1220 H 0.92981 0.13704 0.39556 0.0
H1221 H 0.93212 0.12356 0.44921 0.0
H1222 H 0.93965 0.14077 0.55126 0.0
H1223 H 0.96558 0.16505 0.54871 0.0
H1224 H 0.9465 0.76997 0.41029 0.0
H1225 H 0.91915 0.76499 0.4142 0.0
H1226 H 0.93478 0.80773 0.52886 0.0
H1227 H 0.96207 0.8128 0.52594 0.0
H1228 H 0.90666 0.77966 0.57727 0.0
H1229 H 0.9034 0.79158 0.31032 0.0
H1230 H 0.90943 0.77731 0.33095 0.0
H1231 H 0.92212 0.79789 0.35177 0.0
C1232 C 0.94414 0.77833 0.43635 0.0
C1233 C 0.95652 0.79185 0.46747 0.0
C1234 C 0.92852 0.77546 0.43836 0.0
C1235 C 0.92506 0.78608 0.47129 0.0
C1236 C 0.93729 0.79943 0.50314 0.0
H1237 H 0.85423 0.80999 0.54836 0.0
H1238 H 0.87681 0.80549 0.54668 0.0
C1239 C 0.95288 0.80232 0.50119 0.0
C1240 C 0.90876 0.78356 0.47228 0.0
H1241 H 0.88132 0.78619 0.37606 0.0
C1242 C 0.901 0.7809 0.53324 0.0
C1243 C 0.90146 0.78508 0.41455 0.0
C1244 C 0.9095 0.78822 0.34809 0.0
C1245 C 0.88627 0.78022 0.53836 0.0
C1246 C 0.87935 0.78255 0.48119 0.0
C1247 C 0.88674 0.78445 0.41974 0.0
C1248 C 0.86524 0.78453 0.48483 0.0
C1249 C 0.87835 0.77727 0.60502 0.0
C1250 C 0.85139 0.77438 0.44949 0.0
C1251 C 0.83844 0.77696 0.4499 0.0
C1252 C 0.83924 0.78985 0.48521 0.0
C1253 C 0.85317 0.79994 0.52072 0.0
C1254 C 0.86606 0.79732 0.52033 0.0
H1255 H 0.8824 0.77091 0.63846 0.0
H1256 H 0.88156 0.78886 0.62817 0.0
H1257 H 0.86518 0.77019 0.60051 0.0
H1258 H 0.85064 0.76453 0.4213 0.0
H1259 H 0.82791 0.76897 0.42195 0.0
H1260 H 0.82958 0.54663 0.80677 0.0
H1261 H 0.80709 0.55126 0.8083 0.0
H1262 H 0.83299 0.59157 0.93719 0.0
H1263 H 0.85566 0.58699 0.9366 0.0
H1264 H 0.80184 0.56971 0.97969 0.0
H1265 H 0.8023 0.58659 0.7185 0.0
H1266 H 0.80306 0.56856 0.72745 0.0
H1267 H 0.81929 0.58704 0.75754 0.0
C1268 C 0.8306 0.55656 0.83518 0.0
C1269 C 0.84445 0.56644 0.87161 0.0
C1270 C 0.81776 0.55926 0.83552 0.0
C1271 C 0.81852 0.57191 0.87193 0.0
C1272 C 0.83228 0.58183 0.90829 0.0
H1273 H 0.73606 0.58521 0.94104 0.0
H1274 H 0.7636 0.59064 0.94033 0.0
C1275 C 0.8452 0.57918 0.90787 0.0
C1276 C 0.80444 0.57398 0.87501 0.0
H1277 H 0.77764 0.57736 0.77732 0.0
C1278 C 0.79668 0.57171 0.9358 0.0
C1279 C 0.79784 0.57665 0.81759 0.0
C1280 C 0.80614 0.58001 0.75169 0.0
C1281 C 0.78189 0.571 0.93994 0.0
C1282 C 0.77489 0.57281 0.88183 0.0
C1283 C 0.78305 0.5759 0.82166 0.0
C1284 C 0.75847 0.57003 0.8813 0.0
C1285 C 0.77344 0.56742 1.00556 0.0
C1286 C 0.74661 0.55682 0.84737 0.0
C1287 C 0.73093 0.55369 0.84751 0.0
C1288 C 0.7268 0.56376 0.88143 0.0
C1289 C 0.7388 0.57716 0.91469 0.0
C1290 C 0.75453 0.58027 0.91455 0.0
H1291 H 0.77942 0.56401 0.04369 0.0
H1292 H 0.7732 0.57814 0.02316 0.0
H1293 H 0.76091 0.55763 1.00039 0.0
H1294 H 0.74948 0.5488 0.82137 0.0
H1295 H 0.72205 0.54331 0.82113 0.0
H1296 H 0.46788 0.29312 0.78285 0.0
H1297 H 0.46186 0.26554 0.78846 0.0
H1298 H 0.42468 0.25498 0.93014 0.0
H1299 H 0.43064 0.28263 0.92537 0.0
H1300 H 0.44655 0.24544 0.96832 0.0
H1301 H 0.4238 0.2245 0.71615 0.0
H1302 H 0.44228 0.24306 0.71661 0.0
H1303 H 0.42476 0.24203 0.75197 0.0
C1304 C 0.45833 0.28494 0.81484 0.0
C1305 C 0.44978 0.29012 0.85379 0.0
C1306 C 0.45481 0.26914 0.8175 0.0
C1307 C 0.44266 0.25821 0.85889 0.0
C1308 C 0.43399 0.26324 0.89742 0.0
H1309 H 0.43068 0.16376 0.95077 0.0
H1310 H 0.42429 0.18522 0.94546 0.0
C1311 C 0.43745 0.27905 0.89462 0.0
C1312 C 0.44004 0.24192 0.86561 0.0
H1313 H 0.43376 0.20966 0.77507 0.0
C1314 C 0.44339 0.23741 0.9266 0.0
C1315 C 0.43585 0.23153 0.81103 0.0
C1316 C 0.43131 0.23544 0.7454 0.0
C1317 C 0.4438 0.22323 0.9332 0.0
C1318 C 0.44056 0.2133 0.87751 0.0
C1319 C 0.43629 0.21737 0.81756 0.0
C1320 C 0.44348 0.19977 0.87834 0.0
C1321 C 0.44871 0.21947 0.99838 0.0
C1322 C 0.45615 0.20079 0.84128 0.0
C1323 C 0.45983 0.18864 0.8441 0.0
C1324 C 0.45086 0.17518 0.88396 0.0
C1325 C 0.43788 0.17401 0.91987 0.0
C1326 C 0.43422 0.18624 0.91707 0.0
H1327 H 0.45283 0.22947 0.03406 0.0
H1328 H 0.43842 0.20882 0.0204 0.0
H1329 H 0.45843 0.2167 0.991 0.0
H1330 H 0.46341 0.21117 0.8111 0.0
H1331 H 0.46983 0.18991 0.81537 0.0
H1332 H 0.72754 0.19298 0.78444 0.0
H1333 H 0.75483 0.21516 0.78411 0.0
H1334 H 0.77066 0.18606 0.88219 0.0
H1335 H 0.7433 0.16371 0.88332 0.0
H1336 H 0.77972 0.21511 0.94469 0.0
H1337 H 0.79462 0.22409 0.67897 0.0
H1338 H 0.77568 0.22241 0.69652 0.0
H1339 H 0.77853 0.2057 0.71149 0.0
C1340 C 0.73682 0.19118 0.80521 0.0
C1341 C 0.7332 0.17659 0.83429 0.0
C1342 C 0.75244 0.20383 0.8044 0.0
C1343 C 0.76474 0.20213 0.8323 0.0
C1344 C 0.7613 0.18751 0.8599 0.0
H1345 H 0.85895 0.28515 0.92081 0.0
H1346 H 0.83799 0.25726 0.90992 0.0
C1347 C 0.74566 0.17478 0.86052 0.0
C1348 C 0.78079 0.2162 0.8386 0.0
H1349 H 0.80965 0.24687 0.74963 0.0
C1350 C 0.78651 0.22191 0.90218 0.0
C1351 C 0.78955 0.22493 0.78292 0.0
C1352 C 0.78436 0.21888 0.71362 0.0
C1353 C 0.8002 0.23679 0.91156 0.0
C1354 C 0.8084 0.24597 0.85576 0.0
C1355 C 0.80323 0.2398 0.79223 0.0
C1356 C 0.82129 0.26265 0.86205 0.0
C1357 C 0.80519 0.24302 0.98082 0.0
C1358 C 0.81882 0.27479 0.83807 0.0
C1359 C 0.8307 0.29067 0.84397 0.0
C1360 C 0.84534 0.29471 0.87394 0.0
C1361 C 0.84778 0.28247 0.89796 0.0
C1362 C 0.83584 0.26653 0.89184 0.0
H1363 H 0.79615 0.23543 0.01805 0.0
H1364 H 0.81653 0.24336 0.99283 0.0
H1365 H 0.80728 0.25534 0.98493 0.0
H1366 H 0.80761 0.27197 0.81506 0.0
H1367 H 0.82839 0.29975 0.82485 0.0
H1368 H 0.88053 0.501 0.8789 0.0
H1369 H 0.88656 0.47945 0.87825 0.0
H1370 H 0.92528 0.5058 0.74253 0.0
H1371 H 0.91929 0.52754 0.74229 0.0
H1372 H 0.90392 0.47411 0.70447 0.0
H1373 H 0.92385 0.47701 0.96238 0.0
H1374 H 0.90542 0.4771 0.95689 0.0
H1375 H 0.92328 0.49341 0.92273 0.0
C1376 C 0.89041 0.50232 0.84918 0.0
C1377 C 0.89941 0.516 0.81054 0.0
C1378 C 0.89393 0.49004 0.84939 0.0
C1379 C 0.90653 0.4912 0.81127 0.0
C1380 C 0.91561 0.50481 0.77279 0.0
H1381 H 0.91905 0.40807 0.74594 0.0
H1382 H 0.92522 0.43584 0.74434 0.0
C1383 C 0.91215 0.51718 0.77272 0.0
C1384 C 0.90925 0.47755 0.80827 0.0
H1385 H 0.91402 0.45176 0.90689 0.0
C1386 C 0.90651 0.46938 0.74825 0.0
C1387 C 0.91272 0.47153 0.86552 0.0
C1388 C 0.91665 0.48032 0.93038 0.0
C1389 C 0.90592 0.45465 0.74509 0.0
C1390 C 0.90834 0.44814 0.80336 0.0
C1391 C 0.91208 0.45679 0.86245 0.0
C1392 C 0.90523 0.43163 0.80569 0.0
C1393 C 0.9017 0.44567 0.6806 0.0
C1394 C 0.89212 0.42024 0.84162 0.0
C1395 C 0.88855 0.40443 0.84277 0.0
C1396 C 0.89809 0.39972 0.80811 0.0
C1397 C 0.9114 0.41127 0.77288 0.0
C1398 C 0.91495 0.42712 0.77175 0.0
H1399 H 0.89819 0.45149 0.64214 0.0
H1400 H 0.91214 0.44501 0.66226 0.0
H1401 H 0.89177 0.4333 0.68781 0.0
H1402 H 0.8845 0.42356 0.86811 0.0
H1403 H 0.87826 0.39592 0.87066 0.0
H1404 H 0.52116 0.38922 0.83853 0.0
H1405 H 0.54398 0.41611 0.8354 0.0
H1406 H 0.51606 0.43252 0.73166 0.0
H1407 H 0.49294 0.40554 0.73459 0.0
H1408 H 0.55751 0.43409 0.71288 0.0
H1409 H 0.53737 0.46408 0.892 0.0
H1410 H 0.52903 0.44273 0.8914 0.0
H1411 H 0.52391 0.45214 0.82741 0.0
C1412 C 0.51976 0.3985 0.81529 0.0
C1413 C 0.50519 0.39518 0.78667 0.0
C1414 C 0.53283 0.41386 0.81359 0.0
C1415 C 0.53161 0.42623 0.78368 0.0
C1416 C 0.51712 0.42311 0.75557 0.0
H1417 H 0.61243 0.52428 0.75683 0.0
H1418 H 0.58554 0.50133 0.7444 0.0
C1419 C 0.50397 0.40768 0.75709 0.0
C1420 C 0.54586 0.4422 0.7801 0.0
H1421 H 0.56347 0.47912 0.8504 0.0
C1422 C 0.55876 0.44402 0.7422 0.0
C1423 C 0.54732 0.45508 0.81811 0.0
C1424 C 0.53374 0.45353 0.8599 0.0
C1425 C 0.57338 0.45825 0.74334 0.0
C1426 C 0.57513 0.47083 0.78415 0.0
C1427 C 0.56201 0.46935 0.81944 0.0
C1428 C 0.59091 0.48496 0.79508 0.0
C1429 C 0.58699 0.4596 0.7023 0.0
C1430 C 0.60258 0.48331 0.82908 0.0
C1431 C 0.61787 0.4963 0.83645 0.0
C1432 C 0.62179 0.51122 0.80985 0.0
C1433 C 0.60986 0.51294 0.77759 0.0
C1434 C 0.59449 0.49989 0.77047 0.0
H1435 H 0.58272 0.45067 0.66187 0.0
H1436 H 0.59399 0.47169 0.68057 0.0
H1437 H 0.59508 0.45752 0.73423 0.0
H1438 H 0.5999 0.47187 0.84905 0.0
H1439 H 0.62669 0.49452 0.8619 0.0
H1440 H 0.6347 0.14993 0.88045 0.0
H1441 H 0.60847 0.14747 0.88884 0.0
H1442 H 0.58762 0.10256 0.78599 0.0
H1443 H 0.61382 0.10477 0.77779 0.0
H1444 H 0.5902 0.14547 0.77777 0.0
H1445 H 0.55742 0.09338 0.94421 0.0
H1446 H 0.5789 0.10432 0.9387 0.0
H1447 H 0.5673 0.0904 0.87524 0.0
C1448 C 0.62454 0.13942 0.86024 0.0
C1449 C 0.6264 0.12759 0.82807 0.0
C1450 C 0.60956 0.13804 0.86521 0.0
C1451 C 0.59614 0.12479 0.83847 0.0
C1452 C 0.59782 0.11274 0.80791 0.0
H1453 H 0.49926 0.10684 0.78319 0.0
H1454 H 0.52331 0.10455 0.78298 0.0
C1455 C 0.61282 0.11408 0.80297 0.0
C1456 C 0.5807 0.12436 0.83786 0.0
H1457 H 0.54251 0.10403 0.89543 0.0
C1458 C 0.57978 0.13643 0.80356 0.0
C1459 C 0.56714 0.11244 0.87107 0.0
C1460 C 0.56768 0.09945 0.90988 0.0
C1461 C 0.56563 0.13698 0.80184 0.0
C1462 C 0.55216 0.12527 0.83613 0.0
C1463 C 0.55294 0.11299 0.86937 0.0
C1464 C 0.53736 0.12602 0.83969 0.0
C1465 C 0.56517 0.15005 0.76316 0.0
C1466 C 0.53732 0.13867 0.87285 0.0
C1467 C 0.52368 0.14006 0.87306 0.0
C1468 C 0.5098 0.12876 0.84018 0.0
C1469 C 0.50977 0.1158 0.80862 0.0
C1470 C 0.52345 0.11444 0.80856 0.0
H1471 H 0.57512 0.15568 0.72714 0.0
H1472 H 0.55372 0.14538 0.73619 0.0
H1473 H 0.56623 0.15941 0.79771 0.0
H1474 H 0.54792 0.1476 0.8979 0.0
H1475 H 0.52413 0.15011 0.89833 0.0
H1476 H 0.49834 0.87937 0.11025 0.0
H1477 H 0.47563 0.88367 0.10751 0.0
H1478 H 0.50325 0.92864 0.20725 0.0
H1479 H 0.5261 0.92444 0.21094 0.0
H1480 H 0.47397 0.90826 0.26657 0.0
H1481 H 0.46655 0.91388 0.9989 0.0
H1482 H 0.46827 0.89677 0.01877 0.0
H1483 H 0.48481 0.9164 0.03399 0.0
C1484 C 0.4997 0.89029 0.13094 0.0
C1485 C 0.51404 0.90152 0.16114 0.0
C1486 C 0.48674 0.89278 0.12878 0.0
C1487 C 0.48787 0.90657 0.15636 0.0
C1488 C 0.50222 0.91799 0.18525 0.0
H1489 H 0.40667 0.921 0.23488 0.0
H1490 H 0.43405 0.92627 0.22557 0.0
C1491 C 0.51525 0.91554 0.18732 0.0
C1492 C 0.47356 0.90821 0.16038 0.0
H1493 H 0.44365 0.90688 0.06708 0.0
C1494 C 0.46746 0.90828 0.22306 0.0
C1495 C 0.46518 0.90825 0.10342 0.0
C1496 C 0.47161 0.90898 0.03496 0.0
C1497 C 0.45265 0.90739 0.23035 0.0
C1498 C 0.44392 0.90667 0.17332 0.0
C1499 C 0.45037 0.90735 0.11064 0.0
C1500 C 0.42754 0.9039 0.1776 0.0
C1501 C 0.44608 0.90634 0.29882 0.0
C1502 C 0.41491 0.88972 0.15258 0.0
C1503 C 0.3993 0.88668 0.15751 0.0
C1504 C 0.39601 0.8978 0.18752 0.0
C1505 C 0.40875 0.91211 0.21201 0.0
C1506 C 0.4244 0.91515 0.20686 0.0
H1507 H 0.45299 0.90413 0.33689 0.0
H1508 H 0.44654 0.91773 0.31088 0.0
H1509 H 0.43344 0.89668 0.30152 0.0
H1510 H 0.41714 0.8809 0.12981 0.0
H1511 H 0.38981 0.87556 0.13795 0.0
H1512 H 0.14139 0.63026 0.14214 0.0
H1513 H 0.13622 0.60298 0.13927 0.0
H1514 H 0.09651 0.58844 0.27185 0.0
H1515 H 0.10163 0.61585 0.27567 0.0
H1516 H 0.11825 0.5785 0.30897 0.0
H1517 H 0.09998 0.5637 0.04802 0.0
H1518 H 0.11818 0.58233 0.05716 0.0
H1519 H 0.09994 0.5801 0.09024 0.0
C1520 C 0.13148 0.6213 0.17049 0.0
C1521 C 0.12193 0.62527 0.20921 0.0
C1522 C 0.12846 0.60567 0.16827 0.0
C1523 C 0.11582 0.5937 0.2044 0.0
C1524 C 0.10623 0.59754 0.24311 0.0
H1525 H 0.1021 0.49752 0.25864 0.0
H1526 H 0.0968 0.51967 0.26221 0.0
C1527 C 0.10919 0.6132 0.24524 0.0
C1528 C 0.11348 0.57747 0.20484 0.0
H1529 H 0.10941 0.54783 0.10204 0.0
C1530 C 0.11598 0.57158 0.26413 0.0
C1531 C 0.11045 0.56853 0.14618 0.0
C1532 C 0.10682 0.57391 0.08191 0.0
C1533 C 0.11661 0.55746 0.26541 0.0
C1534 C 0.11449 0.54901 0.20596 0.0
C1535 C 0.11113 0.55444 0.14739 0.0
C1536 C 0.11716 0.53534 0.20235 0.0
C1537 C 0.12047 0.55216 0.32941 0.0
C1538 C 0.13018 0.53679 0.16645 0.0
C1539 C 0.13325 0.52421 0.16411 0.0
C1540 C 0.12329 0.5099 0.19753 0.0
C1541 C 0.11008 0.50841 0.23268 0.0
C1542 C 0.10703 0.52104 0.23496 0.0
H1543 H 0.12417 0.56135 0.36861 0.0
H1544 H 0.10977 0.54118 0.34696 0.0
H1545 H 0.13014 0.54934 0.32196 0.0
H1546 H 0.1381 0.54778 0.14092 0.0
H1547 H 0.14348 0.52577 0.13635 0.0
H1548 H 0.49297 0.62953 0.14762 0.0
H1549 H 0.4705 0.60239 0.14821 0.0
H1550 H 0.49803 0.58684 0.26048 0.0
H1551 H 0.52065 0.61406 0.26096 0.0
H1552 H 0.46899 0.57361 0.1021 0.0
H1553 H 0.45716 0.57284 0.37156 0.0
H1554 H 0.46954 0.59109 0.32716 0.0
H1555 H 0.47704 0.57803 0.34743 0.0
C1556 C 0.49432 0.62038 0.17244 0.0
C1557 C 0.50859 0.62402 0.20477 0.0
C1558 C 0.48147 0.60487 0.1725 0.0
C1559 C 0.48261 0.59273 0.20497 0.0
C1560 C 0.4969 0.59616 0.23597 0.0
H1561 H 0.40221 0.49655 0.27103 0.0
H1562 H 0.42943 0.51914 0.26709 0.0
C1563 C 0.5098 0.6117 0.23599 0.0
C1564 C 0.46859 0.57659 0.20722 0.0
H1565 H 0.43943 0.55035 0.31014 0.0
C1566 C 0.4626 0.56841 0.14762 0.0
C1567 C 0.46041 0.56988 0.26685 0.0
C1568 C 0.46624 0.5784 0.33199 0.0
C1569 C 0.4483 0.55384 0.14577 0.0
C1570 C 0.43972 0.54751 0.20493 0.0
C1571 C 0.44608 0.55531 0.26494 0.0
C1572 C 0.4235 0.53357 0.20494 0.0
C1573 C 0.44237 0.54546 0.08046 0.0
C1574 C 0.41121 0.53437 0.17196 0.0
C1575 C 0.39568 0.52156 0.17421 0.0
C1576 C 0.39213 0.50773 0.20986 0.0
C1577 C 0.40452 0.507 0.24303 0.0
C1578 C 0.42007 0.51986 0.2408 0.0
H1579 H 0.45228 0.54911 0.04467 0.0
H1580 H 0.43619 0.53233 0.08657 0.0
H1581 H 0.43379 0.54865 0.05915 0.0
H1582 H 0.41359 0.54501 0.14527 0.0
H1583 H 0.38645 0.52257 0.14822 0.0
H1584 H 0.54094 0.7245 0.2024 0.0
H1585 H 0.54693 0.75208 0.20503 0.0
H1586 H 0.59195 0.76702 0.10913 0.0
H1587 H 0.58602 0.73936 0.10533 0.0
H1588 H 0.57331 0.77922 0.26266 0.0
H1589 H 0.56991 0.78482 0.99033 0.0
H1590 H 0.56233 0.76577 0.03052 0.0
H1591 H 0.5834 0.77853 0.01973 0.0
C1592 C 0.55213 0.7336 0.18179 0.0
C1593 C 0.56294 0.72967 0.15311 0.0
C1594 C 0.55555 0.74937 0.18357 0.0
C1595 C 0.56979 0.7615 0.15669 0.0
C1596 C 0.58078 0.75775 0.12922 0.0
H1597 H 0.59011 0.85952 0.09872 0.0
H1598 H 0.59448 0.83683 0.10794 0.0
C1599 C 0.57737 0.74194 0.12724 0.0
C1600 C 0.57279 0.77799 0.15653 0.0
H1601 H 0.57411 0.80666 0.05493 0.0
C1602 C 0.57368 0.78532 0.21728 0.0
C1603 C 0.57337 0.78591 0.09715 0.0
C1604 C 0.5721 0.77838 0.0306 0.0
C1605 C 0.57459 0.80019 0.22029 0.0
C1606 C 0.57435 0.80773 0.16102 0.0
C1607 C 0.57428 0.80079 0.10023 0.0
C1608 C 0.57256 0.82198 0.16081 0.0
C1609 C 0.5755 0.80757 0.28684 0.0
C1610 C 0.55877 0.82106 0.1874 0.0
C1611 C 0.55619 0.83392 0.18206 0.0
C1612 C 0.56732 0.84794 0.14963 0.0
C1613 C 0.58129 0.84892 0.12404 0.0
C1614 C 0.58383 0.83599 0.12928 0.0
H1615 H 0.58057 0.80308 0.3247 0.0
H1616 H 0.58286 0.82075 0.28468 0.0
H1617 H 0.56331 0.80438 0.30288 0.0
H1618 H 0.54976 0.8102 0.21064 0.0
H1619 H 0.54531 0.83274 0.20238 0.0
H1620 H 0.29532 0.83138 0.20377 0.0
H1621 H 0.26793 0.80947 0.20637 0.0
H1622 H 0.25302 0.83684 0.08935 0.0
H1623 H 0.28055 0.85894 0.08565 0.0
H1624 H 0.23976 0.80913 0.2524 0.0
H1625 H 0.23744 0.79479 0.98485 0.0
H1626 H 0.256 0.80723 0.0272 0.0
H1627 H 0.24316 0.81495 1.00641 0.0
C1628 C 0.28627 0.83283 0.17853 0.0
C1629 C 0.29019 0.8469 0.14397 0.0
C1630 C 0.2706 0.82029 0.18033 0.0
C1631 C 0.25854 0.82152 0.14754 0.0
C1632 C 0.26225 0.83563 0.11421 0.0
H1633 H 0.16234 0.73982 0.09273 0.0
H1634 H 0.18441 0.76734 0.09343 0.0
C1635 C 0.27798 0.84824 0.11234 0.0
C1636 C 0.24222 0.80772 0.14741 0.0
H1637 H 0.21543 0.77758 0.04954 0.0
C1638 C 0.23431 0.80233 0.20796 0.0
C1639 C 0.23516 0.79898 0.08921 0.0
C1640 C 0.24335 0.80416 0.02313 0.0
C1641 C 0.21974 0.78805 0.21226 0.0
C1642 C 0.21313 0.77886 0.15465 0.0
C1643 C 0.2206 0.78468 0.09357 0.0
C1644 C 0.19935 0.76253 0.15752 0.0
C1645 C 0.21173 0.78276 0.27858 0.0
C1646 C 0.20056 0.75076 0.19287 0.0
C1647 C 0.18806 0.73505 0.19248 0.0
C1648 C 0.1741 0.73079 0.15631 0.0
C1649 C 0.1729 0.74268 0.12117 0.0
C1650 C 0.18547 0.75841 0.12153 0.0
H1651 H 0.21537 0.79305 0.31229 0.0
H1652 H 0.19856 0.77628 0.27361 0.0
H1653 H 0.21529 0.77463 0.30173 0.0
H1654 H 0.21135 0.75365 0.21971 0.0
H1655 H 0.18943 0.72624 0.22001 0.0
H1656 H 0.27837 0.43035 0.09118 0.0
H1657 H 0.25076 0.42462 0.08673 0.0
H1658 H 0.26307 0.46555 0.20907 0.0
H1659 H 0.29057 0.47133 0.21456 0.0
H1660 H 0.23382 0.43689 0.24387 0.0
H1661 H 0.23784 0.4527 0.97724 0.0
H1662 H 0.24309 0.43801 1.00076 0.0
H1663 H 0.25534 0.45828 0.02673 0.0
C1664 C 0.2752 0.43809 0.1175 0.0
C1665 C 0.28674 0.45141 0.15271 0.0
C1666 C 0.25943 0.4348 0.11471 0.0
C1667 C 0.255 0.44478 0.14695 0.0
C1668 C 0.26632 0.45774 0.1838 0.0
H1669 H 0.18807 0.47354 0.19826 0.0
H1670 H 0.20877 0.46637 0.20305 0.0
C1671 C 0.28205 0.46105 0.18664 0.0
C1672 C 0.23877 0.44231 0.1406 0.0
H1673 H 0.21479 0.4479 0.03391 0.0
C1674 C 0.2295 0.43902 0.19778 0.0
C1675 C 0.23319 0.44498 0.0802 0.0
C1676 C 0.24285 0.44878 0.01761 0.0
C1677 C 0.21509 0.43909 0.19682 0.0
C1678 C 0.21004 0.44282 0.13742 0.0
C1679 C 0.21878 0.44509 0.07934 0.0
C1680 C 0.19692 0.44638 0.13626 0.0
C1681 C 0.20563 0.43566 0.25979 0.0
C1682 C 0.18358 0.43773 0.09575 0.0
C1683 C 0.17169 0.44186 0.09248 0.0
C1684 C 0.17309 0.45483 0.12914 0.0
C1685 C 0.18656 0.46348 0.16938 0.0
C1686 C 0.19836 0.45931 0.17274 0.0
H1687 H 0.20809 0.42814 0.29375 0.0
H1688 H 0.20909 0.44705 0.2854 0.0
H1689 H 0.19264 0.42956 0.24962 0.0
H1690 H 0.18241 0.42782 0.06663 0.0
H1691 H 0.16149 0.43496 0.06092 0.0
H1692 H 0.02742 0.20568 0.29462 0.0
H1693 H 0.03025 0.20244 0.17568 0.0
H1694 H 0.98744 0.20428 0.13745 0.0
H1695 H 0.98468 0.20774 0.25473 0.0
H1696 H 0.00785 0.1801 0.07077 0.0
H1697 H 0.02456 0.2435 0.04106 0.0
H1698 H 0.02474 0.235 0.12005 0.0
H1699 H 0.00627 0.23169 0.08518 0.0
C1700 C 0.01851 0.20514 0.26081 0.0
C1701 C 0.00601 0.20728 0.28377 0.0
C1702 C 0.02011 0.20325 0.19308 0.0
C1703 C 0.00916 0.20334 0.14796 0.0
C1704 C -0.00388 0.20438 0.17146 0.0
H1705 H 0.99226 0.18957 0.72687 0.0
H1706 H 0.99202 0.18472 0.84613 0.0
C1707 C -0.00539 0.20643 0.23851 0.0
C1708 C 0.01198 0.20405 0.076 0.0
H1709 H 0.01856 0.22814 0.94339 0.0
C1710 C 0.01038 0.19063 0.0427 0.0
C1711 C 0.01543 0.21787 0.03983 0.0
C1712 C 0.018 0.2329 0.07329 0.0
C1713 C 0.0117 0.19056 0.97349 0.0
C1714 C 0.01444 0.20417 0.93716 0.0
C1715 C 0.0164 0.21767 0.97105 0.0
C1716 C 0.01545 0.20505 0.86402 0.0
C1717 C 0.01028 0.17601 0.94009 0.0
C1718 C 0.0287 0.21794 0.83433 0.0
C1719 C 0.02864 0.22091 0.76718 0.0
C1720 C 0.01544 0.21092 0.72787 0.0
C1721 C 0.0026 0.19737 0.75626 0.0
C1722 C 0.00252 0.19455 0.82422 0.0
H1723 H 0.01284 0.16871 0.9748 0.0
H1724 H -0.00209 0.16851 0.92173 0.0
H1725 H 0.01851 0.17935 0.89738 0.0
H1726 H 0.03882 0.22617 0.86384 0.0
H1727 H 0.03875 0.23136 0.74625 0.0
H1728 H 0.83497 0.83224 0.30707 0.0
H1729 H 0.84107 0.83874 0.18943 0.0
H1730 H 0.79153 0.80795 0.14137 0.0
H1731 H 0.78541 0.80133 0.25776 0.0
H1732 H 0.83416 0.81425 0.09008 0.0
H1733 H 0.8047 0.84926 0.03331 0.0
H1734 H 0.81048 0.84727 0.116 0.0
H1735 H 0.79247 0.83155 0.08034 0.0
C1736 C 0.82534 0.82719 0.2715 0.0
C1737 C 0.80971 0.81627 0.29168 0.0
C1738 C 0.82885 0.83085 0.20435 0.0
C1739 C 0.81673 0.82393 0.1567 0.0
C1740 C 0.80103 0.81361 0.17727 0.0
H1741 H 0.79984 0.78857 0.77382 0.0
H1742 H 0.80626 0.79496 0.8902 0.0
C1743 C 0.79757 0.80978 0.24387 0.0
C1744 C 0.82038 0.82607 0.08499 0.0
H1745 H 0.80919 0.83621 0.94152 0.0
C1746 C 0.82903 0.81939 0.05764 0.0
C1747 C 0.81379 0.83287 0.04267 0.0
C1748 C 0.80496 0.84079 0.06951 0.0
C1749 C 0.83028 0.81833 0.98893 0.0
C1750 C 0.82264 0.82405 0.9466 0.0
C1751 C 0.81498 0.83175 0.97396 0.0
C1752 C 0.82072 0.82037 0.87489 0.0
C1753 C 0.83925 0.81056 0.96208 0.0
C1754 C 0.82686 0.83253 0.82727 0.0
C1755 C 0.82333 0.82888 0.76014 0.0
C1756 C 0.81329 0.81303 0.73995 0.0
C1757 C 0.8076 0.80089 0.78772 0.0
C1758 C 0.81132 0.80452 0.85432 0.0
H1759 H 0.84809 0.81104 0.99826 0.0
H1760 H 0.83069 0.79786 0.95131 0.0
H1761 H 0.84551 0.81637 0.91555 0.0
H1762 H 0.83403 0.84486 0.84221 0.0
H1763 H 0.82774 0.8385 0.7246 0.0
H1764 H 0.22403 0.03737 0.27614 0.0
H1765 H 0.21869 0.03618 0.15811 0.0
H1766 H 0.18201 0.98692 0.17755 0.0
H1767 H 0.18688 0.98835 0.29702 0.0
H1768 H 0.22439 0.01847 0.07988 0.0
H1769 H 0.16126 0.002 0.04636 0.0
H1770 H 0.17151 0.00899 0.12418 0.0
H1771 H 0.1636 0.98856 0.09983 0.0
C1772 C 0.21454 0.0264 0.25543 0.0
C1773 C 0.20591 0.01292 0.29534 0.0
C1774 C 0.21148 0.02574 0.18802 0.0
C1775 C 0.19992 0.01148 0.15869 0.0
C1776 C 0.19075 -0.00185 0.19905 0.0
H1777 H 0.20975 0.984 0.76901 0.0
H1778 H 0.20597 0.98623 0.88644 0.0
C1779 C 0.19359 -0.00107 0.2672 0.0
C1780 C 0.19922 0.01016 0.08555 0.0
H1781 H 0.17446 -0.00105 0.95163 0.0
C1782 C 0.21347 0.01438 0.05202 0.0
C1783 C 0.18502 0.0049 0.04886 0.0
C1784 C 0.16951 0.00101 0.08158 0.0
C1785 C 0.21391 0.01324 0.98335 0.0
C1786 C 0.19961 0.00725 0.94694 0.0
C1787 C 0.18537 0.00338 0.97985 0.0
C1788 C 0.19939 0.00437 0.87509 0.0
C1789 C 0.22974 0.01847 0.95035 0.0
C1790 C 0.19618 0.01331 0.82944 0.0
C1791 C 0.19821 0.01197 0.76165 0.0
C1792 C 0.20358 0.00175 0.73899 0.0
C1793 C 0.20591 0.99222 0.78489 0.0
C1794 C 0.20372 0.99344 0.85207 0.0
H1795 H 0.23988 0.02678 0.98202 0.0
H1796 H 0.23099 0.00787 0.94079 0.0
H1797 H 0.2306 0.02441 0.90248 0.0
H1798 H 0.19276 0.02178 0.84638 0.0
H1799 H 0.19626 0.01941 0.72742 0.0
H1800 H -0.00467 0.79137 0.75221 0.0
H1801 H -0.00486 0.79767 0.86859 0.0
H1802 H 0.01715 0.84759 0.82109 0.0
H1803 H 0.01721 0.84131 0.70341 0.0
H1804 H 0.03328 0.83868 0.92101 0.0
H1805 H 0.96913 0.81377 0.97576 0.0
H1806 H 0.97338 0.80066 0.92836 0.0
H1807 H 0.97723 0.8193 0.89341 0.0
C1808 C -0.00017 0.80367 0.76623 0.0
C1809 C 0.00628 0.81584 0.71859 0.0
C1810 C -0.00035 0.80725 0.83281 0.0
C1811 C 0.00602 0.82308 0.85352 0.0
C1812 C 0.01206 0.83528 0.80603 0.0
H1813 H 0.00338 0.83463 0.28593 0.0
H1814 H 0.00394 0.84127 0.16837 0.0
C1815 C 0.01201 0.83167 0.73888 0.0
C1816 C 0.00766 0.82669 0.92526 0.0
H1817 H 0.98606 0.81676 0.06803 0.0
C1818 C 0.02297 0.83424 0.95312 0.0
C1819 C -0.00577 0.82098 0.96714 0.0
C1820 C 0.97755 0.81335 0.93971 0.0
C1821 C 0.02514 0.8352 0.0219 0.0
C1822 C 0.01166 0.82841 0.06376 0.0
C1823 C -0.0036 0.8219 0.03592 0.0
C1824 C 0.01302 0.82609 0.13541 0.0
C1825 C 0.04182 0.84292 0.04935 0.0
C1826 C 0.01806 0.8155 0.15576 0.0
C1827 C 0.0176 0.81158 0.2223 0.0
C1828 C 0.01218 0.81826 0.27025 0.0
C1829 C 0.00777 0.82942 0.25025 0.0
C1830 C 0.00801 0.83316 0.18316 0.0
H1831 H 0.05069 0.85134 0.01342 0.0
H1832 H 0.04277 0.84941 0.09579 0.0
H1833 H 0.04489 0.83356 0.06047 0.0
H1834 H 0.02176 0.80974 0.11976 0.0
H1835 H 0.02107 0.80295 0.23606 0.0
H1836 H 0.22266 0.22379 0.24984 0.0
H1837 H 0.21547 0.21756 0.13456 0.0
H1838 H 0.16917 0.17922 0.19042 0.0
H1839 H 0.17631 0.18534 0.30779 0.0
H1840 H 0.20343 0.18343 0.07967 0.0
H1841 H 0.164 0.20934 0.04223 0.0
H1842 H 0.17928 0.2173 0.10495 0.0
H1843 H 0.16225 0.19787 0.11514 0.0
C1844 C 0.21088 0.21405 0.23825 0.0
C1845 C 0.20011 0.20499 0.28857 0.0
C1846 C 0.2068 0.21053 0.17202 0.0
C1847 C 0.19184 0.19793 0.15399 0.0
C1848 C 0.18078 0.18904 0.20351 0.0
H1849 H 0.17452 0.18726 0.72122 0.0
H1850 H 0.1685 0.18004 0.83859 0.0
C1851 C 0.18488 0.19257 0.27045 0.0
C1852 C 0.1885 0.194 0.08296 0.0
H1853 H 0.17397 0.2033 0.94694 0.0
C1854 C 0.19662 0.18736 0.05071 0.0
C1855 C 0.17959 0.1991 0.0454 0.0
C1856 C 0.17072 0.20631 0.07822 0.0
C1857 C 0.19692 0.18663 0.9816 0.0
C1858 C 0.18909 0.19293 0.94378 0.0
C1859 C 0.17996 0.19847 0.97605 0.0
C1860 C 0.19246 0.19626 0.87231 0.0
C1861 C 0.20629 0.17987 0.94945 0.0
C1862 C 0.20786 0.20773 0.85261 0.0
C1863 C 0.21127 0.21193 0.78639 0.0
C1864 C 0.19936 0.20472 0.7379 0.0
C1865 C 0.18397 0.19293 0.75733 0.0
C1866 C 0.1805 0.18885 0.82426 0.0
H1867 H 0.20742 0.17137 0.98267 0.0
H1868 H 0.20061 0.1737 0.9026 0.0
H1869 H 0.21846 0.18972 0.93804 0.0
H1870 H 0.21722 0.21373 0.88888 0.0
H1871 H 0.22326 0.22101 0.77328 0.0
H1872 H 0.83672 0.01243 0.32501 0.0
H1873 H 0.84292 0.01198 0.20748 0.0
H1874 H 0.7941 -0.00344 0.15722 0.0
H1875 H 0.78787 -0.00298 0.27342 0.0
H1876 H 0.80906 0.98067 0.08632 0.0
H1877 H 0.84366 0.04704 0.08013 0.0
H1878 H 0.84849 0.03676 0.14183 0.0
H1879 H 0.82981 0.03635 0.14583 0.0
C1880 C 0.82726 0.00863 0.28894 0.0
C1881 C 0.81183 0.00488 0.30845 0.0
C1882 C 0.83084 0.00847 0.22187 0.0
C1883 C 0.81899 0.0044 0.17366 0.0
C1884 C 0.80342 -0.00023 0.19355 0.0
H1885 H 0.79995 0.02038 0.79253 0.0
H1886 H 0.80636 0.02003 0.9086 0.0
C1887 C 0.7999 9e-05 0.26006 0.0
C1888 C 0.8227 0.00597 0.10205 0.0
H1889 H 0.83733 0.03367 0.97862 0.0
C1890 C 0.8156 0.99222 0.06268 0.0
C1891 C 0.8311 0.02108 0.07148 0.0
C1892 C 0.83869 0.03622 0.11158 0.0
C1893 C 0.81604 0.99322 0.99343 0.0
C1894 C 0.82378 0.00837 0.96289 0.0
C1895 C 0.83153 0.02208 1.00224 0.0
C1896 C 0.82177 0.01023 0.89142 0.0
C1897 C 0.80731 0.97814 0.95336 0.0
C1898 C 0.82872 0.00528 0.84288 0.0
C1899 C 0.82516 0.00559 0.77592 0.0
C1900 C 0.81446 0.01068 0.75678 0.0
C1901 C 0.80814 0.01628 0.80554 0.0
C1902 C 0.81182 0.01613 0.87198 0.0
H1903 H 0.80079 0.9674 0.98486 0.0
H1904 H 0.79868 0.97889 0.91963 0.0
H1905 H 0.81596 0.97668 0.92256 0.0
H1906 H 0.83653 0.00079 0.85691 0.0
H1907 H 0.83017 0.00114 0.7396 0.0
H1908 H 0.66163 0.55089 0.10787 0.0
H1909 H 0.66181 0.54449 0.2241 0.0
H1910 H 0.67896 0.51254 0.17285 0.0
H1911 H 0.67877 0.51889 0.05536 0.0
H1912 H 0.64732 0.51403 0.2964 0.0
H1913 H 0.71375 0.5477 0.29763 0.0
H1914 H 0.70241 0.55011 0.23251 0.0
H1915 H 0.70365 0.53229 0.23691 0.0
C1916 C 0.66519 0.54228 0.12103 0.0
C1917 C 0.67029 0.53547 0.07236 0.0
C1918 C 0.66526 0.53862 0.18756 0.0
C1919 C 0.67058 0.5282 0.20719 0.0
C1920 C 0.67493 0.52072 0.1587 0.0
H1921 H 0.66911 0.51414 0.64104 0.0
H1922 H 0.66882 0.50756 0.52354 0.0
C1923 C 0.6747 0.52426 0.09164 0.0
C1924 C 0.67258 0.52634 0.27872 0.0
H1925 H 0.70085 0.54023 0.40008 0.0
C1926 C 0.659 0.51938 0.31915 0.0
C1927 C 0.68786 0.5335 0.30816 0.0
C1928 C 0.70282 0.54141 0.26696 0.0
C1929 C 0.66031 0.52002 0.38832 0.0
C1930 C 0.6756 0.52782 0.41776 0.0
C1931 C 0.68916 0.53414 0.37733 0.0
C1932 C 0.67766 0.53168 0.48928 0.0
C1933 C 0.64536 0.51331 0.42951 0.0
C1934 C 0.68328 0.54746 0.50896 0.0
C1935 C 0.6834 0.55122 0.5755 0.0
C1936 C 0.67807 0.53928 0.62412 0.0
C1937 C 0.67337 0.5236 0.6048 0.0
C1938 C 0.67308 0.51981 0.53773 0.0
H1939 H 0.63446 0.50889 0.39885 0.0
H1940 H 0.64428 0.50326 0.45965 0.0
H1941 H 0.646 0.52253 0.4639 0.0
H1942 H 0.6869 0.55681 0.47245 0.0
H1943 H 0.68718 0.56343 0.58871 0.0
H1944 H 0.50297 0.16902 0.6543 0.0
H1945 H 0.5086 0.17587 0.53666 0.0
H1946 H 0.45969 0.14217 0.48926 0.0
H1947 H 0.45405 0.13517 0.60559 0.0
H1948 H 0.5029 0.1516 0.43491 0.0
H1949 H 0.46999 0.18364 0.38544 0.0
H1950 H 0.47662 0.18208 0.46705 0.0
H1951 H 0.45892 0.16568 0.43262 0.0
C1952 C 0.49336 0.16334 0.61886 0.0
C1953 C 0.47807 0.15154 0.6392 0.0
C1954 C 0.49661 0.16721 0.55175 0.0
C1955 C 0.48453 0.15962 0.50436 0.0
C1956 C 0.46914 0.14832 0.52503 0.0
H1957 H 0.46727 0.12561 0.12068 0.0
H1958 H 0.47375 0.1319 0.2371 0.0
C1959 C 0.46596 0.14429 0.59158 0.0
C1960 C 0.48799 0.16222 0.43267 0.0
H1961 H 0.47537 0.17183 0.29174 0.0
C1962 C 0.49721 0.15638 0.40364 0.0
C1963 C 0.48063 0.16853 0.39195 0.0
C1964 C 0.47109 0.17548 0.42078 0.0
C1965 C 0.49831 0.15565 0.33471 0.0
C1966 C 0.48998 0.16088 0.29399 0.0
C1967 C 0.48171 0.16777 0.32303 0.0
C1968 C 0.48791 0.15734 0.22227 0.0
C1969 C 0.50784 0.14869 0.30583 0.0
C1970 C 0.49385 0.16959 0.17501 0.0
C1971 C 0.49031 0.16599 0.10786 0.0
C1972 C 0.48044 0.15014 0.08739 0.0
C1973 C 0.47488 0.13794 0.13485 0.0
C1974 C 0.47863 0.1415 0.20143 0.0
H1975 H 0.51683 0.14925 0.34137 0.0
H1976 H 0.49966 0.136 0.29327 0.0
H1977 H 0.51399 0.15504 0.25993 0.0
H1978 H 0.50093 0.1819 0.19025 0.0
H1979 H 0.49463 0.17565 0.07251 0.0
H1980 H 0.89637 0.3613 0.10374 0.0
H1981 H 0.88977 0.36095 0.22001 0.0
H1982 H 0.84022 0.34129 0.16966 0.0
H1983 H 0.84679 0.34163 0.05208 0.0
H1984 H 0.87295 0.37397 0.2933 0.0
H1985 H 0.84242 0.30765 0.29374 0.0
H1986 H 0.85563 0.31935 0.22787 0.0
H1987 H 0.8362 0.31722 0.2342 0.0
C1988 C 0.88409 0.35717 0.11712 0.0
C1989 C 0.87208 0.35139 0.06869 0.0
C1990 C 0.88034 0.357 0.18368 0.0
C1991 C 0.86449 0.3509 0.20362 0.0
C1992 C 0.85252 0.34591 0.15531 0.0
H1993 H 0.8526 0.35189 0.6381 0.0
H1994 H 0.84615 0.35222 0.52092 0.0
C1995 C 0.8563 0.34624 0.08818 0.0
C1996 C 0.86073 0.34874 0.27527 0.0
H1997 H 0.84744 0.32041 0.39631 0.0
C1998 C 0.86701 0.36226 0.31591 0.0
C1999 C 0.85314 0.33344 0.30457 0.0
C2000 C 0.84649 0.31852 0.26324 0.0
C2001 C 0.86656 0.36092 0.38507 0.0
C2002 C 0.85959 0.34564 0.41433 0.0
C2003 C 0.85265 0.33209 0.37373 0.0
C2004 C 0.86156 0.34361 0.48577 0.0
C2005 C 0.87446 0.37587 0.42635 0.0
C2006 C 0.87186 0.3381 0.50493 0.0
C2007 C 0.87556 0.33792 0.57136 0.0
C2008 C 0.86894 0.34313 0.62043 0.0
C2009 C 0.85785 0.34776 0.60158 0.0
C2010 C 0.85425 0.34807 0.53465 0.0
H2011 H 0.88079 0.38679 0.39573 0.0
H2012 H 0.86532 0.37671 0.45622 0.0
H2013 H 0.88313 0.37545 0.46095 0.0
H2014 H 0.8776 0.33456 0.46811 0.0
H2015 H 0.88406 0.33419 0.58411 0.0
H2016 H 0.6961 0.13914 0.08608 0.0
H2017 H 0.69374 0.14339 0.20266 0.0
H2018 H 0.66659 0.16627 0.15571 0.0
H2019 H 0.66907 0.16223 0.03739 0.0
H2020 H 0.69055 0.1815 0.26077 0.0
H2021 H 0.65073 0.11672 0.29908 0.0
H2022 H 0.66895 0.12144 0.25779 0.0
H2023 H 0.65491 0.12575 0.21831 0.0
C2024 C 0.68961 0.1451 0.10009 0.0
C2025 C 0.68254 0.15012 0.05221 0.0
C2026 C 0.68831 0.14755 0.16693 0.0
C2027 C 0.67978 0.1549 0.18777 0.0
C2028 C 0.67317 0.1605 0.14044 0.0
H2029 H 0.64963 0.13836 0.59578 0.0
H2030 H 0.64996 0.14348 0.47762 0.0
C2031 C 0.67456 0.15814 0.07299 0.0
C2032 C 0.67723 0.15586 0.25926 0.0
H2033 H 0.66242 0.13235 0.39535 0.0
C2034 C 0.6842 0.1708 0.29035 0.0
C2035 C 0.66877 0.14189 0.29746 0.0
C2036 C 0.66027 0.12554 0.26644 0.0
C2037 C 0.68349 0.17206 0.35932 0.0
C2038 C 0.67584 0.15802 0.39786 0.0
C2039 C 0.66837 0.14315 0.36611 0.0
C2040 C 0.67563 0.15811 0.4712 0.0
C2041 C 0.69091 0.18839 0.39008 0.0
C2042 C 0.68991 0.16516 0.50768 0.0
C2043 C 0.68967 0.1625 0.57579 0.0
C2044 C 0.67519 0.15252 0.60772 0.0
C2045 C 0.66092 0.14615 0.57196 0.0
C2046 C 0.66112 0.14904 0.50453 0.0
H2047 H 0.69147 0.19736 0.35442 0.0
H2048 H 0.68417 0.18841 0.43431 0.0
H2049 H 0.70329 0.19211 0.40534 0.0
H2050 H 0.70128 0.17187 0.48301 0.0
H2051 H 0.70082 0.16732 0.60245 0.0
H2052 H 0.89768 0.55422 0.09912 0.0
H2053 H 0.89149 0.54752 0.21543 0.0
H2054 H 0.842 0.51665 0.16676 0.0
H2055 H 0.84818 0.52321 0.04919 0.0
H2056 H 0.84886 0.54118 0.26628 0.0
H2057 H 0.87826 0.50612 0.32326 0.0
H2058 H 0.89048 0.52383 0.27621 0.0
H2059 H 0.87248 0.5081 0.24055 0.0
C2060 C 0.88552 0.54573 0.11286 0.0
C2061 C 0.87341 0.53923 0.0649 0.0
C2062 C 0.88201 0.54186 0.17942 0.0
C2063 C 0.86631 0.5315 0.19979 0.0
C2064 C 0.85422 0.52458 0.15198 0.0
H2065 H 0.85494 0.51685 0.63201 0.0
H2066 H 0.84865 0.51048 0.51434 0.0
C2067 C 0.85778 0.52827 0.08488 0.0
C2068 C 0.8626 0.52933 0.27147 0.0
H2069 H 0.87367 0.51909 0.41503 0.0
C2070 C 0.85395 0.53601 0.29876 0.0
C2071 C 0.86916 0.5225 0.31384 0.0
C2072 C 0.878 0.51458 0.28704 0.0
C2073 C 0.85267 0.53704 0.36747 0.0
C2074 C 0.86025 0.53128 0.40986 0.0
C2075 C 0.86792 0.52357 0.38255 0.0
C2076 C 0.86216 0.53496 0.48158 0.0
C2077 C 0.84371 0.54483 0.39426 0.0
C2078 C 0.87166 0.5508 0.50213 0.0
C2079 C 0.87537 0.55442 0.56873 0.0
C2080 C 0.86957 0.54229 0.61655 0.0
C2081 C 0.85943 0.52646 0.59641 0.0
C2082 C 0.85591 0.5228 0.52926 0.0
H2083 H 0.83493 0.54443 0.35795 0.0
H2084 H 0.83738 0.53899 0.44063 0.0
H2085 H 0.85229 0.55752 0.40532 0.0
H2086 H 0.8768 0.56035 0.46622 0.0
H2087 H 0.88323 0.56673 0.58261 0.0
H2088 H 0.49489 0.33587 0.02693 0.0
H2089 H 0.50102 0.3355 0.14459 0.0
H2090 H 0.47281 0.35713 0.19357 0.0
H2091 H 0.46667 0.35752 0.07719 0.0
H2092 H 0.50278 0.36915 0.26672 0.0
H2093 H 0.46419 0.30306 0.26923 0.0
H2094 H 0.47998 0.31191 0.20928 0.0
H2095 H 0.4633 0.31506 0.20311 0.0
C2096 C 0.49034 0.3409 0.06273 0.0
C2097 C 0.4802 0.34661 0.04287 0.0
C2098 C 0.49374 0.34056 0.12989 0.0
C2099 C 0.48719 0.3461 0.17783 0.0
C2100 C 0.47796 0.35275 0.15749 0.0
H2101 H 0.45149 0.33256 0.5585 0.0
H2102 H 0.45802 0.33247 0.44236 0.0
C2103 C 0.47443 0.35294 0.09089 0.0
C2104 C 0.48866 0.34394 0.24953 0.0
H2105 H 0.47241 0.31593 0.37143 0.0
C2106 C 0.49651 0.3575 0.28971 0.0
C2107 C 0.48028 0.32872 0.27929 0.0
C2108 C 0.47137 0.3138 0.2384 0.0
C2109 C 0.4956 0.3563 0.35889 0.0
C2110 C 0.48663 0.34113 0.38857 0.0
C2111 C 0.47939 0.32752 0.34847 0.0
C2112 C 0.48266 0.33944 0.45996 0.0
C2113 C 0.50336 0.3713 0.3998 0.0
C2114 C 0.49426 0.3429 0.50872 0.0
C2115 C 0.49051 0.34283 0.5757 0.0
C2116 C 0.47515 0.33946 0.59467 0.0
C2117 C 0.46345 0.33531 0.54564 0.0
C2118 C 0.46715 0.33522 0.47915 0.0
H2119 H 0.50876 0.38223 0.36888 0.0
H2120 H 0.49447 0.37163 0.43334 0.0
H2121 H 0.51286 0.37143 0.43083 0.0
H2122 H 0.50628 0.34608 0.49488 0.0
H2123 H 0.4998 0.34615 0.61221 0.0
H2124 H 0.33407 0.88885 0.42625 0.0
H2125 H 0.3335 0.882 0.54233 0.0
H2126 H 0.34727 0.84742 0.4909 0.0
H2127 H 0.34779 0.85418 0.37349 0.0
H2128 H 0.3164 0.85012 0.61081 0.0
H2129 H 0.38277 0.88149 0.62097 0.0
H2130 H 0.37244 0.88549 0.55628 0.0
H2131 H 0.37249 0.86703 0.55689 0.0
C2132 C 0.33678 0.87962 0.43931 0.0
C2133 C 0.34109 0.87214 0.39059 0.0
C2134 C 0.3364 0.8757 0.50575 0.0
C2135 C 0.34047 0.86432 0.52522 0.0
C2136 C 0.34416 0.8563 0.47677 0.0
H2137 H 0.33637 0.84845 0.95873 0.0
H2138 H 0.33648 0.84208 0.84114 0.0
C2139 C 0.34437 0.86011 0.40979 0.0
C2140 C 0.34176 0.86186 0.59668 0.0
H2141 H 0.36903 0.8744 0.72175 0.0
C2142 C 0.32786 0.85501 0.63514 0.0
C2143 C 0.35677 0.86841 0.62811 0.0
C2144 C 0.37204 0.87609 0.58887 0.0
C2145 C 0.32862 0.85525 0.70443 0.0
C2146 C 0.34366 0.86255 0.73589 0.0
C2147 C 0.35753 0.86869 0.6974 0.0
C2148 C 0.34523 0.86623 0.80746 0.0
C2149 C 0.3134 0.84869 0.7437 0.0
C2150 C 0.35054 0.88193 0.82735 0.0
C2151 C 0.35039 0.88556 0.89383 0.0
C2152 C 0.34508 0.87357 0.94219 0.0
C2153 C 0.34058 0.85794 0.92266 0.0
C2154 C 0.34056 0.85428 0.85559 0.0
H2155 H 0.30271 0.84423 0.71162 0.0
H2156 H 0.31207 0.83874 0.77518 0.0
H2157 H 0.31387 0.85805 0.77677 0.0
H2158 H 0.35421 0.89133 0.79102 0.0
H2159 H 0.35405 0.89773 0.90723 0.0
H2160 H 0.17341 0.49935 0.95028 0.0
H2161 H 0.17976 0.50535 0.83245 0.0
H2162 H 0.12963 0.48007 0.78609 0.0
H2163 H 0.12327 0.47399 0.90263 0.0
H2164 H 0.17011 0.4806 0.73497 0.0
H2165 H 0.14716 0.52113 0.67454 0.0
H2166 H 0.15202 0.51836 0.75779 0.0
H2167 H 0.1333 0.50408 0.72153 0.0
C2168 C 0.16377 0.4955 0.91506 0.0
C2169 C 0.14784 0.48622 0.93569 0.0
C2170 C 0.16741 0.49884 0.84778 0.0
C2171 C 0.15517 0.49327 0.80047 0.0
C2172 C 0.13927 0.48472 0.82163 0.0
H2173 H 0.13526 0.45618 0.41889 0.0
H2174 H 0.1419 0.4626 0.53509 0.0
C2175 C 0.13565 0.48119 0.88833 0.0
C2176 C 0.15869 0.49474 0.72857 0.0
H2177 H 0.14919 0.50609 0.5839 0.0
C2178 C 0.16588 0.48649 0.70197 0.0
C2179 C 0.15329 0.50251 0.68543 0.0
C2180 C 0.14615 0.51216 0.71125 0.0
C2181 C 0.16678 0.48488 0.63339 0.0
C2182 C 0.16025 0.49161 0.59034 0.0
C2183 C 0.1541 0.50082 0.61686 0.0
C2184 C 0.15799 0.48773 0.51876 0.0
C2185 C 0.17422 0.47551 0.60754 0.0
C2186 C 0.16492 0.49971 0.47056 0.0
C2187 C 0.16123 0.49603 0.40354 0.0
C2188 C 0.15027 0.48036 0.38387 0.0
C2189 C 0.14375 0.46836 0.43226 0.0
C2190 C 0.14759 0.472 0.4988 0.0
H2191 H 0.18272 0.47529 0.6437 0.0
H2192 H 0.16472 0.46304 0.59844 0.0
H2193 H 0.18057 0.48057 0.56033 0.0
H2194 H 0.17288 0.51195 0.48494 0.0
H2195 H 0.16633 0.50557 0.36762 0.0
H2196 H 0.55101 0.66648 0.91809 0.0
H2197 H 0.54435 0.66634 0.802 0.0
H2198 H 0.51111 0.68184 0.85384 0.0
H2199 H 0.51769 0.68195 0.97123 0.0
H2200 H 0.51274 0.65045 0.73263 0.0
H2201 H 0.54588 0.71684 0.72523 0.0
H2202 H 0.54923 0.70603 0.78984 0.0
H2203 H 0.53112 0.70679 0.78852 0.0
C2204 C 0.5421 0.66965 0.9051 0.0
C2205 C 0.53495 0.67433 0.95394 0.0
C2206 C 0.53828 0.66952 0.83866 0.0
C2207 C 0.52736 0.67422 0.81929 0.0
C2208 C 0.51965 0.67826 0.86786 0.0
H2209 H 0.51194 0.67125 0.38577 0.0
H2210 H 0.50564 0.67147 0.50336 0.0
C2211 C 0.52334 0.67822 0.93484 0.0
C2212 C 0.52509 0.67579 0.74784 0.0
H2213 H 0.53845 0.70337 0.6239 0.0
C2214 C 0.51796 0.66199 0.70878 0.0
C2215 C 0.53207 0.69089 0.71703 0.0
C2216 C 0.54008 0.70605 0.75689 0.0
C2217 C 0.5183 0.66292 0.63953 0.0
C2218 C 0.52599 0.67803 0.60869 0.0
C2219 C 0.53244 0.69181 0.64777 0.0
C2220 C 0.5297 0.67968 0.53711 0.0
C2221 C 0.5114 0.64777 0.59965 0.0
C2222 C 0.54535 0.68468 0.51723 0.0
C2223 C 0.54893 0.68448 0.45072 0.0
C2224 C 0.53697 0.67942 0.40234 0.0
C2225 C 0.52142 0.67528 0.42185 0.0
C2226 C 0.51779 0.6753 0.48893 0.0
H2227 H 0.50673 0.637 0.63129 0.0
H2228 H 0.50153 0.64676 0.56846 0.0
H2229 H 0.52064 0.64806 0.56626 0.0
H2230 H 0.55471 0.68812 0.55357 0.0
H2231 H 0.56104 0.68784 0.43732 0.0
H2232 H 0.35413 0.46861 0.92563 0.0
H2233 H 0.35418 0.47497 0.80916 0.0
H2234 H 0.33064 0.50151 0.85577 0.0
H2235 H 0.33072 0.4953 0.97355 0.0
H2236 H 0.31521 0.47623 0.75627 0.0
H2237 H 0.37903 0.51712 0.70132 0.0
H2238 H 0.37539 0.50003 0.74921 0.0
H2239 H 0.37086 0.51441 0.78362 0.0
C2240 C 0.34927 0.47611 0.9114 0.0
C2241 C 0.34243 0.48147 0.95879 0.0
C2242 C 0.34937 0.47978 0.84477 0.0
C2243 C 0.34252 0.4888 0.82379 0.0
C2244 C 0.3361 0.49463 0.87106 0.0
H2245 H 0.34446 0.50239 0.39119 0.0
H2246 H 0.34377 0.50841 0.50871 0.0
C2247 C 0.33623 0.49116 0.93826 0.0
C2248 C 0.34078 0.49059 0.75198 0.0
H2249 H 0.36233 0.5027 0.6092 0.0
C2250 C 0.32548 0.48235 0.72413 0.0
C2251 C 0.35416 0.49863 0.71008 0.0
C2252 C 0.3708 0.50819 0.7375 0.0
C2253 C 0.32332 0.48099 0.65536 0.0
C2254 C 0.33679 0.48803 0.61351 0.0
C2255 C 0.352 0.49724 0.64131 0.0
C2256 C 0.33555 0.48433 0.5419 0.0
C2257 C 0.30667 0.47152 0.62794 0.0
C2258 C 0.33104 0.46881 0.52168 0.0
C2259 C 0.33159 0.4654 0.45514 0.0
C2260 C 0.33654 0.47741 0.40705 0.0
C2261 C 0.34043 0.49285 0.42696 0.0
C2262 C 0.34012 0.49632 0.49403 0.0
H2263 H 0.29764 0.47074 0.66382 0.0
H2264 H 0.30548 0.47688 0.58142 0.0
H2265 H 0.30407 0.45923 0.61694 0.0
H2266 H 0.32769 0.45942 0.55779 0.0
H2267 H 0.32851 0.45339 0.44149 0.0
H2268 H 0.5166 0.86125 0.94742 0.0
H2269 H 0.50904 0.85484 0.83056 0.0
H2270 H 0.55866 0.87723 0.77696 0.0
H2271 H 0.56625 0.88357 0.8916 0.0
H2272 H 0.51781 0.87656 0.72384 0.0
H2273 H 0.53957 0.83449 0.68053 0.0
H2274 H 0.53584 0.83931 0.7623 0.0
H2275 H 0.55436 0.85221 0.72096 0.0
C2276 C 0.52586 0.86467 0.9107 0.0
C2277 C 0.54203 0.87296 0.92924 0.0
C2278 C 0.52153 0.86099 0.844 0.0
C2279 C 0.53329 0.86526 0.79511 0.0
C2280 C 0.54936 0.87345 0.81377 0.0
H2281 H 0.55351 0.90048 0.41788 0.0
H2282 H 0.54687 0.89312 0.53245 0.0
C2283 C 0.55367 0.87723 0.87969 0.0
C2284 C 0.52925 0.8624 0.72375 0.0
H2285 H 0.5391 0.84935 0.58449 0.0
C2286 C 0.52206 0.87023 0.69349 0.0
C2287 C 0.53453 0.85393 0.68393 0.0
C2288 C 0.54135 0.84436 0.71373 0.0
C2289 C 0.52136 0.87104 0.62441 0.0
C2290 C 0.52821 0.86402 0.58463 0.0
C2291 C 0.53404 0.85493 0.61484 0.0
C2292 C 0.53157 0.86798 0.51339 0.0
C2293 C 0.51393 0.88005 0.59462 0.0
C2294 C 0.52556 0.8562 0.46403 0.0
C2295 C 0.5294 0.86039 0.3973 0.0
C2296 C 0.53952 0.87641 0.37914 0.0
C2297 C 0.54564 0.88803 0.4293 0.0
C2298 C 0.54174 0.88387 0.49525 0.0
H2299 H 0.50469 0.87984 0.62774 0.0
H2300 H 0.52328 0.89268 0.58747 0.0
H2301 H 0.50844 0.87502 0.54599 0.0
H2302 H 0.51784 0.84382 0.47708 0.0
H2303 H 0.5245 0.85113 0.36017 0.0
H2304 H 0.13459 0.69045 0.44186 0.0
H2305 H 0.14122 0.6909 0.55825 0.0
H2306 H 0.17122 0.67122 0.51033 0.0
H2307 H 0.16475 0.67091 0.39266 0.0
H2308 H 0.14623 0.65412 0.61071 0.0
H2309 H 0.18331 0.71858 0.66454 0.0
H2310 H 0.16575 0.71351 0.61697 0.0
H2311 H 0.18111 0.71048 0.58237 0.0
C2312 C 0.14286 0.68651 0.45579 0.0
C2313 C 0.14916 0.68065 0.40802 0.0
C2314 C 0.14669 0.68683 0.52237 0.0
C2315 C 0.15679 0.6812 0.54294 0.0
C2316 C 0.16349 0.67574 0.49536 0.0
H2317 H 0.1717 0.68501 0.97498 0.0
H2318 H 0.17783 0.68458 0.85738 0.0
C2319 C 0.15985 0.67564 0.42822 0.0
C2320 C 0.15896 0.67974 0.61463 0.0
H2321 H 0.17006 0.70148 0.75706 0.0
C2322 C 0.15178 0.66447 0.64268 0.0
C2323 C 0.16628 0.69324 0.65629 0.0
C2324 C 0.17469 0.7099 0.62859 0.0
C2325 C 0.15074 0.66235 0.71149 0.0
C2326 C 0.157 0.67585 0.75316 0.0
C2327 C 0.1652 0.69112 0.7251 0.0
C2328 C 0.15339 0.67443 0.82487 0.0
C2329 C 0.1424 0.64569 0.73915 0.0
C2330 C 0.13765 0.66874 0.84549 0.0
C2331 C 0.13416 0.66913 0.91204 0.0
C2332 C 0.14634 0.67512 0.95973 0.0
C2333 C 0.16205 0.68018 0.93949 0.0
C2334 C 0.16557 0.68001 0.87239 0.0
H2335 H 0.14237 0.637 0.70333 0.0
H2336 H 0.14815 0.64507 0.78561 0.0
H2337 H 0.12984 0.6421 0.75031 0.0
H2338 H 0.12809 0.6646 0.80967 0.0
H2339 H 0.12194 0.66514 0.92599 0.0
loop_
_geom_bond_atom_site_label_1
_geom_bond_atom_site_label_2
_geom_bond_distance
_geom_bond_site_symmetry_2
_ccdc_geom_bond_type
Sc0 O3 2.025 . S
Sc0 O10 2.105 . S
Sc0 O13 2.105 1_455 S
Sc0 O16 2.105 1_455 S
Sc0 O19 2.105 . S
Sc1 O3 2.025 . S
Sc1 O11 2.105 . S
Sc1 O15 2.105 . S
Sc1 O17 2.105 1_455 S
Sc1 O21 2.105 . S
Sc2 O3 2.025 . S
Sc2 O12 2.105 . S
Sc2 O14 2.105 . S
Sc2 O18 2.105 . S
Sc2 O20 2.105 . S
O3 Sc0 2.025 . S
O3 Sc1 2.025 . S
O3 Sc2 2.025 . S
C4 O10 1.268 . S
C4 O20 1.268 . S
C5 O11 1.268 . S
C5 O19 1.268 . S
C6 O12 1.268 . S
C6 O21 1.268 . S
C7 O13 1.268 . S
C7 O17 1.268 . S
C8 O14 1.268 1_655 S
C8 O16 1.268 . S
C9 O15 1.268 . S
C9 O18 1.268 . S
O10 Sc0 2.105 . S
O10 C4 1.268 . S
O11 Sc1 2.105 . S
O11 C5 1.268 . S
O12 Sc2 2.105 . S
O12 C6 1.268 . S
O13 Sc0 2.105 1_655 S
O13 C7 1.268 . S
O14 Sc2 2.105 . S
O14 C8 1.268 1_455 S
O15 Sc1 2.105 . S
O15 C9 1.268 . S
O16 Sc0 2.105 1_655 S
O16 C8 1.268 . S
O17 Sc1 2.105 1_655 S
O17 C7 1.268 . S
O18 Sc2 2.105 . S
O18 C9 1.268 . S
O19 Sc0 2.105 . S
O19 C5 1.268 . S
O20 Sc2 2.105 . S
O20 C4 1.268 . S
O21 Sc1 2.105 . S
O21 C6 1.268 . S
Sc22 O25 2.025 . S
Sc22 O32 2.105 . S
Sc22 O35 2.105 . S
Sc22 O38 2.105 . S
Sc22 O41 2.105 . S
Sc23 O25 2.025 . S
Sc23 O33 2.105 . S
Sc23 O37 2.105 . S
Sc23 O39 2.105 . S
Sc23 O43 2.105 . S
Sc24 O25 2.025 . S
Sc24 O34 2.105 . S
Sc24 O36 2.105 . S
Sc24 O40 2.105 . S
Sc24 O42 2.105 . S
O25 Sc22 2.025 . S
O25 Sc23 2.025 . S
O25 Sc24 2.025 . S
C26 O32 1.268 . S
C26 O42 1.268 . S
C27 O33 1.268 . S
C27 O41 1.268 . S
C28 O34 1.268 . S
C28 O43 1.268 . S
C29 O35 1.268 . S
C29 O39 1.268 . S
C30 O36 1.268 . S
C30 O38 1.268 . S
C31 O37 1.268 . S
C31 O40 1.268 . S
O32 Sc22 2.105 . S
O32 C26 1.268 . S
O33 Sc23 2.105 . S
O33 C27 1.268 . S
O34 Sc24 2.105 . S
O34 C28 1.268 . S
O35 Sc22 2.105 . S
O35 C29 1.268 . S
O36 Sc24 2.105 . S
O36 C30 1.268 . S
O37 Sc23 2.105 . S
O37 C31 1.268 . S
O38 Sc22 2.105 . S
O38 C30 1.268 . S
O39 Sc23 2.105 . S
O39 C29 1.268 . S
O40 Sc24 2.105 . S
O40 C31 1.268 . S
O41 Sc22 2.105 . S
O41 C27 1.268 . S
O42 Sc24 2.105 . S
O42 C26 1.268 . S
O43 Sc23 2.105 . S
O43 C28 1.268 . S
Sc44 O47 2.025 . S
Sc44 O54 2.105 . S
Sc44 O57 2.105 . S
Sc44 O60 2.105 . S
Sc44 O63 2.105 . S
Sc45 O47 2.025 . S
Sc45 O55 2.105 . S
Sc45 O59 2.105 . S
Sc45 O61 2.105 . S
Sc45 O65 2.105 1_545 S
Sc46 O47 2.025 . S
Sc46 O56 2.105 1_545 S
Sc46 O58 2.105 . S
Sc46 O62 2.105 . S
Sc46 O64 2.105 1_545 S
O47 Sc44 2.025 . S
O47 Sc45 2.025 . S
O47 Sc46 2.025 . S
C48 O54 1.268 1_565 S
C48 O64 1.268 . S
C49 O55 1.268 . S
C49 O63 1.268 . S
C50 O56 1.268 . S
C50 O65 1.268 . S
C51 O57 1.268 . S
C51 O61 1.268 . S
C52 O58 1.268 . S
C52 O60 1.268 . S
C53 O59 1.268 . S
C53 O62 1.268 . S
O54 Sc44 2.105 . S
O54 C48 1.268 1_545 S
O55 Sc45 2.105 . S
O55 C49 1.268 . S
O56 Sc46 2.105 1_565 S
O56 C50 1.268 . S
O57 Sc44 2.105 . S
O57 C51 1.268 . S
O58 Sc46 2.105 . S
O58 C52 1.268 . S
O59 Sc45 2.105 . S
O59 C53 1.268 . S
O60 Sc44 2.105 . S
O60 C52 1.268 . S
O61 Sc45 2.105 . S
O61 C51 1.268 . S
O62 Sc46 2.105 . S
O62 C53 1.268 . S
O63 Sc44 2.105 . S
O63 C49 1.268 . S
O64 Sc46 2.105 1_565 S
O64 C48 1.268 . S
O65 Sc45 2.105 1_565 S
O65 C50 1.268 . S
Sc66 O69 2.025 . S
Sc66 O76 2.105 . S
Sc66 O79 2.105 . S
Sc66 O82 2.105 . S
Sc66 O85 2.105 . S
Sc67 O69 2.025 . S
Sc67 O77 2.105 . S
Sc67 O81 2.105 1_455 S
Sc67 O83 2.105 . S
Sc67 O87 2.105 . S
Sc68 O69 2.025 . S
Sc68 O78 2.105 . S
Sc68 O80 2.105 1_455 S
Sc68 O84 2.105 1_455 S
Sc68 O86 2.105 . S
O69 Sc66 2.025 . S
O69 Sc67 2.025 . S
O69 Sc68 2.025 . S
C70 O76 1.268 . S
C70 O86 1.268 . S
C71 O77 1.268 . S
C71 O85 1.268 . S
C72 O78 1.268 . S
C72 O87 1.268 . S
C73 O79 1.268 . S
C73 O83 1.268 . S
C74 O80 1.268 . S
C74 O82 1.268 1_655 S
C75 O81 1.268 . S
C75 O84 1.268 . S
O76 Sc66 2.105 . S
O76 C70 1.268 . S
O77 Sc67 2.105 . S
O77 C71 1.268 . S
O78 Sc68 2.105 . S
O78 C72 1.268 . S
O79 Sc66 2.105 . S
O79 C73 1.268 . S
O80 Sc68 2.105 1_655 S
O80 C74 1.268 . S
O81 Sc67 2.105 1_655 S
O81 C75 1.268 . S
O82 Sc66 2.105 . S
O82 C74 1.268 1_455 S
O83 Sc67 2.105 . S
O83 C73 1.268 . S
O84 Sc68 2.105 1_655 S
O84 C75 1.268 . S
O85 Sc66 2.105 . S
O85 C71 1.268 . S
O86 Sc68 2.105 . S
O86 C70 1.268 . S
O87 Sc67 2.105 . S
O87 C72 1.268 . S
Sc88 O91 2.025 . S
Sc88 O98 2.105 . S
Sc88 O101 2.105 . S
Sc88 O104 2.105 . S
Sc88 O107 2.105 . S
Sc89 O91 2.025 . S
Sc89 O99 2.105 . S
Sc89 O103 2.105 . S
Sc89 O105 2.105 . S
Sc89 O109 2.105 . S
Sc90 O91 2.025 . S
Sc90 O100 2.105 . S
Sc90 O102 2.105 . S
Sc90 O106 2.105 . S
Sc90 O108 2.105 . S
O91 Sc88 2.025 . S
O91 Sc89 2.025 . S
O91 Sc90 2.025 . S
C92 O98 1.268 . S
C92 O108 1.268 . S
C93 O99 1.268 . S
C93 O107 1.268 . S
C94 O100 1.268 . S
C94 O109 1.268 . S
C95 O101 1.268 . S
C95 O105 1.268 . S
C96 O102 1.268 . S
C96 O104 1.268 . S
C97 O103 1.268 . S
C97 O106 1.268 . S
O98 Sc88 2.105 . S
O98 C92 1.268 . S
O99 Sc89 2.105 . S
O99 C93 1.268 . S
O100 Sc90 2.105 . S
O100 C94 1.268 . S
O101 Sc88 2.105 . S
O101 C95 1.268 . S
O102 Sc90 2.105 . S
O102 C96 1.268 . S
O103 Sc89 2.105 . S
O103 C97 1.268 . S
O104 Sc88 2.105 . S
O104 C96 1.268 . S
O105 Sc89 2.105 . S
O105 C95 1.268 . S
O106 Sc90 2.105 . S
O106 C97 1.268 . S
O107 Sc88 2.105 . S
O107 C93 1.268 . S
O108 Sc90 2.105 . S
O108 C92 1.268 . S
O109 Sc89 2.105 . S
O109 C94 1.268 . S
Sc110 O113 2.025 . S
Sc110 O120 2.105 1_545 S
Sc110 O123 2.105 . S
Sc110 O126 2.105 . S
Sc110 O129 2.105 1_545 S
Sc111 O113 2.025 . S
Sc111 O121 2.105 1_545 S
Sc111 O125 2.105 . S
Sc111 O127 2.105 . S
Sc111 O131 2.105 . S
Sc112 O113 2.025 . S
Sc112 O122 2.105 . S
Sc112 O124 2.105 . S
Sc112 O128 2.105 . S
Sc112 O130 2.105 . S
O113 Sc110 2.025 . S
O113 Sc111 2.025 . S
O113 Sc112 2.025 . S
C114 O120 1.268 . S
C114 O130 1.268 1_565 S
C115 O121 1.268 . S
C115 O129 1.268 . S
C116 O122 1.268 . S
C116 O131 1.268 . S
C117 O123 1.268 . S
C117 O127 1.268 . S
C118 O124 1.268 . S
C118 O126 1.268 . S
C119 O125 1.268 . S
C119 O128 1.268 . S
O120 Sc110 2.105 1_565 S
O120 C114 1.268 . S
O121 Sc111 2.105 1_565 S
O121 C115 1.268 . S
O122 Sc112 2.105 . S
O122 C116 1.268 . S
O123 Sc110 2.105 . S
O123 C117 1.268 . S
O124 Sc112 2.105 . S
O124 C118 1.268 . S
O125 Sc111 2.105 . S
O125 C119 1.268 . S
O126 Sc110 2.105 . S
O126 C118 1.268 . S
O127 Sc111 2.105 . S
O127 C117 1.268 . S
O128 Sc112 2.105 . S
O128 C119 1.268 . S
O129 Sc110 2.105 1_565 S
O129 C115 1.268 . S
O130 Sc112 2.105 . S
O130 C114 1.268 1_545 S
O131 Sc111 2.105 . S
O131 C116 1.268 . S
Sc132 O135 2.025 . S
Sc132 O142 2.105 . S
Sc132 O145 2.105 . S
Sc132 O148 2.105 . S
Sc132 O151 2.105 . S
Sc133 O135 2.025 . S
Sc133 O143 2.105 . S
Sc133 O147 2.105 . S
Sc133 O149 2.105 . S
Sc133 O153 2.105 . S
Sc134 O135 2.025 . S
Sc134 O144 2.105 . S
Sc134 O146 2.105 . S
Sc134 O150 2.105 . S
Sc134 O152 2.105 . S
O135 Sc132 2.025 . S
O135 Sc133 2.025 . S
O135 Sc134 2.025 . S
C136 O142 1.268 . S
C136 O152 1.268 . S
C137 O143 1.268 . S
C137 O151 1.268 . S
C138 O144 1.268 . S
C138 O153 1.268 . S
C139 O145 1.268 . S
C139 O149 1.268 . S
C140 O146 1.268 . S
C140 O148 1.268 . S
C141 O147 1.268 . S
C141 O150 1.268 . S
O142 Sc132 2.105 . S
O142 C136 1.268 . S
O143 Sc133 2.105 . S
O143 C137 1.268 . S
O144 Sc134 2.105 . S
O144 C138 1.268 . S
O145 Sc132 2.105 . S
O145 C139 1.268 . S
O146 Sc134 2.105 . S
O146 C140 1.268 . S
O147 Sc133 2.105 . S
O147 C141 1.268 . S
O148 Sc132 2.105 . S
O148 C140 1.268 . S
O149 Sc133 2.105 . S
O149 C139 1.268 . S
O150 Sc134 2.105 . S
O150 C141 1.268 . S
O151 Sc132 2.105 . S
O151 C137 1.268 . S
O152 Sc134 2.105 . S
O152 C136 1.268 . S
O153 Sc133 2.105 . S
O153 C138 1.268 . S
Sc154 O157 2.025 . S
Sc154 O164 2.105 . S
Sc154 O167 2.105 . S
Sc154 O170 2.105 . S
Sc154 O173 2.105 . S
Sc155 O157 2.025 . S
Sc155 O165 2.105 . S
Sc155 O169 2.105 . S
Sc155 O171 2.105 . S
Sc155 O175 2.105 . S
Sc156 O157 2.025 . S
Sc156 O166 2.105 . S
Sc156 O168 2.105 . S
Sc156 O172 2.105 . S
Sc156 O174 2.105 . S
O157 Sc154 2.025 . S
O157 Sc155 2.025 . S
O157 Sc156 2.025 . S
C158 O164 1.268 . S
C158 O174 1.268 . S
C159 O165 1.268 . S
C159 O173 1.268 . S
C160 O166 1.268 . S
C160 O175 1.268 . S
C161 O167 1.268 . S
C161 O171 1.268 . S
C162 O168 1.268 . S
C162 O170 1.268 . S
C163 O169 1.268 . S
C163 O172 1.268 . S
O164 Sc154 2.105 . S
O164 C158 1.268 . S
O165 Sc155 2.105 . S
O165 C159 1.268 . S
O166 Sc156 2.105 . S
O166 C160 1.268 . S
O167 Sc154 2.105 . S
O167 C161 1.268 . S
O168 Sc156 2.105 . S
O168 C162 1.268 . S
O169 Sc155 2.105 . S
O169 C163 1.268 . S
O170 Sc154 2.105 . S
O170 C162 1.268 . S
O171 Sc155 2.105 . S
O171 C161 1.268 . S
O172 Sc156 2.105 . S
O172 C163 1.268 . S
O173 Sc154 2.105 . S
O173 C159 1.268 . S
O174 Sc156 2.105 . S
O174 C158 1.268 . S
O175 Sc155 2.105 . S
O175 C160 1.268 . S
Sc176 O179 2.025 . S
Sc176 O186 2.105 . S
Sc176 O189 2.105 . S
Sc176 O192 2.105 . S
Sc176 O195 2.105 . S
Sc177 O179 2.025 . S
Sc177 O187 2.105 . S
Sc177 O191 2.105 . S
Sc177 O193 2.105 . S
Sc177 O197 2.105 . S
Sc178 O179 2.025 . S
Sc178 O188 2.105 . S
Sc178 O190 2.105 . S
Sc178 O194 2.105 . S
Sc178 O196 2.105 . S
O179 Sc176 2.025 . S
O179 Sc177 2.025 . S
O179 Sc178 2.025 . S
C180 O186 1.268 . S
C180 O196 1.268 . S
C181 O187 1.268 . S
C181 O195 1.268 . S
C182 O188 1.268 . S
C182 O197 1.268 . S
C183 O189 1.268 . S
C183 O193 1.268 . S
C184 O190 1.268 . S
C184 O192 1.268 . S
C185 O191 1.268 . S
C185 O194 1.268 . S
O186 Sc176 2.105 . S
O186 C180 1.268 . S
O187 Sc177 2.105 . S
O187 C181 1.268 . S
O188 Sc178 2.105 . S
O188 C182 1.268 . S
O189 Sc176 2.105 . S
O189 C183 1.268 . S
O190 Sc178 2.105 . S
O190 C184 1.268 . S
O191 Sc177 2.105 . S
O191 C185 1.268 . S
O192 Sc176 2.105 . S
O192 C184 1.268 . S
O193 Sc177 2.105 . S
O193 C183 1.268 . S
O194 Sc178 2.105 . S
O194 C185 1.268 . S
O195 Sc176 2.105 . S
O195 C181 1.268 . S
O196 Sc178 2.105 . S
O196 C180 1.268 . S
O197 Sc177 2.105 . S
O197 C182 1.268 . S
Sc198 O201 2.025 . S
Sc198 O208 2.105 . S
Sc198 O211 2.105 . S
Sc198 O214 2.105 . S
Sc198 O217 2.105 . S
Sc199 O201 2.025 . S
Sc199 O209 2.105 . S
Sc199 O213 2.105 . S
Sc199 O215 2.105 . S
Sc199 O219 2.105 . S
Sc200 O201 2.025 . S
Sc200 O210 2.105 . S
Sc200 O212 2.105 . S
Sc200 O216 2.105 . S
Sc200 O218 2.105 . S
O201 Sc198 2.025 . S
O201 Sc199 2.025 . S
O201 Sc200 2.025 . S
C202 O208 1.268 . S
C202 O218 1.268 . S
C203 O209 1.268 . S
C203 O217 1.268 . S
C204 O210 1.268 . S
C204 O219 1.268 . S
C205 O211 1.268 . S
C205 O215 1.268 . S
C206 O212 1.268 . S
C206 O214 1.268 . S
C207 O213 1.268 . S
C207 O216 1.268 . S
O208 Sc198 2.105 . S
O208 C202 1.268 . S
O209 Sc199 2.105 . S
O209 C203 1.268 . S
O210 Sc200 2.105 . S
O210 C204 1.268 . S
O211 Sc198 2.105 . S
O211 C205 1.268 . S
O212 Sc200 2.105 . S
O212 C206 1.268 . S
O213 Sc199 2.105 . S
O213 C207 1.268 . S
O214 Sc198 2.105 . S
O214 C206 1.268 . S
O215 Sc199 2.105 . S
O215 C205 1.268 . S
O216 Sc200 2.105 . S
O216 C207 1.268 . S
O217 Sc198 2.105 . S
O217 C203 1.268 . S
O218 Sc200 2.105 . S
O218 C202 1.268 . S
O219 Sc199 2.105 . S
O219 C204 1.268 . S
Sc220 O223 2.025 . S
Sc220 O230 2.105 . S
Sc220 O233 2.105 . S
Sc220 O236 2.105 . S
Sc220 O239 2.105 . S
Sc221 O223 2.025 . S
Sc221 O231 2.105 . S
Sc221 O235 2.105 . S
Sc221 O237 2.105 . S
Sc221 O241 2.105 . S
Sc222 O223 2.025 . S
Sc222 O232 2.105 . S
Sc222 O234 2.105 . S
Sc222 O238 2.105 . S
Sc222 O240 2.105 . S
O223 Sc220 2.025 . S
O223 Sc221 2.025 . S
O223 Sc222 2.025 . S
C224 O230 1.268 . S
C224 O240 1.268 . S
C225 O231 1.268 . S
C225 O239 1.268 . S
C226 O232 1.268 . S
C226 O241 1.268 . S
C227 O233 1.268 . S
C227 O237 1.268 . S
C228 O234 1.268 . S
C228 O236 1.268 . S
C229 O235 1.268 . S
C229 O238 1.268 . S
O230 Sc220 2.105 . S
O230 C224 1.268 . S
O231 Sc221 2.105 . S
O231 C225 1.268 . S
O232 Sc222 2.105 . S
O232 C226 1.268 . S
O233 Sc220 2.105 . S
O233 C227 1.268 . S
O234 Sc222 2.105 . S
O234 C228 1.268 . S
O235 Sc221 2.105 . S
O235 C229 1.268 . S
O236 Sc220 2.105 . S
O236 C228 1.268 . S
O237 Sc221 2.105 . S
O237 C227 1.268 . S
O238 Sc222 2.105 . S
O238 C229 1.268 . S
O239 Sc220 2.105 . S
O239 C225 1.268 . S
O240 Sc222 2.105 . S
O240 C224 1.268 . S
O241 Sc221 2.105 . S
O241 C226 1.268 . S
Sc242 O245 2.025 . S
Sc242 O252 2.105 . S
Sc242 O255 2.105 . S
Sc242 O258 2.105 . S
Sc242 O261 2.105 . S
Sc243 O245 2.025 . S
Sc243 O253 2.105 . S
Sc243 O257 2.105 . S
Sc243 O259 2.105 . S
Sc243 O263 2.105 . S
Sc244 O245 2.025 . S
Sc244 O254 2.105 . S
Sc244 O256 2.105 . S
Sc244 O260 2.105 . S
Sc244 O262 2.105 . S
O245 Sc242 2.025 . S
O245 Sc243 2.025 . S
O245 Sc244 2.025 . S
C246 O252 1.268 . S
C246 O262 1.268 . S
C247 O253 1.268 . S
C247 O261 1.268 . S
C248 O254 1.268 . S
C248 O263 1.268 . S
C249 O255 1.268 . S
C249 O259 1.268 . S
C250 O256 1.268 . S
C250 O258 1.268 . S
C251 O257 1.268 . S
C251 O260 1.268 . S
O252 Sc242 2.105 . S
O252 C246 1.268 . S
O253 Sc243 2.105 . S
O253 C247 1.268 . S
O254 Sc244 2.105 . S
O254 C248 1.268 . S
O255 Sc242 2.105 . S
O255 C249 1.268 . S
O256 Sc244 2.105 . S
O256 C250 1.268 . S
O257 Sc243 2.105 . S
O257 C251 1.268 . S
O258 Sc242 2.105 . S
O258 C250 1.268 . S
O259 Sc243 2.105 . S
O259 C249 1.268 . S
O260 Sc244 2.105 . S
O260 C251 1.268 . S
O261 Sc242 2.105 . S
O261 C247 1.268 . S
O262 Sc244 2.105 . S
O262 C246 1.268 . S
O263 Sc243 2.105 . S
O263 C248 1.268 . S
Sc264 O267 2.025 . S
Sc264 O274 2.105 . S
Sc264 O277 2.105 . S
Sc264 O280 2.105 . S
Sc264 O283 2.105 . S
Sc265 O267 2.025 . S
Sc265 O275 2.105 . S
Sc265 O279 2.105 . S
Sc265 O281 2.105 . S
Sc265 O285 2.105 . S
Sc266 O267 2.025 . S
Sc266 O276 2.105 . S
Sc266 O278 2.105 . S
Sc266 O282 2.105 . S
Sc266 O284 2.105 . S
O267 Sc264 2.025 . S
O267 Sc265 2.025 . S
O267 Sc266 2.025 . S
C268 O274 1.268 . S
C268 O284 1.268 . S
C269 O275 1.268 . S
C269 O283 1.268 . S
C270 O276 1.268 . S
C270 O285 1.268 . S
C271 O277 1.268 . S
C271 O281 1.268 . S
C272 O278 1.268 . S
C272 O280 1.268 . S
C273 O279 1.268 . S
C273 O282 1.268 . S
O274 Sc264 2.105 . S
O274 C268 1.268 . S
O275 Sc265 2.105 . S
O275 C269 1.268 . S
O276 Sc266 2.105 . S
O276 C270 1.268 . S
O277 Sc264 2.105 . S
O277 C271 1.268 . S
O278 Sc266 2.105 . S
O278 C272 1.268 . S
O279 Sc265 2.105 . S
O279 C273 1.268 . S
O280 Sc264 2.105 . S
O280 C272 1.268 . S
O281 Sc265 2.105 . S
O281 C271 1.268 . S
O282 Sc266 2.105 . S
O282 C273 1.268 . S
O283 Sc264 2.105 . S
O283 C269 1.268 . S
O284 Sc266 2.105 . S
O284 C268 1.268 . S
O285 Sc265 2.105 . S
O285 C270 1.268 . S
Sc286 O289 2.025 . S
Sc286 O296 2.105 . S
Sc286 O299 2.105 . S
Sc286 O302 2.105 . S
Sc286 O305 2.105 . S
Sc287 O289 2.025 . S
Sc287 O297 2.105 . S
Sc287 O301 2.105 . S
Sc287 O303 2.105 . S
Sc287 O307 2.105 . S
Sc288 O289 2.025 . S
Sc288 O298 2.105 . S
Sc288 O300 2.105 . S
Sc288 O304 2.105 . S
Sc288 O306 2.105 . S
O289 Sc286 2.025 . S
O289 Sc287 2.025 . S
O289 Sc288 2.025 . S
C290 O296 1.268 . S
C290 O306 1.268 . S
C291 O297 1.268 . S
C291 O305 1.268 . S
C292 O298 1.268 . S
C292 O307 1.268 . S
C293 O299 1.268 . S
C293 O303 1.268 . S
C294 O300 1.268 . S
C294 O302 1.268 . S
C295 O301 1.268 . S
C295 O304 1.268 . S
O296 Sc286 2.105 . S
O296 C290 1.268 . S
O297 Sc287 2.105 . S
O297 C291 1.268 . S
O298 Sc288 2.105 . S
O298 C292 1.268 . S
O299 Sc286 2.105 . S
O299 C293 1.268 . S
O300 Sc288 2.105 . S
O300 C294 1.268 . S
O301 Sc287 2.105 . S
O301 C295 1.268 . S
O302 Sc286 2.105 . S
O302 C294 1.268 . S
O303 Sc287 2.105 . S
O303 C293 1.268 . S
O304 Sc288 2.105 . S
O304 C295 1.268 . S
O305 Sc286 2.105 . S
O305 C291 1.268 . S
O306 Sc288 2.105 . S
O306 C290 1.268 . S
O307 Sc287 2.105 . S
O307 C292 1.268 . S
Sc308 O311 2.025 . S
Sc308 O318 2.105 . S
Sc308 O321 2.105 . S
Sc308 O324 2.105 . S
Sc308 O327 2.105 . S
Sc309 O311 2.025 . S
Sc309 O319 2.105 . S
Sc309 O323 2.105 . S
Sc309 O325 2.105 . S
Sc309 O329 2.105 . S
Sc310 O311 2.025 . S
Sc310 O320 2.105 . S
Sc310 O322 2.105 . S
Sc310 O326 2.105 . S
Sc310 O328 2.105 . S
O311 Sc308 2.025 . S
O311 Sc309 2.025 . S
O311 Sc310 2.025 . S
C312 O318 1.268 . S
C312 O328 1.268 . S
C313 O319 1.268 . S
C313 O327 1.268 . S
C314 O320 1.268 . S
C314 O329 1.268 . S
C315 O321 1.268 . S
C315 O325 1.268 . S
C316 O322 1.268 . S
C316 O324 1.268 . S
C317 O323 1.268 . S
C317 O326 1.268 . S
O318 Sc308 2.105 . S
O318 C312 1.268 . S
O319 Sc309 2.105 . S
O319 C313 1.268 . S
O320 Sc310 2.105 . S
O320 C314 1.268 . S
O321 Sc308 2.105 . S
O321 C315 1.268 . S
O322 Sc310 2.105 . S
O322 C316 1.268 . S
O323 Sc309 2.105 . S
O323 C317 1.268 . S
O324 Sc308 2.105 . S
O324 C316 1.268 . S
O325 Sc309 2.105 . S
O325 C315 1.268 . S
O326 Sc310 2.105 . S
O326 C317 1.268 . S
O327 Sc308 2.105 . S
O327 C313 1.268 . S
O328 Sc310 2.105 . S
O328 C312 1.268 . S
O329 Sc309 2.105 . S
O329 C314 1.268 . S
Sc330 O333 2.025 . S
Sc330 O340 2.105 . S
Sc330 O343 2.105 . S
Sc330 O346 2.105 . S
Sc330 O349 2.105 . S
Sc331 O333 2.025 . S
Sc331 O341 2.105 . S
Sc331 O345 2.105 . S
Sc331 O347 2.105 . S
Sc331 O351 2.105 . S
Sc332 O333 2.025 . S
Sc332 O342 2.105 . S
Sc332 O344 2.105 . S
Sc332 O348 2.105 . S
Sc332 O350 2.105 . S
O333 Sc330 2.025 . S
O333 Sc331 2.025 . S
O333 Sc332 2.025 . S
C334 O340 1.268 . S
C334 O350 1.268 . S
C335 O341 1.268 . S
C335 O349 1.268 . S
C336 O342 1.268 . S
C336 O351 1.268 . S
C337 O343 1.268 . S
C337 O347 1.268 . S
C338 O344 1.268 . S
C338 O346 1.268 . S
C339 O345 1.268 . S
C339 O348 1.268 . S
O340 Sc330 2.105 . S
O340 C334 1.268 . S
O341 Sc331 2.105 . S
O341 C335 1.268 . S
O342 Sc332 2.105 . S
O342 C336 1.268 . S
O343 Sc330 2.105 . S
O343 C337 1.268 . S
O344 Sc332 2.105 . S
O344 C338 1.268 . S
O345 Sc331 2.105 . S
O345 C339 1.268 . S
O346 Sc330 2.105 . S
O346 C338 1.268 . S
O347 Sc331 2.105 . S
O347 C337 1.268 . S
O348 Sc332 2.105 . S
O348 C339 1.268 . S
O349 Sc330 2.105 . S
O349 C335 1.268 . S
O350 Sc332 2.105 . S
O350 C334 1.268 . S
O351 Sc331 2.105 . S
O351 C336 1.268 . S
Sc352 O355 2.025 . S
Sc352 O362 2.105 . S
Sc352 O365 2.105 . S
Sc352 O368 2.105 . S
Sc352 O371 2.105 . S
Sc353 O355 2.025 . S
Sc353 O363 2.105 . S
Sc353 O367 2.105 . S
Sc353 O369 2.105 . S
Sc353 O373 2.105 . S
Sc354 O355 2.025 . S
Sc354 O364 2.105 . S
Sc354 O366 2.105 . S
Sc354 O370 2.105 . S
Sc354 O372 2.105 . S
O355 Sc352 2.025 . S
O355 Sc353 2.025 . S
O355 Sc354 2.025 . S
C356 O362 1.268 . S
C356 O372 1.268 . S
C357 O363 1.268 . S
C357 O371 1.268 . S
C358 O364 1.268 . S
C358 O373 1.268 . S
C359 O365 1.268 . S
C359 O369 1.268 . S
C360 O366 1.268 . S
C360 O368 1.268 . S
C361 O367 1.268 . S
C361 O370 1.268 . S
O362 Sc352 2.105 . S
O362 C356 1.268 . S
O363 Sc353 2.105 . S
O363 C357 1.268 . S
O364 Sc354 2.105 . S
O364 C358 1.268 . S
O365 Sc352 2.105 . S
O365 C359 1.268 . S
O366 Sc354 2.105 . S
O366 C360 1.268 . S
O367 Sc353 2.105 . S
O367 C361 1.268 . S
O368 Sc352 2.105 . S
O368 C360 1.268 . S
O369 Sc353 2.105 . S
O369 C359 1.268 . S
O370 Sc354 2.105 . S
O370 C361 1.268 . S
O371 Sc352 2.105 . S
O371 C357 1.268 . S
O372 Sc354 2.105 . S
O372 C356 1.268 . S
O373 Sc353 2.105 . S
O373 C358 1.268 . S
Sc374 O377 2.025 . S
Sc374 O384 2.105 . S
Sc374 O387 2.105 . S
Sc374 O390 2.105 . S
Sc374 O393 2.105 . S
Sc375 O377 2.025 . S
Sc375 O385 2.105 . S
Sc375 O389 2.105 . S
Sc375 O391 2.105 . S
Sc375 O395 2.105 . S
Sc376 O377 2.025 . S
Sc376 O386 2.105 . S
Sc376 O388 2.105 . S
Sc376 O392 2.105 . S
Sc376 O394 2.105 . S
O377 Sc374 2.025 . S
O377 Sc375 2.025 . S
O377 Sc376 2.025 . S
C378 O384 1.268 . S
C378 O394 1.268 . S
C379 O385 1.268 . S
C379 O393 1.268 . S
C380 O386 1.268 . S
C380 O395 1.268 . S
C381 O387 1.268 . S
C381 O391 1.268 . S
C382 O388 1.268 . S
C382 O390 1.268 . S
C383 O389 1.268 . S
C383 O392 1.268 . S
O384 Sc374 2.105 . S
O384 C378 1.268 . S
O385 Sc375 2.105 . S
O385 C379 1.268 . S
O386 Sc376 2.105 . S
O386 C380 1.268 . S
O387 Sc374 2.105 . S
O387 C381 1.268 . S
O388 Sc376 2.105 . S
O388 C382 1.268 . S
O389 Sc375 2.105 . S
O389 C383 1.268 . S
O390 Sc374 2.105 . S
O390 C382 1.268 . S
O391 Sc375 2.105 . S
O391 C381 1.268 . S
O392 Sc376 2.105 . S
O392 C383 1.268 . S
O393 Sc374 2.105 . S
O393 C379 1.268 . S
O394 Sc376 2.105 . S
O394 C378 1.268 . S
O395 Sc375 2.105 . S
O395 C380 1.268 . S
H396 C404 0.929 . S
H397 C406 0.930 . S
H398 C408 0.930 . S
H399 C411 0.929 . S
H400 C414 0.930 . S
H401 C416 0.960 . S
H402 C416 0.960 . S
H403 C416 0.960 . S
C404 H396 0.929 . S
C404 C405 1.377 . S
C404 C406 1.384 . S
C405 C404 1.377 . S
C405 C411 1.390 . S
C406 H397 0.930 . S
C406 C404 1.384 . S
C406 C407 1.372 . S
C407 C406 1.372 . S
C407 C408 1.400 . S
C407 C412 1.490 . S
C408 H398 0.930 . S
C408 C407 1.400 . S
C408 C411 1.386 . S
H409 C425 0.930 . S
H410 C426 0.931 . S
C411 H399 0.929 . S
C411 C405 1.390 . S
C411 C408 1.386 . S
C412 C407 1.490 . S
C412 C414 1.395 . S
C412 C415 1.403 . S
H413 C419 0.930 . S
C414 H400 0.930 . S
C414 C412 1.395 . S
C414 C417 1.403 . S
C415 C412 1.403 . S
C415 C416 1.524 . S
C415 C419 1.400 . S
C416 H401 0.960 . S
C416 H402 0.960 . S
C416 H403 0.960 . S
C416 C415 1.524 . S
C417 C414 1.403 . S
C417 C418 1.392 . S
C417 C421 1.495 . S
C418 C417 1.392 . S
C418 C419 1.385 . S
C418 C420 1.478 . S
C419 H413 0.930 . S
C419 C415 1.400 . S
C419 C418 1.385 . S
C420 C418 1.478 . S
C420 C422 1.381 . S
C420 C426 1.383 . S
C421 C417 1.495 . S
C421 H427 0.959 . S
C421 H428 0.961 . S
C421 H429 0.960 . S
C422 C420 1.381 . S
C422 C423 1.394 . S
C422 H430 0.930 . S
C423 C422 1.394 . S
C423 C424 1.383 . S
C423 H431 0.929 . S
C424 C423 1.383 . S
C424 C425 1.377 . S
C425 H409 0.930 . S
C425 C424 1.377 . S
C425 C426 1.379 . S
C426 H410 0.931 . S
C426 C420 1.383 . S
C426 C425 1.379 . S
H427 C421 0.959 . S
H428 C421 0.961 . S
H429 C421 0.960 . S
H430 C422 0.930 . S
H431 C423 0.929 . S
H432 C440 0.929 . S
H433 C442 0.930 . S
H434 C444 0.930 . S
H435 C447 0.929 . S
H436 C450 0.930 . S
H437 C452 0.960 . S
H438 C452 0.960 . S
H439 C452 0.960 . S
C440 H432 0.929 . S
C440 C441 1.377 . S
C440 C442 1.384 . S
C441 C440 1.377 . S
C441 C447 1.390 . S
C442 H433 0.930 . S
C442 C440 1.384 . S
C442 C443 1.372 . S
C443 C442 1.372 . S
C443 C444 1.400 . S
C443 C448 1.490 . S
C444 H434 0.930 . S
C444 C443 1.400 . S
C444 C447 1.386 . S
H445 C461 0.930 . S
H446 C462 0.931 . S
C447 H435 0.929 . S
C447 C441 1.390 . S
C447 C444 1.386 . S
C448 C443 1.490 . S
C448 C450 1.395 . S
C448 C451 1.403 . S
H449 C455 0.930 . S
C450 H436 0.930 . S
C450 C448 1.395 . S
C450 C453 1.403 . S
C451 C448 1.403 . S
C451 C452 1.524 . S
C451 C455 1.400 . S
C452 H437 0.960 . S
C452 H438 0.960 . S
C452 H439 0.960 . S
C452 C451 1.524 . S
C453 C450 1.403 . S
C453 C454 1.392 . S
C453 C457 1.495 . S
C454 C453 1.392 . S
C454 C455 1.385 . S
C454 C456 1.478 . S
C455 H449 0.930 . S
C455 C451 1.400 . S
C455 C454 1.385 . S
C456 C454 1.478 . S
C456 C458 1.381 . S
C456 C462 1.383 . S
C457 C453 1.495 . S
C457 H463 0.959 . S
C457 H464 0.961 . S
C457 H465 0.960 . S
C458 C456 1.381 . S
C458 C459 1.394 . S
C458 H466 0.930 . S
C459 C458 1.394 . S
C459 C460 1.383 . S
C459 H467 0.929 . S
C460 C459 1.383 . S
C460 C461 1.377 . S
C461 H445 0.930 . S
C461 C460 1.377 . S
C461 C462 1.379 . S
C462 H446 0.931 . S
C462 C456 1.383 . S
C462 C461 1.379 . S
H463 C457 0.959 . S
H464 C457 0.961 . S
H465 C457 0.960 . S
H466 C458 0.930 . S
H467 C459 0.929 . S
H468 C476 0.929 1_545 S
H469 C478 0.930 . S
H470 C480 0.930 . S
H471 C483 0.929 . S
H472 C486 0.930 . S
H473 C488 0.960 . S
H474 C488 0.960 . S
H475 C488 0.960 . S
C476 H468 0.929 1_565 S
C476 C477 1.377 . S
C476 C478 1.384 . S
C477 C476 1.377 . S
C477 C483 1.390 . S
C478 H469 0.930 . S
C478 C476 1.384 . S
C478 C479 1.372 . S
C479 C478 1.372 . S
C479 C480 1.400 . S
C479 C484 1.490 . S
C480 H470 0.930 . S
C480 C479 1.400 . S
C480 C483 1.386 . S
H481 C497 0.930 . S
H482 C498 0.931 . S
C483 H471 0.929 . S
C483 C477 1.390 . S
C483 C480 1.386 . S
C484 C479 1.490 . S
C484 C486 1.395 . S
C484 C487 1.403 . S
H485 C491 0.930 . S
C486 H472 0.930 . S
C486 C484 1.395 . S
C486 C489 1.403 . S
C487 C484 1.403 . S
C487 C488 1.524 . S
C487 C491 1.400 . S
C488 H473 0.960 . S
C488 H474 0.960 . S
C488 H475 0.960 . S
C488 C487 1.524 . S
C489 C486 1.403 . S
C489 C490 1.392 . S
C489 C493 1.495 . S
C490 C489 1.392 . S
C490 C491 1.385 . S
C490 C492 1.478 . S
C491 H485 0.930 . S
C491 C487 1.400 . S
C491 C490 1.385 . S
C492 C490 1.478 . S
C492 C494 1.381 . S
C492 C498 1.383 . S
C493 C489 1.495 . S
C493 H499 0.959 . S
C493 H500 0.961 . S
C493 H501 0.960 . S
C494 C492 1.381 . S
C494 C495 1.394 . S
C494 H502 0.930 . S
C495 C494 1.394 . S
C495 C496 1.383 . S
C495 H503 0.929 . S
C496 C495 1.383 . S
C496 C497 1.377 . S
C497 H481 0.930 . S
C497 C496 1.377 . S
C497 C498 1.379 . S
C498 H482 0.931 . S
C498 C492 1.383 . S
C498 C497 1.379 . S
H499 C493 0.959 . S
H500 C493 0.961 . S
H501 C493 0.960 . S
H502 C494 0.930 . S
H503 C495 0.929 . S
H504 C512 0.929 . S
H505 C514 0.930 . S
H506 C516 0.930 . S
H507 C519 0.929 . S
H508 C522 0.930 . S
H509 C524 0.960 . S
H510 C524 0.960 . S
H511 C524 0.960 . S
C512 H504 0.929 . S
C512 C513 1.377 . S
C512 C514 1.384 . S
C513 C512 1.377 . S
C513 C519 1.390 . S
C514 H505 0.930 . S
C514 C512 1.384 . S
C514 C515 1.372 . S
C515 C514 1.372 . S
C515 C516 1.400 . S
C515 C520 1.490 . S
C516 H506 0.930 . S
C516 C515 1.400 . S
C516 C519 1.386 . S
H517 C533 0.930 . S
H518 C534 0.931 . S
C519 H507 0.929 . S
C519 C513 1.390 . S
C519 C516 1.386 . S
C520 C515 1.490 . S
C520 C522 1.395 . S
C520 C523 1.403 . S
H521 C527 0.930 . S
C522 H508 0.930 . S
C522 C520 1.395 . S
C522 C525 1.403 . S
C523 C520 1.403 . S
C523 C524 1.524 . S
C523 C527 1.400 . S
C524 H509 0.960 . S
C524 H510 0.960 . S
C524 H511 0.960 . S
C524 C523 1.524 . S
C525 C522 1.403 . S
C525 C526 1.392 . S
C525 C529 1.495 . S
C526 C525 1.392 . S
C526 C527 1.385 . S
C526 C528 1.478 . S
C527 H521 0.930 . S
C527 C523 1.400 . S
C527 C526 1.385 . S
C528 C526 1.478 . S
C528 C530 1.381 . S
C528 C534 1.383 . S
C529 C525 1.495 . S
C529 H535 0.959 . S
C529 H536 0.961 . S
C529 H537 0.960 . S
C530 C528 1.381 . S
C530 C531 1.394 . S
C530 H538 0.930 . S
C531 C530 1.394 . S
C531 C532 1.383 . S
C531 H539 0.929 . S
C532 C531 1.383 . S
C532 C533 1.377 . S
C533 H517 0.930 . S
C533 C532 1.377 . S
C533 C534 1.379 . S
C534 H518 0.931 . S
C534 C528 1.383 . S
C534 C533 1.379 . S
H535 C529 0.959 . S
H536 C529 0.961 . S
H537 C529 0.960 . S
H538 C530 0.930 . S
H539 C531 0.929 . S
H540 C548 0.929 . S
H541 C550 0.930 . S
H542 C552 0.930 . S
H543 C555 0.929 . S
H544 C558 0.930 . S
H545 C560 0.960 . S
H546 C560 0.960 . S
H547 C560 0.960 . S
C548 H540 0.929 . S
C548 C549 1.377 . S
C548 C550 1.384 . S
C549 C548 1.377 . S
C549 C555 1.390 . S
C550 H541 0.930 . S
C550 C548 1.384 . S
C550 C551 1.372 . S
C551 C550 1.372 . S
C551 C552 1.400 . S
C551 C556 1.490 . S
C552 H542 0.930 . S
C552 C551 1.400 . S
C552 C555 1.386 . S
H553 C569 0.973 . S
H554 C570 0.931 . S
C555 H543 0.929 . S
C555 C549 1.390 . S
C555 C552 1.386 . S
C556 C551 1.490 . S
C556 C558 1.395 . S
C556 C559 1.403 . S
H557 C563 0.930 . S
C558 H544 0.930 . S
C558 C556 1.395 . S
C558 C561 1.403 . S
C559 C556 1.403 . S
C559 C560 1.524 . S
C559 C563 1.400 . S
C560 H545 0.960 . S
C560 H546 0.960 . S
C560 H547 0.960 . S
C560 C559 1.524 . S
C561 C558 1.403 . S
C561 C562 1.392 . S
C561 C565 1.495 . S
C562 C561 1.392 . S
C562 C563 1.385 . S
C562 C564 1.478 . S
C563 H557 0.930 . S
C563 C559 1.400 . S
C563 C562 1.385 . S
C564 C562 1.478 . S
C564 C566 1.381 . S
C564 C570 1.383 . S
C565 C561 1.495 . S
C565 H571 0.959 . S
C565 H572 0.961 . S
C565 H573 0.960 . S
C566 C564 1.381 . S
C566 C567 1.394 . S
C566 H574 0.930 . S
C567 C566 1.394 . S
C567 C568 1.383 . S
C567 H575 0.929 . S
C568 C567 1.383 . S
C568 C569 1.377 . S
C569 H553 0.973 . S
C569 C568 1.377 . S
C569 C570 1.379 . S
C570 H554 0.931 . S
C570 C564 1.383 . S
C570 C569 1.379 . S
H571 C565 0.959 . S
H572 C565 0.961 . S
H573 C565 0.960 . S
H574 C566 0.930 . S
H575 C567 0.929 . S
H576 C584 0.929 . S
H577 C586 0.930 . S
H578 C588 0.930 . S
H579 C591 0.929 . S
H580 C594 0.930 . S
H581 C596 0.960 . S
H582 C596 0.960 . S
H583 C596 0.960 . S
C584 H576 0.929 . S
C584 C585 1.377 . S
C584 C586 1.384 . S
C585 C584 1.377 . S
C585 C591 1.390 . S
C586 H577 0.930 . S
C586 C584 1.384 . S
C586 C587 1.372 . S
C587 C586 1.372 . S
C587 C588 1.400 . S
C587 C592 1.490 . S
C588 H578 0.930 . S
C588 C587 1.400 . S
C588 C591 1.386 . S
H589 C605 0.930 . S
H590 C606 0.931 . S
C591 H579 0.929 . S
C591 C585 1.390 . S
C591 C588 1.386 . S
C592 C587 1.490 . S
C592 C594 1.395 . S
C592 C595 1.403 . S
H593 C599 0.930 . S
C594 H580 0.930 . S
C594 C592 1.395 . S
C594 C597 1.403 . S
C595 C592 1.403 . S
C595 C596 1.524 . S
C595 C599 1.400 . S
C596 H581 0.960 . S
C596 H582 0.960 . S
C596 H583 0.960 . S
C596 C595 1.524 . S
C597 C594 1.403 . S
C597 C598 1.392 . S
C597 C601 1.495 . S
C598 C597 1.392 . S
C598 C599 1.385 . S
C598 C600 1.478 . S
C599 H593 0.930 . S
C599 C595 1.400 . S
C599 C598 1.385 . S
C600 C598 1.478 . S
C600 C602 1.381 . S
C600 C606 1.383 . S
C601 C597 1.495 . S
C601 H607 0.959 . S
C601 H608 0.961 . S
C601 H609 0.960 . S
C602 C600 1.381 . S
C602 C603 1.394 . S
C602 H610 0.930 . S
C603 C602 1.394 . S
C603 C604 1.383 . S
C603 H611 0.929 . S
C604 C603 1.383 . S
C604 C605 1.377 . S
C605 H589 0.930 . S
C605 C604 1.377 . S
C605 C606 1.379 . S
C606 H590 0.931 . S
C606 C600 1.383 . S
C606 C605 1.379 . S
H607 C601 0.959 . S
H608 C601 0.961 . S
H609 C601 0.960 . S
H610 C602 0.930 . S
H611 C603 0.929 . S
H612 C620 0.929 . S
H613 C622 0.930 . S
H614 C624 0.930 . S
H615 C627 0.929 . S
H616 C630 0.930 . S
H617 C632 0.960 . S
H618 C632 0.960 . S
H619 C632 0.960 . S
C620 H612 0.929 . S
C620 C621 1.377 . S
C620 C622 1.384 . S
C621 C620 1.377 . S
C621 C627 1.390 . S
C622 H613 0.930 . S
C622 C620 1.384 . S
C622 C623 1.372 . S
C623 C622 1.372 . S
C623 C624 1.400 . S
C623 C628 1.490 . S
C624 H614 0.930 . S
C624 C623 1.400 . S
C624 C627 1.386 . S
H625 C641 0.930 . S
H626 C642 0.931 . S
C627 H615 0.929 . S
C627 C621 1.390 . S
C627 C624 1.386 . S
C628 C623 1.490 . S
C628 C630 1.395 . S
C628 C631 1.403 . S
H629 C635 0.930 . S
C630 H616 0.930 . S
C630 C628 1.395 . S
C630 C633 1.403 . S
C631 C628 1.403 . S
C631 C632 1.524 . S
C631 C635 1.400 . S
C632 H617 0.960 . S
C632 H618 0.960 . S
C632 H619 0.960 . S
C632 C631 1.524 . S
C633 C630 1.403 . S
C633 C634 1.392 . S
C633 C637 1.495 . S
C634 C633 1.392 . S
C634 C635 1.385 . S
C634 C636 1.478 . S
C635 H629 0.930 . S
C635 C631 1.400 . S
C635 C634 1.385 . S
C636 C634 1.478 . S
C636 C638 1.381 . S
C636 C642 1.383 . S
C637 C633 1.495 . S
C637 H643 0.959 . S
C637 H644 0.961 . S
C637 H645 0.960 . S
C638 C636 1.381 . S
C638 C639 1.394 . S
C638 H646 0.930 . S
C639 C638 1.394 . S
C639 C640 1.383 . S
C639 H647 0.929 . S
C640 C639 1.383 . S
C640 C641 1.377 . S
C641 H625 0.930 . S
C641 C640 1.377 . S
C641 C642 1.379 . S
C642 H626 0.931 . S
C642 C636 1.383 . S
C642 C641 1.379 . S
H643 C637 0.959 . S
H644 C637 0.961 . S
H645 C637 0.960 . S
H646 C638 0.930 . S
H647 C639 0.929 . S
H648 C656 0.929 . S
H649 C658 0.930 . S
H650 C660 0.930 . S
H651 C663 0.929 . S
H652 C666 0.930 . S
H653 C668 0.960 . S
H654 C668 0.960 . S
H655 C668 0.960 . S
C656 H648 0.929 . S
C656 C657 1.377 . S
C656 C658 1.384 . S
C657 C656 1.377 . S
C657 C663 1.390 . S
C658 H649 0.930 . S
C658 C656 1.384 . S
C658 C659 1.372 . S
C659 C658 1.372 . S
C659 C660 1.400 . S
C659 C664 1.490 . S
C660 H650 0.930 . S
C660 C659 1.400 . S
C660 C663 1.386 . S
H661 C677 0.930 . S
H662 C678 0.931 . S
C663 H651 0.929 . S
C663 C657 1.390 . S
C663 C660 1.386 . S
C664 C659 1.490 . S
C664 C666 1.395 . S
C664 C667 1.403 . S
H665 C671 0.930 . S
C666 H652 0.930 . S
C666 C664 1.395 . S
C666 C669 1.403 . S
C667 C664 1.403 . S
C667 C668 1.524 . S
C667 C671 1.400 . S
C668 H653 0.960 . S
C668 H654 0.960 . S
C668 H655 0.960 . S
C668 C667 1.524 . S
C669 C666 1.403 . S
C669 C670 1.392 . S
C669 C673 1.495 . S
C670 C669 1.392 . S
C670 C671 1.385 . S
C670 C672 1.478 . S
C671 H665 0.930 . S
C671 C667 1.400 . S
C671 C670 1.385 . S
C672 C670 1.478 . S
C672 C674 1.381 . S
C672 C678 1.383 . S
C673 C669 1.495 . S
C673 H679 0.959 . S
C673 H680 0.961 . S
C673 H681 0.960 . S
C674 C672 1.381 . S
C674 C675 1.394 . S
C674 H682 0.930 . S
C675 C674 1.394 . S
C675 C676 1.383 . S
C675 H683 0.929 . S
C676 C675 1.383 . S
C676 C677 1.377 . S
C677 H661 0.930 . S
C677 C676 1.377 . S
C677 C678 1.379 . S
C678 H662 0.931 . S
C678 C672 1.383 . S
C678 C677 1.379 . S
H679 C673 0.959 . S
H680 C673 0.961 . S
H681 C673 0.960 . S
H682 C674 0.930 . S
H683 C675 0.929 . S
H684 C692 0.929 . S
H685 C694 0.930 . S
H686 C696 0.930 . S
H687 C699 0.929 . S
H688 C702 0.930 . S
H689 C704 0.960 . S
H690 C704 0.960 . S
H691 C704 0.960 . S
C692 H684 0.929 . S
C692 C693 1.377 . S
C692 C694 1.384 . S
C693 C692 1.377 . S
C693 C699 1.390 . S
C694 H685 0.930 . S
C694 C692 1.384 . S
C694 C695 1.372 . S
C695 C694 1.372 . S
C695 C696 1.400 . S
C695 C700 1.490 . S
C696 H686 0.930 . S
C696 C695 1.400 . S
C696 C699 1.386 . S
H697 C713 0.930 . S
H698 C714 0.931 . S
C699 H687 0.929 . S
C699 C693 1.390 . S
C699 C696 1.386 . S
C700 C695 1.490 . S
C700 C702 1.395 . S
C700 C703 1.403 . S
H701 C707 0.930 . S
C702 H688 0.930 . S
C702 C700 1.395 . S
C702 C705 1.403 . S
C703 C700 1.403 . S
C703 C704 1.524 . S
C703 C707 1.400 . S
C704 H689 0.960 . S
C704 H690 0.960 . S
C704 H691 0.960 . S
C704 C703 1.524 . S
C705 C702 1.403 . S
C705 C706 1.392 . S
C705 C709 1.495 . S
C706 C705 1.392 . S
C706 C707 1.385 . S
C706 C708 1.478 . S
C707 H701 0.930 . S
C707 C703 1.400 . S
C707 C706 1.385 . S
C708 C706 1.478 . S
C708 C710 1.381 . S
C708 C714 1.383 . S
C709 C705 1.495 . S
C709 H715 0.959 . S
C709 H716 0.961 . S
C709 H717 0.960 . S
C710 C708 1.381 . S
C710 C711 1.394 . S
C710 H718 0.930 . S
C711 C710 1.394 . S
C711 C712 1.383 . S
C711 H719 0.929 . S
C712 C711 1.383 . S
C712 C713 1.377 . S
C713 H697 0.930 . S
C713 C712 1.377 . S
C713 C714 1.379 . S
C714 H698 0.931 . S
C714 C708 1.383 . S
C714 C713 1.379 . S
H715 C709 0.959 . S
H716 C709 0.961 . S
H717 C709 0.960 . S
H718 C710 0.930 . S
H719 C711 0.929 . S
H720 C728 0.929 . S
H721 C730 0.930 . S
H722 C732 0.930 . S
H723 C735 0.929 . S
H724 C738 0.930 . S
H725 C740 0.960 . S
H726 C740 0.960 . S
H727 C740 0.960 . S
C728 H720 0.929 . S
C728 C729 1.377 . S
C728 C730 1.384 . S
C729 C728 1.377 . S
C729 C735 1.390 . S
C730 H721 0.930 . S
C730 C728 1.384 . S
C730 C731 1.372 . S
C731 C730 1.372 . S
C731 C732 1.400 . S
C731 C736 1.490 . S
C732 H722 0.930 . S
C732 C731 1.400 . S
C732 C735 1.386 . S
H733 C749 0.930 . S
H734 C750 0.931 . S
C735 H723 0.929 . S
C735 C729 1.390 . S
C735 C732 1.386 . S
C736 C731 1.490 . S
C736 C738 1.395 . S
C736 C739 1.403 . S
H737 C743 0.930 . S
C738 H724 0.930 . S
C738 C736 1.395 . S
C738 C741 1.403 . S
C739 C736 1.403 . S
C739 C740 1.524 . S
C739 C743 1.400 . S
C740 H725 0.960 . S
C740 H726 0.960 . S
C740 H727 0.960 . S
C740 C739 1.524 . S
C741 C738 1.403 . S
C741 C742 1.392 . S
C741 C745 1.495 . S
C742 C741 1.392 . S
C742 C743 1.385 . S
C742 C744 1.478 . S
C743 H737 0.930 . S
C743 C739 1.400 . S
C743 C742 1.385 . S
C744 C742 1.478 . S
C744 C746 1.381 . S
C744 C750 1.383 . S
C745 C741 1.495 . S
C745 H751 0.959 . S
C745 H752 0.961 . S
C745 H753 0.968 . S
C746 C744 1.381 . S
C746 C747 1.394 . S
C746 H754 0.930 . S
C747 C746 1.394 . S
C747 C748 1.383 . S
C747 H755 0.929 1_565 S
C748 C747 1.383 . S
C748 C749 1.377 . S
C749 H733 0.930 . S
C749 C748 1.377 . S
C749 C750 1.379 . S
C750 H734 0.931 . S
C750 C744 1.383 . S
C750 C749 1.379 . S
H751 C745 0.959 . S
H752 C745 0.961 . S
H753 C745 0.968 . S
H754 C746 0.930 . S
H755 C747 0.929 1_545 S
H756 C764 0.929 . S
H757 C766 0.930 . S
H758 C768 0.930 . S
H759 C771 0.929 . S
H760 C774 0.930 . S
H761 C776 0.960 . S
H762 C776 0.960 . S
H763 C776 0.960 . S
C764 H756 0.929 . S
C764 C765 1.377 . S
C764 C766 1.384 . S
C765 C764 1.377 . S
C765 C771 1.390 . S
C766 H757 0.930 . S
C766 C764 1.384 . S
C766 C767 1.372 . S
C767 C766 1.372 . S
C767 C768 1.400 . S
C767 C772 1.490 . S
C768 H758 0.930 . S
C768 C767 1.400 . S
C768 C771 1.386 . S
H769 C785 0.930 . S
H770 C786 0.931 . S
C771 H759 0.929 . S
C771 C765 1.390 . S
C771 C768 1.386 . S
C772 C767 1.490 . S
C772 C774 1.395 . S
C772 C775 1.403 . S
H773 C779 0.930 . S
C774 H760 0.930 . S
C774 C772 1.395 . S
C774 C777 1.403 . S
C775 C772 1.403 . S
C775 C776 1.524 . S
C775 C779 1.400 . S
C776 H761 0.960 . S
C776 H762 0.960 . S
C776 H763 0.960 . S
C776 C775 1.524 . S
C777 C774 1.403 . S
C777 C778 1.392 . S
C777 C781 1.495 . S
C778 C777 1.392 . S
C778 C779 1.385 . S
C778 C780 1.478 . S
C779 H773 0.930 . S
C779 C775 1.400 . S
C779 C778 1.385 . S
C780 C778 1.478 . S
C780 C782 1.381 . S
C780 C786 1.383 . S
C781 C777 1.495 . S
C781 H787 0.959 . S
C781 H788 0.961 . S
C781 H789 0.960 . S
C782 C780 1.381 . S
C782 C783 1.394 . S
C782 H790 0.930 . S
C783 C782 1.394 . S
C783 C784 1.383 . S
C783 H791 0.929 . S
C784 C783 1.383 . S
C784 C785 1.377 . S
C785 H769 0.930 . S
C785 C784 1.377 . S
C785 C786 1.379 . S
C786 H770 0.931 . S
C786 C780 1.383 . S
C786 C785 1.379 . S
H787 C781 0.959 . S
H788 C781 0.961 . S
H789 C781 0.960 . S
H790 C782 0.930 . S
H791 C783 0.929 . S
H792 C800 0.929 . S
H793 C802 0.930 . S
H794 C804 0.930 . S
H795 C807 0.929 . S
H796 C810 0.930 . S
H797 C812 0.960 . S
H798 C812 0.960 . S
H799 C812 0.960 . S
C800 H792 0.929 . S
C800 C801 1.377 . S
C800 C802 1.384 . S
C801 C800 1.377 . S
C801 C807 1.390 . S
C802 H793 0.930 . S
C802 C800 1.384 . S
C802 C803 1.372 . S
C803 C802 1.372 . S
C803 C804 1.400 . S
C803 C808 1.490 . S
C804 H794 0.930 . S
C804 C803 1.400 . S
C804 C807 1.386 . S
H805 C821 0.930 . S
H806 C822 0.931 . S
C807 H795 0.929 . S
C807 C801 1.390 . S
C807 C804 1.386 . S
C808 C803 1.490 . S
C808 C810 1.395 . S
C808 C811 1.403 . S
H809 C815 0.930 . S
C810 H796 0.930 . S
C810 C808 1.395 . S
C810 C813 1.403 . S
C811 C808 1.403 . S
C811 C812 1.524 . S
C811 C815 1.400 . S
C812 H797 0.960 . S
C812 H798 0.960 . S
C812 H799 0.960 . S
C812 C811 1.524 . S
C813 C810 1.403 . S
C813 C814 1.392 . S
C813 C817 1.495 . S
C814 C813 1.392 . S
C814 C815 1.385 . S
C814 C816 1.478 . S
C815 H809 0.930 . S
C815 C811 1.400 . S
C815 C814 1.385 . S
C816 C814 1.478 . S
C816 C818 1.381 . S
C816 C822 1.383 . S
C817 C813 1.495 . S
C817 H823 0.959 . S
C817 H824 0.961 . S
C817 H825 0.960 . S
C818 C816 1.381 . S
C818 C819 1.394 . S
C818 H826 0.930 . S
C819 C818 1.394 . S
C819 C820 1.383 . S
C819 H827 0.929 . S
C820 C819 1.383 . S
C820 C821 1.377 . S
C821 H805 0.930 . S
C821 C820 1.377 . S
C821 C822 1.379 . S
C822 H806 0.931 . S
C822 C816 1.383 . S
C822 C821 1.379 . S
H823 C817 0.959 . S
H824 C817 0.961 . S
H825 C817 0.960 . S
H826 C818 0.930 . S
H827 C819 0.929 . S
H828 C836 0.929 . S
H829 C838 0.930 . S
H830 C840 0.944 . S
H831 C843 0.929 1_554 S
H832 C846 0.930 . S
H833 C848 0.910 1_455 S
H834 C848 0.960 . S
H835 C848 0.960 . S
C836 H828 0.929 . S
C836 C837 1.377 . S
C836 C838 1.384 . S
C837 C836 1.377 . S
C837 C843 1.390 . S
C838 H829 0.930 . S
C838 C836 1.384 . S
C838 C839 1.372 . S
C839 C838 1.372 . S
C839 C840 1.390 1_556 S
C839 C844 1.494 . S
C840 H830 0.944 . S
C840 C839 1.390 1_554 S
C840 C843 1.382 1_554 S
H841 C857 0.930 . S
H842 C858 0.931 . S
C843 H831 0.929 1_556 S
C843 C837 1.390 . S
C843 C840 1.382 1_556 S
C844 C839 1.494 . S
C844 C846 1.393 1_655 S
C844 C847 1.400 1_656 S
H845 C851 0.930 . S
C846 H832 0.930 . S
C846 C844 1.393 1_455 S
C846 C849 1.403 . S
C847 C844 1.400 1_454 S
C847 C848 1.524 1_455 S
C847 C851 1.400 . S
C848 H833 0.910 1_655 S
C848 H834 0.960 . S
C848 H835 0.960 . S
C848 C847 1.524 1_655 S
C849 C846 1.403 . S
C849 C850 1.392 1_556 S
C849 C853 1.495 . S
C850 C849 1.392 1_554 S
C850 C851 1.385 . S
C850 C852 1.478 . S
C851 H845 0.930 . S
C851 C847 1.400 . S
C851 C850 1.385 . S
C852 C850 1.478 . S
C852 C854 1.381 1_554 S
C852 C858 1.383 . S
C853 C849 1.495 . S
C853 H859 0.959 . S
C853 H860 0.961 . S
C853 H861 0.960 . S
C854 C852 1.381 1_556 S
C854 C855 1.394 1_556 S
C854 H862 0.930 . S
C855 C854 1.394 1_554 S
C855 C856 1.383 . S
C855 H863 0.929 1_554 S
C856 C855 1.383 . S
C856 C857 1.377 . S
C857 H841 0.930 . S
C857 C856 1.377 . S
C857 C858 1.379 . S
C858 H842 0.931 . S
C858 C852 1.383 . S
C858 C857 1.379 . S
H859 C853 0.959 . S
H860 C853 0.961 . S
H861 C853 0.960 . S
H862 C854 0.930 . S
H863 C855 0.929 1_556 S
H864 C872 0.929 1_554 S
H865 C874 0.930 . S
H866 C876 0.930 . S
H867 C879 0.929 . S
H868 C882 0.930 . S
H869 C884 0.960 . S
H870 C884 0.960 . S
H871 C884 0.960 . S
C872 H864 0.929 1_556 S
C872 C873 1.377 . S
C872 C874 1.384 1_556 S
C873 C872 1.377 . S
C873 C879 1.390 . S
C874 H865 0.930 . S
C874 C872 1.384 1_554 S
C874 C875 1.372 1_554 S
C875 C874 1.372 1_556 S
C875 C876 1.400 . S
C875 C880 1.490 . S
C876 H866 0.930 . S
C876 C875 1.400 . S
C876 C879 1.386 . S
H877 C893 0.930 1_556 S
H878 C894 0.931 . S
C879 H867 0.929 . S
C879 C873 1.390 . S
C879 C876 1.386 . S
C880 C875 1.490 . S
C880 C882 1.395 1_556 S
C880 C883 1.403 . S
H881 C887 0.930 . S
C882 H868 0.930 . S
C882 C880 1.395 1_554 S
C882 C885 1.403 . S
C883 C880 1.403 . S
C883 C884 1.524 . S
C883 C887 1.400 1_556 S
C884 H869 0.960 . S
C884 H870 0.960 . S
C884 H871 0.960 . S
C884 C883 1.524 . S
C885 C882 1.403 . S
C885 C886 1.392 . S
C885 C889 1.495 . S
C886 C885 1.392 . S
C886 C887 1.385 . S
C886 C888 1.478 . S
C887 H881 0.930 . S
C887 C883 1.400 1_554 S
C887 C886 1.385 . S
C888 C886 1.478 . S
C888 C890 1.381 . S
C888 C894 1.383 1_554 S
C889 C885 1.495 . S
C889 H895 0.959 . S
C889 H896 0.961 . S
C889 H897 0.960 . S
C890 C888 1.381 . S
C890 C891 1.394 . S
C890 H898 0.930 . S
C891 C890 1.394 . S
C891 C892 1.383 . S
C891 H899 0.929 . S
C892 C891 1.383 . S
C892 C893 1.377 . S
C893 H877 0.930 1_554 S
C893 C892 1.377 . S
C893 C894 1.379 1_554 S
C894 H878 0.931 . S
C894 C888 1.383 1_556 S
C894 C893 1.379 1_556 S
H895 C889 0.959 . S
H896 C889 0.961 . S
H897 C889 0.960 . S
H898 C890 0.930 . S
H899 C891 0.929 . S
H900 C908 0.929 . S
H901 C910 0.930 . S
H902 C912 0.930 . S
H903 C915 0.929 . S
H904 C918 0.930 . S
H905 C920 0.960 . S
H906 C920 0.960 . S
H907 C920 0.960 . S
C908 H900 0.929 . S
C908 C909 1.377 . S
C908 C910 1.384 . S
C909 C908 1.377 . S
C909 C915 1.390 . S
C910 H901 0.930 . S
C910 C908 1.384 . S
C910 C911 1.372 . S
C911 C910 1.372 . S
C911 C912 1.400 . S
C911 C916 1.490 . S
C912 H902 0.930 . S
C912 C911 1.400 . S
C912 C915 1.386 . S
H913 C929 0.930 . S
H914 C930 0.931 1_556 S
C915 H903 0.929 . S
C915 C909 1.390 . S
C915 C912 1.386 . S
C916 C911 1.490 . S
C916 C918 1.395 . S
C916 C919 1.403 1_556 S
H917 C923 0.930 . S
C918 H904 0.930 . S
C918 C916 1.395 . S
C918 C921 1.403 . S
C919 C916 1.403 1_554 S
C919 C920 1.524 . S
C919 C923 1.400 . S
C920 H905 0.960 . S
C920 H906 0.960 . S
C920 H907 0.960 . S
C920 C919 1.524 . S
C921 C918 1.403 . S
C921 C922 1.392 1_546 S
C921 C925 1.495 1_545 S
C922 C921 1.392 1_564 S
C922 C923 1.385 1_565 S
C922 C924 1.478 . S
C923 H917 0.930 . S
C923 C919 1.400 . S
C923 C922 1.385 1_545 S
C924 C922 1.478 . S
C924 C926 1.381 . S
C924 C930 1.383 . S
C925 C921 1.495 1_565 S
C925 H931 0.959 1_565 S
C925 H932 0.961 . S
C925 H933 0.960 . S
C926 C924 1.381 . S
C926 C927 1.394 . S
C926 H934 0.930 . S
C927 C926 1.394 . S
C927 C928 1.383 . S
C927 H935 0.929 . S
C928 C927 1.383 . S
C928 C929 1.377 . S
C929 H913 0.930 . S
C929 C928 1.377 . S
C929 C930 1.379 . S
C930 H914 0.931 1_554 S
C930 C924 1.383 . S
C930 C929 1.379 . S
H931 C925 0.959 1_545 S
H932 C925 0.961 . S
H933 C925 0.960 . S
H934 C926 0.930 . S
H935 C927 0.929 . S
H936 C944 0.929 . S
H937 C946 0.930 . S
H938 C948 0.930 1_554 S
H939 C951 0.929 . S
H940 C954 0.930 . S
H941 C956 0.960 . S
H942 C956 0.960 . S
H943 C956 0.960 . S
C944 H936 0.929 . S
C944 C945 1.377 . S
C944 C946 1.384 . S
C945 C944 1.377 . S
C945 C951 1.390 . S
C946 H937 0.930 . S
C946 C944 1.384 . S
C946 C947 1.372 . S
C947 C946 1.372 . S
C947 C948 1.400 . S
C947 C952 1.490 . S
C948 H938 0.930 1_556 S
C948 C947 1.400 . S
C948 C951 1.386 . S
H949 C965 0.930 . S
H950 C966 0.931 . S
C951 H939 0.929 . S
C951 C945 1.390 . S
C951 C948 1.386 . S
C952 C947 1.490 . S
C952 C954 1.395 . S
C952 C955 1.403 1_556 S
H953 C959 0.930 . S
C954 H940 0.930 . S
C954 C952 1.395 . S
C954 C957 1.403 . S
C955 C952 1.403 1_554 S
C955 C956 1.524 . S
C955 C959 1.400 . S
C956 H941 0.960 . S
C956 H942 0.960 . S
C956 H943 0.960 . S
C956 C955 1.524 . S
C957 C954 1.403 . S
C957 C958 1.392 1_546 S
C957 C961 1.495 1_545 S
C958 C957 1.392 1_564 S
C958 C959 1.385 1_565 S
C958 C960 1.478 . S
C959 H953 0.930 . S
C959 C955 1.400 . S
C959 C958 1.385 1_545 S
C960 C958 1.478 . S
C960 C962 1.381 . S
C960 C966 1.383 . S
C961 C957 1.495 1_565 S
C961 H967 0.959 . S
C961 H968 0.961 . S
C961 H969 0.960 . S
C962 C960 1.381 . S
C962 C963 1.394 . S
C962 H970 0.930 1_554 S
C963 C962 1.394 . S
C963 C964 1.383 . S
C963 H971 0.929 . S
C964 C963 1.383 . S
C964 C965 1.377 . S
C965 H949 0.930 . S
C965 C964 1.377 . S
C965 C966 1.379 . S
C966 H950 0.931 . S
C966 C960 1.383 . S
C966 C965 1.379 . S
H967 C961 0.959 . S
H968 C961 0.961 . S
H969 C961 0.960 . S
H970 C962 0.930 1_556 S
H971 C963 0.929 . S
H972 C980 0.929 1_556 S
H973 C982 0.930 . S
H974 C984 0.930 . S
H975 C987 0.929 . S
H976 C990 0.930 . S
H977 C992 0.960 . S
H978 C992 0.960 . S
H979 C992 0.960 . S
C980 H972 0.929 1_554 S
C980 C981 1.377 . S
C980 C982 1.384 1_554 S
C981 C980 1.377 . S
C981 C987 1.390 . S
C982 H973 0.930 . S
C982 C980 1.384 1_556 S
C982 C983 1.372 1_556 S
C983 C982 1.372 1_554 S
C983 C984 1.400 . S
C983 C988 1.490 . S
C984 H974 0.930 . S
C984 C983 1.400 . S
C984 C987 1.386 . S
H985 C1001 0.930 1_554 S
H986 C1002 0.931 . S
C987 H975 0.929 . S
C987 C981 1.390 . S
C987 C984 1.386 . S
C988 C983 1.490 . S
C988 C990 1.395 1_554 S
C988 C991 1.403 . S
H989 C995 0.930 1_655 S
C990 H976 0.930 . S
C990 C988 1.395 1_556 S
C990 C993 1.403 . S
C991 C988 1.403 . S
C991 C992 1.524 . S
C991 C995 1.400 . S
C992 H977 0.960 . S
C992 H978 0.960 . S
C992 H979 0.960 . S
C992 C991 1.524 . S
C993 C990 1.403 . S
C993 C994 1.379 1_455 S
C993 C997 1.495 . S
C994 C993 1.379 1_655 S
C994 C995 1.387 1_656 S
C994 C996 1.490 . S
C995 H989 0.930 1_455 S
C995 C991 1.400 . S
C995 C994 1.387 1_454 S
C996 C994 1.490 . S
C996 C998 1.381 . S
C996 C1002 1.383 1_556 S
C997 C993 1.495 . S
C997 H1003 0.959 . S
C997 H1004 0.961 1_455 S
C997 H1005 0.960 . S
C998 C996 1.381 . S
C998 C999 1.394 . S
C998 H1006 0.930 . S
C999 C998 1.394 . S
C999 C1000 1.383 . S
C999 H1007 0.929 . S
C1000 C999 1.383 . S
C1000 C1001 1.377 . S
C1001 H985 0.930 1_556 S
C1001 C1000 1.377 . S
C1001 C1002 1.379 1_556 S
C1002 H986 0.931 . S
C1002 C996 1.383 1_554 S
C1002 C1001 1.379 1_554 S
H1003 C997 0.959 . S
H1004 C997 0.961 1_655 S
H1005 C997 0.960 . S
H1006 C998 0.930 . S
H1007 C999 0.929 . S
H1008 C1016 0.929 1_556 S
H1009 C1018 0.930 . S
H1010 C1020 0.930 . S
H1011 C1023 0.929 . S
H1012 C1026 0.930 . S
H1013 C1028 0.960 . S
H1014 C1028 0.960 . S
H1015 C1028 0.960 . S
C1016 H1008 0.929 1_554 S
C1016 C1017 1.377 . S
C1016 C1018 1.384 1_554 S
C1017 C1016 1.377 . S
C1017 C1023 1.390 . S
C1018 H1009 0.930 . S
C1018 C1016 1.384 1_556 S
C1018 C1019 1.372 1_556 S
C1019 C1018 1.372 1_554 S
C1019 C1020 1.400 . S
C1019 C1024 1.490 . S
C1020 H1010 0.930 . S
C1020 C1019 1.400 . S
C1020 C1023 1.386 . S
H1021 C1037 0.930 1_554 S
H1022 C1038 0.931 . S
C1023 H1011 0.929 . S
C1023 C1017 1.390 . S
C1023 C1020 1.386 . S
C1024 C1019 1.490 . S
C1024 C1026 1.395 1_554 S
C1024 C1027 1.403 . S
H1025 C1031 0.930 . S
C1026 H1012 0.930 . S
C1026 C1024 1.395 1_556 S
C1026 C1029 1.403 . S
C1027 C1024 1.403 . S
C1027 C1028 1.524 . S
C1027 C1031 1.400 . S
C1028 H1013 0.960 . S
C1028 H1014 0.960 . S
C1028 H1015 0.960 . S
C1028 C1027 1.524 . S
C1029 C1026 1.403 . S
C1029 C1030 1.392 . S
C1029 C1033 1.495 . S
C1030 C1029 1.392 . S
C1030 C1031 1.385 1_556 S
C1030 C1032 1.478 . S
C1031 H1025 0.930 . S
C1031 C1027 1.400 . S
C1031 C1030 1.385 1_554 S
C1032 C1030 1.478 . S
C1032 C1034 1.381 . S
C1032 C1038 1.383 1_556 S
C1033 C1029 1.495 . S
C1033 H1039 0.959 . S
C1033 H1040 0.961 . S
C1033 H1041 0.960 . S
C1034 C1032 1.381 . S
C1034 C1035 1.394 . S
C1034 H1042 0.930 . S
C1035 C1034 1.394 . S
C1035 C1036 1.383 . S
C1035 H1043 0.929 . S
C1036 C1035 1.383 . S
C1036 C1037 1.377 . S
C1037 H1021 0.930 1_556 S
C1037 C1036 1.377 . S
C1037 C1038 1.379 1_556 S
C1038 H1022 0.931 . S
C1038 C1032 1.383 1_554 S
C1038 C1037 1.379 1_554 S
H1039 C1033 0.959 . S
H1040 C1033 0.961 . S
H1041 C1033 0.960 . S
H1042 C1034 0.930 . S
H1043 C1035 0.929 . S
H1044 C1052 0.929 . S
H1045 C1054 0.930 . S
H1046 C1056 0.930 . S
H1047 C1059 0.929 . S
H1048 C1062 0.930 . S
H1049 C1064 0.960 . S
H1050 C1064 0.960 . S
H1051 C1064 0.960 . S
C1052 H1044 0.929 . S
C1052 C1053 1.377 . S
C1052 C1054 1.384 . S
C1053 C1052 1.377 . S
C1053 C1059 1.390 . S
C1054 H1045 0.930 . S
C1054 C1052 1.384 . S
C1054 C1055 1.372 . S
C1055 C1054 1.372 . S
C1055 C1056 1.400 . S
C1055 C1060 1.490 . S
C1056 H1046 0.930 . S
C1056 C1055 1.400 . S
C1056 C1059 1.386 . S
H1057 C1073 0.930 . S
H1058 C1074 0.931 . S
C1059 H1047 0.929 . S
C1059 C1053 1.390 . S
C1059 C1056 1.386 . S
C1060 C1055 1.490 . S
C1060 C1062 1.395 . S
C1060 C1063 1.403 . S
H1061 C1067 0.930 . S
C1062 H1048 0.930 . S
C1062 C1060 1.395 . S
C1062 C1065 1.403 . S
C1063 C1060 1.403 . S
C1063 C1064 1.524 . S
C1063 C1067 1.400 . S
C1064 H1049 0.960 . S
C1064 H1050 0.960 . S
C1064 H1051 0.960 . S
C1064 C1063 1.524 . S
C1065 C1062 1.403 . S
C1065 C1066 1.392 . S
C1065 C1069 1.495 . S
C1066 C1065 1.392 . S
C1066 C1067 1.385 . S
C1066 C1068 1.478 . S
C1067 H1061 0.930 . S
C1067 C1063 1.400 . S
C1067 C1066 1.385 . S
C1068 C1066 1.478 . S
C1068 C1070 1.381 . S
C1068 C1074 1.383 . S
C1069 C1065 1.495 . S
C1069 H1075 0.959 . S
C1069 H1076 0.961 . S
C1069 H1077 0.960 . S
C1070 C1068 1.381 . S
C1070 C1071 1.394 . S
C1070 H1078 0.930 . S
C1071 C1070 1.394 . S
C1071 C1072 1.383 . S
C1071 H1079 0.929 . S
C1072 C1071 1.383 . S
C1072 C1073 1.377 . S
C1073 H1057 0.930 . S
C1073 C1072 1.377 . S
C1073 C1074 1.379 . S
C1074 H1058 0.931 . S
C1074 C1068 1.383 . S
C1074 C1073 1.379 . S
H1075 C1069 0.959 . S
H1076 C1069 0.961 . S
H1077 C1069 0.960 . S
H1078 C1070 0.930 . S
H1079 C1071 0.929 . S
H1080 C1088 0.929 . S
H1081 C1090 0.930 . S
H1082 C1092 0.930 . S
H1083 C1095 0.929 . S
H1084 C1098 0.930 . S
H1085 C1100 0.960 . S
H1086 C1100 0.960 . S
H1087 C1100 0.960 . S
C1088 H1080 0.929 . S
C1088 C1089 1.377 . S
C1088 C1090 1.384 . S
C1089 C1088 1.377 . S
C1089 C1095 1.390 . S
C1090 H1081 0.930 . S
C1090 C1088 1.384 . S
C1090 C1091 1.372 . S
C1091 C1090 1.372 . S
C1091 C1092 1.400 . S
C1091 C1096 1.490 . S
C1092 H1082 0.930 . S
C1092 C1091 1.400 . S
C1092 C1095 1.386 . S
H1093 C1109 0.930 . S
H1094 C1110 0.931 . S
C1095 H1083 0.929 . S
C1095 C1089 1.390 . S
C1095 C1092 1.386 . S
C1096 C1091 1.490 . S
C1096 C1098 1.395 . S
C1096 C1099 1.403 . S
H1097 C1103 0.930 . S
C1098 H1084 0.930 . S
C1098 C1096 1.395 . S
C1098 C1101 1.403 . S
C1099 C1096 1.403 . S
C1099 C1100 1.524 . S
C1099 C1103 1.400 . S
C1100 H1085 0.960 . S
C1100 H1086 0.960 . S
C1100 H1087 0.960 . S
C1100 C1099 1.524 . S
C1101 C1098 1.403 . S
C1101 C1102 1.392 . S
C1101 C1105 1.495 . S
C1102 C1101 1.392 . S
C1102 C1103 1.385 . S
C1102 C1104 1.478 . S
C1103 H1097 0.930 . S
C1103 C1099 1.400 . S
C1103 C1102 1.385 . S
C1104 C1102 1.478 . S
C1104 C1106 1.381 . S
C1104 C1110 1.383 . S
C1105 C1101 1.495 . S
C1105 H1111 0.959 . S
C1105 H1112 0.961 . S
C1105 H1113 0.960 . S
C1106 C1104 1.381 . S
C1106 C1107 1.394 . S
C1106 H1114 0.930 . S
C1107 C1106 1.394 . S
C1107 C1108 1.383 . S
C1107 H1115 0.929 . S
C1108 C1107 1.383 . S
C1108 C1109 1.377 . S
C1109 H1093 0.930 . S
C1109 C1108 1.377 . S
C1109 C1110 1.379 . S
C1110 H1094 0.931 . S
C1110 C1104 1.383 . S
C1110 C1109 1.379 . S
H1111 C1105 0.959 . S
H1112 C1105 0.961 . S
H1113 C1105 0.960 . S
H1114 C1106 0.930 . S
H1115 C1107 0.929 . S
H1116 C1124 0.929 . S
H1117 C1126 0.930 . S
H1118 C1128 0.930 . S
H1119 C1131 0.929 . S
H1120 C1134 0.930 . S
H1121 C1136 0.960 . S
H1122 C1136 0.960 . S
H1123 C1136 0.960 . S
C1124 H1116 0.929 . S
C1124 C1125 1.377 . S
C1124 C1126 1.384 . S
C1125 C1124 1.377 . S
C1125 C1131 1.390 . S
C1126 H1117 0.930 . S
C1126 C1124 1.384 . S
C1126 C1127 1.372 . S
C1127 C1126 1.372 . S
C1127 C1128 1.400 . S
C1127 C1132 1.490 . S
C1128 H1118 0.930 . S
C1128 C1127 1.400 . S
C1128 C1131 1.386 . S
H1129 C1145 0.930 . S
H1130 C1146 0.931 . S
C1131 H1119 0.929 . S
C1131 C1125 1.390 . S
C1131 C1128 1.386 . S
C1132 C1127 1.490 . S
C1132 C1134 1.395 . S
C1132 C1135 1.403 . S
H1133 C1139 0.930 . S
C1134 H1120 0.930 . S
C1134 C1132 1.395 . S
C1134 C1137 1.403 . S
C1135 C1132 1.403 . S
C1135 C1136 1.524 . S
C1135 C1139 1.400 . S
C1136 H1121 0.960 . S
C1136 H1122 0.960 . S
C1136 H1123 0.960 . S
C1136 C1135 1.524 . S
C1137 C1134 1.403 . S
C1137 C1138 1.392 . S
C1137 C1141 1.495 . S
C1138 C1137 1.392 . S
C1138 C1139 1.385 . S
C1138 C1140 1.478 . S
C1139 H1133 0.930 . S
C1139 C1135 1.400 . S
C1139 C1138 1.385 . S
C1140 C1138 1.478 . S
C1140 C1142 1.381 . S
C1140 C1146 1.383 . S
C1141 C1137 1.495 . S
C1141 H1147 0.959 . S
C1141 H1148 0.961 . S
C1141 H1149 0.960 . S
C1142 C1140 1.381 . S
C1142 C1143 1.394 . S
C1142 H1150 0.930 . S
C1143 C1142 1.394 . S
C1143 C1144 1.383 . S
C1143 H1151 0.929 . S
C1144 C1143 1.383 . S
C1144 C1145 1.377 . S
C1145 H1129 0.930 . S
C1145 C1144 1.377 . S
C1145 C1146 1.379 . S
C1146 H1130 0.931 . S
C1146 C1140 1.383 . S
C1146 C1145 1.379 . S
H1147 C1141 0.959 . S
H1148 C1141 0.961 . S
H1149 C1141 0.960 . S
H1150 C1142 0.930 . S
H1151 C1143 0.929 . S
H1152 C1160 0.929 . S
H1153 C1162 0.930 . S
H1154 C1164 0.930 . S
H1155 C1167 0.929 . S
H1156 C1170 0.930 . S
H1157 C1172 0.960 . S
H1158 C1172 0.960 . S
H1159 C1172 0.960 . S
C1160 H1152 0.929 . S
C1160 C1161 1.377 . S
C1160 C1162 1.384 . S
C1161 C1160 1.377 . S
C1161 C1167 1.390 . S
C1162 H1153 0.930 . S
C1162 C1160 1.384 . S
C1162 C1163 1.372 . S
C1163 C1162 1.372 . S
C1163 C1164 1.400 . S
C1163 C1168 1.490 . S
C1164 H1154 0.930 . S
C1164 C1163 1.400 . S
C1164 C1167 1.386 . S
H1165 C1181 0.930 . S
H1166 C1182 0.931 . S
C1167 H1155 0.929 . S
C1167 C1161 1.390 . S
C1167 C1164 1.386 . S
C1168 C1163 1.490 . S
C1168 C1170 1.395 . S
C1168 C1171 1.403 . S
H1169 C1175 0.930 . S
C1170 H1156 0.930 . S
C1170 C1168 1.395 . S
C1170 C1173 1.403 . S
C1171 C1168 1.403 . S
C1171 C1172 1.524 . S
C1171 C1175 1.400 . S
C1172 H1157 0.960 . S
C1172 H1158 0.960 . S
C1172 H1159 0.960 . S
C1172 C1171 1.524 . S
C1173 C1170 1.403 . S
C1173 C1174 1.392 . S
C1173 C1177 1.495 . S
C1174 C1173 1.392 . S
C1174 C1175 1.385 . S
C1174 C1176 1.478 . S
C1175 H1169 0.930 . S
C1175 C1171 1.400 . S
C1175 C1174 1.385 . S
C1176 C1174 1.478 . S
C1176 C1178 1.381 . S
C1176 C1182 1.383 . S
C1177 C1173 1.495 . S
C1177 H1183 0.959 . S
C1177 H1184 0.961 . S
C1177 H1185 0.960 . S
C1178 C1176 1.381 . S
C1178 C1179 1.394 . S
C1178 H1186 0.930 . S
C1179 C1178 1.394 . S
C1179 C1180 1.383 . S
C1179 H1187 0.929 . S
C1180 C1179 1.383 . S
C1180 C1181 1.377 . S
C1181 H1165 0.930 . S
C1181 C1180 1.377 . S
C1181 C1182 1.379 . S
C1182 H1166 0.931 . S
C1182 C1176 1.383 . S
C1182 C1181 1.379 . S
H1183 C1177 0.959 . S
H1184 C1177 0.961 . S
H1185 C1177 0.960 . S
H1186 C1178 0.930 . S
H1187 C1179 0.929 . S
H1188 C1196 0.929 . S
H1189 C1198 0.930 . S
H1190 C1200 0.930 . S
H1191 C1203 0.929 . S
H1192 C1206 0.930 . S
H1193 C1208 0.960 . S
H1194 C1208 0.960 . S
H1195 C1208 0.960 . S
C1196 H1188 0.929 . S
C1196 C1197 1.377 . S
C1196 C1198 1.384 . S
C1197 C1196 1.377 . S
C1197 C1203 1.390 . S
C1198 H1189 0.930 . S
C1198 C1196 1.384 . S
C1198 C1199 1.372 . S
C1199 C1198 1.372 . S
C1199 C1200 1.400 . S
C1199 C1204 1.490 . S
C1200 H1190 0.930 . S
C1200 C1199 1.400 . S
C1200 C1203 1.386 . S
H1201 C1217 0.930 . S
H1202 C1218 0.931 . S
C1203 H1191 0.929 . S
C1203 C1197 1.390 . S
C1203 C1200 1.386 . S
C1204 C1199 1.490 . S
C1204 C1206 1.395 . S
C1204 C1207 1.403 . S
H1205 C1211 0.930 . S
C1206 H1192 0.930 . S
C1206 C1204 1.395 . S
C1206 C1209 1.403 . S
C1207 C1204 1.403 . S
C1207 C1208 1.524 . S
C1207 C1211 1.400 . S
C1208 H1193 0.960 . S
C1208 H1194 0.960 . S
C1208 H1195 0.960 . S
C1208 C1207 1.524 . S
C1209 C1206 1.403 . S
C1209 C1210 1.392 . S
C1209 C1213 1.495 . S
C1210 C1209 1.392 . S
C1210 C1211 1.385 . S
C1210 C1212 1.478 . S
C1211 H1205 0.930 . S
C1211 C1207 1.400 . S
C1211 C1210 1.385 . S
C1212 C1210 1.478 . S
C1212 C1214 1.381 . S
C1212 C1218 1.383 . S
C1213 C1209 1.495 . S
C1213 H1219 0.959 . S
C1213 H1220 0.961 . S
C1213 H1221 0.960 . S
C1214 C1212 1.381 . S
C1214 C1215 1.394 . S
C1214 H1222 0.930 . S
C1215 C1214 1.394 . S
C1215 C1216 1.383 . S
C1215 H1223 0.929 . S
C1216 C1215 1.383 . S
C1216 C1217 1.377 . S
C1217 H1201 0.930 . S
C1217 C1216 1.377 . S
C1217 C1218 1.379 . S
C1218 H1202 0.931 . S
C1218 C1212 1.383 . S
C1218 C1217 1.379 . S
H1219 C1213 0.959 . S
H1220 C1213 0.961 . S
H1221 C1213 0.960 . S
H1222 C1214 0.930 . S
H1223 C1215 0.929 . S
H1224 C1232 0.929 . S
H1225 C1234 0.930 . S
H1226 C1236 0.930 . S
H1227 C1239 0.929 . S
H1228 C1242 0.930 . S
H1229 C1244 0.960 . S
H1230 C1244 0.960 . S
H1231 C1244 0.960 . S
C1232 H1224 0.929 . S
C1232 C1233 1.377 . S
C1232 C1234 1.384 . S
C1233 C1232 1.377 . S
C1233 C1239 1.390 . S
C1234 H1225 0.930 . S
C1234 C1232 1.384 . S
C1234 C1235 1.372 . S
C1235 C1234 1.372 . S
C1235 C1236 1.400 . S
C1235 C1240 1.490 . S
C1236 H1226 0.930 . S
C1236 C1235 1.400 . S
C1236 C1239 1.386 . S
H1237 C1253 0.930 . S
H1238 C1254 0.931 . S
C1239 H1227 0.929 . S
C1239 C1233 1.390 . S
C1239 C1236 1.386 . S
C1240 C1235 1.490 . S
C1240 C1242 1.395 . S
C1240 C1243 1.403 . S
H1241 C1247 0.930 . S
C1242 H1228 0.930 . S
C1242 C1240 1.395 . S
C1242 C1245 1.403 . S
C1243 C1240 1.403 . S
C1243 C1244 1.524 . S
C1243 C1247 1.400 . S
C1244 H1229 0.960 . S
C1244 H1230 0.960 . S
C1244 H1231 0.960 . S
C1244 C1243 1.524 . S
C1245 C1242 1.403 . S
C1245 C1246 1.392 . S
C1245 C1249 1.495 . S
C1246 C1245 1.392 . S
C1246 C1247 1.385 . S
C1246 C1248 1.478 . S
C1247 H1241 0.930 . S
C1247 C1243 1.400 . S
C1247 C1246 1.385 . S
C1248 C1246 1.478 . S
C1248 C1250 1.381 . S
C1248 C1254 1.383 . S
C1249 C1245 1.495 . S
C1249 H1255 0.959 . S
C1249 H1256 0.961 . S
C1249 H1257 0.960 . S
C1250 C1248 1.381 . S
C1250 C1251 1.394 . S
C1250 H1258 0.930 . S
C1251 C1250 1.394 . S
C1251 C1252 1.383 . S
C1251 H1259 0.929 . S
C1252 C1251 1.383 . S
C1252 C1253 1.377 . S
C1253 H1237 0.930 . S
C1253 C1252 1.377 . S
C1253 C1254 1.379 . S
C1254 H1238 0.931 . S
C1254 C1248 1.383 . S
C1254 C1253 1.379 . S
H1255 C1249 0.959 . S
H1256 C1249 0.961 . S
H1257 C1249 0.960 . S
H1258 C1250 0.930 . S
H1259 C1251 0.929 . S
H1260 C1268 0.929 . S
H1261 C1270 0.930 . S
H1262 C1272 0.930 . S
H1263 C1275 0.929 . S
H1264 C1278 0.930 . S
H1265 C1280 0.960 . S
H1266 C1280 0.960 . S
H1267 C1280 0.960 . S
C1268 H1260 0.929 . S
C1268 C1269 1.377 . S
C1268 C1270 1.384 . S
C1269 C1268 1.377 . S
C1269 C1275 1.390 . S
C1270 H1261 0.930 . S
C1270 C1268 1.384 . S
C1270 C1271 1.372 . S
C1271 C1270 1.372 . S
C1271 C1272 1.400 . S
C1271 C1276 1.490 . S
C1272 H1262 0.930 . S
C1272 C1271 1.400 . S
C1272 C1275 1.386 . S
H1273 C1289 0.930 . S
H1274 C1290 0.931 . S
C1275 H1263 0.929 . S
C1275 C1269 1.390 . S
C1275 C1272 1.386 . S
C1276 C1271 1.490 . S
C1276 C1278 1.395 . S
C1276 C1279 1.403 . S
H1277 C1283 0.930 . S
C1278 H1264 0.930 . S
C1278 C1276 1.395 . S
C1278 C1281 1.403 . S
C1279 C1276 1.403 . S
C1279 C1280 1.524 . S
C1279 C1283 1.400 . S
C1280 H1265 0.960 . S
C1280 H1266 0.960 . S
C1280 H1267 0.960 . S
C1280 C1279 1.524 . S
C1281 C1278 1.403 . S
C1281 C1282 1.392 . S
C1281 C1285 1.495 . S
C1282 C1281 1.392 . S
C1282 C1283 1.385 . S
C1282 C1284 1.478 . S
C1283 H1277 0.930 . S
C1283 C1279 1.400 . S
C1283 C1282 1.385 . S
C1284 C1282 1.478 . S
C1284 C1286 1.381 . S
C1284 C1290 1.383 . S
C1285 C1281 1.495 . S
C1285 H1291 0.959 1_556 S
C1285 H1292 0.961 . S
C1285 H1293 0.960 . S
C1286 C1284 1.381 . S
C1286 C1287 1.394 . S
C1286 H1294 0.930 . S
C1287 C1286 1.394 . S
C1287 C1288 1.383 . S
C1287 H1295 0.929 . S
C1288 C1287 1.383 . S
C1288 C1289 1.377 . S
C1289 H1273 0.930 . S
C1289 C1288 1.377 . S
C1289 C1290 1.379 . S
C1290 H1274 0.931 . S
C1290 C1284 1.383 . S
C1290 C1289 1.379 . S
H1291 C1285 0.959 1_554 S
H1292 C1285 0.961 . S
H1293 C1285 0.960 . S
H1294 C1286 0.930 . S
H1295 C1287 0.929 . S
H1296 C1304 0.929 . S
H1297 C1306 0.930 . S
H1298 C1308 0.930 . S
H1299 C1311 0.929 . S
H1300 C1314 0.930 . S
H1301 C1316 0.960 . S
H1302 C1316 0.960 . S
H1303 C1316 0.960 . S
C1304 H1296 0.929 . S
C1304 C1305 1.377 . S
C1304 C1306 1.384 . S
C1305 C1304 1.377 . S
C1305 C1311 1.390 . S
C1306 H1297 0.930 . S
C1306 C1304 1.384 . S
C1306 C1307 1.372 . S
C1307 C1306 1.372 . S
C1307 C1308 1.400 . S
C1307 C1312 1.490 . S
C1308 H1298 0.930 . S
C1308 C1307 1.400 . S
C1308 C1311 1.386 . S
H1309 C1325 0.930 . S
H1310 C1326 0.931 . S
C1311 H1299 0.929 . S
C1311 C1305 1.390 . S
C1311 C1308 1.386 . S
C1312 C1307 1.490 . S
C1312 C1314 1.395 . S
C1312 C1315 1.403 . S
H1313 C1319 0.930 . S
C1314 H1300 0.930 . S
C1314 C1312 1.395 . S
C1314 C1317 1.403 . S
C1315 C1312 1.403 . S
C1315 C1316 1.524 . S
C1315 C1319 1.400 . S
C1316 H1301 0.960 . S
C1316 H1302 0.960 . S
C1316 H1303 0.960 . S
C1316 C1315 1.524 . S
C1317 C1314 1.403 . S
C1317 C1318 1.392 . S
C1317 C1321 1.495 . S
C1318 C1317 1.392 . S
C1318 C1319 1.385 . S
C1318 C1320 1.478 . S
C1319 H1313 0.930 . S
C1319 C1315 1.400 . S
C1319 C1318 1.385 . S
C1320 C1318 1.478 . S
C1320 C1322 1.381 . S
C1320 C1326 1.383 . S
C1321 C1317 1.495 . S
C1321 H1327 0.959 . S
C1321 H1328 0.961 . S
C1321 H1329 0.960 . S
C1322 C1320 1.381 . S
C1322 C1323 1.394 . S
C1322 H1330 0.930 . S
C1323 C1322 1.394 . S
C1323 C1324 1.383 . S
C1323 H1331 0.929 . S
C1324 C1323 1.383 . S
C1324 C1325 1.377 . S
C1325 H1309 0.930 . S
C1325 C1324 1.377 . S
C1325 C1326 1.379 . S
C1326 H1310 0.931 . S
C1326 C1320 1.383 . S
C1326 C1325 1.379 . S
H1327 C1321 0.959 . S
H1328 C1321 0.961 . S
H1329 C1321 0.960 . S
H1330 C1322 0.930 . S
H1331 C1323 0.929 . S
H1332 C1340 0.929 . S
H1333 C1342 0.930 . S
H1334 C1344 0.930 . S
H1335 C1347 0.929 . S
H1336 C1350 0.930 . S
H1337 C1352 0.960 . S
H1338 C1352 0.960 . S
H1339 C1352 0.960 . S
C1340 H1332 0.929 . S
C1340 C1341 1.377 . S
C1340 C1342 1.384 . S
C1341 C1340 1.377 . S
C1341 C1347 1.390 . S
C1342 H1333 0.930 . S
C1342 C1340 1.384 . S
C1342 C1343 1.372 . S
C1343 C1342 1.372 . S
C1343 C1344 1.400 . S
C1343 C1348 1.490 . S
C1344 H1334 0.930 . S
C1344 C1343 1.400 . S
C1344 C1347 1.386 . S
H1345 C1361 0.930 . S
H1346 C1362 0.931 . S
C1347 H1335 0.929 . S
C1347 C1341 1.390 . S
C1347 C1344 1.386 . S
C1348 C1343 1.490 . S
C1348 C1350 1.395 . S
C1348 C1351 1.403 . S
H1349 C1355 0.930 . S
C1350 H1336 0.930 . S
C1350 C1348 1.395 . S
C1350 C1353 1.403 . S
C1351 C1348 1.403 . S
C1351 C1352 1.524 . S
C1351 C1355 1.400 . S
C1352 H1337 0.960 . S
C1352 H1338 0.960 . S
C1352 H1339 0.960 . S
C1352 C1351 1.524 . S
C1353 C1350 1.403 . S
C1353 C1354 1.392 . S
C1353 C1357 1.495 . S
C1354 C1353 1.392 . S
C1354 C1355 1.385 . S
C1354 C1356 1.478 . S
C1355 H1349 0.930 . S
C1355 C1351 1.400 . S
C1355 C1354 1.385 . S
C1356 C1354 1.478 . S
C1356 C1358 1.381 . S
C1356 C1362 1.383 . S
C1357 C1353 1.495 . S
C1357 H1363 0.959 1_556 S
C1357 H1364 0.961 . S
C1357 H1365 0.960 . S
C1358 C1356 1.381 . S
C1358 C1359 1.394 . S
C1358 H1366 0.930 . S
C1359 C1358 1.394 . S
C1359 C1360 1.383 . S
C1359 H1367 0.929 . S
C1360 C1359 1.383 . S
C1360 C1361 1.377 . S
C1361 H1345 0.930 . S
C1361 C1360 1.377 . S
C1361 C1362 1.379 . S
C1362 H1346 0.931 . S
C1362 C1356 1.383 . S
C1362 C1361 1.379 . S
H1363 C1357 0.959 1_554 S
H1364 C1357 0.961 . S
H1365 C1357 0.960 . S
H1366 C1358 0.930 . S
H1367 C1359 0.929 . S
H1368 C1376 0.929 . S
H1369 C1378 0.930 . S
H1370 C1380 0.930 . S
H1371 C1383 0.929 . S
H1372 C1386 0.930 . S
H1373 C1388 0.960 . S
H1374 C1388 0.960 . S
H1375 C1388 0.960 . S
C1376 H1368 0.929 . S
C1376 C1377 1.377 . S
C1376 C1378 1.384 . S
C1377 C1376 1.377 . S
C1377 C1383 1.390 . S
C1378 H1369 0.930 . S
C1378 C1376 1.384 . S
C1378 C1379 1.372 . S
C1379 C1378 1.372 . S
C1379 C1380 1.400 . S
C1379 C1384 1.490 . S
C1380 H1370 0.930 . S
C1380 C1379 1.400 . S
C1380 C1383 1.386 . S
H1381 C1397 0.930 . S
H1382 C1398 0.931 . S
C1383 H1371 0.929 . S
C1383 C1377 1.390 . S
C1383 C1380 1.386 . S
C1384 C1379 1.490 . S
C1384 C1386 1.395 . S
C1384 C1387 1.403 . S
H1385 C1391 0.930 . S
C1386 H1372 0.930 . S
C1386 C1384 1.395 . S
C1386 C1389 1.403 . S
C1387 C1384 1.403 . S
C1387 C1388 1.524 . S
C1387 C1391 1.400 . S
C1388 H1373 0.960 . S
C1388 H1374 0.960 . S
C1388 H1375 0.960 . S
C1388 C1387 1.524 . S
C1389 C1386 1.403 . S
C1389 C1390 1.392 . S
C1389 C1393 1.495 . S
C1390 C1389 1.392 . S
C1390 C1391 1.385 . S
C1390 C1392 1.478 . S
C1391 H1385 0.930 . S
C1391 C1387 1.400 . S
C1391 C1390 1.385 . S
C1392 C1390 1.478 . S
C1392 C1394 1.381 . S
C1392 C1398 1.383 . S
C1393 C1389 1.495 . S
C1393 H1399 0.959 . S
C1393 H1400 0.961 . S
C1393 H1401 0.960 . S
C1394 C1392 1.381 . S
C1394 C1395 1.394 . S
C1394 H1402 0.930 . S
C1395 C1394 1.394 . S
C1395 C1396 1.383 . S
C1395 H1403 0.929 . S
C1396 C1395 1.383 . S
C1396 C1397 1.377 . S
C1397 H1381 0.930 . S
C1397 C1396 1.377 . S
C1397 C1398 1.379 . S
C1398 H1382 0.931 . S
C1398 C1392 1.383 . S
C1398 C1397 1.379 . S
H1399 C1393 0.959 . S
H1400 C1393 0.961 . S
H1401 C1393 0.960 . S
H1402 C1394 0.930 . S
H1403 C1395 0.929 . S
H1404 C1412 0.929 . S
H1405 C1414 0.930 . S
H1406 C1416 0.930 . S
H1407 C1419 0.929 . S
H1408 C1422 0.930 . S
H1409 C1424 0.960 . S
H1410 C1424 0.960 . S
H1411 C1424 0.960 . S
C1412 H1404 0.929 . S
C1412 C1413 1.377 . S
C1412 C1414 1.384 . S
C1413 C1412 1.377 . S
C1413 C1419 1.390 . S
C1414 H1405 0.930 . S
C1414 C1412 1.384 . S
C1414 C1415 1.372 . S
C1415 C1414 1.372 . S
C1415 C1416 1.400 . S
C1415 C1420 1.490 . S
C1416 H1406 0.930 . S
C1416 C1415 1.400 . S
C1416 C1419 1.386 . S
H1417 C1433 0.930 . S
H1418 C1434 0.931 . S
C1419 H1407 0.929 . S
C1419 C1413 1.390 . S
C1419 C1416 1.386 . S
C1420 C1415 1.490 . S
C1420 C1422 1.395 . S
C1420 C1423 1.403 . S
H1421 C1427 0.930 . S
C1422 H1408 0.930 . S
C1422 C1420 1.395 . S
C1422 C1425 1.403 . S
C1423 C1420 1.403 . S
C1423 C1424 1.524 . S
C1423 C1427 1.400 . S
C1424 H1409 0.960 . S
C1424 H1410 0.960 . S
C1424 H1411 0.960 . S
C1424 C1423 1.524 . S
C1425 C1422 1.403 . S
C1425 C1426 1.392 . S
C1425 C1429 1.495 . S
C1426 C1425 1.392 . S
C1426 C1427 1.385 . S
C1426 C1428 1.478 . S
C1427 H1421 0.930 . S
C1427 C1423 1.400 . S
C1427 C1426 1.385 . S
C1428 C1426 1.478 . S
C1428 C1430 1.381 . S
C1428 C1434 1.383 . S
C1429 C1425 1.495 . S
C1429 H1435 0.959 . S
C1429 H1436 0.961 . S
C1429 H1437 0.960 . S
C1430 C1428 1.381 . S
C1430 C1431 1.394 . S
C1430 H1438 0.930 . S
C1431 C1430 1.394 . S
C1431 C1432 1.383 . S
C1431 H1439 0.929 . S
C1432 C1431 1.383 . S
C1432 C1433 1.377 . S
C1433 H1417 0.930 . S
C1433 C1432 1.377 . S
C1433 C1434 1.379 . S
C1434 H1418 0.931 . S
C1434 C1428 1.383 . S
C1434 C1433 1.379 . S
H1435 C1429 0.959 . S
H1436 C1429 0.961 . S
H1437 C1429 0.960 . S
H1438 C1430 0.930 . S
H1439 C1431 0.929 . S
H1440 C1448 0.929 . S
H1441 C1450 0.930 . S
H1442 C1452 0.930 . S
H1443 C1455 0.929 . S
H1444 C1458 0.930 . S
H1445 C1460 0.960 . S
H1446 C1460 0.960 . S
H1447 C1460 0.960 . S
C1448 H1440 0.929 . S
C1448 C1449 1.377 . S
C1448 C1450 1.384 . S
C1449 C1448 1.377 . S
C1449 C1455 1.390 . S
C1450 H1441 0.930 . S
C1450 C1448 1.384 . S
C1450 C1451 1.372 . S
C1451 C1450 1.372 . S
C1451 C1452 1.400 . S
C1451 C1456 1.490 . S
C1452 H1442 0.930 . S
C1452 C1451 1.400 . S
C1452 C1455 1.386 . S
H1453 C1469 0.930 . S
H1454 C1470 0.931 . S
C1455 H1443 0.929 . S
C1455 C1449 1.390 . S
C1455 C1452 1.386 . S
C1456 C1451 1.490 . S
C1456 C1458 1.395 . S
C1456 C1459 1.403 . S
H1457 C1463 0.930 . S
C1458 H1444 0.930 . S
C1458 C1456 1.395 . S
C1458 C1461 1.403 . S
C1459 C1456 1.403 . S
C1459 C1460 1.524 . S
C1459 C1463 1.400 . S
C1460 H1445 0.960 . S
C1460 H1446 0.960 . S
C1460 H1447 0.960 . S
C1460 C1459 1.524 . S
C1461 C1458 1.403 . S
C1461 C1462 1.392 . S
C1461 C1465 1.495 . S
C1462 C1461 1.392 . S
C1462 C1463 1.385 . S
C1462 C1464 1.478 . S
C1463 H1457 0.930 . S
C1463 C1459 1.400 . S
C1463 C1462 1.385 . S
C1464 C1462 1.478 . S
C1464 C1466 1.381 . S
C1464 C1470 1.383 . S
C1465 C1461 1.495 . S
C1465 H1471 0.959 . S
C1465 H1472 0.961 . S
C1465 H1473 0.960 . S
C1466 C1464 1.381 . S
C1466 C1467 1.394 . S
C1466 H1474 0.930 . S
C1467 C1466 1.394 . S
C1467 C1468 1.383 . S
C1467 H1475 0.929 . S
C1468 C1467 1.383 . S
C1468 C1469 1.377 . S
C1469 H1453 0.930 . S
C1469 C1468 1.377 . S
C1469 C1470 1.379 . S
C1470 H1454 0.931 . S
C1470 C1464 1.383 . S
C1470 C1469 1.379 . S
H1471 C1465 0.959 . S
H1472 C1465 0.961 . S
H1473 C1465 0.960 . S
H1474 C1466 0.930 . S
H1475 C1467 0.929 . S
H1476 C1484 0.929 . S
H1477 C1486 0.930 . S
H1478 C1488 0.930 . S
H1479 C1491 0.929 . S
H1480 C1494 0.930 . S
H1481 C1496 0.960 . S
H1482 C1496 0.960 . S
H1483 C1496 0.960 . S
C1484 H1476 0.929 . S
C1484 C1485 1.377 . S
C1484 C1486 1.384 . S
C1485 C1484 1.377 . S
C1485 C1491 1.390 . S
C1486 H1477 0.930 . S
C1486 C1484 1.384 . S
C1486 C1487 1.372 . S
C1487 C1486 1.372 . S
C1487 C1488 1.400 . S
C1487 C1492 1.490 . S
C1488 H1478 0.930 . S
C1488 C1487 1.400 . S
C1488 C1491 1.386 . S
H1489 C1505 0.930 . S
H1490 C1506 0.931 . S
C1491 H1479 0.929 . S
C1491 C1485 1.390 . S
C1491 C1488 1.386 . S
C1492 C1487 1.490 . S
C1492 C1494 1.395 . S
C1492 C1495 1.403 . S
H1493 C1499 0.930 . S
C1494 H1480 0.930 . S
C1494 C1492 1.395 . S
C1494 C1497 1.403 . S
C1495 C1492 1.403 . S
C1495 C1496 1.524 . S
C1495 C1499 1.400 . S
C1496 H1481 0.960 . S
C1496 H1482 0.960 . S
C1496 H1483 0.960 . S
C1496 C1495 1.524 . S
C1497 C1494 1.403 . S
C1497 C1498 1.392 . S
C1497 C1501 1.495 . S
C1498 C1497 1.392 . S
C1498 C1499 1.385 . S
C1498 C1500 1.478 . S
C1499 H1493 0.930 . S
C1499 C1495 1.400 . S
C1499 C1498 1.385 . S
C1500 C1498 1.478 . S
C1500 C1502 1.381 . S
C1500 C1506 1.383 . S
C1501 C1497 1.495 . S
C1501 H1507 0.959 . S
C1501 H1508 0.961 . S
C1501 H1509 0.960 . S
C1502 C1500 1.381 . S
C1502 C1503 1.394 . S
C1502 H1510 0.930 . S
C1503 C1502 1.394 . S
C1503 C1504 1.383 . S
C1503 H1511 0.929 . S
C1504 C1503 1.383 . S
C1504 C1505 1.377 . S
C1505 H1489 0.930 . S
C1505 C1504 1.377 . S
C1505 C1506 1.379 . S
C1506 H1490 0.931 . S
C1506 C1500 1.383 . S
C1506 C1505 1.379 . S
H1507 C1501 0.959 . S
H1508 C1501 0.961 . S
H1509 C1501 0.960 . S
H1510 C1502 0.930 . S
H1511 C1503 0.929 . S
H1512 C1520 0.929 . S
H1513 C1522 0.930 . S
H1514 C1524 0.930 . S
H1515 C1527 0.929 . S
H1516 C1530 0.930 . S
H1517 C1532 0.960 . S
H1518 C1532 0.960 . S
H1519 C1532 0.960 . S
C1520 H1512 0.929 . S
C1520 C1521 1.377 . S
C1520 C1522 1.384 . S
C1521 C1520 1.377 . S
C1521 C1527 1.390 . S
C1522 H1513 0.930 . S
C1522 C1520 1.384 . S
C1522 C1523 1.372 . S
C1523 C1522 1.372 . S
C1523 C1524 1.400 . S
C1523 C1528 1.490 . S
C1524 H1514 0.930 . S
C1524 C1523 1.400 . S
C1524 C1527 1.386 . S
H1525 C1541 0.930 . S
H1526 C1542 0.931 . S
C1527 H1515 0.929 . S
C1527 C1521 1.390 . S
C1527 C1524 1.386 . S
C1528 C1523 1.490 . S
C1528 C1530 1.395 . S
C1528 C1531 1.403 . S
H1529 C1535 0.930 . S
C1530 H1516 0.930 . S
C1530 C1528 1.395 . S
C1530 C1533 1.403 . S
C1531 C1528 1.403 . S
C1531 C1532 1.524 . S
C1531 C1535 1.400 . S
C1532 H1517 0.960 . S
C1532 H1518 0.960 . S
C1532 H1519 0.960 . S
C1532 C1531 1.524 . S
C1533 C1530 1.403 . S
C1533 C1534 1.392 . S
C1533 C1537 1.495 . S
C1534 C1533 1.392 . S
C1534 C1535 1.385 . S
C1534 C1536 1.478 . S
C1535 H1529 0.930 . S
C1535 C1531 1.400 . S
C1535 C1534 1.385 . S
C1536 C1534 1.478 . S
C1536 C1538 1.381 . S
C1536 C1542 1.383 . S
C1537 C1533 1.495 . S
C1537 H1543 0.959 . S
C1537 H1544 0.961 . S
C1537 H1545 0.960 . S
C1538 C1536 1.381 . S
C1538 C1539 1.394 . S
C1538 H1546 0.930 . S
C1539 C1538 1.394 . S
C1539 C1540 1.383 . S
C1539 H1547 0.929 . S
C1540 C1539 1.383 . S
C1540 C1541 1.377 . S
C1541 H1525 0.930 . S
C1541 C1540 1.377 . S
C1541 C1542 1.379 . S
C1542 H1526 0.931 . S
C1542 C1536 1.383 . S
C1542 C1541 1.379 . S
H1543 C1537 0.959 . S
H1544 C1537 0.961 . S
H1545 C1537 0.960 . S
H1546 C1538 0.930 . S
H1547 C1539 0.929 . S
H1548 C1556 0.929 . S
H1549 C1558 0.930 . S
H1550 C1560 0.930 . S
H1551 C1563 0.929 . S
H1552 C1566 0.930 . S
H1553 C1568 0.960 . S
H1554 C1568 0.960 . S
H1555 C1568 0.960 . S
C1556 H1548 0.929 . S
C1556 C1557 1.377 . S
C1556 C1558 1.384 . S
C1557 C1556 1.377 . S
C1557 C1563 1.390 . S
C1558 H1549 0.930 . S
C1558 C1556 1.384 . S
C1558 C1559 1.372 . S
C1559 C1558 1.372 . S
C1559 C1560 1.400 . S
C1559 C1564 1.490 . S
C1560 H1550 0.930 . S
C1560 C1559 1.400 . S
C1560 C1563 1.386 . S
H1561 C1577 0.930 . S
H1562 C1578 0.931 . S
C1563 H1551 0.929 . S
C1563 C1557 1.390 . S
C1563 C1560 1.386 . S
C1564 C1559 1.490 . S
C1564 C1566 1.395 . S
C1564 C1567 1.403 . S
H1565 C1571 0.930 . S
C1566 H1552 0.930 . S
C1566 C1564 1.395 . S
C1566 C1569 1.403 . S
C1567 C1564 1.403 . S
C1567 C1568 1.524 . S
C1567 C1571 1.400 . S
C1568 H1553 0.960 . S
C1568 H1554 0.960 . S
C1568 H1555 0.960 . S
C1568 C1567 1.524 . S
C1569 C1566 1.403 . S
C1569 C1570 1.392 . S
C1569 C1573 1.495 . S
C1570 C1569 1.392 . S
C1570 C1571 1.385 . S
C1570 C1572 1.478 . S
C1571 H1565 0.930 . S
C1571 C1567 1.400 . S
C1571 C1570 1.385 . S
C1572 C1570 1.478 . S
C1572 C1574 1.381 . S
C1572 C1578 1.383 . S
C1573 C1569 1.495 . S
C1573 H1579 0.959 . S
C1573 H1580 0.961 . S
C1573 H1581 0.960 . S
C1574 C1572 1.381 . S
C1574 C1575 1.394 . S
C1574 H1582 0.930 . S
C1575 C1574 1.394 . S
C1575 C1576 1.383 . S
C1575 H1583 0.929 . S
C1576 C1575 1.383 . S
C1576 C1577 1.377 . S
C1577 H1561 0.930 . S
C1577 C1576 1.377 . S
C1577 C1578 1.379 . S
C1578 H1562 0.931 . S
C1578 C1572 1.383 . S
C1578 C1577 1.379 . S
H1579 C1573 0.959 . S
H1580 C1573 0.961 . S
H1581 C1573 0.960 . S
H1582 C1574 0.930 . S
H1583 C1575 0.929 . S
H1584 C1592 0.929 . S
H1585 C1594 0.930 . S
H1586 C1596 0.930 . S
H1587 C1599 0.929 . S
H1588 C1602 0.930 . S
H1589 C1604 0.960 . S
H1590 C1604 0.960 . S
H1591 C1604 0.960 . S
C1592 H1584 0.929 . S
C1592 C1593 1.377 . S
C1592 C1594 1.384 . S
C1593 C1592 1.377 . S
C1593 C1599 1.390 . S
C1594 H1585 0.930 . S
C1594 C1592 1.384 . S
C1594 C1595 1.372 . S
C1595 C1594 1.372 . S
C1595 C1596 1.400 . S
C1595 C1600 1.490 . S
C1596 H1586 0.930 . S
C1596 C1595 1.400 . S
C1596 C1599 1.386 . S
H1597 C1613 0.930 . S
H1598 C1614 0.931 . S
C1599 H1587 0.929 . S
C1599 C1593 1.390 . S
C1599 C1596 1.386 . S
C1600 C1595 1.490 . S
C1600 C1602 1.395 . S
C1600 C1603 1.403 . S
H1601 C1607 0.930 . S
C1602 H1588 0.930 . S
C1602 C1600 1.395 . S
C1602 C1605 1.403 . S
C1603 C1600 1.403 . S
C1603 C1604 1.524 . S
C1603 C1607 1.400 . S
C1604 H1589 0.960 . S
C1604 H1590 0.960 . S
C1604 H1591 0.960 . S
C1604 C1603 1.524 . S
C1605 C1602 1.403 . S
C1605 C1606 1.392 . S
C1605 C1609 1.495 . S
C1606 C1605 1.392 . S
C1606 C1607 1.385 . S
C1606 C1608 1.478 . S
C1607 H1601 0.930 . S
C1607 C1603 1.400 . S
C1607 C1606 1.385 . S
C1608 C1606 1.478 . S
C1608 C1610 1.381 . S
C1608 C1614 1.383 . S
C1609 C1605 1.495 . S
C1609 H1615 0.959 . S
C1609 H1616 0.961 . S
C1609 H1617 0.960 . S
C1610 C1608 1.381 . S
C1610 C1611 1.394 . S
C1610 H1618 0.930 . S
C1611 C1610 1.394 . S
C1611 C1612 1.383 . S
C1611 H1619 0.929 . S
C1612 C1611 1.383 . S
C1612 C1613 1.377 . S
C1613 H1597 0.930 . S
C1613 C1612 1.377 . S
C1613 C1614 1.379 . S
C1614 H1598 0.931 . S
C1614 C1608 1.383 . S
C1614 C1613 1.379 . S
H1615 C1609 0.959 . S
H1616 C1609 0.961 . S
H1617 C1609 0.960 . S
H1618 C1610 0.930 . S
H1619 C1611 0.929 . S
H1620 C1628 0.929 . S
H1621 C1630 0.930 . S
H1622 C1632 0.930 . S
H1623 C1635 0.929 . S
H1624 C1638 0.930 . S
H1625 C1640 0.960 . S
H1626 C1640 0.960 . S
H1627 C1640 0.960 . S
C1628 H1620 0.929 . S
C1628 C1629 1.377 . S
C1628 C1630 1.384 . S
C1629 C1628 1.377 . S
C1629 C1635 1.390 . S
C1630 H1621 0.930 . S
C1630 C1628 1.384 . S
C1630 C1631 1.372 . S
C1631 C1630 1.372 . S
C1631 C1632 1.400 . S
C1631 C1636 1.490 . S
C1632 H1622 0.930 . S
C1632 C1631 1.400 . S
C1632 C1635 1.386 . S
H1633 C1649 0.930 . S
H1634 C1650 0.931 . S
C1635 H1623 0.929 . S
C1635 C1629 1.390 . S
C1635 C1632 1.386 . S
C1636 C1631 1.490 . S
C1636 C1638 1.395 . S
C1636 C1639 1.403 . S
H1637 C1643 0.930 . S
C1638 H1624 0.930 . S
C1638 C1636 1.395 . S
C1638 C1641 1.403 . S
C1639 C1636 1.403 . S
C1639 C1640 1.524 . S
C1639 C1643 1.400 . S
C1640 H1625 0.960 . S
C1640 H1626 0.960 . S
C1640 H1627 0.960 . S
C1640 C1639 1.524 . S
C1641 C1638 1.403 . S
C1641 C1642 1.392 . S
C1641 C1645 1.495 . S
C1642 C1641 1.392 . S
C1642 C1643 1.385 . S
C1642 C1644 1.478 . S
C1643 H1637 0.930 . S
C1643 C1639 1.400 . S
C1643 C1642 1.385 . S
C1644 C1642 1.478 . S
C1644 C1646 1.381 . S
C1644 C1650 1.383 . S
C1645 C1641 1.495 . S
C1645 H1651 0.959 . S
C1645 H1652 0.961 . S
C1645 H1653 0.960 . S
C1646 C1644 1.381 . S
C1646 C1647 1.394 . S
C1646 H1654 0.930 . S
C1647 C1646 1.394 . S
C1647 C1648 1.383 . S
C1647 H1655 0.929 . S
C1648 C1647 1.383 . S
C1648 C1649 1.377 . S
C1649 H1633 0.930 . S
C1649 C1648 1.377 . S
C1649 C1650 1.379 . S
C1650 H1634 0.931 . S
C1650 C1644 1.383 . S
C1650 C1649 1.379 . S
H1651 C1645 0.959 . S
H1652 C1645 0.961 . S
H1653 C1645 0.960 . S
H1654 C1646 0.930 . S
H1655 C1647 0.929 . S
H1656 C1664 0.929 . S
H1657 C1666 0.930 . S
H1658 C1668 0.930 . S
H1659 C1671 0.929 . S
H1660 C1674 0.930 . S
H1661 C1676 0.960 . S
H1662 C1676 0.960 . S
H1663 C1676 0.960 . S
C1664 H1656 0.929 . S
C1664 C1665 1.377 . S
C1664 C1666 1.384 . S
C1665 C1664 1.377 . S
C1665 C1671 1.390 . S
C1666 H1657 0.930 . S
C1666 C1664 1.384 . S
C1666 C1667 1.372 . S
C1667 C1666 1.372 . S
C1667 C1668 1.400 . S
C1667 C1672 1.490 . S
C1668 H1658 0.930 . S
C1668 C1667 1.400 . S
C1668 C1671 1.386 . S
H1669 C1685 0.930 . S
H1670 C1686 0.931 . S
C1671 H1659 0.929 . S
C1671 C1665 1.390 . S
C1671 C1668 1.386 . S
C1672 C1667 1.490 . S
C1672 C1674 1.395 . S
C1672 C1675 1.403 . S
H1673 C1679 0.930 . S
C1674 H1660 0.930 . S
C1674 C1672 1.395 . S
C1674 C1677 1.403 . S
C1675 C1672 1.403 . S
C1675 C1676 1.524 . S
C1675 C1679 1.400 . S
C1676 H1661 0.960 . S
C1676 H1662 0.960 . S
C1676 H1663 0.960 . S
C1676 C1675 1.524 . S
C1677 C1674 1.403 . S
C1677 C1678 1.392 . S
C1677 C1681 1.495 . S
C1678 C1677 1.392 . S
C1678 C1679 1.385 . S
C1678 C1680 1.478 . S
C1679 H1673 0.930 . S
C1679 C1675 1.400 . S
C1679 C1678 1.385 . S
C1680 C1678 1.478 . S
C1680 C1682 1.381 . S
C1680 C1686 1.383 . S
C1681 C1677 1.495 . S
C1681 H1687 0.959 . S
C1681 H1688 0.961 . S
C1681 H1689 0.960 . S
C1682 C1680 1.381 . S
C1682 C1683 1.394 . S
C1682 H1690 0.930 . S
C1683 C1682 1.394 . S
C1683 C1684 1.383 . S
C1683 H1691 0.929 . S
C1684 C1683 1.383 . S
C1684 C1685 1.377 . S
C1685 H1669 0.930 . S
C1685 C1684 1.377 . S
C1685 C1686 1.379 . S
C1686 H1670 0.931 . S
C1686 C1680 1.383 . S
C1686 C1685 1.379 . S
H1687 C1681 0.959 . S
H1688 C1681 0.961 . S
H1689 C1681 0.960 . S
H1690 C1682 0.930 . S
H1691 C1683 0.929 . S
H1692 C1700 0.929 . S
H1693 C1702 0.930 . S
H1694 C1704 0.930 1_655 S
H1695 C1707 0.929 1_655 S
H1696 C1710 0.930 . S
H1697 C1712 0.960 . S
H1698 C1712 0.960 . S
H1699 C1712 0.960 1_655 S
C1700 H1692 0.929 . S
C1700 C1701 1.377 . S
C1700 C1702 1.384 . S
C1701 C1700 1.377 . S
C1701 C1707 1.390 . S
C1702 H1693 0.930 . S
C1702 C1700 1.384 . S
C1702 C1703 1.372 . S
C1703 C1702 1.372 . S
C1703 C1704 1.400 . S
C1703 C1708 1.490 . S
C1704 H1694 0.930 1_455 S
C1704 C1703 1.400 . S
C1704 C1707 1.386 . S
H1705 C1721 0.899 1_655 S
H1706 C1722 0.931 1_655 S
C1707 H1695 0.929 1_455 S
C1707 C1701 1.390 . S
C1707 C1704 1.386 . S
C1708 C1703 1.490 . S
C1708 C1710 1.395 . S
C1708 C1711 1.403 . S
H1709 C1715 0.930 . S
C1710 H1696 0.930 . S
C1710 C1708 1.395 . S
C1710 C1713 1.403 1_554 S
C1711 C1708 1.403 . S
C1711 C1712 1.524 . S
C1711 C1715 1.400 1_554 S
C1712 H1697 0.960 . S
C1712 H1698 0.960 . S
C1712 H1699 0.960 1_455 S
C1712 C1711 1.524 . S
C1713 C1710 1.403 1_556 S
C1713 C1714 1.392 . S
C1713 C1717 1.495 . S
C1714 C1713 1.392 . S
C1714 C1715 1.385 . S
C1714 C1716 1.478 . S
C1715 H1709 0.930 . S
C1715 C1711 1.400 1_556 S
C1715 C1714 1.385 . S
C1716 C1714 1.478 . S
C1716 C1718 1.381 . S
C1716 C1722 1.383 . S
C1717 C1713 1.495 . S
C1717 H1723 0.959 . S
C1717 H1724 0.961 . S
C1717 H1725 0.960 . S
C1718 C1716 1.381 . S
C1718 C1719 1.394 . S
C1718 H1726 0.930 . S
C1719 C1718 1.394 . S
C1719 C1720 1.383 . S
C1719 H1727 0.929 . S
C1720 C1719 1.383 . S
C1720 C1721 1.404 . S
C1721 H1705 0.899 1_455 S
C1721 C1720 1.404 . S
C1721 C1722 1.383 . S
C1722 H1706 0.931 1_455 S
C1722 C1716 1.383 . S
C1722 C1721 1.383 . S
H1723 C1717 0.959 . S
H1724 C1717 0.961 . S
H1725 C1717 0.960 . S
H1726 C1718 0.930 . S
H1727 C1719 0.929 . S
H1728 C1736 0.929 . S
H1729 C1738 0.930 . S
H1730 C1740 0.930 . S
H1731 C1743 0.929 . S
H1732 C1746 0.930 . S
H1733 C1748 0.960 . S
H1734 C1748 0.960 . S
H1735 C1748 0.960 . S
C1736 H1728 0.929 . S
C1736 C1737 1.377 . S
C1736 C1738 1.384 . S
C1737 C1736 1.377 . S
C1737 C1743 1.390 . S
C1738 H1729 0.930 . S
C1738 C1736 1.384 . S
C1738 C1739 1.372 . S
C1739 C1738 1.372 . S
C1739 C1740 1.400 . S
C1739 C1744 1.490 . S
C1740 H1730 0.930 . S
C1740 C1739 1.400 . S
C1740 C1743 1.386 . S
H1741 C1757 0.930 . S
H1742 C1758 0.931 . S
C1743 H1731 0.929 . S
C1743 C1737 1.390 . S
C1743 C1740 1.386 . S
C1744 C1739 1.490 . S
C1744 C1746 1.395 . S
C1744 C1747 1.403 . S
H1745 C1751 0.930 . S
C1746 H1732 0.930 . S
C1746 C1744 1.395 . S
C1746 C1749 1.403 1_554 S
C1747 C1744 1.403 . S
C1747 C1748 1.524 . S
C1747 C1751 1.400 1_554 S
C1748 H1733 0.960 . S
C1748 H1734 0.960 . S
C1748 H1735 0.960 . S
C1748 C1747 1.524 . S
C1749 C1746 1.403 1_556 S
C1749 C1750 1.392 . S
C1749 C1753 1.495 . S
C1750 C1749 1.392 . S
C1750 C1751 1.385 . S
C1750 C1752 1.478 . S
C1751 H1745 0.930 . S
C1751 C1747 1.400 1_556 S
C1751 C1750 1.385 . S
C1752 C1750 1.478 . S
C1752 C1754 1.381 . S
C1752 C1758 1.383 . S
C1753 C1749 1.495 . S
C1753 H1759 0.959 . S
C1753 H1760 0.961 . S
C1753 H1761 0.960 . S
C1754 C1752 1.381 . S
C1754 C1755 1.394 . S
C1754 H1762 0.930 . S
C1755 C1754 1.394 . S
C1755 C1756 1.383 . S
C1755 H1763 0.929 . S
C1756 C1755 1.383 . S
C1756 C1757 1.377 . S
C1757 H1741 0.930 . S
C1757 C1756 1.377 . S
C1757 C1758 1.379 . S
C1758 H1742 0.931 . S
C1758 C1752 1.383 . S
C1758 C1757 1.379 . S
H1759 C1753 0.959 . S
H1760 C1753 0.961 . S
H1761 C1753 0.960 . S
H1762 C1754 0.930 . S
H1763 C1755 0.929 . S
H1764 C1772 0.929 . S
H1765 C1774 0.930 . S
H1766 C1776 0.877 1_565 S
H1767 C1779 0.925 1_565 S
H1768 C1782 0.930 . S
H1769 C1784 0.960 . S
H1770 C1784 0.960 . S
H1771 C1784 0.960 1_565 S
C1772 H1764 0.929 . S
C1772 C1773 1.377 . S
C1772 C1774 1.384 . S
C1773 C1772 1.377 . S
C1773 C1779 1.393 . S
C1774 H1765 0.930 . S
C1774 C1772 1.384 . S
C1774 C1775 1.372 . S
C1775 C1774 1.372 . S
C1775 C1776 1.458 . S
C1775 C1780 1.490 . S
C1776 H1766 0.877 1_545 S
C1776 C1775 1.458 . S
C1776 C1779 1.384 . S
H1777 C1793 0.930 1_565 S
H1778 C1794 0.931 1_565 S
C1779 H1767 0.925 1_545 S
C1779 C1773 1.393 . S
C1779 C1776 1.384 . S
C1780 C1775 1.490 . S
C1780 C1782 1.395 . S
C1780 C1783 1.403 . S
H1781 C1787 0.930 . S
C1782 H1768 0.930 . S
C1782 C1780 1.395 . S
C1782 C1785 1.403 1_554 S
C1783 C1780 1.403 . S
C1783 C1784 1.524 . S
C1783 C1787 1.400 1_554 S
C1784 H1769 0.960 . S
C1784 H1770 0.960 . S
C1784 H1771 0.960 1_545 S
C1784 C1783 1.524 . S
C1785 C1782 1.403 1_556 S
C1785 C1786 1.392 . S
C1785 C1789 1.495 . S
C1786 C1785 1.392 . S
C1786 C1787 1.385 . S
C1786 C1788 1.478 . S
C1787 H1781 0.930 . S
C1787 C1783 1.400 1_556 S
C1787 C1786 1.385 . S
C1788 C1786 1.478 . S
C1788 C1790 1.381 . S
C1788 C1794 1.383 . S
C1789 C1785 1.495 . S
C1789 H1795 0.959 . S
C1789 H1796 0.961 . S
C1789 H1797 0.960 . S
C1790 C1788 1.381 . S
C1790 C1791 1.394 . S
C1790 H1798 0.930 . S
C1791 C1790 1.394 . S
C1791 C1792 1.383 . S
C1791 H1799 0.929 . S
C1792 C1791 1.383 . S
C1792 C1793 1.377 . S
C1793 H1777 0.930 1_545 S
C1793 C1792 1.377 . S
C1793 C1794 1.379 . S
C1794 H1778 0.931 1_545 S
C1794 C1788 1.383 . S
C1794 C1793 1.379 . S
H1795 C1789 0.959 . S
H1796 C1789 0.961 . S
H1797 C1789 0.960 . S
H1798 C1790 0.930 . S
H1799 C1791 0.929 . S
H1800 C1808 0.929 . S
H1801 C1810 0.930 . S
H1802 C1812 0.930 . S
H1803 C1815 0.929 . S
H1804 C1818 0.930 . S
H1805 C1820 0.960 . S
H1806 C1820 0.960 . S
H1807 C1820 0.960 . S
C1808 H1800 0.929 . S
C1808 C1809 1.377 . S
C1808 C1810 1.384 . S
C1809 C1808 1.377 . S
C1809 C1815 1.390 . S
C1810 H1801 0.930 . S
C1810 C1808 1.384 . S
C1810 C1811 1.372 . S
C1811 C1810 1.372 . S
C1811 C1812 1.400 . S
C1811 C1816 1.490 . S
C1812 H1802 0.930 . S
C1812 C1811 1.400 . S
C1812 C1815 1.386 . S
H1813 C1829 0.930 . S
H1814 C1830 0.931 . S
C1815 H1803 0.929 . S
C1815 C1809 1.390 . S
C1815 C1812 1.386 . S
C1816 C1811 1.490 . S
C1816 C1818 1.395 . S
C1816 C1819 1.403 . S
H1817 C1823 0.898 1_655 S
C1818 H1804 0.930 . S
C1818 C1816 1.395 . S
C1818 C1821 1.403 1_556 S
C1819 C1816 1.403 . S
C1819 C1820 1.524 1_455 S
C1819 C1823 1.400 1_556 S
C1820 H1805 0.960 . S
C1820 H1806 0.960 . S
C1820 H1807 0.960 . S
C1820 C1819 1.524 1_655 S
C1821 C1818 1.403 1_554 S
C1821 C1822 1.392 . S
C1821 C1825 1.495 . S
C1822 C1821 1.392 . S
C1822 C1823 1.385 . S
C1822 C1824 1.478 . S
C1823 H1817 0.898 1_455 S
C1823 C1819 1.400 1_554 S
C1823 C1822 1.385 . S
C1824 C1822 1.478 . S
C1824 C1826 1.381 . S
C1824 C1830 1.383 . S
C1825 C1821 1.495 . S
C1825 H1831 0.959 . S
C1825 H1832 0.961 . S
C1825 H1833 0.960 . S
C1826 C1824 1.381 . S
C1826 C1827 1.394 . S
C1826 H1834 0.930 . S
C1827 C1826 1.394 . S
C1827 C1828 1.383 . S
C1827 H1835 0.929 . S
C1828 C1827 1.383 . S
C1828 C1829 1.377 . S
C1829 H1813 0.930 . S
C1829 C1828 1.377 . S
C1829 C1830 1.379 . S
C1830 H1814 0.931 . S
C1830 C1824 1.383 . S
C1830 C1829 1.379 . S
H1831 C1825 0.959 . S
H1832 C1825 0.961 . S
H1833 C1825 0.960 . S
H1834 C1826 0.930 . S
H1835 C1827 0.929 . S
H1836 C1844 0.929 . S
H1837 C1846 0.930 . S
H1838 C1848 0.930 . S
H1839 C1851 0.929 . S
H1840 C1854 0.930 . S
H1841 C1856 0.960 . S
H1842 C1856 0.960 . S
H1843 C1856 0.960 . S
C1844 H1836 0.929 . S
C1844 C1845 1.377 . S
C1844 C1846 1.384 . S
C1845 C1844 1.377 . S
C1845 C1851 1.390 . S
C1846 H1837 0.930 . S
C1846 C1844 1.384 . S
C1846 C1847 1.372 . S
C1847 C1846 1.372 . S
C1847 C1848 1.400 . S
C1847 C1852 1.490 . S
C1848 H1838 0.930 . S
C1848 C1847 1.400 . S
C1848 C1851 1.386 . S
H1849 C1865 0.930 . S
H1850 C1866 0.931 . S
C1851 H1839 0.929 . S
C1851 C1845 1.390 . S
C1851 C1848 1.386 . S
C1852 C1847 1.490 . S
C1852 C1854 1.395 . S
C1852 C1855 1.403 . S
H1853 C1859 0.930 . S
C1854 H1840 0.930 . S
C1854 C1852 1.395 . S
C1854 C1857 1.403 1_554 S
C1855 C1852 1.403 . S
C1855 C1856 1.524 . S
C1855 C1859 1.400 1_554 S
C1856 H1841 0.960 . S
C1856 H1842 0.960 . S
C1856 H1843 0.960 . S
C1856 C1855 1.524 . S
C1857 C1854 1.403 1_556 S
C1857 C1858 1.392 . S
C1857 C1861 1.495 . S
C1858 C1857 1.392 . S
C1858 C1859 1.385 . S
C1858 C1860 1.478 . S
C1859 H1853 0.930 . S
C1859 C1855 1.400 1_556 S
C1859 C1858 1.385 . S
C1860 C1858 1.478 . S
C1860 C1862 1.381 . S
C1860 C1866 1.383 . S
C1861 C1857 1.495 . S
C1861 H1867 0.959 . S
C1861 H1868 0.961 . S
C1861 H1869 0.960 . S
C1862 C1860 1.381 . S
C1862 C1863 1.394 . S
C1862 H1870 0.930 . S
C1863 C1862 1.394 . S
C1863 C1864 1.383 . S
C1863 H1871 0.929 . S
C1864 C1863 1.383 . S
C1864 C1865 1.377 . S
C1865 H1849 0.930 . S
C1865 C1864 1.377 . S
C1865 C1866 1.379 . S
C1866 H1850 0.931 . S
C1866 C1860 1.383 . S
C1866 C1865 1.379 . S
H1867 C1861 0.959 . S
H1868 C1861 0.961 . S
H1869 C1861 0.960 . S
H1870 C1862 0.930 . S
H1871 C1863 0.929 . S
H1872 C1880 0.929 . S
H1873 C1882 0.930 . S
H1874 C1884 0.930 . S
H1875 C1887 0.929 . S
H1876 C1890 0.930 1_565 S
H1877 C1892 0.960 . S
H1878 C1892 0.960 . S
H1879 C1892 0.960 . S
C1880 H1872 0.929 . S
C1880 C1881 1.377 . S
C1880 C1882 1.384 . S
C1881 C1880 1.377 . S
C1881 C1887 1.390 . S
C1882 H1873 0.930 . S
C1882 C1880 1.384 . S
C1882 C1883 1.372 . S
C1883 C1882 1.372 . S
C1883 C1884 1.400 . S
C1883 C1888 1.490 . S
C1884 H1874 0.930 . S
C1884 C1883 1.400 . S
C1884 C1887 1.386 . S
H1885 C1901 0.930 . S
H1886 C1902 0.931 . S
C1887 H1875 0.929 . S
C1887 C1881 1.390 . S
C1887 C1884 1.386 . S
C1888 C1883 1.490 . S
C1888 C1890 1.395 . S
C1888 C1891 1.403 . S
H1889 C1895 0.930 . S
C1890 H1876 0.930 1_545 S
C1890 C1888 1.395 . S
C1890 C1893 1.408 1_554 S
C1891 C1888 1.403 . S
C1891 C1892 1.524 . S
C1891 C1895 1.400 1_554 S
C1892 H1877 0.960 . S
C1892 H1878 0.960 . S
C1892 H1879 0.960 . S
C1892 C1891 1.524 . S
C1893 C1890 1.408 1_556 S
C1893 C1894 1.440 . S
C1893 C1897 1.445 1_545 S
C1894 C1893 1.440 . S
C1894 C1895 1.385 . S
C1894 C1896 1.478 . S
C1895 H1889 0.930 . S
C1895 C1891 1.400 1_556 S
C1895 C1894 1.385 . S
C1896 C1894 1.478 . S
C1896 C1898 1.381 . S
C1896 C1902 1.383 . S
C1897 C1893 1.445 1_565 S
C1897 H1903 0.959 . S
C1897 H1904 0.961 . S
C1897 H1905 0.960 . S
C1898 C1896 1.381 . S
C1898 C1899 1.394 . S
C1898 H1906 0.930 . S
C1899 C1898 1.394 . S
C1899 C1900 1.383 . S
C1899 H1907 0.929 . S
C1900 C1899 1.383 . S
C1900 C1901 1.377 . S
C1901 H1885 0.930 . S
C1901 C1900 1.377 . S
C1901 C1902 1.379 . S
C1902 H1886 0.931 . S
C1902 C1896 1.383 . S
C1902 C1901 1.379 . S
H1903 C1897 0.959 . S
H1904 C1897 0.961 . S
H1905 C1897 0.960 . S
H1906 C1898 0.930 . S
H1907 C1899 0.929 . S
H1908 C1916 0.929 . S
H1909 C1918 0.930 . S
H1910 C1920 0.930 . S
H1911 C1923 0.929 . S
H1912 C1926 0.930 . S
H1913 C1928 0.960 . S
H1914 C1928 0.960 . S
H1915 C1928 0.960 . S
C1916 H1908 0.929 . S
C1916 C1917 1.377 . S
C1916 C1918 1.384 . S
C1917 C1916 1.377 . S
C1917 C1923 1.390 . S
C1918 H1909 0.930 . S
C1918 C1916 1.384 . S
C1918 C1919 1.372 . S
C1919 C1918 1.372 . S
C1919 C1920 1.400 . S
C1919 C1924 1.490 . S
C1920 H1910 0.930 . S
C1920 C1919 1.400 . S
C1920 C1923 1.386 . S
H1921 C1937 0.930 . S
H1922 C1938 0.931 . S
C1923 H1911 0.929 . S
C1923 C1917 1.390 . S
C1923 C1920 1.386 . S
C1924 C1919 1.490 . S
C1924 C1926 1.395 . S
C1924 C1927 1.403 . S
H1925 C1931 0.930 . S
C1926 H1912 0.930 . S
C1926 C1924 1.395 . S
C1926 C1929 1.403 . S
C1927 C1924 1.403 . S
C1927 C1928 1.524 . S
C1927 C1931 1.400 . S
C1928 H1913 0.960 . S
C1928 H1914 0.960 . S
C1928 H1915 0.960 . S
C1928 C1927 1.524 . S
C1929 C1926 1.403 . S
C1929 C1930 1.392 . S
C1929 C1933 1.495 . S
C1930 C1929 1.392 . S
C1930 C1931 1.385 . S
C1930 C1932 1.478 . S
C1931 H1925 0.930 . S
C1931 C1927 1.400 . S
C1931 C1930 1.385 . S
C1932 C1930 1.478 . S
C1932 C1934 1.381 . S
C1932 C1938 1.383 . S
C1933 C1929 1.495 . S
C1933 H1939 0.959 . S
C1933 H1940 0.961 . S
C1933 H1941 0.960 . S
C1934 C1932 1.381 . S
C1934 C1935 1.394 . S
C1934 H1942 0.930 . S
C1935 C1934 1.394 . S
C1935 C1936 1.383 . S
C1935 H1943 0.929 . S
C1936 C1935 1.383 . S
C1936 C1937 1.377 . S
C1937 H1921 0.930 . S
C1937 C1936 1.377 . S
C1937 C1938 1.379 . S
C1938 H1922 0.931 . S
C1938 C1932 1.383 . S
C1938 C1937 1.379 . S
H1939 C1933 0.959 . S
H1940 C1933 0.961 . S
H1941 C1933 0.960 . S
H1942 C1934 0.930 . S
H1943 C1935 0.929 . S
H1944 C1952 0.929 . S
H1945 C1954 0.930 . S
H1946 C1956 0.930 . S
H1947 C1959 0.929 . S
H1948 C1962 0.930 . S
H1949 C1964 0.960 . S
H1950 C1964 0.960 . S
H1951 C1964 0.960 . S
C1952 H1944 0.929 . S
C1952 C1953 1.377 . S
C1952 C1954 1.384 . S
C1953 C1952 1.377 . S
C1953 C1959 1.390 . S
C1954 H1945 0.930 . S
C1954 C1952 1.384 . S
C1954 C1955 1.372 . S
C1955 C1954 1.372 . S
C1955 C1956 1.400 . S
C1955 C1960 1.490 . S
C1956 H1946 0.930 . S
C1956 C1955 1.400 . S
C1956 C1959 1.386 . S
H1957 C1973 0.930 . S
H1958 C1974 0.931 . S
C1959 H1947 0.929 . S
C1959 C1953 1.390 . S
C1959 C1956 1.386 . S
C1960 C1955 1.490 . S
C1960 C1962 1.395 . S
C1960 C1963 1.403 . S
H1961 C1967 0.930 . S
C1962 H1948 0.930 . S
C1962 C1960 1.395 . S
C1962 C1965 1.403 . S
C1963 C1960 1.403 . S
C1963 C1964 1.524 . S
C1963 C1967 1.400 . S
C1964 H1949 0.960 . S
C1964 H1950 0.960 . S
C1964 H1951 0.960 . S
C1964 C1963 1.524 . S
C1965 C1962 1.403 . S
C1965 C1966 1.392 . S
C1965 C1969 1.495 . S
C1966 C1965 1.392 . S
C1966 C1967 1.385 . S
C1966 C1968 1.478 . S
C1967 H1961 0.930 . S
C1967 C1963 1.400 . S
C1967 C1966 1.385 . S
C1968 C1966 1.478 . S
C1968 C1970 1.381 . S
C1968 C1974 1.383 . S
C1969 C1965 1.495 . S
C1969 H1975 0.959 . S
C1969 H1976 0.961 . S
C1969 H1977 0.960 . S
C1970 C1968 1.381 . S
C1970 C1971 1.394 . S
C1970 H1978 0.930 . S
C1971 C1970 1.394 . S
C1971 C1972 1.383 . S
C1971 H1979 0.929 . S
C1972 C1971 1.383 . S
C1972 C1973 1.377 . S
C1973 H1957 0.930 . S
C1973 C1972 1.377 . S
C1973 C1974 1.379 . S
C1974 H1958 0.931 . S
C1974 C1968 1.383 . S
C1974 C1973 1.379 . S
H1975 C1969 0.959 . S
H1976 C1969 0.961 . S
H1977 C1969 0.960 . S
H1978 C1970 0.930 . S
H1979 C1971 0.929 . S
H1980 C1988 0.929 . S
H1981 C1990 0.930 . S
H1982 C1992 0.930 . S
H1983 C1995 0.929 . S
H1984 C1998 0.930 . S
H1985 C2000 0.960 . S
H1986 C2000 0.960 . S
H1987 C2000 0.960 . S
C1988 H1980 0.929 . S
C1988 C1989 1.377 . S
C1988 C1990 1.384 . S
C1989 C1988 1.377 . S
C1989 C1995 1.390 . S
C1990 H1981 0.930 . S
C1990 C1988 1.384 . S
C1990 C1991 1.372 . S
C1991 C1990 1.372 . S
C1991 C1992 1.400 . S
C1991 C1996 1.490 . S
C1992 H1982 0.930 . S
C1992 C1991 1.400 . S
C1992 C1995 1.386 . S
H1993 C2009 0.930 . S
H1994 C2010 0.931 . S
C1995 H1983 0.929 . S
C1995 C1989 1.390 . S
C1995 C1992 1.386 . S
C1996 C1991 1.490 . S
C1996 C1998 1.395 . S
C1996 C1999 1.403 . S
H1997 C2003 0.930 . S
C1998 H1984 0.930 . S
C1998 C1996 1.395 . S
C1998 C2001 1.403 . S
C1999 C1996 1.403 . S
C1999 C2000 1.524 . S
C1999 C2003 1.400 . S
C2000 H1985 0.960 . S
C2000 H1986 0.960 . S
C2000 H1987 0.960 . S
C2000 C1999 1.524 . S
C2001 C1998 1.403 . S
C2001 C2002 1.392 . S
C2001 C2005 1.495 . S
C2002 C2001 1.392 . S
C2002 C2003 1.385 . S
C2002 C2004 1.478 . S
C2003 H1997 0.930 . S
C2003 C1999 1.400 . S
C2003 C2002 1.385 . S
C2004 C2002 1.478 . S
C2004 C2006 1.381 . S
C2004 C2010 1.383 . S
C2005 C2001 1.495 . S
C2005 H2011 0.959 . S
C2005 H2012 0.961 . S
C2005 H2013 0.960 . S
C2006 C2004 1.381 . S
C2006 C2007 1.394 . S
C2006 H2014 0.930 . S
C2007 C2006 1.394 . S
C2007 C2008 1.383 . S
C2007 H2015 0.929 . S
C2008 C2007 1.383 . S
C2008 C2009 1.377 . S
C2009 H1993 0.930 . S
C2009 C2008 1.377 . S
C2009 C2010 1.379 . S
C2010 H1994 0.931 . S
C2010 C2004 1.383 . S
C2010 C2009 1.379 . S
H2011 C2005 0.959 . S
H2012 C2005 0.961 . S
H2013 C2005 0.960 . S
H2014 C2006 0.930 . S
H2015 C2007 0.929 . S
H2016 C2024 0.929 . S
H2017 C2026 0.930 . S
H2018 C2028 0.930 . S
H2019 C2031 0.929 . S
H2020 C2034 0.930 . S
H2021 C2036 0.960 . S
H2022 C2036 0.960 . S
H2023 C2036 0.960 . S
C2024 H2016 0.929 . S
C2024 C2025 1.377 . S
C2024 C2026 1.384 . S
C2025 C2024 1.377 . S
C2025 C2031 1.390 . S
C2026 H2017 0.930 . S
C2026 C2024 1.384 . S
C2026 C2027 1.372 . S
C2027 C2026 1.372 . S
C2027 C2028 1.400 . S
C2027 C2032 1.490 . S
C2028 H2018 0.930 . S
C2028 C2027 1.400 . S
C2028 C2031 1.386 . S
H2029 C2045 0.930 . S
H2030 C2046 0.931 . S
C2031 H2019 0.929 . S
C2031 C2025 1.390 . S
C2031 C2028 1.386 . S
C2032 C2027 1.490 . S
C2032 C2034 1.395 . S
C2032 C2035 1.403 . S
H2033 C2039 0.930 . S
C2034 H2020 0.930 . S
C2034 C2032 1.395 . S
C2034 C2037 1.403 . S
C2035 C2032 1.403 . S
C2035 C2036 1.524 . S
C2035 C2039 1.400 . S
C2036 H2021 0.960 . S
C2036 H2022 0.960 . S
C2036 H2023 0.960 . S
C2036 C2035 1.524 . S
C2037 C2034 1.403 . S
C2037 C2038 1.392 . S
C2037 C2041 1.495 . S
C2038 C2037 1.392 . S
C2038 C2039 1.385 . S
C2038 C2040 1.478 . S
C2039 H2033 0.930 . S
C2039 C2035 1.400 . S
C2039 C2038 1.385 . S
C2040 C2038 1.478 . S
C2040 C2042 1.381 . S
C2040 C2046 1.383 . S
C2041 C2037 1.495 . S
C2041 H2047 0.959 . S
C2041 H2048 0.961 . S
C2041 H2049 0.960 . S
C2042 C2040 1.381 . S
C2042 C2043 1.394 . S
C2042 H2050 0.930 . S
C2043 C2042 1.394 . S
C2043 C2044 1.383 . S
C2043 H2051 0.929 . S
C2044 C2043 1.383 . S
C2044 C2045 1.377 . S
C2045 H2029 0.930 . S
C2045 C2044 1.377 . S
C2045 C2046 1.379 . S
C2046 H2030 0.931 . S
C2046 C2040 1.383 . S
C2046 C2045 1.379 . S
H2047 C2041 0.959 . S
H2048 C2041 0.961 . S
H2049 C2041 0.960 . S
H2050 C2042 0.930 . S
H2051 C2043 0.929 . S
H2052 C2060 0.929 . S
H2053 C2062 0.930 . S
H2054 C2064 0.930 . S
H2055 C2067 0.929 . S
H2056 C2070 0.930 . S
H2057 C2072 0.960 . S
H2058 C2072 0.960 . S
H2059 C2072 0.960 . S
C2060 H2052 0.929 . S
C2060 C2061 1.377 . S
C2060 C2062 1.384 . S
C2061 C2060 1.377 . S
C2061 C2067 1.390 . S
C2062 H2053 0.930 . S
C2062 C2060 1.384 . S
C2062 C2063 1.372 . S
C2063 C2062 1.372 . S
C2063 C2064 1.400 . S
C2063 C2068 1.490 . S
C2064 H2054 0.930 . S
C2064 C2063 1.400 . S
C2064 C2067 1.386 . S
H2065 C2081 0.930 . S
H2066 C2082 0.931 . S
C2067 H2055 0.929 . S
C2067 C2061 1.390 . S
C2067 C2064 1.386 . S
C2068 C2063 1.490 . S
C2068 C2070 1.395 . S
C2068 C2071 1.403 . S
H2069 C2075 0.930 . S
C2070 H2056 0.930 . S
C2070 C2068 1.395 . S
C2070 C2073 1.403 . S
C2071 C2068 1.403 . S
C2071 C2072 1.524 . S
C2071 C2075 1.400 . S
C2072 H2057 0.960 . S
C2072 H2058 0.960 . S
C2072 H2059 0.960 . S
C2072 C2071 1.524 . S
C2073 C2070 1.403 . S
C2073 C2074 1.392 . S
C2073 C2077 1.495 . S
C2074 C2073 1.392 . S
C2074 C2075 1.385 . S
C2074 C2076 1.478 . S
C2075 H2069 0.930 . S
C2075 C2071 1.400 . S
C2075 C2074 1.385 . S
C2076 C2074 1.478 . S
C2076 C2078 1.381 . S
C2076 C2082 1.383 . S
C2077 C2073 1.495 . S
C2077 H2083 0.959 . S
C2077 H2084 0.961 . S
C2077 H2085 0.960 . S
C2078 C2076 1.381 . S
C2078 C2079 1.394 . S
C2078 H2086 0.930 . S
C2079 C2078 1.394 . S
C2079 C2080 1.383 . S
C2079 H2087 0.929 . S
C2080 C2079 1.383 . S
C2080 C2081 1.377 . S
C2081 H2065 0.930 . S
C2081 C2080 1.377 . S
C2081 C2082 1.379 . S
C2082 H2066 0.931 . S
C2082 C2076 1.383 . S
C2082 C2081 1.379 . S
H2083 C2077 0.959 . S
H2084 C2077 0.961 . S
H2085 C2077 0.960 . S
H2086 C2078 0.930 . S
H2087 C2079 0.929 . S
H2088 C2096 0.929 . S
H2089 C2098 0.930 . S
H2090 C2100 0.930 . S
H2091 C2103 0.929 . S
H2092 C2106 0.930 . S
H2093 C2108 0.960 . S
H2094 C2108 0.960 . S
H2095 C2108 0.960 . S
C2096 H2088 0.929 . S
C2096 C2097 1.377 . S
C2096 C2098 1.384 . S
C2097 C2096 1.377 . S
C2097 C2103 1.390 . S
C2098 H2089 0.930 . S
C2098 C2096 1.384 . S
C2098 C2099 1.372 . S
C2099 C2098 1.372 . S
C2099 C2100 1.400 . S
C2099 C2104 1.490 . S
C2100 H2090 0.930 . S
C2100 C2099 1.400 . S
C2100 C2103 1.386 . S
H2101 C2117 0.930 . S
H2102 C2118 0.931 . S
C2103 H2091 0.929 . S
C2103 C2097 1.390 . S
C2103 C2100 1.386 . S
C2104 C2099 1.490 . S
C2104 C2106 1.395 . S
C2104 C2107 1.403 . S
H2105 C2111 0.930 . S
C2106 H2092 0.930 . S
C2106 C2104 1.395 . S
C2106 C2109 1.403 . S
C2107 C2104 1.403 . S
C2107 C2108 1.524 . S
C2107 C2111 1.400 . S
C2108 H2093 0.960 . S
C2108 H2094 0.960 . S
C2108 H2095 0.960 . S
C2108 C2107 1.524 . S
C2109 C2106 1.403 . S
C2109 C2110 1.392 . S
C2109 C2113 1.495 . S
C2110 C2109 1.392 . S
C2110 C2111 1.385 . S
C2110 C2112 1.478 . S
C2111 H2105 0.930 . S
C2111 C2107 1.400 . S
C2111 C2110 1.385 . S
C2112 C2110 1.478 . S
C2112 C2114 1.381 . S
C2112 C2118 1.383 . S
C2113 C2109 1.495 . S
C2113 H2119 0.959 . S
C2113 H2120 0.961 . S
C2113 H2121 0.960 . S
C2114 C2112 1.381 . S
C2114 C2115 1.394 . S
C2114 H2122 0.930 . S
C2115 C2114 1.394 . S
C2115 C2116 1.383 . S
C2115 H2123 0.929 . S
C2116 C2115 1.383 . S
C2116 C2117 1.377 . S
C2117 H2101 0.930 . S
C2117 C2116 1.377 . S
C2117 C2118 1.379 . S
C2118 H2102 0.931 . S
C2118 C2112 1.383 . S
C2118 C2117 1.379 . S
H2119 C2113 0.959 . S
H2120 C2113 0.961 . S
H2121 C2113 0.960 . S
H2122 C2114 0.930 . S
H2123 C2115 0.929 . S
H2124 C2132 0.929 . S
H2125 C2134 0.930 . S
H2126 C2136 0.930 . S
H2127 C2139 0.929 . S
H2128 C2142 0.930 . S
H2129 C2144 0.960 . S
H2130 C2144 0.960 . S
H2131 C2144 0.960 . S
C2132 H2124 0.929 . S
C2132 C2133 1.377 . S
C2132 C2134 1.384 . S
C2133 C2132 1.377 . S
C2133 C2139 1.390 . S
C2134 H2125 0.930 . S
C2134 C2132 1.384 . S
C2134 C2135 1.372 . S
C2135 C2134 1.372 . S
C2135 C2136 1.400 . S
C2135 C2140 1.490 . S
C2136 H2126 0.930 . S
C2136 C2135 1.400 . S
C2136 C2139 1.386 . S
H2137 C2153 0.930 . S
H2138 C2154 0.931 . S
C2139 H2127 0.929 . S
C2139 C2133 1.390 . S
C2139 C2136 1.386 . S
C2140 C2135 1.490 . S
C2140 C2142 1.395 . S
C2140 C2143 1.403 . S
H2141 C2147 0.930 . S
C2142 H2128 0.930 . S
C2142 C2140 1.395 . S
C2142 C2145 1.403 . S
C2143 C2140 1.403 . S
C2143 C2144 1.524 . S
C2143 C2147 1.400 . S
C2144 H2129 0.960 . S
C2144 H2130 0.960 . S
C2144 H2131 0.960 . S
C2144 C2143 1.524 . S
C2145 C2142 1.403 . S
C2145 C2146 1.392 . S
C2145 C2149 1.495 . S
C2146 C2145 1.392 . S
C2146 C2147 1.385 . S
C2146 C2148 1.478 . S
C2147 H2141 0.930 . S
C2147 C2143 1.400 . S
C2147 C2146 1.385 . S
C2148 C2146 1.478 . S
C2148 C2150 1.381 . S
C2148 C2154 1.383 . S
C2149 C2145 1.495 . S
C2149 H2155 0.959 . S
C2149 H2156 0.961 . S
C2149 H2157 0.960 . S
C2150 C2148 1.381 . S
C2150 C2151 1.394 . S
C2150 H2158 0.930 . S
C2151 C2150 1.394 . S
C2151 C2152 1.383 . S
C2151 H2159 0.929 . S
C2152 C2151 1.383 . S
C2152 C2153 1.377 . S
C2153 H2137 0.930 . S
C2153 C2152 1.377 . S
C2153 C2154 1.379 . S
C2154 H2138 0.931 . S
C2154 C2148 1.383 . S
C2154 C2153 1.379 . S
H2155 C2149 0.959 . S
H2156 C2149 0.961 . S
H2157 C2149 0.960 . S
H2158 C2150 0.930 . S
H2159 C2151 0.929 . S
H2160 C2168 0.929 . S
H2161 C2170 0.930 . S
H2162 C2172 0.930 . S
H2163 C2175 0.929 . S
H2164 C2178 0.930 . S
H2165 C2180 0.960 . S
H2166 C2180 0.960 . S
H2167 C2180 0.960 . S
C2168 H2160 0.929 . S
C2168 C2169 1.377 . S
C2168 C2170 1.384 . S
C2169 C2168 1.377 . S
C2169 C2175 1.390 . S
C2170 H2161 0.930 . S
C2170 C2168 1.384 . S
C2170 C2171 1.372 . S
C2171 C2170 1.372 . S
C2171 C2172 1.400 . S
C2171 C2176 1.490 . S
C2172 H2162 0.930 . S
C2172 C2171 1.400 . S
C2172 C2175 1.386 . S
H2173 C2189 0.930 . S
H2174 C2190 0.931 . S
C2175 H2163 0.929 . S
C2175 C2169 1.390 . S
C2175 C2172 1.386 . S
C2176 C2171 1.490 . S
C2176 C2178 1.395 . S
C2176 C2179 1.403 . S
H2177 C2183 0.930 . S
C2178 H2164 0.930 . S
C2178 C2176 1.395 . S
C2178 C2181 1.403 . S
C2179 C2176 1.403 . S
C2179 C2180 1.524 . S
C2179 C2183 1.400 . S
C2180 H2165 0.960 . S
C2180 H2166 0.960 . S
C2180 H2167 0.960 . S
C2180 C2179 1.524 . S
C2181 C2178 1.403 . S
C2181 C2182 1.392 . S
C2181 C2185 1.495 . S
C2182 C2181 1.392 . S
C2182 C2183 1.385 . S
C2182 C2184 1.478 . S
C2183 H2177 0.930 . S
C2183 C2179 1.400 . S
C2183 C2182 1.385 . S
C2184 C2182 1.478 . S
C2184 C2186 1.381 . S
C2184 C2190 1.383 . S
C2185 C2181 1.495 . S
C2185 H2191 0.959 . S
C2185 H2192 0.961 . S
C2185 H2193 0.960 . S
C2186 C2184 1.381 . S
C2186 C2187 1.394 . S
C2186 H2194 0.930 . S
C2187 C2186 1.394 . S
C2187 C2188 1.383 . S
C2187 H2195 0.929 . S
C2188 C2187 1.383 . S
C2188 C2189 1.377 . S
C2189 H2173 0.930 . S
C2189 C2188 1.377 . S
C2189 C2190 1.379 . S
C2190 H2174 0.931 . S
C2190 C2184 1.383 . S
C2190 C2189 1.379 . S
H2191 C2185 0.959 . S
H2192 C2185 0.961 . S
H2193 C2185 0.960 . S
H2194 C2186 0.930 . S
H2195 C2187 0.929 . S
H2196 C2204 0.929 . S
H2197 C2206 0.930 . S
H2198 C2208 0.930 . S
H2199 C2211 0.929 . S
H2200 C2214 0.930 . S
H2201 C2216 0.960 . S
H2202 C2216 0.960 . S
H2203 C2216 0.960 . S
C2204 H2196 0.929 . S
C2204 C2205 1.377 . S
C2204 C2206 1.384 . S
C2205 C2204 1.377 . S
C2205 C2211 1.390 . S
C2206 H2197 0.930 . S
C2206 C2204 1.384 . S
C2206 C2207 1.372 . S
C2207 C2206 1.372 . S
C2207 C2208 1.400 . S
C2207 C2212 1.490 . S
C2208 H2198 0.930 . S
C2208 C2207 1.400 . S
C2208 C2211 1.386 . S
H2209 C2225 0.930 . S
H2210 C2226 0.931 . S
C2211 H2199 0.929 . S
C2211 C2205 1.390 . S
C2211 C2208 1.386 . S
C2212 C2207 1.490 . S
C2212 C2214 1.395 . S
C2212 C2215 1.403 . S
H2213 C2219 0.930 . S
C2214 H2200 0.930 . S
C2214 C2212 1.395 . S
C2214 C2217 1.403 . S
C2215 C2212 1.403 . S
C2215 C2216 1.524 . S
C2215 C2219 1.400 . S
C2216 H2201 0.960 . S
C2216 H2202 0.960 . S
C2216 H2203 0.960 . S
C2216 C2215 1.524 . S
C2217 C2214 1.403 . S
C2217 C2218 1.392 . S
C2217 C2221 1.495 . S
C2218 C2217 1.392 . S
C2218 C2219 1.385 . S
C2218 C2220 1.478 . S
C2219 H2213 0.930 . S
C2219 C2215 1.400 . S
C2219 C2218 1.385 . S
C2220 C2218 1.478 . S
C2220 C2222 1.381 . S
C2220 C2226 1.383 . S
C2221 C2217 1.495 . S
C2221 H2227 0.959 . S
C2221 H2228 0.961 . S
C2221 H2229 0.960 . S
C2222 C2220 1.381 . S
C2222 C2223 1.394 . S
C2222 H2230 0.930 . S
C2223 C2222 1.394 . S
C2223 C2224 1.383 . S
C2223 H2231 0.929 . S
C2224 C2223 1.383 . S
C2224 C2225 1.377 . S
C2225 H2209 0.930 . S
C2225 C2224 1.377 . S
C2225 C2226 1.379 . S
C2226 H2210 0.931 . S
C2226 C2220 1.383 . S
C2226 C2225 1.379 . S
H2227 C2221 0.959 . S
H2228 C2221 0.961 . S
H2229 C2221 0.960 . S
H2230 C2222 0.930 . S
H2231 C2223 0.929 . S
H2232 C2240 0.929 . S
H2233 C2242 0.930 . S
H2234 C2244 0.930 . S
H2235 C2247 0.929 . S
H2236 C2250 0.930 . S
H2237 C2252 0.960 . S
H2238 C2252 0.960 . S
H2239 C2252 0.960 . S
C2240 H2232 0.929 . S
C2240 C2241 1.377 . S
C2240 C2242 1.384 . S
C2241 C2240 1.377 . S
C2241 C2247 1.390 . S
C2242 H2233 0.930 . S
C2242 C2240 1.384 . S
C2242 C2243 1.372 . S
C2243 C2242 1.372 . S
C2243 C2244 1.400 . S
C2243 C2248 1.490 . S
C2244 H2234 0.930 . S
C2244 C2243 1.400 . S
C2244 C2247 1.386 . S
H2245 C2261 0.930 . S
H2246 C2262 0.931 . S
C2247 H2235 0.929 . S
C2247 C2241 1.390 . S
C2247 C2244 1.386 . S
C2248 C2243 1.490 . S
C2248 C2250 1.395 . S
C2248 C2251 1.403 . S
H2249 C2255 0.930 . S
C2250 H2236 0.930 . S
C2250 C2248 1.395 . S
C2250 C2253 1.403 . S
C2251 C2248 1.403 . S
C2251 C2252 1.524 . S
C2251 C2255 1.400 . S
C2252 H2237 0.960 . S
C2252 H2238 0.960 . S
C2252 H2239 0.960 . S
C2252 C2251 1.524 . S
C2253 C2250 1.403 . S
C2253 C2254 1.392 . S
C2253 C2257 1.495 . S
C2254 C2253 1.392 . S
C2254 C2255 1.385 . S
C2254 C2256 1.478 . S
C2255 H2249 0.930 . S
C2255 C2251 1.400 . S
C2255 C2254 1.385 . S
C2256 C2254 1.478 . S
C2256 C2258 1.381 . S
C2256 C2262 1.383 . S
C2257 C2253 1.495 . S
C2257 H2263 0.959 . S
C2257 H2264 0.961 . S
C2257 H2265 0.960 . S
C2258 C2256 1.381 . S
C2258 C2259 1.394 . S
C2258 H2266 0.930 . S
C2259 C2258 1.394 . S
C2259 C2260 1.383 . S
C2259 H2267 0.929 . S
C2260 C2259 1.383 . S
C2260 C2261 1.377 . S
C2261 H2245 0.930 . S
C2261 C2260 1.377 . S
C2261 C2262 1.379 . S
C2262 H2246 0.931 . S
C2262 C2256 1.383 . S
C2262 C2261 1.379 . S
H2263 C2257 0.959 . S
H2264 C2257 0.961 . S
H2265 C2257 0.960 . S
H2266 C2258 0.930 . S
H2267 C2259 0.929 . S
H2268 C2276 0.929 . S
H2269 C2278 0.930 . S
H2270 C2280 0.930 . S
H2271 C2283 0.929 . S
H2272 C2286 0.930 . S
H2273 C2288 0.960 . S
H2274 C2288 0.960 . S
H2275 C2288 0.960 . S
C2276 H2268 0.929 . S
C2276 C2277 1.377 . S
C2276 C2278 1.384 . S
C2277 C2276 1.377 . S
C2277 C2283 1.390 . S
C2278 H2269 0.930 . S
C2278 C2276 1.384 . S
C2278 C2279 1.372 . S
C2279 C2278 1.372 . S
C2279 C2280 1.400 . S
C2279 C2284 1.490 . S
C2280 H2270 0.930 . S
C2280 C2279 1.400 . S
C2280 C2283 1.386 . S
H2281 C2297 0.930 . S
H2282 C2298 0.931 . S
C2283 H2271 0.929 . S
C2283 C2277 1.390 . S
C2283 C2280 1.386 . S
C2284 C2279 1.490 . S
C2284 C2286 1.395 . S
C2284 C2287 1.403 . S
H2285 C2291 0.930 . S
C2286 H2272 0.930 . S
C2286 C2284 1.395 . S
C2286 C2289 1.403 . S
C2287 C2284 1.403 . S
C2287 C2288 1.524 . S
C2287 C2291 1.400 . S
C2288 H2273 0.960 . S
C2288 H2274 0.960 . S
C2288 H2275 0.960 . S
C2288 C2287 1.524 . S
C2289 C2286 1.403 . S
C2289 C2290 1.392 . S
C2289 C2293 1.495 . S
C2290 C2289 1.392 . S
C2290 C2291 1.385 . S
C2290 C2292 1.478 . S
C2291 H2285 0.930 . S
C2291 C2287 1.400 . S
C2291 C2290 1.385 . S
C2292 C2290 1.478 . S
C2292 C2294 1.381 . S
C2292 C2298 1.383 . S
C2293 C2289 1.495 . S
C2293 H2299 0.959 . S
C2293 H2300 0.961 . S
C2293 H2301 0.960 . S
C2294 C2292 1.381 . S
C2294 C2295 1.394 . S
C2294 H2302 0.930 . S
C2295 C2294 1.394 . S
C2295 C2296 1.383 . S
C2295 H2303 0.929 . S
C2296 C2295 1.383 . S
C2296 C2297 1.377 . S
C2297 H2281 0.930 . S
C2297 C2296 1.377 . S
C2297 C2298 1.379 . S
C2298 H2282 0.931 . S
C2298 C2292 1.383 . S
C2298 C2297 1.379 . S
H2299 C2293 0.959 . S
H2300 C2293 0.961 . S
H2301 C2293 0.960 . S
H2302 C2294 0.930 . S
H2303 C2295 0.929 . S
H2304 C2312 0.929 . S
H2305 C2314 0.930 . S
H2306 C2316 0.930 . S
H2307 C2319 0.929 . S
H2308 C2322 0.930 . S
H2309 C2324 0.960 . S
H2310 C2324 0.960 . S
H2311 C2324 0.960 . S
C2312 H2304 0.929 . S
C2312 C2313 1.377 . S
C2312 C2314 1.384 . S
C2313 C2312 1.377 . S
C2313 C2319 1.390 . S
C2314 H2305 0.930 . S
C2314 C2312 1.384 . S
C2314 C2315 1.372 . S
C2315 C2314 1.372 . S
C2315 C2316 1.400 . S
C2315 C2320 1.490 . S
C2316 H2306 0.930 . S
C2316 C2315 1.400 . S
C2316 C2319 1.386 . S
H2317 C2333 0.930 . S
H2318 C2334 0.931 . S
C2319 H2307 0.929 . S
C2319 C2313 1.390 . S
C2319 C2316 1.386 . S
C2320 C2315 1.490 . S
C2320 C2322 1.395 . S
C2320 C2323 1.403 . S
H2321 C2327 0.930 . S
C2322 H2308 0.930 . S
C2322 C2320 1.395 . S
C2322 C2325 1.403 . S
C2323 C2320 1.403 . S
C2323 C2324 1.524 . S
C2323 C2327 1.400 . S
C2324 H2309 0.960 . S
C2324 H2310 0.960 . S
C2324 H2311 0.960 . S
C2324 C2323 1.524 . S
C2325 C2322 1.403 . S
C2325 C2326 1.392 . S
C2325 C2329 1.495 . S
C2326 C2325 1.392 . S
C2326 C2327 1.385 . S
C2326 C2328 1.478 . S
C2327 H2321 0.930 . S
C2327 C2323 1.400 . S
C2327 C2326 1.385 . S
C2328 C2326 1.478 . S
C2328 C2330 1.381 . S
C2328 C2334 1.383 . S
C2329 C2325 1.495 . S
C2329 H2335 0.959 . S
C2329 H2336 0.961 . S
C2329 H2337 0.960 . S
C2330 C2328 1.381 . S
C2330 C2331 1.394 . S
C2330 H2338 0.930 . S
C2331 C2330 1.394 . S
C2331 C2332 1.383 . S
C2331 H2339 0.929 . S
C2332 C2331 1.383 . S
C2332 C2333 1.377 . S
C2333 H2317 0.930 . S
C2333 C2332 1.377 . S
C2333 C2334 1.379 . S
C2334 H2318 0.931 . S
C2334 C2328 1.383 . S
C2334 C2333 1.379 . S
H2335 C2329 0.959 . S
H2336 C2329 0.961 . S
H2337 C2329 0.960 . S
H2338 C2330 0.930 . S
H2339 C2331 0.929 . S
C405 C294 1.096 . S
C424 C4 1.130 . S
C441 C26 1.107 . S
C460 C316 1.069 . S
C477 C48 1.103 . S
C496 C272 1.120 . S
C513 C52 1.097 . S
C532 C158 1.109 . S
C549 C180 1.097 . S
C568 C8 1.108 . S
C585 C30 1.108 . S
C604 C136 1.068 . S
C621 C74 1.106 . S
C640 C224 1.124 . S
C657 C96 1.107 . S
C676 C246 1.110 . S
C693 C202 1.096 . S
C712 C118 1.068 . S
C729 C360 1.100 . S
C748 C114 1.078 . S
C765 C70 1.096 . S
C784 C382 1.068 . S
C801 C338 1.099 . S
C820 C92 1.089 . S
C837 C184 1.098 . S
C856 C290 1.134 . S
C873 C140 1.110 . S
C892 C312 1.077 . S
C909 C162 1.107 . S
C928 C268 1.106 . S
C945 C206 1.109 . S
C964 C356 1.123 . S
C981 C378 1.102 . S
C1000 C228 1.107 . S
C1017 C334 1.102 . S
C1036 C250 1.106 . S
C1053 C6 1.638 . S
C1072 C93 1.634 . S
C1089 C115 1.636 . S
C1108 C28 1.615 . S
C1125 C71 1.637 . S
C1144 C50 1.641 . S
C1161 C97 1.639 . S
C1180 C51 1.619 . S
C1197 C119 1.639 . S
C1216 C7 1.628 . S
C1233 C75 1.636 . S
C1252 C29 1.646 . S
C1269 C225 1.634 . S
C1288 C138 1.620 . S
C1305 C247 1.638 . S
C1324 C160 1.617 . S
C1341 C203 1.634 . S
C1360 C182 1.620 . S
C1377 C229 1.633 . S
C1396 C183 1.625 . S
C1413 C251 1.639 . S
C1432 C139 1.618 . S
C1449 C207 1.638 . S
C1468 C161 1.617 . S
C1485 C357 1.633 . S
C1504 C270 1.623 . S
C1521 C379 1.632 . S
C1540 C292 1.628 . S
C1557 C314 1.632 . S
C1576 C335 1.645 . S
C1593 C315 1.632 . S
C1612 C361 1.632 . S
C1629 C271 1.632 . S
C1648 C383 1.639 . S
C1665 C339 1.636 . S
C1684 C293 1.645 . S
C1701 C5 1.600 . S
C1720 C9 1.603 . S
C1737 C27 1.602 . S
C1756 C31 1.608 . S
C1773 C49 1.598 . S
C1792 C53 1.590 . S
C1809 C73 1.601 . S
C1828 C72 1.603 . S
C1845 C94 1.595 . S
C1864 C95 1.614 . S
C1881 C116 1.598 . S
C1900 C117 1.584 . S
C1917 C141 1.595 1_554 S
C1936 C137 1.577 . S
C1953 C159 1.601 . S
C1972 C163 1.604 1_554 S
C1989 C185 1.596 1_554 S
C2008 C181 1.585 . S
C2025 C205 1.595 1_554 S
C2044 C204 1.613 . S
C2061 C227 1.598 1_554 S
C2080 C226 1.612 . S
C2097 C249 1.603 1_554 S
C2116 C248 1.578 . S
C2133 C273 1.594 . S
C2152 C269 1.575 1_556 S
C2169 C291 1.601 1_556 S
C2188 C295 1.605 . S
C2205 C313 1.596 1_556 S
C2224 C317 1.581 . S
C2241 C336 1.603 1_556 S
C2260 C337 1.583 . S
C2277 C358 1.602 1_556 S
C2296 C359 1.575 . S
C2313 C381 1.603 . S
C2332 C380 1.582 1_556 S
