# Generated by pormake.
# Topology qtz-g, (3)-cn, num edge types: 1
# Building blocks:
#     Node 0, Type 0, BuildingBlock: WUSLED_clean_sbu_0, # of connection points: 3
#     Node 1, Type 0, BuildingBlock: WUSLED_clean_sbu_0, # of connection points: 3
#     Node 2, Type 0, BuildingBlock: WUSLED_clean_sbu_0, # of connection points: 3
#     Node 3, Type 0, BuildingBlock: WUSLED_clean_sbu_0, # of connection points: 3
#     Node 4, Type 0, BuildingBlock: WUSLED_clean_sbu_0, # of connection points: 3
#     Node 5, Type 0, BuildingBlock: WUSLED_clean_sbu_0, # of connection points: 3
#     Node 6, Type 0, BuildingBlock: WUSLED_clean_sbu_0, # of connection points: 3
#     Node 7, Type 0, BuildingBlock: WUSLED_clean_sbu_0, # of connection points: 3
#     Node 8, Type 0, BuildingBlock: WUSLED_clean_sbu_0, # of connection points: 3
#     Node 9, Type 0, BuildingBlock: WUSLED_clean_sbu_0, # of connection points: 3
#     Node 10, Type 0, BuildingBlock: WUSLED_clean_sbu_0, # of connection points: 3
#     Node 11, Type 0, BuildingBlock: WUSLED_clean_sbu_0, # of connection points: 3
#     Edge 12, Type (0, 0), BuildingBlock: CIFDUS_clean_linker_0, # of connection points: 2
#     Edge 13, Type (0, 0), BuildingBlock: CIFDUS_clean_linker_0, # of connection points: 2
#     Edge 14, Type (0, 0), BuildingBlock: CIFDUS_clean_linker_0, # of connection points: 2
#     Edge 15, Type (0, 0), BuildingBlock: CIFDUS_clean_linker_0, # of connection points: 2
#     Edge 16, Type (0, 0), BuildingBlock: CIFDUS_clean_linker_0, # of connection points: 2
#     Edge 17, Type (0, 0), BuildingBlock: CIFDUS_clean_linker_0, # of connection points: 2
#     Edge 18, Type (0, 0), BuildingBlock: CIFDUS_clean_linker_0, # of connection points: 2
#     Edge 19, Type (0, 0), BuildingBlock: CIFDUS_clean_linker_0, # of connection points: 2
#     Edge 20, Type (0, 0), BuildingBlock: CIFDUS_clean_linker_0, # of connection points: 2
#     Edge 21, Type (0, 0), BuildingBlock: CIFDUS_clean_linker_0, # of connection points: 2
#     Edge 22, Type (0, 0), BuildingBlock: CIFDUS_clean_linker_0, # of connection points: 2
#     Edge 23, Type (0, 0), BuildingBlock: CIFDUS_clean_linker_0, # of connection points: 2
#     Edge 24, Type (0, 0), BuildingBlock: CIFDUS_clean_linker_0, # of connection points: 2
#     Edge 25, Type (0, 0), BuildingBlock: CIFDUS_clean_linker_0, # of connection points: 2
#     Edge 26, Type (0, 0), BuildingBlock: CIFDUS_clean_linker_0, # of connection points: 2
#     Edge 27, Type (0, 0), BuildingBlock: CIFDUS_clean_linker_0, # of connection points: 2
#     Edge 28, Type (0, 0), BuildingBlock: CIFDUS_clean_linker_0, # of connection points: 2
#     Edge 29, Type (0, 0), BuildingBlock: CIFDUS_clean_linker_0, # of connection points: 2
# Relax obj value: 0.110
# Max RMSD: 0.087
# Mean RMSD: 0.086
data_MOF--net-qtz-g--node1-WUSLED_clean_sbu_0--edge1-CIFDUS_clean_linker_0
_symmetry_space_group_name_H-M    P1
_symmetry_Int_Tables_number       1
_symmetry_cell_setting            triclinic
loop_
_symmetry_equiv_pos_as_xyz
'x, y, z'
_cell_length_a     60.09592
_cell_length_b     60.965998
_cell_length_c     95.869498
_cell_angle_alpha  90.015598
_cell_angle_beta   90.227946
_cell_angle_gamma 119.56941
loop_
_atom_site_label
_atom_site_type_symbol
_atom_site_fract_x
_atom_site_fract_y
_atom_site_fract_z
_atom_type_partial_charge
C0 C 0.05842 0.32994 0.10798 0.0
C1 C 0.04695 0.34266 0.11422 0.0
C2 C 0.03667 0.31601 0.13476 0.0
C3 C 0.03625 0.33583 0.12747 0.0
C4 C 0.04823 0.30328 0.12846 0.0
C5 C 0.05902 0.3102 0.11514 0.0
U6 U 0.07175 0.37336 0.07796 0.0
O7 O 0.10615 0.3963 0.0655 0.0
O8 O 0.07069 0.36829 0.05518 0.0
C9 C 0.09512 0.38476 0.05379 0.0
C10 C 0.06992 0.33785 0.0941 0.0
C11 C 0.10998 0.37674 0.04521 0.0
C12 C 0.13199 0.35274 0.04193 0.0
C13 C 0.11647 0.35888 0.05002 0.0
C14 C 0.13415 0.38189 0.02409 0.0
C15 C 0.14122 0.36438 0.02892 0.0
C16 C 0.11867 0.38797 0.03217 0.0
C17 C 0.04687 0.42009 0.08237 0.0
C18 C 0.06232 0.45971 0.06998 0.0
C19 C 0.02506 0.44437 0.08484 0.0
C20 C 0.02706 0.42306 0.08801 0.0
C21 C 0.04292 0.46316 0.07598 0.0
C22 C 0.06423 0.43828 0.07312 0.0
C23 C 0.04993 0.39876 0.08699 0.0
O24 O 0.05347 0.33334 0.08392 0.0
O25 O 0.08971 0.36077 0.0937 0.0
O26 O 0.07334 0.40432 0.09038 0.0
O27 O 0.03766 0.37789 0.07965 0.0
H28 H 0.04645 0.35806 0.10887 0.0
H29 H 0.02799 0.34638 0.13209 0.0
H30 H 0.04871 0.28783 0.13376 0.0
H31 H 0.06782 0.30021 0.11045 0.0
H32 H 0.13688 0.33901 0.04589 0.0
H33 H 0.10984 0.35001 0.06009 0.0
H34 H 0.14123 0.39153 1.01425 0.0
H35 H 0.11391 0.40188 0.02834 0.0
H36 H 0.07621 0.47374 0.06303 0.0
H37 H 1.01012 0.4466 0.08978 0.0
H38 H 1.01355 0.40922 0.09519 0.0
H39 H 0.0796 0.43621 0.06862 0.0
C40 C 0.74165 0.04721 0.44601 0.0
C41 C 0.71711 0.03458 0.45183 0.0
C42 C 0.73401 0.02487 0.47259 0.0
C43 C 0.71333 0.02359 0.46499 0.0
C44 C 0.75861 0.03741 0.46666 0.0
C45 C 0.76239 0.04851 0.45345 0.0
U46 U 0.71154 0.05985 0.41516 0.0
O47 O 0.72082 0.09448 0.40375 0.0
O48 O 0.71951 0.06236 0.39261 0.0
C49 C 0.72529 0.08614 0.39204 0.0
C50 C 0.7453 0.05941 0.43237 0.0
C51 C 0.74951 0.10344 0.38513 0.0
C52 C 0.79421 0.13602 0.38626 0.0
C53 C 0.77196 0.11802 0.39289 0.0
C54 C 0.77216 0.12422 0.36397 0.0
C55 C 0.79442 0.13957 0.37175 0.0
C56 C 0.74988 0.10636 0.37063 0.0
C57 C 0.63842 0.03019 0.41706 0.0
C58 C 0.61316 0.04393 0.40365 0.0
C59 C 0.5923 1.0087 0.41957 0.0
C60 C 0.61599 1.0111 0.42303 0.0
C61 C 0.59064 0.02542 0.41007 0.0
C62 C 0.63689 0.04629 0.40712 0.0
C63 C 0.66318 0.0343 0.42228 0.0
O64 O 0.73572 0.04385 0.42172 0.0
O65 O 0.73965 0.07766 0.43207 0.0
O66 O 0.67892 0.05729 0.42669 0.0
O67 O 0.67448 0.02452 0.41484 0.0
H68 H 0.70088 0.0335 0.44624 0.0
H69 H 0.69423 1.01454 0.46931 0.0
H70 H 0.77489 0.03854 0.47219 0.0
H71 H 0.78146 0.05821 0.44909 0.0
H72 H 0.81116 0.14739 0.39249 0.0
H73 H 0.77212 0.11588 0.40411 0.0
H74 H 0.77167 0.12668 0.35281 0.0
H75 H 0.73272 0.09527 0.36448 0.0
H76 H 0.61248 0.05692 0.39618 0.0
H77 H 0.57544 0.99449 0.42487 0.0
H78 H 0.61687 0.99861 0.43078 0.0
H79 H 0.6541 0.06113 0.40239 0.0
C80 C 0.69585 0.73678 0.78215 0.0
C81 C 0.68331 0.71426 0.78974 0.0
C82 C 0.7122 0.73409 0.8094 0.0
C83 C 0.6913 0.71296 0.80324 0.0
C84 C 0.72483 0.75661 0.80169 0.0
C85 C 0.71669 0.75792 0.78816 0.0
U86 U 0.65694 0.70268 0.75046 0.0
O87 O 0.63055 0.70892 0.7374 0.0
O88 O 0.66454 0.71042 0.728 0.0
C89 C 0.64517 0.71452 0.72632 0.0
C90 C 0.68718 0.73802 0.76797 0.0
C91 C 0.65113 0.73841 0.71954 0.0
C92 C 0.66198 0.78236 0.7211 0.0
C93 C 0.65829 0.76024 0.72751 0.0
C94 C 0.65259 0.76146 0.69859 0.0
C95 C 0.65884 0.7831 0.70659 0.0
C96 C 0.64867 0.73925 0.70504 0.0
C97 C 0.61998 0.63023 0.75266 0.0
C98 C 0.59591 0.60172 0.73372 0.0
C99 C 0.59161 0.58586 0.7573 0.0
C100 C 0.60902 0.61004 0.76201 0.0
C101 C 0.58488 0.58133 0.74309 0.0
C102 C 0.61332 0.62602 0.73848 0.0
C103 C 0.6378 0.65546 0.75811 0.0
O104 O 0.69574 0.72916 0.75811 0.0
O105 O 0.66258 0.73021 0.76682 0.0
O106 O 0.62745 0.66935 0.7614 0.0
O107 O 0.65974 0.66808 0.75156 0.0
H108 H 0.66719 0.69771 0.78524 0.0
H109 H 0.68082 0.69546 0.80893 0.0
H110 H 0.74113 0.77313 0.80606 0.0
H111 H 0.72666 0.77541 0.7824 0.0
H112 H 0.66707 0.79884 0.72749 0.0
H113 H 0.6605 0.76 0.73872 0.0
H114 H 0.64985 0.76144 0.68742 0.0
H115 H 0.64319 0.72258 0.69873 0.0
H116 H 0.59125 0.59886 0.7227 0.0
H117 H 0.5831 0.57078 0.76487 0.0
H118 H 0.61378 0.61303 0.77302 0.0
H119 H 0.62154 0.64149 0.73112 0.0
C120 C 0.97633 0.69322 0.11753 0.0
C121 C 0.99509 0.68843 0.12315 0.0
C122 C 0.98735 0.69942 0.14634 0.0
C123 C 1.00063 0.6916 0.13741 0.0
C124 C 0.96903 0.70487 0.14058 0.0
C125 C 0.96358 0.70179 0.12628 0.0
U126 U 0.97434 0.65762 0.0851 0.0
O127 O 0.94249 0.63368 0.07109 0.0
O128 O 0.97645 0.66677 0.06277 0.0
C129 C 0.95302 0.64847 0.0603 0.0
C130 C 0.96828 0.68685 0.10291 0.0
C131 C 0.93622 0.65565 0.05286 0.0
C132 C 0.91243 0.67827 0.05194 0.0
C133 C 0.9301 0.67315 0.05862 0.0
C134 C 0.90725 0.64877 0.03357 0.0
C135 C 0.90055 0.66588 0.03942 0.0
C136 C 0.92494 0.64372 0.04024 0.0
C137 C 1.00615 0.61672 0.0872 0.0
C138 C 0.99644 0.58219 0.07122 0.0
C139 C 0.02785 0.59233 0.08961 0.0
C140 C 0.02406 0.61208 0.094 0.0
C141 C 1.0137 0.57682 0.07835 0.0
C142 C 0.99272 0.60204 0.0756 0.0
C143 C 1.00021 0.63547 0.09306 0.0
O144 O 0.98682 0.69546 0.09368 0.0
O145 O 0.95109 0.66309 0.10088 0.0
O146 O 0.97596 0.62683 0.096 0.0
O147 O 1.01094 0.65763 0.08693 0.0
H148 H 1.00486 0.68142 0.11657 0.0
H149 H 1.01452 0.68684 0.14152 0.0
H150 H 0.95863 0.7111 0.14718 0.0
H151 H 0.94889 0.70538 0.12212 0.0
H152 H 0.90789 0.69173 0.05664 0.0
H153 H 0.93863 0.68247 0.06841 0.0
H154 H 0.89818 0.63858 0.02407 0.0
H155 H 0.92933 0.63001 0.03572 0.0
H156 H 0.98545 0.57074 0.06243 0.0
H157 H 0.04103 0.5885 0.09545 0.0
H158 H 0.03449 0.62318 0.10301 0.0
H159 H 0.97882 0.60544 0.07022 0.0
C160 C 0.29558 0.98003 0.44901 0.0
C161 C 0.31915 1.00031 0.45328 0.0
C162 C 0.30081 1.00201 0.47558 0.0
C163 C 0.32172 1.01127 0.46641 0.0
C164 C 0.27714 0.98183 0.47119 0.0
C165 C 0.27456 0.97096 0.458 0.0
U166 U 0.32815 0.966 0.41973 0.0
O167 O 0.31858 0.93056 0.40892 0.0
O168 O 0.32213 0.96291 0.39702 0.0
C169 C 0.31599 0.93901 0.39676 0.0
C170 C 0.29346 0.96727 0.43565 0.0
C171 C 0.29273 0.92207 0.38891 0.0
C172 C 0.24739 0.9045 0.38397 0.0
C173 C 0.26922 0.92081 0.39169 0.0
C174 C 0.27245 0.89052 0.37077 0.0
C175 C 0.24878 0.88911 0.37344 0.0
C176 C 0.29419 0.90684 0.37844 0.0
C177 C 0.4006 0.9949 0.42213 0.0
C178 C 0.42432 0.9815 0.40725 0.0
C179 C 0.44678 0.01506 0.42411 0.0
C180 C 0.42357 1.01292 0.4283 0.0
C181 C 0.44741 0.99913 0.41367 0.0
C182 C 0.40108 0.97943 0.41143 0.0
C183 C 0.37629 0.9916 0.42746 0.0
O184 O 0.30359 0.98221 0.42485 0.0
O185 O 0.29936 0.94922 0.4363 0.0
O186 O 0.36033 0.96887 0.43205 0.0
O187 O 0.36514 1.00131 0.41979 0.0
H188 H 0.33573 1.00733 0.44657 0.0
H189 H 0.3403 0.02649 0.46955 0.0
H190 H 0.26066 0.9744 0.47799 0.0
H191 H 0.25627 0.95519 0.45491 0.0
H192 H 0.2294 0.90369 0.38633 0.0
H193 H 0.26777 0.93241 0.39981 0.0
H194 H 0.27426 0.87923 0.36259 0.0
H195 H 0.31222 0.90764 0.37615 0.0
H196 H 0.42421 0.96913 0.3991 0.0
H197 H 0.46415 0.02856 0.42941 0.0
H198 H 0.42349 0.02494 0.43661 0.0
H199 H 0.38346 0.96544 0.40653 0.0
C200 C 0.44447 0.38525 0.72971 0.0
C201 C 0.45295 0.39537 0.74309 0.0
C202 C 0.48534 0.43487 0.73302 0.0
C203 C 0.47328 0.41986 0.74473 0.0
C204 C 0.4764 0.42498 0.71962 0.0
C205 C 0.45617 0.40026 0.71798 0.0
U206 U 0.38453 0.33027 0.74396 0.0
O207 O 0.34937 0.30124 0.73373 0.0
O208 O 0.37312 0.29022 0.74604 0.0
C209 C 0.35369 0.28288 0.7374 0.0
C210 C 0.4235 0.35912 0.72805 0.0
C211 C 0.3531 0.2664 0.72607 0.0
C212 C 0.37174 0.25992 0.70512 0.0
C213 C 0.37091 0.2761 0.71519 0.0
C214 C 0.33655 0.22428 0.71652 0.0
C215 C 0.35483 0.23376 0.70579 0.0
C216 C 0.33575 0.24048 0.72658 0.0
C217 C 0.36181 0.34223 0.77938 0.0
C218 C 0.33799 0.31221 0.79768 0.0
C219 C 0.34468 0.35475 0.79878 0.0
C220 C 0.35799 0.36041 0.7862 0.0
C221 C 0.33495 0.33074 0.80482 0.0
C222 C 0.35127 0.31789 0.78503 0.0
C223 C 0.37848 0.34981 0.76706 0.0
O224 O 0.42377 0.34296 0.73702 0.0
O225 O 0.40061 0.3565 0.72623 0.0
O226 O 0.36802 0.35051 0.75512 0.0
O227 O 0.39373 0.34016 0.76604 0.0
H228 H 0.44394 0.38426 0.75231 0.0
H229 H 0.4795 0.42716 0.75518 0.0
H230 H 0.48538 0.43618 0.71044 0.0
H231 H 0.44977 0.39281 0.70757 0.0
H232 H 0.38581 0.26788 0.69689 0.0
H233 H 0.38451 0.2961 0.71466 0.0
H234 H 0.32347 0.20422 0.71745 0.0
H235 H 0.322 0.23269 0.73498 0.0
H236 H 0.33048 0.29346 0.80198 0.0
H237 H 0.34299 0.36956 0.80407 0.0
H238 H 0.36607 0.37932 0.78201 0.0
H239 H 0.3539 0.30351 0.77988 0.0
C240 C 0.7058 0.97399 0.58108 0.0
C241 C 0.689 0.97618 0.5717 0.0
C242 C 0.72123 0.99035 0.55351 0.0
C243 C 0.69659 0.98411 0.55803 0.0
C244 C 0.73822 0.98862 0.56299 0.0
C245 C 0.73049 0.98036 0.57666 0.0
U246 U 0.66744 0.97145 0.61273 0.0
O247 O 0.64166 0.94006 0.62613 0.0
O248 O 0.67564 0.97235 0.63525 0.0
C249 C 0.65651 0.94938 0.63716 0.0
C250 C 0.69774 0.96545 0.59548 0.0
C251 C 0.66274 0.93186 0.64451 0.0
C252 C 0.66844 0.89507 0.64453 0.0
C253 C 0.66445 0.91272 0.63728 0.0
C254 C 0.67035 0.91619 0.66628 0.0
C255 C 0.6711 0.89636 0.65915 0.0
C256 C 0.66609 0.9337 0.65902 0.0
C257 C 0.62867 1.00596 0.60978 0.0
C258 C 0.59171 0.99748 0.62383 0.0
C259 C 0.60879 0.03204 0.60734 0.0
C260 C 0.6278 0.02634 0.60362 0.0
C261 C 0.59021 0.0174 0.6173 0.0
C262 C 0.61083 0.99183 0.62012 0.0
C263 C 0.64711 0.99877 0.60454 0.0
O264 O 0.70627 0.98337 0.60498 0.0
O265 O 0.6734 0.94875 0.59698 0.0
O266 O 0.6375 0.97479 0.60139 0.0
O267 O 0.66912 1.00833 0.61119 0.0
H268 H 0.66998 0.97177 0.57492 0.0
H269 H 0.68326 0.98569 0.55101 0.0
H270 H 0.75731 0.9933 0.55976 0.0
H271 H 0.74376 0.97894 0.58378 0.0
H272 H 0.66861 0.87995 0.6387 0.0
H273 H 0.6621 0.91102 0.62606 0.0
H274 H 0.67283 0.9181 0.67749 0.0
H275 H 0.66505 0.94846 0.66477 0.0
H276 H 0.57785 0.98602 0.63164 0.0
H277 H 0.60801 0.04727 0.60196 0.0
H278 H 0.64138 0.03738 0.59559 0.0
H279 H 0.61129 0.97605 0.62503 0.0
C280 C 0.74036 0.68861 0.91421 0.0
C281 C 0.71922 0.67132 0.9063 0.0
C282 C 0.73621 0.69775 0.88578 0.0
C283 C 0.71726 0.67577 0.89221 0.0
C284 C 0.75708 0.71539 0.89379 0.0
C285 C 0.75919 0.71076 0.90791 0.0
U286 U 0.70747 0.65468 0.94697 0.0
O287 O 0.71552 0.63172 0.96157 0.0
O288 O 0.71443 0.66515 0.96919 0.0
C289 C 0.7197 0.64711 0.97209 0.0
C290 C 0.7425 0.68337 0.92898 0.0
C291 C 0.74376 0.65484 0.97962 0.0
C292 C 0.7902 0.67743 0.98041 0.0
C293 C 0.76733 0.67205 0.97371 0.0
C294 C 0.76605 0.64882 0.99908 0.0
C295 C 0.78983 0.66557 0.99308 0.0
C296 C 0.74324 0.64352 0.99239 0.0
C297 C 0.63438 0.61342 0.94423 0.0
C298 C 0.6076 0.5769 0.9585 0.0
C299 C 0.58819 0.5927 0.94204 0.0
C300 C 0.61242 0.61187 0.93817 0.0
C301 C 0.5855 0.57466 0.95203 0.0
C302 C 0.63187 0.59619 0.95465 0.0
C303 C 0.65955 0.63184 0.93872 0.0
O304 O 0.73228 0.69224 0.93788 0.0
O305 O 0.73668 0.65998 0.93161 0.0
O306 O 0.67525 0.6231 0.9363 0.0
O307 O 0.67073 0.65426 0.94461 0.0
H308 H 0.70427 0.65426 0.91101 0.0
H309 H 0.70076 0.66208 0.88634 0.0
H310 H 0.77193 0.73247 0.88906 0.0
H311 H 0.77555 0.72437 0.91389 0.0
H312 H 0.80816 0.69061 0.97559 0.0
H313 H 0.76802 0.68089 0.9638 0.0
H314 H 0.76502 0.63903 1.00869 0.0
H315 H 0.72517 0.63002 0.99701 0.0
H316 H 0.60612 0.56344 0.96633 0.0
H317 H 0.57161 0.59135 0.93673 0.0
H318 H 0.61403 0.62498 0.93008 0.0
H319 H 0.64867 0.59719 0.95949 0.0
C320 C 0.06455 0.63219 0.30566 0.0
C321 C 0.04725 0.61608 0.29556 0.0
C322 C 0.05311 0.58153 0.30389 0.0
C323 C 0.0415 0.59094 0.29471 0.0
C324 C 0.06997 0.59764 0.31421 0.0
C325 C 0.07564 0.62278 0.31508 0.0
U326 U 0.06812 0.6888 0.28743 0.0
O327 O 0.06584 0.72146 0.29546 0.0
O328 O 0.10051 0.72712 0.28479 0.0
C329 C 0.08976 0.7374 0.29226 0.0
C330 C 0.07265 0.65919 0.30568 0.0
C331 C 0.10577 0.75353 0.30371 0.0
C332 C 0.12587 0.75803 0.32634 0.0
C333 C 0.10879 0.74277 0.316 0.0
C334 C 0.1367 0.79505 0.31235 0.0
C335 C 0.14036 0.78432 0.32454 0.0
C336 C 0.11955 0.77974 0.30202 0.0
C337 C 0.03791 0.6782 0.25094 0.0
C338 C 0.04959 0.71007 0.23296 0.0
C339 C 1.01276 0.66853 0.22967 0.0
C340 C 1.01713 0.66128 0.24276 0.0
C341 C 0.0292 0.69286 0.22451 0.0
C342 C 0.05387 0.70282 0.2461 0.0
C343 C 0.04355 0.66925 0.264 0.0
O344 O 0.09034 0.67248 0.29647 0.0
O345 O 0.05413 0.66478 0.30608 0.0
O346 O 0.03219 0.67113 0.27527 0.0
O347 O 0.06771 0.67592 0.26603 0.0
H348 H 0.03875 0.62315 0.28809 0.0
H349 H 0.02872 0.57913 0.28652 0.0
H350 H 0.07903 0.59088 0.3215 0.0
H351 H 0.08913 0.63502 0.3229 0.0
H352 H 0.128 0.74921 0.33567 0.0
H353 H 0.09834 0.7225 0.31744 0.0
H354 H 0.14777 0.81517 0.31056 0.0
H355 H 0.11758 0.78831 0.29253 0.0
H356 H 0.06241 0.72902 0.22932 0.0
H357 H 0.99709 0.65473 0.22336 0.0
H358 H 1.00468 0.64218 0.24632 0.0
H359 H 0.06997 0.71621 0.25232 0.0
C360 C 0.33807 0.05796 0.5833 0.0
C361 C 0.33782 0.03575 0.57916 0.0
C362 C 0.31965 0.03707 0.55665 0.0
C363 C 0.32858 0.02534 0.566 0.0
C364 C 0.31969 0.0592 0.5609 0.0
C365 C 0.32881 0.06953 0.57413 0.0
U366 U 0.38341 0.06648 0.61258 0.0
O367 O 0.41217 0.10041 0.62358 0.0
O368 O 0.38115 0.06967 0.63532 0.0
C369 C 0.40079 0.09269 0.6357 0.0
C370 C 0.34969 0.06996 0.59671 0.0
C371 C 0.39699 0.11124 0.64356 0.0
C372 C 0.37605 0.13625 0.64686 0.0
C373 C 0.37902 0.11824 0.63926 0.0
C374 C 0.40893 0.14027 0.66307 0.0
C375 C 0.39109 0.14757 0.65882 0.0
C376 C 0.41183 0.12229 0.6555 0.0
C377 C 0.4197 0.02979 0.60937 0.0
C378 C 0.45685 0.03832 0.62343 0.0
C379 C 0.44004 1.00422 0.60655 0.0
C380 C 0.42084 1.00977 0.60293 0.0
C381 C 0.45852 0.01867 0.6167 0.0
C382 C 0.43755 0.04382 0.61981 0.0
C383 C 0.40072 0.03658 0.60448 0.0
O384 O 0.34332 0.05467 0.60747 0.0
O385 O 0.37434 0.08604 0.59613 0.0
O386 O 0.41017 0.05994 0.60015 0.0
O387 O 0.38025 0.02891 0.61225 0.0
H388 H 0.34528 0.02674 0.58601 0.0
H389 H 0.3292 1.00853 0.56297 0.0
H390 H 0.31279 0.06857 0.55395 0.0
H391 H 0.32905 0.08679 0.57712 0.0
H392 H 0.3623 0.14161 0.64326 0.0
H393 H 0.36744 0.10989 0.63002 0.0
H394 H 0.4205 0.1483 0.67234 0.0
H395 H 0.42572 0.11701 0.65897 0.0
H396 H 0.47063 0.04963 0.63138 0.0
H397 H 0.44097 0.98922 0.60101 0.0
H398 H 0.40725 0.99882 0.59481 0.0
H399 H 0.43686 0.05934 0.62491 0.0
C400 C 0.30103 0.32572 0.91446 0.0
C401 C 0.32435 0.32876 0.90956 0.0
C402 C 0.30623 0.31567 0.88629 0.0
C403 C 0.3269 0.32369 0.89564 0.0
C404 C 0.28273 0.31226 0.89129 0.0
C405 C 0.28016 0.31724 0.90528 0.0
U406 U 0.33553 0.3643 0.94579 0.0
O407 O 0.32847 0.38933 0.95929 0.0
O408 O 0.33043 0.35725 0.96837 0.0
C409 C 0.32576 0.3759 0.97052 0.0
C410 C 0.29934 0.33353 0.92875 0.0
C411 C 0.30323 0.36993 0.97902 0.0
C412 C 0.25723 0.34822 0.98249 0.0
C413 C 0.27844 0.35271 0.97441 0.0
C414 C 0.28554 0.37789 0.99985 0.0
C415 C 0.26055 0.36091 0.99527 0.0
C416 C 0.30665 0.38232 0.99179 0.0
C417 C 0.40834 0.40371 0.94246 0.0
C418 C 0.43533 0.43948 0.95731 0.0
C419 C 0.45445 0.4252 0.93988 0.0
C420 C 0.43018 0.40605 0.93592 0.0
C421 C 0.45729 0.44242 0.95045 0.0
C422 C 0.41102 0.42022 0.95337 0.0
C423 C 0.38301 0.38506 0.93716 0.0
O424 O 0.30919 0.3257 0.93852 0.0
O425 O 0.30613 0.3575 0.93 0.0
O426 O 0.36764 0.39398 0.93418 0.0
O427 O 0.37159 0.36337 0.94375 0.0
H428 H 0.34084 0.33571 0.91643 0.0
H429 H 0.34539 0.32699 0.8921 0.0
H430 H 0.26643 0.30599 0.88435 0.0
H431 H 0.26208 0.31501 0.90886 0.0
H432 H 0.23827 0.33487 0.97872 0.0
H433 H 0.27551 0.34299 0.96454 0.0
H434 H 0.28882 0.38834 1.00949 0.0
H435 H 0.32568 0.39577 0.99545 0.0
H436 H 0.43692 0.4523 0.96558 0.0
H437 H 0.47091 0.42714 0.93425 0.0
H438 H 0.42842 0.3935 0.92745 0.0
H439 H 0.3943 0.41859 0.95857 0.0
C440 C 0.98288 0.28896 0.24301 0.0
C441 C 0.98554 0.30839 0.23412 0.0
C442 C 1.00068 0.29197 0.21553 0.0
C443 C 0.9942 0.30978 0.22049 0.0
C444 C 0.99852 0.27282 0.22455 0.0
C445 C 0.98957 0.27128 0.23818 0.0
U446 U 0.97508 0.32089 0.27496 0.0
O447 O 0.94193 0.31137 0.28824 0.0
O448 O 0.97658 0.31361 0.29739 0.0
C449 C 0.95249 0.30735 0.29927 0.0
C450 C 0.97335 0.28722 0.25732 0.0
C451 C 0.93656 0.28355 0.30676 0.0
C452 C 0.90037 0.24093 0.30754 0.0
C453 C 0.91674 0.2625 0.29997 0.0
C454 C 0.92417 0.26062 0.32865 0.0
C455 C 0.90361 0.23985 0.32203 0.0
C456 C 0.94039 0.28227 0.32109 0.0
C457 C 1.00322 0.39242 0.27396 0.0
C458 C 0.98991 0.41592 0.28898 0.0
C459 C 0.028 0.43811 0.27485 0.0
C460 C 0.02423 0.41511 0.26963 0.0
C461 C 1.01073 0.43879 0.28447 0.0
C462 C 0.98625 0.3929 0.28382 0.0
C463 C 0.99889 0.36858 0.26774 0.0
O464 O 0.99108 0.29765 0.26702 0.0
O465 O 0.95474 0.2925 0.25869 0.0
O466 O 0.9751 0.35266 0.26419 0.0
O467 O 1.01046 0.35771 0.27394 0.0
H468 H 0.98083 0.32247 0.23771 0.0
H469 H 0.99607 0.32497 0.21384 0.0
H470 H 1.00333 0.25883 0.22098 0.0
H471 H 0.98777 0.25624 0.24492 0.0
H472 H 0.88462 0.22547 0.30209 0.0
H473 H 0.91345 0.26294 0.28888 0.0
H474 H 0.92758 0.26028 0.33973 0.0
H475 H 0.95567 0.29825 0.32651 0.0
H476 H 0.97645 0.41585 0.29649 0.0
H477 H 0.04404 0.4554 0.27105 0.0
H478 H 0.03749 0.41508 0.26202 0.0
H479 H 0.97 0.37552 0.28737 0.0
H480 H 0.05666 0.5725 0.07674 0.0
H481 H 0.9745 0.52959 0.0725 0.0
H482 H 0.97656 0.49083 0.06991 0.0
H483 H 1.00124 0.46861 0.07113 0.0
H484 H 0.08319 0.51127 0.07644 0.0
H485 H 0.08169 0.55056 0.07618 0.0
C486 C 0.03923 0.55467 0.07517 0.0
C487 C 1.01546 0.55395 0.07493 0.0
C488 C 0.04049 0.53236 0.07394 0.0
C489 C 0.99308 0.53076 0.07262 0.0
C490 C 0.9942 0.50852 0.07125 0.0
C491 C 1.01878 0.48653 0.07216 0.0
C492 C 0.04225 0.48697 0.07393 0.0
C493 C 1.01773 0.50903 0.07225 0.0
C494 C 0.06488 0.51036 0.07497 0.0
C495 C 0.06402 0.53285 0.07494 0.0
H496 H 0.54333 0.98414 0.40691 0.0
H497 H 0.58217 0.06545 0.40863 0.0
H498 H 0.54114 0.06454 0.40842 0.0
H499 H 0.49429 0.0406 0.41014 0.0
H500 H 0.45551 0.95926 0.40969 0.0
H501 H 0.49635 0.96025 0.40691 0.0
C502 C 0.54281 1.00166 0.40717 0.0
C503 C 0.56582 0.0248 0.40791 0.0
C504 C 0.51913 1.001 0.40736 0.0
C505 C 0.5648 0.04736 0.40794 0.0
C506 C 0.54132 0.04687 0.40796 0.0
C507 C 0.49478 0.0231 0.40938 0.0
C508 C 0.47189 0.99991 0.41026 0.0
C509 C 0.51838 0.02379 0.40804 0.0
C510 C 0.4728 0.97738 0.40896 0.0
C511 C 0.49618 0.97792 0.40748 0.0
H512 H 0.49269 0.4785 0.72105 0.0
H513 H 0.5271 0.44891 0.74949 0.0
H514 H 0.56187 0.49151 0.75434 0.0
H515 H 0.58132 0.5371 0.7514 0.0
H516 H 0.54607 0.56731 0.72394 0.0
H517 H 0.51325 0.52458 0.7175 0.0
C518 C 0.508 0.48143 0.72816 0.0
C519 C 0.50729 0.46066 0.73498 0.0
C520 C 0.52777 0.50606 0.73107 0.0
C521 C 0.52711 0.46467 0.74426 0.0
C522 C 0.547 0.48898 0.747 0.0
C523 C 0.5664 0.53438 0.74405 0.0
C524 C 0.56607 0.55544 0.73828 0.0
C525 C 0.54729 0.50982 0.74066 0.0
C526 C 0.54694 0.55149 0.72849 0.0
C527 C 0.52803 0.52704 0.72488 0.0
H528 H 0.53994 0.98223 0.61984 0.0
H529 H 0.59142 0.0626 0.62047 0.0
H530 H 0.55507 0.07004 0.6215 0.0
H531 H 0.50875 0.05377 0.61995 0.0
H532 H 0.45729 0.97339 0.61942 0.0
H533 H 0.4936 0.96592 0.62076 0.0
C534 C 0.54326 1.00137 0.62054 0.0
C535 C 0.56838 0.02183 0.61995 0.0
C536 C 0.52226 1.00552 0.621 0.0
C537 C 0.57227 0.04652 0.62067 0.0
C538 C 0.5515 0.05079 0.62129 0.0
C539 C 0.50543 0.03461 0.62045 0.0
C540 C 0.48032 1.01418 0.61945 0.0
C541 C 0.5264 0.03045 0.62112 0.0
C542 C 0.47643 0.98947 0.61993 0.0
C543 C 0.49718 0.98517 0.62074 0.0
H544 H 0.46935 0.49122 0.95442 0.0
H545 H 0.50288 0.4429 0.95303 0.0
H546 H 0.54565 0.47967 0.95472 0.0
H547 H 0.57346 0.5256 0.95423 0.0
H548 H 0.53997 0.57397 0.95549 0.0
H549 H 0.49719 0.53707 0.95638 0.0
C550 C 0.48597 0.48868 0.95482 0.0
C551 C 0.48292 0.46436 0.95347 0.0
C552 C 0.51051 0.50992 0.95564 0.0
C553 C 0.50472 0.46145 0.95382 0.0
C554 C 0.52918 0.48246 0.95482 0.0
C555 C 0.55685 0.5281 0.95504 0.0
C556 C 0.5599 0.55251 0.95469 0.0
C557 C 0.53231 0.50681 0.95539 0.0
C558 C 0.53812 0.55537 0.95554 0.0
C559 C 0.51366 0.53429 0.95607 0.0
H560 H 1.00797 0.5385 0.29896 0.0
H561 H 0.08879 0.56626 0.30465 0.0
H562 H 0.0826 0.52426 0.29994 0.0
H563 H 0.05465 0.48018 0.29292 0.0
H564 H 0.97397 0.45252 0.28673 0.0
H565 H 0.97965 0.49384 0.29298 0.0
C566 C 0.0242 0.53532 0.29917 0.0
C567 C 0.04881 0.55551 0.3021 0.0
C568 C 1.02055 0.51115 0.29633 0.0
C569 C 0.06961 0.55101 0.30256 0.0
C570 C 0.06612 0.52703 0.29977 0.0
C571 C 0.03832 0.48322 0.29295 0.0
C572 C 1.01397 0.46336 0.28929 0.0
C573 C 0.04175 0.50706 0.29645 0.0
C574 C 0.9929 0.46744 0.28961 0.0
C575 C 0.99615 0.49111 0.29309 0.0
H576 H 0.97918 0.29834 0.19213 0.0
H577 H 0.04211 0.28893 0.20633 0.0
H578 H 0.05818 0.29414 0.18242 0.0
H579 H 0.05564 0.30399 0.1577 0.0
H580 H 0.992 0.31257 0.14369 0.0
H581 H 0.97508 0.30534 0.16732 0.0
C582 C 0.99642 0.29745 0.18998 0.0
C583 C 1.00958 0.2935 0.20097 0.0
C584 C 1.00551 0.30048 0.17626 0.0
C585 C 0.03161 0.29188 0.19801 0.0
C586 C 0.04086 0.29497 0.18437 0.0
C587 C 0.03786 0.30387 0.15977 0.0
C588 C 0.02532 0.30915 0.14894 0.0
C589 C 0.02812 0.29958 0.17342 0.0
C590 C 1.00236 0.3091 0.15187 0.0
C591 C 0.99258 0.30485 0.16537 0.0
H592 H 0.76416 0.04422 0.49578 0.0
H593 H 0.69408 0.98008 0.48132 0.0
H594 H 0.68445 0.96347 0.50497 0.0
H595 H 0.69476 0.9681 0.52994 0.0
H596 H 0.76508 0.03147 0.54454 0.0
H597 H 0.77612 0.04713 0.52061 0.0
C598 C 0.74701 0.02638 0.49775 0.0
C599 C 0.72972 1.01363 0.48678 0.0
C600 C 0.74161 0.01681 0.51141 0.0
C601 C 0.70747 0.99061 0.48959 0.0
C602 C 0.70198 0.981 0.50311 0.0
C603 C 0.71252 0.98531 0.52785 0.0
C604 C 0.72897 0.99876 0.53896 0.0
C605 C 0.71868 0.99416 0.51412 0.0
C606 C 0.75215 0.02078 0.53613 0.0
C607 C 0.7584 0.02978 0.52247 0.0
H608 H 0.71494 0.69496 0.82125 0.0
H609 H 0.72782 0.76975 0.83014 0.0
H610 H 0.73846 0.76595 0.85431 0.0
H611 H 0.74113 0.74011 0.87338 0.0
H612 H 0.72597 0.66459 0.86452 0.0
H613 H 0.71878 0.66978 0.83995 0.0
C614 C 0.71992 0.7104 0.82848 0.0
C615 C 0.72035 0.73252 0.82387 0.0
C616 C 0.72543 0.70787 0.84242 0.0
C617 C 0.72751 0.75257 0.83333 0.0
C618 C 0.73342 0.75035 0.8472 0.0
C619 C 0.73658 0.72496 0.86601 0.0
C620 C 0.73394 0.70196 0.87074 0.0
C621 C 0.73209 0.72794 0.85192 0.0
C622 C 0.72781 0.68236 0.86113 0.0
C623 C 0.72376 0.68533 0.84709 0.0
H624 H 0.98488 0.68284 0.21138 0.0
H625 H 0.06634 0.71755 0.20504 0.0
H626 H 0.06082 0.72458 0.18051 0.0
H627 H 0.03254 0.7179 0.16045 0.0
H628 H 0.95093 0.68185 0.16665 0.0
H629 H 0.95684 0.67853 0.19161 0.0
C630 C 1.00142 0.69202 0.20463 0.0
C631 C 0.02595 0.6995 0.21002 0.0
C632 C 0.99808 0.69571 0.19048 0.0
C633 C 0.04726 0.71178 0.2012 0.0
C634 C 0.04411 0.71564 0.18714 0.0
C635 C 1.01607 0.7094 0.16728 0.0
C636 C 0.99134 0.70002 0.16167 0.0
C637 C 1.01956 0.70723 0.18161 0.0
C638 C 0.9702 0.68944 0.1707 0.0
C639 C 0.97354 0.68734 0.18496 0.0
H640 H 0.2834 0.97645 0.49996 0.0
H641 H 0.32611 0.05168 0.48325 0.0
H642 H 0.33459 0.06925 0.50684 0.0
H643 H 0.33181 0.06308 0.53223 0.0
H644 H 0.28936 0.98782 0.54895 0.0
H645 H 0.2787 0.97043 0.52534 0.0
C646 C 0.2942 0.99671 0.50148 0.0
C647 C 0.30416 1.01272 0.48986 0.0
C648 C 0.29917 1.00667 0.51507 0.0
C649 C 0.31847 0.03893 0.49202 0.0
C650 C 0.32326 0.04899 0.5055 0.0
C651 C 0.31987 0.04291 0.53071 0.0
C652 C 0.31145 0.02677 0.54234 0.0
C653 C 0.31399 0.03303 0.51711 0.0
C654 C 0.29632 1.00063 0.54017 0.0
C655 C 0.29016 0.99068 0.52668 0.0
H656 H 0.28975 0.33146 0.86396 0.0
H657 H 0.33141 0.29303 0.87485 0.0
H658 H 0.34227 0.29253 0.85038 0.0
H659 H 0.34309 0.30631 0.82625 0.0
H660 H 0.30148 0.34476 0.8153 0.0
H661 H 0.28724 0.34173 0.83941 0.0
C662 C 0.30073 0.32249 0.86095 0.0
C663 C 0.30993 0.31249 0.87125 0.0
C664 C 0.3071 0.32246 0.84686 0.0
C665 C 0.32443 0.30122 0.86716 0.0
C666 C 0.33059 0.30086 0.85316 0.0
C667 C 0.33043 0.31352 0.82906 0.0
C668 C 0.32352 0.3259 0.81899 0.0
C669 C 0.32251 0.31192 0.84297 0.0
C670 C 0.30739 0.33547 0.82288 0.0
C671 C 0.2992 0.33369 0.83667 0.0
H672 H 0.2161 0.3572 0.98561 0.0
H673 H 0.25482 0.3572 0.02363 0.0
H674 H 0.22048 0.35664 0.03739 0.0
H675 H 0.18124 0.35955 0.03863 0.0
H676 H 0.142 0.35859 1.00063 0.0
H677 H 0.17466 0.35587 0.98689 0.0
C678 C 0.21679 0.35654 0.9969 0.0
C679 C 0.23819 0.35753 1.00356 0.0
C680 C 0.19698 0.35625 1.00477 0.0
C681 C 0.23884 0.35696 0.01822 0.0
C682 C 0.21915 0.35653 0.02611 0.0
C683 C 0.1795 0.3582 0.02736 0.0
C684 C 0.15931 0.35954 0.02069 0.0
C685 C 0.19839 0.35669 0.0195 0.0
C686 C 0.15759 0.35807 1.00604 0.0
C687 C 0.17621 0.35642 0.99816 0.0
H688 H 0.88491 0.24022 0.34781 0.0
H689 H 0.87962 0.18973 0.31475 0.0
H690 H 0.84593 0.15413 0.32738 0.0
H691 H 0.8167 0.13759 0.34742 0.0
H692 H 0.82289 0.18818 0.38059 0.0
H693 H 0.85808 0.22334 0.36849 0.0
C694 C 0.87683 0.22139 0.34346 0.0
C695 C 0.88476 0.21779 0.33027 0.0
C696 C 0.85762 0.20097 0.35082 0.0
C697 C 0.87362 0.1932 0.32475 0.0
C698 C 0.85442 0.17278 0.332 0.0
C699 C 0.82584 0.15632 0.352 0.0
C700 C 0.81715 0.16029 0.36486 0.0
C701 C 0.84601 0.1765 0.34495 0.0
C702 C 0.82937 0.18457 0.37077 0.0
C703 C 0.84938 0.20473 0.36381 0.0
H704 H 0.68426 0.80648 0.68286 0.0
H705 H 0.63714 0.81063 0.71542 0.0
H706 H 0.63769 0.84664 0.70395 0.0
H707 H 0.64942 0.87527 0.68406 0.0
H708 H 0.6977 0.87225 0.65174 0.0
H709 H 0.69842 0.83719 0.66361 0.0
C710 C 0.67416 0.81533 0.68743 0.0
C711 C 0.66063 0.80588 0.69994 0.0
C712 C 0.67456 0.83605 0.68077 0.0
C713 C 0.64788 0.81769 0.70586 0.0
C714 C 0.64806 0.83819 0.69927 0.0
C715 C 0.66055 0.86734 0.67971 0.0
C716 C 0.67334 0.87639 0.66695 0.0
C717 C 0.66113 0.84737 0.68666 0.0
C718 C 0.68726 0.86544 0.66141 0.0
C719 C 0.68781 0.84545 0.66823 0.0
H720 H 0.89284 0.67005 1.01172 0.0
H721 H 0.86218 0.66971 0.05241 0.0
H722 H 0.82645 0.67188 0.04167 0.0
H723 H 0.80225 0.67076 0.02074 0.0
H724 H 0.83161 0.66851 0.98006 0.0
H725 H 0.86952 0.67067 0.99078 0.0
C726 C 0.87833 0.67043 0.01824 0.0
C727 C 0.88016 0.66956 0.03285 0.0
C728 C 0.85754 0.67117 1.012 0.0
C729 C 0.86145 0.67061 0.04115 0.0
C730 C 0.84086 0.67164 0.03501 0.0
C731 C 0.81693 0.67073 1.01422 0.0
C732 C 0.81395 0.66932 0.99962 0.0
C733 C 0.83846 0.67144 0.02045 0.0
C734 C 0.83346 0.66983 0.99132 0.0
C735 C 0.85508 0.67085 0.99744 0.0
H736 H 0.23353 0.84072 0.36607 0.0
H737 H 0.21248 0.89862 0.36213 0.0
H738 H 0.17626 0.87089 0.3472 0.0
H739 H 0.15178 0.83082 0.33439 0.0
H740 H 0.17413 0.77373 0.33786 0.0
H741 H 0.20853 0.80047 0.35388 0.0
C742 C 0.22107 0.84731 0.36191 0.0
C743 C 0.22583 0.87177 0.36512 0.0
C744 C 0.2005 0.8314 0.35324 0.0
C745 C 0.20916 0.87982 0.35989 0.0
C746 C 0.18854 0.86403 0.35128 0.0
C747 C 0.16422 0.82427 0.33863 0.0
C748 C 0.16034 0.80028 0.3349 0.0
C749 C 0.18422 0.83989 0.34774 0.0
C750 C 0.17641 0.79194 0.34067 0.0
C751 C 0.19624 0.8073 0.34977 0.0
H752 H 0.39849 0.23588 0.69648 0.0
H753 H 0.31629 0.19208 0.69286 0.0
H754 H 0.32021 0.16194 0.67768 0.0
H755 H 0.34704 0.14718 0.66615 0.0
H756 H 0.42923 0.19159 0.66964 0.0
H757 H 0.42522 0.22241 0.68407 0.0
C758 C 0.38142 0.21999 0.69219 0.0
C759 C 0.35714 0.21628 0.69582 0.0
C760 C 0.3838 0.20274 0.6835 0.0
C761 C 0.33522 0.19526 0.69037 0.0
C762 C 0.33744 0.17806 0.68164 0.0
C763 C 0.36407 0.16378 0.66991 0.0
C764 C 0.38839 0.16695 0.6669 0.0
C765 C 0.36164 0.18147 0.67824 0.0
C766 C 0.41026 0.18845 0.67199 0.0
C767 C 0.408 0.20616 0.68019 0.0
loop_
_geom_bond_atom_site_label_1
_geom_bond_atom_site_label_2
_geom_bond_distance
_geom_bond_site_symmetry_2
_ccdc_geom_bond_type
C0 C1 1.264 . S
C0 C5 1.479 1_655 S
C0 C10 1.465 1_655 S
C1 C0 1.264 . S
C1 C3 1.339 . S
C1 H28 0.931 . S
C2 C3 1.395 . S
C2 C4 1.320 . S
C3 C1 1.339 . S
C3 C2 1.395 . S
C3 H29 0.929 . S
C4 C2 1.320 . S
C4 C5 1.405 1_655 S
C4 H30 0.930 . S
C5 C0 1.479 1_455 S
C5 C4 1.405 1_455 S
C5 H31 0.931 . S
U6 O7 2.454 . S
U6 O8 2.458 . S
U6 C9 2.984 . S
U6 C10 2.847 . S
U6 C23 2.882 . S
U6 O24 2.441 . S
U6 O25 2.420 . S
U6 O26 2.455 . S
U6 O27 2.449 . S
O7 U6 2.454 . S
O7 C9 1.353 . S
O8 U6 2.458 . S
O8 C9 1.286 . S
C9 U6 2.984 . S
C9 O7 1.353 . S
C9 O8 1.286 . S
C9 C11 1.363 . S
C10 C0 1.465 1_455 S
C10 U6 2.847 . S
C10 O24 1.249 . S
C10 O25 1.202 . S
C11 C9 1.363 . S
C11 C13 1.408 . S
C11 C16 1.342 . S
C12 C13 1.310 . S
C12 C15 1.461 . S
C12 H32 0.932 . S
C13 C11 1.408 . S
C13 C12 1.310 . S
C13 H33 0.930 . S
C14 C15 1.474 . S
C14 C16 1.285 . S
C14 H34 0.929 1_554 S
C15 C12 1.461 . S
C15 C14 1.474 . S
C16 C11 1.342 . S
C16 C14 1.285 . S
C16 H35 0.930 . S
C17 C20 1.446 . S
C17 C22 1.247 1_655 S
C17 C23 1.407 1_655 S
C18 C21 1.260 . S
C18 C22 1.477 1_655 S
C18 H36 0.932 . S
C19 C20 1.384 . S
C19 C21 1.479 . S
C19 H37 0.929 . S
C20 C17 1.446 . S
C20 C19 1.384 . S
C20 H38 0.928 . S
C21 C18 1.260 . S
C21 C19 1.479 . S
C22 C17 1.247 1_455 S
C22 C18 1.477 1_455 S
C22 H39 0.932 . S
C23 U6 2.882 . S
C23 C17 1.407 1_455 S
C23 O26 1.301 . S
C23 O27 1.282 . S
O24 U6 2.441 . S
O24 C10 1.249 . S
O25 U6 2.420 . S
O25 C10 1.202 . S
O26 U6 2.455 . S
O26 C23 1.301 . S
O27 U6 2.449 . S
O27 C23 1.282 . S
H28 C1 0.931 . S
H29 C3 0.929 . S
H30 C4 0.930 . S
H31 C5 0.931 . S
H32 C12 0.932 . S
H33 C13 0.930 . S
H34 C14 0.929 1_556 S
H35 C16 0.930 . S
H36 C18 0.932 . S
H37 C19 0.929 . S
H38 C20 0.928 . S
H39 C22 0.932 . S
C40 C41 1.264 . S
C40 C45 1.479 . S
C40 C50 1.465 1_565 S
C41 C40 1.264 . S
C41 C43 1.339 . S
C41 H68 0.931 . S
C42 C43 1.395 . S
C42 C44 1.320 . S
C43 C41 1.339 . S
C43 C42 1.395 . S
C43 H69 0.929 . S
C44 C42 1.320 . S
C44 C45 1.405 . S
C44 H70 0.930 . S
C45 C40 1.479 . S
C45 C44 1.405 . S
C45 H71 0.931 1_565 S
U46 O47 2.454 . S
U46 O48 2.458 . S
U46 C49 2.984 . S
U46 C50 2.847 . S
U46 C63 2.882 . S
U46 O64 2.441 . S
U46 O65 2.420 . S
U46 O66 2.455 . S
U46 O67 2.449 . S
O47 U46 2.454 . S
O47 C49 1.353 . S
O48 U46 2.458 . S
O48 C49 1.286 . S
C49 U46 2.984 . S
C49 O47 1.353 . S
C49 O48 1.286 . S
C49 C51 1.363 . S
C50 C40 1.465 1_545 S
C50 U46 2.847 . S
C50 O64 1.249 . S
C50 O65 1.202 . S
C51 C49 1.363 . S
C51 C53 1.408 . S
C51 C56 1.342 . S
C52 C53 1.310 . S
C52 C55 1.461 . S
C52 H72 0.932 . S
C53 C51 1.408 . S
C53 C52 1.310 . S
C53 H73 0.930 . S
C54 C55 1.474 . S
C54 C56 1.285 . S
C54 H74 0.929 . S
C55 C52 1.461 . S
C55 C54 1.474 . S
C56 C51 1.342 . S
C56 C54 1.285 . S
C56 H75 0.930 . S
C57 C60 1.424 . S
C57 C62 1.245 . S
C57 C63 1.428 1_565 S
C58 C61 1.260 . S
C58 C62 1.477 . S
C58 H76 0.932 . S
C59 C60 1.384 . S
C59 C61 1.479 . S
C59 H77 0.929 . S
C60 C57 1.424 . S
C60 C59 1.384 . S
C60 H78 0.928 . S
C61 C58 1.260 . S
C61 C59 1.479 . S
C62 C57 1.245 . S
C62 C58 1.477 . S
C62 H79 0.932 1_565 S
C63 U46 2.882 . S
C63 C57 1.428 1_545 S
C63 O66 1.301 . S
C63 O67 1.282 . S
O64 U46 2.441 . S
O64 C50 1.249 . S
O65 U46 2.420 . S
O65 C50 1.202 . S
O66 U46 2.455 . S
O66 C63 1.301 . S
O67 U46 2.449 . S
O67 C63 1.282 . S
H68 C41 0.931 . S
H69 C43 0.929 . S
H70 C44 0.930 . S
H71 C45 0.931 1_545 S
H72 C52 0.932 . S
H73 C53 0.930 . S
H74 C54 0.929 . S
H75 C56 0.930 . S
H76 C58 0.932 . S
H77 C59 0.929 . S
H78 C60 0.928 . S
H79 C62 0.932 1_545 S
C80 C81 1.264 . S
C80 C85 1.479 . S
C80 C90 1.465 . S
C81 C80 1.264 . S
C81 C83 1.339 . S
C81 H108 0.931 . S
C82 C83 1.395 . S
C82 C84 1.320 . S
C83 C81 1.339 . S
C83 C82 1.395 . S
C83 H109 0.929 . S
C84 C82 1.320 . S
C84 C85 1.405 . S
C84 H110 0.930 . S
C85 C80 1.479 . S
C85 C84 1.405 . S
C85 H111 0.931 . S
U86 O87 2.454 . S
U86 O88 2.458 . S
U86 C89 2.984 . S
U86 C90 2.847 . S
U86 C103 2.882 . S
U86 O104 2.441 . S
U86 O105 2.420 . S
U86 O106 2.455 . S
U86 O107 2.449 . S
O87 U86 2.454 . S
O87 C89 1.353 . S
O88 U86 2.458 . S
O88 C89 1.286 . S
C89 U86 2.984 . S
C89 O87 1.353 . S
C89 O88 1.286 . S
C89 C91 1.363 . S
C90 C80 1.465 . S
C90 U86 2.847 . S
C90 O104 1.249 . S
C90 O105 1.202 . S
C91 C89 1.363 . S
C91 C93 1.408 . S
C91 C96 1.342 . S
C92 C93 1.310 . S
C92 C95 1.461 . S
C92 H112 0.932 . S
C93 C91 1.408 . S
C93 C92 1.310 . S
C93 H113 0.930 . S
C94 C95 1.474 . S
C94 C96 1.285 . S
C94 H114 0.929 . S
C95 C92 1.461 . S
C95 C94 1.474 . S
C96 C91 1.342 . S
C96 C94 1.285 . S
C96 H115 0.930 . S
C97 C100 1.424 . S
C97 C102 1.245 . S
C97 C103 1.428 . S
C98 C101 1.260 . S
C98 C102 1.477 . S
C98 H116 0.932 . S
C99 C100 1.384 . S
C99 C101 1.479 . S
C99 H117 0.929 . S
C100 C97 1.424 . S
C100 C99 1.384 . S
C100 H118 0.928 . S
C101 C98 1.260 . S
C101 C99 1.479 . S
C102 C97 1.245 . S
C102 C98 1.477 . S
C102 H119 0.932 . S
C103 U86 2.882 . S
C103 C97 1.428 . S
C103 O106 1.301 . S
C103 O107 1.282 . S
O104 U86 2.441 . S
O104 C90 1.249 . S
O105 U86 2.420 . S
O105 C90 1.202 . S
O106 U86 2.455 . S
O106 C103 1.301 . S
O107 U86 2.449 . S
O107 C103 1.282 . S
H108 C81 0.931 . S
H109 C83 0.929 . S
H110 C84 0.930 . S
H111 C85 0.931 . S
H112 C92 0.932 . S
H113 C93 0.930 . S
H114 C94 0.929 . S
H115 C96 0.930 . S
H116 C98 0.932 . S
H117 C99 0.929 . S
H118 C100 0.928 . S
H119 C102 0.932 . S
C120 C121 1.264 . S
C120 C125 1.479 1_455 S
C120 C130 1.465 1_455 S
C121 C120 1.264 . S
C121 C123 1.339 . S
C121 H148 0.931 . S
C122 C123 1.395 . S
C122 C124 1.320 . S
C123 C121 1.339 . S
C123 C122 1.395 . S
C123 H149 0.929 . S
C124 C122 1.320 . S
C124 C125 1.405 1_455 S
C124 H150 0.930 . S
C125 C120 1.479 1_655 S
C125 C124 1.405 1_655 S
C125 H151 0.931 . S
U126 O127 2.454 . S
U126 O128 2.458 . S
U126 C129 2.984 . S
U126 C130 2.847 . S
U126 C143 2.882 . S
U126 O144 2.441 . S
U126 O145 2.420 . S
U126 O146 2.455 . S
U126 O147 2.449 . S
O127 U126 2.454 . S
O127 C129 1.353 . S
O128 U126 2.458 . S
O128 C129 1.286 . S
C129 U126 2.984 . S
C129 O127 1.353 . S
C129 O128 1.286 . S
C129 C131 1.363 . S
C130 C120 1.465 1_655 S
C130 U126 2.847 . S
C130 O144 1.249 . S
C130 O145 1.202 . S
C131 C129 1.363 . S
C131 C133 1.408 . S
C131 C136 1.342 . S
C132 C133 1.310 . S
C132 C135 1.461 . S
C132 H152 0.932 . S
C133 C131 1.408 . S
C133 C132 1.310 . S
C133 H153 0.930 . S
C134 C135 1.474 . S
C134 C136 1.285 . S
C134 H154 0.971 . S
C135 C132 1.461 . S
C135 C134 1.474 . S
C136 C131 1.342 . S
C136 C134 1.285 . S
C136 H155 0.930 . S
C137 C140 1.459 . S
C137 C142 1.248 1_455 S
C137 C143 1.396 1_455 S
C138 C141 1.260 . S
C138 C142 1.477 1_455 S
C138 H156 0.932 . S
C139 C140 1.384 . S
C139 C141 1.479 . S
C139 H157 0.929 . S
C140 C137 1.459 . S
C140 C139 1.384 . S
C140 H158 0.928 . S
C141 C138 1.260 . S
C141 C139 1.479 . S
C142 C137 1.248 1_655 S
C142 C138 1.477 1_655 S
C142 H159 0.932 . S
C143 U126 2.882 . S
C143 C137 1.396 1_655 S
C143 O146 1.301 . S
C143 O147 1.282 . S
O144 U126 2.441 . S
O144 C130 1.249 . S
O145 U126 2.420 . S
O145 C130 1.202 . S
O146 U126 2.455 . S
O146 C143 1.301 . S
O147 U126 2.449 . S
O147 C143 1.282 . S
H148 C121 0.931 . S
H149 C123 0.929 . S
H150 C124 0.930 . S
H151 C125 0.931 . S
H152 C132 0.932 . S
H153 C133 0.930 . S
H154 C134 0.971 . S
H155 C136 0.930 . S
H156 C138 0.932 . S
H157 C139 0.929 . S
H158 C140 0.928 . S
H159 C142 0.932 . S
C160 C161 1.264 1_565 S
C160 C165 1.479 . S
C160 C170 1.465 . S
C161 C160 1.264 1_545 S
C161 C163 1.339 . S
C161 H188 0.931 . S
C162 C163 1.395 . S
C162 C164 1.320 . S
C163 C161 1.339 . S
C163 C162 1.395 . S
C163 H189 0.929 . S
C164 C162 1.320 . S
C164 C165 1.405 1_545 S
C164 H190 0.930 . S
C165 C160 1.479 . S
C165 C164 1.405 1_565 S
C165 H191 0.931 . S
U166 O167 2.454 . S
U166 O168 2.458 . S
U166 C169 2.984 . S
U166 C170 2.847 . S
U166 C183 2.882 . S
U166 O184 2.441 . S
U166 O185 2.420 . S
U166 O186 2.455 . S
U166 O187 2.449 . S
O167 U166 2.454 . S
O167 C169 1.353 . S
O168 U166 2.458 . S
O168 C169 1.286 . S
C169 U166 2.984 . S
C169 O167 1.353 . S
C169 O168 1.286 . S
C169 C171 1.363 . S
C170 C160 1.465 . S
C170 U166 2.847 . S
C170 O184 1.249 . S
C170 O185 1.202 . S
C171 C169 1.363 . S
C171 C173 1.408 . S
C171 C176 1.342 . S
C172 C173 1.310 . S
C172 C175 1.461 . S
C172 H192 0.932 . S
C173 C171 1.408 . S
C173 C172 1.310 . S
C173 H193 0.930 . S
C174 C175 1.474 . S
C174 C176 1.285 . S
C174 H194 0.929 . S
C175 C172 1.461 . S
C175 C174 1.474 . S
C176 C171 1.342 . S
C176 C174 1.285 . S
C176 H195 0.930 . S
C177 C180 1.424 1_565 S
C177 C182 1.245 . S
C177 C183 1.428 . S
C178 C181 1.260 . S
C178 C182 1.477 1_545 S
C178 H196 0.932 1_545 S
C179 C180 1.384 . S
C179 C181 1.479 . S
C179 H197 0.929 . S
C180 C177 1.424 1_545 S
C180 C179 1.384 . S
C180 H198 0.928 . S
C181 C178 1.260 . S
C181 C179 1.479 . S
C182 C177 1.245 . S
C182 C178 1.477 1_565 S
C182 H199 0.932 . S
C183 U166 2.882 . S
C183 C177 1.428 . S
C183 O186 1.301 . S
C183 O187 1.282 . S
O184 U166 2.441 . S
O184 C170 1.249 . S
O185 U166 2.420 . S
O185 C170 1.202 . S
O186 U166 2.455 . S
O186 C183 1.301 . S
O187 U166 2.449 . S
O187 C183 1.282 . S
H188 C161 0.931 . S
H189 C163 0.929 . S
H190 C164 0.930 . S
H191 C165 0.931 . S
H192 C172 0.932 . S
H193 C173 0.930 . S
H194 C174 0.929 . S
H195 C176 0.930 . S
H196 C178 0.932 1_565 S
H197 C179 0.929 . S
H198 C180 0.928 . S
H199 C182 0.932 . S
C200 C201 1.264 . S
C200 C205 1.479 . S
C200 C210 1.465 . S
C201 C200 1.264 . S
C201 C203 1.339 . S
C201 H228 0.931 . S
C202 C203 1.395 . S
C202 C204 1.320 . S
C203 C201 1.339 . S
C203 C202 1.395 . S
C203 H229 0.929 . S
C204 C202 1.320 . S
C204 C205 1.405 . S
C204 H230 0.930 . S
C205 C200 1.479 . S
C205 C204 1.405 . S
C205 H231 0.931 . S
U206 O207 2.454 . S
U206 O208 2.458 . S
U206 C209 2.984 . S
U206 C210 2.847 . S
U206 C223 2.882 . S
U206 O224 2.441 . S
U206 O225 2.420 . S
U206 O226 2.455 . S
U206 O227 2.449 . S
O207 U206 2.454 . S
O207 C209 1.353 . S
O208 U206 2.458 . S
O208 C209 1.286 . S
C209 U206 2.984 . S
C209 O207 1.353 . S
C209 O208 1.286 . S
C209 C211 1.363 . S
C210 C200 1.465 . S
C210 U206 2.847 . S
C210 O224 1.249 . S
C210 O225 1.202 . S
C211 C209 1.363 . S
C211 C213 1.408 . S
C211 C216 1.342 . S
C212 C213 1.310 . S
C212 C215 1.461 . S
C212 H232 0.932 . S
C213 C211 1.408 . S
C213 C212 1.310 . S
C213 H233 0.930 . S
C214 C215 1.474 . S
C214 C216 1.285 . S
C214 H234 0.929 . S
C215 C212 1.461 . S
C215 C214 1.474 . S
C216 C211 1.342 . S
C216 C214 1.285 . S
C216 H235 0.930 . S
C217 C220 1.424 . S
C217 C222 1.245 . S
C217 C223 1.428 . S
C218 C221 1.260 . S
C218 C222 1.477 . S
C218 H236 0.932 . S
C219 C220 1.384 . S
C219 C221 1.479 . S
C219 H237 0.929 . S
C220 C217 1.424 . S
C220 C219 1.384 . S
C220 H238 0.928 . S
C221 C218 1.260 . S
C221 C219 1.479 . S
C222 C217 1.245 . S
C222 C218 1.477 . S
C222 H239 0.932 . S
C223 U206 2.882 . S
C223 C217 1.428 . S
C223 O226 1.301 . S
C223 O227 1.282 . S
O224 U206 2.441 . S
O224 C210 1.249 . S
O225 U206 2.420 . S
O225 C210 1.202 . S
O226 U206 2.455 . S
O226 C223 1.301 . S
O227 U206 2.449 . S
O227 C223 1.282 . S
H228 C201 0.931 . S
H229 C203 0.929 . S
H230 C204 0.930 . S
H231 C205 0.931 . S
H232 C212 0.932 . S
H233 C213 0.930 . S
H234 C214 0.929 . S
H235 C216 0.930 . S
H236 C218 0.932 . S
H237 C219 0.929 . S
H238 C220 0.928 . S
H239 C222 0.932 . S
C240 C241 1.264 . S
C240 C245 1.479 1_545 S
C240 C250 1.465 1_545 S
C241 C240 1.264 . S
C241 C243 1.339 . S
C241 H268 0.931 . S
C242 C243 1.395 . S
C242 C244 1.320 . S
C243 C241 1.339 . S
C243 C242 1.395 . S
C243 H269 0.929 . S
C244 C242 1.320 . S
C244 C245 1.405 1_545 S
C244 H270 0.930 . S
C245 C240 1.479 1_565 S
C245 C244 1.405 1_565 S
C245 H271 0.931 . S
U246 O247 2.454 . S
U246 O248 2.458 . S
U246 C249 2.984 . S
U246 C250 2.847 . S
U246 C263 2.882 . S
U246 O264 2.441 . S
U246 O265 2.420 . S
U246 O266 2.455 . S
U246 O267 2.449 . S
O247 U246 2.454 . S
O247 C249 1.353 . S
O248 U246 2.458 . S
O248 C249 1.286 . S
C249 U246 2.984 . S
C249 O247 1.353 . S
C249 O248 1.286 . S
C249 C251 1.363 . S
C250 C240 1.465 1_565 S
C250 U246 2.847 . S
C250 O264 1.249 . S
C250 O265 1.202 . S
C251 C249 1.363 . S
C251 C253 1.408 . S
C251 C256 1.342 . S
C252 C253 1.310 . S
C252 C255 1.461 . S
C252 H272 0.932 . S
C253 C251 1.408 . S
C253 C252 1.310 . S
C253 H273 0.930 . S
C254 C255 1.474 . S
C254 C256 1.285 . S
C254 H274 0.929 . S
C255 C252 1.461 . S
C255 C254 1.474 . S
C256 C251 1.342 . S
C256 C254 1.285 . S
C256 H275 0.930 . S
C257 C260 1.455 . S
C257 C262 1.248 1_545 S
C257 C263 1.399 1_545 S
C258 C261 1.260 . S
C258 C262 1.477 1_545 S
C258 H276 0.932 . S
C259 C260 1.384 . S
C259 C261 1.479 . S
C259 H277 0.929 . S
C260 C257 1.455 . S
C260 C259 1.384 . S
C260 H278 0.928 . S
C261 C258 1.260 . S
C261 C259 1.479 . S
C262 C257 1.248 1_565 S
C262 C258 1.477 1_565 S
C262 H279 0.932 . S
C263 U246 2.882 . S
C263 C257 1.399 1_565 S
C263 O266 1.301 . S
C263 O267 1.282 . S
O264 U246 2.441 . S
O264 C250 1.249 . S
O265 U246 2.420 . S
O265 C250 1.202 . S
O266 U246 2.455 . S
O266 C263 1.301 . S
O267 U246 2.449 . S
O267 C263 1.282 . S
H268 C241 0.931 . S
H269 C243 0.929 . S
H270 C244 0.930 . S
H271 C245 0.931 . S
H272 C252 0.932 . S
H273 C253 0.930 . S
H274 C254 0.929 . S
H275 C256 0.930 . S
H276 C258 0.932 . S
H277 C259 0.929 . S
H278 C260 0.928 . S
H279 C262 0.932 . S
C280 C281 1.264 . S
C280 C285 1.479 . S
C280 C290 1.465 . S
C281 C280 1.264 . S
C281 C283 1.339 . S
C281 H308 0.931 . S
C282 C283 1.395 . S
C282 C284 1.320 . S
C283 C281 1.339 . S
C283 C282 1.395 . S
C283 H309 0.929 . S
C284 C282 1.320 . S
C284 C285 1.405 . S
C284 H310 0.930 . S
C285 C280 1.479 . S
C285 C284 1.405 . S
C285 H311 0.931 . S
U286 O287 2.454 . S
U286 O288 2.458 . S
U286 C289 2.984 . S
U286 C290 2.847 . S
U286 C303 2.882 . S
U286 O304 2.441 . S
U286 O305 2.420 . S
U286 O306 2.455 . S
U286 O307 2.449 . S
O287 U286 2.454 . S
O287 C289 1.353 . S
O288 U286 2.458 . S
O288 C289 1.286 . S
C289 U286 2.984 . S
C289 O287 1.353 . S
C289 O288 1.286 . S
C289 C291 1.363 . S
C290 C280 1.465 . S
C290 U286 2.847 . S
C290 O304 1.249 . S
C290 O305 1.202 . S
C291 C289 1.363 . S
C291 C293 1.408 . S
C291 C296 1.342 . S
C292 C293 1.310 . S
C292 C295 1.461 . S
C292 H312 0.932 . S
C293 C291 1.408 . S
C293 C292 1.310 . S
C293 H313 0.930 . S
C294 C295 1.474 . S
C294 C296 1.285 . S
C294 H314 0.929 1_556 S
C295 C292 1.461 . S
C295 C294 1.474 . S
C296 C291 1.342 . S
C296 C294 1.285 . S
C296 H315 0.930 . S
C297 C300 1.424 . S
C297 C302 1.245 . S
C297 C303 1.428 . S
C298 C301 1.260 . S
C298 C302 1.477 . S
C298 H316 0.932 . S
C299 C300 1.384 . S
C299 C301 1.479 . S
C299 H317 0.929 . S
C300 C297 1.424 . S
C300 C299 1.384 . S
C300 H318 0.928 . S
C301 C298 1.260 . S
C301 C299 1.479 . S
C302 C297 1.245 . S
C302 C298 1.477 . S
C302 H319 0.932 . S
C303 U286 2.882 . S
C303 C297 1.428 . S
C303 O306 1.301 . S
C303 O307 1.282 . S
O304 U286 2.441 . S
O304 C290 1.249 . S
O305 U286 2.420 . S
O305 C290 1.202 . S
O306 U286 2.455 . S
O306 C303 1.301 . S
O307 U286 2.449 . S
O307 C303 1.282 . S
H308 C281 0.931 . S
H309 C283 0.929 . S
H310 C284 0.930 . S
H311 C285 0.931 . S
H312 C292 0.932 . S
H313 C293 0.930 . S
H314 C294 0.929 1_554 S
H315 C296 0.930 . S
H316 C298 0.932 . S
H317 C299 0.929 . S
H318 C300 0.928 . S
H319 C302 0.932 . S
C320 C321 1.264 . S
C320 C325 1.479 . S
C320 C330 1.465 . S
C321 C320 1.264 . S
C321 C323 1.339 . S
C321 H348 0.931 . S
C322 C323 1.395 . S
C322 C324 1.320 . S
C323 C321 1.339 . S
C323 C322 1.395 . S
C323 H349 0.929 . S
C324 C322 1.320 . S
C324 C325 1.405 . S
C324 H350 0.930 . S
C325 C320 1.479 . S
C325 C324 1.405 . S
C325 H351 0.931 . S
U326 O327 2.454 1_655 S
U326 O328 2.458 1_655 S
U326 C329 2.984 1_655 S
U326 C330 2.847 . S
U326 C343 2.882 . S
U326 O344 2.441 . S
U326 O345 2.420 . S
U326 O346 2.455 . S
U326 O347 2.449 . S
O327 U326 2.454 1_455 S
O327 C329 1.353 . S
O328 U326 2.458 1_455 S
O328 C329 1.286 . S
C329 U326 2.984 1_455 S
C329 O327 1.353 . S
C329 O328 1.286 . S
C329 C331 1.363 . S
C330 C320 1.465 . S
C330 U326 2.847 . S
C330 O344 1.249 . S
C330 O345 1.202 . S
C331 C329 1.363 . S
C331 C333 1.408 . S
C331 C336 1.342 . S
C332 C333 1.310 . S
C332 C335 1.461 . S
C332 H352 0.932 . S
C333 C331 1.408 . S
C333 C332 1.310 . S
C333 H353 0.930 . S
C334 C335 1.474 . S
C334 C336 1.285 . S
C334 H354 0.929 . S
C335 C332 1.461 . S
C335 C334 1.474 . S
C336 C331 1.342 . S
C336 C334 1.285 . S
C336 H355 0.930 . S
C337 C340 1.424 . S
C337 C342 1.245 . S
C337 C343 1.428 . S
C338 C341 1.260 . S
C338 C342 1.477 . S
C338 H356 0.932 . S
C339 C340 1.384 . S
C339 C341 1.479 . S
C339 H357 0.929 . S
C340 C337 1.424 . S
C340 C339 1.384 . S
C340 H358 0.928 . S
C341 C338 1.260 . S
C341 C339 1.479 . S
C342 C337 1.245 . S
C342 C338 1.477 . S
C342 H359 0.932 . S
C343 U326 2.882 . S
C343 C337 1.428 . S
C343 O346 1.301 . S
C343 O347 1.282 . S
O344 U326 2.441 . S
O344 C330 1.249 . S
O345 U326 2.420 . S
O345 C330 1.202 . S
O346 U326 2.455 . S
O346 C343 1.301 . S
O347 U326 2.449 . S
O347 C343 1.282 . S
H348 C321 0.931 . S
H349 C323 0.929 . S
H350 C324 0.930 . S
H351 C325 0.931 . S
H352 C332 0.932 . S
H353 C333 0.930 . S
H354 C334 0.929 . S
H355 C336 0.930 . S
H356 C338 0.932 . S
H357 C339 0.929 . S
H358 C340 0.928 . S
H359 C342 0.932 . S
C360 C361 1.264 . S
C360 C365 1.479 1_565 S
C360 C370 1.465 1_565 S
C361 C360 1.264 . S
C361 C363 1.339 . S
C361 H388 0.931 . S
C362 C363 1.395 . S
C362 C364 1.320 . S
C363 C361 1.339 . S
C363 C362 1.395 . S
C363 H389 0.929 . S
C364 C362 1.320 . S
C364 C365 1.405 1_565 S
C364 H390 0.930 . S
C365 C360 1.479 1_545 S
C365 C364 1.405 1_545 S
C365 H391 0.931 . S
U366 O367 2.454 . S
U366 O368 2.458 . S
U366 C369 2.984 . S
U366 C370 2.847 . S
U366 C383 2.882 . S
U366 O384 2.441 . S
U366 O385 2.420 . S
U366 O386 2.455 . S
U366 O387 2.449 . S
O367 U366 2.454 . S
O367 C369 1.353 . S
O368 U366 2.458 . S
O368 C369 1.286 . S
C369 U366 2.984 . S
C369 O367 1.353 . S
C369 O368 1.286 . S
C369 C371 1.363 . S
C370 C360 1.465 1_545 S
C370 U366 2.847 . S
C370 O384 1.249 . S
C370 O385 1.202 . S
C371 C369 1.363 . S
C371 C373 1.408 . S
C371 C376 1.342 . S
C372 C373 1.310 . S
C372 C375 1.461 . S
C372 H392 0.932 . S
C373 C371 1.408 . S
C373 C372 1.310 . S
C373 H393 0.930 . S
C374 C375 1.474 . S
C374 C376 1.285 . S
C374 H394 0.929 . S
C375 C372 1.461 . S
C375 C374 1.474 . S
C376 C371 1.342 . S
C376 C374 1.285 . S
C376 H395 0.930 . S
C377 C380 1.391 1_545 S
C377 C382 1.244 . S
C377 C383 1.458 . S
C378 C381 1.260 . S
C378 C382 1.477 1_565 S
C378 H396 0.932 . S
C379 C380 1.384 . S
C379 C381 1.479 . S
C379 H397 0.929 . S
C380 C377 1.391 1_565 S
C380 C379 1.384 . S
C380 H398 0.928 . S
C381 C378 1.260 . S
C381 C379 1.479 . S
C382 C377 1.244 . S
C382 C378 1.477 1_545 S
C382 H399 0.932 . S
C383 U366 2.882 . S
C383 C377 1.458 . S
C383 O386 1.301 . S
C383 O387 1.282 . S
O384 U366 2.441 . S
O384 C370 1.249 . S
O385 U366 2.420 . S
O385 C370 1.202 . S
O386 U366 2.455 . S
O386 C383 1.301 . S
O387 U366 2.449 . S
O387 C383 1.282 . S
H388 C361 0.931 . S
H389 C363 0.929 . S
H390 C364 0.930 . S
H391 C365 0.931 . S
H392 C372 0.932 . S
H393 C373 0.930 . S
H394 C374 0.929 . S
H395 C376 0.930 . S
H396 C378 0.932 . S
H397 C379 0.929 . S
H398 C380 0.928 . S
H399 C382 0.932 . S
C400 C401 1.264 . S
C400 C405 1.479 . S
C400 C410 1.465 . S
C401 C400 1.264 . S
C401 C403 1.339 . S
C401 H428 0.931 . S
C402 C403 1.395 . S
C402 C404 1.320 . S
C403 C401 1.339 . S
C403 C402 1.395 . S
C403 H429 0.929 . S
C404 C402 1.320 . S
C404 C405 1.405 . S
C404 H430 0.930 . S
C405 C400 1.479 . S
C405 C404 1.405 . S
C405 H431 0.931 . S
U406 O407 2.454 . S
U406 O408 2.458 . S
U406 C409 2.984 . S
U406 C410 2.847 . S
U406 C423 2.882 . S
U406 O424 2.441 . S
U406 O425 2.420 . S
U406 O426 2.455 . S
U406 O427 2.449 . S
O407 U406 2.454 . S
O407 C409 1.353 . S
O408 U406 2.458 . S
O408 C409 1.286 . S
C409 U406 2.984 . S
C409 O407 1.353 . S
C409 O408 1.286 . S
C409 C411 1.363 . S
C410 C400 1.465 . S
C410 U406 2.847 . S
C410 O424 1.249 . S
C410 O425 1.202 . S
C411 C409 1.363 . S
C411 C413 1.408 . S
C411 C416 1.342 . S
C412 C413 1.310 . S
C412 C415 1.461 . S
C412 H432 0.932 . S
C413 C411 1.408 . S
C413 C412 1.310 . S
C413 H433 0.930 . S
C414 C415 1.474 . S
C414 C416 1.285 . S
C414 H434 0.970 . S
C415 C412 1.461 . S
C415 C414 1.474 . S
C416 C411 1.342 . S
C416 C414 1.285 . S
C416 H435 0.930 . S
C417 C420 1.424 . S
C417 C422 1.245 . S
C417 C423 1.428 . S
C418 C421 1.260 . S
C418 C422 1.477 . S
C418 H436 0.932 . S
C419 C420 1.384 . S
C419 C421 1.479 . S
C419 H437 0.929 . S
C420 C417 1.424 . S
C420 C419 1.384 . S
C420 H438 0.928 . S
C421 C418 1.260 . S
C421 C419 1.479 . S
C422 C417 1.245 . S
C422 C418 1.477 . S
C422 H439 0.932 . S
C423 U406 2.882 . S
C423 C417 1.428 . S
C423 O426 1.301 . S
C423 O427 1.282 . S
O424 U406 2.441 . S
O424 C410 1.249 . S
O425 U406 2.420 . S
O425 C410 1.202 . S
O426 U406 2.455 . S
O426 C423 1.301 . S
O427 U406 2.449 . S
O427 C423 1.282 . S
H428 C401 0.931 . S
H429 C403 0.929 . S
H430 C404 0.930 . S
H431 C405 0.931 . S
H432 C412 0.932 . S
H433 C413 0.930 . S
H434 C414 0.970 . S
H435 C416 0.930 . S
H436 C418 0.932 . S
H437 C419 0.929 . S
H438 C420 0.928 . S
H439 C422 0.932 . S
C440 C441 1.267 . S
C440 C445 1.489 1_455 S
C440 C450 1.451 1_455 S
C441 C440 1.267 . S
C441 C443 1.339 . S
C441 H468 0.931 . S
C442 C443 1.395 . S
C442 C444 1.320 . S
C443 C441 1.339 . S
C443 C442 1.395 . S
C443 H469 0.929 . S
C444 C442 1.320 . S
C444 C445 1.405 1_455 S
C444 H470 0.930 . S
C445 C440 1.489 1_655 S
C445 C444 1.405 1_655 S
C445 H471 0.931 . S
U446 O447 2.454 . S
U446 O448 2.458 . S
U446 C449 2.984 . S
U446 C450 2.847 . S
U446 C463 2.882 . S
U446 O464 2.441 . S
U446 O465 2.420 . S
U446 O466 2.455 . S
U446 O467 2.449 . S
O447 U446 2.454 . S
O447 C449 1.353 . S
O448 U446 2.458 . S
O448 C449 1.286 . S
C449 U446 2.984 . S
C449 O447 1.353 . S
C449 O448 1.286 . S
C449 C451 1.363 . S
C450 C440 1.451 1_655 S
C450 U446 2.847 . S
C450 O464 1.249 . S
C450 O465 1.202 . S
C451 C449 1.363 . S
C451 C453 1.408 . S
C451 C456 1.342 . S
C452 C453 1.310 . S
C452 C455 1.461 . S
C452 H472 0.932 . S
C453 C451 1.408 . S
C453 C452 1.310 . S
C453 H473 0.930 . S
C454 C455 1.474 . S
C454 C456 1.285 . S
C454 H474 0.929 . S
C455 C452 1.461 . S
C455 C454 1.474 . S
C456 C451 1.342 . S
C456 C454 1.285 . S
C456 H475 0.930 . S
C457 C460 1.424 1_655 S
C457 C462 1.245 . S
C457 C463 1.428 . S
C458 C461 1.260 . S
C458 C462 1.477 1_455 S
C458 H476 0.951 . S
C459 C460 1.384 . S
C459 C461 1.479 . S
C459 H477 0.929 . S
C460 C457 1.424 1_455 S
C460 C459 1.384 . S
C460 H478 0.928 . S
C461 C458 1.260 . S
C461 C459 1.479 . S
C462 C457 1.245 . S
C462 C458 1.477 1_655 S
C462 H479 0.932 . S
C463 U446 2.882 . S
C463 C457 1.428 . S
C463 O466 1.301 . S
C463 O467 1.282 . S
O464 U446 2.441 . S
O464 C450 1.249 . S
O465 U446 2.420 . S
O465 C450 1.202 . S
O466 U446 2.455 . S
O466 C463 1.301 . S
O467 U446 2.449 . S
O467 C463 1.282 . S
H468 C441 0.931 . S
H469 C443 0.929 . S
H470 C444 0.930 . S
H471 C445 0.931 . S
H472 C452 0.932 . S
H473 C453 0.930 . S
H474 C454 0.929 . S
H475 C456 0.930 . S
H476 C458 0.951 . S
H477 C459 0.929 . S
H478 C460 0.928 . S
H479 C462 0.932 . S
H480 C486 0.930 . S
H481 C489 0.930 . S
H482 C490 0.930 . S
H483 C491 0.930 . S
H484 C494 0.930 . S
H485 C495 0.930 . S
C486 H480 0.930 . S
C486 C487 1.355 . S
C486 C488 1.415 . S
C487 C486 1.355 . S
C487 C489 1.419 1_455 S
C488 C486 1.415 . S
C488 C493 1.425 1_455 S
C488 C495 1.409 . S
C489 H481 0.930 . S
C489 C487 1.419 1_655 S
C489 C490 1.362 . S
C490 H482 0.930 . S
C490 C489 1.362 . S
C490 C493 1.409 . S
C491 H483 0.930 . S
C491 C492 1.355 . S
C491 C493 1.415 . S
C492 C491 1.355 . S
C492 C494 1.419 1_655 S
C493 C488 1.425 1_655 S
C493 C490 1.409 . S
C493 C491 1.415 . S
C494 H484 0.930 . S
C494 C492 1.419 1_455 S
C494 C495 1.362 . S
C495 H485 0.930 . S
C495 C488 1.409 . S
C495 C494 1.362 . S
H496 C502 0.930 . S
H497 C505 0.930 . S
H498 C506 0.930 . S
H499 C507 0.930 . S
H500 C510 0.930 . S
H501 C511 0.930 . S
C502 H496 0.930 . S
C502 C503 1.355 . S
C502 C504 1.415 . S
C503 C502 1.355 . S
C503 C505 1.419 1_565 S
C504 C502 1.415 . S
C504 C509 1.425 1_565 S
C504 C511 1.409 . S
C505 H497 0.930 . S
C505 C503 1.419 1_545 S
C505 C506 1.362 . S
C506 H498 0.930 . S
C506 C505 1.362 . S
C506 C509 1.409 . S
C507 H499 0.930 . S
C507 C508 1.355 . S
C507 C509 1.415 . S
C508 C507 1.355 . S
C508 C510 1.419 1_545 S
C509 C504 1.425 1_545 S
C509 C506 1.409 . S
C509 C507 1.415 . S
C510 H500 0.930 . S
C510 C508 1.419 1_565 S
C510 C511 1.362 . S
C511 H501 0.930 . S
C511 C504 1.409 . S
C511 C510 1.362 . S
H512 C518 0.930 . S
H513 C521 0.930 . S
H514 C522 0.930 . S
H515 C523 0.930 . S
H516 C526 0.930 . S
H517 C527 0.930 . S
C518 H512 0.930 . S
C518 C519 1.355 . S
C518 C520 1.415 . S
C519 C518 1.355 . S
C519 C521 1.419 . S
C520 C518 1.415 . S
C520 C525 1.425 . S
C520 C527 1.409 . S
C521 H513 0.930 . S
C521 C519 1.419 . S
C521 C522 1.362 . S
C522 H514 0.930 . S
C522 C521 1.362 . S
C522 C525 1.409 . S
C523 H515 0.930 . S
C523 C524 1.355 . S
C523 C525 1.415 . S
C524 C523 1.355 . S
C524 C526 1.419 . S
C525 C520 1.425 . S
C525 C522 1.409 . S
C525 C523 1.415 . S
C526 H516 0.930 . S
C526 C524 1.419 . S
C526 C527 1.362 . S
C527 H517 0.930 . S
C527 C520 1.409 . S
C527 C526 1.362 . S
H528 C534 0.930 . S
H529 C537 0.930 . S
H530 C538 0.930 . S
H531 C539 0.930 . S
H532 C542 0.930 . S
H533 C543 0.930 . S
C534 H528 0.930 . S
C534 C535 1.355 1_565 S
C534 C536 1.415 . S
C535 C534 1.355 1_545 S
C535 C537 1.419 . S
C536 C534 1.415 . S
C536 C541 1.425 1_565 S
C536 C543 1.409 . S
C537 H529 0.930 . S
C537 C535 1.419 . S
C537 C538 1.362 . S
C538 H530 0.930 . S
C538 C537 1.362 . S
C538 C541 1.409 . S
C539 H531 0.930 . S
C539 C540 1.355 1_545 S
C539 C541 1.415 . S
C540 C539 1.355 1_565 S
C540 C542 1.419 . S
C541 C536 1.425 1_545 S
C541 C538 1.409 . S
C541 C539 1.415 . S
C542 H532 0.930 . S
C542 C540 1.419 . S
C542 C543 1.362 . S
C543 H533 0.930 . S
C543 C536 1.409 . S
C543 C542 1.362 . S
H544 C550 0.930 . S
H545 C553 0.930 . S
H546 C554 0.930 . S
H547 C555 0.930 . S
H548 C558 0.930 . S
H549 C559 0.930 . S
C550 H544 0.930 . S
C550 C551 1.355 . S
C550 C552 1.415 . S
C551 C550 1.355 . S
C551 C553 1.419 . S
C552 C550 1.415 . S
C552 C557 1.425 . S
C552 C559 1.409 . S
C553 H545 0.930 . S
C553 C551 1.419 . S
C553 C554 1.362 . S
C554 H546 0.930 . S
C554 C553 1.362 . S
C554 C557 1.409 . S
C555 H547 0.930 . S
C555 C556 1.355 . S
C555 C557 1.415 . S
C556 C555 1.355 . S
C556 C558 1.419 . S
C557 C552 1.425 . S
C557 C554 1.409 . S
C557 C555 1.415 . S
C558 H548 0.930 . S
C558 C556 1.419 . S
C558 C559 1.362 . S
C559 H549 0.930 . S
C559 C552 1.409 . S
C559 C558 1.362 . S
H560 C566 0.930 . S
H561 C569 0.930 . S
H562 C570 0.930 . S
H563 C571 0.930 . S
H564 C574 0.930 . S
H565 C575 0.930 . S
C566 H560 0.930 . S
C566 C567 1.355 . S
C566 C568 1.415 . S
C567 C566 1.355 . S
C567 C569 1.419 1_655 S
C568 C566 1.415 . S
C568 C573 1.425 1_655 S
C568 C575 1.409 . S
C569 H561 0.930 . S
C569 C567 1.419 1_455 S
C569 C570 1.362 . S
C570 H562 0.930 . S
C570 C569 1.362 . S
C570 C573 1.409 . S
C571 H563 0.930 . S
C571 C572 1.355 . S
C571 C573 1.415 . S
C572 C571 1.355 . S
C572 C574 1.419 1_455 S
C573 C568 1.425 1_455 S
C573 C570 1.409 . S
C573 C571 1.415 . S
C574 H564 0.930 . S
C574 C572 1.419 1_655 S
C574 C575 1.362 . S
C575 H565 0.930 . S
C575 C568 1.409 . S
C575 C574 1.362 . S
H576 C582 0.930 . S
H577 C585 0.930 . S
H578 C586 0.930 . S
H579 C587 0.930 . S
H580 C590 0.930 . S
H581 C591 0.930 . S
C582 H576 0.930 . S
C582 C583 1.355 . S
C582 C584 1.415 1_455 S
C583 C582 1.355 . S
C583 C585 1.419 . S
C584 C582 1.415 1_655 S
C584 C589 1.427 1_655 S
C584 C591 1.409 . S
C585 H577 0.930 . S
C585 C583 1.419 . S
C585 C586 1.362 . S
C586 H578 0.930 . S
C586 C585 1.362 . S
C586 C589 1.406 . S
C587 H579 0.930 . S
C587 C588 1.355 . S
C587 C589 1.415 1_655 S
C588 C587 1.355 . S
C588 C590 1.419 . S
C589 C584 1.427 1_455 S
C589 C586 1.406 . S
C589 C587 1.415 1_455 S
C590 H580 0.930 . S
C590 C588 1.419 . S
C590 C591 1.362 . S
C591 H581 0.930 . S
C591 C584 1.409 . S
C591 C590 1.362 . S
H592 C598 0.919 1_545 S
H593 C601 0.930 . S
H594 C602 0.930 . S
H595 C603 0.930 . S
H596 C606 0.930 . S
H597 C607 0.930 . S
C598 H592 0.919 1_565 S
C598 C599 1.377 . S
C598 C600 1.404 1_565 S
C599 C598 1.377 . S
C599 C601 1.419 . S
C600 C598 1.404 1_545 S
C600 C605 1.425 1_545 S
C600 C607 1.409 . S
C601 H593 0.930 . S
C601 C599 1.419 . S
C601 C602 1.362 . S
C602 H594 0.930 . S
C602 C601 1.362 . S
C602 C605 1.409 . S
C603 H595 0.930 . S
C603 C604 1.355 1_565 S
C603 C605 1.415 . S
C604 C603 1.355 1_545 S
C604 C606 1.419 . S
C605 C600 1.425 1_565 S
C605 C602 1.409 . S
C605 C603 1.415 . S
C606 H596 0.930 . S
C606 C604 1.419 . S
C606 C607 1.362 . S
C607 H597 0.930 . S
C607 C600 1.409 . S
C607 C606 1.362 . S
H608 C614 0.930 . S
H609 C617 0.930 . S
H610 C618 0.930 . S
H611 C619 0.930 . S
H612 C622 0.930 . S
H613 C623 0.930 . S
C614 H608 0.930 . S
C614 C615 1.355 . S
C614 C616 1.415 . S
C615 C614 1.355 . S
C615 C617 1.419 . S
C616 C614 1.415 . S
C616 C621 1.425 . S
C616 C623 1.409 . S
C617 H609 0.930 . S
C617 C615 1.419 . S
C617 C618 1.362 . S
C618 H610 0.930 . S
C618 C617 1.362 . S
C618 C621 1.409 . S
C619 H611 0.930 . S
C619 C620 1.355 . S
C619 C621 1.415 . S
C620 C619 1.355 . S
C620 C622 1.419 . S
C621 C616 1.425 . S
C621 C618 1.409 . S
C621 C619 1.415 . S
C622 H612 0.930 . S
C622 C620 1.419 . S
C622 C623 1.362 . S
C623 H613 0.930 . S
C623 C616 1.409 . S
C623 C622 1.362 . S
H624 C630 0.930 . S
H625 C633 0.930 . S
H626 C634 0.930 . S
H627 C635 0.930 . S
H628 C638 0.930 . S
H629 C639 0.930 . S
C630 H624 0.930 . S
C630 C631 1.355 . S
C630 C632 1.415 . S
C631 C630 1.355 . S
C631 C633 1.419 1_655 S
C632 C630 1.415 . S
C632 C637 1.425 1_655 S
C632 C639 1.409 . S
C633 H625 0.930 . S
C633 C631 1.419 1_455 S
C633 C634 1.362 . S
C634 H626 0.930 . S
C634 C633 1.362 . S
C634 C637 1.409 . S
C635 H627 0.930 . S
C635 C636 1.355 . S
C635 C637 1.415 . S
C636 C635 1.355 . S
C636 C638 1.419 1_455 S
C637 C632 1.425 1_455 S
C637 C634 1.409 . S
C637 C635 1.415 . S
C638 H628 0.930 . S
C638 C636 1.419 1_655 S
C638 C639 1.362 . S
C639 H629 0.930 . S
C639 C632 1.409 . S
C639 C638 1.362 . S
H640 C646 0.930 . S
H641 C649 0.930 . S
H642 C650 0.930 . S
H643 C651 0.930 . S
H644 C654 0.930 . S
H645 C655 0.930 . S
C646 H640 0.930 . S
C646 C647 1.355 1_565 S
C646 C648 1.415 . S
C647 C646 1.355 1_545 S
C647 C649 1.419 . S
C648 C646 1.415 . S
C648 C653 1.425 1_565 S
C648 C655 1.409 . S
C649 H641 0.930 . S
C649 C647 1.419 . S
C649 C650 1.362 . S
C650 H642 0.930 . S
C650 C649 1.362 . S
C650 C653 1.409 . S
C651 H643 0.930 . S
C651 C652 1.355 1_545 S
C651 C653 1.415 . S
C652 C651 1.355 1_565 S
C652 C654 1.419 . S
C653 C648 1.425 1_545 S
C653 C650 1.409 . S
C653 C651 1.415 . S
C654 H644 0.930 . S
C654 C652 1.419 . S
C654 C655 1.362 . S
C655 H645 0.930 . S
C655 C648 1.409 . S
C655 C654 1.362 . S
H656 C662 0.930 . S
H657 C665 0.930 . S
H658 C666 0.930 . S
H659 C667 0.930 . S
H660 C670 0.930 . S
H661 C671 0.930 . S
C662 H656 0.930 . S
C662 C663 1.355 . S
C662 C664 1.415 . S
C663 C662 1.355 . S
C663 C665 1.419 . S
C664 C662 1.415 . S
C664 C669 1.425 . S
C664 C671 1.409 . S
C665 H657 0.930 . S
C665 C663 1.419 . S
C665 C666 1.362 . S
C666 H658 0.930 . S
C666 C665 1.362 . S
C666 C669 1.409 . S
C667 H659 0.930 . S
C667 C668 1.355 . S
C667 C669 1.415 . S
C668 C667 1.355 . S
C668 C670 1.419 . S
C669 C664 1.425 . S
C669 C666 1.409 . S
C669 C667 1.415 . S
C670 H660 0.930 . S
C670 C668 1.419 . S
C670 C671 1.362 . S
C671 H661 0.930 . S
C671 C664 1.409 . S
C671 C670 1.362 . S
H672 C678 0.930 . S
H673 C681 0.930 . S
H674 C682 0.930 . S
H675 C683 0.930 . S
H676 C686 0.930 . S
H677 C687 0.930 . S
C678 H672 0.930 . S
C678 C679 1.355 . S
C678 C680 1.415 . S
C679 C678 1.355 . S
C679 C681 1.419 1_556 S
C680 C678 1.415 . S
C680 C685 1.425 1_556 S
C680 C687 1.409 . S
C681 H673 0.930 . S
C681 C679 1.419 1_554 S
C681 C682 1.362 . S
C682 H674 0.930 . S
C682 C681 1.362 . S
C682 C685 1.409 . S
C683 H675 0.930 . S
C683 C684 1.357 1_554 S
C683 C685 1.415 . S
C684 C683 1.357 1_556 S
C684 C686 1.415 . S
C685 C680 1.425 1_554 S
C685 C682 1.409 . S
C685 C683 1.415 . S
C686 H676 0.930 . S
C686 C684 1.415 . S
C686 C687 1.362 . S
C687 H677 0.930 . S
C687 C680 1.409 . S
C687 C686 1.362 . S
H688 C694 0.930 . S
H689 C697 0.930 . S
H690 C698 0.930 . S
H691 C699 0.930 . S
H692 C702 0.930 . S
H693 C703 0.930 . S
C694 H688 0.930 . S
C694 C695 1.355 . S
C694 C696 1.415 . S
C695 C694 1.355 . S
C695 C697 1.419 . S
C696 C694 1.415 . S
C696 C701 1.425 . S
C696 C703 1.409 . S
C697 H689 0.930 . S
C697 C695 1.419 . S
C697 C698 1.362 . S
C698 H690 0.930 . S
C698 C697 1.362 . S
C698 C701 1.409 . S
C699 H691 0.930 . S
C699 C700 1.355 . S
C699 C701 1.415 . S
C700 C699 1.355 . S
C700 C702 1.419 . S
C701 C696 1.425 . S
C701 C698 1.409 . S
C701 C699 1.415 . S
C702 H692 0.930 . S
C702 C700 1.419 . S
C702 C703 1.362 . S
C703 H693 0.930 . S
C703 C696 1.409 . S
C703 C702 1.362 . S
H704 C710 0.930 . S
H705 C713 0.930 . S
H706 C714 0.930 . S
H707 C715 0.930 . S
H708 C718 0.930 . S
H709 C719 0.930 . S
C710 H704 0.930 . S
C710 C711 1.355 . S
C710 C712 1.415 . S
C711 C710 1.355 . S
C711 C713 1.419 . S
C712 C710 1.415 . S
C712 C717 1.425 . S
C712 C719 1.409 . S
C713 H705 0.930 . S
C713 C711 1.419 . S
C713 C714 1.362 . S
C714 H706 0.930 . S
C714 C713 1.362 . S
C714 C717 1.409 . S
C715 H707 0.930 . S
C715 C716 1.355 . S
C715 C717 1.415 . S
C716 C715 1.355 . S
C716 C718 1.419 . S
C717 C712 1.425 . S
C717 C714 1.409 . S
C717 C715 1.415 . S
C718 H708 0.930 . S
C718 C716 1.419 . S
C718 C719 1.362 . S
C719 H709 0.930 . S
C719 C712 1.409 . S
C719 C718 1.362 . S
H720 C726 0.930 . S
H721 C729 0.930 . S
H722 C730 0.930 . S
H723 C731 0.930 . S
H724 C734 0.930 . S
H725 C735 0.930 . S
C726 H720 0.930 . S
C726 C727 1.355 1_556 S
C726 C728 1.415 . S
C727 C726 1.355 1_554 S
C727 C729 1.419 . S
C728 C726 1.415 . S
C728 C733 1.425 1_556 S
C728 C735 1.409 . S
C729 H721 0.930 . S
C729 C727 1.419 . S
C729 C730 1.362 . S
C730 H722 0.930 . S
C730 C729 1.362 . S
C730 C733 1.409 . S
C731 H723 0.930 . S
C731 C732 1.355 1_554 S
C731 C733 1.415 . S
C732 C731 1.355 1_556 S
C732 C734 1.419 . S
C733 C728 1.425 1_554 S
C733 C730 1.409 . S
C733 C731 1.415 . S
C734 H724 0.930 . S
C734 C732 1.419 . S
C734 C735 1.362 . S
C735 H725 0.930 . S
C735 C728 1.409 . S
C735 C734 1.362 . S
H736 C742 0.930 . S
H737 C745 0.930 . S
H738 C746 0.930 . S
H739 C747 0.930 . S
H740 C750 0.930 . S
H741 C751 0.930 . S
C742 H736 0.930 . S
C742 C743 1.355 . S
C742 C744 1.415 . S
C743 C742 1.355 . S
C743 C745 1.419 . S
C744 C742 1.415 . S
C744 C749 1.425 . S
C744 C751 1.409 . S
C745 H737 0.930 . S
C745 C743 1.419 . S
C745 C746 1.362 . S
C746 H738 0.930 . S
C746 C745 1.362 . S
C746 C749 1.409 . S
C747 H739 0.930 . S
C747 C748 1.355 . S
C747 C749 1.415 . S
C748 C747 1.355 . S
C748 C750 1.419 . S
C749 C744 1.425 . S
C749 C746 1.409 . S
C749 C747 1.415 . S
C750 H740 0.930 . S
C750 C748 1.419 . S
C750 C751 1.362 . S
C751 H741 0.930 . S
C751 C744 1.409 . S
C751 C750 1.362 . S
H752 C758 0.930 . S
H753 C761 0.930 . S
H754 C762 0.930 . S
H755 C763 0.930 . S
H756 C766 0.930 . S
H757 C767 0.930 . S
C758 H752 0.930 . S
C758 C759 1.355 . S
C758 C760 1.415 . S
C759 C758 1.355 . S
C759 C761 1.419 . S
C760 C758 1.415 . S
C760 C765 1.425 . S
C760 C767 1.409 . S
C761 H753 0.930 . S
C761 C759 1.419 . S
C761 C762 1.362 . S
C762 H754 0.930 . S
C762 C761 1.362 . S
C762 C765 1.409 . S
C763 H755 0.930 . S
C763 C764 1.355 . S
C763 C765 1.415 . S
C764 C763 1.355 . S
C764 C766 1.419 . S
C765 C760 1.425 . S
C765 C762 1.409 . S
C765 C763 1.415 . S
C766 H756 0.930 . S
C766 C764 1.419 . S
C766 C767 1.362 . S
C767 H757 0.930 . S
C767 C760 1.409 . S
C767 C766 1.362 . S
C487 C141 2.209 . S
C492 C21 2.212 . S
C503 C61 2.216 . S
C508 C181 2.193 . S
C519 C202 2.354 . S
C524 C101 2.174 . S
C535 C261 2.263 . S
C540 C381 2.265 . S
C551 C421 2.271 . S
C556 C301 2.279 . S
C567 C322 2.356 . S
C572 C461 2.171 . S
C583 C442 2.202 . S
C588 C2 2.177 . S
C599 C42 2.245 . S
C604 C242 2.249 . S
C615 C82 2.158 . S
C620 C282 2.155 . S
C631 C341 2.375 . S
C636 C122 2.203 . S
C647 C162 2.263 . S
C652 C362 2.252 . S
C663 C402 2.254 . S
C668 C221 2.401 . S
C679 C415 2.172 . S
C684 C15 2.179 1_556 S
C695 C455 2.148 . S
C700 C55 2.120 . S
C711 C95 2.110 . S
C716 C255 2.116 . S
C727 C135 2.126 . S
C732 C295 2.123 . S
C743 C175 2.183 . S
C748 C335 2.175 . S
C759 C215 2.197 . S
C764 C375 2.165 . S
