# Generated by pormake.
# Topology atn, (4)-cn, num edge types: 1
# Building blocks:
#     Node 0, Type 0, BuildingBlock: QUQFOY_clean_sbu_3, # of connection points: 4
#     Node 1, Type 0, BuildingBlock: QUQFOY_clean_sbu_3, # of connection points: 4
#     Node 2, Type 0, BuildingBlock: QUQFOY_clean_sbu_3, # of connection points: 4
#     Node 3, Type 0, BuildingBlock: QUQFOY_clean_sbu_3, # of connection points: 4
#     Node 4, Type 0, BuildingBlock: QUQFOY_clean_sbu_3, # of connection points: 4
#     Node 5, Type 0, BuildingBlock: QUQFOY_clean_sbu_3, # of connection points: 4
#     Node 6, Type 0, BuildingBlock: QUQFOY_clean_sbu_3, # of connection points: 4
#     Node 7, Type 0, BuildingBlock: QUQFOY_clean_sbu_3, # of connection points: 4
#     Node 8, Type 0, BuildingBlock: QUQFOY_clean_sbu_3, # of connection points: 4
#     Node 9, Type 0, BuildingBlock: QUQFOY_clean_sbu_3, # of connection points: 4
#     Node 10, Type 0, BuildingBlock: QUQFOY_clean_sbu_3, # of connection points: 4
#     Node 11, Type 0, BuildingBlock: QUQFOY_clean_sbu_3, # of connection points: 4
#     Node 12, Type 0, BuildingBlock: QUQFOY_clean_sbu_3, # of connection points: 4
#     Node 13, Type 0, BuildingBlock: QUQFOY_clean_sbu_3, # of connection points: 4
#     Node 14, Type 0, BuildingBlock: QUQFOY_clean_sbu_3, # of connection points: 4
#     Node 15, Type 0, BuildingBlock: QUQFOY_clean_sbu_3, # of connection points: 4
#     Edge 16, Type (0, 0), None
#     Edge 17, Type (0, 0), None
#     Edge 18, Type (0, 0), None
#     Edge 19, Type (0, 0), None
#     Edge 20, Type (0, 0), None
#     Edge 21, Type (0, 0), None
#     Edge 22, Type (0, 0), None
#     Edge 23, Type (0, 0), None
#     Edge 24, Type (0, 0), None
#     Edge 25, Type (0, 0), None
#     Edge 26, Type (0, 0), None
#     Edge 27, Type (0, 0), None
#     Edge 28, Type (0, 0), None
#     Edge 29, Type (0, 0), None
#     Edge 30, Type (0, 0), None
#     Edge 31, Type (0, 0), None
#     Edge 32, Type (0, 0), None
#     Edge 33, Type (0, 0), None
#     Edge 34, Type (0, 0), None
#     Edge 35, Type (0, 0), None
#     Edge 36, Type (0, 0), None
#     Edge 37, Type (0, 0), None
#     Edge 38, Type (0, 0), None
#     Edge 39, Type (0, 0), None
#     Edge 40, Type (0, 0), None
#     Edge 41, Type (0, 0), None
#     Edge 42, Type (0, 0), None
#     Edge 43, Type (0, 0), None
#     Edge 44, Type (0, 0), None
#     Edge 45, Type (0, 0), None
#     Edge 46, Type (0, 0), None
#     Edge 47, Type (0, 0), None
# Relax obj value: 0.028
# Max RMSD: 0.062
# Mean RMSD: 0.062
data_MOF--net-atn--node1-QUQFOY_clean_sbu_3--edge1-none
_symmetry_space_group_name_H-M    P1
_symmetry_Int_Tables_number       1
_symmetry_cell_setting            triclinic
loop_
_symmetry_equiv_pos_as_xyz
'x, y, z'
_cell_length_a     30.769445
_cell_length_b     30.767905
_cell_length_c     13.19397
_cell_angle_alpha  89.998443
_cell_angle_beta   90.002638
_cell_angle_gamma 89.9995
loop_
_atom_site_label
_atom_site_type_symbol
_atom_site_fract_x
_atom_site_fract_y
_atom_site_fract_z
_atom_type_partial_charge
C0 C 0.11257 0.30363 0.77296 0.0
O1 O 0.088 0.27615 0.81643 0.0
Cd2 Cd 0.09751 0.25556 -0.00923 0.0
O3 O 0.13976 0.32615 0.8233 0.0
Cd4 Cd 0.16506 0.34385 -0.00375 0.0
C5 C 0.21167 0.24527 -0.02631 0.0
O6 O 0.10172 0.31967 0.08619 0.0
O7 O 0.15645 0.33541 0.18174 0.0
O8 O 0.13792 0.4149 0.9644 0.0
C9 C 0.11788 0.32107 0.17444 0.0
O10 O 0.17257 0.23183 -0.01978 0.0
C11 C 0.1736 0.43516 -0.02743 0.0
O12 O 0.22083 0.2858 -0.02403 0.0
O13 O 0.2075 0.41292 -0.00756 0.0
C14 C 0.61406 0.11258 0.77298 0.0
O15 O 0.64154 0.088 0.81646 0.0
Cd16 Cd 0.66213 0.09751 -0.00921 0.0
O17 O 0.59155 0.13977 0.82331 0.0
Cd18 Cd 0.57384 0.16508 -0.00374 0.0
C19 C 0.67243 0.21168 -0.02631 0.0
O20 O 0.59802 0.10173 0.0862 0.0
O21 O 0.58228 0.15647 0.18175 0.0
O22 O 0.50281 0.13795 0.9644 0.0
C23 C 0.59662 0.11789 0.17445 0.0
O24 O 0.68586 0.17257 -0.01976 0.0
C25 C 0.48254 0.17363 -0.02744 0.0
O26 O 0.63191 0.22084 -0.02403 0.0
O27 O 0.50478 0.20753 -0.00757 0.0
C28 C 0.80522 0.61407 0.773 0.0
O29 O 0.82979 0.64156 0.81647 0.0
Cd30 Cd 0.82028 0.66214 -0.00919 0.0
O31 O 0.77804 0.59155 0.82334 0.0
Cd32 Cd 0.75272 0.57384 -0.00372 0.0
C33 C 0.70611 0.67243 -0.0263 0.0
O34 O 0.81606 0.59803 0.08623 0.0
O35 O 0.76133 0.58228 0.18177 0.0
O36 O 0.77984 0.50279 0.96445 0.0
C37 C 0.7999 0.59663 0.17448 0.0
O38 O 0.74522 0.68587 -0.01975 0.0
C39 C 0.74416 0.48254 -0.02742 0.0
O40 O 0.69697 0.6319 -0.02401 0.0
O41 O 0.71026 0.50479 -0.00756 0.0
C42 C 0.30374 0.80508 0.77299 0.0
O43 O 0.27628 0.82967 0.81646 0.0
Cd44 Cd 0.25568 0.82017 -0.00921 0.0
O45 O 0.32624 0.77787 0.82334 0.0
Cd46 Cd 0.34393 0.75256 -0.00371 0.0
C47 C 0.24533 0.706 -0.0263 0.0
O48 O 0.31978 0.81592 0.08623 0.0
O49 O 0.33551 0.76118 0.18178 0.0
O50 O 0.41497 0.77969 0.96442 0.0
C51 C 0.32118 0.79976 0.17448 0.0
O52 O 0.23191 0.74512 -0.01976 0.0
C53 C 0.43524 0.74401 -0.02742 0.0
O54 O 0.28585 0.69682 -0.024 0.0
O55 O 0.413 0.71011 -0.00753 0.0
C56 C 0.11261 0.61411 0.16197 0.0
O57 O 0.08805 0.64161 0.11849 0.0
Cd58 Cd 0.09757 0.66219 0.94416 0.0
O59 O 0.13978 0.59158 0.11163 0.0
Cd60 Cd 0.16509 0.57387 0.93869 0.0
C61 C 0.21174 0.67244 0.96124 0.0
O62 O 0.10175 0.59808 0.84874 0.0
O63 O 0.15647 0.58231 0.7532 0.0
O64 O 0.13793 0.50283 -0.02949 0.0
C65 C 0.11791 0.59667 0.7605 0.0
O66 O 0.17264 0.6859 0.9547 0.0
C67 C 0.17361 0.48256 0.96236 0.0
O68 O 0.22087 0.6319 0.95897 0.0
O69 O 0.20751 0.50479 0.94251 0.0
C70 C 0.30363 0.11259 0.16195 0.0
O71 O 0.27615 0.08801 0.11848 0.0
Cd72 Cd 0.25556 0.09752 0.94415 0.0
O73 O 0.32614 0.13978 0.11161 0.0
Cd74 Cd 0.34384 0.16509 0.93866 0.0
C75 C 0.24525 0.21169 0.96122 0.0
O76 O 0.31966 0.10173 0.84873 0.0
O77 O 0.3354 0.15647 0.75318 0.0
O78 O 0.41488 0.13795 -0.02949 0.0
C79 C 0.32106 0.11789 0.76048 0.0
O80 O 0.23182 0.17258 0.95469 0.0
C81 C 0.43515 0.17363 0.96234 0.0
O82 O 0.28578 0.22085 0.95894 0.0
O83 O 0.41291 0.20753 0.94248 0.0
C84 C 0.80512 0.30361 0.16196 0.0
O85 O 0.8297 0.27612 0.11849 0.0
Cd86 Cd 0.82018 0.25553 0.94416 0.0
O87 O 0.77794 0.32612 0.11161 0.0
Cd88 Cd 0.75264 0.34383 0.93866 0.0
C89 C 0.70602 0.24525 0.96123 0.0
O90 O 0.81598 0.31964 0.84873 0.0
O91 O 0.76126 0.3354 0.75317 0.0
O92 O 0.77981 0.41486 -0.02947 0.0
C93 C 0.79982 0.32105 0.76048 0.0
O94 O 0.74512 0.23181 0.9547 0.0
C95 C 0.74414 0.43514 0.96236 0.0
O96 O 0.69687 0.28579 0.95894 0.0
O97 O 0.71023 0.41292 0.94248 0.0
C98 C 0.61412 0.80508 0.16195 0.0
O99 O 0.6416 0.82967 0.11848 0.0
Cd100 Cd 0.66219 0.82017 0.94415 0.0
O101 O 0.59162 0.77789 0.11161 0.0
Cd102 Cd 0.57393 0.75257 0.93866 0.0
C103 C 0.67253 0.706 0.96124 0.0
O104 O 0.59808 0.81593 0.84873 0.0
O105 O 0.58234 0.76119 0.75317 0.0
O106 O 0.50289 0.77969 -0.02947 0.0
C107 C 0.59668 0.79977 0.76048 0.0
O108 O 0.68595 0.74511 0.9547 0.0
C109 C 0.48263 0.74401 0.96237 0.0
O110 O 0.632 0.69683 0.95895 0.0
O111 O 0.50487 0.71011 0.94249 0.0
C112 C 0.61262 0.8036 0.27293 0.0
O113 O 0.58806 0.77611 0.31639 0.0
Cd114 Cd 0.59755 0.75552 0.49073 0.0
O115 O 0.63981 0.82612 0.32328 0.0
Cd116 Cd 0.6651 0.84383 0.49625 0.0
C117 C 0.71172 0.74525 0.4737 0.0
O118 O 0.60176 0.81962 0.58616 0.0
O119 O 0.65648 0.83539 0.68174 0.0
O120 O 0.63794 0.91487 0.4644 0.0
C121 C 0.61792 0.82101 0.6744 0.0
O122 O 0.67262 0.7318 0.48023 0.0
C123 C 0.67361 0.93514 0.47257 0.0
O124 O 0.72087 0.78578 0.47599 0.0
O125 O 0.70752 0.91291 0.49244 0.0
C126 C 0.11409 0.61262 0.27295 0.0
O127 O 0.14156 0.58802 0.31642 0.0
Cd128 Cd 0.16216 0.59751 0.49075 0.0
O129 O 0.09159 0.63982 0.32329 0.0
Cd130 Cd 0.07391 0.66513 0.49625 0.0
C131 C 0.17251 0.71168 0.47369 0.0
O132 O 0.09807 0.60177 0.58617 0.0
O133 O 0.08234 0.6565 0.68174 0.0
O134 O 0.00287 0.63799 0.46439 0.0
C135 C 0.09669 0.61793 0.67442 0.0
O136 O 0.18593 0.67257 0.48022 0.0
C137 C -0.0174 0.67367 0.47256 0.0
O138 O 0.13199 0.72086 0.47597 0.0
O139 O 0.00484 0.70757 0.49243 0.0
C140 C 0.30512 0.11407 0.27294 0.0
O141 O 0.32969 0.14156 0.3164 0.0
Cd142 Cd 0.32019 0.16215 0.49073 0.0
O143 O 0.27794 0.09155 0.32328 0.0
Cd144 Cd 0.25264 0.07384 0.49623 0.0
C145 C 0.20602 0.17243 0.47368 0.0
O146 O 0.31598 0.09805 0.58616 0.0
O147 O 0.26126 0.08228 0.68173 0.0
O148 O 0.27982 0.00281 0.46437 0.0
C149 C 0.29982 0.09665 0.6744 0.0
O150 O 0.24513 0.18587 0.48021 0.0
C151 C 0.24416 -0.01747 0.47254 0.0
O152 O 0.19687 0.1319 0.47596 0.0
O153 O 0.21024 0.00474 0.49241 0.0
C154 C 0.80364 0.3051 0.27294 0.0
O155 O 0.77616 0.32968 0.3164 0.0
Cd156 Cd 0.75556 0.32018 0.49072 0.0
O157 O 0.82615 0.27791 0.32329 0.0
Cd158 Cd 0.84385 0.2526 0.49625 0.0
C159 C 0.74525 0.20601 0.47369 0.0
O160 O 0.81966 0.31596 0.58616 0.0
O161 O 0.83542 0.26123 0.68174 0.0
O162 O 0.91488 0.27975 0.46439 0.0
C163 C 0.82105 0.29979 0.6744 0.0
O164 O 0.73182 0.24512 0.48021 0.0
C165 C 0.93515 0.24407 0.47256 0.0
O166 O 0.78578 0.19685 0.47598 0.0
O167 O 0.91292 0.21017 0.49243 0.0
C168 C 0.61257 0.11406 0.66199 0.0
O169 O 0.588 0.14155 0.61853 0.0
Cd170 Cd 0.5975 0.16215 0.4442 0.0
O171 O 0.63976 0.09155 0.61166 0.0
Cd172 Cd 0.66506 0.07385 0.43869 0.0
C173 C 0.71167 0.17244 0.46124 0.0
O174 O 0.60171 0.09805 0.34877 0.0
O175 O 0.65643 0.08229 0.2532 0.0
O176 O 0.63792 0.0028 0.47051 0.0
C177 C 0.61787 0.09666 0.26053 0.0
O178 O 0.67257 0.18588 0.45472 0.0
C179 C 0.6736 -0.01746 0.46236 0.0
O180 O 0.72082 0.13191 0.45896 0.0
O181 O 0.7075 0.00478 0.44251 0.0
C182 C 0.80373 0.61258 0.66201 0.0
O183 O 0.77625 0.58801 0.61855 0.0
Cd184 Cd 0.75564 0.5975 0.44423 0.0
O185 O 0.82623 0.63978 0.61167 0.0
Cd186 Cd 0.84391 0.6651 0.4387 0.0
C187 C 0.74531 0.71167 0.46126 0.0
O188 O 0.81974 0.60173 0.3488 0.0
O189 O 0.83547 0.65646 0.25321 0.0
O190 O 0.91495 0.63797 0.47053 0.0
C191 C 0.82112 0.61789 0.26055 0.0
O192 O 0.73188 0.67256 0.45475 0.0
C193 C 0.93521 0.67366 0.46236 0.0
O194 O 0.78583 0.72084 0.45897 0.0
O195 O 0.91296 0.70756 0.4425 0.0
C196 C 0.30523 0.80359 0.66201 0.0
O197 O 0.32979 0.77609 0.61855 0.0
Cd198 Cd 0.32028 0.75549 0.44422 0.0
O199 O 0.27805 0.82612 0.61166 0.0
Cd200 Cd 0.25275 0.84382 0.4387 0.0
C201 C 0.20611 0.74524 0.46124 0.0
O202 O 0.31609 0.8196 0.3488 0.0
O203 O 0.26137 0.83538 0.25321 0.0
O204 O 0.27987 0.91488 0.47048 0.0
C205 C 0.29993 0.821 0.26055 0.0
O206 O 0.24521 0.73179 0.45473 0.0
C207 C 0.24418 0.93513 0.46232 0.0
O208 O 0.19697 0.78578 0.45895 0.0
O209 O 0.21029 0.91288 0.44249 0.0
C210 C 0.11406 0.30512 0.66197 0.0
O211 O 0.14155 0.32969 0.61851 0.0
Cd212 Cd 0.16215 0.32018 0.44419 0.0
O213 O 0.09155 0.27792 0.61163 0.0
Cd214 Cd 0.07385 0.25261 0.43867 0.0
C215 C 0.17244 0.20601 0.46123 0.0
O216 O 0.09804 0.31597 0.34876 0.0
O217 O 0.08229 0.26125 0.25318 0.0
O218 O 0.00281 0.27976 0.4705 0.0
C219 C 0.09665 0.29981 0.26051 0.0
O220 O 0.18587 0.24511 0.45471 0.0
C221 C -0.01745 0.24407 0.46234 0.0
O222 O 0.13191 0.19685 0.45894 0.0
O223 O 0.00479 0.21017 0.44248 0.0
loop_
_geom_bond_atom_site_label_1
_geom_bond_atom_site_label_2
_geom_bond_distance
_geom_bond_site_symmetry_2
_ccdc_geom_bond_type
C0 O1 1.306 . S
C0 O3 1.160 . S
O1 C0 1.306 . S
O1 Cd2 2.228 1_556 S
Cd2 O1 2.228 1_554 S
Cd2 O6 2.273 . S
Cd2 O10 2.277 . S
O3 C0 1.160 . S
O3 Cd4 2.203 1_556 S
Cd4 O3 2.203 1_554 S
Cd4 O6 2.411 . S
Cd4 O7 2.333 . S
Cd4 O8 2.352 . S
Cd4 O12 2.277 1_554 S
Cd4 O13 2.356 . S
C5 O10 1.209 . S
C5 O12 1.226 1_554 S
O6 Cd2 2.273 . S
O6 Cd4 2.411 . S
O6 C9 1.320 . S
O7 Cd4 2.333 . S
O7 C9 1.214 . S
O8 Cd4 2.352 . S
O8 C11 1.258 . S
C9 O6 1.320 . S
C9 O7 1.214 . S
O10 Cd2 2.277 . S
O10 C5 1.209 . S
C11 O8 1.258 . S
C11 O13 1.282 . S
O12 Cd4 2.277 1_556 S
O12 C5 1.226 1_556 S
O13 Cd4 2.356 . S
O13 C11 1.282 . S
C14 O15 1.306 . S
C14 O17 1.160 . S
O15 C14 1.306 . S
O15 Cd16 2.228 1_556 S
Cd16 O15 2.228 1_554 S
Cd16 O20 2.273 . S
Cd16 O24 2.277 . S
O17 C14 1.160 . S
O17 Cd18 2.203 1_556 S
Cd18 O17 2.203 1_554 S
Cd18 O20 2.411 . S
Cd18 O21 2.333 . S
Cd18 O22 2.352 . S
Cd18 O26 2.277 1_554 S
Cd18 O27 2.356 . S
C19 O24 1.209 . S
C19 O26 1.226 1_554 S
O20 Cd16 2.273 . S
O20 Cd18 2.411 . S
O20 C23 1.320 . S
O21 Cd18 2.333 . S
O21 C23 1.214 . S
O22 Cd18 2.352 . S
O22 C25 1.258 . S
C23 O20 1.320 . S
C23 O21 1.214 . S
O24 Cd16 2.277 . S
O24 C19 1.209 . S
C25 O22 1.258 . S
C25 O27 1.282 . S
O26 Cd18 2.277 1_556 S
O26 C19 1.226 1_556 S
O27 Cd18 2.356 . S
O27 C25 1.282 . S
C28 O29 1.306 . S
C28 O31 1.160 . S
O29 C28 1.306 . S
O29 Cd30 2.228 1_556 S
Cd30 O29 2.228 1_554 S
Cd30 O34 2.273 . S
Cd30 O38 2.277 . S
O31 C28 1.160 . S
O31 Cd32 2.203 1_556 S
Cd32 O31 2.203 1_554 S
Cd32 O34 2.411 . S
Cd32 O35 2.333 . S
Cd32 O36 2.352 . S
Cd32 O40 2.277 1_554 S
Cd32 O41 2.356 . S
C33 O38 1.209 . S
C33 O40 1.226 1_554 S
O34 Cd30 2.273 . S
O34 Cd32 2.411 . S
O34 C37 1.320 . S
O35 Cd32 2.333 . S
O35 C37 1.214 . S
O36 Cd32 2.352 . S
O36 C39 1.258 . S
C37 O34 1.320 . S
C37 O35 1.214 . S
O38 Cd30 2.277 . S
O38 C33 1.209 . S
C39 O36 1.258 . S
C39 O41 1.282 . S
O40 Cd32 2.277 1_556 S
O40 C33 1.226 1_556 S
O41 Cd32 2.356 . S
O41 C39 1.282 . S
C42 O43 1.306 . S
C42 O45 1.160 . S
O43 C42 1.306 . S
O43 Cd44 2.228 1_556 S
Cd44 O43 2.228 1_554 S
Cd44 O48 2.273 . S
Cd44 O52 2.277 . S
O45 C42 1.160 . S
O45 Cd46 2.203 1_556 S
Cd46 O45 2.203 1_554 S
Cd46 O48 2.411 . S
Cd46 O49 2.333 . S
Cd46 O50 2.352 . S
Cd46 O54 2.277 1_554 S
Cd46 O55 2.356 . S
C47 O52 1.209 . S
C47 O54 1.226 1_554 S
O48 Cd44 2.273 . S
O48 Cd46 2.411 . S
O48 C51 1.320 . S
O49 Cd46 2.333 . S
O49 C51 1.214 . S
O50 Cd46 2.352 . S
O50 C53 1.258 . S
C51 O48 1.320 . S
C51 O49 1.214 . S
O52 Cd44 2.277 . S
O52 C47 1.209 . S
C53 O50 1.258 . S
C53 O55 1.282 . S
O54 Cd46 2.277 1_556 S
O54 C47 1.226 1_556 S
O55 Cd46 2.356 . S
O55 C53 1.282 . S
C56 O57 1.306 . S
C56 O59 1.160 . S
O57 C56 1.306 . S
O57 Cd58 2.228 1_554 S
Cd58 O57 2.228 1_556 S
Cd58 O62 2.273 . S
Cd58 O66 2.277 . S
O59 C56 1.160 . S
O59 Cd60 2.203 1_554 S
Cd60 O59 2.203 1_556 S
Cd60 O62 2.411 . S
Cd60 O63 2.333 . S
Cd60 O64 2.352 1_556 S
Cd60 O68 2.277 1_556 S
Cd60 O69 2.356 . S
C61 O66 1.208 1_554 S
C61 O68 1.226 . S
O62 Cd58 2.273 . S
O62 Cd60 2.411 . S
O62 C65 1.320 . S
O63 Cd60 2.333 . S
O63 C65 1.214 . S
O64 Cd60 2.352 1_554 S
O64 C67 1.258 1_554 S
C65 O62 1.320 . S
C65 O63 1.214 . S
O66 Cd58 2.277 . S
O66 C61 1.208 1_556 S
C67 O64 1.258 1_556 S
C67 O69 1.282 . S
O68 Cd60 2.277 1_554 S
O68 C61 1.226 . S
O69 Cd60 2.356 . S
O69 C67 1.282 . S
C70 O71 1.306 . S
C70 O73 1.160 . S
O71 C70 1.306 . S
O71 Cd72 2.228 1_554 S
Cd72 O71 2.228 1_556 S
Cd72 O76 2.273 . S
Cd72 O80 2.277 . S
O73 C70 1.160 . S
O73 Cd74 2.203 1_554 S
Cd74 O73 2.203 1_556 S
Cd74 O76 2.411 . S
Cd74 O77 2.333 . S
Cd74 O78 2.352 1_556 S
Cd74 O82 2.277 1_556 S
Cd74 O83 2.356 . S
C75 O80 1.208 1_554 S
C75 O82 1.226 . S
O76 Cd72 2.273 . S
O76 Cd74 2.411 . S
O76 C79 1.320 . S
O77 Cd74 2.333 . S
O77 C79 1.214 . S
O78 Cd74 2.352 1_554 S
O78 C81 1.258 1_554 S
C79 O76 1.320 . S
C79 O77 1.214 . S
O80 Cd72 2.277 . S
O80 C75 1.208 1_556 S
C81 O78 1.258 1_556 S
C81 O83 1.282 . S
O82 Cd74 2.277 1_554 S
O82 C75 1.226 . S
O83 Cd74 2.356 . S
O83 C81 1.282 . S
C84 O85 1.306 . S
C84 O87 1.160 . S
O85 C84 1.306 . S
O85 Cd86 2.228 1_554 S
Cd86 O85 2.228 1_556 S
Cd86 O90 2.273 . S
Cd86 O94 2.277 . S
O87 C84 1.160 . S
O87 Cd88 2.203 1_554 S
Cd88 O87 2.203 1_556 S
Cd88 O90 2.411 . S
Cd88 O91 2.333 . S
Cd88 O92 2.352 1_556 S
Cd88 O96 2.277 1_556 S
Cd88 O97 2.356 . S
C89 O94 1.208 1_554 S
C89 O96 1.226 . S
O90 Cd86 2.273 . S
O90 Cd88 2.411 . S
O90 C93 1.320 . S
O91 Cd88 2.333 . S
O91 C93 1.214 . S
O92 Cd88 2.352 1_554 S
O92 C95 1.258 1_554 S
C93 O90 1.320 . S
C93 O91 1.214 . S
O94 Cd86 2.277 . S
O94 C89 1.208 1_556 S
C95 O92 1.258 1_556 S
C95 O97 1.282 . S
O96 Cd88 2.277 1_554 S
O96 C89 1.226 . S
O97 Cd88 2.356 . S
O97 C95 1.282 . S
C98 O99 1.306 . S
C98 O101 1.160 . S
O99 C98 1.306 . S
O99 Cd100 2.228 1_554 S
Cd100 O99 2.228 1_556 S
Cd100 O104 2.273 . S
Cd100 O108 2.277 . S
O101 C98 1.160 . S
O101 Cd102 2.203 1_554 S
Cd102 O101 2.203 1_556 S
Cd102 O104 2.411 . S
Cd102 O105 2.333 . S
Cd102 O106 2.352 1_556 S
Cd102 O110 2.277 1_556 S
Cd102 O111 2.356 . S
C103 O108 1.208 1_554 S
C103 O110 1.226 . S
O104 Cd100 2.273 . S
O104 Cd102 2.411 . S
O104 C107 1.320 . S
O105 Cd102 2.333 . S
O105 C107 1.214 . S
O106 Cd102 2.352 1_554 S
O106 C109 1.258 1_554 S
C107 O104 1.320 . S
C107 O105 1.214 . S
O108 Cd100 2.277 . S
O108 C103 1.208 1_556 S
C109 O106 1.258 1_556 S
C109 O111 1.282 . S
O110 Cd102 2.277 1_554 S
O110 C103 1.226 . S
O111 Cd102 2.356 . S
O111 C109 1.282 . S
C112 O113 1.306 . S
C112 O115 1.160 . S
O113 C112 1.306 . S
O113 Cd114 2.228 . S
Cd114 O113 2.228 . S
Cd114 O118 2.273 . S
Cd114 O122 2.277 . S
O115 C112 1.160 . S
O115 Cd116 2.203 . S
Cd116 O115 2.203 . S
Cd116 O118 2.411 . S
Cd116 O119 2.333 . S
Cd116 O120 2.352 . S
Cd116 O124 2.277 . S
Cd116 O125 2.356 . S
C117 O122 1.209 . S
C117 O124 1.226 . S
O118 Cd114 2.273 . S
O118 Cd116 2.411 . S
O118 C121 1.320 . S
O119 Cd116 2.333 . S
O119 C121 1.214 . S
O120 Cd116 2.352 . S
O120 C123 1.258 . S
C121 O118 1.320 . S
C121 O119 1.214 . S
O122 Cd114 2.277 . S
O122 C117 1.209 . S
C123 O120 1.258 . S
C123 O125 1.282 . S
O124 Cd116 2.277 . S
O124 C117 1.226 . S
O125 Cd116 2.356 . S
O125 C123 1.282 . S
C126 O127 1.306 . S
C126 O129 1.160 . S
O127 C126 1.306 . S
O127 Cd128 2.228 . S
Cd128 O127 2.228 . S
Cd128 O132 2.273 . S
Cd128 O136 2.277 . S
O129 C126 1.160 . S
O129 Cd130 2.203 . S
Cd130 O129 2.203 . S
Cd130 O132 2.411 . S
Cd130 O133 2.333 . S
Cd130 O134 2.352 . S
Cd130 O138 2.277 . S
Cd130 O139 2.356 . S
C131 O136 1.209 . S
C131 O138 1.226 . S
O132 Cd128 2.273 . S
O132 Cd130 2.411 . S
O132 C135 1.320 . S
O133 Cd130 2.333 . S
O133 C135 1.214 . S
O134 Cd130 2.352 . S
O134 C137 1.258 . S
C135 O132 1.320 . S
C135 O133 1.214 . S
O136 Cd128 2.277 . S
O136 C131 1.209 . S
C137 O134 1.258 . S
C137 O139 1.282 . S
O138 Cd130 2.277 . S
O138 C131 1.226 . S
O139 Cd130 2.356 . S
O139 C137 1.282 . S
C140 O141 1.306 . S
C140 O143 1.160 . S
O141 C140 1.306 . S
O141 Cd142 2.228 . S
Cd142 O141 2.228 . S
Cd142 O146 2.273 . S
Cd142 O150 2.277 . S
O143 C140 1.160 . S
O143 Cd144 2.203 . S
Cd144 O143 2.203 . S
Cd144 O146 2.411 . S
Cd144 O147 2.333 . S
Cd144 O148 2.352 . S
Cd144 O152 2.277 . S
Cd144 O153 2.356 . S
C145 O150 1.209 . S
C145 O152 1.226 . S
O146 Cd142 2.273 . S
O146 Cd144 2.411 . S
O146 C149 1.320 . S
O147 Cd144 2.333 . S
O147 C149 1.214 . S
O148 Cd144 2.352 . S
O148 C151 1.258 . S
C149 O146 1.320 . S
C149 O147 1.214 . S
O150 Cd142 2.277 . S
O150 C145 1.209 . S
C151 O148 1.258 . S
C151 O153 1.282 . S
O152 Cd144 2.277 . S
O152 C145 1.226 . S
O153 Cd144 2.356 . S
O153 C151 1.282 . S
C154 O155 1.306 . S
C154 O157 1.160 . S
O155 C154 1.306 . S
O155 Cd156 2.228 . S
Cd156 O155 2.228 . S
Cd156 O160 2.273 . S
Cd156 O164 2.277 . S
O157 C154 1.160 . S
O157 Cd158 2.203 . S
Cd158 O157 2.203 . S
Cd158 O160 2.411 . S
Cd158 O161 2.333 . S
Cd158 O162 2.352 . S
Cd158 O166 2.277 . S
Cd158 O167 2.356 . S
C159 O164 1.209 . S
C159 O166 1.226 . S
O160 Cd156 2.273 . S
O160 Cd158 2.411 . S
O160 C163 1.320 . S
O161 Cd158 2.333 . S
O161 C163 1.214 . S
O162 Cd158 2.352 . S
O162 C165 1.258 . S
C163 O160 1.320 . S
C163 O161 1.214 . S
O164 Cd156 2.277 . S
O164 C159 1.209 . S
C165 O162 1.258 . S
C165 O167 1.282 . S
O166 Cd158 2.277 . S
O166 C159 1.226 . S
O167 Cd158 2.356 . S
O167 C165 1.282 . S
C168 O169 1.306 . S
C168 O171 1.160 . S
O169 C168 1.306 . S
O169 Cd170 2.228 . S
Cd170 O169 2.228 . S
Cd170 O174 2.273 . S
Cd170 O178 2.277 . S
O171 C168 1.160 . S
O171 Cd172 2.203 . S
Cd172 O171 2.203 . S
Cd172 O174 2.411 . S
Cd172 O175 2.333 . S
Cd172 O176 2.352 . S
Cd172 O180 2.277 . S
Cd172 O181 2.356 . S
C173 O178 1.209 . S
C173 O180 1.226 . S
O174 Cd170 2.273 . S
O174 Cd172 2.411 . S
O174 C177 1.320 . S
O175 Cd172 2.333 . S
O175 C177 1.214 . S
O176 Cd172 2.352 . S
O176 C179 1.258 . S
C177 O174 1.320 . S
C177 O175 1.214 . S
O178 Cd170 2.277 . S
O178 C173 1.209 . S
C179 O176 1.258 . S
C179 O181 1.282 . S
O180 Cd172 2.277 . S
O180 C173 1.226 . S
O181 Cd172 2.356 . S
O181 C179 1.282 . S
C182 O183 1.306 . S
C182 O185 1.160 . S
O183 C182 1.306 . S
O183 Cd184 2.228 . S
Cd184 O183 2.228 . S
Cd184 O188 2.273 . S
Cd184 O192 2.277 . S
O185 C182 1.160 . S
O185 Cd186 2.203 . S
Cd186 O185 2.203 . S
Cd186 O188 2.411 . S
Cd186 O189 2.333 . S
Cd186 O190 2.352 . S
Cd186 O194 2.277 . S
Cd186 O195 2.356 . S
C187 O192 1.209 . S
C187 O194 1.226 . S
O188 Cd184 2.273 . S
O188 Cd186 2.411 . S
O188 C191 1.320 . S
O189 Cd186 2.333 . S
O189 C191 1.214 . S
O190 Cd186 2.352 . S
O190 C193 1.258 . S
C191 O188 1.320 . S
C191 O189 1.214 . S
O192 Cd184 2.277 . S
O192 C187 1.209 . S
C193 O190 1.258 . S
C193 O195 1.282 . S
O194 Cd186 2.277 . S
O194 C187 1.226 . S
O195 Cd186 2.356 . S
O195 C193 1.282 . S
C196 O197 1.306 . S
C196 O199 1.160 . S
O197 C196 1.306 . S
O197 Cd198 2.228 . S
Cd198 O197 2.228 . S
Cd198 O202 2.273 . S
Cd198 O206 2.277 . S
O199 C196 1.160 . S
O199 Cd200 2.203 . S
Cd200 O199 2.203 . S
Cd200 O202 2.411 . S
Cd200 O203 2.333 . S
Cd200 O204 2.352 . S
Cd200 O208 2.277 . S
Cd200 O209 2.356 . S
C201 O206 1.209 . S
C201 O208 1.226 . S
O202 Cd198 2.273 . S
O202 Cd200 2.411 . S
O202 C205 1.320 . S
O203 Cd200 2.333 . S
O203 C205 1.214 . S
O204 Cd200 2.352 . S
O204 C207 1.258 . S
C205 O202 1.320 . S
C205 O203 1.214 . S
O206 Cd198 2.277 . S
O206 C201 1.209 . S
C207 O204 1.258 . S
C207 O209 1.282 . S
O208 Cd200 2.277 . S
O208 C201 1.226 . S
O209 Cd200 2.356 . S
O209 C207 1.282 . S
C210 O211 1.306 . S
C210 O213 1.160 . S
O211 C210 1.306 . S
O211 Cd212 2.228 . S
Cd212 O211 2.228 . S
Cd212 O216 2.273 . S
Cd212 O220 2.277 . S
O213 C210 1.160 . S
O213 Cd214 2.203 . S
Cd214 O213 2.203 . S
Cd214 O216 2.411 . S
Cd214 O217 2.333 . S
Cd214 O218 2.352 . S
Cd214 O222 2.277 . S
Cd214 O223 2.356 . S
C215 O220 1.209 . S
C215 O222 1.226 . S
O216 Cd212 2.273 . S
O216 Cd214 2.411 . S
O216 C219 1.320 . S
O217 Cd214 2.333 . S
O217 C219 1.214 . S
O218 Cd214 2.352 . S
O218 C221 1.258 . S
C219 O216 1.320 . S
C219 O217 1.214 . S
O220 Cd212 2.277 . S
O220 C215 1.209 . S
C221 O218 1.258 . S
C221 O223 1.282 . S
O222 Cd214 2.277 . S
O222 C215 1.226 . S
O223 Cd214 2.356 . S
O223 C221 1.282 . S
C67 C11 1.433 1_556 S
C81 C25 1.433 1_556 S
C95 C39 1.433 1_556 S
C109 C53 1.433 1_556 S
C179 C123 1.433 1_545 S
C193 C137 1.433 1_655 S
C151 C207 1.433 1_545 S
C221 C165 1.433 1_455 S
C5 C75 1.468 . S
C89 C19 1.468 . S
C33 C103 1.468 . S
C61 C47 1.468 . S
C187 C117 1.468 . S
C201 C131 1.468 . S
C145 C215 1.468 . S
C159 C173 1.468 . S
C219 C9 1.473 . S
C177 C23 1.473 . S
C191 C37 1.473 . S
C205 C51 1.473 . S
C135 C65 1.473 . S
C149 C79 1.473 . S
C93 C163 1.473 . S
C107 C121 1.473 . S
C182 C28 1.425 . S
C196 C42 1.425 . S
C210 C0 1.425 . S
C14 C168 1.425 . S
C154 C84 1.425 . S
C98 C112 1.425 . S
C126 C56 1.425 . S
C140 C70 1.425 . S
