# Generated by pormake.
# Topology fcu, (12)-cn, num edge types: 1
# Building blocks:
#     Node 0, Type 0, BuildingBlock: FANWIC_clean_sbu_0, # of connection points: 12
#     Node 1, Type 0, BuildingBlock: FANWIC_clean_sbu_0, # of connection points: 12
#     Node 2, Type 0, BuildingBlock: FANWIC_clean_sbu_0, # of connection points: 12
#     Node 3, Type 0, BuildingBlock: FANWIC_clean_sbu_0, # of connection points: 12
#     Edge 4, Type (0, 0), BuildingBlock: UVAHIK_clean_linker_0, # of connection points: 2
#     Edge 5, Type (0, 0), BuildingBlock: UVAHIK_clean_linker_0, # of connection points: 2
#     Edge 6, Type (0, 0), BuildingBlock: UVAHIK_clean_linker_0, # of connection points: 2
#     Edge 7, Type (0, 0), BuildingBlock: UVAHIK_clean_linker_0, # of connection points: 2
#     Edge 8, Type (0, 0), BuildingBlock: UVAHIK_clean_linker_0, # of connection points: 2
#     Edge 9, Type (0, 0), BuildingBlock: UVAHIK_clean_linker_0, # of connection points: 2
#     Edge 10, Type (0, 0), BuildingBlock: UVAHIK_clean_linker_0, # of connection points: 2
#     Edge 11, Type (0, 0), BuildingBlock: UVAHIK_clean_linker_0, # of connection points: 2
#     Edge 12, Type (0, 0), BuildingBlock: UVAHIK_clean_linker_0, # of connection points: 2
#     Edge 13, Type (0, 0), BuildingBlock: UVAHIK_clean_linker_0, # of connection points: 2
#     Edge 14, Type (0, 0), BuildingBlock: UVAHIK_clean_linker_0, # of connection points: 2
#     Edge 15, Type (0, 0), BuildingBlock: UVAHIK_clean_linker_0, # of connection points: 2
#     Edge 16, Type (0, 0), BuildingBlock: UVAHIK_clean_linker_0, # of connection points: 2
#     Edge 17, Type (0, 0), BuildingBlock: UVAHIK_clean_linker_0, # of connection points: 2
#     Edge 18, Type (0, 0), BuildingBlock: UVAHIK_clean_linker_0, # of connection points: 2
#     Edge 19, Type (0, 0), BuildingBlock: UVAHIK_clean_linker_0, # of connection points: 2
#     Edge 20, Type (0, 0), BuildingBlock: UVAHIK_clean_linker_0, # of connection points: 2
#     Edge 21, Type (0, 0), BuildingBlock: UVAHIK_clean_linker_0, # of connection points: 2
#     Edge 22, Type (0, 0), BuildingBlock: UVAHIK_clean_linker_0, # of connection points: 2
#     Edge 23, Type (0, 0), BuildingBlock: UVAHIK_clean_linker_0, # of connection points: 2
#     Edge 24, Type (0, 0), BuildingBlock: UVAHIK_clean_linker_0, # of connection points: 2
#     Edge 25, Type (0, 0), BuildingBlock: UVAHIK_clean_linker_0, # of connection points: 2
#     Edge 26, Type (0, 0), BuildingBlock: UVAHIK_clean_linker_0, # of connection points: 2
#     Edge 27, Type (0, 0), BuildingBlock: UVAHIK_clean_linker_0, # of connection points: 2
# Relax obj value: 0.217
# Max RMSD: 0.293
# Mean RMSD: 0.293
data_MOF--net-fcu--node1-FANWIC_clean_sbu_0--edge1-UVAHIK_clean_linker_0
_symmetry_space_group_name_H-M    P1
_symmetry_Int_Tables_number       1
_symmetry_cell_setting            triclinic
loop_
_symmetry_equiv_pos_as_xyz
'x, y, z'
_cell_length_a     30.09729
_cell_length_b     30.674146
_cell_length_c     30.532608
_cell_angle_alpha  91.270944
_cell_angle_beta   90.232095
_cell_angle_gamma 91.510801
loop_
_atom_site_label
_atom_site_type_symbol
_atom_site_fract_x
_atom_site_fract_y
_atom_site_fract_z
_atom_type_partial_charge
Zn0 Zn 0.9559 0.00348 0.94116 0.0
Zn1 Zn 0.93017 0.96356 0.03931 0.0
Zn2 Zn 0.95856 0.07251 0.02864 0.0
Zn3 Zn 0.87017 0.02612 0.99489 0.0
O4 O 0.93462 0.01607 0.00251 0.0
C5 C 0.01266 0.07587 0.1072 0.0
O6 O 0.04522 0.08026 0.07905 0.0
N7 N 0.0038 0.96157 0.93815 0.0
N8 N 0.03991 0.96099 0.9633 0.0
N9 N 0.04206 0.90412 0.91655 0.0
C10 C 0.0054 0.92727 0.90987 0.0
C11 C 0.06279 0.92568 0.95016 0.0
N12 N 0.98474 0.94867 0.06776 0.0
C13 C 0.05163 0.94398 0.09066 0.0
N14 N 0.03081 0.90681 0.10321 0.0
C15 C 0.98893 0.91119 0.08919 0.0
N16 N 0.02366 0.96996 0.06914 0.0
H17 H 0.95695 0.8483 0.08167 0.0
C18 C 0.95111 0.88006 0.0985 0.0
H19 H 0.91904 0.8929 0.08728 0.0
H20 H 0.94961 0.87411 0.13419 0.0
N21 N 0.01136 0.08911 0.99637 0.0
C22 C 0.02398 0.12965 0.98491 0.0
C23 C 0.07298 0.08639 0.96165 0.0
N24 N 0.04168 0.06183 0.98175 0.0
N25 N 0.06279 0.1291 0.96299 0.0
C26 C 0.99578 0.16872 0.99213 0.0
H27 H 0.96414 0.1636 0.97383 0.0
H28 H 0.98784 0.17221 0.02747 0.0
H29 H 0.01162 0.19928 0.98056 0.0
O30 O 0.84409 -0.00362 0.94095 0.0
O31 O 0.90508 0.98157 0.9037 0.0
C32 C 0.86304 0.98105 0.907 0.0
O33 O 0.9109 0.91213 0.00107 0.0
O34 O 0.85777 0.08935 0.98803 0.0
O35 O 0.91383 0.12101 0.02475 0.0
O36 O 0.97559 0.05891 0.91291 0.0
O37 O 0.83538 0.00927 0.0489 0.0
O38 O 0.88418 0.97187 0.08609 0.0
O39 O 0.97328 0.06875 0.09306 0.0
C40 C 0.93832 0.88355 0.98869 0.0
O41 O 0.98057 0.88871 0.99852 0.0
C42 C 0.87664 0.12317 0.00507 0.0
C43 C 0.99316 0.05676 0.87522 0.0
O44 O -0.00167 0.01846 0.85618 0.0
C45 C 0.84659 0.98964 0.08341 0.0
H46 H 0.96199 0.94262 0.85677 0.0
H47 H 0.93881 0.90554 0.8958 0.0
H48 H 0.97834 0.88669 0.8562 0.0
C49 C 0.96933 0.91467 0.87766 0.0
Zn50 Zn 0.95075 0.49669 0.42873 0.0
Zn51 Zn 0.91808 0.45993 0.52572 0.0
Zn52 Zn 0.95648 0.56705 0.51439 0.0
Zn53 Zn 0.86807 0.52788 0.47799 0.0
O54 O 0.92884 0.5116 0.4891 0.0
C55 C 0.94214 0.56329 0.61503 0.0
O56 O 0.94375 0.52069 0.61692 0.0
N57 N 0.9962 0.45269 0.4309 0.0
N58 N 0.03366 0.45512 0.45417 0.0
N59 N 0.03212 0.39196 0.41674 0.0
C60 C 0.99569 0.41471 0.40792 0.0
C61 C 0.05509 0.41772 0.44555 0.0
N62 N 0.96888 0.44915 0.56085 0.0
C63 C 0.03287 0.45057 0.59128 0.0
N64 N 0.00929 0.41922 0.61188 0.0
C65 C 0.96942 0.41909 0.59207 0.0
N66 N 0.00828 0.46942 0.56027 0.0
H67 H 0.94219 0.35558 0.60647 0.0
C68 C 0.93077 0.38938 0.60244 0.0
H69 H 0.90504 0.38996 0.5764 0.0
H70 H 0.91572 0.40034 0.63377 0.0
N71 N 0.01954 0.56525 0.50315 0.0
C72 C 0.05468 0.57008 0.53039 0.0
C73 C 0.07952 0.56565 0.46549 0.0
N74 N 0.03507 0.5621 0.46289 0.0
N75 N 0.09332 0.57075 0.5077 0.0
C76 C 0.05061 0.5742 0.57917 0.0
H77 H 0.03831 0.60697 0.58815 0.0
H78 H 0.02615 0.54976 0.59081 0.0
H79 H 0.08272 0.56897 0.59592 0.0
O80 O 0.83987 0.49276 0.42829 0.0
O81 O 0.89981 0.4761 0.3902 0.0
C82 C 0.85779 0.47591 0.39441 0.0
O83 O 0.90461 0.40594 0.48887 0.0
O84 O 0.86694 0.58993 0.46049 0.0
O85 O 0.93095 0.61943 0.48428 0.0
O86 O 0.97583 0.54954 0.39952 0.0
O87 O 0.83196 0.52295 0.53306 0.0
O88 O 0.86705 0.47077 0.56711 0.0
O89 O 0.94599 0.58197 0.57844 0.0
C90 C 0.93237 0.37552 0.48463 0.0
O91 O 0.97232 0.38052 0.50167 0.0
C92 C 0.89363 0.62256 0.46488 0.0
C93 C 0.99546 0.54529 0.36298 0.0
O94 O -0.00276 0.50643 0.34421 0.0
C95 C 0.83594 0.49804 0.56557 0.0
H96 H 0.95784 0.4226 0.34939 0.0
H97 H 0.92688 0.4007 0.39429 0.0
H98 H 0.9638 0.36634 0.36413 0.0
C99 C 0.95914 0.39993 0.37711 0.0
Zn100 Zn 0.44513 -0.00452 0.45158 0.0
Zn101 Zn 0.43857 0.97045 0.55651 0.0
Zn102 Zn 0.46782 0.07376 0.53008 0.0
Zn103 Zn 0.37583 0.0341 0.51706 0.0
O104 O 0.43784 0.01724 0.51311 0.0
C105 C 0.48711 0.06794 0.6249 0.0
O106 O 0.51874 0.04143 0.61388 0.0
N107 N 0.48627 0.94735 0.44599 0.0
N108 N 0.52677 0.94584 0.46318 0.0
N109 N 0.51184 0.88171 0.42955 0.0
C110 C 0.47782 0.9089 0.42493 0.0
C111 C 0.54198 0.90582 0.45306 0.0
N112 N 0.49765 0.95623 0.57454 0.0
C113 C 0.56788 0.94795 0.58001 0.0
N114 N 0.54931 0.91975 0.60846 0.0
C115 C 0.50555 0.92605 0.60452 0.0
N116 N 0.53646 0.97081 0.55952 0.0
H117 H 0.47596 0.86619 0.62694 0.0
C118 C 0.46997 0.90173 0.62887 0.0
H119 H 0.43656 0.90833 0.61557 0.0
H120 H 0.47122 0.91205 0.66392 0.0
N121 N 0.52824 0.06944 0.51015 0.0
C122 C 0.56599 0.08898 0.52523 0.0
C123 C 0.58253 0.05057 0.46923 0.0
N124 N 0.53838 0.04575 0.475 0.0
N125 N 0.60094 0.07722 0.50054 0.0
C126 C 0.56774 0.12286 0.56127 0.0
H127 H 0.58865 0.1513 0.55143 0.0
H128 H 0.53388 0.1337 0.5696 0.0
H129 H 0.58333 0.10888 0.59062 0.0
O130 O 0.33552 -0.00123 0.47654 0.0
O131 O 0.38539 0.97556 0.42877 0.0
C132 C 0.34534 0.97837 0.44131 0.0
O133 O 0.40935 0.91652 0.53003 0.0
O134 O 0.36952 0.09552 0.49822 0.0
O135 O 0.43711 0.12578 0.50357 0.0
O136 O 0.46477 0.04521 0.41446 0.0
O137 O 0.35475 0.03133 0.57943 0.0
O138 O 0.40332 0.98799 0.6099 0.0
O139 O 0.46323 0.08387 0.59521 0.0
C140 C 0.43024 0.88194 0.52123 0.0
O141 O 0.47341 0.88105 0.52677 0.0
C142 C 0.39593 0.12817 0.49405 0.0
C143 C 0.4591 0.04142 0.37334 0.0
O144 O 0.44177 0.00495 0.35678 0.0
C145 C 0.3698 0.01236 0.61287 0.0
H146 H 0.40939 0.89052 0.4192 0.0
H147 H 0.4425 0.87166 0.37391 0.0
H148 H 0.42866 0.92793 0.37857 0.0
C149 C 0.43738 0.89909 0.39744 0.0
Zn150 Zn 0.45962 0.5238 0.93676 0.0
Zn151 Zn 0.42053 0.49458 0.03375 0.0
Zn152 Zn 0.47733 0.59074 0.02783 0.0
Zn153 Zn 0.38374 0.56803 0.99062 0.0
O154 O 0.44236 0.54309 0.99763 0.0
C155 C 0.50358 0.56656 0.11571 0.0
O156 O 0.53852 0.55118 0.09592 0.0
N157 N 0.49443 0.47115 0.93883 0.0
N158 N 0.52904 0.46511 0.96491 0.0
N159 N 0.51448 0.40272 0.92854 0.0
C160 C 0.48634 0.43359 0.91618 0.0
C161 C 0.54104 0.4233 0.95861 0.0
N162 N 0.46674 0.45868 0.05615 0.0
C163 C 0.52857 0.43205 0.07704 0.0
N164 N 0.49629 0.40416 0.09123 0.0
C165 C 0.45837 0.42197 0.07796 0.0
N166 N 0.51038 0.46567 0.05596 0.0
H167 H 0.40626 0.37319 0.07381 0.0
C168 C 0.4126 0.40572 0.08955 0.0
H169 H 0.38701 0.42852 0.0787 0.0
H170 H 0.41029 0.40174 0.12552 0.0
N171 N 0.53744 0.58674 0.0067 0.0
C172 C 0.57469 0.60781 0.02091 0.0
C173 C 0.59075 0.57252 0.96256 0.0
N174 N 0.54739 0.56466 0.97042 0.0
N175 N 0.60896 0.59871 0.99426 0.0
C176 C 0.57674 0.63858 0.05967 0.0
H177 H 0.58774 0.6715 0.04929 0.0
H178 H 0.54372 0.64102 0.07538 0.0
H179 H 0.60149 0.62718 0.0836 0.0
O180 O 0.35058 0.54196 0.93849 0.0
O181 O 0.40521 0.51237 0.90053 0.0
C182 C 0.36454 0.52169 0.90457 0.0
O183 O 0.37817 0.45961 0.99532 0.0
O184 O 0.39091 0.63112 0.97923 0.0
O185 O 0.45341 0.65087 0.01407 0.0
O186 O 0.49158 0.57149 0.90452 0.0
O187 O 0.34704 0.56454 0.04667 0.0
O188 O 0.38533 0.51747 0.08431 0.0
O189 O 0.47339 0.58363 0.09314 0.0
C190 C 0.38598 0.42232 0.97875 0.0
O191 O 0.42379 0.40388 0.98726 0.0
C192 C 0.41884 0.66036 0.99234 0.0
C193 C 0.51132 0.56311 0.86873 0.0
O194 O 0.51103 0.52281 0.8533 0.0
C195 C 0.35422 0.54459 0.08211 0.0
H196 H 0.45626 0.45487 0.85689 0.0
H197 H 0.41858 0.42968 0.89418 0.0
H198 H 0.45527 0.39636 0.86236 0.0
C199 C 0.45234 0.42798 0.8803 0.0
C200 C 0.06169 0.10603 0.16715 0.0
C201 C 0.02063 0.08714 0.15395 0.0
C202 C 0.06704 0.12456 0.20898 0.0
C203 C 0.99669 0.17857 0.28954 0.0
H204 H 0.11076 0.20536 0.3449 0.0
C205 C 0.0531 0.34518 0.35471 0.0
C206 C 0.04341 0.35003 0.3993 0.0
C207 C 0.05568 0.30363 0.33566 0.0
C208 C 0.07859 0.19742 0.33033 0.0
H209 H 0.95459 0.06828 0.17584 0.0
H210 H 0.96418 0.09988 0.24946 0.0
H211 H 0.10317 0.14309 0.29341 0.0
H212 H 0.03155 0.31665 0.45979 0.0
H213 H 0.0351 0.243 0.42607 0.0
H214 H 0.97281 0.23396 0.32534 0.0
C215 C 0.99185 0.10164 0.22694 0.0
C216 C 0.07421 0.16214 0.30064 0.0
C217 C 0.98635 0.08342 0.18481 0.0
C218 C 0.03906 0.31307 0.42531 0.0
C219 C 0.04119 0.27133 0.40619 0.0
C220 C 0.00103 0.21342 0.31943 0.0
C221 C 0.03153 0.12435 0.23878 0.0
C222 C 0.0337 0.15359 0.27832 0.0
C223 C 0.04846 0.26656 0.36104 0.0
C224 C 0.04234 0.22401 0.33862 0.0
H225 H 0.08901 0.10896 0.14432 0.0
H226 H 0.09801 0.1419 0.21655 0.0
H227 H 0.96514 0.17359 0.27278 0.0
H228 H 0.05629 0.37358 0.3344 0.0
H229 H 0.06093 0.30037 0.30066 0.0
C230 C 0.77227 0.00293 0.11752 0.0
C231 C 0.81623 0.9891 0.12156 0.0
C232 C 0.74435 0.00453 0.15399 0.0
C233 C 0.73271 0.96688 0.26895 0.0
H234 H 0.65517 0.06547 0.27981 0.0
C235 C 0.6501 0.02169 0.43147 0.0
C236 C 0.60591 0.03517 0.42935 0.0
C237 C 0.67334 0.01153 0.39318 0.0
C238 C 0.67621 0.03744 0.277 0.0
H239 H 0.86511 0.96562 0.16718 0.0
H240 H 0.81694 0.96952 0.23089 0.0
H241 H 0.70044 0.05677 0.21451 0.0
H242 H 0.55113 0.04726 0.38581 0.0
H243 H 0.59135 0.02926 0.31875 0.0
H244 H 0.70923 0.94854 0.33236 0.0
C245 C 0.80358 0.97824 0.19939 0.0
C246 C 0.70214 0.03234 0.23947 0.0
C247 C 0.83137 0.97624 0.16282 0.0
C248 C 0.58493 0.03669 0.38835 0.0
C249 C 0.60817 0.02685 0.35001 0.0
C250 C 0.70703 0.97224 0.30671 0.0
C251 C 0.75979 0.99278 0.19556 0.0
C252 C 0.73093 -0.0029 0.23496 0.0
C253 C 0.65286 0.01478 0.35198 0.0
C254 C 0.67865 0.00769 0.31119 0.0
H255 H 0.7594 0.01275 0.08616 0.0
H256 H 0.71061 0.01507 0.14953 0.0
H257 H 0.75386 0.93894 0.26638 0.0
H258 H 0.66672 0.01878 0.46271 0.0
H259 H 0.70771 0.00225 0.3958 0.0
C260 C 0.05643 0.88475 0.17579 0.0
C261 C 0.04643 0.87413 0.13192 0.0
C262 C 0.0664 0.85194 0.20497 0.0
C263 C 0.094 0.73547 0.21378 0.0
H264 H 0.01374 0.73834 0.31268 0.0
C265 C 0.03046 0.58096 0.29839 0.0
C266 C 0.01631 0.58359 0.34209 0.0
C267 C 0.04702 0.61803 0.27761 0.0
C268 C 0.03739 0.73725 0.28608 0.0
H269 H 0.04097 0.82238 0.08304 0.0
H270 H 0.05812 0.76443 0.13404 0.0
H271 H 0.02126 0.80146 0.2668 0.0
H272 H 0.01199 0.62619 0.39951 0.0
H273 H 0.04218 0.69049 0.36376 0.0
H274 H 0.10946 0.67075 0.23263 0.0
C275 C 0.05878 0.79797 0.14597 0.0
C276 C 0.04158 0.77357 0.25964 0.0
C277 C 0.04859 0.8308 0.11693 0.0
C278 C 0.02171 0.62334 0.36547 0.0
C279 C 0.03895 0.66024 0.34492 0.0
C280 C 0.09026 0.6992 0.24062 0.0
C281 C 0.06652 0.80808 0.19054 0.0
C282 C 0.06882 0.77256 0.22246 0.0
C283 C 0.05034 0.65845 0.30029 0.0
C284 C 0.06072 0.69912 0.27626 0.0
H285 H 0.0547 0.91816 0.18774 0.0
H286 H 0.07249 0.86063 0.23909 0.0
H287 H 0.11562 0.73407 0.18552 0.0
H288 H 0.02719 0.55063 0.27967 0.0
H289 H 0.05508 0.61531 0.24315 0.0
C290 C 0.27349 0.99253 0.40468 0.0
C291 C 0.31018 0.9657 0.40955 0.0
C292 C 0.24762 0.98941 0.36662 0.0
C293 C 0.21993 0.92234 0.26871 0.0
H294 H 0.208 0.03415 0.21332 0.0
C295 C 0.13091 0.92925 0.10545 0.0
C296 C 0.09555 0.95807 0.10749 0.0
C297 C 0.16589 0.93372 0.13551 0.0
C298 C 0.21113 0.00271 0.22835 0.0
H299 H 0.34541 0.91141 0.38107 0.0
H300 H 0.29986 0.90542 0.31507 0.0
H301 H 0.24458 0.03072 0.28461 0.0
H302 H 0.07066 0.01579 0.13893 0.0
H303 H 0.13154 0.02474 0.19071 0.0
H304 H 0.18519 0.89438 0.21336 0.0
C305 C 0.29157 0.92934 0.34016 0.0
C306 C 0.23169 0.00079 0.26926 0.0
C307 C 0.31771 0.9328 0.37794 0.0
C308 C 0.09822 0.99427 0.13602 0.0
C309 C 0.13301 -0.00113 0.16608 0.0
C310 C 0.19903 0.92428 0.22796 0.0
C311 C 0.2577 0.959 0.33328 0.0
C312 C 0.23569 0.96067 0.29005 0.0
C313 C 0.16567 0.96703 0.16793 0.0
C314 C 0.19392 0.96457 0.20757 0.0
H315 H 0.26703 0.01834 0.42842 0.0
H316 H 0.22106 0.01212 0.36234 0.0
H317 H 0.22264 0.89103 0.28409 0.0
H318 H 0.12927 0.90093 0.08364 0.0
H319 H 0.19116 0.90922 0.13556 0.0
C320 C 0.07137 0.86289 0.85379 0.0
C321 C 0.05219 0.86332 0.89546 0.0
C322 C 0.06808 0.82528 0.827 0.0
C323 C 0.02519 0.70844 0.82347 0.0
H324 H -0.00205 0.73715 0.7036 0.0
C325 C 0.97617 0.57794 0.68896 0.0
C326 C 0.94831 0.59089 0.65489 0.0
C327 C 0.99085 0.60818 0.72128 0.0
C328 C 0.00477 0.72846 0.73709 0.0
H329 H 0.01809 0.82508 0.94325 0.0
H330 H 0.01001 0.75983 0.89681 0.0
H331 H 0.02488 0.79381 0.75376 0.0
H332 H 0.91079 0.64423 0.62986 0.0
H333 H 0.93374 0.69611 0.68753 0.0
H334 H 0.0022 0.64341 0.80707 0.0
C335 C 0.02866 0.78756 0.88446 0.0
C336 C 0.0214 0.76098 0.76581 0.0
C337 C 0.0329 0.8249 0.91127 0.0
C338 C 0.93254 0.63351 0.65564 0.0
C339 C 0.94633 0.6634 0.68836 0.0
C340 C 0.00784 0.67592 0.79479 0.0
C341 C 0.04443 0.78783 0.84112 0.0
C342 C 0.03148 0.75168 0.8096 0.0
C343 C 0.97723 0.65176 0.72054 0.0
C344 C 0.99677 0.68566 0.75134 0.0
H345 H 0.08604 0.89255 0.84093 0.0
H346 H 0.08194 0.82646 0.79438 0.0
H347 H 0.03309 0.6997 0.85671 0.0
H348 H 0.98904 0.54535 0.68898 0.0
H349 H 0.01466 0.59789 0.74536 0.0
C350 C 0.15417 0.08784 0.94492 0.0
C351 C 0.11181 0.06844 0.93875 0.0
C352 C 0.18897 0.07713 0.91688 0.0
C353 C 0.22509 -0.00075 0.83013 0.0
H354 H 0.28234 0.10209 0.78166 0.0
C355 C 0.35563 0.99063 0.6906 0.0
C356 C 0.34731 0.01835 0.65556 0.0
C357 C 0.33233 -0.00489 0.72999 0.0
C358 C 0.2668 0.07305 0.79499 0.0
H359 H 0.07357 0.01974 0.90162 0.0
H360 H 0.13403 0.00106 0.85221 0.0
H361 H 0.2318 0.10998 0.84326 0.0
H362 H 0.30913 0.0734 0.63499 0.0
H363 H 0.26891 0.08129 0.70352 0.0
H364 H 0.25901 0.96256 0.78054 0.0
C365 C 0.14049 0.02473 0.87846 0.0
C366 C 0.2382 0.07749 0.83059 0.0
C367 C 0.10574 0.0355 0.9066 0.0
C368 C 0.31619 0.05134 0.6612 0.0
C369 C 0.29335 0.05609 0.70062 0.0
C370 C 0.254 0.99478 0.7946 0.0
C371 C 0.18206 0.04656 0.88237 0.0
C372 C 0.21635 0.04075 0.84804 0.0
C373 C 0.30079 0.02779 0.73529 0.0
C374 C 0.27435 0.03176 0.77606 0.0
H375 H 0.15981 0.11283 0.9701 0.0
H376 H 0.22085 0.09391 0.92122 0.0
H377 H 0.20894 0.97033 0.84309 0.0
H378 H 0.37947 0.96492 0.68732 0.0
H379 H 0.33895 0.97304 0.7563 0.0
C380 C 0.00108 0.38771 0.68475 0.0
C381 C 0.02417 0.3908 0.64518 0.0
C382 C 0.01199 0.35594 0.71466 0.0
C383 C 0.04912 0.24619 0.71162 0.0
H384 H 0.04844 0.25707 0.8384 0.0
C385 C 0.03706 0.09424 0.81743 0.0
C386 C 0.00776 0.09668 0.853 0.0
C387 C 0.05013 0.1319 0.79558 0.0
C388 C 0.04847 0.25351 0.80303 0.0
H389 H 0.07831 0.36608 0.6065 0.0
H390 H 0.09716 0.30948 0.65859 0.0
H391 H 0.05309 0.3227 0.79436 0.0
H392 H 0.9693 0.14017 0.89385 0.0
H393 H 0.99075 0.20572 0.85488 0.0
H394 H 0.04137 0.17759 0.71961 0.0
C395 C 0.07075 0.33159 0.66655 0.0
C396 C 0.05149 0.29102 0.77794 0.0
C397 C 0.06011 0.36375 0.63693 0.0
C398 C 0.99214 0.13744 0.86668 0.0
C399 C 0.00474 0.17504 0.8445 0.0
C400 C 0.04546 0.20882 0.73659 0.0
C401 C 0.04591 0.32664 0.70509 0.0
C402 C 0.05076 0.28764 0.73201 0.0
C403 C 0.03362 0.17268 0.80844 0.0
C404 C 0.04385 0.21206 0.78256 0.0
H405 H 0.97375 0.40899 0.69175 0.0
H406 H 0.99214 0.35261 0.74398 0.0
H407 H 0.04785 0.24271 0.67624 0.0
H408 H 0.05015 0.06328 0.80661 0.0
H409 H 0.07308 0.12898 0.76852 0.0
C410 C 0.6479 0.9309 0.5742 0.0
C411 C 0.61501 0.96145 0.58239 0.0
C412 C 0.68933 0.93573 0.59474 0.0
C413 C 0.75282 0.00628 0.67697 0.0
H414 H 0.7649 0.89596 0.73518 0.0
C415 C 0.79911 0.9948 0.85793 0.0
C416 C 0.83658 0.9703 0.86735 0.0
C417 C 0.78002 0.99255 0.81621 0.0
C418 C 0.76237 0.9268 0.71883 0.0
H419 H 0.60145 0.02439 0.61178 0.0
H420 H 0.6726 0.03281 0.6482 0.0
H421 H 0.72329 0.89824 0.66685 0.0
H422 H 0.88124 0.92176 0.84175 0.0
H423 H 0.84658 0.9166 0.7691 0.0
H424 H 0.78899 0.03503 0.73139 0.0
C425 C 0.6673 0.0049 0.6263 0.0
C426 C 0.73898 0.92818 0.67934 0.0
C427 C 0.62619 0.00017 0.60536 0.0
C428 C 0.85261 0.94119 0.83528 0.0
C429 C 0.83292 0.9383 0.79376 0.0
C430 C 0.77548 0.00494 0.71687 0.0
C431 C 0.69793 0.97102 0.62405 0.0
C432 C 0.73246 0.96823 0.65874 0.0
C433 C 0.79752 0.96513 0.78353 0.0
C434 C 0.77907 0.96542 0.73874 0.0
H435 H 0.64026 0.90133 0.55553 0.0
H436 H 0.71285 0.90981 0.59095 0.0
H437 H 0.74924 0.03748 0.66161 0.0
H438 H 0.7863 0.0178 0.88186 0.0
H439 H 0.75217 0.01297 0.80913 0.0
C440 C 0.31535 0.42188 0.93557 0.0
C441 C 0.35212 0.39952 0.9511 0.0
C442 C 0.28151 0.39965 0.91231 0.0
C443 C 0.20038 0.34178 0.90909 0.0
H444 H 0.21354 0.2243 0.86254 0.0
C445 C 0.09888 0.20134 0.97152 0.0
C446 C 0.08707 0.16526 0.94479 0.0
C447 C 0.12388 0.23583 0.95474 0.0
C448 C 0.20884 0.25741 0.87434 0.0
H449 H 0.3834 0.33677 0.95271 0.0
H450 H 0.32315 0.29729 0.91558 0.0
H451 H 0.27557 0.27652 0.85856 0.0
H452 H 0.09329 0.1358 0.88031 0.0
H453 H 0.13705 0.19648 0.85027 0.0
H454 H 0.13399 0.32237 0.92554 0.0
C455 C 0.32095 0.33234 0.91922 0.0
C456 C 0.24464 0.28721 0.87266 0.0
C457 C 0.35543 0.35489 0.94124 0.0
C458 C 0.10106 0.16396 0.90101 0.0
C459 C 0.12623 0.19847 0.88403 0.0
C460 C 0.16447 0.31231 0.91001 0.0
C461 C 0.28275 0.35417 0.90582 0.0
C462 C 0.24186 0.32861 0.89313 0.0
C463 C 0.13806 0.23469 0.91088 0.0
C464 C 0.16952 0.26894 0.89579 0.0
H465 H 0.31186 0.45631 0.94262 0.0
H466 H 0.25329 0.41784 0.90151 0.0
H467 H 0.19644 0.37332 0.92496 0.0
H468 H 0.08961 0.20224 0.00576 0.0
H469 H 0.13375 0.26252 0.97679 0.0
C470 C 0.39996 0.73256 0.02485 0.0
C471 C 0.40574 0.70586 0.98744 0.0
C472 C 0.37113 0.76771 0.02349 0.0
C473 C 0.26847 0.78628 0.96617 0.0
H474 H 0.26728 0.89902 0.02617 0.0
C475 C 0.1438 0.93576 0.96661 0.0
C476 C 0.10407 0.91132 0.97081 0.0
C477 C 0.18459 0.91711 0.97628 0.0
C478 C 0.26733 0.86756 0.00935 0.0
H479 H 0.39098 0.69781 0.91831 0.0
H480 H 0.34228 0.75994 0.91541 0.0
H481 H 0.33659 0.85796 0.02309 0.0
H482 H 0.07466 0.85115 0.99415 0.0
H483 H 0.14561 0.81833 0.01085 0.0
H484 H 0.19978 0.79508 0.95259 0.0
C485 C 0.35879 0.75326 0.94605 0.0
C486 C 0.30683 0.84416 0.00759 0.0
C487 C 0.38699 0.71798 0.94755 0.0
C488 C 0.1051 0.86994 0.98921 0.0
C489 C 0.14563 0.85132 0.9989 0.0
C490 C 0.22926 0.80919 0.96839 0.0
C491 C 0.34813 0.77653 0.98461 0.0
C492 C 0.30776 0.80338 0.98563 0.0
C493 C 0.18586 0.87385 0.99041 0.0
C494 C 0.22808 0.84996 0.99008 0.0
H495 H 0.41364 0.72345 0.05612 0.0
H496 H 0.36359 0.7851 0.0537 0.0
H497 H 0.26774 0.75457 0.9498 0.0
H498 H 0.14363 0.96796 0.953 0.0
H499 H 0.21506 0.93528 0.96958 0.0
C500 C 0.6213 0.42611 0.98123 0.0
C501 C 0.58006 0.40361 0.97951 0.0
C502 C 0.6598 0.40448 0.99302 0.0
C503 C 0.70394 0.30786 0.04541 0.0
H504 H 0.78517 0.30162 0.94721 0.0
C505 C 0.85692 0.19518 0.03938 0.0
C506 C 0.85305 0.16485 0.00425 0.0
C507 C 0.82986 0.23169 0.04115 0.0
C508 C 0.76318 0.30359 0.97515 0.0
H509 H 0.54561 0.3433 0.99603 0.0
H510 H 0.61266 0.30548 0.01636 0.0
H511 H 0.72492 0.3537 0.94662 0.0
H512 H 0.81974 0.15008 0.94243 0.0
H513 H 0.77382 0.21459 0.94475 0.0
H514 H 0.74156 0.25676 0.07329 0.0
C515 C 0.61555 0.3393 0.00702 0.0
C516 C 0.72892 0.33349 0.97495 0.0
C517 C 0.57726 0.36071 0.9946 0.0
C518 C 0.82335 0.17286 0.96993 0.0
C519 C 0.79722 0.20981 0.97117 0.0
C520 C 0.73881 0.27853 0.04601 0.0
C521 C 0.65737 0.36045 0.00469 0.0
C522 C 0.69816 0.33493 0.00941 0.0
C523 C 0.79949 0.23905 0.00721 0.0
C524 C 0.76784 0.2752 0.01022 0.0
H525 H 0.62432 0.4597 0.97158 0.0
H526 H 0.69164 0.4217 0.9917 0.0
H527 H 0.68059 0.3084 0.07233 0.0
H528 H 0.87936 0.18965 0.0664 0.0
H529 H 0.83218 0.25382 0.06926 0.0
C530 C 0.94286 0.80308 0.9828 0.0
C531 C 0.92178 0.84142 0.97109 0.0
C532 C 0.92382 0.76246 0.97175 0.0
C533 C 0.82542 0.7087 0.9162 0.0
H534 H 0.81314 0.65156 0.02785 0.0
C535 C 0.6624 0.6597 0.99016 0.0
C536 C 0.65375 0.61518 0.99583 0.0
C537 C 0.70521 0.67443 0.98048 0.0
C538 C 0.81715 0.66619 0.99607 0.0
H539 H 0.86579 0.86798 0.93706 0.0
H540 H 0.83102 0.79721 0.91963 0.0
H541 H 0.87556 0.70178 0.01633 0.0
H542 H 0.68211 0.55121 0.99794 0.0
H543 H 0.75847 0.57761 0.98279 0.0
H544 H 0.76379 0.6765 0.8983 0.0
C545 C 0.86312 0.7981 0.93583 0.0
C546 C 0.85297 0.69485 0.98923 0.0
C547 C 0.88253 0.83871 0.94638 0.0
C548 C 0.68875 0.58581 0.99425 0.0
C549 C 0.73187 0.60065 0.98514 0.0
C550 C 0.78933 0.68044 0.92331 0.0
C551 C 0.88266 0.7596 0.95001 0.0
C552 C 0.85569 0.71864 0.95034 0.0
C553 C 0.73981 0.64483 0.97684 0.0
C554 C 0.78383 0.66123 0.96422 0.0
H555 H 0.97281 0.80441 0.00266 0.0
H556 H 0.9398 0.73342 0.98281 0.0
H557 H 0.82731 0.7258 0.88557 0.0
H558 H 0.63553 0.68244 0.98968 0.0
H559 H 0.71116 0.70879 0.97453 0.0
C560 C 0.6104 0.52144 0.90037 0.0
C561 C 0.61189 0.56334 0.91959 0.0
C562 C 0.63241 0.51295 0.8609 0.0
C563 C 0.71913 0.56236 0.78819 0.0
H564 H 0.67756 0.47201 0.70591 0.0
C565 C 0.78478 0.54268 0.61145 0.0
C566 C 0.80572 0.50287 0.60337 0.0
C567 C 0.759 0.5487 0.64894 0.0
C568 C 0.68945 0.49724 0.72877 0.0
H569 H 0.63198 0.63064 0.90916 0.0
H570 H 0.66936 0.61658 0.8405 0.0
H571 H 0.63538 0.48628 0.7728 0.0
H572 H 0.81494 0.43775 0.62752 0.0
H573 H 0.76831 0.448 0.69253 0.0
H574 H 0.77208 0.57435 0.74292 0.0
C575 C 0.65426 0.58921 0.85719 0.0
C576 C 0.66557 0.50529 0.76727 0.0
C577 C 0.63289 0.59735 0.89686 0.0
C578 C 0.7992 0.46876 0.6329 0.0
C579 C 0.7725 0.47451 0.66992 0.0
C580 C 0.74229 0.55496 0.74933 0.0
C581 C 0.65525 0.54669 0.83901 0.0
C582 C 0.68015 0.53794 0.79764 0.0
C583 C 0.75281 0.51476 0.67853 0.0
C584 C 0.72775 0.52229 0.71941 0.0
H585 H 0.59269 0.49511 0.91592 0.0
H586 H 0.63208 0.47976 0.8481 0.0
H587 H 0.73227 0.58698 0.81103 0.0
H588 H 0.78945 0.56968 0.58952 0.0
H589 H 0.74409 0.58002 0.65503 0.0
C590 C 0.07161 0.48838 0.65238 0.0
C591 C 0.07361 0.4705 0.60993 0.0
C592 C 0.11015 0.50258 0.67392 0.0
C593 C 0.22081 0.47086 0.68705 0.0
H594 H 0.22853 0.57392 0.76293 0.0
C595 C 0.35058 0.49507 0.82755 0.0
C596 C 0.33429 0.51308 0.86694 0.0
C597 C 0.32408 0.49293 0.7899 0.0
C598 C 0.22683 0.54496 0.74197 0.0
H599 H 0.11634 0.45474 0.55538 0.0
H600 H 0.18535 0.47801 0.59434 0.0
H601 H 0.1744 0.57015 0.70313 0.0
H602 H 0.27644 0.54043 0.8983 0.0
H603 H 0.22995 0.53589 0.83284 0.0
H604 H 0.2713 0.44449 0.72752 0.0
C605 C 0.15361 0.48176 0.6104 0.0
C606 C 0.19633 0.5431 0.70747 0.0
C607 C 0.11448 0.46848 0.58826 0.0
C608 C 0.29017 0.52677 0.86843 0.0
C609 C 0.26371 0.52462 0.8308 0.0
C610 C 0.2513 0.47265 0.72172 0.0
C611 C 0.1516 0.49819 0.65373 0.0
C612 C 0.19185 0.50535 0.68087 0.0
C613 C 0.28077 0.50873 0.79089 0.0
C614 C 0.25326 0.50902 0.75057 0.0
H615 H 0.04023 0.48983 0.66951 0.0
H616 H 0.10771 0.51447 0.70749 0.0
H617 H 0.21752 0.44118 0.66727 0.0
H618 H 0.3844 0.48409 0.82522 0.0
H619 H 0.33807 0.48037 0.75967 0.0
C620 C 0.10345 0.53555 0.39325 0.0
C621 C 0.10741 0.56841 0.42578 0.0
C622 C 0.12847 0.53799 0.35489 0.0
C623 C 0.23228 0.58351 0.31232 0.0
H624 H 0.18051 0.55455 0.19845 0.0
C625 C 0.28705 0.57681 0.11801 0.0
C626 C 0.32587 0.55246 0.12108 0.0
C627 C 0.25976 0.58292 0.1546 0.0
C628 C 0.19539 0.56309 0.22995 0.0
H629 H 0.13812 0.63127 0.44255 0.0
H630 H 0.18339 0.63485 0.37607 0.0
H631 H 0.13278 0.55817 0.26307 0.0
H632 H 0.36662 0.51595 0.16536 0.0
H633 H 0.31946 0.52718 0.22906 0.0
H634 H 0.29499 0.58757 0.27943 0.0
C635 C 0.16135 0.60684 0.38056 0.0
C636 C 0.16812 0.56483 0.26695 0.0
C637 C 0.13578 0.60464 0.41869 0.0
C638 C 0.33707 0.53498 0.16176 0.0
C639 C 0.31014 0.54158 0.19839 0.0
C640 C 0.25961 0.58125 0.27542 0.0
C641 C 0.15807 0.57342 0.34833 0.0
C642 C 0.18636 0.57461 0.30859 0.0
C643 C 0.271 0.56533 0.19519 0.0
C644 C 0.24156 0.57055 0.23388 0.0
H645 H 0.08114 0.50776 0.3976 0.0
H646 H 0.1253 0.51168 0.33074 0.0
H647 H 0.24729 0.59091 0.34401 0.0
H648 H 0.27739 0.59073 0.08722 0.0
H649 H 0.22996 0.60162 0.1512 0.0
C650 C 0.60335 0.46878 0.0871 0.0
C651 C 0.57684 0.43045 0.0881 0.0
C652 C 0.64438 0.47118 0.10864 0.0
C653 C 0.72591 0.40751 0.17246 0.0
H654 H 0.71893 0.50651 0.25317 0.0
C655 C 0.84887 0.44578 0.3177 0.0
C656 C 0.82951 0.46095 0.35691 0.0
C657 C 0.82299 0.43873 0.27993 0.0
C658 C 0.72129 0.47863 0.23097 0.0
H659 H 0.57989 0.3608 0.09971 0.0
H660 H 0.64921 0.36541 0.13978 0.0
H661 H 0.67015 0.5018 0.18976 0.0
H662 H 0.76722 0.47764 0.38781 0.0
H663 H 0.72221 0.46505 0.3221 0.0
H664 H 0.77617 0.38378 0.21525 0.0
C665 C 0.63733 0.39458 0.12476 0.0
C666 C 0.69389 0.47629 0.19409 0.0
C667 C 0.59641 0.39232 0.10305 0.0
C668 C 0.78332 0.46632 0.35816 0.0
C669 C 0.75756 0.45944 0.32041 0.0
C670 C 0.75362 0.41 0.20946 0.0
C671 C 0.6601 0.43483 0.13062 0.0
C672 C 0.69509 0.44027 0.16487 0.0
C673 C 0.77734 0.4469 0.28061 0.0
C674 C 0.75065 0.44506 0.23966 0.0
H675 H 0.59154 0.49765 0.07178 0.0
H676 H 0.66244 0.50219 0.11044 0.0
H677 H 0.72781 0.37947 0.15041 0.0
H678 H 0.88433 0.44118 0.31555 0.0
H679 H 0.8391 0.42899 0.24974 0.0
C680 C 0.36593 0.84239 0.48669 0.0
C681 C 0.40526 0.84148 0.51114 0.0
C682 C 0.33996 0.80457 0.4807 0.0
C683 C 0.33014 0.68588 0.50813 0.0
H684 H 0.20697 0.71738 0.51993 0.0
C685 C 0.17519 0.56776 0.50398 0.0
C686 C 0.13672 0.58491 0.52296 0.0
C687 C 0.21553 0.59142 0.50684 0.0
C688 C 0.24129 0.70782 0.51761 0.0
H689 H 0.44977 0.80067 0.54697 0.0
H690 H 0.4022 0.73539 0.54025 0.0
H691 H 0.2622 0.77342 0.50933 0.0
H692 H 0.11218 0.63602 0.56605 0.0
H693 H 0.18297 0.67267 0.57672 0.0
H694 H 0.30814 0.61983 0.5193 0.0
C695 C 0.3923 0.76445 0.52371 0.0
C696 C 0.27308 0.74009 0.5101 0.0
C697 C 0.4193 0.80196 0.52806 0.0
C698 C 0.1409 0.62144 0.55122 0.0
C699 C 0.18152 0.64325 0.5564 0.0
C700 C 0.298 0.65327 0.51657 0.0
C701 C 0.35142 0.76582 0.5014 0.0
C702 C 0.31797 0.72979 0.50535 0.0
C703 C 0.21789 0.63117 0.53064 0.0
C704 C 0.25332 0.66422 0.52218 0.0
H705 H 0.35478 0.87251 0.47297 0.0
H706 H 0.3096 0.80641 0.46175 0.0
H707 H 0.36442 0.67674 0.50419 0.0
H708 H 0.17293 0.53878 0.48311 0.0
H709 H 0.24326 0.58075 0.48723 0.0
C710 C 0.13658 0.41995 0.43419 0.0
C711 C 0.10033 0.40818 0.46046 0.0
C712 C 0.17779 0.40089 0.44025 0.0
C713 C 0.24351 0.33029 0.51271 0.0
H714 H 0.28637 0.2821 0.40268 0.0
C715 C 0.38852 0.20902 0.50468 0.0
C716 C 0.37629 0.17002 0.4822 0.0
C717 C 0.36261 0.24616 0.50078 0.0
C718 C 0.27514 0.29565 0.43364 0.0
H719 H 0.07855 0.36918 0.5148 0.0
H720 H 0.15071 0.3359 0.5259 0.0
H721 H 0.22636 0.33388 0.4024 0.0
H722 H 0.32933 0.14001 0.43604 0.0
H723 H 0.28521 0.20485 0.42811 0.0
H724 H 0.29128 0.29037 0.54391 0.0
C725 C 0.14773 0.36019 0.50092 0.0
C726 C 0.24095 0.32564 0.43352 0.0
C727 C 0.10643 0.3792 0.49469 0.0
C728 C 0.33964 0.16971 0.45356 0.0
C729 C 0.31439 0.20689 0.44902 0.0
C730 C 0.27811 0.30053 0.5128 0.0
C731 C 0.18339 0.36945 0.47256 0.0
C732 C 0.22393 0.34254 0.47308 0.0
C733 C 0.32467 0.24513 0.47362 0.0
C734 C 0.29346 0.282 0.47329 0.0
H735 H 0.13225 0.44161 0.40705 0.0
H736 H 0.20468 0.40913 0.4182 0.0
H737 H 0.23135 0.34289 0.54371 0.0
H738 H 0.41628 0.20997 0.52741 0.0
H739 H 0.37146 0.27527 0.51994 0.0
C740 C 0.84661 0.66854 0.41879 0.0
C741 C 0.87645 0.66557 0.45395 0.0
C742 C 0.81842 0.70378 0.41639 0.0
C743 C 0.78682 0.81028 0.46652 0.0
H744 H 0.66798 0.76118 0.44778 0.0
C745 C 0.62442 0.90878 0.44838 0.0
C746 C 0.58574 0.88999 0.46596 0.0
C747 C 0.66487 0.88749 0.45119 0.0
C748 C 0.70087 0.7754 0.45354 0.0
H749 H 0.90346 0.69897 0.51176 0.0
H750 H 0.85347 0.76042 0.50806 0.0
H751 H 0.73148 0.71506 0.4387 0.0
H752 H 0.55858 0.8359 0.5023 0.0
H753 H 0.6291 0.79869 0.5079 0.0
H754 H 0.75524 0.87078 0.48203 0.0
C755 C 0.85217 0.73581 0.48207 0.0
C756 C 0.73743 0.74912 0.44753 0.0
C757 C 0.88094 0.70069 0.48411 0.0
C758 C 0.58826 0.85104 0.48876 0.0
C759 C 0.62848 0.82966 0.49156 0.0
C760 C 0.74993 0.83686 0.47231 0.0
C761 C 0.81891 0.73633 0.44958 0.0
C762 C 0.78088 0.7661 0.45385 0.0
C763 C 0.66682 0.84676 0.47127 0.0
C764 C 0.70656 0.81947 0.46623 0.0
H765 H 0.84275 0.64199 0.39496 0.0
H766 H 0.794 0.70389 0.39023 0.0
H767 H 0.81988 0.82425 0.47175 0.0
H768 H 0.62246 0.93775 0.42914 0.0
H769 H 0.69367 0.90121 0.43477 0.0
C770 C 0.67893 0.08758 0.52296 0.0
C771 C 0.64283 0.09988 0.49746 0.0
C772 C 0.72135 0.10517 0.51492 0.0
C773 C 0.78499 0.16653 0.43052 0.0
H774 H 0.85462 0.2098 0.53002 0.0
C775 C 0.8787 0.32808 0.44214 0.0
C776 C 0.91702 0.3323 0.46829 0.0
C777 C 0.85821 0.28725 0.43511 0.0
C778 C 0.83636 0.19683 0.50177 0.0
H779 H 0.62107 0.14019 0.44494 0.0
H780 H 0.69445 0.1729 0.43201 0.0
H781 H 0.79052 0.16195 0.54204 0.0
H782 H 0.96633 0.29705 0.5044 0.0
H783 H 0.92991 0.22574 0.49269 0.0
H784 H 0.82884 0.20487 0.39077 0.0
C785 C 0.69096 0.14862 0.45707 0.0
C786 C 0.79948 0.16946 0.50868 0.0
C787 C 0.64891 0.13077 0.46491 0.0
C788 C 0.93685 0.29468 0.48393 0.0
C789 C 0.91604 0.25389 0.47737 0.0
C790 C 0.82154 0.19439 0.42369 0.0
C791 C 0.72785 0.13554 0.48147 0.0
C792 C 0.77214 0.15585 0.47333 0.0
C793 C 0.87543 0.25024 0.45472 0.0
C794 C 0.84624 0.21132 0.45949 0.0
H795 H 0.67449 0.06316 0.5477 0.0
H796 H 0.74907 0.09442 0.53425 0.0
H797 H 0.76529 0.1554 0.40249 0.0
H798 H 0.86297 0.3566 0.42948 0.0
H799 H 0.82671 0.28537 0.41777 0.0
C800 C 0.48668 0.327 0.92732 0.0
C801 C 0.51631 0.35891 0.91175 0.0
C802 C 0.4852 0.28526 0.90824 0.0
C803 C 0.5439 0.21252 0.82907 0.0
H804 H 0.42469 0.16714 0.8047 0.0
C805 C 0.4512 0.11501 0.68136 0.0
C806 C 0.48403 0.08508 0.67027 0.0
C807 C 0.45302 0.13766 0.72142 0.0
C808 C 0.45823 0.17923 0.81136 0.0
H809 H 0.56814 0.37332 0.86537 0.0
H810 H 0.56498 0.30069 0.83042 0.0
H811 H 0.4353 0.2296 0.85422 0.0
H812 H 0.54182 0.05194 0.69422 0.0
H813 H 0.54454 0.09105 0.76469 0.0
H814 H 0.5665 0.16448 0.78335 0.0
C815 C 0.54365 0.30704 0.85818 0.0
C816 C 0.46442 0.21479 0.84024 0.0
C817 C 0.54538 0.34863 0.87774 0.0
C818 C 0.51641 0.07534 0.70159 0.0
C819 C 0.51812 0.09791 0.74186 0.0
C820 C 0.53766 0.17728 0.79979 0.0
C821 C 0.51293 0.27504 0.87269 0.0
C822 C 0.50722 0.23285 0.84821 0.0
C823 C 0.48753 0.13062 0.75146 0.0
C824 C 0.4946 0.16127 0.78934 0.0
H825 H 0.46453 0.33465 0.95402 0.0
H826 H 0.46175 0.26129 0.92078 0.0
H827 H 0.5774 0.22497 0.83528 0.0
H828 H 0.42542 0.12278 0.65815 0.0
H829 H 0.42902 0.16275 0.72741 0.0
C830 C 0.58746 0.85085 0.61626 0.0
C831 C 0.57008 0.8885 0.63552 0.0
C832 C 0.59911 0.81596 0.64205 0.0
C833 C 0.60927 0.77865 0.75727 0.0
H834 H 0.55462 0.67264 0.70785 0.0
C835 C 0.53348 0.64165 0.8607 0.0
C836 C 0.53364 0.59845 0.84442 0.0
C837 C 0.55192 0.6755 0.83631 0.0
C838 C 0.57107 0.70152 0.72194 0.0
H839 H 0.5527 0.92066 0.69637 0.0
H840 H 0.57165 0.85915 0.74201 0.0
H841 H 0.56355 0.73602 0.66271 0.0
H842 H 0.55596 0.55646 0.79124 0.0
H843 H 0.58837 0.61557 0.74878 0.0
H844 H 0.61464 0.7442 0.81732 0.0
C845 C 0.57768 0.85676 0.70712 0.0
C846 C 0.57627 0.73803 0.69594 0.0
C847 C 0.56656 0.89186 0.68117 0.0
C848 C 0.55455 0.58952 0.80428 0.0
C849 C 0.57317 0.62337 0.77998 0.0
C850 C 0.604 0.74197 0.7834 0.0
C851 C 0.59245 0.81774 0.68762 0.0
C852 C 0.59431 0.77741 0.71356 0.0
C853 C 0.57098 0.66687 0.79517 0.0
C854 C 0.58367 0.7034 0.76629 0.0
H855 H 0.58926 0.84737 0.58106 0.0
H856 H 0.61096 0.78666 0.62603 0.0
H857 H 0.62384 0.80832 0.77164 0.0
H858 H 0.51807 0.64954 0.89178 0.0
H859 H 0.54927 0.70865 0.8488 0.0
C860 C 0.54517 0.58592 0.18403 0.0
C861 C 0.50467 0.57482 0.16327 0.0
C862 C 0.5456 0.60505 0.22592 0.0
C863 C 0.46949 0.67167 0.29208 0.0
H864 H 0.57416 0.68727 0.36586 0.0
C865 C 0.47933 0.8076 0.42139 0.0
C866 C 0.51452 0.83727 0.41382 0.0
C867 C 0.47918 0.76583 0.40267 0.0
C868 C 0.5446 0.68284 0.34572 0.0
H869 H 0.43344 0.56934 0.1715 0.0
H870 H 0.43412 0.59946 0.24602 0.0
H871 H 0.56933 0.62604 0.31319 0.0
H872 H 0.57848 0.84603 0.38266 0.0
H873 H 0.57863 0.77233 0.34976 0.0
H874 H 0.44496 0.72846 0.32446 0.0
C875 C 0.46551 0.59608 0.22926 0.0
C876 C 0.54182 0.64799 0.31537 0.0
C877 C 0.465 0.57831 0.18677 0.0
C878 C 0.55109 0.82357 0.38918 0.0
C879 C 0.55121 0.78148 0.3706 0.0
C880 C 0.47189 0.70571 0.32294 0.0
C881 C 0.50553 0.61242 0.24825 0.0
C882 C 0.50491 0.64293 0.28693 0.0
C883 C 0.51454 0.7528 0.37609 0.0
C884 C 0.50999 0.71246 0.34901 0.0
H885 H 0.57628 0.58352 0.1665 0.0
H886 H 0.57716 0.61718 0.23895 0.0
H887 H 0.44089 0.66992 0.27046 0.0
H888 H 0.451 0.81747 0.44021 0.0
H889 H 0.45058 0.74429 0.40748 0.0
C890 C 0.46477 0.07284 0.299 0.0
C891 C 0.47019 0.07799 0.34451 0.0
C892 C 0.47235 0.10798 0.27167 0.0
C893 C 0.52518 0.21717 0.26475 0.0
H894 H 0.43406 0.23307 0.17674 0.0
C895 C 0.51028 0.37386 0.16361 0.0
C896 C 0.499 0.36769 0.11932 0.0
C897 C 0.51048 0.33825 0.19132 0.0
C898 C 0.4601 0.22878 0.20074 0.0
H899 H 0.4896 0.12346 0.39707 0.0
H900 H 0.50239 0.18522 0.3491 0.0
H901 H 0.42838 0.17112 0.22482 0.0
H902 H 0.47978 0.32099 0.06845 0.0
H903 H 0.48037 0.25818 0.11661 0.0
H904 H 0.55671 0.27525 0.24055 0.0
C905 C 0.4925 0.15387 0.33465 0.0
C906 C 0.45684 0.19331 0.22828 0.0
C907 C 0.48491 0.11861 0.36208 0.0
C908 C 0.48842 0.32586 0.10271 0.0
C909 C 0.48863 0.29029 0.13025 0.0
C910 C 0.52849 0.25278 0.23704 0.0
C911 C 0.48544 0.14903 0.28927 0.0
C912 C 0.48943 0.18698 0.26039 0.0
C913 C 0.49907 0.29618 0.17497 0.0
C914 C 0.49605 0.25875 0.20462 0.0
H915 H 0.45397 0.04182 0.28441 0.0
H916 H 0.46747 0.10313 0.23671 0.0
H917 H 0.55089 0.21289 0.28909 0.0
H918 H 0.51821 0.40627 0.17664 0.0
H919 H 0.51823 0.3438 0.22569 0.0
loop_
_geom_bond_atom_site_label_1
_geom_bond_atom_site_label_2
_geom_bond_distance
_geom_bond_site_symmetry_2
_ccdc_geom_bond_type
Zn0 O4 1.992 . S
Zn0 N7 2.004 1_545 S
Zn0 O31 2.064 1_545 S
Zn0 O36 1.963 . S
Zn1 O4 1.970 1_564 S
Zn1 N12 2.004 . S
Zn1 O33 1.963 1_554 S
Zn1 O38 2.064 . S
Zn2 O4 1.971 1_554 S
Zn2 N21 2.004 1_655 S
Zn2 O35 2.064 . S
Zn2 O39 1.963 . S
Zn3 O4 1.913 . S
Zn3 O30 1.941 . S
Zn3 O34 1.941 1_556 S
Zn3 O37 1.941 1_556 S
O4 Zn0 1.992 . S
O4 Zn1 1.970 1_546 S
O4 Zn2 1.971 1_556 S
O4 Zn3 1.913 . S
C5 O6 1.237 1_655 S
C5 O39 1.268 . S
O6 C5 1.237 1_455 S
N7 Zn0 2.004 1_565 S
N7 N8 1.383 1_655 S
N7 C10 1.306 1_655 S
N8 N7 1.383 1_455 S
N8 C11 1.302 . S
N9 C10 1.368 . S
N9 C11 1.379 . S
C10 N7 1.306 1_455 S
C10 N9 1.368 . S
C10 C49 1.481 1_455 S
C11 N8 1.302 . S
C11 N9 1.379 . S
N12 Zn1 2.004 . S
N12 C15 1.306 1_655 S
N12 N16 1.383 1_655 S
C13 N14 1.379 . S
C13 N16 1.302 . S
N14 C13 1.379 . S
N14 C15 1.368 . S
C15 N12 1.306 1_455 S
C15 N14 1.368 . S
C15 C18 1.481 1_455 S
N16 N12 1.383 1_455 S
N16 C13 1.302 . S
H17 C18 0.969 . S
C18 C15 1.481 1_655 S
C18 H17 0.969 . S
C18 H19 0.970 . S
C18 H20 0.971 . S
H19 C18 0.970 . S
H20 C18 0.971 . S
N21 Zn2 2.004 1_455 S
N21 C22 1.306 . S
N21 N24 1.384 1_554 S
C22 N21 1.306 . S
C22 N25 1.368 1_554 S
C22 C26 1.481 . S
C23 N24 1.302 . S
C23 N25 1.379 . S
N24 N21 1.384 1_556 S
N24 C23 1.302 . S
N25 C22 1.368 1_556 S
N25 C23 1.379 . S
C26 C22 1.481 . S
C26 H27 0.971 . S
C26 H28 0.970 . S
C26 H29 0.969 . S
H27 C26 0.971 . S
H28 C26 0.970 . S
H29 C26 0.969 . S
O30 Zn3 1.941 . S
O30 C32 1.277 1_545 S
O31 Zn0 2.064 1_565 S
O31 C32 1.233 . S
C32 O30 1.277 1_565 S
C32 O31 1.233 . S
O33 Zn1 1.963 1_556 S
O33 C40 1.268 . S
O34 Zn3 1.941 1_554 S
O34 C42 1.277 1_554 S
O35 Zn2 2.064 . S
O35 C42 1.231 1_554 S
O36 Zn0 1.963 . S
O36 C43 1.268 . S
O37 Zn3 1.941 1_554 S
O37 C45 1.277 1_545 S
O38 Zn1 2.064 . S
O38 C45 1.233 . S
O39 Zn2 1.963 . S
O39 C5 1.268 . S
C40 O33 1.268 . S
C40 O41 1.237 1_556 S
O41 C40 1.237 1_554 S
C42 O34 1.277 1_556 S
C42 O35 1.231 1_556 S
C43 O36 1.268 . S
C43 O44 1.237 . S
O44 C43 1.237 . S
C45 O37 1.277 1_565 S
C45 O38 1.233 . S
H46 C49 0.970 . S
H47 C49 0.971 . S
H48 C49 0.969 1_455 S
C49 C10 1.481 1_655 S
C49 H46 0.970 . S
C49 H47 0.971 . S
C49 H48 0.969 1_655 S
Zn50 O54 1.978 . S
Zn50 N57 2.004 . S
Zn50 O81 2.064 . S
Zn50 O86 1.963 . S
Zn51 O54 1.978 . S
Zn51 N62 2.004 . S
Zn51 O83 1.963 . S
Zn51 O88 2.064 . S
Zn52 O54 1.978 . S
Zn52 N71 2.004 1_655 S
Zn52 O85 2.064 . S
Zn52 O89 1.963 . S
Zn53 O54 1.913 . S
Zn53 O80 1.941 . S
Zn53 O84 1.941 . S
Zn53 O87 1.941 . S
O54 Zn50 1.978 . S
O54 Zn51 1.978 . S
O54 Zn52 1.978 . S
O54 Zn53 1.913 . S
C55 O56 1.237 1_655 S
C55 O89 1.268 . S
O56 C55 1.237 1_455 S
N57 Zn50 2.004 . S
N57 N58 1.383 1_655 S
N57 C60 1.306 1_655 S
N58 N57 1.383 1_455 S
N58 C61 1.302 . S
N59 C60 1.368 . S
N59 C61 1.379 . S
C60 N57 1.306 1_455 S
C60 N59 1.368 . S
C60 C99 1.481 1_455 S
C61 N58 1.302 . S
C61 N59 1.379 . S
N62 Zn51 2.004 . S
N62 C65 1.306 1_655 S
N62 N66 1.383 1_655 S
C63 N64 1.379 . S
C63 N66 1.302 . S
N64 C63 1.379 . S
N64 C65 1.368 . S
C65 N62 1.306 1_455 S
C65 N64 1.368 . S
C65 C68 1.481 1_455 S
N66 N62 1.383 1_455 S
N66 C63 1.302 . S
H67 C68 0.969 . S
C68 C65 1.481 1_655 S
C68 H67 0.969 . S
C68 H69 0.970 . S
C68 H70 0.971 . S
H69 C68 0.970 . S
H70 C68 0.971 . S
N71 Zn52 2.004 1_455 S
N71 C72 1.306 . S
N71 N74 1.383 . S
C72 N71 1.306 . S
C72 N75 1.368 . S
C72 C76 1.481 . S
C73 N74 1.302 . S
C73 N75 1.379 . S
N74 N71 1.383 . S
N74 C73 1.302 . S
N75 C72 1.368 . S
N75 C73 1.379 . S
C76 C72 1.481 . S
C76 H77 0.971 . S
C76 H78 0.970 . S
C76 H79 0.969 . S
H77 C76 0.971 . S
H78 C76 0.970 . S
H79 C76 0.969 . S
O80 Zn53 1.941 . S
O80 C82 1.277 . S
O81 Zn50 2.064 . S
O81 C82 1.233 . S
C82 O80 1.277 . S
C82 O81 1.233 . S
O83 Zn51 1.963 . S
O83 C90 1.268 . S
O84 Zn53 1.941 . S
O84 C92 1.277 . S
O85 Zn52 2.064 . S
O85 C92 1.233 . S
O86 Zn50 1.963 . S
O86 C93 1.268 . S
O87 Zn53 1.941 . S
O87 C95 1.277 . S
O88 Zn51 2.064 . S
O88 C95 1.233 . S
O89 Zn52 1.963 . S
O89 C55 1.268 . S
C90 O83 1.268 . S
C90 O91 1.237 . S
O91 C90 1.237 . S
C92 O84 1.277 . S
C92 O85 1.233 . S
C93 O86 1.268 . S
C93 O94 1.237 . S
O94 C93 1.237 . S
C95 O87 1.277 . S
C95 O88 1.233 . S
H96 C99 0.970 . S
H97 C99 0.971 . S
H98 C99 0.969 1_455 S
C99 C60 1.481 1_655 S
C99 H96 0.970 . S
C99 H97 0.971 . S
C99 H98 0.969 1_655 S
Zn100 O104 1.978 . S
Zn100 N107 2.004 1_545 S
Zn100 O131 2.064 1_545 S
Zn100 O136 1.963 . S
Zn101 O104 1.978 1_565 S
Zn101 N112 2.004 . S
Zn101 O133 1.963 . S
Zn101 O138 2.064 . S
Zn102 O104 1.978 . S
Zn102 N121 2.004 . S
Zn102 O135 2.064 . S
Zn102 O139 1.963 . S
Zn103 O104 1.913 . S
Zn103 O130 1.941 . S
Zn103 O134 1.941 . S
Zn103 O137 1.941 . S
O104 Zn100 1.978 . S
O104 Zn101 1.978 1_545 S
O104 Zn102 1.978 . S
O104 Zn103 1.913 . S
C105 O106 1.237 . S
C105 O139 1.268 . S
O106 C105 1.237 . S
N107 Zn100 2.004 1_565 S
N107 N108 1.383 . S
N107 C110 1.306 . S
N108 N107 1.383 . S
N108 C111 1.302 . S
N109 C110 1.368 . S
N109 C111 1.379 . S
C110 N107 1.306 . S
C110 N109 1.368 . S
C110 C149 1.481 . S
C111 N108 1.302 . S
C111 N109 1.379 . S
N112 Zn101 2.004 . S
N112 C115 1.306 . S
N112 N116 1.383 . S
C113 N114 1.379 . S
C113 N116 1.302 . S
N114 C113 1.379 . S
N114 C115 1.368 . S
C115 N112 1.306 . S
C115 N114 1.368 . S
C115 C118 1.481 . S
N116 N112 1.383 . S
N116 C113 1.302 . S
H117 C118 0.969 . S
C118 C115 1.481 . S
C118 H117 0.969 . S
C118 H119 0.970 . S
C118 H120 0.971 . S
H119 C118 0.970 . S
H120 C118 0.971 . S
N121 Zn102 2.004 . S
N121 C122 1.306 . S
N121 N124 1.383 . S
C122 N121 1.306 . S
C122 N125 1.368 . S
C122 C126 1.481 . S
C123 N124 1.302 . S
C123 N125 1.379 . S
N124 N121 1.383 . S
N124 C123 1.302 . S
N125 C122 1.368 . S
N125 C123 1.379 . S
C126 C122 1.481 . S
C126 H127 0.971 . S
C126 H128 0.970 . S
C126 H129 0.969 . S
H127 C126 0.971 . S
H128 C126 0.970 . S
H129 C126 0.969 . S
O130 Zn103 1.941 . S
O130 C132 1.277 1_545 S
O131 Zn100 2.064 1_565 S
O131 C132 1.233 . S
C132 O130 1.277 1_565 S
C132 O131 1.233 . S
O133 Zn101 1.963 . S
O133 C140 1.268 . S
O134 Zn103 1.941 . S
O134 C142 1.277 . S
O135 Zn102 2.064 . S
O135 C142 1.233 . S
O136 Zn100 1.963 . S
O136 C143 1.268 . S
O137 Zn103 1.941 . S
O137 C145 1.277 1_545 S
O138 Zn101 2.064 . S
O138 C145 1.233 . S
O139 Zn102 1.963 . S
O139 C105 1.268 . S
C140 O133 1.268 . S
C140 O141 1.237 . S
O141 C140 1.237 . S
C142 O134 1.277 . S
C142 O135 1.233 . S
C143 O136 1.268 . S
C143 O144 1.237 . S
O144 C143 1.237 . S
C145 O137 1.277 1_565 S
C145 O138 1.233 . S
H146 C149 0.970 . S
H147 C149 0.971 . S
H148 C149 0.969 . S
C149 C110 1.481 . S
C149 H146 0.970 . S
C149 H147 0.971 . S
C149 H148 0.969 . S
Zn150 O154 1.992 . S
Zn150 N157 2.004 . S
Zn150 O181 2.064 . S
Zn150 O186 1.963 . S
Zn151 O154 1.970 1_554 S
Zn151 N162 2.004 . S
Zn151 O183 1.963 1_554 S
Zn151 O188 2.064 . S
Zn152 O154 1.971 1_554 S
Zn152 N171 2.004 . S
Zn152 O185 2.064 . S
Zn152 O189 1.963 . S
Zn153 O154 1.913 . S
Zn153 O180 1.941 . S
Zn153 O184 1.941 1_556 S
Zn153 O187 1.941 1_556 S
O154 Zn150 1.992 . S
O154 Zn151 1.970 1_556 S
O154 Zn152 1.971 1_556 S
O154 Zn153 1.913 . S
C155 O156 1.237 . S
C155 O189 1.268 . S
O156 C155 1.237 . S
N157 Zn150 2.004 . S
N157 N158 1.383 . S
N157 C160 1.306 . S
N158 N157 1.383 . S
N158 C161 1.302 . S
N159 C160 1.368 . S
N159 C161 1.379 . S
C160 N157 1.306 . S
C160 N159 1.368 . S
C160 C199 1.481 . S
C161 N158 1.302 . S
C161 N159 1.379 . S
N162 Zn151 2.004 . S
N162 C165 1.306 . S
N162 N166 1.383 . S
C163 N164 1.379 . S
C163 N166 1.302 . S
N164 C163 1.379 . S
N164 C165 1.368 . S
C165 N162 1.306 . S
C165 N164 1.368 . S
C165 C168 1.481 . S
N166 N162 1.383 . S
N166 C163 1.302 . S
H167 C168 0.969 . S
C168 C165 1.481 . S
C168 H167 0.969 . S
C168 H169 0.970 . S
C168 H170 0.971 . S
H169 C168 0.970 . S
H170 C168 0.971 . S
N171 Zn152 2.004 . S
N171 C172 1.306 . S
N171 N174 1.384 1_554 S
C172 N171 1.306 . S
C172 N175 1.368 1_554 S
C172 C176 1.481 . S
C173 N174 1.302 . S
C173 N175 1.379 . S
N174 N171 1.384 1_556 S
N174 C173 1.302 . S
N175 C172 1.368 1_556 S
N175 C173 1.379 . S
C176 C172 1.481 . S
C176 H177 0.971 . S
C176 H178 0.970 . S
C176 H179 0.969 . S
H177 C176 0.971 . S
H178 C176 0.970 . S
H179 C176 0.969 . S
O180 Zn153 1.941 . S
O180 C182 1.277 . S
O181 Zn150 2.064 . S
O181 C182 1.233 . S
C182 O180 1.277 . S
C182 O181 1.233 . S
O183 Zn151 1.963 1_556 S
O183 C190 1.268 . S
O184 Zn153 1.941 1_554 S
O184 C192 1.277 1_554 S
O185 Zn152 2.064 . S
O185 C192 1.231 1_554 S
O186 Zn150 1.963 . S
O186 C193 1.268 . S
O187 Zn153 1.941 1_554 S
O187 C195 1.277 . S
O188 Zn151 2.064 . S
O188 C195 1.233 . S
O189 Zn152 1.963 . S
O189 C155 1.268 . S
C190 O183 1.268 . S
C190 O191 1.237 1_556 S
O191 C190 1.237 1_554 S
C192 O184 1.277 1_556 S
C192 O185 1.231 1_556 S
C193 O186 1.268 . S
C193 O194 1.237 . S
O194 C193 1.237 . S
C195 O187 1.277 . S
C195 O188 1.233 . S
H196 C199 0.970 . S
H197 C199 0.971 . S
H198 C199 0.969 . S
C199 C160 1.481 . S
C199 H196 0.970 . S
C199 H197 0.971 . S
C199 H198 0.969 . S
C200 C201 1.349 1_455 S
C200 C202 1.327 . S
C200 H225 0.950 . S
C201 C200 1.349 1_655 S
C201 C217 1.349 . S
C202 C200 1.327 . S
C202 C221 1.429 . S
C202 H226 0.950 . S
C203 C220 1.573 1_655 S
C203 C222 1.368 1_655 S
C203 H227 0.949 . S
H204 C208 0.949 . S
C205 C206 1.349 . S
C205 C207 1.327 . S
C205 H228 0.950 . S
C206 C205 1.349 . S
C206 C218 1.349 . S
C207 C205 1.327 . S
C207 C223 1.429 . S
C207 H229 0.950 1_455 S
C208 H204 0.949 . S
C208 C216 1.574 . S
C208 C224 1.368 . S
H209 C217 0.950 . S
H210 C215 0.950 . S
H211 C216 0.949 . S
H212 C218 0.950 . S
H213 C219 0.950 . S
H214 C220 0.947 1_655 S
C215 H210 0.950 . S
C215 C217 1.327 . S
C215 C221 1.429 1_655 S
C216 C208 1.574 . S
C216 H211 0.949 . S
C216 C222 1.368 . S
C217 C201 1.349 . S
C217 H209 0.950 . S
C217 C215 1.327 . S
C218 C206 1.349 . S
C218 H212 0.950 . S
C218 C219 1.327 . S
C219 H213 0.950 . S
C219 C218 1.327 . S
C219 C223 1.429 . S
C220 C203 1.573 1_455 S
C220 H214 0.947 1_455 S
C220 C224 1.371 . S
C221 C202 1.429 . S
C221 C215 1.429 1_455 S
C221 C222 1.523 . S
C222 C203 1.368 1_455 S
C222 C216 1.368 . S
C222 C221 1.523 . S
C223 C207 1.429 . S
C223 C219 1.429 . S
C223 C224 1.523 . S
C224 C208 1.368 . S
C224 C220 1.371 . S
C224 C223 1.523 . S
H225 C200 0.950 . S
H226 C202 0.950 . S
H227 C203 0.949 . S
H228 C205 0.950 . S
H229 C207 0.950 1_655 S
C230 C231 1.349 . S
C230 C232 1.327 . S
C230 H255 0.950 . S
C231 C230 1.349 . S
C231 C247 1.349 1_545 S
C232 C230 1.327 . S
C232 C251 1.429 . S
C232 H256 0.950 . S
C233 C250 1.574 . S
C233 C252 1.368 1_565 S
C233 H257 0.949 . S
H234 C238 0.949 . S
C235 C236 1.362 . S
C235 C237 1.325 1_545 S
C235 H258 0.938 1_545 S
C236 C235 1.362 . S
C236 C248 1.349 . S
C237 C235 1.325 1_565 S
C237 C253 1.429 1_565 S
C237 H259 0.950 . S
C238 H234 0.949 . S
C238 C246 1.574 . S
C238 C254 1.368 . S
H239 C247 0.950 . S
H240 C245 0.950 . S
H241 C246 0.949 . S
H242 C248 0.950 . S
H243 C249 0.950 . S
H244 C250 0.949 . S
C245 H240 0.950 . S
C245 C247 1.327 . S
C245 C251 1.429 1_565 S
C246 C238 1.574 . S
C246 H241 0.949 . S
C246 C252 1.368 . S
C247 C231 1.349 1_565 S
C247 H239 0.950 . S
C247 C245 1.327 . S
C248 C236 1.349 . S
C248 H242 0.950 . S
C248 C249 1.327 . S
C249 H243 0.950 . S
C249 C248 1.327 . S
C249 C253 1.429 . S
C250 C233 1.574 . S
C250 H244 0.949 . S
C250 C254 1.368 1_565 S
C251 C232 1.429 . S
C251 C245 1.429 1_545 S
C251 C252 1.523 . S
C252 C233 1.368 1_545 S
C252 C246 1.368 . S
C252 C251 1.523 . S
C253 C237 1.429 1_545 S
C253 C249 1.429 . S
C253 C254 1.523 . S
C254 C238 1.368 . S
C254 C250 1.368 1_545 S
C254 C253 1.523 . S
H255 C230 0.950 . S
H256 C232 0.950 . S
H257 C233 0.949 . S
H258 C235 0.938 1_565 S
H259 C237 0.950 . S
C260 C261 1.349 . S
C260 C262 1.327 . S
C260 H285 0.950 . S
C261 C260 1.349 . S
C261 C277 1.349 . S
C262 C260 1.327 . S
C262 C281 1.429 . S
C262 H286 0.950 . S
C263 C280 1.574 . S
C263 C282 1.368 . S
C263 H287 0.949 . S
H264 C268 0.950 . S
C265 C266 1.349 . S
C265 C267 1.327 . S
C265 H288 0.950 . S
C266 C265 1.349 . S
C266 C278 1.349 1_455 S
C267 C265 1.327 . S
C267 C283 1.429 . S
C267 H289 0.950 . S
C268 H264 0.950 . S
C268 C276 1.574 . S
C268 C284 1.368 . S
H269 C277 0.950 . S
H270 C275 0.950 . S
H271 C276 0.949 . S
H272 C278 0.950 . S
H273 C279 0.943 1_655 S
H274 C280 0.949 . S
C275 H270 0.950 . S
C275 C277 1.327 . S
C275 C281 1.429 . S
C276 C268 1.574 . S
C276 H271 0.949 . S
C276 C282 1.368 . S
C277 C261 1.349 . S
C277 H269 0.950 . S
C277 C275 1.327 . S
C278 C266 1.349 1_655 S
C278 H272 0.950 . S
C278 C279 1.325 1_655 S
C279 H273 0.943 1_455 S
C279 C278 1.325 1_455 S
C279 C283 1.437 . S
C280 C263 1.574 . S
C280 H274 0.949 . S
C280 C284 1.368 . S
C281 C262 1.429 . S
C281 C275 1.429 . S
C281 C282 1.523 . S
C282 C263 1.368 . S
C282 C276 1.368 . S
C282 C281 1.523 . S
C283 C267 1.429 . S
C283 C279 1.437 . S
C283 C284 1.523 . S
C284 C268 1.368 . S
C284 C280 1.368 . S
C284 C283 1.523 . S
H285 C260 0.950 . S
H286 C262 0.950 . S
H287 C263 0.949 . S
H288 C265 0.950 . S
H289 C267 0.950 . S
C290 C291 1.349 1_545 S
C290 C292 1.327 . S
C290 H315 0.950 . S
C291 C290 1.349 1_565 S
C291 C307 1.349 . S
C292 C290 1.327 . S
C292 C311 1.429 1_545 S
C292 H316 0.950 . S
C293 C310 1.574 . S
C293 C312 1.368 . S
C293 H317 0.949 . S
H294 C298 0.949 . S
C295 C296 1.349 . S
C295 C297 1.327 . S
C295 H318 0.950 . S
C296 C295 1.349 . S
C296 C308 1.349 1_565 S
C297 C295 1.327 . S
C297 C313 1.429 . S
C297 H319 0.950 . S
C298 H294 0.949 . S
C298 C306 1.574 . S
C298 C314 1.368 1_545 S
H299 C307 0.950 . S
H300 C305 0.950 . S
H301 C306 0.949 . S
H302 C308 0.950 . S
H303 C309 0.950 . S
H304 C310 0.949 . S
C305 H300 0.950 . S
C305 C307 1.327 . S
C305 C311 1.429 . S
C306 C298 1.574 . S
C306 H301 0.949 . S
C306 C312 1.368 1_545 S
C307 C291 1.349 . S
C307 H299 0.950 . S
C307 C305 1.327 . S
C308 C296 1.349 1_545 S
C308 H302 0.950 . S
C308 C309 1.327 . S
C309 H303 0.950 . S
C309 C308 1.327 . S
C309 C313 1.429 1_545 S
C310 C293 1.574 . S
C310 H304 0.949 . S
C310 C314 1.368 . S
C311 C292 1.429 1_565 S
C311 C305 1.429 . S
C311 C312 1.523 . S
C312 C293 1.368 . S
C312 C306 1.368 1_565 S
C312 C311 1.523 . S
C313 C297 1.429 . S
C313 C309 1.429 1_565 S
C313 C314 1.523 . S
C314 C298 1.368 1_565 S
C314 C310 1.368 . S
C314 C313 1.523 . S
H315 C290 0.950 . S
H316 C292 0.950 . S
H317 C293 0.949 . S
H318 C295 0.950 . S
H319 C297 0.950 . S
C320 C321 1.349 . S
C320 C322 1.327 . S
C320 H345 0.950 . S
C321 C320 1.349 . S
C321 C337 1.349 . S
C322 C320 1.327 . S
C322 C341 1.429 . S
C322 H346 0.950 . S
C323 C340 1.574 . S
C323 C342 1.368 . S
C323 H347 0.949 . S
H324 C328 0.949 . S
C325 C326 1.349 . S
C325 C327 1.327 . S
C325 H348 0.950 . S
C326 C325 1.349 . S
C326 C338 1.349 1_655 S
C327 C325 1.327 . S
C327 C343 1.429 1_655 S
C327 H349 0.950 . S
C328 H324 0.949 . S
C328 C336 1.574 . S
C328 C344 1.368 . S
H329 C337 0.950 . S
H330 C335 0.950 . S
H331 C336 0.949 . S
H332 C338 0.950 . S
H333 C339 0.950 . S
H334 C340 0.949 1_655 S
C335 H330 0.950 . S
C335 C337 1.327 . S
C335 C341 1.429 . S
C336 C328 1.574 . S
C336 H331 0.949 . S
C336 C342 1.368 . S
C337 C321 1.349 . S
C337 H329 0.950 . S
C337 C335 1.327 . S
C338 C326 1.349 1_455 S
C338 H332 0.950 . S
C338 C339 1.327 . S
C339 H333 0.950 . S
C339 C338 1.327 . S
C339 C343 1.429 . S
C340 C323 1.574 . S
C340 H334 0.949 1_455 S
C340 C344 1.368 . S
C341 C322 1.429 . S
C341 C335 1.429 . S
C341 C342 1.523 . S
C342 C323 1.368 . S
C342 C336 1.368 . S
C342 C341 1.523 . S
C343 C327 1.429 1_455 S
C343 C339 1.429 . S
C343 C344 1.523 . S
C344 C328 1.368 . S
C344 C340 1.368 . S
C344 C343 1.523 . S
H345 C320 0.950 . S
H346 C322 0.950 . S
H347 C323 0.949 . S
H348 C325 0.950 . S
H349 C327 0.950 . S
C350 C351 1.349 . S
C350 C352 1.327 . S
C350 H375 0.950 . S
C351 C350 1.349 . S
C351 C367 1.349 1_545 S
C352 C350 1.327 . S
C352 C371 1.429 . S
C352 H376 0.950 . S
C353 C370 1.574 . S
C353 C372 1.368 1_565 S
C353 H377 0.949 . S
H354 C358 0.949 . S
C355 C356 1.349 1_565 S
C355 C357 1.327 . S
C355 H378 0.950 . S
C356 C355 1.349 1_545 S
C356 C368 1.349 . S
C357 C355 1.327 . S
C357 C373 1.429 1_565 S
C357 H379 0.950 . S
C358 H354 0.949 . S
C358 C366 1.574 . S
C358 C374 1.368 . S
H359 C367 0.950 . S
H360 C365 0.950 . S
H361 C366 0.949 . S
H362 C368 0.950 . S
H363 C369 0.950 . S
H364 C370 0.949 . S
C365 H360 0.950 . S
C365 C367 1.327 . S
C365 C371 1.429 1_565 S
C366 C358 1.574 . S
C366 H361 0.949 . S
C366 C372 1.368 . S
C367 C351 1.349 1_565 S
C367 H359 0.950 . S
C367 C365 1.327 . S
C368 C356 1.349 . S
C368 H362 0.950 . S
C368 C369 1.327 . S
C369 H363 0.950 . S
C369 C368 1.327 . S
C369 C373 1.429 . S
C370 C353 1.574 . S
C370 H364 0.949 . S
C370 C374 1.368 1_565 S
C371 C352 1.429 . S
C371 C365 1.429 1_545 S
C371 C372 1.523 . S
C372 C353 1.368 1_545 S
C372 C366 1.368 . S
C372 C371 1.523 . S
C373 C357 1.429 1_545 S
C373 C369 1.429 . S
C373 C374 1.523 . S
C374 C358 1.368 . S
C374 C370 1.368 1_545 S
C374 C373 1.523 . S
H375 C350 0.950 . S
H376 C352 0.950 . S
H377 C353 0.949 . S
H378 C355 0.950 . S
H379 C357 0.950 . S
C380 C381 1.349 . S
C380 C382 1.327 . S
C380 H405 0.950 . S
C381 C380 1.349 . S
C381 C397 1.349 . S
C382 C380 1.327 . S
C382 C401 1.429 . S
C382 H406 0.950 . S
C383 C400 1.574 . S
C383 C402 1.368 . S
C383 H407 0.949 . S
H384 C388 0.949 . S
C385 C386 1.349 . S
C385 C387 1.327 . S
C385 H408 0.950 . S
C386 C385 1.349 . S
C386 C398 1.349 . S
C387 C385 1.327 . S
C387 C403 1.429 . S
C387 H409 0.950 . S
C388 H384 0.949 . S
C388 C396 1.574 . S
C388 C404 1.368 . S
H389 C397 0.950 . S
H390 C395 0.950 . S
H391 C396 0.949 . S
H392 C398 0.950 . S
H393 C399 0.950 . S
H394 C400 0.949 . S
C395 H390 0.950 . S
C395 C397 1.327 . S
C395 C401 1.429 . S
C396 C388 1.574 . S
C396 H391 0.949 . S
C396 C402 1.368 . S
C397 C381 1.349 . S
C397 H389 0.950 . S
C397 C395 1.327 . S
C398 C386 1.349 . S
C398 H392 0.950 . S
C398 C399 1.327 . S
C399 H393 0.950 . S
C399 C398 1.327 . S
C399 C403 1.429 . S
C400 C383 1.574 . S
C400 H394 0.949 . S
C400 C404 1.368 . S
C401 C382 1.429 . S
C401 C395 1.429 . S
C401 C402 1.523 . S
C402 C383 1.368 . S
C402 C396 1.368 . S
C402 C401 1.523 . S
C403 C387 1.429 . S
C403 C399 1.429 . S
C403 C404 1.523 . S
C404 C388 1.368 . S
C404 C400 1.368 . S
C404 C403 1.523 . S
H405 C380 0.950 . S
H406 C382 0.950 . S
H407 C383 0.949 . S
H408 C385 0.950 . S
H409 C387 0.950 . S
C410 C411 1.349 . S
C410 C412 1.327 . S
C410 H435 0.950 . S
C411 C410 1.349 . S
C411 C427 1.349 1_565 S
C412 C410 1.327 . S
C412 C431 1.429 . S
C412 H436 0.950 . S
C413 C430 1.574 . S
C413 C432 1.368 1_545 S
C413 H437 0.949 . S
H414 C418 0.949 . S
C415 C416 1.349 1_545 S
C415 C417 1.327 . S
C415 H438 0.950 . S
C416 C415 1.349 1_565 S
C416 C428 1.349 . S
C417 C415 1.327 . S
C417 C433 1.429 1_545 S
C417 H439 0.950 . S
C418 H414 0.949 . S
C418 C426 1.574 . S
C418 C434 1.368 . S
H419 C427 0.950 . S
H420 C425 0.950 . S
H421 C426 0.949 . S
H422 C428 0.950 . S
H423 C429 0.950 . S
H424 C430 0.949 . S
C425 H420 0.950 . S
C425 C427 1.327 . S
C425 C431 1.429 1_545 S
C426 C418 1.574 . S
C426 H421 0.949 . S
C426 C432 1.368 . S
C427 C411 1.349 1_545 S
C427 H419 0.950 . S
C427 C425 1.327 . S
C428 C416 1.349 . S
C428 H422 0.950 . S
C428 C429 1.327 . S
C429 H423 0.950 . S
C429 C428 1.327 . S
C429 C433 1.429 . S
C430 C413 1.574 . S
C430 H424 0.949 . S
C430 C434 1.368 1_545 S
C431 C412 1.429 . S
C431 C425 1.429 1_565 S
C431 C432 1.523 . S
C432 C413 1.368 1_565 S
C432 C426 1.368 . S
C432 C431 1.523 . S
C433 C417 1.429 1_565 S
C433 C429 1.429 . S
C433 C434 1.523 . S
C434 C418 1.368 . S
C434 C430 1.368 1_565 S
C434 C433 1.523 . S
H435 C410 0.950 . S
H436 C412 0.950 . S
H437 C413 0.949 . S
H438 C415 0.950 . S
H439 C417 0.950 . S
C440 C441 1.349 . S
C440 C442 1.327 . S
C440 H465 0.950 . S
C441 C440 1.349 . S
C441 C457 1.349 1_556 S
C442 C440 1.327 . S
C442 C461 1.429 . S
C442 H466 0.950 . S
C443 C460 1.574 . S
C443 C462 1.368 1_554 S
C443 H467 0.949 . S
H444 C448 0.949 . S
C445 C446 1.349 1_554 S
C445 C447 1.327 . S
C445 H468 0.950 . S
C446 C445 1.349 1_556 S
C446 C458 1.349 . S
C447 C445 1.327 . S
C447 C463 1.429 1_554 S
C447 H469 0.950 . S
C448 H444 0.949 . S
C448 C456 1.574 . S
C448 C464 1.368 . S
H449 C457 0.950 . S
H450 C455 0.950 . S
H451 C456 0.949 . S
H452 C458 0.950 . S
H453 C459 0.950 . S
H454 C460 0.949 . S
C455 H450 0.950 . S
C455 C457 1.327 . S
C455 C461 1.429 1_554 S
C456 C448 1.574 . S
C456 H451 0.949 . S
C456 C462 1.368 . S
C457 C441 1.349 1_554 S
C457 H449 0.950 . S
C457 C455 1.327 . S
C458 C446 1.349 . S
C458 H452 0.950 . S
C458 C459 1.327 . S
C459 H453 0.950 . S
C459 C458 1.327 . S
C459 C463 1.429 . S
C460 C443 1.574 . S
C460 H454 0.949 . S
C460 C464 1.368 1_554 S
C461 C442 1.429 . S
C461 C455 1.429 1_556 S
C461 C462 1.523 . S
C462 C443 1.368 1_556 S
C462 C456 1.368 . S
C462 C461 1.523 . S
C463 C447 1.429 1_556 S
C463 C459 1.429 . S
C463 C464 1.523 . S
C464 C448 1.368 . S
C464 C460 1.368 1_556 S
C464 C463 1.523 . S
H465 C440 0.950 . S
H466 C442 0.950 . S
H467 C443 0.949 . S
H468 C445 0.950 . S
H469 C447 0.950 . S
C470 C471 1.349 1_554 S
C470 C472 1.327 . S
C470 H495 0.950 . S
C471 C470 1.349 1_556 S
C471 C487 1.349 . S
C472 C470 1.327 . S
C472 C491 1.429 1_554 S
C472 H496 0.950 . S
C473 C490 1.574 . S
C473 C492 1.368 . S
C473 H497 0.949 . S
H474 C478 0.949 . S
C475 C476 1.349 . S
C475 C477 1.327 . S
C475 H498 0.950 . S
C476 C475 1.349 . S
C476 C488 1.349 1_556 S
C477 C475 1.327 . S
C477 C493 1.429 . S
C477 H499 0.950 . S
C478 H474 0.949 . S
C478 C486 1.574 . S
C478 C494 1.368 1_554 S
H479 C487 0.950 . S
H480 C485 0.950 . S
H481 C486 0.949 . S
H482 C488 0.950 . S
H483 C489 0.950 . S
H484 C490 0.949 . S
C485 H480 0.950 . S
C485 C487 1.327 . S
C485 C491 1.429 . S
C486 C478 1.574 . S
C486 H481 0.949 . S
C486 C492 1.368 1_554 S
C487 C471 1.349 . S
C487 H479 0.950 . S
C487 C485 1.327 . S
C488 C476 1.349 1_554 S
C488 H482 0.950 . S
C488 C489 1.327 . S
C489 H483 0.950 . S
C489 C488 1.327 . S
C489 C493 1.429 1_554 S
C490 C473 1.574 . S
C490 H484 0.949 . S
C490 C494 1.368 . S
C491 C472 1.429 1_556 S
C491 C485 1.429 . S
C491 C492 1.523 . S
C492 C473 1.368 . S
C492 C486 1.368 1_556 S
C492 C491 1.523 . S
C493 C477 1.429 . S
C493 C489 1.429 1_556 S
C493 C494 1.523 . S
C494 C478 1.368 1_556 S
C494 C490 1.368 . S
C494 C493 1.523 . S
H495 C470 0.950 . S
H496 C472 0.950 . S
H497 C473 0.949 . S
H498 C475 0.950 . S
H499 C477 0.950 . S
C500 C501 1.349 . S
C500 C502 1.327 . S
C500 H525 0.950 . S
C501 C500 1.349 . S
C501 C517 1.349 1_556 S
C502 C500 1.327 . S
C502 C521 1.429 . S
C502 H526 0.950 . S
C503 C520 1.574 . S
C503 C522 1.368 1_554 S
C503 H527 0.949 . S
H504 C508 0.949 . S
C505 C506 1.349 1_554 S
C505 C507 1.327 . S
C505 H528 0.950 . S
C506 C505 1.349 1_556 S
C506 C518 1.349 . S
C507 C505 1.327 . S
C507 C523 1.429 1_554 S
C507 H529 0.950 . S
C508 H504 0.949 . S
C508 C516 1.574 . S
C508 C524 1.368 . S
H509 C517 0.950 . S
H510 C515 0.950 . S
H511 C516 0.949 . S
H512 C518 0.950 . S
H513 C519 0.950 . S
H514 C520 0.949 . S
C515 H510 0.950 . S
C515 C517 1.327 . S
C515 C521 1.429 1_554 S
C516 C508 1.574 . S
C516 H511 0.949 . S
C516 C522 1.368 . S
C517 C501 1.349 1_554 S
C517 H509 0.950 . S
C517 C515 1.327 . S
C518 C506 1.349 . S
C518 H512 0.950 . S
C518 C519 1.327 . S
C519 H513 0.950 . S
C519 C518 1.327 . S
C519 C523 1.429 . S
C520 C503 1.574 . S
C520 H514 0.949 . S
C520 C524 1.368 1_554 S
C521 C502 1.429 . S
C521 C515 1.429 1_556 S
C521 C522 1.523 . S
C522 C503 1.368 1_556 S
C522 C516 1.368 . S
C522 C521 1.523 . S
C523 C507 1.429 1_556 S
C523 C519 1.429 . S
C523 C524 1.523 . S
C524 C508 1.368 . S
C524 C520 1.368 1_556 S
C524 C523 1.523 . S
H525 C500 0.950 . S
H526 C502 0.950 . S
H527 C503 0.949 . S
H528 C505 0.950 . S
H529 C507 0.950 . S
C530 C531 1.349 . S
C530 C532 1.327 . S
C530 H555 0.950 . S
C531 C530 1.349 . S
C531 C547 1.349 1_556 S
C532 C530 1.327 . S
C532 C551 1.429 . S
C532 H556 0.950 . S
C533 C550 1.574 . S
C533 C552 1.368 1_554 S
C533 H557 0.949 . S
H534 C538 0.949 . S
C535 C536 1.347 1_554 S
C535 C537 1.327 . S
C535 H558 0.952 . S
C536 C535 1.347 1_556 S
C536 C548 1.349 . S
C537 C535 1.327 . S
C537 C553 1.429 1_554 S
C537 H559 0.950 . S
C538 H534 0.949 . S
C538 C546 1.574 . S
C538 C554 1.368 . S
H539 C547 0.950 . S
H540 C545 0.950 . S
H541 C546 0.949 . S
H542 C548 0.950 . S
H543 C549 0.950 . S
H544 C550 0.949 . S
C545 H540 0.950 . S
C545 C547 1.327 . S
C545 C551 1.429 1_554 S
C546 C538 1.574 . S
C546 H541 0.949 . S
C546 C552 1.368 . S
C547 C531 1.349 1_554 S
C547 H539 0.950 . S
C547 C545 1.327 . S
C548 C536 1.349 . S
C548 H542 0.950 . S
C548 C549 1.327 . S
C549 H543 0.950 . S
C549 C548 1.327 . S
C549 C553 1.429 . S
C550 C533 1.574 . S
C550 H544 0.949 . S
C550 C554 1.368 1_554 S
C551 C532 1.429 . S
C551 C545 1.429 1_556 S
C551 C552 1.523 . S
C552 C533 1.368 1_556 S
C552 C546 1.368 . S
C552 C551 1.523 . S
C553 C537 1.429 1_556 S
C553 C549 1.429 . S
C553 C554 1.523 . S
C554 C538 1.368 . S
C554 C550 1.368 1_556 S
C554 C553 1.523 . S
H555 C530 0.950 . S
H556 C532 0.950 . S
H557 C533 0.949 . S
H558 C535 0.952 . S
H559 C537 0.950 . S
C560 C561 1.349 . S
C560 C562 1.327 . S
C560 H585 0.950 . S
C561 C560 1.349 . S
C561 C577 1.349 . S
C562 C560 1.327 . S
C562 C581 1.429 . S
C562 H586 0.950 . S
C563 C580 1.574 . S
C563 C582 1.368 . S
C563 H587 0.949 . S
H564 C568 0.949 . S
C565 C566 1.349 . S
C565 C567 1.327 . S
C565 H588 0.950 . S
C566 C565 1.349 . S
C566 C578 1.349 . S
C567 C565 1.327 . S
C567 C583 1.429 . S
C567 H589 0.950 . S
C568 H564 0.949 . S
C568 C576 1.574 . S
C568 C584 1.368 . S
H569 C577 0.950 . S
H570 C575 0.950 . S
H571 C576 0.949 . S
H572 C578 0.950 . S
H573 C579 0.950 . S
H574 C580 0.949 . S
C575 H570 0.950 . S
C575 C577 1.327 . S
C575 C581 1.429 . S
C576 C568 1.574 . S
C576 H571 0.949 . S
C576 C582 1.368 . S
C577 C561 1.349 . S
C577 H569 0.950 . S
C577 C575 1.327 . S
C578 C566 1.349 . S
C578 H572 0.950 . S
C578 C579 1.327 . S
C579 H573 0.950 . S
C579 C578 1.327 . S
C579 C583 1.429 . S
C580 C563 1.574 . S
C580 H574 0.949 . S
C580 C584 1.368 . S
C581 C562 1.429 . S
C581 C575 1.429 . S
C581 C582 1.523 . S
C582 C563 1.368 . S
C582 C576 1.368 . S
C582 C581 1.523 . S
C583 C567 1.429 . S
C583 C579 1.429 . S
C583 C584 1.523 . S
C584 C568 1.368 . S
C584 C580 1.368 . S
C584 C583 1.523 . S
H585 C560 0.950 . S
H586 C562 0.950 . S
H587 C563 0.949 . S
H588 C565 0.950 . S
H589 C567 0.950 . S
C590 C591 1.349 . S
C590 C592 1.327 . S
C590 H615 0.950 . S
C591 C590 1.349 . S
C591 C607 1.349 . S
C592 C590 1.327 . S
C592 C611 1.429 . S
C592 H616 0.950 . S
C593 C610 1.574 . S
C593 C612 1.368 . S
C593 H617 0.949 . S
H594 C598 0.949 . S
C595 C596 1.349 . S
C595 C597 1.327 . S
C595 H618 0.950 . S
C596 C595 1.349 . S
C596 C608 1.349 . S
C597 C595 1.327 . S
C597 C613 1.429 . S
C597 H619 0.950 . S
C598 H594 0.949 . S
C598 C606 1.574 . S
C598 C614 1.368 . S
H599 C607 0.950 . S
H600 C605 0.950 . S
H601 C606 0.949 . S
H602 C608 0.950 . S
H603 C609 0.950 . S
H604 C610 0.949 . S
C605 H600 0.950 . S
C605 C607 1.327 . S
C605 C611 1.429 . S
C606 C598 1.574 . S
C606 H601 0.949 . S
C606 C612 1.368 . S
C607 C591 1.349 . S
C607 H599 0.950 . S
C607 C605 1.327 . S
C608 C596 1.349 . S
C608 H602 0.950 . S
C608 C609 1.327 . S
C609 H603 0.950 . S
C609 C608 1.327 . S
C609 C613 1.429 . S
C610 C593 1.574 . S
C610 H604 0.949 . S
C610 C614 1.368 . S
C611 C592 1.429 . S
C611 C605 1.429 . S
C611 C612 1.523 . S
C612 C593 1.368 . S
C612 C606 1.368 . S
C612 C611 1.523 . S
C613 C597 1.429 . S
C613 C609 1.429 . S
C613 C614 1.523 . S
C614 C598 1.368 . S
C614 C610 1.368 . S
C614 C613 1.523 . S
H615 C590 0.950 . S
H616 C592 0.950 . S
H617 C593 0.949 . S
H618 C595 0.950 . S
H619 C597 0.950 . S
C620 C621 1.349 . S
C620 C622 1.327 . S
C620 H645 0.950 . S
C621 C620 1.349 . S
C621 C637 1.349 . S
C622 C620 1.327 . S
C622 C641 1.429 . S
C622 H646 0.950 . S
C623 C640 1.574 . S
C623 C642 1.368 . S
C623 H647 0.949 . S
H624 C628 0.949 . S
C625 C626 1.349 . S
C625 C627 1.327 . S
C625 H648 0.950 . S
C626 C625 1.349 . S
C626 C638 1.349 . S
C627 C625 1.327 . S
C627 C643 1.429 . S
C627 H649 0.950 . S
C628 H624 0.949 . S
C628 C636 1.574 . S
C628 C644 1.368 . S
H629 C637 0.950 . S
H630 C635 0.950 . S
H631 C636 0.949 . S
H632 C638 0.950 . S
H633 C639 0.950 . S
H634 C640 0.949 . S
C635 H630 0.950 . S
C635 C637 1.327 . S
C635 C641 1.429 . S
C636 C628 1.574 . S
C636 H631 0.949 . S
C636 C642 1.368 . S
C637 C621 1.349 . S
C637 H629 0.950 . S
C637 C635 1.327 . S
C638 C626 1.349 . S
C638 H632 0.950 . S
C638 C639 1.327 . S
C639 H633 0.950 . S
C639 C638 1.327 . S
C639 C643 1.429 . S
C640 C623 1.574 . S
C640 H634 0.949 . S
C640 C644 1.368 . S
C641 C622 1.429 . S
C641 C635 1.429 . S
C641 C642 1.523 . S
C642 C623 1.368 . S
C642 C636 1.368 . S
C642 C641 1.523 . S
C643 C627 1.429 . S
C643 C639 1.429 . S
C643 C644 1.523 . S
C644 C628 1.368 . S
C644 C640 1.368 . S
C644 C643 1.523 . S
H645 C620 0.950 . S
H646 C622 0.950 . S
H647 C623 0.949 . S
H648 C625 0.950 . S
H649 C627 0.950 . S
C650 C651 1.349 . S
C650 C652 1.327 . S
C650 H675 0.950 . S
C651 C650 1.349 . S
C651 C667 1.349 . S
C652 C650 1.327 . S
C652 C671 1.429 . S
C652 H676 0.950 . S
C653 C670 1.574 . S
C653 C672 1.368 . S
C653 H677 0.949 . S
H654 C658 0.949 . S
C655 C656 1.349 . S
C655 C657 1.327 . S
C655 H678 0.950 . S
C656 C655 1.349 . S
C656 C668 1.349 . S
C657 C655 1.327 . S
C657 C673 1.429 . S
C657 H679 0.950 . S
C658 H654 0.949 . S
C658 C666 1.574 . S
C658 C674 1.368 . S
H659 C667 0.950 . S
H660 C665 0.950 . S
H661 C666 0.949 . S
H662 C668 0.950 . S
H663 C669 0.950 . S
H664 C670 0.949 . S
C665 H660 0.950 . S
C665 C667 1.327 . S
C665 C671 1.429 . S
C666 C658 1.574 . S
C666 H661 0.949 . S
C666 C672 1.368 . S
C667 C651 1.349 . S
C667 H659 0.950 . S
C667 C665 1.327 . S
C668 C656 1.349 . S
C668 H662 0.950 . S
C668 C669 1.327 . S
C669 H663 0.950 . S
C669 C668 1.327 . S
C669 C673 1.429 . S
C670 C653 1.574 . S
C670 H664 0.949 . S
C670 C674 1.368 . S
C671 C652 1.429 . S
C671 C665 1.429 . S
C671 C672 1.523 . S
C672 C653 1.368 . S
C672 C666 1.368 . S
C672 C671 1.523 . S
C673 C657 1.429 . S
C673 C669 1.429 . S
C673 C674 1.523 . S
C674 C658 1.368 . S
C674 C670 1.368 . S
C674 C673 1.523 . S
H675 C650 0.950 . S
H676 C652 0.950 . S
H677 C653 0.949 . S
H678 C655 0.950 . S
H679 C657 0.950 . S
C680 C681 1.349 . S
C680 C682 1.327 . S
C680 H705 0.950 . S
C681 C680 1.349 . S
C681 C697 1.349 . S
C682 C680 1.327 . S
C682 C701 1.429 . S
C682 H706 0.950 . S
C683 C700 1.574 . S
C683 C702 1.368 . S
C683 H707 0.949 . S
H684 C688 0.949 . S
C685 C686 1.349 . S
C685 C687 1.327 . S
C685 H708 0.950 . S
C686 C685 1.349 . S
C686 C698 1.349 . S
C687 C685 1.327 . S
C687 C703 1.429 . S
C687 H709 0.950 . S
C688 H684 0.949 . S
C688 C696 1.574 . S
C688 C704 1.368 . S
H689 C697 0.950 . S
H690 C695 0.950 . S
H691 C696 0.949 . S
H692 C698 0.950 . S
H693 C699 0.950 . S
H694 C700 0.949 . S
C695 H690 0.950 . S
C695 C697 1.327 . S
C695 C701 1.429 . S
C696 C688 1.574 . S
C696 H691 0.949 . S
C696 C702 1.368 . S
C697 C681 1.349 . S
C697 H689 0.950 . S
C697 C695 1.327 . S
C698 C686 1.349 . S
C698 H692 0.950 . S
C698 C699 1.327 . S
C699 H693 0.950 . S
C699 C698 1.327 . S
C699 C703 1.429 . S
C700 C683 1.574 . S
C700 H694 0.949 . S
C700 C704 1.368 . S
C701 C682 1.429 . S
C701 C695 1.429 . S
C701 C702 1.523 . S
C702 C683 1.368 . S
C702 C696 1.368 . S
C702 C701 1.523 . S
C703 C687 1.429 . S
C703 C699 1.429 . S
C703 C704 1.523 . S
C704 C688 1.368 . S
C704 C700 1.368 . S
C704 C703 1.523 . S
H705 C680 0.950 . S
H706 C682 0.950 . S
H707 C683 0.949 . S
H708 C685 0.950 . S
H709 C687 0.950 . S
C710 C711 1.349 . S
C710 C712 1.327 . S
C710 H735 0.950 . S
C711 C710 1.349 . S
C711 C727 1.349 . S
C712 C710 1.327 . S
C712 C731 1.429 . S
C712 H736 0.950 . S
C713 C730 1.574 . S
C713 C732 1.368 . S
C713 H737 0.949 . S
H714 C718 0.949 . S
C715 C716 1.349 . S
C715 C717 1.327 . S
C715 H738 0.950 . S
C716 C715 1.349 . S
C716 C728 1.349 . S
C717 C715 1.327 . S
C717 C733 1.429 . S
C717 H739 0.950 . S
C718 H714 0.949 . S
C718 C726 1.574 . S
C718 C734 1.368 . S
H719 C727 0.950 . S
H720 C725 0.950 . S
H721 C726 0.949 . S
H722 C728 0.950 . S
H723 C729 0.950 . S
H724 C730 0.949 . S
C725 H720 0.950 . S
C725 C727 1.327 . S
C725 C731 1.429 . S
C726 C718 1.574 . S
C726 H721 0.949 . S
C726 C732 1.368 . S
C727 C711 1.349 . S
C727 H719 0.950 . S
C727 C725 1.327 . S
C728 C716 1.349 . S
C728 H722 0.950 . S
C728 C729 1.327 . S
C729 H723 0.950 . S
C729 C728 1.327 . S
C729 C733 1.429 . S
C730 C713 1.574 . S
C730 H724 0.949 . S
C730 C734 1.368 . S
C731 C712 1.429 . S
C731 C725 1.429 . S
C731 C732 1.523 . S
C732 C713 1.368 . S
C732 C726 1.368 . S
C732 C731 1.523 . S
C733 C717 1.429 . S
C733 C729 1.429 . S
C733 C734 1.523 . S
C734 C718 1.368 . S
C734 C730 1.368 . S
C734 C733 1.523 . S
H735 C710 0.950 . S
H736 C712 0.950 . S
H737 C713 0.949 . S
H738 C715 0.950 . S
H739 C717 0.950 . S
C740 C741 1.349 . S
C740 C742 1.327 . S
C740 H765 0.950 . S
C741 C740 1.349 . S
C741 C757 1.349 . S
C742 C740 1.327 . S
C742 C761 1.429 . S
C742 H766 0.950 . S
C743 C760 1.574 . S
C743 C762 1.368 . S
C743 H767 0.949 . S
H744 C748 0.949 . S
C745 C746 1.349 . S
C745 C747 1.327 . S
C745 H768 0.950 . S
C746 C745 1.349 . S
C746 C758 1.349 . S
C747 C745 1.327 . S
C747 C763 1.429 . S
C747 H769 0.950 . S
C748 H744 0.949 . S
C748 C756 1.574 . S
C748 C764 1.368 . S
H749 C757 0.950 . S
H750 C755 0.950 . S
H751 C756 0.949 . S
H752 C758 0.950 . S
H753 C759 0.950 . S
H754 C760 0.949 . S
C755 H750 0.950 . S
C755 C757 1.327 . S
C755 C761 1.429 . S
C756 C748 1.574 . S
C756 H751 0.949 . S
C756 C762 1.368 . S
C757 C741 1.349 . S
C757 H749 0.950 . S
C757 C755 1.327 . S
C758 C746 1.349 . S
C758 H752 0.950 . S
C758 C759 1.327 . S
C759 H753 0.950 . S
C759 C758 1.327 . S
C759 C763 1.429 . S
C760 C743 1.574 . S
C760 H754 0.949 . S
C760 C764 1.368 . S
C761 C742 1.429 . S
C761 C755 1.429 . S
C761 C762 1.523 . S
C762 C743 1.368 . S
C762 C756 1.368 . S
C762 C761 1.523 . S
C763 C747 1.429 . S
C763 C759 1.429 . S
C763 C764 1.523 . S
C764 C748 1.368 . S
C764 C760 1.368 . S
C764 C763 1.523 . S
H765 C740 0.950 . S
H766 C742 0.950 . S
H767 C743 0.949 . S
H768 C745 0.950 . S
H769 C747 0.950 . S
C770 C771 1.349 . S
C770 C772 1.327 . S
C770 H795 0.950 . S
C771 C770 1.349 . S
C771 C787 1.349 . S
C772 C770 1.327 . S
C772 C791 1.429 . S
C772 H796 0.950 . S
C773 C790 1.574 . S
C773 C792 1.368 . S
C773 H797 0.949 . S
H774 C778 0.949 . S
C775 C776 1.349 . S
C775 C777 1.327 . S
C775 H798 0.950 . S
C776 C775 1.349 . S
C776 C788 1.349 . S
C777 C775 1.327 . S
C777 C793 1.429 . S
C777 H799 0.950 . S
C778 H774 0.949 . S
C778 C786 1.574 . S
C778 C794 1.368 . S
H779 C787 0.950 . S
H780 C785 0.950 . S
H781 C786 0.949 . S
H782 C788 0.950 . S
H783 C789 0.950 . S
H784 C790 0.949 . S
C785 H780 0.950 . S
C785 C787 1.327 . S
C785 C791 1.429 . S
C786 C778 1.574 . S
C786 H781 0.949 . S
C786 C792 1.368 . S
C787 C771 1.349 . S
C787 H779 0.950 . S
C787 C785 1.327 . S
C788 C776 1.349 . S
C788 H782 0.950 . S
C788 C789 1.327 . S
C789 H783 0.950 . S
C789 C788 1.327 . S
C789 C793 1.429 . S
C790 C773 1.574 . S
C790 H784 0.949 . S
C790 C794 1.368 . S
C791 C772 1.429 . S
C791 C785 1.429 . S
C791 C792 1.523 . S
C792 C773 1.368 . S
C792 C786 1.368 . S
C792 C791 1.523 . S
C793 C777 1.429 . S
C793 C789 1.429 . S
C793 C794 1.523 . S
C794 C778 1.368 . S
C794 C790 1.368 . S
C794 C793 1.523 . S
H795 C770 0.950 . S
H796 C772 0.950 . S
H797 C773 0.949 . S
H798 C775 0.950 . S
H799 C777 0.950 . S
C800 C801 1.349 . S
C800 C802 1.327 . S
C800 H825 0.950 . S
C801 C800 1.349 . S
C801 C817 1.349 . S
C802 C800 1.327 . S
C802 C821 1.429 . S
C802 H826 0.950 . S
C803 C820 1.574 . S
C803 C822 1.368 . S
C803 H827 0.949 . S
H804 C808 0.949 . S
C805 C806 1.349 . S
C805 C807 1.327 . S
C805 H828 0.950 . S
C806 C805 1.349 . S
C806 C818 1.349 . S
C807 C805 1.327 . S
C807 C823 1.429 . S
C807 H829 0.950 . S
C808 H804 0.949 . S
C808 C816 1.574 . S
C808 C824 1.368 . S
H809 C817 0.950 . S
H810 C815 0.950 . S
H811 C816 0.949 . S
H812 C818 0.950 . S
H813 C819 0.950 . S
H814 C820 0.949 . S
C815 H810 0.950 . S
C815 C817 1.327 . S
C815 C821 1.429 . S
C816 C808 1.574 . S
C816 H811 0.949 . S
C816 C822 1.368 . S
C817 C801 1.349 . S
C817 H809 0.950 . S
C817 C815 1.327 . S
C818 C806 1.349 . S
C818 H812 0.950 . S
C818 C819 1.327 . S
C819 H813 0.950 . S
C819 C818 1.327 . S
C819 C823 1.429 . S
C820 C803 1.574 . S
C820 H814 0.949 . S
C820 C824 1.368 . S
C821 C802 1.429 . S
C821 C815 1.429 . S
C821 C822 1.523 . S
C822 C803 1.368 . S
C822 C816 1.368 . S
C822 C821 1.523 . S
C823 C807 1.429 . S
C823 C819 1.429 . S
C823 C824 1.523 . S
C824 C808 1.368 . S
C824 C820 1.368 . S
C824 C823 1.523 . S
H825 C800 0.950 . S
H826 C802 0.950 . S
H827 C803 0.949 . S
H828 C805 0.950 . S
H829 C807 0.950 . S
C830 C831 1.349 . S
C830 C832 1.327 . S
C830 H855 0.950 . S
C831 C830 1.349 . S
C831 C847 1.349 . S
C832 C830 1.327 . S
C832 C851 1.429 . S
C832 H856 0.950 . S
C833 C850 1.574 . S
C833 C852 1.368 . S
C833 H857 0.949 . S
H834 C838 0.949 . S
C835 C836 1.349 . S
C835 C837 1.327 . S
C835 H858 0.950 . S
C836 C835 1.349 . S
C836 C848 1.349 . S
C837 C835 1.327 . S
C837 C853 1.429 . S
C837 H859 0.950 . S
C838 H834 0.949 . S
C838 C846 1.574 . S
C838 C854 1.368 . S
H839 C847 0.950 . S
H840 C845 0.950 . S
H841 C846 0.949 . S
H842 C848 0.950 . S
H843 C849 0.950 . S
H844 C850 0.949 . S
C845 H840 0.950 . S
C845 C847 1.327 . S
C845 C851 1.429 . S
C846 C838 1.574 . S
C846 H841 0.949 . S
C846 C852 1.368 . S
C847 C831 1.349 . S
C847 H839 0.950 . S
C847 C845 1.327 . S
C848 C836 1.349 . S
C848 H842 0.950 . S
C848 C849 1.327 . S
C849 H843 0.950 . S
C849 C848 1.327 . S
C849 C853 1.429 . S
C850 C833 1.574 . S
C850 H844 0.949 . S
C850 C854 1.368 . S
C851 C832 1.429 . S
C851 C845 1.429 . S
C851 C852 1.523 . S
C852 C833 1.368 . S
C852 C846 1.368 . S
C852 C851 1.523 . S
C853 C837 1.429 . S
C853 C849 1.429 . S
C853 C854 1.523 . S
C854 C838 1.368 . S
C854 C850 1.368 . S
C854 C853 1.523 . S
H855 C830 0.950 . S
H856 C832 0.950 . S
H857 C833 0.949 . S
H858 C835 0.950 . S
H859 C837 0.950 . S
C860 C861 1.349 . S
C860 C862 1.327 . S
C860 H885 0.950 . S
C861 C860 1.349 . S
C861 C877 1.349 . S
C862 C860 1.327 . S
C862 C881 1.429 . S
C862 H886 0.950 . S
C863 C880 1.574 . S
C863 C882 1.368 . S
C863 H887 0.949 . S
H864 C868 0.949 . S
C865 C866 1.349 . S
C865 C867 1.327 . S
C865 H888 0.950 . S
C866 C865 1.349 . S
C866 C878 1.349 . S
C867 C865 1.327 . S
C867 C883 1.429 . S
C867 H889 0.950 . S
C868 H864 0.949 . S
C868 C876 1.574 . S
C868 C884 1.368 . S
H869 C877 0.950 . S
H870 C875 0.950 . S
H871 C876 0.949 . S
H872 C878 0.950 . S
H873 C879 0.950 . S
H874 C880 0.949 . S
C875 H870 0.950 . S
C875 C877 1.327 . S
C875 C881 1.429 . S
C876 C868 1.574 . S
C876 H871 0.949 . S
C876 C882 1.368 . S
C877 C861 1.349 . S
C877 H869 0.950 . S
C877 C875 1.327 . S
C878 C866 1.349 . S
C878 H872 0.950 . S
C878 C879 1.327 . S
C879 H873 0.950 . S
C879 C878 1.327 . S
C879 C883 1.429 . S
C880 C863 1.574 . S
C880 H874 0.949 . S
C880 C884 1.368 . S
C881 C862 1.429 . S
C881 C875 1.429 . S
C881 C882 1.523 . S
C882 C863 1.368 . S
C882 C876 1.368 . S
C882 C881 1.523 . S
C883 C867 1.429 . S
C883 C879 1.429 . S
C883 C884 1.523 . S
C884 C868 1.368 . S
C884 C880 1.368 . S
C884 C883 1.523 . S
H885 C860 0.950 . S
H886 C862 0.950 . S
H887 C863 0.949 . S
H888 C865 0.950 . S
H889 C867 0.950 . S
C890 C891 1.349 . S
C890 C892 1.327 . S
C890 H915 0.950 . S
C891 C890 1.349 . S
C891 C907 1.349 . S
C892 C890 1.327 . S
C892 C911 1.429 . S
C892 H916 0.950 . S
C893 C910 1.574 . S
C893 C912 1.368 . S
C893 H917 0.949 . S
H894 C898 0.949 . S
C895 C896 1.349 . S
C895 C897 1.327 . S
C895 H918 0.950 . S
C896 C895 1.349 . S
C896 C908 1.349 . S
C897 C895 1.327 . S
C897 C913 1.429 . S
C897 H919 0.950 . S
C898 H894 0.949 . S
C898 C906 1.574 . S
C898 C914 1.368 . S
H899 C907 0.950 . S
H900 C905 0.950 . S
H901 C906 0.949 . S
H902 C908 0.950 . S
H903 C909 0.950 . S
H904 C910 0.949 . S
C905 H900 0.950 . S
C905 C907 1.327 . S
C905 C911 1.429 . S
C906 C898 1.574 . S
C906 H901 0.949 . S
C906 C912 1.368 . S
C907 C891 1.349 . S
C907 H899 0.950 . S
C907 C905 1.327 . S
C908 C896 1.349 . S
C908 H902 0.950 . S
C908 C909 1.327 . S
C909 H903 0.950 . S
C909 C908 1.327 . S
C909 C913 1.429 . S
C910 C893 1.574 . S
C910 H904 0.949 . S
C910 C914 1.368 . S
C911 C892 1.429 . S
C911 C905 1.429 . S
C911 C912 1.523 . S
C912 C893 1.368 . S
C912 C906 1.368 . S
C912 C911 1.523 . S
C913 C897 1.429 . S
C913 C909 1.429 . S
C913 C914 1.523 . S
C914 C898 1.368 . S
C914 C910 1.368 . S
C914 C913 1.523 . S
H915 C890 0.950 . S
H916 C892 0.950 . S
H917 C893 0.949 . S
H918 C895 0.950 . S
H919 C897 0.950 . S
C201 C5 1.026 . S
C206 N59 1.157 . S
C231 C45 1.587 1_545 S
C236 C123 1.539 . S
C261 N14 1.471 . S
C266 C93 1.559 1_455 S
C291 C132 1.196 . S
C296 C13 1.117 . S
C321 N9 1.161 . S
C326 C55 1.029 . S
C351 C23 1.540 . S
C356 C145 1.588 1_545 S
C381 N64 1.471 . S
C386 C43 1.556 1_455 S
C411 C113 1.121 . S
C416 C32 1.200 . S
C441 C190 0.755 . S
C446 N25 0.753 . S
C471 C192 1.825 . S
C476 C11 1.849 . S
C501 C161 1.849 . S
C506 C42 1.825 . S
C531 C40 0.755 . S
C536 N175 0.761 . S
C561 C173 1.540 . S
C566 C95 1.591 . S
C591 C63 1.121 . S
C596 C182 1.196 . S
C621 C73 1.540 . S
C626 C195 1.583 . S
C651 C163 1.121 . S
C656 C82 1.196 . S
C681 C140 0.755 . S
C686 N75 0.756 . S
C711 C61 1.849 . S
C716 C142 1.820 . S
C741 C92 1.824 . S
C746 C111 1.853 . S
C771 N125 0.757 . S
C776 C90 0.754 . S
C801 N159 1.161 . S
C806 C105 1.028 . S
C831 N114 1.471 . S
C836 C193 1.561 . S
C861 C155 1.026 . S
C866 N109 1.162 . S
C891 C143 1.557 . S
C896 N164 1.467 . S
