# Generated by pormake.
# Topology rkf, (6)-cn, num edge types: 1
# Building blocks:
#     Node 0, Type 0, BuildingBlock: INOVEN_clean_sbu_0, # of connection points: 6
#     Node 1, Type 0, BuildingBlock: INOVEN_clean_sbu_0, # of connection points: 6
#     Node 2, Type 0, BuildingBlock: INOVEN_clean_sbu_0, # of connection points: 6
#     Node 3, Type 0, BuildingBlock: INOVEN_clean_sbu_0, # of connection points: 6
#     Node 4, Type 0, BuildingBlock: INOVEN_clean_sbu_0, # of connection points: 6
#     Node 5, Type 0, BuildingBlock: INOVEN_clean_sbu_0, # of connection points: 6
#     Edge 6, Type (0, 0), BuildingBlock: AJUNOK_clean_linker_0, # of connection points: 2
#     Edge 7, Type (0, 0), BuildingBlock: AJUNOK_clean_linker_0, # of connection points: 2
#     Edge 8, Type (0, 0), BuildingBlock: AJUNOK_clean_linker_0, # of connection points: 2
#     Edge 9, Type (0, 0), BuildingBlock: AJUNOK_clean_linker_0, # of connection points: 2
#     Edge 10, Type (0, 0), BuildingBlock: AJUNOK_clean_linker_0, # of connection points: 2
#     Edge 11, Type (0, 0), BuildingBlock: AJUNOK_clean_linker_0, # of connection points: 2
#     Edge 12, Type (0, 0), BuildingBlock: AJUNOK_clean_linker_0, # of connection points: 2
#     Edge 13, Type (0, 0), BuildingBlock: AJUNOK_clean_linker_0, # of connection points: 2
#     Edge 14, Type (0, 0), BuildingBlock: AJUNOK_clean_linker_0, # of connection points: 2
#     Edge 15, Type (0, 0), BuildingBlock: AJUNOK_clean_linker_0, # of connection points: 2
#     Edge 16, Type (0, 0), BuildingBlock: AJUNOK_clean_linker_0, # of connection points: 2
#     Edge 17, Type (0, 0), BuildingBlock: AJUNOK_clean_linker_0, # of connection points: 2
#     Edge 18, Type (0, 0), BuildingBlock: AJUNOK_clean_linker_0, # of connection points: 2
#     Edge 19, Type (0, 0), BuildingBlock: AJUNOK_clean_linker_0, # of connection points: 2
#     Edge 20, Type (0, 0), BuildingBlock: AJUNOK_clean_linker_0, # of connection points: 2
#     Edge 21, Type (0, 0), BuildingBlock: AJUNOK_clean_linker_0, # of connection points: 2
#     Edge 22, Type (0, 0), BuildingBlock: AJUNOK_clean_linker_0, # of connection points: 2
#     Edge 23, Type (0, 0), BuildingBlock: AJUNOK_clean_linker_0, # of connection points: 2
# Relax obj value: 0.985
# Max RMSD: 0.254
# Mean RMSD: 0.254
data_MOF--net-rkf--node1-INOVEN_clean_sbu_0--edge1-AJUNOK_clean_linker_0
_symmetry_space_group_name_H-M    P1
_symmetry_Int_Tables_number       1
_symmetry_cell_setting            triclinic
loop_
_symmetry_equiv_pos_as_xyz
'x, y, z'
_cell_length_a     20.039037
_cell_length_b     19.938289
_cell_length_c     31.56929
_cell_angle_alpha  90.306947
_cell_angle_beta   89.29925
_cell_angle_gamma 119.33678
loop_
_atom_site_label
_atom_site_type_symbol
_atom_site_fract_x
_atom_site_fract_y
_atom_site_fract_z
_atom_type_partial_charge
Gd0 Gd 0.24499 -0.00538 0.27061 0.0
Gd1 Gd 0.31434 0.12605 1.23992 0.0
C2 C 0.30417 0.11903 0.34206 0.0
C3 C 0.16795 0.85309 0.29464 0.0
C4 C 0.18927 0.80266 0.3171 0.0
C5 C 0.13485 0.74528 0.3431 0.0
C6 C 0.26553 0.81745 0.31711 0.0
C7 C 0.23477 0.72644 0.37469 0.0
C8 C 0.28807 0.77894 0.34558 0.0
C9 C 0.15742 0.70794 0.37177 0.0
C10 C 0.16075 0.08228 0.28914 0.0
C11 C 0.23188 0.00081 1.17007 0.0
C12 C 0.38535 0.27226 1.22553 0.0
C13 C 0.43639 0.33773 1.19899 0.0
C14 C 0.48664 0.40692 1.21915 0.0
C15 C 0.42404 0.33728 1.15545 0.0
C16 C 0.49251 0.47698 1.15562 0.0
C17 C 0.45218 0.4067 1.13381 0.0
C18 C 0.51499 0.47649 1.19746 0.0
C19 C 0.40324 0.057 1.23326 0.0
O20 O 0.28589 0.04639 0.33629 0.0
O21 O 0.31321 0.16063 0.30826 0.0
O22 O 0.19716 0.87368 0.25668 0.0
O23 O 0.17138 0.9101 0.31694 0.0
O24 O 0.18646 0.06117 0.25674 0.0
O25 O 0.18702 0.06072 0.25771 0.0
O26 O 0.2553 0.07389 1.17789 0.0
O27 O 0.23587 -0.04114 1.2011 0.0
O28 O 0.41488 0.23842 1.24753 0.0
O29 O 0.31687 0.22527 1.21145 0.0
O30 O 0.38809 0.08939 1.20231 0.0
O31 O 0.36884 0.05924 0.26631 0.0
H32 H 0.07603 0.7337 0.34368 0.0
H33 H 0.30849 0.86219 0.29714 0.0
H34 H 0.34803 0.79507 0.34739 0.0
H35 H 0.11545 0.67081 0.39482 0.0
H36 H 0.49759 0.40794 0.25275 0.0
H37 H 0.38631 0.2842 1.13921 0.0
H38 H 0.43439 0.40505 1.10138 0.0
H39 H 0.54772 0.52976 1.21462 0.0
Gd40 Gd 0.35822 0.30667 0.60785 0.0
Gd41 Gd 0.24544 0.348 0.5718 0.0
C42 C 0.25634 0.33462 0.67539 0.0
C43 C 0.49145 0.31787 0.61591 0.0
C44 C 0.55428 0.34626 0.646 0.0
C45 C 0.54243 0.36191 0.68775 0.0
C46 C 0.62092 0.34346 0.63524 0.0
C47 C 0.646 0.34018 0.70988 0.0
C48 C 0.66809 0.34248 0.66722 0.0
C49 C 0.58872 0.35976 0.71963 0.0
C50 C 0.21429 0.19109 0.61136 0.0
C51 C 0.30697 0.26802 0.50575 0.0
C52 C 0.13203 0.37368 0.56282 0.0
C53 C 0.09286 0.40599 0.53824 0.0
C54 C 0.06164 0.44616 0.55986 0.0
C55 C 0.07818 0.38983 0.49508 0.0
C56 C -0.00443 0.44751 0.49637 0.0
C57 C 0.02964 0.41013 0.47437 0.0
C58 C 0.01305 0.46661 0.53912 0.0
C59 C 0.39363 0.46069 0.56801 0.0
O60 O 0.32538 0.34141 0.67035 0.0
O61 O 0.21327 0.32499 0.64195 0.0
O62 O 0.42747 0.25792 0.62848 0.0
O63 O 0.48086 0.3697 0.59664 0.0
O64 O 0.26481 0.20005 0.63978 0.0
O65 O 0.24439 0.23896 0.58164 0.0
O66 O 0.25895 0.29556 0.51061 0.0
O67 O 0.34969 0.26828 0.5379 0.0
O68 O 0.19542 0.42175 0.58171 0.0
O69 O 0.13184 0.31171 0.54853 0.0
O70 O 0.34515 0.44665 0.53779 0.0
O71 O 0.36035 0.41649 0.59895 0.0
H72 H 0.49222 0.36643 0.69632 0.0
H73 H 0.63199 0.33374 0.60274 0.0
H74 H 0.71432 0.3314 0.65868 0.0
H75 H 0.57111 0.36093 0.75207 0.0
H76 H 0.07215 0.4587 0.59333 0.0
H77 H 0.10128 0.35849 0.47786 0.0
H78 H 0.01568 0.39296 0.44162 0.0
H79 H -0.01262 0.49519 0.55669 0.0
Gd80 Gd 0.11449 0.38826 0.93742 0.0
Gd81 Gd -0.04254 0.27229 0.90048 0.0
C82 C -0.02421 0.29881 1.00511 0.0
C83 C 0.22349 0.51867 0.96384 0.0
C84 C 0.26518 0.56083 1.00117 0.0
C85 C 0.24324 0.52819 1.04151 0.0
C86 C 0.33401 0.62974 0.99547 0.0
C87 C 0.36834 0.62168 1.06774 0.0
C88 C 0.38549 0.66039 1.02875 0.0
C89 C 0.29442 0.55906 1.07488 0.0
C90 C 0.08818 0.24328 0.93337 0.0
C91 C 0.10588 0.32879 0.83991 0.0
C92 C 0.81959 0.16276 0.89252 0.0
C93 C 0.74236 0.1062 0.87925 0.0
C94 C 0.68885 0.05885 0.90995 0.0
C95 C 0.72205 0.09708 0.83661 0.0
C96 C 0.59719 -0.01166 0.85497 0.0
C97 C 0.65003 0.03857 0.82456 0.0
C98 C 0.61666 6e-05 0.89792 0.0
C99 C 0.01168 0.42193 0.87973 0.0
O100 O 0.05044 0.34754 1.00071 0.0
O101 O -0.06769 0.26665 0.9715 0.0
O102 O 0.23395 0.46148 0.9519 0.0
O103 O 0.15241 0.50338 0.96097 0.0
O104 O 0.15668 0.30241 0.93051 0.0
O105 O 0.03958 0.26382 0.9422 0.0
O106 O 0.03648 0.2701 0.8486 0.0
O107 O 0.13996 0.38771 0.86661 0.0
O108 O 0.83536 0.23208 0.90417 0.0
O109 O 0.879 0.15533 0.88116 0.0
O110 O -0.03327 0.36582 0.85525 0.0
O111 O 0.01643 0.39508 0.91463 0.0
H112 H 0.18986 0.47517 1.04628 0.0
H113 H 0.35102 0.65585 0.96436 0.0
H114 H 0.4421 0.70837 1.02253 0.0
H115 H 0.27989 0.52748 1.10447 0.0
H116 H 0.70381 0.06589 0.94317 0.0
H117 H 0.76259 0.13345 0.81259 0.0
H118 H 0.63728 0.03002 0.79109 0.0
H119 H 0.57713 -0.03751 0.92192 0.0
Gd120 Gd 0.78814 0.15274 0.27082 0.0
Gd121 Gd 0.80547 0.02067 1.23286 0.0
C122 C 0.78943 0.03082 0.33716 0.0
C123 C 0.73418 0.24488 0.28604 0.0
C124 C 0.71542 0.27568 0.32361 0.0
C125 C 0.71234 0.2432 0.36326 0.0
C126 C 0.71906 0.34757 0.32114 0.0
C127 C 0.74584 0.36565 0.39618 0.0
C128 C 0.73289 0.39218 0.35766 0.0
C129 C 0.72651 0.2878 0.3996 0.0
C130 C -0.071 0.17045 0.27477 0.0
C131 C 0.84165 0.15873 1.16999 0.0
C132 C 0.84096 0.91488 1.21747 0.0
C133 C 0.80451 0.83132 1.22247 0.0
C134 C 0.72445 0.7862 1.22392 0.0
C135 C 0.84956 0.79575 1.21892 0.0
C136 C 0.73542 0.67356 1.20567 0.0
C137 C 0.81516 0.71699 1.21089 0.0
C138 C 0.68995 0.70738 1.21575 0.0
C139 C 0.66165 0.00128 1.23278 0.0
O140 O 0.77258 0.08733 0.33273 0.0
O141 O 0.80715 0.00163 0.30379 0.0
O142 O 0.80726 0.26787 0.28122 0.0
O143 O 0.69082 0.17133 0.27878 0.0
O144 O 0.90127 0.1964 0.30423 0.0
O145 O 0.88323 0.14232 1.24459 0.0
O146 O 0.85759 0.10336 1.17849 0.0
O147 O 0.80741 0.18098 1.19893 0.0
O148 O 0.86097 -0.04416 1.25216 0.0
O149 O 0.80954 0.93891 1.18959 0.0
O150 O 0.68805 -0.02438 1.20293 0.0
O151 O 0.71027 0.03003 0.26142 0.0
H152 H 0.70863 0.18726 0.36569 0.0
H153 H 0.72041 0.37287 0.29062 0.0
H154 H 0.74571 0.4514 0.35448 0.0
H155 H 0.7348 0.26512 0.42898 0.0
H156 H 0.68884 0.81294 1.22722 0.0
H157 H 0.91147 0.82986 1.2182 0.0
H158 H 0.85183 0.69289 1.20294 0.0
H159 H 0.62845 0.67528 1.21178 0.0
Gd160 Gd 0.74941 0.84771 0.60406 0.0
Gd161 Gd 0.86505 0.81209 0.56335 0.0
C162 C 0.85793 0.82235 0.66646 0.0
C163 C 0.6167 0.8317 0.62341 0.0
C164 C 0.56589 0.80163 0.66042 0.0
C165 C 0.59322 0.78643 0.69761 0.0
C166 C 0.49326 0.79559 0.66033 0.0
C167 C 0.48452 0.77904 0.73702 0.0
C168 C 0.45213 0.78311 0.69836 0.0
C169 C 0.55318 0.77546 0.73557 0.0
C170 C 0.89219 -0.03415 0.60725 0.0
C171 C 0.79724 0.89052 0.50159 0.0
C172 C -0.01437 0.79737 0.55515 0.0
C173 C 0.03148 0.76132 0.5429 0.0
C174 C 0.01439 0.71373 0.50741 0.0
C175 C 0.09611 0.77792 0.56711 0.0
C176 C 0.13298 0.70923 0.51686 0.0
C177 C 0.14653 0.75204 0.55424 0.0
C178 C 0.0647 0.68764 0.49456 0.0
C179 C 0.71852 0.69432 0.56352 0.0
O180 O 0.78728 0.81176 0.66379 0.0
O181 O 0.90033 0.83714 0.63186 0.0
O182 O 0.68121 0.89527 0.62992 0.0
O183 O 0.62571 0.78094 0.60136 0.0
O184 O 0.84101 -0.04674 0.63659 0.0
O185 O 0.86343 0.91971 0.57667 0.0
O186 O 0.85193 0.87178 0.50592 0.0
O187 O 0.74982 0.88168 0.53387 0.0
O188 O -0.06432 0.7658 0.58577 0.0
O189 O -0.03392 0.83218 0.52676 0.0
O190 O 0.76677 0.70716 0.53269 0.0
O191 O 0.75205 0.74062 0.59322 0.0
H192 H 0.64878 0.78965 0.698 0.0
H193 H 0.47072 0.80567 0.6315 0.0
H194 H 0.39877 0.78447 0.69803 0.0
H195 H 0.58142 0.77339 0.76411 0.0
H196 H -0.03582 0.69952 0.48873 0.0
H197 H 0.10934 0.8138 0.59508 0.0
H198 H 0.19812 0.76903 0.57218 0.0
H199 H 0.05281 0.65526 0.46537 0.0
Gd200 Gd -0.01449 0.77719 0.93127 0.0
Gd201 Gd 0.14328 0.89335 0.89556 0.0
C202 C 0.11255 0.87472 0.99934 0.0
C203 C 0.86444 0.64644 0.9469 0.0
C204 C 0.82675 0.59784 0.98382 0.0
C205 C 0.8687 0.60408 1.02027 0.0
C206 C 0.74728 0.54949 0.98404 0.0
C207 C 0.75017 0.53035 1.05973 0.0
C208 C 0.70903 0.51532 1.02184 0.0
C209 C 0.83061 0.56974 1.05794 0.0
C210 C 0.01693 0.92477 0.93493 0.0
C211 C 0.00351 0.82795 0.82974 0.0
C212 C 0.28158 0.00542 0.8861 0.0
C213 C 0.354 0.03575 0.86211 0.0
C214 C 0.42275 0.06322 0.88448 0.0
C215 C 0.35661 0.04491 0.81805 0.0
C216 C 0.49603 0.1151 0.81962 0.0
C217 C 0.427 0.08449 0.79704 0.0
C218 C 0.49334 0.10282 0.86343 0.0
C219 C 0.1042 0.74527 0.88388 0.0
O220 O 0.04967 0.80778 0.99341 0.0
O221 O 0.14914 0.91969 0.96655 0.0
O222 O 0.86342 0.71156 0.945 0.0
O223 O -0.06883 0.65403 0.93698 0.0
O224 O -0.02654 0.87339 0.96291 0.0
O225 O 0.03565 0.89383 0.90584 0.0
O226 O 0.07586 0.88177 0.83618 0.0
O227 O -0.0388 0.77967 0.86049 0.0
O228 O 0.26357 0.9463 0.9107 0.0
O229 O 0.22238 0.00335 0.86758 0.0
O230 O 0.14896 0.79953 0.85815 0.0
O231 O 0.09094 0.77338 0.91681 0.0
H232 H -0.06964 0.64041 1.0205 0.0
H233 H 0.71434 0.54306 0.95585 0.0
H234 H 0.647 0.48539 1.02251 0.0
H235 H 0.86387 0.58301 1.08664 0.0
H236 H 0.42184 0.05687 0.91859 0.0
H237 H 0.30449 0.02449 0.80009 0.0
H238 H 0.42727 0.09461 0.76334 0.0
H239 H 0.54565 0.1261 0.88147 0.0
C240 C 0.02246 0.13824 1.24206 0.0
C241 C -0.00342 0.16048 0.27834 0.0
C242 C 0.07825 0.11586 1.24482 0.0
C243 C 0.10979 0.11491 0.28413 0.0
H244 H -0.00245 0.13549 1.2114 0.0
H245 H 0.09439 0.09652 1.21634 0.0
S246 S 0.0677 0.17527 0.38766 0.0
N247 N 0.0111 0.18605 0.35402 0.0
N248 N 0.11637 0.14354 0.3593 0.0
C249 C 0.08765 0.14097 0.32017 0.0
C250 C 0.03095 0.16409 0.31732 0.0
C251 C 0.01573 0.05466 0.57223 0.0
C252 C -0.02605 0.02324 0.60979 0.0
C253 C 0.09367 0.10879 0.57326 0.0
C254 C 0.13309 0.13148 0.61181 0.0
H255 H -0.01229 0.0382 0.54181 0.0
H256 H 0.12339 0.1327 0.54354 0.0
S257 S 0.05051 0.06325 0.71894 0.0
N258 N -0.02258 0.01776 0.68666 0.0
N259 N 0.12539 0.11702 0.68839 0.0
C260 C 0.09254 0.0991 0.64959 0.0
C261 C 0.01243 0.04561 0.64864 0.0
C262 C 0.01194 0.03682 0.96771 0.0
C263 C 0.03485 0.00606 0.93399 0.0
C264 C 0.02893 0.11399 0.96725 0.0
C265 C 0.07115 0.16301 0.93364 0.0
H266 H -0.01941 0.00113 0.99454 0.0
H267 H 0.00996 0.13577 0.99359 0.0
S268 S 0.13806 0.11002 0.83605 0.0
N269 N 0.09577 0.02996 0.86419 0.0
N270 N 0.13181 0.17579 0.86513 0.0
C271 C 0.0939 0.1333 0.89975 0.0
C272 C 0.07466 0.05446 0.89947 0.0
C273 C 0.50777 0.56103 1.09436 0.0
C274 C 0.4928 0.54558 1.13781 0.0
C275 C 0.47905 0.60178 1.07255 0.0
C276 C 0.43097 0.62482 1.09315 0.0
H277 H 0.53354 0.53344 1.07605 0.0
H278 H 0.48443 0.60393 1.03831 0.0
S279 S 0.39017 0.61574 1.20812 0.0
N280 N 0.44129 0.57174 1.2023 0.0
N281 N 0.38351 0.64491 1.16028 0.0
C282 C 0.42528 0.6203 1.13741 0.0
C283 C 0.45669 0.5808 1.16003 0.0
C284 C 0.86156 0.4236 0.49386 0.0
C285 C -0.06467 0.45751 0.47557 0.0
C286 C 0.79743 0.40504 0.46889 0.0
C287 C 0.8057 0.42005 0.4251 0.0
H288 H 0.85226 0.40291 0.52623 0.0
H289 H 0.74097 0.36995 0.48266 0.0
S290 S -0.01128 0.52647 0.36521 0.0
N291 N 0.0144 0.51995 0.4138 0.0
N292 N 0.89461 0.4857 0.36682 0.0
C293 C 0.88013 0.46561 0.40839 0.0
C294 C -0.05498 0.48377 0.43367 0.0
C295 C 0.48627 0.92596 0.80683 0.0
C296 C 0.52801 0.91852 0.84005 0.0
C297 C 0.45418 0.86928 0.77567 0.0
C298 C 0.46314 0.8035 0.77736 0.0
H299 H 0.48837 -0.01985 0.80145 0.0
H300 H 0.43475 0.8841 0.74719 0.0
S301 S 0.52519 0.73816 0.87101 0.0
N302 N 0.54796 0.82795 0.88202 0.0
N303 N 0.48238 0.71865 0.82461 0.0
C304 C 0.48396 0.78629 0.81657 0.0
C305 C 0.51878 0.84511 0.84776 0.0
C306 C 0.67882 0.62043 1.1368 0.0
C307 C 0.70678 0.60924 1.17515 0.0
C308 C 0.68251 0.58404 1.09989 0.0
C309 C 0.71394 0.53477 1.09982 0.0
H310 H 0.66301 0.66496 1.13387 0.0
H311 H 0.67018 0.60301 1.07035 0.0
S312 S 0.77607 0.47067 1.19396 0.0
N313 N 0.75254 0.53393 1.21278 0.0
N314 N 0.75945 0.46469 1.14252 0.0
C315 C 0.73205 0.51462 1.13888 0.0
C316 C 0.72841 0.55208 1.17681 0.0
C317 C 0.17653 0.63335 0.47312 0.0
C318 C 0.1952 0.70141 0.49548 0.0
C319 C 0.21042 0.63663 0.4335 0.0
C320 C 0.25967 0.70879 0.41518 0.0
H321 H 0.12739 0.58006 0.48267 0.0
H322 H 0.18428 0.58582 0.41367 0.0
S323 S 0.36124 0.89338 0.47259 0.0
N324 N 0.2925 0.83535 0.50543 0.0
N325 N 0.35491 0.84076 0.43071 0.0
C326 C 0.29631 0.77133 0.44296 0.0
C327 C 0.26248 0.76838 0.48329 0.0
C328 C 0.61057 0.2447 0.81237 0.0
C329 C 0.56863 0.16846 0.7978 0.0
C330 C 0.655 0.30461 0.78409 0.0
C331 C 0.65603 0.28943 0.74051 0.0
H332 H 0.60073 0.25955 0.84401 0.0
H333 H 0.67675 0.36328 0.79489 0.0
S334 S 0.58504 0.09635 0.69205 0.0
N335 N 0.55293 0.07898 0.74134 0.0
N336 N 0.63602 0.19085 0.68821 0.0
C337 C 0.62996 0.21238 0.72839 0.0
C338 C 0.58483 0.15166 0.75704 0.0
C339 C 0.49526 0.02709 0.27022 0.0
C340 C 0.4639 0.03488 1.23215 0.0
C341 C 0.55743 0.01317 0.27001 0.0
C342 C 0.59006 0.00569 1.23179 0.0
H343 H 0.47339 0.03441 0.30043 0.0
H344 H 0.58152 0.01035 0.30006 0.0
S345 S 0.52306 0.01167 1.12368 0.0
N346 N 0.46586 0.02742 1.15528 0.0
N347 N 0.58228 0.00043 1.15502 0.0
C348 C 0.55646 0.00879 1.1936 0.0
C349 C 0.49362 0.02384 1.19376 0.0
C350 C 0.51822 0.54953 0.6038 0.0
C351 C 0.47638 0.52008 0.56627 0.0
C352 C 0.59623 0.6061 0.60269 0.0
C353 C 0.63606 0.63412 0.564 0.0
H354 H 0.49027 0.52935 0.63432 0.0
H355 H 0.62573 0.62764 0.63239 0.0
S356 S 0.55331 0.57536 0.4568 0.0
N357 N 0.48095 0.52377 0.48932 0.0
N358 N 0.62741 0.6279 0.48728 0.0
C359 C 0.59509 0.60456 0.52632 0.0
C360 C 0.51538 0.54824 0.52744 0.0
C361 C -0.01709 0.52919 0.86975 0.0
C362 C 0.03715 0.50428 0.873 0.0
C363 C 0.00548 0.60792 0.87138 0.0
C364 C 0.0823 0.66361 0.878 0.0
H365 H 0.9226 0.4876 0.86729 0.0
H366 H -0.03748 0.6252 0.86744 0.0
S367 S 0.24807 0.62966 0.87568 0.0
N368 N 0.17255 0.54274 0.87292 0.0
N369 N 0.214 0.69006 0.87878 0.0
C370 C 0.1376 0.63998 0.87717 0.0
C371 C 0.11506 0.5602 0.8744 0.0
C372 C 0.30515 0.22517 0.38688 0.0
C373 C 0.30664 0.15481 0.38495 0.0
C374 C 0.30473 0.26071 0.42563 0.0
C375 C 0.30789 0.22915 0.46477 0.0
H376 H 0.30294 0.25305 0.358 0.0
H377 H 0.30275 0.31402 0.42485 0.0
S378 S 0.30888 0.04471 0.47883 0.0
N379 N 0.30786 0.05366 0.42685 0.0
N380 N 0.30984 0.12157 0.49935 0.0
C381 C 0.30946 0.15901 0.46363 0.0
C382 C 0.30809 0.12168 0.42401 0.0
C383 C 0.14085 0.28955 0.72424 0.0
C384 C 0.22134 0.33146 0.7187 0.0
C385 C 0.1046 0.28765 0.76332 0.0
C386 C 0.14652 0.32936 0.79891 0.0
H387 H 0.10495 0.2574 0.69797 0.0
H388 H 0.04275 0.25439 0.76527 0.0
S389 S 0.35893 0.44738 0.80229 0.0
N390 N 0.34187 0.41392 0.75332 0.0
N391 N 0.27443 0.41265 0.82597 0.0
C392 C 0.22722 0.37114 0.79401 0.0
C393 C 0.26429 0.37155 0.75434 0.0
C394 C 0.87305 0.19607 1.05119 0.0
C395 C -0.06014 0.2689 1.04808 0.0
C396 C 0.84007 0.16246 1.0906 0.0
C397 C 0.8707 0.20078 1.12893 0.0
H398 H 0.84712 0.16294 1.02289 0.0
H399 H 0.79085 0.10515 1.09107 0.0
S400 S 0.04308 0.3929 1.13957 0.0
N401 N 0.03454 0.37834 1.08785 0.0
N402 N -0.0288 0.31596 1.1616 0.0
C403 C -0.06396 0.27427 1.1266 0.0
C404 C -0.02917 0.30806 1.08638 0.0
C405 C 0.82726 -0.04691 0.38458 0.0
C406 C 0.79045 -0.00226 0.38018 0.0
C407 C 0.82877 0.9192 0.42346 0.0
C408 C 0.79274 0.92687 0.46037 0.0
H409 H 0.856 0.94426 0.35762 0.0
H410 H 0.85832 0.88602 0.42436 0.0
S411 S 0.68979 0.03938 0.46729 0.0
N412 N 0.71837 0.04905 0.41729 0.0
N413 N 0.72016 -0.01516 0.48992 0.0
C414 C 0.75585 -0.02837 0.45669 0.0
C415 C 0.75513 0.00714 0.41697 0.0
C416 C 0.85244 0.79968 0.74648 0.0
C417 C 0.89486 0.82349 0.70825 0.0
C418 C 0.88739 0.79985 0.78532 0.0
C419 C -0.03333 0.82515 0.78796 0.0
H420 H 0.79163 0.78032 0.74646 0.0
H421 H 0.85204 0.7812 0.8137 0.0
S422 S 0.10438 0.89253 0.69766 0.0
N423 N 0.02188 0.87201 0.67624 0.0
N424 N 0.08599 0.87353 0.7486 0.0
C425 C 0.00966 0.84919 0.75014 0.0
C426 C -0.02572 0.84798 0.71062 0.0
C427 C 0.19627 -0.01744 1.04981 0.0
C428 C 0.14172 0.90416 1.04353 0.0
C429 C 0.22469 0.01291 1.09037 0.0
C430 C 0.20153 -0.03361 1.12698 0.0
H431 H 0.21695 0.02164 1.02308 0.0
H432 H 0.26586 0.07359 1.09295 0.0
S433 S 0.05876 0.75775 1.12922 0.0
N434 N 0.06452 0.78112 1.07866 0.0
N435 N 0.11898 0.83739 1.15416 0.0
C436 C 0.14728 0.88785 1.12134 0.0
C437 C 0.11719 0.85711 1.08003 0.0
loop_
_geom_bond_atom_site_label_1
_geom_bond_atom_site_label_2
_geom_bond_distance
_geom_bond_site_symmetry_2
_ccdc_geom_bond_type
Gd0 C3 2.818 . S
Gd0 O20 2.377 . S
Gd0 O22 2.448 . S
Gd0 O23 2.506 . S
Gd0 O24 2.435 . S
Gd0 O25 2.717 . S
Gd0 O27 2.395 1_554 S
Gd0 O31 2.327 . S
Gd1 C12 2.818 . S
Gd1 O21 2.395 1_556 S
Gd1 O25 2.327 1_556 S
Gd1 O26 2.377 . S
Gd1 O28 2.448 . S
Gd1 O29 2.506 . S
Gd1 O30 2.435 . S
Gd1 O31 2.717 1_556 S
C2 O20 1.240 . S
C2 O21 1.240 . S
C3 Gd0 2.818 . S
C3 C4 1.510 . S
C3 O22 1.249 . S
C3 O23 1.252 . S
C4 C3 1.510 . S
C4 C5 1.404 . S
C4 C6 1.352 . S
C5 C4 1.404 . S
C5 C9 1.389 1_545 S
C5 H32 0.930 1_545 S
C6 C4 1.352 . S
C6 C8 1.374 . S
C6 H33 0.931 . S
C7 C8 1.359 . S
C7 C9 1.364 1_545 S
C8 C6 1.374 . S
C8 C7 1.359 . S
C8 H34 0.931 . S
C9 C5 1.389 1_565 S
C9 C7 1.364 1_565 S
C9 H35 0.931 . S
C10 O24 1.256 . S
C10 O25 1.257 . S
C11 O26 1.240 . S
C11 O27 1.240 . S
C12 Gd1 2.818 . S
C12 C13 1.510 . S
C12 O28 1.249 . S
C12 O29 1.252 . S
C13 C12 1.510 . S
C13 C14 1.404 . S
C13 C15 1.352 . S
C14 C13 1.404 . S
C14 C18 1.389 . S
C14 H36 0.930 . S
C15 C13 1.352 . S
C15 C17 1.374 . S
C15 H37 0.931 . S
C16 C17 1.359 . S
C16 C18 1.364 . S
C17 C15 1.374 . S
C17 C16 1.359 . S
C17 H38 0.931 . S
C18 C14 1.389 . S
C18 C16 1.364 . S
C18 H39 0.931 . S
C19 O30 1.256 1_554 S
C19 O31 1.257 . S
O20 Gd0 2.377 . S
O20 C2 1.240 . S
O21 Gd1 2.395 1_554 S
O21 C2 1.240 . S
O22 Gd0 2.448 . S
O22 C3 1.249 . S
O23 Gd0 2.506 . S
O23 C3 1.252 . S
O24 Gd0 2.435 . S
O24 C10 1.256 . S
O25 Gd0 2.717 . S
O25 Gd1 2.327 1_554 S
O25 C10 1.257 . S
O26 Gd1 2.377 . S
O26 C11 1.240 . S
O27 Gd0 2.395 1_556 S
O27 C11 1.240 . S
O28 Gd1 2.448 . S
O28 C12 1.249 . S
O29 Gd1 2.506 . S
O29 C12 1.252 . S
O30 Gd1 2.435 . S
O30 C19 1.256 1_556 S
O31 Gd0 2.327 . S
O31 Gd1 2.717 1_554 S
O31 C19 1.257 . S
H32 C5 0.930 1_565 S
H33 C6 0.931 . S
H34 C8 0.931 . S
H35 C9 0.931 . S
H36 C14 0.930 . S
H37 C15 0.931 . S
H38 C17 0.931 . S
H39 C18 0.931 . S
Gd40 C43 2.818 . S
Gd40 O60 2.377 . S
Gd40 O62 2.448 . S
Gd40 O63 2.506 . S
Gd40 O64 2.435 . S
Gd40 O65 2.717 . S
Gd40 O67 2.395 . S
Gd40 O71 2.327 . S
Gd41 C52 2.818 . S
Gd41 O61 2.395 . S
Gd41 O65 2.327 . S
Gd41 O66 2.377 . S
Gd41 O68 2.448 . S
Gd41 O69 2.506 . S
Gd41 O70 2.435 . S
Gd41 O71 2.717 . S
C42 O60 1.240 . S
C42 O61 1.240 . S
C43 Gd40 2.818 . S
C43 C44 1.510 . S
C43 O62 1.249 . S
C43 O63 1.252 . S
C44 C43 1.510 . S
C44 C45 1.404 . S
C44 C46 1.352 . S
C45 C44 1.404 . S
C45 C49 1.389 . S
C45 H72 0.930 . S
C46 C44 1.352 . S
C46 C48 1.374 . S
C46 H73 0.931 . S
C47 C48 1.359 . S
C47 C49 1.364 . S
C48 C46 1.374 . S
C48 C47 1.359 . S
C48 H74 0.931 . S
C49 C45 1.389 . S
C49 C47 1.364 . S
C49 H75 0.931 . S
C50 O64 1.256 . S
C50 O65 1.257 . S
C51 O66 1.240 . S
C51 O67 1.240 . S
C52 Gd41 2.818 . S
C52 C53 1.510 . S
C52 O68 1.249 . S
C52 O69 1.252 . S
C53 C52 1.510 . S
C53 C54 1.404 . S
C53 C55 1.352 . S
C54 C53 1.404 . S
C54 C58 1.389 . S
C54 H76 0.930 . S
C55 C53 1.352 . S
C55 C57 1.374 . S
C55 H77 0.931 . S
C56 C57 1.359 . S
C56 C58 1.364 . S
C57 C55 1.374 . S
C57 C56 1.359 . S
C57 H78 0.931 . S
C58 C54 1.389 . S
C58 C56 1.364 . S
C58 H79 0.931 . S
C59 O70 1.256 . S
C59 O71 1.257 . S
O60 Gd40 2.377 . S
O60 C42 1.240 . S
O61 Gd41 2.395 . S
O61 C42 1.240 . S
O62 Gd40 2.448 . S
O62 C43 1.249 . S
O63 Gd40 2.506 . S
O63 C43 1.252 . S
O64 Gd40 2.435 . S
O64 C50 1.256 . S
O65 Gd40 2.717 . S
O65 Gd41 2.327 . S
O65 C50 1.257 . S
O66 Gd41 2.377 . S
O66 C51 1.240 . S
O67 Gd40 2.395 . S
O67 C51 1.240 . S
O68 Gd41 2.448 . S
O68 C52 1.249 . S
O69 Gd41 2.506 . S
O69 C52 1.252 . S
O70 Gd41 2.435 . S
O70 C59 1.256 . S
O71 Gd40 2.327 . S
O71 Gd41 2.717 . S
O71 C59 1.257 . S
H72 C45 0.930 . S
H73 C46 0.931 . S
H74 C48 0.931 . S
H75 C49 0.931 . S
H76 C54 0.930 . S
H77 C55 0.931 . S
H78 C57 0.931 . S
H79 C58 0.931 . S
Gd80 C83 2.818 . S
Gd80 O100 2.381 . S
Gd80 O102 2.448 . S
Gd80 O103 2.506 . S
Gd80 O104 2.435 . S
Gd80 O105 2.717 1_455 S
Gd80 O107 2.395 . S
Gd80 O111 2.327 . S
Gd81 C92 2.818 . S
Gd81 O101 2.395 . S
Gd81 O105 2.329 . S
Gd81 O106 2.377 1_655 S
Gd81 O108 2.448 . S
Gd81 O109 2.506 . S
Gd81 O110 2.435 . S
Gd81 O111 2.717 1_655 S
C82 O100 1.233 1_655 S
C82 O101 1.240 . S
C83 Gd80 2.818 . S
C83 C84 1.510 . S
C83 O102 1.249 . S
C83 O103 1.252 . S
C84 C83 1.510 . S
C84 C85 1.404 . S
C84 C86 1.352 . S
C85 C84 1.404 . S
C85 C89 1.389 . S
C85 H112 0.930 . S
C86 C84 1.352 . S
C86 C88 1.374 . S
C86 H113 0.931 . S
C87 C88 1.359 . S
C87 C89 1.364 . S
C88 C86 1.374 . S
C88 C87 1.359 . S
C88 H114 0.931 . S
C89 C85 1.389 . S
C89 C87 1.364 . S
C89 H115 0.931 . S
C90 O104 1.256 . S
C90 O105 1.255 1_455 S
C91 O106 1.240 . S
C91 O107 1.240 . S
C92 Gd81 2.818 . S
C92 C93 1.510 . S
C92 O108 1.249 . S
C92 O109 1.252 . S
C93 C92 1.510 . S
C93 C94 1.404 . S
C93 C95 1.352 . S
C94 C93 1.404 . S
C94 C98 1.389 . S
C94 H116 0.930 . S
C95 C93 1.352 . S
C95 C97 1.374 . S
C95 H117 0.931 . S
C96 C97 1.359 . S
C96 C98 1.364 . S
C97 C95 1.374 . S
C97 C96 1.359 . S
C97 H118 0.931 . S
C98 C94 1.389 . S
C98 C96 1.364 . S
C98 H119 0.931 . S
C99 O110 1.256 . S
C99 O111 1.257 1_655 S
O100 Gd80 2.381 . S
O100 C82 1.233 1_455 S
O101 Gd81 2.395 . S
O101 C82 1.240 . S
O102 Gd80 2.448 . S
O102 C83 1.249 . S
O103 Gd80 2.506 . S
O103 C83 1.252 . S
O104 Gd80 2.435 . S
O104 C90 1.256 . S
O105 Gd80 2.717 1_655 S
O105 Gd81 2.329 . S
O105 C90 1.255 1_655 S
O106 Gd81 2.377 1_455 S
O106 C91 1.240 . S
O107 Gd80 2.395 . S
O107 C91 1.240 . S
O108 Gd81 2.448 . S
O108 C92 1.249 . S
O109 Gd81 2.506 . S
O109 C92 1.252 . S
O110 Gd81 2.435 . S
O110 C99 1.256 . S
O111 Gd80 2.327 . S
O111 Gd81 2.717 1_455 S
O111 C99 1.257 1_455 S
H112 C85 0.930 . S
H113 C86 0.931 . S
H114 C88 0.931 . S
H115 C89 0.931 . S
H116 C94 0.930 . S
H117 C95 0.931 . S
H118 C97 0.931 . S
H119 C98 0.931 . S
Gd120 C123 2.818 . S
Gd120 O140 2.377 1_545 S
Gd120 O142 2.448 . S
Gd120 O143 2.506 . S
Gd120 O144 2.435 . S
Gd120 O145 2.717 1_545 S
Gd120 O147 2.395 1_554 S
Gd120 O151 2.327 . S
Gd121 C132 2.818 . S
Gd121 O141 2.395 1_556 S
Gd121 O145 2.327 1_556 S
Gd121 O146 2.377 1_565 S
Gd121 O148 2.448 . S
Gd121 O149 2.506 . S
Gd121 O150 2.435 . S
Gd121 O151 2.717 1_566 S
C122 O140 1.240 . S
C122 O141 1.240 . S
C123 Gd120 2.818 . S
C123 C124 1.510 . S
C123 O142 1.249 . S
C123 O143 1.252 . S
C124 C123 1.510 . S
C124 C125 1.404 . S
C124 C126 1.352 . S
C125 C124 1.404 . S
C125 C129 1.389 . S
C125 H152 0.924 1_655 S
C126 C124 1.352 . S
C126 C128 1.374 . S
C126 H153 0.931 . S
C127 C128 1.359 . S
C127 C129 1.364 . S
C128 C126 1.374 . S
C128 C127 1.359 . S
C128 H154 0.931 . S
C129 C125 1.389 . S
C129 C127 1.364 . S
C129 H155 0.931 1_655 S
C130 O144 1.256 . S
C130 O145 1.257 1_545 S
C131 O146 1.240 . S
C131 O147 1.240 . S
C132 Gd121 2.818 . S
C132 C133 1.510 . S
C132 O148 1.249 . S
C132 O149 1.252 . S
C133 C132 1.510 . S
C133 C134 1.404 . S
C133 C135 1.352 . S
C134 C133 1.404 . S
C134 C138 1.389 . S
C134 H156 0.930 . S
C135 C133 1.352 . S
C135 C137 1.374 . S
C135 H157 0.931 . S
C136 C137 1.359 . S
C136 C138 1.364 . S
C137 C135 1.374 . S
C137 C136 1.359 . S
C137 H158 0.931 . S
C138 C134 1.389 . S
C138 C136 1.364 . S
C138 H159 0.931 . S
C139 O150 1.256 1_554 S
C139 O151 1.257 1_565 S
O140 Gd120 2.377 1_565 S
O140 C122 1.240 . S
O141 Gd121 2.395 1_554 S
O141 C122 1.240 . S
O142 Gd120 2.448 . S
O142 C123 1.249 . S
O143 Gd120 2.506 . S
O143 C123 1.252 . S
O144 Gd120 2.435 . S
O144 C130 1.256 . S
O145 Gd120 2.717 1_565 S
O145 Gd121 2.327 1_554 S
O145 C130 1.257 1_565 S
O146 Gd121 2.377 1_545 S
O146 C131 1.240 . S
O147 Gd120 2.395 1_556 S
O147 C131 1.240 . S
O148 Gd121 2.448 . S
O148 C132 1.249 . S
O149 Gd121 2.506 . S
O149 C132 1.252 . S
O150 Gd121 2.435 . S
O150 C139 1.256 1_556 S
O151 Gd120 2.327 . S
O151 Gd121 2.717 1_544 S
O151 C139 1.257 1_545 S
H152 C125 0.924 1_455 S
H153 C126 0.931 . S
H154 C128 0.931 . S
H155 C129 0.931 1_455 S
H156 C134 0.930 . S
H157 C135 0.931 . S
H158 C137 0.931 . S
H159 C138 0.931 . S
Gd160 C163 2.818 . S
Gd160 O180 2.377 . S
Gd160 O182 2.448 . S
Gd160 O183 2.506 . S
Gd160 O184 2.435 1_655 S
Gd160 O185 2.717 1_655 S
Gd160 O187 2.395 . S
Gd160 O191 2.327 . S
Gd161 C172 2.818 1_655 S
Gd161 O181 2.395 . S
Gd161 O185 2.327 1_655 S
Gd161 O186 2.377 . S
Gd161 O188 2.448 . S
Gd161 O189 2.506 1_655 S
Gd161 O190 2.435 . S
Gd161 O191 2.717 . S
C162 O180 1.240 . S
C162 O181 1.240 . S
C163 Gd160 2.818 . S
C163 C164 1.510 . S
C163 O182 1.249 . S
C163 O183 1.252 . S
C164 C163 1.510 . S
C164 C165 1.404 . S
C164 C166 1.352 . S
C165 C164 1.404 . S
C165 C169 1.389 . S
C165 H192 0.930 . S
C166 C164 1.352 . S
C166 C168 1.374 . S
C166 H193 0.931 . S
C167 C168 1.359 . S
C167 C169 1.364 . S
C168 C166 1.374 . S
C168 C167 1.359 . S
C168 H194 0.931 . S
C169 C165 1.389 . S
C169 C167 1.364 . S
C169 H195 0.931 1_565 S
C170 O184 1.256 . S
C170 O185 1.257 . S
C171 O186 1.240 . S
C171 O187 1.240 . S
C172 Gd161 2.818 1_455 S
C172 C173 1.510 . S
C172 O188 1.249 1_455 S
C172 O189 1.252 . S
C173 C172 1.510 . S
C173 C174 1.404 . S
C173 C175 1.352 . S
C174 C173 1.404 . S
C174 C178 1.389 . S
C174 H196 0.930 . S
C175 C173 1.352 . S
C175 C177 1.374 . S
C175 H197 0.931 . S
C176 C177 1.359 . S
C176 C178 1.364 . S
C177 C175 1.374 . S
C177 C176 1.359 . S
C177 H198 0.931 . S
C178 C174 1.389 . S
C178 C176 1.364 . S
C178 H199 0.931 . S
C179 O190 1.256 . S
C179 O191 1.257 . S
O180 Gd160 2.377 . S
O180 C162 1.240 . S
O181 Gd161 2.395 . S
O181 C162 1.240 . S
O182 Gd160 2.448 . S
O182 C163 1.249 . S
O183 Gd160 2.506 . S
O183 C163 1.252 . S
O184 Gd160 2.435 1_455 S
O184 C170 1.256 . S
O185 Gd160 2.717 1_455 S
O185 Gd161 2.327 1_455 S
O185 C170 1.257 . S
O186 Gd161 2.377 . S
O186 C171 1.240 . S
O187 Gd160 2.395 . S
O187 C171 1.240 . S
O188 Gd161 2.448 . S
O188 C172 1.249 1_655 S
O189 Gd161 2.506 1_455 S
O189 C172 1.252 . S
O190 Gd161 2.435 . S
O190 C179 1.256 . S
O191 Gd160 2.327 . S
O191 Gd161 2.717 . S
O191 C179 1.257 . S
H192 C165 0.930 . S
H193 C166 0.931 . S
H194 C168 0.931 . S
H195 C169 0.931 1_545 S
H196 C174 0.930 . S
H197 C175 0.931 . S
H198 C177 0.931 . S
H199 C178 0.931 . S
Gd200 C203 2.818 . S
Gd200 O220 2.377 . S
Gd200 O222 2.448 . S
Gd200 O223 2.506 . S
Gd200 O224 2.435 1_565 S
Gd200 O225 2.717 1_565 S
Gd200 O227 2.395 . S
Gd200 O231 2.327 . S
Gd201 C212 2.818 1_565 S
Gd201 O221 2.395 . S
Gd201 O225 2.327 1_565 S
Gd201 O226 2.377 . S
Gd201 O228 2.448 . S
Gd201 O229 2.506 1_565 S
Gd201 O230 2.435 . S
Gd201 O231 2.717 . S
C202 O220 1.240 . S
C202 O221 1.240 . S
C203 Gd200 2.818 . S
C203 C204 1.510 . S
C203 O222 1.249 . S
C203 O223 1.252 . S
C204 C203 1.510 . S
C204 C205 1.404 . S
C204 C206 1.352 . S
C205 C204 1.404 . S
C205 C209 1.389 1_455 S
C205 H232 0.930 1_455 S
C206 C204 1.352 . S
C206 C208 1.374 . S
C206 H233 0.931 . S
C207 C208 1.359 . S
C207 C209 1.364 1_455 S
C208 C206 1.374 . S
C208 C207 1.359 . S
C208 H234 0.931 . S
C209 C205 1.389 1_655 S
C209 C207 1.364 1_655 S
C209 H235 0.931 . S
C210 O224 1.256 . S
C210 O225 1.257 . S
C211 O226 1.240 . S
C211 O227 1.240 . S
C212 Gd201 2.818 1_545 S
C212 C213 1.510 . S
C212 O228 1.249 1_545 S
C212 O229 1.252 . S
C213 C212 1.510 . S
C213 C214 1.404 . S
C213 C215 1.352 . S
C214 C213 1.404 . S
C214 C218 1.389 . S
C214 H236 0.930 . S
C215 C213 1.352 . S
C215 C217 1.374 . S
C215 H237 0.931 . S
C216 C217 1.359 . S
C216 C218 1.364 . S
C217 C215 1.374 . S
C217 C216 1.359 . S
C217 H238 0.931 . S
C218 C214 1.389 . S
C218 C216 1.364 . S
C218 H239 0.931 . S
C219 O230 1.256 . S
C219 O231 1.257 . S
O220 Gd200 2.377 . S
O220 C202 1.240 . S
O221 Gd201 2.395 . S
O221 C202 1.240 . S
O222 Gd200 2.448 . S
O222 C203 1.249 . S
O223 Gd200 2.506 . S
O223 C203 1.252 . S
O224 Gd200 2.435 1_545 S
O224 C210 1.256 . S
O225 Gd200 2.717 1_545 S
O225 Gd201 2.327 1_545 S
O225 C210 1.257 . S
O226 Gd201 2.377 . S
O226 C211 1.240 . S
O227 Gd200 2.395 . S
O227 C211 1.240 . S
O228 Gd201 2.448 . S
O228 C212 1.249 1_565 S
O229 Gd201 2.506 1_545 S
O229 C212 1.252 . S
O230 Gd201 2.435 . S
O230 C219 1.256 . S
O231 Gd200 2.327 . S
O231 Gd201 2.717 . S
O231 C219 1.257 . S
H232 C205 0.930 1_655 S
H233 C206 0.931 . S
H234 C208 0.931 . S
H235 C209 0.931 . S
H236 C214 0.930 . S
H237 C215 0.931 . S
H238 C217 0.931 . S
H239 C218 0.931 . S
C240 C241 1.369 1_556 S
C240 C242 1.419 . S
C240 H244 0.930 . S
C241 C240 1.369 1_554 S
C241 C250 1.429 . S
C242 C240 1.419 . S
C242 C243 1.363 1_556 S
C242 H245 0.929 . S
C243 C242 1.363 1_554 S
C243 C249 1.428 . S
H244 C240 0.930 . S
H245 C242 0.929 . S
S246 N247 1.613 . S
S246 N248 1.610 . S
N247 S246 1.613 . S
N247 C250 1.350 . S
N248 S246 1.610 . S
N248 C249 1.351 . S
C249 C243 1.428 . S
C249 N248 1.351 . S
C249 C250 1.434 . S
C250 C241 1.429 . S
C250 N247 1.350 . S
C250 C249 1.434 . S
C251 C252 1.369 . S
C251 C253 1.419 . S
C251 H255 0.930 . S
C252 C251 1.369 . S
C252 C261 1.429 . S
C253 C251 1.419 . S
C253 C254 1.363 . S
C253 H256 0.929 . S
C254 C253 1.363 . S
C254 C260 1.428 . S
H255 C251 0.930 . S
H256 C253 0.929 . S
S257 N258 1.613 . S
S257 N259 1.610 . S
N258 S257 1.613 . S
N258 C261 1.350 . S
N259 S257 1.610 . S
N259 C260 1.351 . S
C260 C254 1.428 . S
C260 N259 1.351 . S
C260 C261 1.434 . S
C261 C252 1.429 . S
C261 N258 1.350 . S
C261 C260 1.434 . S
C262 C263 1.369 . S
C262 C264 1.419 . S
C262 H266 0.930 . S
C263 C262 1.369 . S
C263 C272 1.429 . S
C264 C262 1.419 . S
C264 C265 1.363 . S
C264 H267 0.929 . S
C265 C264 1.363 . S
C265 C271 1.428 . S
H266 C262 0.930 . S
H267 C264 0.929 . S
S268 N269 1.613 . S
S268 N270 1.610 . S
N269 S268 1.613 . S
N269 C272 1.350 . S
N270 S268 1.610 . S
N270 C271 1.351 . S
C271 C265 1.428 . S
C271 N270 1.351 . S
C271 C272 1.434 . S
C272 C263 1.429 . S
C272 N269 1.350 . S
C272 C271 1.434 . S
C273 C274 1.369 . S
C273 C275 1.419 . S
C273 H277 0.930 . S
C274 C273 1.369 . S
C274 C283 1.429 . S
C275 C273 1.419 . S
C275 C276 1.363 . S
C275 H278 0.929 . S
C276 C275 1.363 . S
C276 C282 1.428 . S
H277 C273 0.930 . S
H278 C275 0.929 . S
S279 N280 1.613 . S
S279 N281 1.610 . S
N280 S279 1.613 . S
N280 C283 1.350 . S
N281 S279 1.610 . S
N281 C282 1.351 . S
C282 C276 1.428 . S
C282 N281 1.351 . S
C282 C283 1.434 . S
C283 C274 1.429 . S
C283 N280 1.350 . S
C283 C282 1.434 . S
C284 C285 1.369 . S
C284 C286 1.419 1_455 S
C284 H288 0.930 . S
C285 C284 1.369 . S
C285 C294 1.429 . S
C286 C284 1.419 1_655 S
C286 C287 1.363 . S
C286 H289 0.929 . S
C287 C286 1.363 . S
C287 C293 1.428 . S
H288 C284 0.930 . S
H289 C286 0.929 . S
S290 N291 1.613 1_655 S
S290 N292 1.610 . S
N291 S290 1.613 1_455 S
N291 C294 1.350 . S
N292 S290 1.610 . S
N292 C293 1.351 . S
C293 C287 1.428 . S
C293 N292 1.351 . S
C293 C294 1.434 1_655 S
C294 C285 1.429 . S
C294 N291 1.350 . S
C294 C293 1.434 1_455 S
C295 C296 1.369 . S
C295 C297 1.419 1_545 S
C295 H299 0.930 . S
C296 C295 1.369 . S
C296 C305 1.429 . S
C297 C295 1.419 1_565 S
C297 C298 1.363 . S
C297 H300 0.929 . S
C298 C297 1.363 . S
C298 C304 1.428 1_565 S
H299 C295 0.930 . S
H300 C297 0.929 . S
S301 N302 1.613 . S
S301 N303 1.610 . S
N302 S301 1.613 . S
N302 C305 1.350 . S
N303 S301 1.610 . S
N303 C304 1.351 . S
C304 C298 1.428 1_545 S
C304 N303 1.351 . S
C304 C305 1.434 . S
C305 C296 1.429 . S
C305 N302 1.350 . S
C305 C304 1.434 . S
C306 C307 1.369 . S
C306 C308 1.419 . S
C306 H310 0.930 . S
C307 C306 1.369 . S
C307 C316 1.429 . S
C308 C306 1.419 . S
C308 C309 1.363 . S
C308 H311 0.929 . S
C309 C308 1.363 . S
C309 C315 1.428 . S
H310 C306 0.930 . S
H311 C308 0.929 . S
S312 N313 1.613 . S
S312 N314 1.610 . S
N313 S312 1.613 . S
N313 C316 1.350 . S
N314 S312 1.610 . S
N314 C315 1.351 . S
C315 C309 1.428 . S
C315 N314 1.351 . S
C315 C316 1.434 . S
C316 C307 1.429 . S
C316 N313 1.350 . S
C316 C315 1.434 . S
C317 C318 1.369 . S
C317 C319 1.419 . S
C317 H321 0.930 . S
C318 C317 1.369 . S
C318 C327 1.429 . S
C319 C317 1.419 . S
C319 C320 1.363 . S
C319 H322 0.929 . S
C320 C319 1.363 . S
C320 C326 1.428 . S
H321 C317 0.930 . S
H322 C319 0.929 . S
S323 N324 1.613 . S
S323 N325 1.610 1_565 S
N324 S323 1.613 . S
N324 C327 1.350 . S
N325 S323 1.610 1_545 S
N325 C326 1.351 1_545 S
C326 C320 1.428 . S
C326 N325 1.351 1_565 S
C326 C327 1.434 . S
C327 C318 1.429 . S
C327 N324 1.350 . S
C327 C326 1.434 . S
C328 C329 1.369 . S
C328 C330 1.419 . S
C328 H332 0.930 . S
C329 C328 1.369 . S
C329 C338 1.429 . S
C330 C328 1.419 . S
C330 C331 1.363 . S
C330 H333 0.929 . S
C331 C330 1.363 . S
C331 C337 1.428 . S
H332 C328 0.930 . S
H333 C330 0.929 . S
S334 N335 1.613 . S
S334 N336 1.610 . S
N335 S334 1.613 . S
N335 C338 1.350 . S
N336 S334 1.610 . S
N336 C337 1.351 . S
C337 C331 1.428 . S
C337 N336 1.351 . S
C337 C338 1.434 . S
C338 C329 1.429 . S
C338 N335 1.350 . S
C338 C337 1.434 . S
C339 C340 1.369 . S
C339 C341 1.419 . S
C339 H343 0.930 1_554 S
C340 C339 1.369 . S
C340 C349 1.429 . S
C341 C339 1.419 . S
C341 C342 1.363 . S
C341 H344 0.929 1_554 S
C342 C341 1.363 . S
C342 C348 1.428 . S
H343 C339 0.930 1_556 S
H344 C341 0.929 1_556 S
S345 N346 1.613 . S
S345 N347 1.610 1_545 S
N346 S345 1.613 . S
N346 C349 1.350 . S
N347 S345 1.610 1_565 S
N347 C348 1.351 1_565 S
C348 C342 1.428 . S
C348 N347 1.351 1_545 S
C348 C349 1.434 . S
C349 C340 1.429 . S
C349 N346 1.350 . S
C349 C348 1.434 . S
C350 C351 1.369 . S
C350 C352 1.419 . S
C350 H354 0.930 . S
C351 C350 1.369 . S
C351 C360 1.429 . S
C352 C350 1.419 . S
C352 C353 1.363 . S
C352 H355 0.929 . S
C353 C352 1.363 . S
C353 C359 1.428 . S
H354 C350 0.930 . S
H355 C352 0.929 . S
S356 N357 1.613 . S
S356 N358 1.610 . S
N357 S356 1.613 . S
N357 C360 1.350 . S
N358 S356 1.610 . S
N358 C359 1.351 . S
C359 C353 1.428 . S
C359 N358 1.351 . S
C359 C360 1.434 . S
C360 C351 1.429 . S
C360 N357 1.350 . S
C360 C359 1.434 . S
C361 C362 1.369 . S
C361 C363 1.419 . S
C361 H365 0.930 . S
C362 C361 1.369 . S
C362 C371 1.429 . S
C363 C361 1.419 . S
C363 C364 1.363 . S
C363 H366 0.929 . S
C364 C363 1.363 . S
C364 C370 1.428 . S
H365 C361 0.930 . S
H366 C363 0.929 . S
S367 N368 1.613 . S
S367 N369 1.610 . S
N368 S367 1.613 . S
N368 C371 1.350 . S
N369 S367 1.610 . S
N369 C370 1.351 . S
C370 C364 1.428 . S
C370 N369 1.351 . S
C370 C371 1.434 . S
C371 C362 1.429 . S
C371 N368 1.350 . S
C371 C370 1.434 . S
C372 C373 1.369 . S
C372 C374 1.419 . S
C372 H376 0.930 . S
C373 C372 1.369 . S
C373 C382 1.429 . S
C374 C372 1.419 . S
C374 C375 1.363 . S
C374 H377 0.929 . S
C375 C374 1.363 . S
C375 C381 1.428 . S
H376 C372 0.930 . S
H377 C374 0.929 . S
S378 N379 1.613 . S
S378 N380 1.610 . S
N379 S378 1.613 . S
N379 C382 1.350 . S
N380 S378 1.610 . S
N380 C381 1.351 . S
C381 C375 1.428 . S
C381 N380 1.351 . S
C381 C382 1.434 . S
C382 C373 1.429 . S
C382 N379 1.350 . S
C382 C381 1.434 . S
C383 C384 1.369 . S
C383 C385 1.419 . S
C383 H387 0.930 . S
C384 C383 1.369 . S
C384 C393 1.429 . S
C385 C383 1.419 . S
C385 C386 1.363 . S
C385 H388 0.929 . S
C386 C385 1.363 . S
C386 C392 1.428 . S
H387 C383 0.930 . S
H388 C385 0.929 . S
S389 N390 1.613 . S
S389 N391 1.610 . S
N390 S389 1.613 . S
N390 C393 1.350 . S
N391 S389 1.610 . S
N391 C392 1.351 . S
C392 C386 1.428 . S
C392 N391 1.351 . S
C392 C393 1.434 . S
C393 C384 1.429 . S
C393 N390 1.350 . S
C393 C392 1.434 . S
C394 C395 1.369 . S
C394 C396 1.419 . S
C394 H398 0.930 . S
C395 C394 1.369 . S
C395 C404 1.429 . S
C396 C394 1.419 . S
C396 C397 1.363 . S
C396 H399 0.929 . S
C397 C396 1.363 . S
C397 C403 1.428 . S
H398 C394 0.930 . S
H399 C396 0.929 . S
S400 N401 1.613 . S
S400 N402 1.610 . S
N401 S400 1.613 . S
N401 C404 1.350 1_455 S
N402 S400 1.610 . S
N402 C403 1.351 1_455 S
C403 C397 1.428 . S
C403 N402 1.351 1_655 S
C403 C404 1.434 . S
C404 C395 1.429 . S
C404 N401 1.350 1_655 S
C404 C403 1.434 . S
C405 C406 1.369 . S
C405 C407 1.419 . S
C405 H409 0.930 . S
C406 C405 1.369 . S
C406 C415 1.429 . S
C407 C405 1.419 . S
C407 C408 1.363 . S
C407 H410 0.929 . S
C408 C407 1.363 . S
C408 C414 1.428 . S
H409 C405 0.930 . S
H410 C407 0.929 . S
S411 N412 1.613 . S
S411 N413 1.613 . S
N412 S411 1.613 . S
N412 C415 1.350 1_545 S
N413 S411 1.613 . S
N413 C414 1.348 1_545 S
C414 C408 1.428 . S
C414 N413 1.348 1_565 S
C414 C415 1.434 . S
C415 C406 1.429 . S
C415 N412 1.350 1_565 S
C415 C414 1.434 . S
C416 C417 1.369 . S
C416 C418 1.419 . S
C416 H420 0.930 1_455 S
C417 C416 1.369 . S
C417 C426 1.429 . S
C418 C416 1.419 . S
C418 C419 1.363 . S
C418 H421 0.929 . S
C419 C418 1.363 . S
C419 C425 1.428 . S
H420 C416 0.930 1_655 S
H421 C418 0.929 . S
S422 N423 1.613 . S
S422 N424 1.610 . S
N423 S422 1.613 . S
N423 C426 1.350 . S
N424 S422 1.610 . S
N424 C425 1.351 . S
C425 C419 1.428 . S
C425 N424 1.351 . S
C425 C426 1.434 . S
C426 C417 1.429 . S
C426 N423 1.350 . S
C426 C425 1.434 . S
C427 C428 1.369 . S
C427 C429 1.419 . S
C427 H431 0.930 . S
C428 C427 1.369 . S
C428 C437 1.429 1_545 S
C429 C427 1.419 . S
C429 C430 1.363 . S
C429 H432 0.929 . S
C430 C429 1.363 . S
C430 C436 1.428 . S
H431 C427 0.930 . S
H432 C429 0.929 . S
S433 N434 1.613 . S
S433 N435 1.610 . S
N434 S433 1.613 . S
N434 C437 1.350 . S
N435 S433 1.610 . S
N435 C436 1.351 1_565 S
C436 C430 1.428 . S
C436 N435 1.351 1_545 S
C436 C437 1.434 1_545 S
C437 C428 1.429 1_565 S
C437 N434 1.350 . S
C437 C436 1.434 1_565 S
C241 C130 1.274 1_455 S
C243 C10 1.270 . S
C252 C170 1.279 1_545 S
C254 C50 1.269 . S
C263 C210 1.279 . S
C265 C90 1.279 . S
C274 C16 1.106 . S
C276 C87 1.258 . S
C285 C56 1.124 . S
C287 C127 1.252 . S
C296 C96 1.107 . S
C298 C167 1.259 . S
C307 C136 1.101 . S
C309 C207 1.263 1_655 S
C318 C176 1.114 . S
C320 C7 1.254 1_565 S
C329 C216 1.120 . S
C331 C47 1.252 . S
C340 C19 1.737 . S
C342 C139 1.742 1_545 S
C351 C59 1.740 . S
C353 C179 1.745 . S
C362 C99 1.737 1_455 S
C364 C219 1.744 . S
C373 C2 4.220 . S
C375 C51 4.278 . S
C384 C42 4.219 . S
C386 C91 4.278 . S
C395 C82 4.219 . S
C397 C131 4.278 . S
C406 C122 4.220 . S
C408 C171 4.279 . S
C417 C162 4.221 1_455 S
C419 C211 4.277 . S
C428 C202 4.220 1_545 S
C430 C11 4.278 . S
