# Generated by pormake.
# Topology bcs, (6)-cn, num edge types: 1
# Building blocks:
#     Node 0, Type 0, BuildingBlock: GEDQOX_clean_sbu_0, # of connection points: 6
#     Node 1, Type 0, BuildingBlock: GEDQOX_clean_sbu_0, # of connection points: 6
#     Node 2, Type 0, BuildingBlock: GEDQOX_clean_sbu_0, # of connection points: 6
#     Node 3, Type 0, BuildingBlock: GEDQOX_clean_sbu_0, # of connection points: 6
#     Node 4, Type 0, BuildingBlock: GEDQOX_clean_sbu_0, # of connection points: 6
#     Node 5, Type 0, BuildingBlock: GEDQOX_clean_sbu_0, # of connection points: 6
#     Node 6, Type 0, BuildingBlock: GEDQOX_clean_sbu_0, # of connection points: 6
#     Node 7, Type 0, BuildingBlock: GEDQOX_clean_sbu_0, # of connection points: 6
#     Node 8, Type 0, BuildingBlock: GEDQOX_clean_sbu_0, # of connection points: 6
#     Node 9, Type 0, BuildingBlock: GEDQOX_clean_sbu_0, # of connection points: 6
#     Node 10, Type 0, BuildingBlock: GEDQOX_clean_sbu_0, # of connection points: 6
#     Node 11, Type 0, BuildingBlock: GEDQOX_clean_sbu_0, # of connection points: 6
#     Node 12, Type 0, BuildingBlock: GEDQOX_clean_sbu_0, # of connection points: 6
#     Node 13, Type 0, BuildingBlock: GEDQOX_clean_sbu_0, # of connection points: 6
#     Node 14, Type 0, BuildingBlock: GEDQOX_clean_sbu_0, # of connection points: 6
#     Node 15, Type 0, BuildingBlock: GEDQOX_clean_sbu_0, # of connection points: 6
#     Edge 16, Type (0, 0), BuildingBlock: CIFDUS_clean_linker_0, # of connection points: 2
#     Edge 17, Type (0, 0), BuildingBlock: CIFDUS_clean_linker_0, # of connection points: 2
#     Edge 18, Type (0, 0), BuildingBlock: CIFDUS_clean_linker_0, # of connection points: 2
#     Edge 19, Type (0, 0), BuildingBlock: CIFDUS_clean_linker_0, # of connection points: 2
#     Edge 20, Type (0, 0), BuildingBlock: CIFDUS_clean_linker_0, # of connection points: 2
#     Edge 21, Type (0, 0), BuildingBlock: CIFDUS_clean_linker_0, # of connection points: 2
#     Edge 22, Type (0, 0), BuildingBlock: CIFDUS_clean_linker_0, # of connection points: 2
#     Edge 23, Type (0, 0), BuildingBlock: CIFDUS_clean_linker_0, # of connection points: 2
#     Edge 24, Type (0, 0), BuildingBlock: CIFDUS_clean_linker_0, # of connection points: 2
#     Edge 25, Type (0, 0), BuildingBlock: CIFDUS_clean_linker_0, # of connection points: 2
#     Edge 26, Type (0, 0), BuildingBlock: CIFDUS_clean_linker_0, # of connection points: 2
#     Edge 27, Type (0, 0), BuildingBlock: CIFDUS_clean_linker_0, # of connection points: 2
#     Edge 28, Type (0, 0), BuildingBlock: CIFDUS_clean_linker_0, # of connection points: 2
#     Edge 29, Type (0, 0), BuildingBlock: CIFDUS_clean_linker_0, # of connection points: 2
#     Edge 30, Type (0, 0), BuildingBlock: CIFDUS_clean_linker_0, # of connection points: 2
#     Edge 31, Type (0, 0), BuildingBlock: CIFDUS_clean_linker_0, # of connection points: 2
#     Edge 32, Type (0, 0), BuildingBlock: CIFDUS_clean_linker_0, # of connection points: 2
#     Edge 33, Type (0, 0), BuildingBlock: CIFDUS_clean_linker_0, # of connection points: 2
#     Edge 34, Type (0, 0), BuildingBlock: CIFDUS_clean_linker_0, # of connection points: 2
#     Edge 35, Type (0, 0), BuildingBlock: CIFDUS_clean_linker_0, # of connection points: 2
#     Edge 36, Type (0, 0), BuildingBlock: CIFDUS_clean_linker_0, # of connection points: 2
#     Edge 37, Type (0, 0), BuildingBlock: CIFDUS_clean_linker_0, # of connection points: 2
#     Edge 38, Type (0, 0), BuildingBlock: CIFDUS_clean_linker_0, # of connection points: 2
#     Edge 39, Type (0, 0), BuildingBlock: CIFDUS_clean_linker_0, # of connection points: 2
#     Edge 40, Type (0, 0), BuildingBlock: CIFDUS_clean_linker_0, # of connection points: 2
#     Edge 41, Type (0, 0), BuildingBlock: CIFDUS_clean_linker_0, # of connection points: 2
#     Edge 42, Type (0, 0), BuildingBlock: CIFDUS_clean_linker_0, # of connection points: 2
#     Edge 43, Type (0, 0), BuildingBlock: CIFDUS_clean_linker_0, # of connection points: 2
#     Edge 44, Type (0, 0), BuildingBlock: CIFDUS_clean_linker_0, # of connection points: 2
#     Edge 45, Type (0, 0), BuildingBlock: CIFDUS_clean_linker_0, # of connection points: 2
#     Edge 46, Type (0, 0), BuildingBlock: CIFDUS_clean_linker_0, # of connection points: 2
#     Edge 47, Type (0, 0), BuildingBlock: CIFDUS_clean_linker_0, # of connection points: 2
#     Edge 48, Type (0, 0), BuildingBlock: CIFDUS_clean_linker_0, # of connection points: 2
#     Edge 49, Type (0, 0), BuildingBlock: CIFDUS_clean_linker_0, # of connection points: 2
#     Edge 50, Type (0, 0), BuildingBlock: CIFDUS_clean_linker_0, # of connection points: 2
#     Edge 51, Type (0, 0), BuildingBlock: CIFDUS_clean_linker_0, # of connection points: 2
#     Edge 52, Type (0, 0), BuildingBlock: CIFDUS_clean_linker_0, # of connection points: 2
#     Edge 53, Type (0, 0), BuildingBlock: CIFDUS_clean_linker_0, # of connection points: 2
#     Edge 54, Type (0, 0), BuildingBlock: CIFDUS_clean_linker_0, # of connection points: 2
#     Edge 55, Type (0, 0), BuildingBlock: CIFDUS_clean_linker_0, # of connection points: 2
#     Edge 56, Type (0, 0), BuildingBlock: CIFDUS_clean_linker_0, # of connection points: 2
#     Edge 57, Type (0, 0), BuildingBlock: CIFDUS_clean_linker_0, # of connection points: 2
#     Edge 58, Type (0, 0), BuildingBlock: CIFDUS_clean_linker_0, # of connection points: 2
#     Edge 59, Type (0, 0), BuildingBlock: CIFDUS_clean_linker_0, # of connection points: 2
#     Edge 60, Type (0, 0), BuildingBlock: CIFDUS_clean_linker_0, # of connection points: 2
#     Edge 61, Type (0, 0), BuildingBlock: CIFDUS_clean_linker_0, # of connection points: 2
#     Edge 62, Type (0, 0), BuildingBlock: CIFDUS_clean_linker_0, # of connection points: 2
#     Edge 63, Type (0, 0), BuildingBlock: CIFDUS_clean_linker_0, # of connection points: 2
# Relax obj value: 0.442
# Max RMSD: 0.327
# Mean RMSD: 0.235
data_MOF--net-bcs--node1-GEDQOX_clean_sbu_0--edge1-CIFDUS_clean_linker_0
_symmetry_space_group_name_H-M    P1
_symmetry_Int_Tables_number       1
_symmetry_cell_setting            triclinic
loop_
_symmetry_equiv_pos_as_xyz
'x, y, z'
_cell_length_a     37.483204
_cell_length_b     38.612435
_cell_length_c     36.764943
_cell_angle_alpha  121.71788
_cell_angle_beta   91.635075
_cell_angle_gamma 94.486224
loop_
_atom_site_label
_atom_site_type_symbol
_atom_site_fract_x
_atom_site_fract_y
_atom_site_fract_z
_atom_type_partial_charge
Nd0 Nd 0.06306 0.03331 0.04285 0.0
Nd1 Nd 1.02343 0.03291 0.97241 0.0
C2 C 0.10146 1.01978 0.09613 0.0
C3 C 0.12844 1.00303 0.11261 0.0
C4 C 0.14334 0.96627 0.08535 0.0
C5 C 0.16393 0.94768 0.10213 0.0
C6 C 0.16985 0.9646 0.14693 0.0
C7 C 0.15485 1.00169 0.17383 0.0
C8 C 0.13493 1.0205 0.15705 0.0
C9 C 0.99245 0.99792 0.02885 0.0
C10 C 0.0828 0.96614 0.94462 0.0
C11 C 0.98174 1.0304 0.90996 0.0
C12 C 0.96461 0.05702 0.89673 0.0
C13 C 0.93542 0.07918 0.91677 0.0
C14 C 0.91792 0.10066 0.90103 0.0
C15 C 0.92864 0.1005 0.86434 0.0
C16 C 0.95841 0.07907 0.84516 0.0
C17 C 0.97586 0.05783 0.8609 0.0
C18 C 0.0837 0.09018 1.00329 0.0
C19 C 1.00785 0.10244 0.07077 0.0
O20 O 0.10788 0.05348 0.09554 0.0
O21 O 0.07578 0.99423 0.06779 0.0
O22 O 1.00807 1.027 0.06516 0.0
O23 O 1.01321 0.99103 0.9993 0.0
O24 O 0.09077 0.98428 0.98622 0.0
O25 O 0.05619 0.97742 0.92977 0.0
O26 O 0.96921 1.02721 0.94108 0.0
O27 O 1.01658 1.02975 0.90988 0.0
O28 O 0.0513 0.09743 0.99888 0.0
O29 O 0.08282 0.05474 0.99792 0.0
O30 O 0.99391 0.07799 0.03077 0.0
O31 O 0.03907 0.09577 0.08293 0.0
H32 H 0.13848 0.95137 0.05089 0.0
H33 H 0.17498 0.91979 0.0796 0.0
H34 H 0.15722 1.01601 0.20829 0.0
H35 H 0.12316 0.04811 0.17914 0.0
H36 H 0.92555 0.07934 0.94425 0.0
H37 H 0.89517 0.11631 0.91693 0.0
H38 H 0.96841 0.07845 0.81752 0.0
H39 H 0.99799 0.0412 0.84428 0.0
Nd40 Nd 0.27387 0.80847 0.30027 0.0
Nd41 Nd 0.30584 0.75183 0.2191 0.0
C42 C 0.25341 0.87071 0.37151 0.0
C43 C 0.23114 0.87442 0.40551 0.0
C44 C 0.24736 0.88474 0.44534 0.0
C45 C 0.22741 0.87953 0.47394 0.0
C46 C 0.19092 0.8639 0.4631 0.0
C47 C 0.17406 0.85803 0.42526 0.0
C48 C 0.19391 0.86339 0.3969 0.0
C49 C 0.23009 0.73643 0.24956 0.0
C50 C 0.31353 0.73544 0.29882 0.0
C51 C 0.32834 0.6926 0.14711 0.0
C52 C 0.34723 0.69369 0.11309 0.0
C53 C 0.33386 0.71409 0.09416 0.0
C54 C 0.35711 0.72965 0.076 0.0
C55 C 0.39386 0.7253 0.077 0.0
C56 C 0.406 0.69935 0.08948 0.0
C57 C 0.38265 0.68339 0.10734 0.0
C58 C 0.3497 0.82338 0.27595 0.0
C59 C 0.26599 0.8236 0.21933 0.0
O60 O 0.28415 0.85622 0.36955 0.0
O61 O 0.23677 0.8554 0.3336 0.0
O62 O 0.23292 0.75668 0.29118 0.0
O63 O 0.24814 0.75585 0.23601 0.0
O64 O 0.30376 0.77267 0.32419 0.0
O65 O 0.31086 0.71854 0.2566 0.0
O66 O 0.29512 0.70138 0.15079 0.0
O67 O 0.347 0.71078 0.18422 0.0
O68 O 0.34786 0.80734 0.23466 0.0
O69 O 0.33033 0.80103 0.28433 0.0
O70 O 0.2753 0.78626 0.19433 0.0
O71 O 0.26965 0.84109 0.2616 0.0
H72 H 0.27592 0.89433 0.45319 0.0
H73 H 0.24113 0.88533 0.50323 0.0
H74 H 0.14616 0.84575 0.41531 0.0
H75 H 0.18036 0.85603 0.36687 0.0
H76 H 0.30657 0.72208 0.09757 0.0
H77 H 0.3473 0.74948 0.06625 0.0
H78 H 0.4343 0.69561 0.09042 0.0
H79 H 0.39338 0.66727 0.12127 0.0
Nd80 Nd 0.54982 0.06513 0.49875 0.0
Nd81 Nd 0.53125 0.99705 0.51327 0.0
C82 C 0.56733 0.13546 0.50394 0.0
C83 C 0.57199 0.15126 0.4756 0.0
C84 C 0.5916 0.18949 0.49138 0.0
C85 C 0.59118 0.20821 0.46759 0.0
C86 C 0.5708 0.18905 0.42779 0.0
C87 C 0.55337 0.14931 0.4108 0.0
C88 C 0.55403 0.13054 0.43448 0.0
C89 C 0.50519 1.00124 0.43247 0.0
C90 C 0.48616 0.07348 0.56345 0.0
C91 C 0.51524 0.92604 0.50721 0.0
C92 C 0.50791 0.90681 0.53194 0.0
C93 C 0.51006 0.86473 0.51193 0.0
C94 C 0.50922 0.84619 0.53579 0.0
C95 C 0.50604 0.86942 0.58033 0.0
C96 C 0.50139 0.91129 0.59975 0.0
C97 C 0.50258 0.92993 0.57575 0.0
C98 C 0.57586 0.06181 0.57875 0.0
C99 C 0.59462 0.98806 0.44869 0.0
O100 O 0.53452 0.12178 0.50468 0.0
O101 O 0.59115 0.11259 0.50409 0.0
O102 O 0.52969 1.02342 0.4271 0.0
O103 O 0.50301 1.01517 0.47191 0.0
O104 O 0.51215 0.09277 0.55477 0.0
O105 O 0.48462 0.03361 0.54663 0.0
O106 O 0.54802 0.94301 0.51233 0.0
O107 O 0.49098 0.94714 0.50418 0.0
O108 O 0.55027 0.04144 0.58517 0.0
O109 O 0.57838 0.04649 0.53923 0.0
O110 O 0.56892 0.96895 0.45776 0.0
O111 O 0.59598 1.0278 0.46479 0.0
H112 H 0.60584 0.20573 0.52299 0.0
H113 H 0.60538 0.23849 0.48126 0.0
H114 H 0.53709 0.13376 0.38053 0.0
H115 H 0.53887 0.10086 0.4217 0.0
H116 H 0.51434 0.84652 0.47812 0.0
H117 H 0.51358 0.81419 0.51963 0.0
H118 H 0.4984 0.93003 0.63381 0.0
H119 H 0.50086 0.96256 0.59165 0.0
Nd120 Nd 0.29483 0.30286 0.72981 0.0
Nd121 Nd 0.28515 0.26159 0.78229 0.0
C122 C 0.29939 0.3249 0.67167 0.0
C123 C 0.32523 0.34222 0.65331 0.0
C124 C 0.31468 0.34196 0.61606 0.0
C125 C 0.33728 0.36141 0.6004 0.0
C126 C 0.37115 0.38198 0.62171 0.0
C127 C 0.38206 0.3808 0.65822 0.0
C128 C 0.35947 0.36139 0.67382 0.0
C129 C 0.34075 0.33786 0.80293 0.0
C130 C 0.344 0.22819 0.70697 0.0
C131 C 0.28139 0.22502 0.82714 0.0
C132 C 0.25646 0.21324 0.85126 0.0
C133 C 0.2344 0.24065 0.88123 0.0
C134 C 0.21174 0.22882 0.90377 0.0
C135 C 0.21017 0.18911 0.89716 0.0
C136 C 0.23267 0.16196 0.86742 0.0
C137 C 0.25532 0.17383 0.8449 0.0
C138 C 0.2265 0.24654 0.72648 0.0
C139 C 0.24568 0.34261 0.81028 0.0
O140 O 0.3014 0.28756 0.66258 0.0
O141 O 0.29235 0.3492 0.71141 0.0
O142 O 0.32777 0.35788 0.78728 0.0
O143 O 0.33123 0.30022 0.77861 0.0
O144 O 0.33629 0.25719 0.70012 0.0
O145 O 0.32788 0.22291 0.73584 0.0
O146 O 0.29294 0.26387 0.84399 0.0
O147 O 0.27524 0.20541 0.78534 0.0
O148 O 0.22506 0.2558 0.76557 0.0
O149 O 0.25901 0.24709 0.71846 0.0
O150 O 0.26413 0.32442 0.82563 0.0
O151 O 0.24779 0.33314 0.77017 0.0
H152 H 0.28839 0.32755 0.59957 0.0
H153 H 0.32758 0.36161 0.5725 0.0
H154 H 0.40812 0.39537 0.67527 0.0
H155 H 0.36853 0.36206 0.70245 0.0
H156 H 0.2346 0.27133 0.88731 0.0
H157 H 0.19551 0.25116 0.92671 0.0
H158 H 0.23225 0.13106 0.86071 0.0
H159 H 0.27203 0.15194 0.82221 0.0
Nd160 Nd 1.00708 1.02578 0.53047 0.0
Nd161 Nd 0.06359 1.03183 0.47465 0.0
C162 C 0.95908 1.02704 0.5836 0.0
C163 C 0.94292 1.00254 0.60142 0.0
C164 C 0.94056 1.02126 0.64593 0.0
C165 C 0.92293 1.00012 0.66322 0.0
C166 C 0.9068 0.95936 0.63661 0.0
C167 C 0.90974 0.94046 0.59198 0.0
C168 C 0.92743 0.96164 0.57472 0.0
C169 C 1.01025 0.95421 0.45193 0.0
C170 C 0.08128 0.98645 0.52634 0.0
C171 C 0.10233 0.03523 0.41599 0.0
C172 C 0.11881 0.06524 0.40523 0.0
C173 C 0.11543 0.05648 0.36285 0.0
C174 C 0.13282 0.08298 0.35164 0.0
C175 C 0.15427 0.11923 0.3825 0.0
C176 C 0.15753 0.12777 0.42495 0.0
C177 C 0.14009 0.10139 0.43611 0.0
C178 C 0.07846 0.08682 0.55994 0.0
C179 C 0.99064 0.07723 0.48318 0.0
O180 O 0.99229 0.04423 0.59655 0.0
O181 O 0.95125 1.01346 0.54302 0.0
O182 O 1.00623 0.95595 0.48768 0.0
O183 O 1.01293 0.9899 0.45887 0.0
O184 O 0.05688 1.00778 0.55182 0.0
O185 O 0.08484 0.98406 0.48905 0.0
O186 O 0.06745 1.02671 0.41104 0.0
O187 O 0.116 0.03709 0.45006 0.0
O188 O 0.10193 0.06845 0.53303 0.0
O189 O 0.04716 0.07847 0.54161 0.0
O190 O 1.02408 0.07384 0.47216 0.0
O191 O 0.97769 0.06099 0.50494 0.0
H192 H 0.95196 0.05272 0.66753 0.0
H193 H 0.92208 1.01594 0.69768 0.0
H194 H 0.89749 0.90949 0.56999 0.0
H195 H 0.92839 0.9461 0.54026 0.0
H196 H 0.09952 1.02877 0.33814 0.0
H197 H 0.12908 0.07516 0.31877 0.0
H198 H 0.17419 0.15466 0.44979 0.0
H199 H 0.14373 0.10914 0.46899 0.0
Nd200 Nd 0.29169 0.80216 0.71928 0.0
Nd201 Nd 0.29802 0.77291 0.78102 0.0
C202 C 0.28204 0.84051 0.67704 0.0
C203 C 0.25735 0.86092 0.6628 0.0
C204 C 0.26917 0.89921 0.66883 0.0
C205 C 0.24897 0.91678 0.65095 0.0
C206 C 0.21608 0.89668 0.62613 0.0
C207 C 0.20362 0.85888 0.62136 0.0
C208 C 0.224 0.84119 0.63914 0.0
C209 C 0.26005 0.72441 0.68863 0.0
C210 C 0.23201 0.82752 0.79277 0.0
C211 C 0.30615 0.73467 0.8238 0.0
C212 C 0.33086 0.71641 0.84055 0.0
C213 C 0.31645 0.68878 0.85177 0.0
C214 C 0.33849 0.67327 0.8705 0.0
C215 C 0.37588 0.68475 0.87854 0.0
C216 C 0.39021 0.71258 0.86725 0.0
C217 C 0.36809 0.72821 0.84869 0.0
C218 C 0.33284 0.84971 0.81052 0.0
C219 C 0.35832 0.74913 0.70709 0.0
O220 O 0.29523 0.85951 0.71711 0.0
O221 O 0.27612 0.80093 0.65976 0.0
O222 O 0.27909 0.73521 0.66667 0.0
O223 O 0.25741 0.75458 0.72595 0.0
O224 O 0.2489 0.83582 0.76663 0.0
O225 O 0.24285 0.79948 0.79994 0.0
O226 O 0.2965 0.71534 0.78265 0.0
O227 O 0.31026 0.77434 0.84142 0.0
O228 O 0.31283 0.84016 0.83275 0.0
O229 O 0.3333 0.81887 0.7732 0.0
O230 O 0.34248 0.74004 0.73351 0.0
O231 O 0.3467 0.77753 0.70115 0.0
H232 H 0.29474 0.91524 0.68656 0.0
H233 H 0.25944 0.94624 0.65648 0.0
H234 H 0.17862 0.84213 0.60265 0.0
H235 H 0.21398 0.81151 0.6334 0.0
H236 H 0.28782 0.67936 0.84637 0.0
H237 H 0.3262 0.65171 0.87804 0.0
H238 H 0.41866 0.72287 0.87327 0.0
H239 H 0.38009 0.74987 0.84109 0.0
Nd240 Nd 0.52379 0.04476 0.98375 0.0
Nd241 Nd 0.55048 1.01878 0.0415 0.0
C242 C 0.50493 0.05826 0.9234 0.0
C243 C 0.52799 0.08394 0.9133 0.0
C244 C 0.51348 0.11287 0.90691 0.0
C245 C 0.53571 0.1464 0.91234 0.0
C246 C 0.57258 0.15159 0.92489 0.0
C247 C 0.58714 0.12092 0.92839 0.0
C248 C 0.56516 0.08739 0.92237 0.0
C249 C 0.57567 0.09987 0.04661 0.0
C250 C 0.59196 0.98941 0.95713 0.0
C251 C 0.57273 1.00727 0.1027 0.0
C252 C 0.55484 0.9848 0.12037 0.0
C253 C 0.57174 0.95374 0.12058 0.0
C254 C 0.55199 0.92487 0.12609 0.0
C255 C 0.51517 0.92698 0.13181 0.0
C256 C 0.49902 0.95998 0.13494 0.0
C257 C 0.51864 0.98855 0.12904 0.0
C258 C 0.49836 0.96408 0.97847 0.0
C259 C 0.48399 0.07713 0.06941 0.0
O260 O 0.51667 1.02383 0.91466 0.0
O261 O 0.49408 0.07875 0.96191 0.0
O262 O 0.54877 0.11081 0.03381 0.0
O263 O 0.57593 0.06191 0.02463 0.0
O264 O 0.56181 0.99484 0.94186 0.0
O265 O 0.59744 1.00494 0.99877 0.0
O266 O 0.55984 0.0409 0.11061 0.0
O267 O 0.57963 0.98407 0.06272 0.0
O268 O 0.52538 0.95276 0.9907 0.0
O269 O 0.49832 1.00201 1.001 0.0
O270 O 0.51359 0.06957 0.08352 0.0
O271 O 0.47753 0.06184 0.02791 0.0
H272 H 0.48476 0.11114 0.90077 0.0
H273 H 0.52377 0.16907 0.90855 0.0
H274 H 0.61516 0.12402 0.93875 0.0
H275 H 0.57692 0.06612 0.92872 0.0
H276 H 0.59958 0.9502 0.1136 0.0
H277 H 0.56507 0.89991 0.12399 0.0
H278 H 0.4706 0.96213 0.13894 0.0
H279 H 0.5048 1.01188 0.12845 0.0
Nd280 Nd 0.30494 0.3034 0.2827 0.0
Nd281 Nd 0.25172 0.25348 0.21313 0.0
C282 C 0.36464 0.34626 0.33146 0.0
C283 C 0.39939 0.33535 0.33928 0.0
C284 C 0.42754 0.36589 0.3645 0.0
C285 C 0.45955 0.35543 0.37487 0.0
C286 C 0.46363 0.3143 0.3603 0.0
C287 C 0.43583 0.28374 0.33333 0.0
C288 C 0.40403 0.29419 0.32293 0.0
C289 C 0.26215 0.24938 0.29594 0.0
C290 C 0.32746 0.21667 0.19903 0.0
C291 C 0.1939 0.2061 0.16311 0.0
C292 C 0.15554 0.20873 0.15787 0.0
C293 C 0.13408 0.1757 0.12342 0.0
C294 C 0.09897 0.18024 0.11421 0.0
C295 C 0.08503 0.21796 0.139 0.0
C296 C 0.10576 0.24979 0.17572 0.0
C297 C 0.14077 0.24517 0.185 0.0
C298 C 0.29692 0.30351 0.19676 0.0
C299 C 0.2283 0.33897 0.29661 0.0
O300 O 0.3576 0.33923 0.29304 0.0
O301 O 0.33729 0.33463 0.3452 0.0
O302 O 0.27196 0.28738 0.32521 0.0
O303 O 0.27557 0.24066 0.26124 0.0
O304 O 0.33905 0.25255 0.23381 0.0
O305 O 0.29296 0.20725 0.18666 0.0
O306 O 0.20506 0.20772 0.19798 0.0
O307 O 0.2156 0.22815 0.15397 0.0
O308 O 0.28601 0.26522 0.16943 0.0
O309 O 0.28334 0.31534 0.23238 0.0
O310 O 0.21756 0.30278 0.26204 0.0
O311 O 0.26276 0.34966 0.3096 0.0
H312 H 0.42441 0.39783 0.37712 0.0
H313 H 0.48069 0.37953 0.39525 0.0
H314 H 0.43777 0.25185 0.3221 0.0
H315 H 0.38251 0.27022 0.30344 0.0
H316 H 0.14504 0.14715 0.10236 0.0
H317 H 0.08352 0.15525 0.08609 0.0
H318 H 0.09618 0.27949 0.19529 0.0
H319 H 0.15696 0.27083 0.21188 0.0
Nd320 Nd 0.504 0.53511 0.03969 0.0
Nd321 Nd 0.5604 0.5496 0.98846 0.0
C322 C 0.45456 0.52973 0.08845 0.0
C323 C 0.43941 0.50415 0.10568 0.0
C324 C 0.44162 0.52001 0.15016 0.0
C325 C 0.42443 0.49828 0.16713 0.0
C326 C 0.4041 0.45978 0.14031 0.0
C327 C 0.40236 0.44376 0.09567 0.0
C328 C 0.4196 0.46548 0.07873 0.0
C329 C 0.50824 0.46915 0.95775 0.0
C330 C 0.58039 0.49994 0.03715 0.0
C331 C 0.61007 0.55433 0.93974 0.0
C332 C 0.6238 0.58009 0.92264 0.0
C333 C 0.61165 0.61822 0.93595 0.0
C334 C 0.62682 0.64317 0.92167 0.0
C335 C 0.6548 0.63093 0.89374 0.0
C336 C 0.66617 0.59214 0.87971 0.0
C337 C 0.65095 0.56722 0.894 0.0
C338 C 0.55647 0.61588 0.0705 0.0
C339 C 0.48387 0.58279 0.98829 0.0
O340 O 0.48612 0.55104 0.1041 0.0
O341 O 0.44886 0.51522 0.0474 0.0
O342 O 0.50525 0.46664 0.99136 0.0
O343 O 0.5101 0.50614 0.96872 0.0
O344 O 0.55231 0.51375 0.05962 0.0
O345 O 0.58632 0.50516 1.00465 0.0
O346 O 0.57857 0.53292 0.92423 0.0
O347 O 0.61539 0.57021 0.98108 0.0
O348 O 0.55821 0.6179 0.03649 0.0
O349 O 0.55456 0.57885 0.05967 0.0
O350 O 0.51237 0.5692 0.96674 0.0
O351 O 0.47741 0.57812 0.02116 0.0
H352 H 0.4562 0.5498 0.1721 0.0
H353 H 0.42719 0.51188 0.20153 0.0
H354 H 0.38671 0.41479 0.07353 0.0
H355 H 0.41667 0.45219 0.04437 0.0
H356 H 0.59072 0.629 0.9579 0.0
H357 H 0.61659 0.67229 0.93277 0.0
H358 H 0.68773 0.58143 0.85872 0.0
H359 H 0.661 0.53806 0.88327 0.0
Nd360 Nd 0.78355 0.29824 0.21887 0.0
Nd361 Nd 0.79914 0.26987 0.28042 0.0
C362 C 0.76997 0.33624 0.17712 0.0
C363 C 0.74396 0.35606 0.16391 0.0
C364 C 0.75687 0.38006 0.1476 0.0
C365 C 0.73325 0.39729 0.13249 0.0
C366 C 0.69575 0.39126 0.13331 0.0
C367 C 0.6829 0.367 0.14964 0.0
C368 C 0.70661 0.3496 0.16458 0.0
C369 C 0.7507 0.22183 0.19374 0.0
C370 C 0.73109 0.32375 0.29975 0.0
C371 C 0.81327 0.23201 0.32222 0.0
C372 C 0.83977 0.21429 0.33788 0.0
C373 C 0.83031 0.17626 0.33374 0.0
C374 C 0.85278 0.16091 0.35227 0.0
C375 C 0.88568 0.18304 0.37569 0.0
C376 C 0.89525 0.22103 0.3794 0.0
C377 C 0.8727 0.2364 0.36095 0.0
C378 C 0.83208 0.34618 0.30484 0.0
C379 C 0.85201 0.24471 0.19988 0.0
O380 O 0.78377 0.35548 0.21696 0.0
O381 O 0.7643 0.29669 0.16014 0.0
O382 O 0.76638 0.23117 0.16863 0.0
O383 O 0.75286 0.2528 0.23137 0.0
O384 O 0.74313 0.33205 0.27118 0.0
O385 O 0.74529 0.2961 0.30509 0.0
O386 O 0.8016 0.21232 0.28157 0.0
O387 O 0.81583 0.27173 0.34001 0.0
O388 O 0.81671 0.33713 0.33034 0.0
O389 O 0.82985 0.31491 0.26753 0.0
O390 O 0.84032 0.23697 0.22896 0.0
O391 O 0.83717 0.27145 0.1935 0.0
H392 H 0.78549 0.38533 0.14626 0.0
H393 H 0.74453 0.41599 0.12083 0.0
H394 H 0.65434 0.36093 0.15043 0.0
H395 H 0.6957 0.33085 0.17638 0.0
H396 H 0.805 0.15857 0.31671 0.0
H397 H 0.84435 0.13142 0.34794 0.0
H398 H 0.91992 0.23958 0.39751 0.0
H399 H 0.88083 0.26604 0.36546 0.0
Nd400 Nd 1.03338 0.55021 0.49067 0.0
Nd401 Nd 1.03838 0.50951 0.53936 0.0
C402 C 1.01874 0.59015 0.45265 0.0
C403 C 1.03429 0.63016 0.46191 0.0
C404 C 0.05711 0.65543 0.49935 0.0
C405 C 0.07082 0.69447 0.50998 0.0
C406 C 0.06202 0.70888 0.48324 0.0
C407 C 0.03877 0.6836 0.44593 0.0
C408 C 1.02493 0.64445 0.43538 0.0
C409 C 0.08797 0.58547 0.55522 0.0
C410 C 0.09055 0.48507 0.46232 0.0
C411 C 0.04748 0.4788 0.5878 0.0
C412 C 0.05152 0.43693 0.57672 0.0
C413 C 0.0498 0.42707 0.60824 0.0
C414 C 0.04599 0.38605 0.59638 0.0
C415 C 0.04326 0.35452 0.55281 0.0
C416 C 0.04761 0.36458 0.52157 0.0
C417 C 0.05209 0.40557 0.53352 0.0
C418 C 1.00098 0.46176 0.45965 0.0
C419 C 0.97775 0.5737 0.56585 0.0
O420 O 0.03976 0.56093 0.43717 0.0
O421 O 1.00109 0.59188 0.48341 0.0
O422 O 0.09084 0.58055 0.51801 0.0
O423 O 0.05681 0.57389 0.55859 0.0
O424 O 0.06506 0.49578 0.44561 0.0
O425 O 0.09003 0.49533 0.50281 0.0
O426 O 1.01588 0.48353 0.57593 0.0
O427 O 0.07401 0.4972 0.57957 0.0
O428 O 1.02268 0.44764 0.47533 0.0
O429 O 0.99842 0.49866 0.4862 0.0
O430 O 0.99726 0.55492 0.57944 0.0
O431 O 0.98429 0.57237 0.53012 0.0
H432 H 0.06408 0.64506 0.52061 0.0
H433 H 0.08842 0.71334 0.53904 0.0
H434 H 1.03202 0.69366 0.42434 0.0
H435 H 1.00706 0.62538 0.4066 0.0
H436 H 0.04921 0.4509 0.64168 0.0
H437 H 0.04215 0.37901 0.62101 0.0
H438 H 0.04542 0.34079 0.48782 0.0
H439 H 0.05381 0.41269 0.50879 0.0
Nd440 Nd 0.7941 0.80891 0.23259 0.0
Nd441 Nd 0.78428 0.75438 0.27194 0.0
C442 C 0.79972 0.84126 0.18371 0.0
C443 C 0.82223 0.85262 0.15762 0.0
C444 C 0.80493 0.85843 0.12711 0.0
C445 C 0.82425 0.87435 0.10589 0.0
C446 C 0.86174 0.88491 0.11418 0.0
C447 C 0.87942 0.87734 0.14338 0.0
C448 C 0.85989 0.86171 0.16509 0.0
C449 C 0.84177 0.83057 0.3012 0.0
C450 C 0.8393 0.72764 0.19617 0.0
C451 C 0.77813 0.72276 0.3216 0.0
C452 C 0.75347 0.7122 0.34687 0.0
C453 C 0.73438 0.7414 0.37962 0.0
C454 C 0.71264 0.7309 0.40386 0.0
C455 C 0.70911 0.6908 0.39634 0.0
C456 C 0.7287 0.66183 0.36389 0.0
C457 C 0.75043 0.67236 0.33963 0.0
C458 C 0.73559 0.73277 0.20399 0.0
C459 C 0.73969 0.83673 0.3085 0.0
O460 O 0.78808 0.80277 0.16839 0.0
O461 O 0.80693 0.86206 0.22534 0.0
O462 O 0.82947 0.85635 0.29292 0.0
O463 O 0.83091 0.79449 0.27192 0.0
O464 O 0.82463 0.75336 0.18819 0.0
O465 O 0.83164 0.72579 0.23025 0.0
O466 O 0.78893 0.76133 0.33626 0.0
O467 O 0.7731 0.70094 0.2797 0.0
O468 O 0.74915 0.70705 0.21153 0.0
O469 O 0.74699 0.76888 0.23304 0.0
O470 O 0.75375 0.81035 0.31603 0.0
O471 O 0.74746 0.83872 0.27461 0.0
H472 H 0.77601 0.85192 0.12066 0.0
H473 H 0.80957 0.87922 0.08342 0.0
H474 H 0.90815 0.88524 0.15093 0.0
H475 H 0.87409 0.85785 0.18858 0.0
H476 H 0.73625 0.7725 0.38665 0.0
H477 H 0.69866 0.75454 0.42883 0.0
H478 H 0.72665 0.6306 0.35645 0.0
H479 H 0.765 0.64914 0.315 0.0
Nd480 Nd 0.77562 0.30805 0.79627 0.0
Nd481 Nd 0.80648 0.25015 0.71298 0.0
C482 C 0.76493 0.3628 0.87676 0.0
C483 C 0.7504 0.36007 0.91216 0.0
C484 C 0.77114 0.34777 0.935 0.0
C485 C 0.75436 0.33227 0.95771 0.0
C486 C 0.71668 0.32803 0.95691 0.0
C487 C 0.69693 0.34708 0.9405 0.0
C488 C 0.71377 0.36324 0.91852 0.0
C489 C 0.72849 0.24016 0.73975 0.0
C490 C 0.82181 0.23441 0.79077 0.0
C491 C 0.82039 0.19733 0.63294 0.0
C492 C 0.84926 0.196 0.60627 0.0
C493 C 0.84168 0.17952 0.56229 0.0
C494 C 0.86794 0.18357 0.53809 0.0
C495 C 0.90222 0.2041 0.55758 0.0
C496 C 0.91004 0.21858 0.6013 0.0
C497 C 0.88384 0.21468 0.62536 0.0
C498 C 0.85303 0.3183 0.76984 0.0
C499 C 0.75849 0.32172 0.71842 0.0
O500 O 0.79592 0.34878 0.86467 0.0
O501 O 0.74186 0.3517 0.84413 0.0
O502 O 0.71824 0.2755 0.76704 0.0
O503 O 0.76165 0.2404 0.74635 0.0
O504 O 0.80964 0.27055 0.81561 0.0
O505 O 0.81887 0.21689 0.74853 0.0
O506 O 0.79942 0.22603 0.64315 0.0
O507 O 0.82948 0.19392 0.66536 0.0
O508 O 0.86358 0.28297 0.74329 0.0
O509 O 0.82004 0.31757 0.76224 0.0
O510 O 0.7667 0.28351 0.69412 0.0
O511 O 0.76556 0.34147 0.7605 0.0
H512 H 0.79976 0.34653 0.93218 0.0
H513 H 0.7705 0.31948 0.97175 0.0
H514 H 0.66793 0.34522 0.93984 0.0
H515 H 0.69736 0.37412 0.90262 0.0
H516 H 0.81503 0.16509 0.5471 0.0
H517 H 0.8609 0.17217 0.50462 0.0
H518 H 0.93566 0.23555 0.61793 0.0
H519 H 0.89017 0.22802 0.6594 0.0
Nd520 Nd 0.80288 0.81031 0.7868 0.0
Nd521 Nd 0.75666 0.75555 0.71315 0.0
C522 C 0.85618 0.86 0.8442 0.0
C523 C 0.88611 0.85708 0.86906 0.0
C524 C 0.88395 0.87295 0.91307 0.0
C525 C 0.90978 0.86631 0.93614 0.0
C526 C 0.93861 0.84434 0.9158 0.0
C527 C 0.94209 0.83079 0.87249 0.0
C528 C 0.91599 0.83697 0.84922 0.0
C529 C 0.75931 0.75645 0.7999 0.0
C530 C 0.834 0.72453 0.71184 0.0
C531 C 0.70201 0.70746 0.65692 0.0
C532 C 0.66355 0.71047 0.65185 0.0
C533 C 0.64479 0.73501 0.68766 0.0
C534 C 0.61074 0.74478 0.68216 0.0
C535 C 0.59503 0.73029 0.64077 0.0
C536 C 0.6126 0.70272 0.60503 0.0
C537 C 0.64665 0.69301 0.61056 0.0
C538 C 0.80348 0.80568 0.69855 0.0
C539 C 0.72599 0.83984 0.78944 0.0
O540 O 0.85802 0.8426 0.80282 0.0
O541 O 0.82402 0.85428 0.85409 0.0
O542 O 0.76697 0.79515 0.82781 0.0
O543 O 0.77532 0.74671 0.76644 0.0
O544 O 0.84167 0.7614 0.74687 0.0
O545 O 0.80092 0.71232 0.69359 0.0
O546 O 0.71287 0.70458 0.68921 0.0
O547 O 0.72359 0.73287 0.65235 0.0
O548 O 0.79612 0.76644 0.67293 0.0
O549 O 0.78627 0.81823 0.73192 0.0
O550 O 0.71768 0.8012 0.75832 0.0
O551 O 0.75994 0.85409 0.80189 0.0
H552 H 0.86149 0.88914 0.92929 0.0
H553 H 0.90656 0.87716 0.9695 0.0
H554 H 0.96393 0.81345 0.85598 0.0
H555 H 0.91861 0.82468 0.81542 0.0
H556 H 0.65722 0.74852 0.71987 0.0
H557 H 0.5977 0.76573 0.71029 0.0
H558 H 0.60145 0.69137 0.57274 0.0
H559 H 0.66072 0.67399 0.58253 0.0
Nd560 Nd 0.56905 0.53162 0.54135 0.0
Nd561 Nd 0.51593 0.53234 0.47147 0.0
C562 C 0.62298 0.53246 0.59158 0.0
C563 C 0.63613 0.50669 0.60831 0.0
C564 C 0.65987 0.4769 0.58586 0.0
C565 C 0.67434 0.45509 0.60298 0.0
C566 C 0.66593 0.46231 0.64348 0.0
C567 C 0.64166 0.49168 0.66549 0.0
C568 C 0.62723 0.51344 0.64839 0.0
C569 C 0.50725 0.47925 0.52624 0.0
C570 C 0.57862 0.46768 0.43775 0.0
C571 C 0.46058 0.52782 0.42062 0.0
C572 C 0.44501 0.55152 0.40298 0.0
C573 C 0.42675 0.53033 0.36183 0.0
C574 C 0.41035 0.55127 0.34505 0.0
C575 C 0.41156 0.59449 0.36869 0.0
C576 C 0.42989 0.61573 0.41014 0.0
C577 C 0.44632 0.59464 0.42696 0.0
C578 C 0.57636 0.58629 0.48753 0.0
C579 C 0.50858 0.59885 0.57498 0.0
O580 O 0.6246 0.5189 0.55077 0.0
O581 O 0.59439 0.55148 0.60641 0.0
O582 O 0.53542 0.48526 0.55054 0.0
O583 O 0.51327 0.49898 0.50765 0.0
O584 O 0.59209 0.4863 0.47801 0.0
O585 O 0.5477 0.47652 0.42725 0.0
O586 O 0.45955 0.54227 0.46167 0.0
O587 O 0.4902 0.51111 0.40612 0.0
O588 O 0.54786 0.58028 0.46362 0.0
O589 O 0.57164 0.5659 0.50572 0.0
O590 O 0.49444 0.57977 0.53492 0.0
O591 O 0.53913 0.58925 0.58539 0.0
H592 H 0.66793 0.47086 0.55517 0.0
H593 H 0.69306 0.43337 0.58482 0.0
H594 H 0.63363 0.4981 0.6963 0.0
H595 H 0.60934 0.5361 0.66705 0.0
H596 H 0.42472 0.49719 0.34259 0.0
H597 H 0.39612 0.53317 0.31351 0.0
H598 H 0.43205 0.64884 0.42954 0.0
H599 H 0.46 0.61214 0.45886 0.0
Nd600 Nd 0.05319 0.55445 0.9967 0.0
Nd601 Nd 1.0284 0.49631 0.02469 0.0
C602 C 0.07739 0.61825 0.99247 0.0
C603 C 0.06344 0.65471 0.99704 0.0
C604 C 0.04033 0.67706 0.02878 0.0
C605 C 1.02468 0.70919 0.02973 0.0
C606 C 1.03153 0.71914 0.99866 0.0
C607 C 0.05566 0.6974 0.96786 0.0
C608 C 0.07152 0.66563 0.96721 0.0
C609 C 1.00383 0.49143 0.93937 0.0
C610 C 0.98553 0.57569 0.05953 0.0
C611 C 0.99952 0.43435 0.02962 0.0
C612 C 1.00404 0.39884 0.03356 0.0
C613 C 0.99131 0.35922 0.99944 0.0
C614 C 0.99208 0.3256 1.0041 0.0
C615 C 1.00515 0.33115 0.0432 0.0
C616 C 1.0179 0.37081 0.07726 0.0
C617 C 1.01733 0.4043 0.07254 0.0
C618 C 0.08255 0.55697 0.07852 0.0
C619 C 0.09576 0.47363 0.96198 0.0
O620 O 0.08148 0.61701 0.02724 0.0
O621 O 0.06383 0.58322 0.95897 0.0
O622 O 1.031 0.50568 0.92824 0.0
O623 O 1.0022 0.51155 0.97961 0.0
O624 O 1.01114 0.59045 0.04554 0.0
O625 O 0.98356 0.53753 0.04966 0.0
O626 O 1.00517 0.43129 0.99309 0.0
O627 O 1.00918 0.47104 0.06308 0.0
O628 O 0.05707 0.54336 0.09252 0.0
O629 O 0.07996 0.53669 0.03833 0.0
O630 O 0.07029 0.46006 0.97721 0.0
O631 O 0.09771 0.51133 0.9696 0.0
H632 H 1.03362 0.66907 0.05212 0.0
H633 H 1.00657 0.72557 0.05418 0.0
H634 H 0.06106 0.70353 0.94288 0.0
H635 H 0.08915 0.64856 0.94237 0.0
H636 H 0.98028 0.35432 0.96932 0.0
H637 H 0.98216 0.29536 0.97731 0.0
H638 H 1.02894 0.37591 0.10746 0.0
H639 H 1.027 0.43446 0.09961 0.0
H640 H 0.21806 0.13662 0.92722 0.0
H641 H 0.14219 0.21065 0.91755 0.0
H642 H 0.09894 0.18963 0.95208 0.0
H643 H 0.08058 0.14804 0.9822 0.0
H644 H 0.15406 0.07178 0.99081 0.0
H645 H 0.19974 0.09569 0.95983 0.0
C646 C 0.19207 0.14819 0.93254 0.0
C647 C 0.18406 0.1758 0.91963 0.0
C648 C 0.1666 0.13555 0.95252 0.0
C649 C 0.15001 0.19029 0.92754 0.0
C650 C 0.12489 0.17799 0.94722 0.0
C651 C 0.10679 0.13711 0.97821 0.0
C652 C 0.11366 0.10825 0.98953 0.0
C653 C 0.13272 0.15054 0.95971 0.0
C654 C 0.14781 0.09412 0.98294 0.0
C655 C 0.17395 0.1077 0.9649 0.0
H656 H 0.18263 0.88212 0.10966 0.0
H657 H 0.20638 0.99986 0.22774 0.0
H658 H 0.23611 0.96781 0.26004 0.0
H659 H 0.25586 0.90601 0.25642 0.0
H660 H 0.23729 0.7897 0.13663 0.0
H661 H 0.20653 0.82161 0.10413 0.0
C662 C 0.1946 0.90132 0.14227 0.0
C663 C 0.19078 0.94401 0.16577 0.0
C664 C 0.2132 0.88271 0.16091 0.0
C665 C 0.20695 0.96706 0.20836 0.0
C666 C 0.22466 0.94867 0.22714 0.0
C667 C 0.24529 0.88757 0.22312 0.0
C668 C 0.24916 0.84506 0.19939 0.0
C669 C 0.22784 0.90643 0.20399 0.0
C670 C 0.23517 0.82228 0.15608 0.0
C671 C 0.2173 0.84061 0.13732 0.0
H672 H 0.44913 0.95722 0.44005 0.0
H673 H 0.50222 0.97335 0.34672 0.0
H674 H 0.45852 0.92084 0.28956 0.0
H675 H 0.40482 0.86917 0.26584 0.0
H676 H 0.3539 0.85352 0.36085 0.0
H677 H 0.39652 0.90678 0.41703 0.0
C678 C 0.45113 0.94929 0.40721 0.0
C679 C 0.47885 0.96923 0.39774 0.0
C680 C 0.426 0.91907 0.37456 0.0
C681 C 0.48108 0.95848 0.35494 0.0
C682 C 0.45606 0.92844 0.3222 0.0
C683 C 0.40301 0.87769 0.29887 0.0
C684 C 0.37583 0.85748 0.30897 0.0
C685 C 0.42829 0.90839 0.33155 0.0
C686 C 0.37414 0.86872 0.352 0.0
C687 C 0.3987 0.89915 0.38433 0.0
H688 H 0.35611 0.14816 0.68054 0.0
H689 H 0.4001 0.25453 0.67992 0.0
H690 H 0.44778 0.21734 0.63752 0.0
H691 H 0.47647 0.15416 0.59783 0.0
H692 H 0.43268 0.04612 0.59513 0.0
H693 H 0.38619 0.084 0.64098 0.0
C694 C 0.37632 0.16322 0.67144 0.0
C695 C 0.3741 0.20425 0.6835 0.0
C696 C 0.4039 0.14119 0.64596 0.0
C697 C 0.40061 0.22299 0.67095 0.0
C698 C 0.42812 0.20172 0.6466 0.0
C699 C 0.45692 0.1388 0.60735 0.0
C700 C 0.45836 0.09713 0.59272 0.0
C701 C 0.42988 0.16069 0.63343 0.0
C702 C 0.43245 0.07807 0.60559 0.0
C703 C 0.40571 0.0998 0.63196 0.0
H704 H 0.15506 0.98335 0.53199 0.0
H705 H 0.05442 0.93854 0.55442 0.0
H706 H 0.08613 0.90695 0.58659 0.0
H707 H 0.14251 0.89398 0.61146 0.0
H708 H 0.24364 0.93981 0.59076 0.0
H709 H 0.21206 0.96925 0.55627 0.0
C710 C 0.14012 0.96608 0.54326 0.0
C711 C 0.10219 0.963 0.54011 0.0
C712 C 0.15875 0.94879 0.56324 0.0
C713 C 0.0835 0.94126 0.55602 0.0
C714 C 0.10168 0.92339 0.57483 0.0
C715 C 0.15783 0.91017 0.59928 0.0
C716 C 0.19581 0.91458 0.60448 0.0
C717 C 0.13935 0.92731 0.5792 0.0
C718 C 0.21459 0.9363 0.58847 0.0
C719 C 0.19644 0.95306 0.56823 0.0
H720 H 0.39734 0.8291 0.8189 0.0
H721 H 0.33825 0.93252 0.85578 0.0
H722 H 0.38706 0.97839 0.9098 0.0
H723 H 0.44226 0.98696 0.95212 0.0
H724 H 0.49844 0.88233 0.92018 0.0
H725 H 0.45475 0.83845 0.85854 0.0
C726 C 0.39592 0.86193 0.83785 0.0
C727 C 0.365 0.87798 0.83321 0.0
C728 C 0.42292 0.88738 0.87031 0.0
C729 C 0.36239 0.92007 0.85857 0.0
C730 C 0.38997 0.94602 0.88969 0.0
C731 C 0.44503 0.95457 0.93151 0.0
C732 C 0.47305 0.93758 0.94077 0.0
C733 C 0.41964 0.9297 0.89684 0.0
C734 C 0.47668 0.89578 0.9138 0.0
C735 C 0.45188 0.87084 0.87855 0.0
H736 H 0.41387 0.08315 0.05254 0.0
H737 H 0.49696 0.13328 0.15609 0.0
H738 H 0.45697 0.1811 0.20544 0.0
H739 H 0.39801 0.21032 0.2191 0.0
H740 H 0.31468 0.15621 0.11512 0.0
H741 H 0.35477 0.10903 0.06682 0.0
C742 C 0.42328 0.10438 0.08594 0.0
C743 C 0.45864 0.10444 0.10027 0.0
C744 C 0.39989 0.13151 0.11441 0.0
C745 C 0.46997 0.13218 0.14393 0.0
C746 C 0.44706 0.15978 0.17225 0.0
C747 C 0.38861 0.18812 0.18593 0.0
C748 C 0.35305 0.18722 0.17112 0.0
C749 C 0.41191 0.16002 0.15788 0.0
C750 C 0.34158 0.15783 0.12789 0.0
C751 C 0.36463 0.1307 0.09995 0.0
H752 H 0.18398 0.10215 0.30673 0.0
H753 H 0.16609 0.20328 0.43243 0.0
H754 H 0.19768 0.25106 0.41716 0.0
H755 H 0.23107 0.26531 0.36881 0.0
H756 H 0.24743 0.16571 0.2421 0.0
H757 H 0.21555 0.1169 0.25682 0.0
C758 C 0.18659 0.13463 0.33076 0.0
C759 C 0.17275 0.14843 0.3712 0.0
C760 C 0.20469 0.16262 0.32155 0.0
C761 C 0.17699 0.19098 0.40155 0.0
C762 C 0.19493 0.21868 0.3927 0.0
C763 C 0.22771 0.23292 0.34433 0.0
C764 C 0.242 0.21939 0.3044 0.0
C765 C 0.20912 0.20496 0.35299 0.0
C766 C 0.23696 0.17719 0.27313 0.0
C767 C 0.21867 0.14918 0.2816 0.0
H768 H 0.9076 0.21126 0.21869 0.0
H769 H 0.86369 0.22682 0.11911 0.0
H770 H 0.90838 0.18671 0.07184 0.0
H771 H 0.95811 0.14348 0.0565 0.0
H772 H 1.00553 0.13158 0.15698 0.0
H773 H 0.96218 0.17396 0.20572 0.0
C774 C 0.90787 0.20604 0.18672 0.0
C775 C 0.88161 0.22201 0.17266 0.0
C776 C 0.93456 0.18342 0.15958 0.0
C777 C 0.88316 0.21518 0.13116 0.0
C778 C 0.90883 0.19202 0.10388 0.0
C779 C 0.95932 0.15052 0.08924 0.0
C780 C 0.98521 0.1338 0.10266 0.0
C781 C 0.93442 0.1755 0.11743 0.0
C782 C 0.98627 0.1439 0.14551 0.0
C783 C 0.96115 0.168 0.17341 0.0
H784 H 0.13191 0.73823 0.5084 0.0
H785 H 1.03146 0.76822 0.47758 0.0
H786 H 0.06295 0.82693 0.47899 0.0
H787 H 0.11962 0.86144 0.4766 0.0
H788 H 0.21997 0.82591 0.50048 0.0
H789 H 0.18774 0.77961 0.51697 0.0
C790 C 0.11672 0.75826 0.5032 0.0
C791 C 0.07956 0.74851 0.49205 0.0
C792 C 0.13502 0.79106 0.50288 0.0
C793 C 0.06026 0.77464 0.48521 0.0
C794 C 0.07821 0.80821 0.48616 0.0
C795 C 0.1345 0.84378 0.48568 0.0
C796 C 0.17217 0.84632 0.4858 0.0
C797 C 0.11576 0.81538 0.49284 0.0
C798 C 0.19101 0.82472 0.4998 0.0
C799 C 0.17255 0.79762 0.50869 0.0
H800 H 0.48658 0.791 0.56056 0.0
H801 H 0.54312 0.90685 0.65924 0.0
H802 H 0.56928 0.87378 0.69268 0.0
H803 H 0.58697 0.81092 0.6845 0.0
H804 H 0.53618 0.69377 0.58193 0.0
H805 H 0.49721 0.72825 0.55933 0.0
C806 C 0.50426 0.80913 0.5897 0.0
C807 C 0.51344 0.85129 0.60657 0.0
C808 C 0.52091 0.7895 0.60763 0.0
C809 C 0.5354 0.87446 0.64527 0.0
C810 C 0.55084 0.85543 0.66426 0.0
C811 C 0.56649 0.79282 0.65817 0.0
C812 C 0.56481 0.74983 0.63455 0.0
C813 C 0.54536 0.81277 0.64436 0.0
C814 C 0.53833 0.72694 0.60023 0.0
C815 C 0.51617 0.74665 0.58722 0.0
H816 H 0.47143 0.39768 0.93923 0.0
H817 H 0.50024 0.4708 0.88515 0.0
H818 H 0.4508 0.43381 0.82953 0.0
H819 H 0.39366 0.39 0.80505 0.0
H820 H 0.36357 0.31767 0.85944 0.0
H821 H 0.41909 0.34581 0.90722 0.0
C822 C 0.46757 0.40466 0.91449 0.0
C823 C 0.48872 0.43757 0.91679 0.0
C824 C 0.43819 0.38457 0.88389 0.0
C825 C 0.4839 0.44586 0.8842 0.0
C826 C 0.45538 0.42515 0.85281 0.0
C827 C 0.39935 0.38045 0.82741 0.0
C828 C 0.3744 0.35311 0.8302 0.0
C829 C 0.43126 0.39621 0.85399 0.0
C830 C 0.38235 0.33954 0.85783 0.0
C831 C 0.41406 0.35537 0.88477 0.0
H832 H 0.90145 0.86852 0.29445 0.0
H833 H 0.85841 0.81385 0.36242 0.0
H834 H 0.91357 0.83973 0.41082 0.0
H835 H 0.96842 0.8881 0.44054 0.0
H836 H 1.00947 0.94509 0.37367 0.0
H837 H 0.96156 0.9062 0.31635 0.0
C838 C 0.90452 0.86193 0.3196 0.0
C839 C 0.87604 0.84069 0.32623 0.0
C840 C 0.93597 0.87687 0.34692 0.0
C841 C 0.88013 0.83096 0.35771 0.0
C842 C 0.91156 0.84563 0.38512 0.0
C843 C 0.9676 0.89092 0.41269 0.0
C844 C 0.99167 0.92017 0.41169 0.0
C845 C 0.939 0.87004 0.38105 0.0
C846 C 0.99078 0.92312 0.37523 0.0
C847 C 0.96317 0.90132 0.34279 0.0
H848 H 0.4686 0.65173 0.56828 0.0
H849 H 0.49853 0.61602 0.65693 0.0
H850 H 0.45521 0.6587 0.70582 0.0
H851 H 0.40525 0.70348 0.72145 0.0
H852 H 0.3794 0.74133 0.63318 0.0
H853 H 0.42425 0.70117 0.58697 0.0
C854 C 0.46613 0.65368 0.59862 0.0
C855 C 0.48711 0.63038 0.60861 0.0
C856 C 0.44131 0.67867 0.6268 0.0
C857 C 0.48329 0.63373 0.64831 0.0
C858 C 0.45812 0.65797 0.67619 0.0
C859 C 0.40953 0.70313 0.69223 0.0
C860 C 0.38823 0.72561 0.6811 0.0
C861 C 0.43637 0.68012 0.66552 0.0
C862 C 0.39492 0.72475 0.64309 0.0
C863 C 0.4207 0.70152 0.61632 0.0
H864 H 0.64273 0.15905 0.91113 0.0
H865 H 0.55451 0.23047 0.96763 0.0
H866 H 0.59332 0.29324 0.98955 0.0
H867 H 0.65165 0.32715 0.98914 0.0
H868 H 0.73879 0.25368 0.93189 0.0
H869 H 0.70179 0.1931 0.91775 0.0
C870 C 0.63198 0.1883 0.92896 0.0
C871 C 0.59561 0.18982 0.93726 0.0
C872 C 0.65456 0.22421 0.94258 0.0
C873 C 0.58216 0.22816 0.9597 0.0
C874 C 0.60447 0.26417 0.97288 0.0
C875 C 0.66269 0.29798 0.97412 0.0
C876 C 0.69788 0.29522 0.96119 0.0
C877 C 0.64066 0.26248 0.96405 0.0
C878 C 0.71203 0.25727 0.94278 0.0
C879 C 0.69062 0.22219 0.93377 0.0
H880 H 0.98754 0.32383 0.11033 0.0
H881 H 1.03047 0.25903 0.98662 0.0
H882 H 0.05057 0.20922 1.00197 0.0
H883 H 0.0695 0.19584 0.05697 0.0
H884 H 1.03049 0.26286 0.18267 0.0
H885 H 0.99477 0.2996 0.15994 0.0
C886 C 1.00068 0.29826 0.08645 0.0
C887 C 1.00848 0.29573 0.04796 0.0
C888 C 1.01335 0.27055 0.09612 0.0
C889 C 1.02447 0.26188 0.01667 0.0
C890 C 1.03626 0.23354 0.02557 0.0
C891 C 0.05198 0.21708 0.0789 0.0
C892 C 0.05353 0.22758 0.12184 0.0
C893 C 1.0328 0.23914 0.06615 0.0
C894 C 1.03051 0.25514 0.14976 0.0
C895 C 1.01027 0.2763 0.13684 0.0
H896 H 0.68283 0.61198 0.81663 0.0
H897 H 0.66905 0.71473 0.94293 0.0
H898 H 0.6987 0.76143 0.92488 0.0
H899 H 0.72978 0.77414 0.87413 0.0
H900 H 0.74516 0.67245 0.74826 0.0
H901 H 0.71427 0.62489 0.76536 0.0
C902 C 0.68642 0.64454 0.84041 0.0
C903 C 0.67305 0.6593 0.88125 0.0
C904 C 0.70408 0.67176 0.82991 0.0
C905 C 0.678 0.70195 0.91103 0.0
C906 C 0.69538 0.72893 0.90084 0.0
C907 C 0.72642 0.74156 0.85034 0.0
C908 C 0.74007 0.72709 0.80989 0.0
C909 C 0.70861 0.7143 0.86047 0.0
C910 C 0.73517 0.68465 0.77963 0.0
C911 C 0.71743 0.65736 0.78946 0.0
H912 H 0.69966 0.40438 0.06576 0.0
H913 H 0.63408 0.42436 0.16842 0.0
H914 H 0.59324 0.45808 0.1475 0.0
H915 H 0.57611 0.4838 0.1015 0.0
H916 H 0.64142 0.46542 0.9993 0.0
H917 H 0.68205 0.43004 0.01893 0.0
C918 C 0.67659 0.4163 0.08385 0.0
C919 C 0.67035 0.41134 0.11887 0.0
C920 C 0.65293 0.43632 0.07177 0.0
C921 C 0.63971 0.42674 0.14105 0.0
C922 C 0.61629 0.44649 0.12927 0.0
C923 C 0.59919 0.47211 0.08333 0.0
C924 C 0.6054 0.47772 0.04882 0.0
C925 C 0.62261 0.45166 0.09483 0.0
C926 C 0.63565 0.46194 0.02597 0.0
C927 C 0.65903 0.44155 0.03723 0.0
H928 H 0.94415 0.48562 0.43578 0.0
H929 H 1.00492 0.38267 0.39569 0.0
H930 H 0.9602 0.33908 0.33518 0.0
H931 H 0.89934 0.32814 0.30219 0.0
H932 H 0.835 0.42881 0.34965 0.0
H933 H 0.88599 0.47616 0.39818 0.0
C934 C 0.94784 0.45378 0.41335 0.0
C935 C 0.97719 0.43692 0.42028 0.0
C936 C 0.92144 0.42879 0.38 0.0
C937 C 0.98206 0.39588 0.39108 0.0
C938 C 0.95661 0.3711 0.35658 0.0
C939 C 0.89716 0.36077 0.32203 0.0
C940 C 0.86409 0.37554 0.32238 0.0
C941 C 0.92557 0.38689 0.35179 0.0
C942 C 0.86065 0.41735 0.34878 0.0
C943 C 0.88956 0.44414 0.37676 0.0
H944 H 0.57888 0.65285 0.48202 0.0
H945 H 0.64749 0.56919 0.48342 0.0
H946 H 0.69564 0.59509 0.4566 0.0
H947 H 0.71559 0.63673 0.42483 0.0
H948 H 0.6436 0.7175 0.42188 0.0
H949 H 0.59999 0.69763 0.45694 0.0
C950 C 0.60478 0.64101 0.47768 0.0
C951 C 0.60952 0.60936 0.48537 0.0
C952 C 0.6317 0.6551 0.46095 0.0
C953 C 0.64317 0.59417 0.47893 0.0
C954 C 0.67052 0.60855 0.46277 0.0
C955 C 0.69043 0.65012 0.43192 0.0
C956 C 0.68345 0.67897 0.42032 0.0
C957 C 0.66469 0.63814 0.45224 0.0
C958 C 0.65055 0.69596 0.4306 0.0
C959 C 0.62523 0.68436 0.4506 0.0
H960 H 0.92541 0.3262 0.78443 0.0
H961 H 0.83247 0.3905 0.83399 0.0
H962 H 0.87029 0.44826 0.89383 0.0
H963 H 0.9306 0.48164 0.93116 0.0
H964 H 1.02367 0.41979 0.87672 0.0
H965 H 0.98531 0.35997 0.82017 0.0
C966 C 0.91347 0.35288 0.80833 0.0
C967 C 0.87618 0.35392 0.80501 0.0
C968 C 0.93552 0.38641 0.84199 0.0
C969 C 0.86111 0.38883 0.83602 0.0
C970 C 0.88273 0.42189 0.87026 0.0
C971 C 0.94224 0.45477 0.90715 0.0
C972 C 0.97974 0.45469 0.90816 0.0
C973 C 0.92003 0.42111 0.87359 0.0
C974 C 0.99478 0.42025 0.87649 0.0
C975 C 0.9729 0.38615 0.84412 0.0
H976 H 0.92681 0.87178 0.07631 0.0
H977 H 0.84057 0.94837 0.10931 0.0
H978 H 0.87075 0.98641 0.08098 0.0
H979 H 0.92377 1.00186 0.05137 0.0
H980 H 1.00971 0.92531 0.01648 0.0
H981 H 0.97832 0.88442 0.04146 0.0
C982 C 0.91459 0.89676 0.07727 0.0
C983 C 0.88116 0.90692 0.0952 0.0
C984 C 0.93215 0.91869 0.06033 0.0
C985 C 0.86588 0.93929 0.09551 0.0
C986 C 0.88326 0.96131 0.07934 0.0
C987 C 0.93488 0.9751 0.04748 0.0
C988 C 0.96859 0.96596 0.03058 0.0
C989 C 0.91648 0.95154 0.06187 0.0
C990 C 0.98324 0.93219 0.02767 0.0
C991 C 0.96544 0.90909 0.04261 0.0
H992 H 0.85307 0.16138 0.75137 0.0
H993 H 0.83118 0.26002 0.87636 0.0
H994 H 0.86098 0.22828 0.90982 0.0
H995 H 0.89479 0.17271 0.90443 0.0
H996 H 0.91569 0.07387 0.7789 0.0
H997 H 0.88551 0.10533 0.74586 0.0
C998 C 0.85461 0.17603 0.78596 0.0
C999 C 0.83948 0.21349 0.81091 0.0
C1000 C 0.87212 0.15748 0.80538 0.0
C1001 C 0.84225 0.23145 0.85583 0.0
C1002 C 0.85947 0.21318 0.87519 0.0
C1003 C 0.89264 0.15775 0.86982 0.0
C1004 C 0.90848 0.12071 0.84474 0.0
C1005 C 0.87471 0.17618 0.85043 0.0
C1006 C 0.90501 0.1026 0.79975 0.0
C1007 C 0.88729 0.12055 0.78051 0.0
H1008 H 0.65716 0.22106 0.741 0.0
H1009 H 0.74636 0.17864 0.66291 0.0
H1010 H 0.70692 0.12075 0.60527 0.0
H1011 H 0.64664 0.08213 0.57674 0.0
H1012 H 0.55898 0.12006 0.65789 0.0
H1013 H 0.59789 0.17951 0.71455 0.0
C1014 C 0.66788 0.19904 0.71136 0.0
C1015 C 0.70455 0.20425 0.70602 0.0
C1016 C 0.64522 0.16499 0.6789 0.0
C1017 C 0.71824 0.17525 0.66773 0.0
C1018 C 0.69567 0.14219 0.63474 0.0
C1019 C 0.63617 0.10347 0.60689 0.0
C1020 C 0.59998 0.09697 0.61313 0.0
C1021 C 0.65907 0.13677 0.63988 0.0
C1022 C 0.58679 0.12444 0.65247 0.0
C1023 C 0.60901 0.15847 0.6848 0.0
H1024 H 0.61671 0.91616 0.43354 0.0
H1025 H 0.63574 1.00684 0.39959 0.0
H1026 H 0.6815 0.96822 0.35273 0.0
H1027 H 0.71663 0.90822 0.32115 0.0
H1028 H 0.69982 0.82055 0.3597 0.0
H1029 H 0.6532 0.85824 0.40463 0.0
C1030 C 0.63074 0.92742 0.41575 0.0
C1031 C 0.62244 0.9643 0.41996 0.0
C1032 C 0.65773 0.90552 0.3896 0.0
C1033 C 0.64144 0.97862 0.39708 0.0
C1034 C 0.66767 0.95647 0.37017 0.0
C1035 C 0.70278 0.89739 0.3394 0.0
C1036 C 0.71192 0.86137 0.33675 0.0
C1037 C 0.67615 0.91983 0.36615 0.0
C1038 C 0.69372 0.84816 0.36106 0.0
C1039 C 0.66683 0.86967 0.38678 0.0
H1040 H 0.86744 0.1385 0.41352 0.0
H1041 H 0.95967 0.19026 0.38343 0.0
H1042 H 0.99951 0.16463 0.41536 0.0
H1043 H 1.009 0.12531 0.44994 0.0
H1044 H 0.91704 0.07429 0.48107 0.0
H1045 H 0.877 0.10078 0.45003 0.0
C1046 C 0.89622 0.14388 0.41338 0.0
C1047 C 0.91004 0.16658 0.3956 0.0
C1048 C 0.91942 0.12883 0.43199 0.0
C1049 C 0.94772 0.17359 0.39703 0.0
C1050 C 0.97076 0.15862 0.41519 0.0
C1051 C 0.9802 0.12022 0.45036 0.0
C1052 C 0.9664 0.09748 0.46804 0.0
C1053 C 0.95702 0.13605 0.43268 0.0
C1054 C 0.92882 0.09165 0.46812 0.0
C1055 C 0.90573 0.10674 0.45008 0.0
H1056 H 0.68401 0.24022 0.19216 0.0
H1057 H 0.74695 0.13916 0.15169 0.0
H1058 H 0.69561 0.09102 0.10465 0.0
H1059 H 0.63612 0.07953 0.06848 0.0
H1060 H 0.57573 0.18179 0.10307 0.0
H1061 H 0.62291 0.22816 0.15911 0.0
C1062 C 0.68587 0.20746 0.17406 0.0
C1063 C 0.71852 0.1927 0.17561 0.0
C1064 C 0.65715 0.18064 0.14541 0.0
C1065 C 0.72157 0.15064 0.15127 0.0
C1066 C 0.69247 0.12338 0.12413 0.0
C1067 C 0.6332 0.11193 0.08854 0.0
C1068 C 0.60292 0.12754 0.08156 0.0
C1069 C 0.66066 0.13828 0.11979 0.0
C1070 C 0.59917 0.16939 0.10772 0.0
C1071 C 0.62599 0.19577 0.13977 0.0
H1072 H 0.73179 0.909 0.86991 0.0
H1073 H 0.65436 0.8294 0.76298 0.0
H1074 H 0.60643 0.86955 0.80348 0.0
H1075 H 0.58566 0.92629 0.87138 0.0
H1076 H 0.66357 1.00214 0.97915 0.0
H1077 H 0.71153 0.96501 0.93658 0.0
C1078 C 0.70452 0.90062 0.85517 0.0
C1079 C 0.69701 0.86612 0.8131 0.0
C1080 C 0.67682 0.92333 0.87915 0.0
C1081 C 0.66119 0.85564 0.79514 0.0
C1082 C 0.63364 0.87869 0.81842 0.0
C1083 C 0.61319 0.93493 0.88535 0.0
C1084 C 0.62076 0.96729 0.92866 0.0
C1085 C 0.64098 0.91247 0.86073 0.0
C1086 C 0.65668 0.97746 0.94616 0.0
C1087 C 0.68429 0.95617 0.92174 0.0
H1088 H 0.901 0.87699 0.60875 0.0
H1089 H 0.86615 0.99116 0.70698 0.0
H1090 H 0.83294 0.95566 0.73639 0.0
H1091 H 0.8115 0.89078 0.73328 0.0
H1092 H 0.84603 0.77737 0.63309 0.0
H1093 H 0.88061 0.81362 0.60591 0.0
C1094 C 0.88595 0.89433 0.63636 0.0
C1095 C 0.88652 0.93714 0.65516 0.0
C1096 C 0.86636 0.87356 0.65311 0.0
C1097 C 0.86707 0.95848 0.69167 0.0
C1098 C 0.84765 0.93802 0.70855 0.0
C1099 C 0.82674 0.87408 0.70568 0.0
C1100 C 0.82573 0.83101 0.68537 0.0
C1101 C 0.84686 0.89539 0.68951 0.0
C1102 C 0.84582 0.81027 0.64949 0.0
C1103 C 0.8658 0.83106 0.63373 0.0
H1104 H 0.19701 0.83605 0.86271 0.0
H1105 H 0.19571 0.87373 0.77114 0.0
H1106 H 0.14804 0.91637 0.8063 0.0
H1107 H 0.10816 0.94726 0.86623 0.0
H1108 H 0.11122 0.91173 0.95939 0.0
H1109 H 0.15541 0.86467 0.92079 0.0
C1110 C 0.18611 0.85321 0.85011 0.0
C1111 C 0.20058 0.85125 0.814 0.0
C1112 C 0.15849 0.87861 0.87108 0.0
C1113 C 0.18576 0.87433 0.79881 0.0
C1114 C 0.15819 0.89896 0.819 0.0
C1115 C 0.11793 0.92862 0.87759 0.0
C1116 C 0.10579 0.9332 0.91582 0.0
C1117 C 0.14448 0.9019 0.85556 0.0
C1118 C 0.11971 0.90911 0.93019 0.0
C1119 C 0.14527 0.88209 0.9081 0.0
H1120 H 0.98312 0.31249 0.50244 0.0
H1121 H 0.0691 0.30487 0.57739 0.0
H1122 H 1.03464 0.24652 0.57408 0.0
H1123 H 0.97548 0.20939 0.56408 0.0
H1124 H 0.88646 0.22799 0.50131 0.0
H1125 H 0.92683 0.26813 0.48339 0.0
C1126 C 0.9948 0.297 0.51664 0.0
C1127 C 1.02836 0.31286 0.54034 0.0
C1128 C 0.97391 0.26555 0.51708 0.0
C1129 C 0.04318 0.29309 0.55915 0.0
C1130 C 1.02339 0.25998 0.55746 0.0
C1131 C 0.965 0.22183 0.54602 0.0
C1132 C 0.92777 0.21671 0.53537 0.0
C1133 C 0.9879 0.24774 0.53882 0.0
C1134 C 0.91485 0.23157 0.51038 0.0
C1135 C 0.93792 0.2551 0.50054 0.0
H1136 H 0.55787 0.2686 0.46747 0.0
H1137 H 0.56505 0.16169 0.34188 0.0
H1138 H 0.53729 0.19478 0.30875 0.0
H1139 H 0.50214 0.2492 0.31658 0.0
H1140 H 0.49315 0.35432 0.44283 0.0
H1141 H 0.53202 0.32765 0.47436 0.0
C1142 C 0.55462 0.25297 0.43278 0.0
C1143 C 0.56292 0.21236 0.40726 0.0
C1144 C 0.53811 0.27185 0.41404 0.0
C1145 C 0.55814 0.1926 0.36233 0.0
C1146 C 0.5423 0.21152 0.34336 0.0
C1147 C 0.50924 0.26657 0.35091 0.0
C1148 C 0.49418 0.30329 0.37736 0.0
C1149 C 0.53065 0.25035 0.36905 0.0
C1150 C 0.5043 0.32601 0.42167 0.0
C1151 C 0.52627 0.31053 0.43983 0.0
H1152 H 0.59486 0.68536 0.08512 0.0
H1153 H 0.56849 0.61551 0.14348 0.0
H1154 H 0.62154 0.64984 0.19409 0.0
H1155 H 0.68086 0.68855 0.21123 0.0
H1156 H 0.70924 0.75626 0.15134 0.0
H1157 H 0.64998 0.7333 0.11093 0.0
C1158 C 0.60008 0.67857 0.10978 0.0
C1159 C 0.57842 0.64713 0.10989 0.0
C1160 C 0.63157 0.69686 0.13724 0.0
C1161 C 0.58509 0.63924 0.14249 0.0
C1162 C 0.61566 0.65842 0.171 0.0
C1163 C 0.67389 0.69841 0.18945 0.0
C1164 C 0.69937 0.7227 0.18276 0.0
C1165 C 0.64009 0.68526 0.16678 0.0
C1166 C 0.68999 0.73672 0.15594 0.0
C1167 C 0.6562 0.72376 0.13313 0.0
H1168 H 0.15968 0.25232 0.70045 0.0
H1169 H 0.23382 0.16728 0.68769 0.0
H1170 H 0.18783 0.10991 0.64547 0.0
H1171 H 0.12935 0.08373 0.60752 0.0
H1172 H 0.05814 0.16514 0.60577 0.0
H1173 H 0.09872 0.22465 0.66081 0.0
C1174 C 0.16561 0.22108 0.68757 0.0
C1175 C 0.20006 0.21347 0.69567 0.0
C1176 C 0.13919 0.18805 0.66224 0.0
C1177 C 0.20768 0.17331 0.68028 0.0
C1178 C 0.18131 0.14071 0.65693 0.0
C1179 C 0.12226 0.11462 0.62024 0.0
C1180 C 0.09123 0.12048 0.60306 0.0
C1181 C 0.14725 0.14775 0.64742 0.0
C1182 C 0.08185 0.16021 0.61929 0.0
C1183 C 0.10549 0.19404 0.64977 0.0
H1184 H 0.67846 0.36414 0.28593 0.0
H1185 H 0.7179 0.33617 0.37801 0.0
H1186 H 0.67416 0.37595 0.42695 0.0
H1187 H 0.62615 0.42131 0.44591 0.0
H1188 H 0.58308 0.44689 0.35361 0.0
H1189 H 0.62592 0.40547 0.30294 0.0
C1190 C 0.67741 0.36658 0.31662 0.0
C1191 C 0.70209 0.34698 0.32796 0.0
C1192 C 0.65123 0.38921 0.34485 0.0
C1193 C 0.69962 0.35049 0.36791 0.0
C1194 C 0.67449 0.37347 0.3962 0.0
C1195 C 0.62573 0.41756 0.41452 0.0
C1196 C 0.60108 0.43761 0.40399 0.0
C1197 C 0.65032 0.39327 0.38529 0.0
C1198 C 0.60123 0.43182 0.36283 0.0
C1199 C 0.62608 0.40827 0.33385 0.0
H1200 H 0.51547 0.84575 0.07384 0.0
H1201 H 0.46358 0.93207 0.18445 0.0
H1202 H 0.42077 0.87662 0.17549 0.0
H1203 H 0.39712 0.80461 0.13519 0.0
H1204 H 0.44917 0.7168 0.02615 0.0
H1205 H 0.49326 0.77206 0.03524 0.0
C1206 C 0.4952 0.85222 0.09642 0.0
C1207 C 0.49256 0.89285 0.12977 0.0
C1208 C 0.47055 0.82022 0.09085 0.0
C1209 C 0.46589 0.90104 0.15844 0.0
C1210 C 0.44142 0.86944 0.15326 0.0
C1211 C 0.41789 0.79774 0.11308 0.0
C1212 C 0.41959 0.75726 0.07934 0.0
C1213 C 0.44319 0.82917 0.11922 0.0
C1214 C 0.44716 0.74808 0.05173 0.0
C1215 C 0.47234 0.77954 0.05716 0.0
H1216 H 0.05573 0.77416 0.97718 0.0
H1217 H 0.9609 0.73076 0.01202 0.0
H1218 H 0.92478 0.7708 0.99494 0.0
H1219 H 0.91845 0.80955 0.9602 0.0
H1220 H 1.01193 0.84899 0.92007 0.0
H1221 H 0.05018 0.81832 0.94824 0.0
C1222 C 1.02718 0.77353 0.98116 0.0
C1223 C 1.01108 0.74894 0.9953 0.0
C1224 C 1.0062 0.79529 0.96956 0.0
C1225 C 0.9742 0.74952 1.00149 0.0
C1226 C 0.95336 0.77205 0.99123 0.0
C1227 C 0.94729 0.81211 0.9584 0.0
C1228 C 0.96243 0.83116 0.93791 0.0
C1229 C 0.96884 0.79377 0.97379 0.0
C1230 C 0.99975 0.83401 0.93535 0.0
C1231 C 1.02155 0.81658 0.9515 0.0
H1232 H 0.39008 0.37615 0.10499 0.0
H1233 H 0.37273 0.4914 0.21773 0.0
H1234 H 0.34004 0.45498 0.24651 0.0
H1235 H 0.31376 0.3892 0.23889 0.0
H1236 H 0.33076 0.27521 0.12428 0.0
H1237 H 0.36503 0.31205 0.09761 0.0
C1238 C 0.37893 0.39365 0.13568 0.0
C1239 C 0.38428 0.43698 0.15863 0.0
C1240 C 0.35952 0.37241 0.15207 0.0
C1241 C 0.3699 0.45825 0.199 0.0
C1242 C 0.35075 0.43729 0.21557 0.0
C1243 C 0.32507 0.37247 0.2082 0.0
C1244 C 0.31915 0.32907 0.18374 0.0
C1245 C 0.34508 0.39421 0.19235 0.0
C1246 C 0.33432 0.30836 0.14398 0.0
C1247 C 0.35414 0.3295 0.12849 0.0
H1248 H 0.49526 0.60553 0.93013 0.0
H1249 H 0.41666 0.60762 0.01447 0.0
H1250 H 0.37663 0.63911 0.98874 0.0
H1251 H 0.36349 0.6656 0.94103 0.0
H1252 H 0.44334 0.66216 0.85711 0.0
H1253 H 0.48294 0.63239 0.88428 0.0
C1254 C 0.46939 0.61278 0.94314 0.0
C1255 C 0.45925 0.6037 0.97432 0.0
C1256 C 0.4465 0.631 0.92821 0.0
C1257 C 0.42551 0.61396 0.99057 0.0
C1258 C 0.40247 0.63198 0.97568 0.0
C1259 C 0.38946 0.65818 0.92844 0.0
C1260 C 0.40004 0.66667 0.89679 0.0
C1261 C 0.41254 0.64051 0.94425 0.0
C1262 C 0.43424 0.65701 0.88173 0.0
C1263 C 0.45701 0.63955 0.89712 0.0
H1264 H 0.15787 0.57975 0.54678 0.0
H1265 H 0.08153 0.63712 0.64078 0.0
H1266 H 0.13056 0.6818 0.69533 0.0
H1267 H 0.194 0.71203 0.71141 0.0
H1268 H 0.26918 0.65428 0.61559 0.0
H1269 H 0.22197 0.60115 0.56687 0.0
C1270 C 0.15217 0.60157 0.57949 0.0
C1271 C 0.11658 0.60623 0.58993 0.0
C1272 C 0.18025 0.62691 0.61017 0.0
C1273 C 0.10903 0.63362 0.63232 0.0
C1274 C 0.13697 0.65914 0.66332 0.0
C1275 C 0.20015 0.687 0.68043 0.0
C1276 C 0.23459 0.68726 0.66648 0.0
C1277 C 0.17258 0.65721 0.65205 0.0
C1278 C 0.24255 0.65478 0.62649 0.0
C1279 C 0.2156 0.6246 0.59857 0.0
H1280 H 0.38314 0.36565 0.53929 0.0
H1281 H 0.41074 0.45589 0.67372 0.0
H1282 H 0.4505 0.4959 0.65512 0.0
H1283 H 0.48149 0.50362 0.60194 0.0
H1284 H 0.45679 0.41522 0.46735 0.0
H1285 H 0.41139 0.37715 0.48443 0.0
C1286 C 0.39757 0.39425 0.56456 0.0
C1287 C 0.39418 0.40682 0.6082 0.0
C1288 C 0.42083 0.41783 0.55353 0.0
C1289 C 0.41329 0.44428 0.64006 0.0
C1290 C 0.43592 0.46764 0.62942 0.0
C1291 C 0.46544 0.47661 0.57614 0.0
C1292 C 0.47238 0.46267 0.53327 0.0
C1293 C 0.44038 0.45448 0.58645 0.0
C1294 C 0.45168 0.42721 0.50047 0.0
C1295 C 0.42603 0.40513 0.51045 0.0
H1296 H 0.21673 0.69206 0.1624 0.0
H1297 H 0.17899 0.70412 0.27782 0.0
H1298 H 0.12996 0.65011 0.23572 0.0
H1299 H 0.09678 0.59985 0.1658 0.0
H1300 H 0.13613 0.58613 0.05031 0.0
H1301 H 0.18508 0.64006 0.09243 0.0
C1302 C 0.19783 0.68274 0.17827 0.0
C1303 C 0.20145 0.70229 0.22321 0.0
C1304 C 0.16973 0.65135 0.15377 0.0
C1305 C 0.17682 0.68968 0.24327 0.0
C1306 C 0.14868 0.65879 0.21921 0.0
C1307 C 0.11612 0.60868 0.14994 0.0
C1308 C 0.11253 0.58923 0.10501 0.0
C1309 C 0.14469 0.6395 0.17442 0.0
C1310 C 0.138 0.60082 0.08489 0.0
C1311 C 0.16613 0.63165 0.10896 0.0
H1312 H 0.73747 0.40019 0.75739 0.0
H1313 H 0.74014 0.29062 0.63284 0.0
H1314 H 0.71245 0.32323 0.59906 0.0
H1315 H 0.68678 0.38305 0.60417 0.0
H1316 H 0.68523 0.49292 0.72899 0.0
H1317 H 0.71229 0.46005 0.76244 0.0
C1318 C 0.73206 0.38328 0.72282 0.0
C1319 C 0.74124 0.34256 0.69804 0.0
C1320 C 0.7159 0.4024 0.70324 0.0
C1321 C 0.73368 0.32174 0.65318 0.0
C1322 C 0.71771 0.34051 0.63365 0.0
C1323 C 0.69249 0.40013 0.63869 0.0
C1324 C 0.68318 0.44087 0.66354 0.0
C1325 C 0.70865 0.38092 0.65823 0.0
C1326 C 0.69093 0.46155 0.70844 0.0
C1327 C 0.70687 0.44274 0.72786 0.0
H1328 H 0.86735 0.6612 0.18992 0.0
H1329 H 0.87472 0.73938 0.13872 0.0
H1330 H 0.92124 0.70134 0.09353 0.0
H1331 H 0.96024 0.64483 0.06744 0.0
H1332 H 0.94996 0.56501 0.11658 0.0
H1333 H 0.90497 0.60442 0.16307 0.0
C1334 C 0.87909 0.66995 0.16889 0.0
C1335 C 0.86726 0.70325 0.16799 0.0
C1336 C 0.90568 0.64748 0.14229 0.0
C1337 C 0.8829 0.71381 0.14017 0.0
C1338 C 0.90974 0.69208 0.11425 0.0
C1339 C 0.94822 0.6362 0.08843 0.0
C1340 C 0.95865 0.60176 0.08819 0.0
C1341 C 0.92143 0.65874 0.1149 0.0
C1342 C 0.94245 0.59104 0.11557 0.0
C1343 C 0.91662 0.61368 0.14242 0.0
H1344 H 0.9744 0.63027 0.65255 0.0
H1345 H 0.91138 0.56755 0.53089 0.0
H1346 H 0.86102 0.60614 0.56507 0.0
H1347 H 0.83528 0.66025 0.62883 0.0
H1348 H 0.89953 0.72784 0.74973 0.0
H1349 H 0.94837 0.68542 0.71701 0.0
C1350 C 0.94944 0.6247 0.63374 0.0
C1351 C 0.94666 0.59551 0.58912 0.0
C1352 C 0.92067 0.64833 0.65354 0.0
C1353 C 0.91431 0.58952 0.56518 0.0
C1354 C 0.88543 0.61173 0.58475 0.0
C1355 C 0.85981 0.66552 0.64821 0.0
C1356 C 0.86332 0.69726 0.69198 0.0
C1357 C 0.88834 0.6416 0.62881 0.0
C1358 C 0.89578 0.70378 0.7161 0.0
C1359 C 0.92385 0.67941 0.69733 0.0
H1360 H 0.37831 0.66672 0.40928 0.0
H1361 H 0.40578 0.57318 0.28415 0.0
H1362 H 0.37732 0.60643 0.25203 0.0
H1363 H 0.34492 0.66278 0.25845 0.0
H1364 H 0.31881 0.75756 0.38343 0.0
H1365 H 0.34633 0.7236 0.41579 0.0
C1366 C 0.37844 0.65359 0.37501 0.0
C1367 C 0.39432 0.6167 0.34961 0.0
C1368 C 0.362 0.67332 0.35627 0.0
C1369 C 0.39343 0.60068 0.30503 0.0
C1370 C 0.37722 0.62 0.28639 0.0
C1371 C 0.34497 0.67603 0.29277 0.0
C1372 C 0.32933 0.713 0.31812 0.0
C1373 C 0.3613 0.65632 0.31154 0.0
C1374 C 0.3303 0.72934 0.36268 0.0
C1375 C 0.34621 0.70983 0.38139 0.0
H1376 H 0.20798 0.34349 0.87336 0.0
H1377 H 0.22524 0.40719 0.80696 0.0
H1378 H 0.18176 0.4542 0.84885 0.0
H1379 H 0.13754 0.47656 0.90349 0.0
H1380 H 0.11677 0.40926 0.96561 0.0
H1381 H 0.1625 0.3646 0.92649 0.0
C1382 C 0.20244 0.3679 0.86835 0.0
C1383 C 0.22018 0.372 0.83728 0.0
C1384 C 0.17648 0.39416 0.89172 0.0
C1385 C 0.21209 0.40333 0.83066 0.0
C1386 C 0.18717 0.43026 0.85463 0.0
C1387 C 0.14312 0.45222 0.90859 0.0
C1388 C 0.12373 0.44653 0.93772 0.0
C1389 C 0.169 0.42588 0.88511 0.0
C1390 C 0.13109 0.41441 0.9434 0.0
C1391 C 0.15738 0.38883 0.92106 0.0
H1392 H 0.22996 0.3954 0.38359 0.0
H1393 H 0.16325 0.34465 0.26568 0.0
H1394 H 0.11572 0.38582 0.30522 0.0
H1395 H 0.09164 0.43523 0.37413 0.0
H1396 H 0.15702 0.4824 0.49237 0.0
H1397 H 0.20578 0.4443 0.4524 0.0
C1398 C 0.20519 0.39369 0.36648 0.0
C1399 C 0.20054 0.36684 0.32142 0.0
C1400 C 0.1773 0.41691 0.38975 0.0
C1401 C 0.1678 0.36472 0.30018 0.0
C1402 C 0.14046 0.38842 0.32288 0.0
C1403 C 0.11663 0.43739 0.39115 0.0
C1404 C 0.12037 0.462 0.43649 0.0
C1405 C 0.14466 0.41444 0.36779 0.0
C1406 C 0.15302 0.46378 0.45769 0.0
C1407 C 0.18112 0.44195 0.43475 0.0
loop_
_geom_bond_atom_site_label_1
_geom_bond_atom_site_label_2
_geom_bond_distance
_geom_bond_site_symmetry_2
_ccdc_geom_bond_type
Nd0 C2 2.836 1_545 S
Nd0 O20 2.500 . S
Nd0 O21 2.492 1_545 S
Nd0 O22 2.487 1_445 S
Nd0 O23 2.682 1_445 S
Nd0 O24 2.410 1_544 S
Nd0 O29 2.401 1_554 S
Nd0 O31 2.424 1_455 S
Nd1 C11 2.836 1_565 S
Nd1 O23 2.414 1_556 S
Nd1 O25 2.424 1_655 S
Nd1 O26 2.500 . S
Nd1 O27 2.492 1_565 S
Nd1 O28 2.487 1_665 S
Nd1 O29 2.687 1_665 S
Nd1 O30 2.410 1_566 S
C2 Nd0 2.836 1_565 S
C2 C3 1.498 . S
C2 O20 1.258 1_565 S
C2 O21 1.239 . S
C3 C2 1.498 . S
C3 C4 1.366 . S
C3 C8 1.407 . S
C4 C3 1.366 . S
C4 C5 1.392 . S
C4 H32 0.930 . S
C5 C4 1.392 . S
C5 C6 1.398 . S
C5 H33 0.929 . S
C6 C5 1.398 . S
C6 C7 1.352 . S
C7 C6 1.352 . S
C7 C8 1.384 . S
C7 H34 0.930 . S
C8 C3 1.407 . S
C8 C7 1.384 . S
C8 H35 0.929 . S
C9 O22 1.241 . S
C9 O23 1.273 . S
C10 O24 1.251 . S
C10 O25 1.268 . S
C11 Nd1 2.836 1_545 S
C11 C12 1.498 . S
C11 O26 1.258 1_545 S
C11 O27 1.239 . S
C12 C11 1.498 . S
C12 C13 1.366 . S
C12 C17 1.407 . S
C13 C12 1.366 . S
C13 C14 1.392 . S
C13 H36 0.930 . S
C14 C13 1.392 . S
C14 C15 1.398 . S
C14 H37 0.929 . S
C15 C14 1.398 . S
C15 C16 1.352 . S
C16 C15 1.352 . S
C16 C17 1.384 . S
C16 H38 0.930 . S
C17 C12 1.407 . S
C17 C16 1.384 . S
C17 H39 0.929 . S
C18 O28 1.241 . S
C18 O29 1.285 . S
C19 O30 1.251 . S
C19 O31 1.268 . S
O20 Nd0 2.500 . S
O20 C2 1.258 1_545 S
O21 Nd0 2.492 1_565 S
O21 C2 1.239 . S
O22 Nd0 2.487 1_665 S
O22 C9 1.241 . S
O23 Nd0 2.682 1_665 S
O23 Nd1 2.414 1_554 S
O23 C9 1.273 . S
O24 Nd0 2.410 1_566 S
O24 C10 1.251 . S
O25 Nd1 2.424 1_455 S
O25 C10 1.268 . S
O26 Nd1 2.500 . S
O26 C11 1.258 1_565 S
O27 Nd1 2.492 1_545 S
O27 C11 1.239 . S
O28 Nd1 2.487 1_445 S
O28 C18 1.241 . S
O29 Nd0 2.401 1_556 S
O29 Nd1 2.687 1_445 S
O29 C18 1.285 . S
O30 Nd1 2.410 1_544 S
O30 C19 1.251 . S
O31 Nd0 2.424 1_655 S
O31 C19 1.268 . S
H32 C4 0.930 . S
H33 C5 0.929 . S
H34 C7 0.930 . S
H35 C8 0.929 . S
H36 C13 0.930 . S
H37 C14 0.929 . S
H38 C16 0.930 . S
H39 C17 0.929 . S
Nd40 C42 2.836 . S
Nd40 O60 2.500 . S
Nd40 O61 2.492 . S
Nd40 O62 2.487 . S
Nd40 O63 2.682 . S
Nd40 O64 2.410 . S
Nd40 O69 2.414 . S
Nd40 O71 2.424 . S
Nd41 C51 2.836 . S
Nd41 O63 2.414 . S
Nd41 O65 2.424 . S
Nd41 O66 2.500 . S
Nd41 O67 2.492 . S
Nd41 O68 2.487 . S
Nd41 O69 2.682 . S
Nd41 O70 2.410 . S
C42 Nd40 2.836 . S
C42 C43 1.498 . S
C42 O60 1.258 . S
C42 O61 1.239 . S
C43 C42 1.498 . S
C43 C44 1.366 . S
C43 C48 1.407 . S
C44 C43 1.366 . S
C44 C45 1.392 . S
C44 H72 0.930 . S
C45 C44 1.392 . S
C45 C46 1.398 . S
C45 H73 0.929 . S
C46 C45 1.398 . S
C46 C47 1.352 . S
C47 C46 1.352 . S
C47 C48 1.384 . S
C47 H74 0.930 . S
C48 C43 1.407 . S
C48 C47 1.384 . S
C48 H75 0.929 . S
C49 O62 1.241 . S
C49 O63 1.273 . S
C50 O64 1.251 . S
C50 O65 1.268 . S
C51 Nd41 2.836 . S
C51 C52 1.498 . S
C51 O66 1.258 . S
C51 O67 1.239 . S
C52 C51 1.498 . S
C52 C53 1.366 . S
C52 C57 1.407 . S
C53 C52 1.366 . S
C53 C54 1.392 . S
C53 H76 0.930 . S
C54 C53 1.392 . S
C54 C55 1.398 . S
C54 H77 0.929 . S
C55 C54 1.398 . S
C55 C56 1.352 . S
C56 C55 1.352 . S
C56 C57 1.384 . S
C56 H78 0.930 . S
C57 C52 1.407 . S
C57 C56 1.384 . S
C57 H79 0.929 . S
C58 O68 1.241 . S
C58 O69 1.273 . S
C59 O70 1.251 . S
C59 O71 1.268 . S
O60 Nd40 2.500 . S
O60 C42 1.258 . S
O61 Nd40 2.492 . S
O61 C42 1.239 . S
O62 Nd40 2.487 . S
O62 C49 1.241 . S
O63 Nd40 2.682 . S
O63 Nd41 2.414 . S
O63 C49 1.273 . S
O64 Nd40 2.410 . S
O64 C50 1.251 . S
O65 Nd41 2.424 . S
O65 C50 1.268 . S
O66 Nd41 2.500 . S
O66 C51 1.258 . S
O67 Nd41 2.492 . S
O67 C51 1.239 . S
O68 Nd41 2.487 . S
O68 C58 1.241 . S
O69 Nd40 2.414 . S
O69 Nd41 2.682 . S
O69 C58 1.273 . S
O70 Nd41 2.410 . S
O70 C59 1.251 . S
O71 Nd40 2.424 . S
O71 C59 1.268 . S
H72 C44 0.930 . S
H73 C45 0.929 . S
H74 C47 0.930 . S
H75 C48 0.929 . S
H76 C53 0.930 . S
H77 C54 0.929 . S
H78 C56 0.930 . S
H79 C57 0.929 . S
Nd80 C82 2.836 . S
Nd80 O100 2.500 . S
Nd80 O101 2.492 . S
Nd80 O102 2.487 1_545 S
Nd80 O103 2.682 1_545 S
Nd80 O104 2.410 . S
Nd80 O109 2.414 . S
Nd80 O111 2.424 1_545 S
Nd81 C91 2.836 . S
Nd81 O103 2.414 . S
Nd81 O105 2.424 1_565 S
Nd81 O106 2.500 . S
Nd81 O107 2.492 . S
Nd81 O108 2.487 1_565 S
Nd81 O109 2.682 1_565 S
Nd81 O110 2.410 . S
C82 Nd80 2.836 . S
C82 C83 1.498 . S
C82 O100 1.258 . S
C82 O101 1.239 . S
C83 C82 1.498 . S
C83 C84 1.366 . S
C83 C88 1.407 . S
C84 C83 1.366 . S
C84 C85 1.392 . S
C84 H112 0.930 . S
C85 C84 1.392 . S
C85 C86 1.398 . S
C85 H113 0.929 . S
C86 C85 1.398 . S
C86 C87 1.352 . S
C87 C86 1.352 . S
C87 C88 1.384 . S
C87 H114 0.930 . S
C88 C83 1.407 . S
C88 C87 1.384 . S
C88 H115 0.929 . S
C89 O102 1.241 . S
C89 O103 1.273 . S
C90 O104 1.251 . S
C90 O105 1.268 . S
C91 Nd81 2.836 . S
C91 C92 1.498 . S
C91 O106 1.258 . S
C91 O107 1.239 . S
C92 C91 1.498 . S
C92 C93 1.366 . S
C92 C97 1.407 . S
C93 C92 1.366 . S
C93 C94 1.392 . S
C93 H116 0.930 . S
C94 C93 1.392 . S
C94 C95 1.398 . S
C94 H117 0.929 . S
C95 C94 1.398 . S
C95 C96 1.352 . S
C96 C95 1.352 . S
C96 C97 1.384 . S
C96 H118 0.930 . S
C97 C92 1.407 . S
C97 C96 1.384 . S
C97 H119 0.929 . S
C98 O108 1.241 . S
C98 O109 1.273 . S
C99 O110 1.251 . S
C99 O111 1.268 . S
O100 Nd80 2.500 . S
O100 C82 1.258 . S
O101 Nd80 2.492 . S
O101 C82 1.239 . S
O102 Nd80 2.487 1_565 S
O102 C89 1.241 . S
O103 Nd80 2.682 1_565 S
O103 Nd81 2.414 . S
O103 C89 1.273 . S
O104 Nd80 2.410 . S
O104 C90 1.251 . S
O105 Nd81 2.424 1_545 S
O105 C90 1.268 . S
O106 Nd81 2.500 . S
O106 C91 1.258 . S
O107 Nd81 2.492 . S
O107 C91 1.239 . S
O108 Nd81 2.487 1_545 S
O108 C98 1.241 . S
O109 Nd80 2.414 . S
O109 Nd81 2.682 1_545 S
O109 C98 1.273 . S
O110 Nd81 2.410 . S
O110 C99 1.251 . S
O111 Nd80 2.424 1_565 S
O111 C99 1.268 . S
H112 C84 0.930 . S
H113 C85 0.929 . S
H114 C87 0.930 . S
H115 C88 0.929 . S
H116 C93 0.930 . S
H117 C94 0.929 . S
H118 C96 0.930 . S
H119 C97 0.929 . S
Nd120 C122 2.836 . S
Nd120 O140 2.500 . S
Nd120 O141 2.492 . S
Nd120 O142 2.487 . S
Nd120 O143 2.682 . S
Nd120 O144 2.410 . S
Nd120 O149 2.414 . S
Nd120 O151 2.424 . S
Nd121 C131 2.836 . S
Nd121 O143 2.414 . S
Nd121 O145 2.424 . S
Nd121 O146 2.500 . S
Nd121 O147 2.492 . S
Nd121 O148 2.487 . S
Nd121 O149 2.682 . S
Nd121 O150 2.410 . S
C122 Nd120 2.836 . S
C122 C123 1.498 . S
C122 O140 1.258 . S
C122 O141 1.239 . S
C123 C122 1.498 . S
C123 C124 1.366 . S
C123 C128 1.407 . S
C124 C123 1.366 . S
C124 C125 1.392 . S
C124 H152 0.930 . S
C125 C124 1.392 . S
C125 C126 1.398 . S
C125 H153 0.929 . S
C126 C125 1.398 . S
C126 C127 1.352 . S
C127 C126 1.352 . S
C127 C128 1.384 . S
C127 H154 0.930 . S
C128 C123 1.407 . S
C128 C127 1.384 . S
C128 H155 0.929 . S
C129 O142 1.241 . S
C129 O143 1.273 . S
C130 O144 1.251 . S
C130 O145 1.268 . S
C131 Nd121 2.836 . S
C131 C132 1.498 . S
C131 O146 1.258 . S
C131 O147 1.239 . S
C132 C131 1.498 . S
C132 C133 1.366 . S
C132 C137 1.407 . S
C133 C132 1.366 . S
C133 C134 1.392 . S
C133 H156 0.930 . S
C134 C133 1.392 . S
C134 C135 1.398 . S
C134 H157 0.929 . S
C135 C134 1.398 . S
C135 C136 1.352 . S
C136 C135 1.352 . S
C136 C137 1.384 . S
C136 H158 0.930 . S
C137 C132 1.407 . S
C137 C136 1.384 . S
C137 H159 0.929 . S
C138 O148 1.241 . S
C138 O149 1.273 . S
C139 O150 1.251 . S
C139 O151 1.268 . S
O140 Nd120 2.500 . S
O140 C122 1.258 . S
O141 Nd120 2.492 . S
O141 C122 1.239 . S
O142 Nd120 2.487 . S
O142 C129 1.241 . S
O143 Nd120 2.682 . S
O143 Nd121 2.414 . S
O143 C129 1.273 . S
O144 Nd120 2.410 . S
O144 C130 1.251 . S
O145 Nd121 2.424 . S
O145 C130 1.268 . S
O146 Nd121 2.500 . S
O146 C131 1.258 . S
O147 Nd121 2.492 . S
O147 C131 1.239 . S
O148 Nd121 2.487 . S
O148 C138 1.241 . S
O149 Nd120 2.414 . S
O149 Nd121 2.682 . S
O149 C138 1.273 . S
O150 Nd121 2.410 . S
O150 C139 1.251 . S
O151 Nd120 2.424 . S
O151 C139 1.268 . S
H152 C124 0.930 . S
H153 C125 0.929 . S
H154 C127 0.930 . S
H155 C128 0.929 . S
H156 C133 0.930 . S
H157 C134 0.929 . S
H158 C136 0.930 . S
H159 C137 0.929 . S
Nd160 C162 2.836 1_545 S
Nd160 O180 2.500 . S
Nd160 O181 2.492 1_545 S
Nd160 O182 2.487 1_545 S
Nd160 O183 2.682 1_545 S
Nd160 O184 2.410 1_545 S
Nd160 O189 2.414 1_655 S
Nd160 O191 2.424 . S
Nd161 C171 2.836 1_565 S
Nd161 O183 2.414 1_455 S
Nd161 O185 2.424 . S
Nd161 O186 2.500 . S
Nd161 O187 2.492 1_565 S
Nd161 O188 2.487 1_565 S
Nd161 O189 2.682 1_565 S
Nd161 O190 2.410 1_565 S
C162 Nd160 2.836 1_565 S
C162 C163 1.498 . S
C162 O180 1.258 1_565 S
C162 O181 1.239 . S
C163 C162 1.498 . S
C163 C164 1.366 . S
C163 C168 1.407 . S
C164 C163 1.366 . S
C164 C165 1.392 . S
C164 H192 0.930 . S
C165 C164 1.392 . S
C165 C166 1.398 . S
C165 H193 0.929 . S
C166 C165 1.398 . S
C166 C167 1.352 . S
C167 C166 1.352 . S
C167 C168 1.384 . S
C167 H194 0.930 . S
C168 C163 1.407 . S
C168 C167 1.384 . S
C168 H195 0.929 . S
C169 O182 1.241 . S
C169 O183 1.273 . S
C170 O184 1.251 1_455 S
C170 O185 1.268 . S
C171 Nd161 2.836 1_545 S
C171 C172 1.498 . S
C171 O186 1.258 1_545 S
C171 O187 1.239 . S
C172 C171 1.498 . S
C172 C173 1.366 . S
C172 C177 1.407 . S
C173 C172 1.366 . S
C173 C174 1.392 . S
C173 H196 0.930 . S
C174 C173 1.392 . S
C174 C175 1.398 . S
C174 H197 0.929 . S
C175 C174 1.398 . S
C175 C176 1.352 . S
C176 C175 1.352 . S
C176 C177 1.384 . S
C176 H198 0.930 . S
C177 C172 1.407 . S
C177 C176 1.384 . S
C177 H199 0.929 . S
C178 O188 1.241 . S
C178 O189 1.273 . S
C179 O190 1.251 1_655 S
C179 O191 1.268 . S
O180 Nd160 2.500 . S
O180 C162 1.258 1_545 S
O181 Nd160 2.492 1_565 S
O181 C162 1.239 . S
O182 Nd160 2.487 1_565 S
O182 C169 1.241 . S
O183 Nd160 2.682 1_565 S
O183 Nd161 2.414 1_655 S
O183 C169 1.273 . S
O184 Nd160 2.410 1_565 S
O184 C170 1.251 1_655 S
O185 Nd161 2.424 . S
O185 C170 1.268 . S
O186 Nd161 2.500 . S
O186 C171 1.258 1_565 S
O187 Nd161 2.492 1_545 S
O187 C171 1.239 . S
O188 Nd161 2.487 1_545 S
O188 C178 1.241 . S
O189 Nd160 2.414 1_455 S
O189 Nd161 2.682 1_545 S
O189 C178 1.273 . S
O190 Nd161 2.410 1_545 S
O190 C179 1.251 1_455 S
O191 Nd160 2.424 . S
O191 C179 1.268 . S
H192 C164 0.930 . S
H193 C165 0.929 . S
H194 C167 0.930 . S
H195 C168 0.929 . S
H196 C173 0.930 . S
H197 C174 0.929 . S
H198 C176 0.930 . S
H199 C177 0.929 . S
Nd200 C202 2.836 . S
Nd200 O220 2.500 . S
Nd200 O221 2.492 . S
Nd200 O222 2.487 . S
Nd200 O223 2.682 . S
Nd200 O224 2.410 . S
Nd200 O229 2.414 . S
Nd200 O231 2.424 . S
Nd201 C211 2.836 . S
Nd201 O223 2.414 . S
Nd201 O225 2.424 . S
Nd201 O226 2.500 . S
Nd201 O227 2.492 . S
Nd201 O228 2.487 . S
Nd201 O229 2.682 . S
Nd201 O230 2.410 . S
C202 Nd200 2.836 . S
C202 C203 1.498 . S
C202 O220 1.258 . S
C202 O221 1.239 . S
C203 C202 1.498 . S
C203 C204 1.366 . S
C203 C208 1.407 . S
C204 C203 1.366 . S
C204 C205 1.392 . S
C204 H232 0.930 . S
C205 C204 1.392 . S
C205 C206 1.398 . S
C205 H233 0.929 . S
C206 C205 1.398 . S
C206 C207 1.352 . S
C207 C206 1.352 . S
C207 C208 1.384 . S
C207 H234 0.930 . S
C208 C203 1.407 . S
C208 C207 1.384 . S
C208 H235 0.929 . S
C209 O222 1.241 . S
C209 O223 1.273 . S
C210 O224 1.251 . S
C210 O225 1.268 . S
C211 Nd201 2.836 . S
C211 C212 1.498 . S
C211 O226 1.258 . S
C211 O227 1.239 . S
C212 C211 1.498 . S
C212 C213 1.366 . S
C212 C217 1.407 . S
C213 C212 1.366 . S
C213 C214 1.392 . S
C213 H236 0.930 . S
C214 C213 1.392 . S
C214 C215 1.398 . S
C214 H237 0.929 . S
C215 C214 1.398 . S
C215 C216 1.352 . S
C216 C215 1.352 . S
C216 C217 1.384 . S
C216 H238 0.930 . S
C217 C212 1.407 . S
C217 C216 1.384 . S
C217 H239 0.929 . S
C218 O228 1.241 . S
C218 O229 1.273 . S
C219 O230 1.251 . S
C219 O231 1.268 . S
O220 Nd200 2.500 . S
O220 C202 1.258 . S
O221 Nd200 2.492 . S
O221 C202 1.239 . S
O222 Nd200 2.487 . S
O222 C209 1.241 . S
O223 Nd200 2.682 . S
O223 Nd201 2.414 . S
O223 C209 1.273 . S
O224 Nd200 2.410 . S
O224 C210 1.251 . S
O225 Nd201 2.424 . S
O225 C210 1.268 . S
O226 Nd201 2.500 . S
O226 C211 1.258 . S
O227 Nd201 2.492 . S
O227 C211 1.239 . S
O228 Nd201 2.487 . S
O228 C218 1.241 . S
O229 Nd200 2.414 . S
O229 Nd201 2.682 . S
O229 C218 1.273 . S
O230 Nd201 2.410 . S
O230 C219 1.251 . S
O231 Nd200 2.424 . S
O231 C219 1.268 . S
H232 C204 0.930 . S
H233 C205 0.929 . S
H234 C207 0.930 . S
H235 C208 0.929 . S
H236 C213 0.930 . S
H237 C214 0.929 . S
H238 C216 0.930 . S
H239 C217 0.929 . S
Nd240 C242 2.836 . S
Nd240 O260 2.500 . S
Nd240 O261 2.492 . S
Nd240 O262 2.487 1_556 S
Nd240 O263 2.682 1_556 S
Nd240 O264 2.410 1_545 S
Nd240 O269 2.414 1_545 S
Nd240 O271 2.424 1_556 S
Nd241 C251 2.836 . S
Nd241 O263 2.414 1_565 S
Nd241 O265 2.424 1_554 S
Nd241 O266 2.500 . S
Nd241 O267 2.492 . S
Nd241 O268 2.487 1_554 S
Nd241 O269 2.682 1_554 S
Nd241 O270 2.410 1_565 S
C242 Nd240 2.836 . S
C242 C243 1.498 . S
C242 O260 1.258 . S
C242 O261 1.239 . S
C243 C242 1.498 . S
C243 C244 1.366 . S
C243 C248 1.407 . S
C244 C243 1.366 . S
C244 C245 1.392 . S
C244 H272 0.930 1_545 S
C245 C244 1.392 . S
C245 C246 1.398 . S
C245 H273 0.929 1_545 S
C246 C245 1.398 . S
C246 C247 1.352 . S
C247 C246 1.352 . S
C247 C248 1.384 . S
C247 H274 0.930 . S
C248 C243 1.407 . S
C248 C247 1.384 . S
C248 H275 0.929 . S
C249 O262 1.241 . S
C249 O263 1.273 . S
C250 O264 1.251 . S
C250 O265 1.268 . S
C251 Nd241 2.836 . S
C251 C252 1.498 . S
C251 O266 1.258 . S
C251 O267 1.239 . S
C252 C251 1.498 . S
C252 C253 1.366 . S
C252 C257 1.407 . S
C253 C252 1.366 . S
C253 C254 1.392 . S
C253 H276 0.930 1_565 S
C254 C253 1.392 . S
C254 C255 1.398 . S
C254 H277 0.929 1_565 S
C255 C254 1.398 . S
C255 C256 1.352 . S
C256 C255 1.352 . S
C256 C257 1.384 . S
C256 H278 0.930 . S
C257 C252 1.407 . S
C257 C256 1.384 . S
C257 H279 0.929 . S
C258 O268 1.241 . S
C258 O269 1.273 . S
C259 O270 1.251 . S
C259 O271 1.268 . S
O260 Nd240 2.500 . S
O260 C242 1.258 . S
O261 Nd240 2.492 . S
O261 C242 1.239 . S
O262 Nd240 2.487 1_554 S
O262 C249 1.241 . S
O263 Nd240 2.682 1_554 S
O263 Nd241 2.414 1_545 S
O263 C249 1.273 . S
O264 Nd240 2.410 1_565 S
O264 C250 1.251 . S
O265 Nd241 2.424 1_556 S
O265 C250 1.268 . S
O266 Nd241 2.500 . S
O266 C251 1.258 . S
O267 Nd241 2.492 . S
O267 C251 1.239 . S
O268 Nd241 2.487 1_556 S
O268 C258 1.241 . S
O269 Nd240 2.414 1_565 S
O269 Nd241 2.682 1_556 S
O269 C258 1.273 . S
O270 Nd241 2.410 1_545 S
O270 C259 1.251 . S
O271 Nd240 2.424 1_554 S
O271 C259 1.268 . S
H272 C244 0.930 1_565 S
H273 C245 0.929 1_565 S
H274 C247 0.930 . S
H275 C248 0.929 . S
H276 C253 0.930 1_545 S
H277 C254 0.929 1_545 S
H278 C256 0.930 . S
H279 C257 0.929 . S
Nd280 C282 2.836 . S
Nd280 O300 2.500 . S
Nd280 O301 2.492 . S
Nd280 O302 2.487 . S
Nd280 O303 2.682 . S
Nd280 O304 2.410 . S
Nd280 O309 2.414 . S
Nd280 O311 2.424 . S
Nd281 C291 2.836 . S
Nd281 O303 2.414 . S
Nd281 O305 2.424 . S
Nd281 O306 2.500 . S
Nd281 O307 2.492 . S
Nd281 O308 2.487 . S
Nd281 O309 2.682 . S
Nd281 O310 2.410 . S
C282 Nd280 2.836 . S
C282 C283 1.498 . S
C282 O300 1.258 . S
C282 O301 1.239 . S
C283 C282 1.498 . S
C283 C284 1.366 . S
C283 C288 1.407 . S
C284 C283 1.366 . S
C284 C285 1.392 . S
C284 H312 0.930 . S
C285 C284 1.392 . S
C285 C286 1.398 . S
C285 H313 0.929 . S
C286 C285 1.398 . S
C286 C287 1.352 . S
C287 C286 1.352 . S
C287 C288 1.384 . S
C287 H314 0.930 . S
C288 C283 1.407 . S
C288 C287 1.384 . S
C288 H315 0.929 . S
C289 O302 1.241 . S
C289 O303 1.273 . S
C290 O304 1.251 . S
C290 O305 1.268 . S
C291 Nd281 2.836 . S
C291 C292 1.498 . S
C291 O306 1.258 . S
C291 O307 1.239 . S
C292 C291 1.498 . S
C292 C293 1.366 . S
C292 C297 1.407 . S
C293 C292 1.366 . S
C293 C294 1.392 . S
C293 H316 0.930 . S
C294 C293 1.392 . S
C294 C295 1.398 . S
C294 H317 0.929 . S
C295 C294 1.398 . S
C295 C296 1.352 . S
C296 C295 1.352 . S
C296 C297 1.384 . S
C296 H318 0.930 . S
C297 C292 1.407 . S
C297 C296 1.384 . S
C297 H319 0.929 . S
C298 O308 1.241 . S
C298 O309 1.273 . S
C299 O310 1.251 . S
C299 O311 1.268 . S
O300 Nd280 2.500 . S
O300 C282 1.258 . S
O301 Nd280 2.492 . S
O301 C282 1.239 . S
O302 Nd280 2.487 . S
O302 C289 1.241 . S
O303 Nd280 2.682 . S
O303 Nd281 2.414 . S
O303 C289 1.273 . S
O304 Nd280 2.410 . S
O304 C290 1.251 . S
O305 Nd281 2.424 . S
O305 C290 1.268 . S
O306 Nd281 2.500 . S
O306 C291 1.258 . S
O307 Nd281 2.492 . S
O307 C291 1.239 . S
O308 Nd281 2.487 . S
O308 C298 1.241 . S
O309 Nd280 2.414 . S
O309 Nd281 2.682 . S
O309 C298 1.273 . S
O310 Nd281 2.410 . S
O310 C299 1.251 . S
O311 Nd280 2.424 . S
O311 C299 1.268 . S
H312 C284 0.930 . S
H313 C285 0.929 . S
H314 C287 0.930 . S
H315 C288 0.929 . S
H316 C293 0.930 . S
H317 C294 0.929 . S
H318 C296 0.930 . S
H319 C297 0.929 . S
Nd320 C322 2.836 . S
Nd320 O340 2.500 . S
Nd320 O341 2.492 . S
Nd320 O342 2.487 1_554 S
Nd320 O343 2.682 1_554 S
Nd320 O344 2.410 . S
Nd320 O349 2.414 . S
Nd320 O351 2.424 . S
Nd321 C331 2.836 . S
Nd321 O343 2.414 . S
Nd321 O345 2.424 . S
Nd321 O346 2.500 . S
Nd321 O347 2.492 . S
Nd321 O348 2.487 1_556 S
Nd321 O349 2.682 1_556 S
Nd321 O350 2.410 . S
C322 Nd320 2.836 . S
C322 C323 1.498 . S
C322 O340 1.258 . S
C322 O341 1.239 . S
C323 C322 1.498 . S
C323 C324 1.366 . S
C323 C328 1.407 . S
C324 C323 1.366 . S
C324 C325 1.392 . S
C324 H352 0.930 . S
C325 C324 1.392 . S
C325 C326 1.398 . S
C325 H353 0.929 . S
C326 C325 1.398 . S
C326 C327 1.352 . S
C327 C326 1.352 . S
C327 C328 1.384 . S
C327 H354 0.930 . S
C328 C323 1.407 . S
C328 C327 1.384 . S
C328 H355 0.929 . S
C329 O342 1.241 . S
C329 O343 1.273 . S
C330 O344 1.251 . S
C330 O345 1.268 1_554 S
C331 Nd321 2.836 . S
C331 C332 1.498 . S
C331 O346 1.258 . S
C331 O347 1.239 . S
C332 C331 1.498 . S
C332 C333 1.366 . S
C332 C337 1.407 . S
C333 C332 1.366 . S
C333 C334 1.392 . S
C333 H356 0.930 . S
C334 C333 1.392 . S
C334 C335 1.398 . S
C334 H357 0.929 . S
C335 C334 1.398 . S
C335 C336 1.352 . S
C336 C335 1.352 . S
C336 C337 1.384 . S
C336 H358 0.930 . S
C337 C332 1.407 . S
C337 C336 1.384 . S
C337 H359 0.929 . S
C338 O348 1.241 . S
C338 O349 1.273 . S
C339 O350 1.251 . S
C339 O351 1.268 1_556 S
O340 Nd320 2.500 . S
O340 C322 1.258 . S
O341 Nd320 2.492 . S
O341 C322 1.239 . S
O342 Nd320 2.487 1_556 S
O342 C329 1.241 . S
O343 Nd320 2.682 1_556 S
O343 Nd321 2.414 . S
O343 C329 1.273 . S
O344 Nd320 2.410 . S
O344 C330 1.251 . S
O345 Nd321 2.424 . S
O345 C330 1.268 1_556 S
O346 Nd321 2.500 . S
O346 C331 1.258 . S
O347 Nd321 2.492 . S
O347 C331 1.239 . S
O348 Nd321 2.487 1_554 S
O348 C338 1.241 . S
O349 Nd320 2.414 . S
O349 Nd321 2.682 1_554 S
O349 C338 1.273 . S
O350 Nd321 2.410 . S
O350 C339 1.251 . S
O351 Nd320 2.424 . S
O351 C339 1.268 1_554 S
H352 C324 0.930 . S
H353 C325 0.929 . S
H354 C327 0.930 . S
H355 C328 0.929 . S
H356 C333 0.930 . S
H357 C334 0.929 . S
H358 C336 0.930 . S
H359 C337 0.929 . S
Nd360 C362 2.836 . S
Nd360 O380 2.500 . S
Nd360 O381 2.492 . S
Nd360 O382 2.487 . S
Nd360 O383 2.682 . S
Nd360 O384 2.410 . S
Nd360 O389 2.414 . S
Nd360 O391 2.424 . S
Nd361 C371 2.836 . S
Nd361 O383 2.414 . S
Nd361 O385 2.424 . S
Nd361 O386 2.500 . S
Nd361 O387 2.492 . S
Nd361 O388 2.487 . S
Nd361 O389 2.682 . S
Nd361 O390 2.410 . S
C362 Nd360 2.836 . S
C362 C363 1.498 . S
C362 O380 1.258 . S
C362 O381 1.239 . S
C363 C362 1.498 . S
C363 C364 1.366 . S
C363 C368 1.407 . S
C364 C363 1.366 . S
C364 C365 1.392 . S
C364 H392 0.930 . S
C365 C364 1.392 . S
C365 C366 1.398 . S
C365 H393 0.929 . S
C366 C365 1.398 . S
C366 C367 1.352 . S
C367 C366 1.352 . S
C367 C368 1.384 . S
C367 H394 0.930 . S
C368 C363 1.407 . S
C368 C367 1.384 . S
C368 H395 0.929 . S
C369 O382 1.241 . S
C369 O383 1.273 . S
C370 O384 1.251 . S
C370 O385 1.268 . S
C371 Nd361 2.836 . S
C371 C372 1.498 . S
C371 O386 1.258 . S
C371 O387 1.239 . S
C372 C371 1.498 . S
C372 C373 1.366 . S
C372 C377 1.407 . S
C373 C372 1.366 . S
C373 C374 1.392 . S
C373 H396 0.930 . S
C374 C373 1.392 . S
C374 C375 1.398 . S
C374 H397 0.929 . S
C375 C374 1.398 . S
C375 C376 1.352 . S
C376 C375 1.352 . S
C376 C377 1.384 . S
C376 H398 0.930 . S
C377 C372 1.407 . S
C377 C376 1.384 . S
C377 H399 0.929 . S
C378 O388 1.241 . S
C378 O389 1.273 . S
C379 O390 1.251 . S
C379 O391 1.268 . S
O380 Nd360 2.500 . S
O380 C362 1.258 . S
O381 Nd360 2.492 . S
O381 C362 1.239 . S
O382 Nd360 2.487 . S
O382 C369 1.241 . S
O383 Nd360 2.682 . S
O383 Nd361 2.414 . S
O383 C369 1.273 . S
O384 Nd360 2.410 . S
O384 C370 1.251 . S
O385 Nd361 2.424 . S
O385 C370 1.268 . S
O386 Nd361 2.500 . S
O386 C371 1.258 . S
O387 Nd361 2.492 . S
O387 C371 1.239 . S
O388 Nd361 2.487 . S
O388 C378 1.241 . S
O389 Nd360 2.414 . S
O389 Nd361 2.682 . S
O389 C378 1.273 . S
O390 Nd361 2.410 . S
O390 C379 1.251 . S
O391 Nd360 2.424 . S
O391 C379 1.268 . S
H392 C364 0.930 . S
H393 C365 0.929 . S
H394 C367 0.930 . S
H395 C368 0.929 . S
H396 C373 0.930 . S
H397 C374 0.929 . S
H398 C376 0.930 . S
H399 C377 0.929 . S
Nd400 C402 2.836 . S
Nd400 O420 2.500 . S
Nd400 O421 2.492 . S
Nd400 O422 2.487 . S
Nd400 O423 2.682 . S
Nd400 O424 2.410 . S
Nd400 O429 2.414 1_455 S
Nd400 O431 2.424 1_455 S
Nd401 C411 2.836 . S
Nd401 O423 2.414 1_655 S
Nd401 O425 2.424 1_655 S
Nd401 O426 2.500 . S
Nd401 O427 2.492 . S
Nd401 O428 2.487 . S
Nd401 O429 2.682 . S
Nd401 O430 2.410 . S
C402 Nd400 2.836 . S
C402 C403 1.498 . S
C402 O420 1.258 . S
C402 O421 1.239 . S
C403 C402 1.498 . S
C403 C404 1.366 . S
C403 C408 1.407 . S
C404 C403 1.366 . S
C404 C405 1.392 . S
C404 H432 0.930 . S
C405 C404 1.392 . S
C405 C406 1.398 . S
C405 H433 0.929 . S
C406 C405 1.398 . S
C406 C407 1.352 . S
C407 C406 1.352 . S
C407 C408 1.384 . S
C407 H434 0.930 . S
C408 C403 1.407 . S
C408 C407 1.384 . S
C408 H435 0.929 . S
C409 O422 1.241 . S
C409 O423 1.273 . S
C410 O424 1.251 . S
C410 O425 1.268 . S
C411 Nd401 2.836 . S
C411 C412 1.498 . S
C411 O426 1.258 . S
C411 O427 1.239 . S
C412 C411 1.498 . S
C412 C413 1.366 . S
C412 C417 1.407 . S
C413 C412 1.366 . S
C413 C414 1.392 . S
C413 H436 0.930 . S
C414 C413 1.392 . S
C414 C415 1.398 . S
C414 H437 0.929 . S
C415 C414 1.398 . S
C415 C416 1.352 . S
C416 C415 1.352 . S
C416 C417 1.384 . S
C416 H438 0.930 . S
C417 C412 1.407 . S
C417 C416 1.384 . S
C417 H439 0.929 . S
C418 O428 1.241 . S
C418 O429 1.273 . S
C419 O430 1.251 . S
C419 O431 1.268 . S
O420 Nd400 2.500 . S
O420 C402 1.258 . S
O421 Nd400 2.492 . S
O421 C402 1.239 . S
O422 Nd400 2.487 . S
O422 C409 1.241 . S
O423 Nd400 2.682 . S
O423 Nd401 2.414 1_455 S
O423 C409 1.273 . S
O424 Nd400 2.410 . S
O424 C410 1.251 . S
O425 Nd401 2.424 1_455 S
O425 C410 1.268 . S
O426 Nd401 2.500 . S
O426 C411 1.258 . S
O427 Nd401 2.492 . S
O427 C411 1.239 . S
O428 Nd401 2.487 . S
O428 C418 1.241 . S
O429 Nd400 2.414 1_655 S
O429 Nd401 2.682 . S
O429 C418 1.273 . S
O430 Nd401 2.410 . S
O430 C419 1.251 . S
O431 Nd400 2.424 1_655 S
O431 C419 1.268 . S
H432 C404 0.930 . S
H433 C405 0.929 . S
H434 C407 0.930 . S
H435 C408 0.929 . S
H436 C413 0.930 . S
H437 C414 0.929 . S
H438 C416 0.930 . S
H439 C417 0.929 . S
Nd440 C442 2.836 . S
Nd440 O460 2.500 . S
Nd440 O461 2.492 . S
Nd440 O462 2.487 . S
Nd440 O463 2.682 . S
Nd440 O464 2.410 . S
Nd440 O469 2.414 . S
Nd440 O471 2.424 . S
Nd441 C451 2.836 . S
Nd441 O463 2.414 . S
Nd441 O465 2.424 . S
Nd441 O466 2.500 . S
Nd441 O467 2.492 . S
Nd441 O468 2.487 . S
Nd441 O469 2.682 . S
Nd441 O470 2.410 . S
C442 Nd440 2.836 . S
C442 C443 1.498 . S
C442 O460 1.258 . S
C442 O461 1.239 . S
C443 C442 1.498 . S
C443 C444 1.366 . S
C443 C448 1.407 . S
C444 C443 1.366 . S
C444 C445 1.392 . S
C444 H472 0.930 . S
C445 C444 1.392 . S
C445 C446 1.398 . S
C445 H473 0.929 . S
C446 C445 1.398 . S
C446 C447 1.352 . S
C447 C446 1.352 . S
C447 C448 1.384 . S
C447 H474 0.930 . S
C448 C443 1.407 . S
C448 C447 1.384 . S
C448 H475 0.929 . S
C449 O462 1.241 . S
C449 O463 1.273 . S
C450 O464 1.251 . S
C450 O465 1.268 . S
C451 Nd441 2.836 . S
C451 C452 1.498 . S
C451 O466 1.258 . S
C451 O467 1.239 . S
C452 C451 1.498 . S
C452 C453 1.366 . S
C452 C457 1.407 . S
C453 C452 1.366 . S
C453 C454 1.392 . S
C453 H476 0.930 . S
C454 C453 1.392 . S
C454 C455 1.398 . S
C454 H477 0.929 . S
C455 C454 1.398 . S
C455 C456 1.352 . S
C456 C455 1.352 . S
C456 C457 1.384 . S
C456 H478 0.930 . S
C457 C452 1.407 . S
C457 C456 1.384 . S
C457 H479 0.929 . S
C458 O468 1.241 . S
C458 O469 1.273 . S
C459 O470 1.251 . S
C459 O471 1.268 . S
O460 Nd440 2.500 . S
O460 C442 1.258 . S
O461 Nd440 2.492 . S
O461 C442 1.239 . S
O462 Nd440 2.487 . S
O462 C449 1.241 . S
O463 Nd440 2.682 . S
O463 Nd441 2.414 . S
O463 C449 1.273 . S
O464 Nd440 2.410 . S
O464 C450 1.251 . S
O465 Nd441 2.424 . S
O465 C450 1.268 . S
O466 Nd441 2.500 . S
O466 C451 1.258 . S
O467 Nd441 2.492 . S
O467 C451 1.239 . S
O468 Nd441 2.487 . S
O468 C458 1.241 . S
O469 Nd440 2.414 . S
O469 Nd441 2.682 . S
O469 C458 1.273 . S
O470 Nd441 2.410 . S
O470 C459 1.251 . S
O471 Nd440 2.424 . S
O471 C459 1.268 . S
H472 C444 0.930 . S
H473 C445 0.929 . S
H474 C447 0.930 . S
H475 C448 0.929 . S
H476 C453 0.930 . S
H477 C454 0.929 . S
H478 C456 0.930 . S
H479 C457 0.929 . S
Nd480 C482 2.836 . S
Nd480 O500 2.500 . S
Nd480 O501 2.492 . S
Nd480 O502 2.487 . S
Nd480 O503 2.682 . S
Nd480 O504 2.410 . S
Nd480 O509 2.414 . S
Nd480 O511 2.424 . S
Nd481 C491 2.836 . S
Nd481 O503 2.414 . S
Nd481 O505 2.424 . S
Nd481 O506 2.500 . S
Nd481 O507 2.492 . S
Nd481 O508 2.487 . S
Nd481 O509 2.682 . S
Nd481 O510 2.410 . S
C482 Nd480 2.836 . S
C482 C483 1.498 . S
C482 O500 1.258 . S
C482 O501 1.239 . S
C483 C482 1.498 . S
C483 C484 1.366 . S
C483 C488 1.407 . S
C484 C483 1.366 . S
C484 C485 1.392 . S
C484 H512 0.930 . S
C485 C484 1.392 . S
C485 C486 1.398 . S
C485 H513 0.929 . S
C486 C485 1.398 . S
C486 C487 1.352 . S
C487 C486 1.352 . S
C487 C488 1.384 . S
C487 H514 0.930 . S
C488 C483 1.407 . S
C488 C487 1.384 . S
C488 H515 0.929 . S
C489 O502 1.241 . S
C489 O503 1.273 . S
C490 O504 1.251 . S
C490 O505 1.268 . S
C491 Nd481 2.836 . S
C491 C492 1.498 . S
C491 O506 1.258 . S
C491 O507 1.239 . S
C492 C491 1.498 . S
C492 C493 1.366 . S
C492 C497 1.407 . S
C493 C492 1.366 . S
C493 C494 1.392 . S
C493 H516 0.930 . S
C494 C493 1.392 . S
C494 C495 1.398 . S
C494 H517 0.929 . S
C495 C494 1.398 . S
C495 C496 1.352 . S
C496 C495 1.352 . S
C496 C497 1.384 . S
C496 H518 0.930 . S
C497 C492 1.407 . S
C497 C496 1.384 . S
C497 H519 0.929 . S
C498 O508 1.241 . S
C498 O509 1.273 . S
C499 O510 1.251 . S
C499 O511 1.268 . S
O500 Nd480 2.500 . S
O500 C482 1.258 . S
O501 Nd480 2.492 . S
O501 C482 1.239 . S
O502 Nd480 2.487 . S
O502 C489 1.241 . S
O503 Nd480 2.682 . S
O503 Nd481 2.414 . S
O503 C489 1.273 . S
O504 Nd480 2.410 . S
O504 C490 1.251 . S
O505 Nd481 2.424 . S
O505 C490 1.268 . S
O506 Nd481 2.500 . S
O506 C491 1.258 . S
O507 Nd481 2.492 . S
O507 C491 1.239 . S
O508 Nd481 2.487 . S
O508 C498 1.241 . S
O509 Nd480 2.414 . S
O509 Nd481 2.682 . S
O509 C498 1.273 . S
O510 Nd481 2.410 . S
O510 C499 1.251 . S
O511 Nd480 2.424 . S
O511 C499 1.268 . S
H512 C484 0.930 . S
H513 C485 0.929 . S
H514 C487 0.930 . S
H515 C488 0.929 . S
H516 C493 0.930 . S
H517 C494 0.929 . S
H518 C496 0.930 . S
H519 C497 0.929 . S
Nd520 C522 2.836 . S
Nd520 O540 2.500 . S
Nd520 O541 2.492 . S
Nd520 O542 2.487 . S
Nd520 O543 2.682 . S
Nd520 O544 2.410 . S
Nd520 O549 2.414 . S
Nd520 O551 2.424 . S
Nd521 C531 2.836 . S
Nd521 O543 2.414 . S
Nd521 O545 2.424 . S
Nd521 O546 2.500 . S
Nd521 O547 2.492 . S
Nd521 O548 2.487 . S
Nd521 O549 2.682 . S
Nd521 O550 2.410 . S
C522 Nd520 2.836 . S
C522 C523 1.498 . S
C522 O540 1.258 . S
C522 O541 1.239 . S
C523 C522 1.498 . S
C523 C524 1.366 . S
C523 C528 1.407 . S
C524 C523 1.366 . S
C524 C525 1.392 . S
C524 H552 0.930 . S
C525 C524 1.392 . S
C525 C526 1.398 . S
C525 H553 0.929 . S
C526 C525 1.398 . S
C526 C527 1.352 . S
C527 C526 1.352 . S
C527 C528 1.384 . S
C527 H554 0.930 . S
C528 C523 1.407 . S
C528 C527 1.384 . S
C528 H555 0.929 . S
C529 O542 1.241 . S
C529 O543 1.273 . S
C530 O544 1.251 . S
C530 O545 1.268 . S
C531 Nd521 2.836 . S
C531 C532 1.498 . S
C531 O546 1.258 . S
C531 O547 1.239 . S
C532 C531 1.498 . S
C532 C533 1.366 . S
C532 C537 1.407 . S
C533 C532 1.366 . S
C533 C534 1.392 . S
C533 H556 0.930 . S
C534 C533 1.392 . S
C534 C535 1.398 . S
C534 H557 0.929 . S
C535 C534 1.398 . S
C535 C536 1.352 . S
C536 C535 1.352 . S
C536 C537 1.384 . S
C536 H558 0.930 . S
C537 C532 1.407 . S
C537 C536 1.384 . S
C537 H559 0.929 . S
C538 O548 1.241 . S
C538 O549 1.273 . S
C539 O550 1.251 . S
C539 O551 1.268 . S
O540 Nd520 2.500 . S
O540 C522 1.258 . S
O541 Nd520 2.492 . S
O541 C522 1.239 . S
O542 Nd520 2.487 . S
O542 C529 1.241 . S
O543 Nd520 2.682 . S
O543 Nd521 2.414 . S
O543 C529 1.273 . S
O544 Nd520 2.410 . S
O544 C530 1.251 . S
O545 Nd521 2.424 . S
O545 C530 1.268 . S
O546 Nd521 2.500 . S
O546 C531 1.258 . S
O547 Nd521 2.492 . S
O547 C531 1.239 . S
O548 Nd521 2.487 . S
O548 C538 1.241 . S
O549 Nd520 2.414 . S
O549 Nd521 2.682 . S
O549 C538 1.273 . S
O550 Nd521 2.410 . S
O550 C539 1.251 . S
O551 Nd520 2.424 . S
O551 C539 1.268 . S
H552 C524 0.930 . S
H553 C525 0.929 . S
H554 C527 0.930 . S
H555 C528 0.929 . S
H556 C533 0.930 . S
H557 C534 0.929 . S
H558 C536 0.930 . S
H559 C537 0.929 . S
Nd560 C562 2.836 . S
Nd560 O580 2.500 . S
Nd560 O581 2.492 . S
Nd560 O582 2.487 . S
Nd560 O583 2.682 . S
Nd560 O584 2.410 . S
Nd560 O589 2.414 . S
Nd560 O591 2.424 . S
Nd561 C571 2.836 . S
Nd561 O583 2.414 . S
Nd561 O585 2.424 . S
Nd561 O586 2.500 . S
Nd561 O587 2.492 . S
Nd561 O588 2.487 . S
Nd561 O589 2.682 . S
Nd561 O590 2.410 . S
C562 Nd560 2.836 . S
C562 C563 1.498 . S
C562 O580 1.258 . S
C562 O581 1.239 . S
C563 C562 1.498 . S
C563 C564 1.366 . S
C563 C568 1.407 . S
C564 C563 1.366 . S
C564 C565 1.392 . S
C564 H592 0.930 . S
C565 C564 1.392 . S
C565 C566 1.398 . S
C565 H593 0.929 . S
C566 C565 1.398 . S
C566 C567 1.352 . S
C567 C566 1.352 . S
C567 C568 1.384 . S
C567 H594 0.930 . S
C568 C563 1.407 . S
C568 C567 1.384 . S
C568 H595 0.929 . S
C569 O582 1.241 . S
C569 O583 1.273 . S
C570 O584 1.251 . S
C570 O585 1.268 . S
C571 Nd561 2.836 . S
C571 C572 1.498 . S
C571 O586 1.258 . S
C571 O587 1.239 . S
C572 C571 1.498 . S
C572 C573 1.366 . S
C572 C577 1.407 . S
C573 C572 1.366 . S
C573 C574 1.392 . S
C573 H596 0.930 . S
C574 C573 1.392 . S
C574 C575 1.398 . S
C574 H597 0.929 . S
C575 C574 1.398 . S
C575 C576 1.352 . S
C576 C575 1.352 . S
C576 C577 1.384 . S
C576 H598 0.930 . S
C577 C572 1.407 . S
C577 C576 1.384 . S
C577 H599 0.929 . S
C578 O588 1.241 . S
C578 O589 1.273 . S
C579 O590 1.251 . S
C579 O591 1.268 . S
O580 Nd560 2.500 . S
O580 C562 1.258 . S
O581 Nd560 2.492 . S
O581 C562 1.239 . S
O582 Nd560 2.487 . S
O582 C569 1.241 . S
O583 Nd560 2.682 . S
O583 Nd561 2.414 . S
O583 C569 1.273 . S
O584 Nd560 2.410 . S
O584 C570 1.251 . S
O585 Nd561 2.424 . S
O585 C570 1.268 . S
O586 Nd561 2.500 . S
O586 C571 1.258 . S
O587 Nd561 2.492 . S
O587 C571 1.239 . S
O588 Nd561 2.487 . S
O588 C578 1.241 . S
O589 Nd560 2.414 . S
O589 Nd561 2.682 . S
O589 C578 1.273 . S
O590 Nd561 2.410 . S
O590 C579 1.251 . S
O591 Nd560 2.424 . S
O591 C579 1.268 . S
H592 C564 0.930 . S
H593 C565 0.929 . S
H594 C567 0.930 . S
H595 C568 0.929 . S
H596 C573 0.930 . S
H597 C574 0.929 . S
H598 C576 0.930 . S
H599 C577 0.929 . S
Nd600 C602 2.836 . S
Nd600 O620 2.500 . S
Nd600 O621 2.492 . S
Nd600 O622 2.487 . S
Nd600 O623 2.682 . S
Nd600 O624 2.410 1_556 S
Nd600 O629 2.414 1_656 S
Nd600 O631 2.424 1_655 S
Nd601 C611 2.836 . S
Nd601 O623 2.414 1_454 S
Nd601 O625 2.424 1_455 S
Nd601 O626 2.500 . S
Nd601 O627 2.492 . S
Nd601 O628 2.487 . S
Nd601 O629 2.682 . S
Nd601 O630 2.410 1_554 S
C602 Nd600 2.836 . S
C602 C603 1.498 . S
C602 O620 1.258 . S
C602 O621 1.239 . S
C603 C602 1.498 . S
C603 C604 1.366 . S
C603 C608 1.407 . S
C604 C603 1.366 . S
C604 C605 1.392 . S
C604 H632 0.930 1_556 S
C605 C604 1.392 . S
C605 C606 1.398 . S
C605 H633 0.923 1_556 S
C606 C605 1.398 . S
C606 C607 1.352 . S
C607 C606 1.352 . S
C607 C608 1.384 . S
C607 H634 0.930 . S
C608 C603 1.407 . S
C608 C607 1.384 . S
C608 H635 0.929 . S
C609 O622 1.241 . S
C609 O623 1.273 . S
C610 O624 1.251 . S
C610 O625 1.268 . S
C611 Nd601 2.836 . S
C611 C612 1.498 . S
C611 O626 1.258 . S
C611 O627 1.239 . S
C612 C611 1.498 . S
C612 C613 1.366 . S
C612 C617 1.407 . S
C613 C612 1.366 . S
C613 C614 1.392 . S
C613 H636 0.930 1_554 S
C614 C613 1.392 . S
C614 C615 1.398 . S
C614 H637 0.928 1_554 S
C615 C614 1.398 . S
C615 C616 1.352 . S
C616 C615 1.352 . S
C616 C617 1.384 . S
C616 H638 0.930 . S
C617 C612 1.407 . S
C617 C616 1.384 . S
C617 H639 0.929 . S
C618 O628 1.241 . S
C618 O629 1.273 . S
C619 O630 1.251 . S
C619 O631 1.268 . S
O620 Nd600 2.500 . S
O620 C602 1.258 . S
O621 Nd600 2.492 . S
O621 C602 1.239 . S
O622 Nd600 2.487 . S
O622 C609 1.241 . S
O623 Nd600 2.682 . S
O623 Nd601 2.414 1_656 S
O623 C609 1.273 . S
O624 Nd600 2.410 1_554 S
O624 C610 1.251 . S
O625 Nd601 2.424 1_655 S
O625 C610 1.268 . S
O626 Nd601 2.500 . S
O626 C611 1.258 . S
O627 Nd601 2.492 . S
O627 C611 1.239 . S
O628 Nd601 2.487 . S
O628 C618 1.241 . S
O629 Nd600 2.414 1_454 S
O629 Nd601 2.682 . S
O629 C618 1.273 . S
O630 Nd601 2.410 1_556 S
O630 C619 1.251 . S
O631 Nd600 2.424 1_455 S
O631 C619 1.268 . S
H632 C604 0.930 1_554 S
H633 C605 0.923 1_554 S
H634 C607 0.930 . S
H635 C608 0.929 . S
H636 C613 0.930 1_556 S
H637 C614 0.928 1_556 S
H638 C616 0.930 . S
H639 C617 0.929 . S
H640 C646 0.930 . S
H641 C649 0.930 1_554 S
H642 C650 0.930 . S
H643 C651 0.930 1_554 S
H644 C654 0.930 . S
H645 C655 0.930 . S
C646 H640 0.930 . S
C646 C647 1.355 . S
C646 C648 1.415 . S
C647 C646 1.355 . S
C647 C649 1.419 . S
C648 C646 1.415 . S
C648 C653 1.425 . S
C648 C655 1.409 . S
C649 H641 0.930 1_556 S
C649 C647 1.419 . S
C649 C650 1.362 1_556 S
C650 H642 0.930 . S
C650 C649 1.362 1_554 S
C650 C653 1.409 1_554 S
C651 H643 0.930 1_556 S
C651 C652 1.355 . S
C651 C653 1.415 . S
C652 C651 1.355 . S
C652 C654 1.419 . S
C653 C648 1.425 . S
C653 C650 1.409 1_556 S
C653 C651 1.415 . S
C654 H644 0.930 . S
C654 C652 1.419 . S
C654 C655 1.362 . S
C655 H645 0.930 . S
C655 C648 1.409 . S
C655 C654 1.362 . S
H656 C662 0.930 . S
H657 C665 0.930 . S
H658 C666 0.930 . S
H659 C667 0.930 . S
H660 C670 0.930 . S
H661 C671 0.930 . S
C662 H656 0.930 . S
C662 C663 1.355 . S
C662 C664 1.415 . S
C663 C662 1.355 . S
C663 C665 1.419 . S
C664 C662 1.415 . S
C664 C669 1.425 . S
C664 C671 1.409 . S
C665 H657 0.930 . S
C665 C663 1.419 . S
C665 C666 1.362 . S
C666 H658 0.930 . S
C666 C665 1.362 . S
C666 C669 1.409 . S
C667 H659 0.930 . S
C667 C668 1.355 . S
C667 C669 1.415 . S
C668 C667 1.355 . S
C668 C670 1.419 . S
C669 C664 1.425 . S
C669 C666 1.409 . S
C669 C667 1.415 . S
C670 H660 0.930 . S
C670 C668 1.419 . S
C670 C671 1.362 . S
C671 H661 0.930 . S
C671 C664 1.409 . S
C671 C670 1.362 . S
H672 C678 0.930 . S
H673 C681 0.930 . S
H674 C682 0.930 . S
H675 C683 0.930 . S
H676 C686 0.930 . S
H677 C687 0.930 . S
C678 H672 0.930 . S
C678 C679 1.355 . S
C678 C680 1.415 . S
C679 C678 1.355 . S
C679 C681 1.419 . S
C680 C678 1.415 . S
C680 C685 1.425 . S
C680 C687 1.409 . S
C681 H673 0.930 . S
C681 C679 1.419 . S
C681 C682 1.362 . S
C682 H674 0.930 . S
C682 C681 1.362 . S
C682 C685 1.409 . S
C683 H675 0.930 . S
C683 C684 1.355 . S
C683 C685 1.415 . S
C684 C683 1.355 . S
C684 C686 1.419 . S
C685 C680 1.425 . S
C685 C682 1.409 . S
C685 C683 1.415 . S
C686 H676 0.930 . S
C686 C684 1.419 . S
C686 C687 1.362 . S
C687 H677 0.930 . S
C687 C680 1.409 . S
C687 C686 1.362 . S
H688 C694 0.930 . S
H689 C697 0.930 . S
H690 C698 0.930 . S
H691 C699 0.930 . S
H692 C702 0.930 . S
H693 C703 0.930 . S
C694 H688 0.930 . S
C694 C695 1.355 . S
C694 C696 1.415 . S
C695 C694 1.355 . S
C695 C697 1.419 . S
C696 C694 1.415 . S
C696 C701 1.425 . S
C696 C703 1.409 . S
C697 H689 0.930 . S
C697 C695 1.419 . S
C697 C698 1.362 . S
C698 H690 0.930 . S
C698 C697 1.362 . S
C698 C701 1.409 . S
C699 H691 0.930 . S
C699 C700 1.355 . S
C699 C701 1.415 . S
C700 C699 1.355 . S
C700 C702 1.419 . S
C701 C696 1.425 . S
C701 C698 1.409 . S
C701 C699 1.415 . S
C702 H692 0.930 . S
C702 C700 1.419 . S
C702 C703 1.362 . S
C703 H693 0.930 . S
C703 C696 1.409 . S
C703 C702 1.362 . S
H704 C710 0.930 . S
H705 C713 0.930 . S
H706 C714 0.930 . S
H707 C715 0.930 . S
H708 C718 0.930 . S
H709 C719 0.930 . S
C710 H704 0.930 . S
C710 C711 1.355 . S
C710 C712 1.415 . S
C711 C710 1.355 . S
C711 C713 1.419 . S
C712 C710 1.415 . S
C712 C717 1.425 . S
C712 C719 1.409 . S
C713 H705 0.930 . S
C713 C711 1.419 . S
C713 C714 1.362 . S
C714 H706 0.930 . S
C714 C713 1.362 . S
C714 C717 1.409 . S
C715 H707 0.930 . S
C715 C716 1.355 . S
C715 C717 1.415 . S
C716 C715 1.355 . S
C716 C718 1.419 . S
C717 C712 1.425 . S
C717 C714 1.409 . S
C717 C715 1.415 . S
C718 H708 0.930 . S
C718 C716 1.419 . S
C718 C719 1.362 . S
C719 H709 0.930 . S
C719 C712 1.409 . S
C719 C718 1.362 . S
H720 C726 0.930 . S
H721 C729 0.930 . S
H722 C730 0.930 . S
H723 C731 0.930 . S
H724 C734 0.930 . S
H725 C735 0.930 . S
C726 H720 0.930 . S
C726 C727 1.355 . S
C726 C728 1.415 . S
C727 C726 1.355 . S
C727 C729 1.419 . S
C728 C726 1.415 . S
C728 C733 1.425 . S
C728 C735 1.409 . S
C729 H721 0.930 . S
C729 C727 1.419 . S
C729 C730 1.362 . S
C730 H722 0.930 . S
C730 C729 1.362 . S
C730 C733 1.409 . S
C731 H723 0.930 . S
C731 C732 1.355 . S
C731 C733 1.415 . S
C732 C731 1.355 . S
C732 C734 1.419 . S
C733 C728 1.425 . S
C733 C730 1.409 . S
C733 C731 1.415 . S
C734 H724 0.930 . S
C734 C732 1.419 . S
C734 C735 1.362 . S
C735 H725 0.930 . S
C735 C728 1.409 . S
C735 C734 1.362 . S
H736 C742 0.930 . S
H737 C745 0.930 . S
H738 C746 0.930 . S
H739 C747 0.930 . S
H740 C750 0.930 . S
H741 C751 0.930 . S
C742 H736 0.930 . S
C742 C743 1.355 . S
C742 C744 1.415 . S
C743 C742 1.355 . S
C743 C745 1.419 . S
C744 C742 1.415 . S
C744 C749 1.425 . S
C744 C751 1.409 . S
C745 H737 0.930 . S
C745 C743 1.419 . S
C745 C746 1.362 . S
C746 H738 0.930 . S
C746 C745 1.362 . S
C746 C749 1.409 . S
C747 H739 0.930 . S
C747 C748 1.355 . S
C747 C749 1.415 . S
C748 C747 1.355 . S
C748 C750 1.419 . S
C749 C744 1.425 . S
C749 C746 1.409 . S
C749 C747 1.415 . S
C750 H740 0.930 . S
C750 C748 1.419 . S
C750 C751 1.362 . S
C751 H741 0.930 . S
C751 C744 1.409 . S
C751 C750 1.362 . S
H752 C758 0.930 . S
H753 C761 0.930 . S
H754 C762 0.930 . S
H755 C763 0.930 . S
H756 C766 0.930 . S
H757 C767 0.930 . S
C758 H752 0.930 . S
C758 C759 1.355 . S
C758 C760 1.415 . S
C759 C758 1.355 . S
C759 C761 1.419 . S
C760 C758 1.415 . S
C760 C765 1.425 . S
C760 C767 1.409 . S
C761 H753 0.930 . S
C761 C759 1.419 . S
C761 C762 1.362 . S
C762 H754 0.930 . S
C762 C761 1.362 . S
C762 C765 1.409 . S
C763 H755 0.930 . S
C763 C764 1.355 . S
C763 C765 1.415 . S
C764 C763 1.355 . S
C764 C766 1.419 . S
C765 C760 1.425 . S
C765 C762 1.409 . S
C765 C763 1.415 . S
C766 H756 0.930 . S
C766 C764 1.419 . S
C766 C767 1.362 . S
C767 H757 0.930 . S
C767 C760 1.409 . S
C767 C766 1.362 . S
H768 C774 0.930 . S
H769 C777 0.930 . S
H770 C778 0.930 . S
H771 C779 0.930 . S
H772 C782 0.930 . S
H773 C783 0.930 . S
C774 H768 0.930 . S
C774 C775 1.355 . S
C774 C776 1.415 . S
C775 C774 1.355 . S
C775 C777 1.419 . S
C776 C774 1.415 . S
C776 C781 1.425 . S
C776 C783 1.409 . S
C777 H769 0.930 . S
C777 C775 1.419 . S
C777 C778 1.362 . S
C778 H770 0.930 . S
C778 C777 1.362 . S
C778 C781 1.409 . S
C779 H771 0.930 . S
C779 C780 1.355 . S
C779 C781 1.415 . S
C780 C779 1.355 . S
C780 C782 1.419 . S
C781 C776 1.425 . S
C781 C778 1.409 . S
C781 C779 1.415 . S
C782 H772 0.930 . S
C782 C780 1.419 . S
C782 C783 1.362 . S
C783 H773 0.930 . S
C783 C776 1.409 . S
C783 C782 1.362 . S
H784 C790 0.930 . S
H785 C793 0.930 . S
H786 C794 0.930 . S
H787 C795 0.930 . S
H788 C798 0.930 . S
H789 C799 0.930 . S
C790 H784 0.930 . S
C790 C791 1.355 . S
C790 C792 1.415 . S
C791 C790 1.355 . S
C791 C793 1.419 . S
C792 C790 1.415 . S
C792 C797 1.425 . S
C792 C799 1.409 . S
C793 H785 0.930 . S
C793 C791 1.419 . S
C793 C794 1.362 . S
C794 H786 0.930 . S
C794 C793 1.362 . S
C794 C797 1.409 . S
C795 H787 0.930 . S
C795 C796 1.355 . S
C795 C797 1.415 . S
C796 C795 1.355 . S
C796 C798 1.419 . S
C797 C792 1.425 . S
C797 C794 1.409 . S
C797 C795 1.415 . S
C798 H788 0.930 . S
C798 C796 1.419 . S
C798 C799 1.362 . S
C799 H789 0.930 . S
C799 C792 1.409 . S
C799 C798 1.362 . S
H800 C806 0.930 . S
H801 C809 0.930 . S
H802 C810 0.930 . S
H803 C811 0.930 . S
H804 C814 0.930 . S
H805 C815 0.930 . S
C806 H800 0.930 . S
C806 C807 1.355 . S
C806 C808 1.415 . S
C807 C806 1.355 . S
C807 C809 1.419 . S
C808 C806 1.415 . S
C808 C813 1.425 . S
C808 C815 1.409 . S
C809 H801 0.930 . S
C809 C807 1.419 . S
C809 C810 1.362 . S
C810 H802 0.930 . S
C810 C809 1.362 . S
C810 C813 1.409 . S
C811 H803 0.930 . S
C811 C812 1.355 . S
C811 C813 1.415 . S
C812 C811 1.355 . S
C812 C814 1.419 . S
C813 C808 1.425 . S
C813 C810 1.409 . S
C813 C811 1.415 . S
C814 H804 0.930 . S
C814 C812 1.419 . S
C814 C815 1.362 . S
C815 H805 0.930 . S
C815 C808 1.409 . S
C815 C814 1.362 . S
H816 C822 0.930 . S
H817 C825 0.930 . S
H818 C826 0.930 . S
H819 C827 0.930 . S
H820 C830 0.930 . S
H821 C831 0.930 . S
C822 H816 0.930 . S
C822 C823 1.355 . S
C822 C824 1.415 . S
C823 C822 1.355 . S
C823 C825 1.419 . S
C824 C822 1.415 . S
C824 C829 1.425 . S
C824 C831 1.409 . S
C825 H817 0.930 . S
C825 C823 1.419 . S
C825 C826 1.362 . S
C826 H818 0.930 . S
C826 C825 1.362 . S
C826 C829 1.409 . S
C827 H819 0.930 . S
C827 C828 1.355 . S
C827 C829 1.415 . S
C828 C827 1.355 . S
C828 C830 1.419 . S
C829 C824 1.425 . S
C829 C826 1.409 . S
C829 C827 1.415 . S
C830 H820 0.930 . S
C830 C828 1.419 . S
C830 C831 1.362 . S
C831 H821 0.930 . S
C831 C824 1.409 . S
C831 C830 1.362 . S
H832 C838 0.930 . S
H833 C841 0.930 . S
H834 C842 0.930 . S
H835 C843 0.930 . S
H836 C846 0.930 . S
H837 C847 0.930 . S
C838 H832 0.930 . S
C838 C839 1.355 . S
C838 C840 1.415 . S
C839 C838 1.355 . S
C839 C841 1.419 . S
C840 C838 1.415 . S
C840 C845 1.425 . S
C840 C847 1.409 . S
C841 H833 0.930 . S
C841 C839 1.419 . S
C841 C842 1.362 . S
C842 H834 0.930 . S
C842 C841 1.362 . S
C842 C845 1.409 . S
C843 H835 0.930 . S
C843 C844 1.355 . S
C843 C845 1.415 . S
C844 C843 1.355 . S
C844 C846 1.419 . S
C845 C840 1.425 . S
C845 C842 1.409 . S
C845 C843 1.415 . S
C846 H836 0.930 . S
C846 C844 1.419 . S
C846 C847 1.362 . S
C847 H837 0.930 . S
C847 C840 1.409 . S
C847 C846 1.362 . S
H848 C854 0.930 . S
H849 C857 0.930 . S
H850 C858 0.930 . S
H851 C859 0.930 . S
H852 C862 0.930 . S
H853 C863 0.930 . S
C854 H848 0.930 . S
C854 C855 1.355 . S
C854 C856 1.415 . S
C855 C854 1.355 . S
C855 C857 1.419 . S
C856 C854 1.415 . S
C856 C861 1.425 . S
C856 C863 1.409 . S
C857 H849 0.930 . S
C857 C855 1.419 . S
C857 C858 1.362 . S
C858 H850 0.930 . S
C858 C857 1.362 . S
C858 C861 1.409 . S
C859 H851 0.930 . S
C859 C860 1.355 . S
C859 C861 1.415 . S
C860 C859 1.355 . S
C860 C862 1.419 . S
C861 C856 1.425 . S
C861 C858 1.409 . S
C861 C859 1.415 . S
C862 H852 0.930 . S
C862 C860 1.419 . S
C862 C863 1.362 . S
C863 H853 0.930 . S
C863 C856 1.409 . S
C863 C862 1.362 . S
H864 C870 0.930 . S
H865 C873 0.930 . S
H866 C874 0.930 . S
H867 C875 0.930 . S
H868 C878 0.930 . S
H869 C879 0.930 . S
C870 H864 0.930 . S
C870 C871 1.355 . S
C870 C872 1.415 . S
C871 C870 1.355 . S
C871 C873 1.419 . S
C872 C870 1.415 . S
C872 C877 1.425 . S
C872 C879 1.409 . S
C873 H865 0.930 . S
C873 C871 1.419 . S
C873 C874 1.362 . S
C874 H866 0.930 . S
C874 C873 1.362 . S
C874 C877 1.409 . S
C875 H867 0.930 . S
C875 C876 1.355 . S
C875 C877 1.415 . S
C876 C875 1.355 . S
C876 C878 1.419 . S
C877 C872 1.425 . S
C877 C874 1.409 . S
C877 C875 1.415 . S
C878 H868 0.930 . S
C878 C876 1.419 . S
C878 C879 1.362 . S
C879 H869 0.930 . S
C879 C872 1.409 . S
C879 C878 1.362 . S
H880 C886 0.930 . S
H881 C889 0.930 . S
H882 C890 0.930 . S
H883 C891 0.930 . S
H884 C894 0.930 . S
H885 C895 0.930 . S
C886 H880 0.930 . S
C886 C887 1.355 . S
C886 C888 1.415 . S
C887 C886 1.355 . S
C887 C889 1.419 . S
C888 C886 1.415 . S
C888 C893 1.425 . S
C888 C895 1.409 . S
C889 H881 0.930 . S
C889 C887 1.419 . S
C889 C890 1.362 . S
C890 H882 0.930 . S
C890 C889 1.362 . S
C890 C893 1.409 . S
C891 H883 0.930 . S
C891 C892 1.355 . S
C891 C893 1.415 . S
C892 C891 1.355 . S
C892 C894 1.419 . S
C893 C888 1.425 . S
C893 C890 1.409 . S
C893 C891 1.415 . S
C894 H884 0.930 . S
C894 C892 1.419 . S
C894 C895 1.362 . S
C895 H885 0.930 . S
C895 C888 1.409 . S
C895 C894 1.362 . S
H896 C902 0.930 . S
H897 C905 0.930 . S
H898 C906 0.930 . S
H899 C907 0.930 . S
H900 C910 0.930 . S
H901 C911 0.930 . S
C902 H896 0.930 . S
C902 C903 1.355 . S
C902 C904 1.415 . S
C903 C902 1.355 . S
C903 C905 1.419 . S
C904 C902 1.415 . S
C904 C909 1.425 . S
C904 C911 1.409 . S
C905 H897 0.930 . S
C905 C903 1.419 . S
C905 C906 1.362 . S
C906 H898 0.930 . S
C906 C905 1.362 . S
C906 C909 1.409 . S
C907 H899 0.930 . S
C907 C908 1.355 . S
C907 C909 1.415 . S
C908 C907 1.355 . S
C908 C910 1.419 . S
C909 C904 1.425 . S
C909 C906 1.409 . S
C909 C907 1.415 . S
C910 H900 0.930 . S
C910 C908 1.419 . S
C910 C911 1.362 . S
C911 H901 0.930 . S
C911 C904 1.409 . S
C911 C910 1.362 . S
H912 C918 0.930 . S
H913 C921 0.930 . S
H914 C922 0.930 . S
H915 C923 0.930 . S
H916 C926 0.930 . S
H917 C927 0.930 . S
C918 H912 0.930 . S
C918 C919 1.355 . S
C918 C920 1.415 . S
C919 C918 1.355 . S
C919 C921 1.419 . S
C920 C918 1.415 . S
C920 C925 1.425 . S
C920 C927 1.409 . S
C921 H913 0.930 . S
C921 C919 1.419 . S
C921 C922 1.362 . S
C922 H914 0.930 . S
C922 C921 1.362 . S
C922 C925 1.409 . S
C923 H915 0.930 . S
C923 C924 1.355 . S
C923 C925 1.415 . S
C924 C923 1.355 . S
C924 C926 1.419 . S
C925 C920 1.425 . S
C925 C922 1.409 . S
C925 C923 1.415 . S
C926 H916 0.930 . S
C926 C924 1.419 . S
C926 C927 1.362 . S
C927 H917 0.930 . S
C927 C920 1.409 . S
C927 C926 1.362 . S
H928 C934 0.930 . S
H929 C937 0.930 . S
H930 C938 0.930 . S
H931 C939 0.930 . S
H932 C942 0.930 . S
H933 C943 0.930 . S
C934 H928 0.930 . S
C934 C935 1.355 . S
C934 C936 1.415 . S
C935 C934 1.355 . S
C935 C937 1.419 . S
C936 C934 1.415 . S
C936 C941 1.425 . S
C936 C943 1.409 . S
C937 H929 0.930 . S
C937 C935 1.419 . S
C937 C938 1.362 . S
C938 H930 0.930 . S
C938 C937 1.362 . S
C938 C941 1.409 . S
C939 H931 0.930 . S
C939 C940 1.355 . S
C939 C941 1.415 . S
C940 C939 1.355 . S
C940 C942 1.419 . S
C941 C936 1.425 . S
C941 C938 1.409 . S
C941 C939 1.415 . S
C942 H932 0.930 . S
C942 C940 1.419 . S
C942 C943 1.362 . S
C943 H933 0.930 . S
C943 C936 1.409 . S
C943 C942 1.362 . S
H944 C950 0.930 . S
H945 C953 0.930 . S
H946 C954 0.930 . S
H947 C955 0.930 . S
H948 C958 0.930 . S
H949 C959 0.930 . S
C950 H944 0.930 . S
C950 C951 1.355 . S
C950 C952 1.415 . S
C951 C950 1.355 . S
C951 C953 1.419 . S
C952 C950 1.415 . S
C952 C957 1.425 . S
C952 C959 1.409 . S
C953 H945 0.930 . S
C953 C951 1.419 . S
C953 C954 1.362 . S
C954 H946 0.930 . S
C954 C953 1.362 . S
C954 C957 1.409 . S
C955 H947 0.930 . S
C955 C956 1.355 . S
C955 C957 1.415 . S
C956 C955 1.355 . S
C956 C958 1.419 . S
C957 C952 1.425 . S
C957 C954 1.409 . S
C957 C955 1.415 . S
C958 H948 0.930 . S
C958 C956 1.419 . S
C958 C959 1.362 . S
C959 H949 0.930 . S
C959 C952 1.409 . S
C959 C958 1.362 . S
H960 C966 0.930 . S
H961 C969 0.930 . S
H962 C970 0.930 . S
H963 C971 0.930 . S
H964 C974 0.930 . S
H965 C975 0.930 . S
C966 H960 0.930 . S
C966 C967 1.355 . S
C966 C968 1.415 . S
C967 C966 1.355 . S
C967 C969 1.419 . S
C968 C966 1.415 . S
C968 C973 1.425 . S
C968 C975 1.409 . S
C969 H961 0.930 . S
C969 C967 1.419 . S
C969 C970 1.362 . S
C970 H962 0.930 . S
C970 C969 1.362 . S
C970 C973 1.409 . S
C971 H963 0.930 . S
C971 C972 1.355 . S
C971 C973 1.415 . S
C972 C971 1.355 . S
C972 C974 1.419 . S
C973 C968 1.425 . S
C973 C970 1.409 . S
C973 C971 1.415 . S
C974 H964 0.930 . S
C974 C972 1.419 . S
C974 C975 1.362 . S
C975 H965 0.930 . S
C975 C968 1.409 . S
C975 C974 1.362 . S
H976 C982 0.930 . S
H977 C985 0.930 . S
H978 C986 0.930 . S
H979 C987 0.930 1_556 S
H980 C990 0.930 . S
H981 C991 0.930 . S
C982 H976 0.930 . S
C982 C983 1.355 . S
C982 C984 1.415 . S
C983 C982 1.355 . S
C983 C985 1.419 . S
C984 C982 1.415 . S
C984 C989 1.425 . S
C984 C991 1.409 . S
C985 H977 0.930 . S
C985 C983 1.419 . S
C985 C986 1.362 . S
C986 H978 0.930 . S
C986 C985 1.362 . S
C986 C989 1.409 . S
C987 H979 0.930 1_554 S
C987 C988 1.355 . S
C987 C989 1.415 . S
C988 C987 1.355 . S
C988 C990 1.419 . S
C989 C984 1.425 . S
C989 C986 1.409 . S
C989 C987 1.415 . S
C990 H980 0.930 . S
C990 C988 1.419 . S
C990 C991 1.362 . S
C991 H981 0.930 . S
C991 C984 1.409 . S
C991 C990 1.362 . S
H992 C998 0.930 . S
H993 C1001 0.930 . S
H994 C1002 0.930 . S
H995 C1003 0.930 . S
H996 C1006 0.930 . S
H997 C1007 0.930 . S
C998 H992 0.930 . S
C998 C999 1.355 . S
C998 C1000 1.415 . S
C999 C998 1.355 . S
C999 C1001 1.419 . S
C1000 C998 1.415 . S
C1000 C1005 1.425 . S
C1000 C1007 1.409 . S
C1001 H993 0.930 . S
C1001 C999 1.419 . S
C1001 C1002 1.362 . S
C1002 H994 0.930 . S
C1002 C1001 1.362 . S
C1002 C1005 1.409 . S
C1003 H995 0.930 . S
C1003 C1004 1.355 . S
C1003 C1005 1.415 . S
C1004 C1003 1.355 . S
C1004 C1006 1.419 . S
C1005 C1000 1.425 . S
C1005 C1002 1.409 . S
C1005 C1003 1.415 . S
C1006 H996 0.930 . S
C1006 C1004 1.419 . S
C1006 C1007 1.362 . S
C1007 H997 0.930 . S
C1007 C1000 1.409 . S
C1007 C1006 1.362 . S
H1008 C1014 0.930 . S
H1009 C1017 0.930 . S
H1010 C1018 0.930 . S
H1011 C1019 0.930 . S
H1012 C1022 0.930 . S
H1013 C1023 0.930 . S
C1014 H1008 0.930 . S
C1014 C1015 1.355 . S
C1014 C1016 1.415 . S
C1015 C1014 1.355 . S
C1015 C1017 1.419 . S
C1016 C1014 1.415 . S
C1016 C1021 1.425 . S
C1016 C1023 1.409 . S
C1017 H1009 0.930 . S
C1017 C1015 1.419 . S
C1017 C1018 1.362 . S
C1018 H1010 0.930 . S
C1018 C1017 1.362 . S
C1018 C1021 1.409 . S
C1019 H1011 0.930 . S
C1019 C1020 1.355 . S
C1019 C1021 1.415 . S
C1020 C1019 1.355 . S
C1020 C1022 1.419 . S
C1021 C1016 1.425 . S
C1021 C1018 1.409 . S
C1021 C1019 1.415 . S
C1022 H1012 0.930 . S
C1022 C1020 1.419 . S
C1022 C1023 1.362 . S
C1023 H1013 0.930 . S
C1023 C1016 1.409 . S
C1023 C1022 1.362 . S
H1024 C1030 0.930 . S
H1025 C1033 0.930 . S
H1026 C1034 0.930 . S
H1027 C1035 0.930 . S
H1028 C1038 0.930 . S
H1029 C1039 0.930 . S
C1030 H1024 0.930 . S
C1030 C1031 1.355 . S
C1030 C1032 1.415 . S
C1031 C1030 1.355 . S
C1031 C1033 1.419 . S
C1032 C1030 1.415 . S
C1032 C1037 1.425 . S
C1032 C1039 1.409 . S
C1033 H1025 0.930 . S
C1033 C1031 1.419 . S
C1033 C1034 1.362 . S
C1034 H1026 0.930 . S
C1034 C1033 1.362 . S
C1034 C1037 1.409 . S
C1035 H1027 0.930 . S
C1035 C1036 1.355 . S
C1035 C1037 1.415 . S
C1036 C1035 1.355 . S
C1036 C1038 1.419 . S
C1037 C1032 1.425 . S
C1037 C1034 1.409 . S
C1037 C1035 1.415 . S
C1038 H1028 0.930 . S
C1038 C1036 1.419 . S
C1038 C1039 1.362 . S
C1039 H1029 0.930 . S
C1039 C1032 1.409 . S
C1039 C1038 1.362 . S
H1040 C1046 0.930 . S
H1041 C1049 0.930 . S
H1042 C1050 0.930 . S
H1043 C1051 0.930 . S
H1044 C1054 0.930 . S
H1045 C1055 0.930 . S
C1046 H1040 0.930 . S
C1046 C1047 1.355 . S
C1046 C1048 1.415 . S
C1047 C1046 1.355 . S
C1047 C1049 1.419 . S
C1048 C1046 1.415 . S
C1048 C1053 1.425 . S
C1048 C1055 1.409 . S
C1049 H1041 0.930 . S
C1049 C1047 1.419 . S
C1049 C1050 1.362 . S
C1050 H1042 0.930 . S
C1050 C1049 1.362 . S
C1050 C1053 1.409 . S
C1051 H1043 0.930 . S
C1051 C1052 1.355 . S
C1051 C1053 1.415 . S
C1052 C1051 1.355 . S
C1052 C1054 1.419 . S
C1053 C1048 1.425 . S
C1053 C1050 1.409 . S
C1053 C1051 1.415 . S
C1054 H1044 0.930 . S
C1054 C1052 1.419 . S
C1054 C1055 1.362 . S
C1055 H1045 0.930 . S
C1055 C1048 1.409 . S
C1055 C1054 1.362 . S
H1056 C1062 0.930 . S
H1057 C1065 0.930 . S
H1058 C1066 0.930 . S
H1059 C1067 0.930 . S
H1060 C1070 0.930 . S
H1061 C1071 0.930 . S
C1062 H1056 0.930 . S
C1062 C1063 1.355 . S
C1062 C1064 1.415 . S
C1063 C1062 1.355 . S
C1063 C1065 1.419 . S
C1064 C1062 1.415 . S
C1064 C1069 1.425 . S
C1064 C1071 1.409 . S
C1065 H1057 0.930 . S
C1065 C1063 1.419 . S
C1065 C1066 1.362 . S
C1066 H1058 0.930 . S
C1066 C1065 1.362 . S
C1066 C1069 1.409 . S
C1067 H1059 0.930 . S
C1067 C1068 1.355 . S
C1067 C1069 1.415 . S
C1068 C1067 1.355 . S
C1068 C1070 1.419 . S
C1069 C1064 1.425 . S
C1069 C1066 1.409 . S
C1069 C1067 1.415 . S
C1070 H1060 0.930 . S
C1070 C1068 1.419 . S
C1070 C1071 1.362 . S
C1071 H1061 0.930 . S
C1071 C1064 1.409 . S
C1071 C1070 1.362 . S
H1072 C1078 0.930 . S
H1073 C1081 0.930 . S
H1074 C1082 0.930 . S
H1075 C1083 0.930 . S
H1076 C1086 0.930 . S
H1077 C1087 0.930 . S
C1078 H1072 0.930 . S
C1078 C1079 1.355 . S
C1078 C1080 1.415 . S
C1079 C1078 1.355 . S
C1079 C1081 1.419 . S
C1080 C1078 1.415 . S
C1080 C1085 1.425 . S
C1080 C1087 1.409 . S
C1081 H1073 0.930 . S
C1081 C1079 1.419 . S
C1081 C1082 1.362 . S
C1082 H1074 0.930 . S
C1082 C1081 1.362 . S
C1082 C1085 1.409 . S
C1083 H1075 0.930 . S
C1083 C1084 1.355 . S
C1083 C1085 1.415 . S
C1084 C1083 1.355 . S
C1084 C1086 1.419 . S
C1085 C1080 1.425 . S
C1085 C1082 1.409 . S
C1085 C1083 1.415 . S
C1086 H1076 0.930 . S
C1086 C1084 1.419 . S
C1086 C1087 1.362 . S
C1087 H1077 0.930 . S
C1087 C1080 1.409 . S
C1087 C1086 1.362 . S
H1088 C1094 0.930 . S
H1089 C1097 0.930 . S
H1090 C1098 0.930 . S
H1091 C1099 0.930 . S
H1092 C1102 0.930 . S
H1093 C1103 0.930 . S
C1094 H1088 0.930 . S
C1094 C1095 1.355 . S
C1094 C1096 1.415 . S
C1095 C1094 1.355 . S
C1095 C1097 1.419 . S
C1096 C1094 1.415 . S
C1096 C1101 1.425 . S
C1096 C1103 1.409 . S
C1097 H1089 0.930 . S
C1097 C1095 1.419 . S
C1097 C1098 1.362 . S
C1098 H1090 0.930 . S
C1098 C1097 1.362 . S
C1098 C1101 1.409 . S
C1099 H1091 0.930 . S
C1099 C1100 1.355 . S
C1099 C1101 1.415 . S
C1100 C1099 1.355 . S
C1100 C1102 1.419 . S
C1101 C1096 1.425 . S
C1101 C1098 1.409 . S
C1101 C1099 1.415 . S
C1102 H1092 0.930 . S
C1102 C1100 1.419 . S
C1102 C1103 1.362 . S
C1103 H1093 0.930 . S
C1103 C1096 1.409 . S
C1103 C1102 1.362 . S
H1104 C1110 0.930 . S
H1105 C1113 0.930 . S
H1106 C1114 0.930 . S
H1107 C1115 0.930 . S
H1108 C1118 0.930 . S
H1109 C1119 0.930 . S
C1110 H1104 0.930 . S
C1110 C1111 1.355 . S
C1110 C1112 1.415 . S
C1111 C1110 1.355 . S
C1111 C1113 1.419 . S
C1112 C1110 1.415 . S
C1112 C1117 1.425 . S
C1112 C1119 1.409 . S
C1113 H1105 0.930 . S
C1113 C1111 1.419 . S
C1113 C1114 1.362 . S
C1114 H1106 0.930 . S
C1114 C1113 1.362 . S
C1114 C1117 1.409 . S
C1115 H1107 0.930 . S
C1115 C1116 1.355 . S
C1115 C1117 1.415 . S
C1116 C1115 1.355 . S
C1116 C1118 1.419 . S
C1117 C1112 1.425 . S
C1117 C1114 1.409 . S
C1117 C1115 1.415 . S
C1118 H1108 0.930 . S
C1118 C1116 1.419 . S
C1118 C1119 1.362 . S
C1119 H1109 0.930 . S
C1119 C1112 1.409 . S
C1119 C1118 1.362 . S
H1120 C1126 0.930 . S
H1121 C1129 0.930 . S
H1122 C1130 0.930 . S
H1123 C1131 0.930 . S
H1124 C1134 0.930 . S
H1125 C1135 0.930 . S
C1126 H1120 0.930 . S
C1126 C1127 1.355 . S
C1126 C1128 1.415 . S
C1127 C1126 1.355 . S
C1127 C1129 1.419 . S
C1128 C1126 1.415 . S
C1128 C1133 1.425 . S
C1128 C1135 1.409 . S
C1129 H1121 0.930 . S
C1129 C1127 1.419 . S
C1129 C1130 1.362 . S
C1130 H1122 0.930 . S
C1130 C1129 1.362 . S
C1130 C1133 1.409 . S
C1131 H1123 0.930 . S
C1131 C1132 1.355 . S
C1131 C1133 1.415 . S
C1132 C1131 1.355 . S
C1132 C1134 1.419 . S
C1133 C1128 1.425 . S
C1133 C1130 1.409 . S
C1133 C1131 1.415 . S
C1134 H1124 0.930 . S
C1134 C1132 1.419 . S
C1134 C1135 1.362 . S
C1135 H1125 0.930 . S
C1135 C1128 1.409 . S
C1135 C1134 1.362 . S
H1136 C1142 0.930 . S
H1137 C1145 0.930 . S
H1138 C1146 0.930 . S
H1139 C1147 0.930 . S
H1140 C1150 0.930 . S
H1141 C1151 0.930 . S
C1142 H1136 0.930 . S
C1142 C1143 1.355 . S
C1142 C1144 1.415 . S
C1143 C1142 1.355 . S
C1143 C1145 1.419 . S
C1144 C1142 1.415 . S
C1144 C1149 1.425 . S
C1144 C1151 1.409 . S
C1145 H1137 0.930 . S
C1145 C1143 1.419 . S
C1145 C1146 1.362 . S
C1146 H1138 0.930 . S
C1146 C1145 1.362 . S
C1146 C1149 1.409 . S
C1147 H1139 0.930 . S
C1147 C1148 1.355 . S
C1147 C1149 1.415 . S
C1148 C1147 1.355 . S
C1148 C1150 1.419 . S
C1149 C1144 1.425 . S
C1149 C1146 1.409 . S
C1149 C1147 1.415 . S
C1150 H1140 0.930 . S
C1150 C1148 1.419 . S
C1150 C1151 1.362 . S
C1151 H1141 0.930 . S
C1151 C1144 1.409 . S
C1151 C1150 1.362 . S
H1152 C1158 0.930 . S
H1153 C1161 0.930 . S
H1154 C1162 0.930 . S
H1155 C1163 0.930 . S
H1156 C1166 0.930 . S
H1157 C1167 0.930 . S
C1158 H1152 0.930 . S
C1158 C1159 1.355 . S
C1158 C1160 1.415 . S
C1159 C1158 1.355 . S
C1159 C1161 1.419 . S
C1160 C1158 1.415 . S
C1160 C1165 1.425 . S
C1160 C1167 1.409 . S
C1161 H1153 0.930 . S
C1161 C1159 1.419 . S
C1161 C1162 1.362 . S
C1162 H1154 0.930 . S
C1162 C1161 1.362 . S
C1162 C1165 1.409 . S
C1163 H1155 0.930 . S
C1163 C1164 1.355 . S
C1163 C1165 1.415 . S
C1164 C1163 1.355 . S
C1164 C1166 1.419 . S
C1165 C1160 1.425 . S
C1165 C1162 1.409 . S
C1165 C1163 1.415 . S
C1166 H1156 0.930 . S
C1166 C1164 1.419 . S
C1166 C1167 1.362 . S
C1167 H1157 0.930 . S
C1167 C1160 1.409 . S
C1167 C1166 1.362 . S
H1168 C1174 0.930 . S
H1169 C1177 0.930 . S
H1170 C1178 0.930 . S
H1171 C1179 0.930 . S
H1172 C1182 0.930 . S
H1173 C1183 0.930 . S
C1174 H1168 0.930 . S
C1174 C1175 1.355 . S
C1174 C1176 1.415 . S
C1175 C1174 1.355 . S
C1175 C1177 1.419 . S
C1176 C1174 1.415 . S
C1176 C1181 1.425 . S
C1176 C1183 1.409 . S
C1177 H1169 0.930 . S
C1177 C1175 1.419 . S
C1177 C1178 1.362 . S
C1178 H1170 0.930 . S
C1178 C1177 1.362 . S
C1178 C1181 1.409 . S
C1179 H1171 0.930 . S
C1179 C1180 1.355 . S
C1179 C1181 1.415 . S
C1180 C1179 1.355 . S
C1180 C1182 1.419 . S
C1181 C1176 1.425 . S
C1181 C1178 1.409 . S
C1181 C1179 1.415 . S
C1182 H1172 0.930 . S
C1182 C1180 1.419 . S
C1182 C1183 1.362 . S
C1183 H1173 0.930 . S
C1183 C1176 1.409 . S
C1183 C1182 1.362 . S
H1184 C1190 0.930 . S
H1185 C1193 0.930 . S
H1186 C1194 0.930 . S
H1187 C1195 0.930 . S
H1188 C1198 0.930 . S
H1189 C1199 0.930 . S
C1190 H1184 0.930 . S
C1190 C1191 1.355 . S
C1190 C1192 1.415 . S
C1191 C1190 1.355 . S
C1191 C1193 1.419 . S
C1192 C1190 1.415 . S
C1192 C1197 1.425 . S
C1192 C1199 1.409 . S
C1193 H1185 0.930 . S
C1193 C1191 1.419 . S
C1193 C1194 1.362 . S
C1194 H1186 0.930 . S
C1194 C1193 1.362 . S
C1194 C1197 1.409 . S
C1195 H1187 0.930 . S
C1195 C1196 1.355 . S
C1195 C1197 1.415 . S
C1196 C1195 1.355 . S
C1196 C1198 1.419 . S
C1197 C1192 1.425 . S
C1197 C1194 1.409 . S
C1197 C1195 1.415 . S
C1198 H1188 0.930 . S
C1198 C1196 1.419 . S
C1198 C1199 1.362 . S
C1199 H1189 0.930 . S
C1199 C1192 1.409 . S
C1199 C1198 1.362 . S
H1200 C1206 0.930 . S
H1201 C1209 0.930 . S
H1202 C1210 0.930 . S
H1203 C1211 0.930 . S
H1204 C1214 0.930 . S
H1205 C1215 0.930 . S
C1206 H1200 0.930 . S
C1206 C1207 1.355 . S
C1206 C1208 1.415 . S
C1207 C1206 1.355 . S
C1207 C1209 1.419 . S
C1208 C1206 1.415 . S
C1208 C1213 1.425 . S
C1208 C1215 1.409 . S
C1209 H1201 0.930 . S
C1209 C1207 1.419 . S
C1209 C1210 1.362 . S
C1210 H1202 0.930 . S
C1210 C1209 1.362 . S
C1210 C1213 1.409 . S
C1211 H1203 0.930 . S
C1211 C1212 1.355 . S
C1211 C1213 1.415 . S
C1212 C1211 1.355 . S
C1212 C1214 1.419 . S
C1213 C1208 1.425 . S
C1213 C1210 1.409 . S
C1213 C1211 1.415 . S
C1214 H1204 0.930 . S
C1214 C1212 1.419 . S
C1214 C1215 1.362 . S
C1215 H1205 0.930 . S
C1215 C1208 1.409 . S
C1215 C1214 1.362 . S
H1216 C1222 0.930 . S
H1217 C1225 0.930 . S
H1218 C1226 0.930 . S
H1219 C1227 0.930 . S
H1220 C1230 0.930 . S
H1221 C1231 0.930 . S
C1222 H1216 0.930 . S
C1222 C1223 1.355 . S
C1222 C1224 1.415 . S
C1223 C1222 1.355 . S
C1223 C1225 1.419 . S
C1224 C1222 1.415 . S
C1224 C1229 1.425 . S
C1224 C1231 1.409 . S
C1225 H1217 0.930 . S
C1225 C1223 1.419 . S
C1225 C1226 1.362 . S
C1226 H1218 0.930 . S
C1226 C1225 1.362 . S
C1226 C1229 1.409 . S
C1227 H1219 0.930 . S
C1227 C1228 1.355 . S
C1227 C1229 1.415 . S
C1228 C1227 1.355 . S
C1228 C1230 1.419 . S
C1229 C1224 1.425 . S
C1229 C1226 1.409 . S
C1229 C1227 1.415 . S
C1230 H1220 0.930 . S
C1230 C1228 1.419 . S
C1230 C1231 1.362 . S
C1231 H1221 0.930 . S
C1231 C1224 1.409 . S
C1231 C1230 1.362 . S
H1232 C1238 0.930 . S
H1233 C1241 0.930 . S
H1234 C1242 0.930 . S
H1235 C1243 0.930 . S
H1236 C1246 0.930 . S
H1237 C1247 0.930 . S
C1238 H1232 0.930 . S
C1238 C1239 1.355 . S
C1238 C1240 1.415 . S
C1239 C1238 1.355 . S
C1239 C1241 1.419 . S
C1240 C1238 1.415 . S
C1240 C1245 1.425 . S
C1240 C1247 1.409 . S
C1241 H1233 0.930 . S
C1241 C1239 1.419 . S
C1241 C1242 1.362 . S
C1242 H1234 0.930 . S
C1242 C1241 1.362 . S
C1242 C1245 1.409 . S
C1243 H1235 0.930 . S
C1243 C1244 1.355 . S
C1243 C1245 1.415 . S
C1244 C1243 1.355 . S
C1244 C1246 1.419 . S
C1245 C1240 1.425 . S
C1245 C1242 1.409 . S
C1245 C1243 1.415 . S
C1246 H1236 0.930 . S
C1246 C1244 1.419 . S
C1246 C1247 1.362 . S
C1247 H1237 0.930 . S
C1247 C1240 1.409 . S
C1247 C1246 1.362 . S
H1248 C1254 0.930 . S
H1249 C1257 0.930 . S
H1250 C1258 0.930 . S
H1251 C1259 0.930 . S
H1252 C1262 0.930 . S
H1253 C1263 0.930 . S
C1254 H1248 0.930 . S
C1254 C1255 1.355 . S
C1254 C1256 1.415 . S
C1255 C1254 1.355 . S
C1255 C1257 1.419 . S
C1256 C1254 1.415 . S
C1256 C1261 1.425 . S
C1256 C1263 1.409 . S
C1257 H1249 0.930 . S
C1257 C1255 1.419 . S
C1257 C1258 1.362 . S
C1258 H1250 0.930 . S
C1258 C1257 1.362 . S
C1258 C1261 1.409 . S
C1259 H1251 0.930 . S
C1259 C1260 1.355 . S
C1259 C1261 1.415 . S
C1260 C1259 1.355 . S
C1260 C1262 1.419 . S
C1261 C1256 1.425 . S
C1261 C1258 1.409 . S
C1261 C1259 1.415 . S
C1262 H1252 0.930 . S
C1262 C1260 1.419 . S
C1262 C1263 1.362 . S
C1263 H1253 0.930 . S
C1263 C1256 1.409 . S
C1263 C1262 1.362 . S
H1264 C1270 0.930 . S
H1265 C1273 0.930 . S
H1266 C1274 0.930 . S
H1267 C1275 0.930 . S
H1268 C1278 0.930 . S
H1269 C1279 0.930 . S
C1270 H1264 0.930 . S
C1270 C1271 1.355 . S
C1270 C1272 1.415 . S
C1271 C1270 1.355 . S
C1271 C1273 1.419 . S
C1272 C1270 1.415 . S
C1272 C1277 1.425 . S
C1272 C1279 1.409 . S
C1273 H1265 0.930 . S
C1273 C1271 1.419 . S
C1273 C1274 1.362 . S
C1274 H1266 0.930 . S
C1274 C1273 1.362 . S
C1274 C1277 1.409 . S
C1275 H1267 0.930 . S
C1275 C1276 1.355 . S
C1275 C1277 1.415 . S
C1276 C1275 1.355 . S
C1276 C1278 1.419 . S
C1277 C1272 1.425 . S
C1277 C1274 1.409 . S
C1277 C1275 1.415 . S
C1278 H1268 0.930 . S
C1278 C1276 1.419 . S
C1278 C1279 1.362 . S
C1279 H1269 0.930 . S
C1279 C1272 1.409 . S
C1279 C1278 1.362 . S
H1280 C1286 0.930 . S
H1281 C1289 0.930 . S
H1282 C1290 0.930 . S
H1283 C1291 0.930 . S
H1284 C1294 0.930 . S
H1285 C1295 0.930 . S
C1286 H1280 0.930 . S
C1286 C1287 1.355 . S
C1286 C1288 1.415 . S
C1287 C1286 1.355 . S
C1287 C1289 1.419 . S
C1288 C1286 1.415 . S
C1288 C1293 1.425 . S
C1288 C1295 1.409 . S
C1289 H1281 0.930 . S
C1289 C1287 1.419 . S
C1289 C1290 1.362 . S
C1290 H1282 0.930 . S
C1290 C1289 1.362 . S
C1290 C1293 1.409 . S
C1291 H1283 0.930 . S
C1291 C1292 1.355 . S
C1291 C1293 1.415 . S
C1292 C1291 1.355 . S
C1292 C1294 1.419 . S
C1293 C1288 1.425 . S
C1293 C1290 1.409 . S
C1293 C1291 1.415 . S
C1294 H1284 0.930 . S
C1294 C1292 1.419 . S
C1294 C1295 1.362 . S
C1295 H1285 0.930 . S
C1295 C1288 1.409 . S
C1295 C1294 1.362 . S
H1296 C1302 0.930 . S
H1297 C1305 0.930 . S
H1298 C1306 0.930 . S
H1299 C1307 0.930 . S
H1300 C1310 0.930 . S
H1301 C1311 0.930 . S
C1302 H1296 0.930 . S
C1302 C1303 1.355 . S
C1302 C1304 1.415 . S
C1303 C1302 1.355 . S
C1303 C1305 1.419 . S
C1304 C1302 1.415 . S
C1304 C1309 1.425 . S
C1304 C1311 1.409 . S
C1305 H1297 0.930 . S
C1305 C1303 1.419 . S
C1305 C1306 1.362 . S
C1306 H1298 0.930 . S
C1306 C1305 1.362 . S
C1306 C1309 1.409 . S
C1307 H1299 0.930 . S
C1307 C1308 1.355 . S
C1307 C1309 1.415 . S
C1308 C1307 1.355 . S
C1308 C1310 1.419 . S
C1309 C1304 1.425 . S
C1309 C1306 1.409 . S
C1309 C1307 1.415 . S
C1310 H1300 0.930 . S
C1310 C1308 1.419 . S
C1310 C1311 1.362 . S
C1311 H1301 0.930 . S
C1311 C1304 1.409 . S
C1311 C1310 1.362 . S
H1312 C1318 0.930 . S
H1313 C1321 0.930 . S
H1314 C1322 0.930 . S
H1315 C1323 0.930 . S
H1316 C1326 0.930 . S
H1317 C1327 0.930 . S
C1318 H1312 0.930 . S
C1318 C1319 1.355 . S
C1318 C1320 1.415 . S
C1319 C1318 1.355 . S
C1319 C1321 1.419 . S
C1320 C1318 1.415 . S
C1320 C1325 1.425 . S
C1320 C1327 1.409 . S
C1321 H1313 0.930 . S
C1321 C1319 1.419 . S
C1321 C1322 1.362 . S
C1322 H1314 0.930 . S
C1322 C1321 1.362 . S
C1322 C1325 1.409 . S
C1323 H1315 0.930 . S
C1323 C1324 1.355 . S
C1323 C1325 1.415 . S
C1324 C1323 1.355 . S
C1324 C1326 1.419 . S
C1325 C1320 1.425 . S
C1325 C1322 1.409 . S
C1325 C1323 1.415 . S
C1326 H1316 0.930 . S
C1326 C1324 1.419 . S
C1326 C1327 1.362 . S
C1327 H1317 0.930 . S
C1327 C1320 1.409 . S
C1327 C1326 1.362 . S
H1328 C1334 0.930 . S
H1329 C1337 0.930 . S
H1330 C1338 0.930 . S
H1331 C1339 0.930 . S
H1332 C1342 0.930 . S
H1333 C1343 0.930 . S
C1334 H1328 0.930 . S
C1334 C1335 1.355 . S
C1334 C1336 1.415 . S
C1335 C1334 1.355 . S
C1335 C1337 1.419 . S
C1336 C1334 1.415 . S
C1336 C1341 1.425 . S
C1336 C1343 1.409 . S
C1337 H1329 0.930 . S
C1337 C1335 1.419 . S
C1337 C1338 1.362 . S
C1338 H1330 0.930 . S
C1338 C1337 1.362 . S
C1338 C1341 1.409 . S
C1339 H1331 0.930 . S
C1339 C1340 1.355 . S
C1339 C1341 1.415 . S
C1340 C1339 1.355 . S
C1340 C1342 1.419 . S
C1341 C1336 1.425 . S
C1341 C1338 1.409 . S
C1341 C1339 1.415 . S
C1342 H1332 0.930 . S
C1342 C1340 1.419 . S
C1342 C1343 1.362 . S
C1343 H1333 0.930 . S
C1343 C1336 1.409 . S
C1343 C1342 1.362 . S
H1344 C1350 0.930 . S
H1345 C1353 0.930 . S
H1346 C1354 0.930 . S
H1347 C1355 0.930 . S
H1348 C1358 0.930 . S
H1349 C1359 0.930 . S
C1350 H1344 0.930 . S
C1350 C1351 1.355 . S
C1350 C1352 1.415 . S
C1351 C1350 1.355 . S
C1351 C1353 1.419 . S
C1352 C1350 1.415 . S
C1352 C1357 1.425 . S
C1352 C1359 1.409 . S
C1353 H1345 0.930 . S
C1353 C1351 1.419 . S
C1353 C1354 1.362 . S
C1354 H1346 0.930 . S
C1354 C1353 1.362 . S
C1354 C1357 1.409 . S
C1355 H1347 0.930 . S
C1355 C1356 1.355 . S
C1355 C1357 1.415 . S
C1356 C1355 1.355 . S
C1356 C1358 1.419 . S
C1357 C1352 1.425 . S
C1357 C1354 1.409 . S
C1357 C1355 1.415 . S
C1358 H1348 0.930 . S
C1358 C1356 1.419 . S
C1358 C1359 1.362 . S
C1359 H1349 0.930 . S
C1359 C1352 1.409 . S
C1359 C1358 1.362 . S
H1360 C1366 0.930 . S
H1361 C1369 0.930 . S
H1362 C1370 0.930 . S
H1363 C1371 0.930 . S
H1364 C1374 0.930 . S
H1365 C1375 0.930 . S
C1366 H1360 0.930 . S
C1366 C1367 1.355 . S
C1366 C1368 1.415 . S
C1367 C1366 1.355 . S
C1367 C1369 1.419 . S
C1368 C1366 1.415 . S
C1368 C1373 1.425 . S
C1368 C1375 1.409 . S
C1369 H1361 0.930 . S
C1369 C1367 1.419 . S
C1369 C1370 1.362 . S
C1370 H1362 0.930 . S
C1370 C1369 1.362 . S
C1370 C1373 1.409 . S
C1371 H1363 0.930 . S
C1371 C1372 1.355 . S
C1371 C1373 1.415 . S
C1372 C1371 1.355 . S
C1372 C1374 1.419 . S
C1373 C1368 1.425 . S
C1373 C1370 1.409 . S
C1373 C1371 1.415 . S
C1374 H1364 0.930 . S
C1374 C1372 1.419 . S
C1374 C1375 1.362 . S
C1375 H1365 0.930 . S
C1375 C1368 1.409 . S
C1375 C1374 1.362 . S
H1376 C1382 0.930 . S
H1377 C1385 0.930 . S
H1378 C1386 0.930 . S
H1379 C1387 0.930 . S
H1380 C1390 0.930 . S
H1381 C1391 0.930 . S
C1382 H1376 0.930 . S
C1382 C1383 1.355 . S
C1382 C1384 1.415 . S
C1383 C1382 1.355 . S
C1383 C1385 1.419 . S
C1384 C1382 1.415 . S
C1384 C1389 1.425 . S
C1384 C1391 1.409 . S
C1385 H1377 0.930 . S
C1385 C1383 1.419 . S
C1385 C1386 1.362 . S
C1386 H1378 0.930 . S
C1386 C1385 1.362 . S
C1386 C1389 1.409 . S
C1387 H1379 0.930 . S
C1387 C1388 1.355 . S
C1387 C1389 1.415 . S
C1388 C1387 1.355 . S
C1388 C1390 1.419 . S
C1389 C1384 1.425 . S
C1389 C1386 1.409 . S
C1389 C1387 1.415 . S
C1390 H1380 0.930 . S
C1390 C1388 1.419 . S
C1390 C1391 1.362 . S
C1391 H1381 0.930 . S
C1391 C1384 1.409 . S
C1391 C1390 1.362 . S
H1392 C1398 0.930 . S
H1393 C1401 0.930 . S
H1394 C1402 0.930 . S
H1395 C1403 0.930 . S
H1396 C1406 0.930 . S
H1397 C1407 0.930 . S
C1398 H1392 0.930 . S
C1398 C1399 1.355 . S
C1398 C1400 1.415 . S
C1399 C1398 1.355 . S
C1399 C1401 1.419 . S
C1400 C1398 1.415 . S
C1400 C1405 1.425 . S
C1400 C1407 1.409 . S
C1401 H1393 0.930 . S
C1401 C1399 1.419 . S
C1401 C1402 1.362 . S
C1402 H1394 0.930 . S
C1402 C1401 1.362 . S
C1402 C1405 1.409 . S
C1403 H1395 0.930 . S
C1403 C1404 1.355 . S
C1403 C1405 1.415 . S
C1404 C1403 1.355 . S
C1404 C1406 1.419 . S
C1405 C1400 1.425 . S
C1405 C1402 1.409 . S
C1405 C1403 1.415 . S
C1406 H1396 0.930 . S
C1406 C1404 1.419 . S
C1406 C1407 1.362 . S
C1407 H1397 0.930 . S
C1407 C1400 1.409 . S
C1407 C1406 1.362 . S
C647 C135 2.142 . S
C652 C18 2.044 . S
C663 C6 2.700 . S
C668 C59 2.867 . S
C679 C89 0.975 . S
C684 C58 0.986 . S
C695 C130 2.536 . S
C700 C90 2.531 . S
C711 C170 2.491 . S
C716 C206 2.420 . S
C727 C218 0.966 . S
C732 C258 0.940 . S
C743 C259 2.593 . S
C748 C290 2.618 . S
C759 C175 2.108 . S
C764 C289 2.099 . S
C775 C379 2.595 . S
C780 C19 2.622 . S
C791 C406 0.625 . S
C796 C46 0.615 . S
C807 C95 0.544 . S
C812 C535 0.705 . S
C823 C329 0.862 . S
C828 C129 0.922 . S
C839 C449 0.997 . S
C844 C169 1.018 . S
C855 C579 2.623 . S
C860 C219 2.597 . S
C871 C246 0.695 . S
C876 C486 0.735 . S
C887 C615 0.750 . S
C892 C295 0.828 . S
C903 C335 2.122 . S
C908 C529 2.076 . S
C919 C366 2.409 . S
C924 C330 2.475 . S
C935 C418 0.849 . S
C940 C378 0.967 . S
C951 C578 2.029 . S
C956 C455 2.142 . S
C967 C498 0.900 . S
C972 C609 1.006 . S
C983 C446 2.111 . S
C988 C9 2.011 . S
C999 C490 2.873 . S
C1004 C15 2.715 . S
C1015 C489 0.836 . S
C1020 C98 0.959 . S
C1031 C99 2.543 . S
C1036 C459 2.542 . S
C1047 C375 2.404 . S
C1052 C179 2.475 . S
C1063 C369 0.939 . S
C1068 C249 0.967 . S
C1079 C539 2.617 . S
C1084 C250 2.570 . S
C1095 C166 2.138 . S
C1100 C538 2.085 . S
C1111 C210 2.596 . S
C1116 C10 2.627 . S
C1127 C415 0.765 . S
C1132 C495 0.802 . S
C1143 C86 0.547 . S
C1148 C286 0.708 . S
C1159 C338 0.844 . S
C1164 C458 0.892 . S
C1175 C138 0.881 . S
C1180 C178 0.914 . S
C1191 C370 2.572 . S
C1196 C570 2.615 . S
C1207 C255 0.621 . S
C1212 C55 0.615 . S
C1223 C606 0.752 . S
C1228 C526 0.845 . S
C1239 C326 2.121 . S
C1244 C298 2.104 . S
C1255 C339 2.478 . S
C1260 C215 2.417 . S
C1271 C409 0.887 . S
C1276 C209 0.994 . S
C1287 C126 2.097 . S
C1292 C569 2.069 . S
C1303 C49 0.868 . S
C1308 C618 0.872 . S
C1319 C499 2.876 . S
C1324 C566 2.722 . S
C1335 C450 2.542 . S
C1340 C610 2.538 . S
C1351 C419 2.581 . S
C1356 C530 2.621 . S
C1367 C575 2.739 . S
C1372 C50 2.881 . S
C1383 C139 2.527 . S
C1388 C619 2.529 . S
C1399 C299 2.610 . S
C1404 C410 2.584 . S
