# Generated by pormake.
# Topology yfh, (5)-cn, num edge types: 1
# Building blocks:
#     Node 0, Type 0, BuildingBlock: XOMCOT_clean_sbu_1, # of connection points: 5
#     Node 1, Type 0, BuildingBlock: XOMCOT_clean_sbu_1, # of connection points: 5
#     Node 2, Type 0, BuildingBlock: XOMCOT_clean_sbu_1, # of connection points: 5
#     Node 3, Type 0, BuildingBlock: XOMCOT_clean_sbu_1, # of connection points: 5
#     Node 4, Type 0, BuildingBlock: XOMCOT_clean_sbu_1, # of connection points: 5
#     Node 5, Type 0, BuildingBlock: XOMCOT_clean_sbu_1, # of connection points: 5
#     Node 6, Type 0, BuildingBlock: XOMCOT_clean_sbu_1, # of connection points: 5
#     Node 7, Type 0, BuildingBlock: XOMCOT_clean_sbu_1, # of connection points: 5
#     Edge 8, Type (0, 0), BuildingBlock: XUDNAN_clean_linker_2, # of connection points: 2
#     Edge 9, Type (0, 0), BuildingBlock: XUDNAN_clean_linker_2, # of connection points: 2
#     Edge 10, Type (0, 0), BuildingBlock: XUDNAN_clean_linker_2, # of connection points: 2
#     Edge 11, Type (0, 0), BuildingBlock: XUDNAN_clean_linker_2, # of connection points: 2
#     Edge 12, Type (0, 0), BuildingBlock: XUDNAN_clean_linker_2, # of connection points: 2
#     Edge 13, Type (0, 0), BuildingBlock: XUDNAN_clean_linker_2, # of connection points: 2
#     Edge 14, Type (0, 0), BuildingBlock: XUDNAN_clean_linker_2, # of connection points: 2
#     Edge 15, Type (0, 0), BuildingBlock: XUDNAN_clean_linker_2, # of connection points: 2
#     Edge 16, Type (0, 0), BuildingBlock: XUDNAN_clean_linker_2, # of connection points: 2
#     Edge 17, Type (0, 0), BuildingBlock: XUDNAN_clean_linker_2, # of connection points: 2
#     Edge 18, Type (0, 0), BuildingBlock: XUDNAN_clean_linker_2, # of connection points: 2
#     Edge 19, Type (0, 0), BuildingBlock: XUDNAN_clean_linker_2, # of connection points: 2
#     Edge 20, Type (0, 0), BuildingBlock: XUDNAN_clean_linker_2, # of connection points: 2
#     Edge 21, Type (0, 0), BuildingBlock: XUDNAN_clean_linker_2, # of connection points: 2
#     Edge 22, Type (0, 0), BuildingBlock: XUDNAN_clean_linker_2, # of connection points: 2
#     Edge 23, Type (0, 0), BuildingBlock: XUDNAN_clean_linker_2, # of connection points: 2
#     Edge 24, Type (0, 0), BuildingBlock: XUDNAN_clean_linker_2, # of connection points: 2
#     Edge 25, Type (0, 0), BuildingBlock: XUDNAN_clean_linker_2, # of connection points: 2
#     Edge 26, Type (0, 0), BuildingBlock: XUDNAN_clean_linker_2, # of connection points: 2
#     Edge 27, Type (0, 0), BuildingBlock: XUDNAN_clean_linker_2, # of connection points: 2
# Relax obj value: 0.390
# Max RMSD: 0.272
# Mean RMSD: 0.272
data_MOF--net-yfh--node1-XOMCOT_clean_sbu_1--edge1-XUDNAN_clean_linker_2
_symmetry_space_group_name_H-M    P1
_symmetry_Int_Tables_number       1
_symmetry_cell_setting            triclinic
loop_
_symmetry_equiv_pos_as_xyz
'x, y, z'
_cell_length_a     27.678773
_cell_length_b     27.581403
_cell_length_c     59.554771
_cell_angle_alpha  89.374479
_cell_angle_beta   90.002832
_cell_angle_gamma 89.923638
loop_
_atom_site_label
_atom_site_type_symbol
_atom_site_fract_x
_atom_site_fract_y
_atom_site_fract_z
_atom_type_partial_charge
C0 C 0.39943 0.15263 0.05677 0.0
C1 C 0.3777 0.16742 0.03697 0.0
N2 N 0.33379 0.18557 0.04195 0.0
N3 N 0.36934 0.1619 0.07404 0.0
C4 C 0.32935 0.18049 0.06437 0.0
H5 H 0.43588 0.13898 0.05855 0.0
Co6 Co 0.38055 0.16083 0.10494 0.0
C7 C 0.31126 0.23915 0.12027 0.0
O8 O 0.2942 0.21412 0.1374 0.0
N9 N 0.3911 0.16082 0.13598 0.0
C10 C 0.40097 0.18617 0.171 0.0
C11 C 0.40554 0.19845 0.14864 0.0
C12 C 0.37908 0.12589 0.151 0.0
N13 N 0.38372 0.14058 0.17244 0.0
O14 O 0.32544 0.11815 0.10876 0.0
H15 H 0.41588 0.23363 0.14205 0.0
H16 H 0.36566 0.09074 0.14632 0.0
O17 O 0.34292 0.22034 0.1075 0.0
C18 C 0.34157 0.07596 0.10387 0.0
O19 O 0.38723 0.07244 0.098 0.0
N20 N 0.43672 0.1966 0.10029 0.0
C21 C 0.51883 0.22417 0.07674 0.0
C22 C 0.48012 0.2567 0.07925 0.0
C23 C 0.43886 0.24191 0.09091 0.0
C24 C 0.47658 0.16776 0.10106 0.0
C25 C 0.51816 0.18075 0.0893 0.0
H26 H 0.40742 0.2649 0.0902 0.0
H27 H 0.47394 0.13179 0.10838 0.0
H28 H 0.29812 0.19211 0.07382 0.0
H29 H 0.39422 0.16785 0.0205 0.0
H30 H 0.40716 0.21005 0.18501 0.0
H31 H 0.47962 0.29116 0.07036 0.0
H32 H 0.54685 0.15424 0.08794 0.0
C33 C 0.4636 0.86057 0.32816 0.0
C34 C 0.46362 0.84254 0.3067 0.0
N35 N 0.4219 0.81848 0.30361 0.0
N36 N 0.42213 0.84781 0.33854 0.0
C37 C 0.39751 0.82233 0.32311 0.0
H38 H 0.49137 0.88303 0.33539 0.0
Co39 Co 0.40178 0.86733 0.36688 0.0
C40 C 0.32047 0.7992 0.37781 0.0
O41 O 0.33756 0.78944 0.39794 0.0
N42 N 0.38097 0.88738 0.39559 0.0
C43 C 0.33724 0.91771 0.42362 0.0
C44 C 0.34077 0.91296 0.40075 0.0
C45 C 0.40096 0.87686 0.41582 0.0
N46 N 0.37503 0.89468 0.43305 0.0
O47 O 0.44062 0.81571 0.37974 0.0
H48 H 0.31457 0.92665 0.3889 0.0
H49 H 0.43381 0.8563 0.41812 0.0
O50 O 0.34428 0.82683 0.36456 0.0
C51 C 0.48348 0.83219 0.38216 0.0
O52 O 0.49075 0.87884 0.37908 0.0
N53 N 0.36965 0.91937 0.35298 0.0
C54 C 0.34365 0.98363 0.31865 0.0
C55 C 0.30934 0.95209 0.32824 0.0
C56 C 0.3233 0.91953 0.34513 0.0
C57 C 0.40133 0.95423 0.34619 0.0
C58 C 0.38945 0.98623 0.32877 0.0
H59 H 0.29728 0.89337 0.35105 0.0
H60 H 0.43792 0.95357 0.35258 0.0
H61 H 0.36122 0.80895 0.32558 0.0
H62 H 0.49168 0.84762 0.29425 0.0
H63 H 0.30845 0.93561 0.43263 0.0
H64 H 0.2728 0.95024 0.32183 0.0
H65 H 0.41754 1.00958 0.32215 0.0
C66 C 0.67263 0.89762 0.56707 0.0
C67 C 0.70063 0.8942 0.548 0.0
N68 N 0.7387 0.86536 0.55279 0.0
N69 N 0.69268 0.87017 0.58347 0.0
C70 C 0.73305 0.85159 0.57438 0.0
H71 H 0.63965 0.91832 0.56885 0.0
Co72 Co 0.67291 0.86144 0.61296 0.0
C73 C 0.67639 0.75481 0.61865 0.0
O74 O 0.63296 0.76019 0.62722 0.0
N75 N 0.65556 0.85497 0.64349 0.0
C76 C 0.66733 0.84281 0.68015 0.0
C77 C 0.67542 0.82498 0.65911 0.0
C78 C 0.637 0.89159 0.65571 0.0
N79 N 0.64405 0.88533 0.67797 0.0
O80 O 0.73166 0.89376 0.62235 0.0
H81 H 0.70032 0.79583 0.65576 0.0
H82 H 0.62351 0.92493 0.64833 0.0
O83 O 0.70059 0.79304 0.61303 0.0
C84 C 0.71941 0.93873 0.6212 0.0
O85 O 0.67495 0.94899 0.61498 0.0
N86 N 0.61248 0.83768 0.60256 0.0
C87 C 0.52833 0.83394 0.57655 0.0
C88 C 0.56954 0.80705 0.57067 0.0
C89 C 0.61081 0.80877 0.58405 0.0
C90 C 0.5714 0.85995 0.60978 0.0
C91 C 0.52865 0.85727 0.59742 0.0
H92 H 0.64318 0.79128 0.57799 0.0
H93 H 0.57212 0.88346 0.62405 0.0
H94 H 0.75748 0.82765 0.58335 0.0
H95 H 0.6936 0.91154 0.53194 0.0
H96 H 0.68352 0.82913 0.69552 0.0
H97 H 0.57221 0.78833 0.55487 0.0
H98 H 0.49736 0.87668 0.60349 0.0
C99 C 0.59395 0.21427 0.81692 0.0
C100 C 0.60927 0.23622 0.79724 0.0
N101 N 0.65268 0.25661 0.80107 0.0
N102 N 0.62775 0.22059 0.8329 0.0
C103 C 0.66277 0.24676 0.82278 0.0
H104 H 0.5611 0.19364 0.81926 0.0
Co105 Co 0.62745 0.19259 0.86136 0.0
C106 C 0.7263 0.20536 0.87985 0.0
O107 O 0.72098 0.16195 0.88875 0.0
N108 N 0.62598 0.16443 0.89046 0.0
C109 C 0.6284 0.11599 0.92067 0.0
C110 C 0.62695 0.11759 0.89756 0.0
C111 C 0.62584 0.1903 0.90963 0.0
N112 N 0.62761 0.16178 0.92806 0.0
O113 O 0.5889 0.24655 0.87143 0.0
H114 H 0.62786 0.08624 0.88692 0.0
H115 H 0.62584 0.22952 0.91011 0.0
O116 O 0.69089 0.22438 0.86882 0.0
C117 C 0.54474 0.23456 0.87482 0.0
O118 O 0.53375 0.18826 0.87573 0.0
N119 N 0.65846 0.13874 0.84912 0.0
C120 C 0.67547 0.07614 0.81372 0.0
C121 C 0.71124 0.1087 0.8205 0.0
C122 C 0.70186 0.14021 0.83812 0.0
C123 C 0.62498 0.10456 0.84381 0.0
C124 C 0.63303 0.0723 0.82639 0.0
H125 H 0.72703 0.1694 0.84051 0.0
H126 H 0.5895 0.10601 0.8514 0.0
H127 H 0.69646 0.25611 0.83072 0.0
H128 H 0.59033 0.23646 0.78134 0.0
H129 H 0.62949 0.08381 0.93124 0.0
H130 H 0.74425 0.11297 0.81091 0.0
H131 H 0.60405 0.04842 0.82134 0.0
C132 C 0.89042 0.41351 0.65016 0.0
C133 C 0.87574 0.41301 0.67212 0.0
N134 N 0.85099 0.3717 0.67606 0.0
N135 N 0.87505 0.37285 0.64015 0.0
C136 C 0.85095 0.34797 0.65628 0.0
H137 H 0.911 0.44182 0.6419 0.0
Co138 Co 0.88863 0.36131 0.61035 0.0
C139 C 0.8706 0.25666 0.60229 0.0
O140 O 0.90744 0.25917 0.58849 0.0
N141 N 0.90288 0.35217 0.57951 0.0
C142 C 0.93873 0.34184 0.54634 0.0
C143 C 0.94581 0.34476 0.56912 0.0
C144 C 0.87054 0.35414 0.56246 0.0
N145 N 0.89143 0.34797 0.54227 0.0
O146 O 0.83002 0.39613 0.60259 0.0
H147 H 0.98044 0.34145 0.57728 0.0
H148 H 0.83232 0.3608 0.56462 0.0
O149 O 0.85603 0.29557 0.61202 0.0
C150 C 0.84143 0.44036 0.5983 0.0
O151 O 0.88756 0.45102 0.59653 0.0
N152 N 0.94802 0.3352 0.6196 0.0
C153 C 0.02819 0.32943 0.6479 0.0
C154 C 0.99471 0.29129 0.64702 0.0
C155 C 0.95399 0.29559 0.63333 0.0
C156 C 0.98263 0.37023 0.61866 0.0
C157 C 0.0231 0.368 0.63252 0.0
H158 H 0.92533 0.26991 0.63608 0.0
H159 H 0.97615 0.40282 0.60883 0.0
H160 H 0.83428 0.31304 0.65366 0.0
H161 H 0.8821 0.4415 0.68411 0.0
H162 H 0.96644 0.33788 0.53366 0.0
H163 H 0.99722 0.26064 0.65848 0.0
H164 H 0.0471 0.39894 0.63279 0.0
C165 C 0.08165 0.36821 0.90262 0.0
C166 C 0.09057 0.35003 0.92375 0.0
N167 N 0.13667 0.33443 0.92444 0.0
N168 N 0.12197 0.36429 0.89012 0.0
C169 C 0.15487 0.34299 0.90377 0.0
H170 H 0.04855 0.38525 0.89695 0.0
Co171 Co 0.12625 0.39205 0.86193 0.0
C172 C 0.22498 0.37442 0.84444 0.0
O173 O 0.22164 0.41793 0.83543 0.0
N174 N 0.12805 0.42046 0.83308 0.0
C175 C 0.132 0.46957 0.80317 0.0
C176 C 0.12995 0.46743 0.82629 0.0
C177 C 0.12794 0.39507 0.81381 0.0
N178 N 0.13057 0.42394 0.79552 0.0
O179 O 0.08719 0.33941 0.85097 0.0
H180 H 0.13049 0.49835 0.83722 0.0
H181 H 0.12697 0.35588 0.81315 0.0
O182 O 0.1891 0.35741 0.85585 0.0
C183 C 0.04314 0.35209 0.84782 0.0
O184 O 0.03273 0.39859 0.84742 0.0
N185 N 0.15823 0.44474 0.87497 0.0
C186 C 0.17435 0.49972 0.91303 0.0
C187 C 0.21072 0.46956 0.90472 0.0
C188 C 0.20182 0.44184 0.88577 0.0
C189 C 0.125 0.47853 0.88125 0.0
C190 C 0.13246 0.50678 0.90023 0.0
H191 H 0.22739 0.41356 0.88236 0.0
H192 H 0.08974 0.4788 0.87341 0.0
H193 H 0.1922 0.3369 0.89921 0.0
H194 H 0.06563 0.34975 0.93775 0.0
H195 H 0.13346 0.50199 0.79278 0.0
H196 H 0.24347 0.46316 0.91428 0.0
H197 H 0.10323 0.52927 0.9063 0.0
C198 C 0.15281 0.64788 0.17639 0.0
C199 C 0.18105 0.65848 0.19472 0.0
N200 N 0.22292 0.67799 0.18732 0.0
N201 N 0.1766 0.66114 0.15757 0.0
C202 C 0.21933 0.67838 0.16472 0.0
H203 H 0.11662 0.63313 0.17675 0.0
Co204 Co 0.15508 0.65974 0.12798 0.0
C205 C 0.22462 0.73822 0.11211 0.0
O206 O 0.25589 0.70872 0.10282 0.0
N207 N 0.13443 0.65883 0.09822 0.0
C208 C 0.11024 0.68095 0.06406 0.0
C209 C 0.11538 0.69555 0.08596 0.0
C210 C 0.14013 0.62243 0.08355 0.0
N211 N 0.12628 0.63488 0.06252 0.0
O212 O 0.21002 0.61928 0.1204 0.0
H213 H 0.10728 0.73119 0.09238 0.0
H214 H 0.15643 0.58816 0.08804 0.0
O215 O 0.18724 0.72114 0.12181 0.0
C216 C 0.19975 0.57686 0.12802 0.0
O217 O 0.15825 0.57088 0.13842 0.0
N218 N 0.09961 0.69367 0.13636 0.0
C219 C 0.01894 0.71996 0.16127 0.0
C220 C 0.06136 0.74788 0.16197 0.0
C221 C 0.10134 0.73423 0.14925 0.0
C222 C 0.05739 0.66916 0.13364 0.0
C223 C 1.01623 0.68238 0.14559 0.0
H224 H 0.13519 0.75268 0.15202 0.0
H225 H 0.0567 0.63664 0.12366 0.0
H226 H 0.24708 0.69137 0.15343 0.0
H227 H 0.17051 0.65389 0.2121 0.0
H228 H 0.09686 0.7032 0.05035 0.0
H229 H 0.06573 0.77681 0.17393 0.0
H230 H 0.98392 0.6606 0.14398 0.0
C231 C 0.93701 0.63058 0.41844 0.0
C232 C 0.9373 0.65054 0.43955 0.0
N233 N 0.91354 0.69316 0.43846 0.0
N234 N 0.91299 0.66053 0.40428 0.0
C235 C 0.89987 0.69855 0.41688 0.0
H236 H 0.95229 0.59598 0.41384 0.0
Co237 Co 0.89883 0.65148 0.37421 0.0
C238 C 0.81705 0.72189 0.36503 0.0
O239 O 0.83237 0.73405 0.34488 0.0
N240 N 0.88426 0.64241 0.34357 0.0
C241 C 0.84872 0.62109 0.31152 0.0
C242 C 0.84965 0.61408 0.33443 0.0
C243 C 0.90356 0.66634 0.32577 0.0
N244 N 0.88227 0.65442 0.30628 0.0
O245 O 0.9415 0.70496 0.36698 0.0
H246 H 0.82522 0.59083 0.3437 0.0
H247 H 0.93192 0.69308 0.32689 0.0
O248 O 0.8417 0.69259 0.37716 0.0
C249 C 0.98449 0.68797 0.36829 0.0
O250 O 0.99013 0.64146 0.37251 0.0
N251 N 0.86274 0.59687 0.38236 0.0
C252 C 0.83255 0.51329 0.40488 0.0
C253 C 0.80389 0.55534 0.40492 0.0
C254 C 0.81993 0.59709 0.39378 0.0
C255 C 0.88849 0.55512 0.38021 0.0
C256 C 0.87415 0.51287 0.39137 0.0
H257 H 0.79945 0.62997 0.39586 0.0
H258 H 0.92268 0.55587 0.37141 0.0
H259 H 0.88019 0.72959 0.41041 0.0
H260 H 0.95194 0.63403 0.45466 0.0
H261 H 0.8241 0.60452 0.29976 0.0
H262 H 0.77107 0.55708 0.41478 0.0
H263 H 0.89791 0.48169 0.39098 0.0
H264 H 0.32134 0.17505 -0.00321 0.0
H265 H 0.27456 0.25912 0.0541 0.0
H266 H 0.22004 0.30616 0.02986 0.0
H267 H 0.31976 0.27457 0.95604 0.0
H268 H 0.29745 0.2367 0.93381 0.0
H269 H 0.33361 0.21066 0.95597 0.0
H270 H 0.26474 0.14851 0.96352 0.0
H271 H 0.22857 0.17624 0.94175 0.0
H272 H 0.20487 0.17031 0.96983 0.0
H273 H 0.16989 0.34353 0.00026 0.0
H274 H 0.12654 0.36995 0.96611 0.0
H275 H 0.20588 0.26457 0.92705 0.0
C276 C 0.29977 0.2035 0.00416 0.0
C277 C 0.30192 0.21284 0.02744 0.0
C278 C 0.27291 0.25031 0.03648 0.0
C279 C 0.24203 0.27766 0.0228 0.0
C280 C 0.24053 0.26735 3e-05 0.0
C281 C 0.26853 0.23132 -0.00932 0.0
C282 C 0.25916 0.22759 0.96566 0.0
C283 C 0.30527 0.23806 0.95208 0.0
C284 C 0.23807 0.1777 0.95986 0.0
C285 C 0.22189 0.26749 0.96251 0.0
C286 C 0.21161 0.28964 0.98265 0.0
C287 C 0.17753 0.32653 0.98436 0.0
C288 C 0.1529 0.34106 0.96494 0.0
C289 C 0.16272 0.31902 0.94409 0.0
C290 C 0.19802 0.28209 0.94282 0.0
H291 H 0.24045 0.66255 0.23196 0.0
H292 H 0.29246 0.74173 0.17325 0.0
H293 H 0.35481 0.77991 0.19628 0.0
H294 H 0.25095 0.75992 0.26906 0.0
H295 H 0.2694 0.72337 0.29283 0.0
H296 H 0.23234 0.69743 0.27126 0.0
H297 H 0.29568 0.62931 0.26551 0.0
H298 H 0.33298 0.65507 0.28711 0.0
H299 H 0.35754 0.64522 0.2595 0.0
H300 H 0.40752 0.81491 0.22611 0.0
H301 H 0.44455 0.84552 0.26088 0.0
H302 H 0.35759 0.74488 0.30011 0.0
C303 C 0.26499 0.68759 0.22381 0.0
C304 C 0.26133 0.69846 0.20061 0.0
C305 C 0.29465 0.73162 0.1908 0.0
C306 C 0.33031 0.75384 0.20379 0.0
C307 C 0.33234 0.74271 0.2266 0.0
C308 C 0.30056 0.71042 0.23654 0.0
C309 C 0.30825 0.70734 0.26167 0.0
C310 C 0.26253 0.72296 0.27445 0.0
C311 C 0.3246 0.65619 0.26887 0.0
C312 C 0.34858 0.74379 0.26432 0.0
C313 C 0.36238 0.76337 0.24387 0.0
C314 C 0.39747 0.79941 0.24221 0.0
C315 C 0.41848 0.81641 0.26204 0.0
C316 C 0.40401 0.79758 0.28321 0.0
C317 C 0.3692 0.76022 0.2842 0.0
H318 H 0.83198 0.74683 0.44139 0.0
H319 H 0.9626 0.70688 0.47735 0.0
H320 H 0.93533 0.75519 0.5098 0.0
H321 H 0.82079 0.87107 0.46313 0.0
H322 H 0.75587 0.86705 0.46462 0.0
H323 H 0.78834 0.8339 0.44351 0.0
H324 H 0.74867 0.75403 0.45732 0.0
H325 H 0.71607 0.78672 0.47843 0.0
H326 H 0.75411 0.73633 0.48645 0.0
H327 H 0.89061 0.80204 0.5391 0.0
H328 H 0.83078 0.84139 0.56368 0.0
H329 H 0.7296 0.8498 0.50817 0.0
C330 C 0.85561 0.74933 0.45579 0.0
C331 C 0.8997 0.72359 0.4568 0.0
C332 C 0.92868 0.72634 0.47631 0.0
C333 C 0.91366 0.75394 0.49469 0.0
C334 C 0.8697 0.77853 0.49317 0.0
C335 C 0.84114 0.77646 0.4742 0.0
C336 C 0.79366 0.80267 0.47739 0.0
C337 C 0.78945 0.84627 0.4612 0.0
C338 C 0.75062 0.76784 0.47475 0.0
C339 C 0.79937 0.81886 0.50139 0.0
C340 C 0.84371 0.80512 0.51011 0.0
C341 C 0.85601 0.81342 0.5324 0.0
C342 C 0.82172 0.83548 0.54624 0.0
C343 C 0.77561 0.84862 0.53779 0.0
C344 C 0.76487 0.84109 0.51495 0.0
H345 H 0.77543 0.30902 0.6822 0.0
H346 H 0.87632 0.40123 0.71774 0.0
H347 H 0.83454 0.38304 0.7532 0.0
H348 H 0.67057 0.33818 0.71344 0.0
H349 H 0.64659 0.27745 0.71413 0.0
H350 H 0.68461 0.29669 0.69117 0.0
H351 H 0.74269 0.22477 0.69898 0.0
H352 H 0.70461 0.20493 0.72182 0.0
H353 H 0.76778 0.21655 0.72671 0.0
H354 H 0.77978 0.35958 0.78427 0.0
H355 H 0.72024 0.3243 0.81037 0.0
H356 H 0.65739 0.24257 0.75576 0.0
C357 C 0.78917 0.3249 0.69745 0.0
C358 C 0.82874 0.35738 0.697 0.0
C359 C 0.84534 0.3774 0.71743 0.0
C360 C 0.82202 0.36705 0.73774 0.0
C361 C 0.78245 0.33609 0.73747 0.0
C362 C 0.76655 0.31457 0.718 0.0
C363 C 0.72342 0.28204 0.7226 0.0
C364 C 0.67865 0.29967 0.70956 0.0
C365 C 0.73536 0.22893 0.71721 0.0
C366 C 0.71735 0.28929 0.74765 0.0
C367 C 0.75172 0.32084 0.75578 0.0
C368 C 0.75311 0.33422 0.77821 0.0
C369 C 0.71919 0.31385 0.79292 0.0
C370 C 0.68447 0.28018 0.78522 0.0
C371 C 0.68325 0.26834 0.76217 0.0
H372 H 0.56168 0.22023 0.94672 0.0
H373 H 0.69003 0.13575 0.96077 0.0
H374 H 0.68519 0.15827 0.00096 0.0
H375 H 0.57859 0.3166 0.98973 0.0
H376 H 0.51515 0.31713 -0.00344 0.0
H377 H 0.53444 0.30293 0.96847 0.0
H378 H 0.48767 0.22149 0.9705 0.0
H379 H 0.46777 0.23595 -0.00167 0.0
H380 H 0.49946 0.17993 -0.00656 0.0
H381 H 0.66134 0.183 0.03985 0.0
H382 H 0.61485 0.19688 0.07456 0.0
H383 H 0.49859 0.25971 0.03483 0.0
C384 C 0.58943 0.20789 0.95827 0.0
C385 C 0.62671 0.17718 0.95092 0.0
C386 C 0.66156 0.15974 0.96634 0.0
C387 C 0.65926 0.17271 0.98904 0.0
C388 C 0.62155 0.20269 -0.00407 0.0
C389 C 0.58688 0.21954 0.98101 0.0
C390 C 0.54588 0.24449 -0.00693 0.0
C391 C 0.5434 0.2985 0.98657 0.0
C392 C 0.49738 0.21892 0.98858 0.0
C393 C 0.56206 0.23769 0.01717 0.0
C394 C 0.60644 0.21484 0.01848 0.0
C395 C 0.62678 0.20132 0.03903 0.0
C396 C 0.60001 0.20921 0.05867 0.0
C397 C 0.55292 0.22937 0.05755 0.0
C398 C 0.5349 0.24554 0.03653 0.0
H399 H 0.38151 0.07011 0.30212 0.0
H400 H 0.28712 0.95065 0.28409 0.0
H401 H 0.28128 0.98315 0.24581 0.0
H402 H 0.32917 0.16328 0.26401 0.0
H403 H 0.38768 0.18781 0.25703 0.0
H404 H 0.37749 0.16067 0.28429 0.0
H405 H 0.44964 0.10247 0.27788 0.0
H406 H 0.45978 0.12904 0.25057 0.0
H407 H 0.45021 0.06463 0.25339 0.0
H408 H 0.2921 0.02249 0.20856 0.0
H409 H 0.31825 0.0669 0.17482 0.0
H410 H 0.41212 0.1563 0.21567 0.0
C411 C 0.35904 0.05097 0.2903 0.0
C412 C 0.33435 1.00792 0.29654 0.0
C413 C 0.30528 0.98446 0.28028 0.0
C414 C 0.30204 1.00238 0.25827 0.0
C415 C 0.32828 0.04365 0.25257 0.0
C416 C 0.35614 0.0678 0.26808 0.0
C417 C 0.38454 0.10851 0.25702 0.0
C418 C 0.36876 0.158 0.26613 0.0
C419 C 0.43927 0.10067 0.25988 0.0
C420 C 0.36918 0.10253 0.2328 0.0
C421 C 0.33619 0.06535 0.23071 0.0
C422 C 0.31779 0.05184 0.20997 0.0
C423 C 0.33347 0.07704 0.19081 0.0
C424 C 0.36782 0.11503 0.19239 0.0
C425 C 0.38557 0.1279 0.2138 0.0
H426 H 0.41827 0.81836 0.45412 0.0
H427 H 0.35587 0.96036 0.46524 0.0
H428 H 0.37789 0.9545 0.50535 0.0
H429 H 0.38356 0.76497 0.50955 0.0
H430 H 0.43906 0.731 0.51179 0.0
H431 H 0.4133 0.74383 0.48456 0.0
H432 H 0.49367 0.78371 0.47182 0.0
H433 H 0.51962 0.77089 0.49892 0.0
H434 H 0.51881 0.83221 0.48815 0.0
H435 H 0.41723 0.93884 0.54216 0.0
H436 H 0.46962 0.91494 0.57325 0.0
H437 H 0.49993 0.77825 0.54007 0.0
C438 C 0.40884 0.84795 0.46508 0.0
C439 C 0.38542 0.88987 0.45663 0.0
C440 C 0.37334 0.92775 0.47146 0.0
C441 C 0.38568 0.92471 0.49424 0.0
C442 C 0.4093 0.88314 0.50199 0.0
C443 C 0.42031 0.84518 0.48793 0.0
C444 C 0.44851 0.80595 0.50021 0.0
C445 C 0.41935 0.75864 0.50161 0.0
C446 C 0.49808 0.79775 0.48911 0.0
C447 C 0.45355 0.82887 0.52309 0.0
C448 C 0.43032 0.87315 0.52377 0.0
C449 C 0.43439 0.90356 0.54213 0.0
C450 C 0.46418 0.88911 0.55998 0.0
C451 C 0.4894 0.84414 0.55963 0.0
C452 C 0.48207 0.81303 0.54114 0.0
H453 H 0.65357 0.98245 0.8025 0.0
H454 H 0.69975 0.1206 0.77433 0.0
H455 H 0.69265 0.08765 0.73617 0.0
H456 H 0.7156 0.90692 0.76179 0.0
H457 H 0.66779 0.86266 0.76115 0.0
H458 H 0.67831 0.89698 0.78622 0.0
H459 H 0.58898 0.92538 0.78558 0.0
H460 H 0.57844 0.89191 0.76024 0.0
H461 H 0.56565 0.95597 0.76096 0.0
H462 H 0.67709 0.0412 0.70117 0.0
H463 H 0.66381 0.98086 0.6716 0.0
H464 H 0.62724 0.87293 0.72231 0.0
C465 C 0.66278 1.00543 0.78828 0.0
C466 C 0.67774 0.05379 0.79133 0.0
C467 C 0.68928 0.08305 0.77236 0.0
C468 C 0.68477 0.06489 0.75062 0.0
C469 C 0.66883 1.01742 0.74818 0.0
C470 C 0.65875 0.98781 0.76646 0.0
C471 C 0.64277 0.93798 0.75915 0.0
C472 C 0.67824 0.89883 0.76757 0.0
C473 C 0.59087 0.92721 0.76695 0.0
C474 C 0.64532 0.94431 0.73392 0.0
C475 C 0.65995 0.99055 0.72794 0.0
C476 C 0.66547 1.00489 0.70561 0.0
C477 C 0.65725 0.97052 0.68892 0.0
C478 C 0.64393 0.92238 0.69472 0.0
C479 C 0.63709 0.90957 0.71749 0.0
H480 H 0.06871 0.35979 0.77796 0.0
H481 H 0.1878 0.45523 0.76158 0.0
H482 H 0.18334 0.42994 0.72172 0.0
H483 H 0.09483 0.26269 0.73753 0.0
H484 H 0.03183 0.25428 0.73099 0.0
H485 H 0.04944 0.27414 0.75854 0.0
H486 H 0.99389 0.34963 0.75445 0.0
H487 H 0.97567 0.32952 0.72715 0.0
H488 H 1.00091 0.38923 0.73038 0.0
H489 H 0.16198 0.39767 0.68342 0.0
H490 H 0.11898 0.37113 0.64937 0.0
H491 H 1.01004 0.3023 0.6914 0.0
C492 C 0.09447 0.37437 0.76599 0.0
C493 C 0.12906 0.40872 0.77262 0.0
C494 C 0.16127 0.42862 0.75659 0.0
C495 C 0.15922 0.41414 0.73408 0.0
C496 C 0.12441 0.38016 0.72799 0.0
C497 C 0.09217 0.3611 0.74348 0.0
C498 C 0.05422 0.33025 0.73233 0.0
C499 C 0.05783 0.27719 0.74033 0.0
C500 C 1.0032 0.35091 0.7363 0.0
C501 C 0.06948 0.33568 0.70807 0.0
C502 C 0.11068 0.36354 0.7059 0.0
C503 C 0.1298 0.37563 0.68493 0.0
C504 C 0.105 0.36053 0.66568 0.0
C505 C 0.06095 0.33456 0.66755 0.0
C506 C 0.04417 0.3208 0.68913 0.0
H507 H 0.15408 0.589 0.93114 0.0
H508 H 0.19295 0.44085 0.94865 0.0
H509 H 0.18391 0.45936 0.98878 0.0
H510 H 0.21627 0.64511 0.9788 0.0
H511 H 0.17024 0.69069 0.98234 0.0
H512 H 0.18176 0.66618 0.95494 0.0
H513 H 0.09147 0.64249 0.95162 0.0
H514 H 0.07982 0.66625 0.97914 0.0
H515 H 0.06458 0.6043 0.97295 0.0
H516 H 0.16446 0.49154 0.02644 0.0
H517 H 0.14488 0.53772 0.06011 0.0
H518 H 0.12313 0.66702 0.01879 0.0
C519 C 0.16145 0.56087 0.94351 0.0
C520 C 0.1749 0.51377 0.93689 0.0
C521 C 0.18373 0.47751 0.95343 0.0
C522 C 0.17824 0.48751 0.97624 0.0
C523 C 0.16431 0.53407 0.98223 0.0
C524 C 0.15679 0.57043 0.96645 0.0
C525 C 0.14209 0.61734 0.97755 0.0
C526 C 0.17985 0.65718 0.97315 0.0
C527 C 0.09148 0.63353 0.96985 0.0
C528 C 0.14196 0.60137 0.00198 0.0
C529 C 0.1545 0.55313 0.00422 0.0
C530 C 0.15544 0.52964 0.02498 0.0
C531 C 0.1444 0.55649 0.0441 0.0
C532 C 0.13323 0.60668 0.04245 0.0
C533 C 0.13143 0.62897 0.02092 0.0
H534 H 0.97034 0.64534 0.18171 0.0
H535 H 0.98799 0.80169 0.18372 0.0
H536 H 0.94545 0.80295 0.22012 0.0
H537 H 0.84784 0.64215 0.21036 0.0
H538 H 0.86346 0.58611 0.22445 0.0
H539 H 0.88696 0.59913 0.1968 0.0
H540 H 0.97377 0.58561 0.21184 0.0
H541 H 0.95097 0.5738 0.23958 0.0
H542 H 0.99491 0.6211 0.23511 0.0
H543 H 0.91721 0.78465 0.25939 0.0
H544 H 0.896 0.74923 0.29651 0.0
H545 H 0.89155 0.60619 0.26745 0.0
C546 C 0.96323 0.68034 0.18905 0.0
C547 C 0.98279 0.72343 0.17971 0.0
C548 C 0.97395 0.76805 0.19059 0.0
C549 C 0.94952 0.76918 0.21122 0.0
C550 C 0.9331 0.72557 0.22048 0.0
C551 C 0.93846 0.68214 0.20942 0.0
C552 C 0.92166 0.63973 0.22373 0.0
C553 C 0.87733 0.61535 0.21321 0.0
C554 C 0.96279 0.60294 0.2278 0.0
C555 C 0.90835 0.66575 0.24504 0.0
C556 C 0.91494 0.71531 0.24283 0.0
C557 C 0.9105 0.74614 0.26111 0.0
C558 C 0.89895 0.72578 0.28211 0.0
C559 C 0.89172 0.67522 0.28456 0.0
C560 C 0.89574 0.64508 0.26574 0.0
H561 H 0.80236 0.52292 0.44826 0.0
H562 H 0.84761 0.41499 0.4001 0.0
H563 H 0.85441 0.35452 0.43077 0.0
H564 H 0.88061 0.49603 0.48808 0.0
H565 H 0.8419 0.50481 0.51205 0.0
H566 H 0.82926 0.53618 0.48617 0.0
H567 H 0.74307 0.49987 0.48535 0.0
H568 H 0.75507 0.46885 0.51158 0.0
H569 H 0.73512 0.43512 0.48755 0.0
H570 H 0.87561 0.31326 0.46695 0.0
H571 H 0.90163 0.29219 0.50568 0.0
H572 H 0.83678 0.42425 0.53002 0.0
C573 C 0.81114 0.48597 0.44386 0.0
C574 C 0.82443 0.47384 0.42169 0.0
C575 C 0.83763 0.42535 0.41696 0.0
C576 C 0.84125 0.39063 0.43427 0.0
C577 C 0.83046 0.40463 0.45613 0.0
C578 C 0.81446 0.45089 0.46089 0.0
C579 C 0.81071 0.4587 0.48596 0.0
C580 C 0.84253 0.50141 0.49348 0.0
C581 C 0.75784 0.46605 0.49302 0.0
C582 C 0.83008 0.41072 0.49458 0.0
C583 C 0.84077 0.37973 0.47714 0.0
C584 C 0.86569 0.33634 0.48079 0.0
C585 C 0.88054 0.32473 0.50272 0.0
C586 C 0.86998 0.35612 0.52066 0.0
C587 C 0.84343 0.39892 0.5166 0.0
H588 H 0.30716 0.78876 0.10056 0.0
H589 H 0.15911 0.80931 0.12245 0.0
H590 H 0.17154 0.89784 0.12274 0.0
H591 H 0.35875 0.88356 0.13366 0.0
H592 H 0.40172 0.90156 0.11242 0.0
H593 H 0.38078 0.83983 0.11384 0.0
H594 H 0.35319 0.84561 0.07229 0.0
H595 H 0.37407 0.90736 0.07076 0.0
H596 H 0.31235 0.89332 0.06373 0.0
H597 H 0.20129 0.98611 0.12101 0.0
H598 H 0.24588 0.06398 0.11703 0.0
H599 H 0.37292 0.98421 0.09584 0.0
C600 C 0.27726 0.81181 0.10533 0.0
C601 C 0.23226 0.79173 0.11166 0.0
C602 C 0.1942 0.82349 0.11784 0.0
C603 C 0.20081 0.87403 0.11795 0.0
C604 C 0.24572 0.89264 0.1118 0.0
C605 C 0.28325 0.86239 0.10557 0.0
C606 C 0.32809 0.8913 0.09983 0.0
C607 C 0.36978 0.87829 0.1159 0.0
C608 C 0.34277 0.88396 0.07519 0.0
C609 C 0.30995 0.94242 0.10371 0.0
C610 C 0.26242 0.94275 0.11065 0.0
C611 C 0.23854 0.98619 0.11549 0.0
C612 C 0.26405 0.03029 0.11318 0.0
C613 C 0.31283 0.03051 0.10605 0.0
C614 C 0.33561 0.98574 0.10126 0.0
H615 H 0.74276 0.75788 0.33914 0.0
H616 H 0.77881 0.71627 0.4076 0.0
H617 H 0.69452 0.73234 0.41917 0.0
H618 H 0.66193 0.85512 0.35289 0.0
H619 H 0.62129 0.84255 0.33003 0.0
H620 H 0.68435 0.82753 0.32762 0.0
H621 H 0.6611 0.73868 0.31889 0.0
H622 H 0.59795 0.75332 0.32177 0.0
H623 H 0.62405 0.70511 0.33849 0.0
H624 H 0.60488 0.75489 0.42325 0.0
H625 H 0.52147 0.78778 0.41964 0.0
H626 H 0.54498 0.81177 0.34856 0.0
C627 C 0.73314 0.75251 0.35662 0.0
C628 C 0.76758 0.73574 0.37243 0.0
C629 C 0.75313 0.72889 0.39511 0.0
C630 C 0.70521 0.73776 0.40184 0.0
C631 C 0.67188 0.75317 0.38569 0.0
C632 C 0.68544 0.76079 0.36357 0.0
C633 C 0.64317 0.77826 0.34949 0.0
C634 C 0.65329 0.82887 0.33943 0.0
C635 C 0.63086 0.74165 0.33107 0.0
C636 C 0.60382 0.77997 0.36714 0.0
C637 C 0.62075 0.76502 0.38793 0.0
C638 C 0.59114 0.76595 0.40697 0.0
C639 C 0.54368 0.78409 0.40477 0.0
C640 C 0.52645 0.8007 0.3837 0.0
C641 C 0.55674 0.79775 0.3647 0.0
H642 H 0.69452 0.03304 0.62769 0.0
H643 H 0.81958 0.93931 0.621 0.0
H644 H 0.87238 1.012 0.61998 0.0
H645 H 0.72954 0.12 0.58937 0.0
H646 H 0.70618 0.17143 0.60434 0.0
H647 H 0.67932 0.11265 0.60838 0.0
H648 H 0.69402 0.11776 0.65124 0.0
H649 H 0.72054 0.17696 0.64738 0.0
H650 H 0.75402 0.12964 0.66156 0.0
H651 H 0.90957 0.09447 0.61469 0.0
H652 H 0.92985 0.17927 0.60618 0.0
H653 H 0.78013 0.22107 0.61577 0.0
C654 C 0.73318 0.02754 0.62653 0.0
C655 C 0.75299 0.98022 0.62449 0.0
C656 C 0.80365 0.97492 0.62287 0.0
C657 C 0.8338 1.01611 0.62221 0.0
C658 C 0.81274 0.06223 0.62344 0.0
C659 C 0.76357 0.06811 0.62584 0.0
C660 C 0.74942 0.12149 0.62502 0.0
C661 C 0.71404 0.13198 0.60562 0.0
C662 C 0.72825 0.1374 0.64764 0.0
C663 C 0.79816 0.14499 0.62077 0.0
C664 C 0.83417 0.11002 0.62028 0.0
C665 C 0.88173 0.12202 0.61531 0.0
C666 C 0.89275 0.1705 0.61034 0.0
C667 C 0.85657 0.20711 0.6102 0.0
C668 C 0.80868 0.1942 0.61601 0.0
H669 H 0.45684 0.23617 0.89597 0.0
H670 H 0.54048 0.30733 0.84365 0.0
H671 H 0.4665 0.34806 0.8298 0.0
H672 H 0.35297 0.21241 0.86638 0.0
H673 H 0.30996 0.22775 0.88791 0.0
H674 H 0.36967 0.20763 0.89559 0.0
H675 H 0.38259 0.28511 0.91848 0.0
H676 H 0.32318 0.30697 0.91097 0.0
H677 H 0.37547 0.34368 0.90516 0.0
H678 H 0.38281 0.37105 0.81837 0.0
H679 H 0.29668 0.39105 0.81463 0.0
H680 H 0.26557 0.3102 0.87589 0.0
C681 C 0.45973 0.26172 0.8821 0.0
C682 C 0.50451 0.26909 0.871 0.0
C683 C 0.50689 0.30206 0.85269 0.0
C684 C 0.46488 0.32479 0.84453 0.0
C685 C 0.42098 0.31503 0.85519 0.0
C686 C 0.41827 0.28575 0.87409 0.0
C687 C 0.36641 0.28216 0.88252 0.0
C688 C 0.34874 0.22933 0.88312 0.0
C689 C 0.36165 0.30585 0.90566 0.0
C690 C 0.34004 0.31171 0.86465 0.0
C691 C 0.37247 0.33018 0.84909 0.0
C692 C 0.35726 0.3576 0.83069 0.0
C693 C 0.30805 0.36845 0.82866 0.0
C694 C 0.27412 0.35245 0.845 0.0
C695 C 0.29033 0.32263 0.863 0.0
H696 H 0.85827 0.5363 0.58853 0.0
H697 H 0.74513 0.43746 0.61019 0.0
H698 H 0.69074 0.50751 0.61613 0.0
H699 H 0.83634 0.62658 0.62818 0.0
H700 H 0.84849 0.67724 0.60966 0.0
H701 H 0.87711 0.61963 0.60482 0.0
H702 H 0.84286 0.61853 0.56438 0.0
H703 H 0.81456 0.67648 0.56898 0.0
H704 H 0.77879 0.62568 0.56 0.0
H705 H 0.65156 0.58778 0.62283 0.0
H706 H 0.62703 0.67207 0.62799 0.0
H707 H 0.76541 0.72144 0.60195 0.0
C708 C 0.82172 0.52914 0.59412 0.0
C709 C 0.80592 0.48103 0.5988 0.0
C710 C 0.75796 0.47365 0.60627 0.0
C711 C 0.72692 0.51333 0.60978 0.0
C712 C 0.74421 0.5602 0.60561 0.0
C713 C 0.79031 0.56831 0.59769 0.0
C714 C 0.80058 0.62244 0.5954 0.0
C715 C 0.84315 0.63733 0.61041 0.0
C716 C 0.80973 0.63662 0.57072 0.0
C717 C 0.75331 0.6437 0.60378 0.0
C718 C 0.72143 0.6069 0.60946 0.0
C719 C 0.67607 0.61677 0.61823 0.0
C720 C 0.66262 0.66521 0.62118 0.0
C721 C 0.69418 0.70408 0.61541 0.0
C722 C 0.74033 0.6929 0.60652 0.0
H723 H 0.76305 0.28139 0.85337 0.0
H724 H 0.80443 0.17254 0.90305 0.0
H725 H 0.8898 0.19304 0.89739 0.0
H726 H 0.86466 0.26273 0.81595 0.0
H727 H 0.87068 0.32627 0.80908 0.0
H728 H 0.81266 0.30188 0.81696 0.0
H729 H 0.80637 0.36621 0.84838 0.0
H730 H 0.86475 0.38974 0.84062 0.0
H731 H 0.85375 0.3698 0.86909 0.0
H732 H 0.97159 0.22169 0.88526 0.0
H733 H 0.04323 0.2677 0.87241 0.0
H734 H 0.95062 0.36062 0.83186 0.0
C735 C 0.78995 0.26224 0.86322 0.0
C736 C 0.77654 0.22483 0.87848 0.0
C737 C 0.81332 0.201 0.89109 0.0
C738 C 0.86221 0.21215 0.88792 0.0
C739 C 0.87434 0.24767 0.87219 0.0
C740 C 0.83936 0.27317 0.86038 0.0
C741 C 0.86263 0.31081 0.84504 0.0
C742 C 0.85205 0.29978 0.82028 0.0
C743 C 0.84589 0.36219 0.85116 0.0
C744 C 0.91581 0.30296 0.85046 0.0
C745 C 0.92175 0.26551 0.86577 0.0
C746 C 0.96744 0.2512 0.87329 0.0
C747 C 1.00805 0.27715 0.86569 0.0
C748 C 1.00265 0.31748 0.85101 0.0
C749 C 0.95592 0.32968 0.84295 0.0
H750 H 0.20591 0.49758 0.15494 0.0
H751 H 0.25763 0.55586 0.09151 0.0
H752 H 0.29285 0.47536 0.0825 0.0
H753 H 0.30893 0.41614 0.16619 0.0
H754 H 0.27065 0.37035 0.17862 0.0
H755 H 0.2542 0.4334 0.18045 0.0
H756 H 0.17134 0.41406 0.16243 0.0
H757 H 0.18784 0.35118 0.16011 0.0
H758 H 0.16942 0.38497 0.13548 0.0
H759 H 0.31494 0.38518 0.07928 0.0
H760 H 0.32959 0.29728 0.08351 0.0
H761 H 0.2638 0.29947 0.14962 0.0
C762 C 0.22563 0.49377 0.13935 0.0
C763 C 0.22944 0.53304 0.12397 0.0
C764 C 0.2551 0.52652 0.10368 0.0
C765 C 0.27475 0.48079 0.09838 0.0
C766 C 0.26878 0.44233 0.11367 0.0
C767 C 0.24553 0.44877 0.13393 0.0
C768 C 0.24251 0.40178 0.14731 0.0
C769 C 0.27077 0.40566 0.16945 0.0
C770 C 0.18964 0.38716 0.15157 0.0
C771 C 0.26693 0.36729 0.1313 0.0
C772 C 0.28183 0.39125 0.11197 0.0
C773 C 0.30408 0.36644 0.09451 0.0
C774 C 0.31228 0.31636 0.09711 0.0
C775 C 0.29849 0.29129 0.11705 0.0
C776 C 0.27493 0.31733 0.13419 0.0
H777 H 0.25352 0.75051 0.40389 0.0
H778 H 0.27281 0.81577 0.33784 0.0
H779 H 0.18673 0.80183 0.32946 0.0
H780 H 0.17282 0.65593 0.38533 0.0
H781 H 0.1374 0.6569 0.41072 0.0
H782 H 0.20022 0.67358 0.41145 0.0
H783 H 0.17674 0.75581 0.4291 0.0
H784 H 0.11372 0.73975 0.42796 0.0
H785 H 0.13442 0.79499 0.41471 0.0
H786 H 0.09601 0.78301 0.32885 0.0
H787 H 1.01363 0.74859 0.33391 0.0
H788 H 0.05573 0.69182 0.39911 0.0
C789 C 0.23984 0.76166 0.3876 0.0
C790 C 0.27009 0.78521 0.37175 0.0
C791 C 0.25047 0.79859 0.35053 0.0
C792 C 0.20141 0.79089 0.34558 0.0
C793 C 0.17226 0.76906 0.36188 0.0
C794 C 0.19109 0.75368 0.38227 0.0
C795 C 0.15283 0.72883 0.39646 0.0
C796 C 0.16664 0.67566 0.40126 0.0
C797 C 0.14391 0.75651 0.41835 0.0
C798 C 0.1096 0.73254 0.3809 0.0
C799 C 0.12112 0.75661 0.36116 0.0
C800 C 0.08667 0.76412 0.34426 0.0
C801 C 0.03985 0.74501 0.34733 0.0
C802 C 0.02837 0.71827 0.36699 0.0
C803 C 0.06352 0.71277 0.38404 0.0
loop_
_geom_bond_atom_site_label_1
_geom_bond_atom_site_label_2
_geom_bond_distance
_geom_bond_site_symmetry_2
_ccdc_geom_bond_type
C0 C1 1.351 . S
C0 N3 1.368 . S
C0 H5 0.931 . S
C1 C0 1.351 . S
C1 N2 1.373 . S
C1 H29 0.930 . S
N2 C1 1.373 . S
N2 C4 1.340 . S
N3 C0 1.368 . S
N3 C4 1.321 . S
N3 Co6 2.135 . S
C4 N2 1.340 . S
C4 N3 1.321 . S
C4 H28 0.930 . S
H5 C0 0.931 . S
Co6 N3 2.135 . S
Co6 N9 2.121 . S
Co6 O14 2.055 . S
Co6 O17 2.039 . S
Co6 N20 2.140 . S
C7 O8 1.227 . S
C7 O17 1.265 . S
O8 C7 1.227 . S
N9 Co6 2.121 . S
N9 C11 1.375 . S
N9 C12 1.313 . S
C10 C11 1.338 . S
C10 N13 1.377 . S
C10 H30 0.930 . S
C11 N9 1.375 . S
C11 C10 1.338 . S
C11 H15 0.931 . S
C12 N9 1.313 . S
C12 N13 1.344 . S
C12 H16 0.930 . S
N13 C10 1.377 . S
N13 C12 1.344 . S
O14 Co6 2.055 . S
O14 C18 1.253 . S
H15 C11 0.931 . S
H16 C12 0.930 . S
O17 Co6 2.039 . S
O17 C7 1.265 . S
C18 O14 1.253 . S
C18 O19 1.227 . S
O19 C18 1.227 . S
N20 Co6 2.140 . S
N20 C23 1.346 . S
N20 C24 1.345 . S
C21 C22 1.387 . S
C21 C25 1.391 . S
C22 C21 1.387 . S
C22 C23 1.369 . S
C22 H31 0.929 . S
C23 N20 1.346 . S
C23 C22 1.369 . S
C23 H26 0.928 . S
C24 N20 1.345 . S
C24 C25 1.371 . S
C24 H27 0.931 . S
C25 C21 1.391 . S
C25 C24 1.371 . S
C25 H32 0.930 . S
H26 C23 0.928 . S
H27 C24 0.931 . S
H28 C4 0.930 . S
H29 C1 0.930 . S
H30 C10 0.930 . S
H31 C22 0.929 . S
H32 C25 0.930 . S
C33 C34 1.351 . S
C33 N36 1.368 . S
C33 H38 0.931 . S
C34 C33 1.351 . S
C34 N35 1.373 . S
C34 H62 0.930 . S
N35 C34 1.373 . S
N35 C37 1.340 . S
N36 C33 1.368 . S
N36 C37 1.321 . S
N36 Co39 2.135 . S
C37 N35 1.340 . S
C37 N36 1.321 . S
C37 H61 0.930 . S
H38 C33 0.931 . S
Co39 N36 2.135 . S
Co39 N42 2.121 . S
Co39 O47 2.055 . S
Co39 O50 2.039 . S
Co39 N53 2.140 . S
C40 O41 1.227 . S
C40 O50 1.265 . S
O41 C40 1.227 . S
N42 Co39 2.121 . S
N42 C44 1.375 . S
N42 C45 1.313 . S
C43 C44 1.338 . S
C43 N46 1.377 . S
C43 H63 0.930 . S
C44 N42 1.375 . S
C44 C43 1.338 . S
C44 H48 0.931 . S
C45 N42 1.313 . S
C45 N46 1.344 . S
C45 H49 0.930 . S
N46 C43 1.377 . S
N46 C45 1.344 . S
O47 Co39 2.055 . S
O47 C51 1.253 . S
H48 C44 0.931 . S
H49 C45 0.930 . S
O50 Co39 2.039 . S
O50 C40 1.265 . S
C51 O47 1.253 . S
C51 O52 1.227 . S
O52 C51 1.227 . S
N53 Co39 2.140 . S
N53 C56 1.346 . S
N53 C57 1.345 . S
C54 C55 1.387 1_545 S
C54 C58 1.391 1_545 S
C55 C54 1.387 1_565 S
C55 C56 1.369 . S
C55 H64 0.929 . S
C56 N53 1.346 . S
C56 C55 1.369 . S
C56 H59 0.928 . S
C57 N53 1.345 . S
C57 C58 1.371 . S
C57 H60 0.931 . S
C58 C54 1.391 1_565 S
C58 C57 1.371 . S
C58 H65 0.930 1_565 S
H59 C56 0.928 . S
H60 C57 0.931 . S
H61 C37 0.930 . S
H62 C34 0.930 . S
H63 C43 0.930 . S
H64 C55 0.929 . S
H65 C58 0.930 1_545 S
C66 C67 1.351 . S
C66 N69 1.368 . S
C66 H71 0.931 . S
C67 C66 1.351 . S
C67 N68 1.373 . S
C67 H95 0.930 . S
N68 C67 1.373 . S
N68 C70 1.340 . S
N69 C66 1.368 . S
N69 C70 1.321 . S
N69 Co72 2.135 . S
C70 N68 1.340 . S
C70 N69 1.321 . S
C70 H94 0.930 . S
H71 C66 0.931 . S
Co72 N69 2.135 . S
Co72 N75 2.121 . S
Co72 O80 2.055 . S
Co72 O83 2.039 . S
Co72 N86 2.140 . S
C73 O74 1.227 . S
C73 O83 1.265 . S
O74 C73 1.227 . S
N75 Co72 2.121 . S
N75 C77 1.375 . S
N75 C78 1.313 . S
C76 C77 1.338 . S
C76 N79 1.377 . S
C76 H96 0.930 . S
C77 N75 1.375 . S
C77 C76 1.338 . S
C77 H81 0.931 . S
C78 N75 1.313 . S
C78 N79 1.344 . S
C78 H82 0.930 . S
N79 C76 1.377 . S
N79 C78 1.344 . S
O80 Co72 2.055 . S
O80 C84 1.253 . S
H81 C77 0.931 . S
H82 C78 0.930 . S
O83 Co72 2.039 . S
O83 C73 1.265 . S
C84 O80 1.253 . S
C84 O85 1.227 . S
O85 C84 1.227 . S
N86 Co72 2.140 . S
N86 C89 1.346 . S
N86 C90 1.345 . S
C87 C88 1.387 . S
C87 C91 1.391 . S
C88 C87 1.387 . S
C88 C89 1.369 . S
C88 H97 0.929 . S
C89 N86 1.346 . S
C89 C88 1.369 . S
C89 H92 0.928 . S
C90 N86 1.345 . S
C90 C91 1.371 . S
C90 H93 0.931 . S
C91 C87 1.391 . S
C91 C90 1.371 . S
C91 H98 0.930 . S
H92 C89 0.928 . S
H93 C90 0.931 . S
H94 C70 0.930 . S
H95 C67 0.930 . S
H96 C76 0.930 . S
H97 C88 0.929 . S
H98 C91 0.930 . S
C99 C100 1.351 . S
C99 N102 1.368 . S
C99 H104 0.931 . S
C100 C99 1.351 . S
C100 N101 1.373 . S
C100 H128 0.930 . S
N101 C100 1.373 . S
N101 C103 1.340 . S
N102 C99 1.368 . S
N102 C103 1.321 . S
N102 Co105 2.135 . S
C103 N101 1.340 . S
C103 N102 1.321 . S
C103 H127 0.930 . S
H104 C99 0.931 . S
Co105 N102 2.135 . S
Co105 N108 2.121 . S
Co105 O113 2.055 . S
Co105 O116 2.039 . S
Co105 N119 2.140 . S
C106 O107 1.227 . S
C106 O116 1.265 . S
O107 C106 1.227 . S
N108 Co105 2.121 . S
N108 C110 1.375 . S
N108 C111 1.313 . S
C109 C110 1.338 . S
C109 N112 1.377 . S
C109 H129 0.930 . S
C110 N108 1.375 . S
C110 C109 1.338 . S
C110 H114 0.931 . S
C111 N108 1.313 . S
C111 N112 1.344 . S
C111 H115 0.930 . S
N112 C109 1.377 . S
N112 C111 1.344 . S
O113 Co105 2.055 . S
O113 C117 1.253 . S
H114 C110 0.931 . S
H115 C111 0.930 . S
O116 Co105 2.039 . S
O116 C106 1.265 . S
C117 O113 1.253 . S
C117 O118 1.227 . S
O118 C117 1.227 . S
N119 Co105 2.140 . S
N119 C122 1.346 . S
N119 C123 1.345 . S
C120 C121 1.387 1_565 S
C120 C124 1.391 1_565 S
C121 C120 1.387 1_545 S
C121 C122 1.369 . S
C121 H130 0.929 . S
C122 N119 1.346 . S
C122 C121 1.369 . S
C122 H125 0.928 . S
C123 N119 1.345 . S
C123 C124 1.371 . S
C123 H126 0.931 . S
C124 C120 1.391 1_545 S
C124 C123 1.371 . S
C124 H131 0.930 1_545 S
H125 C122 0.928 . S
H126 C123 0.931 . S
H127 C103 0.930 . S
H128 C100 0.930 . S
H129 C109 0.930 . S
H130 C121 0.929 . S
H131 C124 0.930 1_565 S
C132 C133 1.351 . S
C132 N135 1.368 . S
C132 H137 0.931 . S
C133 C132 1.351 . S
C133 N134 1.373 . S
C133 H161 0.930 . S
N134 C133 1.373 . S
N134 C136 1.340 . S
N135 C132 1.368 . S
N135 C136 1.321 . S
N135 Co138 2.135 . S
C136 N134 1.340 . S
C136 N135 1.321 . S
C136 H160 0.930 . S
H137 C132 0.931 . S
Co138 N135 2.135 . S
Co138 N141 2.121 . S
Co138 O146 2.055 . S
Co138 O149 2.039 . S
Co138 N152 2.140 . S
C139 O140 1.227 . S
C139 O149 1.265 . S
O140 C139 1.227 . S
N141 Co138 2.121 . S
N141 C143 1.375 . S
N141 C144 1.313 . S
C142 C143 1.338 . S
C142 N145 1.377 . S
C142 H162 0.930 . S
C143 N141 1.375 . S
C143 C142 1.338 . S
C143 H147 0.931 . S
C144 N141 1.313 . S
C144 N145 1.344 . S
C144 H148 0.930 . S
N145 C142 1.377 . S
N145 C144 1.344 . S
O146 Co138 2.055 . S
O146 C150 1.253 . S
H147 C143 0.931 . S
H148 C144 0.930 . S
O149 Co138 2.039 . S
O149 C139 1.265 . S
C150 O146 1.253 . S
C150 O151 1.227 . S
O151 C150 1.227 . S
N152 Co138 2.140 . S
N152 C155 1.346 . S
N152 C156 1.345 . S
C153 C154 1.387 1_455 S
C153 C157 1.391 1_455 S
C154 C153 1.387 1_655 S
C154 C155 1.369 . S
C154 H163 0.929 . S
C155 N152 1.346 . S
C155 C154 1.369 . S
C155 H158 0.928 . S
C156 N152 1.345 . S
C156 C157 1.371 . S
C156 H159 0.931 . S
C157 C153 1.391 1_655 S
C157 C156 1.371 . S
C157 H164 0.930 1_655 S
H158 C155 0.928 . S
H159 C156 0.931 . S
H160 C136 0.930 . S
H161 C133 0.930 . S
H162 C142 0.930 . S
H163 C154 0.929 . S
H164 C157 0.930 1_455 S
C165 C166 1.351 . S
C165 N168 1.368 . S
C165 H170 0.931 . S
C166 C165 1.351 . S
C166 N167 1.373 . S
C166 H194 0.930 . S
N167 C166 1.373 . S
N167 C169 1.340 . S
N168 C165 1.368 . S
N168 C169 1.321 . S
N168 Co171 2.135 . S
C169 N167 1.340 . S
C169 N168 1.321 . S
C169 H193 0.930 . S
H170 C165 0.931 . S
Co171 N168 2.135 . S
Co171 N174 2.121 . S
Co171 O179 2.055 . S
Co171 O182 2.039 . S
Co171 N185 2.140 . S
C172 O173 1.227 . S
C172 O182 1.265 . S
O173 C172 1.227 . S
N174 Co171 2.121 . S
N174 C176 1.375 . S
N174 C177 1.313 . S
C175 C176 1.338 . S
C175 N178 1.377 . S
C175 H195 0.930 . S
C176 N174 1.375 . S
C176 C175 1.338 . S
C176 H180 0.931 . S
C177 N174 1.313 . S
C177 N178 1.344 . S
C177 H181 0.930 . S
N178 C175 1.377 . S
N178 C177 1.344 . S
O179 Co171 2.055 . S
O179 C183 1.253 . S
H180 C176 0.931 . S
H181 C177 0.930 . S
O182 Co171 2.039 . S
O182 C172 1.265 . S
C183 O179 1.253 . S
C183 O184 1.227 . S
O184 C183 1.227 . S
N185 Co171 2.140 . S
N185 C188 1.346 . S
N185 C189 1.345 . S
C186 C187 1.387 . S
C186 C190 1.391 . S
C187 C186 1.387 . S
C187 C188 1.369 . S
C187 H196 0.929 . S
C188 N185 1.346 . S
C188 C187 1.369 . S
C188 H191 0.928 . S
C189 N185 1.345 . S
C189 C190 1.371 . S
C189 H192 0.931 . S
C190 C186 1.391 . S
C190 C189 1.371 . S
C190 H197 0.930 . S
H191 C188 0.928 . S
H192 C189 0.931 . S
H193 C169 0.930 . S
H194 C166 0.930 . S
H195 C175 0.930 . S
H196 C187 0.929 . S
H197 C190 0.930 . S
C198 C199 1.351 . S
C198 N201 1.368 . S
C198 H203 0.931 . S
C199 C198 1.351 . S
C199 N200 1.373 . S
C199 H227 0.930 . S
N200 C199 1.373 . S
N200 C202 1.340 . S
N201 C198 1.368 . S
N201 C202 1.321 . S
N201 Co204 2.135 . S
C202 N200 1.340 . S
C202 N201 1.321 . S
C202 H226 0.930 . S
H203 C198 0.931 . S
Co204 N201 2.135 . S
Co204 N207 2.121 . S
Co204 O212 2.055 . S
Co204 O215 2.039 . S
Co204 N218 2.140 . S
C205 O206 1.227 . S
C205 O215 1.265 . S
O206 C205 1.227 . S
N207 Co204 2.121 . S
N207 C209 1.375 . S
N207 C210 1.313 . S
C208 C209 1.338 . S
C208 N211 1.377 . S
C208 H228 0.930 . S
C209 N207 1.375 . S
C209 C208 1.338 . S
C209 H213 0.931 . S
C210 N207 1.313 . S
C210 N211 1.344 . S
C210 H214 0.930 . S
N211 C208 1.377 . S
N211 C210 1.344 . S
O212 Co204 2.055 . S
O212 C216 1.253 . S
H213 C209 0.931 . S
H214 C210 0.930 . S
O215 Co204 2.039 . S
O215 C205 1.265 . S
C216 O212 1.253 . S
C216 O217 1.227 . S
O217 C216 1.227 . S
N218 Co204 2.140 . S
N218 C221 1.346 . S
N218 C222 1.345 . S
C219 C220 1.387 1_655 S
C219 C223 1.391 1_655 S
C220 C219 1.387 1_455 S
C220 C221 1.369 . S
C220 H229 0.929 . S
C221 N218 1.346 . S
C221 C220 1.369 . S
C221 H224 0.928 . S
C222 N218 1.345 . S
C222 C223 1.371 . S
C222 H225 0.931 . S
C223 C219 1.391 1_455 S
C223 C222 1.371 . S
C223 H230 0.930 1_455 S
H224 C221 0.928 . S
H225 C222 0.931 . S
H226 C202 0.930 . S
H227 C199 0.930 . S
H228 C208 0.930 . S
H229 C220 0.929 . S
H230 C223 0.930 1_655 S
C231 C232 1.351 . S
C231 N234 1.368 . S
C231 H236 0.931 . S
C232 C231 1.351 . S
C232 N233 1.373 . S
C232 H260 0.930 . S
N233 C232 1.373 . S
N233 C235 1.340 . S
N234 C231 1.368 . S
N234 C235 1.321 . S
N234 Co237 2.135 . S
C235 N233 1.340 . S
C235 N234 1.321 . S
C235 H259 0.930 . S
H236 C231 0.931 . S
Co237 N234 2.135 . S
Co237 N240 2.121 . S
Co237 O245 2.055 . S
Co237 O248 2.039 . S
Co237 N251 2.140 . S
C238 O239 1.227 . S
C238 O248 1.265 . S
O239 C238 1.227 . S
N240 Co237 2.121 . S
N240 C242 1.375 . S
N240 C243 1.313 . S
C241 C242 1.338 . S
C241 N244 1.377 . S
C241 H261 0.930 . S
C242 N240 1.375 . S
C242 C241 1.338 . S
C242 H246 0.931 . S
C243 N240 1.313 . S
C243 N244 1.344 . S
C243 H247 0.930 . S
N244 C241 1.377 . S
N244 C243 1.344 . S
O245 Co237 2.055 . S
O245 C249 1.253 . S
H246 C242 0.931 . S
H247 C243 0.930 . S
O248 Co237 2.039 . S
O248 C238 1.265 . S
C249 O245 1.253 . S
C249 O250 1.227 . S
O250 C249 1.227 . S
N251 Co237 2.140 . S
N251 C254 1.346 . S
N251 C255 1.345 . S
C252 C253 1.387 . S
C252 C256 1.391 . S
C253 C252 1.387 . S
C253 C254 1.369 . S
C253 H262 0.929 . S
C254 N251 1.346 . S
C254 C253 1.369 . S
C254 H257 0.928 . S
C255 N251 1.345 . S
C255 C256 1.371 . S
C255 H258 0.931 . S
C256 C252 1.391 . S
C256 C255 1.371 . S
C256 H263 0.930 . S
H257 C254 0.928 . S
H258 C255 0.931 . S
H259 C235 0.930 . S
H260 C232 0.930 . S
H261 C241 0.930 . S
H262 C253 0.929 . S
H263 C256 0.930 . S
H264 C276 0.930 . S
H265 C278 0.930 . S
H266 C279 0.930 . S
H267 C283 0.959 . S
H268 C283 0.959 . S
H269 C283 0.961 . S
H270 C284 0.960 . S
H271 C284 0.961 . S
H272 C284 0.959 . S
H273 C287 0.929 1_554 S
H274 C288 0.931 . S
H275 C290 0.930 . S
C276 H264 0.930 . S
C276 C277 1.399 . S
C276 C281 1.399 . S
C277 C276 1.399 . S
C277 C278 1.376 . S
C278 H265 0.930 . S
C278 C277 1.376 . S
C278 C279 1.388 . S
C279 H266 0.930 . S
C279 C278 1.388 . S
C279 C280 1.390 . S
C280 C279 1.390 . S
C280 C281 1.394 . S
C280 C286 1.465 1_554 S
C281 C276 1.399 . S
C281 C280 1.394 . S
C281 C282 1.516 1_554 S
C282 C281 1.516 1_556 S
C282 C283 1.502 . S
C282 C284 1.561 . S
C282 C285 1.526 . S
C283 H267 0.959 . S
C283 H268 0.959 . S
C283 H269 0.961 . S
C283 C282 1.502 . S
C284 H270 0.960 . S
C284 H271 0.961 . S
C284 H272 0.959 . S
C284 C282 1.561 . S
C285 C282 1.526 . S
C285 C286 1.396 . S
C285 C290 1.390 . S
C286 C280 1.465 1_556 S
C286 C285 1.396 . S
C286 C287 1.399 . S
C287 H273 0.929 1_556 S
C287 C286 1.399 . S
C287 C288 1.385 . S
C288 H274 0.931 . S
C288 C287 1.385 . S
C288 C289 1.389 . S
C289 C288 1.389 . S
C289 C290 1.387 . S
C290 H275 0.930 . S
C290 C285 1.390 . S
C290 C289 1.387 . S
H291 C303 0.930 . S
H292 C305 0.930 . S
H293 C306 0.930 . S
H294 C310 0.959 . S
H295 C310 0.959 . S
H296 C310 0.961 . S
H297 C311 0.960 . S
H298 C311 0.961 . S
H299 C311 0.959 . S
H300 C314 0.929 . S
H301 C315 0.931 . S
H302 C317 0.930 . S
C303 H291 0.930 . S
C303 C304 1.399 . S
C303 C308 1.399 . S
C304 C303 1.399 . S
C304 C305 1.376 . S
C305 H292 0.930 . S
C305 C304 1.376 . S
C305 C306 1.388 . S
C306 H293 0.930 . S
C306 C305 1.388 . S
C306 C307 1.390 . S
C307 C306 1.390 . S
C307 C308 1.394 . S
C307 C313 1.465 . S
C308 C303 1.399 . S
C308 C307 1.394 . S
C308 C309 1.516 . S
C309 C308 1.516 . S
C309 C310 1.502 . S
C309 C311 1.561 . S
C309 C312 1.526 . S
C310 H294 0.959 . S
C310 H295 0.959 . S
C310 H296 0.961 . S
C310 C309 1.502 . S
C311 H297 0.960 . S
C311 H298 0.961 . S
C311 H299 0.959 . S
C311 C309 1.561 . S
C312 C309 1.526 . S
C312 C313 1.396 . S
C312 C317 1.390 . S
C313 C307 1.465 . S
C313 C312 1.396 . S
C313 C314 1.399 . S
C314 H300 0.929 . S
C314 C313 1.399 . S
C314 C315 1.385 . S
C315 H301 0.931 . S
C315 C314 1.385 . S
C315 C316 1.389 . S
C316 C315 1.389 . S
C316 C317 1.387 . S
C317 H302 0.930 . S
C317 C312 1.390 . S
C317 C316 1.387 . S
H318 C330 0.930 . S
H319 C332 0.930 . S
H320 C333 0.930 . S
H321 C337 0.959 . S
H322 C337 0.959 . S
H323 C337 0.961 . S
H324 C338 0.960 . S
H325 C338 0.961 . S
H326 C338 0.959 . S
H327 C341 0.929 . S
H328 C342 0.931 . S
H329 C344 0.930 . S
C330 H318 0.930 . S
C330 C331 1.399 . S
C330 C335 1.399 . S
C331 C330 1.399 . S
C331 C332 1.376 . S
C332 H319 0.930 . S
C332 C331 1.376 . S
C332 C333 1.388 . S
C333 H320 0.930 . S
C333 C332 1.388 . S
C333 C334 1.390 . S
C334 C333 1.390 . S
C334 C335 1.394 . S
C334 C340 1.465 . S
C335 C330 1.399 . S
C335 C334 1.394 . S
C335 C336 1.516 . S
C336 C335 1.516 . S
C336 C337 1.502 . S
C336 C338 1.561 . S
C336 C339 1.526 . S
C337 H321 0.959 . S
C337 H322 0.959 . S
C337 H323 0.961 . S
C337 C336 1.502 . S
C338 H324 0.960 . S
C338 H325 0.961 . S
C338 H326 0.959 . S
C338 C336 1.561 . S
C339 C336 1.526 . S
C339 C340 1.396 . S
C339 C344 1.390 . S
C340 C334 1.465 . S
C340 C339 1.396 . S
C340 C341 1.399 . S
C341 H327 0.929 . S
C341 C340 1.399 . S
C341 C342 1.385 . S
C342 H328 0.931 . S
C342 C341 1.385 . S
C342 C343 1.389 . S
C343 C342 1.389 . S
C343 C344 1.387 . S
C344 H329 0.930 . S
C344 C339 1.390 . S
C344 C343 1.387 . S
H345 C357 0.930 . S
H346 C359 0.930 . S
H347 C360 0.930 . S
H348 C364 0.959 . S
H349 C364 0.959 . S
H350 C364 0.961 . S
H351 C365 0.960 . S
H352 C365 0.961 . S
H353 C365 0.959 . S
H354 C368 0.929 . S
H355 C369 0.931 . S
H356 C371 0.930 . S
C357 H345 0.930 . S
C357 C358 1.399 . S
C357 C362 1.399 . S
C358 C357 1.399 . S
C358 C359 1.376 . S
C359 H346 0.930 . S
C359 C358 1.376 . S
C359 C360 1.388 . S
C360 H347 0.930 . S
C360 C359 1.388 . S
C360 C361 1.390 . S
C361 C360 1.390 . S
C361 C362 1.394 . S
C361 C367 1.465 . S
C362 C357 1.399 . S
C362 C361 1.394 . S
C362 C363 1.516 . S
C363 C362 1.516 . S
C363 C364 1.502 . S
C363 C365 1.561 . S
C363 C366 1.526 . S
C364 H348 0.959 . S
C364 H349 0.959 . S
C364 H350 0.961 . S
C364 C363 1.502 . S
C365 H351 0.960 . S
C365 H352 0.961 . S
C365 H353 0.959 . S
C365 C363 1.561 . S
C366 C363 1.526 . S
C366 C367 1.396 . S
C366 C371 1.390 . S
C367 C361 1.465 . S
C367 C366 1.396 . S
C367 C368 1.399 . S
C368 H354 0.929 . S
C368 C367 1.399 . S
C368 C369 1.385 . S
C369 H355 0.931 . S
C369 C368 1.385 . S
C369 C370 1.389 . S
C370 C369 1.389 . S
C370 C371 1.387 . S
C371 H356 0.930 . S
C371 C366 1.390 . S
C371 C370 1.387 . S
H372 C384 0.930 . S
H373 C386 0.930 . S
H374 C387 0.930 . S
H375 C391 0.959 1_554 S
H376 C391 0.959 1_554 S
H377 C391 0.961 . S
H378 C392 0.960 . S
H379 C392 0.961 . S
H380 C392 0.959 . S
H381 C395 0.929 . S
H382 C396 0.931 . S
H383 C398 0.930 . S
C384 H372 0.930 . S
C384 C385 1.399 . S
C384 C389 1.399 . S
C385 C384 1.399 . S
C385 C386 1.376 . S
C386 H373 0.930 . S
C386 C385 1.376 . S
C386 C387 1.388 . S
C387 H374 0.930 . S
C387 C386 1.388 . S
C387 C388 1.390 . S
C388 C387 1.390 . S
C388 C389 1.394 . S
C388 C394 1.465 1_556 S
C389 C384 1.399 . S
C389 C388 1.394 . S
C389 C390 1.516 . S
C390 C389 1.516 . S
C390 C391 1.502 . S
C390 C392 1.561 . S
C390 C393 1.526 1_556 S
C391 H375 0.959 1_556 S
C391 H376 0.959 1_556 S
C391 H377 0.961 . S
C391 C390 1.502 . S
C392 H378 0.960 . S
C392 H379 0.961 . S
C392 H380 0.959 . S
C392 C390 1.561 . S
C393 C390 1.526 1_554 S
C393 C394 1.396 . S
C393 C398 1.390 . S
C394 C388 1.465 1_554 S
C394 C393 1.396 . S
C394 C395 1.399 . S
C395 H381 0.929 . S
C395 C394 1.399 . S
C395 C396 1.385 . S
C396 H382 0.931 . S
C396 C395 1.385 . S
C396 C397 1.389 . S
C397 C396 1.389 . S
C397 C398 1.387 . S
C398 H383 0.930 . S
C398 C393 1.390 . S
C398 C397 1.387 . S
H399 C411 0.930 . S
H400 C413 0.917 1_565 S
H401 C414 0.930 1_565 S
H402 C418 0.959 . S
H403 C418 0.959 . S
H404 C418 0.961 . S
H405 C419 0.960 . S
H406 C419 0.961 . S
H407 C419 0.959 . S
H408 C422 0.929 1_565 S
H409 C423 0.931 . S
H410 C425 0.930 . S
C411 H399 0.930 . S
C411 C412 1.399 . S
C411 C416 1.399 . S
C412 C411 1.399 . S
C412 C413 1.389 . S
C413 H400 0.917 1_545 S
C413 C412 1.389 . S
C413 C414 1.389 . S
C414 H401 0.930 1_545 S
C414 C413 1.389 . S
C414 C415 1.390 . S
C415 C414 1.390 . S
C415 C416 1.394 . S
C415 C421 1.465 . S
C416 C411 1.399 . S
C416 C415 1.394 . S
C416 C417 1.516 . S
C417 C416 1.516 . S
C417 C418 1.502 . S
C417 C419 1.561 . S
C417 C420 1.526 . S
C418 H402 0.959 . S
C418 H403 0.959 . S
C418 H404 0.961 . S
C418 C417 1.502 . S
C419 H405 0.960 . S
C419 H406 0.961 . S
C419 H407 0.959 . S
C419 C417 1.561 . S
C420 C417 1.526 . S
C420 C421 1.396 . S
C420 C425 1.390 . S
C421 C415 1.465 . S
C421 C420 1.396 . S
C421 C422 1.399 . S
C422 H408 0.929 1_545 S
C422 C421 1.399 . S
C422 C423 1.385 . S
C423 H409 0.931 . S
C423 C422 1.385 . S
C423 C424 1.389 . S
C424 C423 1.389 . S
C424 C425 1.387 . S
C425 H410 0.930 . S
C425 C420 1.390 . S
C425 C424 1.387 . S
H426 C438 0.930 . S
H427 C440 0.930 . S
H428 C441 0.930 . S
H429 C445 0.959 . S
H430 C445 0.959 . S
H431 C445 0.961 . S
H432 C446 0.960 . S
H433 C446 0.961 . S
H434 C446 0.959 . S
H435 C449 0.929 . S
H436 C450 0.931 . S
H437 C452 0.930 . S
C438 H426 0.930 . S
C438 C439 1.399 . S
C438 C443 1.399 . S
C439 C438 1.399 . S
C439 C440 1.376 . S
C440 H427 0.930 . S
C440 C439 1.376 . S
C440 C441 1.388 . S
C441 H428 0.930 . S
C441 C440 1.388 . S
C441 C442 1.390 . S
C442 C441 1.390 . S
C442 C443 1.394 . S
C442 C448 1.465 . S
C443 C438 1.399 . S
C443 C442 1.394 . S
C443 C444 1.516 . S
C444 C443 1.516 . S
C444 C445 1.502 . S
C444 C446 1.561 . S
C444 C447 1.526 . S
C445 H429 0.959 . S
C445 H430 0.959 . S
C445 H431 0.961 . S
C445 C444 1.502 . S
C446 H432 0.960 . S
C446 H433 0.961 . S
C446 H434 0.959 . S
C446 C444 1.561 . S
C447 C444 1.526 . S
C447 C448 1.396 . S
C447 C452 1.390 . S
C448 C442 1.465 . S
C448 C447 1.396 . S
C448 C449 1.399 . S
C449 H435 0.929 . S
C449 C448 1.399 . S
C449 C450 1.385 . S
C450 H436 0.931 . S
C450 C449 1.385 . S
C450 C451 1.389 . S
C451 C450 1.389 . S
C451 C452 1.387 . S
C452 H437 0.930 . S
C452 C447 1.390 . S
C452 C451 1.387 . S
H453 C465 0.930 . S
H454 C467 0.930 . S
H455 C468 0.930 . S
H456 C472 0.959 . S
H457 C472 0.959 . S
H458 C472 0.961 . S
H459 C473 0.960 . S
H460 C473 0.961 . S
H461 C473 0.959 . S
H462 C476 0.929 1_545 S
H463 C477 0.931 . S
H464 C479 0.930 . S
C465 H453 0.930 . S
C465 C466 1.399 . S
C465 C470 1.399 . S
C466 C465 1.399 . S
C466 C467 1.376 1_565 S
C467 H454 0.930 . S
C467 C466 1.376 1_545 S
C467 C468 1.388 . S
C468 H455 0.930 . S
C468 C467 1.388 . S
C468 C469 1.390 1_545 S
C469 C468 1.390 1_565 S
C469 C470 1.394 . S
C469 C475 1.465 . S
C470 C465 1.399 . S
C470 C469 1.394 . S
C470 C471 1.516 . S
C471 C470 1.516 . S
C471 C472 1.502 . S
C471 C473 1.561 . S
C471 C474 1.526 . S
C472 H456 0.959 . S
C472 H457 0.959 . S
C472 H458 0.961 . S
C472 C471 1.502 . S
C473 H459 0.960 . S
C473 H460 0.961 . S
C473 H461 0.959 . S
C473 C471 1.561 . S
C474 C471 1.526 . S
C474 C475 1.396 . S
C474 C479 1.390 . S
C475 C469 1.465 . S
C475 C474 1.396 . S
C475 C476 1.399 . S
C476 H462 0.929 1_565 S
C476 C475 1.399 . S
C476 C477 1.385 . S
C477 H463 0.931 . S
C477 C476 1.385 . S
C477 C478 1.389 . S
C478 C477 1.389 . S
C478 C479 1.387 . S
C479 H464 0.930 . S
C479 C474 1.390 . S
C479 C478 1.387 . S
H480 C492 0.930 . S
H481 C494 0.930 . S
H482 C495 0.930 1_655 S
H483 C499 0.959 . S
H484 C499 0.959 . S
H485 C499 0.961 . S
H486 C500 0.960 . S
H487 C500 0.961 . S
H488 C500 0.959 . S
H489 C503 0.929 . S
H490 C504 0.931 . S
H491 C506 0.930 . S
C492 H480 0.930 . S
C492 C493 1.399 . S
C492 C497 1.399 . S
C493 C492 1.399 . S
C493 C494 1.376 . S
C494 H481 0.930 . S
C494 C493 1.376 . S
C494 C495 1.388 . S
C495 H482 0.930 1_455 S
C495 C494 1.388 . S
C495 C496 1.390 . S
C496 C495 1.390 . S
C496 C497 1.394 . S
C496 C502 1.465 . S
C497 C492 1.399 . S
C497 C496 1.394 . S
C497 C498 1.516 . S
C498 C497 1.516 . S
C498 C499 1.502 . S
C498 C500 1.561 . S
C498 C501 1.526 . S
C499 H483 0.959 . S
C499 H484 0.959 . S
C499 H485 0.961 . S
C499 C498 1.502 . S
C500 H486 0.960 . S
C500 H487 0.961 . S
C500 H488 0.959 . S
C500 C498 1.561 . S
C501 C498 1.526 . S
C501 C502 1.396 . S
C501 C506 1.390 . S
C502 C496 1.465 . S
C502 C501 1.396 . S
C502 C503 1.399 1_455 S
C503 H489 0.929 . S
C503 C502 1.399 1_655 S
C503 C504 1.385 . S
C504 H490 0.931 . S
C504 C503 1.385 . S
C504 C505 1.389 1_655 S
C505 C504 1.389 1_455 S
C505 C506 1.387 . S
C506 H491 0.930 . S
C506 C501 1.390 . S
C506 C505 1.387 . S
H507 C519 0.930 . S
H508 C521 0.930 . S
H509 C522 0.930 . S
H510 C526 0.959 . S
H511 C526 0.959 . S
H512 C526 0.961 1_556 S
H513 C527 0.960 . S
H514 C527 0.961 1_554 S
H515 C527 0.959 . S
H516 C530 0.929 . S
H517 C531 0.931 . S
H518 C533 0.930 . S
C519 H507 0.930 . S
C519 C520 1.399 . S
C519 C524 1.399 . S
C520 C519 1.399 . S
C520 C521 1.376 . S
C521 H508 0.930 . S
C521 C520 1.376 . S
C521 C522 1.388 . S
C522 H509 0.930 . S
C522 C521 1.388 . S
C522 C523 1.390 . S
C523 C522 1.390 . S
C523 C524 1.394 . S
C523 C529 1.465 1_556 S
C524 C519 1.399 . S
C524 C523 1.394 . S
C524 C525 1.516 . S
C525 C524 1.516 . S
C525 C526 1.502 1_556 S
C525 C527 1.561 . S
C525 C528 1.526 1_556 S
C526 H510 0.959 . S
C526 H511 0.959 . S
C526 H512 0.961 1_554 S
C526 C525 1.502 1_554 S
C527 H513 0.960 . S
C527 H514 0.961 1_556 S
C527 H515 0.959 . S
C527 C525 1.561 . S
C528 C525 1.526 1_554 S
C528 C529 1.396 . S
C528 C533 1.390 . S
C529 C523 1.465 1_554 S
C529 C528 1.396 . S
C529 C530 1.399 . S
C530 H516 0.929 . S
C530 C529 1.399 . S
C530 C531 1.385 . S
C531 H517 0.931 . S
C531 C530 1.385 . S
C531 C532 1.389 . S
C532 C531 1.389 . S
C532 C533 1.387 . S
C533 H518 0.930 . S
C533 C528 1.390 . S
C533 C532 1.387 . S
H534 C546 0.930 . S
H535 C548 0.930 . S
H536 C549 0.930 . S
H537 C553 0.959 . S
H538 C553 0.959 . S
H539 C553 0.961 . S
H540 C554 0.960 . S
H541 C554 0.961 . S
H542 C554 0.959 . S
H543 C557 0.929 . S
H544 C558 0.931 . S
H545 C560 0.930 . S
C546 H534 0.930 . S
C546 C547 1.399 . S
C546 C551 1.399 . S
C547 C546 1.399 . S
C547 C548 1.376 . S
C548 H535 0.930 . S
C548 C547 1.376 . S
C548 C549 1.388 . S
C549 H536 0.930 . S
C549 C548 1.388 . S
C549 C550 1.390 . S
C550 C549 1.390 . S
C550 C551 1.394 . S
C550 C556 1.465 . S
C551 C546 1.399 . S
C551 C550 1.394 . S
C551 C552 1.516 . S
C552 C551 1.516 . S
C552 C553 1.502 . S
C552 C554 1.561 1_655 S
C552 C555 1.526 . S
C553 H537 0.959 . S
C553 H538 0.959 . S
C553 H539 0.961 . S
C553 C552 1.502 . S
C554 H540 0.960 . S
C554 H541 0.961 . S
C554 H542 0.959 . S
C554 C552 1.561 1_455 S
C555 C552 1.526 . S
C555 C556 1.396 . S
C555 C560 1.390 . S
C556 C550 1.465 . S
C556 C555 1.396 . S
C556 C557 1.399 . S
C557 H543 0.929 . S
C557 C556 1.399 . S
C557 C558 1.385 . S
C558 H544 0.931 . S
C558 C557 1.385 . S
C558 C559 1.389 . S
C559 C558 1.389 . S
C559 C560 1.387 . S
C560 H545 0.930 . S
C560 C555 1.390 . S
C560 C559 1.387 . S
H561 C573 0.930 . S
H562 C575 0.930 . S
H563 C576 0.930 . S
H564 C580 0.959 . S
H565 C580 0.959 . S
H566 C580 0.961 . S
H567 C581 0.960 . S
H568 C581 0.961 . S
H569 C581 0.959 . S
H570 C584 0.929 . S
H571 C585 0.931 . S
H572 C587 0.930 . S
C573 H561 0.930 . S
C573 C574 1.399 . S
C573 C578 1.399 . S
C574 C573 1.399 . S
C574 C575 1.376 . S
C575 H562 0.930 . S
C575 C574 1.376 . S
C575 C576 1.388 . S
C576 H563 0.930 . S
C576 C575 1.388 . S
C576 C577 1.390 . S
C577 C576 1.390 . S
C577 C578 1.394 . S
C577 C583 1.465 . S
C578 C573 1.399 . S
C578 C577 1.394 . S
C578 C579 1.516 . S
C579 C578 1.516 . S
C579 C580 1.502 . S
C579 C581 1.561 . S
C579 C582 1.526 . S
C580 H564 0.959 . S
C580 H565 0.959 . S
C580 H566 0.961 . S
C580 C579 1.502 . S
C581 H567 0.960 . S
C581 H568 0.961 . S
C581 H569 0.959 . S
C581 C579 1.561 . S
C582 C579 1.526 . S
C582 C583 1.396 . S
C582 C587 1.390 . S
C583 C577 1.465 . S
C583 C582 1.396 . S
C583 C584 1.399 . S
C584 H570 0.929 . S
C584 C583 1.399 . S
C584 C585 1.385 . S
C585 H571 0.931 . S
C585 C584 1.385 . S
C585 C586 1.389 . S
C586 C585 1.389 . S
C586 C587 1.387 . S
C587 H572 0.930 . S
C587 C582 1.390 . S
C587 C586 1.387 . S
H588 C600 0.930 . S
H589 C602 0.930 . S
H590 C603 0.930 . S
H591 C607 0.959 . S
H592 C607 0.959 . S
H593 C607 0.961 . S
H594 C608 0.960 . S
H595 C608 0.961 . S
H596 C608 0.959 . S
H597 C611 0.929 . S
H598 C612 0.931 . S
H599 C614 0.930 . S
C600 H588 0.930 . S
C600 C601 1.399 . S
C600 C605 1.399 . S
C601 C600 1.399 . S
C601 C602 1.376 . S
C602 H589 0.930 . S
C602 C601 1.376 . S
C602 C603 1.388 . S
C603 H590 0.930 . S
C603 C602 1.388 . S
C603 C604 1.390 . S
C604 C603 1.390 . S
C604 C605 1.394 . S
C604 C610 1.465 . S
C605 C600 1.399 . S
C605 C604 1.394 . S
C605 C606 1.516 . S
C606 C605 1.516 . S
C606 C607 1.502 . S
C606 C608 1.561 . S
C606 C609 1.526 . S
C607 H591 0.959 . S
C607 H592 0.959 . S
C607 H593 0.961 . S
C607 C606 1.502 . S
C608 H594 0.960 . S
C608 H595 0.961 . S
C608 H596 0.959 . S
C608 C606 1.561 . S
C609 C606 1.526 . S
C609 C610 1.396 . S
C609 C614 1.390 . S
C610 C604 1.465 . S
C610 C609 1.396 . S
C610 C611 1.399 . S
C611 H597 0.929 . S
C611 C610 1.399 . S
C611 C612 1.385 1_565 S
C612 H598 0.931 . S
C612 C611 1.385 1_545 S
C612 C613 1.389 . S
C613 C612 1.389 . S
C613 C614 1.387 1_545 S
C614 H599 0.930 . S
C614 C609 1.390 . S
C614 C613 1.387 1_565 S
H615 C627 0.930 . S
H616 C629 0.930 . S
H617 C630 0.930 . S
H618 C634 0.959 . S
H619 C634 0.959 . S
H620 C634 0.961 . S
H621 C635 0.960 . S
H622 C635 0.961 . S
H623 C635 0.959 . S
H624 C638 0.929 . S
H625 C639 0.931 . S
H626 C641 0.930 . S
C627 H615 0.930 . S
C627 C628 1.399 . S
C627 C632 1.399 . S
C628 C627 1.399 . S
C628 C629 1.376 . S
C629 H616 0.930 . S
C629 C628 1.376 . S
C629 C630 1.388 . S
C630 H617 0.930 . S
C630 C629 1.388 . S
C630 C631 1.390 . S
C631 C630 1.390 . S
C631 C632 1.394 . S
C631 C637 1.465 . S
C632 C627 1.399 . S
C632 C631 1.394 . S
C632 C633 1.516 . S
C633 C632 1.516 . S
C633 C634 1.502 . S
C633 C635 1.561 . S
C633 C636 1.526 . S
C634 H618 0.959 . S
C634 H619 0.959 . S
C634 H620 0.961 . S
C634 C633 1.502 . S
C635 H621 0.960 . S
C635 H622 0.961 . S
C635 H623 0.959 . S
C635 C633 1.561 . S
C636 C633 1.526 . S
C636 C637 1.396 . S
C636 C641 1.390 . S
C637 C631 1.465 . S
C637 C636 1.396 . S
C637 C638 1.399 . S
C638 H624 0.929 . S
C638 C637 1.399 . S
C638 C639 1.385 . S
C639 H625 0.931 . S
C639 C638 1.385 . S
C639 C640 1.389 . S
C640 C639 1.389 . S
C640 C641 1.387 . S
C641 H626 0.930 . S
C641 C636 1.390 . S
C641 C640 1.387 . S
H642 C654 0.930 . S
H643 C656 0.930 . S
H644 C657 0.930 . S
H645 C661 0.959 . S
H646 C661 0.959 . S
H647 C661 0.961 . S
H648 C662 0.960 . S
H649 C662 0.961 . S
H650 C662 0.959 . S
H651 C665 0.929 . S
H652 C666 0.931 . S
H653 C668 0.930 . S
C654 H642 0.930 . S
C654 C655 1.399 1_545 S
C654 C659 1.399 . S
C655 C654 1.399 1_565 S
C655 C656 1.376 . S
C656 H643 0.930 . S
C656 C655 1.376 . S
C656 C657 1.388 1_565 S
C657 H644 0.930 . S
C657 C656 1.388 1_545 S
C657 C658 1.390 . S
C658 C657 1.390 . S
C658 C659 1.394 . S
C658 C664 1.465 . S
C659 C654 1.399 . S
C659 C658 1.394 . S
C659 C660 1.516 . S
C660 C659 1.516 . S
C660 C661 1.502 . S
C660 C662 1.561 . S
C660 C663 1.526 . S
C661 H645 0.959 . S
C661 H646 0.959 . S
C661 H647 0.961 . S
C661 C660 1.502 . S
C662 H648 0.960 . S
C662 H649 0.961 . S
C662 H650 0.959 . S
C662 C660 1.561 . S
C663 C660 1.526 . S
C663 C664 1.396 . S
C663 C668 1.390 . S
C664 C658 1.465 . S
C664 C663 1.396 . S
C664 C665 1.399 . S
C665 H651 0.929 . S
C665 C664 1.399 . S
C665 C666 1.385 . S
C666 H652 0.931 . S
C666 C665 1.385 . S
C666 C667 1.389 . S
C667 C666 1.389 . S
C667 C668 1.387 . S
C668 H653 0.930 . S
C668 C663 1.390 . S
C668 C667 1.387 . S
H669 C681 0.930 . S
H670 C683 0.930 . S
H671 C684 0.930 . S
H672 C688 0.959 . S
H673 C688 0.959 . S
H674 C688 0.961 . S
H675 C689 0.960 . S
H676 C689 0.961 . S
H677 C689 0.959 . S
H678 C692 0.929 . S
H679 C693 0.931 . S
H680 C695 0.930 . S
C681 H669 0.930 . S
C681 C682 1.399 . S
C681 C686 1.399 . S
C682 C681 1.399 . S
C682 C683 1.376 . S
C683 H670 0.930 . S
C683 C682 1.376 . S
C683 C684 1.388 . S
C684 H671 0.930 . S
C684 C683 1.388 . S
C684 C685 1.390 . S
C685 C684 1.390 . S
C685 C686 1.394 . S
C685 C691 1.465 . S
C686 C681 1.399 . S
C686 C685 1.394 . S
C686 C687 1.516 . S
C687 C686 1.516 . S
C687 C688 1.502 . S
C687 C689 1.561 . S
C687 C690 1.526 . S
C688 H672 0.959 . S
C688 H673 0.959 . S
C688 H674 0.961 . S
C688 C687 1.502 . S
C689 H675 0.960 . S
C689 H676 0.961 . S
C689 H677 0.959 . S
C689 C687 1.561 . S
C690 C687 1.526 . S
C690 C691 1.396 . S
C690 C695 1.390 . S
C691 C685 1.465 . S
C691 C690 1.396 . S
C691 C692 1.399 . S
C692 H678 0.929 . S
C692 C691 1.399 . S
C692 C693 1.385 . S
C693 H679 0.931 . S
C693 C692 1.385 . S
C693 C694 1.389 . S
C694 C693 1.389 . S
C694 C695 1.387 . S
C695 H680 0.930 . S
C695 C690 1.390 . S
C695 C694 1.387 . S
H696 C708 0.930 . S
H697 C710 0.930 . S
H698 C711 0.930 . S
H699 C715 0.959 . S
H700 C715 0.959 . S
H701 C715 0.961 . S
H702 C716 0.960 . S
H703 C716 0.961 . S
H704 C716 0.959 . S
H705 C719 0.929 . S
H706 C720 0.931 . S
H707 C722 0.930 . S
C708 H696 0.930 . S
C708 C709 1.399 . S
C708 C713 1.399 . S
C709 C708 1.399 . S
C709 C710 1.376 . S
C710 H697 0.930 . S
C710 C709 1.376 . S
C710 C711 1.388 . S
C711 H698 0.930 . S
C711 C710 1.388 . S
C711 C712 1.390 . S
C712 C711 1.390 . S
C712 C713 1.394 . S
C712 C718 1.465 . S
C713 C708 1.399 . S
C713 C712 1.394 . S
C713 C714 1.516 . S
C714 C713 1.516 . S
C714 C715 1.502 . S
C714 C716 1.561 . S
C714 C717 1.526 . S
C715 H699 0.959 . S
C715 H700 0.959 . S
C715 H701 0.961 . S
C715 C714 1.502 . S
C716 H702 0.960 . S
C716 H703 0.961 . S
C716 H704 0.959 . S
C716 C714 1.561 . S
C717 C714 1.526 . S
C717 C718 1.396 . S
C717 C722 1.390 . S
C718 C712 1.465 . S
C718 C717 1.396 . S
C718 C719 1.399 . S
C719 H705 0.929 . S
C719 C718 1.399 . S
C719 C720 1.385 . S
C720 H706 0.931 . S
C720 C719 1.385 . S
C720 C721 1.389 . S
C721 C720 1.389 . S
C721 C722 1.387 . S
C722 H707 0.930 . S
C722 C717 1.390 . S
C722 C721 1.387 . S
H723 C735 0.930 . S
H724 C737 0.930 . S
H725 C738 0.930 . S
H726 C742 0.959 . S
H727 C742 0.959 . S
H728 C742 0.961 . S
H729 C743 0.960 . S
H730 C743 0.961 . S
H731 C743 0.959 . S
H732 C746 0.929 . S
H733 C747 0.931 . S
H734 C749 0.930 . S
C735 H723 0.930 . S
C735 C736 1.399 . S
C735 C740 1.399 . S
C736 C735 1.399 . S
C736 C737 1.376 . S
C737 H724 0.930 . S
C737 C736 1.376 . S
C737 C738 1.388 . S
C738 H725 0.930 . S
C738 C737 1.388 . S
C738 C739 1.390 . S
C739 C738 1.390 . S
C739 C740 1.394 . S
C739 C745 1.465 . S
C740 C735 1.399 . S
C740 C739 1.394 . S
C740 C741 1.516 . S
C741 C740 1.516 . S
C741 C742 1.502 . S
C741 C743 1.561 . S
C741 C744 1.526 . S
C742 H726 0.959 . S
C742 H727 0.959 . S
C742 H728 0.961 . S
C742 C741 1.502 . S
C743 H729 0.960 . S
C743 H730 0.961 . S
C743 H731 0.959 . S
C743 C741 1.561 . S
C744 C741 1.526 . S
C744 C745 1.396 . S
C744 C749 1.390 . S
C745 C739 1.465 . S
C745 C744 1.396 . S
C745 C746 1.399 . S
C746 H732 0.929 . S
C746 C745 1.399 . S
C746 C747 1.385 1_655 S
C747 H733 0.931 . S
C747 C746 1.385 1_455 S
C747 C748 1.389 . S
C748 C747 1.389 . S
C748 C749 1.387 1_455 S
C749 H734 0.930 . S
C749 C744 1.390 . S
C749 C748 1.387 1_655 S
H750 C762 0.930 . S
H751 C764 0.930 . S
H752 C765 0.930 . S
H753 C769 0.959 . S
H754 C769 0.959 . S
H755 C769 0.961 . S
H756 C770 0.960 . S
H757 C770 0.961 . S
H758 C770 0.959 . S
H759 C773 0.929 . S
H760 C774 0.931 . S
H761 C776 0.930 . S
C762 H750 0.930 . S
C762 C763 1.399 . S
C762 C767 1.399 . S
C763 C762 1.399 . S
C763 C764 1.376 . S
C764 H751 0.930 . S
C764 C763 1.376 . S
C764 C765 1.388 . S
C765 H752 0.930 . S
C765 C764 1.388 . S
C765 C766 1.390 . S
C766 C765 1.390 . S
C766 C767 1.394 . S
C766 C772 1.465 . S
C767 C762 1.399 . S
C767 C766 1.394 . S
C767 C768 1.516 . S
C768 C767 1.516 . S
C768 C769 1.502 . S
C768 C770 1.561 . S
C768 C771 1.526 . S
C769 H753 0.959 . S
C769 H754 0.959 . S
C769 H755 0.961 . S
C769 C768 1.502 . S
C770 H756 0.960 . S
C770 H757 0.961 . S
C770 H758 0.959 . S
C770 C768 1.561 . S
C771 C768 1.526 . S
C771 C772 1.396 . S
C771 C776 1.390 . S
C772 C766 1.465 . S
C772 C771 1.396 . S
C772 C773 1.399 . S
C773 H759 0.929 . S
C773 C772 1.399 . S
C773 C774 1.385 . S
C774 H760 0.931 . S
C774 C773 1.385 . S
C774 C775 1.389 . S
C775 C774 1.389 . S
C775 C776 1.387 . S
C776 H761 0.930 . S
C776 C771 1.390 . S
C776 C775 1.387 . S
H777 C789 0.930 . S
H778 C791 0.930 . S
H779 C792 0.930 . S
H780 C796 0.959 . S
H781 C796 0.959 . S
H782 C796 0.961 . S
H783 C797 0.960 . S
H784 C797 0.961 . S
H785 C797 0.959 . S
H786 C800 0.929 . S
H787 C801 0.931 1_655 S
H788 C803 0.930 . S
C789 H777 0.930 . S
C789 C790 1.399 . S
C789 C794 1.399 . S
C790 C789 1.399 . S
C790 C791 1.376 . S
C791 H778 0.930 . S
C791 C790 1.376 . S
C791 C792 1.388 . S
C792 H779 0.930 . S
C792 C791 1.388 . S
C792 C793 1.390 . S
C793 C792 1.390 . S
C793 C794 1.394 . S
C793 C799 1.465 . S
C794 C789 1.399 . S
C794 C793 1.394 . S
C794 C795 1.516 . S
C795 C794 1.516 . S
C795 C796 1.502 . S
C795 C797 1.561 . S
C795 C798 1.526 . S
C796 H780 0.959 . S
C796 H781 0.959 . S
C796 H782 0.961 . S
C796 C795 1.502 . S
C797 H783 0.960 . S
C797 H784 0.961 . S
C797 H785 0.959 . S
C797 C795 1.561 . S
C798 C795 1.526 . S
C798 C799 1.396 . S
C798 C803 1.390 . S
C799 C793 1.465 . S
C799 C798 1.396 . S
C799 C800 1.399 . S
C800 H786 0.929 . S
C800 C799 1.399 . S
C800 C801 1.385 . S
C801 H787 0.931 1_455 S
C801 C800 1.385 . S
C801 C802 1.389 1_455 S
C802 C801 1.389 1_655 S
C802 C803 1.387 1_655 S
C803 H788 0.930 . S
C803 C798 1.390 . S
C803 C802 1.387 1_455 S
C277 N2 0.426 . S
C289 N167 0.363 . S
C304 N200 0.401 . S
C316 N35 0.331 . S
C331 N233 0.238 . S
C343 N68 0.285 . S
C358 N134 0.363 . S
C370 N101 0.424 . S
C385 N112 1.317 . S
C397 C21 1.186 . S
C412 C54 1.197 . S
C424 N13 1.316 . S
C439 N46 1.305 . S
C451 C87 1.170 . S
C466 C120 1.173 . S
C478 N79 1.311 . S
C493 N178 1.313 . S
C505 C153 1.176 . S
C520 C186 1.182 . S
C532 N211 1.315 . S
C547 C219 1.230 . S
C559 N244 1.216 . S
C574 C252 1.296 . S
C586 N145 1.198 . S
C601 C205 1.793 . S
C613 C18 1.849 . S
C628 C238 1.772 . S
C640 C51 1.850 . S
C655 C84 1.844 . S
C667 C139 1.808 . S
C682 C117 1.843 . S
C694 C172 1.810 . S
C709 C150 1.842 . S
C721 C73 1.811 . S
C736 C106 1.811 . S
C748 C183 1.841 . S
C763 C216 1.845 . S
C775 C7 1.750 . S
C790 C40 1.754 . S
C802 C249 1.847 . S
