# Generated by pormake.
# Topology ukd, (4)-cn, num edge types: 1
# Building blocks:
#     Node 0, Type 0, BuildingBlock: NAHDIM_clean_sbu_0, # of connection points: 4
#     Node 1, Type 0, BuildingBlock: NAHDIM_clean_sbu_0, # of connection points: 4
#     Node 2, Type 0, BuildingBlock: NAHDIM_clean_sbu_0, # of connection points: 4
#     Node 3, Type 0, BuildingBlock: NAHDIM_clean_sbu_0, # of connection points: 4
#     Node 4, Type 0, BuildingBlock: NAHDIM_clean_sbu_0, # of connection points: 4
#     Node 5, Type 0, BuildingBlock: NAHDIM_clean_sbu_0, # of connection points: 4
#     Node 6, Type 0, BuildingBlock: NAHDIM_clean_sbu_0, # of connection points: 4
#     Node 7, Type 0, BuildingBlock: NAHDIM_clean_sbu_0, # of connection points: 4
#     Node 8, Type 0, BuildingBlock: NAHDIM_clean_sbu_0, # of connection points: 4
#     Node 9, Type 0, BuildingBlock: NAHDIM_clean_sbu_0, # of connection points: 4
#     Node 10, Type 0, BuildingBlock: NAHDIM_clean_sbu_0, # of connection points: 4
#     Node 11, Type 0, BuildingBlock: NAHDIM_clean_sbu_0, # of connection points: 4
#     Node 12, Type 0, BuildingBlock: NAHDIM_clean_sbu_0, # of connection points: 4
#     Node 13, Type 0, BuildingBlock: NAHDIM_clean_sbu_0, # of connection points: 4
#     Node 14, Type 0, BuildingBlock: NAHDIM_clean_sbu_0, # of connection points: 4
#     Node 15, Type 0, BuildingBlock: NAHDIM_clean_sbu_0, # of connection points: 4
#     Node 16, Type 0, BuildingBlock: NAHDIM_clean_sbu_0, # of connection points: 4
#     Node 17, Type 0, BuildingBlock: NAHDIM_clean_sbu_0, # of connection points: 4
#     Node 18, Type 0, BuildingBlock: NAHDIM_clean_sbu_0, # of connection points: 4
#     Node 19, Type 0, BuildingBlock: NAHDIM_clean_sbu_0, # of connection points: 4
#     Node 20, Type 0, BuildingBlock: NAHDIM_clean_sbu_0, # of connection points: 4
#     Node 21, Type 0, BuildingBlock: NAHDIM_clean_sbu_0, # of connection points: 4
#     Node 22, Type 0, BuildingBlock: NAHDIM_clean_sbu_0, # of connection points: 4
#     Node 23, Type 0, BuildingBlock: NAHDIM_clean_sbu_0, # of connection points: 4
#     Node 24, Type 0, BuildingBlock: NAHDIM_clean_sbu_0, # of connection points: 4
#     Node 25, Type 0, BuildingBlock: NAHDIM_clean_sbu_0, # of connection points: 4
#     Node 26, Type 0, BuildingBlock: NAHDIM_clean_sbu_0, # of connection points: 4
#     Node 27, Type 0, BuildingBlock: NAHDIM_clean_sbu_0, # of connection points: 4
#     Node 28, Type 0, BuildingBlock: NAHDIM_clean_sbu_0, # of connection points: 4
#     Node 29, Type 0, BuildingBlock: NAHDIM_clean_sbu_0, # of connection points: 4
#     Node 30, Type 0, BuildingBlock: NAHDIM_clean_sbu_0, # of connection points: 4
#     Node 31, Type 0, BuildingBlock: NAHDIM_clean_sbu_0, # of connection points: 4
#     Edge 32, Type (0, 0), BuildingBlock: KIFKEQ_clean_linker_1, # of connection points: 2
#     Edge 33, Type (0, 0), BuildingBlock: KIFKEQ_clean_linker_1, # of connection points: 2
#     Edge 34, Type (0, 0), BuildingBlock: KIFKEQ_clean_linker_1, # of connection points: 2
#     Edge 35, Type (0, 0), BuildingBlock: KIFKEQ_clean_linker_1, # of connection points: 2
#     Edge 36, Type (0, 0), BuildingBlock: KIFKEQ_clean_linker_1, # of connection points: 2
#     Edge 37, Type (0, 0), BuildingBlock: KIFKEQ_clean_linker_1, # of connection points: 2
#     Edge 38, Type (0, 0), BuildingBlock: KIFKEQ_clean_linker_1, # of connection points: 2
#     Edge 39, Type (0, 0), BuildingBlock: KIFKEQ_clean_linker_1, # of connection points: 2
#     Edge 40, Type (0, 0), BuildingBlock: KIFKEQ_clean_linker_1, # of connection points: 2
#     Edge 41, Type (0, 0), BuildingBlock: KIFKEQ_clean_linker_1, # of connection points: 2
#     Edge 42, Type (0, 0), BuildingBlock: KIFKEQ_clean_linker_1, # of connection points: 2
#     Edge 43, Type (0, 0), BuildingBlock: KIFKEQ_clean_linker_1, # of connection points: 2
#     Edge 44, Type (0, 0), BuildingBlock: KIFKEQ_clean_linker_1, # of connection points: 2
#     Edge 45, Type (0, 0), BuildingBlock: KIFKEQ_clean_linker_1, # of connection points: 2
#     Edge 46, Type (0, 0), BuildingBlock: KIFKEQ_clean_linker_1, # of connection points: 2
#     Edge 47, Type (0, 0), BuildingBlock: KIFKEQ_clean_linker_1, # of connection points: 2
#     Edge 48, Type (0, 0), BuildingBlock: KIFKEQ_clean_linker_1, # of connection points: 2
#     Edge 49, Type (0, 0), BuildingBlock: KIFKEQ_clean_linker_1, # of connection points: 2
#     Edge 50, Type (0, 0), BuildingBlock: KIFKEQ_clean_linker_1, # of connection points: 2
#     Edge 51, Type (0, 0), BuildingBlock: KIFKEQ_clean_linker_1, # of connection points: 2
#     Edge 52, Type (0, 0), BuildingBlock: KIFKEQ_clean_linker_1, # of connection points: 2
#     Edge 53, Type (0, 0), BuildingBlock: KIFKEQ_clean_linker_1, # of connection points: 2
#     Edge 54, Type (0, 0), BuildingBlock: KIFKEQ_clean_linker_1, # of connection points: 2
#     Edge 55, Type (0, 0), BuildingBlock: KIFKEQ_clean_linker_1, # of connection points: 2
#     Edge 56, Type (0, 0), BuildingBlock: KIFKEQ_clean_linker_1, # of connection points: 2
#     Edge 57, Type (0, 0), BuildingBlock: KIFKEQ_clean_linker_1, # of connection points: 2
#     Edge 58, Type (0, 0), BuildingBlock: KIFKEQ_clean_linker_1, # of connection points: 2
#     Edge 59, Type (0, 0), BuildingBlock: KIFKEQ_clean_linker_1, # of connection points: 2
#     Edge 60, Type (0, 0), BuildingBlock: KIFKEQ_clean_linker_1, # of connection points: 2
#     Edge 61, Type (0, 0), BuildingBlock: KIFKEQ_clean_linker_1, # of connection points: 2
#     Edge 62, Type (0, 0), BuildingBlock: KIFKEQ_clean_linker_1, # of connection points: 2
#     Edge 63, Type (0, 0), BuildingBlock: KIFKEQ_clean_linker_1, # of connection points: 2
#     Edge 64, Type (0, 0), BuildingBlock: KIFKEQ_clean_linker_1, # of connection points: 2
#     Edge 65, Type (0, 0), BuildingBlock: KIFKEQ_clean_linker_1, # of connection points: 2
#     Edge 66, Type (0, 0), BuildingBlock: KIFKEQ_clean_linker_1, # of connection points: 2
#     Edge 67, Type (0, 0), BuildingBlock: KIFKEQ_clean_linker_1, # of connection points: 2
#     Edge 68, Type (0, 0), BuildingBlock: KIFKEQ_clean_linker_1, # of connection points: 2
#     Edge 69, Type (0, 0), BuildingBlock: KIFKEQ_clean_linker_1, # of connection points: 2
#     Edge 70, Type (0, 0), BuildingBlock: KIFKEQ_clean_linker_1, # of connection points: 2
#     Edge 71, Type (0, 0), BuildingBlock: KIFKEQ_clean_linker_1, # of connection points: 2
#     Edge 72, Type (0, 0), BuildingBlock: KIFKEQ_clean_linker_1, # of connection points: 2
#     Edge 73, Type (0, 0), BuildingBlock: KIFKEQ_clean_linker_1, # of connection points: 2
#     Edge 74, Type (0, 0), BuildingBlock: KIFKEQ_clean_linker_1, # of connection points: 2
#     Edge 75, Type (0, 0), BuildingBlock: KIFKEQ_clean_linker_1, # of connection points: 2
#     Edge 76, Type (0, 0), BuildingBlock: KIFKEQ_clean_linker_1, # of connection points: 2
#     Edge 77, Type (0, 0), BuildingBlock: KIFKEQ_clean_linker_1, # of connection points: 2
#     Edge 78, Type (0, 0), BuildingBlock: KIFKEQ_clean_linker_1, # of connection points: 2
#     Edge 79, Type (0, 0), BuildingBlock: KIFKEQ_clean_linker_1, # of connection points: 2
#     Edge 80, Type (0, 0), BuildingBlock: KIFKEQ_clean_linker_1, # of connection points: 2
#     Edge 81, Type (0, 0), BuildingBlock: KIFKEQ_clean_linker_1, # of connection points: 2
#     Edge 82, Type (0, 0), BuildingBlock: KIFKEQ_clean_linker_1, # of connection points: 2
#     Edge 83, Type (0, 0), BuildingBlock: KIFKEQ_clean_linker_1, # of connection points: 2
#     Edge 84, Type (0, 0), BuildingBlock: KIFKEQ_clean_linker_1, # of connection points: 2
#     Edge 85, Type (0, 0), BuildingBlock: KIFKEQ_clean_linker_1, # of connection points: 2
#     Edge 86, Type (0, 0), BuildingBlock: KIFKEQ_clean_linker_1, # of connection points: 2
#     Edge 87, Type (0, 0), BuildingBlock: KIFKEQ_clean_linker_1, # of connection points: 2
#     Edge 88, Type (0, 0), BuildingBlock: KIFKEQ_clean_linker_1, # of connection points: 2
#     Edge 89, Type (0, 0), BuildingBlock: KIFKEQ_clean_linker_1, # of connection points: 2
#     Edge 90, Type (0, 0), BuildingBlock: KIFKEQ_clean_linker_1, # of connection points: 2
#     Edge 91, Type (0, 0), BuildingBlock: KIFKEQ_clean_linker_1, # of connection points: 2
#     Edge 92, Type (0, 0), BuildingBlock: KIFKEQ_clean_linker_1, # of connection points: 2
#     Edge 93, Type (0, 0), BuildingBlock: KIFKEQ_clean_linker_1, # of connection points: 2
#     Edge 94, Type (0, 0), BuildingBlock: KIFKEQ_clean_linker_1, # of connection points: 2
#     Edge 95, Type (0, 0), BuildingBlock: KIFKEQ_clean_linker_1, # of connection points: 2
# Relax obj value: 0.150
# Max RMSD: 0.183
# Mean RMSD: 0.183
data_MOF--net-ukd--node1-NAHDIM_clean_sbu_0--edge1-KIFKEQ_clean_linker_1
_symmetry_space_group_name_H-M    P1
_symmetry_Int_Tables_number       1
_symmetry_cell_setting            triclinic
loop_
_symmetry_equiv_pos_as_xyz
'x, y, z'
_cell_length_a     44.106008
_cell_length_b     44.101978
_cell_length_c     75.530395
_cell_angle_alpha  90.055084
_cell_angle_beta   90.00384
_cell_angle_gamma 90.013814
loop_
_atom_site_label
_atom_site_type_symbol
_atom_site_fract_x
_atom_site_fract_y
_atom_site_fract_z
_atom_type_partial_charge
C0 C 0.29101 0.18848 0.34843 0.0
O1 O 0.28039 0.18096 0.33278 0.0
O2 O 0.23921 0.23035 0.32285 0.0
Zn3 Zn 0.23481 0.21869 0.34853 0.0
O4 O 0.20658 0.18314 0.35109 0.0
C5 C 0.21899 0.28078 0.35702 0.0
O6 O 0.2361 0.287 0.34325 0.0
O7 O 0.27544 0.20611 0.35817 0.0
C8 C 0.17817 0.18673 0.34929 0.0
O9 O 0.16767 0.21372 0.34522 0.0
C10 C 0.23107 0.21314 0.31021 0.0
O11 O 0.21879 0.18672 0.3138 0.0
O12 O 0.21651 0.25343 0.3621 0.0
C13 C 0.07037 0.04579 0.6016 0.0
O14 O 0.08392 0.02707 0.59063 0.0
O15 O 0.01932 0.99678 0.57571 0.0
Zn16 Zn 0.03174 0.99583 0.60136 0.0
O17 O 0.06642 0.9668 0.60465 0.0
C18 C 0.96988 0.98075 0.61014 0.0
O19 O 0.9643 0.9944 0.59504 0.0
O20 O 0.04558 0.03758 0.60871 0.0
C21 C 0.06228 0.93859 0.60225 0.0
O22 O 0.03537 0.92897 0.59732 0.0
C23 C 0.03693 0.99013 0.56297 0.0
O24 O 0.06493 0.98178 0.56632 0.0
O25 O 0.99689 0.98021 0.61599 0.0
C26 C 0.18593 0.78771 0.85571 0.0
O27 O 0.18685 0.77339 0.84046 0.0
O28 O 0.24735 0.77021 0.82845 0.0
Zn29 Zn 0.25128 0.78114 0.85418 0.0
O30 O 0.27908 0.81701 0.85678 0.0
C31 C 0.26826 0.71924 0.86163 0.0
O32 O 0.25096 0.71345 0.84788 0.0
O33 O 0.21044 0.7923 0.86417 0.0
C34 C 0.30677 0.81434 0.85243 0.0
O35 O 0.31626 0.78841 0.84587 0.0
C36 C 0.24589 0.79015 0.81637 0.0
O37 O 0.24751 0.81897 0.82068 0.0
O38 O 0.27047 0.74636 0.86718 0.0
C39 C 0.44086 0.95366 0.09603 0.0
O40 O 0.43376 0.96507 0.08051 0.0
O41 O 0.48403 0.00406 0.07101 0.0
Zn42 Zn 0.47244 0.00871 0.09662 0.0
O43 O 0.43704 0.03731 0.09856 0.0
C44 C 0.53469 0.02112 0.1075 0.0
O45 O 0.54193 0.00129 0.09522 0.0
O46 O 0.45888 0.96835 0.10599 0.0
C47 C 0.44127 0.0658 0.0984 0.0
O48 O 0.46895 0.07631 0.0965 0.0
C49 C 0.49976 0.02328 0.0625 0.0
O50 O 0.50958 0.04774 0.07061 0.0
O51 O 0.5069 0.02637 0.11069 0.0
C52 C 0.29076 0.80915 0.14555 0.0
O53 O 0.27937 0.81739 0.16088 0.0
O54 O 0.23941 0.76692 0.17118 0.0
Zn55 Zn 0.23517 0.77805 0.1454 0.0
O56 O 0.20684 0.81341 0.14254 0.0
C57 C 0.21854 0.71591 0.13719 0.0
O58 O 0.23395 0.70969 0.15162 0.0
O59 O 0.27586 0.79075 0.13593 0.0
C60 C 0.1784 0.80962 0.14406 0.0
O61 O 0.16795 0.78253 0.14796 0.0
C62 C 0.23042 0.78415 0.18362 0.0
O63 O 0.21722 0.80998 0.17972 0.0
O64 O 0.21732 0.74314 0.13176 0.0
C65 C 0.43931 0.04242 0.39842 0.0
O66 O 0.43165 0.0306 0.41375 0.0
O67 O 0.48399 0.99519 0.4242 0.0
Zn68 Zn 0.4725 0.98864 0.39871 0.0
O69 O 0.43743 0.95942 0.39696 0.0
C70 C 0.53456 0.97113 0.39096 0.0
O71 O 0.54047 0.98525 0.40589 0.0
O72 O 0.45833 0.02839 0.38878 0.0
C73 C 0.44196 0.93115 0.39502 0.0
O74 O 0.46992 0.9209 0.39471 0.0
C75 C 0.48301 0.97441 0.43582 0.0
O76 O 0.4746 0.94696 0.43117 0.0
O77 O 0.50759 0.97113 0.38503 0.0
C78 C 0.20087 0.21475 0.64226 0.0
O79 O 0.19909 0.2275 0.65794 0.0
O80 O 0.26318 0.22733 0.67248 0.0
Zn81 Zn 0.26709 0.21995 0.6463 0.0
O82 O 0.29382 0.18352 0.64177 0.0
C83 C 0.3143 0.26104 0.641 0.0
O84 O 0.3256 0.24287 0.65309 0.0
O85 O 0.22665 0.21116 0.63502 0.0
C86 C 0.31019 0.17058 0.65339 0.0
O87 O 0.31019 0.1809 0.6697 0.0
C88 C 0.25051 0.20901 0.68313 0.0
O89 O 0.23853 0.18381 0.67701 0.0
O90 O 0.28754 0.25621 0.63542 0.0
C91 C 0.03272 0.93995 0.89034 0.0
O92 O 0.0181 0.94093 0.90547 0.0
O93 O 0.01594 0.00307 0.91737 0.0
Zn94 Zn 0.02781 0.00572 0.89179 0.0
O95 O 0.06485 0.03191 0.88978 0.0
C96 C 0.96677 0.0235 0.88328 0.0
O97 O 0.9602 0.0051 0.89641 0.0
O98 O 0.03792 0.96446 0.88202 0.0
C99 C 0.06349 0.05935 0.89483 0.0
O100 O 0.03797 0.06965 0.90151 0.0
C101 C 0.03494 0.99654 0.9294 0.0
O102 O 0.06328 0.99118 0.92504 0.0
O103 O 0.9942 0.02615 0.87839 0.0
C104 C 0.70544 0.80143 0.64515 0.0
O105 O 0.70716 0.79659 0.66227 0.0
O106 O 0.76462 0.77207 0.67139 0.0
Zn107 Zn 0.76904 0.78497 0.64599 0.0
O108 O 0.79594 0.82168 0.64464 0.0
C109 C 0.78752 0.72405 0.63723 0.0
O110 O 0.77048 0.71721 0.65092 0.0
O111 O 0.72857 0.79648 0.63552 0.0
C112 C 0.82396 0.81969 0.64833 0.0
O113 O 0.835 0.79343 0.65342 0.0
C114 C 0.76505 0.79095 0.6841 0.0
O115 O 0.76854 0.81994 0.68066 0.0
O116 O 0.78924 0.75151 0.63224 0.0
C117 C 0.93863 0.95552 0.39928 0.0
O118 O 0.93117 0.96614 0.41493 0.0
O119 O 0.97999 0.00835 0.42449 0.0
Zn120 Zn 0.96798 0.01222 0.39879 0.0
O121 O 0.93223 0.04011 0.3958 0.0
C122 C 0.02968 0.02962 0.39061 0.0
O123 O 0.03578 0.01486 0.40528 0.0
O124 O 0.95584 0.9713 0.38942 0.0
C125 C 0.93309 0.06748 0.40105 0.0
O126 O 0.95754 0.07753 0.40908 0.0
C127 C 0.96349 0.01657 0.43743 0.0
O128 O 0.93669 0.02841 0.43437 0.0
O129 O 0.00254 0.0303 0.38497 0.0
C130 C 0.79299 0.18554 0.14445 0.0
O131 O 0.78091 0.17652 0.15944 0.0
O132 O 0.74159 0.22776 0.17016 0.0
Zn133 Zn 0.73774 0.21686 0.14431 0.0
O134 O 0.70976 0.18118 0.14132 0.0
C135 C 0.72153 0.27906 0.13621 0.0
O136 O 0.73715 0.28509 0.1506 0.0
O137 O 0.77862 0.20457 0.13502 0.0
C138 C 0.68122 0.18491 0.14192 0.0
O139 O 0.67035 0.21222 0.14476 0.0
C140 C 0.73133 0.21102 0.18248 0.0
O141 O 0.71711 0.1858 0.1784 0.0
O142 O 0.71997 0.25184 0.13075 0.0
C143 C 0.54053 0.0496 0.89429 0.0
O144 O 0.53311 0.0495 0.91112 0.0
O145 O 0.51834 0.98902 0.92196 0.0
Zn146 Zn 0.52528 0.9853 0.89576 0.0
O147 O 0.56019 0.95685 0.89189 0.0
C148 C 0.4629 0.96621 0.89151 0.0
O149 O 0.4598 0.97869 0.9072 0.0
O150 O 0.5373 0.02552 0.8852 0.0
C151 C 0.55802 0.92894 0.89582 0.0
O152 O 0.53249 0.91873 0.90252 0.0
C153 C 0.54059 0.99137 0.93255 0.0
O154 O 0.56831 0.99148 0.92617 0.0
O155 O 0.48851 0.96739 0.88383 0.0
C156 C 0.70876 0.17859 0.84915 0.0
O157 O 0.72456 0.16688 0.83606 0.0
O158 O 0.75212 0.22303 0.82093 0.0
Zn159 Zn 0.75892 0.21548 0.84686 0.0
O160 O 0.78896 0.18145 0.85002 0.0
C161 C 0.7699 0.27943 0.85206 0.0
O162 O 0.75088 0.28204 0.83876 0.0
O163 O 0.71909 0.20189 0.85703 0.0
C164 C 0.81715 0.18656 0.85184 0.0
O165 O 0.82698 0.21468 0.85151 0.0
C166 C 0.77256 0.21988 0.80924 0.0
O167 O 0.79997 0.21169 0.81405 0.0
O168 O 0.77542 0.25327 0.85831 0.0
C169 C 0.56733 0.96224 0.60068 0.0
O170 O 0.57808 0.97893 0.58772 0.0
O171 O 0.51825 0.00921 0.5755 0.0
Zn172 Zn 0.52964 0.01262 0.60125 0.0
O173 O 0.56367 0.04258 0.60439 0.0
C174 C 0.46668 0.02287 0.61036 0.0
O175 O 0.46159 0.00604 0.59631 0.0
O176 O 0.5446 0.97191 0.60935 0.0
C177 C 0.55842 0.0709 0.6046 0.0
O178 O 0.53043 0.08049 0.60257 0.0
C179 C 0.53407 0.02062 0.56312 0.0
O180 O 0.5586 0.03609 0.56707 0.0
O181 O 0.49384 0.02741 0.61531 0.0
C182 C 0.79202 0.80858 0.34909 0.0
O183 O 0.78043 0.81637 0.33372 0.0
O184 O 0.74159 0.7653 0.32395 0.0
Zn185 Zn 0.73667 0.77771 0.34947 0.0
O186 O 0.70862 0.81352 0.3518 0.0
C187 C 0.72092 0.71582 0.35851 0.0
O188 O 0.73772 0.70918 0.34468 0.0
O189 O 0.77726 0.79043 0.3589 0.0
C190 C 0.68006 0.8098 0.35165 0.0
O191 O 0.66905 0.78239 0.34933 0.0
C192 C 0.72768 0.77775 0.31114 0.0
O193 O 0.70847 0.79982 0.31435 0.0
O194 O 0.71858 0.74331 0.36337 0.0
C195 C 0.94129 0.0418 0.09306 0.0
O196 O 0.93547 0.0328 0.07683 0.0
O197 O 0.9806 0.98539 0.0685 0.0
Zn198 Zn 0.96826 0.98318 0.0942 0.0
O199 O 0.93251 0.95534 0.09735 0.0
C200 C 0.02987 0.96667 0.10293 0.0
O201 O 0.03614 0.98186 0.08843 0.0
O202 O 0.9564 0.02448 0.10321 0.0
C203 C 0.93322 0.92832 0.09152 0.0
O204 O 0.95734 0.91891 0.08291 0.0
C205 C 0.96288 0.97922 0.05573 0.0
O206 O 0.93474 0.97132 0.05908 0.0
O207 O 0.00259 0.9654 0.10829 0.0
C208 C 0.78646 0.68543 0.84643 0.0
O209 O 0.77481 0.67867 0.8309 0.0
O210 O 0.73763 0.7313 0.82156 0.0
Zn211 Zn 0.73235 0.71858 0.847 0.0
O212 O 0.70296 0.68387 0.84902 0.0
C213 C 0.71572 0.78039 0.8551 0.0
O214 O 0.72962 0.78587 0.84006 0.0
O215 O 0.77235 0.7039 0.85638 0.0
C216 C 0.67453 0.68835 0.84831 0.0
O217 O 0.66441 0.71598 0.84559 0.0
C218 C 0.72514 0.71814 0.80849 0.0
O219 O 0.70752 0.69462 0.81128 0.0
O220 O 0.71545 0.75349 0.86114 0.0
C221 C 0.56587 0.53942 0.09673 0.0
O222 O 0.57438 0.5271 0.08168 0.0
O223 O 0.52066 0.49284 0.07069 0.0
Zn224 Zn 0.53232 0.48596 0.09609 0.0
O225 O 0.56742 0.45675 0.09747 0.0
C226 C 0.47001 0.47007 0.10501 0.0
O227 O 0.46309 0.4865 0.09109 0.0
O228 O 0.54629 0.52573 0.10613 0.0
C229 C 0.56275 0.4284 0.09885 0.0
O230 O 0.53474 0.41827 0.09887 0.0
C231 C 0.51314 0.4718 0.06006 0.0
O232 O 0.51229 0.44368 0.06573 0.0
O233 O 0.49753 0.46814 0.10984 0.0
C234 C 0.70846 0.30893 0.34688 0.0
O235 O 0.71885 0.31554 0.33104 0.0
O236 O 0.75601 0.26302 0.3213 0.0
Zn237 Zn 0.76331 0.27747 0.34621 0.0
O238 O 0.79131 0.31368 0.34614 0.0
C239 C 0.77549 0.21702 0.36108 0.0
O240 O 0.7511 0.2081 0.35255 0.0
O241 O 0.72376 0.29115 0.35665 0.0
C242 C 0.81974 0.31009 0.34796 0.0
O243 O 0.8307 0.28249 0.34928 0.0
C244 C 0.7769 0.26292 0.30972 0.0
O245 O 0.80429 0.27169 0.3142 0.0
O246 O 0.78327 0.24472 0.36051 0.0
C247 C 0.93485 0.46251 0.59419 0.0
O248 O 0.92456 0.47626 0.57999 0.0
O249 O 0.977 0.50733 0.56617 0.0
Zn250 Zn 0.97127 0.51391 0.59238 0.0
O251 O 0.93866 0.54494 0.59688 0.0
C252 C 0.03126 0.53888 0.59379 0.0
O253 O 0.02726 0.53918 0.57657 0.0
O254 O 0.95671 0.47449 0.60266 0.0
C255 C 0.94394 0.57326 0.59664 0.0
O256 O 0.97149 0.58284 0.59312 0.0
C257 C 0.96204 0.52117 0.55429 0.0
O258 O 0.94175 0.54146 0.55894 0.0
O259 O 0.01042 0.52821 0.60362 0.0
C260 C 0.79123 0.31316 0.64531 0.0
O261 O 0.78195 0.31972 0.66139 0.0
O262 O 0.74092 0.27399 0.67164 0.0
Zn263 Zn 0.73437 0.28501 0.64611 0.0
O264 O 0.70727 0.32159 0.64444 0.0
C265 C 0.71947 0.22292 0.63645 0.0
O266 O 0.74048 0.21592 0.64808 0.0
O267 O 0.77447 0.29672 0.63552 0.0
C268 C 0.67872 0.31926 0.64621 0.0
O269 O 0.66691 0.29257 0.64968 0.0
C270 C 0.7221 0.25956 0.68116 0.0
O271 O 0.69621 0.25072 0.67428 0.0
O272 O 0.71426 0.25065 0.63308 0.0
C273 C 0.93129 0.533 0.89419 0.0
O274 O 0.9232 0.52055 0.90927 0.0
O275 O 0.9768 0.48584 0.91991 0.0
Zn276 Zn 0.96571 0.47985 0.89429 0.0
O277 O 0.93167 0.44972 0.89201 0.0
C278 C 0.0286 0.46813 0.88588 0.0
O279 O 0.0335 0.48511 0.8999 0.0
O280 O 0.95093 0.51962 0.88467 0.0
C281 C 0.91896 0.44652 0.87703 0.0
O282 O 0.92845 0.46298 0.86363 0.0
C283 C 0.96588 0.46977 0.93232 0.0
O284 O 0.94712 0.4476 0.92846 0.0
O285 O 0.00152 0.46375 0.88074 0.0
C286 C 0.70792 0.6906 0.14768 0.0
O287 O 0.71573 0.68589 0.16422 0.0
O288 O 0.76359 0.72942 0.17278 0.0
Zn289 Zn 0.76716 0.71587 0.14739 0.0
O290 O 0.79374 0.679 0.14553 0.0
C291 C 0.77877 0.77585 0.13197 0.0
O292 O 0.75331 0.78414 0.1396 0.0
O293 O 0.72616 0.70468 0.13757 0.0
C294 C 0.82212 0.6816 0.14795 0.0
O295 O 0.83327 0.7082 0.15233 0.0
C296 C 0.76877 0.71144 0.18557 0.0
O297 O 0.77693 0.68338 0.18218 0.0
O298 O 0.78757 0.74853 0.13327 0.0
C299 C 0.56147 0.45701 0.39716 0.0
O300 O 0.56896 0.46876 0.41255 0.0
O301 O 0.51582 0.50512 0.42263 0.0
Zn302 Zn 0.5282 0.51094 0.39721 0.0
O303 O 0.56335 0.54014 0.3958 0.0
C304 C 0.46621 0.52713 0.38816 0.0
O305 O 0.45937 0.5116 0.40244 0.0
O306 O 0.54254 0.47107 0.38749 0.0
C307 C 0.55887 0.56829 0.39329 0.0
O308 O 0.53092 0.57838 0.39209 0.0
C309 C 0.51325 0.52719 0.43334 0.0
O310 O 0.51844 0.55486 0.42771 0.0
O311 O 0.49365 0.52837 0.3831 0.0
C312 C 0.213 0.30909 0.14627 0.0
O313 O 0.22446 0.31664 0.16172 0.0
O314 O 0.26112 0.26481 0.17184 0.0
Zn315 Zn 0.2674 0.27677 0.14638 0.0
O316 O 0.29625 0.31208 0.14447 0.0
C317 C 0.28355 0.21465 0.13806 0.0
O318 O 0.26852 0.20863 0.15266 0.0
O319 O 0.22748 0.29053 0.13655 0.0
C320 C 0.32462 0.3078 0.14298 0.0
O321 O 0.3352 0.27996 0.14338 0.0
C322 C 0.27977 0.27071 0.18419 0.0
O323 O 0.30507 0.28504 0.18047 0.0
O324 O 0.28479 0.24184 0.13255 0.0
C325 C 0.43307 0.45641 0.89439 0.0
O326 O 0.42764 0.46513 0.91072 0.0
O327 O 0.47395 0.50647 0.92061 0.0
Zn328 Zn 0.46274 0.51296 0.89497 0.0
O329 O 0.42754 0.54187 0.89297 0.0
C330 C 0.52477 0.53089 0.88772 0.0
O331 O 0.53038 0.51657 0.90261 0.0
O332 O 0.4492 0.47326 0.88451 0.0
C333 C 0.43193 0.57034 0.89243 0.0
O334 O 0.45975 0.5808 0.89364 0.0
C335 C 0.46351 0.52257 0.93317 0.0
O336 O 0.44501 0.54504 0.92955 0.0
O337 O 0.49792 0.53099 0.88162 0.0
C338 C 0.28389 0.69085 0.65306 0.0
O339 O 0.27235 0.68297 0.66843 0.0
O340 O 0.23171 0.7341 0.67776 0.0
Zn341 Zn 0.22822 0.72227 0.65211 0.0
O342 O 0.19869 0.68762 0.64894 0.0
C343 C 0.21369 0.78463 0.64391 0.0
O344 O 0.22854 0.79004 0.65865 0.0
O345 O 0.26923 0.70923 0.64334 0.0
C346 C 0.20357 0.66714 0.63742 0.0
O347 O 0.22856 0.66825 0.62798 0.0
C348 C 0.21368 0.72495 0.68972 0.0
O349 O 0.19137 0.7066 0.68546 0.0
O350 O 0.21186 0.75756 0.63822 0.0
C351 C 0.06001 0.54183 0.39184 0.0
O352 O 0.06597 0.53013 0.40745 0.0
O353 O 0.01285 0.49487 0.41606 0.0
Zn354 Zn 0.0266 0.48821 0.39101 0.0
O355 O 0.06136 0.45849 0.39056 0.0
C356 C 0.9648 0.47492 0.3804 0.0
O357 O 0.95773 0.49265 0.39376 0.0
O358 O 0.04205 0.52776 0.38155 0.0
C359 C 0.05669 0.43024 0.3886 0.0
O360 O 0.0287 0.42032 0.38726 0.0
C361 C 0.00502 0.47345 0.42631 0.0
O362 O 0.0054 0.44542 0.42043 0.0
O363 O 0.99253 0.4712 0.3764 0.0
C364 C 0.21137 0.69015 0.34694 0.0
O365 O 0.22357 0.6832 0.33159 0.0
O366 O 0.25956 0.73536 0.32237 0.0
Zn367 Zn 0.26544 0.72257 0.34771 0.0
O368 O 0.29409 0.68705 0.34922 0.0
C369 C 0.28115 0.78439 0.3571 0.0
O370 O 0.26524 0.79116 0.34294 0.0
O371 O 0.2253 0.70848 0.35708 0.0
C372 C 0.32244 0.69106 0.35111 0.0
O373 O 0.33321 0.71884 0.35145 0.0
C374 C 0.27946 0.73201 0.31038 0.0
O375 O 0.30586 0.72019 0.31447 0.0
O376 O 0.28295 0.75689 0.36199 0.0
C377 C 0.06409 0.455 0.09626 0.0
O378 O 0.07104 0.46607 0.08063 0.0
O379 O 0.01862 0.50123 0.07043 0.0
Zn380 Zn 0.03036 0.50862 0.0958 0.0
O381 O 0.06482 0.53858 0.09713 0.0
C382 C 0.96801 0.52438 0.10438 0.0
O383 O 0.9617 0.51007 0.08957 0.0
O384 O 0.04545 0.46943 0.10594 0.0
C385 C 0.05985 0.56681 0.09889 0.0
O386 O 0.03173 0.5766 0.09923 0.0
C387 C 0.01324 0.52223 0.05937 0.0
O388 O 0.01475 0.55063 0.06454 0.0
O389 O 0.99527 0.52533 0.10978 0.0
C390 C 0.28105 0.31166 0.84652 0.0
O391 O 0.2648 0.3223 0.83333 0.0
O392 O 0.22966 0.2641 0.82165 0.0
Zn393 Zn 0.22997 0.27393 0.84774 0.0
O394 O 0.20026 0.30739 0.85295 0.0
C395 C 0.21817 0.21061 0.85551 0.0
O396 O 0.23142 0.20615 0.84015 0.0
O397 O 0.27106 0.28906 0.85518 0.0
C398 C 0.18766 0.32404 0.84136 0.0
O399 O 0.19366 0.31955 0.82453 0.0
C400 C 0.25356 0.25557 0.81368 0.0
O401 O 0.27898 0.25304 0.82263 0.0
O402 O 0.21647 0.23739 0.86166 0.0
C403 C 0.43196 0.54544 0.60075 0.0
O404 O 0.42409 0.53396 0.58537 0.0
O405 O 0.47865 0.49961 0.57363 0.0
Zn406 Zn 0.46955 0.49369 0.5996 0.0
O407 O 0.4388 0.46045 0.60284 0.0
C408 C 0.53274 0.47778 0.60524 0.0
O409 O 0.53595 0.48704 0.58882 0.0
O410 O 0.45233 0.53216 0.60976 0.0
C411 C 0.44719 0.43317 0.60054 0.0
O412 O 0.47521 0.42778 0.59554 0.0
C413 C 0.46228 0.48827 0.56145 0.0
O414 O 0.43842 0.47204 0.56574 0.0
O415 O 0.50701 0.48021 0.61268 0.0
H416 H 0.05429 0.36866 0.38552 0.0
H417 H 0.11734 0.44364 0.38748 0.0
H418 H 0.09613 0.33384 0.38038 0.0
H419 H 0.15937 0.40857 0.38256 0.0
H420 H 0.21498 0.34056 0.34766 0.0
H421 H 0.17754 0.37744 0.35767 0.0
H422 H 0.14107 0.3115 0.39417 0.0
H423 H 0.17815 0.27444 0.38399 0.0
C424 C 0.07712 0.37769 0.38505 0.0
C425 C 0.08244 0.40895 0.3868 0.0
C426 C 0.10115 0.35767 0.38223 0.0
C427 C 0.13109 0.36844 0.38106 0.0
C428 C 0.13652 0.39963 0.38323 0.0
C429 C 0.11245 0.41968 0.38612 0.0
C430 C 0.19927 0.33405 0.358 0.0
C431 C 0.19934 0.30444 0.36488 0.0
C432 C 0.1779 0.35525 0.3638 0.0
C433 C 0.15614 0.34728 0.37658 0.0
C434 C 0.15721 0.31816 0.38409 0.0
C435 C 0.17859 0.29698 0.37832 0.0
H436 H 0.91218 0.97033 0.59851 0.0
H437 H 0.97401 0.94858 0.64103 0.0
H438 H 0.87597 0.93379 0.61004 0.0
H439 H 0.93732 0.91256 0.65288 0.0
H440 H 0.88571 0.82125 0.6509 0.0
H441 H 0.9193 0.86338 0.64401 0.0
H442 H 0.84163 0.92027 0.63339 0.0
H443 H 0.80801 0.87781 0.63981 0.0
C444 C 0.9178 0.95822 0.61053 0.0
C445 C 0.94613 0.96215 0.61873 0.0
C446 C 0.89693 0.93733 0.61721 0.0
C447 C 0.90383 0.92 0.63231 0.0
C448 C 0.93153 0.92512 0.64104 0.0
C449 C 0.95247 0.94593 0.63431 0.0
C450 C 0.87578 0.84281 0.64726 0.0
C451 C 0.84421 0.84607 0.64574 0.0
C452 C 0.89505 0.86708 0.64342 0.0
C453 C 0.88318 0.89523 0.63807 0.0
C454 C 0.85154 0.89878 0.63719 0.0
C455 C 0.83227 0.87446 0.64095 0.0
H456 H 0.37176 0.5562 0.88898 0.0
H457 H 0.43373 0.6321 0.89058 0.0
H458 H 0.32961 0.59098 0.88392 0.0
H459 H 0.39177 0.66669 0.88522 0.0
H460 H 0.27394 0.66043 0.85062 0.0
H461 H 0.31191 0.62364 0.85993 0.0
H462 H 0.34598 0.6874 0.89857 0.0
H463 H 0.30841 0.72444 0.88905 0.0
C464 C 0.37639 0.5803 0.88831 0.0
C465 C 0.40613 0.59139 0.89012 0.0
C466 C 0.35225 0.60019 0.88534 0.0
C467 C 0.35733 0.63159 0.88416 0.0
C468 C 0.387 0.64267 0.88631 0.0
C469 C 0.41111 0.62281 0.88926 0.0
C470 C 0.28925 0.66647 0.86127 0.0
C471 C 0.28834 0.69548 0.86896 0.0
C472 C 0.31094 0.64531 0.86666 0.0
C473 C 0.33217 0.65272 0.87986 0.0
C474 C 0.3303 0.68121 0.88814 0.0
C475 C 0.30863 0.70236 0.88275 0.0
H476 H 0.59435 0.0262 0.09806 0.0
H477 H 0.52786 0.06105 0.13484 0.0
H478 H 0.63056 0.06419 0.10816 0.0
H479 H 0.56432 0.09844 0.1453 0.0
H480 H 0.61953 0.18611 0.13946 0.0
H481 H 0.58556 0.14402 0.13319 0.0
H482 H 0.66195 0.08268 0.132 0.0
H483 H 0.69611 0.12505 0.13782 0.0
C484 C 0.58767 0.04153 0.10857 0.0
C485 C 0.55813 0.04082 0.11551 0.0
C486 C 0.60848 0.06327 0.11441 0.0
C487 C 0.60022 0.08463 0.12739 0.0
C488 C 0.57119 0.08277 0.135 0.0
C489 C 0.55036 0.06119 0.12909 0.0
C490 C 0.62909 0.16363 0.13796 0.0
C491 C 0.66053 0.15897 0.13904 0.0
C492 C 0.60958 0.13942 0.1345 0.0
C493 C 0.62101 0.10991 0.13213 0.0
C494 C 0.65243 0.10516 0.13355 0.0
C495 C 0.67199 0.12943 0.13695 0.0
H496 H 0.18076 0.72248 0.10875 0.0
H497 H 0.21268 0.65628 0.14658 0.0
H498 H 0.14472 0.68562 0.09713 0.0
H499 H 0.17628 0.61959 0.1351 0.0
H500 H 0.1202 0.55351 0.10251 0.0
H501 H 0.16144 0.58859 0.10935 0.0
H502 H 0.09806 0.66324 0.10894 0.0
H503 H 0.057 0.6284 0.1019 0.0
C504 C 0.18034 0.69997 0.11447 0.0
C505 C 0.19943 0.69241 0.12871 0.0
C506 C 0.15955 0.67891 0.10787 0.0
C507 C 0.15743 0.6498 0.11531 0.0
C508 C 0.1775 0.64177 0.12899 0.0
C509 C 0.19827 0.66286 0.13563 0.0
C510 C 0.11513 0.57746 0.1037 0.0
C511 C 0.08528 0.58815 0.10175 0.0
C512 C 0.13874 0.59751 0.1077 0.0
C513 C 0.13301 0.62867 0.10972 0.0
C514 C 0.10331 0.63942 0.10726 0.0
C515 C 0.07971 0.6194 0.10334 0.0
H516 H 0.59307 0.962 0.40166 0.0
H517 H 0.52863 0.93607 0.36127 0.0
H518 H 0.62903 0.925 0.39014 0.0
H519 H 0.56485 0.89948 0.34956 0.0
H520 H 0.61818 0.80932 0.35263 0.0
H521 H 0.58443 0.85107 0.36005 0.0
H522 H 0.6615 0.91091 0.36526 0.0
H523 H 0.69542 0.86893 0.35812 0.0
C524 C 0.58677 0.94881 0.39013 0.0
C525 C 0.55787 0.9518 0.3825 0.0
C526 C 0.60745 0.92768 0.38347 0.0
C527 C 0.59969 0.90909 0.36903 0.0
C528 C 0.57131 0.91309 0.36089 0.0
C529 C 0.55064 0.93422 0.36754 0.0
C530 C 0.62795 0.83141 0.35522 0.0
C531 C 0.6595 0.83573 0.35489 0.0
C532 C 0.60857 0.85543 0.35935 0.0
C533 C 0.62028 0.88433 0.36326 0.0
C534 C 0.6518 0.88884 0.36251 0.0
C535 C 0.67121 0.8648 0.35834 0.0
H536 H 0.29696 0.30628 0.6182 0.0
H537 H 0.37364 0.27282 0.64799 0.0
H538 H 0.32827 0.3478 0.60686 0.0
H539 H 0.40459 0.31418 0.6368 0.0
H540 H 0.45993 0.37266 0.59991 0.0
H541 H 0.42681 0.3309 0.60835 0.0
H542 H 0.35429 0.39427 0.61867 0.0
H543 H 0.38734 0.43619 0.61006 0.0
C544 C 0.32044 0.30777 0.62232 0.0
C545 C 0.33282 0.28626 0.63399 0.0
C546 C 0.3383 0.33158 0.61588 0.0
C547 C 0.3689 0.33412 0.62087 0.0
C548 C 0.38121 0.31256 0.6325 0.0
C549 C 0.36338 0.28897 0.63901 0.0
C550 C 0.43686 0.37772 0.60383 0.0
C551 C 0.42634 0.40777 0.60444 0.0
C552 C 0.41794 0.35379 0.60875 0.0
C553 C 0.38805 0.35936 0.61431 0.0
C554 C 0.37716 0.38929 0.61434 0.0
C555 C 0.39616 0.41329 0.6095 0.0
H556 H 0.90711 0.0275 0.89284 0.0
H557 H 0.97355 0.06624 0.85738 0.0
H558 H 0.87043 0.06563 0.88359 0.0
H559 H 0.93665 0.104 0.84791 0.0
H560 H 0.87853 0.18976 0.85611 0.0
H561 H 0.91362 0.1483 0.86175 0.0
H562 H 0.83956 0.08433 0.85906 0.0
H563 H 0.80426 0.12592 0.85371 0.0
C564 C 0.91374 0.04382 0.88285 0.0
C565 C 0.94335 0.04399 0.87597 0.0
C566 C 0.89266 0.06561 0.8775 0.0
C567 C 0.90073 0.08803 0.86514 0.0
C568 C 0.92992 0.08736 0.85769 0.0
C569 C 0.951 0.06558 0.86304 0.0
C570 C 0.86971 0.16686 0.85664 0.0
C571 C 0.83857 0.16118 0.85454 0.0
C572 C 0.88987 0.14305 0.85974 0.0
C573 C 0.87938 0.113 0.86083 0.0
C574 C 0.84829 0.10726 0.85848 0.0
C575 C 0.8281 0.13109 0.85535 0.0
H576 H 0.94829 0.63487 0.59961 0.0
H577 H 0.8841 0.56102 0.60287 0.0
H578 H 0.90851 0.6705 0.60779 0.0
H579 H 0.84413 0.59679 0.61065 0.0
H580 H 0.79389 0.66473 0.64694 0.0
H581 H 0.83036 0.62808 0.63567 0.0
H582 H 0.86209 0.69387 0.59757 0.0
H583 H 0.82608 0.73083 0.60914 0.0
C584 C 0.92563 0.62626 0.60189 0.0
C585 C 0.91942 0.59509 0.60069 0.0
C586 C 0.90275 0.64673 0.60646 0.0
C587 C 0.87312 0.6365 0.60989 0.0
C588 C 0.8668 0.60537 0.60834 0.0
C589 C 0.88969 0.58489 0.6038 0.0
C590 C 0.80841 0.6713 0.63604 0.0
C591 C 0.80722 0.70079 0.62903 0.0
C592 C 0.82925 0.65022 0.62951 0.0
C593 C 0.84931 0.65811 0.61579 0.0
C594 C 0.84732 0.68725 0.60835 0.0
C595 C 0.82653 0.70836 0.6149 0.0
H596 H 0.11628 0.18795 0.34917 0.0
H597 H 0.19246 0.12797 0.35736 0.0
H598 H 0.08167 0.14724 0.35717 0.0
H599 H 0.15773 0.08697 0.36498 0.0
H600 H 0.08807 0.03881 0.40146 0.0
H601 H 0.12462 0.0747 0.38949 0.0
H602 H 0.06133 0.09874 0.34815 0.0
H603 H 0.02444 0.06335 0.36038 0.0
C604 C 0.12564 0.16596 0.35245 0.0
C605 C 0.15713 0.16129 0.35276 0.0
C606 C 0.10577 0.14253 0.35692 0.0
C607 C 0.11693 0.11383 0.36176 0.0
C608 C 0.14842 0.10891 0.36156 0.0
C609 C 0.16831 0.13238 0.35711 0.0
C610 C 0.08207 0.05146 0.38969 0.0
C611 C 0.05322 0.04842 0.38199 0.0
C612 C 0.10311 0.07195 0.38276 0.0
C613 C 0.09581 0.08979 0.36794 0.0
C614 C 0.06745 0.08574 0.35977 0.0
C615 C 0.04638 0.0653 0.36672 0.0
H616 H 0.62297 0.44211 0.10295 0.0
H617 H 0.56037 0.36675 0.1011 0.0
H618 H 0.66441 0.40713 0.1095 0.0
H619 H 0.60158 0.33201 0.10787 0.0
H620 H 0.68424 0.27317 0.10751 0.0
H621 H 0.64835 0.31029 0.09606 0.0
H622 H 0.67932 0.37539 0.13482 0.0
H623 H 0.71561 0.33847 0.1461 0.0
C624 C 0.61808 0.41809 0.10381 0.0
C625 C 0.58834 0.40722 0.10159 0.0
C626 C 0.64179 0.39809 0.10765 0.0
C627 C 0.63628 0.36681 0.10923 0.0
C628 C 0.60668 0.35592 0.10651 0.0
C629 C 0.58299 0.37589 0.10275 0.0
C630 C 0.68373 0.29554 0.11343 0.0
C631 C 0.7026 0.30276 0.12784 0.0
C632 C 0.66303 0.31675 0.10693 0.0
C633 C 0.66075 0.34565 0.11466 0.0
C634 C 0.68066 0.35338 0.12849 0.0
C635 C 0.70136 0.33215 0.13501 0.0
H636 H 0.46184 0.93719 0.85947 0.0
H637 H 0.40761 0.95384 0.90613 0.0
H638 H 0.42274 0.9033 0.84809 0.0
H639 H 0.36894 0.91941 0.89498 0.0
H640 H 0.29452 0.87114 0.8652 0.0
H641 H 0.33073 0.91095 0.87266 0.0
H642 H 0.40428 0.85338 0.85536 0.0
H643 H 0.3681 0.81396 0.8475 0.0
C644 C 0.44149 0.9338 0.86725 0.0
C645 C 0.43794 0.94807 0.88377 0.0
C646 C 0.41916 0.91421 0.86077 0.0
C647 C 0.39281 0.90841 0.87068 0.0
C648 C 0.38879 0.92358 0.8869 0.0
C649 C 0.41107 0.94323 0.89335 0.0
C650 C 0.3184 0.8671 0.86284 0.0
C651 C 0.32844 0.8393 0.85585 0.0
C652 C 0.33917 0.88987 0.8672 0.0
C653 C 0.37044 0.88534 0.8647 0.0
C654 C 0.38035 0.85783 0.85725 0.0
C655 C 0.3596 0.83511 0.85285 0.0
H656 H 0.88961 0.43205 0.84635 0.0
H657 H 0.89288 0.41 0.90206 0.0
H658 H 0.85102 0.39338 0.84187 0.0
H659 H 0.85366 0.3717 0.89763 0.0
H660 H 0.81535 0.2805 0.87667 0.0
H661 H 0.84911 0.32247 0.88369 0.0
H662 H 0.79883 0.3804 0.84814 0.0
H663 H 0.76543 0.33817 0.84078 0.0
C664 C 0.88188 0.41916 0.85769 0.0
C665 C 0.89445 0.424 0.87454 0.0
C666 C 0.85955 0.39712 0.85514 0.0
C667 C 0.8492 0.37944 0.8694 0.0
C668 C 0.86139 0.38468 0.88633 0.0
C669 C 0.88378 0.40671 0.88888 0.0
C670 C 0.81123 0.30228 0.87051 0.0
C671 C 0.78783 0.3059 0.85805 0.0
C672 C 0.83053 0.32641 0.87461 0.0
C673 C 0.82684 0.35474 0.86637 0.0
C674 C 0.80262 0.35871 0.85448 0.0
C675 C 0.78334 0.33455 0.85035 0.0
H676 H 0.31797 0.14594 0.62049 0.0
H677 H 0.34815 0.13787 0.67473 0.0
H678 H 0.35377 0.10678 0.61168 0.0
H679 H 0.38356 0.09814 0.66594 0.0
H680 H 0.47034 0.06307 0.63783 0.0
H681 H 0.43039 0.09561 0.64928 0.0
H682 H 0.36609 0.05333 0.61384 0.0
H683 H 0.4063 0.02114 0.60206 0.0
C684 C 0.33198 0.13555 0.63058 0.0
C685 C 0.33038 0.14522 0.64829 0.0
C686 C 0.35237 0.11291 0.62554 0.0
C687 C 0.37159 0.09934 0.6381 0.0
C688 C 0.36936 0.10841 0.65591 0.0
C689 C 0.34898 0.13111 0.66095 0.0
C690 C 0.44761 0.0604 0.63262 0.0
C691 C 0.44158 0.03969 0.6189 0.0
C692 C 0.42464 0.07898 0.63927 0.0
C693 C 0.39508 0.07725 0.63238 0.0
C694 C 0.38875 0.05558 0.61922 0.0
C695 C 0.41175 0.03699 0.61255 0.0
H696 H 0.71632 0.65583 0.34961 0.0
H697 H 0.68111 0.72297 0.38592 0.0
H698 H 0.67905 0.61936 0.36032 0.0
H699 H 0.64422 0.68634 0.39679 0.0
H700 H 0.55682 0.62971 0.38949 0.0
H701 H 0.59872 0.66404 0.38351 0.0
H702 H 0.66148 0.58895 0.38575 0.0
H703 H 0.61935 0.55435 0.39154 0.0
C704 C 0.70101 0.66265 0.3601 0.0
C705 C 0.70146 0.69242 0.36676 0.0
C706 C 0.67974 0.64169 0.3663 0.0
C707 C 0.65847 0.65009 0.37927 0.0
C708 C 0.65997 0.67937 0.38657 0.0
C709 C 0.68124 0.7003 0.3804 0.0
C710 C 0.57955 0.6205 0.38885 0.0
C711 C 0.58471 0.58927 0.39089 0.0
C712 C 0.60362 0.64024 0.38555 0.0
C713 C 0.63343 0.62922 0.38417 0.0
C714 C 0.63872 0.59806 0.38658 0.0
C715 C 0.61461 0.57829 0.38997 0.0
H716 H 0.1926 0.8686 0.13649 0.0
H717 H 0.11653 0.80804 0.14365 0.0
H718 H 0.15784 0.90961 0.12896 0.0
H719 H 0.08191 0.84877 0.13573 0.0
H720 H 0.02434 0.93235 0.1329 0.0
H721 H 0.06123 0.89694 0.14509 0.0
H722 H 0.12511 0.92233 0.10434 0.0
H723 H 0.08856 0.95824 0.09241 0.0
C724 C 0.16846 0.86406 0.13652 0.0
C725 C 0.15733 0.835 0.14057 0.0
C726 C 0.14856 0.88753 0.13213 0.0
C727 C 0.1171 0.88246 0.13167 0.0
C728 C 0.10597 0.85359 0.13618 0.0
C729 C 0.12585 0.83015 0.14061 0.0
C730 C 0.04641 0.93069 0.12668 0.0
C731 C 0.05342 0.94794 0.11158 0.0
C732 C 0.06748 0.91025 0.13361 0.0
C733 C 0.09599 0.90655 0.12558 0.0
C734 C 0.10346 0.92479 0.11095 0.0
C735 C 0.08243 0.9453 0.10405 0.0
H736 H 0.68391 0.7768 0.88615 0.0
H737 H 0.70464 0.83761 0.84298 0.0
H738 H 0.64837 0.81387 0.89812 0.0
H739 H 0.66854 0.87417 0.8546 0.0
H740 H 0.55826 0.86712 0.89813 0.0
H741 H 0.59913 0.83261 0.89018 0.0
H742 H 0.65669 0.90907 0.87784 0.0
H743 H 0.61546 0.94356 0.88529 0.0
C744 C 0.68109 0.79818 0.87929 0.0
C745 C 0.69697 0.80417 0.86355 0.0
C746 C 0.66054 0.81933 0.88608 0.0
C747 C 0.65533 0.84689 0.87723 0.0
C748 C 0.67218 0.85335 0.86188 0.0
C749 C 0.69282 0.83228 0.85515 0.0
C750 C 0.5797 0.87657 0.89383 0.0
C751 C 0.58351 0.90806 0.89219 0.0
C752 C 0.60324 0.85678 0.88939 0.0
C753 C 0.63122 0.86804 0.88331 0.0
C754 C 0.63529 0.89961 0.8822 0.0
C755 C 0.61169 0.91938 0.88653 0.0
H756 H 0.4103 0.46357 0.09587 0.0
H757 H 0.47758 0.43185 0.13312 0.0
H758 H 0.37444 0.4262 0.10713 0.0
H759 H 0.44153 0.3949 0.14456 0.0
H760 H 0.38621 0.30633 0.13966 0.0
H761 H 0.42004 0.3482 0.13264 0.0
H762 H 0.34396 0.40989 0.13259 0.0
H763 H 0.3099 0.36781 0.13935 0.0
C764 C 0.41727 0.44902 0.10667 0.0
C765 C 0.4469 0.45049 0.11346 0.0
C766 C 0.39666 0.42768 0.11318 0.0
C767 C 0.40526 0.40737 0.12662 0.0
C768 C 0.43441 0.40986 0.13398 0.0
C769 C 0.455 0.43118 0.12749 0.0
C770 C 0.37668 0.32884 0.13829 0.0
C771 C 0.34533 0.33369 0.13997 0.0
C772 C 0.39612 0.35291 0.13439 0.0
C773 C 0.38468 0.38239 0.13206 0.0
C774 C 0.35341 0.38738 0.13412 0.0
C775 C 0.33394 0.36329 0.13808 0.0
H776 H 0.92191 0.12272 0.41601 0.0
H777 H 0.88603 0.05864 0.37813 0.0
H778 H 0.88102 0.15782 0.409 0.0
H779 H 0.84596 0.09419 0.3705 0.0
H780 H 0.76536 0.15647 0.36697 0.0
H781 H 0.80092 0.11944 0.37905 0.0
H782 H 0.86773 0.19033 0.38568 0.0
H783 H 0.83197 0.22721 0.3744 0.0
C784 C 0.9053 0.11616 0.40616 0.0
C785 C 0.90733 0.08804 0.39753 0.0
C786 C 0.88191 0.13634 0.40206 0.0
C787 C 0.86026 0.12904 0.38904 0.0
C788 C 0.8619 0.10049 0.38077 0.0
C789 C 0.88505 0.08016 0.38505 0.0
C790 C 0.78752 0.16413 0.37123 0.0
C791 C 0.79584 0.19475 0.36966 0.0
C792 C 0.808 0.14289 0.37805 0.0
C793 C 0.83733 0.15179 0.38329 0.0
C794 C 0.84524 0.18261 0.3821 0.0
C795 C 0.82473 0.20381 0.37548 0.0
H796 H 0.20816 0.61918 0.61474 0.0
H797 H 0.14616 0.66277 0.65104 0.0
H798 H 0.1683 0.58417 0.60582 0.0
H799 H 0.10605 0.62812 0.64179 0.0
H800 H 0.04432 0.54845 0.6289 0.0
H801 H 0.08779 0.57568 0.64122 0.0
H802 H 0.12266 0.58962 0.58839 0.0
H803 H 0.07983 0.56209 0.57617 0.0
C804 C 0.18607 0.62119 0.62091 0.0
C805 C 0.18023 0.644 0.63345 0.0
C806 C 0.16319 0.60118 0.61573 0.0
C807 C 0.1339 0.60357 0.62293 0.0
C808 C 0.12842 0.62551 0.63607 0.0
C809 C 0.15137 0.64549 0.6413 0.0
C810 C 0.06148 0.55703 0.61996 0.0
C811 C 0.05856 0.5532 0.60155 0.0
C812 C 0.08627 0.57277 0.627 0.0
C813 C 0.10868 0.58485 0.61579 0.0
C814 C 0.10608 0.58025 0.59743 0.0
C815 C 0.08135 0.56462 0.59041 0.0
H816 H 0.55427 0.13227 0.60868 0.0
H817 H 0.61915 0.0589 0.60698 0.0
H818 H 0.59507 0.16797 0.61465 0.0
H819 H 0.66015 0.09481 0.6125 0.0
H820 H 0.71686 0.16296 0.64556 0.0
H821 H 0.6791 0.1258 0.6364 0.0
H822 H 0.63853 0.19211 0.60161 0.0
H823 H 0.67575 0.2295 0.61113 0.0
C824 C 0.57729 0.12379 0.6094 0.0
C825 C 0.58343 0.09273 0.60744 0.0
C826 C 0.60074 0.14431 0.6127 0.0
C827 C 0.63093 0.13428 0.61403 0.0
C828 C 0.63712 0.10324 0.61178 0.0
C829 C 0.61363 0.08269 0.60854 0.0
C830 C 0.70012 0.1695 0.63579 0.0
C831 C 0.69916 0.19927 0.62919 0.0
C832 C 0.67851 0.14815 0.63048 0.0
C833 C 0.65557 0.15605 0.6184 0.0
C834 C 0.65549 0.18545 0.61122 0.0
C835 C 0.67699 0.20682 0.61658 0.0
H836 H 0.15255 0.36043 0.82029 0.0
H837 H 0.1742 0.34191 0.87504 0.0
H838 H 0.11601 0.39884 0.82974 0.0
H839 H 0.13759 0.3799 0.88441 0.0
H840 H 0.08812 0.46688 0.89599 0.0
H841 H 0.12842 0.43496 0.88408 0.0
H842 H 0.0664 0.39912 0.84506 0.0
H843 H 0.02618 0.43127 0.85678 0.0
C844 C 0.14961 0.36461 0.83432 0.0
C845 C 0.16619 0.34801 0.84691 0.0
C846 C 0.12862 0.38652 0.83972 0.0
C847 C 0.12396 0.39243 0.85782 0.0
C848 C 0.14096 0.3762 0.87037 0.0
C849 C 0.16178 0.35423 0.86499 0.0
C850 C 0.08316 0.4525 0.88472 0.0
C851 C 0.05386 0.45142 0.87744 0.0
C852 C 0.10621 0.43409 0.87797 0.0
C853 C 0.1005 0.41432 0.86374 0.0
C854 C 0.07158 0.41426 0.85595 0.0
C855 C 0.04849 0.43258 0.86274 0.0
H856 H 0.92301 0.87277 0.07669 0.0
H857 H 0.88596 0.93643 0.11443 0.0
H858 H 0.88295 0.83683 0.08392 0.0
H859 H 0.84662 0.9001 0.12219 0.0
H860 H 0.76715 0.83595 0.12548 0.0
H861 H 0.80197 0.87364 0.11333 0.0
H862 H 0.87083 0.80451 0.10782 0.0
H863 H 0.8359 0.76693 0.11927 0.0
C864 C 0.9063 0.87909 0.08653 0.0
C865 C 0.9078 0.90733 0.09509 0.0
C866 C 0.8834 0.85843 0.09075 0.0
C867 C 0.86167 0.86539 0.10377 0.0
C868 C 0.86269 0.89406 0.11194 0.0
C869 C 0.88541 0.91484 0.10758 0.0
C870 C 0.78961 0.8288 0.12147 0.0
C871 C 0.79876 0.79846 0.12341 0.0
C872 C 0.80965 0.85042 0.1146 0.0
C873 C 0.8393 0.84219 0.10964 0.0
C874 C 0.84807 0.81167 0.1112 0.0
C875 C 0.82803 0.79008 0.11791 0.0
H876 H 0.40649 0.53386 0.39716 0.0
H877 H 0.47411 0.56526 0.36003 0.0
H878 H 0.37096 0.57156 0.38593 0.0
H879 H 0.4384 0.6026 0.34865 0.0
H880 H 0.38403 0.69184 0.35448 0.0
H881 H 0.41742 0.64942 0.36106 0.0
H882 H 0.34074 0.58846 0.36035 0.0
H883 H 0.30712 0.63107 0.35398 0.0
C884 C 0.4136 0.54841 0.38639 0.0
C885 C 0.44324 0.54676 0.37963 0.0
C886 C 0.39318 0.56994 0.3799 0.0
C887 C 0.40199 0.59027 0.36653 0.0
C888 C 0.43113 0.58758 0.35916 0.0
C889 C 0.45151 0.56605 0.36562 0.0
C890 C 0.37427 0.66938 0.35558 0.0
C891 C 0.34289 0.66488 0.35381 0.0
C892 C 0.39346 0.645 0.35923 0.0
C893 C 0.38172 0.61556 0.36123 0.0
C894 C 0.35042 0.61093 0.35906 0.0
C895 C 0.3312 0.63532 0.35533 0.0
H896 H 0.44304 0.12762 0.09949 0.0
H897 H 0.3817 0.05165 0.10449 0.0
H898 H 0.40202 0.1622 0.1069 0.0
H899 H 0.34041 0.08645 0.1116 0.0
H900 H 0.29092 0.15567 0.14833 0.0
H901 H 0.32687 0.11889 0.13657 0.0
H902 H 0.3543 0.18313 0.0965 0.0
H903 H 0.3188 0.22017 0.10846 0.0
C904 C 0.42071 0.11831 0.10195 0.0
C905 C 0.4157 0.08686 0.10152 0.0
C906 C 0.39711 0.13818 0.10608 0.0
C907 C 0.36794 0.12708 0.10986 0.0
C908 C 0.36272 0.09567 0.10896 0.0
C909 C 0.38635 0.07576 0.1048 0.0
C910 C 0.30431 0.16182 0.13686 0.0
C911 C 0.30222 0.19097 0.12946 0.0
C912 C 0.32483 0.14066 0.13006 0.0
C913 C 0.34366 0.14819 0.1157 0.0
C914 C 0.3405 0.17683 0.10777 0.0
C915 C 0.32001 0.19799 0.11457 0.0
H916 H 0.58327 0.53924 0.89865 0.0
H917 H 0.5196 0.56614 0.85809 0.0
H918 H 0.62004 0.57541 0.88715 0.0
H919 H 0.55665 0.6019 0.84639 0.0
H920 H 0.61265 0.69061 0.84896 0.0
H921 H 0.57763 0.64996 0.85652 0.0
H922 H 0.65291 0.58809 0.8623 0.0
H923 H 0.68807 0.62893 0.85505 0.0
C924 C 0.57729 0.5525 0.8871 0.0
C925 C 0.5484 0.54997 0.87939 0.0
C926 C 0.59844 0.57314 0.88045 0.0
C927 C 0.59118 0.59171 0.86593 0.0
C928 C 0.56275 0.58827 0.85777 0.0
C929 C 0.5416 0.56763 0.86442 0.0
C930 C 0.62174 0.66829 0.8517 0.0
C931 C 0.65316 0.66308 0.85153 0.0
C932 C 0.60164 0.64492 0.85592 0.0
C933 C 0.61248 0.61579 0.86005 0.0
C934 C 0.64387 0.61037 0.85941 0.0
C935 C 0.66399 0.63375 0.85517 0.0
H936 H 0.18094 0.78125 0.61321 0.0
H937 H 0.2059 0.84297 0.65524 0.0
H938 H 0.14703 0.81948 0.60096 0.0
H939 H 0.17145 0.88085 0.64326 0.0
H940 H 0.12099 0.95108 0.61141 0.0
H941 H 0.16077 0.91505 0.61914 0.0
H942 H 0.09888 0.84084 0.60953 0.0
H943 H 0.05942 0.87676 0.6014 0.0
C944 C 0.17939 0.80306 0.61976 0.0
C945 C 0.19594 0.80897 0.63529 0.0
C946 C 0.1598 0.8249 0.6128 0.0
C947 C 0.15626 0.85311 0.62123 0.0
C948 C 0.17382 0.85947 0.63633 0.0
C949 C 0.19349 0.83767 0.64326 0.0
C950 C 0.11596 0.92705 0.61081 0.0
C951 C 0.08698 0.91678 0.6059 0.0
C952 C 0.13873 0.90642 0.61531 0.0
C953 C 0.13301 0.87506 0.61503 0.0
C954 C 0.10423 0.86481 0.60966 0.0
C955 C 0.0815 0.88543 0.60512 0.0
H956 H 0.90468 0.47053 0.38896 0.0
H957 H 0.97221 0.43525 0.35294 0.0
H958 H 0.86857 0.4328 0.37838 0.0
H959 H 0.9359 0.39796 0.34215 0.0
H960 H 0.88131 0.30972 0.3508 0.0
H961 H 0.91478 0.35264 0.35579 0.0
H962 H 0.83813 0.4135 0.35356 0.0
H963 H 0.80436 0.37031 0.34882 0.0
C964 C 0.91163 0.45517 0.37852 0.0
C965 C 0.94145 0.45563 0.37197 0.0
C966 C 0.89087 0.43362 0.3724 0.0
C967 C 0.89951 0.41214 0.35959 0.0
C968 C 0.92875 0.41384 0.35228 0.0
C969 C 0.9495 0.43533 0.3584 0.0
C970 C 0.87156 0.33225 0.35121 0.0
C971 C 0.84014 0.33656 0.34953 0.0
C972 C 0.89081 0.35692 0.35394 0.0
C973 C 0.87911 0.3865 0.35506 0.0
C974 C 0.84777 0.39095 0.35292 0.0
C975 C 0.82847 0.36622 0.35013 0.0
H976 H 0.31939 0.77692 0.38524 0.0
H977 H 0.28671 0.84432 0.34837 0.0
H978 H 0.35589 0.81331 0.39688 0.0
H979 H 0.32359 0.88052 0.35984 0.0
H980 H 0.38168 0.94529 0.39206 0.0
H981 H 0.33978 0.91083 0.38551 0.0
H982 H 0.40227 0.83542 0.38473 0.0
H983 H 0.44396 0.86963 0.3915 0.0
C984 C 0.31973 0.7996 0.37975 0.0
C985 C 0.30033 0.80763 0.36575 0.0
C986 C 0.34078 0.82039 0.38636 0.0
C987 C 0.34288 0.84967 0.37914 0.0
C988 C 0.32242 0.85819 0.36577 0.0
C989 C 0.30136 0.83739 0.35913 0.0
C990 C 0.38642 0.92131 0.39066 0.0
C991 C 0.41619 0.91021 0.39221 0.0
C992 C 0.36243 0.90162 0.38683 0.0
C993 C 0.36771 0.87042 0.38458 0.0
C994 C 0.39736 0.85927 0.38662 0.0
C995 C 0.42132 0.87893 0.39037 0.0
H996 H 0.9097 0.53474 0.09369 0.0
H997 H 0.97335 0.55572 0.13546 0.0
H998 H 0.87353 0.57026 0.10645 0.0
H999 H 0.93683 0.59066 0.14848 0.0
H1000 H 0.80648 0.62349 0.13903 0.0
H1001 H 0.84034 0.58198 0.13099 0.0
H1002 H 0.9177 0.63993 0.14046 0.0
H1003 H 0.88397 0.68108 0.14889 0.0
C1004 C 0.91576 0.54648 0.10579 0.0
C1005 C 0.94453 0.54264 0.11345 0.0
C1006 C 0.89494 0.56676 0.11316 0.0
C1007 C 0.90239 0.58353 0.1284 0.0
C1008 C 0.93061 0.57853 0.13655 0.0
C1009 C 0.95146 0.55835 0.12914 0.0
C1010 C 0.83073 0.62725 0.13958 0.0
C1011 C 0.84254 0.65566 0.14449 0.0
C1012 C 0.85012 0.6035 0.13489 0.0
C1013 C 0.88173 0.60765 0.13499 0.0
C1014 C 0.89349 0.63579 0.14045 0.0
C1015 C 0.87413 0.65949 0.14518 0.0
H1016 H 0.1898 0.21139 0.88772 0.0
H1017 H 0.20776 0.15366 0.84266 0.0
H1018 H 0.15596 0.17297 0.89986 0.0
H1019 H 0.17328 0.11577 0.85448 0.0
H1020 H 0.12063 0.04466 0.88363 0.0
H1021 H 0.16224 0.07919 0.87692 0.0
H1022 H 0.10633 0.15519 0.89244 0.0
H1023 H 0.06519 0.12066 0.89965 0.0
C1024 C 0.18677 0.19038 0.88049 0.0
C1025 C 0.20122 0.18572 0.86413 0.0
C1026 C 0.16722 0.16844 0.8874 0.0
C1027 C 0.16155 0.14144 0.87804 0.0
C1028 C 0.17728 0.13615 0.86214 0.0
C1029 C 0.19698 0.15799 0.85529 0.0
C1030 C 0.11736 0.06872 0.88579 0.0
C1031 C 0.08952 0.07995 0.89204 0.0
C1032 C 0.14117 0.08852 0.88187 0.0
C1033 C 0.13762 0.12 0.88403 0.0
C1034 C 0.11007 0.13107 0.89084 0.0
C1035 C 0.08634 0.11127 0.89486 0.0
H1036 H 0.58904 0.46455 0.5922 0.0
H1037 H 0.53144 0.45063 0.63778 0.0
H1038 H 0.62584 0.42908 0.60438 0.0
H1039 H 0.56854 0.41551 0.65007 0.0
H1040 H 0.69536 0.37633 0.63577 0.0
H1041 H 0.66212 0.41867 0.62828 0.0
H1042 H 0.58402 0.36417 0.64164 0.0
H1043 H 0.61714 0.32208 0.64936 0.0
C1044 C 0.58449 0.4544 0.60498 0.0
C1045 C 0.55714 0.46017 0.61391 0.0
C1046 C 0.60567 0.43416 0.612 0.0
C1047 C 0.59995 0.41925 0.62811 0.0
C1048 C 0.57335 0.42627 0.63749 0.0
C1049 C 0.55219 0.44655 0.63049 0.0
C1050 C 0.67111 0.3735 0.6373 0.0
C1051 C 0.65887 0.34575 0.64305 0.0
C1052 C 0.65208 0.39772 0.63293 0.0
C1053 C 0.62045 0.39475 0.63432 0.0
C1054 C 0.60831 0.36734 0.64064 0.0
C1055 C 0.6273 0.34311 0.64494 0.0
H1056 H 0.22875 0.24241 0.1963 0.0
H1057 H 0.31441 0.27955 0.21377 0.0
H1058 H 0.21633 0.22909 0.22672 0.0
H1059 H 0.30219 0.26563 0.24418 0.0
H1060 H 0.25597 0.26607 0.29828 0.0
H1061 H 0.26736 0.28004 0.26779 0.0
H1062 H 0.232 0.19399 0.24979 0.0
H1063 H 0.22003 0.18023 0.28023 0.0
C1064 C 0.24501 0.24759 0.20662 0.0
C1065 C 0.27257 0.26207 0.20262 0.0
C1066 C 0.23794 0.23981 0.22404 0.0
C1067 C 0.25826 0.24631 0.23786 0.0
C1068 C 0.28587 0.2607 0.23385 0.0
C1069 C 0.29295 0.26849 0.21641 0.0
C1070 C 0.25052 0.25017 0.28781 0.0
C1071 C 0.23711 0.22202 0.29168 0.0
C1072 C 0.25723 0.2581 0.27036 0.0
C1073 C 0.2507 0.23807 0.25638 0.0
C1074 C 0.23701 0.21006 0.26024 0.0
C1075 C 0.23027 0.20212 0.2777 0.0
H1076 H 0.97847 0.99447 0.55148 0.0
H1077 H 0.07104 0.99185 0.53284 0.0
H1078 H 0.96064 -0.00027 0.52115 0.0
H1079 H 0.05337 0.99846 0.50255 0.0
H1080 H 0.01083 0.98175 0.44871 0.0
H1081 H 0.02809 0.97405 0.47898 0.0
H1082 H 0.95843 0.03511 0.49778 0.0
H1083 H 0.94041 0.0417 0.46757 0.0
C1084 C 0.99502 0.99521 0.54089 0.0
C1085 C 0.02615 0.99276 0.54453 0.0
C1086 C 0.98482 0.99844 0.52349 0.0
C1087 C 0.00554 -0.0003 0.50936 0.0
C1088 C 0.03671 0.9971 0.51305 0.0
C1089 C 0.04688 0.99348 0.53043 0.0
C1090 C -0.0008 0.9935 0.45933 0.0
C1091 C 0.97423 0.0123 0.45577 0.0
C1092 C 0.00921 0.98922 0.47669 0.0
C1093 C 0.9947 0.00396 0.49087 0.0
C1094 C 0.96982 0.02294 0.48725 0.0
C1095 C 0.95958 0.0269 0.46991 0.0
H1096 H 0.18205 0.7068 0.71901 0.0
H1097 H 0.25509 0.76562 0.70236 0.0
H1098 H 0.18957 0.72306 0.74959 0.0
H1099 H 0.26276 0.78154 0.73294 0.0
H1100 H 0.24489 0.82632 0.78697 0.0
H1101 H 0.23649 0.81086 0.75631 0.0
H1102 H 0.22839 0.71757 0.77302 0.0
H1103 H 0.23645 0.73295 0.80365 0.0
C1104 C 0.1997 0.72317 0.72186 0.0
C1105 C 0.21799 0.73488 0.70826 0.0
C1106 C 0.20411 0.73235 0.73939 0.0
C1107 C 0.22678 0.75354 0.74366 0.0
C1108 C 0.2449 0.76542 0.73003 0.0
C1109 C 0.2406 0.75614 0.71253 0.0
C1110 C 0.24133 0.80251 0.7841 0.0
C1111 C 0.24134 0.78087 0.79774 0.0
C1112 C 0.23666 0.79366 0.76654 0.0
C1113 C 0.23173 0.76301 0.76228 0.0
C1114 C 0.23175 0.74139 0.77592 0.0
C1115 C 0.23657 0.75021 0.79345 0.0
H1116 H 0.47854 0.97786 0.04129 0.0
H1117 H 0.53655 0.0569 0.04095 0.0
H1118 H 0.48922 0.96956 0.01002 0.0
H1119 H 0.54699 0.04865 0.00956 0.0
H1120 H 0.58232 0.00395 0.95831 0.0
H1121 H 0.5731 0.01122 0.98991 0.0
H1122 H 0.47751 0.99531 0.98164 0.0
H1123 H 0.48665 0.98779 0.95013 0.0
C1124 C 0.49358 0.99346 0.03455 0.0
C1125 C 0.50665 0.01809 0.04359 0.0
C1126 C 0.49956 0.98878 0.01662 0.0
C1127 C 0.51885 0.00851 0.00735 0.0
C1128 C 0.53223 0.03293 0.01642 0.0
C1129 C 0.5261 0.03774 0.03436 0.0
C1130 C 0.55935 0.00191 0.96325 0.0
C1131 C 0.53521 0.99528 0.95173 0.0
C1132 C 0.55407 0.00626 0.98131 0.0
C1133 C 0.5246 0.00383 0.98822 0.0
C1134 C 0.50051 0.997 0.97671 0.0
C1135 C 0.50575 0.99284 0.95865 0.0
H1136 H 0.31608 0.7268 0.28133 0.0
H1137 H 0.22671 0.7559 0.29758 0.0
H1138 H 0.30383 0.7395 0.25074 0.0
H1139 H 0.21435 0.76806 0.26698 0.0
H1140 H 0.2158 0.81656 0.21325 0.0
H1141 H 0.22796 0.8044 0.24391 0.0
H1142 H 0.27086 0.72129 0.22686 0.0
H1143 H 0.25919 0.73365 0.19617 0.0
C1144 C 0.29384 0.73587 0.27838 0.0
C1145 C 0.27238 0.74033 0.29188 0.0
C1146 C 0.28675 0.74296 0.26084 0.0
C1147 C 0.25809 0.75469 0.25644 0.0
C1148 C 0.23674 0.75937 0.26997 0.0
C1149 C 0.2438 0.75226 0.2875 0.0
C1150 C 0.22774 0.79564 0.21604 0.0
C1151 C 0.23658 0.7761 0.20227 0.0
C1152 C 0.2346 0.78863 0.23362 0.0
C1153 C 0.25045 0.76194 0.2378 0.0
C1154 C 0.25901 0.74225 0.22404 0.0
C1155 C 0.25213 0.74924 0.20646 0.0
H1156 H 0.48221 0.93583 0.46412 0.0
H1157 H 0.50102 0.02876 0.44963 0.0
H1158 H 0.49438 0.94757 0.49487 0.0
H1159 H 0.51267 0.04054 0.4804 0.0
H1160 H 0.56353 0.04051 0.53351 0.0
H1161 H 0.5513 0.02928 0.50272 0.0
H1162 H 0.47369 0.97702 0.51966 0.0
H1163 H 0.48615 0.98781 0.55046 0.0
C1164 C 0.48889 0.95876 0.46749 0.0
C1165 C 0.49067 0.98135 0.45443 0.0
C1166 C 0.49567 0.96552 0.48512 0.0
C1167 C 0.50442 0.995 0.49005 0.0
C1168 C 0.50632 0.01754 0.47698 0.0
C1169 C 0.4995 0.0108 0.45936 0.0
C1170 C 0.5438 0.02671 0.53067 0.0
C1171 C 0.52586 0.01499 0.54443 0.0
C1172 C 0.53673 0.02039 0.51303 0.0
C1173 C 0.51159 0.00219 0.50877 0.0
C1174 C 0.49346 0.99075 0.52253 0.0
C1175 C 0.5005 0.99711 0.54017 0.0
H1176 H 0.30161 0.24687 0.79153 0.0
H1177 H 0.20362 0.24785 0.79272 0.0
H1178 H 0.3003 0.23526 0.75994 0.0
H1179 H 0.20244 0.23613 0.76109 0.0
H1180 H 0.21727 0.18109 0.709 0.0
H1181 H 0.2176 0.19212 0.74076 0.0
H1182 H 0.28347 0.26303 0.73219 0.0
H1183 H 0.28316 0.2522 0.70054 0.0
C1184 C 0.2798 0.24455 0.78506 0.0
C1185 C 0.25272 0.24833 0.7946 0.0
C1186 C 0.27908 0.23804 0.76698 0.0
C1187 C 0.25127 0.23484 0.75811 0.0
C1188 C 0.22417 0.23827 0.76766 0.0
C1189 C 0.22488 0.24515 0.78572 0.0
C1190 C 0.23179 0.19904 0.71391 0.0
C1191 C 0.2502 0.21576 0.70229 0.0
C1192 C 0.23185 0.20543 0.73204 0.0
C1193 C 0.25063 0.22835 0.73889 0.0
C1194 C 0.26901 0.24504 0.72727 0.0
C1195 C 0.26868 0.23893 0.70915 0.0
H1196 H 0.97915 0.01009 0.94282 0.0
H1197 H 0.06789 0.97774 0.95805 0.0
H1198 H 0.9622 0.00601 0.97336 0.0
H1199 H 0.05064 0.97289 0.98861 0.0
H1200 H 0.01816 -0.00092 0.0442 0.0
H1201 H 0.03578 0.0035 0.01375 0.0
H1202 H 0.95022 0.96791 0.99511 0.0
H1203 H 0.93229 0.96424 0.02553 0.0
C1204 C 0.99502 0.00197 0.95268 0.0
C1205 C 0.02488 0.99423 0.94801 0.0
C1206 C 0.98523 -0.00055 0.97018 0.0
C1207 C 0.00501 0.98899 0.98342 0.0
C1208 C 0.03493 0.98136 0.97876 0.0
C1209 C 0.04478 0.98399 0.96124 0.0
C1210 C 0.0031 0.9922 0.0336 0.0
C1211 C 0.97377 0.98141 0.03727 0.0
C1212 C 0.01328 0.99456 0.01615 0.0
C1213 C 0.9944 0.9861 0.00199 0.0
C1214 C 0.96516 0.97508 0.00569 0.0
C1215 C 0.95494 0.97282 0.02314 0.0
H1216 H 0.75958 0.73258 0.69568 0.0
H1217 H 0.75895 0.82549 0.71396 0.0
H1218 H 0.75024 0.71517 0.72576 0.0
H1219 H 0.74886 0.80806 0.74401 0.0
H1220 H 0.76283 0.764 0.79818 0.0
H1221 H 0.77303 0.78144 0.7682 0.0
H1222 H 0.7102 0.71491 0.74768 0.0
H1223 H 0.70053 0.69693 0.77765 0.0
C1224 C 0.75737 0.74931 0.70611 0.0
C1225 C 0.76001 0.78043 0.70243 0.0
C1226 C 0.75181 0.73932 0.72334 0.0
C1227 C 0.74868 0.76023 0.73727 0.0
C1228 C 0.75151 0.79135 0.7336 0.0
C1229 C 0.75716 0.80135 0.71637 0.0
C1230 C 0.75118 0.75307 0.78728 0.0
C1231 C 0.73091 0.72902 0.7903 0.0
C1232 C 0.75691 0.7632 0.7701 0.0
C1233 C 0.74244 0.74957 0.75555 0.0
C1234 C 0.72205 0.72561 0.75858 0.0
C1235 C 0.71637 0.71542 0.77577 0.0
H1236 H 0.7125 0.18043 0.21193 0.0
H1237 H 0.76289 0.25958 0.19538 0.0
H1238 H 0.72352 0.19245 0.24279 0.0
H1239 H 0.77352 0.27175 0.22624 0.0
H1240 H 0.81543 0.26348 0.28143 0.0
H1241 H 0.80383 0.25084 0.25075 0.0
H1242 H 0.71128 0.2309 0.2654 0.0
H1243 H 0.72292 0.24314 0.29615 0.0
C1244 C 0.72577 0.20048 0.21487 0.0
C1245 C 0.73689 0.21901 0.2012 0.0
C1246 C 0.73196 0.20743 0.23255 0.0
C1247 C 0.74948 0.23297 0.23692 0.0
C1248 C 0.76032 0.25167 0.22326 0.0
C1249 C 0.75406 0.24479 0.20559 0.0
C1250 C 0.79263 0.2563 0.27813 0.0
C1251 C 0.77009 0.25434 0.29122 0.0
C1252 C 0.78595 0.24926 0.26053 0.0
C1253 C 0.75662 0.24002 0.25566 0.0
C1254 C 0.73416 0.2377 0.26878 0.0
C1255 C 0.74081 0.24484 0.28638 0.0
H1256 H 0.81039 0.2145 0.78073 0.0
H1257 H 0.71819 0.23689 0.79511 0.0
H1258 H 0.7981 0.22281 0.74963 0.0
H1259 H 0.70613 0.24572 0.76409 0.0
H1260 H 0.68769 0.22879 0.70536 0.0
H1261 H 0.70014 0.2181 0.73621 0.0
H1262 H 0.78553 0.26496 0.73003 0.0
H1263 H 0.77341 0.27516 0.69918 0.0
C1264 C 0.78754 0.22128 0.77727 0.0
C1265 C 0.76529 0.22507 0.79039 0.0
C1266 C 0.78054 0.22617 0.75946 0.0
C1267 C 0.75114 0.23492 0.75441 0.0
C1268 C 0.72887 0.23859 0.76753 0.0
C1269 C 0.73587 0.23373 0.78533 0.0
C1270 C 0.70913 0.23675 0.71058 0.0
C1271 C 0.72953 0.25284 0.69983 0.0
C1272 C 0.7162 0.23075 0.72827 0.0
C1273 C 0.74381 0.2407 0.73555 0.0
C1274 C 0.76425 0.25664 0.72475 0.0
C1275 C 0.7572 0.26264 0.70709 0.0
H1276 H 0.69873 0.79588 0.28097 0.0
H1277 H 0.77058 0.73758 0.29977 0.0
H1278 H 0.709 0.7798 0.25068 0.0
H1279 H 0.78143 0.7222 0.26948 0.0
H1280 H 0.77037 0.67684 0.2155 0.0
H1281 H 0.76018 0.69282 0.24577 0.0
H1282 H 0.74652 0.78478 0.22772 0.0
H1283 H 0.75584 0.76861 0.19735 0.0
C1284 C 0.71681 0.77975 0.27863 0.0
C1285 C 0.7338 0.76797 0.29277 0.0
C1286 C 0.72283 0.77068 0.26126 0.0
C1287 C 0.74608 0.74975 0.25764 0.0
C1288 C 0.76308 0.73802 0.27181 0.0
C1289 C 0.75695 0.74695 0.28918 0.0
C1290 C 0.76528 0.70049 0.21799 0.0
C1291 C 0.76385 0.72145 0.20402 0.0
C1292 C 0.75958 0.70968 0.23537 0.0
C1293 C 0.75249 0.74008 0.23918 0.0
C1294 C 0.75142 0.7611 0.22521 0.0
C1295 C 0.75697 0.75187 0.20782 0.0
H1296 H 0.51285 0.52758 0.04443 0.0
H1297 H 0.49669 0.43265 0.03362 0.0
H1298 H 0.50132 0.53976 0.01374 0.0
H1299 H 0.48467 0.445 0.00292 0.0
H1300 H 0.49829 0.47571 0.94537 0.0
H1301 H 0.5103 0.46342 0.97605 0.0
H1302 H 0.45778 0.54044 0.99363 0.0
H1303 H 0.44612 0.55305 0.96298 0.0
C1304 C 0.50671 0.5093 0.03553 0.0
C1305 C 0.50569 0.47912 0.04147 0.0
C1306 C 0.49996 0.51634 0.01796 0.0
C1307 C 0.49207 0.49336 0.00592 0.0
C1308 C 0.49103 0.46316 0.01185 0.0
C1309 C 0.49774 0.45612 0.02945 0.0
C1310 C 0.48937 0.49008 0.95577 0.0
C1311 C 0.47127 0.51538 0.95174 0.0
C1312 C 0.49609 0.4829 0.97335 0.0
C1313 C 0.48493 0.50092 0.98725 0.0
C1314 C 0.46698 0.52631 0.9832 0.0
C1315 C 0.46019 0.53344 0.96563 0.0
H1316 H 0.99199 0.43304 0.45268 0.0
H1317 H -0.00102 0.52903 0.44184 0.0
H1318 H 0.97996 0.4443 0.48354 0.0
H1319 H 0.98729 0.54016 0.47268 0.0
H1320 H 0.93669 0.54858 0.5254 0.0
H1321 H 0.94515 0.53642 0.49425 0.0
H1322 H 0.0074 0.46545 0.5094 0.0
H1323 H -0.00122 0.4773 0.5405 0.0
C1324 C 0.99087 0.45651 0.45686 0.0
C1325 C 0.99654 0.48013 0.44483 0.0
C1326 C 0.98413 0.46294 0.47454 0.0
C1327 C 0.98277 0.4931 0.48052 0.0
C1328 C 0.98788 0.51671 0.46841 0.0
C1329 C 0.99475 0.5103 0.45077 0.0
C1330 C 0.95214 0.53035 0.52208 0.0
C1331 C 0.9671 0.51394 0.53541 0.0
C1332 C 0.95706 0.52348 0.50425 0.0
C1333 C 0.9769 0.49996 0.49941 0.0
C1334 C 0.99169 0.48343 0.51274 0.0
C1335 C 0.9869 0.49039 0.53055 0.0
H1336 H 0.00933 0.46587 0.04455 0.0
H1337 H 0.00039 0.56115 0.03221 0.0
H1338 H 0.9982 0.45308 0.01388 0.0
H1339 H 0.98869 0.54825 0.00154 0.0
H1340 H 0.00283 0.51476 0.94473 0.0
H1341 H 0.01406 0.52732 0.97545 0.0
H1342 H 0.95622 0.45408 0.99284 0.0
H1343 H 0.94539 0.44114 0.9621 0.0
C1344 C 0.00482 0.4841 0.03532 0.0
C1345 C 0.00579 0.51455 0.04082 0.0
C1346 C 0.99829 0.47673 0.01775 0.0
C1347 C 0.99257 0.49964 0.00528 0.0
C1348 C 0.99338 0.5301 0.01079 0.0
C1349 C -9e-05 0.53748 0.02838 0.0
C1350 C 0.99257 0.50127 0.95509 0.0
C1351 C 0.97322 0.47693 0.95096 0.0
C1352 C -0.00116 0.50861 0.9727 0.0
C1353 C 0.98595 0.49177 0.98657 0.0
C1354 C 0.96677 0.4673 0.98244 0.0
C1355 C 0.96046 0.45996 0.96482 0.0
H1356 H 0.49875 0.47312 0.44882 0.0
H1357 H 0.50931 0.56865 0.46016 0.0
H1358 H 0.48639 0.46377 0.47979 0.0
H1359 H 0.49658 0.55926 0.4911 0.0
H1360 H 0.50733 0.52415 0.54808 0.0
H1361 H 0.51923 0.53357 0.51704 0.0
H1362 H 0.44559 0.47487 0.50127 0.0
H1363 H 0.43384 0.46514 0.53229 0.0
C1364 C 0.49832 0.49215 0.4579 0.0
C1365 C 0.50506 0.52163 0.45204 0.0
C1366 C 0.49108 0.48679 0.47562 0.0
C1367 C 0.49055 0.51078 0.48787 0.0
C1368 C 0.49717 0.54028 0.482 0.0
C1369 C 0.50428 0.54566 0.46426 0.0
C1370 C 0.49368 0.51322 0.538 0.0
C1371 C 0.46963 0.49389 0.54265 0.0
C1372 C 0.50039 0.51878 0.52023 0.0
C1373 C 0.48331 0.505 0.50673 0.0
C1374 C 0.45935 0.48557 0.51138 0.0
C1375 C 0.45253 0.48012 0.52915 0.0
H1376 H 0.32643 0.14708 0.33147 0.0
H1377 H 0.31809 0.19604 0.38083 0.0
H1378 H 0.36717 0.11697 0.3439 0.0
H1379 H 0.35975 0.16637 0.39317 0.0
H1380 H 0.39457 0.07421 0.41494 0.0
H1381 H 0.36383 0.11475 0.40278 0.0
H1382 H 0.41792 0.11389 0.35506 0.0
H1383 H 0.44825 0.07244 0.36708 0.0
C1384 C 0.33371 0.15186 0.34488 0.0
C1385 C 0.31868 0.17363 0.35526 0.0
C1386 C 0.35733 0.13472 0.35198 0.0
C1387 C 0.36661 0.13905 0.3696 0.0
C1388 C 0.35278 0.16211 0.37965 0.0
C1389 C 0.32901 0.17921 0.37255 0.0
C1390 C 0.4002 0.08288 0.40194 0.0
C1391 C 0.42356 0.06977 0.39186 0.0
C1392 C 0.3827 0.10638 0.39501 0.0
C1393 C 0.38825 0.11748 0.37788 0.0
C1394 C 0.41273 0.10551 0.36818 0.0
C1395 C 0.43019 0.08185 0.37509 0.0
H1396 H 0.04831 0.09178 0.6226 0.0
H1397 H 0.12524 0.06608 0.5905 0.0
H1398 H 0.07409 0.139 0.63062 0.0
H1399 H 0.15116 0.11215 0.59889 0.0
H1400 H 0.19069 0.2009 0.60767 0.0
H1401 H 0.15348 0.1652 0.59609 0.0
H1402 H 0.11587 0.15475 0.6486 0.0
H1403 H 0.15213 0.19166 0.65992 0.0
C1404 C 0.07063 0.09625 0.61722 0.0
C1405 C 0.08478 0.07513 0.60598 0.0
C1406 C 0.08543 0.12324 0.62184 0.0
C1407 C 0.11469 0.12954 0.61535 0.0
C1408 C 0.12841 0.10856 0.60384 0.0
C1409 C 0.11361 0.08184 0.59916 0.0
C1410 C 0.17391 0.19155 0.61661 0.0
C1411 C 0.17453 0.19869 0.63471 0.0
C1412 C 0.15274 0.17091 0.61003 0.0
C1413 C 0.13219 0.15642 0.6215 0.0
C1414 C 0.13126 0.16547 0.63936 0.0
C1415 C 0.15213 0.1866 0.64588 0.0
H1416 H 0.13391 0.79639 0.83672 0.0
H1417 H 0.1741 0.81277 0.88804 0.0
H1418 H 0.09055 0.82786 0.84493 0.0
H1419 H 0.13076 0.84409 0.8962 0.0
H1420 H 0.0421 0.88832 0.90956 0.0
H1421 H 0.07399 0.84518 0.90144 0.0
H1422 H 0.08885 0.88462 0.84986 0.0
H1423 H 0.05713 0.92772 0.85793 0.0
C1424 C 0.13322 0.80616 0.84987 0.0
C1425 C 0.15759 0.80241 0.86167 0.0
C1426 C 0.10844 0.82424 0.85453 0.0
C1427 C 0.1074 0.83853 0.87114 0.0
C1428 C 0.13083 0.83316 0.88335 0.0
C1429 C 0.15575 0.81538 0.87863 0.0
C1430 C 0.05163 0.88746 0.89636 0.0
C1431 C 0.04741 0.91157 0.88444 0.0
C1432 C 0.06997 0.86283 0.89175 0.0
C1433 C 0.08402 0.86168 0.87508 0.0
C1434 C 0.07812 0.88479 0.86276 0.0
C1435 C 0.06011 0.90957 0.86743 0.0
H1436 H 0.31933 0.80015 0.11372 0.0
H1437 H 0.32515 0.85164 0.16232 0.0
H1438 H 0.36156 0.82929 0.10157 0.0
H1439 H 0.36647 0.88119 0.15006 0.0
H1440 H 0.44858 0.92463 0.12778 0.0
H1441 H 0.41782 0.88351 0.1398 0.0
H1442 H 0.36626 0.88048 0.09116 0.0
H1443 H 0.39746 0.92072 0.07901 0.0
C1444 C 0.32981 0.81744 0.12187 0.0
C1445 C 0.31863 0.82385 0.13889 0.0
C1446 C 0.35391 0.83422 0.11489 0.0
C1447 C 0.36723 0.85778 0.12477 0.0
C1448 C 0.35704 0.86301 0.14214 0.0
C1449 C 0.33309 0.8462 0.14912 0.0
C1450 C 0.43101 0.9148 0.11956 0.0
C1451 C 0.42518 0.92622 0.10254 0.0
C1452 C 0.41331 0.89133 0.12647 0.0
C1453 C 0.38934 0.87892 0.11653 0.0
C1454 C 0.38469 0.88924 0.09914 0.0
C1455 C 0.40246 0.91256 0.09221 0.0
H1456 H 0.66033 0.83028 0.66322 0.0
H1457 H 0.69097 0.80936 0.61027 0.0
H1458 H 0.62273 0.86483 0.65123 0.0
H1459 H 0.65236 0.84298 0.59816 0.0
H1460 H 0.62002 0.94017 0.5872 0.0
H1461 H 0.64842 0.89629 0.59691 0.0
H1462 H 0.578 0.87511 0.63477 0.0
H1463 H 0.54994 0.92009 0.62541 0.0
C1464 C 0.65848 0.83242 0.64897 0.0
C1465 C 0.67899 0.81753 0.6377 0.0
C1466 C 0.63674 0.85215 0.64207 0.0
C1467 C 0.63479 0.85713 0.62372 0.0
C1468 C 0.65376 0.84031 0.61239 0.0
C1469 C 0.67577 0.82088 0.61931 0.0
C1470 C 0.61039 0.92605 0.59749 0.0
C1471 C 0.58287 0.93381 0.60567 0.0
C1472 C 0.62659 0.9006 0.60296 0.0
C1473 C 0.61555 0.88204 0.61665 0.0
C1474 C 0.58738 0.88914 0.62437 0.0
C1475 C 0.57124 0.91484 0.61897 0.0
H1476 H 0.94686 0.92799 0.36707 0.0
H1477 H 0.89713 0.92013 0.41616 0.0
H1478 H 0.9174 0.8862 0.35467 0.0
H1479 H 0.86719 0.87928 0.40365 0.0
H1480 H 0.82185 0.79898 0.38042 0.0
H1481 H 0.86377 0.8286 0.39253 0.0
H1482 H 0.86602 0.88237 0.34473 0.0
H1483 H 0.82504 0.85229 0.33247 0.0
C1484 C 0.9299 0.91714 0.37528 0.0
C1485 C 0.92402 0.92767 0.3925 0.0
C1486 C 0.91293 0.89329 0.36815 0.0
C1487 C 0.88967 0.8796 0.37808 0.0
C1488 C 0.88509 0.88902 0.39566 0.0
C1489 C 0.90213 0.9127 0.4028 0.0
C1490 C 0.83169 0.81679 0.3724 0.0
C1491 C 0.81984 0.82358 0.3556 0.0
C1492 C 0.85562 0.83384 0.37936 0.0
C1493 C 0.86806 0.85809 0.36969 0.0
C1494 C 0.85728 0.86368 0.35249 0.0
C1495 C 0.83352 0.84656 0.34551 0.0
H1496 H 0.82553 0.14076 0.16035 0.0
H1497 H 0.82371 0.19723 0.11363 0.0
H1498 H 0.86695 0.11164 0.14789 0.0
H1499 H 0.86613 0.16856 0.10132 0.0
H1500 H 0.90109 0.07868 0.07615 0.0
H1501 H 0.87069 0.11885 0.08904 0.0
H1502 H 0.91851 0.1086 0.13864 0.0
H1503 H 0.94833 0.06747 0.12585 0.0
C1504 C 0.8344 0.14738 0.14755 0.0
C1505 C 0.821 0.171 0.13785 0.0
C1506 C 0.85843 0.13081 0.14045 0.0
C1507 C 0.8698 0.13759 0.12353 0.0
C1508 C 0.85756 0.16241 0.11427 0.0
C1509 C 0.83335 0.17892 0.12134 0.0
C1510 C 0.90549 0.08527 0.08973 0.0
C1511 C 0.92674 0.0695 0.10008 0.0
C1512 C 0.88818 0.10855 0.0971 0.0
C1513 C 0.89188 0.11677 0.11496 0.0
C1514 C 0.91465 0.1024 0.12495 0.0
C1515 C 0.93184 0.07893 0.1176 0.0
H1516 H 0.5507 0.0624 0.85946 0.0
H1517 H 0.57029 0.0942 0.91235 0.0
H1518 H 0.58689 0.0987 0.84747 0.0
H1519 H 0.60746 0.1295 0.90049 0.0
H1520 H 0.66747 0.19865 0.87376 0.0
H1521 H 0.62127 0.17288 0.88347 0.0
H1522 H 0.64035 0.09934 0.84724 0.0
H1523 H 0.68544 0.12539 0.83721 0.0
C1524 C 0.56249 0.07741 0.8685 0.0
C1525 C 0.55798 0.07517 0.88685 0.0
C1526 C 0.5834 0.09807 0.86166 0.0
C1527 C 0.60065 0.11657 0.87303 0.0
C1528 C 0.59454 0.11576 0.89131 0.0
C1529 C 0.57327 0.0954 0.89813 0.0
C1530 C 0.66155 0.1771 0.86779 0.0
C1531 C 0.68017 0.164 0.85477 0.0
C1532 C 0.63514 0.1623 0.87338 0.0
C1533 C 0.62696 0.13405 0.86611 0.0
C1534 C 0.64544 0.12134 0.85288 0.0
C1535 C 0.67159 0.13618 0.84723 0.0
H1536 H 0.81466 0.69079 0.87862 0.0
H1537 H 0.81926 0.64261 0.82884 0.0
H1538 H 0.85515 0.65887 0.89035 0.0
H1539 H 0.85895 0.61033 0.84066 0.0
H1540 H 0.93997 0.56325 0.8629 0.0
H1541 H 0.91024 0.60554 0.85135 0.0
H1542 H 0.85701 0.60648 0.89939 0.0
H1543 H 0.88708 0.56499 0.91106 0.0
C1544 C 0.82452 0.67364 0.87012 0.0
C1545 C 0.81348 0.66898 0.85288 0.0
C1546 C 0.84761 0.65526 0.87687 0.0
C1547 C 0.86008 0.63184 0.86651 0.0
C1548 C 0.85011 0.62832 0.84896 0.0
C1549 C 0.82713 0.64671 0.84221 0.0
C1550 C 0.92221 0.57282 0.87108 0.0
C1551 C 0.91566 0.56055 0.88781 0.0
C1552 C 0.90511 0.59696 0.86444 0.0
C1553 C 0.88111 0.60927 0.87439 0.0
C1554 C 0.87554 0.59784 0.89144 0.0
C1555 C 0.89264 0.57381 0.89809 0.0
H1556 H 0.68489 0.69464 0.11405 0.0
H1557 H 0.66939 0.65234 0.16484 0.0
H1558 H 0.64465 0.66374 0.10115 0.0
H1559 H 0.63019 0.62081 0.15189 0.0
H1560 H 0.55316 0.57215 0.12671 0.0
H1561 H 0.58162 0.61508 0.13858 0.0
H1562 H 0.6417 0.61154 0.0934 0.0
H1563 H 0.61276 0.56962 0.08132 0.0
C1564 C 0.67267 0.67902 0.1225 0.0
C1565 C 0.68064 0.67561 0.1404 0.0
C1566 C 0.64973 0.66118 0.1151 0.0
C1567 C 0.63446 0.63943 0.12541 0.0
C1568 C 0.64121 0.63747 0.14356 0.0
C1569 C 0.66393 0.65544 0.15098 0.0
C1570 C 0.57218 0.58088 0.11922 0.0
C1571 C 0.58093 0.56726 0.10319 0.0
C1572 C 0.58856 0.6054 0.12604 0.0
C1573 C 0.61413 0.61666 0.11703 0.0
C1574 C 0.62193 0.60383 0.10061 0.0
C1575 C 0.60547 0.57952 0.09374 0.0
H1576 H 0.68154 0.30235 0.37937 0.0
H1577 H 0.67417 0.35141 0.33005 0.0
H1578 H 0.64057 0.33292 0.39177 0.0
H1579 H 0.63407 0.38241 0.34254 0.0
H1580 H 0.55283 0.42726 0.36568 0.0
H1581 H 0.5832 0.38588 0.35359 0.0
H1582 H 0.63698 0.38464 0.40143 0.0
H1583 H 0.60619 0.42516 0.41366 0.0
C1584 C 0.671 0.31944 0.37112 0.0
C1585 C 0.68135 0.3247 0.3538 0.0
C1586 C 0.64762 0.33705 0.37825 0.0
C1587 C 0.63421 0.36033 0.36821 0.0
C1588 C 0.6436 0.36449 0.3506 0.0
C1589 C 0.66683 0.34683 0.34347 0.0
C1590 C 0.57084 0.4178 0.37371 0.0
C1591 C 0.57733 0.42974 0.39054 0.0
C1592 C 0.58833 0.39418 0.36675 0.0
C1593 C 0.61272 0.38211 0.37646 0.0
C1594 C 0.61818 0.3931 0.39364 0.0
C1595 C 0.60065 0.41658 0.40061 0.0
H1596 H 0.94745 0.42982 0.62421 0.0
H1597 H 0.88736 0.43291 0.57904 0.0
H1598 H 0.91837 0.38742 0.63627 0.0
H1599 H 0.85803 0.3914 0.59123 0.0
H1600 H 0.8151 0.3081 0.61193 0.0
H1601 H 0.85566 0.33864 0.59908 0.0
H1602 H 0.86881 0.38325 0.64947 0.0
H1603 H 0.82909 0.35226 0.66238 0.0
C1604 C 0.92824 0.42129 0.61678 0.0
C1605 C 0.91949 0.43496 0.60078 0.0
C1606 C 0.91153 0.39709 0.62371 0.0
C1607 C 0.88577 0.38612 0.61477 0.0
C1608 C 0.87796 0.39894 0.59837 0.0
C1609 C 0.89464 0.42302 0.59145 0.0
C1610 C 0.82707 0.32403 0.62033 0.0
C1611 C 0.81856 0.32811 0.63809 0.0
C1612 C 0.85021 0.34162 0.61295 0.0
C1613 C 0.86521 0.36368 0.62318 0.0
C1614 C 0.85794 0.36633 0.64123 0.0
C1615 C 0.83493 0.3487 0.64861 0.0
H1616 H 0.10782 0.42211 0.07954 0.0
H1617 H 0.05682 0.42691 0.12833 0.0
H1618 H 0.13897 0.38202 0.0919 0.0
H1619 H 0.08758 0.38599 0.14058 0.0
H1620 H 0.17994 0.35271 0.16298 0.0
H1621 H 0.1392 0.38313 0.15073 0.0
H1622 H 0.1425 0.33067 0.1024 0.0
H1623 H 0.18408 0.30065 0.11453 0.0
C1624 C 0.10287 0.41422 0.09281 0.0
C1625 C 0.08014 0.428 0.10305 0.0
C1626 C 0.1206 0.39099 0.09985 0.0
C1627 C 0.11591 0.3809 0.11728 0.0
C1628 C 0.09208 0.39359 0.1272 0.0
C1629 C 0.07439 0.41695 0.12016 0.0
C1630 C 0.17176 0.34737 0.14982 0.0
C1631 C 0.18556 0.32456 0.13962 0.0
C1632 C 0.14817 0.36468 0.14284 0.0
C1633 C 0.13771 0.35949 0.12552 0.0
C1634 C 0.15039 0.33555 0.11568 0.0
C1635 C 0.17412 0.31828 0.12265 0.0
H1636 H 0.43437 0.43485 0.86034 0.0
H1637 H 0.39619 0.41713 0.91201 0.0
H1638 H 0.40302 0.39457 0.84779 0.0
H1639 H 0.3645 0.37757 0.89944 0.0
H1640 H 0.31825 0.2984 0.87454 0.0
H1641 H 0.361 0.32833 0.88537 0.0
H1642 H 0.34913 0.39106 0.84201 0.0
H1643 H 0.30708 0.36093 0.831 0.0
C1644 C 0.4196 0.42213 0.86906 0.0
C1645 C 0.41746 0.42946 0.88712 0.0
C1646 C 0.40154 0.39916 0.86185 0.0
C1647 C 0.38103 0.38307 0.87258 0.0
C1648 C 0.38023 0.38928 0.89082 0.0
C1649 C 0.39826 0.41218 0.89801 0.0
C1650 C 0.3251 0.31832 0.86718 0.0
C1651 C 0.30904 0.32751 0.85204 0.0
C1652 C 0.34951 0.33552 0.87342 0.0
C1653 C 0.35834 0.36221 0.86464 0.0
C1654 C 0.3432 0.37047 0.84899 0.0
C1655 C 0.31886 0.3533 0.84276 0.0
H1656 H 0.38631 0.57717 0.58505 0.0
H1657 H 0.43995 0.57326 0.63289 0.0
H1658 H 0.35514 0.61673 0.59803 0.0
H1659 H 0.40905 0.61358 0.64578 0.0
H1660 H 0.31748 0.64729 0.66953 0.0
H1661 H 0.35758 0.61645 0.65677 0.0
H1662 H 0.35264 0.66849 0.60841 0.0
H1663 H 0.31185 0.69894 0.62104 0.0
C1664 C 0.39177 0.5851 0.59825 0.0
C1665 C 0.41539 0.57181 0.60802 0.0
C1666 C 0.37403 0.60801 0.60565 0.0
C1667 C 0.37952 0.61826 0.62298 0.0
C1668 C 0.40398 0.60588 0.63248 0.0
C1669 C 0.42176 0.58288 0.62507 0.0
C1670 C 0.32521 0.65247 0.65626 0.0
C1671 C 0.31118 0.6753 0.64622 0.0
C1672 C 0.34839 0.63489 0.64898 0.0
C1673 C 0.35814 0.63982 0.6315 0.0
C1674 C 0.34527 0.66379 0.6218 0.0
C1675 C 0.32201 0.68134 0.62908 0.0
H1676 H 0.05439 0.57158 0.36017 0.0
H1677 H 0.10281 0.57386 0.40991 0.0
H1678 H 0.08575 0.61315 0.34922 0.0
H1679 H 0.13457 0.61456 0.39884 0.0
H1680 H 0.18107 0.69695 0.37839 0.0
H1681 H 0.13888 0.66638 0.38931 0.0
H1682 H 0.13777 0.61646 0.34003 0.0
H1683 H 0.17908 0.64743 0.32899 0.0
C1684 C 0.07152 0.58112 0.36882 0.0
C1685 C 0.07638 0.56918 0.38582 0.0
C1686 C 0.08956 0.60484 0.36253 0.0
C1687 C 0.11286 0.61701 0.37309 0.0
C1688 C 0.11663 0.60602 0.39041 0.0
C1689 C 0.09855 0.58244 0.39671 0.0
C1690 C 0.17145 0.67976 0.3698 0.0
C1691 C 0.18366 0.67435 0.35291 0.0
C1692 C 0.14738 0.66217 0.37608 0.0
C1693 C 0.13511 0.63879 0.36561 0.0
C1694 C 0.14638 0.63448 0.34839 0.0
C1695 C 0.17031 0.6521 0.3421 0.0
loop_
_geom_bond_atom_site_label_1
_geom_bond_atom_site_label_2
_geom_bond_distance
_geom_bond_site_symmetry_2
_ccdc_geom_bond_type
C0 O1 1.160 . S
C0 O7 1.185 . S
O1 C0 1.160 . S
O2 Zn3 1.899 . S
O2 C10 1.284 . S
Zn3 O2 1.899 . S
Zn3 O4 2.032 . S
Zn3 O7 2.086 . S
Zn3 O12 1.977 . S
O4 Zn3 2.032 . S
O4 C8 1.278 . S
C5 O6 1.203 . S
C5 O12 1.267 . S
O6 C5 1.203 . S
O7 C0 1.185 . S
O7 Zn3 2.086 . S
C8 O4 1.278 . S
C8 O9 1.211 . S
O9 C8 1.211 . S
C10 O2 1.284 . S
C10 O11 1.273 . S
O11 C10 1.273 . S
O12 Zn3 1.977 . S
O12 C5 1.267 . S
C13 O14 1.160 . S
C13 O20 1.185 . S
O14 C13 1.160 . S
O15 Zn16 1.899 . S
O15 C23 1.284 . S
Zn16 O15 1.899 . S
Zn16 O17 2.032 . S
Zn16 O20 2.086 1_565 S
Zn16 O25 1.977 . S
O17 Zn16 2.032 . S
O17 C21 1.278 . S
C18 O19 1.203 . S
C18 O25 1.267 1_655 S
O19 C18 1.203 . S
O20 C13 1.185 . S
O20 Zn16 2.086 1_545 S
C21 O17 1.278 . S
C21 O22 1.211 . S
O22 C21 1.211 . S
C23 O15 1.284 . S
C23 O24 1.273 . S
O24 C23 1.273 . S
O25 Zn16 1.977 . S
O25 C18 1.267 1_455 S
C26 O27 1.160 . S
C26 O33 1.185 . S
O27 C26 1.160 . S
O28 Zn29 1.899 . S
O28 C36 1.284 . S
Zn29 O28 1.899 . S
Zn29 O30 2.032 . S
Zn29 O33 2.086 . S
Zn29 O38 1.977 . S
O30 Zn29 2.032 . S
O30 C34 1.278 . S
C31 O32 1.203 . S
C31 O38 1.267 . S
O32 C31 1.203 . S
O33 C26 1.185 . S
O33 Zn29 2.086 . S
C34 O30 1.278 . S
C34 O35 1.211 . S
O35 C34 1.211 . S
C36 O28 1.284 . S
C36 O37 1.273 . S
O37 C36 1.273 . S
O38 Zn29 1.977 . S
O38 C31 1.267 . S
C39 O40 1.160 . S
C39 O46 1.185 . S
O40 C39 1.160 . S
O41 Zn42 1.899 . S
O41 C49 1.284 . S
Zn42 O41 1.899 . S
Zn42 O43 2.032 . S
Zn42 O46 2.086 1_545 S
Zn42 O51 1.977 . S
O43 Zn42 2.032 . S
O43 C47 1.278 . S
C44 O45 1.203 . S
C44 O51 1.267 . S
O45 C44 1.203 . S
O46 C39 1.185 . S
O46 Zn42 2.086 1_565 S
C47 O43 1.278 . S
C47 O48 1.211 . S
O48 C47 1.211 . S
C49 O41 1.284 . S
C49 O50 1.273 . S
O50 C49 1.273 . S
O51 Zn42 1.977 . S
O51 C44 1.267 . S
C52 O53 1.160 . S
C52 O59 1.185 . S
O53 C52 1.160 . S
O54 Zn55 1.899 . S
O54 C62 1.284 . S
Zn55 O54 1.899 . S
Zn55 O56 2.032 . S
Zn55 O59 2.086 . S
Zn55 O64 1.977 . S
O56 Zn55 2.032 . S
O56 C60 1.278 . S
C57 O58 1.203 . S
C57 O64 1.267 . S
O58 C57 1.203 . S
O59 C52 1.185 . S
O59 Zn55 2.086 . S
C60 O56 1.278 . S
C60 O61 1.211 . S
O61 C60 1.211 . S
C62 O54 1.284 . S
C62 O63 1.273 . S
O63 C62 1.273 . S
O64 Zn55 1.977 . S
O64 C57 1.267 . S
C65 O66 1.160 . S
C65 O72 1.185 . S
O66 C65 1.160 . S
O67 Zn68 1.899 . S
O67 C75 1.284 . S
Zn68 O67 1.899 . S
Zn68 O69 2.032 . S
Zn68 O72 2.086 1_565 S
Zn68 O77 1.977 . S
O69 Zn68 2.032 . S
O69 C73 1.278 . S
C70 O71 1.203 . S
C70 O77 1.267 . S
O71 C70 1.203 . S
O72 C65 1.185 . S
O72 Zn68 2.086 1_545 S
C73 O69 1.278 . S
C73 O74 1.211 . S
O74 C73 1.211 . S
C75 O67 1.284 . S
C75 O76 1.273 . S
O76 C75 1.273 . S
O77 Zn68 1.977 . S
O77 C70 1.267 . S
C78 O79 1.160 . S
C78 O85 1.185 . S
O79 C78 1.160 . S
O80 Zn81 1.899 . S
O80 C88 1.284 . S
Zn81 O80 1.899 . S
Zn81 O82 2.032 . S
Zn81 O85 2.086 . S
Zn81 O90 1.977 . S
O82 Zn81 2.032 . S
O82 C86 1.278 . S
C83 O84 1.203 . S
C83 O90 1.267 . S
O84 C83 1.203 . S
O85 C78 1.185 . S
O85 Zn81 2.086 . S
C86 O82 1.278 . S
C86 O87 1.211 . S
O87 C86 1.211 . S
C88 O80 1.284 . S
C88 O89 1.273 . S
O89 C88 1.273 . S
O90 Zn81 1.977 . S
O90 C83 1.267 . S
C91 O92 1.160 . S
C91 O98 1.185 . S
O92 C91 1.160 . S
O93 Zn94 1.899 . S
O93 C101 1.284 . S
Zn94 O93 1.899 . S
Zn94 O95 2.032 . S
Zn94 O98 2.086 1_545 S
Zn94 O103 1.977 . S
O95 Zn94 2.032 . S
O95 C99 1.278 . S
C96 O97 1.203 . S
C96 O103 1.267 1_655 S
O97 C96 1.203 . S
O98 C91 1.185 . S
O98 Zn94 2.086 1_565 S
C99 O95 1.278 . S
C99 O100 1.211 . S
O100 C99 1.211 . S
C101 O93 1.284 . S
C101 O102 1.273 . S
O102 C101 1.273 . S
O103 Zn94 1.977 . S
O103 C96 1.267 1_455 S
C104 O105 1.160 . S
C104 O111 1.185 . S
O105 C104 1.160 . S
O106 Zn107 1.899 . S
O106 C114 1.284 . S
Zn107 O106 1.899 . S
Zn107 O108 2.032 . S
Zn107 O111 2.086 . S
Zn107 O116 1.977 . S
O108 Zn107 2.032 . S
O108 C112 1.278 . S
C109 O110 1.203 . S
C109 O116 1.267 . S
O110 C109 1.203 . S
O111 C104 1.185 . S
O111 Zn107 2.086 . S
C112 O108 1.278 . S
C112 O113 1.211 . S
O113 C112 1.211 . S
C114 O106 1.284 . S
C114 O115 1.273 . S
O115 C114 1.273 . S
O116 Zn107 1.977 . S
O116 C109 1.267 . S
C117 O118 1.160 . S
C117 O124 1.185 . S
O118 C117 1.160 . S
O119 Zn120 1.899 . S
O119 C127 1.284 . S
Zn120 O119 1.899 . S
Zn120 O121 2.032 . S
Zn120 O124 2.086 1_545 S
Zn120 O129 1.977 . S
O121 Zn120 2.032 . S
O121 C125 1.278 . S
C122 O123 1.203 . S
C122 O129 1.267 1_455 S
O123 C122 1.203 . S
O124 C117 1.185 . S
O124 Zn120 2.086 1_565 S
C125 O121 1.278 . S
C125 O126 1.211 . S
O126 C125 1.211 . S
C127 O119 1.284 . S
C127 O128 1.273 . S
O128 C127 1.273 . S
O129 Zn120 1.977 . S
O129 C122 1.267 1_655 S
C130 O131 1.160 . S
C130 O137 1.185 . S
O131 C130 1.160 . S
O132 Zn133 1.899 . S
O132 C140 1.284 . S
Zn133 O132 1.899 . S
Zn133 O134 2.032 . S
Zn133 O137 2.086 . S
Zn133 O142 1.977 . S
O134 Zn133 2.032 . S
O134 C138 1.278 . S
C135 O136 1.203 . S
C135 O142 1.267 . S
O136 C135 1.203 . S
O137 C130 1.185 . S
O137 Zn133 2.086 . S
C138 O134 1.278 . S
C138 O139 1.211 . S
O139 C138 1.211 . S
C140 O132 1.284 . S
C140 O141 1.273 . S
O141 C140 1.273 . S
O142 Zn133 1.977 . S
O142 C135 1.267 . S
C143 O144 1.160 . S
C143 O150 1.185 . S
O144 C143 1.160 . S
O145 Zn146 1.899 . S
O145 C153 1.284 . S
Zn146 O145 1.899 . S
Zn146 O147 2.032 . S
Zn146 O150 2.086 1_565 S
Zn146 O155 1.977 . S
O147 Zn146 2.032 . S
O147 C151 1.278 . S
C148 O149 1.203 . S
C148 O155 1.267 . S
O149 C148 1.203 . S
O150 C143 1.185 . S
O150 Zn146 2.086 1_545 S
C151 O147 1.278 . S
C151 O152 1.211 . S
O152 C151 1.211 . S
C153 O145 1.284 . S
C153 O154 1.273 . S
O154 C153 1.273 . S
O155 Zn146 1.977 . S
O155 C148 1.267 . S
C156 O157 1.160 . S
C156 O163 1.185 . S
O157 C156 1.160 . S
O158 Zn159 1.899 . S
O158 C166 1.284 . S
Zn159 O158 1.899 . S
Zn159 O160 2.032 . S
Zn159 O163 2.086 . S
Zn159 O168 1.977 . S
O160 Zn159 2.032 . S
O160 C164 1.278 . S
C161 O162 1.203 . S
C161 O168 1.267 . S
O162 C161 1.203 . S
O163 C156 1.185 . S
O163 Zn159 2.086 . S
C164 O160 1.278 . S
C164 O165 1.211 . S
O165 C164 1.211 . S
C166 O158 1.284 . S
C166 O167 1.273 . S
O167 C166 1.273 . S
O168 Zn159 1.977 . S
O168 C161 1.267 . S
C169 O170 1.160 . S
C169 O176 1.185 . S
O170 C169 1.160 . S
O171 Zn172 1.899 . S
O171 C179 1.284 . S
Zn172 O171 1.899 . S
Zn172 O173 2.032 . S
Zn172 O176 2.086 1_545 S
Zn172 O181 1.977 . S
O173 Zn172 2.032 . S
O173 C177 1.278 . S
C174 O175 1.203 . S
C174 O181 1.267 . S
O175 C174 1.203 . S
O176 C169 1.185 . S
O176 Zn172 2.086 1_565 S
C177 O173 1.278 . S
C177 O178 1.211 . S
O178 C177 1.211 . S
C179 O171 1.284 . S
C179 O180 1.273 . S
O180 C179 1.273 . S
O181 Zn172 1.977 . S
O181 C174 1.267 . S
C182 O183 1.160 . S
C182 O189 1.185 . S
O183 C182 1.160 . S
O184 Zn185 1.899 . S
O184 C192 1.284 . S
Zn185 O184 1.899 . S
Zn185 O186 2.032 . S
Zn185 O189 2.086 . S
Zn185 O194 1.977 . S
O186 Zn185 2.032 . S
O186 C190 1.278 . S
C187 O188 1.203 . S
C187 O194 1.267 . S
O188 C187 1.203 . S
O189 C182 1.185 . S
O189 Zn185 2.086 . S
C190 O186 1.278 . S
C190 O191 1.211 . S
O191 C190 1.211 . S
C192 O184 1.284 . S
C192 O193 1.273 . S
O193 C192 1.273 . S
O194 Zn185 1.977 . S
O194 C187 1.267 . S
C195 O196 1.160 . S
C195 O202 1.185 . S
O196 C195 1.160 . S
O197 Zn198 1.899 . S
O197 C205 1.284 . S
Zn198 O197 1.899 . S
Zn198 O199 2.032 . S
Zn198 O202 2.086 1_565 S
Zn198 O207 1.977 . S
O199 Zn198 2.032 . S
O199 C203 1.278 . S
C200 O201 1.203 . S
C200 O207 1.267 1_455 S
O201 C200 1.203 . S
O202 C195 1.185 . S
O202 Zn198 2.086 1_545 S
C203 O199 1.278 . S
C203 O204 1.211 . S
O204 C203 1.211 . S
C205 O197 1.284 . S
C205 O206 1.273 . S
O206 C205 1.273 . S
O207 Zn198 1.977 . S
O207 C200 1.267 1_655 S
C208 O209 1.160 . S
C208 O215 1.185 . S
O209 C208 1.160 . S
O210 Zn211 1.899 . S
O210 C218 1.284 . S
Zn211 O210 1.899 . S
Zn211 O212 2.032 . S
Zn211 O215 2.086 . S
Zn211 O220 1.977 . S
O212 Zn211 2.032 . S
O212 C216 1.278 . S
C213 O214 1.203 . S
C213 O220 1.267 . S
O214 C213 1.203 . S
O215 C208 1.185 . S
O215 Zn211 2.086 . S
C216 O212 1.278 . S
C216 O217 1.211 . S
O217 C216 1.211 . S
C218 O210 1.284 . S
C218 O219 1.273 . S
O219 C218 1.273 . S
O220 Zn211 1.977 . S
O220 C213 1.267 . S
C221 O222 1.160 . S
C221 O228 1.185 . S
O222 C221 1.160 . S
O223 Zn224 1.899 . S
O223 C231 1.284 . S
Zn224 O223 1.899 . S
Zn224 O225 2.032 . S
Zn224 O228 2.086 . S
Zn224 O233 1.977 . S
O225 Zn224 2.032 . S
O225 C229 1.278 . S
C226 O227 1.203 . S
C226 O233 1.267 . S
O227 C226 1.203 . S
O228 C221 1.185 . S
O228 Zn224 2.086 . S
C229 O225 1.278 . S
C229 O230 1.211 . S
O230 C229 1.211 . S
C231 O223 1.284 . S
C231 O232 1.273 . S
O232 C231 1.273 . S
O233 Zn224 1.977 . S
O233 C226 1.267 . S
C234 O235 1.160 . S
C234 O241 1.185 . S
O235 C234 1.160 . S
O236 Zn237 1.899 . S
O236 C244 1.284 . S
Zn237 O236 1.899 . S
Zn237 O238 2.032 . S
Zn237 O241 2.086 . S
Zn237 O246 1.977 . S
O238 Zn237 2.032 . S
O238 C242 1.278 . S
C239 O240 1.203 . S
C239 O246 1.267 . S
O240 C239 1.203 . S
O241 C234 1.185 . S
O241 Zn237 2.086 . S
C242 O238 1.278 . S
C242 O243 1.211 . S
O243 C242 1.211 . S
C244 O236 1.284 . S
C244 O245 1.273 . S
O245 C244 1.273 . S
O246 Zn237 1.977 . S
O246 C239 1.267 . S
C247 O248 1.160 . S
C247 O254 1.185 . S
O248 C247 1.160 . S
O249 Zn250 1.899 . S
O249 C257 1.284 . S
Zn250 O249 1.899 . S
Zn250 O251 2.032 . S
Zn250 O254 2.086 . S
Zn250 O259 1.977 . S
O251 Zn250 2.032 . S
O251 C255 1.278 . S
C252 O253 1.203 . S
C252 O259 1.267 1_455 S
O253 C252 1.203 . S
O254 C247 1.185 . S
O254 Zn250 2.086 . S
C255 O251 1.278 . S
C255 O256 1.211 . S
O256 C255 1.211 . S
C257 O249 1.284 . S
C257 O258 1.273 . S
O258 C257 1.273 . S
O259 Zn250 1.977 . S
O259 C252 1.267 1_655 S
C260 O261 1.160 . S
C260 O267 1.185 . S
O261 C260 1.160 . S
O262 Zn263 1.899 . S
O262 C270 1.284 . S
Zn263 O262 1.899 . S
Zn263 O264 2.032 . S
Zn263 O267 2.086 . S
Zn263 O272 1.977 . S
O264 Zn263 2.032 . S
O264 C268 1.278 . S
C265 O266 1.203 . S
C265 O272 1.267 . S
O266 C265 1.203 . S
O267 C260 1.185 . S
O267 Zn263 2.086 . S
C268 O264 1.278 . S
C268 O269 1.211 . S
O269 C268 1.211 . S
C270 O262 1.284 . S
C270 O271 1.273 . S
O271 C270 1.273 . S
O272 Zn263 1.977 . S
O272 C265 1.267 . S
C273 O274 1.160 . S
C273 O280 1.185 . S
O274 C273 1.160 . S
O275 Zn276 1.899 . S
O275 C283 1.284 . S
Zn276 O275 1.899 . S
Zn276 O277 2.032 . S
Zn276 O280 2.086 . S
Zn276 O285 1.977 . S
O277 Zn276 2.032 . S
O277 C281 1.278 . S
C278 O279 1.203 . S
C278 O285 1.267 1_455 S
O279 C278 1.203 . S
O280 C273 1.185 . S
O280 Zn276 2.086 . S
C281 O277 1.278 . S
C281 O282 1.211 . S
O282 C281 1.211 . S
C283 O275 1.284 . S
C283 O284 1.273 . S
O284 C283 1.273 . S
O285 Zn276 1.977 . S
O285 C278 1.267 1_655 S
C286 O287 1.160 . S
C286 O293 1.185 . S
O287 C286 1.160 . S
O288 Zn289 1.899 . S
O288 C296 1.284 . S
Zn289 O288 1.899 . S
Zn289 O290 2.032 . S
Zn289 O293 2.086 . S
Zn289 O298 1.977 . S
O290 Zn289 2.032 . S
O290 C294 1.278 . S
C291 O292 1.203 . S
C291 O298 1.267 . S
O292 C291 1.203 . S
O293 C286 1.185 . S
O293 Zn289 2.086 . S
C294 O290 1.278 . S
C294 O295 1.211 . S
O295 C294 1.211 . S
C296 O288 1.284 . S
C296 O297 1.273 . S
O297 C296 1.273 . S
O298 Zn289 1.977 . S
O298 C291 1.267 . S
C299 O300 1.160 . S
C299 O306 1.185 . S
O300 C299 1.160 . S
O301 Zn302 1.899 . S
O301 C309 1.284 . S
Zn302 O301 1.899 . S
Zn302 O303 2.032 . S
Zn302 O306 2.086 . S
Zn302 O311 1.977 . S
O303 Zn302 2.032 . S
O303 C307 1.278 . S
C304 O305 1.203 . S
C304 O311 1.267 . S
O305 C304 1.203 . S
O306 C299 1.185 . S
O306 Zn302 2.086 . S
C307 O303 1.278 . S
C307 O308 1.211 . S
O308 C307 1.211 . S
C309 O301 1.284 . S
C309 O310 1.273 . S
O310 C309 1.273 . S
O311 Zn302 1.977 . S
O311 C304 1.267 . S
C312 O313 1.160 . S
C312 O319 1.185 . S
O313 C312 1.160 . S
O314 Zn315 1.899 . S
O314 C322 1.284 . S
Zn315 O314 1.899 . S
Zn315 O316 2.032 . S
Zn315 O319 2.086 . S
Zn315 O324 1.977 . S
O316 Zn315 2.032 . S
O316 C320 1.278 . S
C317 O318 1.203 . S
C317 O324 1.267 . S
O318 C317 1.203 . S
O319 C312 1.185 . S
O319 Zn315 2.086 . S
C320 O316 1.278 . S
C320 O321 1.211 . S
O321 C320 1.211 . S
C322 O314 1.284 . S
C322 O323 1.273 . S
O323 C322 1.273 . S
O324 Zn315 1.977 . S
O324 C317 1.267 . S
C325 O326 1.160 . S
C325 O332 1.185 . S
O326 C325 1.160 . S
O327 Zn328 1.899 . S
O327 C335 1.284 . S
Zn328 O327 1.899 . S
Zn328 O329 2.032 . S
Zn328 O332 2.086 . S
Zn328 O337 1.977 . S
O329 Zn328 2.032 . S
O329 C333 1.278 . S
C330 O331 1.203 . S
C330 O337 1.267 . S
O331 C330 1.203 . S
O332 C325 1.185 . S
O332 Zn328 2.086 . S
C333 O329 1.278 . S
C333 O334 1.211 . S
O334 C333 1.211 . S
C335 O327 1.284 . S
C335 O336 1.273 . S
O336 C335 1.273 . S
O337 Zn328 1.977 . S
O337 C330 1.267 . S
C338 O339 1.160 . S
C338 O345 1.185 . S
O339 C338 1.160 . S
O340 Zn341 1.899 . S
O340 C348 1.284 . S
Zn341 O340 1.899 . S
Zn341 O342 2.032 . S
Zn341 O345 2.086 . S
Zn341 O350 1.977 . S
O342 Zn341 2.032 . S
O342 C346 1.278 . S
C343 O344 1.203 . S
C343 O350 1.267 . S
O344 C343 1.203 . S
O345 C338 1.185 . S
O345 Zn341 2.086 . S
C346 O342 1.278 . S
C346 O347 1.211 . S
O347 C346 1.211 . S
C348 O340 1.284 . S
C348 O349 1.273 . S
O349 C348 1.273 . S
O350 Zn341 1.977 . S
O350 C343 1.267 . S
C351 O352 1.160 . S
C351 O358 1.185 . S
O352 C351 1.160 . S
O353 Zn354 1.899 . S
O353 C361 1.284 . S
Zn354 O353 1.899 . S
Zn354 O355 2.032 . S
Zn354 O358 2.086 . S
Zn354 O363 1.977 . S
O355 Zn354 2.032 . S
O355 C359 1.278 . S
C356 O357 1.203 . S
C356 O363 1.267 1_655 S
O357 C356 1.203 . S
O358 C351 1.185 . S
O358 Zn354 2.086 . S
C359 O355 1.278 . S
C359 O360 1.211 . S
O360 C359 1.211 . S
C361 O353 1.284 . S
C361 O362 1.273 . S
O362 C361 1.273 . S
O363 Zn354 1.977 . S
O363 C356 1.267 1_455 S
C364 O365 1.160 . S
C364 O371 1.185 . S
O365 C364 1.160 . S
O366 Zn367 1.899 . S
O366 C374 1.284 . S
Zn367 O366 1.899 . S
Zn367 O368 2.032 . S
Zn367 O371 2.086 . S
Zn367 O376 1.977 . S
O368 Zn367 2.032 . S
O368 C372 1.278 . S
C369 O370 1.203 . S
C369 O376 1.267 . S
O370 C369 1.203 . S
O371 C364 1.185 . S
O371 Zn367 2.086 . S
C372 O368 1.278 . S
C372 O373 1.211 . S
O373 C372 1.211 . S
C374 O366 1.284 . S
C374 O375 1.273 . S
O375 C374 1.273 . S
O376 Zn367 1.977 . S
O376 C369 1.267 . S
C377 O378 1.160 . S
C377 O384 1.185 . S
O378 C377 1.160 . S
O379 Zn380 1.899 . S
O379 C387 1.284 . S
Zn380 O379 1.899 . S
Zn380 O381 2.032 . S
Zn380 O384 2.086 . S
Zn380 O389 1.977 . S
O381 Zn380 2.032 . S
O381 C385 1.278 . S
C382 O383 1.203 . S
C382 O389 1.267 1_655 S
O383 C382 1.203 . S
O384 C377 1.185 . S
O384 Zn380 2.086 . S
C385 O381 1.278 . S
C385 O386 1.211 . S
O386 C385 1.211 . S
C387 O379 1.284 . S
C387 O388 1.273 . S
O388 C387 1.273 . S
O389 Zn380 1.977 . S
O389 C382 1.267 1_455 S
C390 O391 1.160 . S
C390 O397 1.185 . S
O391 C390 1.160 . S
O392 Zn393 1.899 . S
O392 C400 1.284 . S
Zn393 O392 1.899 . S
Zn393 O394 2.032 . S
Zn393 O397 2.086 . S
Zn393 O402 1.977 . S
O394 Zn393 2.032 . S
O394 C398 1.278 . S
C395 O396 1.203 . S
C395 O402 1.267 . S
O396 C395 1.203 . S
O397 C390 1.185 . S
O397 Zn393 2.086 . S
C398 O394 1.278 . S
C398 O399 1.211 . S
O399 C398 1.211 . S
C400 O392 1.284 . S
C400 O401 1.273 . S
O401 C400 1.273 . S
O402 Zn393 1.977 . S
O402 C395 1.267 . S
C403 O404 1.160 . S
C403 O410 1.185 . S
O404 C403 1.160 . S
O405 Zn406 1.899 . S
O405 C413 1.284 . S
Zn406 O405 1.899 . S
Zn406 O407 2.032 . S
Zn406 O410 2.086 . S
Zn406 O415 1.977 . S
O407 Zn406 2.032 . S
O407 C411 1.278 . S
C408 O409 1.203 . S
C408 O415 1.267 . S
O409 C408 1.203 . S
O410 C403 1.185 . S
O410 Zn406 2.086 . S
C411 O407 1.278 . S
C411 O412 1.211 . S
O412 C411 1.211 . S
C413 O405 1.284 . S
C413 O414 1.273 . S
O414 C413 1.273 . S
O415 Zn406 1.977 . S
O415 C408 1.267 . S
H416 C424 0.950 . S
H417 C429 0.950 . S
H418 C426 0.950 . S
H419 C428 0.950 . S
H420 C430 0.950 . S
H421 C432 0.950 . S
H422 C434 0.950 . S
H423 C435 0.950 . S
C424 H416 0.950 . S
C424 C425 1.386 . S
C424 C426 1.391 . S
C425 C424 1.386 . S
C425 C429 1.393 . S
C426 H418 0.950 . S
C426 C424 1.391 . S
C426 C427 1.400 . S
C427 C426 1.400 . S
C427 C428 1.398 . S
C427 C433 1.491 . S
C428 H419 0.950 . S
C428 C427 1.398 . S
C428 C429 1.391 . S
C429 H417 0.950 . S
C429 C425 1.393 . S
C429 C428 1.391 . S
C430 H420 0.950 . S
C430 C431 1.386 . S
C430 C432 1.391 . S
C431 C430 1.386 . S
C431 C435 1.393 . S
C432 H421 0.950 . S
C432 C430 1.391 . S
C432 C433 1.400 . S
C433 C427 1.491 . S
C433 C432 1.400 . S
C433 C434 1.398 . S
C434 H422 0.950 . S
C434 C433 1.398 . S
C434 C435 1.391 . S
C435 H423 0.950 . S
C435 C431 1.393 . S
C435 C434 1.391 . S
H436 C444 0.950 . S
H437 C449 0.950 . S
H438 C446 0.950 . S
H439 C448 0.950 . S
H440 C450 0.950 . S
H441 C452 0.950 . S
H442 C454 0.950 . S
H443 C455 0.950 . S
C444 H436 0.950 . S
C444 C445 1.386 . S
C444 C446 1.391 . S
C445 C444 1.386 . S
C445 C449 1.393 . S
C446 H438 0.950 . S
C446 C444 1.391 . S
C446 C447 1.400 . S
C447 C446 1.400 . S
C447 C448 1.398 . S
C447 C453 1.491 . S
C448 H439 0.950 . S
C448 C447 1.398 . S
C448 C449 1.391 . S
C449 H437 0.950 . S
C449 C445 1.393 . S
C449 C448 1.391 . S
C450 H440 0.950 . S
C450 C451 1.386 . S
C450 C452 1.391 . S
C451 C450 1.386 . S
C451 C455 1.393 . S
C452 H441 0.950 . S
C452 C450 1.391 . S
C452 C453 1.400 . S
C453 C447 1.491 . S
C453 C452 1.400 . S
C453 C454 1.398 . S
C454 H442 0.950 . S
C454 C453 1.398 . S
C454 C455 1.391 . S
C455 H443 0.950 . S
C455 C451 1.393 . S
C455 C454 1.391 . S
H456 C464 0.950 . S
H457 C469 0.950 . S
H458 C466 0.950 . S
H459 C468 0.950 . S
H460 C470 0.950 . S
H461 C472 0.950 . S
H462 C474 0.950 . S
H463 C475 0.950 . S
C464 H456 0.950 . S
C464 C465 1.386 . S
C464 C466 1.391 . S
C465 C464 1.386 . S
C465 C469 1.393 . S
C466 H458 0.950 . S
C466 C464 1.391 . S
C466 C467 1.400 . S
C467 C466 1.400 . S
C467 C468 1.398 . S
C467 C473 1.491 . S
C468 H459 0.950 . S
C468 C467 1.398 . S
C468 C469 1.391 . S
C469 H457 0.950 . S
C469 C465 1.393 . S
C469 C468 1.391 . S
C470 H460 0.950 . S
C470 C471 1.386 . S
C470 C472 1.391 . S
C471 C470 1.386 . S
C471 C475 1.393 . S
C472 H461 0.950 . S
C472 C470 1.391 . S
C472 C473 1.400 . S
C473 C467 1.491 . S
C473 C472 1.400 . S
C473 C474 1.398 . S
C474 H462 0.950 . S
C474 C473 1.398 . S
C474 C475 1.391 . S
C475 H463 0.950 . S
C475 C471 1.393 . S
C475 C474 1.391 . S
H476 C484 0.950 . S
H477 C489 0.950 . S
H478 C486 0.950 . S
H479 C488 0.950 . S
H480 C490 0.950 . S
H481 C492 0.950 . S
H482 C494 0.950 . S
H483 C495 0.950 . S
C484 H476 0.950 . S
C484 C485 1.386 . S
C484 C486 1.391 . S
C485 C484 1.386 . S
C485 C489 1.393 . S
C486 H478 0.950 . S
C486 C484 1.391 . S
C486 C487 1.400 . S
C487 C486 1.400 . S
C487 C488 1.398 . S
C487 C493 1.491 . S
C488 H479 0.950 . S
C488 C487 1.398 . S
C488 C489 1.391 . S
C489 H477 0.950 . S
C489 C485 1.393 . S
C489 C488 1.391 . S
C490 H480 0.950 . S
C490 C491 1.386 . S
C490 C492 1.391 . S
C491 C490 1.386 . S
C491 C495 1.393 . S
C492 H481 0.950 . S
C492 C490 1.391 . S
C492 C493 1.400 . S
C493 C487 1.491 . S
C493 C492 1.400 . S
C493 C494 1.398 . S
C494 H482 0.950 . S
C494 C493 1.398 . S
C494 C495 1.391 . S
C495 H483 0.950 . S
C495 C491 1.393 . S
C495 C494 1.391 . S
H496 C504 0.950 . S
H497 C509 0.950 . S
H498 C506 0.950 . S
H499 C508 0.950 . S
H500 C510 0.950 . S
H501 C512 0.950 . S
H502 C514 0.950 . S
H503 C515 0.950 . S
C504 H496 0.950 . S
C504 C505 1.386 . S
C504 C506 1.391 . S
C505 C504 1.386 . S
C505 C509 1.393 . S
C506 H498 0.950 . S
C506 C504 1.391 . S
C506 C507 1.400 . S
C507 C506 1.400 . S
C507 C508 1.398 . S
C507 C513 1.491 . S
C508 H499 0.950 . S
C508 C507 1.398 . S
C508 C509 1.391 . S
C509 H497 0.950 . S
C509 C505 1.393 . S
C509 C508 1.391 . S
C510 H500 0.950 . S
C510 C511 1.386 . S
C510 C512 1.391 . S
C511 C510 1.386 . S
C511 C515 1.393 . S
C512 H501 0.950 . S
C512 C510 1.391 . S
C512 C513 1.400 . S
C513 C507 1.491 . S
C513 C512 1.400 . S
C513 C514 1.398 . S
C514 H502 0.950 . S
C514 C513 1.398 . S
C514 C515 1.391 . S
C515 H503 0.950 . S
C515 C511 1.393 . S
C515 C514 1.391 . S
H516 C524 0.950 . S
H517 C529 0.950 . S
H518 C526 0.950 . S
H519 C528 0.950 . S
H520 C530 0.950 . S
H521 C532 0.950 . S
H522 C534 0.950 . S
H523 C535 0.950 . S
C524 H516 0.950 . S
C524 C525 1.386 . S
C524 C526 1.391 . S
C525 C524 1.386 . S
C525 C529 1.393 . S
C526 H518 0.950 . S
C526 C524 1.391 . S
C526 C527 1.400 . S
C527 C526 1.400 . S
C527 C528 1.398 . S
C527 C533 1.491 . S
C528 H519 0.950 . S
C528 C527 1.398 . S
C528 C529 1.391 . S
C529 H517 0.950 . S
C529 C525 1.393 . S
C529 C528 1.391 . S
C530 H520 0.950 . S
C530 C531 1.386 . S
C530 C532 1.391 . S
C531 C530 1.386 . S
C531 C535 1.393 . S
C532 H521 0.950 . S
C532 C530 1.391 . S
C532 C533 1.400 . S
C533 C527 1.491 . S
C533 C532 1.400 . S
C533 C534 1.398 . S
C534 H522 0.950 . S
C534 C533 1.398 . S
C534 C535 1.391 . S
C535 H523 0.950 . S
C535 C531 1.393 . S
C535 C534 1.391 . S
H536 C544 0.950 . S
H537 C549 0.950 . S
H538 C546 0.950 . S
H539 C548 0.950 . S
H540 C550 0.950 . S
H541 C552 0.950 . S
H542 C554 0.950 . S
H543 C555 0.950 . S
C544 H536 0.950 . S
C544 C545 1.386 . S
C544 C546 1.391 . S
C545 C544 1.386 . S
C545 C549 1.393 . S
C546 H538 0.950 . S
C546 C544 1.391 . S
C546 C547 1.400 . S
C547 C546 1.400 . S
C547 C548 1.398 . S
C547 C553 1.491 . S
C548 H539 0.950 . S
C548 C547 1.398 . S
C548 C549 1.391 . S
C549 H537 0.950 . S
C549 C545 1.393 . S
C549 C548 1.391 . S
C550 H540 0.950 . S
C550 C551 1.386 . S
C550 C552 1.391 . S
C551 C550 1.386 . S
C551 C555 1.393 . S
C552 H541 0.950 . S
C552 C550 1.391 . S
C552 C553 1.400 . S
C553 C547 1.491 . S
C553 C552 1.400 . S
C553 C554 1.398 . S
C554 H542 0.950 . S
C554 C553 1.398 . S
C554 C555 1.391 . S
C555 H543 0.950 . S
C555 C551 1.393 . S
C555 C554 1.391 . S
H556 C564 0.950 . S
H557 C569 0.950 . S
H558 C566 0.950 . S
H559 C568 0.950 . S
H560 C570 0.950 . S
H561 C572 0.950 . S
H562 C574 0.950 . S
H563 C575 0.950 . S
C564 H556 0.950 . S
C564 C565 1.386 . S
C564 C566 1.391 . S
C565 C564 1.386 . S
C565 C569 1.393 . S
C566 H558 0.950 . S
C566 C564 1.391 . S
C566 C567 1.400 . S
C567 C566 1.400 . S
C567 C568 1.398 . S
C567 C573 1.491 . S
C568 H559 0.950 . S
C568 C567 1.398 . S
C568 C569 1.391 . S
C569 H557 0.950 . S
C569 C565 1.393 . S
C569 C568 1.391 . S
C570 H560 0.950 . S
C570 C571 1.386 . S
C570 C572 1.391 . S
C571 C570 1.386 . S
C571 C575 1.393 . S
C572 H561 0.950 . S
C572 C570 1.391 . S
C572 C573 1.400 . S
C573 C567 1.491 . S
C573 C572 1.400 . S
C573 C574 1.398 . S
C574 H562 0.950 . S
C574 C573 1.398 . S
C574 C575 1.391 . S
C575 H563 0.950 . S
C575 C571 1.393 . S
C575 C574 1.391 . S
H576 C584 0.950 . S
H577 C589 0.950 . S
H578 C586 0.950 . S
H579 C588 0.950 . S
H580 C590 0.950 . S
H581 C592 0.950 . S
H582 C594 0.950 . S
H583 C595 0.950 . S
C584 H576 0.950 . S
C584 C585 1.386 . S
C584 C586 1.391 . S
C585 C584 1.386 . S
C585 C589 1.393 . S
C586 H578 0.950 . S
C586 C584 1.391 . S
C586 C587 1.400 . S
C587 C586 1.400 . S
C587 C588 1.398 . S
C587 C593 1.491 . S
C588 H579 0.950 . S
C588 C587 1.398 . S
C588 C589 1.391 . S
C589 H577 0.950 . S
C589 C585 1.393 . S
C589 C588 1.391 . S
C590 H580 0.950 . S
C590 C591 1.386 . S
C590 C592 1.391 . S
C591 C590 1.386 . S
C591 C595 1.393 . S
C592 H581 0.950 . S
C592 C590 1.391 . S
C592 C593 1.400 . S
C593 C587 1.491 . S
C593 C592 1.400 . S
C593 C594 1.398 . S
C594 H582 0.950 . S
C594 C593 1.398 . S
C594 C595 1.391 . S
C595 H583 0.950 . S
C595 C591 1.393 . S
C595 C594 1.391 . S
H596 C604 0.950 . S
H597 C609 0.950 . S
H598 C606 0.950 . S
H599 C608 0.950 . S
H600 C610 0.950 . S
H601 C612 0.950 . S
H602 C614 0.950 . S
H603 C615 0.950 . S
C604 H596 0.950 . S
C604 C605 1.386 . S
C604 C606 1.391 . S
C605 C604 1.386 . S
C605 C609 1.393 . S
C606 H598 0.950 . S
C606 C604 1.391 . S
C606 C607 1.400 . S
C607 C606 1.400 . S
C607 C608 1.398 . S
C607 C613 1.491 . S
C608 H599 0.950 . S
C608 C607 1.398 . S
C608 C609 1.391 . S
C609 H597 0.950 . S
C609 C605 1.393 . S
C609 C608 1.391 . S
C610 H600 0.950 . S
C610 C611 1.386 . S
C610 C612 1.391 . S
C611 C610 1.386 . S
C611 C615 1.393 . S
C612 H601 0.950 . S
C612 C610 1.391 . S
C612 C613 1.400 . S
C613 C607 1.491 . S
C613 C612 1.400 . S
C613 C614 1.398 . S
C614 H602 0.950 . S
C614 C613 1.398 . S
C614 C615 1.391 . S
C615 H603 0.950 . S
C615 C611 1.393 . S
C615 C614 1.391 . S
H616 C624 0.950 . S
H617 C629 0.950 . S
H618 C626 0.950 . S
H619 C628 0.950 . S
H620 C630 0.950 . S
H621 C632 0.950 . S
H622 C634 0.950 . S
H623 C635 0.950 . S
C624 H616 0.950 . S
C624 C625 1.386 . S
C624 C626 1.391 . S
C625 C624 1.386 . S
C625 C629 1.393 . S
C626 H618 0.950 . S
C626 C624 1.391 . S
C626 C627 1.400 . S
C627 C626 1.400 . S
C627 C628 1.398 . S
C627 C633 1.491 . S
C628 H619 0.950 . S
C628 C627 1.398 . S
C628 C629 1.391 . S
C629 H617 0.950 . S
C629 C625 1.393 . S
C629 C628 1.391 . S
C630 H620 0.950 . S
C630 C631 1.386 . S
C630 C632 1.391 . S
C631 C630 1.386 . S
C631 C635 1.393 . S
C632 H621 0.950 . S
C632 C630 1.391 . S
C632 C633 1.400 . S
C633 C627 1.491 . S
C633 C632 1.400 . S
C633 C634 1.398 . S
C634 H622 0.950 . S
C634 C633 1.398 . S
C634 C635 1.391 . S
C635 H623 0.950 . S
C635 C631 1.393 . S
C635 C634 1.391 . S
H636 C644 0.950 . S
H637 C649 0.950 . S
H638 C646 0.950 . S
H639 C648 0.950 . S
H640 C650 0.950 . S
H641 C652 0.950 . S
H642 C654 0.950 . S
H643 C655 0.950 . S
C644 H636 0.950 . S
C644 C645 1.386 . S
C644 C646 1.391 . S
C645 C644 1.386 . S
C645 C649 1.393 . S
C646 H638 0.950 . S
C646 C644 1.391 . S
C646 C647 1.400 . S
C647 C646 1.400 . S
C647 C648 1.398 . S
C647 C653 1.491 . S
C648 H639 0.950 . S
C648 C647 1.398 . S
C648 C649 1.391 . S
C649 H637 0.950 . S
C649 C645 1.393 . S
C649 C648 1.391 . S
C650 H640 0.950 . S
C650 C651 1.386 . S
C650 C652 1.391 . S
C651 C650 1.386 . S
C651 C655 1.393 . S
C652 H641 0.950 . S
C652 C650 1.391 . S
C652 C653 1.400 . S
C653 C647 1.491 . S
C653 C652 1.400 . S
C653 C654 1.398 . S
C654 H642 0.950 . S
C654 C653 1.398 . S
C654 C655 1.391 . S
C655 H643 0.950 . S
C655 C651 1.393 . S
C655 C654 1.391 . S
H656 C664 0.950 . S
H657 C669 0.950 . S
H658 C666 0.950 . S
H659 C668 0.950 . S
H660 C670 0.950 . S
H661 C672 0.950 . S
H662 C674 0.950 . S
H663 C675 0.950 . S
C664 H656 0.950 . S
C664 C665 1.386 . S
C664 C666 1.391 . S
C665 C664 1.386 . S
C665 C669 1.393 . S
C666 H658 0.950 . S
C666 C664 1.391 . S
C666 C667 1.400 . S
C667 C666 1.400 . S
C667 C668 1.398 . S
C667 C673 1.491 . S
C668 H659 0.950 . S
C668 C667 1.398 . S
C668 C669 1.391 . S
C669 H657 0.950 . S
C669 C665 1.393 . S
C669 C668 1.391 . S
C670 H660 0.950 . S
C670 C671 1.386 . S
C670 C672 1.391 . S
C671 C670 1.386 . S
C671 C675 1.393 . S
C672 H661 0.950 . S
C672 C670 1.391 . S
C672 C673 1.400 . S
C673 C667 1.491 . S
C673 C672 1.400 . S
C673 C674 1.398 . S
C674 H662 0.950 . S
C674 C673 1.398 . S
C674 C675 1.391 . S
C675 H663 0.950 . S
C675 C671 1.393 . S
C675 C674 1.391 . S
H676 C684 0.950 . S
H677 C689 0.950 . S
H678 C686 0.950 . S
H679 C688 0.950 . S
H680 C690 0.950 . S
H681 C692 0.950 . S
H682 C694 0.950 . S
H683 C695 0.950 . S
C684 H676 0.950 . S
C684 C685 1.386 . S
C684 C686 1.391 . S
C685 C684 1.386 . S
C685 C689 1.393 . S
C686 H678 0.950 . S
C686 C684 1.391 . S
C686 C687 1.400 . S
C687 C686 1.400 . S
C687 C688 1.398 . S
C687 C693 1.491 . S
C688 H679 0.950 . S
C688 C687 1.398 . S
C688 C689 1.391 . S
C689 H677 0.950 . S
C689 C685 1.393 . S
C689 C688 1.391 . S
C690 H680 0.950 . S
C690 C691 1.386 . S
C690 C692 1.391 . S
C691 C690 1.386 . S
C691 C695 1.393 . S
C692 H681 0.950 . S
C692 C690 1.391 . S
C692 C693 1.400 . S
C693 C687 1.491 . S
C693 C692 1.400 . S
C693 C694 1.398 . S
C694 H682 0.950 . S
C694 C693 1.398 . S
C694 C695 1.391 . S
C695 H683 0.950 . S
C695 C691 1.393 . S
C695 C694 1.391 . S
H696 C704 0.950 . S
H697 C709 0.950 . S
H698 C706 0.950 . S
H699 C708 0.950 . S
H700 C710 0.950 . S
H701 C712 0.950 . S
H702 C714 0.950 . S
H703 C715 0.950 . S
C704 H696 0.950 . S
C704 C705 1.386 . S
C704 C706 1.391 . S
C705 C704 1.386 . S
C705 C709 1.393 . S
C706 H698 0.950 . S
C706 C704 1.391 . S
C706 C707 1.400 . S
C707 C706 1.400 . S
C707 C708 1.398 . S
C707 C713 1.491 . S
C708 H699 0.950 . S
C708 C707 1.398 . S
C708 C709 1.391 . S
C709 H697 0.950 . S
C709 C705 1.393 . S
C709 C708 1.391 . S
C710 H700 0.950 . S
C710 C711 1.386 . S
C710 C712 1.391 . S
C711 C710 1.386 . S
C711 C715 1.393 . S
C712 H701 0.950 . S
C712 C710 1.391 . S
C712 C713 1.400 . S
C713 C707 1.491 . S
C713 C712 1.400 . S
C713 C714 1.398 . S
C714 H702 0.950 . S
C714 C713 1.398 . S
C714 C715 1.391 . S
C715 H703 0.950 . S
C715 C711 1.393 . S
C715 C714 1.391 . S
H716 C724 0.950 . S
H717 C729 0.950 . S
H718 C726 0.950 . S
H719 C728 0.950 . S
H720 C730 0.950 . S
H721 C732 0.950 . S
H722 C734 0.950 . S
H723 C735 0.950 . S
C724 H716 0.950 . S
C724 C725 1.386 . S
C724 C726 1.391 . S
C725 C724 1.386 . S
C725 C729 1.393 . S
C726 H718 0.950 . S
C726 C724 1.391 . S
C726 C727 1.400 . S
C727 C726 1.400 . S
C727 C728 1.398 . S
C727 C733 1.491 . S
C728 H719 0.950 . S
C728 C727 1.398 . S
C728 C729 1.391 . S
C729 H717 0.950 . S
C729 C725 1.393 . S
C729 C728 1.391 . S
C730 H720 0.950 . S
C730 C731 1.386 . S
C730 C732 1.391 . S
C731 C730 1.386 . S
C731 C735 1.393 . S
C732 H721 0.950 . S
C732 C730 1.391 . S
C732 C733 1.400 . S
C733 C727 1.491 . S
C733 C732 1.400 . S
C733 C734 1.398 . S
C734 H722 0.950 . S
C734 C733 1.398 . S
C734 C735 1.391 . S
C735 H723 0.950 . S
C735 C731 1.393 . S
C735 C734 1.391 . S
H736 C744 0.950 . S
H737 C749 0.950 . S
H738 C746 0.950 . S
H739 C748 0.950 . S
H740 C750 0.950 . S
H741 C752 0.950 . S
H742 C754 0.950 . S
H743 C755 0.950 . S
C744 H736 0.950 . S
C744 C745 1.386 . S
C744 C746 1.391 . S
C745 C744 1.386 . S
C745 C749 1.393 . S
C746 H738 0.950 . S
C746 C744 1.391 . S
C746 C747 1.400 . S
C747 C746 1.400 . S
C747 C748 1.398 . S
C747 C753 1.491 . S
C748 H739 0.950 . S
C748 C747 1.398 . S
C748 C749 1.391 . S
C749 H737 0.950 . S
C749 C745 1.393 . S
C749 C748 1.391 . S
C750 H740 0.950 . S
C750 C751 1.386 . S
C750 C752 1.391 . S
C751 C750 1.386 . S
C751 C755 1.393 . S
C752 H741 0.950 . S
C752 C750 1.391 . S
C752 C753 1.400 . S
C753 C747 1.491 . S
C753 C752 1.400 . S
C753 C754 1.398 . S
C754 H742 0.950 . S
C754 C753 1.398 . S
C754 C755 1.391 . S
C755 H743 0.950 . S
C755 C751 1.393 . S
C755 C754 1.391 . S
H756 C764 0.950 . S
H757 C769 0.950 . S
H758 C766 0.950 . S
H759 C768 0.950 . S
H760 C770 0.950 . S
H761 C772 0.950 . S
H762 C774 0.950 . S
H763 C775 0.950 . S
C764 H756 0.950 . S
C764 C765 1.386 . S
C764 C766 1.391 . S
C765 C764 1.386 . S
C765 C769 1.393 . S
C766 H758 0.950 . S
C766 C764 1.391 . S
C766 C767 1.400 . S
C767 C766 1.400 . S
C767 C768 1.398 . S
C767 C773 1.491 . S
C768 H759 0.950 . S
C768 C767 1.398 . S
C768 C769 1.391 . S
C769 H757 0.950 . S
C769 C765 1.393 . S
C769 C768 1.391 . S
C770 H760 0.950 . S
C770 C771 1.386 . S
C770 C772 1.391 . S
C771 C770 1.386 . S
C771 C775 1.393 . S
C772 H761 0.950 . S
C772 C770 1.391 . S
C772 C773 1.400 . S
C773 C767 1.491 . S
C773 C772 1.400 . S
C773 C774 1.398 . S
C774 H762 0.950 . S
C774 C773 1.398 . S
C774 C775 1.391 . S
C775 H763 0.950 . S
C775 C771 1.393 . S
C775 C774 1.391 . S
H776 C784 0.950 . S
H777 C789 0.950 . S
H778 C786 0.950 . S
H779 C788 0.950 . S
H780 C790 0.950 . S
H781 C792 0.950 . S
H782 C794 0.950 . S
H783 C795 0.950 . S
C784 H776 0.950 . S
C784 C785 1.386 . S
C784 C786 1.391 . S
C785 C784 1.386 . S
C785 C789 1.393 . S
C786 H778 0.950 . S
C786 C784 1.391 . S
C786 C787 1.400 . S
C787 C786 1.400 . S
C787 C788 1.398 . S
C787 C793 1.491 . S
C788 H779 0.950 . S
C788 C787 1.398 . S
C788 C789 1.391 . S
C789 H777 0.950 . S
C789 C785 1.393 . S
C789 C788 1.391 . S
C790 H780 0.950 . S
C790 C791 1.386 . S
C790 C792 1.391 . S
C791 C790 1.386 . S
C791 C795 1.393 . S
C792 H781 0.950 . S
C792 C790 1.391 . S
C792 C793 1.400 . S
C793 C787 1.491 . S
C793 C792 1.400 . S
C793 C794 1.398 . S
C794 H782 0.950 . S
C794 C793 1.398 . S
C794 C795 1.391 . S
C795 H783 0.950 . S
C795 C791 1.393 . S
C795 C794 1.391 . S
H796 C804 0.950 . S
H797 C809 0.950 . S
H798 C806 0.950 . S
H799 C808 0.950 . S
H800 C810 0.950 . S
H801 C812 0.950 . S
H802 C814 0.950 . S
H803 C815 0.950 . S
C804 H796 0.950 . S
C804 C805 1.386 . S
C804 C806 1.391 . S
C805 C804 1.386 . S
C805 C809 1.393 . S
C806 H798 0.950 . S
C806 C804 1.391 . S
C806 C807 1.400 . S
C807 C806 1.400 . S
C807 C808 1.398 . S
C807 C813 1.491 . S
C808 H799 0.950 . S
C808 C807 1.398 . S
C808 C809 1.391 . S
C809 H797 0.950 . S
C809 C805 1.393 . S
C809 C808 1.391 . S
C810 H800 0.950 . S
C810 C811 1.386 . S
C810 C812 1.391 . S
C811 C810 1.386 . S
C811 C815 1.393 . S
C812 H801 0.950 . S
C812 C810 1.391 . S
C812 C813 1.400 . S
C813 C807 1.491 . S
C813 C812 1.400 . S
C813 C814 1.398 . S
C814 H802 0.950 . S
C814 C813 1.398 . S
C814 C815 1.391 . S
C815 H803 0.950 . S
C815 C811 1.393 . S
C815 C814 1.391 . S
H816 C824 0.950 . S
H817 C829 0.950 . S
H818 C826 0.950 . S
H819 C828 0.950 . S
H820 C830 0.950 . S
H821 C832 0.950 . S
H822 C834 0.950 . S
H823 C835 0.950 . S
C824 H816 0.950 . S
C824 C825 1.386 . S
C824 C826 1.391 . S
C825 C824 1.386 . S
C825 C829 1.393 . S
C826 H818 0.950 . S
C826 C824 1.391 . S
C826 C827 1.400 . S
C827 C826 1.400 . S
C827 C828 1.398 . S
C827 C833 1.491 . S
C828 H819 0.950 . S
C828 C827 1.398 . S
C828 C829 1.391 . S
C829 H817 0.950 . S
C829 C825 1.393 . S
C829 C828 1.391 . S
C830 H820 0.950 . S
C830 C831 1.386 . S
C830 C832 1.391 . S
C831 C830 1.386 . S
C831 C835 1.393 . S
C832 H821 0.950 . S
C832 C830 1.391 . S
C832 C833 1.400 . S
C833 C827 1.491 . S
C833 C832 1.400 . S
C833 C834 1.398 . S
C834 H822 0.950 . S
C834 C833 1.398 . S
C834 C835 1.391 . S
C835 H823 0.950 . S
C835 C831 1.393 . S
C835 C834 1.391 . S
H836 C844 0.950 . S
H837 C849 0.950 . S
H838 C846 0.950 . S
H839 C848 0.950 . S
H840 C850 0.950 . S
H841 C852 0.950 . S
H842 C854 0.950 . S
H843 C855 0.950 . S
C844 H836 0.950 . S
C844 C845 1.386 . S
C844 C846 1.391 . S
C845 C844 1.386 . S
C845 C849 1.393 . S
C846 H838 0.950 . S
C846 C844 1.391 . S
C846 C847 1.400 . S
C847 C846 1.400 . S
C847 C848 1.398 . S
C847 C853 1.491 . S
C848 H839 0.950 . S
C848 C847 1.398 . S
C848 C849 1.391 . S
C849 H837 0.950 . S
C849 C845 1.393 . S
C849 C848 1.391 . S
C850 H840 0.950 . S
C850 C851 1.386 . S
C850 C852 1.391 . S
C851 C850 1.386 . S
C851 C855 1.393 . S
C852 H841 0.950 . S
C852 C850 1.391 . S
C852 C853 1.400 . S
C853 C847 1.491 . S
C853 C852 1.400 . S
C853 C854 1.398 . S
C854 H842 0.950 . S
C854 C853 1.398 . S
C854 C855 1.391 . S
C855 H843 0.950 . S
C855 C851 1.393 . S
C855 C854 1.391 . S
H856 C864 0.950 . S
H857 C869 0.950 . S
H858 C866 0.950 . S
H859 C868 0.950 . S
H860 C870 0.950 . S
H861 C872 0.950 . S
H862 C874 0.950 . S
H863 C875 0.950 . S
C864 H856 0.950 . S
C864 C865 1.386 . S
C864 C866 1.391 . S
C865 C864 1.386 . S
C865 C869 1.393 . S
C866 H858 0.950 . S
C866 C864 1.391 . S
C866 C867 1.400 . S
C867 C866 1.400 . S
C867 C868 1.398 . S
C867 C873 1.491 . S
C868 H859 0.950 . S
C868 C867 1.398 . S
C868 C869 1.391 . S
C869 H857 0.950 . S
C869 C865 1.393 . S
C869 C868 1.391 . S
C870 H860 0.950 . S
C870 C871 1.386 . S
C870 C872 1.391 . S
C871 C870 1.386 . S
C871 C875 1.393 . S
C872 H861 0.950 . S
C872 C870 1.391 . S
C872 C873 1.400 . S
C873 C867 1.491 . S
C873 C872 1.400 . S
C873 C874 1.398 . S
C874 H862 0.950 . S
C874 C873 1.398 . S
C874 C875 1.391 . S
C875 H863 0.950 . S
C875 C871 1.393 . S
C875 C874 1.391 . S
H876 C884 0.950 . S
H877 C889 0.950 . S
H878 C886 0.950 . S
H879 C888 0.950 . S
H880 C890 0.950 . S
H881 C892 0.950 . S
H882 C894 0.950 . S
H883 C895 0.950 . S
C884 H876 0.950 . S
C884 C885 1.386 . S
C884 C886 1.391 . S
C885 C884 1.386 . S
C885 C889 1.393 . S
C886 H878 0.950 . S
C886 C884 1.391 . S
C886 C887 1.400 . S
C887 C886 1.400 . S
C887 C888 1.398 . S
C887 C893 1.491 . S
C888 H879 0.950 . S
C888 C887 1.398 . S
C888 C889 1.391 . S
C889 H877 0.950 . S
C889 C885 1.393 . S
C889 C888 1.391 . S
C890 H880 0.950 . S
C890 C891 1.386 . S
C890 C892 1.391 . S
C891 C890 1.386 . S
C891 C895 1.393 . S
C892 H881 0.950 . S
C892 C890 1.391 . S
C892 C893 1.400 . S
C893 C887 1.491 . S
C893 C892 1.400 . S
C893 C894 1.398 . S
C894 H882 0.950 . S
C894 C893 1.398 . S
C894 C895 1.391 . S
C895 H883 0.950 . S
C895 C891 1.393 . S
C895 C894 1.391 . S
H896 C904 0.950 . S
H897 C909 0.950 . S
H898 C906 0.950 . S
H899 C908 0.950 . S
H900 C910 0.950 . S
H901 C912 0.950 . S
H902 C914 0.950 . S
H903 C915 0.950 . S
C904 H896 0.950 . S
C904 C905 1.386 . S
C904 C906 1.391 . S
C905 C904 1.386 . S
C905 C909 1.393 . S
C906 H898 0.950 . S
C906 C904 1.391 . S
C906 C907 1.400 . S
C907 C906 1.400 . S
C907 C908 1.398 . S
C907 C913 1.491 . S
C908 H899 0.950 . S
C908 C907 1.398 . S
C908 C909 1.391 . S
C909 H897 0.950 . S
C909 C905 1.393 . S
C909 C908 1.391 . S
C910 H900 0.950 . S
C910 C911 1.386 . S
C910 C912 1.391 . S
C911 C910 1.386 . S
C911 C915 1.393 . S
C912 H901 0.950 . S
C912 C910 1.391 . S
C912 C913 1.400 . S
C913 C907 1.491 . S
C913 C912 1.400 . S
C913 C914 1.398 . S
C914 H902 0.950 . S
C914 C913 1.398 . S
C914 C915 1.391 . S
C915 H903 0.950 . S
C915 C911 1.393 . S
C915 C914 1.391 . S
H916 C924 0.950 . S
H917 C929 0.950 . S
H918 C926 0.950 . S
H919 C928 0.950 . S
H920 C930 0.950 . S
H921 C932 0.950 . S
H922 C934 0.950 . S
H923 C935 0.950 . S
C924 H916 0.950 . S
C924 C925 1.386 . S
C924 C926 1.391 . S
C925 C924 1.386 . S
C925 C929 1.393 . S
C926 H918 0.950 . S
C926 C924 1.391 . S
C926 C927 1.400 . S
C927 C926 1.400 . S
C927 C928 1.398 . S
C927 C933 1.491 . S
C928 H919 0.950 . S
C928 C927 1.398 . S
C928 C929 1.391 . S
C929 H917 0.950 . S
C929 C925 1.393 . S
C929 C928 1.391 . S
C930 H920 0.950 . S
C930 C931 1.386 . S
C930 C932 1.391 . S
C931 C930 1.386 . S
C931 C935 1.393 . S
C932 H921 0.950 . S
C932 C930 1.391 . S
C932 C933 1.400 . S
C933 C927 1.491 . S
C933 C932 1.400 . S
C933 C934 1.398 . S
C934 H922 0.950 . S
C934 C933 1.398 . S
C934 C935 1.391 . S
C935 H923 0.950 . S
C935 C931 1.393 . S
C935 C934 1.391 . S
H936 C944 0.950 . S
H937 C949 0.950 . S
H938 C946 0.950 . S
H939 C948 0.950 . S
H940 C950 0.950 . S
H941 C952 0.950 . S
H942 C954 0.950 . S
H943 C955 0.950 . S
C944 H936 0.950 . S
C944 C945 1.386 . S
C944 C946 1.391 . S
C945 C944 1.386 . S
C945 C949 1.393 . S
C946 H938 0.950 . S
C946 C944 1.391 . S
C946 C947 1.400 . S
C947 C946 1.400 . S
C947 C948 1.398 . S
C947 C953 1.491 . S
C948 H939 0.950 . S
C948 C947 1.398 . S
C948 C949 1.391 . S
C949 H937 0.950 . S
C949 C945 1.393 . S
C949 C948 1.391 . S
C950 H940 0.950 . S
C950 C951 1.386 . S
C950 C952 1.391 . S
C951 C950 1.386 . S
C951 C955 1.393 . S
C952 H941 0.950 . S
C952 C950 1.391 . S
C952 C953 1.400 . S
C953 C947 1.491 . S
C953 C952 1.400 . S
C953 C954 1.398 . S
C954 H942 0.950 . S
C954 C953 1.398 . S
C954 C955 1.391 . S
C955 H943 0.950 . S
C955 C951 1.393 . S
C955 C954 1.391 . S
H956 C964 0.950 . S
H957 C969 0.950 . S
H958 C966 0.950 . S
H959 C968 0.950 . S
H960 C970 0.950 . S
H961 C972 0.950 . S
H962 C974 0.950 . S
H963 C975 0.950 . S
C964 H956 0.950 . S
C964 C965 1.386 . S
C964 C966 1.391 . S
C965 C964 1.386 . S
C965 C969 1.393 . S
C966 H958 0.950 . S
C966 C964 1.391 . S
C966 C967 1.400 . S
C967 C966 1.400 . S
C967 C968 1.398 . S
C967 C973 1.491 . S
C968 H959 0.950 . S
C968 C967 1.398 . S
C968 C969 1.391 . S
C969 H957 0.950 . S
C969 C965 1.393 . S
C969 C968 1.391 . S
C970 H960 0.950 . S
C970 C971 1.386 . S
C970 C972 1.391 . S
C971 C970 1.386 . S
C971 C975 1.393 . S
C972 H961 0.950 . S
C972 C970 1.391 . S
C972 C973 1.400 . S
C973 C967 1.491 . S
C973 C972 1.400 . S
C973 C974 1.398 . S
C974 H962 0.950 . S
C974 C973 1.398 . S
C974 C975 1.391 . S
C975 H963 0.950 . S
C975 C971 1.393 . S
C975 C974 1.391 . S
H976 C984 0.950 . S
H977 C989 0.950 . S
H978 C986 0.950 . S
H979 C988 0.950 . S
H980 C990 0.950 . S
H981 C992 0.950 . S
H982 C994 0.950 . S
H983 C995 0.950 . S
C984 H976 0.950 . S
C984 C985 1.386 . S
C984 C986 1.391 . S
C985 C984 1.386 . S
C985 C989 1.393 . S
C986 H978 0.950 . S
C986 C984 1.391 . S
C986 C987 1.400 . S
C987 C986 1.400 . S
C987 C988 1.398 . S
C987 C993 1.491 . S
C988 H979 0.950 . S
C988 C987 1.398 . S
C988 C989 1.391 . S
C989 H977 0.950 . S
C989 C985 1.393 . S
C989 C988 1.391 . S
C990 H980 0.950 . S
C990 C991 1.386 . S
C990 C992 1.391 . S
C991 C990 1.386 . S
C991 C995 1.393 . S
C992 H981 0.950 . S
C992 C990 1.391 . S
C992 C993 1.400 . S
C993 C987 1.491 . S
C993 C992 1.400 . S
C993 C994 1.398 . S
C994 H982 0.950 . S
C994 C993 1.398 . S
C994 C995 1.391 . S
C995 H983 0.950 . S
C995 C991 1.393 . S
C995 C994 1.391 . S
H996 C1004 0.950 . S
H997 C1009 0.950 . S
H998 C1006 0.950 . S
H999 C1008 0.950 . S
H1000 C1010 0.950 . S
H1001 C1012 0.950 . S
H1002 C1014 0.950 . S
H1003 C1015 0.950 . S
C1004 H996 0.950 . S
C1004 C1005 1.386 . S
C1004 C1006 1.391 . S
C1005 C1004 1.386 . S
C1005 C1009 1.393 . S
C1006 H998 0.950 . S
C1006 C1004 1.391 . S
C1006 C1007 1.400 . S
C1007 C1006 1.400 . S
C1007 C1008 1.398 . S
C1007 C1013 1.491 . S
C1008 H999 0.950 . S
C1008 C1007 1.398 . S
C1008 C1009 1.391 . S
C1009 H997 0.950 . S
C1009 C1005 1.393 . S
C1009 C1008 1.391 . S
C1010 H1000 0.950 . S
C1010 C1011 1.386 . S
C1010 C1012 1.391 . S
C1011 C1010 1.386 . S
C1011 C1015 1.393 . S
C1012 H1001 0.950 . S
C1012 C1010 1.391 . S
C1012 C1013 1.400 . S
C1013 C1007 1.491 . S
C1013 C1012 1.400 . S
C1013 C1014 1.398 . S
C1014 H1002 0.950 . S
C1014 C1013 1.398 . S
C1014 C1015 1.391 . S
C1015 H1003 0.950 . S
C1015 C1011 1.393 . S
C1015 C1014 1.391 . S
H1016 C1024 0.950 . S
H1017 C1029 0.950 . S
H1018 C1026 0.950 . S
H1019 C1028 0.950 . S
H1020 C1030 0.950 . S
H1021 C1032 0.950 . S
H1022 C1034 0.950 . S
H1023 C1035 0.950 . S
C1024 H1016 0.950 . S
C1024 C1025 1.386 . S
C1024 C1026 1.391 . S
C1025 C1024 1.386 . S
C1025 C1029 1.393 . S
C1026 H1018 0.950 . S
C1026 C1024 1.391 . S
C1026 C1027 1.400 . S
C1027 C1026 1.400 . S
C1027 C1028 1.398 . S
C1027 C1033 1.491 . S
C1028 H1019 0.950 . S
C1028 C1027 1.398 . S
C1028 C1029 1.391 . S
C1029 H1017 0.950 . S
C1029 C1025 1.393 . S
C1029 C1028 1.391 . S
C1030 H1020 0.950 . S
C1030 C1031 1.386 . S
C1030 C1032 1.391 . S
C1031 C1030 1.386 . S
C1031 C1035 1.393 . S
C1032 H1021 0.950 . S
C1032 C1030 1.391 . S
C1032 C1033 1.400 . S
C1033 C1027 1.491 . S
C1033 C1032 1.400 . S
C1033 C1034 1.398 . S
C1034 H1022 0.950 . S
C1034 C1033 1.398 . S
C1034 C1035 1.391 . S
C1035 H1023 0.950 . S
C1035 C1031 1.393 . S
C1035 C1034 1.391 . S
H1036 C1044 0.950 . S
H1037 C1049 0.950 . S
H1038 C1046 0.950 . S
H1039 C1048 0.950 . S
H1040 C1050 0.950 . S
H1041 C1052 0.950 . S
H1042 C1054 0.950 . S
H1043 C1055 0.950 . S
C1044 H1036 0.950 . S
C1044 C1045 1.386 . S
C1044 C1046 1.391 . S
C1045 C1044 1.386 . S
C1045 C1049 1.393 . S
C1046 H1038 0.950 . S
C1046 C1044 1.391 . S
C1046 C1047 1.400 . S
C1047 C1046 1.400 . S
C1047 C1048 1.398 . S
C1047 C1053 1.491 . S
C1048 H1039 0.950 . S
C1048 C1047 1.398 . S
C1048 C1049 1.391 . S
C1049 H1037 0.950 . S
C1049 C1045 1.393 . S
C1049 C1048 1.391 . S
C1050 H1040 0.950 . S
C1050 C1051 1.386 . S
C1050 C1052 1.391 . S
C1051 C1050 1.386 . S
C1051 C1055 1.393 . S
C1052 H1041 0.950 . S
C1052 C1050 1.391 . S
C1052 C1053 1.400 . S
C1053 C1047 1.491 . S
C1053 C1052 1.400 . S
C1053 C1054 1.398 . S
C1054 H1042 0.950 . S
C1054 C1053 1.398 . S
C1054 C1055 1.391 . S
C1055 H1043 0.950 . S
C1055 C1051 1.393 . S
C1055 C1054 1.391 . S
H1056 C1064 0.950 . S
H1057 C1069 0.950 . S
H1058 C1066 0.950 . S
H1059 C1068 0.950 . S
H1060 C1070 0.950 . S
H1061 C1072 0.950 . S
H1062 C1074 0.950 . S
H1063 C1075 0.950 . S
C1064 H1056 0.950 . S
C1064 C1065 1.386 . S
C1064 C1066 1.391 . S
C1065 C1064 1.386 . S
C1065 C1069 1.393 . S
C1066 H1058 0.950 . S
C1066 C1064 1.391 . S
C1066 C1067 1.400 . S
C1067 C1066 1.400 . S
C1067 C1068 1.398 . S
C1067 C1073 1.491 . S
C1068 H1059 0.950 . S
C1068 C1067 1.398 . S
C1068 C1069 1.391 . S
C1069 H1057 0.950 . S
C1069 C1065 1.393 . S
C1069 C1068 1.391 . S
C1070 H1060 0.950 . S
C1070 C1071 1.386 . S
C1070 C1072 1.391 . S
C1071 C1070 1.386 . S
C1071 C1075 1.393 . S
C1072 H1061 0.950 . S
C1072 C1070 1.391 . S
C1072 C1073 1.400 . S
C1073 C1067 1.491 . S
C1073 C1072 1.400 . S
C1073 C1074 1.398 . S
C1074 H1062 0.950 . S
C1074 C1073 1.398 . S
C1074 C1075 1.391 . S
C1075 H1063 0.950 . S
C1075 C1071 1.393 . S
C1075 C1074 1.391 . S
H1076 C1084 0.950 . S
H1077 C1089 0.950 . S
H1078 C1086 0.950 . S
H1079 C1088 0.950 . S
H1080 C1090 0.950 . S
H1081 C1092 0.950 . S
H1082 C1094 0.950 . S
H1083 C1095 0.950 . S
C1084 H1076 0.950 . S
C1084 C1085 1.386 1_655 S
C1084 C1086 1.391 . S
C1085 C1084 1.386 1_455 S
C1085 C1089 1.393 1_565 S
C1086 H1078 0.950 . S
C1086 C1084 1.391 . S
C1086 C1087 1.400 1_655 S
C1087 C1086 1.400 1_455 S
C1087 C1088 1.398 1_565 S
C1087 C1093 1.491 1_465 S
C1088 H1079 0.950 . S
C1088 C1087 1.398 1_545 S
C1088 C1089 1.391 . S
C1089 H1077 0.950 . S
C1089 C1085 1.393 1_545 S
C1089 C1088 1.391 . S
C1090 H1080 0.950 . S
C1090 C1091 1.386 1_455 S
C1090 C1092 1.391 . S
C1091 C1090 1.386 1_655 S
C1091 C1095 1.393 1_545 S
C1092 H1081 0.950 . S
C1092 C1090 1.391 . S
C1092 C1093 1.400 1_455 S
C1093 C1087 1.491 1_645 S
C1093 C1092 1.400 1_655 S
C1093 C1094 1.398 1_545 S
C1094 H1082 0.950 . S
C1094 C1093 1.398 1_565 S
C1094 C1095 1.391 . S
C1095 H1083 0.950 . S
C1095 C1091 1.393 1_565 S
C1095 C1094 1.391 . S
H1096 C1104 0.950 . S
H1097 C1109 0.950 . S
H1098 C1106 0.950 . S
H1099 C1108 0.950 . S
H1100 C1110 0.950 . S
H1101 C1112 0.950 . S
H1102 C1114 0.950 . S
H1103 C1115 0.950 . S
C1104 H1096 0.950 . S
C1104 C1105 1.386 . S
C1104 C1106 1.391 . S
C1105 C1104 1.386 . S
C1105 C1109 1.393 . S
C1106 H1098 0.950 . S
C1106 C1104 1.391 . S
C1106 C1107 1.400 . S
C1107 C1106 1.400 . S
C1107 C1108 1.398 . S
C1107 C1113 1.491 . S
C1108 H1099 0.950 . S
C1108 C1107 1.398 . S
C1108 C1109 1.391 . S
C1109 H1097 0.950 . S
C1109 C1105 1.393 . S
C1109 C1108 1.391 . S
C1110 H1100 0.950 . S
C1110 C1111 1.386 . S
C1110 C1112 1.391 . S
C1111 C1110 1.386 . S
C1111 C1115 1.393 . S
C1112 H1101 0.950 . S
C1112 C1110 1.391 . S
C1112 C1113 1.400 . S
C1113 C1107 1.491 . S
C1113 C1112 1.400 . S
C1113 C1114 1.398 . S
C1114 H1102 0.950 . S
C1114 C1113 1.398 . S
C1114 C1115 1.391 . S
C1115 H1103 0.950 . S
C1115 C1111 1.393 . S
C1115 C1114 1.391 . S
H1116 C1124 0.950 . S
H1117 C1129 0.950 . S
H1118 C1126 0.950 . S
H1119 C1128 0.950 . S
H1120 C1130 0.950 . S
H1121 C1132 0.950 . S
H1122 C1134 0.950 . S
H1123 C1135 0.950 . S
C1124 H1116 0.950 . S
C1124 C1125 1.386 1_565 S
C1124 C1126 1.391 . S
C1125 C1124 1.386 1_545 S
C1125 C1129 1.393 . S
C1126 H1118 0.950 . S
C1126 C1124 1.391 . S
C1126 C1127 1.400 1_565 S
C1127 C1126 1.400 1_545 S
C1127 C1128 1.398 . S
C1127 C1133 1.491 1_544 S
C1128 H1119 0.950 . S
C1128 C1127 1.398 . S
C1128 C1129 1.391 . S
C1129 H1117 0.950 . S
C1129 C1125 1.393 . S
C1129 C1128 1.391 . S
C1130 H1120 0.950 . S
C1130 C1131 1.386 1_545 S
C1130 C1132 1.391 . S
C1131 C1130 1.386 1_565 S
C1131 C1135 1.393 . S
C1132 H1121 0.950 . S
C1132 C1130 1.391 . S
C1132 C1133 1.400 1_545 S
C1133 C1127 1.491 1_566 S
C1133 C1132 1.400 1_565 S
C1133 C1134 1.398 . S
C1134 H1122 0.950 . S
C1134 C1133 1.398 . S
C1134 C1135 1.391 . S
C1135 H1123 0.950 . S
C1135 C1131 1.393 . S
C1135 C1134 1.391 . S
H1136 C1144 0.950 . S
H1137 C1149 0.950 . S
H1138 C1146 0.950 . S
H1139 C1148 0.950 . S
H1140 C1150 0.950 . S
H1141 C1152 0.950 . S
H1142 C1154 0.950 . S
H1143 C1155 0.950 . S
C1144 H1136 0.950 . S
C1144 C1145 1.386 . S
C1144 C1146 1.391 . S
C1145 C1144 1.386 . S
C1145 C1149 1.393 . S
C1146 H1138 0.950 . S
C1146 C1144 1.391 . S
C1146 C1147 1.400 . S
C1147 C1146 1.400 . S
C1147 C1148 1.398 . S
C1147 C1153 1.491 . S
C1148 H1139 0.950 . S
C1148 C1147 1.398 . S
C1148 C1149 1.391 . S
C1149 H1137 0.950 . S
C1149 C1145 1.393 . S
C1149 C1148 1.391 . S
C1150 H1140 0.950 . S
C1150 C1151 1.386 . S
C1150 C1152 1.391 . S
C1151 C1150 1.386 . S
C1151 C1155 1.393 . S
C1152 H1141 0.950 . S
C1152 C1150 1.391 . S
C1152 C1153 1.400 . S
C1153 C1147 1.491 . S
C1153 C1152 1.400 . S
C1153 C1154 1.398 . S
C1154 H1142 0.950 . S
C1154 C1153 1.398 . S
C1154 C1155 1.391 . S
C1155 H1143 0.950 . S
C1155 C1151 1.393 . S
C1155 C1154 1.391 . S
H1156 C1164 0.950 . S
H1157 C1169 0.950 . S
H1158 C1166 0.950 . S
H1159 C1168 0.950 . S
H1160 C1170 0.950 . S
H1161 C1172 0.950 . S
H1162 C1174 0.950 . S
H1163 C1175 0.950 . S
C1164 H1156 0.950 . S
C1164 C1165 1.386 . S
C1164 C1166 1.391 . S
C1165 C1164 1.386 . S
C1165 C1169 1.393 1_565 S
C1166 H1158 0.950 . S
C1166 C1164 1.391 . S
C1166 C1167 1.400 . S
C1167 C1166 1.400 . S
C1167 C1168 1.398 1_565 S
C1167 C1173 1.491 1_565 S
C1168 H1159 0.950 . S
C1168 C1167 1.398 1_545 S
C1168 C1169 1.391 . S
C1169 H1157 0.950 . S
C1169 C1165 1.393 1_545 S
C1169 C1168 1.391 . S
C1170 H1160 0.950 . S
C1170 C1171 1.386 . S
C1170 C1172 1.391 . S
C1171 C1170 1.386 . S
C1171 C1175 1.393 1_545 S
C1172 H1161 0.950 . S
C1172 C1170 1.391 . S
C1172 C1173 1.400 . S
C1173 C1167 1.491 1_545 S
C1173 C1172 1.400 . S
C1173 C1174 1.398 1_545 S
C1174 H1162 0.950 . S
C1174 C1173 1.398 1_565 S
C1174 C1175 1.391 . S
C1175 H1163 0.950 . S
C1175 C1171 1.393 1_565 S
C1175 C1174 1.391 . S
H1176 C1184 0.950 . S
H1177 C1189 0.950 . S
H1178 C1186 0.950 . S
H1179 C1188 0.950 . S
H1180 C1190 0.950 . S
H1181 C1192 0.950 . S
H1182 C1194 0.950 . S
H1183 C1195 0.950 . S
C1184 H1176 0.950 . S
C1184 C1185 1.386 . S
C1184 C1186 1.391 . S
C1185 C1184 1.386 . S
C1185 C1189 1.393 . S
C1186 H1178 0.950 . S
C1186 C1184 1.391 . S
C1186 C1187 1.400 . S
C1187 C1186 1.400 . S
C1187 C1188 1.398 . S
C1187 C1193 1.491 . S
C1188 H1179 0.950 . S
C1188 C1187 1.398 . S
C1188 C1189 1.391 . S
C1189 H1177 0.950 . S
C1189 C1185 1.393 . S
C1189 C1188 1.391 . S
C1190 H1180 0.950 . S
C1190 C1191 1.386 . S
C1190 C1192 1.391 . S
C1191 C1190 1.386 . S
C1191 C1195 1.393 . S
C1192 H1181 0.950 . S
C1192 C1190 1.391 . S
C1192 C1193 1.400 . S
C1193 C1187 1.491 . S
C1193 C1192 1.400 . S
C1193 C1194 1.398 . S
C1194 H1182 0.950 . S
C1194 C1193 1.398 . S
C1194 C1195 1.391 . S
C1195 H1183 0.950 . S
C1195 C1191 1.393 . S
C1195 C1194 1.391 . S
H1196 C1204 0.950 . S
H1197 C1209 0.950 . S
H1198 C1206 0.950 . S
H1199 C1208 0.950 1_565 S
H1200 C1210 0.950 . S
H1201 C1212 0.950 . S
H1202 C1214 0.950 1_545 S
H1203 C1215 0.950 . S
C1204 H1196 0.950 . S
C1204 C1205 1.386 1_655 S
C1204 C1206 1.391 . S
C1205 C1204 1.386 1_455 S
C1205 C1209 1.393 . S
C1206 H1198 0.950 . S
C1206 C1204 1.391 . S
C1206 C1207 1.400 1_655 S
C1207 C1206 1.400 1_455 S
C1207 C1208 1.398 . S
C1207 C1213 1.491 1_446 S
C1208 H1199 0.950 1_545 S
C1208 C1207 1.398 . S
C1208 C1209 1.391 . S
C1209 H1197 0.950 . S
C1209 C1205 1.393 . S
C1209 C1208 1.391 . S
C1210 H1200 0.950 . S
C1210 C1211 1.386 1_455 S
C1210 C1212 1.391 . S
C1211 C1210 1.386 1_655 S
C1211 C1215 1.393 . S
C1212 H1201 0.950 . S
C1212 C1210 1.391 . S
C1212 C1213 1.400 1_455 S
C1213 C1207 1.491 1_664 S
C1213 C1212 1.400 1_655 S
C1213 C1214 1.398 . S
C1214 H1202 0.950 1_565 S
C1214 C1213 1.398 . S
C1214 C1215 1.391 . S
C1215 H1203 0.950 . S
C1215 C1211 1.393 . S
C1215 C1214 1.391 . S
H1216 C1224 0.950 . S
H1217 C1229 0.950 . S
H1218 C1226 0.950 . S
H1219 C1228 0.950 . S
H1220 C1230 0.950 . S
H1221 C1232 0.950 . S
H1222 C1234 0.950 . S
H1223 C1235 0.950 . S
C1224 H1216 0.950 . S
C1224 C1225 1.386 . S
C1224 C1226 1.391 . S
C1225 C1224 1.386 . S
C1225 C1229 1.393 . S
C1226 H1218 0.950 . S
C1226 C1224 1.391 . S
C1226 C1227 1.400 . S
C1227 C1226 1.400 . S
C1227 C1228 1.398 . S
C1227 C1233 1.491 . S
C1228 H1219 0.950 . S
C1228 C1227 1.398 . S
C1228 C1229 1.391 . S
C1229 H1217 0.950 . S
C1229 C1225 1.393 . S
C1229 C1228 1.391 . S
C1230 H1220 0.950 . S
C1230 C1231 1.386 . S
C1230 C1232 1.391 . S
C1231 C1230 1.386 . S
C1231 C1235 1.393 . S
C1232 H1221 0.950 . S
C1232 C1230 1.391 . S
C1232 C1233 1.400 . S
C1233 C1227 1.491 . S
C1233 C1232 1.400 . S
C1233 C1234 1.398 . S
C1234 H1222 0.950 . S
C1234 C1233 1.398 . S
C1234 C1235 1.391 . S
C1235 H1223 0.950 . S
C1235 C1231 1.393 . S
C1235 C1234 1.391 . S
H1236 C1244 0.950 . S
H1237 C1249 0.950 . S
H1238 C1246 0.950 . S
H1239 C1248 0.950 . S
H1240 C1250 0.950 . S
H1241 C1252 0.950 . S
H1242 C1254 0.950 . S
H1243 C1255 0.950 . S
C1244 H1236 0.950 . S
C1244 C1245 1.386 . S
C1244 C1246 1.391 . S
C1245 C1244 1.386 . S
C1245 C1249 1.393 . S
C1246 H1238 0.950 . S
C1246 C1244 1.391 . S
C1246 C1247 1.400 . S
C1247 C1246 1.400 . S
C1247 C1248 1.398 . S
C1247 C1253 1.491 . S
C1248 H1239 0.950 . S
C1248 C1247 1.398 . S
C1248 C1249 1.391 . S
C1249 H1237 0.950 . S
C1249 C1245 1.393 . S
C1249 C1248 1.391 . S
C1250 H1240 0.950 . S
C1250 C1251 1.386 . S
C1250 C1252 1.391 . S
C1251 C1250 1.386 . S
C1251 C1255 1.393 . S
C1252 H1241 0.950 . S
C1252 C1250 1.391 . S
C1252 C1253 1.400 . S
C1253 C1247 1.491 . S
C1253 C1252 1.400 . S
C1253 C1254 1.398 . S
C1254 H1242 0.950 . S
C1254 C1253 1.398 . S
C1254 C1255 1.391 . S
C1255 H1243 0.950 . S
C1255 C1251 1.393 . S
C1255 C1254 1.391 . S
H1256 C1264 0.950 . S
H1257 C1269 0.950 . S
H1258 C1266 0.950 . S
H1259 C1268 0.950 . S
H1260 C1270 0.950 . S
H1261 C1272 0.950 . S
H1262 C1274 0.950 . S
H1263 C1275 0.950 . S
C1264 H1256 0.950 . S
C1264 C1265 1.386 . S
C1264 C1266 1.391 . S
C1265 C1264 1.386 . S
C1265 C1269 1.393 . S
C1266 H1258 0.950 . S
C1266 C1264 1.391 . S
C1266 C1267 1.400 . S
C1267 C1266 1.400 . S
C1267 C1268 1.398 . S
C1267 C1273 1.491 . S
C1268 H1259 0.950 . S
C1268 C1267 1.398 . S
C1268 C1269 1.391 . S
C1269 H1257 0.950 . S
C1269 C1265 1.393 . S
C1269 C1268 1.391 . S
C1270 H1260 0.950 . S
C1270 C1271 1.386 . S
C1270 C1272 1.391 . S
C1271 C1270 1.386 . S
C1271 C1275 1.393 . S
C1272 H1261 0.950 . S
C1272 C1270 1.391 . S
C1272 C1273 1.400 . S
C1273 C1267 1.491 . S
C1273 C1272 1.400 . S
C1273 C1274 1.398 . S
C1274 H1262 0.950 . S
C1274 C1273 1.398 . S
C1274 C1275 1.391 . S
C1275 H1263 0.950 . S
C1275 C1271 1.393 . S
C1275 C1274 1.391 . S
H1276 C1284 0.950 . S
H1277 C1289 0.950 . S
H1278 C1286 0.950 . S
H1279 C1288 0.950 . S
H1280 C1290 0.950 . S
H1281 C1292 0.950 . S
H1282 C1294 0.950 . S
H1283 C1295 0.950 . S
C1284 H1276 0.950 . S
C1284 C1285 1.386 . S
C1284 C1286 1.391 . S
C1285 C1284 1.386 . S
C1285 C1289 1.393 . S
C1286 H1278 0.950 . S
C1286 C1284 1.391 . S
C1286 C1287 1.400 . S
C1287 C1286 1.400 . S
C1287 C1288 1.398 . S
C1287 C1293 1.491 . S
C1288 H1279 0.950 . S
C1288 C1287 1.398 . S
C1288 C1289 1.391 . S
C1289 H1277 0.950 . S
C1289 C1285 1.393 . S
C1289 C1288 1.391 . S
C1290 H1280 0.950 . S
C1290 C1291 1.386 . S
C1290 C1292 1.391 . S
C1291 C1290 1.386 . S
C1291 C1295 1.393 . S
C1292 H1281 0.950 . S
C1292 C1290 1.391 . S
C1292 C1293 1.400 . S
C1293 C1287 1.491 . S
C1293 C1292 1.400 . S
C1293 C1294 1.398 . S
C1294 H1282 0.950 . S
C1294 C1293 1.398 . S
C1294 C1295 1.391 . S
C1295 H1283 0.950 . S
C1295 C1291 1.393 . S
C1295 C1294 1.391 . S
H1296 C1304 0.950 . S
H1297 C1309 0.950 . S
H1298 C1306 0.950 . S
H1299 C1308 0.950 . S
H1300 C1310 0.950 . S
H1301 C1312 0.950 . S
H1302 C1314 0.950 . S
H1303 C1315 0.950 . S
C1304 H1296 0.950 . S
C1304 C1305 1.386 . S
C1304 C1306 1.391 . S
C1305 C1304 1.386 . S
C1305 C1309 1.393 . S
C1306 H1298 0.950 . S
C1306 C1304 1.391 . S
C1306 C1307 1.400 . S
C1307 C1306 1.400 . S
C1307 C1308 1.398 . S
C1307 C1313 1.491 1_554 S
C1308 H1299 0.950 . S
C1308 C1307 1.398 . S
C1308 C1309 1.391 . S
C1309 H1297 0.950 . S
C1309 C1305 1.393 . S
C1309 C1308 1.391 . S
C1310 H1300 0.950 . S
C1310 C1311 1.386 . S
C1310 C1312 1.391 . S
C1311 C1310 1.386 . S
C1311 C1315 1.393 . S
C1312 H1301 0.950 . S
C1312 C1310 1.391 . S
C1312 C1313 1.400 . S
C1313 C1307 1.491 1_556 S
C1313 C1312 1.400 . S
C1313 C1314 1.398 . S
C1314 H1302 0.950 . S
C1314 C1313 1.398 . S
C1314 C1315 1.391 . S
C1315 H1303 0.950 . S
C1315 C1311 1.393 . S
C1315 C1314 1.391 . S
H1316 C1324 0.950 . S
H1317 C1329 0.950 . S
H1318 C1326 0.967 . S
H1319 C1328 0.950 . S
H1320 C1330 0.950 . S
H1321 C1332 0.967 . S
H1322 C1334 0.950 . S
H1323 C1335 0.950 . S
C1324 H1316 0.950 . S
C1324 C1325 1.386 . S
C1324 C1326 1.382 1_455 S
C1325 C1324 1.386 . S
C1325 C1329 1.393 . S
C1326 H1318 0.967 . S
C1326 C1324 1.382 1_655 S
C1326 C1327 1.394 1_655 S
C1327 C1326 1.394 1_455 S
C1327 C1328 1.398 . S
C1327 C1333 1.491 1_455 S
C1328 H1319 0.950 . S
C1328 C1327 1.398 . S
C1328 C1329 1.391 . S
C1329 H1317 0.950 . S
C1329 C1325 1.393 . S
C1329 C1328 1.391 . S
C1330 H1320 0.950 . S
C1330 C1331 1.386 . S
C1330 C1332 1.382 1_655 S
C1331 C1330 1.386 . S
C1331 C1335 1.393 . S
C1332 H1321 0.967 . S
C1332 C1330 1.382 1_455 S
C1332 C1333 1.394 1_455 S
C1333 C1327 1.491 1_655 S
C1333 C1332 1.394 1_655 S
C1333 C1334 1.398 . S
C1334 H1322 0.950 . S
C1334 C1333 1.398 . S
C1334 C1335 1.391 . S
C1335 H1323 0.950 . S
C1335 C1331 1.393 . S
C1335 C1334 1.391 . S
H1336 C1344 0.950 . S
H1337 C1349 0.950 . S
H1338 C1346 0.950 . S
H1339 C1348 0.950 . S
H1340 C1350 0.950 . S
H1341 C1352 0.950 . S
H1342 C1354 0.950 . S
H1343 C1355 0.950 . S
C1344 H1336 0.950 . S
C1344 C1345 1.386 . S
C1344 C1346 1.391 . S
C1345 C1344 1.386 . S
C1345 C1349 1.393 1_455 S
C1346 H1338 0.950 . S
C1346 C1344 1.391 . S
C1346 C1347 1.400 . S
C1347 C1346 1.400 . S
C1347 C1348 1.398 1_455 S
C1347 C1353 1.491 1_454 S
C1348 H1339 0.950 . S
C1348 C1347 1.398 1_655 S
C1348 C1349 1.391 . S
C1349 H1337 0.950 . S
C1349 C1345 1.393 1_655 S
C1349 C1348 1.391 . S
C1350 H1340 0.950 . S
C1350 C1351 1.386 . S
C1350 C1352 1.391 . S
C1351 C1350 1.386 . S
C1351 C1355 1.393 1_655 S
C1352 H1341 0.950 . S
C1352 C1350 1.391 . S
C1352 C1353 1.400 . S
C1353 C1347 1.491 1_656 S
C1353 C1352 1.400 . S
C1353 C1354 1.398 1_655 S
C1354 H1342 0.950 . S
C1354 C1353 1.398 1_455 S
C1354 C1355 1.391 . S
C1355 H1343 0.950 . S
C1355 C1351 1.393 1_455 S
C1355 C1354 1.391 . S
H1356 C1364 0.950 . S
H1357 C1369 0.950 . S
H1358 C1366 0.950 . S
H1359 C1368 0.950 . S
H1360 C1370 0.950 . S
H1361 C1372 0.950 . S
H1362 C1374 0.950 . S
H1363 C1375 0.950 . S
C1364 H1356 0.950 . S
C1364 C1365 1.386 . S
C1364 C1366 1.391 . S
C1365 C1364 1.386 . S
C1365 C1369 1.393 . S
C1366 H1358 0.950 . S
C1366 C1364 1.391 . S
C1366 C1367 1.400 . S
C1367 C1366 1.400 . S
C1367 C1368 1.398 . S
C1367 C1373 1.491 . S
C1368 H1359 0.950 . S
C1368 C1367 1.398 . S
C1368 C1369 1.391 . S
C1369 H1357 0.950 . S
C1369 C1365 1.393 . S
C1369 C1368 1.391 . S
C1370 H1360 0.950 . S
C1370 C1371 1.386 . S
C1370 C1372 1.391 . S
C1371 C1370 1.386 . S
C1371 C1375 1.393 . S
C1372 H1361 0.950 . S
C1372 C1370 1.391 . S
C1372 C1373 1.400 . S
C1373 C1367 1.491 . S
C1373 C1372 1.400 . S
C1373 C1374 1.398 . S
C1374 H1362 0.950 . S
C1374 C1373 1.398 . S
C1374 C1375 1.391 . S
C1375 H1363 0.950 . S
C1375 C1371 1.393 . S
C1375 C1374 1.391 . S
H1376 C1384 0.950 . S
H1377 C1389 0.950 . S
H1378 C1386 0.950 . S
H1379 C1388 0.950 . S
H1380 C1390 0.950 . S
H1381 C1392 0.950 . S
H1382 C1394 0.950 . S
H1383 C1395 0.950 . S
C1384 H1376 0.950 . S
C1384 C1385 1.386 . S
C1384 C1386 1.391 . S
C1385 C1384 1.386 . S
C1385 C1389 1.393 . S
C1386 H1378 0.950 . S
C1386 C1384 1.391 . S
C1386 C1387 1.400 . S
C1387 C1386 1.400 . S
C1387 C1388 1.398 . S
C1387 C1393 1.491 . S
C1388 H1379 0.950 . S
C1388 C1387 1.398 . S
C1388 C1389 1.391 . S
C1389 H1377 0.950 . S
C1389 C1385 1.393 . S
C1389 C1388 1.391 . S
C1390 H1380 0.950 . S
C1390 C1391 1.386 . S
C1390 C1392 1.391 . S
C1391 C1390 1.386 . S
C1391 C1395 1.393 . S
C1392 H1381 0.950 . S
C1392 C1390 1.391 . S
C1392 C1393 1.400 . S
C1393 C1387 1.491 . S
C1393 C1392 1.400 . S
C1393 C1394 1.398 . S
C1394 H1382 0.950 . S
C1394 C1393 1.398 . S
C1394 C1395 1.391 . S
C1395 H1383 0.950 . S
C1395 C1391 1.393 . S
C1395 C1394 1.391 . S
H1396 C1404 0.950 . S
H1397 C1409 0.950 . S
H1398 C1406 0.950 . S
H1399 C1408 0.950 . S
H1400 C1410 0.950 . S
H1401 C1412 0.950 . S
H1402 C1414 0.950 . S
H1403 C1415 0.950 . S
C1404 H1396 0.950 . S
C1404 C1405 1.386 . S
C1404 C1406 1.391 . S
C1405 C1404 1.386 . S
C1405 C1409 1.393 . S
C1406 H1398 0.950 . S
C1406 C1404 1.391 . S
C1406 C1407 1.400 . S
C1407 C1406 1.400 . S
C1407 C1408 1.398 . S
C1407 C1413 1.491 . S
C1408 H1399 0.950 . S
C1408 C1407 1.398 . S
C1408 C1409 1.391 . S
C1409 H1397 0.950 . S
C1409 C1405 1.393 . S
C1409 C1408 1.391 . S
C1410 H1400 0.950 . S
C1410 C1411 1.386 . S
C1410 C1412 1.391 . S
C1411 C1410 1.386 . S
C1411 C1415 1.393 . S
C1412 H1401 0.950 . S
C1412 C1410 1.391 . S
C1412 C1413 1.400 . S
C1413 C1407 1.491 . S
C1413 C1412 1.400 . S
C1413 C1414 1.398 . S
C1414 H1402 0.950 . S
C1414 C1413 1.398 . S
C1414 C1415 1.391 . S
C1415 H1403 0.950 . S
C1415 C1411 1.393 . S
C1415 C1414 1.391 . S
H1416 C1424 0.950 . S
H1417 C1429 0.950 . S
H1418 C1426 0.950 . S
H1419 C1428 0.950 . S
H1420 C1430 0.950 . S
H1421 C1432 0.950 . S
H1422 C1434 0.950 . S
H1423 C1435 0.950 . S
C1424 H1416 0.950 . S
C1424 C1425 1.386 . S
C1424 C1426 1.391 . S
C1425 C1424 1.386 . S
C1425 C1429 1.393 . S
C1426 H1418 0.950 . S
C1426 C1424 1.391 . S
C1426 C1427 1.400 . S
C1427 C1426 1.400 . S
C1427 C1428 1.398 . S
C1427 C1433 1.491 . S
C1428 H1419 0.950 . S
C1428 C1427 1.398 . S
C1428 C1429 1.391 . S
C1429 H1417 0.950 . S
C1429 C1425 1.393 . S
C1429 C1428 1.391 . S
C1430 H1420 0.950 . S
C1430 C1431 1.386 . S
C1430 C1432 1.391 . S
C1431 C1430 1.386 . S
C1431 C1435 1.393 . S
C1432 H1421 0.950 . S
C1432 C1430 1.391 . S
C1432 C1433 1.400 . S
C1433 C1427 1.491 . S
C1433 C1432 1.400 . S
C1433 C1434 1.398 . S
C1434 H1422 0.950 . S
C1434 C1433 1.398 . S
C1434 C1435 1.391 . S
C1435 H1423 0.950 . S
C1435 C1431 1.393 . S
C1435 C1434 1.391 . S
H1436 C1444 0.950 . S
H1437 C1449 0.950 . S
H1438 C1446 0.950 . S
H1439 C1448 0.950 . S
H1440 C1450 0.950 . S
H1441 C1452 0.950 . S
H1442 C1454 0.950 . S
H1443 C1455 0.950 . S
C1444 H1436 0.950 . S
C1444 C1445 1.386 . S
C1444 C1446 1.391 . S
C1445 C1444 1.386 . S
C1445 C1449 1.393 . S
C1446 H1438 0.950 . S
C1446 C1444 1.391 . S
C1446 C1447 1.400 . S
C1447 C1446 1.400 . S
C1447 C1448 1.398 . S
C1447 C1453 1.491 . S
C1448 H1439 0.950 . S
C1448 C1447 1.398 . S
C1448 C1449 1.391 . S
C1449 H1437 0.950 . S
C1449 C1445 1.393 . S
C1449 C1448 1.391 . S
C1450 H1440 0.950 . S
C1450 C1451 1.386 . S
C1450 C1452 1.391 . S
C1451 C1450 1.386 . S
C1451 C1455 1.393 . S
C1452 H1441 0.950 . S
C1452 C1450 1.391 . S
C1452 C1453 1.400 . S
C1453 C1447 1.491 . S
C1453 C1452 1.400 . S
C1453 C1454 1.398 . S
C1454 H1442 0.950 . S
C1454 C1453 1.398 . S
C1454 C1455 1.391 . S
C1455 H1443 0.950 . S
C1455 C1451 1.393 . S
C1455 C1454 1.391 . S
H1456 C1464 0.950 . S
H1457 C1469 0.950 . S
H1458 C1466 0.950 . S
H1459 C1468 0.950 . S
H1460 C1470 0.950 . S
H1461 C1472 0.950 . S
H1462 C1474 0.950 . S
H1463 C1475 0.950 . S
C1464 H1456 0.950 . S
C1464 C1465 1.386 . S
C1464 C1466 1.391 . S
C1465 C1464 1.386 . S
C1465 C1469 1.393 . S
C1466 H1458 0.950 . S
C1466 C1464 1.391 . S
C1466 C1467 1.400 . S
C1467 C1466 1.400 . S
C1467 C1468 1.398 . S
C1467 C1473 1.491 . S
C1468 H1459 0.950 . S
C1468 C1467 1.398 . S
C1468 C1469 1.391 . S
C1469 H1457 0.950 . S
C1469 C1465 1.393 . S
C1469 C1468 1.391 . S
C1470 H1460 0.950 . S
C1470 C1471 1.386 . S
C1470 C1472 1.391 . S
C1471 C1470 1.386 . S
C1471 C1475 1.393 . S
C1472 H1461 0.950 . S
C1472 C1470 1.391 . S
C1472 C1473 1.400 . S
C1473 C1467 1.491 . S
C1473 C1472 1.400 . S
C1473 C1474 1.398 . S
C1474 H1462 0.950 . S
C1474 C1473 1.398 . S
C1474 C1475 1.391 . S
C1475 H1463 0.950 . S
C1475 C1471 1.393 . S
C1475 C1474 1.391 . S
H1476 C1484 0.950 . S
H1477 C1489 0.950 . S
H1478 C1486 0.950 . S
H1479 C1488 0.950 . S
H1480 C1490 0.950 . S
H1481 C1492 0.950 . S
H1482 C1494 0.950 . S
H1483 C1495 0.950 . S
C1484 H1476 0.950 . S
C1484 C1485 1.386 . S
C1484 C1486 1.391 . S
C1485 C1484 1.386 . S
C1485 C1489 1.393 . S
C1486 H1478 0.950 . S
C1486 C1484 1.391 . S
C1486 C1487 1.400 . S
C1487 C1486 1.400 . S
C1487 C1488 1.398 . S
C1487 C1493 1.491 . S
C1488 H1479 0.950 . S
C1488 C1487 1.398 . S
C1488 C1489 1.391 . S
C1489 H1477 0.950 . S
C1489 C1485 1.393 . S
C1489 C1488 1.391 . S
C1490 H1480 0.950 . S
C1490 C1491 1.386 . S
C1490 C1492 1.391 . S
C1491 C1490 1.386 . S
C1491 C1495 1.393 . S
C1492 H1481 0.950 . S
C1492 C1490 1.391 . S
C1492 C1493 1.400 . S
C1493 C1487 1.491 . S
C1493 C1492 1.400 . S
C1493 C1494 1.398 . S
C1494 H1482 0.950 . S
C1494 C1493 1.398 . S
C1494 C1495 1.391 . S
C1495 H1483 0.950 . S
C1495 C1491 1.393 . S
C1495 C1494 1.391 . S
H1496 C1504 0.950 . S
H1497 C1509 0.950 . S
H1498 C1506 0.950 . S
H1499 C1508 0.950 . S
H1500 C1510 0.950 . S
H1501 C1512 0.950 . S
H1502 C1514 0.950 . S
H1503 C1515 0.950 . S
C1504 H1496 0.950 . S
C1504 C1505 1.386 . S
C1504 C1506 1.391 . S
C1505 C1504 1.386 . S
C1505 C1509 1.393 . S
C1506 H1498 0.950 . S
C1506 C1504 1.391 . S
C1506 C1507 1.400 . S
C1507 C1506 1.400 . S
C1507 C1508 1.398 . S
C1507 C1513 1.491 . S
C1508 H1499 0.950 . S
C1508 C1507 1.398 . S
C1508 C1509 1.391 . S
C1509 H1497 0.950 . S
C1509 C1505 1.393 . S
C1509 C1508 1.391 . S
C1510 H1500 0.950 . S
C1510 C1511 1.386 . S
C1510 C1512 1.391 . S
C1511 C1510 1.386 . S
C1511 C1515 1.393 . S
C1512 H1501 0.950 . S
C1512 C1510 1.391 . S
C1512 C1513 1.400 . S
C1513 C1507 1.491 . S
C1513 C1512 1.400 . S
C1513 C1514 1.398 . S
C1514 H1502 0.950 . S
C1514 C1513 1.398 . S
C1514 C1515 1.391 . S
C1515 H1503 0.950 . S
C1515 C1511 1.393 . S
C1515 C1514 1.391 . S
H1516 C1524 0.950 . S
H1517 C1529 0.950 . S
H1518 C1526 0.950 . S
H1519 C1528 0.950 . S
H1520 C1530 0.950 . S
H1521 C1532 0.950 . S
H1522 C1534 0.950 . S
H1523 C1535 0.950 . S
C1524 H1516 0.950 . S
C1524 C1525 1.386 . S
C1524 C1526 1.391 . S
C1525 C1524 1.386 . S
C1525 C1529 1.393 . S
C1526 H1518 0.950 . S
C1526 C1524 1.391 . S
C1526 C1527 1.400 . S
C1527 C1526 1.400 . S
C1527 C1528 1.398 . S
C1527 C1533 1.491 . S
C1528 H1519 0.950 . S
C1528 C1527 1.398 . S
C1528 C1529 1.391 . S
C1529 H1517 0.950 . S
C1529 C1525 1.393 . S
C1529 C1528 1.391 . S
C1530 H1520 0.950 . S
C1530 C1531 1.386 . S
C1530 C1532 1.391 . S
C1531 C1530 1.386 . S
C1531 C1535 1.393 . S
C1532 H1521 0.950 . S
C1532 C1530 1.391 . S
C1532 C1533 1.400 . S
C1533 C1527 1.491 . S
C1533 C1532 1.400 . S
C1533 C1534 1.398 . S
C1534 H1522 0.950 . S
C1534 C1533 1.398 . S
C1534 C1535 1.391 . S
C1535 H1523 0.950 . S
C1535 C1531 1.393 . S
C1535 C1534 1.391 . S
H1536 C1544 0.950 . S
H1537 C1549 0.950 . S
H1538 C1546 0.950 . S
H1539 C1548 0.950 . S
H1540 C1550 0.950 . S
H1541 C1552 0.950 . S
H1542 C1554 0.950 . S
H1543 C1555 0.950 . S
C1544 H1536 0.950 . S
C1544 C1545 1.386 . S
C1544 C1546 1.391 . S
C1545 C1544 1.386 . S
C1545 C1549 1.393 . S
C1546 H1538 0.950 . S
C1546 C1544 1.391 . S
C1546 C1547 1.400 . S
C1547 C1546 1.400 . S
C1547 C1548 1.398 . S
C1547 C1553 1.491 . S
C1548 H1539 0.950 . S
C1548 C1547 1.398 . S
C1548 C1549 1.391 . S
C1549 H1537 0.950 . S
C1549 C1545 1.393 . S
C1549 C1548 1.391 . S
C1550 H1540 0.950 . S
C1550 C1551 1.386 . S
C1550 C1552 1.391 . S
C1551 C1550 1.386 . S
C1551 C1555 1.393 . S
C1552 H1541 0.950 . S
C1552 C1550 1.391 . S
C1552 C1553 1.400 . S
C1553 C1547 1.491 . S
C1553 C1552 1.400 . S
C1553 C1554 1.398 . S
C1554 H1542 0.950 . S
C1554 C1553 1.398 . S
C1554 C1555 1.391 . S
C1555 H1543 0.950 . S
C1555 C1551 1.393 . S
C1555 C1554 1.391 . S
H1556 C1564 0.950 . S
H1557 C1569 0.950 . S
H1558 C1566 0.950 . S
H1559 C1568 0.950 . S
H1560 C1570 0.950 . S
H1561 C1572 0.950 . S
H1562 C1574 0.950 . S
H1563 C1575 0.950 . S
C1564 H1556 0.950 . S
C1564 C1565 1.386 . S
C1564 C1566 1.391 . S
C1565 C1564 1.386 . S
C1565 C1569 1.393 . S
C1566 H1558 0.950 . S
C1566 C1564 1.391 . S
C1566 C1567 1.400 . S
C1567 C1566 1.400 . S
C1567 C1568 1.398 . S
C1567 C1573 1.491 . S
C1568 H1559 0.950 . S
C1568 C1567 1.398 . S
C1568 C1569 1.391 . S
C1569 H1557 0.950 . S
C1569 C1565 1.393 . S
C1569 C1568 1.391 . S
C1570 H1560 0.950 . S
C1570 C1571 1.386 . S
C1570 C1572 1.391 . S
C1571 C1570 1.386 . S
C1571 C1575 1.393 . S
C1572 H1561 0.950 . S
C1572 C1570 1.391 . S
C1572 C1573 1.400 . S
C1573 C1567 1.491 . S
C1573 C1572 1.400 . S
C1573 C1574 1.398 . S
C1574 H1562 0.950 . S
C1574 C1573 1.398 . S
C1574 C1575 1.391 . S
C1575 H1563 0.950 . S
C1575 C1571 1.393 . S
C1575 C1574 1.391 . S
H1576 C1584 0.950 . S
H1577 C1589 0.950 . S
H1578 C1586 0.950 . S
H1579 C1588 0.950 . S
H1580 C1590 0.950 . S
H1581 C1592 0.950 . S
H1582 C1594 0.950 . S
H1583 C1595 0.950 . S
C1584 H1576 0.950 . S
C1584 C1585 1.386 . S
C1584 C1586 1.391 . S
C1585 C1584 1.386 . S
C1585 C1589 1.393 . S
C1586 H1578 0.950 . S
C1586 C1584 1.391 . S
C1586 C1587 1.400 . S
C1587 C1586 1.400 . S
C1587 C1588 1.398 . S
C1587 C1593 1.491 . S
C1588 H1579 0.950 . S
C1588 C1587 1.398 . S
C1588 C1589 1.391 . S
C1589 H1577 0.950 . S
C1589 C1585 1.393 . S
C1589 C1588 1.391 . S
C1590 H1580 0.950 . S
C1590 C1591 1.386 . S
C1590 C1592 1.391 . S
C1591 C1590 1.386 . S
C1591 C1595 1.393 . S
C1592 H1581 0.950 . S
C1592 C1590 1.391 . S
C1592 C1593 1.400 . S
C1593 C1587 1.491 . S
C1593 C1592 1.400 . S
C1593 C1594 1.398 . S
C1594 H1582 0.950 . S
C1594 C1593 1.398 . S
C1594 C1595 1.391 . S
C1595 H1583 0.950 . S
C1595 C1591 1.393 . S
C1595 C1594 1.391 . S
H1596 C1604 0.950 . S
H1597 C1609 0.950 . S
H1598 C1606 0.950 . S
H1599 C1608 0.950 . S
H1600 C1610 0.950 . S
H1601 C1612 0.950 . S
H1602 C1614 0.950 . S
H1603 C1615 0.950 . S
C1604 H1596 0.950 . S
C1604 C1605 1.386 . S
C1604 C1606 1.391 . S
C1605 C1604 1.386 . S
C1605 C1609 1.393 . S
C1606 H1598 0.950 . S
C1606 C1604 1.391 . S
C1606 C1607 1.400 . S
C1607 C1606 1.400 . S
C1607 C1608 1.398 . S
C1607 C1613 1.491 . S
C1608 H1599 0.950 . S
C1608 C1607 1.398 . S
C1608 C1609 1.391 . S
C1609 H1597 0.950 . S
C1609 C1605 1.393 . S
C1609 C1608 1.391 . S
C1610 H1600 0.950 . S
C1610 C1611 1.386 . S
C1610 C1612 1.391 . S
C1611 C1610 1.386 . S
C1611 C1615 1.393 . S
C1612 H1601 0.950 . S
C1612 C1610 1.391 . S
C1612 C1613 1.400 . S
C1613 C1607 1.491 . S
C1613 C1612 1.400 . S
C1613 C1614 1.398 . S
C1614 H1602 0.950 . S
C1614 C1613 1.398 . S
C1614 C1615 1.391 . S
C1615 H1603 0.950 . S
C1615 C1611 1.393 . S
C1615 C1614 1.391 . S
H1616 C1624 0.950 . S
H1617 C1629 0.950 . S
H1618 C1626 0.950 . S
H1619 C1628 0.950 . S
H1620 C1630 0.950 . S
H1621 C1632 0.950 . S
H1622 C1634 0.950 . S
H1623 C1635 0.950 . S
C1624 H1616 0.950 . S
C1624 C1625 1.386 . S
C1624 C1626 1.391 . S
C1625 C1624 1.386 . S
C1625 C1629 1.393 . S
C1626 H1618 0.950 . S
C1626 C1624 1.391 . S
C1626 C1627 1.400 . S
C1627 C1626 1.400 . S
C1627 C1628 1.398 . S
C1627 C1633 1.491 . S
C1628 H1619 0.950 . S
C1628 C1627 1.398 . S
C1628 C1629 1.391 . S
C1629 H1617 0.950 . S
C1629 C1625 1.393 . S
C1629 C1628 1.391 . S
C1630 H1620 0.950 . S
C1630 C1631 1.386 . S
C1630 C1632 1.391 . S
C1631 C1630 1.386 . S
C1631 C1635 1.393 . S
C1632 H1621 0.950 . S
C1632 C1630 1.391 . S
C1632 C1633 1.400 . S
C1633 C1627 1.491 . S
C1633 C1632 1.400 . S
C1633 C1634 1.398 . S
C1634 H1622 0.950 . S
C1634 C1633 1.398 . S
C1634 C1635 1.391 . S
C1635 H1623 0.950 . S
C1635 C1631 1.393 . S
C1635 C1634 1.391 . S
H1636 C1644 0.950 . S
H1637 C1649 0.950 . S
H1638 C1646 0.950 . S
H1639 C1648 0.950 . S
H1640 C1650 0.950 . S
H1641 C1652 0.950 . S
H1642 C1654 0.950 . S
H1643 C1655 0.950 . S
C1644 H1636 0.950 . S
C1644 C1645 1.386 . S
C1644 C1646 1.391 . S
C1645 C1644 1.386 . S
C1645 C1649 1.393 . S
C1646 H1638 0.950 . S
C1646 C1644 1.391 . S
C1646 C1647 1.400 . S
C1647 C1646 1.400 . S
C1647 C1648 1.398 . S
C1647 C1653 1.491 . S
C1648 H1639 0.950 . S
C1648 C1647 1.398 . S
C1648 C1649 1.391 . S
C1649 H1637 0.950 . S
C1649 C1645 1.393 . S
C1649 C1648 1.391 . S
C1650 H1640 0.950 . S
C1650 C1651 1.386 . S
C1650 C1652 1.391 . S
C1651 C1650 1.386 . S
C1651 C1655 1.393 . S
C1652 H1641 0.950 . S
C1652 C1650 1.391 . S
C1652 C1653 1.400 . S
C1653 C1647 1.491 . S
C1653 C1652 1.400 . S
C1653 C1654 1.398 . S
C1654 H1642 0.950 . S
C1654 C1653 1.398 . S
C1654 C1655 1.391 . S
C1655 H1643 0.950 . S
C1655 C1651 1.393 . S
C1655 C1654 1.391 . S
H1656 C1664 0.950 . S
H1657 C1669 0.950 . S
H1658 C1666 0.950 . S
H1659 C1668 0.950 . S
H1660 C1670 0.950 . S
H1661 C1672 0.950 . S
H1662 C1674 0.950 . S
H1663 C1675 0.950 . S
C1664 H1656 0.950 . S
C1664 C1665 1.386 . S
C1664 C1666 1.391 . S
C1665 C1664 1.386 . S
C1665 C1669 1.393 . S
C1666 H1658 0.950 . S
C1666 C1664 1.391 . S
C1666 C1667 1.400 . S
C1667 C1666 1.400 . S
C1667 C1668 1.398 . S
C1667 C1673 1.491 . S
C1668 H1659 0.950 . S
C1668 C1667 1.398 . S
C1668 C1669 1.391 . S
C1669 H1657 0.950 . S
C1669 C1665 1.393 . S
C1669 C1668 1.391 . S
C1670 H1660 0.950 . S
C1670 C1671 1.386 . S
C1670 C1672 1.391 . S
C1671 C1670 1.386 . S
C1671 C1675 1.393 . S
C1672 H1661 0.950 . S
C1672 C1670 1.391 . S
C1672 C1673 1.400 . S
C1673 C1667 1.491 . S
C1673 C1672 1.400 . S
C1673 C1674 1.398 . S
C1674 H1662 0.950 . S
C1674 C1673 1.398 . S
C1674 C1675 1.391 . S
C1675 H1663 0.950 . S
C1675 C1671 1.393 . S
C1675 C1674 1.391 . S
H1676 C1684 0.950 . S
H1677 C1689 0.950 . S
H1678 C1686 0.950 . S
H1679 C1688 0.950 . S
H1680 C1690 0.950 . S
H1681 C1692 0.950 . S
H1682 C1694 0.950 . S
H1683 C1695 0.950 . S
C1684 H1676 0.950 . S
C1684 C1685 1.386 . S
C1684 C1686 1.391 . S
C1685 C1684 1.386 . S
C1685 C1689 1.393 . S
C1686 H1678 0.950 . S
C1686 C1684 1.391 . S
C1686 C1687 1.400 . S
C1687 C1686 1.400 . S
C1687 C1688 1.398 . S
C1687 C1693 1.491 . S
C1688 H1679 0.950 . S
C1688 C1687 1.398 . S
C1688 C1689 1.391 . S
C1689 H1677 0.950 . S
C1689 C1685 1.393 . S
C1689 C1688 1.391 . S
C1690 H1680 0.950 . S
C1690 C1691 1.386 . S
C1690 C1692 1.391 . S
C1691 C1690 1.386 . S
C1691 C1695 1.393 . S
C1692 H1681 0.950 . S
C1692 C1690 1.391 . S
C1692 C1693 1.400 . S
C1693 C1687 1.491 . S
C1693 C1692 1.400 . S
C1693 C1694 1.398 . S
C1694 H1682 0.950 . S
C1694 C1693 1.398 . S
C1694 C1695 1.391 . S
C1695 H1683 0.950 . S
C1695 C1691 1.393 . S
C1695 C1694 1.391 . S
C425 C359 1.341 . S
C431 C5 1.306 . S
C445 C18 1.281 . S
C451 C112 1.354 . S
C465 C333 1.335 . S
C471 C31 1.309 . S
C485 C44 1.290 . S
C491 C138 1.352 . S
C505 C57 1.313 . S
C511 C385 1.336 . S
C525 C70 1.281 . S
C531 C190 1.355 . S
C545 C83 1.296 . S
C551 C411 1.342 . S
C565 C96 1.280 . S
C571 C164 1.356 . S
C585 C255 1.355 . S
C591 C109 1.280 . S
C605 C8 1.353 . S
C611 C122 1.287 . S
C625 C229 1.333 . S
C631 C135 1.315 . S
C645 C148 1.293 . S
C651 C34 1.345 . S
C665 C281 1.346 . S
C671 C161 1.291 . S
C685 C86 1.335 . S
C691 C174 1.311 . S
C705 C187 1.306 . S
C711 C307 1.341 . S
C725 C60 1.333 . S
C731 C200 1.314 . S
C745 C213 1.300 . S
C751 C151 1.340 . S
C765 C226 1.280 . S
C771 C320 1.356 . S
C785 C125 1.335 . S
C791 C239 1.310 . S
C805 C346 1.349 . S
C811 C252 1.294 . S
C825 C177 1.350 . S
C831 C265 1.294 . S
C845 C398 1.334 . S
C851 C278 1.312 . S
C865 C203 1.334 . S
C871 C291 1.312 . S
C885 C304 1.283 . S
C891 C372 1.352 . S
C905 C47 1.356 . S
C911 C317 1.280 . S
C925 C330 1.299 . S
C931 C216 1.347 . S
C945 C343 1.287 . S
C951 C21 1.349 . S
C965 C356 1.297 . S
C971 C242 1.348 . S
C985 C369 1.283 . S
C991 C73 1.352 . S
C1005 C382 1.295 . S
C1011 C294 1.343 . S
C1025 C395 1.280 . S
C1031 C99 1.356 . S
C1045 C408 1.300 . S
C1051 C268 1.340 . S
C1065 C322 1.498 . S
C1071 C10 1.498 . S
C1085 C23 1.504 . S
C1091 C127 1.504 . S
C1105 C348 1.501 . S
C1111 C36 1.501 . S
C1125 C49 1.494 . S
C1131 C153 1.494 . S
C1145 C374 1.496 . S
C1151 C62 1.496 . S
C1165 C75 1.500 . S
C1171 C179 1.500 . S
C1185 C400 1.503 . S
C1191 C88 1.503 . S
C1205 C101 1.504 . S
C1211 C205 1.504 . S
C1225 C114 1.495 . S
C1231 C218 1.495 . S
C1245 C140 1.498 . S
C1251 C244 1.498 . S
C1265 C166 1.495 . S
C1271 C270 1.495 . S
C1285 C192 1.504 . S
C1291 C296 1.504 . S
C1305 C231 1.497 . S
C1311 C335 1.497 . S
C1325 C361 1.497 . S
C1331 C257 1.497 . S
C1345 C387 1.504 . S
C1351 C283 1.504 . S
C1365 C309 1.495 . S
C1371 C413 1.495 . S
C1385 C0 1.022 . S
C1391 C65 1.018 . S
C1405 C13 1.046 . S
C1411 C78 1.049 . S
C1425 C26 1.035 . S
C1431 C91 1.029 . S
C1445 C52 1.031 . S
C1451 C39 1.037 . S
C1465 C104 1.016 . S
C1471 C169 1.021 . S
C1485 C117 1.016 . S
C1491 C182 1.013 . S
C1505 C130 1.023 . S
C1511 C195 1.028 . S
C1525 C143 1.019 . S
C1531 C156 1.015 . S
C1545 C208 1.031 . S
C1551 C273 1.036 . S
C1565 C286 1.045 . S
C1571 C221 1.048 . S
C1585 C234 1.015 . S
C1591 C299 1.019 . S
C1605 C247 1.043 . S
C1611 C260 1.047 . S
C1625 C377 1.040 . S
C1631 C312 1.044 . S
C1645 C325 1.042 . S
C1651 C390 1.037 . S
C1665 C403 1.013 . S
C1671 C338 1.017 . S
C1685 C351 1.050 . S
C1691 C364 1.049 . S
