# Generated by pormake.
# Topology smc, (6)-cn, num edge types: 1
# Building blocks:
#     Node 0, Type 0, BuildingBlock: KUMBOL_clean_sbu_0, # of connection points: 6
#     Node 1, Type 0, BuildingBlock: KUMBOL_clean_sbu_0, # of connection points: 6
#     Node 2, Type 0, BuildingBlock: KUMBOL_clean_sbu_0, # of connection points: 6
#     Node 3, Type 0, BuildingBlock: KUMBOL_clean_sbu_0, # of connection points: 6
#     Node 4, Type 0, BuildingBlock: KUMBOL_clean_sbu_0, # of connection points: 6
#     Node 5, Type 0, BuildingBlock: KUMBOL_clean_sbu_0, # of connection points: 6
#     Node 6, Type 0, BuildingBlock: KUMBOL_clean_sbu_0, # of connection points: 6
#     Node 7, Type 0, BuildingBlock: KUMBOL_clean_sbu_0, # of connection points: 6
#     Node 8, Type 0, BuildingBlock: KUMBOL_clean_sbu_0, # of connection points: 6
#     Edge 9, Type (0, 0), BuildingBlock: TEMPAE_clean_linker_10, # of connection points: 2
#     Edge 10, Type (0, 0), BuildingBlock: TEMPAE_clean_linker_10, # of connection points: 2
#     Edge 11, Type (0, 0), BuildingBlock: TEMPAE_clean_linker_10, # of connection points: 2
#     Edge 12, Type (0, 0), BuildingBlock: TEMPAE_clean_linker_10, # of connection points: 2
#     Edge 13, Type (0, 0), BuildingBlock: TEMPAE_clean_linker_10, # of connection points: 2
#     Edge 14, Type (0, 0), BuildingBlock: TEMPAE_clean_linker_10, # of connection points: 2
#     Edge 15, Type (0, 0), BuildingBlock: TEMPAE_clean_linker_10, # of connection points: 2
#     Edge 16, Type (0, 0), BuildingBlock: TEMPAE_clean_linker_10, # of connection points: 2
#     Edge 17, Type (0, 0), BuildingBlock: TEMPAE_clean_linker_10, # of connection points: 2
#     Edge 18, Type (0, 0), BuildingBlock: TEMPAE_clean_linker_10, # of connection points: 2
#     Edge 19, Type (0, 0), BuildingBlock: TEMPAE_clean_linker_10, # of connection points: 2
#     Edge 20, Type (0, 0), BuildingBlock: TEMPAE_clean_linker_10, # of connection points: 2
#     Edge 21, Type (0, 0), BuildingBlock: TEMPAE_clean_linker_10, # of connection points: 2
#     Edge 22, Type (0, 0), BuildingBlock: TEMPAE_clean_linker_10, # of connection points: 2
#     Edge 23, Type (0, 0), BuildingBlock: TEMPAE_clean_linker_10, # of connection points: 2
#     Edge 24, Type (0, 0), BuildingBlock: TEMPAE_clean_linker_10, # of connection points: 2
#     Edge 25, Type (0, 0), BuildingBlock: TEMPAE_clean_linker_10, # of connection points: 2
#     Edge 26, Type (0, 0), BuildingBlock: TEMPAE_clean_linker_10, # of connection points: 2
#     Edge 27, Type (0, 0), BuildingBlock: TEMPAE_clean_linker_10, # of connection points: 2
#     Edge 28, Type (0, 0), BuildingBlock: TEMPAE_clean_linker_10, # of connection points: 2
#     Edge 29, Type (0, 0), BuildingBlock: TEMPAE_clean_linker_10, # of connection points: 2
#     Edge 30, Type (0, 0), BuildingBlock: TEMPAE_clean_linker_10, # of connection points: 2
#     Edge 31, Type (0, 0), BuildingBlock: TEMPAE_clean_linker_10, # of connection points: 2
#     Edge 32, Type (0, 0), BuildingBlock: TEMPAE_clean_linker_10, # of connection points: 2
#     Edge 33, Type (0, 0), BuildingBlock: TEMPAE_clean_linker_10, # of connection points: 2
#     Edge 34, Type (0, 0), BuildingBlock: TEMPAE_clean_linker_10, # of connection points: 2
#     Edge 35, Type (0, 0), BuildingBlock: TEMPAE_clean_linker_10, # of connection points: 2
# Relax obj value: 0.110
# Max RMSD: 0.287
# Mean RMSD: 0.287
data_MOF--net-smc--node1-KUMBOL_clean_sbu_0--edge1-TEMPAE_clean_linker_10
_symmetry_space_group_name_H-M    P1
_symmetry_Int_Tables_number       1
_symmetry_cell_setting            triclinic
loop_
_symmetry_equiv_pos_as_xyz
'x, y, z'
_cell_length_a     38.011388
_cell_length_b     38.037288
_cell_length_c     40.836174
_cell_angle_alpha  90.145173
_cell_angle_beta   89.857333
_cell_angle_gamma 120.0309
loop_
_atom_site_label
_atom_site_type_symbol
_atom_site_fract_x
_atom_site_fract_y
_atom_site_fract_z
_atom_type_partial_charge
Gd0 Gd 1.00113 0.39899 0.01975 0.0
Gd1 Gd 0.06519 0.50421 0.99405 0.0
C2 C 0.04175 0.60244 0.03237 0.0
C3 C 0.04046 0.63531 0.9819 0.0
C4 C 0.04136 0.57176 0.98013 0.0
C5 C 0.04317 0.57166 0.01405 0.0
C6 C 0.0388 0.6031 0.96381 0.0
C7 C 0.04208 0.63505 0.01611 0.0
C8 C 0.04015 0.59964 0.06651 0.0
C9 C 0.03992 0.56671 0.08158 0.0
N10 N 0.04616 0.54146 0.02914 0.0
C11 C 0.04334 0.53799 0.06251 0.0
H12 H 0.04284 0.51293 0.07487 0.0
C13 C 0.04218 0.54189 0.92954 0.0
N14 N 0.04308 0.5419 0.9631 0.0
C15 C 0.03704 0.57082 0.91251 0.0
C16 C 0.03575 0.60182 0.92969 0.0
H17 H 0.04789 0.5212 0.91541 0.0
H18 H 0.0422 0.65955 0.0298 0.0
H19 H 0.04269 0.36534 0.9634 0.0
H20 H 0.0384 0.62234 0.0814 0.0
H21 H 0.0377 0.56369 0.10796 0.0
H22 H 0.03958 0.66013 0.9697 0.0
H23 H 0.95827 0.3812 0.09395 0.0
H24 H 0.09199 0.30086 0.01271 0.0
H25 H 0.08032 0.32848 0.96173 0.0
H26 H 0.04497 0.29216 0.12299 0.0
H27 H 0.03622 0.57039 0.88601 0.0
H28 H 0.03338 0.62513 0.91634 0.0
H29 H 0.07879 0.2876 0.073 0.0
H30 H 0.95903 0.34832 0.14583 0.0
N31 N 0.03445 0.36079 0.01515 0.0
C32 C 0.07558 0.31733 0.01365 0.0
C33 C 0.06896 0.33277 0.98484 0.0
C34 C 0.05953 0.32196 0.04314 0.0
C35 C 0.03864 0.3439 0.04302 0.0
C36 C 0.04755 0.35381 0.98596 0.0
N37 N 0.99881 0.36658 0.06951 0.0
C38 C 1.01987 0.34655 0.07108 0.0
C39 C 0.9764 0.3477 0.12502 0.0
C40 C 0.9996 0.32869 0.12748 0.0
C41 C 0.97594 0.36619 0.09557 0.0
C42 C 1.02122 0.32739 0.10017 0.0
H43 H 0.99997 0.31446 0.15033 0.0
O44 O 0.93597 0.36321 0.02961 0.0
O45 O 1.00287 0.45639 1.00524 0.0
O46 O 0.08665 0.4952 0.04549 0.0
O47 O 0.03963 0.42938 0.0634 0.0
O48 O 0.96763 0.42692 0.04527 0.0
O49 O 0.96162 0.34917 0.98776 0.0
O50 O 0.11618 0.53575 0.96098 0.0
O51 O 0.06511 0.44737 1.00646 0.0
O52 O 1.00711 0.40275 0.96492 0.0
O53 O 1.01985 0.46765 0.953 0.0
O54 O 0.09308 0.47581 0.96324 0.0
O55 O 0.11857 0.56179 0.00857 0.0
C56 C 0.97929 0.45764 0.02621 0.0
C57 C 0.04326 0.3068 0.10081 0.0
C58 C 0.06256 0.30426 0.07236 0.0
C59 C 0.92915 0.33834 1.0054 0.0
C60 C 0.90316 0.29449 0.01216 0.0
C61 C 0.92019 0.26926 0.0137 0.0
C62 C 0.86072 0.27736 0.01577 0.0
C63 C 0.83511 0.23498 0.02005 0.0
C64 C 0.89531 0.22751 0.01761 0.0
C65 C 0.85328 0.21044 0.02032 0.0
C66 C 0.07174 0.46557 0.06811 0.0
C67 C 0.08737 0.44718 0.98325 0.0
C68 C 0.13524 0.5678 0.9796 0.0
C69 C 0.14909 0.60799 0.96359 0.0
C70 C 0.13877 0.60933 0.93069 0.0
C71 C 0.17354 0.64526 0.98023 0.0
C72 C 0.18566 0.6827 0.9643 0.0
C73 C 0.14958 0.6461 0.91549 0.0
C74 C 0.17259 0.68249 0.9322 0.0
C75 C 1.00669 0.42926 0.94445 0.0
H76 H 0.95269 0.2817 0.01131 0.0
H77 H 0.84795 0.2972 0.01533 0.0
H78 H 0.90862 0.20816 0.01815 0.0
H79 H 0.83507 0.17773 0.02223 0.0
H80 H 0.12236 0.5819 0.91635 0.0
H81 H 0.18344 0.64518 1.00507 0.0
H82 H 0.1407 0.64639 0.89038 0.0
H83 H 0.18157 0.71078 0.91956 0.0
Gd84 Gd 0.65456 0.60961 0.01657 0.0
Gd85 Gd 0.54841 0.56894 0.99467 0.0
C86 C 0.45461 0.45226 0.04337 0.0
C87 C 0.41648 0.41238 0.99633 0.0
C88 C 0.47939 0.47648 0.98851 0.0
C89 C 0.4831 0.48233 0.02217 0.0
C90 C 0.44642 0.44087 0.97535 0.0
C91 C 0.42063 0.41801 0.03027 0.0
C92 C 0.46092 0.45761 0.07715 0.0
C93 C 0.49495 0.49232 0.08905 0.0
N94 N 0.51452 0.51732 0.03416 0.0
C95 C 0.52133 0.52216 0.06718 0.0
H96 H 0.54737 0.54839 0.07708 0.0
C97 C 0.5035 0.50141 0.93533 0.0
N98 N 0.50727 0.50595 0.96866 0.0
C99 C 0.47271 0.46565 0.92134 0.0
C100 C 0.44382 0.43537 0.94142 0.0
H101 H 0.52267 0.52613 0.91914 0.0
H102 H 0.39787 0.39516 0.0462 0.0
H103 H 0.68587 0.67856 0.95586 0.0
H104 H 0.44004 0.43493 0.0942 0.0
H105 H 0.5006 0.4964 0.11513 0.0
H106 H 0.39048 0.38536 0.98659 0.0
H107 H 0.67215 0.59025 0.09289 0.0
H108 H 0.75917 0.79655 0.99754 0.0
H109 H 0.72581 0.75278 0.94946 0.0
H110 H 0.77331 0.76808 0.10945 0.0
H111 H 0.47012 0.46236 0.89498 0.0
H112 H 0.41911 0.40831 0.93045 0.0
H113 H 0.77684 0.80195 0.05728 0.0
H114 H 0.70933 0.62832 0.14225 0.0
N115 N 0.69414 0.68005 1.0075 0.0
C116 C 0.7412 0.76392 1.00061 0.0
C117 C 0.72248 0.73933 0.97341 0.0
C118 C 0.73777 0.74601 0.0312 0.0
C119 C 0.71379 0.70342 0.03389 0.0
C120 C 0.69963 0.69718 0.97721 0.0
N121 N 0.689 0.64335 0.06472 0.0
C122 C 0.71164 0.68448 0.06332 0.0
C123 C 0.71009 0.64448 0.12024 0.0
C124 C 0.73212 0.68687 0.11961 0.0
C125 C 0.68904 0.62302 0.09228 0.0
C126 C 0.73353 0.70741 0.09081 0.0
H127 H 0.7484 0.70341 0.14131 0.0
O128 O 0.68618 0.57619 0.02597 0.0
O129 O 0.59569 0.5536 1.00548 0.0
O130 O 0.56174 0.60596 0.04377 0.0
O131 O 0.62901 0.6271 0.05881 0.0
O132 O 0.62641 0.55081 0.04583 0.0
O133 O 0.70765 0.62129 0.98776 0.0
O134 O 0.51496 0.58636 0.96205 0.0
O135 O 0.607 0.62589 1.00184 0.0
O136 O 0.64851 0.6044 0.96181 0.0
O137 O 0.58079 0.55577 0.95247 0.0
O138 O 0.57572 0.62057 0.95915 0.0
O139 O 0.4917 0.56582 0.01072 0.0
C140 C 0.59499 0.53035 0.02761 0.0
C141 C 0.75656 0.7499 0.08851 0.0
C142 C 0.75849 0.76918 0.05882 0.0
C143 C 0.71451 0.59609 1.00439 0.0
C144 C 0.7566 0.61118 0.0157 0.0
C145 C 0.77763 0.64878 0.03162 0.0
C146 C 0.77555 0.58756 0.01162 0.0
C147 C 0.81519 0.60141 0.0239 0.0
C148 C 0.81607 0.66211 0.04459 0.0
C149 C 0.83451 0.63857 0.04115 0.0
C150 C 0.5936 0.62458 0.06427 0.0
C151 C 0.60612 0.64558 0.97694 0.0
C152 C 0.48383 0.57418 0.9816 0.0
C153 C 0.44296 0.54613 0.96712 0.0
C154 C 0.44035 0.53457 0.93401 0.0
C155 C 0.40639 0.53104 0.98544 0.0
C156 C 0.36844 0.50348 0.97095 0.0
C157 C 0.40329 0.50687 0.92008 0.0
C158 C 0.36773 0.49122 0.93836 0.0
C159 C 0.6196 0.57682 0.94312 0.0
H160 H 0.76433 0.66785 0.03419 0.0
H161 H 0.75965 0.55893 0.99861 0.0
H162 H 0.83166 0.69085 0.05744 0.0
H163 H 0.86409 0.64966 0.05219 0.0
H164 H 0.46708 0.5467 0.91861 0.0
H165 H 0.40739 0.54062 0.01059 0.0
H166 H 0.40207 0.49787 0.89475 0.0
H167 H 0.33922 0.47051 0.92653 0.0
Gd168 Gd 0.44557 0.05369 0.02438 0.0
Gd169 Gd 0.48878 0.99107 0.99933 0.0
C170 C 0.61335 0.02393 0.03823 0.0
C171 C 0.65056 0.03073 0.988 0.0
C172 C 0.58145 0.01891 0.98569 0.0
C173 C 0.5795 0.01796 0.0197 0.0
C174 C 0.61717 0.02551 0.96958 0.0
C175 C 0.64855 0.02969 0.0222 0.0
C176 C 0.61098 0.02416 0.0724 0.0
C177 C 0.57591 0.01955 0.08731 0.0
N178 N 0.54476 1.01157 0.03465 0.0
C179 C 0.5429 1.01311 0.06803 0.0
H180 H 0.51644 1.00992 0.08023 0.0
C181 C 0.54897 1.01233 0.93487 0.0
N182 N 0.54852 1.0133 0.96837 0.0
C183 C 0.58398 0.01968 0.91793 0.0
C184 C 0.61822 0.02621 0.93534 0.0
H185 H 0.52177 1.00419 0.92096 0.0
H186 H 0.67454 0.03363 0.03606 0.0
H187 H 0.37082 1.00969 0.96846 0.0
H188 H 0.63637 0.02875 0.08746 0.0
H189 H 0.57414 0.02062 0.11372 0.0
H190 H 0.6781 0.03556 0.97602 0.0
H191 H 0.47061 0.09778 0.09828 0.0
H192 H 0.25662 0.96267 0.01743 0.0
H193 H 0.29617 0.97188 0.9668 0.0
H194 H 0.29453 1.0151 0.12633 0.0
H195 H 0.58409 0.01903 0.89144 0.0
H196 H 0.64511 0.03123 0.92214 0.0
H197 H 0.25632 0.97895 0.07703 0.0
H198 H 0.43662 0.10054 0.14894 0.0
N199 N 0.3741 0.01925 0.02001 0.0
C200 C 0.28952 0.97873 0.01843 0.0
C201 C 0.31172 0.98395 0.98981 0.0
C202 C 0.31008 0.99591 0.04769 0.0
C203 C 0.35294 1.01625 0.04769 0.0
C204 C 0.35419 1.00521 0.99093 0.0
N205 N 0.41553 0.05639 0.0742 0.0
C206 C 0.37431 0.03592 0.07558 0.0
C207 C 0.41875 0.08202 0.12855 0.0
C208 C 0.37642 0.06 0.13073 0.0
C209 C 0.43792 0.08023 0.09984 0.0
C210 C 0.35363 0.03667 0.10404 0.0
H211 H 0.36165 0.06161 0.15295 0.0
O212 O 0.47975 0.11959 0.02959 0.0
O213 O 0.50252 0.0533 0.01104 0.0
O214 O 0.45574 0.96873 0.05003 0.0
O215 O 0.43481 1.01427 0.0678 0.0
O216 O 0.50526 0.08661 0.05179 0.0
O217 O 0.42851 0.09202 0.997 0.0
O218 O 0.46814 0.93829 0.96814 0.0
O219 O 0.43112 0.99011 0.00992 0.0
O220 O 0.44502 0.04823 0.96972 0.0
O221 O 0.49816 0.03651 0.95814 0.0
O222 O 0.43403 0.96323 0.96672 0.0
O223 O 0.49688 0.93996 0.01404 0.0
C224 C 0.52604 0.0767 0.0329 0.0
C225 C 0.31097 1.01528 0.10456 0.0
C226 C 0.28922 0.99469 0.0765 0.0
C227 C 0.45595 0.1257 0.01063 0.0
C228 C 0.44226 0.15318 0.0238 0.0
C229 C 0.40644 0.13711 0.04231 0.0
C230 C 0.46546 0.1957 0.01893 0.0
C231 C 0.45288 0.22186 0.03278 0.0
C232 C 0.39447 0.16261 0.05678 0.0
C233 C 0.41754 0.20449 0.05238 0.0
C234 C 0.43875 0.98208 0.07214 0.0
C235 C 0.40986 0.96813 0.98604 0.0
C236 C 0.48398 0.92136 0.98598 0.0
C237 C 0.50973 0.90779 0.96826 0.0
C238 C 0.51758 0.91637 0.93462 0.0
C239 C 0.52554 0.88524 0.98384 0.0
C240 C 0.55021 0.87347 0.96608 0.0
C241 C 0.54252 0.90572 0.91749 0.0
C242 C 0.55893 0.88476 0.93304 0.0
C243 C 0.47278 0.04952 0.94961 0.0
H244 H 0.38771 0.10478 0.04575 0.0
H245 H 0.49274 0.20812 1.00408 0.0
H246 H 0.36714 0.14984 0.07153 0.0
H247 H 0.40754 0.2233 0.06453 0.0
H248 H 0.50435 0.93136 0.92119 0.0
H249 H 0.51865 0.87684 0.00936 0.0
H250 H 0.54865 0.9132 0.89177 0.0
H251 H 0.57737 0.87597 0.91877 0.0
Gd252 Gd 0.66868 0.7328 0.35658 0.0
Gd253 Gd 0.73002 0.839 0.33185 0.0
C254 C 0.69529 0.93088 0.36683 0.0
C255 C 0.68937 0.95965 0.31554 0.0
C256 C 0.7016 0.90261 0.31528 0.0
C257 C 0.70155 0.90244 0.34931 0.0
C258 C 0.69522 0.93114 0.29812 0.0
C259 C 0.68971 0.9597 0.34978 0.0
C260 C 0.6947 0.9295 0.40105 0.0
C261 C 0.69859 0.89928 0.41698 0.0
N262 N 0.70739 0.87442 0.36526 0.0
C263 C 0.705 0.87193 0.39867 0.0
H264 H 0.70772 0.84894 0.41165 0.0
C265 C 0.71017 0.8759 0.26548 0.0
N266 N 0.70812 0.87518 0.29897 0.0
C267 C 0.70281 0.90276 0.24751 0.0
C268 C 0.69539 0.93058 0.26388 0.0
H269 H 0.71922 0.85694 0.2524 0.0
H270 H 0.68539 0.98207 0.36285 0.0
H271 H 0.71334 0.7021 0.30087 0.0
H272 H 0.69016 0.95093 0.41537 0.0
H273 H 0.69702 0.89726 0.44342 0.0
H274 H 0.6847 0.9819 0.30275 0.0
H275 H 0.62241 0.71052 0.42959 0.0
H276 H 0.76826 0.6435 0.3512 0.0
H277 H 0.75463 0.6689 0.29984 0.0
H278 H 0.71779 0.63095 0.46066 0.0
H279 H 0.70425 0.9029 0.22103 0.0
H280 H 0.69049 0.95192 0.24989 0.0
H281 H 0.75446 0.62961 0.41137 0.0
H282 H 0.62382 0.67796 0.48147 0.0
N283 N 0.70547 0.69807 0.35264 0.0
C284 C 0.75041 0.6585 0.35187 0.0
C285 C 0.74266 0.67265 0.32283 0.0
C286 C 0.7334 0.66218 0.38118 0.0
C287 C 0.71071 0.68229 0.38074 0.0
C288 C 0.71923 0.69161 0.32357 0.0
N289 N 0.6674 0.70127 0.40654 0.0
C290 C 0.69069 0.68357 0.40856 0.0
C291 C 0.64297 0.67955 0.46121 0.0
C292 C 0.66851 0.6632 0.46429 0.0
C293 C 0.64227 0.698 0.43183 0.0
C294 C 0.69218 0.66434 0.43756 0.0
H295 H 0.66889 0.64881 0.48704 0.0
O296 O 0.60266 0.69976 0.36084 0.0
O297 O 0.66795 0.78937 0.34279 0.0
O298 O 0.75082 0.82969 0.38354 0.0
O299 O 0.70457 0.76351 0.40116 0.0
O300 O 0.63334 0.75785 0.38278 0.0
O301 O 0.632 0.67651 0.3296 0.0
O302 O 0.78358 0.87297 0.30171 0.0
O303 O 0.73195 0.78313 0.34368 0.0
O304 O 0.67514 0.73775 0.30183 0.0
O305 O 0.6858 0.80201 0.29008 0.0
O306 O 0.76019 0.81304 0.30089 0.0
O307 O 0.78029 0.89769 0.34853 0.0
C308 C 0.64349 0.7887 0.3641 0.0
C309 C 0.71601 0.64565 0.43854 0.0
C310 C 0.7369 0.6449 0.41048 0.0
C311 C 0.59778 0.66967 0.34258 0.0
C312 C 0.571 0.62875 0.35621 0.0
C313 C 0.58751 0.6103 0.37569 0.0
C314 C 0.52859 0.60851 0.35086 0.0
C315 C 0.50282 0.57008 0.36514 0.0
C316 C 0.56233 0.57296 0.39043 0.0
C317 C 0.52045 0.55316 0.38548 0.0
C318 C 0.73609 0.79998 0.4061 0.0
C319 C 0.75505 0.78432 0.32062 0.0
C320 C 0.79976 0.90488 0.32073 0.0
C321 C 0.81354 0.94506 0.30455 0.0
C322 C 0.80546 0.9461 0.27104 0.0
C323 C 0.83574 0.98257 0.32157 0.0
C324 C 0.84761 0.01991 0.30535 0.0
C325 C 0.81611 0.98254 0.25543 0.0
C326 C 0.83668 0.01904 0.2724 0.0
C327 C 0.67352 0.76374 0.2815 0.0
H328 H 0.61987 0.62484 0.37969 0.0
H329 H 0.51592 0.62248 0.33536 0.0
H330 H 0.57534 0.55931 0.40586 0.0
H331 H 0.50183 0.52452 0.39785 0.0
H332 H 0.791 0.91867 0.25651 0.0
H333 H 0.84384 0.98275 0.34701 0.0
H334 H 0.80901 0.98254 0.22977 0.0
H335 H 0.84554 0.047 0.25928 0.0
Gd336 Gd 0.3222 0.94284 0.35653 0.0
Gd337 Gd 0.21619 0.90201 0.33432 0.0
C338 C 0.12246 0.78406 0.38125 0.0
C339 C 0.08518 0.74513 0.33359 0.0
C340 C 0.1481 0.80948 0.32681 0.0
C341 C 0.15117 0.81467 0.36053 0.0
C342 C 0.11553 0.77401 0.3131 0.0
C343 C 0.08872 0.75007 0.3676 0.0
C344 C 0.12841 0.78856 0.41511 0.0
C345 C 0.16239 0.82289 0.42753 0.0
N346 N 0.18238 0.84939 0.37307 0.0
C347 C 0.18901 0.85328 0.40613 0.0
H348 H 0.21504 0.87913 0.41644 0.0
C349 C 0.1736 0.83513 0.27405 0.0
N350 N 0.17635 0.83933 0.30744 0.0
C351 C 0.14329 0.79947 0.25956 0.0
C352 C 0.11385 0.76894 0.27913 0.0
H353 H 0.19302 0.86003 0.25812 0.0
H354 H 0.06576 0.72683 0.38315 0.0
H355 H 0.35371 1.01687 0.29983 0.0
H356 H 0.10735 0.76545 0.4318 0.0
H357 H 0.16785 0.82624 0.45366 0.0
H358 H 0.05943 0.71825 0.32341 0.0
H359 H 0.33768 0.91758 0.43148 0.0
H360 H 0.42961 0.13091 0.34645 0.0
H361 H 0.39482 0.09116 0.29695 0.0
H362 H 0.44312 0.0934 0.45565 0.0
H363 H 0.14146 0.79647 0.23316 0.0
H364 H 0.08951 0.74197 0.26775 0.0
H365 H 0.44751 0.13143 0.40567 0.0
H366 H 0.37554 0.95141 0.48173 0.0
N367 N 0.36262 1.01395 0.35099 0.0
C368 C 0.41113 0.09815 0.34798 0.0
C369 C 0.39158 0.07584 0.32 0.0
C370 C 0.40765 0.07779 0.37733 0.0
C371 C 0.38304 0.03511 0.37801 0.0
C372 C 0.36798 0.03353 0.32183 0.0
N373 N 0.35695 0.97281 0.40562 0.0
C374 C 0.38056 1.01385 0.40609 0.0
C375 C 0.3771 0.96934 0.46066 0.0
C376 C 0.40055 1.01163 0.46182 0.0
C377 C 0.35567 0.95029 0.43213 0.0
C378 C 0.40258 0.03445 0.43434 0.0
H379 H 0.41709 0.02632 0.48397 0.0
O380 O 0.35792 0.91325 0.36532 0.0
O381 O 0.26383 0.88694 0.34396 0.0
O382 O 0.22906 0.93737 0.38414 0.0
O383 O 0.29626 0.95834 0.39949 0.0
O384 O 0.2945 0.88243 0.38349 0.0
O385 O 0.37001 0.95143 0.32283 0.0
O386 O 0.18229 0.91867 0.30155 0.0
O387 O 0.27415 0.95911 0.34316 0.0
O388 O 0.31638 0.94352 0.30206 0.0
O389 O 0.25036 0.89203 0.29163 0.0
O390 O 0.24263 0.95616 0.30116 0.0
O391 O 0.15899 0.89791 0.35021 0.0
C392 C 0.26318 0.86276 0.36513 0.0
C393 C 0.42626 0.077 0.4341 0.0
C394 C 0.4287 0.09864 0.40567 0.0
C395 C 0.38147 0.93018 0.34016 0.0
C396 C 0.42565 0.94786 0.34526 0.0
C397 C 0.45134 0.99013 0.34573 0.0
C398 C 0.44256 0.92234 0.34838 0.0
C399 C 0.48509 0.93894 0.35133 0.0
C400 C 0.49323 1.00677 0.34829 0.0
C401 C 0.51002 0.98159 0.35069 0.0
C402 C 0.26062 0.95522 0.40502 0.0
C403 C 0.27322 0.98009 0.31922 0.0
C404 C 0.15111 0.90627 0.32109 0.0
C405 C 0.11033 0.87809 0.30654 0.0
C406 C 0.10789 0.86567 0.2737 0.0
C407 C 0.07363 0.86394 0.32451 0.0
C408 C 0.0357 0.83643 0.30998 0.0
C409 C 0.07085 0.83796 0.25976 0.0
C410 C 0.03514 0.82322 0.27773 0.0
C411 C 0.28869 0.91653 0.28229 0.0
H412 H 0.43913 1.01035 0.34358 0.0
H413 H 0.4225 0.88974 0.34865 0.0
H414 H 0.51289 0.03941 0.34807 0.0
H415 H 0.54279 0.99581 0.35168 0.0
H416 H 0.13473 0.87725 0.25847 0.0
H417 H 0.07453 0.87427 0.3494 0.0
H418 H 0.06976 0.8283 0.23464 0.0
H419 H 1.00666 0.80254 0.26584 0.0
Gd420 Gd 0.11524 0.38686 0.35173 0.0
Gd421 Gd 0.15371 0.32092 0.32428 0.0
C422 C 0.2757 0.34266 0.36047 0.0
C423 C 0.30965 0.34514 0.3094 0.0
C424 C 0.24456 0.34308 0.3088 0.0
C425 C 0.24319 0.34128 0.34276 0.0
C426 C 0.27833 0.34586 0.29187 0.0
C427 C 0.3081 0.3431 0.3436 0.0
C428 C 0.27465 0.34331 0.39467 0.0
C429 C 0.2417 0.34248 0.41043 0.0
N430 N 0.21008 0.33794 0.35847 0.0
C431 C 0.20935 0.33931 0.39193 0.0
H432 H 0.18449 0.33875 0.40482 0.0
C433 C 0.2122 0.34024 0.25872 0.0
N434 N 0.21249 0.34083 0.29229 0.0
C435 C 0.24587 0.34513 0.24105 0.0
C436 C 0.27906 0.34781 0.25769 0.0
H437 H 0.18524 0.33398 0.24525 0.0
H438 H 0.33274 0.34302 0.35682 0.0
H439 H 0.04359 0.35118 0.29283 0.0
H440 H 0.29931 0.34494 0.4091 0.0
H441 H 0.2409 0.3437 0.43688 0.0
H442 H 0.33534 0.34637 0.29676 0.0
H443 H 0.13636 0.42661 0.42704 0.0
H444 H 0.92688 0.29704 0.33878 0.0
H445 H 0.96899 0.31349 0.28872 0.0
H446 H 0.95915 0.33617 0.45116 0.0
H447 H 0.24539 0.34493 0.21455 0.0
H448 H 0.30454 0.35017 0.24389 0.0
H449 H 0.92351 0.3054 0.39958 0.0
H450 H 0.09985 0.4228 0.47836 0.0
N451 N 0.04413 0.35407 0.34493 0.0
C452 C 0.95971 0.31325 0.34079 0.0
C453 C 0.98336 0.3226 0.31248 0.0
C454 C 0.97875 0.32662 0.37119 0.0
C455 C 1.02157 0.34732 0.37245 0.0
C456 C 1.02576 0.34395 0.31496 0.0
N457 N 0.0827 0.38564 0.40122 0.0
C458 C 0.0415 0.36395 0.40154 0.0
C459 C 0.08309 0.40591 0.45698 0.0
C460 C 0.0408 0.3818 0.45825 0.0
C461 C 0.10365 0.40804 0.42793 0.0
C462 C 1.01939 0.3611 0.43014 0.0
H463 H 1.02494 0.38029 0.48075 0.0
O464 O 0.14961 0.4519 0.36145 0.0
O465 O 0.17022 0.38351 0.33738 0.0
O466 O 0.1221 0.29884 0.37531 0.0
O467 O 0.10658 0.34761 0.39488 0.0
O468 O 0.17552 0.41717 0.37866 0.0
O469 O 0.10148 0.4285 0.32579 0.0
O470 O 0.13152 0.2691 0.29177 0.0
O471 O 0.09791 0.32297 0.33662 0.0
O472 O 0.11776 0.38678 0.29668 0.0
O473 O 0.16517 0.36722 0.2837 0.0
O474 O 0.09861 0.29693 0.29242 0.0
O475 O 0.15643 0.26682 0.33868 0.0
C476 C 0.1946 0.40561 0.35929 0.0
C477 C 0.97672 0.33902 0.42937 0.0
C478 C 0.95643 0.32151 0.40001 0.0
C479 C 0.12797 0.46044 0.34193 0.0
C480 C 0.11364 0.48704 0.35569 0.0
C481 C 0.07776 0.47012 0.37417 0.0
C482 C 0.13622 0.52957 0.35117 0.0
C483 C 0.123 0.55499 0.36537 0.0
C484 C 0.0651 0.49492 0.38893 0.0
C485 C 0.08758 0.5369 0.38487 0.0
C486 C 0.1086 0.31424 0.39857 0.0
C487 C 0.07561 0.30214 0.31287 0.0
C488 C 0.14461 0.24986 0.30993 0.0
C489 C 0.16999 0.23531 0.29316 0.0
C490 C 0.17907 0.24344 0.2596 0.0
C491 C 0.18481 0.21271 0.30989 0.0
C492 C 0.20947 0.20018 0.29332 0.0
C493 C 0.20428 0.23209 0.24366 0.0
C494 C 0.2196 0.21087 0.2604 0.0
C495 C 0.14393 0.38525 0.27632 0.0
H496 H 0.05951 0.43769 0.37731 0.0
H497 H 0.16351 0.54259 0.33631 0.0
H498 H 0.0377 0.48155 0.40362 0.0
H499 H 0.0771 0.55521 0.3972 0.0
H500 H 0.16677 0.25874 0.24539 0.0
H501 H 0.17696 0.20464 0.33537 0.0
H502 H 0.21146 0.23925 0.218 0.0
H503 H 0.23834 0.20147 0.24726 0.0
Gd504 Gd 0.33854 0.07175 0.69072 0.0
Gd505 Gd 0.40091 0.17841 0.66778 0.0
C506 C 0.36537 0.26754 0.70824 0.0
C507 C 0.35993 0.29954 0.65862 0.0
C508 C 0.37235 0.24274 0.65521 0.0
C509 C 0.37225 0.24057 0.68917 0.0
C510 C 0.3659 0.27216 0.63965 0.0
C511 C 0.36 0.29744 0.69279 0.0
C512 C 0.36387 0.26359 0.74233 0.0
C513 C 0.36841 0.23286 0.75661 0.0
N514 N 0.37849 0.21194 0.70355 0.0
C515 C 0.37595 0.20733 0.73682 0.0
H516 H 0.37918 0.18387 0.74849 0.0
C517 C 0.38067 0.21874 0.60394 0.0
N518 N 0.37884 0.21627 0.6374 0.0
C519 C 0.37343 0.24667 0.58752 0.0
C520 C 0.36613 0.2736 0.60544 0.0
H521 H 0.38954 0.20042 0.58971 0.0
H522 H 0.35554 0.31893 0.70708 0.0
H523 H 0.38351 0.04236 0.63452 0.0
H524 H 0.35845 0.28361 0.75778 0.0
H525 H 0.36648 0.22904 0.78293 0.0
H526 H 0.35528 0.32252 0.64708 0.0
H527 H 0.29416 0.05203 0.76459 0.0
H528 H 0.42991 0.97438 0.6825 0.0
H529 H 0.42133 1.00558 0.63232 0.0
H530 H 0.37656 0.95832 0.79128 0.0
H531 H 0.37482 0.24829 0.56105 0.0
H532 H 0.36125 0.29572 0.59265 0.0
H533 H 0.41296 0.9568 0.74186 0.0
H534 H 0.29141 1.01504 0.81494 0.0
N535 N 0.37327 0.0351 0.68593 0.0
C536 C 0.41382 0.99115 0.68373 0.0
C537 C 0.40896 1.00863 0.65536 0.0
C538 C 0.3963 0.99403 0.71304 0.0
C539 C 0.37594 1.01649 0.71335 0.0
C540 C 0.38768 0.02977 0.65678 0.0
N541 N 0.33552 0.03848 0.74018 0.0
C542 C 0.35596 1.01773 0.74126 0.0
C543 C 0.30988 1.01576 0.79445 0.0
C544 C 0.33191 0.99549 0.79633 0.0
C545 C 0.31164 0.03682 0.76591 0.0
C546 C 0.35515 0.99608 0.7695 0.0
H547 H 0.33037 0.97906 0.81844 0.0
O548 O 0.27261 0.03855 0.69579 0.0
O549 O 0.33864 0.12898 0.67817 0.0
O550 O 0.42276 0.16688 0.71826 0.0
O551 O 0.37755 0.09976 0.73451 0.0
O552 O 0.30393 0.09704 0.71786 0.0
O553 O 0.30131 1.01734 0.66178 0.0
O554 O 0.45432 0.21281 0.63764 0.0
O555 O 0.40204 0.12165 0.67711 0.0
O556 O 0.34466 0.07782 0.63615 0.0
O557 O 0.35728 0.14313 0.62525 0.0
O558 O 0.43006 0.15318 0.63477 0.0
O559 O 0.45133 0.23684 0.68482 0.0
C560 C 0.31423 0.12816 0.69952 0.0
C561 C 0.37648 0.97479 0.7697 0.0
C562 C 0.39723 0.97397 0.74157 0.0
C563 C 0.26733 1.00969 0.6758 0.0
C564 C 0.24064 0.96788 0.68784 0.0
C565 C 0.25746 0.94791 0.70493 0.0
C566 C 0.19807 0.94817 0.68334 0.0
C567 C 0.17253 0.90879 0.69617 0.0
C568 C 0.23254 0.90969 0.71835 0.0
C569 C 0.19055 0.89044 0.71434 0.0
C570 C 0.4094 0.13595 0.73966 0.0
C571 C 0.42441 0.12324 0.65319 0.0
C572 C 0.47055 0.24447 0.65688 0.0
C573 C 0.4839 0.28471 0.64103 0.0
C574 C 0.47606 0.28602 0.60749 0.0
C575 C 0.50541 0.32203 0.65838 0.0
C576 C 0.51682 0.35942 0.64245 0.0
C577 C 0.48629 0.32252 0.59216 0.0
C578 C 0.50617 0.35882 0.60946 0.0
C579 C 0.34441 0.10487 0.61621 0.0
H580 H 0.28988 0.9619 0.70806 0.0
H581 H 0.18513 0.96327 0.66958 0.0
H582 H 0.24585 0.89489 0.73202 0.0
H583 H 0.17219 0.86105 0.72569 0.0
H584 H 0.46199 0.25875 0.59273 0.0
H585 H 0.51332 0.32202 0.68384 0.0
H586 H 0.47937 0.32272 0.56648 0.0
H587 H 0.51476 0.38685 0.59655 0.0
Gd588 Gd 0.99186 0.28064 0.67815 0.0
Gd589 Gd 0.88558 0.23946 0.65651 0.0
C590 C 0.79129 0.12297 0.70554 0.0
C591 C 0.754 0.08224 0.65857 0.0
C592 C 0.81633 0.14686 0.65068 0.0
C593 C 0.81973 0.15306 0.6843 0.0
C594 C 0.78378 0.11085 0.63758 0.0
C595 C 0.75775 0.08828 0.69247 0.0
C596 C 0.79731 0.12863 0.73933 0.0
C597 C 0.83107 0.16356 0.75121 0.0
N598 N 0.85091 0.18826 0.69625 0.0
C599 C 0.8575 0.19331 0.7293 0.0
H600 H 0.88347 0.21959 0.73925 0.0
C601 C 0.84069 0.17136 0.59746 0.0
N602 N 0.8442 0.17626 0.63078 0.0
C603 C 0.81023 0.13535 0.58356 0.0
C604 C 0.78146 0.10505 0.60369 0.0
H605 H 0.85996 0.19596 0.5812 0.0
H606 H 0.73506 0.06539 0.70842 0.0
H607 H 1.02201 0.34702 0.61548 0.0
H608 H 0.77645 0.10595 0.7564 0.0
H609 H 0.83656 0.16784 0.7773 0.0
H610 H 0.72836 0.05487 0.64888 0.0
H611 H 1.00961 0.26457 0.75537 0.0
H612 H 0.09783 0.46649 0.65362 0.0
H613 H 0.06264 0.42079 0.60691 0.0
H614 H 0.11338 0.44278 0.76649 0.0
H615 H 0.80787 0.13179 0.55721 0.0
H616 H 0.75707 0.07771 0.59278 0.0
H617 H 0.11667 0.47439 0.7132 0.0
H618 H 0.04761 0.30462 0.80373 0.0
N619 N 0.03197 0.35059 0.66699 0.0
C620 C 0.07969 0.43404 0.65762 0.0
C621 C 0.05989 0.40835 0.63121 0.0
C622 C 0.07689 0.41742 0.68869 0.0
C623 C 0.05271 0.375 0.69259 0.0
C624 C 0.03666 0.36644 0.63625 0.0
N625 N 0.0278 0.31639 0.72517 0.0
C626 C 0.05104 0.35731 0.7225 0.0
C627 C 0.04875 0.31983 0.78105 0.0
C628 C 0.0715 0.36212 0.77907 0.0
C629 C 0.02732 0.29725 0.75362 0.0
C630 C 0.07319 0.38138 0.74947 0.0
H631 H 0.08794 0.37955 0.8004 0.0
O632 O 0.02708 0.25168 0.69101 0.0
O633 O 0.93281 0.2244 0.66839 0.0
O634 O 0.89857 0.27627 0.70555 0.0
O635 O 0.96667 0.29974 0.71951 0.0
O636 O 0.96422 0.22281 0.70862 0.0
O637 O 0.03993 0.28615 0.64613 0.0
O638 O 0.85386 0.25788 0.62296 0.0
O639 O 0.94419 0.29659 0.66348 0.0
O640 O 0.98492 0.27369 0.6235 0.0
O641 O 0.91737 0.22404 0.61551 0.0
O642 O 0.91353 0.29064 0.62047 0.0
O643 O 0.82887 0.23719 0.6712 0.0
C644 C 0.93234 0.20189 0.69105 0.0
C645 C 0.09642 0.42373 0.74598 0.0
C646 C 0.09819 0.44173 0.71567 0.0
C647 C 0.05099 0.26636 0.6657 0.0
C648 C 0.09503 0.28442 0.67164 0.0
C649 C 0.12058 0.32671 0.67137 0.0
C650 C 0.11194 0.25919 0.67661 0.0
C651 C 0.15435 0.27606 0.68075 0.0
C652 C 0.16237 0.34361 0.67516 0.0
C653 C 0.17919 0.31869 0.67947 0.0
C654 C 0.93081 0.29596 0.72551 0.0
C655 C 0.94348 0.31606 0.63843 0.0
C656 C 0.8223 0.24626 0.64189 0.0
C657 C 0.7818 0.21921 0.62662 0.0
C658 C 0.77971 0.2065 0.59388 0.0
C659 C 0.74496 0.20649 0.64388 0.0
C660 C 0.7072 0.18009 0.62881 0.0
C661 C 0.74262 0.1796 0.57949 0.0
C662 C 0.70664 0.16622 0.59686 0.0
C663 C 0.95588 0.24502 0.60562 0.0
H664 H 0.10834 0.3467 0.66774 0.0
H665 H 0.09196 0.22658 0.67743 0.0
H666 H 0.18194 0.37626 0.67442 0.0
H667 H 0.21191 0.33304 0.68139 0.0
H668 H 0.80682 0.21719 0.57912 0.0
H669 H 0.74561 0.21722 0.66859 0.0
H670 H 0.74173 0.1696 0.55451 0.0
H671 H 0.67806 0.14612 0.58485 0.0
Gd672 Gd 0.78498 0.72494 0.69035 0.0
Gd673 Gd 0.82254 0.65827 0.66255 0.0
C674 C 0.94466 0.6812 0.69939 0.0
C675 C 0.97868 0.68313 0.6485 0.0
C676 C 0.91363 0.68112 0.6475 0.0
C677 C 0.91212 0.67949 0.68149 0.0
C678 C 0.94745 0.68376 0.63076 0.0
C679 C 0.97717 0.68162 0.68271 0.0
C680 C 0.94345 0.68201 0.73358 0.0
C681 C 0.91019 0.68075 0.74915 0.0
N682 N 0.87875 0.67577 0.69704 0.0
C683 C 0.87776 0.67711 0.73048 0.0
H684 H 0.85261 0.67614 0.74321 0.0
C685 C 0.8814 0.67779 0.59723 0.0
N686 N 0.88156 0.67864 0.63079 0.0
C687 C 0.91516 0.68262 0.57975 0.0
C688 C 0.9483 0.68545 0.59657 0.0
H689 H 0.85447 0.6713 0.58362 0.0
H690 H 1.00184 0.68179 0.69609 0.0
H691 H 0.71296 0.68991 0.63174 0.0
H692 H 0.96814 0.68392 0.74814 0.0
H693 H 0.9092 0.68197 0.7756 0.0
H694 H 1.0044 0.68424 0.636 0.0
H695 H 0.80702 0.76428 0.76576 0.0
H696 H 0.59663 0.63718 0.67819 0.0
H697 H 0.63834 0.65312 0.62795 0.0
H698 H 0.62993 0.67593 0.79052 0.0
H699 H 0.91477 0.6822 0.55325 0.0
H700 H 0.97383 0.68772 0.58292 0.0
H701 H 0.59379 0.64559 0.73903 0.0
H702 H 0.771 0.76093 0.81726 0.0
N703 N 0.71388 0.69281 0.68385 0.0
C704 C 0.62947 0.653 0.68006 0.0
C705 C 0.6529 0.66206 0.65165 0.0
C706 C 0.64875 0.66614 0.7104 0.0
C707 C 0.69157 0.68632 0.71149 0.0
C708 C 0.6953 0.6829 0.65395 0.0
N709 N 0.753 0.72385 0.7401 0.0
C710 C 0.71177 0.70265 0.74056 0.0
C711 C 0.754 0.74419 0.79592 0.0
C712 C 0.71168 0.72054 0.79734 0.0
C713 C 0.77428 0.74606 0.76678 0.0
C714 C 0.68995 0.70006 0.76926 0.0
H715 H 0.69603 0.71924 0.81992 0.0
O716 O 0.81963 0.78996 0.70024 0.0
O717 O 0.8395 0.72112 0.67531 0.0
O718 O 0.79011 0.6357 0.71339 0.0
O719 O 0.7759 0.68522 0.73337 0.0
O720 O 0.84574 0.75511 0.71659 0.0
O721 O 0.77136 0.76692 0.66474 0.0
O722 O 0.79959 0.60581 0.63065 0.0
O723 O 0.76709 0.66093 0.675 0.0
O724 O 0.787 0.72494 0.6353 0.0
O725 O 0.83304 0.70383 0.6214 0.0
O726 O 0.76741 0.63444 0.63085 0.0
O727 O 0.8274 0.60502 0.67638 0.0
C728 C 0.86436 0.74339 0.69688 0.0
C729 C 0.64728 0.67855 0.76865 0.0
C730 C 0.6267 0.66129 0.73933 0.0
C731 C 0.79814 0.7988 0.68079 0.0
C732 C 0.7843 0.82585 0.69457 0.0
C733 C 0.74934 0.80949 0.71415 0.0
C734 C 0.80637 0.86823 0.68893 0.0
C735 C 0.7936 0.89403 0.70315 0.0
C736 C 0.7372 0.83468 0.72894 0.0
C737 C 0.75921 0.87649 0.72381 0.0
C738 C 0.77688 0.65125 0.7368 0.0
C739 C 0.7447 0.64025 0.65122 0.0
C740 C 0.81427 0.58739 0.64803 0.0
C741 C 0.83923 0.57309 0.62995 0.0
C742 C 0.84613 0.58098 0.59616 0.0
C743 C 0.85565 0.551 0.64545 0.0
C744 C 0.87995 0.53899 0.6274 0.0
C745 C 0.87063 0.57 0.57871 0.0
C746 C 0.88762 0.54951 0.59415 0.0
C747 C 0.8123 0.72257 0.61447 0.0
H748 H 0.73141 0.77721 0.71813 0.0
H749 H 0.83289 0.88079 0.67319 0.0
H750 H 0.71054 0.82173 0.74451 0.0
H751 H 0.74915 0.89509 0.73624 0.0
H752 H 0.83272 0.59593 0.58289 0.0
H753 H 0.84965 0.54327 0.67115 0.0
H754 H 0.87607 0.57699 0.55287 0.0
H755 H 0.90581 0.54057 0.5797 0.0
C756 C 0.29941 0.44747 0.98759 0.0
C757 C 0.32847 0.48909 0.98753 0.0
C758 C 0.25797 0.43374 0.9934 0.0
C759 C 0.24502 0.46231 0.99882 0.0
C760 C 0.27478 0.50407 1.00189 0.0
C761 C 0.31614 0.51693 0.9963 0.0
C762 C 0.22783 0.38892 0.99057 0.0
C763 C 0.26258 0.53567 1.00791 0.0
C764 C 0.14686 0.44543 0.96014 0.0
C765 C 0.12224 0.44004 0.98748 0.0
C766 C 0.186 0.45083 0.96351 0.0
C767 C 0.20099 0.45 0.99506 0.0
C768 C 0.17473 0.44045 0.02249 0.0
C769 C 0.13571 0.43589 0.01845 0.0
C770 C 0.2123 0.46021 0.93335 0.0
C771 C 0.18857 0.43706 0.05627 0.0
H772 H 0.30874 0.42575 0.98085 0.0
H773 H 0.3383 0.54911 0.99602 0.0
H774 H 0.20236 0.37947 1.00813 0.0
H775 H 0.21481 0.38217 0.96552 0.0
H776 H 0.24252 0.3704 0.9949 0.0
H777 H 0.28913 0.56584 0.01384 0.0
H778 H 0.24765 0.53879 0.98565 0.0
H779 H 0.24033 0.52625 0.02828 0.0
H780 H 0.13646 0.44817 0.93608 0.0
H781 H 0.11674 0.43112 0.03967 0.0
H782 H 0.22446 0.43917 0.93154 0.0
H783 H 0.23865 0.49151 0.93513 0.0
H784 H 0.19547 0.45779 0.91047 0.0
H785 H 0.1633 0.42517 0.07433 0.0
H786 H 0.21288 0.46738 0.06447 0.0
H787 H 0.2017 0.41677 0.0559 0.0
C788 C 0.53777 0.80736 0.98998 0.0
C789 C 0.5653 0.84705 0.97983 0.0
C790 C 0.55022 0.7783 0.99379 0.0
C791 C 0.59117 0.78914 0.98736 0.0
C792 C 0.61974 0.83014 0.98012 0.0
C793 C 0.60646 0.85845 0.97621 0.0
C794 C 0.51898 0.73524 1.00255 0.0
C795 C 0.66392 0.84353 0.97448 0.0
C796 C 0.62053 0.70889 1.00817 0.0
C797 C 0.61307 0.68788 0.97849 0.0
C798 C 0.61569 0.74319 0.01139 0.0
C799 C 0.60271 0.75679 0.98408 0.0
C800 C 0.59838 0.73761 0.95334 0.0
C801 C 0.60385 0.70374 0.95091 0.0
C802 C 0.62217 0.7628 0.04464 0.0
C803 C 0.58542 0.75124 0.92327 0.0
H804 H 0.50593 0.79821 0.99259 0.0
H805 H 0.62795 0.88914 0.96848 0.0
H806 H 0.51401 0.71506 0.98127 0.0
H807 H 0.53015 0.72444 0.0231 0.0
H808 H 0.48939 0.73233 0.00963 0.0
H809 H 0.68312 0.8771 0.97308 0.0
H810 H 0.67543 0.83227 0.99448 0.0
H811 H 0.66721 0.8303 0.95122 0.0
H812 H 0.62804 0.69721 0.02927 0.0
H813 H 0.59833 0.68799 0.92767 0.0
H814 H 0.59502 0.74418 0.06009 0.0
H815 H 0.62728 0.79414 0.04344 0.0
H816 H 0.64864 0.76373 0.05693 0.0
H817 H 0.55422 0.74602 0.92689 0.0
H818 H 0.58569 0.73476 0.90085 0.0
H819 H 0.60579 0.78426 0.91929 0.0
C820 C 0.35781 0.9085 0.01828 0.0
C821 C 0.36862 0.93184 0.98963 0.0
C822 C 0.32434 0.86873 0.01923 0.0
C823 C 0.30183 0.85098 0.99033 0.0
C824 C 0.31142 0.87501 0.9616 0.0
C825 C 0.34458 0.91505 0.96164 0.0
C826 C 0.31494 0.84472 0.05059 0.0
C827 C 0.28865 0.85746 0.93005 0.0
C828 C 0.25657 0.73723 0.97576 0.0
C829 C 0.21484 0.72277 0.97877 0.0
C830 C 0.28518 0.7786 0.98053 0.0
C831 C 0.2718 0.80626 0.98893 0.0
C832 C 0.22972 0.79124 0.99395 0.0
C833 C 0.2017 0.7498 0.9883 0.0
C834 C 0.3296 0.79309 0.97456 0.0
C835 C 0.21412 0.81928 1.00366 0.0
H836 H 0.37751 0.91977 0.03915 0.0
H837 H 0.35335 0.93246 0.93912 0.0
H838 H 0.28203 0.8301 0.05628 0.0
H839 H 0.3224 0.82017 0.04765 0.0
H840 H 0.33242 0.86394 0.0717 0.0
H841 H 0.29719 0.88097 0.91081 0.0
H842 H 0.29532 0.83393 0.92083 0.0
H843 H 0.25541 0.84249 0.93426 0.0
H844 H 0.26667 0.71659 0.96755 0.0
H845 H 0.16937 0.73883 0.98994 0.0
H846 H 0.34798 0.8104 0.99602 0.0
H847 H 0.34048 0.81394 0.95323 0.0
H848 H 0.33526 0.7676 0.96965 0.0
H849 H 0.23218 0.83914 0.02428 0.0
H850 H 0.18159 0.80227 0.01094 0.0
H851 H 0.21745 0.8393 0.98276 0.0
C852 C 0.45351 0.28762 0.02443 0.0
C853 C 0.47539 0.26698 0.02715 0.0
C854 C 0.47314 0.33013 0.02305 0.0
C855 C 0.51605 0.35342 0.0231 0.0
C856 C 0.5386 0.33287 0.0239 0.0
C857 C 0.51808 0.28999 0.02619 0.0
C858 C 0.44775 0.35022 0.02261 0.0
C859 C 0.58441 0.35626 0.02304 0.0
C860 C 0.56242 0.4645 0.99613 0.0
C861 C 0.57281 0.48513 0.02621 0.0
C862 C 0.54496 0.42191 0.99461 0.0
C863 C 0.53683 0.39911 0.02394 0.0
C864 C 0.54668 0.41994 0.05439 0.0
C865 C 0.5652 0.4626 0.05509 0.0
C866 C 0.53547 0.40143 0.96154 0.0
C867 C 0.53724 0.39711 0.08634 0.0
H868 H 0.42061 0.27046 0.02392 0.0
H869 H 0.53553 0.27467 0.02821 0.0
H870 H 0.45476 0.36977 0.04461 0.0
H871 H 0.45567 0.36984 1.00073 0.0
H872 H 0.41462 0.32809 0.02222 0.0
H873 H 0.59747 0.33596 0.02084 0.0
H874 H 0.5952 0.37777 1.00214 0.0
H875 H 0.5962 0.37451 0.04576 0.0
H876 H 0.569 0.48178 0.97367 0.0
H877 H 0.57342 0.47845 0.07838 0.0
H878 H 0.50209 0.38349 0.95808 0.0
H879 H 0.54729 0.38006 0.95994 0.0
H880 H 0.54862 0.42367 0.94119 0.0
H881 H 0.50415 0.37523 0.08804 0.0
H882 H 0.54645 0.41767 0.10791 0.0
H883 H 0.55309 0.37932 0.0874 0.0
C884 C 0.59317 0.12394 0.0586 0.0
C885 C 0.57124 0.10152 0.03114 0.0
C886 C 0.63562 0.14961 0.05745 0.0
C887 C 0.65734 0.15146 0.02857 0.0
C888 C 0.63513 0.12939 1.00053 0.0
C889 C 0.59236 0.106 1.00186 0.0
C890 C 0.65688 0.17423 0.08749 0.0
C891 C 0.65644 0.12994 0.96915 0.0
C892 C 0.76768 0.23168 0.00856 0.0
C893 C 0.78976 0.21576 0.02392 0.0
C894 C 0.72495 0.21233 0.0111 0.0
C895 C 0.7031 0.17482 0.02811 0.0
C896 C 0.72548 0.15948 0.04457 0.0
C897 C 0.76808 0.18042 0.04279 0.0
C898 C 0.70414 0.2331 0.99561 0.0
C899 C 0.70555 0.12106 0.0646 0.0
H900 H 0.57701 0.12177 0.08111 0.0
H901 H 0.57548 0.09101 0.97998 0.0
H902 H 0.66568 0.15631 0.10338 0.0
H903 H 0.68468 0.20317 0.08109 0.0
H904 H 0.63643 0.18133 0.102 0.0
H905 H 0.63513 0.1084 0.95068 0.0
H906 H 0.67123 0.16072 0.9583 0.0
H907 H 0.6805 0.12226 0.9742 0.0
H908 H 0.78351 0.2591 0.99407 0.0
H909 H 0.78434 0.16856 0.05635 0.0
H910 H 0.6715 0.21901 1.00206 0.0
H911 H 0.7072 0.23289 0.96858 0.0
H912 H 0.71965 0.26547 1.00328 0.0
H913 H 0.71143 0.12907 0.09094 0.0
H914 H 0.71938 0.10208 0.05873 0.0
H915 H 0.67242 0.10279 0.06085 0.0
C916 C 0.94619 0.4884 0.99254 0.0
C917 C 0.95663 0.47997 0.02326 0.0
C918 C 0.92103 0.50569 0.9898 0.0
C919 C 0.90691 0.51595 0.0185 0.0
C920 C 0.91825 0.5082 0.04955 0.0
C921 C 0.94209 0.48948 0.0515 0.0
C922 C 0.90953 0.5128 0.95613 0.0
C923 C 0.90564 0.52015 0.08081 0.0
C924 C 0.8796 0.59957 0.01476 0.0
C925 C 0.83725 0.57826 0.01902 0.0
C926 C 0.90215 0.57961 0.01413 0.0
C927 C 0.88225 0.53682 0.01636 0.0
C928 C 0.8392 0.51466 0.01847 0.0
C929 C 0.81722 0.53559 0.02015 0.0
C930 C 0.94765 0.60462 0.01252 0.0
C931 C 0.81646 0.46889 0.0197 0.0
H932 H 0.95661 0.48028 0.9706 0.0
H933 H 0.94989 0.48271 0.07527 0.0
H934 H 0.87664 0.50272 0.95509 0.0
H935 H 0.92658 0.54571 0.95048 0.0
H936 H 0.91661 0.49662 0.93683 0.0
H937 H 0.9176 0.51276 0.10294 0.0
H938 H 0.91684 0.55328 0.08073 0.0
H939 H 0.87203 0.50437 0.08252 0.0
H940 H 0.89555 0.63235 0.01256 0.0
H941 H 0.78455 0.51852 0.02333 0.0
H942 H 0.95885 0.59389 0.99197 0.0
H943 H 0.96057 0.60044 0.03552 0.0
H944 H 0.95877 0.63753 0.00919 0.0
H945 H 0.82667 0.45651 0.9995 0.0
H946 H 0.78307 0.45595 0.01781 0.0
H947 H 0.82316 0.45862 0.04306 0.0
C948 C 0.81539 0.78387 0.29782 0.0
C949 C 0.79053 0.77821 0.32502 0.0
C950 C 0.85436 0.78888 0.30135 0.0
C951 C 0.86899 0.78759 0.33296 0.0
C952 C 0.84266 0.77831 0.3603 0.0
C953 C 0.80382 0.77407 0.35607 0.0
C954 C 0.88079 0.79802 0.2713 0.0
C955 C 0.85618 0.77477 0.39417 0.0
C956 C 0.96572 0.78183 0.32613 0.0
C957 C 0.99567 0.82316 0.32611 0.0
C958 C 0.92449 0.76925 0.33162 0.0
C959 C 0.91267 0.79873 0.33684 0.0
C960 C 0.94327 0.84017 0.33997 0.0
C961 C 0.9844 0.85188 0.33465 0.0
C962 C 0.89335 0.72472 0.3287 0.0
C963 C 0.93226 0.87268 0.34582 0.0
H964 H 0.80518 0.78674 0.27371 0.0
H965 H 0.78474 0.76933 0.37722 0.0
H966 H 0.90753 0.82906 0.27326 0.0
H967 H 0.89236 0.77648 0.26945 0.0
H968 H 0.86426 0.79612 0.24836 0.0
H969 H 0.8802 0.80512 0.4026 0.0
H970 H 0.83069 0.76258 0.41203 0.0
H971 H 0.86956 0.7547 0.3939 0.0
H972 H 0.97424 0.75943 0.31962 0.0
H973 H 1.00724 0.88384 0.33442 0.0
H974 H 0.8799 0.7185 0.30381 0.0
H975 H 0.86827 0.71585 0.34657 0.0
H976 H 0.90721 0.70535 0.33254 0.0
H977 H 0.91794 0.87641 0.32343 0.0
H978 H 0.95929 0.90243 0.3519 0.0
H979 H 0.90984 0.86377 0.36602 0.0
C980 C 0.26353 0.18781 0.31589 0.0
C981 C 0.22251 0.17299 0.30827 0.0
C982 C 0.27837 0.16111 0.32212 0.0
C983 C 0.25178 0.1186 0.31964 0.0
C984 C 0.20995 0.10362 0.31323 0.0
C985 C 0.19584 0.13099 0.30782 0.0
C986 C 0.32285 0.17843 0.3297 0.0
C987 C 0.18045 0.05863 0.31006 0.0
C988 C 0.28626 0.04449 0.2931 0.0
C989 C 0.28083 0.02236 0.32192 0.0
C990 C 0.27975 0.07783 0.29246 0.0
C991 C 0.2676 0.08955 0.32145 0.0
C992 C 0.26555 0.06952 0.35116 0.0
C993 C 0.27155 0.03588 0.35086 0.0
C994 C 0.28237 0.09813 0.26013 0.0
C995 C 0.25346 0.08123 0.3828 0.0
H996 H 0.28434 0.22032 0.31559 0.0
H997 H 0.16435 0.11955 0.30113 0.0
H998 H 0.32678 0.1623 0.35073 0.0
H999 H 0.33832 0.17407 0.30831 0.0
H1000 H 0.3381 0.21139 0.33542 0.0
H1001 H 0.14869 0.05183 0.30641 0.0
H1002 H 0.18924 0.04627 0.28892 0.0
H1003 H 0.1815 0.04245 0.33226 0.0
H1004 H 0.29264 0.03378 0.27044 0.0
H1005 H 0.26505 0.01801 0.37264 0.0
H1006 H 0.30016 0.13163 0.26273 0.0
H1007 H 0.25135 0.09001 0.25204 0.0
H1008 H 0.29658 0.08875 0.24075 0.0
H1009 H 0.26965 0.11473 0.3857 0.0
H1010 H 0.25996 0.06777 0.40442 0.0
H1011 H 0.22041 0.07041 0.38243 0.0
C1012 C 1.015 0.2414 0.28995 0.0
C1013 C 0.0337 0.26671 0.31705 0.0
C1014 C 0.98118 0.20229 0.2936 0.0
C1015 C 0.96455 0.18807 0.32514 0.0
C1016 C 0.98085 0.21492 0.35224 0.0
C1017 C 1.01553 0.25375 0.34798 0.0
C1018 C 0.96485 0.17527 0.26379 0.0
C1019 C 0.96259 0.20203 0.3859 0.0
C1020 C 0.8624 0.09042 0.31882 0.0
C1021 C 0.87399 0.06069 0.32051 0.0
C1022 C 0.89079 0.13193 0.3234 0.0
C1023 C 0.9321 0.14432 0.32934 0.0
C1024 C 0.94318 0.1141 0.33394 0.0
C1025 C 0.91399 0.07268 0.32958 0.0
C1026 C 0.87704 0.16258 0.31892 0.0
C1027 C 0.98672 0.1257 0.34055 0.0
H1028 H 0.02852 0.25126 0.2659 0.0
H1029 H 0.02934 0.2731 0.36907 0.0
H1030 H 0.96926 0.14871 0.2666 0.0
H1031 H 0.93176 0.1635 0.26132 0.0
H1032 H 0.9801 0.19138 0.24084 0.0
H1033 H 0.96567 0.17598 0.39423 0.0
H1034 H 0.97727 0.22706 0.40404 0.0
H1035 H 0.92963 0.19157 0.38513 0.0
H1036 H 0.83153 0.08139 0.31175 0.0
H1037 H 0.92331 0.05002 0.33057 0.0
H1038 H 0.88406 0.1746 0.29357 0.0
H1039 H 0.89314 0.18863 0.33592 0.0
H1040 H 0.84378 0.14868 0.32283 0.0
H1041 H 0.98968 0.09902 0.34728 0.0
H1042 H 0.99952 0.14843 0.36058 0.0
H1043 H 1.00527 0.13985 0.31829 0.0
C1044 C 0.23266 0.79428 0.3911 0.0
C1045 C 0.24089 0.81771 0.3627 0.0
C1046 C 0.21423 0.75171 0.3895 0.0
C1047 C 0.20515 0.73194 0.35861 0.0
C1048 C 0.21387 0.75565 0.32975 0.0
C1049 C 0.23123 0.79815 0.33217 0.0
C1050 C 0.20414 0.72784 0.42097 0.0
C1051 C 0.20514 0.73629 0.29625 0.0
C1052 C 0.18769 0.62345 0.35955 0.0
C1053 C 0.14502 0.60009 0.36016 0.0
C1054 C 0.2078 0.6663 0.35763 0.0
C1055 C 0.18483 0.68639 0.35689 0.0
C1056 C 0.14196 0.66275 0.35638 0.0
C1057 C 0.12274 0.62027 0.35742 0.0
C1058 C 0.25361 0.69015 0.35722 0.0
C1059 C 0.11618 0.6824 0.35592 0.0
H1060 H 0.24039 0.80936 0.41472 0.0
H1061 H 0.23837 0.8162 0.31008 0.0
H1062 H 0.17108 0.70565 0.42201 0.0
H1063 H 0.22028 0.71033 0.42188 0.0
H1064 H 0.21258 0.74766 0.44297 0.0
H1065 H 0.21961 0.75917 0.27647 0.0
H1066 H 0.21604 0.71419 0.2945 0.0
H1067 H 0.17188 0.71942 0.29196 0.0
H1068 H 0.20542 0.60843 0.36157 0.0
H1069 H 0.08984 0.60277 0.35666 0.0
H1070 H 0.26491 0.7079 0.38022 0.0
H1071 H 0.2645 0.71213 0.33664 0.0
H1072 H 0.26705 0.67019 0.35478 0.0
H1073 H 0.12285 0.70175 0.378 0.0
H1074 H 0.08311 0.66001 0.35536 0.0
H1075 H 0.12406 0.70212 0.33409 0.0
C1076 C 0.2602 0.43657 0.32735 0.0
C1077 C 0.23976 0.42733 0.35749 0.0
C1078 C 0.30293 0.46071 0.32572 0.0
C1079 C 0.3259 0.47555 0.35499 0.0
C1080 C 0.30521 0.46547 0.38548 0.0
C1081 C 0.26252 0.44214 0.38629 0.0
C1082 C 0.32331 0.47037 0.29261 0.0
C1083 C 0.32821 0.47914 0.41738 0.0
C1084 C 0.43755 0.50439 0.35684 0.0
C1085 C 0.45781 0.54691 0.35923 0.0
C1086 C 0.39505 0.48118 0.35497 0.0
C1087 C 0.37155 0.50053 0.35418 0.0
C1088 C 0.3918 0.5436 0.3547 0.0
C1089 C 0.4346 0.56628 0.35748 0.0
C1090 C 0.37531 0.43572 0.35435 0.0
C1091 C 0.36814 0.56568 0.35309 0.0
H1092 H 0.24272 0.42587 0.30496 0.0
H1093 H 0.2468 0.43519 0.40963 0.0
H1094 H 0.34697 0.50293 0.29106 0.0
H1095 H 0.33847 0.45222 0.28886 0.0
H1096 H 0.30121 0.46315 0.27239 0.0
H1097 H 0.30771 0.46828 0.43901 0.0
H1098 H 0.34981 0.46762 0.41916 0.0
H1099 H 0.34632 0.51277 0.41824 0.0
H1100 H 0.45497 0.48893 0.3569 0.0
H1101 H 0.44967 0.59907 0.35926 0.0
H1102 H 0.35966 0.42457 0.33059 0.0
H1103 H 0.35228 0.42236 0.37413 0.0
H1104 H 0.39747 0.42501 0.3573 0.0
H1105 H 0.3471 0.55462 0.33187 0.0
H1106 H 0.3883 0.59907 0.35089 0.0
H1107 H 0.34935 0.55926 0.3755 0.0
C1108 C 0.48796 0.87467 0.33949 0.0
C1109 C 0.50409 0.91269 0.35497 0.0
C1110 C 0.5073 0.85128 0.34173 0.0
C1111 C 0.54483 0.86688 0.35873 0.0
C1112 C 0.56028 0.9046 0.37536 0.0
C1113 C 0.53952 0.92638 0.37369 0.0
C1114 C 0.48659 0.80983 0.32589 0.0
C1115 C 0.59865 0.92301 0.39544 0.0
C1116 C 0.5952 0.80765 0.38924 0.0
C1117 C 0.61841 0.80875 0.36207 0.0
C1118 C 0.56937 0.8242 0.38789 0.0
C1119 C 0.56807 0.84439 0.35914 0.0
C1120 C 0.59081 0.84474 0.33134 0.0
C1121 C 0.61447 0.82567 0.33284 0.0
C1122 C 0.54403 0.82039 0.41761 0.0
C1123 C 0.59067 0.8657 0.30008 0.0
H1124 H 0.46044 0.86315 0.32513 0.0
H1125 H 0.55154 0.95461 0.38722 0.0
H1126 H 0.48753 0.81334 0.29888 0.0
H1127 H 0.50033 0.79108 0.33254 0.0
H1128 H 0.45401 0.79308 0.33303 0.0
H1129 H 0.61823 0.95554 0.38902 0.0
H1130 H 0.59068 0.9219 0.42173 0.0
H1131 H 0.61626 0.90739 0.39227 0.0
H1132 H 0.59695 0.79343 0.41168 0.0
H1133 H 0.6301 0.82427 0.31115 0.0
H1134 H 0.51457 0.81772 0.41064 0.0
H1135 H 0.56084 0.84777 0.43318 0.0
H1136 H 0.53788 0.79357 0.4326 0.0
H1137 H 0.61235 0.86597 0.28168 0.0
H1138 H 0.59846 0.89744 0.30535 0.0
H1139 H 0.55995 0.84989 0.28906 0.0
C1140 C 0.65402 0.19724 0.64365 0.0
C1141 C 0.6675 0.16908 0.64404 0.0
C1142 C 0.61285 0.18492 0.64901 0.0
C1143 C 0.58451 0.14347 0.65543 0.0
C1144 C 0.59863 0.11545 0.6581 0.0
C1145 C 0.63984 0.12847 0.65185 0.0
C1146 C 0.59926 0.21585 0.64555 0.0
C1147 C 0.56984 0.07131 0.66575 0.0
C1148 C 0.48223 0.12663 0.68524 0.0
C1149 C 0.45987 0.11699 0.65613 0.0
C1150 C 0.52168 0.13208 0.68604 0.0
C1151 C 0.53996 0.12935 0.65663 0.0
C1152 C 0.51673 0.11755 0.62738 0.0
C1153 C 0.47702 0.11146 0.62754 0.0
C1154 C 0.54487 0.14378 0.7179 0.0
C1155 C 0.53488 0.1145 0.59533 0.0
H1156 H 0.67519 0.22841 0.63686 0.0
H1157 H 0.65013 0.10654 0.6516 0.0
H1158 H 0.5789 0.2081 0.62402 0.0
H1159 H 0.58165 0.21536 0.66741 0.0
H1160 H 0.62525 0.24716 0.64232 0.0
H1161 H 0.5863 0.05494 0.67193 0.0
H1162 H 0.5496 0.06833 0.68648 0.0
H1163 H 0.55024 0.05629 0.6442 0.0
H1164 H 0.47052 0.13352 0.70675 0.0
H1165 H 0.46026 0.10492 0.60476 0.0
H1166 H 0.56923 0.17609 0.71694 0.0
H1167 H 0.55968 0.12534 0.72186 0.0
H1168 H 0.52498 0.13973 0.73919 0.0
H1169 H 0.55916 0.14519 0.58775 0.0
H1170 H 0.51188 0.10155 0.57549 0.0
H1171 H 0.54908 0.09534 0.59815 0.0
C1172 C 0.93976 0.37343 0.61231 0.0
C1173 C 0.94949 0.35805 0.63992 0.0
C1174 C 0.93322 0.40665 0.61466 0.0
C1175 C 0.93683 0.42561 0.6454 0.0
C1176 C 0.95034 0.41261 0.67276 0.0
C1177 C 0.95648 0.37907 0.66959 0.0
C1178 C 0.91991 0.41977 0.5845 0.0
C1179 C 0.9559 0.43198 0.70603 0.0
C1180 C 0.93742 0.52586 0.63767 0.0
C1181 C 0.89598 0.51335 0.64115 0.0
C1182 C 0.95177 0.49838 0.64157 0.0
C1183 C 0.92402 0.45708 0.64861 0.0
C1184 C 0.88271 0.44507 0.65474 0.0
C1185 C 0.86919 0.47332 0.65099 0.0
C1186 C 0.99626 0.513 0.63611 0.0
C1187 C 0.85221 0.40163 0.66312 0.0
H1188 H 0.93468 0.35775 0.58907 0.0
H1189 H 0.9646 0.36796 0.69075 0.0
H1190 H 0.88829 0.41346 0.58788 0.0
H1191 H 0.93948 0.45294 0.5807 0.0
H1192 H 0.92107 0.40377 0.56208 0.0
H1193 H 0.9816 0.43232 0.71919 0.0
H1194 H 0.9616 0.46352 0.70462 0.0
H1195 H 0.928 0.41366 0.72078 0.0
H1196 H 0.95832 0.55678 0.63007 0.0
H1197 H 0.83712 0.46331 0.65339 0.0
H1198 H 1.00018 0.50028 0.6128 0.0
H1199 H 1.00818 0.50214 0.65609 0.0
H1200 H 1.01469 0.54665 0.63489 0.0
H1201 H 0.84802 0.38187 0.64171 0.0
H1202 H 0.8222 0.39777 0.67004 0.0
H1203 H 0.86365 0.39107 0.68366 0.0
C1204 C 0.68396 0.59274 0.68608 0.0
C1205 C 0.70246 0.60543 0.65524 0.0
C1206 C 0.64887 0.5542 0.69023 0.0
C1207 C 0.63265 0.52733 0.66314 0.0
C1208 C 0.64958 0.54135 0.63166 0.0
C1209 C 0.68369 0.58025 0.62809 0.0
C1210 C 0.63002 0.54165 0.72372 0.0
C1211 C 0.63332 0.51428 0.60186 0.0
C1212 C 0.58246 0.41212 0.66764 0.0
C1213 C 0.54264 0.40005 0.65798 0.0
C1214 C 0.6114 0.45354 0.6723 0.0
C1215 C 0.60022 0.48363 0.66737 0.0
C1216 C 0.55899 0.47112 0.66095 0.0
C1217 C 0.53085 0.42961 0.6561 0.0
C1218 C 0.65485 0.46529 0.67949 0.0
C1219 C 0.54512 0.50163 0.65617 0.0
H1220 H 0.6978 0.61203 0.70718 0.0
H1221 H 0.69745 0.58995 0.60409 0.0
H1222 H 0.59747 0.53286 0.72266 0.0
H1223 H 0.63131 0.51458 0.73198 0.0
H1224 H 0.64542 0.56634 0.74205 0.0
H1225 H 0.64885 0.53026 0.57895 0.0
H1226 H 0.63744 0.48756 0.60487 0.0
H1227 H 0.60031 0.50277 0.59917 0.0
H1228 H 0.5919 0.38957 0.66884 0.0
H1229 H 0.50008 0.4205 0.64864 0.0
H1230 H 0.66718 0.48791 0.69963 0.0
H1231 H 0.67382 0.47962 0.65745 0.0
H1232 H 0.65783 0.43865 0.68637 0.0
H1233 H 0.56144 0.5281 0.67275 0.0
H1234 H 0.51191 0.48773 0.66043 0.0
H1235 H 0.55159 0.513 0.63062 0.0
C1236 C 0.79229 0.95881 0.69473 0.0
C1237 C 0.81498 0.93896 0.6968 0.0
C1238 C 0.81112 1.00122 0.69248 0.0
C1239 C 0.85395 0.02509 0.69093 0.0
C1240 C 0.87721 1.00528 0.69121 0.0
C1241 C 0.85754 0.96255 0.69439 0.0
C1242 C 0.78502 0.02057 0.69247 0.0
C1243 C 0.92293 0.02933 0.68889 0.0
C1244 C 0.89829 0.13486 0.66127 0.0
C1245 C 0.90994 0.15667 0.69079 0.0
C1246 C 0.8807 0.09223 0.6608 0.0
C1247 C 0.87406 0.07069 0.69064 0.0
C1248 C 0.88519 0.09271 0.72053 0.0
C1249 C 0.90354 0.13534 0.72017 0.0
C1250 C 0.86969 0.07037 0.62831 0.0
C1251 C 0.87747 0.07119 0.75301 0.0
H1252 H 0.7594 0.94113 0.69535 0.0
H1253 H 0.8756 0.94784 0.69595 0.0
H1254 H 0.79361 0.04206 0.71333 0.0
H1255 H 0.79055 0.03804 0.66958 0.0
H1256 H 0.75207 0.99803 0.69426 0.0
H1257 H 0.93647 1.00945 0.68664 0.0
H1258 H 0.93235 0.04997 0.66744 0.0
H1259 H 0.93554 0.04855 0.71104 0.0
H1260 H 0.904 0.15122 0.63841 0.0
H1261 H 0.91274 0.15212 0.74303 0.0
H1262 H 0.83631 0.0502 0.6267 0.0
H1263 H 0.88367 0.0509 0.6261 0.0
H1264 H 0.87973 0.09171 0.60727 0.0
H1265 H 0.84454 0.04916 0.75579 0.0
H1266 H 0.8875 0.0926 0.77405 0.0
H1267 H 0.89366 0.05374 0.75394 0.0
C1268 C 0.93324 0.77962 0.72237 0.0
C1269 C 0.90943 0.76551 0.69403 0.0
C1270 C 0.97586 0.80334 0.7206 0.0
C1271 C 0.99535 0.8148 0.68964 0.0
C1272 C 0.97129 0.80083 0.66084 0.0
C1273 C 0.9287 0.776 0.66339 0.0
C1274 C 1.00007 0.81594 0.75197 0.0
C1275 C 0.99042 0.81252 0.6273 0.0
C1276 C 0.10415 0.90548 0.69161 0.0
C1277 C 0.12736 0.88604 0.69097 0.0
C1278 C 0.06125 0.88295 0.6897 0.0
C1279 C 0.04093 0.83993 0.68773 0.0
C1280 C 0.0644 0.82059 0.686 0.0
C1281 C 0.10694 0.84369 0.68699 0.0
C1282 C 0.03761 0.90509 0.69069 0.0
C1283 C 0.04453 0.77516 0.68431 0.0
H1284 H 0.91839 0.77176 0.74609 0.0
H1285 H 0.91038 0.76587 0.64138 0.0
H1286 H 1.0177 0.84953 0.75376 0.0
H1287 H 0.98044 0.8038 0.77402 0.0
H1288 H 1.02218 0.80497 0.75198 0.0
H1289 H 0.96732 0.80271 0.60755 0.0
H1290 H 1.0107 0.84592 0.62581 0.0
H1291 H 1.00936 0.79838 0.62278 0.0
H1292 H 0.11931 0.93814 0.69462 0.0
H1293 H 0.12427 0.82821 0.68524 0.0
H1294 H 1.02036 0.89821 0.71399 0.0
H1295 H 1.01519 0.89454 0.67042 0.0
H1296 H 0.0577 0.93851 0.68876 0.0
H1297 H 1.0258 0.76175 0.70659 0.0
H1298 H 0.06682 0.76447 0.68233 0.0
H1299 H 1.02414 0.76402 0.66282 0.0
C1300 C 0.28532 0.16489 0.668 0.0
C1301 C 0.28901 0.14802 0.69734 0.0
C1302 C 0.26157 0.18379 0.66616 0.0
C1303 C 0.23837 0.18322 0.69369 0.0
C1304 C 0.23953 0.1632 0.72261 0.0
C1305 C 0.26553 0.14686 0.72431 0.0
C1306 C 0.26187 0.20483 0.63481 0.0
C1307 C 0.21382 0.15923 0.75211 0.0
C1308 C 0.20799 0.26421 0.70587 0.0
C1309 C 0.17331 0.25006 0.68611 0.0
C1310 C 0.22895 0.24272 0.70891 0.0
C1311 C 0.21444 0.20495 0.69259 0.0
C1312 C 0.17746 0.18879 0.67473 0.0
C1313 C 0.15795 0.21184 0.67115 0.0
C1314 C 0.26643 0.26145 0.7301 0.0
C1315 C 0.15755 0.14711 0.65931 0.0
H1316 H 0.30121 0.16355 0.64645 0.0
H1317 H 0.26713 0.1327 0.74684 0.0
H1318 H 0.23143 0.18879 0.62331 0.0
H1319 H 0.26917 0.23643 0.64007 0.0
H1320 H 0.28411 0.20553 0.61678 0.0
H1321 H 0.20674 0.13178 0.76661 0.0
H1322 H 0.2309 0.18601 0.76824 0.0
H1323 H 0.18482 0.15752 0.74504 0.0
H1324 H 0.21929 0.2926 0.71906 0.0
H1325 H 0.13095 0.19995 0.65607 0.0
H1326 H 0.28515 0.24693 0.72717 0.0
H1327 H 0.25714 0.25899 0.75616 0.0
H1328 H 0.2854 0.29434 0.72462 0.0
H1329 H 0.1592 0.15019 0.63224 0.0
H1330 H 0.12478 0.13019 0.66586 0.0
H1331 H 0.17137 0.12873 0.66686 0.0
C1332 C 0.15432 0.44506 0.2441 0.0
C1333 C 0.14905 0.40581 0.24438 0.0
C1334 C 0.15037 0.46263 0.21508 0.0
C1335 C 0.13968 0.43998 0.18558 0.0
C1336 C 0.13687 0.40126 0.18536 0.0
C1337 C 0.14194 0.38475 0.21475 0.0
C1338 C 0.15455 0.5042 0.21666 0.0
C1339 C 0.12515 0.37587 0.15462 0.0
C1340 C 0.06774 0.45088 0.12741 0.0
C1341 C 0.09232 0.46978 0.10001 0.0
C1342 C 0.08308 0.44205 0.15547 0.0
C1343 C 0.12466 0.45339 0.15686 0.0
C1344 C 0.15059 0.47578 0.13044 0.0
C1345 C 0.13404 0.48338 0.10207 0.0
C1346 C 0.05403 0.4183 0.18283 0.0
C1347 C 0.1954 0.49011 0.13158 0.0
H1348 H 0.15985 0.46147 0.26702 0.0
H1349 H 0.13733 0.35422 0.21494 0.0
H1350 H 0.1711 0.52256 0.19494 0.0
H1351 H 0.12391 0.50104 0.21673 0.0
H1352 H 0.17073 0.52093 0.23915 0.0
H1353 H 0.12602 0.34733 0.15787 0.0
H1354 H 0.09395 0.36802 0.1474 0.0
H1355 H 0.14573 0.39345 0.13421 0.0
H1356 H 0.03557 0.44074 0.12611 0.0
H1357 H 0.15321 0.49763 0.08091 0.0
H1358 H 0.06524 0.43449 0.20648 0.0
H1359 H 0.05208 0.38832 0.18528 0.0
H1360 H 1.02297 0.4132 0.17854 0.0
H1361 H 0.21224 0.51131 0.11124 0.0
H1362 H 0.20005 0.4636 0.12997 0.0
H1363 H 0.20855 0.50555 0.15521 0.0
C1364 C 0.66267 0.71585 0.23575 0.0
C1365 C 0.65785 0.74775 0.248 0.0
C1366 C 0.64552 0.69669 0.20587 0.0
C1367 C 0.62223 0.70914 0.18734 0.0
C1368 C 0.61697 0.74129 0.1995 0.0
C1369 C 0.63511 0.76048 0.22958 0.0
C1370 C 0.65321 0.66352 0.19381 0.0
C1371 C 0.59217 0.75535 0.18071 0.0
C1372 C 0.62816 0.68759 0.09772 0.0
C1373 C 0.59368 0.64909 0.09302 0.0
C1374 C 0.63554 0.70911 0.12715 0.0
C1375 C 0.60829 0.69153 0.15363 0.0
C1376 C 0.5718 0.65384 0.14861 0.0
C1377 C 0.56481 0.63303 0.11826 0.0
C1378 C 0.67483 0.74897 0.13076 0.0
C1379 C 0.54157 0.63414 0.176 0.0
H1380 H 0.68027 0.70578 0.24961 0.0
H1381 H 0.63065 0.78462 0.23904 0.0
H1382 H 0.62394 0.63522 0.1894 0.0
H1383 H 0.66976 0.67263 0.17015 0.0
H1384 H 0.67133 0.65682 0.21138 0.0
H1385 H 0.58915 0.77919 0.19407 0.0
H1386 H 0.60649 0.76761 0.15658 0.0
H1387 H 0.56139 0.72922 0.17592 0.0
H1388 H 0.65107 0.70038 0.07886 0.0
H1389 H 0.53832 0.60317 0.1152 0.0
H1390 H 0.69673 0.74399 0.14507 0.0
H1391 H 0.66998 0.77158 0.14414 0.0
H1392 H 0.68875 0.76205 0.10666 0.0
H1393 H 0.55347 0.62065 0.19378 0.0
H1394 H 0.51177 0.60968 0.16684 0.0
H1395 H 0.53699 0.657 0.18934 0.0
C1396 C 0.3725 0.94531 0.10034 0.0
C1397 C 0.4136 0.95594 0.09962 0.0
C1398 C 0.34858 0.92957 0.12848 0.0
C1399 C 0.3663 0.92528 0.15748 0.0
C1400 C 0.40712 0.93331 0.15645 0.0
C1401 C 0.43041 0.9486 0.12744 0.0
C1402 C 0.30553 0.9218 0.12803 0.0
C1403 C 0.42715 0.92878 0.18668 0.0
C1404 C 0.3307 0.95435 0.23462 0.0
C1405 C 0.30294 0.91671 0.24836 0.0
C1406 C 0.35174 0.95719 0.20565 0.0
C1407 C 0.34512 0.9214 0.18949 0.0
C1408 C 0.31638 0.88303 0.20278 0.0
C1409 C 0.29548 0.8811 0.23212 0.0
C1410 C 0.38208 0.9989 0.19302 0.0
C1411 C 0.3089 0.84417 0.1867 0.0
H1412 H 0.35941 0.95156 0.07916 0.0
H1413 H 0.4623 0.95741 0.1273 0.0
H1414 H 0.28449 0.89219 0.13957 0.0
H1415 H 0.30392 0.94572 0.14246 0.0
H1416 H 0.29478 0.92186 0.10277 0.0
H1417 H 0.45503 0.92758 0.18057 0.0
H1418 H 0.43579 0.95512 0.20313 0.0
H1419 H 0.40587 0.90092 0.20034 0.0
H1420 H 0.33681 0.98201 0.24712 0.0
H1421 H 0.27484 0.85194 0.24307 0.0
H1422 H 0.37984 1.00052 0.16611 0.0
H1423 H 0.41327 1.00533 0.19869 0.0
H1424 H 0.37783 0.0231 0.20438 0.0
H1425 H 0.30132 0.84387 0.16045 0.0
H1426 H 0.28393 0.8169 0.19876 0.0
H1427 H 0.33706 0.84225 0.1878 0.0
C1428 C 0.43507 0.05606 0.90288 0.0
C1429 C 0.4726 0.06487 0.91621 0.0
C1430 C 0.43251 0.07449 0.87403 0.0
C1431 C 0.4685 0.10303 0.85773 0.0
C1432 C 0.50673 0.11184 0.87075 0.0
C1433 C 0.50836 0.09246 0.89984 0.0
C1434 C 0.39095 0.06372 0.86144 0.0
C1435 C 0.5458 0.14261 0.85454 0.0
C1436 C 0.44488 0.1057 0.76848 0.0
C1437 C 0.43502 0.13668 0.76742 0.0
C1438 C 0.4602 0.09749 0.79677 0.0
C1439 C 0.46489 0.12007 0.82559 0.0
C1440 C 0.45773 0.15337 0.82423 0.0
C1441 C 0.44283 0.16136 0.79506 0.0
C1442 C 0.46713 0.0617 0.79664 0.0
C1443 C 0.46288 0.17863 0.85424 0.0
H1444 H 0.40727 0.03489 0.91543 0.0
H1445 H 0.53746 0.1001 0.91043 0.0
H1446 H 0.38568 0.08949 0.86597 0.0
H1447 H 0.38888 0.05829 0.83469 0.0
H1448 H 0.36626 0.03633 0.87359 0.0
H1449 H 0.57292 0.14472 0.86667 0.0
H1450 H 0.54593 0.13485 0.82836 0.0
H1451 H 0.54821 0.17291 0.85536 0.0
H1452 H 0.43846 0.08605 0.74743 0.0
H1453 H 0.4347 0.18491 0.79466 0.0
H1454 H 0.44274 0.03651 0.81098 0.0
H1455 H 0.49648 0.06981 0.8084 0.0
H1456 H 0.4671 0.05059 0.77144 0.0
H1457 H 0.43641 0.16168 0.87072 0.0
H1458 H 0.46489 0.20795 0.84785 0.0
H1459 H 0.49056 0.18479 0.86798 0.0
C1460 C 0.96972 0.4278 0.89236 0.0
C1461 C 0.99144 0.41396 0.91084 0.0
C1462 C 0.95234 0.40973 0.86184 0.0
C1463 C 0.95748 0.37767 0.84931 0.0
C1464 C 0.97975 0.36408 0.86793 0.0
C1465 C 0.99605 0.38208 0.89831 0.0
C1466 C 0.92859 0.42493 0.84294 0.0
C1467 C 0.98735 0.33102 0.85542 0.0
C1468 C 0.90101 0.30378 0.77902 0.0
C1469 C 0.93057 0.32006 0.75432 0.0
C1470 C 0.90754 0.32394 0.80958 0.0
C1471 C 0.94425 0.36116 0.81532 0.0
C1472 C 0.97223 0.3791 0.78933 0.0
C1473 C 0.96522 0.35826 0.75961 0.0
C1474 C 0.87661 0.30393 0.83648 0.0
C1475 C 1.01182 0.41847 0.79375 0.0
H1476 H 0.96549 0.45199 0.90207 0.0
H1477 H 1.01294 0.37126 0.91225 0.0
H1478 H 0.94397 0.43816 0.81932 0.0
H1479 H 0.89791 0.39923 0.8371 0.0
H1480 H 0.92528 0.44834 0.85672 0.0
H1481 H 1.0042 0.32303 0.8733 0.0
H1482 H 0.95811 0.30325 0.84972 0.0
H1483 H 1.00522 0.34107 0.8324 0.0
H1484 H 0.87434 0.27418 0.77541 0.0
H1485 H 0.98853 0.37122 0.74101 0.0
H1486 H 0.87204 0.32672 0.84995 0.0
H1487 H 0.88785 0.28984 0.85429 0.0
H1488 H 0.84691 0.2799 0.8268 0.0
H1489 H 1.00718 0.44102 0.80743 0.0
H1490 H 1.02638 0.43202 0.76991 0.0
H1491 H 0.03313 0.41264 0.8081 0.0
C1492 C 0.76381 0.65279 0.79622 0.0
C1493 C 0.75844 0.62939 0.76805 0.0
C1494 C 0.73851 0.6367 0.82374 0.0
C1495 C 0.70731 0.59545 0.82387 0.0
C1496 C 0.70394 0.57054 0.79667 0.0
C1497 C 0.72926 0.58787 0.76886 0.0
C1498 C 0.74388 0.66468 0.85201 0.0
C1499 C 0.67258 0.52598 0.7965 0.0
C1500 C 0.66646 0.5629 0.91036 0.0
C1501 C 0.63352 0.5699 0.91095 0.0
C1502 C 0.68838 0.56713 0.88138 0.0
C1503 C 0.67789 0.57974 0.85219 0.0
C1504 C 0.64274 0.58395 0.85217 0.0
C1505 C 0.62081 0.57877 0.88152 0.0
C1506 C 0.72492 0.56149 0.88287 0.0
C1507 C 0.63045 0.59742 0.82176 0.0
H1508 H 0.78671 0.68472 0.79604 0.0
H1509 H 0.72456 0.56954 0.74718 0.0
H1510 H 0.71618 0.66724 0.85471 0.0
H1511 H 0.74797 0.6521 0.87522 0.0
H1512 H 0.77041 0.69562 0.8486 0.0
H1513 H 0.67628 0.50989 0.77519 0.0
H1514 H 0.67464 0.51137 0.81933 0.0
H1515 H 0.6417 0.52219 0.79577 0.0
H1516 H 0.67655 0.55624 0.93313 0.0
H1517 H 0.59581 0.58482 0.88195 0.0
H1518 H 0.75293 0.59162 0.88454 0.0
H1519 H 0.72727 0.54629 0.86043 0.0
H1520 H 0.72377 0.54337 0.90456 0.0
H1521 H 0.65511 0.62813 0.81485 0.0
H1522 H 0.60194 0.59836 0.82522 0.0
H1523 H 0.62634 0.57674 0.80109 0.0
C1524 C 0.79868 0.81915 0.4402 0.0
C1525 C 0.75671 0.80426 0.43805 0.0
C1526 C 0.81573 0.81189 0.46844 0.0
C1527 C 0.79011 0.7886 0.49472 0.0
C1528 C 0.74816 0.77576 0.49322 0.0
C1529 C 0.73228 0.78422 0.46528 0.0
C1530 C 0.86083 0.82768 0.46962 0.0
C1531 C 0.71937 0.75094 0.52039 0.0
C1532 C 0.81064 0.72211 0.55274 0.0
C1533 C 0.81674 0.74288 0.58243 0.0
C1534 C 0.8049 0.73813 0.52332 0.0
C1535 C 0.80594 0.77604 0.52352 0.0
C1536 C 0.81569 0.79855 0.55306 0.0
C1537 C 0.82043 0.78152 0.58209 0.0
C1538 C 0.79441 0.71302 0.49251 0.0
C1539 C 0.81807 0.83933 0.55465 0.0
H1540 H 0.81777 0.83421 0.41918 0.0
H1541 H 0.69989 0.77298 0.46393 0.0
H1542 H 0.8736 0.84341 0.49322 0.0
H1543 H 0.86662 0.80189 0.46811 0.0
H1544 H 0.87719 0.84903 0.44924 0.0
H1545 H 0.6878 0.74424 0.51587 0.0
H1546 H 0.71906 0.72174 0.52289 0.0
H1547 H 0.72974 0.76722 0.54408 0.0
H1548 H 0.80734 0.69211 0.5529 0.0
H1549 H 0.82533 0.79781 0.605 0.0
H1550 H 0.81561 0.73091 0.47252 0.0
H1551 H 0.76343 0.70504 0.48458 0.0
H1552 H 0.79546 0.6846 0.49597 0.0
H1553 H 0.8345 0.85815 0.53309 0.0
H1554 H 0.83349 0.85624 0.57729 0.0
H1555 H 0.78691 0.83488 0.55437 0.0
C1556 C 0.23519 0.96584 0.4596 0.0
C1557 C 0.26122 0.9812 0.43255 0.0
C1558 C 0.24356 0.98922 0.48861 0.0
C1559 C 0.27849 0.02872 0.49033 0.0
C1560 C 0.30265 0.04524 0.462 0.0
C1561 C 0.29407 0.02119 0.4339 0.0
C1562 C 0.21688 0.97046 0.51819 0.0
C1563 C 0.34015 0.08689 0.46223 0.0
C1564 C 0.30477 0.09972 0.56481 0.0
C1565 C 0.33057 0.09014 0.58232 0.0
C1566 C 0.28671 0.07952 0.53506 0.0
C1567 C 0.29486 0.04934 0.52264 0.0
C1568 C 0.32177 0.04063 0.54001 0.0
C1569 C 0.33912 0.06101 0.56936 0.0
C1570 C 0.25823 0.08971 0.51731 0.0
C1571 C 0.33211 1.00936 0.52776 0.0
H1572 H 0.21016 0.93482 0.45894 0.0
H1573 H 0.31457 0.03326 0.41319 0.0
H1574 H 0.23269 0.96098 0.53585 0.0
H1575 H 0.21094 0.99288 0.53075 0.0
H1576 H 0.18742 0.94337 0.51158 0.0
H1577 H 0.3519 0.09764 0.43712 0.0
H1578 H 0.33376 0.10936 0.47409 0.0
H1579 H 0.36438 0.08588 0.47659 0.0
H1580 H 0.29752 0.1217 0.57494 0.0
H1581 H 0.3592 0.05356 0.5826 0.0
H1582 H 0.22743 0.06248 0.51641 0.0
H1583 H 0.26842 0.09845 0.49163 0.0
H1584 H 0.25616 0.11483 0.52936 0.0
H1585 H 0.30437 0.97892 0.5276 0.0
H1586 H 0.35549 1.00791 0.54305 0.0
H1587 H 0.34347 1.01638 0.50226 0.0
C1588 C 1.00185 0.22948 0.57335 0.0
C1589 C 0.96912 0.23677 0.57376 0.0
C1590 C 1.0232 0.23264 0.5443 0.0
C1591 C 1.01227 0.2444 0.5149 0.0
C1592 C 0.97716 0.24865 0.51474 0.0
C1593 C 0.95583 0.24458 0.54418 0.0
C1594 C 0.05969 0.22693 0.54587 0.0
C1595 C 0.96442 0.26123 0.48408 0.0
C1596 C 0.09707 0.31671 0.45804 0.0
C1597 C 0.09121 0.29286 0.43008 0.0
C1598 C 0.07237 0.30095 0.48587 0.0
C1599 C 0.04138 0.25963 0.48647 0.0
C1600 C 0.03764 0.2343 0.4595 0.0
C1601 C 0.06234 0.2513 0.43137 0.0
C1602 C 0.07799 0.32936 0.51387 0.0
C1603 C 1.00645 0.18969 0.45985 0.0
H1604 H 1.01225 0.22349 0.59625 0.0
H1605 H 0.93091 0.25077 0.5445 0.0
H1606 H 0.06183 0.21131 0.52361 0.0
H1607 H 0.08775 0.25705 0.54724 0.0
H1608 H 0.05866 0.20916 0.56778 0.0
H1609 H 0.93567 0.26175 0.4874 0.0
H1610 H 0.98874 0.29198 0.47688 0.0
H1611 H 0.96056 0.24033 0.46366 0.0
H1612 H 0.11974 0.34871 0.45739 0.0
H1613 H 0.05732 0.23268 0.40982 0.0
H1614 H 0.08248 0.31724 0.53717 0.0
H1615 H 0.05026 0.33184 0.51666 0.0
H1616 H 0.10438 0.3603 0.51006 0.0
H1617 H 1.00837 0.17563 0.48306 0.0
H1618 H 1.01044 0.17322 0.43898 0.0
H1619 H 0.97552 0.18573 0.45864 0.0
loop_
_geom_bond_atom_site_label_1
_geom_bond_atom_site_label_2
_geom_bond_distance
_geom_bond_site_symmetry_2
_ccdc_geom_bond_type
Gd0 N31 2.661 1_654 S
Gd0 N37 2.619 . S
Gd0 O44 2.545 . S
Gd0 O45 2.606 . S
Gd0 O47 2.429 1_655 S
Gd0 O48 2.545 . S
Gd0 O49 2.412 1_554 S
Gd0 O51 2.362 1_655 S
Gd0 O52 2.324 1_554 S
Gd0 C59 2.828 . S
Gd1 N10 2.661 1_556 S
Gd1 N14 2.601 . S
Gd1 O45 2.362 1_456 S
Gd1 O46 2.324 1_556 S
Gd1 O50 2.545 . S
Gd1 O51 2.606 1_556 S
Gd1 O53 2.429 . S
Gd1 O54 2.545 . S
Gd1 O55 2.412 1_556 S
Gd1 C68 2.828 . S
C2 C5 1.417 1_554 S
C2 C7 1.431 1_554 S
C2 C8 1.412 . S
C3 C6 1.437 . S
C3 C7 1.317 . S
C3 H22 0.929 . S
C4 C5 1.431 . S
C4 C6 1.428 . S
C4 N14 1.341 1_655 S
C5 C2 1.417 1_556 S
C5 C4 1.431 . S
C5 N10 1.350 1_656 S
C6 C3 1.437 . S
C6 C4 1.428 . S
C6 C16 1.391 . S
C7 C2 1.431 1_556 S
C7 C3 1.317 . S
C7 H18 0.930 . S
C8 C2 1.412 . S
C8 C9 1.355 . S
C8 H20 0.930 . S
C9 C8 1.355 . S
C9 C11 1.402 . S
C9 H21 0.930 . S
N10 Gd1 2.661 1_554 S
N10 C5 1.350 1_454 S
N10 C11 1.307 1_455 S
C11 C9 1.402 . S
C11 N10 1.307 1_655 S
C11 H12 0.930 1_655 S
H12 C11 0.930 1_455 S
C13 N14 1.334 . S
C13 C15 1.394 . S
C13 H17 0.930 . S
N14 Gd1 2.601 . S
N14 C4 1.341 1_455 S
N14 C13 1.334 . S
C15 C13 1.394 . S
C15 C16 1.359 1_455 S
C15 H27 0.930 . S
C16 C6 1.391 . S
C16 C15 1.359 1_655 S
C16 H28 0.929 . S
H17 C13 0.930 . S
H18 C7 0.930 . S
H19 C36 0.930 . S
H20 C8 0.930 . S
H21 C9 0.930 . S
H22 C3 0.929 . S
H23 C41 0.930 . S
H24 C32 0.930 . S
H25 C33 0.930 . S
H26 C57 0.929 . S
H27 C15 0.930 . S
H28 C16 0.929 . S
H29 C58 0.930 . S
H30 C39 0.930 . S
N31 Gd0 2.661 1_456 S
N31 C35 1.350 1_556 S
N31 C36 1.307 . S
C32 H24 0.930 . S
C32 C33 1.355 . S
C32 C34 1.412 . S
C33 H25 0.930 . S
C33 C32 1.355 . S
C33 C36 1.402 . S
C34 C32 1.412 . S
C34 C35 1.417 1_556 S
C34 C58 1.431 1_556 S
C35 N31 1.350 1_554 S
C35 C34 1.417 1_554 S
C35 C38 1.426 . S
C36 H19 0.930 . S
C36 N31 1.307 . S
C36 C33 1.402 . S
N37 Gd0 2.619 . S
N37 C38 1.339 1_655 S
N37 C41 1.339 . S
C38 C35 1.426 . S
C38 N37 1.339 1_455 S
C38 C42 1.413 . S
C39 H30 0.930 . S
C39 C40 1.359 1_655 S
C39 C41 1.394 . S
C40 C39 1.359 1_455 S
C40 C42 1.391 . S
C40 H43 0.929 . S
C41 H23 0.930 . S
C41 N37 1.339 . S
C41 C39 1.394 . S
C42 C38 1.413 . S
C42 C40 1.391 . S
C42 C57 1.437 . S
H43 C40 0.929 . S
O44 Gd0 2.545 . S
O44 C59 1.258 . S
O45 Gd0 2.606 . S
O45 Gd1 2.362 1_654 S
O45 C56 1.284 . S
O46 Gd1 2.324 1_554 S
O46 C66 1.254 . S
O47 Gd0 2.429 1_455 S
O47 C66 1.268 . S
O48 Gd0 2.545 . S
O48 C56 1.250 . S
O49 Gd0 2.412 1_556 S
O49 C59 1.252 1_556 S
O50 Gd1 2.545 . S
O50 C68 1.258 . S
O51 Gd0 2.362 1_455 S
O51 Gd1 2.606 1_554 S
O51 C67 1.284 1_554 S
O52 Gd0 2.324 1_556 S
O52 C75 1.254 . S
O53 Gd1 2.429 . S
O53 C75 1.268 1_455 S
O54 Gd1 2.545 . S
O54 C67 1.250 . S
O55 Gd1 2.412 1_554 S
O55 C68 1.252 1_554 S
C56 O45 1.284 . S
C56 O48 1.250 . S
C57 H26 0.929 . S
C57 C42 1.437 . S
C57 C58 1.317 . S
C58 H29 0.930 . S
C58 C34 1.431 1_554 S
C58 C57 1.317 . S
C59 Gd0 2.828 . S
C59 O44 1.258 . S
C59 O49 1.252 1_554 S
C59 C60 1.497 . S
C60 C59 1.497 . S
C60 C61 1.395 . S
C60 C62 1.380 1_554 S
C61 C60 1.395 . S
C61 C64 1.398 . S
C61 H76 0.930 . S
C62 C60 1.380 1_556 S
C62 C63 1.391 . S
C62 H77 0.930 . S
C63 C62 1.391 . S
C63 C65 1.387 1_556 S
C64 C61 1.398 . S
C64 C65 1.380 . S
C64 H78 0.930 . S
C65 C63 1.387 1_554 S
C65 C64 1.380 . S
C65 H79 0.930 . S
C66 O46 1.254 . S
C66 O47 1.268 . S
C67 O51 1.284 1_556 S
C67 O54 1.250 . S
C68 Gd1 2.828 . S
C68 O50 1.258 . S
C68 O55 1.252 1_556 S
C68 C69 1.497 . S
C69 C68 1.497 . S
C69 C70 1.395 . S
C69 C71 1.380 1_556 S
C70 C69 1.395 . S
C70 C73 1.398 . S
C70 H80 0.930 . S
C71 C69 1.380 1_554 S
C71 C72 1.391 . S
C71 H81 0.930 . S
C72 C71 1.391 . S
C72 C74 1.387 1_554 S
C73 C70 1.398 . S
C73 C74 1.380 . S
C73 H82 0.930 . S
C74 C72 1.387 1_556 S
C74 C73 1.380 . S
C74 H83 0.930 . S
C75 O52 1.254 . S
C75 O53 1.268 1_655 S
H76 C61 0.930 . S
H77 C62 0.930 . S
H78 C64 0.930 . S
H79 C65 0.930 . S
H80 C70 0.930 . S
H81 C71 0.930 . S
H82 C73 0.930 . S
H83 C74 0.930 . S
Gd84 N115 2.661 1_554 S
Gd84 N121 2.601 . S
Gd84 O128 2.545 . S
Gd84 O129 2.606 . S
Gd84 O131 2.429 . S
Gd84 O132 2.545 . S
Gd84 O133 2.412 1_554 S
Gd84 O135 2.362 . S
Gd84 O136 2.324 1_554 S
Gd84 C143 2.828 . S
Gd85 N94 2.661 1_556 S
Gd85 N98 2.601 . S
Gd85 O129 2.362 1_556 S
Gd85 O130 2.324 1_556 S
Gd85 O134 2.545 . S
Gd85 O135 2.606 1_556 S
Gd85 O137 2.429 . S
Gd85 O138 2.545 . S
Gd85 O139 2.412 1_556 S
Gd85 C152 2.828 . S
C86 C89 1.417 1_554 S
C86 C91 1.431 1_554 S
C86 C92 1.412 . S
C87 C90 1.437 . S
C87 C91 1.317 . S
C87 H106 0.929 . S
C88 C89 1.426 . S
C88 C90 1.413 . S
C88 N98 1.359 . S
C89 C86 1.417 1_556 S
C89 C88 1.426 . S
C89 N94 1.350 1_556 S
C90 C87 1.437 . S
C90 C88 1.413 . S
C90 C100 1.391 . S
C91 C86 1.431 1_556 S
C91 C87 1.317 . S
C91 H102 0.930 . S
C92 C86 1.412 . S
C92 C93 1.355 . S
C92 H104 0.930 . S
C93 C92 1.355 . S
C93 C95 1.402 . S
C93 H105 0.930 . S
N94 Gd85 2.661 1_554 S
N94 C89 1.350 1_554 S
N94 C95 1.307 . S
C95 C93 1.402 . S
C95 N94 1.307 . S
C95 H96 0.930 . S
H96 C95 0.930 . S
C97 N98 1.334 . S
C97 C99 1.394 . S
C97 H101 0.930 . S
N98 Gd85 2.601 . S
N98 C88 1.359 . S
N98 C97 1.334 . S
C99 C97 1.394 . S
C99 C100 1.359 . S
C99 H111 0.930 . S
C100 C90 1.391 . S
C100 C99 1.359 . S
C100 H112 0.929 . S
H101 C97 0.930 . S
H102 C91 0.930 . S
H103 C120 0.930 . S
H104 C92 0.930 . S
H105 C93 0.930 . S
H106 C87 0.929 . S
H107 C125 0.930 . S
H108 C116 0.930 . S
H109 C117 0.930 . S
H110 C141 0.929 . S
H111 C99 0.930 . S
H112 C100 0.929 . S
H113 C142 0.930 . S
H114 C123 0.930 . S
N115 Gd84 2.661 1_556 S
N115 C119 1.350 1_556 S
N115 C120 1.307 . S
C116 H108 0.930 . S
C116 C117 1.355 . S
C116 C118 1.412 . S
C117 H109 0.930 . S
C117 C116 1.355 . S
C117 C120 1.402 . S
C118 C116 1.412 . S
C118 C119 1.417 1_556 S
C118 C142 1.431 1_556 S
C119 N115 1.350 1_554 S
C119 C118 1.417 1_554 S
C119 C122 1.426 . S
C120 H103 0.930 . S
C120 N115 1.307 . S
C120 C117 1.402 . S
N121 Gd84 2.601 . S
N121 C122 1.359 . S
N121 C125 1.334 . S
C122 C119 1.426 . S
C122 N121 1.359 . S
C122 C126 1.413 . S
C123 H114 0.930 . S
C123 C124 1.359 . S
C123 C125 1.394 . S
C124 C123 1.359 . S
C124 C126 1.391 . S
C124 H127 0.929 . S
C125 H107 0.930 . S
C125 N121 1.334 . S
C125 C123 1.394 . S
C126 C122 1.413 . S
C126 C124 1.391 . S
C126 C141 1.437 . S
H127 C124 0.929 . S
O128 Gd84 2.545 . S
O128 C143 1.258 . S
O129 Gd84 2.606 . S
O129 Gd85 2.362 1_554 S
O129 C140 1.284 . S
O130 Gd85 2.324 1_554 S
O130 C150 1.254 . S
O131 Gd84 2.429 . S
O131 C150 1.268 . S
O132 Gd84 2.545 . S
O132 C140 1.250 . S
O133 Gd84 2.412 1_556 S
O133 C143 1.252 1_556 S
O134 Gd85 2.545 . S
O134 C152 1.258 . S
O135 Gd84 2.362 . S
O135 Gd85 2.606 1_554 S
O135 C151 1.284 1_554 S
O136 Gd84 2.324 1_556 S
O136 C159 1.254 . S
O137 Gd85 2.429 . S
O137 C159 1.268 . S
O138 Gd85 2.545 . S
O138 C151 1.250 . S
O139 Gd85 2.412 1_554 S
O139 C152 1.252 1_554 S
C140 O129 1.284 . S
C140 O132 1.250 . S
C141 H110 0.929 . S
C141 C126 1.437 . S
C141 C142 1.317 . S
C142 H113 0.930 . S
C142 C118 1.431 1_554 S
C142 C141 1.317 . S
C143 Gd84 2.828 . S
C143 O128 1.258 . S
C143 O133 1.252 1_554 S
C143 C144 1.497 . S
C144 C143 1.497 . S
C144 C145 1.395 . S
C144 C146 1.380 1_554 S
C145 C144 1.395 . S
C145 C148 1.398 . S
C145 H160 0.930 . S
C146 C144 1.380 1_556 S
C146 C147 1.391 . S
C146 H161 0.930 . S
C147 C146 1.391 . S
C147 C149 1.387 1_556 S
C148 C145 1.398 . S
C148 C149 1.380 . S
C148 H162 0.930 . S
C149 C147 1.387 1_554 S
C149 C148 1.380 . S
C149 H163 0.930 . S
C150 O130 1.254 . S
C150 O131 1.268 . S
C151 O135 1.284 1_556 S
C151 O138 1.250 . S
C152 Gd85 2.828 . S
C152 O134 1.258 . S
C152 O139 1.252 1_556 S
C152 C153 1.497 . S
C153 C152 1.497 . S
C153 C154 1.395 . S
C153 C155 1.380 1_556 S
C154 C153 1.395 . S
C154 C157 1.398 . S
C154 H164 0.930 . S
C155 C153 1.380 1_554 S
C155 C156 1.391 . S
C155 H165 0.930 . S
C156 C155 1.391 . S
C156 C158 1.387 1_554 S
C157 C154 1.398 . S
C157 C158 1.380 . S
C157 H166 0.930 . S
C158 C156 1.387 1_556 S
C158 C157 1.380 . S
C158 H167 0.930 . S
C159 O136 1.254 . S
C159 O137 1.268 . S
H160 C145 0.930 . S
H161 C146 0.930 . S
H162 C148 0.930 . S
H163 C149 0.930 . S
H164 C154 0.930 . S
H165 C155 0.930 . S
H166 C157 0.930 . S
H167 C158 0.930 . S
Gd168 N199 2.661 1_554 S
Gd168 N205 2.601 . S
Gd168 O212 2.545 . S
Gd168 O213 2.606 . S
Gd168 O215 2.429 . S
Gd168 O216 2.545 . S
Gd168 O217 2.412 1_554 S
Gd168 O219 2.362 1_545 S
Gd168 O220 2.324 1_554 S
Gd168 C227 2.828 . S
Gd169 N178 2.661 1_566 S
Gd169 N182 2.601 . S
Gd169 O213 2.362 1_566 S
Gd169 O214 2.324 1_556 S
Gd169 O218 2.545 . S
Gd169 O219 2.606 1_556 S
Gd169 O221 2.418 1_565 S
Gd169 O222 2.545 . S
Gd169 O223 2.412 1_556 S
Gd169 C236 2.828 . S
C170 C173 1.417 1_554 S
C170 C175 1.431 1_554 S
C170 C176 1.412 . S
C171 C174 1.437 . S
C171 C175 1.317 . S
C171 H190 0.929 . S
C172 C173 1.426 . S
C172 C174 1.413 . S
C172 N182 1.359 1_545 S
C173 C170 1.417 1_556 S
C173 C172 1.426 . S
C173 N178 1.350 1_556 S
C174 C171 1.437 . S
C174 C172 1.413 . S
C174 C184 1.391 . S
C175 C170 1.431 1_556 S
C175 C171 1.317 . S
C175 H186 0.930 . S
C176 C170 1.412 . S
C176 C177 1.355 . S
C176 H188 0.930 . S
C177 C176 1.355 . S
C177 C179 1.402 . S
C177 H189 0.930 . S
N178 Gd169 2.661 1_544 S
N178 C173 1.350 1_554 S
N178 C179 1.307 . S
C179 C177 1.402 . S
C179 N178 1.307 . S
C179 H180 0.930 . S
H180 C179 0.930 . S
C181 N182 1.334 . S
C181 C183 1.394 . S
C181 H185 0.930 . S
N182 Gd169 2.601 . S
N182 C172 1.359 1_565 S
N182 C181 1.334 . S
C183 C181 1.394 . S
C183 C184 1.359 1_565 S
C183 H195 0.930 . S
C184 C174 1.391 . S
C184 C183 1.359 1_545 S
C184 H196 0.929 . S
H185 C181 0.930 . S
H186 C175 0.930 . S
H187 C204 0.931 1_545 S
H188 C176 0.930 . S
H189 C177 0.930 . S
H190 C171 0.929 . S
H191 C209 0.930 . S
H192 C200 0.930 . S
H193 C201 0.930 . S
H194 C225 0.929 . S
H195 C183 0.930 . S
H196 C184 0.929 . S
H197 C226 0.930 . S
H198 C207 0.930 . S
N199 Gd168 2.661 1_556 S
N199 C203 1.350 1_546 S
N199 C204 1.307 1_545 S
C200 H192 0.930 . S
C200 C201 1.355 . S
C200 C202 1.412 . S
C201 H193 0.930 . S
C201 C200 1.355 . S
C201 C204 1.402 . S
C202 C200 1.412 . S
C202 C203 1.417 1_556 S
C202 C226 1.431 1_556 S
C203 N199 1.350 1_564 S
C203 C202 1.417 1_554 S
C203 C206 1.426 . S
C204 H187 0.931 1_565 S
C204 N199 1.307 1_565 S
C204 C201 1.402 . S
N205 Gd168 2.601 . S
N205 C206 1.359 1_545 S
N205 C209 1.334 . S
C206 C203 1.426 . S
C206 N205 1.359 1_565 S
C206 C210 1.413 . S
C207 H198 0.930 . S
C207 C208 1.359 1_545 S
C207 C209 1.394 . S
C208 C207 1.359 1_565 S
C208 C210 1.391 . S
C208 H211 0.929 . S
C209 H191 0.930 . S
C209 N205 1.334 . S
C209 C207 1.394 . S
C210 C206 1.413 . S
C210 C208 1.391 . S
C210 C225 1.437 . S
H211 C208 0.929 . S
O212 Gd168 2.545 . S
O212 C227 1.258 . S
O213 Gd168 2.606 . S
O213 Gd169 2.362 1_544 S
O213 C224 1.284 . S
O214 Gd169 2.324 1_554 S
O214 C234 1.254 . S
O215 Gd168 2.429 . S
O215 C234 1.268 1_545 S
O216 Gd168 2.545 . S
O216 C224 1.250 . S
O217 Gd168 2.412 1_556 S
O217 C227 1.252 1_556 S
O218 Gd169 2.545 . S
O218 C236 1.258 . S
O219 Gd168 2.362 1_565 S
O219 Gd169 2.606 1_554 S
O219 C235 1.284 1_554 S
O220 Gd168 2.324 1_556 S
O220 C243 1.254 . S
O221 Gd169 2.418 1_545 S
O221 C243 1.289 . S
O222 Gd169 2.545 . S
O222 C235 1.250 . S
O223 Gd169 2.412 1_554 S
O223 C236 1.252 1_554 S
C224 O213 1.284 . S
C224 O216 1.250 . S
C225 H194 0.929 . S
C225 C210 1.437 . S
C225 C226 1.317 . S
C226 H197 0.930 . S
C226 C202 1.431 1_554 S
C226 C225 1.317 . S
C227 Gd168 2.828 . S
C227 O212 1.258 . S
C227 O217 1.252 1_554 S
C227 C228 1.497 . S
C228 C227 1.497 . S
C228 C229 1.395 . S
C228 C230 1.380 1_554 S
C229 C228 1.395 . S
C229 C232 1.398 . S
C229 H244 0.930 . S
C230 C228 1.380 1_556 S
C230 C231 1.391 . S
C230 H245 0.930 . S
C231 C230 1.391 . S
C231 C233 1.387 1_556 S
C232 C229 1.398 . S
C232 C233 1.380 . S
C232 H246 0.930 . S
C233 C231 1.387 1_554 S
C233 C232 1.380 . S
C233 H247 0.930 . S
C234 O214 1.254 . S
C234 O215 1.268 1_565 S
C235 O219 1.284 1_556 S
C235 O222 1.250 . S
C236 Gd169 2.828 . S
C236 O218 1.258 . S
C236 O223 1.252 1_556 S
C236 C237 1.497 . S
C237 C236 1.497 . S
C237 C238 1.395 . S
C237 C239 1.380 1_556 S
C238 C237 1.395 . S
C238 C241 1.398 . S
C238 H248 0.930 . S
C239 C237 1.380 1_554 S
C239 C240 1.391 . S
C239 H249 0.930 . S
C240 C239 1.391 . S
C240 C242 1.387 1_554 S
C241 C238 1.398 . S
C241 C242 1.380 . S
C241 H250 0.930 . S
C242 C240 1.387 1_556 S
C242 C241 1.380 . S
C242 H251 0.930 . S
C243 O220 1.254 . S
C243 O221 1.289 . S
H244 C229 0.930 . S
H245 C230 0.930 . S
H246 C232 0.930 . S
H247 C233 0.930 . S
H248 C238 0.930 . S
H249 C239 0.930 . S
H250 C241 0.930 . S
H251 C242 0.930 . S
Gd252 N283 2.661 . S
Gd252 N289 2.601 . S
Gd252 O296 2.545 . S
Gd252 O297 2.606 . S
Gd252 O299 2.429 . S
Gd252 O300 2.545 . S
Gd252 O301 2.412 . S
Gd252 O303 2.362 . S
Gd252 O304 2.324 . S
Gd252 C311 2.828 . S
Gd253 N262 2.661 . S
Gd253 N266 2.601 . S
Gd253 O297 2.362 . S
Gd253 O298 2.324 . S
Gd253 O302 2.545 . S
Gd253 O303 2.606 . S
Gd253 O305 2.429 . S
Gd253 O306 2.545 . S
Gd253 O307 2.412 . S
Gd253 C320 2.828 . S
C254 C257 1.417 . S
C254 C259 1.431 . S
C254 C260 1.412 . S
C255 C258 1.437 . S
C255 C259 1.317 . S
C255 H274 0.929 . S
C256 C257 1.426 . S
C256 C258 1.413 . S
C256 N266 1.359 . S
C257 C254 1.417 . S
C257 C256 1.426 . S
C257 N262 1.350 . S
C258 C255 1.437 . S
C258 C256 1.413 . S
C258 C268 1.391 . S
C259 C254 1.431 . S
C259 C255 1.317 . S
C259 H270 0.930 . S
C260 C254 1.412 . S
C260 C261 1.355 . S
C260 H272 0.930 . S
C261 C260 1.355 . S
C261 C263 1.402 . S
C261 H273 0.930 . S
N262 Gd253 2.661 . S
N262 C257 1.350 . S
N262 C263 1.307 . S
C263 C261 1.402 . S
C263 N262 1.307 . S
C263 H264 0.930 . S
H264 C263 0.930 . S
C265 N266 1.334 . S
C265 C267 1.394 . S
C265 H269 0.930 . S
N266 Gd253 2.601 . S
N266 C256 1.359 . S
N266 C265 1.334 . S
C267 C265 1.394 . S
C267 C268 1.359 . S
C267 H279 0.930 . S
C268 C258 1.391 . S
C268 C267 1.359 . S
C268 H280 0.929 . S
H269 C265 0.930 . S
H270 C259 0.930 . S
H271 C288 0.930 . S
H272 C260 0.930 . S
H273 C261 0.930 . S
H274 C255 0.929 . S
H275 C293 0.930 . S
H276 C284 0.930 . S
H277 C285 0.930 . S
H278 C309 0.929 . S
H279 C267 0.930 . S
H280 C268 0.929 . S
H281 C310 0.930 . S
H282 C291 0.930 . S
N283 Gd252 2.661 . S
N283 C287 1.350 . S
N283 C288 1.307 . S
C284 H276 0.930 . S
C284 C285 1.355 . S
C284 C286 1.412 . S
C285 H277 0.930 . S
C285 C284 1.355 . S
C285 C288 1.402 . S
C286 C284 1.412 . S
C286 C287 1.417 . S
C286 C310 1.431 . S
C287 N283 1.350 . S
C287 C286 1.417 . S
C287 C290 1.426 . S
C288 H271 0.930 . S
C288 N283 1.307 . S
C288 C285 1.402 . S
N289 Gd252 2.601 . S
N289 C290 1.359 . S
N289 C293 1.334 . S
C290 C287 1.426 . S
C290 N289 1.359 . S
C290 C294 1.413 . S
C291 H282 0.930 . S
C291 C292 1.359 . S
C291 C293 1.394 . S
C292 C291 1.359 . S
C292 C294 1.391 . S
C292 H295 0.929 . S
C293 H275 0.930 . S
C293 N289 1.334 . S
C293 C291 1.394 . S
C294 C290 1.413 . S
C294 C292 1.391 . S
C294 C309 1.437 . S
H295 C292 0.929 . S
O296 Gd252 2.545 . S
O296 C311 1.258 . S
O297 Gd252 2.606 . S
O297 Gd253 2.362 . S
O297 C308 1.284 . S
O298 Gd253 2.324 . S
O298 C318 1.254 . S
O299 Gd252 2.429 . S
O299 C318 1.268 . S
O300 Gd252 2.545 . S
O300 C308 1.250 . S
O301 Gd252 2.412 . S
O301 C311 1.252 . S
O302 Gd253 2.545 . S
O302 C320 1.258 . S
O303 Gd252 2.362 . S
O303 Gd253 2.606 . S
O303 C319 1.284 . S
O304 Gd252 2.324 . S
O304 C327 1.254 . S
O305 Gd253 2.429 . S
O305 C327 1.268 . S
O306 Gd253 2.545 . S
O306 C319 1.250 . S
O307 Gd253 2.412 . S
O307 C320 1.252 . S
C308 O297 1.284 . S
C308 O300 1.250 . S
C309 H278 0.929 . S
C309 C294 1.437 . S
C309 C310 1.317 . S
C310 H281 0.930 . S
C310 C286 1.431 . S
C310 C309 1.317 . S
C311 Gd252 2.828 . S
C311 O296 1.258 . S
C311 O301 1.252 . S
C311 C312 1.497 . S
C312 C311 1.497 . S
C312 C313 1.395 . S
C312 C314 1.380 . S
C313 C312 1.395 . S
C313 C316 1.398 . S
C313 H328 0.930 . S
C314 C312 1.380 . S
C314 C315 1.391 . S
C314 H329 0.930 . S
C315 C314 1.391 . S
C315 C317 1.387 . S
C316 C313 1.398 . S
C316 C317 1.380 . S
C316 H330 0.930 . S
C317 C315 1.387 . S
C317 C316 1.380 . S
C317 H331 0.930 . S
C318 O298 1.254 . S
C318 O299 1.268 . S
C319 O303 1.284 . S
C319 O306 1.250 . S
C320 Gd253 2.828 . S
C320 O302 1.258 . S
C320 O307 1.252 . S
C320 C321 1.497 . S
C321 C320 1.497 . S
C321 C322 1.395 . S
C321 C323 1.380 . S
C322 C321 1.395 . S
C322 C325 1.398 1_565 S
C322 H332 0.930 . S
C323 C321 1.380 . S
C323 C324 1.391 1_565 S
C323 H333 0.930 . S
C324 C323 1.391 1_545 S
C324 C326 1.387 . S
C325 C322 1.398 1_545 S
C325 C326 1.380 . S
C325 H334 0.930 . S
C326 C324 1.387 . S
C326 C325 1.380 . S
C326 H335 0.930 . S
C327 O304 1.254 . S
C327 O305 1.268 . S
H328 C313 0.930 . S
H329 C314 0.930 . S
H330 C316 0.930 . S
H331 C317 0.930 . S
H332 C322 0.930 . S
H333 C323 0.930 . S
H334 C325 0.930 . S
H335 C326 0.930 . S
Gd336 N367 2.661 . S
Gd336 N373 2.601 . S
Gd336 O380 2.545 . S
Gd336 O381 2.606 . S
Gd336 O383 2.429 . S
Gd336 O384 2.545 . S
Gd336 O385 2.412 . S
Gd336 O387 2.362 . S
Gd336 O388 2.324 . S
Gd336 C395 2.828 . S
Gd337 N346 2.661 . S
Gd337 N350 2.601 . S
Gd337 O381 2.362 . S
Gd337 O382 2.324 . S
Gd337 O386 2.545 . S
Gd337 O387 2.606 . S
Gd337 O389 2.429 . S
Gd337 O390 2.545 . S
Gd337 O391 2.412 . S
Gd337 C404 2.828 . S
C338 C341 1.417 . S
C338 C343 1.431 . S
C338 C344 1.412 . S
C339 C342 1.437 . S
C339 C343 1.317 . S
C339 H358 0.929 . S
C340 C341 1.426 . S
C340 C342 1.413 . S
C340 N350 1.359 . S
C341 C338 1.417 . S
C341 C340 1.426 . S
C341 N346 1.350 . S
C342 C339 1.437 . S
C342 C340 1.413 . S
C342 C352 1.391 . S
C343 C338 1.431 . S
C343 C339 1.317 . S
C343 H354 0.930 . S
C344 C338 1.412 . S
C344 C345 1.355 . S
C344 H356 0.930 . S
C345 C344 1.355 . S
C345 C347 1.402 . S
C345 H357 0.930 . S
N346 Gd337 2.661 . S
N346 C341 1.350 . S
N346 C347 1.307 . S
C347 C345 1.402 . S
C347 N346 1.307 . S
C347 H348 0.930 . S
H348 C347 0.930 . S
C349 N350 1.334 . S
C349 C351 1.394 . S
C349 H353 0.930 . S
N350 Gd337 2.601 . S
N350 C340 1.359 . S
N350 C349 1.334 . S
C351 C349 1.394 . S
C351 C352 1.359 . S
C351 H363 0.930 . S
C352 C342 1.391 . S
C352 C351 1.359 . S
C352 H364 0.929 . S
H353 C349 0.930 . S
H354 C343 0.930 . S
H355 C372 0.930 . S
H356 C344 0.930 . S
H357 C345 0.930 . S
H358 C339 0.929 . S
H359 C377 0.930 . S
H360 C368 0.930 . S
H361 C369 0.930 . S
H362 C393 0.929 . S
H363 C351 0.930 . S
H364 C352 0.929 . S
H365 C394 0.930 . S
H366 C375 0.930 . S
N367 Gd336 2.661 . S
N367 C371 1.350 . S
N367 C372 1.307 . S
C368 H360 0.930 . S
C368 C369 1.355 . S
C368 C370 1.412 . S
C369 H361 0.930 . S
C369 C368 1.355 . S
C369 C372 1.402 1_545 S
C370 C368 1.412 . S
C370 C371 1.417 1_545 S
C370 C394 1.431 . S
C371 N367 1.350 . S
C371 C370 1.417 1_565 S
C371 C374 1.426 . S
C372 H355 0.930 . S
C372 N367 1.307 . S
C372 C369 1.402 1_565 S
N373 Gd336 2.601 . S
N373 C374 1.359 . S
N373 C377 1.334 . S
C374 C371 1.426 . S
C374 N373 1.359 . S
C374 C378 1.413 1_565 S
C375 H366 0.930 . S
C375 C376 1.359 1_565 S
C375 C377 1.394 . S
C376 C375 1.359 1_545 S
C376 C378 1.391 . S
C376 H379 0.929 . S
C377 H359 0.930 . S
C377 N373 1.334 . S
C377 C375 1.394 . S
C378 C374 1.413 1_545 S
C378 C376 1.391 . S
C378 C393 1.437 . S
H379 C376 0.929 . S
O380 Gd336 2.545 . S
O380 C395 1.258 . S
O381 Gd336 2.606 . S
O381 Gd337 2.362 . S
O381 C392 1.284 . S
O382 Gd337 2.324 . S
O382 C402 1.254 . S
O383 Gd336 2.429 . S
O383 C402 1.268 . S
O384 Gd336 2.545 . S
O384 C392 1.250 . S
O385 Gd336 2.412 . S
O385 C395 1.252 . S
O386 Gd337 2.545 . S
O386 C404 1.258 . S
O387 Gd336 2.362 . S
O387 Gd337 2.606 . S
O387 C403 1.284 . S
O388 Gd336 2.324 . S
O388 C411 1.254 . S
O389 Gd337 2.429 . S
O389 C411 1.268 . S
O390 Gd337 2.545 . S
O390 C403 1.250 . S
O391 Gd337 2.412 . S
O391 C404 1.252 . S
C392 O381 1.284 . S
C392 O384 1.250 . S
C393 H362 0.929 . S
C393 C378 1.437 . S
C393 C394 1.317 . S
C394 H365 0.930 . S
C394 C370 1.431 . S
C394 C393 1.317 . S
C395 Gd336 2.828 . S
C395 O380 1.258 . S
C395 O385 1.252 . S
C395 C396 1.497 . S
C396 C395 1.497 . S
C396 C397 1.395 . S
C396 C398 1.380 . S
C397 C396 1.395 . S
C397 C400 1.398 . S
C397 H412 0.930 . S
C398 C396 1.380 . S
C398 C399 1.391 . S
C398 H413 0.930 . S
C399 C398 1.391 . S
C399 C401 1.387 . S
C400 C397 1.398 . S
C400 C401 1.380 . S
C400 H414 0.930 . S
C401 C399 1.387 . S
C401 C400 1.380 . S
C401 H415 0.930 . S
C402 O382 1.254 . S
C402 O383 1.268 . S
C403 O387 1.284 . S
C403 O390 1.250 . S
C404 Gd337 2.828 . S
C404 O386 1.258 . S
C404 O391 1.252 . S
C404 C405 1.497 . S
C405 C404 1.497 . S
C405 C406 1.395 . S
C405 C407 1.380 . S
C406 C405 1.395 . S
C406 C409 1.398 1_455 S
C406 H416 0.930 . S
C407 C405 1.380 . S
C407 C408 1.391 1_455 S
C407 H417 0.930 . S
C408 C407 1.391 1_655 S
C408 C410 1.387 . S
C409 C406 1.398 1_655 S
C409 C410 1.380 . S
C409 H418 0.930 . S
C410 C408 1.387 . S
C410 C409 1.380 . S
C410 H419 0.930 . S
C411 O388 1.254 . S
C411 O389 1.268 . S
H412 C397 0.930 . S
H413 C398 0.930 . S
H414 C400 0.930 . S
H415 C401 0.930 . S
H416 C406 0.930 . S
H417 C407 0.930 . S
H418 C409 0.930 . S
H419 C410 0.930 . S
Gd420 N451 2.661 . S
Gd420 N457 2.601 . S
Gd420 O464 2.545 . S
Gd420 O465 2.606 . S
Gd420 O467 2.429 . S
Gd420 O468 2.545 . S
Gd420 O469 2.412 . S
Gd420 O471 2.362 . S
Gd420 O472 2.324 . S
Gd420 C479 2.828 . S
Gd421 N430 2.661 . S
Gd421 N434 2.601 . S
Gd421 O465 2.362 . S
Gd421 O466 2.324 . S
Gd421 O470 2.545 . S
Gd421 O471 2.606 . S
Gd421 O473 2.429 . S
Gd421 O474 2.545 . S
Gd421 O475 2.412 . S
Gd421 C488 2.828 . S
C422 C425 1.417 . S
C422 C427 1.431 . S
C422 C428 1.412 . S
C423 C426 1.437 . S
C423 C427 1.317 . S
C423 H442 0.929 . S
C424 C425 1.426 . S
C424 C426 1.413 . S
C424 N434 1.359 . S
C425 C422 1.417 . S
C425 C424 1.426 . S
C425 N430 1.350 . S
C426 C423 1.437 . S
C426 C424 1.413 . S
C426 C436 1.391 . S
C427 C422 1.431 . S
C427 C423 1.317 . S
C427 H438 0.930 . S
C428 C422 1.412 . S
C428 C429 1.355 . S
C428 H440 0.930 . S
C429 C428 1.355 . S
C429 C431 1.402 . S
C429 H441 0.930 . S
N430 Gd421 2.661 . S
N430 C425 1.350 . S
N430 C431 1.307 . S
C431 C429 1.402 . S
C431 N430 1.307 . S
C431 H432 0.930 . S
H432 C431 0.930 . S
C433 N434 1.334 . S
C433 C435 1.394 . S
C433 H437 0.930 . S
N434 Gd421 2.601 . S
N434 C424 1.359 . S
N434 C433 1.334 . S
C435 C433 1.394 . S
C435 C436 1.359 . S
C435 H447 0.930 . S
C436 C426 1.391 . S
C436 C435 1.359 . S
C436 H448 0.929 . S
H437 C433 0.930 . S
H438 C427 0.930 . S
H439 C456 0.930 . S
H440 C428 0.930 . S
H441 C429 0.930 . S
H442 C423 0.929 . S
H443 C461 0.930 . S
H444 C452 0.930 . S
H445 C453 0.930 . S
H446 C477 0.929 . S
H447 C435 0.930 . S
H448 C436 0.929 . S
H449 C478 0.930 . S
H450 C459 0.930 . S
N451 Gd420 2.661 . S
N451 C455 1.350 . S
N451 C456 1.307 . S
C452 H444 0.930 . S
C452 C453 1.355 1_655 S
C452 C454 1.412 . S
C453 H445 0.930 . S
C453 C452 1.355 1_455 S
C453 C456 1.402 . S
C454 C452 1.412 . S
C454 C455 1.417 1_655 S
C454 C478 1.431 . S
C455 N451 1.350 . S
C455 C454 1.417 1_455 S
C455 C458 1.426 . S
C456 H439 0.930 . S
C456 N451 1.307 . S
C456 C453 1.402 . S
N457 Gd420 2.601 . S
N457 C458 1.359 . S
N457 C461 1.334 . S
C458 C455 1.426 . S
C458 N457 1.359 . S
C458 C462 1.413 1_455 S
C459 H450 0.930 . S
C459 C460 1.359 1_455 S
C459 C461 1.394 . S
C460 C459 1.359 1_655 S
C460 C462 1.391 . S
C460 H463 0.929 . S
C461 H443 0.930 . S
C461 N457 1.334 . S
C461 C459 1.394 . S
C462 C458 1.413 1_655 S
C462 C460 1.391 . S
C462 C477 1.437 . S
H463 C460 0.929 . S
O464 Gd420 2.545 . S
O464 C479 1.258 . S
O465 Gd420 2.606 . S
O465 Gd421 2.362 . S
O465 C476 1.284 . S
O466 Gd421 2.324 . S
O466 C486 1.254 . S
O467 Gd420 2.429 . S
O467 C486 1.268 . S
O468 Gd420 2.545 . S
O468 C476 1.250 . S
O469 Gd420 2.412 . S
O469 C479 1.252 . S
O470 Gd421 2.545 . S
O470 C488 1.258 . S
O471 Gd420 2.362 . S
O471 Gd421 2.606 . S
O471 C487 1.284 . S
O472 Gd420 2.324 . S
O472 C495 1.254 . S
O473 Gd421 2.429 . S
O473 C495 1.268 . S
O474 Gd421 2.545 . S
O474 C487 1.250 . S
O475 Gd421 2.412 . S
O475 C488 1.252 . S
C476 O465 1.284 . S
C476 O468 1.250 . S
C477 H446 0.929 . S
C477 C462 1.437 . S
C477 C478 1.317 . S
C478 H449 0.930 . S
C478 C454 1.431 . S
C478 C477 1.317 . S
C479 Gd420 2.828 . S
C479 O464 1.258 . S
C479 O469 1.252 . S
C479 C480 1.497 . S
C480 C479 1.497 . S
C480 C481 1.395 . S
C480 C482 1.380 . S
C481 C480 1.395 . S
C481 C484 1.398 . S
C481 H496 0.930 . S
C482 C480 1.380 . S
C482 C483 1.391 . S
C482 H497 0.930 . S
C483 C482 1.391 . S
C483 C485 1.387 . S
C484 C481 1.398 . S
C484 C485 1.380 . S
C484 H498 0.930 . S
C485 C483 1.387 . S
C485 C484 1.380 . S
C485 H499 0.930 . S
C486 O466 1.254 . S
C486 O467 1.268 . S
C487 O471 1.284 . S
C487 O474 1.250 . S
C488 Gd421 2.828 . S
C488 O470 1.258 . S
C488 O475 1.252 . S
C488 C489 1.497 . S
C489 C488 1.497 . S
C489 C490 1.395 . S
C489 C491 1.380 . S
C490 C489 1.395 . S
C490 C493 1.398 . S
C490 H500 0.930 . S
C491 C489 1.380 . S
C491 C492 1.391 . S
C491 H501 0.930 . S
C492 C491 1.391 . S
C492 C494 1.387 . S
C493 C490 1.398 . S
C493 C494 1.380 . S
C493 H502 0.930 . S
C494 C492 1.387 . S
C494 C493 1.380 . S
C494 H503 0.930 . S
C495 O472 1.254 . S
C495 O473 1.268 . S
H496 C481 0.930 . S
H497 C482 0.930 . S
H498 C484 0.930 . S
H499 C485 0.930 . S
H500 C490 0.930 . S
H501 C491 0.930 . S
H502 C493 0.930 . S
H503 C494 0.930 . S
Gd504 N535 2.661 . S
Gd504 N541 2.601 . S
Gd504 O548 2.545 . S
Gd504 O549 2.606 . S
Gd504 O551 2.429 . S
Gd504 O552 2.545 . S
Gd504 O553 2.412 . S
Gd504 O555 2.362 . S
Gd504 O556 2.324 . S
Gd504 C563 2.828 . S
Gd505 N514 2.661 . S
Gd505 N518 2.601 . S
Gd505 O549 2.362 . S
Gd505 O550 2.324 . S
Gd505 O554 2.545 . S
Gd505 O555 2.606 . S
Gd505 O557 2.429 . S
Gd505 O558 2.545 . S
Gd505 O559 2.412 . S
Gd505 C572 2.828 . S
C506 C509 1.417 . S
C506 C511 1.431 . S
C506 C512 1.412 . S
C507 C510 1.437 . S
C507 C511 1.317 . S
C507 H526 0.929 . S
C508 C509 1.426 . S
C508 C510 1.413 . S
C508 N518 1.359 . S
C509 C506 1.417 . S
C509 C508 1.426 . S
C509 N514 1.350 . S
C510 C507 1.437 . S
C510 C508 1.413 . S
C510 C520 1.391 . S
C511 C506 1.431 . S
C511 C507 1.317 . S
C511 H522 0.930 . S
C512 C506 1.412 . S
C512 C513 1.355 . S
C512 H524 0.930 . S
C513 C512 1.355 . S
C513 C515 1.402 . S
C513 H525 0.930 . S
N514 Gd505 2.661 . S
N514 C509 1.350 . S
N514 C515 1.307 . S
C515 C513 1.402 . S
C515 N514 1.307 . S
C515 H516 0.930 . S
H516 C515 0.930 . S
C517 N518 1.334 . S
C517 C519 1.394 . S
C517 H521 0.930 . S
N518 Gd505 2.601 . S
N518 C508 1.359 . S
N518 C517 1.334 . S
C519 C517 1.394 . S
C519 C520 1.359 . S
C519 H531 0.930 . S
C520 C510 1.391 . S
C520 C519 1.359 . S
C520 H532 0.929 . S
H521 C517 0.930 . S
H522 C511 0.930 . S
H523 C540 0.930 . S
H524 C512 0.930 . S
H525 C513 0.930 . S
H526 C507 0.929 . S
H527 C545 0.930 . S
H528 C536 0.906 1_565 S
H529 C537 0.930 . S
H530 C561 0.929 . S
H531 C519 0.930 . S
H532 C520 0.929 . S
H533 C562 0.930 . S
H534 C543 0.930 . S
N535 Gd504 2.661 . S
N535 C539 1.350 . S
N535 C540 1.307 . S
C536 H528 0.906 1_545 S
C536 C537 1.355 . S
C536 C538 1.412 . S
C537 H529 0.930 . S
C537 C536 1.355 . S
C537 C540 1.402 . S
C538 C536 1.412 . S
C538 C539 1.417 . S
C538 C562 1.431 1_545 S
C539 N535 1.350 . S
C539 C538 1.417 . S
C539 C542 1.426 . S
C540 H523 0.930 . S
C540 N535 1.307 . S
C540 C537 1.402 . S
N541 Gd504 2.601 . S
N541 C542 1.359 . S
N541 C545 1.334 . S
C542 C539 1.426 . S
C542 N541 1.359 . S
C542 C546 1.427 . S
C543 H534 0.930 . S
C543 C544 1.359 1_545 S
C543 C545 1.394 . S
C544 C543 1.359 1_565 S
C544 C546 1.392 1_565 S
C544 H547 0.929 . S
C545 H527 0.930 . S
C545 N541 1.334 . S
C545 C543 1.394 . S
C546 C542 1.427 . S
C546 C544 1.392 1_545 S
C546 C561 1.422 1_545 S
H547 C544 0.929 . S
O548 Gd504 2.545 . S
O548 C563 1.258 . S
O549 Gd504 2.606 . S
O549 Gd505 2.362 . S
O549 C560 1.284 . S
O550 Gd505 2.324 . S
O550 C570 1.254 . S
O551 Gd504 2.429 . S
O551 C570 1.268 . S
O552 Gd504 2.545 . S
O552 C560 1.250 . S
O553 Gd504 2.412 . S
O553 C563 1.252 . S
O554 Gd505 2.545 . S
O554 C572 1.258 . S
O555 Gd504 2.362 . S
O555 Gd505 2.606 . S
O555 C571 1.284 . S
O556 Gd504 2.324 . S
O556 C579 1.254 . S
O557 Gd505 2.429 . S
O557 C579 1.268 . S
O558 Gd505 2.545 . S
O558 C571 1.250 . S
O559 Gd505 2.412 . S
O559 C572 1.252 . S
C560 O549 1.284 . S
C560 O552 1.250 . S
C561 H530 0.929 . S
C561 C546 1.422 1_565 S
C561 C562 1.317 . S
C562 H533 0.930 . S
C562 C538 1.431 1_565 S
C562 C561 1.317 . S
C563 Gd504 2.828 . S
C563 O548 1.258 . S
C563 O553 1.252 . S
C563 C564 1.497 1_545 S
C564 C563 1.497 1_565 S
C564 C565 1.395 . S
C564 C566 1.380 . S
C565 C564 1.395 . S
C565 C568 1.398 . S
C565 H580 0.930 . S
C566 C564 1.380 . S
C566 C567 1.391 . S
C566 H581 0.930 . S
C567 C566 1.391 . S
C567 C569 1.387 . S
C568 C565 1.398 . S
C568 C569 1.380 . S
C568 H582 0.930 . S
C569 C567 1.387 . S
C569 C568 1.380 . S
C569 H583 0.930 . S
C570 O550 1.254 . S
C570 O551 1.268 . S
C571 O555 1.284 . S
C571 O558 1.250 . S
C572 Gd505 2.828 . S
C572 O554 1.258 . S
C572 O559 1.252 . S
C572 C573 1.497 . S
C573 C572 1.497 . S
C573 C574 1.395 . S
C573 C575 1.380 . S
C574 C573 1.395 . S
C574 C577 1.398 . S
C574 H584 0.930 . S
C575 C573 1.380 . S
C575 C576 1.391 . S
C575 H585 0.930 . S
C576 C575 1.391 . S
C576 C578 1.387 . S
C577 C574 1.398 . S
C577 C578 1.380 . S
C577 H586 0.930 . S
C578 C576 1.387 . S
C578 C577 1.380 . S
C578 H587 0.930 . S
C579 O556 1.254 . S
C579 O557 1.268 . S
H580 C565 0.930 . S
H581 C566 0.930 . S
H582 C568 0.930 . S
H583 C569 0.930 . S
H584 C574 0.930 . S
H585 C575 0.930 . S
H586 C577 0.930 . S
H587 C578 0.930 . S
Gd588 N619 2.661 . S
Gd588 N625 2.601 . S
Gd588 O632 2.545 . S
Gd588 O633 2.606 . S
Gd588 O635 2.429 . S
Gd588 O636 2.545 . S
Gd588 O637 2.412 . S
Gd588 O639 2.362 . S
Gd588 O640 2.324 . S
Gd588 C647 2.828 1_655 S
Gd589 N598 2.661 . S
Gd589 N602 2.601 . S
Gd589 O633 2.362 . S
Gd589 O634 2.324 . S
Gd589 O638 2.545 . S
Gd589 O639 2.606 . S
Gd589 O641 2.429 . S
Gd589 O642 2.545 . S
Gd589 O643 2.412 . S
Gd589 C656 2.828 . S
C590 C593 1.417 . S
C590 C595 1.431 . S
C590 C596 1.412 . S
C591 C594 1.437 . S
C591 C595 1.317 . S
C591 H610 0.929 1_545 S
C592 C593 1.426 . S
C592 C594 1.413 . S
C592 N602 1.359 . S
C593 C590 1.417 . S
C593 C592 1.426 . S
C593 N598 1.350 . S
C594 C591 1.437 . S
C594 C592 1.413 . S
C594 C604 1.391 . S
C595 C590 1.431 . S
C595 C591 1.317 . S
C595 H606 0.930 1_545 S
C596 C590 1.412 . S
C596 C597 1.355 . S
C596 H608 0.930 . S
C597 C596 1.355 . S
C597 C599 1.402 . S
C597 H609 0.930 . S
N598 Gd589 2.661 . S
N598 C593 1.350 . S
N598 C599 1.307 . S
C599 C597 1.402 . S
C599 N598 1.307 . S
C599 H600 0.930 . S
H600 C599 0.930 . S
C601 N602 1.334 . S
C601 C603 1.394 . S
C601 H605 0.930 . S
N602 Gd589 2.601 . S
N602 C592 1.359 . S
N602 C601 1.334 . S
C603 C601 1.394 . S
C603 C604 1.359 . S
C603 H615 0.930 . S
C604 C594 1.391 . S
C604 C603 1.359 . S
C604 H616 0.929 . S
H605 C601 0.930 . S
H606 C595 0.930 1_565 S
H607 C624 0.930 . S
H608 C596 0.930 . S
H609 C597 0.930 . S
H610 C591 0.929 1_565 S
H611 C629 0.930 . S
H612 C620 0.930 . S
H613 C621 0.930 . S
H614 C645 0.929 . S
H615 C603 0.930 . S
H616 C604 0.929 . S
H617 C646 0.930 . S
H618 C627 0.930 . S
N619 Gd588 2.661 . S
N619 C623 1.350 . S
N619 C624 1.307 . S
C620 H612 0.930 . S
C620 C621 1.355 1_455 S
C620 C622 1.412 . S
C621 H613 0.930 . S
C621 C620 1.355 1_655 S
C621 C624 1.402 . S
C622 C620 1.412 . S
C622 C623 1.417 1_455 S
C622 C646 1.431 . S
C623 N619 1.350 . S
C623 C622 1.417 1_655 S
C623 C626 1.426 . S
C624 H607 0.930 . S
C624 N619 1.307 . S
C624 C621 1.402 . S
N625 Gd588 2.601 . S
N625 C626 1.359 . S
N625 C629 1.334 . S
C626 C623 1.426 . S
C626 N625 1.359 . S
C626 C630 1.413 1_655 S
C627 H618 0.930 . S
C627 C628 1.359 1_655 S
C627 C629 1.394 . S
C628 C627 1.359 1_455 S
C628 C630 1.391 . S
C628 H631 0.929 . S
C629 H611 0.930 . S
C629 N625 1.334 . S
C629 C627 1.394 . S
C630 C626 1.413 1_455 S
C630 C628 1.391 . S
C630 C645 1.437 . S
H631 C628 0.929 . S
O632 Gd588 2.545 . S
O632 C647 1.258 1_655 S
O633 Gd588 2.606 . S
O633 Gd589 2.362 . S
O633 C644 1.284 . S
O634 Gd589 2.324 . S
O634 C654 1.254 . S
O635 Gd588 2.429 . S
O635 C654 1.268 . S
O636 Gd588 2.545 . S
O636 C644 1.250 . S
O637 Gd588 2.412 . S
O637 C647 1.252 1_655 S
O638 Gd589 2.545 . S
O638 C656 1.258 . S
O639 Gd588 2.362 . S
O639 Gd589 2.606 . S
O639 C655 1.284 . S
O640 Gd588 2.324 . S
O640 C663 1.254 . S
O641 Gd589 2.429 . S
O641 C663 1.268 . S
O642 Gd589 2.545 . S
O642 C655 1.250 . S
O643 Gd589 2.412 . S
O643 C656 1.252 . S
C644 O633 1.284 . S
C644 O636 1.250 . S
C645 H614 0.929 . S
C645 C630 1.437 . S
C645 C646 1.317 . S
C646 H617 0.930 . S
C646 C622 1.431 . S
C646 C645 1.317 . S
C647 Gd588 2.828 1_455 S
C647 O632 1.258 1_455 S
C647 O637 1.252 1_455 S
C647 C648 1.497 . S
C648 C647 1.497 . S
C648 C649 1.395 . S
C648 C650 1.380 . S
C649 C648 1.395 . S
C649 C652 1.398 . S
C649 H664 0.930 . S
C650 C648 1.380 . S
C650 C651 1.391 . S
C650 H665 0.930 . S
C651 C650 1.391 . S
C651 C653 1.387 . S
C652 C649 1.398 . S
C652 C653 1.380 . S
C652 H666 0.930 . S
C653 C651 1.387 . S
C653 C652 1.380 . S
C653 H667 0.930 . S
C654 O634 1.254 . S
C654 O635 1.268 . S
C655 O639 1.284 . S
C655 O642 1.250 . S
C656 Gd589 2.828 . S
C656 O638 1.258 . S
C656 O643 1.252 . S
C656 C657 1.497 . S
C657 C656 1.497 . S
C657 C658 1.395 . S
C657 C659 1.380 . S
C658 C657 1.395 . S
C658 C661 1.398 . S
C658 H668 0.930 . S
C659 C657 1.380 . S
C659 C660 1.391 . S
C659 H669 0.930 . S
C660 C659 1.391 . S
C660 C662 1.387 . S
C661 C658 1.398 . S
C661 C662 1.380 . S
C661 H670 0.930 . S
C662 C660 1.387 . S
C662 C661 1.380 . S
C662 H671 0.930 . S
C663 O640 1.254 . S
C663 O641 1.268 . S
H664 C649 0.930 . S
H665 C650 0.930 . S
H666 C652 0.930 . S
H667 C653 0.930 . S
H668 C658 0.930 . S
H669 C659 0.930 . S
H670 C661 0.930 . S
H671 C662 0.930 . S
Gd672 N703 2.661 . S
Gd672 N709 2.601 . S
Gd672 O716 2.545 . S
Gd672 O717 2.606 . S
Gd672 O719 2.429 . S
Gd672 O720 2.545 . S
Gd672 O721 2.412 . S
Gd672 O723 2.362 . S
Gd672 O724 2.324 . S
Gd672 C731 2.828 . S
Gd673 N682 2.661 . S
Gd673 N686 2.601 . S
Gd673 O717 2.362 . S
Gd673 O718 2.324 . S
Gd673 O722 2.545 . S
Gd673 O723 2.606 . S
Gd673 O725 2.429 . S
Gd673 O726 2.545 . S
Gd673 O727 2.412 . S
Gd673 C740 2.828 . S
C674 C677 1.417 . S
C674 C679 1.431 1_655 S
C674 C680 1.412 . S
C675 C678 1.437 1_455 S
C675 C679 1.317 . S
C675 H694 0.929 . S
C676 C677 1.426 . S
C676 C678 1.413 . S
C676 N686 1.359 . S
C677 C674 1.417 . S
C677 C676 1.426 . S
C677 N682 1.350 . S
C678 C675 1.437 1_655 S
C678 C676 1.413 . S
C678 C688 1.391 . S
C679 C674 1.431 1_455 S
C679 C675 1.317 . S
C679 H690 0.930 . S
C680 C674 1.412 . S
C680 C681 1.355 . S
C680 H692 0.930 1_655 S
C681 C680 1.355 . S
C681 C683 1.402 . S
C681 H693 0.930 . S
N682 Gd673 2.661 . S
N682 C677 1.350 . S
N682 C683 1.307 . S
C683 C681 1.402 . S
C683 N682 1.307 . S
C683 H684 0.930 . S
H684 C683 0.930 . S
C685 N686 1.334 . S
C685 C687 1.394 . S
C685 H689 0.930 . S
N686 Gd673 2.601 . S
N686 C676 1.359 . S
N686 C685 1.334 . S
C687 C685 1.394 . S
C687 C688 1.359 . S
C687 H699 0.930 . S
C688 C678 1.391 . S
C688 C687 1.359 . S
C688 H700 0.929 . S
H689 C685 0.930 . S
H690 C679 0.930 . S
H691 C708 0.930 . S
H692 C680 0.930 1_455 S
H693 C681 0.930 . S
H694 C675 0.929 . S
H695 C713 0.930 . S
H696 C704 0.930 . S
H697 C705 0.930 . S
H698 C729 0.929 . S
H699 C687 0.930 . S
H700 C688 0.929 . S
H701 C730 0.930 . S
H702 C711 0.930 . S
N703 Gd672 2.661 . S
N703 C707 1.350 . S
N703 C708 1.307 . S
C704 H696 0.930 . S
C704 C705 1.355 . S
C704 C706 1.412 . S
C705 H697 0.930 . S
C705 C704 1.355 . S
C705 C708 1.402 . S
C706 C704 1.412 . S
C706 C707 1.417 . S
C706 C730 1.431 . S
C707 N703 1.350 . S
C707 C706 1.417 . S
C707 C710 1.426 . S
C708 H691 0.930 . S
C708 N703 1.307 . S
C708 C705 1.402 . S
N709 Gd672 2.601 . S
N709 C710 1.359 . S
N709 C713 1.334 . S
C710 C707 1.426 . S
C710 N709 1.359 . S
C710 C714 1.413 . S
C711 H702 0.930 . S
C711 C712 1.359 . S
C711 C713 1.394 . S
C712 C711 1.359 . S
C712 C714 1.391 . S
C712 H715 0.929 . S
C713 H695 0.930 . S
C713 N709 1.334 . S
C713 C711 1.394 . S
C714 C710 1.413 . S
C714 C712 1.391 . S
C714 C729 1.437 . S
H715 C712 0.929 . S
O716 Gd672 2.545 . S
O716 C731 1.258 . S
O717 Gd672 2.606 . S
O717 Gd673 2.362 . S
O717 C728 1.284 . S
O718 Gd673 2.324 . S
O718 C738 1.254 . S
O719 Gd672 2.429 . S
O719 C738 1.268 . S
O720 Gd672 2.545 . S
O720 C728 1.250 . S
O721 Gd672 2.412 . S
O721 C731 1.252 . S
O722 Gd673 2.545 . S
O722 C740 1.258 . S
O723 Gd672 2.362 . S
O723 Gd673 2.606 . S
O723 C739 1.284 . S
O724 Gd672 2.324 . S
O724 C747 1.254 . S
O725 Gd673 2.429 . S
O725 C747 1.268 . S
O726 Gd673 2.545 . S
O726 C739 1.250 . S
O727 Gd673 2.412 . S
O727 C740 1.252 . S
C728 O717 1.284 . S
C728 O720 1.250 . S
C729 H698 0.929 . S
C729 C714 1.437 . S
C729 C730 1.317 . S
C730 H701 0.930 . S
C730 C706 1.431 . S
C730 C729 1.317 . S
C731 Gd672 2.828 . S
C731 O716 1.258 . S
C731 O721 1.252 . S
C731 C732 1.497 . S
C732 C731 1.497 . S
C732 C733 1.395 . S
C732 C734 1.380 . S
C733 C732 1.395 . S
C733 C736 1.398 . S
C733 H748 0.930 . S
C734 C732 1.380 . S
C734 C735 1.391 . S
C734 H749 0.930 . S
C735 C734 1.391 . S
C735 C737 1.387 . S
C736 C733 1.398 . S
C736 C737 1.380 . S
C736 H750 0.930 . S
C737 C735 1.387 . S
C737 C736 1.380 . S
C737 H751 0.930 . S
C738 O718 1.254 . S
C738 O719 1.268 . S
C739 O723 1.284 . S
C739 O726 1.250 . S
C740 Gd673 2.828 . S
C740 O722 1.258 . S
C740 O727 1.252 . S
C740 C741 1.497 . S
C741 C740 1.497 . S
C741 C742 1.395 . S
C741 C743 1.380 . S
C742 C741 1.395 . S
C742 C745 1.398 . S
C742 H752 0.930 . S
C743 C741 1.380 . S
C743 C744 1.391 . S
C743 H753 0.930 . S
C744 C743 1.391 . S
C744 C746 1.387 . S
C745 C742 1.398 . S
C745 C746 1.380 . S
C745 H754 0.930 . S
C746 C744 1.387 . S
C746 C745 1.380 . S
C746 H755 0.930 . S
C747 O724 1.254 . S
C747 O725 1.268 . S
H748 C733 0.930 . S
H749 C734 0.930 . S
H750 C736 0.930 . S
H751 C737 0.930 . S
H752 C742 0.930 . S
H753 C743 0.930 . S
H754 C745 0.930 . S
H755 C746 0.930 . S
C756 C757 1.391 . S
C756 C758 1.394 . S
C756 H772 0.931 . S
C757 C756 1.391 . S
C757 C761 1.376 . S
C758 C756 1.394 . S
C758 C759 1.369 . S
C758 C762 1.537 . S
C759 C758 1.369 . S
C759 C760 1.410 . S
C759 C767 1.503 . S
C760 C759 1.410 . S
C760 C761 1.392 . S
C760 C763 1.511 . S
C761 C757 1.376 . S
C761 C760 1.392 . S
C761 H773 0.929 . S
C762 C758 1.537 . S
C762 H774 0.970 . S
C762 H775 0.940 1_554 S
C762 H776 0.966 . S
C763 C760 1.511 . S
C763 H777 0.961 . S
C763 H778 0.961 . S
C763 H779 0.961 . S
C764 C765 1.370 1_556 S
C764 C766 1.363 . S
C764 H780 0.931 . S
C765 C764 1.370 1_554 S
C765 C769 1.408 . S
C766 C764 1.363 . S
C766 C767 1.370 1_556 S
C766 C770 1.524 . S
C767 C759 1.503 . S
C767 C766 1.370 1_554 S
C767 C768 1.403 . S
C768 C767 1.403 . S
C768 C769 1.404 . S
C768 C771 1.539 . S
C769 C765 1.408 . S
C769 C768 1.404 . S
C769 H781 0.930 . S
C770 C766 1.524 . S
C770 H782 0.956 . S
C770 H783 0.961 . S
C770 H784 0.961 . S
C771 C768 1.539 . S
C771 H785 0.958 . S
C771 H786 0.961 . S
C771 H787 0.960 . S
H772 C756 0.931 . S
H773 C761 0.929 . S
H774 C762 0.970 . S
H775 C762 0.940 1_556 S
H776 C762 0.966 . S
H777 C763 0.961 . S
H778 C763 0.961 . S
H779 C763 0.961 . S
H780 C764 0.931 . S
H781 C769 0.930 . S
H782 C770 0.956 . S
H783 C770 0.961 . S
H784 C770 0.961 . S
H785 C771 0.958 . S
H786 C771 0.961 . S
H787 C771 0.960 . S
C788 C789 1.391 . S
C788 C790 1.394 . S
C788 H804 0.931 . S
C789 C788 1.391 . S
C789 C793 1.376 1_554 S
C790 C788 1.394 . S
C790 C791 1.369 . S
C790 C794 1.531 . S
C791 C790 1.369 . S
C791 C792 1.410 1_554 S
C791 C799 1.503 . S
C792 C791 1.410 1_556 S
C792 C793 1.392 . S
C792 C795 1.511 . S
C793 C789 1.376 1_556 S
C793 C792 1.392 . S
C793 H805 0.929 . S
C794 C790 1.531 . S
C794 H806 0.960 . S
C794 H807 0.962 . S
C794 H808 0.960 . S
C795 C792 1.511 . S
C795 H809 0.961 . S
C795 H810 0.961 . S
C795 H811 0.961 . S
C796 C797 1.370 . S
C796 C798 1.363 . S
C796 H812 0.931 . S
C797 C796 1.370 . S
C797 C801 1.408 1_554 S
C798 C796 1.363 . S
C798 C799 1.370 . S
C798 C802 1.524 . S
C799 C791 1.503 . S
C799 C798 1.370 . S
C799 C800 1.403 1_554 S
C800 C799 1.403 1_556 S
C800 C801 1.404 . S
C800 C803 1.539 . S
C801 C797 1.408 1_556 S
C801 C800 1.404 . S
C801 H813 0.930 . S
C802 C798 1.524 . S
C802 H814 0.956 . S
C802 H815 0.961 . S
C802 H816 0.961 . S
C803 C800 1.539 . S
C803 H817 0.958 . S
C803 H818 0.961 . S
C803 H819 0.960 . S
H804 C788 0.931 . S
H805 C793 0.929 . S
H806 C794 0.960 . S
H807 C794 0.962 . S
H808 C794 0.960 . S
H809 C795 0.961 . S
H810 C795 0.961 . S
H811 C795 0.961 . S
H812 C796 0.931 . S
H813 C801 0.930 . S
H814 C802 0.956 . S
H815 C802 0.961 . S
H816 C802 0.961 . S
H817 C803 0.958 . S
H818 C803 0.961 . S
H819 C803 0.960 . S
C820 C821 1.414 . S
C820 C822 1.394 . S
C820 H836 0.931 . S
C821 C820 1.414 . S
C821 C825 1.354 1_554 S
C822 C820 1.394 . S
C822 C823 1.369 . S
C822 C826 1.531 . S
C823 C822 1.369 . S
C823 C824 1.410 1_554 S
C823 C831 1.503 . S
C824 C823 1.410 1_556 S
C824 C825 1.392 . S
C824 C827 1.511 . S
C825 C821 1.354 1_556 S
C825 C824 1.392 . S
C825 H837 0.929 . S
C826 C822 1.531 . S
C826 H838 0.960 . S
C826 H839 0.962 . S
C826 H840 0.960 . S
C827 C824 1.511 . S
C827 H841 0.961 . S
C827 H842 0.961 . S
C827 H843 0.961 . S
C828 C829 1.370 . S
C828 C830 1.363 . S
C828 H844 0.931 . S
C829 C828 1.370 . S
C829 C833 1.408 1_554 S
C830 C828 1.363 . S
C830 C831 1.370 . S
C830 C834 1.524 . S
C831 C823 1.503 . S
C831 C830 1.370 . S
C831 C832 1.403 1_554 S
C832 C831 1.403 1_556 S
C832 C833 1.404 . S
C832 C835 1.539 . S
C833 C829 1.408 1_556 S
C833 C832 1.404 . S
C833 H845 0.930 . S
C834 C830 1.524 . S
C834 H846 0.956 . S
C834 H847 0.961 . S
C834 H848 0.961 . S
C835 C832 1.539 . S
C835 H849 0.958 . S
C835 H850 0.961 . S
C835 H851 0.960 . S
H836 C820 0.931 . S
H837 C825 0.929 . S
H838 C826 0.960 . S
H839 C826 0.962 . S
H840 C826 0.960 . S
H841 C827 0.961 . S
H842 C827 0.961 . S
H843 C827 0.961 . S
H844 C828 0.931 . S
H845 C833 0.930 . S
H846 C834 0.956 . S
H847 C834 0.961 . S
H848 C834 0.961 . S
H849 C835 0.958 . S
H850 C835 0.961 . S
H851 C835 0.960 . S
C852 C853 1.391 1_554 S
C852 C854 1.394 . S
C852 H868 0.931 . S
C853 C852 1.391 1_556 S
C853 C857 1.376 . S
C854 C852 1.394 . S
C854 C855 1.367 1_554 S
C854 C858 1.531 . S
C855 C854 1.367 1_556 S
C855 C856 1.412 . S
C855 C863 1.502 1_556 S
C856 C855 1.412 . S
C856 C857 1.392 . S
C856 C859 1.511 . S
C857 C853 1.376 . S
C857 C856 1.392 . S
C857 H869 0.929 . S
C858 C854 1.531 . S
C858 H870 0.960 . S
C858 H871 0.962 . S
C858 H872 0.960 . S
C859 C856 1.511 . S
C859 H873 0.961 . S
C859 H874 0.961 . S
C859 H875 0.961 . S
C860 C861 1.370 1_556 S
C860 C862 1.363 . S
C860 H876 0.931 . S
C861 C860 1.370 1_554 S
C861 C865 1.408 . S
C862 C860 1.363 . S
C862 C863 1.343 1_556 S
C862 C866 1.524 . S
C863 C855 1.502 1_554 S
C863 C862 1.343 1_554 S
C863 C864 1.432 . S
C864 C863 1.432 . S
C864 C865 1.404 . S
C864 C867 1.539 . S
C865 C861 1.408 . S
C865 C864 1.404 . S
C865 H877 0.930 . S
C866 C862 1.524 . S
C866 H878 0.956 . S
C866 H879 0.961 . S
C866 H880 0.961 . S
C867 C864 1.539 . S
C867 H881 0.958 . S
C867 H882 0.961 . S
C867 H883 0.960 . S
H868 C852 0.931 . S
H869 C857 0.929 . S
H870 C858 0.960 . S
H871 C858 0.962 . S
H872 C858 0.960 . S
H873 C859 0.961 . S
H874 C859 0.961 . S
H875 C859 0.961 . S
H876 C860 0.931 . S
H877 C865 0.930 . S
H878 C866 0.956 . S
H879 C866 0.961 . S
H880 C866 0.961 . S
H881 C867 0.958 . S
H882 C867 0.961 . S
H883 C867 0.960 . S
C884 C885 1.391 . S
C884 C886 1.394 . S
C884 H900 0.931 . S
C885 C884 1.391 . S
C885 C889 1.376 . S
C886 C884 1.394 . S
C886 C887 1.369 . S
C886 C890 1.531 . S
C887 C886 1.369 . S
C887 C888 1.410 . S
C887 C895 1.503 1_554 S
C888 C887 1.410 . S
C888 C889 1.392 . S
C888 C891 1.511 . S
C889 C885 1.376 . S
C889 C888 1.392 . S
C889 H901 0.929 . S
C890 C886 1.531 . S
C890 H902 0.960 . S
C890 H903 0.962 1_554 S
C890 H904 0.960 . S
C891 C888 1.511 . S
C891 H905 0.961 1_554 S
C891 H906 0.961 1_554 S
C891 H907 0.961 . S
C892 C893 1.370 . S
C892 C894 1.363 . S
C892 H908 0.931 . S
C893 C892 1.370 . S
C893 C897 1.408 1_556 S
C894 C892 1.363 . S
C894 C895 1.370 . S
C894 C898 1.524 . S
C895 C887 1.503 1_556 S
C895 C894 1.370 . S
C895 C896 1.403 1_556 S
C896 C895 1.403 1_554 S
C896 C897 1.404 . S
C896 C899 1.539 . S
C897 C893 1.408 1_554 S
C897 C896 1.404 . S
C897 H909 0.930 . S
C898 C894 1.524 . S
C898 H910 0.956 . S
C898 H911 0.961 . S
C898 H912 0.961 . S
C899 C896 1.539 . S
C899 H913 0.958 . S
C899 H914 0.961 . S
C899 H915 0.960 . S
H900 C884 0.931 . S
H901 C889 0.929 . S
H902 C890 0.960 . S
H903 C890 0.962 1_556 S
H904 C890 0.960 . S
H905 C891 0.961 1_556 S
H906 C891 0.961 1_556 S
H907 C891 0.961 . S
H908 C892 0.931 . S
H909 C897 0.930 . S
H910 C898 0.956 . S
H911 C898 0.961 . S
H912 C898 0.961 . S
H913 C899 0.958 . S
H914 C899 0.961 . S
H915 C899 0.960 . S
C916 C917 1.387 1_556 S
C916 C918 1.394 . S
C916 H932 0.931 . S
C917 C916 1.387 1_554 S
C917 C921 1.379 . S
C918 C916 1.394 . S
C918 C919 1.369 . S
C918 C922 1.531 . S
C919 C918 1.369 . S
C919 C920 1.410 1_556 S
C919 C927 1.503 . S
C920 C919 1.410 1_554 S
C920 C921 1.392 . S
C920 C923 1.511 . S
C921 C917 1.379 . S
C921 C920 1.392 . S
C921 H933 0.929 . S
C922 C918 1.531 . S
C922 H934 0.960 . S
C922 H935 0.962 . S
C922 H936 0.960 . S
C923 C920 1.511 . S
C923 H937 0.961 . S
C923 H938 0.961 . S
C923 H939 0.961 . S
C924 C925 1.370 1_554 S
C924 C926 1.363 . S
C924 H940 0.931 . S
C925 C924 1.370 1_556 S
C925 C929 1.408 . S
C926 C924 1.363 . S
C926 C927 1.370 1_554 S
C926 C930 1.524 . S
C927 C919 1.503 . S
C927 C926 1.370 1_556 S
C927 C928 1.403 . S
C928 C927 1.403 . S
C928 C929 1.404 . S
C928 C931 1.539 . S
C929 C925 1.408 . S
C929 C928 1.404 . S
C929 H941 0.930 . S
C930 C926 1.524 . S
C930 H942 0.956 . S
C930 H943 0.961 . S
C930 H944 0.961 . S
C931 C928 1.539 . S
C931 H945 0.958 . S
C931 H946 0.961 . S
C931 H947 0.960 . S
H932 C916 0.931 . S
H933 C921 0.929 . S
H934 C922 0.960 . S
H935 C922 0.962 . S
H936 C922 0.960 . S
H937 C923 0.961 . S
H938 C923 0.961 . S
H939 C923 0.961 . S
H940 C924 0.931 . S
H941 C929 0.930 . S
H942 C930 0.956 . S
H943 C930 0.961 . S
H944 C930 0.961 . S
H945 C931 0.958 . S
H946 C931 0.961 . S
H947 C931 0.960 . S
C948 C949 1.391 . S
C948 C950 1.394 . S
C948 H964 0.931 . S
C949 C948 1.391 . S
C949 C953 1.376 . S
C950 C948 1.394 . S
C950 C951 1.369 . S
C950 C954 1.531 . S
C951 C950 1.369 . S
C951 C952 1.410 . S
C951 C959 1.503 . S
C952 C951 1.410 . S
C952 C953 1.392 . S
C952 C955 1.511 . S
C953 C949 1.376 . S
C953 C952 1.392 . S
C953 H965 0.929 . S
C954 C950 1.531 . S
C954 H966 0.960 . S
C954 H967 0.962 . S
C954 H968 0.960 . S
C955 C952 1.511 . S
C955 H969 0.961 . S
C955 H970 0.961 . S
C955 H971 0.961 . S
C956 C957 1.370 . S
C956 C958 1.363 . S
C956 H972 0.931 . S
C957 C956 1.370 . S
C957 C961 1.408 . S
C958 C956 1.363 . S
C958 C959 1.370 . S
C958 C962 1.524 . S
C959 C951 1.503 . S
C959 C958 1.370 . S
C959 C960 1.403 . S
C960 C959 1.403 . S
C960 C961 1.404 . S
C960 C963 1.539 . S
C961 C957 1.408 . S
C961 C960 1.404 . S
C961 H973 0.930 . S
C962 C958 1.524 . S
C962 H974 0.956 . S
C962 H975 0.961 . S
C962 H976 0.961 . S
C963 C960 1.539 . S
C963 H977 0.958 . S
C963 H978 0.961 . S
C963 H979 0.960 . S
H964 C948 0.931 . S
H965 C953 0.929 . S
H966 C954 0.960 . S
H967 C954 0.962 . S
H968 C954 0.960 . S
H969 C955 0.961 . S
H970 C955 0.961 . S
H971 C955 0.961 . S
H972 C956 0.931 . S
H973 C961 0.930 . S
H974 C962 0.956 . S
H975 C962 0.961 . S
H976 C962 0.961 . S
H977 C963 0.958 . S
H978 C963 0.961 . S
H979 C963 0.960 . S
C980 C981 1.391 . S
C980 C982 1.394 . S
C980 H996 0.931 . S
C981 C980 1.391 . S
C981 C985 1.376 . S
C982 C980 1.394 . S
C982 C983 1.369 . S
C982 C986 1.531 . S
C983 C982 1.369 . S
C983 C984 1.410 . S
C983 C991 1.503 . S
C984 C983 1.410 . S
C984 C985 1.392 . S
C984 C987 1.511 . S
C985 C981 1.376 . S
C985 C984 1.392 . S
C985 H997 0.929 . S
C986 C982 1.531 . S
C986 H998 0.960 . S
C986 H999 0.962 . S
C986 H1000 0.960 . S
C987 C984 1.511 . S
C987 H1001 0.961 . S
C987 H1002 0.961 . S
C987 H1003 0.961 1_545 S
C988 C989 1.370 . S
C988 C990 1.363 1_565 S
C988 H1004 0.931 1_565 S
C989 C988 1.370 . S
C989 C993 1.408 . S
C990 C988 1.363 1_545 S
C990 C991 1.370 . S
C990 C994 1.524 . S
C991 C983 1.503 . S
C991 C990 1.370 . S
C991 C992 1.403 1_545 S
C992 C991 1.403 1_565 S
C992 C993 1.404 . S
C992 C995 1.539 . S
C993 C989 1.408 . S
C993 C992 1.404 . S
C993 H1005 0.930 . S
C994 C990 1.524 . S
C994 H1006 0.956 . S
C994 H1007 0.961 . S
C994 H1008 0.961 . S
C995 C992 1.539 . S
C995 H1009 0.958 . S
C995 H1010 0.961 . S
C995 H1011 0.960 . S
H996 C980 0.931 . S
H997 C985 0.929 . S
H998 C986 0.960 . S
H999 C986 0.962 . S
H1000 C986 0.960 . S
H1001 C987 0.961 . S
H1002 C987 0.961 . S
H1003 C987 0.961 1_565 S
H1004 C988 0.931 1_545 S
H1005 C993 0.930 . S
H1006 C994 0.956 . S
H1007 C994 0.961 . S
H1008 C994 0.961 . S
H1009 C995 0.958 . S
H1010 C995 0.961 . S
H1011 C995 0.960 . S
C1012 C1013 1.391 . S
C1012 C1014 1.394 . S
C1012 H1028 0.931 . S
C1013 C1012 1.391 . S
C1013 C1017 1.376 . S
C1014 C1012 1.394 . S
C1014 C1015 1.369 1_455 S
C1014 C1018 1.531 1_455 S
C1015 C1014 1.369 1_655 S
C1015 C1016 1.410 1_655 S
C1015 C1023 1.503 . S
C1016 C1015 1.410 1_455 S
C1016 C1017 1.392 . S
C1016 C1019 1.511 . S
C1017 C1013 1.376 . S
C1017 C1016 1.392 . S
C1017 H1029 0.929 . S
C1018 C1014 1.531 1_655 S
C1018 H1030 0.960 . S
C1018 H1031 0.962 . S
C1018 H1032 0.960 1_655 S
C1019 C1016 1.511 . S
C1019 H1033 0.961 . S
C1019 H1034 0.961 1_455 S
C1019 H1035 0.961 . S
C1020 C1021 1.370 . S
C1020 C1022 1.363 . S
C1020 H1036 0.931 . S
C1021 C1020 1.370 . S
C1021 C1025 1.408 . S
C1022 C1020 1.363 . S
C1022 C1023 1.370 . S
C1022 C1026 1.524 . S
C1023 C1015 1.503 . S
C1023 C1022 1.370 . S
C1023 C1024 1.403 . S
C1024 C1023 1.403 . S
C1024 C1025 1.404 . S
C1024 C1027 1.539 1_655 S
C1025 C1021 1.408 . S
C1025 C1024 1.404 . S
C1025 H1037 0.930 . S
C1026 C1022 1.524 . S
C1026 H1038 0.956 . S
C1026 H1039 0.961 . S
C1026 H1040 0.961 . S
C1027 C1024 1.539 1_455 S
C1027 H1041 0.958 . S
C1027 H1042 0.961 . S
C1027 H1043 0.960 . S
H1028 C1012 0.931 . S
H1029 C1017 0.929 . S
H1030 C1018 0.960 . S
H1031 C1018 0.962 . S
H1032 C1018 0.960 1_455 S
H1033 C1019 0.961 . S
H1034 C1019 0.961 1_655 S
H1035 C1019 0.961 . S
H1036 C1020 0.931 . S
H1037 C1025 0.930 . S
H1038 C1026 0.956 . S
H1039 C1026 0.961 . S
H1040 C1026 0.961 . S
H1041 C1027 0.958 . S
H1042 C1027 0.961 . S
H1043 C1027 0.960 . S
C1044 C1045 1.391 . S
C1044 C1046 1.394 . S
C1044 H1060 0.931 . S
C1045 C1044 1.391 . S
C1045 C1049 1.376 . S
C1046 C1044 1.394 . S
C1046 C1047 1.369 . S
C1046 C1050 1.531 . S
C1047 C1046 1.369 . S
C1047 C1048 1.410 . S
C1047 C1055 1.503 . S
C1048 C1047 1.410 . S
C1048 C1049 1.392 . S
C1048 C1051 1.511 . S
C1049 C1045 1.376 . S
C1049 C1048 1.392 . S
C1049 H1061 0.929 . S
C1050 C1046 1.531 . S
C1050 H1062 0.960 . S
C1050 H1063 0.962 . S
C1050 H1064 0.960 . S
C1051 C1048 1.511 . S
C1051 H1065 0.961 . S
C1051 H1066 0.961 . S
C1051 H1067 0.961 . S
C1052 C1053 1.370 . S
C1052 C1054 1.363 . S
C1052 H1068 0.931 . S
C1053 C1052 1.370 . S
C1053 C1057 1.408 . S
C1054 C1052 1.363 . S
C1054 C1055 1.370 . S
C1054 C1058 1.524 . S
C1055 C1047 1.503 . S
C1055 C1054 1.370 . S
C1055 C1056 1.403 . S
C1056 C1055 1.403 . S
C1056 C1057 1.404 . S
C1056 C1059 1.539 . S
C1057 C1053 1.408 . S
C1057 C1056 1.404 . S
C1057 H1069 0.930 . S
C1058 C1054 1.524 . S
C1058 H1070 0.956 . S
C1058 H1071 0.961 . S
C1058 H1072 0.961 . S
C1059 C1056 1.539 . S
C1059 H1073 0.958 . S
C1059 H1074 0.961 . S
C1059 H1075 0.960 . S
H1060 C1044 0.931 . S
H1061 C1049 0.929 . S
H1062 C1050 0.960 . S
H1063 C1050 0.962 . S
H1064 C1050 0.960 . S
H1065 C1051 0.961 . S
H1066 C1051 0.961 . S
H1067 C1051 0.961 . S
H1068 C1052 0.931 . S
H1069 C1057 0.930 . S
H1070 C1058 0.956 . S
H1071 C1058 0.961 . S
H1072 C1058 0.961 . S
H1073 C1059 0.958 . S
H1074 C1059 0.961 . S
H1075 C1059 0.960 . S
C1076 C1077 1.391 . S
C1076 C1078 1.394 . S
C1076 H1092 0.931 . S
C1077 C1076 1.391 . S
C1077 C1081 1.376 . S
C1078 C1076 1.394 . S
C1078 C1079 1.369 . S
C1078 C1082 1.531 . S
C1079 C1078 1.369 . S
C1079 C1080 1.410 . S
C1079 C1087 1.503 . S
C1080 C1079 1.410 . S
C1080 C1081 1.392 . S
C1080 C1083 1.511 . S
C1081 C1077 1.376 . S
C1081 C1080 1.392 . S
C1081 H1093 0.929 . S
C1082 C1078 1.531 . S
C1082 H1094 0.960 . S
C1082 H1095 0.962 . S
C1082 H1096 0.960 . S
C1083 C1080 1.511 . S
C1083 H1097 0.961 . S
C1083 H1098 0.961 . S
C1083 H1099 0.961 . S
C1084 C1085 1.370 . S
C1084 C1086 1.363 . S
C1084 H1100 0.931 . S
C1085 C1084 1.370 . S
C1085 C1089 1.408 . S
C1086 C1084 1.363 . S
C1086 C1087 1.370 . S
C1086 C1090 1.524 . S
C1087 C1079 1.503 . S
C1087 C1086 1.370 . S
C1087 C1088 1.403 . S
C1088 C1087 1.403 . S
C1088 C1089 1.404 . S
C1088 C1091 1.539 . S
C1089 C1085 1.408 . S
C1089 C1088 1.404 . S
C1089 H1101 0.930 . S
C1090 C1086 1.524 . S
C1090 H1102 0.956 . S
C1090 H1103 0.961 . S
C1090 H1104 0.961 . S
C1091 C1088 1.539 . S
C1091 H1105 0.958 . S
C1091 H1106 0.961 . S
C1091 H1107 0.960 . S
H1092 C1076 0.931 . S
H1093 C1081 0.929 . S
H1094 C1082 0.960 . S
H1095 C1082 0.962 . S
H1096 C1082 0.960 . S
H1097 C1083 0.961 . S
H1098 C1083 0.961 . S
H1099 C1083 0.961 . S
H1100 C1084 0.931 . S
H1101 C1089 0.930 . S
H1102 C1090 0.956 . S
H1103 C1090 0.961 . S
H1104 C1090 0.961 . S
H1105 C1091 0.958 . S
H1106 C1091 0.961 . S
H1107 C1091 0.960 . S
C1108 C1109 1.391 . S
C1108 C1110 1.394 . S
C1108 H1124 0.931 . S
C1109 C1108 1.391 . S
C1109 C1113 1.376 . S
C1110 C1108 1.394 . S
C1110 C1111 1.369 . S
C1110 C1114 1.531 . S
C1111 C1110 1.369 . S
C1111 C1112 1.410 . S
C1111 C1119 1.503 . S
C1112 C1111 1.410 . S
C1112 C1113 1.392 . S
C1112 C1115 1.511 . S
C1113 C1109 1.376 . S
C1113 C1112 1.392 . S
C1113 H1125 0.929 . S
C1114 C1110 1.531 . S
C1114 H1126 0.960 . S
C1114 H1127 0.962 . S
C1114 H1128 0.960 . S
C1115 C1112 1.511 . S
C1115 H1129 0.961 . S
C1115 H1130 0.961 . S
C1115 H1131 0.961 . S
C1116 C1117 1.370 . S
C1116 C1118 1.363 . S
C1116 H1132 0.931 . S
C1117 C1116 1.370 . S
C1117 C1121 1.408 . S
C1118 C1116 1.363 . S
C1118 C1119 1.370 . S
C1118 C1122 1.524 . S
C1119 C1111 1.503 . S
C1119 C1118 1.370 . S
C1119 C1120 1.403 . S
C1120 C1119 1.403 . S
C1120 C1121 1.404 . S
C1120 C1123 1.539 . S
C1121 C1117 1.408 . S
C1121 C1120 1.404 . S
C1121 H1133 0.930 . S
C1122 C1118 1.524 . S
C1122 H1134 0.956 . S
C1122 H1135 0.961 . S
C1122 H1136 0.961 . S
C1123 C1120 1.539 . S
C1123 H1137 0.958 . S
C1123 H1138 0.961 . S
C1123 H1139 0.960 . S
H1124 C1108 0.931 . S
H1125 C1113 0.929 . S
H1126 C1114 0.960 . S
H1127 C1114 0.962 . S
H1128 C1114 0.960 . S
H1129 C1115 0.961 . S
H1130 C1115 0.961 . S
H1131 C1115 0.961 . S
H1132 C1116 0.931 . S
H1133 C1121 0.930 . S
H1134 C1122 0.956 . S
H1135 C1122 0.961 . S
H1136 C1122 0.961 . S
H1137 C1123 0.958 . S
H1138 C1123 0.961 . S
H1139 C1123 0.960 . S
C1140 C1141 1.391 . S
C1140 C1142 1.394 . S
C1140 H1156 0.931 . S
C1141 C1140 1.391 . S
C1141 C1145 1.376 . S
C1142 C1140 1.394 . S
C1142 C1143 1.369 . S
C1142 C1146 1.531 . S
C1143 C1142 1.369 . S
C1143 C1144 1.410 . S
C1143 C1151 1.503 . S
C1144 C1143 1.410 . S
C1144 C1145 1.392 . S
C1144 C1147 1.511 . S
C1145 C1141 1.376 . S
C1145 C1144 1.392 . S
C1145 H1157 0.929 . S
C1146 C1142 1.531 . S
C1146 H1158 0.960 . S
C1146 H1159 0.962 . S
C1146 H1160 0.960 . S
C1147 C1144 1.511 . S
C1147 H1161 0.961 . S
C1147 H1162 0.961 . S
C1147 H1163 0.961 . S
C1148 C1149 1.370 . S
C1148 C1150 1.363 . S
C1148 H1164 0.931 . S
C1149 C1148 1.370 . S
C1149 C1153 1.408 . S
C1150 C1148 1.363 . S
C1150 C1151 1.370 . S
C1150 C1154 1.524 . S
C1151 C1143 1.503 . S
C1151 C1150 1.370 . S
C1151 C1152 1.403 . S
C1152 C1151 1.403 . S
C1152 C1153 1.404 . S
C1152 C1155 1.539 . S
C1153 C1149 1.408 . S
C1153 C1152 1.404 . S
C1153 H1165 0.930 . S
C1154 C1150 1.524 . S
C1154 H1166 0.956 . S
C1154 H1167 0.961 . S
C1154 H1168 0.961 . S
C1155 C1152 1.539 . S
C1155 H1169 0.958 . S
C1155 H1170 0.961 . S
C1155 H1171 0.960 . S
H1156 C1140 0.931 . S
H1157 C1145 0.929 . S
H1158 C1146 0.960 . S
H1159 C1146 0.962 . S
H1160 C1146 0.960 . S
H1161 C1147 0.961 . S
H1162 C1147 0.961 . S
H1163 C1147 0.961 . S
H1164 C1148 0.931 . S
H1165 C1153 0.930 . S
H1166 C1154 0.956 . S
H1167 C1154 0.961 . S
H1168 C1154 0.961 . S
H1169 C1155 0.958 . S
H1170 C1155 0.961 . S
H1171 C1155 0.960 . S
C1172 C1173 1.391 . S
C1172 C1174 1.394 . S
C1172 H1188 0.931 . S
C1173 C1172 1.391 . S
C1173 C1177 1.376 . S
C1174 C1172 1.394 . S
C1174 C1175 1.369 . S
C1174 C1178 1.531 . S
C1175 C1174 1.369 . S
C1175 C1176 1.410 . S
C1175 C1183 1.503 . S
C1176 C1175 1.410 . S
C1176 C1177 1.392 . S
C1176 C1179 1.511 . S
C1177 C1173 1.376 . S
C1177 C1176 1.392 . S
C1177 H1189 0.929 . S
C1178 C1174 1.531 . S
C1178 H1190 0.960 . S
C1178 H1191 0.962 . S
C1178 H1192 0.960 . S
C1179 C1176 1.511 . S
C1179 H1193 0.961 . S
C1179 H1194 0.961 . S
C1179 H1195 0.961 . S
C1180 C1181 1.370 . S
C1180 C1182 1.363 . S
C1180 H1196 0.931 . S
C1181 C1180 1.370 . S
C1181 C1185 1.408 . S
C1182 C1180 1.363 . S
C1182 C1183 1.370 . S
C1182 C1186 1.524 . S
C1183 C1175 1.503 . S
C1183 C1182 1.370 . S
C1183 C1184 1.403 . S
C1184 C1183 1.403 . S
C1184 C1185 1.404 . S
C1184 C1187 1.539 . S
C1185 C1181 1.408 . S
C1185 C1184 1.404 . S
C1185 H1197 0.930 . S
C1186 C1182 1.524 . S
C1186 H1198 0.956 . S
C1186 H1199 0.961 . S
C1186 H1200 0.961 . S
C1187 C1184 1.539 . S
C1187 H1201 0.958 . S
C1187 H1202 0.961 . S
C1187 H1203 0.960 . S
H1188 C1172 0.931 . S
H1189 C1177 0.929 . S
H1190 C1178 0.960 . S
H1191 C1178 0.962 . S
H1192 C1178 0.960 . S
H1193 C1179 0.961 . S
H1194 C1179 0.961 . S
H1195 C1179 0.961 . S
H1196 C1180 0.931 . S
H1197 C1185 0.930 . S
H1198 C1186 0.956 . S
H1199 C1186 0.961 . S
H1200 C1186 0.961 . S
H1201 C1187 0.958 . S
H1202 C1187 0.961 . S
H1203 C1187 0.960 . S
C1204 C1205 1.391 . S
C1204 C1206 1.394 . S
C1204 H1220 0.931 . S
C1205 C1204 1.391 . S
C1205 C1209 1.376 . S
C1206 C1204 1.394 . S
C1206 C1207 1.369 . S
C1206 C1210 1.531 . S
C1207 C1206 1.369 . S
C1207 C1208 1.410 . S
C1207 C1215 1.503 . S
C1208 C1207 1.410 . S
C1208 C1209 1.392 . S
C1208 C1211 1.511 . S
C1209 C1205 1.376 . S
C1209 C1208 1.392 . S
C1209 H1221 0.929 . S
C1210 C1206 1.531 . S
C1210 H1222 0.960 . S
C1210 H1223 0.962 . S
C1210 H1224 0.960 . S
C1211 C1208 1.511 . S
C1211 H1225 0.961 . S
C1211 H1226 0.961 . S
C1211 H1227 0.961 . S
C1212 C1213 1.370 . S
C1212 C1214 1.363 . S
C1212 H1228 0.931 . S
C1213 C1212 1.370 . S
C1213 C1217 1.408 . S
C1214 C1212 1.363 . S
C1214 C1215 1.370 . S
C1214 C1218 1.524 . S
C1215 C1207 1.503 . S
C1215 C1214 1.370 . S
C1215 C1216 1.403 . S
C1216 C1215 1.403 . S
C1216 C1217 1.404 . S
C1216 C1219 1.539 . S
C1217 C1213 1.408 . S
C1217 C1216 1.404 . S
C1217 H1229 0.930 . S
C1218 C1214 1.524 . S
C1218 H1230 0.956 . S
C1218 H1231 0.961 . S
C1218 H1232 0.961 . S
C1219 C1216 1.539 . S
C1219 H1233 0.958 . S
C1219 H1234 0.961 . S
C1219 H1235 0.960 . S
H1220 C1204 0.931 . S
H1221 C1209 0.929 . S
H1222 C1210 0.960 . S
H1223 C1210 0.962 . S
H1224 C1210 0.960 . S
H1225 C1211 0.961 . S
H1226 C1211 0.961 . S
H1227 C1211 0.961 . S
H1228 C1212 0.931 . S
H1229 C1217 0.930 . S
H1230 C1218 0.956 . S
H1231 C1218 0.961 . S
H1232 C1218 0.961 . S
H1233 C1219 0.958 . S
H1234 C1219 0.961 . S
H1235 C1219 0.960 . S
C1236 C1237 1.391 . S
C1236 C1238 1.394 . S
C1236 H1252 0.931 . S
C1237 C1236 1.391 . S
C1237 C1241 1.376 . S
C1238 C1236 1.394 . S
C1238 C1239 1.369 . S
C1238 C1242 1.531 . S
C1239 C1238 1.369 . S
C1239 C1240 1.410 . S
C1239 C1247 1.503 1_565 S
C1240 C1239 1.410 . S
C1240 C1241 1.392 . S
C1240 C1243 1.511 1_565 S
C1241 C1237 1.376 . S
C1241 C1240 1.392 . S
C1241 H1253 0.929 . S
C1242 C1238 1.531 . S
C1242 H1254 0.960 . S
C1242 H1255 0.962 . S
C1242 H1256 0.960 . S
C1243 C1240 1.511 1_545 S
C1243 H1257 0.961 1_545 S
C1243 H1258 0.961 . S
C1243 H1259 0.961 . S
C1244 C1245 1.370 . S
C1244 C1246 1.363 . S
C1244 H1260 0.931 . S
C1245 C1244 1.370 . S
C1245 C1249 1.408 . S
C1246 C1244 1.363 . S
C1246 C1247 1.370 . S
C1246 C1250 1.524 . S
C1247 C1239 1.503 1_545 S
C1247 C1246 1.370 . S
C1247 C1248 1.403 . S
C1248 C1247 1.403 . S
C1248 C1249 1.404 . S
C1248 C1251 1.539 . S
C1249 C1245 1.408 . S
C1249 C1248 1.404 . S
C1249 H1261 0.930 . S
C1250 C1246 1.524 . S
C1250 H1262 0.956 1_545 S
C1250 H1263 0.961 . S
C1250 H1264 0.961 . S
C1251 C1248 1.539 . S
C1251 H1265 0.958 . S
C1251 H1266 0.961 . S
C1251 H1267 0.960 . S
H1252 C1236 0.931 . S
H1253 C1241 0.929 . S
H1254 C1242 0.960 . S
H1255 C1242 0.962 . S
H1256 C1242 0.960 . S
H1257 C1243 0.961 1_565 S
H1258 C1243 0.961 . S
H1259 C1243 0.961 . S
H1260 C1244 0.931 . S
H1261 C1249 0.930 . S
H1262 C1250 0.956 1_565 S
H1263 C1250 0.961 . S
H1264 C1250 0.961 . S
H1265 C1251 0.958 . S
H1266 C1251 0.961 . S
H1267 C1251 0.960 . S
C1268 C1269 1.391 . S
C1268 C1270 1.394 . S
C1268 H1284 0.931 . S
C1269 C1268 1.391 . S
C1269 C1273 1.376 . S
C1270 C1268 1.394 . S
C1270 C1271 1.369 . S
C1270 C1274 1.531 1_655 S
C1271 C1270 1.369 . S
C1271 C1272 1.410 . S
C1271 C1279 1.503 1_655 S
C1272 C1271 1.410 . S
C1272 C1273 1.392 . S
C1272 C1275 1.511 . S
C1273 C1269 1.376 . S
C1273 C1272 1.392 . S
C1273 H1285 0.929 . S
C1274 C1270 1.531 1_455 S
C1274 H1286 0.960 . S
C1274 H1287 0.962 . S
C1274 H1288 0.961 . S
C1275 C1272 1.511 . S
C1275 H1289 0.961 . S
C1275 H1290 0.961 . S
C1275 H1291 0.961 . S
C1276 C1277 1.370 . S
C1276 C1278 1.363 . S
C1276 H1292 0.931 . S
C1277 C1276 1.370 . S
C1277 C1281 1.408 . S
C1278 C1276 1.363 . S
C1278 C1279 1.370 . S
C1278 C1282 1.524 . S
C1279 C1271 1.503 1_455 S
C1279 C1278 1.370 . S
C1279 C1280 1.403 . S
C1280 C1279 1.403 . S
C1280 C1281 1.404 . S
C1280 C1283 1.539 . S
C1281 C1277 1.408 . S
C1281 C1280 1.404 . S
C1281 H1293 0.930 . S
C1282 C1278 1.524 . S
C1282 H1294 0.956 . S
C1282 H1295 0.994 . S
C1282 H1296 0.961 . S
C1283 C1280 1.539 . S
C1283 H1297 0.958 . S
C1283 H1298 0.961 . S
C1283 H1299 0.960 . S
H1284 C1268 0.931 . S
H1285 C1273 0.929 . S
H1286 C1274 0.960 . S
H1287 C1274 0.962 . S
H1288 C1274 0.961 . S
H1289 C1275 0.961 . S
H1290 C1275 0.961 . S
H1291 C1275 0.961 . S
H1292 C1276 0.931 . S
H1293 C1281 0.930 . S
H1294 C1282 0.956 . S
H1295 C1282 0.994 . S
H1296 C1282 0.961 . S
H1297 C1283 0.958 . S
H1298 C1283 0.961 . S
H1299 C1283 0.960 . S
C1300 C1301 1.391 . S
C1300 C1302 1.394 . S
C1300 H1316 0.931 . S
C1301 C1300 1.391 . S
C1301 C1305 1.376 . S
C1302 C1300 1.394 . S
C1302 C1303 1.369 . S
C1302 C1306 1.531 . S
C1303 C1302 1.369 . S
C1303 C1304 1.410 . S
C1303 C1311 1.503 . S
C1304 C1303 1.410 . S
C1304 C1305 1.392 . S
C1304 C1307 1.511 . S
C1305 C1301 1.376 . S
C1305 C1304 1.392 . S
C1305 H1317 0.929 . S
C1306 C1302 1.531 . S
C1306 H1318 0.960 . S
C1306 H1319 0.962 . S
C1306 H1320 0.960 . S
C1307 C1304 1.511 . S
C1307 H1321 0.961 . S
C1307 H1322 0.961 . S
C1307 H1323 0.961 . S
C1308 C1309 1.370 . S
C1308 C1310 1.363 . S
C1308 H1324 0.931 . S
C1309 C1308 1.370 . S
C1309 C1313 1.408 . S
C1310 C1308 1.363 . S
C1310 C1311 1.370 . S
C1310 C1314 1.524 . S
C1311 C1303 1.503 . S
C1311 C1310 1.370 . S
C1311 C1312 1.403 . S
C1312 C1311 1.403 . S
C1312 C1313 1.404 . S
C1312 C1315 1.539 . S
C1313 C1309 1.408 . S
C1313 C1312 1.404 . S
C1313 H1325 0.930 . S
C1314 C1310 1.524 . S
C1314 H1326 0.956 . S
C1314 H1327 0.961 . S
C1314 H1328 0.961 . S
C1315 C1312 1.539 . S
C1315 H1329 0.958 . S
C1315 H1330 0.961 . S
C1315 H1331 0.960 . S
H1316 C1300 0.931 . S
H1317 C1305 0.929 . S
H1318 C1306 0.960 . S
H1319 C1306 0.962 . S
H1320 C1306 0.960 . S
H1321 C1307 0.961 . S
H1322 C1307 0.961 . S
H1323 C1307 0.961 . S
H1324 C1308 0.931 . S
H1325 C1313 0.930 . S
H1326 C1314 0.956 . S
H1327 C1314 0.961 . S
H1328 C1314 0.961 . S
H1329 C1315 0.958 . S
H1330 C1315 0.961 . S
H1331 C1315 0.960 . S
C1332 C1333 1.391 . S
C1332 C1334 1.394 . S
C1332 H1348 0.931 . S
C1333 C1332 1.391 . S
C1333 C1337 1.376 . S
C1334 C1332 1.394 . S
C1334 C1335 1.369 . S
C1334 C1338 1.531 . S
C1335 C1334 1.369 . S
C1335 C1336 1.410 . S
C1335 C1343 1.503 . S
C1336 C1335 1.410 . S
C1336 C1337 1.392 . S
C1336 C1339 1.511 . S
C1337 C1333 1.376 . S
C1337 C1336 1.392 . S
C1337 H1349 0.929 . S
C1338 C1334 1.531 . S
C1338 H1350 0.960 . S
C1338 H1351 0.962 . S
C1338 H1352 0.960 . S
C1339 C1336 1.511 . S
C1339 H1353 0.961 . S
C1339 H1354 0.961 . S
C1339 H1355 0.961 . S
C1340 C1341 1.370 . S
C1340 C1342 1.363 . S
C1340 H1356 0.931 . S
C1341 C1340 1.370 . S
C1341 C1345 1.408 . S
C1342 C1340 1.363 . S
C1342 C1343 1.370 . S
C1342 C1346 1.524 . S
C1343 C1335 1.503 . S
C1343 C1342 1.370 . S
C1343 C1344 1.403 . S
C1344 C1343 1.403 . S
C1344 C1345 1.404 . S
C1344 C1347 1.539 . S
C1345 C1341 1.408 . S
C1345 C1344 1.404 . S
C1345 H1357 0.930 . S
C1346 C1342 1.524 . S
C1346 H1358 0.956 . S
C1346 H1359 0.961 . S
C1346 H1360 0.961 . S
C1347 C1344 1.539 . S
C1347 H1361 0.958 . S
C1347 H1362 0.961 . S
C1347 H1363 0.960 . S
H1348 C1332 0.931 . S
H1349 C1337 0.929 . S
H1350 C1338 0.960 . S
H1351 C1338 0.962 . S
H1352 C1338 0.960 . S
H1353 C1339 0.961 . S
H1354 C1339 0.961 . S
H1355 C1339 0.961 . S
H1356 C1340 0.931 . S
H1357 C1345 0.930 . S
H1358 C1346 0.956 . S
H1359 C1346 0.961 . S
H1360 C1346 0.961 . S
H1361 C1347 0.958 . S
H1362 C1347 0.961 . S
H1363 C1347 0.960 . S
C1364 C1365 1.391 . S
C1364 C1366 1.394 . S
C1364 H1380 0.931 . S
C1365 C1364 1.391 . S
C1365 C1369 1.376 . S
C1366 C1364 1.394 . S
C1366 C1367 1.369 . S
C1366 C1370 1.531 . S
C1367 C1366 1.369 . S
C1367 C1368 1.410 . S
C1367 C1375 1.503 . S
C1368 C1367 1.410 . S
C1368 C1369 1.392 . S
C1368 C1371 1.511 . S
C1369 C1365 1.376 . S
C1369 C1368 1.392 . S
C1369 H1381 0.929 . S
C1370 C1366 1.531 . S
C1370 H1382 0.960 . S
C1370 H1383 0.962 . S
C1370 H1384 0.960 . S
C1371 C1368 1.511 . S
C1371 H1385 0.961 . S
C1371 H1386 0.961 . S
C1371 H1387 0.961 . S
C1372 C1373 1.370 . S
C1372 C1374 1.363 . S
C1372 H1388 0.931 . S
C1373 C1372 1.370 . S
C1373 C1377 1.408 . S
C1374 C1372 1.363 . S
C1374 C1375 1.370 . S
C1374 C1378 1.524 . S
C1375 C1367 1.503 . S
C1375 C1374 1.370 . S
C1375 C1376 1.403 . S
C1376 C1375 1.403 . S
C1376 C1377 1.404 . S
C1376 C1379 1.539 . S
C1377 C1373 1.408 . S
C1377 C1376 1.404 . S
C1377 H1389 0.930 . S
C1378 C1374 1.524 . S
C1378 H1390 0.956 . S
C1378 H1391 0.961 . S
C1378 H1392 0.961 . S
C1379 C1376 1.539 . S
C1379 H1393 0.958 . S
C1379 H1394 0.961 . S
C1379 H1395 0.960 . S
H1380 C1364 0.931 . S
H1381 C1369 0.929 . S
H1382 C1370 0.960 . S
H1383 C1370 0.962 . S
H1384 C1370 0.960 . S
H1385 C1371 0.961 . S
H1386 C1371 0.961 . S
H1387 C1371 0.961 . S
H1388 C1372 0.931 . S
H1389 C1377 0.930 . S
H1390 C1378 0.956 . S
H1391 C1378 0.961 . S
H1392 C1378 0.961 . S
H1393 C1379 0.958 . S
H1394 C1379 0.961 . S
H1395 C1379 0.960 . S
C1396 C1397 1.391 . S
C1396 C1398 1.394 . S
C1396 H1412 0.931 . S
C1397 C1396 1.391 . S
C1397 C1401 1.376 . S
C1398 C1396 1.394 . S
C1398 C1399 1.369 . S
C1398 C1402 1.531 . S
C1399 C1398 1.369 . S
C1399 C1400 1.410 . S
C1399 C1407 1.503 . S
C1400 C1399 1.410 . S
C1400 C1401 1.392 . S
C1400 C1403 1.511 . S
C1401 C1397 1.376 . S
C1401 C1400 1.392 . S
C1401 H1413 0.929 . S
C1402 C1398 1.531 . S
C1402 H1414 0.960 . S
C1402 H1415 0.962 . S
C1402 H1416 0.960 . S
C1403 C1400 1.511 . S
C1403 H1417 0.961 . S
C1403 H1418 0.961 . S
C1403 H1419 0.961 . S
C1404 C1405 1.370 . S
C1404 C1406 1.363 . S
C1404 H1420 0.931 . S
C1405 C1404 1.370 . S
C1405 C1409 1.408 . S
C1406 C1404 1.363 . S
C1406 C1407 1.370 . S
C1406 C1410 1.524 . S
C1407 C1399 1.503 . S
C1407 C1406 1.370 . S
C1407 C1408 1.403 . S
C1408 C1407 1.403 . S
C1408 C1409 1.404 . S
C1408 C1411 1.539 . S
C1409 C1405 1.408 . S
C1409 C1408 1.404 . S
C1409 H1421 0.930 . S
C1410 C1406 1.524 . S
C1410 H1422 0.956 . S
C1410 H1423 0.961 . S
C1410 H1424 0.961 . S
C1411 C1408 1.539 . S
C1411 H1425 0.958 . S
C1411 H1426 0.961 . S
C1411 H1427 0.960 . S
H1412 C1396 0.931 . S
H1413 C1401 0.929 . S
H1414 C1402 0.960 . S
H1415 C1402 0.962 . S
H1416 C1402 0.960 . S
H1417 C1403 0.961 . S
H1418 C1403 0.961 . S
H1419 C1403 0.961 . S
H1420 C1404 0.931 . S
H1421 C1409 0.930 . S
H1422 C1410 0.956 . S
H1423 C1410 0.961 . S
H1424 C1410 0.961 . S
H1425 C1411 0.958 . S
H1426 C1411 0.961 . S
H1427 C1411 0.960 . S
C1428 C1429 1.391 . S
C1428 C1430 1.394 . S
C1428 H1444 0.931 . S
C1429 C1428 1.391 . S
C1429 C1433 1.376 . S
C1430 C1428 1.394 . S
C1430 C1431 1.369 . S
C1430 C1434 1.531 . S
C1431 C1430 1.369 . S
C1431 C1432 1.410 . S
C1431 C1439 1.503 . S
C1432 C1431 1.410 . S
C1432 C1433 1.392 . S
C1432 C1435 1.511 . S
C1433 C1429 1.376 . S
C1433 C1432 1.392 . S
C1433 H1445 0.929 . S
C1434 C1430 1.531 . S
C1434 H1446 0.960 . S
C1434 H1447 0.962 . S
C1434 H1448 0.960 . S
C1435 C1432 1.511 . S
C1435 H1449 0.961 . S
C1435 H1450 0.961 . S
C1435 H1451 0.961 . S
C1436 C1437 1.370 . S
C1436 C1438 1.363 . S
C1436 H1452 0.931 . S
C1437 C1436 1.370 . S
C1437 C1441 1.408 . S
C1438 C1436 1.363 . S
C1438 C1439 1.370 . S
C1438 C1442 1.524 . S
C1439 C1431 1.503 . S
C1439 C1438 1.370 . S
C1439 C1440 1.403 . S
C1440 C1439 1.403 . S
C1440 C1441 1.404 . S
C1440 C1443 1.539 . S
C1441 C1437 1.408 . S
C1441 C1440 1.404 . S
C1441 H1453 0.930 . S
C1442 C1438 1.524 . S
C1442 H1454 0.956 . S
C1442 H1455 0.961 . S
C1442 H1456 0.961 . S
C1443 C1440 1.539 . S
C1443 H1457 0.958 . S
C1443 H1458 0.961 . S
C1443 H1459 0.960 . S
H1444 C1428 0.931 . S
H1445 C1433 0.929 . S
H1446 C1434 0.960 . S
H1447 C1434 0.962 . S
H1448 C1434 0.960 . S
H1449 C1435 0.961 . S
H1450 C1435 0.961 . S
H1451 C1435 0.961 . S
H1452 C1436 0.931 . S
H1453 C1441 0.930 . S
H1454 C1442 0.956 . S
H1455 C1442 0.961 . S
H1456 C1442 0.961 . S
H1457 C1443 0.958 . S
H1458 C1443 0.961 . S
H1459 C1443 0.960 . S
C1460 C1461 1.391 . S
C1460 C1462 1.394 . S
C1460 H1476 0.931 . S
C1461 C1460 1.391 . S
C1461 C1465 1.376 . S
C1462 C1460 1.394 . S
C1462 C1463 1.369 . S
C1462 C1466 1.531 . S
C1463 C1462 1.369 . S
C1463 C1464 1.410 . S
C1463 C1471 1.503 . S
C1464 C1463 1.410 . S
C1464 C1465 1.392 . S
C1464 C1467 1.511 . S
C1465 C1461 1.376 . S
C1465 C1464 1.392 . S
C1465 H1477 0.929 . S
C1466 C1462 1.531 . S
C1466 H1478 0.960 . S
C1466 H1479 0.962 . S
C1466 H1480 0.960 . S
C1467 C1464 1.511 . S
C1467 H1481 0.961 . S
C1467 H1482 0.961 . S
C1467 H1483 0.961 . S
C1468 C1469 1.370 . S
C1468 C1470 1.363 . S
C1468 H1484 0.931 . S
C1469 C1468 1.370 . S
C1469 C1473 1.408 . S
C1470 C1468 1.363 . S
C1470 C1471 1.370 . S
C1470 C1474 1.524 . S
C1471 C1463 1.503 . S
C1471 C1470 1.370 . S
C1471 C1472 1.403 . S
C1472 C1471 1.403 . S
C1472 C1473 1.404 . S
C1472 C1475 1.539 . S
C1473 C1469 1.408 . S
C1473 C1472 1.404 . S
C1473 H1485 0.930 . S
C1474 C1470 1.524 . S
C1474 H1486 0.956 . S
C1474 H1487 0.961 . S
C1474 H1488 0.961 . S
C1475 C1472 1.539 . S
C1475 H1489 0.958 . S
C1475 H1490 0.961 . S
C1475 H1491 0.960 . S
H1476 C1460 0.931 . S
H1477 C1465 0.929 . S
H1478 C1466 0.960 . S
H1479 C1466 0.962 . S
H1480 C1466 0.960 . S
H1481 C1467 0.961 . S
H1482 C1467 0.961 . S
H1483 C1467 0.961 . S
H1484 C1468 0.931 . S
H1485 C1473 0.930 . S
H1486 C1474 0.956 . S
H1487 C1474 0.961 . S
H1488 C1474 0.961 . S
H1489 C1475 0.958 . S
H1490 C1475 0.961 . S
H1491 C1475 0.960 . S
C1492 C1493 1.391 . S
C1492 C1494 1.394 . S
C1492 H1508 0.931 . S
C1493 C1492 1.391 . S
C1493 C1497 1.376 . S
C1494 C1492 1.394 . S
C1494 C1495 1.369 . S
C1494 C1498 1.531 . S
C1495 C1494 1.369 . S
C1495 C1496 1.410 . S
C1495 C1503 1.503 . S
C1496 C1495 1.410 . S
C1496 C1497 1.392 . S
C1496 C1499 1.511 . S
C1497 C1493 1.376 . S
C1497 C1496 1.392 . S
C1497 H1509 0.929 . S
C1498 C1494 1.531 . S
C1498 H1510 0.960 . S
C1498 H1511 0.962 . S
C1498 H1512 0.960 . S
C1499 C1496 1.511 . S
C1499 H1513 0.961 . S
C1499 H1514 0.961 . S
C1499 H1515 0.961 . S
C1500 C1501 1.370 . S
C1500 C1502 1.363 . S
C1500 H1516 0.931 . S
C1501 C1500 1.370 . S
C1501 C1505 1.408 . S
C1502 C1500 1.363 . S
C1502 C1503 1.370 . S
C1502 C1506 1.524 . S
C1503 C1495 1.503 . S
C1503 C1502 1.370 . S
C1503 C1504 1.403 . S
C1504 C1503 1.403 . S
C1504 C1505 1.404 . S
C1504 C1507 1.539 . S
C1505 C1501 1.408 . S
C1505 C1504 1.404 . S
C1505 H1517 0.930 . S
C1506 C1502 1.524 . S
C1506 H1518 0.956 . S
C1506 H1519 0.961 . S
C1506 H1520 0.961 . S
C1507 C1504 1.539 . S
C1507 H1521 0.958 . S
C1507 H1522 0.961 . S
C1507 H1523 0.960 . S
H1508 C1492 0.931 . S
H1509 C1497 0.929 . S
H1510 C1498 0.960 . S
H1511 C1498 0.962 . S
H1512 C1498 0.960 . S
H1513 C1499 0.961 . S
H1514 C1499 0.961 . S
H1515 C1499 0.961 . S
H1516 C1500 0.931 . S
H1517 C1505 0.930 . S
H1518 C1506 0.956 . S
H1519 C1506 0.961 . S
H1520 C1506 0.961 . S
H1521 C1507 0.958 . S
H1522 C1507 0.961 . S
H1523 C1507 0.960 . S
C1524 C1525 1.391 . S
C1524 C1526 1.394 . S
C1524 H1540 0.931 . S
C1525 C1524 1.391 . S
C1525 C1529 1.376 . S
C1526 C1524 1.394 . S
C1526 C1527 1.369 . S
C1526 C1530 1.531 . S
C1527 C1526 1.369 . S
C1527 C1528 1.410 . S
C1527 C1535 1.503 . S
C1528 C1527 1.410 . S
C1528 C1529 1.392 . S
C1528 C1531 1.511 . S
C1529 C1525 1.376 . S
C1529 C1528 1.392 . S
C1529 H1541 0.929 . S
C1530 C1526 1.531 . S
C1530 H1542 0.960 . S
C1530 H1543 0.962 . S
C1530 H1544 0.960 . S
C1531 C1528 1.511 . S
C1531 H1545 0.961 . S
C1531 H1546 0.961 . S
C1531 H1547 0.961 . S
C1532 C1533 1.370 . S
C1532 C1534 1.363 . S
C1532 H1548 0.931 . S
C1533 C1532 1.370 . S
C1533 C1537 1.408 . S
C1534 C1532 1.363 . S
C1534 C1535 1.370 . S
C1534 C1538 1.524 . S
C1535 C1527 1.503 . S
C1535 C1534 1.370 . S
C1535 C1536 1.403 . S
C1536 C1535 1.403 . S
C1536 C1537 1.404 . S
C1536 C1539 1.539 . S
C1537 C1533 1.408 . S
C1537 C1536 1.404 . S
C1537 H1549 0.930 . S
C1538 C1534 1.524 . S
C1538 H1550 0.956 . S
C1538 H1551 0.961 . S
C1538 H1552 0.961 . S
C1539 C1536 1.539 . S
C1539 H1553 0.958 . S
C1539 H1554 0.961 . S
C1539 H1555 0.960 . S
H1540 C1524 0.931 . S
H1541 C1529 0.929 . S
H1542 C1530 0.960 . S
H1543 C1530 0.962 . S
H1544 C1530 0.960 . S
H1545 C1531 0.961 . S
H1546 C1531 0.961 . S
H1547 C1531 0.961 . S
H1548 C1532 0.931 . S
H1549 C1537 0.930 . S
H1550 C1538 0.956 . S
H1551 C1538 0.961 . S
H1552 C1538 0.961 . S
H1553 C1539 0.958 . S
H1554 C1539 0.961 . S
H1555 C1539 0.960 . S
C1556 C1557 1.391 . S
C1556 C1558 1.394 . S
C1556 H1572 0.931 . S
C1557 C1556 1.391 . S
C1557 C1561 1.376 . S
C1558 C1556 1.394 . S
C1558 C1559 1.369 . S
C1558 C1562 1.531 . S
C1559 C1558 1.369 . S
C1559 C1560 1.410 . S
C1559 C1567 1.503 1_565 S
C1560 C1559 1.410 . S
C1560 C1561 1.392 . S
C1560 C1563 1.511 1_565 S
C1561 C1557 1.376 . S
C1561 C1560 1.392 . S
C1561 H1573 0.929 . S
C1562 C1558 1.531 . S
C1562 H1574 0.960 . S
C1562 H1575 0.962 . S
C1562 H1576 0.960 . S
C1563 C1560 1.511 1_545 S
C1563 H1577 0.961 . S
C1563 H1578 0.961 . S
C1563 H1579 0.961 . S
C1564 C1565 1.370 . S
C1564 C1566 1.363 . S
C1564 H1580 0.931 . S
C1565 C1564 1.370 . S
C1565 C1569 1.408 . S
C1566 C1564 1.363 . S
C1566 C1567 1.370 . S
C1566 C1570 1.524 . S
C1567 C1559 1.503 1_545 S
C1567 C1566 1.370 . S
C1567 C1568 1.403 . S
C1568 C1567 1.403 . S
C1568 C1569 1.404 . S
C1568 C1571 1.539 1_545 S
C1569 C1565 1.408 . S
C1569 C1568 1.404 . S
C1569 H1581 0.930 . S
C1570 C1566 1.524 . S
C1570 H1582 0.956 . S
C1570 H1583 0.961 . S
C1570 H1584 0.961 . S
C1571 C1568 1.539 1_565 S
C1571 H1585 0.958 . S
C1571 H1586 0.961 1_565 S
C1571 H1587 0.960 . S
H1572 C1556 0.931 . S
H1573 C1561 0.929 . S
H1574 C1562 0.960 . S
H1575 C1562 0.962 . S
H1576 C1562 0.960 . S
H1577 C1563 0.961 . S
H1578 C1563 0.961 . S
H1579 C1563 0.961 . S
H1580 C1564 0.931 . S
H1581 C1569 0.930 . S
H1582 C1570 0.956 . S
H1583 C1570 0.961 . S
H1584 C1570 0.961 . S
H1585 C1571 0.958 . S
H1586 C1571 0.961 1_545 S
H1587 C1571 0.960 . S
C1588 C1589 1.391 . S
C1588 C1590 1.394 . S
C1588 H1604 0.931 . S
C1589 C1588 1.391 . S
C1589 C1593 1.376 . S
C1590 C1588 1.394 . S
C1590 C1591 1.369 . S
C1590 C1594 1.531 1_655 S
C1591 C1590 1.369 . S
C1591 C1592 1.410 . S
C1591 C1599 1.503 1_655 S
C1592 C1591 1.410 . S
C1592 C1593 1.392 . S
C1592 C1595 1.511 . S
C1593 C1589 1.376 . S
C1593 C1592 1.392 . S
C1593 H1605 0.929 . S
C1594 C1590 1.531 1_455 S
C1594 H1606 0.960 . S
C1594 H1607 0.962 . S
C1594 H1608 0.960 . S
C1595 C1592 1.511 . S
C1595 H1609 0.961 . S
C1595 H1610 0.961 . S
C1595 H1611 0.961 . S
C1596 C1597 1.370 . S
C1596 C1598 1.363 . S
C1596 H1612 0.931 . S
C1597 C1596 1.370 . S
C1597 C1601 1.408 . S
C1598 C1596 1.363 . S
C1598 C1599 1.370 . S
C1598 C1602 1.524 . S
C1599 C1591 1.503 1_455 S
C1599 C1598 1.370 . S
C1599 C1600 1.403 . S
C1600 C1599 1.403 . S
C1600 C1601 1.404 . S
C1600 C1603 1.539 1_455 S
C1601 C1597 1.408 . S
C1601 C1600 1.404 . S
C1601 H1613 0.930 . S
C1602 C1598 1.524 . S
C1602 H1614 0.956 . S
C1602 H1615 0.961 . S
C1602 H1616 0.961 . S
C1603 C1600 1.539 1_655 S
C1603 H1617 0.958 . S
C1603 H1618 0.961 . S
C1603 H1619 0.960 . S
H1604 C1588 0.931 . S
H1605 C1593 0.929 . S
H1606 C1594 0.960 . S
H1607 C1594 0.962 . S
H1608 C1594 0.960 . S
H1609 C1595 0.961 . S
H1610 C1595 0.961 . S
H1611 C1595 0.961 . S
H1612 C1596 0.931 . S
H1613 C1601 0.930 . S
H1614 C1602 0.956 . S
H1615 C1602 0.961 . S
H1616 C1602 0.961 . S
H1617 C1603 0.958 . S
H1618 C1603 0.961 . S
H1619 C1603 0.960 . S
C757 C156 1.215 . S
C765 C67 1.347 1_554 S
C789 C240 1.166 . S
C797 C151 1.323 1_554 S
C821 C235 1.360 1_554 S
C829 C72 1.144 . S
C853 C231 1.126 . S
C861 C140 1.320 . S
C885 C224 1.315 . S
C893 C63 1.149 . S
C917 C56 1.315 . S
C925 C147 1.195 . S
C949 C319 1.287 . S
C957 C408 1.187 . S
C981 C492 1.241 . S
C989 C403 1.324 . S
C1013 C487 1.288 . S
C1021 C324 1.194 . S
C1045 C392 1.332 . S
C1053 C483 1.153 . S
C1077 C476 1.315 . S
C1085 C315 1.197 . S
C1109 C399 1.153 . S
C1117 C308 1.335 . S
C1141 C660 1.122 . S
C1149 C571 1.334 . S
C1173 C655 1.323 . S
C1181 C744 1.154 . S
C1205 C739 1.354 . S
C1213 C576 1.144 . S
C1237 C735 1.139 . S
C1245 C644 1.319 . S
C1269 C728 1.339 . S
C1277 C567 1.199 . S
C1301 C560 1.330 . S
C1309 C651 1.202 . S
C1333 C495 2.581 . S
C1341 C66 2.628 . S
C1365 C327 2.559 . S
C1373 C150 2.636 . S
C1397 C234 2.626 . S
C1405 C411 2.575 . S
C1429 C243 2.568 . S
C1437 C570 2.637 . S
C1461 C75 2.567 . S
C1469 C654 2.622 . S
C1493 C738 2.604 . S
C1501 C159 2.564 . S
C1525 C318 2.642 . S
C1533 C747 2.566 . S
C1557 C402 2.611 . S
C1565 C579 2.555 . S
C1589 C663 2.582 . S
C1597 C486 2.629 . S
