# Generated by pormake.
# Topology cbo, (4)-cn, num edge types: 1
# Building blocks:
#     Node 0, Type 0, BuildingBlock: KUFVIS_clean_sbu_0, # of connection points: 4
#     Node 1, Type 0, BuildingBlock: KUFVIS_clean_sbu_0, # of connection points: 4
#     Node 2, Type 0, BuildingBlock: KUFVIS_clean_sbu_0, # of connection points: 4
#     Node 3, Type 0, BuildingBlock: KUFVIS_clean_sbu_0, # of connection points: 4
#     Node 4, Type 0, BuildingBlock: KUFVIS_clean_sbu_0, # of connection points: 4
#     Node 5, Type 0, BuildingBlock: KUFVIS_clean_sbu_0, # of connection points: 4
#     Node 6, Type 0, BuildingBlock: KUFVIS_clean_sbu_0, # of connection points: 4
#     Node 7, Type 0, BuildingBlock: KUFVIS_clean_sbu_0, # of connection points: 4
#     Node 8, Type 0, BuildingBlock: KUFVIS_clean_sbu_0, # of connection points: 4
#     Node 9, Type 0, BuildingBlock: KUFVIS_clean_sbu_0, # of connection points: 4
#     Node 10, Type 0, BuildingBlock: KUFVIS_clean_sbu_0, # of connection points: 4
#     Node 11, Type 0, BuildingBlock: KUFVIS_clean_sbu_0, # of connection points: 4
#     Node 12, Type 0, BuildingBlock: KUFVIS_clean_sbu_0, # of connection points: 4
#     Node 13, Type 0, BuildingBlock: KUFVIS_clean_sbu_0, # of connection points: 4
#     Node 14, Type 0, BuildingBlock: KUFVIS_clean_sbu_0, # of connection points: 4
#     Node 15, Type 0, BuildingBlock: KUFVIS_clean_sbu_0, # of connection points: 4
#     Node 16, Type 0, BuildingBlock: KUFVIS_clean_sbu_0, # of connection points: 4
#     Node 17, Type 0, BuildingBlock: KUFVIS_clean_sbu_0, # of connection points: 4
#     Node 18, Type 0, BuildingBlock: KUFVIS_clean_sbu_0, # of connection points: 4
#     Node 19, Type 0, BuildingBlock: KUFVIS_clean_sbu_0, # of connection points: 4
#     Node 20, Type 0, BuildingBlock: KUFVIS_clean_sbu_0, # of connection points: 4
#     Node 21, Type 0, BuildingBlock: KUFVIS_clean_sbu_0, # of connection points: 4
#     Node 22, Type 0, BuildingBlock: KUFVIS_clean_sbu_0, # of connection points: 4
#     Node 23, Type 0, BuildingBlock: KUFVIS_clean_sbu_0, # of connection points: 4
#     Edge 24, Type (0, 0), BuildingBlock: TEMPAE_clean_linker_10, # of connection points: 2
#     Edge 25, Type (0, 0), BuildingBlock: TEMPAE_clean_linker_10, # of connection points: 2
#     Edge 26, Type (0, 0), BuildingBlock: TEMPAE_clean_linker_10, # of connection points: 2
#     Edge 27, Type (0, 0), BuildingBlock: TEMPAE_clean_linker_10, # of connection points: 2
#     Edge 28, Type (0, 0), BuildingBlock: TEMPAE_clean_linker_10, # of connection points: 2
#     Edge 29, Type (0, 0), BuildingBlock: TEMPAE_clean_linker_10, # of connection points: 2
#     Edge 30, Type (0, 0), BuildingBlock: TEMPAE_clean_linker_10, # of connection points: 2
#     Edge 31, Type (0, 0), BuildingBlock: TEMPAE_clean_linker_10, # of connection points: 2
#     Edge 32, Type (0, 0), BuildingBlock: TEMPAE_clean_linker_10, # of connection points: 2
#     Edge 33, Type (0, 0), BuildingBlock: TEMPAE_clean_linker_10, # of connection points: 2
#     Edge 34, Type (0, 0), BuildingBlock: TEMPAE_clean_linker_10, # of connection points: 2
#     Edge 35, Type (0, 0), BuildingBlock: TEMPAE_clean_linker_10, # of connection points: 2
#     Edge 36, Type (0, 0), BuildingBlock: TEMPAE_clean_linker_10, # of connection points: 2
#     Edge 37, Type (0, 0), BuildingBlock: TEMPAE_clean_linker_10, # of connection points: 2
#     Edge 38, Type (0, 0), BuildingBlock: TEMPAE_clean_linker_10, # of connection points: 2
#     Edge 39, Type (0, 0), BuildingBlock: TEMPAE_clean_linker_10, # of connection points: 2
#     Edge 40, Type (0, 0), BuildingBlock: TEMPAE_clean_linker_10, # of connection points: 2
#     Edge 41, Type (0, 0), BuildingBlock: TEMPAE_clean_linker_10, # of connection points: 2
#     Edge 42, Type (0, 0), BuildingBlock: TEMPAE_clean_linker_10, # of connection points: 2
#     Edge 43, Type (0, 0), BuildingBlock: TEMPAE_clean_linker_10, # of connection points: 2
#     Edge 44, Type (0, 0), BuildingBlock: TEMPAE_clean_linker_10, # of connection points: 2
#     Edge 45, Type (0, 0), BuildingBlock: TEMPAE_clean_linker_10, # of connection points: 2
#     Edge 46, Type (0, 0), BuildingBlock: TEMPAE_clean_linker_10, # of connection points: 2
#     Edge 47, Type (0, 0), BuildingBlock: TEMPAE_clean_linker_10, # of connection points: 2
#     Edge 48, Type (0, 0), BuildingBlock: TEMPAE_clean_linker_10, # of connection points: 2
#     Edge 49, Type (0, 0), BuildingBlock: TEMPAE_clean_linker_10, # of connection points: 2
#     Edge 50, Type (0, 0), BuildingBlock: TEMPAE_clean_linker_10, # of connection points: 2
#     Edge 51, Type (0, 0), BuildingBlock: TEMPAE_clean_linker_10, # of connection points: 2
#     Edge 52, Type (0, 0), BuildingBlock: TEMPAE_clean_linker_10, # of connection points: 2
#     Edge 53, Type (0, 0), BuildingBlock: TEMPAE_clean_linker_10, # of connection points: 2
#     Edge 54, Type (0, 0), BuildingBlock: TEMPAE_clean_linker_10, # of connection points: 2
#     Edge 55, Type (0, 0), BuildingBlock: TEMPAE_clean_linker_10, # of connection points: 2
#     Edge 56, Type (0, 0), BuildingBlock: TEMPAE_clean_linker_10, # of connection points: 2
#     Edge 57, Type (0, 0), BuildingBlock: TEMPAE_clean_linker_10, # of connection points: 2
#     Edge 58, Type (0, 0), BuildingBlock: TEMPAE_clean_linker_10, # of connection points: 2
#     Edge 59, Type (0, 0), BuildingBlock: TEMPAE_clean_linker_10, # of connection points: 2
#     Edge 60, Type (0, 0), BuildingBlock: TEMPAE_clean_linker_10, # of connection points: 2
#     Edge 61, Type (0, 0), BuildingBlock: TEMPAE_clean_linker_10, # of connection points: 2
#     Edge 62, Type (0, 0), BuildingBlock: TEMPAE_clean_linker_10, # of connection points: 2
#     Edge 63, Type (0, 0), BuildingBlock: TEMPAE_clean_linker_10, # of connection points: 2
#     Edge 64, Type (0, 0), BuildingBlock: TEMPAE_clean_linker_10, # of connection points: 2
#     Edge 65, Type (0, 0), BuildingBlock: TEMPAE_clean_linker_10, # of connection points: 2
#     Edge 66, Type (0, 0), BuildingBlock: TEMPAE_clean_linker_10, # of connection points: 2
#     Edge 67, Type (0, 0), BuildingBlock: TEMPAE_clean_linker_10, # of connection points: 2
#     Edge 68, Type (0, 0), BuildingBlock: TEMPAE_clean_linker_10, # of connection points: 2
#     Edge 69, Type (0, 0), BuildingBlock: TEMPAE_clean_linker_10, # of connection points: 2
#     Edge 70, Type (0, 0), BuildingBlock: TEMPAE_clean_linker_10, # of connection points: 2
#     Edge 71, Type (0, 0), BuildingBlock: TEMPAE_clean_linker_10, # of connection points: 2
# Relax obj value: 0.204
# Max RMSD: 0.226
# Mean RMSD: 0.214
data_MOF--net-cbo--node1-KUFVIS_clean_sbu_0--edge1-TEMPAE_clean_linker_10
_symmetry_space_group_name_H-M    P1
_symmetry_Int_Tables_number       1
_symmetry_cell_setting            triclinic
loop_
_symmetry_equiv_pos_as_xyz
'x, y, z'
_cell_length_a     51.797962
_cell_length_b     51.311514
_cell_length_c     52.661646
_cell_angle_alpha  89.987439
_cell_angle_beta   90.005035
_cell_angle_gamma 89.994472
loop_
_atom_site_label
_atom_site_type_symbol
_atom_site_fract_x
_atom_site_fract_y
_atom_site_fract_z
_atom_type_partial_charge
Mn0 Mn 0.14244 0.16595 0.33497 0.0
Mn1 Mn 0.14758 0.10283 0.35174 0.0
C2 C 0.18126 0.14454 0.33025 0.0
C3 C 0.13286 0.19689 0.30391 0.0
C4 C 0.14631 0.1472 0.38993 0.0
O5 O 0.10531 0.15426 0.33733 0.0
O6 O 0.11035 0.11161 0.34643 0.0
C7 C 0.13014 0.07813 0.30394 0.0
N8 N 0.14867 0.08153 0.32199 0.0
C9 C 0.17756 0.05227 0.30037 0.0
C10 C 0.15871 0.0483 0.28165 0.0
C11 C 0.13492 0.06131 0.28344 0.0
C12 C 0.17158 0.06899 0.32054 0.0
H13 H 0.1119 0.08824 0.30515 0.0
C14 C 0.09622 0.13159 0.34162 0.0
O15 O 0.13183 0.20279 0.32791 0.0
O16 O 0.13864 0.17303 0.29827 0.0
N17 N 0.18258 0.0921 0.35699 0.0
C18 C 0.19939 0.09967 0.37548 0.0
C19 C 0.22455 0.08947 0.37567 0.0
C20 C 0.23214 0.07159 0.3569 0.0
C21 C 0.21446 0.06399 0.33815 0.0
C22 C 0.18957 0.07464 0.33904 0.0
H23 H 0.19374 0.11361 0.38979 0.0
O24 O 0.18055 0.16977 0.33174 0.0
O25 O 0.15911 0.13269 0.3317 0.0
O26 O 0.14505 0.16579 0.37384 0.0
O27 O 0.14716 0.12318 0.38356 0.0
C28 C 0.22074 0.04677 0.31826 0.0
C29 C 0.2023 0.04087 0.29941 0.0
H30 H 0.16243 0.03559 0.26565 0.0
H31 H 0.12034 0.05849 0.26898 0.0
H32 H 0.23812 0.09552 0.39013 0.0
H33 H 0.25165 0.064 0.35694 0.0
H34 H 0.23984 0.03825 0.31708 0.0
H35 H 0.2075 0.02793 0.28399 0.0
Mn36 Mn 0.35542 0.82972 0.83388 0.0
Mn37 Mn 0.35016 0.89285 0.85053 0.0
C38 C 0.31656 0.85104 0.82912 0.0
C39 C 0.36506 0.79879 0.80282 0.0
C40 C 0.35148 0.84853 0.8888 0.0
O41 O 0.39253 0.84148 0.83624 0.0
O42 O 0.3874 0.88414 0.84523 0.0
C43 C 0.36754 0.91751 0.80268 0.0
N44 N 0.34903 0.9141 0.82074 0.0
C45 C 0.32008 0.94329 0.79907 0.0
C46 C 0.33891 0.94725 0.78034 0.0
C47 C 0.36273 0.93428 0.78215 0.0
C48 C 0.32609 0.9266 0.81927 0.0
H49 H 0.3858 0.90743 0.8039 0.0
C50 C 0.40157 0.86418 0.84047 0.0
O51 O 0.36608 0.79288 0.82682 0.0
O52 O 0.35925 0.82264 0.79718 0.0
N53 N 0.31515 0.90353 0.85576 0.0
C54 C 0.29836 0.89596 0.87427 0.0
C55 C 0.27318 0.90611 0.87444 0.0
C56 C 0.26555 0.92396 0.85565 0.0
C57 C 0.28322 0.93156 0.83688 0.0
C58 C 0.30811 0.92095 0.83779 0.0
H59 H 0.30404 0.88205 0.88861 0.0
O60 O 0.31732 0.82581 0.83062 0.0
O61 O 0.33868 0.86294 0.83054 0.0
O62 O 0.35278 0.82991 0.87275 0.0
O63 O 0.35062 0.87254 0.88237 0.0
C64 C 0.27689 0.94874 0.81696 0.0
C65 C 0.29532 0.95464 0.7981 0.0
H66 H 0.33516 0.95994 0.76431 0.0
H67 H 0.37729 0.93711 0.76768 0.0
H68 H 0.25962 0.90006 0.88893 0.0
H69 H 0.24602 0.93151 0.85567 0.0
H70 H 0.25779 0.95723 0.81577 0.0
H71 H 0.29009 0.96755 0.78266 0.0
Mn72 Mn 0.64332 0.3286 0.66535 0.0
Mn73 Mn 0.64826 0.39175 0.64867 0.0
C74 C 0.68214 0.35006 0.6699 0.0
C75 C 0.63394 0.29769 0.69651 0.0
C76 C 0.64689 0.34744 0.61041 0.0
O77 O 0.60616 0.34022 0.66314 0.0
O78 O 0.61108 0.38291 0.65418 0.0
C79 C 0.63109 0.41631 0.69663 0.0
N80 N 0.6495 0.41299 0.67845 0.0
C81 C 0.67847 0.44228 0.69995 0.0
C82 C 0.65974 0.44616 0.7188 0.0
C83 C 0.63596 0.4331 0.71714 0.0
C84 C 0.67239 0.42558 0.67979 0.0
H85 H 0.61286 0.40616 0.69552 0.0
C86 C 0.59701 0.36289 0.65898 0.0
O87 O 0.63283 0.29173 0.67253 0.0
O88 O 0.63969 0.32157 0.70207 0.0
N89 N 0.6832 0.40256 0.64323 0.0
C90 C 0.6999 0.39506 0.62462 0.0
C91 C 0.72503 0.40532 0.62429 0.0
C92 C 0.73271 0.42319 0.64303 0.0
C93 C 0.71513 0.43071 0.66191 0.0
C94 C 0.69028 0.42 0.66116 0.0
H95 H 0.69419 0.38114 0.61032 0.0
O96 O 0.68147 0.32483 0.66843 0.0
O97 O 0.65996 0.36187 0.66858 0.0
O98 O 0.64578 0.3288 0.62645 0.0
O99 O 0.64768 0.37145 0.61685 0.0
C100 C 0.72151 0.44791 0.68179 0.0
C101 C 0.70318 0.45373 0.70077 0.0
H102 H 0.66354 0.45885 0.7348 0.0
H103 H 0.62148 0.43586 0.7317 0.0
H104 H 0.73852 0.39933 0.60972 0.0
H105 H 0.7522 0.43082 0.64289 0.0
H106 H 0.74059 0.45649 0.68286 0.0
H107 H 0.70846 0.46665 0.71618 0.0
Mn108 Mn 0.85379 0.66656 0.16439 0.0
Mn109 Mn 0.84895 0.60339 0.14776 0.0
C110 C 0.81504 0.645 0.16906 0.0
C111 C 0.86318 0.69752 0.1955 0.0
C112 C 0.85015 0.64769 0.10947 0.0
O113 O 0.89097 0.65502 0.16213 0.0
O114 O 0.88612 0.61232 0.15317 0.0
C115 C 0.86632 0.57886 0.19568 0.0
N116 N 0.84784 0.58215 0.17755 0.0
C117 C 0.819 0.5528 0.19914 0.0
C118 C 0.83779 0.54895 0.21794 0.0
C119 C 0.86154 0.56206 0.2162 0.0
C120 C 0.82498 0.56952 0.17896 0.0
H121 H 0.88453 0.58904 0.19451 0.0
C122 C 0.90016 0.63237 0.15794 0.0
O123 O 0.86423 0.70346 0.1715 0.0
O124 O 0.85747 0.67364 0.20111 0.0
N125 N 0.81402 0.59251 0.14242 0.0
C126 C 0.79724 0.59998 0.12386 0.0
C127 C 0.77212 0.58968 0.12361 0.0
C128 C 0.76454 0.5718 0.14238 0.0
C129 C 0.78219 0.56431 0.16121 0.0
C130 C 0.80703 0.57506 0.16038 0.0
H131 H 0.80289 0.61392 0.10954 0.0
O132 O 0.81565 0.67024 0.16755 0.0
O133 O 0.83724 0.63324 0.16769 0.0
O134 O 0.85127 0.66634 0.1255 0.0
O135 O 0.8494 0.62368 0.11592 0.0
C136 C 0.7759 0.5471 0.18112 0.0
C137 C 0.79431 0.54131 0.20004 0.0
H138 H 0.83407 0.53625 0.23396 0.0
H139 H 0.87608 0.55932 0.23072 0.0
H140 H 0.75858 0.59565 0.10908 0.0
H141 H 0.74506 0.56414 0.1423 0.0
H142 H 0.75684 0.5385 0.18225 0.0
H143 H 0.7891 0.52838 0.21547 0.0
Mn144 Mn 0.34922 0.11709 0.17349 0.0
Mn145 Mn 0.35651 0.1162 0.11 0.0
C146 C 0.34588 0.15513 0.15017 0.0
C147 C 0.32239 0.11392 0.20872 0.0
C148 C 0.40153 0.11391 0.14664 0.0
O149 O 0.34545 0.07869 0.16518 0.0
O150 O 0.34987 0.08034 0.12268 0.0
C151 C 0.30278 0.10177 0.09701 0.0
N152 N 0.32298 0.11864 0.09505 0.0
C153 C 0.29874 0.14691 0.06749 0.0
C154 C 0.27771 0.12979 0.06912 0.0
C155 C 0.27971 0.10718 0.08404 0.0
C156 C 0.32111 0.14067 0.08112 0.0
H157 H 0.30426 0.08433 0.10839 0.0
C158 C 0.34626 0.0678 0.14343 0.0
O159 O 0.34705 0.10976 0.21081 0.0
O160 O 0.31344 0.11895 0.1863 0.0
N161 N 0.36279 0.14963 0.09512 0.0
C162 C 0.38483 0.16412 0.09555 0.0
C163 C 0.38599 0.18744 0.08163 0.0
C164 C 0.36465 0.1954 0.0671 0.0
C165 C 0.34237 0.1799 0.06656 0.0
C166 C 0.34228 0.15694 0.08093 0.0
H167 H 0.40138 0.15797 0.10649 0.0
O168 O 0.35104 0.156 0.17426 0.0
O169 O 0.34275 0.13202 0.14071 0.0
O170 O 0.38807 0.11469 0.16695 0.0
O171 O 0.39172 0.11443 0.12434 0.0
C172 C 0.32034 0.18617 0.05212 0.0
C173 C 0.29845 0.16984 0.05279 0.0
H174 H 0.25994 0.13382 0.059 0.0
H175 H 0.26354 0.09391 0.08544 0.0
H176 H 0.4033 0.19924 0.08205 0.0
H177 H 0.36561 0.2134 0.0564 0.0
H178 H 0.32 0.20358 0.04049 0.0
H179 H 0.28151 0.17507 0.04185 0.0
Mn180 Mn 0.14847 0.87857 0.67243 0.0
Mn181 Mn 0.14128 0.87991 0.60894 0.0
C182 C 0.15167 0.84067 0.6489 0.0
C183 C 0.17525 0.88145 0.70771 0.0
C184 C 0.09623 0.88221 0.64551 0.0
O185 O 0.15243 0.91699 0.66434 0.0
O186 O 0.14807 0.91567 0.62182 0.0
C187 C 0.19511 0.89415 0.59612 0.0
N188 N 0.17483 0.87739 0.59404 0.0
C189 C 0.19901 0.84912 0.56644 0.0
C190 C 0.22012 0.86613 0.56819 0.0
C191 C 0.21819 0.88868 0.58319 0.0
C192 C 0.17663 0.85542 0.58001 0.0
H193 H 0.19369 0.91154 0.60758 0.0
C194 C 0.1517 0.92804 0.64266 0.0
O195 O 0.1506 0.88569 0.70978 0.0
O196 O 0.18422 0.87646 0.68529 0.0
N197 N 0.13488 0.8466 0.59387 0.0
C198 C 0.11277 0.8322 0.59421 0.0
C199 C 0.11155 0.80894 0.58021 0.0
C200 C 0.13289 0.80095 0.5657 0.0
C201 C 0.15523 0.81635 0.56527 0.0
C202 C 0.15539 0.83925 0.57971 0.0
H203 H 0.09624 0.83837 0.60515 0.0
O204 O 0.14647 0.83966 0.67298 0.0
O205 O 0.15492 0.86383 0.63958 0.0
O206 O 0.10966 0.88121 0.66583 0.0
O207 O 0.10605 0.88177 0.62322 0.0
C208 C 0.17728 0.81002 0.55088 0.0
C209 C 0.19925 0.82625 0.55166 0.0
H210 H 0.23791 0.86206 0.55812 0.0
H211 H 0.23442 0.90187 0.5847 0.0
H212 H 0.09418 0.79721 0.58056 0.0
H213 H 0.13188 0.78299 0.55494 0.0
H214 H 0.17757 0.79266 0.5392 0.0
H215 H 0.2162 0.82098 0.54077 0.0
Mn216 Mn 0.85037 0.37883 0.82602 0.0
Mn217 Mn 0.85743 0.38064 0.88952 0.0
C218 C 0.84686 0.34116 0.84986 0.0
C219 C 0.8237 0.38158 0.79065 0.0
C220 C 0.90259 0.38216 0.85303 0.0
O221 O 0.84671 0.41737 0.83375 0.0
O222 O 0.85101 0.41633 0.87628 0.0
C223 C 0.8037 0.39553 0.90203 0.0
N224 N 0.82382 0.37861 0.90434 0.0
C225 C 0.7993 0.35088 0.93218 0.0
C226 C 0.77835 0.36806 0.93019 0.0
C227 C 0.78053 0.39043 0.91495 0.0
C228 C 0.82178 0.3568 0.9186 0.0
H229 H 0.80531 0.41279 0.89039 0.0
C230 C 0.84751 0.42858 0.85536 0.0
O231 O 0.84839 0.38562 0.7886 0.0
O232 O 0.81464 0.37691 0.8131 0.0
N233 N 0.86349 0.34743 0.90495 0.0
C234 C 0.88548 0.33286 0.90488 0.0
C235 C 0.88647 0.30976 0.91916 0.0
C236 C 0.86501 0.30212 0.93368 0.0
C237 C 0.84279 0.31773 0.93386 0.0
C238 C 0.84287 0.34044 0.91914 0.0
H239 H 0.90211 0.33876 0.89394 0.0
O240 O 0.85208 0.33991 0.8258 0.0
O241 O 0.84373 0.36441 0.85899 0.0
O242 O 0.8892 0.38118 0.83268 0.0
O243 O 0.89271 0.38201 0.8753 0.0
C244 C 0.82066 0.31178 0.94827 0.0
C245 C 0.79883 0.32818 0.94723 0.0
H246 H 0.76051 0.36427 0.94026 0.0
H247 H 0.76443 0.40376 0.91326 0.0
H248 H 0.90374 0.29789 0.91902 0.0
H249 H 0.86584 0.28429 0.94467 0.0
H250 H 0.82019 0.29457 0.96017 0.0
H251 H 0.78181 0.3232 0.95814 0.0
Mn252 Mn 0.64709 0.61682 0.32562 0.0
Mn253 Mn 0.63976 0.61562 0.3891 0.0
C254 C 0.65066 0.65471 0.34914 0.0
C255 C 0.67388 0.6137 0.29037 0.0
C256 C 0.59475 0.61387 0.35242 0.0
O257 O 0.65062 0.57834 0.33373 0.0
O258 O 0.6462 0.57981 0.37623 0.0
C259 C 0.69339 0.60077 0.40204 0.0
N260 N 0.67329 0.61775 0.40408 0.0
C261 C 0.69767 0.64566 0.43185 0.0
C262 C 0.7186 0.62842 0.43014 0.0
C263 C 0.71648 0.60594 0.41507 0.0
C264 C 0.67528 0.63967 0.41816 0.0
H265 H 0.69182 0.58341 0.39055 0.0
C266 C 0.64975 0.56735 0.35544 0.0
O267 O 0.6492 0.60971 0.28827 0.0
O268 O 0.68288 0.61853 0.31281 0.0
N269 N 0.63367 0.64899 0.40418 0.0
C270 C 0.6117 0.6636 0.40385 0.0
C271 C 0.61066 0.68681 0.41794 0.0
C272 C 0.63204 0.69454 0.43253 0.0
C273 C 0.65423 0.6789 0.43297 0.0
C274 C 0.65421 0.65607 0.41843 0.0
H275 H 0.59513 0.65763 0.39286 0.0
O276 O 0.64552 0.65576 0.32505 0.0
O277 O 0.65365 0.63153 0.35848 0.0
O278 O 0.60823 0.61466 0.33213 0.0
O279 O 0.60454 0.61417 0.37473 0.0
C280 C 0.67627 0.68493 0.44748 0.0
C281 C 0.69808 0.66847 0.44672 0.0
H282 H 0.73638 0.63226 0.44031 0.0
H283 H 0.73257 0.59256 0.4136 0.0
H284 H 0.59341 0.6987 0.41759 0.0
H285 H 0.63116 0.71245 0.44337 0.0
H286 H 0.6767 0.70223 0.45924 0.0
H287 H 0.71503 0.67351 0.45772 0.0
Mn288 Mn 0.19757 0.33005 0.12878 0.0
Mn289 Mn 0.25105 0.35815 0.10475 0.0
C290 C 0.23303 0.30497 0.11897 0.0
C291 C 0.17442 0.31773 0.16485 0.0
C292 C 0.20373 0.34568 0.07297 0.0
O293 O 0.19122 0.36835 0.13531 0.0
O294 O 0.22826 0.38508 0.12011 0.0
C295 C 0.27352 0.37417 0.15401 0.0
N296 N 0.27553 0.36072 0.1318 0.0
C297 C 0.31735 0.3442 0.14349 0.0
C298 C 0.3158 0.35799 0.16642 0.0
C299 C 0.29376 0.373 0.17172 0.0
C300 C 0.29651 0.34599 0.12664 0.0
H301 H 0.25656 0.38561 0.15823 0.0
C302 C 0.20608 0.38752 0.1306 0.0
O303 O 0.16287 0.32057 0.14307 0.0
O304 O 0.19886 0.32285 0.16553 0.0
N305 N 0.27518 0.33476 0.08932 0.0
C306 C 0.27413 0.32358 0.06587 0.0
C307 C 0.29494 0.30835 0.05738 0.0
C308 C 0.31676 0.30509 0.07291 0.0
C309 C 0.31773 0.31744 0.09664 0.0
C310 C 0.29649 0.33255 0.10399 0.0
H311 H 0.25746 0.32608 0.05382 0.0
O312 O 0.21056 0.29426 0.12168 0.0
O313 O 0.23422 0.32991 0.12303 0.0
O314 O 0.19017 0.33572 0.09085 0.0
O315 O 0.22653 0.35482 0.07618 0.0
C316 C 0.33905 0.31562 0.11315 0.0
C317 C 0.33876 0.32877 0.13667 0.0
H318 H 0.33139 0.35718 0.18011 0.0
H319 H 0.29237 0.38362 0.18942 0.0
H320 H 0.29413 0.29906 0.03895 0.0
H321 H 0.3327 0.29321 0.06635 0.0
H322 H 0.35583 0.30424 0.10792 0.0
H323 H 0.3552 0.32707 0.14927 0.0
Mn324 Mn 0.69924 0.16621 0.87288 0.0
Mn325 Mn 0.75272 0.13835 0.89721 0.0
C326 C 0.73454 0.19143 0.88286 0.0
C327 C 0.67625 0.17836 0.83665 0.0
C328 C 0.70513 0.15054 0.9287 0.0
O329 O 0.69313 0.12789 0.8663 0.0
O330 O 0.73014 0.1113 0.88173 0.0
C331 C 0.77555 0.12241 0.84809 0.0
N332 N 0.77736 0.13589 0.8703 0.0
C333 C 0.81916 0.1526 0.85884 0.0
C334 C 0.81782 0.13878 0.83592 0.0
C335 C 0.79589 0.12366 0.8305 0.0
C336 C 0.79824 0.15072 0.87557 0.0
H337 H 0.75867 0.11088 0.84379 0.0
C338 C 0.70803 0.10877 0.87112 0.0
O339 O 0.66458 0.17548 0.85836 0.0
O340 O 0.70072 0.17341 0.83613 0.0
N341 N 0.77663 0.1619 0.91274 0.0
C342 C 0.77534 0.17318 0.93614 0.0
C343 C 0.79601 0.18856 0.94472 0.0
C344 C 0.81791 0.19188 0.92932 0.0
C345 C 0.81911 0.17945 0.90565 0.0
C346 C 0.79801 0.1642 0.8982 0.0
H347 H 0.75859 0.17064 0.94808 0.0
O348 O 0.71203 0.20205 0.88006 0.0
O349 O 0.73584 0.1665 0.87882 0.0
O350 O 0.69164 0.16045 0.91075 0.0
O351 O 0.72801 0.14155 0.92563 0.0
C352 C 0.84052 0.18135 0.88926 0.0
C353 C 0.84045 0.16815 0.86577 0.0
H354 H 0.83349 0.13966 0.82232 0.0
H355 H 0.79466 0.11301 0.81281 0.0
H356 H 0.79502 0.19792 0.96311 0.0
H357 H 0.83373 0.20389 0.93594 0.0
H358 H 0.85721 0.19283 0.89457 0.0
H359 H 0.85696 0.16991 0.85326 0.0
Mn360 Mn 0.79912 0.82942 0.37175 0.0
Mn361 Mn 0.74565 0.85718 0.39618 0.0
C362 C 0.76377 0.80417 0.38154 0.0
C363 C 0.82211 0.81744 0.33547 0.0
C364 C 0.79319 0.84472 0.42766 0.0
O365 O 0.8053 0.86779 0.36543 0.0
O366 O 0.76828 0.88429 0.3809 0.0
C367 C 0.7229 0.87349 0.34713 0.0
N368 N 0.72104 0.85988 0.36926 0.0
C369 C 0.67917 0.8434 0.3577 0.0
C370 C 0.68057 0.85737 0.33485 0.0
C371 C 0.70256 0.87243 0.32953 0.0
C372 C 0.70011 0.84508 0.37444 0.0
H373 H 0.73982 0.88499 0.3429 0.0
C374 C 0.79042 0.88688 0.37035 0.0
O375 O 0.83377 0.82015 0.3572 0.0
O376 O 0.79765 0.82248 0.33495 0.0
N377 N 0.72167 0.83358 0.41155 0.0
C378 C 0.7229 0.82217 0.4349 0.0
C379 C 0.70217 0.80683 0.44339 0.0
C380 C 0.68026 0.80369 0.42798 0.0
C381 C 0.67911 0.81627 0.40436 0.0
C382 C 0.70028 0.83147 0.39699 0.0
H383 H 0.73966 0.82458 0.44685 0.0
O384 O 0.78627 0.79354 0.37869 0.0
O385 O 0.7625 0.82913 0.37765 0.0
O386 O 0.80669 0.8349 0.40967 0.0
O387 O 0.77032 0.85375 0.42461 0.0
C388 C 0.65769 0.81457 0.38797 0.0
C389 C 0.65782 0.82791 0.36454 0.0
H390 H 0.6649 0.85664 0.32125 0.0
H391 H 0.70383 0.88319 0.3119 0.0
H392 H 0.70313 0.79736 0.46173 0.0
H393 H 0.66438 0.79173 0.43454 0.0
H394 H 0.64094 0.80315 0.39323 0.0
H395 H 0.64129 0.8263 0.35203 0.0
Mn396 Mn 0.29974 0.66583 0.62761 0.0
Mn397 Mn 0.24629 0.63759 0.60366 0.0
C398 C 0.26429 0.69084 0.61761 0.0
C399 C 0.32284 0.67832 0.66366 0.0
C400 C 0.29367 0.64989 0.57189 0.0
O401 O 0.30607 0.62756 0.63438 0.0
O402 O 0.26906 0.61074 0.6192 0.0
C403 C 0.22375 0.62183 0.65296 0.0
N404 N 0.22178 0.63516 0.63068 0.0
C405 C 0.17996 0.65178 0.64223 0.0
C406 C 0.18147 0.6381 0.66523 0.0
C407 C 0.20349 0.6231 0.67064 0.0
C408 C 0.20081 0.64988 0.62542 0.0
H409 H 0.2407 0.6104 0.65727 0.0
C410 C 0.29123 0.60836 0.62975 0.0
O411 O 0.33442 0.67535 0.64192 0.0
O412 O 0.29839 0.67323 0.66433 0.0
N413 N 0.22219 0.66092 0.58807 0.0
C414 C 0.2233 0.67201 0.56458 0.0
C415 C 0.20251 0.68723 0.55599 0.0
C416 C 0.18068 0.69058 0.57147 0.0
C417 C 0.17966 0.67831 0.59525 0.0
C418 C 0.20086 0.66321 0.6027 0.0
H419 H 0.23999 0.66946 0.55258 0.0
O420 O 0.28677 0.70158 0.62029 0.0
O421 O 0.2631 0.66593 0.62182 0.0
O422 O 0.3072 0.65994 0.58974 0.0
O423 O 0.27086 0.64077 0.57511 0.0
C424 C 0.15833 0.68025 0.61173 0.0
C425 C 0.15857 0.6672 0.63531 0.0
H426 H 0.16586 0.639 0.6789 0.0
H427 H 0.20485 0.61257 0.68839 0.0
H428 H 0.20336 0.69645 0.53753 0.0
H429 H 0.16476 0.70245 0.56484 0.0
H430 H 0.14157 0.69163 0.60643 0.0
H431 H 0.14212 0.66898 0.64788 0.0
Mn432 Mn 0.85607 0.83755 0.66207 0.0
Mn433 Mn 0.85096 0.90186 0.65019 0.0
C434 C 0.81732 0.85846 0.66835 0.0
C435 C 0.86536 0.80404 0.69024 0.0
C436 C 0.85113 0.86075 0.60882 0.0
O437 O 0.89323 0.84929 0.66059 0.0
O438 O 0.88819 0.89239 0.65396 0.0
C439 C 0.86963 0.92216 0.69949 0.0
N440 N 0.85072 0.92053 0.68159 0.0
C441 C 0.82256 0.94802 0.70617 0.0
C442 C 0.84181 0.95014 0.72477 0.0
C443 C 0.86543 0.93714 0.72142 0.0
C444 C 0.82796 0.93308 0.68456 0.0
H445 H 0.88774 0.91204 0.69709 0.0
C446 C 0.90233 0.87215 0.65745 0.0
O447 O 0.86666 0.80023 0.66588 0.0
O448 O 0.85963 0.82725 0.69804 0.0
N449 N 0.81599 0.91337 0.64654 0.0
C450 C 0.79876 0.90769 0.62779 0.0
C451 C 0.77373 0.91813 0.62893 0.0
C452 C 0.7667 0.93435 0.64928 0.0
C453 C 0.78482 0.94006 0.66826 0.0
C454 C 0.80955 0.92926 0.66601 0.0
H455 H 0.80398 0.89503 0.61224 0.0
O456 O 0.81805 0.83343 0.66493 0.0
O457 O 0.83945 0.87047 0.668 0.0
O458 O 0.85309 0.841 0.62344 0.0
O459 O 0.85039 0.88423 0.6169 0.0
C460 C 0.77911 0.95552 0.68964 0.0
C461 C 0.79798 0.95954 0.70855 0.0
H462 H 0.83854 0.96144 0.74185 0.0
H463 H 0.88032 0.93855 0.73577 0.0
H464 H 0.75983 0.91355 0.61426 0.0
H465 H 0.74728 0.94211 0.65025 0.0
H466 H 0.76014 0.9641 0.6919 0.0
H467 H 0.79322 0.97112 0.72509 0.0
Mn468 Mn 0.64178 0.15905 0.16293 0.0
Mn469 Mn 0.64678 0.09464 0.15159 0.0
C470 C 0.68047 0.13811 0.16947 0.0
C471 C 0.6325 0.19279 0.19082 0.0
C472 C 0.64684 0.13542 0.10989 0.0
O473 O 0.60459 0.14739 0.16144 0.0
O474 O 0.60957 0.10423 0.15518 0.0
C475 C 0.62793 0.07481 0.20101 0.0
N476 N 0.64689 0.07623 0.18314 0.0
C477 C 0.6749 0.04885 0.20801 0.0
C478 C 0.6556 0.04694 0.22658 0.0
C479 C 0.63203 0.06 0.22307 0.0
C480 C 0.6696 0.06363 0.18627 0.0
H481 H 0.60986 0.08497 0.19848 0.0
C482 C 0.59545 0.12452 0.15847 0.0
O483 O 0.63127 0.19643 0.16643 0.0
O484 O 0.63814 0.16963 0.1988 0.0
N485 N 0.68172 0.083 0.14813 0.0
C486 C 0.69901 0.08847 0.12936 0.0
C487 C 0.72401 0.07794 0.13065 0.0
C488 C 0.73093 0.06187 0.15114 0.0
C489 C 0.71275 0.05637 0.17012 0.0
C490 C 0.68807 0.06724 0.16773 0.0
H491 H 0.69387 0.10102 0.1137 0.0
O492 O 0.67981 0.16312 0.16587 0.0
O493 O 0.65831 0.12614 0.16917 0.0
O494 O 0.64486 0.15529 0.12434 0.0
O495 O 0.64749 0.112 0.11815 0.0
C496 C 0.71836 0.04106 0.19164 0.0
C497 C 0.69943 0.03726 0.21054 0.0
H498 H 0.65879 0.03578 0.24376 0.0
H499 H 0.6171 0.05876 0.2374 0.0
H500 H 0.73796 0.08236 0.11598 0.0
H501 H 0.75033 0.05404 0.15223 0.0
H502 H 0.73728 0.03242 0.19401 0.0
H503 H 0.70411 0.02578 0.22718 0.0
Mn504 Mn 0.35462 0.66041 0.33701 0.0
Mn505 Mn 0.34954 0.59598 0.34824 0.0
C506 C 0.31582 0.63958 0.33073 0.0
C507 C 0.36375 0.69414 0.30904 0.0
C508 C 0.35006 0.63663 0.39003 0.0
O509 O 0.39179 0.64862 0.3382 0.0
O510 O 0.38673 0.60543 0.34424 0.0
C511 C 0.36773 0.57618 0.29857 0.0
N512 N 0.34899 0.57764 0.31666 0.0
C513 C 0.32059 0.5504 0.29209 0.0
C514 C 0.33966 0.54846 0.27328 0.0
C515 C 0.36332 0.56143 0.27654 0.0
C516 C 0.3262 0.56513 0.31378 0.0
H517 H 0.38586 0.58628 0.3009 0.0
C518 C 0.40088 0.6257 0.34095 0.0
O519 O 0.3652 0.69777 0.33342 0.0
O520 O 0.35799 0.67099 0.30111 0.0
N521 N 0.3146 0.58448 0.35207 0.0
C522 C 0.29754 0.59 0.37103 0.0
C523 C 0.2725 0.57957 0.37002 0.0
C524 C 0.26528 0.56355 0.34959 0.0
C525 C 0.28321 0.558 0.3304 0.0
C526 C 0.30797 0.56878 0.33253 0.0
H527 H 0.30291 0.60251 0.38665 0.0
O528 O 0.31656 0.66458 0.33436 0.0
O529 O 0.33795 0.62757 0.33086 0.0
O530 O 0.35184 0.65657 0.37563 0.0
O531 O 0.34932 0.61325 0.3817 0.0
C532 C 0.27731 0.54274 0.30894 0.0
C533 C 0.29599 0.5389 0.28982 0.0
H534 H 0.33623 0.53733 0.25613 0.0
H535 H 0.37806 0.56016 0.26204 0.0
H536 H 0.25873 0.58403 0.38485 0.0
H537 H 0.24584 0.5558 0.34872 0.0
H538 H 0.25833 0.53417 0.30678 0.0
H539 H 0.29108 0.52747 0.27322 0.0
Mn540 Mn 0.14268 0.33537 0.83805 0.0
Mn541 Mn 0.14784 0.39977 0.8494 0.0
C542 C 0.18148 0.35619 0.83171 0.0
C543 C 0.13342 0.30172 0.81003 0.0
C544 C 0.14734 0.359 0.89111 0.0
O545 O 0.10552 0.3472 0.83935 0.0
O546 O 0.11064 0.39038 0.8454 0.0
C547 C 0.12964 0.41976 0.7998 0.0
N548 N 0.14839 0.41821 0.81787 0.0
C549 C 0.17679 0.44553 0.79337 0.0
C550 C 0.1577 0.44756 0.77459 0.0
C551 C 0.13404 0.4346 0.77782 0.0
C552 C 0.17119 0.43072 0.81502 0.0
H553 H 0.11149 0.40967 0.80212 0.0
C554 C 0.09646 0.37013 0.84212 0.0
O555 O 0.13203 0.29803 0.83441 0.0
O556 O 0.1392 0.32488 0.80214 0.0
N557 N 0.18281 0.4112 0.85324 0.0
C558 C 0.19987 0.40559 0.87216 0.0
C559 C 0.22493 0.41598 0.87116 0.0
C560 C 0.23215 0.43209 0.85079 0.0
C561 C 0.2142 0.43773 0.83163 0.0
C562 C 0.18944 0.42697 0.83374 0.0
H563 H 0.19451 0.39302 0.88774 0.0
O564 O 0.18073 0.33118 0.8353 0.0
O565 O 0.15936 0.36821 0.83194 0.0
O566 O 0.14556 0.3391 0.87667 0.0
O567 O 0.14807 0.3824 0.88283 0.0
C568 C 0.2201 0.45308 0.81023 0.0
C569 C 0.2014 0.45702 0.79113 0.0
H570 H 0.16113 0.45876 0.75748 0.0
H571 H 0.11928 0.43594 0.76333 0.0
H572 H 0.23871 0.41145 0.88597 0.0
H573 H 0.25159 0.43982 0.84993 0.0
H574 H 0.23908 0.46165 0.80808 0.0
H575 H 0.2063 0.46851 0.77457 0.0
Mn576 Mn 0.64797 0.87298 0.82486 0.0
Mn577 Mn 0.64019 0.87411 0.88835 0.0
C578 C 0.65345 0.83543 0.8483 0.0
C579 C 0.67464 0.87758 0.78977 0.0
C580 C 0.59552 0.87528 0.85111 0.0
O581 O 0.65047 0.91131 0.83323 0.0
O582 O 0.64714 0.91021 0.87594 0.0
C583 C 0.69293 0.88938 0.90409 0.0
N584 N 0.67306 0.87202 0.90474 0.0
C585 C 0.69692 0.84331 0.93224 0.0
C586 C 0.71756 0.86098 0.932 0.0
C587 C 0.71556 0.88409 0.91784 0.0
C588 C 0.6747 0.84979 0.91845 0.0
H589 H 0.69156 0.9071 0.89311 0.0
C590 C 0.65044 0.92243 0.85489 0.0
O591 O 0.64981 0.8805 0.78764 0.0
O592 O 0.68383 0.87265 0.81213 0.0
N593 N 0.634 0.84019 0.90224 0.0
C594 C 0.61324 0.82426 0.8988 0.0
C595 C 0.61279 0.79973 0.9106 0.0
C596 C 0.63365 0.79183 0.92581 0.0
C597 C 0.65477 0.80856 0.92911 0.0
C598 C 0.65407 0.83287 0.91703 0.0
H599 H 0.59728 0.83012 0.88691 0.0
O600 O 0.64786 0.83408 0.8243 0.0
O601 O 0.65508 0.85875 0.85775 0.0
O602 O 0.60904 0.87389 0.83093 0.0
O603 O 0.60529 0.87574 0.87338 0.0
C604 C 0.67676 0.80182 0.94342 0.0
C605 C 0.6978 0.81919 0.94502 0.0
H606 H 0.73518 0.85682 0.94233 0.0
H607 H 0.73149 0.89774 0.91742 0.0
H608 H 0.59647 0.78686 0.90785 0.0
H609 H 0.63335 0.77277 0.93466 0.0
H610 H 0.67782 0.78317 0.95301 0.0
H611 H 0.71477 0.8136 0.95574 0.0
Mn612 Mn 0.84983 0.12318 0.32603 0.0
Mn613 Mn 0.85754 0.12169 0.38952 0.0
C614 C 0.84426 0.16058 0.34964 0.0
C615 C 0.82322 0.11872 0.29089 0.0
C616 C 0.90225 0.12083 0.35234 0.0
O617 O 0.8474 0.08481 0.33419 0.0
O618 O 0.85071 0.08563 0.3769 0.0
C619 C 0.80481 0.10617 0.40508 0.0
N620 N 0.82463 0.12359 0.40586 0.0
C621 C 0.80062 0.1521 0.43341 0.0
C622 C 0.78003 0.13437 0.43305 0.0
C623 C 0.78213 0.11133 0.4188 0.0
C624 C 0.82289 0.14574 0.41966 0.0
H625 H 0.80625 0.08852 0.39402 0.0
C626 C 0.84747 0.07354 0.35578 0.0
O627 O 0.84805 0.11587 0.28877 0.0
O628 O 0.81399 0.12352 0.31325 0.0
N629 N 0.86361 0.15554 0.4036 0.0
C630 C 0.88433 0.17154 0.40028 0.0
C631 C 0.88469 0.19602 0.41219 0.0
C632 C 0.86377 0.20379 0.42737 0.0
C633 C 0.84268 0.18698 0.43054 0.0
C634 C 0.84348 0.16273 0.41836 0.0
H635 H 0.90034 0.16579 0.3884 0.0
O636 O 0.84988 0.16208 0.32565 0.0
O637 O 0.84264 0.13721 0.35898 0.0
O638 O 0.88874 0.12231 0.33215 0.0
O639 O 0.89247 0.12024 0.37459 0.0
C640 C 0.82063 0.19359 0.44482 0.0
C641 C 0.79964 0.17615 0.44629 0.0
H642 H 0.76238 0.13842 0.44335 0.0
H643 H 0.76624 0.09764 0.41828 0.0
H644 H 0.90097 0.20895 0.40953 0.0
H645 H 0.86398 0.22281 0.4363 0.0
H646 H 0.81948 0.2122 0.45446 0.0
H647 H 0.78262 0.18164 0.45698 0.0
Mn648 Mn 0.14653 0.62395 0.17427 0.0
Mn649 Mn 0.13905 0.62198 0.11077 0.0
C650 C 0.15239 0.66112 0.15035 0.0
C651 C 0.17294 0.6197 0.20958 0.0
C652 C 0.0942 0.62168 0.14778 0.0
O653 O 0.14882 0.58548 0.16644 0.0
O654 O 0.14562 0.586 0.12372 0.0
C655 C 0.19175 0.606 0.09554 0.0
N656 N 0.17203 0.62353 0.09453 0.0
C657 C 0.1963 0.65162 0.06679 0.0
C658 C 0.21679 0.63377 0.06739 0.0
C659 C 0.21451 0.61088 0.08186 0.0
C660 C 0.17395 0.64554 0.08053 0.0
H661 H 0.19016 0.58846 0.10677 0.0
C662 C 0.14875 0.57405 0.14494 0.0
O663 O 0.14809 0.61697 0.2116 0.0
O664 O 0.18231 0.62423 0.18722 0.0
N665 N 0.13324 0.65575 0.09636 0.0
C666 C 0.1126 0.6719 0.09946 0.0
C667 C 0.11243 0.69627 0.08732 0.0
C668 C 0.13345 0.70376 0.07213 0.0
C669 C 0.15444 0.68679 0.06918 0.0
C670 C 0.15346 0.66266 0.0816 0.0
H671 H 0.09652 0.66637 0.11134 0.0
O672 O 0.14667 0.66285 0.17431 0.0
O673 O 0.15393 0.63766 0.14122 0.0
O674 O 0.10764 0.62321 0.168 0.0
O675 O 0.10405 0.62088 0.12556 0.0
C676 C 0.17657 0.69312 0.05491 0.0
C677 C 0.19747 0.67554 0.05368 0.0
H678 H 0.2345 0.63762 0.05711 0.0
H679 H 0.23031 0.5971 0.08256 0.0
H680 H 0.09622 0.70932 0.0898 0.0
H681 H 0.13337 0.72269 0.06301 0.0
H682 H 0.17786 0.71162 0.04508 0.0
H683 H 0.21455 0.68082 0.04298 0.0
Mn684 Mn 0.35061 0.37221 0.67511 0.0
Mn685 Mn 0.35824 0.37388 0.61162 0.0
C686 C 0.34469 0.33496 0.65134 0.0
C687 C 0.32415 0.3766 0.71036 0.0
C688 C 0.40302 0.37419 0.64873 0.0
O689 O 0.34842 0.41065 0.66712 0.0
O690 O 0.35178 0.40993 0.6244 0.0
C691 C 0.30565 0.39002 0.59618 0.0
N692 N 0.32531 0.3724 0.5953 0.0
C693 C 0.30101 0.34432 0.56757 0.0
C694 C 0.28059 0.36226 0.56804 0.0
C695 C 0.28293 0.38519 0.58243 0.0
C696 C 0.32334 0.35035 0.58137 0.0
H697 H 0.30728 0.4076 0.60733 0.0
C698 C 0.3486 0.42198 0.64556 0.0
O699 O 0.349 0.3793 0.71241 0.0
O700 O 0.31481 0.37204 0.68799 0.0
N701 N 0.36396 0.34003 0.59737 0.0
C702 C 0.38452 0.3238 0.6006 0.0
C703 C 0.38462 0.29938 0.58856 0.0
C704 C 0.36362 0.29193 0.57333 0.0
C705 C 0.34271 0.30898 0.57025 0.0
C706 C 0.34376 0.33315 0.58257 0.0
H707 H 0.40058 0.32931 0.61251 0.0
O708 O 0.35039 0.33331 0.67531 0.0
O709 O 0.34324 0.35838 0.64211 0.0
O710 O 0.38952 0.37282 0.66893 0.0
O711 O 0.39321 0.3749 0.62649 0.0
C712 C 0.3206 0.30269 0.55593 0.0
C713 C 0.29978 0.32036 0.55456 0.0
H714 H 0.2629 0.35846 0.55771 0.0
H715 H 0.26718 0.39904 0.58302 0.0
H716 H 0.40077 0.28627 0.59115 0.0
H717 H 0.36365 0.27296 0.5643 0.0
H718 H 0.31926 0.28416 0.54617 0.0
H719 H 0.28272 0.31512 0.54382 0.0
Mn720 Mn 0.82154 0.67616 0.87119 0.0
Mn721 Mn 0.8864 0.67116 0.87201 0.0
C722 C 0.84491 0.68471 0.835 0.0
C723 C 0.7841 0.70009 0.87673 0.0
C724 C 0.85088 0.62449 0.86847 0.0
O725 O 0.82967 0.67639 0.90873 0.0
O726 O 0.87303 0.67315 0.90764 0.0
C727 C 0.89855 0.7234 0.89266 0.0
N728 N 0.901 0.70532 0.87388 0.0
C729 C 0.92798 0.73401 0.84932 0.0
C730 C 0.92589 0.75287 0.86848 0.0
C731 C 0.9111 0.74753 0.89023 0.0
C732 C 0.91527 0.71021 0.85291 0.0
H733 H 0.88706 0.71946 0.90933 0.0
C734 C 0.85156 0.675 0.91972 0.0
O735 O 0.78371 0.67484 0.87813 0.0
O736 O 0.80617 0.71136 0.87303 0.0
N737 N 0.9017 0.66943 0.83895 0.0
C738 C 0.90031 0.64989 0.82148 0.0
C739 C 0.91313 0.65265 0.79813 0.0
C740 C 0.92734 0.67538 0.79305 0.0
C741 C 0.9287 0.6951 0.81143 0.0
C742 C 0.91567 0.69119 0.83442 0.0
H743 H 0.88924 0.63247 0.82519 0.0
O744 O 0.82073 0.67824 0.83355 0.0
O745 O 0.8547 0.68607 0.85774 0.0
O746 O 0.82986 0.63735 0.86933 0.0
O747 O 0.87315 0.63516 0.86935 0.0
C748 C 0.94198 0.71873 0.80759 0.0
C749 C 0.94165 0.73816 0.82654 0.0
H750 H 0.93533 0.7716 0.86658 0.0
H751 H 0.90927 0.76204 0.90503 0.0
H752 H 0.91192 0.63737 0.78402 0.0
H753 H 0.93695 0.67756 0.77491 0.0
H754 H 0.95221 0.72231 0.79 0.0
H755 H 0.95162 0.7564 0.82321 0.0
Mn756 Mn 0.32081 0.82013 0.12673 0.0
Mn757 Mn 0.38565 0.82542 0.12652 0.0
C758 C 0.34385 0.81209 0.16324 0.0
C759 C 0.28354 0.79593 0.12108 0.0
C760 C 0.3499 0.87196 0.12927 0.0
O761 O 0.32931 0.81956 0.08927 0.0
O762 O 0.37264 0.82308 0.09078 0.0
C763 C 0.39818 0.77303 0.10643 0.0
N764 N 0.40038 0.79129 0.12508 0.0
C765 C 0.42721 0.7629 0.15014 0.0
C766 C 0.42536 0.74387 0.13113 0.0
C767 C 0.41076 0.74896 0.10919 0.0
C768 C 0.41446 0.78663 0.14622 0.0
H769 H 0.38684 0.77678 0.08962 0.0
C770 C 0.3513 0.82101 0.0785 0.0
O771 O 0.28303 0.82117 0.11941 0.0
O772 O 0.30563 0.78483 0.1251 0.0
N773 N 0.40064 0.8275 0.1597 0.0
C774 C 0.39905 0.84721 0.17697 0.0
C775 C 0.41167 0.84471 0.20045 0.0
C776 C 0.42589 0.82207 0.20586 0.0
C777 C 0.42747 0.80218 0.18769 0.0
C778 C 0.41463 0.80582 0.16455 0.0
H779 H 0.38797 0.86456 0.173 0.0
O780 O 0.31963 0.81845 0.16438 0.0
O781 O 0.35388 0.81052 0.14062 0.0
O782 O 0.32893 0.859 0.12828 0.0
O783 O 0.37222 0.86137 0.12875 0.0
C784 C 0.44078 0.77862 0.19185 0.0
C785 C 0.44068 0.75901 0.17308 0.0
H786 H 0.43484 0.72518 0.13329 0.0
H787 H 0.40913 0.73431 0.0945 0.0
H788 H 0.41031 0.86013 0.2144 0.0
H789 H 0.43536 0.82009 0.22411 0.0
H790 H 0.45087 0.77523 0.20957 0.0
H791 H 0.45067 0.74083 0.17666 0.0
Mn792 Mn 0.17605 0.17593 0.62783 0.0
Mn793 Mn 0.11124 0.1703 0.62751 0.0
C794 C 0.15293 0.18374 0.66433 0.0
C795 C 0.21322 0.20032 0.62231 0.0
C796 C 0.14723 0.12395 0.63014 0.0
O797 O 0.1676 0.17661 0.59038 0.0
O798 O 0.12429 0.17281 0.59179 0.0
C799 C 0.09844 0.22267 0.60754 0.0
N800 N 0.09633 0.20435 0.62615 0.0
C801 C 0.06936 0.23253 0.65127 0.0
C802 C 0.07111 0.25162 0.6323 0.0
C803 C 0.08573 0.24667 0.61036 0.0
C804 C 0.08222 0.20887 0.6473 0.0
H805 H 0.10979 0.21902 0.59072 0.0
C806 C 0.14563 0.17505 0.57955 0.0
O807 O 0.21383 0.17509 0.62055 0.0
O808 O 0.19107 0.21131 0.62635 0.0
N809 N 0.09625 0.16803 0.66067 0.0
C810 C 0.09795 0.14828 0.67791 0.0
C811 C 0.08533 0.15066 0.7014 0.0
C812 C 0.07101 0.17321 0.70687 0.0
C813 C 0.06932 0.19315 0.68874 0.0
C814 C 0.08215 0.18962 0.66558 0.0
H815 H 0.10912 0.131 0.67389 0.0
O816 O 0.17717 0.17747 0.66549 0.0
O817 O 0.14292 0.18532 0.64169 0.0
O818 O 0.16813 0.13702 0.62923 0.0
O819 O 0.12485 0.13441 0.62965 0.0
C820 C 0.05591 0.21663 0.69296 0.0
C821 C 0.05589 0.23629 0.67423 0.0
H822 H 0.06154 0.27026 0.63451 0.0
H823 H 0.08729 0.26137 0.5957 0.0
H824 H 0.08679 0.13521 0.71532 0.0
H825 H 0.06155 0.1751 0.72512 0.0
H826 H 0.04583 0.21992 0.7107 0.0
H827 H 0.04582 0.25441 0.67786 0.0
Mn828 Mn 0.67607 0.31982 0.37223 0.0
Mn829 Mn 0.6112 0.32475 0.37285 0.0
C830 C 0.65284 0.31151 0.3359 0.0
C831 C 0.71349 0.29583 0.3778 0.0
C832 C 0.64669 0.37148 0.36971 0.0
O833 O 0.6678 0.31934 0.40974 0.0
O834 O 0.62444 0.3225 0.40851 0.0
C835 C 0.59905 0.27233 0.39308 0.0
N836 N 0.59664 0.29056 0.37442 0.0
C837 C 0.5698 0.26201 0.34956 0.0
C838 C 0.57186 0.24301 0.36859 0.0
C839 C 0.58656 0.2482 0.39043 0.0
C840 C 0.58246 0.28581 0.35336 0.0
H841 H 0.61047 0.27616 0.40982 0.0
C842 C 0.64587 0.3206 0.42065 0.0
O843 O 0.71388 0.32108 0.37934 0.0
O844 O 0.69143 0.2846 0.37393 0.0
N845 N 0.59602 0.32672 0.33974 0.0
C846 C 0.59742 0.34641 0.32242 0.0
C847 C 0.58468 0.34382 0.29902 0.0
C848 C 0.57053 0.32111 0.29372 0.0
C849 C 0.56915 0.30123 0.31194 0.0
C850 C 0.5821 0.30497 0.33501 0.0
H851 H 0.60845 0.36381 0.3263 0.0
O852 O 0.67702 0.31798 0.33458 0.0
O853 O 0.64297 0.30999 0.3586 0.0
O854 O 0.66774 0.35864 0.37056 0.0
O855 O 0.62443 0.36077 0.37047 0.0
C856 C 0.55592 0.27761 0.30789 0.0
C857 C 0.55622 0.25803 0.3267 0.0
H858 H 0.56245 0.22428 0.36652 0.0
H859 H 0.58835 0.23357 0.40514 0.0
H860 H 0.5859 0.35921 0.28502 0.0
H861 H 0.56097 0.31906 0.27554 0.0
H862 H 0.54575 0.27416 0.29024 0.0
H863 H 0.54629 0.2398 0.3232 0.0
C864 C 0.17636 0.30168 0.20929 0.0
C865 C 0.16161 0.3064 0.18743 0.0
C866 C 0.16673 0.28659 0.22927 0.0
C867 C 0.14142 0.27634 0.22768 0.0
C868 C 0.12552 0.28306 0.20677 0.0
C869 C 0.13591 0.29782 0.18666 0.0
C870 C 0.18452 0.27978 0.25105 0.0
C871 C 0.09811 0.27333 0.20486 0.0
C872 C 0.13789 0.21024 0.25883 0.0
C873 C 0.13035 0.21669 0.28362 0.0
C874 C 0.13991 0.22932 0.23995 0.0
C875 C 0.13365 0.2555 0.24579 0.0
C876 C 0.12388 0.26178 0.27016 0.0
C877 C 0.12268 0.24232 0.28898 0.0
C878 C 0.15077 0.22173 0.21435 0.0
C879 C 0.1161 0.28927 0.27683 0.0
H880 H 0.19614 0.30852 0.21024 0.0
H881 H 0.12428 0.30165 0.16996 0.0
H882 H 0.17499 0.28376 0.26949 0.0
H883 H 0.1891 0.25865 0.25045 0.0
H884 H 0.20294 0.29086 0.25035 0.0
H885 H 0.08671 0.28482 0.19093 0.0
H886 H 0.09818 0.25269 0.1986 0.0
H887 H 0.08837 0.27417 0.22361 0.0
H888 H 0.1437 0.19045 0.25446 0.0
H889 H 0.11651 0.24736 0.30802 0.0
H890 H 0.17001 0.23089 0.21178 0.0
H891 H 0.13811 0.2289 0.19888 0.0
H892 H 0.15296 0.2003 0.2123 0.0
H893 H 0.13362 0.30101 0.28077 0.0
H894 H 0.10358 0.28982 0.29395 0.0
H895 H 0.10574 0.29862 0.26078 0.0
C896 C 0.37485 0.75327 0.78791 0.0
C897 C 0.36756 0.77901 0.78252 0.0
C898 C 0.37354 0.73385 0.76908 0.0
C899 C 0.36404 0.74029 0.74463 0.0
C900 C 0.35822 0.76656 0.73876 0.0
C901 C 0.36034 0.78559 0.75767 0.0
C902 C 0.38086 0.70624 0.77579 0.0
C903 C 0.34768 0.77434 0.71308 0.0
C904 C 0.36147 0.69789 0.68557 0.0
C905 C 0.33565 0.68968 0.68623 0.0
C906 C 0.37196 0.71256 0.70569 0.0
C907 C 0.35604 0.71957 0.72649 0.0
C908 C 0.33056 0.70974 0.72795 0.0
C909 C 0.32083 0.69471 0.70798 0.0
C910 C 0.39952 0.72186 0.70392 0.0
C911 C 0.31275 0.71688 0.7496 0.0
H912 H 0.38078 0.74812 0.80701 0.0
H913 H 0.35484 0.80547 0.75326 0.0
H914 H 0.36313 0.69476 0.77959 0.0
H915 H 0.3912 0.69675 0.75982 0.0
H916 H 0.39323 0.70549 0.79301 0.0
H917 H 0.34587 0.79581 0.71099 0.0
H918 H 0.3603 0.76693 0.6977 0.0
H919 H 0.32829 0.76553 0.71038 0.0
H920 H 0.37314 0.6938 0.66897 0.0
H921 H 0.30095 0.68817 0.70884 0.0
H922 H 0.40914 0.72092 0.72273 0.0
H923 H 0.39981 0.74247 0.6976 0.0
H924 H 0.41084 0.71015 0.69009 0.0
H925 H 0.32208 0.71273 0.76811 0.0
H926 H 0.29414 0.70614 0.74879 0.0
H927 H 0.30855 0.73808 0.74896 0.0
C928 C 0.63866 0.28471 0.74173 0.0
C929 C 0.63153 0.27797 0.71689 0.0
C930 C 0.64082 0.26579 0.76075 0.0
C931 C 0.63512 0.23946 0.75501 0.0
C932 C 0.62573 0.23285 0.73056 0.0
C933 C 0.62438 0.25217 0.71162 0.0
C934 C 0.65124 0.27375 0.78641 0.0
C935 C 0.61855 0.20518 0.72399 0.0
C936 C 0.67836 0.19436 0.79219 0.0
C937 C 0.66347 0.18946 0.81393 0.0
C938 C 0.66864 0.20915 0.77204 0.0
C939 C 0.64311 0.21889 0.77332 0.0
C940 C 0.62714 0.21199 0.79411 0.0
C941 C 0.63761 0.19755 0.8144 0.0
C942 C 0.68651 0.21618 0.7504 0.0
C943 C 0.59952 0.22118 0.79569 0.0
H944 H 0.64405 0.30463 0.74605 0.0
H945 H 0.61852 0.24689 0.69254 0.0
H946 H 0.63857 0.26642 0.80179 0.0
H947 H 0.67063 0.265 0.78925 0.0
H948 H 0.65299 0.29524 0.78837 0.0
H949 H 0.60622 0.20428 0.70675 0.0
H950 H 0.63633 0.19375 0.72029 0.0
H951 H 0.60821 0.19572 0.73998 0.0
H952 H 0.69828 0.18791 0.79147 0.0
H953 H 0.62589 0.19356 0.831 0.0
H954 H 0.69065 0.2374 0.75091 0.0
H955 H 0.67726 0.21188 0.73189 0.0
H956 H 0.70514 0.20549 0.75135 0.0
H957 H 0.59912 0.24185 0.80182 0.0
H958 H 0.58821 0.20955 0.80958 0.0
H959 H 0.58999 0.22002 0.77685 0.0
C960 C 0.87331 0.74292 0.21058 0.0
C961 C 0.8656 0.71728 0.21583 0.0
C962 C 0.87217 0.76229 0.22948 0.0
C963 C 0.8624 0.75592 0.25384 0.0
C964 C 0.85604 0.72973 0.25955 0.0
C965 C 0.85802 0.71074 0.24059 0.0
C966 C 0.88005 0.78978 0.22294 0.0
C967 C 0.84516 0.72204 0.28511 0.0
C968 C 0.8605 0.79768 0.31332 0.0
C969 C 0.83484 0.80636 0.31272 0.0
C970 C 0.87079 0.7831 0.29303 0.0
C971 C 0.8548 0.77668 0.2721 0.0
C972 C 0.82953 0.78706 0.27068 0.0
C973 C 0.82001 0.80196 0.29084 0.0
C974 C 0.89815 0.77323 0.29477 0.0
C975 C 0.81165 0.78057 0.24888 0.0
H976 H 0.87952 0.74802 0.19156 0.0
H977 H 0.85216 0.69094 0.24488 0.0
H978 H 0.86257 0.80161 0.21902 0.0
H979 H 0.89042 0.79902 0.23904 0.0
H980 H 0.89259 0.79037 0.20584 0.0
H981 H 0.8428 0.70061 0.28703 0.0
H982 H 0.8579 0.72899 0.30061 0.0
H983 H 0.826 0.73134 0.28779 0.0
H984 H 0.87219 0.80127 0.33003 0.0
H985 H 0.80025 0.80889 0.29001 0.0
H986 H 0.90785 0.77425 0.27601 0.0
H987 H 0.89801 0.75252 0.3008 0.0
H988 H 0.90964 0.7845 0.3088 0.0
H989 H 0.82117 0.78463 0.23046 0.0
H990 H 0.79332 0.79178 0.2497 0.0
H991 H 0.80692 0.75947 0.24934 0.0
C992 C 0.28777 0.13635 0.23214 0.0
C993 C 0.30519 0.11558 0.23085 0.0
C994 C 0.26985 0.13817 0.2519 0.0
C995 C 0.26872 0.11818 0.27042 0.0
C996 C 0.28663 0.0973 0.26951 0.0
C997 C 0.30501 0.09643 0.24981 0.0
C998 C 0.2516 0.16116 0.25245 0.0
C999 C 0.28552 0.07523 0.2884 0.0
C1000 C 0.22888 0.13942 0.32686 0.0
C1001 C 0.20412 0.13228 0.31881 0.0
C1002 C 0.25071 0.13277 0.31245 0.0
C1003 C 0.24752 0.11883 0.28944 0.0
C1004 C 0.22269 0.10997 0.2823 0.0
C1005 C 0.20122 0.11738 0.29675 0.0
C1006 C 0.27683 0.14268 0.32063 0.0
C1007 C 0.21854 0.09452 0.25826 0.0
H1008 H 0.28815 0.15126 0.21753 0.0
H1009 H 0.31843 0.08026 0.24859 0.0
H1010 H 0.23158 0.15443 0.24884 0.0
H1011 H 0.25187 0.17051 0.27144 0.0
H1012 H 0.25657 0.17609 0.23797 0.0
H1013 H 0.30382 0.06394 0.28876 0.0
H1014 H 0.28134 0.08244 0.30783 0.0
H1015 H 0.26966 0.0618 0.28298 0.0
H1016 H 0.231 0.15136 0.34372 0.0
H1017 H 0.182 0.11277 0.28996 0.0
H1018 H 0.28254 0.15923 0.30827 0.0
H1019 H 0.2917 0.12728 0.31851 0.0
H1020 H 0.27673 0.14951 0.34065 0.0
H1021 H 0.222 0.10716 0.24151 0.0
H1022 H 0.19862 0.0866 0.25695 0.0
H1023 H 0.23245 0.0781 0.25729 0.0
C1024 C 0.2965 0.87811 0.7956 0.0
C1025 C 0.29365 0.86324 0.8177 0.0
C1026 C 0.27499 0.88547 0.78118 0.0
C1027 C 0.25018 0.87658 0.78837 0.0
C1028 C 0.24706 0.86266 0.8114 0.0
C1029 C 0.26893 0.85607 0.8258 0.0
C1030 C 0.27907 0.9009 0.7571 0.0
C1031 C 0.22097 0.85272 0.81965 0.0
C1032 C 0.19262 0.8989 0.7488 0.0
C1033 C 0.19244 0.87975 0.72986 0.0
C1034 C 0.21103 0.89805 0.76849 0.0
C1035 C 0.22895 0.87718 0.76939 0.0
C1036 C 0.2278 0.85718 0.75089 0.0
C1037 C 0.20986 0.85898 0.73114 0.0
C1038 C 0.21214 0.92014 0.78736 0.0
C1039 C 0.24607 0.8342 0.75144 0.0
H1040 H 0.3157 0.88275 0.78878 0.0
H1041 H 0.26686 0.84414 0.84268 0.0
H1042 H 0.2756 0.88823 0.74038 0.0
H1043 H 0.26513 0.91729 0.75613 0.0
H1044 H 0.29897 0.90885 0.75575 0.0
H1045 H 0.22112 0.84591 0.83968 0.0
H1046 H 0.20608 0.86811 0.81755 0.0
H1047 H 0.21525 0.83616 0.80732 0.0
H1048 H 0.1792 0.91507 0.74758 0.0
H1049 H 0.20947 0.84407 0.71654 0.0
H1050 H 0.22794 0.93361 0.78186 0.0
H1051 H 0.21641 0.91295 0.80678 0.0
H1052 H 0.19381 0.93137 0.78776 0.0
H1053 H 0.26607 0.84095 0.74779 0.0
H1054 H 0.24107 0.81925 0.73699 0.0
H1055 H 0.24584 0.82488 0.77045 0.0
C1056 C 0.80617 0.3988 0.74953 0.0
C1057 C 0.80658 0.37966 0.76848 0.0
C1058 C 0.78773 0.39776 0.72988 0.0
C1059 C 0.77001 0.37672 0.72903 0.0
C1060 C 0.77143 0.35671 0.74752 0.0
C1061 C 0.7894 0.3587 0.76723 0.0
C1062 C 0.78635 0.41984 0.71102 0.0
C1063 C 0.75338 0.33356 0.74704 0.0
C1064 C 0.70227 0.3772 0.70331 0.0
C1065 C 0.70505 0.36237 0.68119 0.0
C1066 C 0.72383 0.38468 0.71758 0.0
C1067 C 0.74864 0.37597 0.7102 0.0
C1068 C 0.7517 0.36211 0.68714 0.0
C1069 C 0.72976 0.35537 0.67291 0.0
C1070 C 0.71981 0.40005 0.7417 0.0
C1071 C 0.7778 0.35239 0.67869 0.0
H1072 H 0.81941 0.41512 0.75073 0.0
H1073 H 0.78996 0.3438 0.78184 0.0
H1074 H 0.78186 0.41266 0.69164 0.0
H1075 H 0.7706 0.4333 0.71671 0.0
H1076 H 0.80465 0.4311 0.71041 0.0
H1077 H 0.7586 0.31864 0.76144 0.0
H1078 H 0.73333 0.34011 0.75082 0.0
H1079 H 0.75358 0.32428 0.72801 0.0
H1080 H 0.68309 0.38171 0.71026 0.0
H1081 H 0.7318 0.34347 0.65601 0.0
H1082 H 0.73364 0.41654 0.74258 0.0
H1083 H 0.7235 0.38739 0.75839 0.0
H1084 H 0.69987 0.40785 0.74321 0.0
H1085 H 0.79257 0.3679 0.68069 0.0
H1086 H 0.77754 0.34559 0.65866 0.0
H1087 H 0.78375 0.33586 0.69097 0.0
C1088 C 0.76744 0.63965 0.17233 0.0
C1089 C 0.7922 0.63267 0.18047 0.0
C1090 C 0.7456 0.63291 0.18669 0.0
C1091 C 0.74879 0.61904 0.20974 0.0
C1092 C 0.77365 0.61033 0.21697 0.0
C1093 C 0.79513 0.61783 0.20257 0.0
C1094 C 0.71945 0.64265 0.1784 0.0
C1095 C 0.77782 0.59495 0.24107 0.0
C1096 C 0.70832 0.63638 0.26693 0.0
C1097 C 0.69106 0.61548 0.26823 0.0
C1098 C 0.72624 0.6383 0.24718 0.0
C1099 C 0.72754 0.6183 0.22869 0.0
C1100 C 0.70978 0.59729 0.22962 0.0
C1101 C 0.69138 0.59632 0.24931 0.0
C1102 C 0.74434 0.66142 0.24662 0.0
C1103 C 0.71106 0.5752 0.21076 0.0
H1104 H 0.7653 0.65155 0.15544 0.0
H1105 H 0.81435 0.61334 0.20943 0.0
H1106 H 0.70467 0.62716 0.1805 0.0
H1107 H 0.71359 0.65919 0.1907 0.0
H1108 H 0.71957 0.64944 0.15836 0.0
H1109 H 0.79777 0.58716 0.24246 0.0
H1110 H 0.77423 0.6076 0.25778 0.0
H1111 H 0.764 0.57846 0.24202 0.0
H1112 H 0.70782 0.65129 0.28153 0.0
H1113 H 0.67808 0.58005 0.25053 0.0
H1114 H 0.74405 0.67072 0.2276 0.0
H1115 H 0.76439 0.65483 0.2503 0.0
H1116 H 0.73922 0.67635 0.26105 0.0
H1117 H 0.71532 0.5824 0.19134 0.0
H1118 H 0.6928 0.56386 0.21033 0.0
H1119 H 0.72693 0.56183 0.2163 0.0
C1120 C 0.30671 0.1777 0.13604 0.0
C1121 C 0.33355 0.17783 0.13849 0.0
C1122 C 0.2933 0.20049 0.12986 0.0
C1123 C 0.30732 0.22357 0.12439 0.0
C1124 C 0.33467 0.2231 0.1248 0.0
C1125 C 0.34746 0.20051 0.13312 0.0
C1126 C 0.26413 0.20018 0.13089 0.0
C1127 C 0.35046 0.2464 0.11695 0.0
C1128 C 0.26037 0.27229 0.0972 0.0
C1129 C 0.25584 0.28823 0.11821 0.0
C1130 C 0.2798 0.25331 0.09788 0.0
C1131 C 0.29294 0.2484 0.12095 0.0
C1132 C 0.28866 0.26492 0.14213 0.0
C1133 C 0.27057 0.28514 0.14022 0.0
C1134 C 0.28582 0.2381 0.07417 0.0
C1135 C 0.30157 0.26005 0.1674 0.0
H1136 H 0.29607 0.16012 0.14068 0.0
H1137 H 0.36826 0.20055 0.13536 0.0
H1138 H 0.25707 0.21575 0.14377 0.0
H1139 H 0.25602 0.20404 0.11179 0.0
H1140 H 0.25642 0.1812 0.13765 0.0
H1141 H 0.37012 0.24054 0.11075 0.0
H1142 H 0.34096 0.2571 0.1012 0.0
H1143 H 0.3526 0.25987 0.13325 0.0
H1144 H 0.2487 0.2747 0.08026 0.0
H1145 H 0.26656 0.29736 0.15657 0.0
H1146 H 0.27863 0.21787 0.07609 0.0
H1147 H 0.30704 0.23726 0.07142 0.0
H1148 H 0.27688 0.24694 0.05703 0.0
H1149 H 0.29814 0.23967 0.17363 0.0
H1150 H 0.29445 0.27343 0.18245 0.0
H1151 H 0.32269 0.26278 0.16558 0.0
C1152 C 0.80778 0.31873 0.86445 0.0
C1153 C 0.83461 0.31861 0.86189 0.0
C1154 C 0.79445 0.296 0.87098 0.0
C1155 C 0.80853 0.27302 0.87667 0.0
C1156 C 0.83588 0.27355 0.87619 0.0
C1157 C 0.84859 0.29604 0.86752 0.0
C1158 C 0.76527 0.29624 0.87005 0.0
C1159 C 0.85174 0.25038 0.88431 0.0
C1160 C 0.76181 0.22438 0.90436 0.0
C1161 C 0.75728 0.20827 0.88348 0.0
C1162 C 0.78117 0.24342 0.90349 0.0
C1163 C 0.79424 0.24818 0.88036 0.0
C1164 C 0.78997 0.23148 0.85931 0.0
C1165 C 0.77196 0.21121 0.86142 0.0
C1166 C 0.78717 0.25886 0.92706 0.0
C1167 C 0.80279 0.2362 0.83397 0.0
H1168 H 0.79709 0.33623 0.85962 0.0
H1169 H 0.86939 0.29601 0.86522 0.0
H1170 H 0.7582 0.28053 0.85734 0.0
H1171 H 0.75725 0.29255 0.88921 0.0
H1172 H 0.75749 0.31513 0.86315 0.0
H1173 H 0.87145 0.25635 0.89025 0.0
H1174 H 0.84236 0.23998 0.90031 0.0
H1175 H 0.85373 0.23661 0.86823 0.0
H1176 H 0.75018 0.22208 0.92134 0.0
H1177 H 0.76796 0.19885 0.84517 0.0
H1178 H 0.77965 0.27896 0.92509 0.0
H1179 H 0.80839 0.26004 0.92966 0.0
H1180 H 0.77849 0.24999 0.94432 0.0
H1181 H 0.79904 0.25645 0.82751 0.0
H1182 H 0.79584 0.22253 0.8191 0.0
H1183 H 0.82395 0.23382 0.83579 0.0
C1184 C 0.72623 0.78453 0.36014 0.0
C1185 C 0.741 0.78736 0.38216 0.0
C1186 C 0.70815 0.76432 0.35804 0.0
C1187 C 0.70391 0.74756 0.37906 0.0
C1188 C 0.71711 0.75219 0.40215 0.0
C1189 C 0.73653 0.77118 0.403 0.0
C1190 C 0.69516 0.75979 0.33275 0.0
C1191 C 0.71113 0.73672 0.42571 0.0
C1192 C 0.64925 0.69995 0.36652 0.0
C1193 C 0.66308 0.67728 0.36095 0.0
C1194 C 0.66211 0.72241 0.37503 0.0
C1195 C 0.68947 0.7228 0.3754 0.0
C1196 C 0.70341 0.69974 0.36969 0.0
C1197 C 0.68993 0.67704 0.36335 0.0
C1198 C 0.64641 0.74568 0.38313 0.0
C1199 C 0.73258 0.69936 0.36859 0.0
H1200 H 0.73018 0.79696 0.34393 0.0
H1201 H 0.74823 0.77339 0.41994 0.0
H1202 H 0.69812 0.73935 0.32647 0.0
H1203 H 0.67411 0.76303 0.33458 0.0
H1204 H 0.70258 0.77303 0.31774 0.0
H1205 H 0.72025 0.74525 0.4429 0.0
H1206 H 0.68992 0.73603 0.42858 0.0
H1207 H 0.71812 0.71645 0.4235 0.0
H1208 H 0.62844 0.70007 0.36432 0.0
H1209 H 0.70051 0.65947 0.35854 0.0
H1210 H 0.64443 0.75941 0.36702 0.0
H1211 H 0.65589 0.75607 0.39907 0.0
H1212 H 0.62668 0.73984 0.38916 0.0
H1213 H 0.73964 0.71506 0.35584 0.0
H1214 H 0.74023 0.68044 0.36161 0.0
H1215 H 0.74074 0.70298 0.3877 0.0
C1216 C 0.19076 0.81809 0.6346 0.0
C1217 C 0.16393 0.818 0.63711 0.0
C1218 C 0.20411 0.79529 0.62834 0.0
C1219 C 0.19005 0.77226 0.62284 0.0
C1220 C 0.1627 0.77278 0.62327 0.0
C1221 C 0.14996 0.79537 0.63168 0.0
C1222 C 0.23329 0.79555 0.62932 0.0
C1223 C 0.14685 0.74954 0.61539 0.0
C1224 C 0.23696 0.72348 0.59574 0.0
C1225 C 0.24148 0.70758 0.61678 0.0
C1226 C 0.21752 0.74246 0.59637 0.0
C1227 C 0.20437 0.7474 0.61942 0.0
C1228 C 0.20862 0.73089 0.64063 0.0
C1229 C 0.22672 0.71068 0.63877 0.0
C1230 C 0.21153 0.75765 0.57264 0.0
C1231 C 0.19566 0.73576 0.66587 0.0
H1232 H 0.20145 0.83563 0.63928 0.0
H1233 H 0.12916 0.79537 0.63393 0.0
H1234 H 0.24034 0.77994 0.64218 0.0
H1235 H 0.24135 0.79171 0.61021 0.0
H1236 H 0.24105 0.8145 0.63609 0.0
H1237 H 0.12725 0.75549 0.60908 0.0
H1238 H 0.15637 0.73877 0.59971 0.0
H1239 H 0.14455 0.73612 0.63171 0.0
H1240 H 0.24864 0.72105 0.57881 0.0
H1241 H 0.23071 0.69848 0.65514 0.0
H1242 H 0.2189 0.77782 0.57447 0.0
H1243 H 0.19031 0.75866 0.56995 0.0
H1244 H 0.22034 0.74869 0.5555 0.0
H1245 H 0.19911 0.75613 0.67211 0.0
H1246 H 0.20272 0.72237 0.68093 0.0
H1247 H 0.17454 0.73307 0.66399 0.0
C1248 C 0.86722 0.72235 0.81537 0.0
C1249 C 0.8569 0.6973 0.81289 0.0
C1250 C 0.87383 0.73706 0.79392 0.0
C1251 C 0.86879 0.72687 0.76944 0.0
C1252 C 0.85963 0.70101 0.76685 0.0
C1253 C 0.85369 0.68653 0.78869 0.0
C1254 C 0.88418 0.76431 0.79749 0.0
C1255 C 0.85384 0.68949 0.74112 0.0
C1256 C 0.84485 0.7786 0.72416 0.0
C1257 C 0.86629 0.78253 0.70854 0.0
C1258 C 0.84518 0.75971 0.74328 0.0
C1259 C 0.8679 0.74493 0.74739 0.0
C1260 C 0.88959 0.74854 0.73135 0.0
C1261 C 0.88842 0.76722 0.71177 0.0
C1262 C 0.82137 0.75614 0.75953 0.0
C1263 C 0.91436 0.73368 0.73561 0.0
H1264 H 0.86878 0.73105 0.83407 0.0
H1265 H 0.84527 0.66727 0.78685 0.0
H1266 H 0.90116 0.76752 0.78503 0.0
H1267 H 0.8692 0.77871 0.79203 0.0
H1268 H 0.88992 0.76811 0.81748 0.0
H1269 H 0.85088 0.66807 0.7421 0.0
H1270 H 0.83601 0.69854 0.73342 0.0
H1271 H 0.86971 0.69367 0.72758 0.0
H1272 H 0.82776 0.79051 0.72147 0.0
H1273 H 0.90507 0.77061 0.69974 0.0
H1274 H 0.82558 0.76215 0.77933 0.0
H1275 H 0.81567 0.7353 0.75997 0.0
H1276 H 0.80473 0.76777 0.75253 0.0
H1277 H 0.92451 0.74199 0.75229 0.0
H1278 H 0.92744 0.73495 0.71894 0.0
H1279 H 0.91046 0.71287 0.73981 0.0
C1280 C 0.65314 0.21852 0.22445 0.0
C1281 C 0.63162 0.21444 0.20896 0.0
C1282 C 0.6528 0.23738 0.24357 0.0
C1283 C 0.63 0.25201 0.24782 0.0
C1284 C 0.60826 0.24831 0.23185 0.0
C1285 C 0.60943 0.22963 0.21228 0.0
C1286 C 0.67665 0.24103 0.25975 0.0
C1287 C 0.58344 0.26303 0.23621 0.0
C1288 C 0.63066 0.27397 0.31597 0.0
C1289 C 0.64091 0.29908 0.31368 0.0
C1290 C 0.62409 0.25944 0.29441 0.0
C1291 C 0.62906 0.26987 0.27 0.0
C1292 C 0.63811 0.2958 0.26761 0.0
C1293 C 0.64406 0.31009 0.28957 0.0
C1294 C 0.61386 0.23211 0.29776 0.0
C1295 C 0.64377 0.30758 0.24197 0.0
H1296 H 0.67027 0.20668 0.22168 0.0
H1297 H 0.59273 0.22612 0.20036 0.0
H1298 H 0.68222 0.2619 0.26026 0.0
H1299 H 0.67256 0.23489 0.27954 0.0
H1300 H 0.69333 0.22955 0.25264 0.0
H1301 H 0.57046 0.26201 0.21945 0.0
H1302 H 0.57321 0.25437 0.25269 0.0
H1303 H 0.58724 0.28378 0.24078 0.0
H1304 H 0.62913 0.26511 0.3346 0.0
H1305 H 0.65241 0.32939 0.28788 0.0
H1306 H 0.62892 0.21783 0.29219 0.0
H1307 H 0.5969 0.22893 0.28527 0.0
H1308 H 0.60815 0.2281 0.31772 0.0
H1309 H 0.66162 0.29871 0.23415 0.0
H1310 H 0.64661 0.32901 0.24313 0.0
H1311 H 0.62787 0.30345 0.22844 0.0
C1312 C 0.34323 0.71965 0.27516 0.0
C1313 C 0.36464 0.71576 0.29084 0.0
C1314 C 0.34361 0.73844 0.25596 0.0
C1315 C 0.36635 0.75318 0.25182 0.0
C1316 C 0.38798 0.74968 0.26798 0.0
C1317 C 0.38676 0.73107 0.28763 0.0
C1318 C 0.31988 0.74187 0.23958 0.0
C1319 C 0.41275 0.76453 0.26375 0.0
C1320 C 0.36611 0.77479 0.18354 0.0
C1321 C 0.3557 0.79985 0.18562 0.0
C1322 C 0.3726 0.76041 0.20524 0.0
C1323 C 0.36737 0.77093 0.22955 0.0
C1324 C 0.35815 0.79682 0.23172 0.0
C1325 C 0.35229 0.81096 0.20965 0.0
C1326 C 0.38301 0.73312 0.2021 0.0
C1327 C 0.35221 0.8087 0.25726 0.0
H1328 H 0.32614 0.70772 0.27784 0.0
H1329 H 0.40339 0.72772 0.2997 0.0
H1330 H 0.31419 0.76271 0.2389 0.0
H1331 H 0.32416 0.73565 0.21985 0.0
H1332 H 0.30319 0.73034 0.24662 0.0
H1333 H 0.42565 0.76357 0.28057 0.0
H1334 H 0.42311 0.75595 0.24731 0.0
H1335 H 0.40885 0.78526 0.25917 0.0
H1336 H 0.36784 0.76584 0.16498 0.0
H1337 H 0.34381 0.83022 0.21117 0.0
H1338 H 0.368 0.71878 0.20763 0.0
H1339 H 0.39989 0.7301 0.21474 0.0
H1340 H 0.38891 0.72905 0.18222 0.0
H1341 H 0.33432 0.79979 0.26496 0.0
H1342 H 0.34929 0.83011 0.25597 0.0
H1343 H 0.36799 0.80469 0.27096 0.0
C1344 C 0.1305 0.22094 0.68461 0.0
C1345 C 0.14103 0.19593 0.68671 0.0
C1346 C 0.12402 0.23533 0.70629 0.0
C1347 C 0.1294 0.22488 0.73061 0.0
C1348 C 0.13873 0.19903 0.73281 0.0
C1349 C 0.14455 0.18487 0.71075 0.0
C1350 C 0.11349 0.26256 0.70314 0.0
C1351 C 0.14485 0.18723 0.75835 0.0
C1352 C 0.15372 0.27632 0.77596 0.0
C1353 C 0.13242 0.28015 0.7918 0.0
C1354 C 0.15324 0.25752 0.75678 0.0
C1355 C 0.13052 0.2427 0.75283 0.0
C1356 C 0.109 0.24615 0.76912 0.0
C1357 C 0.11032 0.26477 0.78876 0.0
C1358 C 0.17687 0.25412 0.74025 0.0
C1359 C 0.08424 0.23123 0.76507 0.0
H1360 H 0.1287 0.22986 0.66604 0.0
H1361 H 0.15312 0.16565 0.71228 0.0
H1362 H 0.09668 0.26556 0.71586 0.0
H1363 H 0.12849 0.27698 0.70854 0.0
H1364 H 0.10747 0.26656 0.68327 0.0
H1365 H 0.14777 0.16582 0.75711 0.0
H1366 H 0.16279 0.19617 0.7659 0.0
H1367 H 0.12917 0.19127 0.77214 0.0
H1368 H 0.17079 0.28829 0.77851 0.0
H1369 H 0.09377 0.26807 0.80095 0.0
H1370 H 0.17243 0.2603 0.72054 0.0
H1371 H 0.18262 0.2333 0.73958 0.0
H1372 H 0.19357 0.26573 0.74715 0.0
H1373 H 0.07385 0.23961 0.74855 0.0
H1374 H 0.07136 0.23234 0.7819 0.0
H1375 H 0.08817 0.21046 0.7607 0.0
C1376 C 0.69202 0.89831 0.7503 0.0
C1377 C 0.69194 0.8777 0.76772 0.0
C1378 C 0.71068 0.89934 0.73088 0.0
C1379 C 0.72894 0.87889 0.72866 0.0
C1380 C 0.72792 0.85745 0.74559 0.0
C1381 C 0.70971 0.85739 0.76517 0.0
C1382 C 0.71168 0.92288 0.71373 0.0
C1383 C 0.74659 0.83489 0.74357 0.0
C1384 C 0.76971 0.86294 0.67133 0.0
C1385 C 0.79425 0.8697 0.68026 0.0
C1386 C 0.74762 0.86809 0.68592 0.0
C1387 C 0.75034 0.88015 0.70995 0.0
C1388 C 0.77494 0.88879 0.71807 0.0
C1389 C 0.79669 0.88284 0.7034 0.0
C1390 C 0.72177 0.85841 0.67669 0.0
C1391 C 0.77856 0.90232 0.74327 0.0
H1392 H 0.67834 0.91413 0.75258 0.0
H1393 H 0.70942 0.84141 0.77867 0.0
H1394 H 0.7276 0.93582 0.72003 0.0
H1395 H 0.71573 0.91722 0.69379 0.0
H1396 H 0.69339 0.93417 0.71432 0.0
H1397 H 0.74167 0.81876 0.75678 0.0
H1398 H 0.74677 0.82711 0.72391 0.0
H1399 H 0.76643 0.84166 0.74799 0.0
H1400 H 0.76796 0.85234 0.65361 0.0
H1401 H 0.81576 0.88711 0.71079 0.0
H1402 H 0.70656 0.87327 0.67991 0.0
H1403 H 0.7163 0.84073 0.68758 0.0
H1404 H 0.72218 0.85335 0.65618 0.0
H1405 H 0.76432 0.91833 0.74536 0.0
H1406 H 0.7983 0.9105 0.74538 0.0
H1407 H 0.77522 0.88829 0.75896 0.0
C1408 C 0.70104 0.11394 0.20471 0.0
C1409 C 0.70351 0.12689 0.18146 0.0
C1410 C 0.72278 0.10799 0.21939 0.0
C1411 C 0.74742 0.11643 0.21117 0.0
C1412 C 0.75016 0.12831 0.18704 0.0
C1413 C 0.72807 0.13347 0.17246 0.0
C1414 C 0.71913 0.09465 0.24469 0.0
C1415 C 0.77605 0.13775 0.17769 0.0
C1416 C 0.78835 0.13915 0.26618 0.0
C1417 C 0.80595 0.1187 0.26881 0.0
C1418 C 0.77012 0.13914 0.24662 0.0
C1419 C 0.76888 0.11762 0.22981 0.0
C1420 C 0.78699 0.09704 0.2321 0.0
C1421 C 0.80567 0.098 0.2515 0.0
C1422 C 0.75162 0.16184 0.24451 0.0
C1423 C 0.78576 0.07342 0.21509 0.0
H1424 H 0.68196 0.10981 0.21214 0.0
H1425 H 0.72984 0.14393 0.15465 0.0
H1426 H 0.73327 0.07856 0.24685 0.0
H1427 H 0.72262 0.10876 0.26027 0.0
H1428 H 0.69934 0.08663 0.2469 0.0
H1429 H 0.77561 0.14275 0.15717 0.0
H1430 H 0.78171 0.15541 0.18852 0.0
H1431 H 0.79114 0.12277 0.18092 0.0
H1432 H 0.78879 0.15519 0.2796 0.0
H1433 H 0.81921 0.08207 0.25385 0.0
H1434 H 0.73174 0.15527 0.24902 0.0
H1435 H 0.75146 0.16951 0.22481 0.0
H1436 H 0.75671 0.17801 0.25762 0.0
H1437 H 0.7699 0.06054 0.22163 0.0
H1438 H 0.80404 0.0621 0.21557 0.0
H1439 H 0.78151 0.07896 0.19516 0.0
C1440 C 0.29507 0.61557 0.29551 0.0
C1441 C 0.2927 0.62843 0.3188 0.0
C1442 C 0.27326 0.60963 0.28093 0.0
C1443 C 0.24866 0.61797 0.28932 0.0
C1444 C 0.24602 0.62978 0.31348 0.0
C1445 C 0.26818 0.63495 0.32796 0.0
C1446 C 0.2768 0.59638 0.25558 0.0
C1447 C 0.22015 0.63907 0.32301 0.0
C1448 C 0.20748 0.6405 0.23441 0.0
C1449 C 0.19007 0.61988 0.23174 0.0
C1450 C 0.22568 0.64063 0.254 0.0
C1451 C 0.22707 0.6191 0.2708 0.0
C1452 C 0.20912 0.59839 0.26851 0.0
C1453 C 0.19047 0.5992 0.24907 0.0
C1454 C 0.24401 0.66346 0.25611 0.0
C1455 C 0.2105 0.57476 0.28551 0.0
H1456 H 0.31412 0.6115 0.28797 0.0
H1457 H 0.26649 0.64535 0.34581 0.0
H1458 H 0.26273 0.58023 0.25347 0.0
H1459 H 0.27314 0.61052 0.24005 0.0
H1460 H 0.29662 0.58845 0.25321 0.0
H1461 H 0.22071 0.64407 0.34353 0.0
H1462 H 0.21431 0.6567 0.31223 0.0
H1463 H 0.20513 0.62401 0.31989 0.0
H1464 H 0.20693 0.65651 0.22097 0.0
H1465 H 0.17708 0.58315 0.24669 0.0
H1466 H 0.26392 0.65704 0.25151 0.0
H1467 H 0.24419 0.67107 0.27583 0.0
H1468 H 0.23876 0.67963 0.24306 0.0
H1469 H 0.22616 0.56178 0.27868 0.0
H1470 H 0.19215 0.56357 0.28532 0.0
H1471 H 0.21512 0.58026 0.30537 0.0
C1472 C 0.2896 0.35573 0.73512 0.0
C1473 C 0.307 0.37636 0.73251 0.0
C1474 C 0.27144 0.3555 0.75474 0.0
C1475 C 0.27006 0.37695 0.77162 0.0
C1476 C 0.288 0.39768 0.76938 0.0
C1477 C 0.30662 0.39696 0.74992 0.0
C1478 C 0.25312 0.33265 0.75679 0.0
C1479 C 0.28664 0.42123 0.78648 0.0
C1480 C 0.20212 0.3803 0.7965 0.0
C1481 C 0.20457 0.36735 0.81975 0.0
C1482 C 0.22389 0.38633 0.7819 0.0
C1483 C 0.24852 0.37797 0.79019 0.0
C1484 C 0.25123 0.36606 0.81431 0.0
C1485 C 0.22911 0.36081 0.82882 0.0
C1486 C 0.22027 0.39968 0.7566 0.0
C1487 C 0.27714 0.35674 0.82374 0.0
H1488 H 0.29013 0.33977 0.72162 0.0
H1489 H 0.32001 0.41303 0.74759 0.0
H1490 H 0.25299 0.32494 0.77648 0.0
H1491 H 0.2332 0.33907 0.75226 0.0
H1492 H 0.25836 0.31654 0.74366 0.0
H1493 H 0.30501 0.43239 0.78634 0.0
H1494 H 0.27101 0.43427 0.77967 0.0
H1495 H 0.28199 0.41566 0.80631 0.0
H1496 H 0.18306 0.3844 0.78902 0.0
H1497 H 0.23086 0.35035 0.84663 0.0
H1498 H 0.22393 0.38563 0.741 0.0
H1499 H 0.23432 0.41587 0.75453 0.0
H1500 H 0.20044 0.40759 0.7543 0.0
H1501 H 0.28299 0.33919 0.81285 0.0
H1502 H 0.27663 0.35162 0.84423 0.0
H1503 H 0.29213 0.37186 0.82067 0.0
C1504 C 0.74398 0.71785 0.89657 0.0
C1505 C 0.7603 0.71539 0.87554 0.0
C1506 C 0.72285 0.73507 0.89585 0.0
C1507 C 0.71796 0.74953 0.87341 0.0
C1508 C 0.73367 0.74572 0.8517 0.0
C1509 C 0.75489 0.72898 0.8532 0.0
C1510 C 0.70699 0.73898 0.91956 0.0
C1511 C 0.72894 0.7604 0.82724 0.0
C1512 C 0.65781 0.78791 0.85725 0.0
C1513 C 0.66699 0.81338 0.86009 0.0
C1514 C 0.67341 0.76652 0.86377 0.0
C1515 C 0.69871 0.77095 0.87303 0.0
C1516 C 0.70729 0.79671 0.87747 0.0
C1517 C 0.69154 0.81759 0.87038 0.0
C1518 C 0.66363 0.73931 0.85887 0.0
C1519 C 0.73394 0.80227 0.88776 0.0
H1520 H 0.74844 0.70731 0.91387 0.0
H1521 H 0.7676 0.7268 0.83696 0.0
H1522 H 0.71459 0.7561 0.93003 0.0
H1523 H 0.68642 0.74286 0.91503 0.0
H1524 H 0.70816 0.72178 0.93232 0.0
H1525 H 0.74118 0.75311 0.81143 0.0
H1526 H 0.70839 0.75877 0.82153 0.0
H1527 H 0.73322 0.78139 0.83008 0.0
H1528 H 0.63895 0.78474 0.84887 0.0
H1529 H 0.69906 0.83726 0.87162 0.0
H1530 H 0.66824 0.72632 0.87509 0.0
H1531 H 0.67339 0.73125 0.84183 0.0
H1532 H 0.64245 0.73897 0.85555 0.0
H1533 H 0.73742 0.79067 0.90521 0.0
H1534 H 0.73672 0.82323 0.89226 0.0
H1535 H 0.74871 0.79648 0.87358 0.0
C1536 C 0.15707 0.7085 0.14087 0.0
C1537 C 0.16611 0.68294 0.13835 0.0
C1538 C 0.17282 0.72972 0.13418 0.0
C1539 C 0.19813 0.72504 0.12507 0.0
C1540 C 0.20657 0.69917 0.12095 0.0
C1541 C 0.19068 0.67847 0.12821 0.0
C1542 C 0.16317 0.75704 0.13876 0.0
C1543 C 0.23323 0.69334 0.11082 0.0
C1544 C 0.24358 0.77784 0.10119 0.0
C1545 C 0.2598 0.78052 0.12227 0.0
C1546 C 0.22247 0.7606 0.10198 0.0
C1547 C 0.21749 0.74635 0.12452 0.0
C1548 C 0.23313 0.75035 0.14625 0.0
C1549 C 0.25434 0.7671 0.14469 0.0
C1550 C 0.2067 0.75646 0.07824 0.0
C1551 C 0.2283 0.73591 0.17083 0.0
H1552 H 0.1382 0.71188 0.14914 0.0
H1553 H 0.19809 0.65874 0.12723 0.0
H1554 H 0.17295 0.76524 0.15573 0.0
H1555 H 0.16789 0.76981 0.1224 0.0
H1556 H 0.14199 0.75754 0.14203 0.0
H1557 H 0.2359 0.67232 0.10653 0.0
H1558 H 0.23684 0.70473 0.09326 0.0
H1559 H 0.24798 0.69918 0.125 0.0
H1560 H 0.24808 0.78825 0.08383 0.0
H1561 H 0.26698 0.76945 0.16096 0.0
H1562 H 0.18609 0.75273 0.08272 0.0
H1563 H 0.21426 0.73916 0.06802 0.0
H1564 H 0.208 0.77348 0.06527 0.0
H1565 H 0.20774 0.73768 0.17647 0.0
H1566 H 0.24053 0.74331 0.1866 0.0
H1567 H 0.23251 0.71488 0.16818 0.0
C1568 C 0.30641 0.31768 0.62915 0.0
C1569 C 0.33091 0.31314 0.63943 0.0
C1570 C 0.29044 0.29701 0.62195 0.0
C1571 C 0.29872 0.27113 0.62629 0.0
C1572 C 0.32395 0.26637 0.63557 0.0
C1573 C 0.33979 0.28755 0.64217 0.0
C1574 C 0.26387 0.30292 0.61162 0.0
C1575 C 0.33341 0.23903 0.64043 0.0
C1576 C 0.24219 0.22946 0.64583 0.0
C1577 C 0.23689 0.21582 0.6235 0.0
C1578 C 0.26343 0.24617 0.64741 0.0
C1579 C 0.27925 0.24992 0.62576 0.0
C1580 C 0.27441 0.2355 0.6033 0.0
C1581 C 0.25328 0.21827 0.60252 0.0
C1582 C 0.26813 0.26078 0.6719 0.0
C1583 C 0.29035 0.23941 0.57964 0.0
H1584 H 0.2991 0.33744 0.62801 0.0
H1585 H 0.35861 0.28412 0.65055 0.0
H1586 H 0.26031 0.29144 0.59412 0.0
H1587 H 0.24901 0.29724 0.62575 0.0
H1588 H 0.26133 0.32393 0.6072 0.0
H1589 H 0.35456 0.23843 0.64387 0.0
H1590 H 0.32345 0.23101 0.65737 0.0
H1591 H 0.32875 0.22617 0.62412 0.0
H1592 H 0.22943 0.22727 0.66203 0.0
H1593 H 0.2489 0.2077 0.58523 0.0
H1594 H 0.26401 0.28181 0.66906 0.0
H1595 H 0.28864 0.259 0.6777 0.0
H1596 H 0.25577 0.25356 0.68764 0.0
H1597 H 0.28294 0.25668 0.56927 0.0
H1598 H 0.28905 0.22231 0.56677 0.0
H1599 H 0.31094 0.24306 0.58424 0.0
C1600 C 0.74275 0.26688 0.35441 0.0
C1601 C 0.73728 0.2805 0.37671 0.0
C1602 C 0.76396 0.25012 0.353 0.0
C1603 C 0.7796 0.24633 0.37476 0.0
C1604 C 0.77465 0.2608 0.39717 0.0
C1605 C 0.75353 0.27805 0.3978 0.0
C1606 C 0.76876 0.23542 0.32857 0.0
C1607 C 0.79044 0.25689 0.42093 0.0
C1608 C 0.80614 0.17831 0.37175 0.0
C1609 C 0.83069 0.18257 0.36151 0.0
C1610 C 0.79035 0.19915 0.37884 0.0
C1611 C 0.79889 0.22494 0.37444 0.0
C1612 C 0.8242 0.22942 0.36525 0.0
C1613 C 0.83984 0.20806 0.35873 0.0
C1614 C 0.76368 0.19354 0.38907 0.0
C1615 C 0.83395 0.25665 0.36037 0.0
H1616 H 0.73009 0.26906 0.33813 0.0
H1617 H 0.74902 0.28861 0.41507 0.0
H1618 H 0.78932 0.23707 0.32291 0.0
H1619 H 0.76449 0.21443 0.33142 0.0
H1620 H 0.75655 0.24269 0.31272 0.0
H1621 H 0.78911 0.27403 0.43375 0.0
H1622 H 0.78291 0.23967 0.43131 0.0
H1623 H 0.81104 0.25316 0.41646 0.0
H1624 H 0.79864 0.15862 0.37294 0.0
H1625 H 0.85871 0.21128 0.35038 0.0
H1626 H 0.74894 0.19928 0.37484 0.0
H1627 H 0.76013 0.20514 0.4065 0.0
H1628 H 0.76094 0.17258 0.39359 0.0
H1629 H 0.85514 0.25703 0.35714 0.0
H1630 H 0.82924 0.26963 0.37657 0.0
H1631 H 0.82424 0.26468 0.34328 0.0
C1632 C 0.12179 0.1704 0.53823 0.0
C1633 C 0.14499 0.1748 0.55133 0.0
C1634 C 0.12141 0.168 0.51165 0.0
C1635 C 0.14476 0.17009 0.49783 0.0
C1636 C 0.16806 0.17555 0.5108 0.0
C1637 C 0.1679 0.17783 0.53735 0.0
C1638 C 0.09616 0.16222 0.49847 0.0
C1639 C 0.19336 0.17802 0.49674 0.0
C1640 C 0.14986 0.13351 0.43544 0.0
C1641 C 0.14639 0.15346 0.41749 0.0
C1642 C 0.14931 0.13872 0.46156 0.0
C1643 C 0.14521 0.16454 0.47009 0.0
C1644 C 0.14184 0.18484 0.45218 0.0
C1645 C 0.1425 0.17908 0.42608 0.0
C1646 C 0.1531 0.11653 0.48005 0.0
C1647 C 0.13744 0.21261 0.4606 0.0
H1648 H 0.10395 0.16815 0.54875 0.0
H1649 H 0.18594 0.18145 0.54717 0.0
H1650 H 0.09297 0.17616 0.48267 0.0
H1651 H 0.09685 0.1424 0.49008 0.0
H1652 H 0.07944 0.16326 0.51164 0.0
H1653 H 0.20938 0.1843 0.50936 0.0
H1654 H 0.19855 0.15896 0.4882 0.0
H1655 H 0.19152 0.19225 0.48099 0.0
H1656 H 0.15298 0.11366 0.42913 0.0
H1657 H 0.13973 0.19464 0.41243 0.0
H1658 H 0.13605 0.11488 0.4927 0.0
H1659 H 0.17011 0.12043 0.49228 0.0
H1660 H 0.15602 0.09754 0.47033 0.0
H1661 H 0.11986 0.21374 0.47257 0.0
H1662 H 0.13519 0.22617 0.4443 0.0
H1663 H 0.15389 0.2193 0.47241 0.0
C1664 C 0.37531 0.82538 0.03724 0.0
C1665 C 0.35202 0.82125 0.05028 0.0
C1666 C 0.37581 0.82772 0.01066 0.0
C1667 C 0.35248 0.82584 0.99676 0.0
C1668 C 0.32908 0.82067 0.00967 0.0
C1669 C 0.32913 0.81845 0.03622 0.0
C1670 C 0.40116 0.83318 0.99755 0.0
C1671 C 0.30381 0.81845 0.99552 0.0
C1672 C 0.34799 0.86234 0.93427 0.0
C1673 C 0.35131 0.84232 0.91637 0.0
C1674 C 0.34839 0.85718 0.9604 0.0
C1675 C 0.35219 0.83134 0.969 0.0
C1676 C 0.35542 0.81097 0.95115 0.0
C1677 C 0.35492 0.81669 0.92503 0.0
C1678 C 0.34478 0.87945 0.97883 0.0
C1679 C 0.35949 0.78317 0.95965 0.0
H1680 H 0.39314 0.82744 0.04782 0.0
H1681 H 0.31102 0.81505 0.04599 0.0
H1682 H 0.40426 0.81916 0.98181 0.0
H1683 H 0.40071 0.85299 0.9891 0.0
H1684 H 0.41783 0.83201 0.01078 0.0
H1685 H 0.28767 0.81238 0.0081 0.0
H1686 H 0.29885 0.83754 0.98691 0.0
H1687 H 0.30555 0.80416 0.97981 0.0
H1688 H 0.34509 0.88221 0.9279 0.0
H1689 H 0.35756 0.80107 0.91143 0.0
H1690 H 0.3618 0.88094 0.99154 0.0
H1691 H 0.32768 0.87577 0.991 0.0
H1692 H 0.34211 0.89845 0.96905 0.0
H1693 H 0.377 0.78187 0.97171 0.0
H1694 H 0.36167 0.76956 0.94339 0.0
H1695 H 0.34291 0.77668 0.97141 0.0
C1696 C 0.62211 0.32464 0.46208 0.0
C1697 C 0.64535 0.32076 0.44888 0.0
C1698 C 0.62178 0.32684 0.48867 0.0
C1699 C 0.64522 0.32506 0.50241 0.0
C1700 C 0.66857 0.32013 0.48933 0.0
C1701 C 0.66836 0.31805 0.46276 0.0
C1702 C 0.59648 0.33205 0.50198 0.0
C1703 C 0.69395 0.31802 0.50329 0.0
C1704 C 0.64994 0.36139 0.56495 0.0
C1705 C 0.6469 0.3413 0.58283 0.0
C1706 C 0.64936 0.3563 0.53881 0.0
C1707 C 0.64568 0.33046 0.53018 0.0
C1708 C 0.64273 0.31002 0.54801 0.0
C1709 C 0.6434 0.31566 0.57413 0.0
C1710 C 0.65267 0.37866 0.52041 0.0
C1711 C 0.6388 0.28222 0.53947 0.0
H1712 H 0.6042 0.32663 0.45163 0.0
H1713 H 0.68642 0.31483 0.45287 0.0
H1714 H 0.59361 0.31794 0.51769 0.0
H1715 H 0.59684 0.35182 0.51049 0.0
H1716 H 0.57973 0.33079 0.48886 0.0
H1717 H 0.71004 0.3121 0.49059 0.0
H1718 H 0.69885 0.33711 0.51193 0.0
H1719 H 0.69242 0.30366 0.51897 0.0
H1720 H 0.65275 0.38126 0.57134 0.0
H1721 H 0.64098 0.29999 0.58772 0.0
H1722 H 0.63555 0.38005 0.50783 0.0
H1723 H 0.6697 0.37514 0.50811 0.0
H1724 H 0.65527 0.39765 0.53022 0.0
H1725 H 0.6212 0.28083 0.52753 0.0
H1726 H 0.63683 0.26854 0.55571 0.0
H1727 H 0.65533 0.27588 0.52758 0.0
C1728 C 0.85362 0.67948 0.07319 0.0
C1729 C 0.85012 0.65385 0.08188 0.0
C1730 C 0.85432 0.68514 0.04707 0.0
C1731 C 0.8514 0.6647 0.02923 0.0
C1732 C 0.8477 0.63886 0.03787 0.0
C1733 C 0.84709 0.63376 0.06401 0.0
C1734 C 0.85827 0.71294 0.03853 0.0
C1735 C 0.84442 0.61651 0.01946 0.0
C1736 C 0.82893 0.67729 0.96177 0.0
C1737 C 0.85198 0.67466 0.94795 0.0
C1738 C 0.82863 0.6751 0.98832 0.0
C1739 C 0.85193 0.67012 0.00147 0.0
C1740 C 0.87541 0.66838 0.9878 0.0
C1741 C 0.87517 0.67069 0.96121 0.0
C1742 C 0.8032 0.67716 0.00221 0.0
C1743 C 0.90067 0.66311 0.00117 0.0
H1744 H 0.85603 0.69516 0.08678 0.0
H1745 H 0.84428 0.61388 0.07039 0.0
H1746 H 0.8759 0.71434 0.02665 0.0
H1747 H 0.84178 0.71928 0.02658 0.0
H1748 H 0.86018 0.72662 0.05477 0.0
H1749 H 0.84178 0.59752 0.02927 0.0
H1750 H 0.82742 0.62005 0.00711 0.0
H1751 H 0.86158 0.6151 0.00693 0.0
H1752 H 0.81089 0.68057 0.95182 0.0
H1753 H 0.89312 0.66876 0.95081 0.0
H1754 H 0.80467 0.69152 0.01789 0.0
H1755 H 0.7983 0.65806 0.01084 0.0
H1756 H 0.78714 0.68307 0.98946 0.0
H1757 H 0.90353 0.67722 0.01688 0.0
H1758 H 0.91745 0.66434 0.98809 0.0
H1759 H 0.90025 0.64334 0.0097 0.0
C1760 C 0.44181 0.11059 0.17288 0.0
C1761 C 0.43004 0.11307 0.14897 0.0
C1762 C 0.46877 0.11091 0.17539 0.0
C1763 C 0.48433 0.11389 0.15351 0.0
C1764 C 0.47265 0.11588 0.1293 0.0
C1765 C 0.44567 0.1154 0.12731 0.0
C1766 C 0.48059 0.10864 0.20152 0.0
C1767 C 0.48865 0.11917 0.10552 0.0
C1768 C 0.55097 0.14346 0.16033 0.0
C1769 C 0.56698 0.12147 0.15831 0.0
C1770 C 0.52404 0.14117 0.15917 0.0
C1771 C 0.51278 0.11628 0.15598 0.0
C1772 C 0.5287 0.09392 0.15442 0.0
C1773 C 0.55563 0.09678 0.15558 0.0
C1774 C 0.50767 0.16548 0.1609 0.0
C1775 C 0.51729 0.06706 0.15113 0.0
H1776 H 0.42996 0.10864 0.18974 0.0
H1777 H 0.43685 0.11732 0.10874 0.0
H1778 H 0.49493 0.09258 0.2019 0.0
H1779 H 0.49103 0.12689 0.20625 0.0
H1780 H 0.46588 0.10497 0.21645 0.0
H1781 H 0.47664 0.11932 0.08804 0.0
H1782 H 0.49957 0.13774 0.10649 0.0
H1783 H 0.50298 0.10318 0.104 0.0
H1784 H 0.55944 0.16265 0.1625 0.0
H1785 H 0.56777 0.07964 0.15412 0.0
H1786 H 0.49358 0.16363 0.17667 0.0
H1787 H 0.49645 0.16799 0.14312 0.0
H1788 H 0.51942 0.1833 0.16406 0.0
H1789 H 0.50322 0.06302 0.16651 0.0
H1790 H 0.53227 0.05155 0.15126 0.0
H1791 H 0.50663 0.06602 0.13289 0.0
C1792 C 0.94214 0.89989 0.6543 0.0
C1793 C 0.9308 0.87523 0.65729 0.0
C1794 C 0.96907 0.90274 0.65309 0.0
C1795 C 0.98499 0.8804 0.65488 0.0
C1796 C 0.97374 0.85555 0.65835 0.0
C1797 C 0.94682 0.85326 0.65955 0.0
C1798 C 0.98047 0.92957 0.64951 0.0
C1799 C 0.99012 0.83126 0.66033 0.0
C1800 C 0.05208 0.8808 0.62618 0.0
C1801 C 0.06772 0.88325 0.64782 0.0
C1802 C 0.0251 0.88047 0.62817 0.0
C1803 C 0.01344 0.88276 0.65237 0.0
C1804 C 0.02902 0.88591 0.67422 0.0
C1805 C 0.05598 0.88605 0.6717 0.0
C1806 C 0.00908 0.87698 0.60444 0.0
C1807 C 0.01722 0.88851 0.70032 0.0
H1808 H 0.92999 0.91701 0.65265 0.0
H1809 H 0.93836 0.8341 0.66194 0.0
H1810 H 0.99458 0.93377 0.66482 0.0
H1811 H 0.9911 0.93042 0.63123 0.0
H1812 H 0.96549 0.94507 0.64951 0.0
H1813 H 0.97837 0.81347 0.66368 0.0
H1814 H 0.00133 0.82856 0.64258 0.0
H1815 H 0.00421 0.83328 0.67608 0.0
H1816 H 0.06089 0.87863 0.60764 0.0
H1817 H 0.06784 0.88812 0.68854 0.0
H1818 H 0.99476 0.89296 0.60278 0.0
H1819 H 0.99815 0.85842 0.60558 0.0
H1820 H 0.02108 0.87667 0.58696 0.0
H1821 H 0.00287 0.90457 0.70051 0.0
H1822 H 0.03194 0.89237 0.71519 0.0
H1823 H 0.00679 0.87033 0.70529 0.0
C1824 C 0.05678 0.39813 0.84435 0.0
C1825 C 0.06801 0.37333 0.84207 0.0
C1826 C 0.02987 0.40116 0.84536 0.0
C1827 C 0.01384 0.37887 0.8441 0.0
C1828 C 0.02498 0.35386 0.84135 0.0
C1829 C 0.05189 0.3514 0.84033 0.0
C1830 C 0.0186 0.42814 0.84817 0.0
C1831 C 0.00848 0.32962 0.83995 0.0
C1832 C 0.94666 0.3807 0.87253 0.0
C1833 C 0.93111 0.38278 0.85078 0.0
C1834 C 0.97364 0.37998 0.87064 0.0
C1835 C 0.9854 0.38147 0.84644 0.0
C1836 C 0.96993 0.38419 0.82446 0.0
C1837 C 0.94297 0.38476 0.82688 0.0
C1838 C 0.98954 0.37699 0.89451 0.0
C1839 C 0.98184 0.38592 0.79834 0.0
H1840 H 0.06901 0.41523 0.84559 0.0
H1841 H 0.06028 0.33214 0.83851 0.0
H1842 H 0.00459 0.43199 0.83267 0.0
H1843 H 0.00788 0.42955 0.86636 0.0
H1844 H 0.03365 0.44356 0.84783 0.0
H1845 H 0.02014 0.31168 0.83711 0.0
H1846 H 0.99719 0.32747 0.85773 0.0
H1847 H 0.99445 0.33129 0.82412 0.0
H1848 H 0.93777 0.37916 0.8911 0.0
H1849 H 0.93119 0.38651 0.80995 0.0
H1850 H 0.00396 0.39291 0.89584 0.0
H1851 H 0.00036 0.35833 0.89387 0.0
H1852 H 0.97748 0.37719 0.91195 0.0
H1853 H 0.99628 0.40188 0.79773 0.0
H1854 H 0.9672 0.38942 0.7833 0.0
H1855 H 0.99219 0.36753 0.79394 0.0
C1856 C 0.44543 0.64448 0.33901 0.0
C1857 C 0.42934 0.62254 0.3409 0.0
C1858 C 0.47235 0.64207 0.34008 0.0
C1859 C 0.48352 0.6171 0.34304 0.0
C1860 C 0.46752 0.5948 0.34443 0.0
C1861 C 0.4406 0.59777 0.34336 0.0
C1862 C 0.48881 0.66633 0.33853 0.0
C1863 C 0.47883 0.56785 0.34746 0.0
C1864 C 0.55447 0.61113 0.32613 0.0
C1865 C 0.56623 0.61328 0.35006 0.0
C1866 C 0.52751 0.61169 0.32359 0.0
C1867 C 0.51196 0.61457 0.3455 0.0
C1868 C 0.52363 0.61624 0.36973 0.0
C1869 C 0.5506 0.61553 0.37173 0.0
C1870 C 0.5157 0.60975 0.29744 0.0
C1871 C 0.50764 0.61941 0.39352 0.0
H1872 H 0.43702 0.66372 0.33704 0.0
H1873 H 0.42841 0.58067 0.34472 0.0
H1874 H 0.50002 0.66865 0.35634 0.0
H1875 H 0.50291 0.66454 0.32276 0.0
H1876 H 0.47713 0.68422 0.33548 0.0
H1877 H 0.4638 0.55241 0.34716 0.0
H1878 H 0.49291 0.56393 0.33206 0.0
H1879 H 0.48948 0.56658 0.36571 0.0
H1880 H 0.56631 0.60924 0.30926 0.0
H1881 H 0.55942 0.61721 0.39032 0.0
H1882 H 0.50533 0.62809 0.29288 0.0
H1883 H 0.5013 0.59376 0.2969 0.0
H1884 H 0.5304 0.60619 0.28248 0.0
H1885 H 0.49678 0.63804 0.39268 0.0
H1886 H 0.51964 0.61938 0.41101 0.0
H1887 H 0.49325 0.60347 0.39493 0.0
C1888 C 0.17058 0.41878 0.14141 0.0
C1889 C 0.19676 0.4142 0.13616 0.0
C1890 C 0.16112 0.44424 0.14425 0.0
C1891 C 0.17829 0.46554 0.14195 0.0
C1892 C 0.20487 0.46103 0.13759 0.0
C1893 C 0.21378 0.43542 0.1347 0.0
C1894 C 0.13264 0.44837 0.14889 0.0
C1895 C 0.22382 0.48329 0.1353 0.0
C1896 C 0.15406 0.53196 0.1214 0.0
C1897 C 0.15405 0.54567 0.14445 0.0
C1898 C 0.16112 0.5056 0.12046 0.0
C1899 C 0.16845 0.49267 0.14309 0.0
C1900 C 0.16773 0.5061 0.16652 0.0
C1901 C 0.16049 0.53242 0.16693 0.0
C1902 C 0.16151 0.4918 0.09513 0.0
C1903 C 0.17547 0.49294 0.19102 0.0
H1904 H 0.15726 0.40253 0.14253 0.0
H1905 H 0.23408 0.43209 0.13089 0.0
H1906 H 0.12968 0.46078 0.16589 0.0
H1907 H 0.12399 0.45877 0.13249 0.0
H1908 H 0.12213 0.42971 0.15166 0.0
H1909 H 0.24403 0.47641 0.13312 0.0
H1910 H 0.21881 0.49548 0.1186 0.0
H1911 H 0.22269 0.49597 0.15232 0.0
H1912 H 0.14903 0.54193 0.10394 0.0
H1913 H 0.16055 0.54276 0.18488 0.0
H1914 H 0.15 0.4736 0.09614 0.0
H1915 H 0.18161 0.48622 0.09029 0.0
H1916 H 0.15374 0.50414 0.07956 0.0
H1917 H 0.16441 0.47462 0.19361 0.0
H1918 H 0.17226 0.5056 0.20783 0.0
H1919 H 0.19622 0.48762 0.19026 0.0
C1920 C 0.66283 0.96418 0.83351 0.0
C1921 C 0.65599 0.95074 0.85577 0.0
C1922 C 0.67023 0.99044 0.83429 0.0
C1923 C 0.67069 0.00362 0.85786 0.0
C1924 C 0.66302 0.99049 0.88026 0.0
C1925 C 0.65581 0.96419 0.87896 0.0
C1926 C 0.67836 0.00382 0.81002 0.0
C1927 C 0.66313 0.00403 0.90573 0.0
C1928 C 0.71584 0.06087 0.86712 0.0
C1929 C 0.69882 0.08208 0.86549 0.0
C1930 C 0.707 0.03526 0.86406 0.0
C1931 C 0.68048 0.03074 0.85936 0.0
C1932 C 0.66331 0.05203 0.85694 0.0
C1933 C 0.6727 0.07748 0.85995 0.0
C1934 C 0.72595 0.01301 0.86649 0.0
C1935 C 0.63489 0.04788 0.85195 0.0
H1936 H 0.66305 0.95404 0.81546 0.0
H1937 H 0.65048 0.95406 0.89625 0.0
H1938 H 0.66728 0.02212 0.80738 0.0
H1939 H 0.69908 0.00921 0.81118 0.0
H1940 H 0.6755 0.99128 0.79306 0.0
H1941 H 0.6552 0.99153 0.92109 0.0
H1942 H 0.68317 0.00958 0.91084 0.0
H1943 H 0.65161 0.02223 0.90477 0.0
H1944 H 0.73609 0.06422 0.87117 0.0
H1945 H 0.65937 0.09372 0.8587 0.0
H1946 H 0.72509 0.00045 0.84936 0.0
H1947 H 0.7207 0.0007 0.88302 0.0
H1948 H 0.74612 0.0199 0.86901 0.0
H1949 H 0.63216 0.03569 0.83476 0.0
H1950 H 0.62435 0.06654 0.84929 0.0
H1951 H 0.62609 0.03724 0.86812 0.0
C1952 C 0.8421 0.0316 0.37959 0.0
C1953 C 0.84207 0.04519 0.35646 0.0
C1954 C 0.83504 0.00524 0.38067 0.0
C1955 C 0.82767 0.9922 0.35812 0.0
C1956 C 0.8283 0.00553 0.33463 0.0
C1957 C 0.83555 0.03183 0.33406 0.0
C1958 C 0.83473 0.99155 0.40606 0.0
C1959 C 0.82051 0.99225 0.3102 0.0
C1960 C 0.82582 0.91831 0.35974 0.0
C1961 C 0.79964 0.91362 0.36495 0.0
C1962 C 0.83519 0.94381 0.35701 0.0
C1963 C 0.81794 0.96504 0.35937 0.0
C1964 C 0.79138 0.96043 0.36375 0.0
C1965 C 0.78256 0.93478 0.36654 0.0
C1966 C 0.86365 0.94805 0.35236 0.0
C1967 C 0.77236 0.98262 0.36611 0.0
H1968 H 0.84718 0.04165 0.39698 0.0
H1969 H 0.83546 0.04208 0.31606 0.0
H1970 H 0.81466 0.98591 0.41096 0.0
H1971 H 0.8463 0.97338 0.40512 0.0
H1972 H 0.84248 0.00398 0.42156 0.0
H1973 H 0.82353 0.00489 0.29333 0.0
H1974 H 0.83168 0.974 0.3076 0.0
H1975 H 0.7998 0.98679 0.3111 0.0
H1976 H 0.83918 0.9021 0.35854 0.0
H1977 H 0.76228 0.93136 0.37034 0.0
H1978 H 0.87224 0.95861 0.36869 0.0
H1979 H 0.86655 0.96036 0.33528 0.0
H1980 H 0.87426 0.92944 0.34971 0.0
H1981 H 0.77741 0.99485 0.38276 0.0
H1982 H 0.75218 0.97567 0.36839 0.0
H1983 H 0.77335 0.99528 0.34906 0.0
C1984 C 0.34351 0.46396 0.62178 0.0
C1985 C 0.34333 0.45037 0.6449 0.0
C1986 C 0.33643 0.49031 0.62065 0.0
C1987 C 0.32891 0.50334 0.64315 0.0
C1988 C 0.32946 0.49004 0.66665 0.0
C1989 C 0.33672 0.46373 0.66726 0.0
C1990 C 0.33622 0.50397 0.59524 0.0
C1991 C 0.32151 0.50332 0.69102 0.0
C1992 C 0.32668 0.57721 0.641 0.0
C1993 C 0.30054 0.58173 0.63552 0.0
C1994 C 0.33615 0.55179 0.64408 0.0
C1995 C 0.31903 0.53045 0.64178 0.0
C1996 C 0.29248 0.5349 0.63718 0.0
C1997 C 0.28356 0.56047 0.63406 0.0
C1998 C 0.3646 0.54773 0.64898 0.0
C1999 C 0.27359 0.51259 0.63487 0.0
H2000 H 0.34868 0.45391 0.60441 0.0
H2001 H 0.33653 0.45347 0.68526 0.0
H2002 H 0.31615 0.5095 0.59021 0.0
H2003 H 0.34769 0.52221 0.59624 0.0
H2004 H 0.34414 0.49157 0.5798 0.0
H2005 H 0.32463 0.49075 0.70793 0.0
H2006 H 0.33251 0.52168 0.69359 0.0
H2007 H 0.30076 0.50857 0.69008 0.0
H2008 H 0.33997 0.59349 0.64214 0.0
H2009 H 0.26329 0.56375 0.63007 0.0
H2010 H 0.3734 0.53725 0.63271 0.0
H2011 H 0.36744 0.53542 0.66607 0.0
H2012 H 0.37506 0.56642 0.65173 0.0
H2013 H 0.27874 0.50032 0.61828 0.0
H2014 H 0.25338 0.51943 0.6325 0.0
H2015 H 0.2746 0.50001 0.65197 0.0
C2016 C 0.78848 0.85218 0.47434 0.0
C2017 C 0.80425 0.84554 0.45364 0.0
C2018 C 0.79837 0.85321 0.49906 0.0
C2019 C 0.82479 0.84772 0.50328 0.0
C2020 C 0.84087 0.8409 0.4826 0.0
C2021 C 0.83039 0.83978 0.458 0.0
C2022 C 0.78053 0.86041 0.52066 0.0
C2023 C 0.86918 0.83512 0.48642 0.0
C2024 C 0.84991 0.87744 0.56422 0.0
C2025 C 0.84786 0.85643 0.58118 0.0
C2026 C 0.8439 0.87446 0.53843 0.0
C2027 C 0.83544 0.84995 0.52939 0.0
C2028 C 0.83458 0.82834 0.54609 0.0
C2029 C 0.84091 0.83181 0.5718 0.0
C2030 C 0.84533 0.89792 0.52115 0.0
C2031 C 0.82555 0.80191 0.53716 0.0
H2032 H 0.76825 0.85657 0.47131 0.0
H2033 H 0.84276 0.83468 0.44217 0.0
H2034 H 0.78079 0.84493 0.53537 0.0
H2035 H 0.78728 0.87867 0.52978 0.0
H2036 H 0.76029 0.86328 0.51426 0.0
H2037 H 0.87893 0.82943 0.46847 0.0
H2038 H 0.87903 0.85256 0.49426 0.0
H2039 H 0.87161 0.81917 0.50044 0.0
H2040 H 0.85556 0.89647 0.5712 0.0
H2041 H 0.8393 0.81545 0.58472 0.0
H2042 H 0.82553 0.90393 0.51562 0.0
H2043 H 0.85591 0.89303 0.50346 0.0
H2044 H 0.85501 0.91475 0.53039 0.0
H2045 H 0.80464 0.80278 0.53268 0.0
H2046 H 0.82868 0.78655 0.5517 0.0
H2047 H 0.83576 0.79622 0.5195 0.0
C2048 C 0.70976 0.14282 0.97536 0.0
C2049 C 0.69404 0.14962 0.95467 0.0
C2050 C 0.69987 0.14183 8e-05 0.0
C2051 C 0.6735 0.14754 0.00431 0.0
C2052 C 0.65746 0.15447 0.98363 0.0
C2053 C 0.66794 0.15554 0.95903 0.0
C2054 C 0.71767 0.13451 0.02168 0.0
C2055 C 0.62919 0.16047 0.98746 0.0
C2056 C 0.64806 0.11842 0.06541 0.0
C2057 C 0.65024 0.13951 0.08223 0.0
C2058 C 0.65416 0.12116 0.03961 0.0
C2059 C 0.66287 0.14554 0.03044 0.0
C2060 C 0.66389 0.16724 0.04701 0.0
C2061 C 0.65746 0.164 0.07271 0.0
C2062 C 0.65254 0.09762 0.02248 0.0
C2063 C 0.6732 0.19353 0.03793 0.0
H2064 H 0.72996 0.13829 0.97232 0.0
H2065 H 0.65561 0.16076 0.9432 0.0
H2066 H 0.7176 0.15005 0.03632 0.0
H2067 H 0.71073 0.11637 0.03089 0.0
H2068 H 0.73787 0.13139 0.01526 0.0
H2069 H 0.61944 0.16605 0.96947 0.0
H2070 H 0.61924 0.14319 0.9955 0.0
H2071 H 0.62691 0.17659 0.00131 0.0
H2072 H 0.64221 0.09948 0.0725 0.0
H2073 H 0.65919 0.18043 0.08554 0.0
H2074 H 0.67228 0.09141 0.01698 0.0
H2075 H 0.642 0.1025 0.00476 0.0
H2076 H 0.64272 0.08092 0.03181 0.0
H2077 H 0.69409 0.1924 0.03339 0.0
H2078 H 0.67029 0.20899 0.05241 0.0
H2079 H 0.663 0.19926 0.02027 0.0
C2080 C 0.34998 0.61948 0.43446 0.0
C2081 C 0.34702 0.64058 0.41774 0.0
C2082 C 0.3442 0.62197 0.46035 0.0
C2083 C 0.335 0.64608 0.46972 0.0
C2084 C 0.33319 0.66781 0.45325 0.0
C2085 C 0.33935 0.66484 0.42744 0.0
C2086 C 0.34667 0.59841 0.47737 0.0
C2087 C 0.32334 0.69381 0.46254 0.0
C2088 C 0.2888 0.64193 0.52529 0.0
C2089 C 0.30456 0.64911 0.54583 0.0
C2090 C 0.29845 0.64126 0.50047 0.0
C2091 C 0.32462 0.64768 0.49598 0.0
C2092 C 0.34071 0.65494 0.51651 0.0
C2093 C 0.33046 0.65567 0.54122 0.0
C2094 C 0.28061 0.63354 0.47904 0.0
C2095 C 0.36876 0.66169 0.5124 0.0
H2096 H 0.35621 0.60073 0.42722 0.0
H2097 H 0.33701 0.68125 0.41469 0.0
H2098 H 0.35726 0.6035 0.49499 0.0
H2099 H 0.32716 0.59163 0.48305 0.0
H2100 H 0.35684 0.58204 0.46786 0.0
H2101 H 0.32569 0.70941 0.4481 0.0
H2102 H 0.30253 0.69213 0.4673 0.0
H2103 H 0.33359 0.69972 0.48012 0.0
H2104 H 0.26875 0.63689 0.52852 0.0
H2105 H 0.34282 0.6612 0.55692 0.0
H2106 H 0.28794 0.61565 0.46967 0.0
H2107 H 0.28009 0.64915 0.46446 0.0
H2108 H 0.26058 0.62983 0.48566 0.0
H2109 H 0.37905 0.64474 0.5041 0.0
H2110 H 0.3786 0.66735 0.53032 0.0
H2111 H 0.37046 0.67798 0.49866 0.0
C2112 C 0.20863 0.35349 0.02635 0.0
C2113 C 0.19286 0.34637 0.0469 0.0
C2114 C 0.19898 0.35413 0.00153 0.0
C2115 C 0.17281 0.34773 0.99704 0.0
C2116 C 0.15672 0.34049 0.01758 0.0
C2117 C 0.16696 0.33979 0.04229 0.0
C2118 C 0.21683 0.36183 0.98009 0.0
C2119 C 0.12866 0.33376 0.01347 0.0
C2120 C 0.14745 0.37606 0.93557 0.0
C2121 C 0.15039 0.355 0.91881 0.0
C2122 C 0.15324 0.37351 0.96144 0.0
C2123 C 0.16242 0.34938 0.97078 0.0
C2124 C 0.1642 0.32767 0.95428 0.0
C2125 C 0.15804 0.33071 0.92848 0.0
C2126 C 0.15081 0.39705 0.9785 0.0
C2127 C 0.17402 0.30165 0.96355 0.0
H2128 H 0.22868 0.35852 0.02958 0.0
H2129 H 0.15459 0.3343 0.058 0.0
H2130 H 0.21731 0.34623 0.96551 0.0
H2131 H 0.20954 0.37975 0.97073 0.0
H2132 H 0.23687 0.36549 0.98671 0.0
H2133 H 0.11884 0.32803 0.03137 0.0
H2134 H 0.11837 0.35073 0.00522 0.0
H2135 H 0.12695 0.31751 0.99967 0.0
H2136 H 0.14124 0.39483 0.92835 0.0
H2137 H 0.16036 0.31431 0.91571 0.0
H2138 H 0.17032 0.40379 0.9842 0.0
H2139 H 0.1402 0.39194 0.99611 0.0
H2140 H 0.14066 0.41346 0.96901 0.0
H2141 H 0.19484 0.30329 0.96828 0.0
H2142 H 0.17163 0.28607 0.94909 0.0
H2143 H 0.16378 0.29573 0.98112 0.0
C2144 C 0.55143 0.87327 0.87044 0.0
C2145 C 0.567 0.87584 0.84876 0.0
C2146 C 0.52446 0.87277 0.86853 0.0
C2147 C 0.51271 0.87502 0.84438 0.0
C2148 C 0.52821 0.87819 0.82247 0.0
C2149 C 0.55519 0.87848 0.82491 0.0
C2150 C 0.50854 0.8692 0.89232 0.0
C2151 C 0.5163 0.88076 0.79641 0.0
C2152 C 0.44608 0.84543 0.83779 0.0
C2153 C 0.43003 0.86735 0.84032 0.0
C2154 C 0.473 0.84777 0.83864 0.0
C2155 C 0.48425 0.87264 0.842 0.0
C2156 C 0.46829 0.89494 0.84403 0.0
C2157 C 0.44135 0.89203 0.84322 0.0
C2158 C 0.4894 0.82351 0.83648 0.0
C2159 C 0.47968 0.92179 0.84748 0.0
H2160 H 0.56031 0.87117 0.88897 0.0
H2161 H 0.56701 0.88063 0.80805 0.0
H2162 H 0.49426 0.8852 0.8941 0.0
H2163 H 0.49756 0.85066 0.89115 0.0
H2164 H 0.52061 0.86878 0.90975 0.0
H2165 H 0.53097 0.88458 0.78148 0.0
H2166 H 0.50582 0.86259 0.79152 0.0
H2167 H 0.50199 0.89685 0.79625 0.0
H2168 H 0.43762 0.82625 0.83551 0.0
H2169 H 0.42918 0.90911 0.84504 0.0
H2170 H 0.50072 0.82076 0.85416 0.0
H2171 H 0.50339 0.82561 0.82066 0.0
H2172 H 0.47765 0.80572 0.83314 0.0
H2173 H 0.49041 0.92269 0.8657 0.0
H2174 H 0.46469 0.93727 0.84752 0.0
H2175 H 0.4937 0.92597 0.83209 0.0
C2176 C 0.94259 0.11761 0.32616 0.0
C2177 C 0.93077 0.12029 0.35001 0.0
C2178 C 0.96956 0.11786 0.32373 0.0
C2179 C 0.98506 0.12103 0.34564 0.0
C2180 C 0.97331 0.12333 0.36979 0.0
C2181 C 0.94633 0.12287 0.37169 0.0
C2182 C 0.98147 0.11524 0.29768 0.0
C2183 C 0.98923 0.1269 0.39357 0.0
C2184 C 0.05638 0.10384 0.34447 0.0
C2185 C 0.06775 0.12849 0.34152 0.0
C2186 C 0.02943 0.101 0.34532 0.0
C2187 C 0.01353 0.12333 0.34327 0.0
C2188 C 0.02484 0.14817 0.33985 0.0
C2189 C 0.05176 0.15044 0.33896 0.0
C2190 C 0.01798 0.07418 0.34884 0.0
C2191 C 0.0085 0.17247 0.33766 0.0
H2192 H 0.93077 0.11545 0.3093 0.0
H2193 H 0.93745 0.125 0.39021 0.0
H2194 H 0.99201 0.13337 0.29277 0.0
H2195 H 0.99574 0.09911 0.29755 0.0
H2196 H 0.9668 0.11146 0.28274 0.0
H2197 H 0.97715 0.12739 0.411 0.0
H2198 H 0.00347 0.11087 0.3954 0.0
H2199 H 0.00025 0.1454 0.39237 0.0
H2200 H 0.06851 0.08673 0.34632 0.0
H2201 H 0.06026 0.1696 0.33664 0.0
H2202 H 0.00395 0.07001 0.33344 0.0
H2203 H 0.00725 0.07335 0.36705 0.0
H2204 H 0.03294 0.05866 0.34891 0.0
H2205 H 0.9945 0.1704 0.32184 0.0
H2206 H 0.02028 0.19023 0.33431 0.0
H2207 H 0.99718 0.17526 0.35534 0.0
C2208 C 0.05378 0.61885 0.17387 0.0
C2209 C 0.06567 0.62128 0.15003 0.0
C2210 C 0.02679 0.61916 0.17621 0.0
C2211 C 0.01136 0.62214 0.15423 0.0
C2212 C 0.02319 0.62422 0.1301 0.0
C2213 C 0.05018 0.62371 0.12828 0.0
C2214 C 0.0148 0.61678 0.20225 0.0
C2215 C 0.00735 0.62759 0.10623 0.0
C2216 C 0.9401 0.60474 0.15538 0.0
C2217 C 0.92864 0.62937 0.15811 0.0
C2218 C 0.96706 0.60198 0.15459 0.0
C2219 C 0.98288 0.62439 0.15648 0.0
C2220 C 0.97149 0.64922 0.15966 0.0
C2221 C 0.94455 0.6514 0.16049 0.0
C2222 C 0.97861 0.57517 0.15134 0.0
C2223 C 0.98774 0.67358 0.16167 0.0
H2224 H 0.06554 0.61681 0.19077 0.0
H2225 H 0.05912 0.62565 0.10977 0.0
H2226 H 0.00417 0.63492 0.20692 0.0
H2227 H 0.0006 0.60059 0.2025 0.0
H2228 H 0.02943 0.61322 0.21728 0.0
H2229 H 0.01949 0.62798 0.08884 0.0
H2230 H 0.99316 0.6115 0.10447 0.0
H2231 H 0.99626 0.64606 0.10726 0.0
H2232 H 0.92803 0.58757 0.15367 0.0
H2233 H 0.93598 0.67055 0.16263 0.0
H2234 H 0.99258 0.57116 0.16683 0.0
H2235 H 0.98942 0.57423 0.13318 0.0
H2236 H 0.9637 0.55961 0.15132 0.0
H2237 H 0.0017 0.6717 0.17755 0.0
H2238 H 0.97589 0.69134 0.16483 0.0
H2239 H -0.00089 0.67624 0.144 0.0
C2240 C 0.44341 0.37693 0.67489 0.0
C2241 C 0.43154 0.37447 0.65104 0.0
C2242 C 0.47039 0.37651 0.67728 0.0
C2243 C 0.48584 0.3734 0.65533 0.0
C2244 C 0.47404 0.37128 0.63119 0.0
C2245 C 0.44706 0.3719 0.62933 0.0
C2246 C 0.48235 0.37894 0.70332 0.0
C2247 C 0.4899 0.36777 0.60736 0.0
C2248 C 0.55714 0.39062 0.65642 0.0
C2249 C 0.56854 0.36596 0.65921 0.0
C2250 C 0.53019 0.39344 0.65566 0.0
C2251 C 0.51431 0.37109 0.65763 0.0
C2252 C 0.52564 0.34624 0.6609 0.0
C2253 C 0.55258 0.34398 0.6617 0.0
C2254 C 0.5187 0.42027 0.65231 0.0
C2255 C 0.50933 0.32192 0.663 0.0
H2256 H 0.43163 0.37907 0.69177 0.0
H2257 H 0.43814 0.36993 0.61081 0.0
H2258 H 0.49293 0.36078 0.70807 0.0
H2259 H 0.49659 0.39509 0.70355 0.0
H2260 H 0.46771 0.38258 0.71832 0.0
H2261 H 0.47779 0.36733 0.58996 0.0
H2262 H 0.50413 0.38382 0.60555 0.0
H2263 H 0.50094 0.34927 0.60849 0.0
H2264 H 0.56925 0.40774 0.65463 0.0
H2265 H 0.5611 0.32482 0.66389 0.0
H2266 H 0.50472 0.42435 0.66776 0.0
H2267 H 0.50792 0.4212 0.63413 0.0
H2268 H 0.53365 0.4358 0.65228 0.0
H2269 H 0.49535 0.32391 0.67885 0.0
H2270 H 0.52113 0.30415 0.66626 0.0
H2271 H 0.49798 0.31921 0.64533 0.0
C2272 C 0.8253 0.58323 0.86452 0.0
C2273 C 0.84937 0.59576 0.86586 0.0
C2274 C 0.82358 0.55609 0.86193 0.0
C2275 C 0.84646 0.54111 0.86071 0.0
C2276 C 0.8708 0.55357 0.86185 0.0
C2277 C 0.87197 0.58074 0.86439 0.0
C2278 C 0.79729 0.54342 0.86076 0.0
C2279 C 0.89563 0.53817 0.86065 0.0
C2280 C 0.84479 0.47007 0.88011 0.0
C2281 C 0.84533 0.45736 0.8565 0.0
C2282 C 0.84465 0.49731 0.8817 0.0
C2283 C 0.84502 0.51227 0.85915 0.0
C2284 C 0.84482 0.49967 0.83524 0.0
C2285 C 0.84497 0.47234 0.83419 0.0
C2286 C 0.84475 0.51008 0.90755 0.0
C2287 C 0.84509 0.51506 0.8108 0.0
H2288 H 0.8077 0.5946 0.86553 0.0
H2289 H 0.89067 0.59018 0.86529 0.0
H2290 H 0.79552 0.53165 0.84318 0.0
H2291 H 0.79486 0.52992 0.87704 0.0
H2292 H 0.78137 0.55792 0.86117 0.0
H2293 H 0.91298 0.55088 0.86113 0.0
H2294 H 0.89661 0.52443 0.87689 0.0
H2295 H 0.89618 0.52636 0.84301 0.0
H2296 H 0.84487 0.45874 0.89748 0.0
H2297 H 0.84535 0.46275 0.81586 0.0
H2298 H 0.82832 0.52384 0.90921 0.0
H2299 H 0.86273 0.52156 0.91 0.0
H2300 H 0.84346 0.49566 0.92324 0.0
H2301 H 0.82885 0.52915 0.81053 0.0
H2302 H 0.84363 0.50235 0.79379 0.0
H2303 H 0.86322 0.5265 0.8095 0.0
C2304 C 0.37079 0.91576 0.13363 0.0
C2305 C 0.34826 0.9007 0.13168 0.0
C2306 C 0.36951 0.94293 0.13616 0.0
C2307 C 0.34513 0.95535 0.1368 0.0
C2308 C 0.32231 0.94033 0.135 0.0
C2309 C 0.32414 0.91319 0.13244 0.0
C2310 C 0.39428 0.95836 0.13798 0.0
C2311 C 0.29598 0.95296 0.13561 0.0
C2312 C 0.34309 0.0238 0.16402 0.0
C2313 C 0.34399 0.03904 0.1419 0.0
C2314 C 0.34289 0.99649 0.16265 0.0
C2315 C 0.3436 0.98417 0.13862 0.0
C2316 C 0.34377 -0.00061 0.11624 0.0
C2317 C 0.34393 0.02661 0.11814 0.0
C2318 C 0.34257 0.98081 0.18692 0.0
C2319 C 0.34445 0.98692 0.09025 0.0
H2320 H 0.38952 0.90636 0.13317 0.0
H2321 H 0.30659 0.90179 0.13103 0.0
H2322 H 0.39553 0.97231 0.12193 0.0
H2323 H 0.39446 0.96996 0.15576 0.0
H2324 H 0.41167 0.9457 0.13767 0.0
H2325 H 0.28009 0.93845 0.13458 0.0
H2326 H 0.29371 0.96448 0.15329 0.0
H2327 H 0.29398 0.96668 0.11944 0.0
H2328 H 0.34307 0.03317 0.18246 0.0
H2329 H 0.34445 0.03814 0.10089 0.0
H2330 H 0.36067 0.96936 0.18853 0.0
H2331 H 0.32634 0.96671 0.18666 0.0
H2332 H 0.34069 0.99333 0.20404 0.0
H2333 H 0.36252 0.97553 0.08805 0.0
H2334 H 0.34343 0.00152 0.07471 0.0
H2335 H 0.3281 0.97312 0.08811 0.0
C2336 C 0.15409 0.96944 0.61769 0.0
C2337 C 0.15399 0.9568 0.64135 0.0
C2338 C 0.15418 0.99669 0.61602 0.0
C2339 C 0.15421 0.0117 0.63853 0.0
C2340 C 0.15491 -0.00083 0.66246 0.0
C2341 C 0.1548 0.97185 0.6636 0.0
C2342 C 0.15352 0.00939 0.59014 0.0
C2343 C 0.15509 0.01462 0.68686 0.0
C2344 C 0.17324 0.08285 0.63306 0.0
C2345 C 0.14904 0.0952 0.63235 0.0
C2346 C 0.17523 0.0557 0.63536 0.0
C2347 C 0.15251 0.04052 0.63694 0.0
C2348 C 0.12805 0.05279 0.63636 0.0
C2349 C 0.1266 0.07997 0.63409 0.0
C2350 C 0.20165 0.04324 0.63593 0.0
C2351 C 0.10338 0.03718 0.63797 0.0
H2352 H 0.15366 0.95807 0.60036 0.0
H2353 H 0.15478 0.96232 0.68197 0.0
H2354 H 0.13538 0.02066 0.58795 0.0
H2355 H 0.16977 0.02333 0.58818 0.0
H2356 H 0.15471 0.99494 0.57448 0.0
H2357 H 0.15704 0.00196 0.70387 0.0
H2358 H 0.17122 0.02884 0.68674 0.0
H2359 H 0.1369 0.02592 0.68853 0.0
H2360 H 0.19072 0.09438 0.6318 0.0
H2361 H 0.10781 0.08926 0.63366 0.0
H2362 H 0.20377 0.0297 0.61965 0.0
H2363 H 0.20394 0.03155 0.65351 0.0
H2364 H 0.21744 0.05786 0.63508 0.0
H2365 H 0.10226 0.02338 0.62178 0.0
H2366 H 0.08591 0.04974 0.63771 0.0
H2367 H 0.10321 0.02541 0.65564 0.0
C2368 C 0.67221 0.41281 0.36603 0.0
C2369 C 0.64816 0.40022 0.36716 0.0
C2370 C 0.67388 0.43995 0.36336 0.0
C2371 C 0.65097 0.45487 0.36185 0.0
C2372 C 0.62666 0.44234 0.36284 0.0
C2373 C 0.62553 0.41518 0.36547 0.0
C2374 C 0.70015 0.45269 0.36237 0.0
C2375 C 0.6018 0.45767 0.36133 0.0
C2376 C 0.65228 0.52609 0.3806 0.0
C2377 C 0.65193 0.53858 0.35687 0.0
C2378 C 0.65246 0.49887 0.38245 0.0
C2379 C 0.65235 0.4837 0.36004 0.0
C2380 C 0.65272 0.49607 0.33602 0.0
C2381 C 0.65252 0.52339 0.33471 0.0
C2382 C 0.65216 0.48634 0.40842 0.0
C2383 C 0.65272 0.48045 0.31172 0.0
H2384 H 0.68983 0.40149 0.36723 0.0
H2385 H 0.60685 0.40569 0.36621 0.0
H2386 H 0.70209 0.46427 0.34467 0.0
H2387 H 0.70234 0.46638 0.37853 0.0
H2388 H 0.71611 0.43825 0.36312 0.0
H2389 H 0.58447 0.44492 0.36182 0.0
H2390 H 0.60068 0.47157 0.37742 0.0
H2391 H 0.60134 0.4693 0.34357 0.0
H2392 H 0.65201 0.53758 0.39787 0.0
H2393 H 0.65229 0.53281 0.31628 0.0
H2394 H 0.66861 0.47263 0.41035 0.0
H2395 H 0.63419 0.47484 0.41081 0.0
H2396 H 0.65328 0.50091 0.42398 0.0
H2397 H 0.66903 0.46643 0.31172 0.0
H2398 H 0.65428 0.49301 0.2946 0.0
H2399 H 0.63465 0.46892 0.31038 0.0
loop_
_geom_bond_atom_site_label_1
_geom_bond_atom_site_label_2
_geom_bond_distance
_geom_bond_site_symmetry_2
_ccdc_geom_bond_type
Mn0 O5 2.095 . S
Mn0 O15 2.162 . S
Mn0 O16 2.297 . S
Mn0 O24 2.385 . S
Mn0 O25 2.209 . S
Mn0 O26 2.094 . S
Mn1 O6 2.121 . S
Mn1 N8 2.257 . S
Mn1 N17 2.282 . S
Mn1 O25 2.215 . S
Mn1 O27 2.117 . S
C2 O24 1.234 . S
C2 O25 1.283 . S
C3 O15 1.281 . S
C3 O16 1.236 . S
C4 O26 1.240 . S
C4 O27 1.264 . S
O5 Mn0 2.095 . S
O5 C14 1.250 . S
O6 Mn1 2.121 . S
O6 C14 1.258 . S
C7 N8 1.326 . S
C7 C11 1.460 . S
C7 H13 0.929 . S
N8 Mn1 2.257 . S
N8 C7 1.326 . S
N8 C12 1.362 . S
C9 C10 1.258 . S
C9 C12 1.431 . S
C9 C29 1.449 . S
C10 C9 1.258 . S
C10 C11 1.477 . S
C10 H30 0.931 . S
C11 C7 1.460 . S
C11 C10 1.477 . S
C11 H31 0.930 . S
C12 N8 1.362 . S
C12 C9 1.431 . S
C12 C22 1.476 . S
H13 C7 0.929 . S
C14 O5 1.250 . S
C14 O6 1.258 . S
O15 Mn0 2.162 . S
O15 C3 1.281 . S
O16 Mn0 2.297 . S
O16 C3 1.236 . S
N17 Mn1 2.282 . S
N17 C18 1.328 . S
N17 C22 1.318 . S
C18 N17 1.328 . S
C18 C19 1.457 . S
C18 H23 0.929 . S
C19 C18 1.457 . S
C19 C20 1.291 . S
C19 H32 0.931 . S
C20 C19 1.291 . S
C20 C21 1.373 . S
C20 H33 0.929 . S
C21 C20 1.373 . S
C21 C22 1.396 . S
C21 C28 1.403 . S
C22 C12 1.476 . S
C22 N17 1.318 . S
C22 C21 1.396 . S
H23 C18 0.929 . S
O24 Mn0 2.385 . S
O24 C2 1.234 . S
O25 Mn0 2.209 . S
O25 Mn1 2.215 . S
O25 C2 1.283 . S
O26 Mn0 2.094 . S
O26 C4 1.240 . S
O27 Mn1 2.117 . S
O27 C4 1.264 . S
C28 C21 1.403 . S
C28 C29 1.399 . S
C28 H34 0.929 . S
C29 C9 1.449 . S
C29 C28 1.399 . S
C29 H35 0.930 . S
H30 C10 0.931 . S
H31 C11 0.930 . S
H32 C19 0.931 . S
H33 C20 0.929 . S
H34 C28 0.929 . S
H35 C29 0.930 . S
Mn36 O41 2.095 . S
Mn36 O51 2.162 . S
Mn36 O52 2.297 . S
Mn36 O60 2.385 . S
Mn36 O61 2.209 . S
Mn36 O62 2.094 . S
Mn37 O42 2.121 . S
Mn37 N44 2.257 . S
Mn37 N53 2.282 . S
Mn37 O61 2.215 . S
Mn37 O63 2.117 . S
C38 O60 1.234 . S
C38 O61 1.283 . S
C39 O51 1.281 . S
C39 O52 1.236 . S
C40 O62 1.240 . S
C40 O63 1.264 . S
O41 Mn36 2.095 . S
O41 C50 1.250 . S
O42 Mn37 2.121 . S
O42 C50 1.258 . S
C43 N44 1.326 . S
C43 C47 1.460 . S
C43 H49 0.929 . S
N44 Mn37 2.257 . S
N44 C43 1.326 . S
N44 C48 1.362 . S
C45 C46 1.258 . S
C45 C48 1.431 . S
C45 C65 1.449 . S
C46 C45 1.258 . S
C46 C47 1.477 . S
C46 H66 0.931 . S
C47 C43 1.460 . S
C47 C46 1.477 . S
C47 H67 0.930 . S
C48 N44 1.362 . S
C48 C45 1.431 . S
C48 C58 1.476 . S
H49 C43 0.929 . S
C50 O41 1.250 . S
C50 O42 1.258 . S
O51 Mn36 2.162 . S
O51 C39 1.281 . S
O52 Mn36 2.297 . S
O52 C39 1.236 . S
N53 Mn37 2.282 . S
N53 C54 1.328 . S
N53 C58 1.318 . S
C54 N53 1.328 . S
C54 C55 1.457 . S
C54 H59 0.929 . S
C55 C54 1.457 . S
C55 C56 1.291 . S
C55 H68 0.931 . S
C56 C55 1.291 . S
C56 C57 1.373 . S
C56 H69 0.929 . S
C57 C56 1.373 . S
C57 C58 1.396 . S
C57 C64 1.403 . S
C58 C48 1.476 . S
C58 N53 1.318 . S
C58 C57 1.396 . S
H59 C54 0.929 . S
O60 Mn36 2.385 . S
O60 C38 1.234 . S
O61 Mn36 2.209 . S
O61 Mn37 2.215 . S
O61 C38 1.283 . S
O62 Mn36 2.094 . S
O62 C40 1.240 . S
O63 Mn37 2.117 . S
O63 C40 1.264 . S
C64 C57 1.403 . S
C64 C65 1.399 . S
C64 H70 0.929 . S
C65 C45 1.449 . S
C65 C64 1.399 . S
C65 H71 0.930 . S
H66 C46 0.931 . S
H67 C47 0.930 . S
H68 C55 0.931 . S
H69 C56 0.929 . S
H70 C64 0.929 . S
H71 C65 0.930 . S
Mn72 O77 2.095 . S
Mn72 O87 2.162 . S
Mn72 O88 2.297 . S
Mn72 O96 2.385 . S
Mn72 O97 2.209 . S
Mn72 O98 2.094 . S
Mn73 O78 2.121 . S
Mn73 N80 2.257 . S
Mn73 N89 2.282 . S
Mn73 O97 2.215 . S
Mn73 O99 2.117 . S
C74 O96 1.234 . S
C74 O97 1.283 . S
C75 O87 1.281 . S
C75 O88 1.236 . S
C76 O98 1.240 . S
C76 O99 1.264 . S
O77 Mn72 2.095 . S
O77 C86 1.250 . S
O78 Mn73 2.121 . S
O78 C86 1.258 . S
C79 N80 1.326 . S
C79 C83 1.460 . S
C79 H85 0.929 . S
N80 Mn73 2.257 . S
N80 C79 1.326 . S
N80 C84 1.362 . S
C81 C82 1.258 . S
C81 C84 1.431 . S
C81 C101 1.449 . S
C82 C81 1.258 . S
C82 C83 1.477 . S
C82 H102 0.931 . S
C83 C79 1.460 . S
C83 C82 1.477 . S
C83 H103 0.930 . S
C84 N80 1.362 . S
C84 C81 1.431 . S
C84 C94 1.476 . S
H85 C79 0.929 . S
C86 O77 1.250 . S
C86 O78 1.258 . S
O87 Mn72 2.162 . S
O87 C75 1.281 . S
O88 Mn72 2.297 . S
O88 C75 1.236 . S
N89 Mn73 2.282 . S
N89 C90 1.328 . S
N89 C94 1.318 . S
C90 N89 1.328 . S
C90 C91 1.457 . S
C90 H95 0.929 . S
C91 C90 1.457 . S
C91 C92 1.291 . S
C91 H104 0.931 . S
C92 C91 1.291 . S
C92 C93 1.373 . S
C92 H105 0.929 . S
C93 C92 1.373 . S
C93 C94 1.396 . S
C93 C100 1.403 . S
C94 C84 1.476 . S
C94 N89 1.318 . S
C94 C93 1.396 . S
H95 C90 0.929 . S
O96 Mn72 2.385 . S
O96 C74 1.234 . S
O97 Mn72 2.209 . S
O97 Mn73 2.215 . S
O97 C74 1.283 . S
O98 Mn72 2.094 . S
O98 C76 1.240 . S
O99 Mn73 2.117 . S
O99 C76 1.264 . S
C100 C93 1.403 . S
C100 C101 1.399 . S
C100 H106 0.929 . S
C101 C81 1.449 . S
C101 C100 1.399 . S
C101 H107 0.930 . S
H102 C82 0.931 . S
H103 C83 0.930 . S
H104 C91 0.931 . S
H105 C92 0.929 . S
H106 C100 0.929 . S
H107 C101 0.930 . S
Mn108 O113 2.095 . S
Mn108 O123 2.162 . S
Mn108 O124 2.297 . S
Mn108 O132 2.385 . S
Mn108 O133 2.209 . S
Mn108 O134 2.094 . S
Mn109 O114 2.121 . S
Mn109 N116 2.257 . S
Mn109 N125 2.282 . S
Mn109 O133 2.215 . S
Mn109 O135 2.117 . S
C110 O132 1.234 . S
C110 O133 1.283 . S
C111 O123 1.281 . S
C111 O124 1.236 . S
C112 O134 1.240 . S
C112 O135 1.264 . S
O113 Mn108 2.095 . S
O113 C122 1.250 . S
O114 Mn109 2.121 . S
O114 C122 1.258 . S
C115 N116 1.326 . S
C115 C119 1.460 . S
C115 H121 0.929 . S
N116 Mn109 2.257 . S
N116 C115 1.326 . S
N116 C120 1.362 . S
C117 C118 1.258 . S
C117 C120 1.431 . S
C117 C137 1.449 . S
C118 C117 1.258 . S
C118 C119 1.477 . S
C118 H138 0.931 . S
C119 C115 1.460 . S
C119 C118 1.477 . S
C119 H139 0.930 . S
C120 N116 1.362 . S
C120 C117 1.431 . S
C120 C130 1.476 . S
H121 C115 0.929 . S
C122 O113 1.250 . S
C122 O114 1.258 . S
O123 Mn108 2.162 . S
O123 C111 1.281 . S
O124 Mn108 2.297 . S
O124 C111 1.236 . S
N125 Mn109 2.282 . S
N125 C126 1.328 . S
N125 C130 1.318 . S
C126 N125 1.328 . S
C126 C127 1.457 . S
C126 H131 0.929 . S
C127 C126 1.457 . S
C127 C128 1.291 . S
C127 H140 0.931 . S
C128 C127 1.291 . S
C128 C129 1.373 . S
C128 H141 0.929 . S
C129 C128 1.373 . S
C129 C130 1.396 . S
C129 C136 1.403 . S
C130 C120 1.476 . S
C130 N125 1.318 . S
C130 C129 1.396 . S
H131 C126 0.929 . S
O132 Mn108 2.385 . S
O132 C110 1.234 . S
O133 Mn108 2.209 . S
O133 Mn109 2.215 . S
O133 C110 1.283 . S
O134 Mn108 2.094 . S
O134 C112 1.240 . S
O135 Mn109 2.117 . S
O135 C112 1.264 . S
C136 C129 1.403 . S
C136 C137 1.399 . S
C136 H142 0.929 . S
C137 C117 1.449 . S
C137 C136 1.399 . S
C137 H143 0.930 . S
H138 C118 0.931 . S
H139 C119 0.930 . S
H140 C127 0.931 . S
H141 C128 0.929 . S
H142 C136 0.929 . S
H143 C137 0.930 . S
Mn144 O149 2.095 . S
Mn144 O159 2.162 . S
Mn144 O160 2.297 . S
Mn144 O168 2.385 . S
Mn144 O169 2.209 . S
Mn144 O170 2.094 . S
Mn145 O150 2.121 . S
Mn145 N152 2.257 . S
Mn145 N161 2.282 . S
Mn145 O169 2.215 . S
Mn145 O171 2.117 . S
C146 O168 1.234 . S
C146 O169 1.283 . S
C147 O159 1.281 . S
C147 O160 1.236 . S
C148 O170 1.240 . S
C148 O171 1.264 . S
O149 Mn144 2.095 . S
O149 C158 1.250 . S
O150 Mn145 2.121 . S
O150 C158 1.258 . S
C151 N152 1.326 . S
C151 C155 1.460 . S
C151 H157 0.929 . S
N152 Mn145 2.257 . S
N152 C151 1.326 . S
N152 C156 1.362 . S
C153 C154 1.258 . S
C153 C156 1.431 . S
C153 C173 1.449 . S
C154 C153 1.258 . S
C154 C155 1.477 . S
C154 H174 0.931 . S
C155 C151 1.460 . S
C155 C154 1.477 . S
C155 H175 0.930 . S
C156 N152 1.362 . S
C156 C153 1.431 . S
C156 C166 1.476 . S
H157 C151 0.929 . S
C158 O149 1.250 . S
C158 O150 1.258 . S
O159 Mn144 2.162 . S
O159 C147 1.281 . S
O160 Mn144 2.297 . S
O160 C147 1.236 . S
N161 Mn145 2.282 . S
N161 C162 1.328 . S
N161 C166 1.318 . S
C162 N161 1.328 . S
C162 C163 1.457 . S
C162 H167 0.929 . S
C163 C162 1.457 . S
C163 C164 1.291 . S
C163 H176 0.931 . S
C164 C163 1.291 . S
C164 C165 1.373 . S
C164 H177 0.929 . S
C165 C164 1.373 . S
C165 C166 1.396 . S
C165 C172 1.403 . S
C166 C156 1.476 . S
C166 N161 1.318 . S
C166 C165 1.396 . S
H167 C162 0.929 . S
O168 Mn144 2.385 . S
O168 C146 1.234 . S
O169 Mn144 2.209 . S
O169 Mn145 2.215 . S
O169 C146 1.283 . S
O170 Mn144 2.094 . S
O170 C148 1.240 . S
O171 Mn145 2.117 . S
O171 C148 1.264 . S
C172 C165 1.403 . S
C172 C173 1.399 . S
C172 H178 0.929 . S
C173 C153 1.449 . S
C173 C172 1.399 . S
C173 H179 0.930 . S
H174 C154 0.931 . S
H175 C155 0.930 . S
H176 C163 0.931 . S
H177 C164 0.929 . S
H178 C172 0.929 . S
H179 C173 0.930 . S
Mn180 O185 2.095 . S
Mn180 O195 2.162 . S
Mn180 O196 2.297 . S
Mn180 O204 2.385 . S
Mn180 O205 2.209 . S
Mn180 O206 2.094 . S
Mn181 O186 2.121 . S
Mn181 N188 2.257 . S
Mn181 N197 2.282 . S
Mn181 O205 2.215 . S
Mn181 O207 2.117 . S
C182 O204 1.234 . S
C182 O205 1.283 . S
C183 O195 1.281 . S
C183 O196 1.236 . S
C184 O206 1.240 . S
C184 O207 1.264 . S
O185 Mn180 2.095 . S
O185 C194 1.250 . S
O186 Mn181 2.121 . S
O186 C194 1.258 . S
C187 N188 1.326 . S
C187 C191 1.460 . S
C187 H193 0.929 . S
N188 Mn181 2.257 . S
N188 C187 1.326 . S
N188 C192 1.362 . S
C189 C190 1.258 . S
C189 C192 1.431 . S
C189 C209 1.449 . S
C190 C189 1.258 . S
C190 C191 1.477 . S
C190 H210 0.931 . S
C191 C187 1.460 . S
C191 C190 1.477 . S
C191 H211 0.930 . S
C192 N188 1.362 . S
C192 C189 1.431 . S
C192 C202 1.476 . S
H193 C187 0.929 . S
C194 O185 1.250 . S
C194 O186 1.258 . S
O195 Mn180 2.162 . S
O195 C183 1.281 . S
O196 Mn180 2.297 . S
O196 C183 1.236 . S
N197 Mn181 2.282 . S
N197 C198 1.328 . S
N197 C202 1.318 . S
C198 N197 1.328 . S
C198 C199 1.457 . S
C198 H203 0.929 . S
C199 C198 1.457 . S
C199 C200 1.291 . S
C199 H212 0.931 . S
C200 C199 1.291 . S
C200 C201 1.373 . S
C200 H213 0.929 . S
C201 C200 1.373 . S
C201 C202 1.396 . S
C201 C208 1.403 . S
C202 C192 1.476 . S
C202 N197 1.318 . S
C202 C201 1.396 . S
H203 C198 0.929 . S
O204 Mn180 2.385 . S
O204 C182 1.234 . S
O205 Mn180 2.209 . S
O205 Mn181 2.215 . S
O205 C182 1.283 . S
O206 Mn180 2.094 . S
O206 C184 1.240 . S
O207 Mn181 2.117 . S
O207 C184 1.264 . S
C208 C201 1.403 . S
C208 C209 1.399 . S
C208 H214 0.929 . S
C209 C189 1.449 . S
C209 C208 1.399 . S
C209 H215 0.930 . S
H210 C190 0.931 . S
H211 C191 0.930 . S
H212 C199 0.931 . S
H213 C200 0.929 . S
H214 C208 0.929 . S
H215 C209 0.930 . S
Mn216 O221 2.095 . S
Mn216 O231 2.162 . S
Mn216 O232 2.297 . S
Mn216 O240 2.385 . S
Mn216 O241 2.209 . S
Mn216 O242 2.094 . S
Mn217 O222 2.121 . S
Mn217 N224 2.257 . S
Mn217 N233 2.282 . S
Mn217 O241 2.215 . S
Mn217 O243 2.117 . S
C218 O240 1.234 . S
C218 O241 1.283 . S
C219 O231 1.281 . S
C219 O232 1.236 . S
C220 O242 1.240 . S
C220 O243 1.264 . S
O221 Mn216 2.095 . S
O221 C230 1.250 . S
O222 Mn217 2.121 . S
O222 C230 1.258 . S
C223 N224 1.326 . S
C223 C227 1.460 . S
C223 H229 0.929 . S
N224 Mn217 2.257 . S
N224 C223 1.326 . S
N224 C228 1.362 . S
C225 C226 1.258 . S
C225 C228 1.431 . S
C225 C245 1.449 . S
C226 C225 1.258 . S
C226 C227 1.477 . S
C226 H246 0.931 . S
C227 C223 1.460 . S
C227 C226 1.477 . S
C227 H247 0.930 . S
C228 N224 1.362 . S
C228 C225 1.431 . S
C228 C238 1.476 . S
H229 C223 0.929 . S
C230 O221 1.250 . S
C230 O222 1.258 . S
O231 Mn216 2.162 . S
O231 C219 1.281 . S
O232 Mn216 2.297 . S
O232 C219 1.236 . S
N233 Mn217 2.282 . S
N233 C234 1.328 . S
N233 C238 1.318 . S
C234 N233 1.328 . S
C234 C235 1.457 . S
C234 H239 0.929 . S
C235 C234 1.457 . S
C235 C236 1.291 . S
C235 H248 0.931 . S
C236 C235 1.291 . S
C236 C237 1.373 . S
C236 H249 0.929 . S
C237 C236 1.373 . S
C237 C238 1.396 . S
C237 C244 1.403 . S
C238 C228 1.476 . S
C238 N233 1.318 . S
C238 C237 1.396 . S
H239 C234 0.929 . S
O240 Mn216 2.385 . S
O240 C218 1.234 . S
O241 Mn216 2.209 . S
O241 Mn217 2.215 . S
O241 C218 1.283 . S
O242 Mn216 2.094 . S
O242 C220 1.240 . S
O243 Mn217 2.117 . S
O243 C220 1.264 . S
C244 C237 1.403 . S
C244 C245 1.399 . S
C244 H250 0.929 . S
C245 C225 1.449 . S
C245 C244 1.399 . S
C245 H251 0.930 . S
H246 C226 0.931 . S
H247 C227 0.930 . S
H248 C235 0.931 . S
H249 C236 0.929 . S
H250 C244 0.929 . S
H251 C245 0.930 . S
Mn252 O257 2.095 . S
Mn252 O267 2.162 . S
Mn252 O268 2.297 . S
Mn252 O276 2.385 . S
Mn252 O277 2.209 . S
Mn252 O278 2.094 . S
Mn253 O258 2.121 . S
Mn253 N260 2.257 . S
Mn253 N269 2.282 . S
Mn253 O277 2.215 . S
Mn253 O279 2.117 . S
C254 O276 1.234 . S
C254 O277 1.283 . S
C255 O267 1.281 . S
C255 O268 1.236 . S
C256 O278 1.240 . S
C256 O279 1.264 . S
O257 Mn252 2.095 . S
O257 C266 1.250 . S
O258 Mn253 2.121 . S
O258 C266 1.258 . S
C259 N260 1.326 . S
C259 C263 1.460 . S
C259 H265 0.929 . S
N260 Mn253 2.257 . S
N260 C259 1.326 . S
N260 C264 1.362 . S
C261 C262 1.258 . S
C261 C264 1.431 . S
C261 C281 1.449 . S
C262 C261 1.258 . S
C262 C263 1.477 . S
C262 H282 0.931 . S
C263 C259 1.460 . S
C263 C262 1.477 . S
C263 H283 0.930 . S
C264 N260 1.362 . S
C264 C261 1.431 . S
C264 C274 1.476 . S
H265 C259 0.929 . S
C266 O257 1.250 . S
C266 O258 1.258 . S
O267 Mn252 2.162 . S
O267 C255 1.281 . S
O268 Mn252 2.297 . S
O268 C255 1.236 . S
N269 Mn253 2.282 . S
N269 C270 1.328 . S
N269 C274 1.318 . S
C270 N269 1.328 . S
C270 C271 1.457 . S
C270 H275 0.929 . S
C271 C270 1.457 . S
C271 C272 1.291 . S
C271 H284 0.931 . S
C272 C271 1.291 . S
C272 C273 1.373 . S
C272 H285 0.929 . S
C273 C272 1.373 . S
C273 C274 1.396 . S
C273 C280 1.403 . S
C274 C264 1.476 . S
C274 N269 1.318 . S
C274 C273 1.396 . S
H275 C270 0.929 . S
O276 Mn252 2.385 . S
O276 C254 1.234 . S
O277 Mn252 2.209 . S
O277 Mn253 2.215 . S
O277 C254 1.283 . S
O278 Mn252 2.094 . S
O278 C256 1.240 . S
O279 Mn253 2.117 . S
O279 C256 1.264 . S
C280 C273 1.403 . S
C280 C281 1.399 . S
C280 H286 0.929 . S
C281 C261 1.449 . S
C281 C280 1.399 . S
C281 H287 0.930 . S
H282 C262 0.931 . S
H283 C263 0.930 . S
H284 C271 0.931 . S
H285 C272 0.929 . S
H286 C280 0.929 . S
H287 C281 0.930 . S
Mn288 O293 2.095 . S
Mn288 O303 2.162 . S
Mn288 O304 2.297 . S
Mn288 O312 2.385 . S
Mn288 O313 2.209 . S
Mn288 O314 2.094 . S
Mn289 O294 2.121 . S
Mn289 N296 2.257 . S
Mn289 N305 2.282 . S
Mn289 O313 2.215 . S
Mn289 O315 2.117 . S
C290 O312 1.234 . S
C290 O313 1.283 . S
C291 O303 1.281 . S
C291 O304 1.236 . S
C292 O314 1.240 . S
C292 O315 1.264 . S
O293 Mn288 2.095 . S
O293 C302 1.250 . S
O294 Mn289 2.121 . S
O294 C302 1.258 . S
C295 N296 1.326 . S
C295 C299 1.460 . S
C295 H301 0.929 . S
N296 Mn289 2.257 . S
N296 C295 1.326 . S
N296 C300 1.362 . S
C297 C298 1.258 . S
C297 C300 1.431 . S
C297 C317 1.449 . S
C298 C297 1.258 . S
C298 C299 1.477 . S
C298 H318 0.931 . S
C299 C295 1.460 . S
C299 C298 1.477 . S
C299 H319 0.930 . S
C300 N296 1.362 . S
C300 C297 1.431 . S
C300 C310 1.476 . S
H301 C295 0.929 . S
C302 O293 1.250 . S
C302 O294 1.258 . S
O303 Mn288 2.162 . S
O303 C291 1.281 . S
O304 Mn288 2.297 . S
O304 C291 1.236 . S
N305 Mn289 2.282 . S
N305 C306 1.328 . S
N305 C310 1.318 . S
C306 N305 1.328 . S
C306 C307 1.457 . S
C306 H311 0.929 . S
C307 C306 1.457 . S
C307 C308 1.291 . S
C307 H320 0.931 . S
C308 C307 1.291 . S
C308 C309 1.373 . S
C308 H321 0.929 . S
C309 C308 1.373 . S
C309 C310 1.396 . S
C309 C316 1.403 . S
C310 C300 1.476 . S
C310 N305 1.318 . S
C310 C309 1.396 . S
H311 C306 0.929 . S
O312 Mn288 2.385 . S
O312 C290 1.234 . S
O313 Mn288 2.209 . S
O313 Mn289 2.215 . S
O313 C290 1.283 . S
O314 Mn288 2.094 . S
O314 C292 1.240 . S
O315 Mn289 2.117 . S
O315 C292 1.264 . S
C316 C309 1.403 . S
C316 C317 1.399 . S
C316 H322 0.929 . S
C317 C297 1.449 . S
C317 C316 1.399 . S
C317 H323 0.930 . S
H318 C298 0.931 . S
H319 C299 0.930 . S
H320 C307 0.931 . S
H321 C308 0.929 . S
H322 C316 0.929 . S
H323 C317 0.930 . S
Mn324 O329 2.095 . S
Mn324 O339 2.162 . S
Mn324 O340 2.297 . S
Mn324 O348 2.385 . S
Mn324 O349 2.209 . S
Mn324 O350 2.094 . S
Mn325 O330 2.121 . S
Mn325 N332 2.257 . S
Mn325 N341 2.282 . S
Mn325 O349 2.215 . S
Mn325 O351 2.117 . S
C326 O348 1.234 . S
C326 O349 1.283 . S
C327 O339 1.281 . S
C327 O340 1.236 . S
C328 O350 1.240 . S
C328 O351 1.264 . S
O329 Mn324 2.095 . S
O329 C338 1.250 . S
O330 Mn325 2.121 . S
O330 C338 1.258 . S
C331 N332 1.326 . S
C331 C335 1.460 . S
C331 H337 0.929 . S
N332 Mn325 2.257 . S
N332 C331 1.326 . S
N332 C336 1.362 . S
C333 C334 1.258 . S
C333 C336 1.431 . S
C333 C353 1.449 . S
C334 C333 1.258 . S
C334 C335 1.477 . S
C334 H354 0.931 . S
C335 C331 1.460 . S
C335 C334 1.477 . S
C335 H355 0.930 . S
C336 N332 1.362 . S
C336 C333 1.431 . S
C336 C346 1.476 . S
H337 C331 0.929 . S
C338 O329 1.250 . S
C338 O330 1.258 . S
O339 Mn324 2.162 . S
O339 C327 1.281 . S
O340 Mn324 2.297 . S
O340 C327 1.236 . S
N341 Mn325 2.282 . S
N341 C342 1.328 . S
N341 C346 1.318 . S
C342 N341 1.328 . S
C342 C343 1.457 . S
C342 H347 0.929 . S
C343 C342 1.457 . S
C343 C344 1.291 . S
C343 H356 0.931 . S
C344 C343 1.291 . S
C344 C345 1.373 . S
C344 H357 0.929 . S
C345 C344 1.373 . S
C345 C346 1.396 . S
C345 C352 1.403 . S
C346 C336 1.476 . S
C346 N341 1.318 . S
C346 C345 1.396 . S
H347 C342 0.929 . S
O348 Mn324 2.385 . S
O348 C326 1.234 . S
O349 Mn324 2.209 . S
O349 Mn325 2.215 . S
O349 C326 1.283 . S
O350 Mn324 2.094 . S
O350 C328 1.240 . S
O351 Mn325 2.117 . S
O351 C328 1.264 . S
C352 C345 1.403 . S
C352 C353 1.399 . S
C352 H358 0.929 . S
C353 C333 1.449 . S
C353 C352 1.399 . S
C353 H359 0.930 . S
H354 C334 0.931 . S
H355 C335 0.930 . S
H356 C343 0.931 . S
H357 C344 0.929 . S
H358 C352 0.929 . S
H359 C353 0.930 . S
Mn360 O365 2.095 . S
Mn360 O375 2.162 . S
Mn360 O376 2.297 . S
Mn360 O384 2.385 . S
Mn360 O385 2.209 . S
Mn360 O386 2.094 . S
Mn361 O366 2.121 . S
Mn361 N368 2.257 . S
Mn361 N377 2.282 . S
Mn361 O385 2.215 . S
Mn361 O387 2.117 . S
C362 O384 1.234 . S
C362 O385 1.283 . S
C363 O375 1.281 . S
C363 O376 1.236 . S
C364 O386 1.240 . S
C364 O387 1.264 . S
O365 Mn360 2.095 . S
O365 C374 1.250 . S
O366 Mn361 2.121 . S
O366 C374 1.258 . S
C367 N368 1.326 . S
C367 C371 1.460 . S
C367 H373 0.929 . S
N368 Mn361 2.257 . S
N368 C367 1.326 . S
N368 C372 1.362 . S
C369 C370 1.258 . S
C369 C372 1.431 . S
C369 C389 1.449 . S
C370 C369 1.258 . S
C370 C371 1.477 . S
C370 H390 0.931 . S
C371 C367 1.460 . S
C371 C370 1.477 . S
C371 H391 0.930 . S
C372 N368 1.362 . S
C372 C369 1.431 . S
C372 C382 1.476 . S
H373 C367 0.929 . S
C374 O365 1.250 . S
C374 O366 1.258 . S
O375 Mn360 2.162 . S
O375 C363 1.281 . S
O376 Mn360 2.297 . S
O376 C363 1.236 . S
N377 Mn361 2.282 . S
N377 C378 1.328 . S
N377 C382 1.318 . S
C378 N377 1.328 . S
C378 C379 1.457 . S
C378 H383 0.929 . S
C379 C378 1.457 . S
C379 C380 1.291 . S
C379 H392 0.931 . S
C380 C379 1.291 . S
C380 C381 1.373 . S
C380 H393 0.929 . S
C381 C380 1.373 . S
C381 C382 1.396 . S
C381 C388 1.403 . S
C382 C372 1.476 . S
C382 N377 1.318 . S
C382 C381 1.396 . S
H383 C378 0.929 . S
O384 Mn360 2.385 . S
O384 C362 1.234 . S
O385 Mn360 2.209 . S
O385 Mn361 2.215 . S
O385 C362 1.283 . S
O386 Mn360 2.094 . S
O386 C364 1.240 . S
O387 Mn361 2.117 . S
O387 C364 1.264 . S
C388 C381 1.403 . S
C388 C389 1.399 . S
C388 H394 0.929 . S
C389 C369 1.449 . S
C389 C388 1.399 . S
C389 H395 0.930 . S
H390 C370 0.931 . S
H391 C371 0.930 . S
H392 C379 0.931 . S
H393 C380 0.929 . S
H394 C388 0.929 . S
H395 C389 0.930 . S
Mn396 O401 2.095 . S
Mn396 O411 2.162 . S
Mn396 O412 2.297 . S
Mn396 O420 2.385 . S
Mn396 O421 2.209 . S
Mn396 O422 2.094 . S
Mn397 O402 2.121 . S
Mn397 N404 2.257 . S
Mn397 N413 2.282 . S
Mn397 O421 2.215 . S
Mn397 O423 2.117 . S
C398 O420 1.234 . S
C398 O421 1.283 . S
C399 O411 1.281 . S
C399 O412 1.236 . S
C400 O422 1.240 . S
C400 O423 1.264 . S
O401 Mn396 2.095 . S
O401 C410 1.250 . S
O402 Mn397 2.121 . S
O402 C410 1.258 . S
C403 N404 1.326 . S
C403 C407 1.460 . S
C403 H409 0.929 . S
N404 Mn397 2.257 . S
N404 C403 1.326 . S
N404 C408 1.362 . S
C405 C406 1.258 . S
C405 C408 1.431 . S
C405 C425 1.449 . S
C406 C405 1.258 . S
C406 C407 1.477 . S
C406 H426 0.931 . S
C407 C403 1.460 . S
C407 C406 1.477 . S
C407 H427 0.930 . S
C408 N404 1.362 . S
C408 C405 1.431 . S
C408 C418 1.476 . S
H409 C403 0.929 . S
C410 O401 1.250 . S
C410 O402 1.258 . S
O411 Mn396 2.162 . S
O411 C399 1.281 . S
O412 Mn396 2.297 . S
O412 C399 1.236 . S
N413 Mn397 2.282 . S
N413 C414 1.328 . S
N413 C418 1.318 . S
C414 N413 1.328 . S
C414 C415 1.457 . S
C414 H419 0.929 . S
C415 C414 1.457 . S
C415 C416 1.291 . S
C415 H428 0.931 . S
C416 C415 1.291 . S
C416 C417 1.373 . S
C416 H429 0.929 . S
C417 C416 1.373 . S
C417 C418 1.396 . S
C417 C424 1.403 . S
C418 C408 1.476 . S
C418 N413 1.318 . S
C418 C417 1.396 . S
H419 C414 0.929 . S
O420 Mn396 2.385 . S
O420 C398 1.234 . S
O421 Mn396 2.209 . S
O421 Mn397 2.215 . S
O421 C398 1.283 . S
O422 Mn396 2.094 . S
O422 C400 1.240 . S
O423 Mn397 2.117 . S
O423 C400 1.264 . S
C424 C417 1.403 . S
C424 C425 1.399 . S
C424 H430 0.929 . S
C425 C405 1.449 . S
C425 C424 1.399 . S
C425 H431 0.930 . S
H426 C406 0.931 . S
H427 C407 0.930 . S
H428 C415 0.931 . S
H429 C416 0.929 . S
H430 C424 0.929 . S
H431 C425 0.930 . S
Mn432 O437 2.095 . S
Mn432 O447 2.162 . S
Mn432 O448 2.297 . S
Mn432 O456 2.385 . S
Mn432 O457 2.209 . S
Mn432 O458 2.094 . S
Mn433 O438 2.121 . S
Mn433 N440 2.257 . S
Mn433 N449 2.282 . S
Mn433 O457 2.215 . S
Mn433 O459 2.117 . S
C434 O456 1.234 . S
C434 O457 1.283 . S
C435 O447 1.281 . S
C435 O448 1.236 . S
C436 O458 1.240 . S
C436 O459 1.264 . S
O437 Mn432 2.095 . S
O437 C446 1.250 . S
O438 Mn433 2.121 . S
O438 C446 1.258 . S
C439 N440 1.326 . S
C439 C443 1.460 . S
C439 H445 0.929 . S
N440 Mn433 2.257 . S
N440 C439 1.326 . S
N440 C444 1.362 . S
C441 C442 1.258 . S
C441 C444 1.431 . S
C441 C461 1.449 . S
C442 C441 1.258 . S
C442 C443 1.477 . S
C442 H462 0.931 . S
C443 C439 1.460 . S
C443 C442 1.477 . S
C443 H463 0.930 . S
C444 N440 1.362 . S
C444 C441 1.431 . S
C444 C454 1.476 . S
H445 C439 0.929 . S
C446 O437 1.250 . S
C446 O438 1.258 . S
O447 Mn432 2.162 . S
O447 C435 1.281 . S
O448 Mn432 2.297 . S
O448 C435 1.236 . S
N449 Mn433 2.282 . S
N449 C450 1.328 . S
N449 C454 1.318 . S
C450 N449 1.328 . S
C450 C451 1.457 . S
C450 H455 0.929 . S
C451 C450 1.457 . S
C451 C452 1.291 . S
C451 H464 0.931 . S
C452 C451 1.291 . S
C452 C453 1.373 . S
C452 H465 0.929 . S
C453 C452 1.373 . S
C453 C454 1.396 . S
C453 C460 1.403 . S
C454 C444 1.476 . S
C454 N449 1.318 . S
C454 C453 1.396 . S
H455 C450 0.929 . S
O456 Mn432 2.385 . S
O456 C434 1.234 . S
O457 Mn432 2.209 . S
O457 Mn433 2.215 . S
O457 C434 1.283 . S
O458 Mn432 2.094 . S
O458 C436 1.240 . S
O459 Mn433 2.117 . S
O459 C436 1.264 . S
C460 C453 1.403 . S
C460 C461 1.399 . S
C460 H466 0.929 . S
C461 C441 1.449 . S
C461 C460 1.399 . S
C461 H467 0.930 . S
H462 C442 0.931 . S
H463 C443 0.930 . S
H464 C451 0.931 . S
H465 C452 0.929 . S
H466 C460 0.929 . S
H467 C461 0.930 . S
Mn468 O473 2.095 . S
Mn468 O483 2.162 . S
Mn468 O484 2.297 . S
Mn468 O492 2.385 . S
Mn468 O493 2.209 . S
Mn468 O494 2.094 . S
Mn469 O474 2.121 . S
Mn469 N476 2.257 . S
Mn469 N485 2.282 . S
Mn469 O493 2.215 . S
Mn469 O495 2.117 . S
C470 O492 1.234 . S
C470 O493 1.283 . S
C471 O483 1.281 . S
C471 O484 1.236 . S
C472 O494 1.240 . S
C472 O495 1.264 . S
O473 Mn468 2.095 . S
O473 C482 1.250 . S
O474 Mn469 2.121 . S
O474 C482 1.258 . S
C475 N476 1.326 . S
C475 C479 1.460 . S
C475 H481 0.929 . S
N476 Mn469 2.257 . S
N476 C475 1.326 . S
N476 C480 1.362 . S
C477 C478 1.258 . S
C477 C480 1.431 . S
C477 C497 1.449 . S
C478 C477 1.258 . S
C478 C479 1.477 . S
C478 H498 0.931 . S
C479 C475 1.460 . S
C479 C478 1.477 . S
C479 H499 0.930 . S
C480 N476 1.362 . S
C480 C477 1.431 . S
C480 C490 1.476 . S
H481 C475 0.929 . S
C482 O473 1.250 . S
C482 O474 1.258 . S
O483 Mn468 2.162 . S
O483 C471 1.281 . S
O484 Mn468 2.297 . S
O484 C471 1.236 . S
N485 Mn469 2.282 . S
N485 C486 1.328 . S
N485 C490 1.318 . S
C486 N485 1.328 . S
C486 C487 1.457 . S
C486 H491 0.929 . S
C487 C486 1.457 . S
C487 C488 1.291 . S
C487 H500 0.931 . S
C488 C487 1.291 . S
C488 C489 1.373 . S
C488 H501 0.929 . S
C489 C488 1.373 . S
C489 C490 1.396 . S
C489 C496 1.403 . S
C490 C480 1.476 . S
C490 N485 1.318 . S
C490 C489 1.396 . S
H491 C486 0.929 . S
O492 Mn468 2.385 . S
O492 C470 1.234 . S
O493 Mn468 2.209 . S
O493 Mn469 2.215 . S
O493 C470 1.283 . S
O494 Mn468 2.094 . S
O494 C472 1.240 . S
O495 Mn469 2.117 . S
O495 C472 1.264 . S
C496 C489 1.403 . S
C496 C497 1.399 . S
C496 H502 0.929 . S
C497 C477 1.449 . S
C497 C496 1.399 . S
C497 H503 0.930 . S
H498 C478 0.931 . S
H499 C479 0.930 . S
H500 C487 0.931 . S
H501 C488 0.929 . S
H502 C496 0.929 . S
H503 C497 0.930 . S
Mn504 O509 2.095 . S
Mn504 O519 2.162 . S
Mn504 O520 2.297 . S
Mn504 O528 2.385 . S
Mn504 O529 2.209 . S
Mn504 O530 2.094 . S
Mn505 O510 2.121 . S
Mn505 N512 2.257 . S
Mn505 N521 2.282 . S
Mn505 O529 2.215 . S
Mn505 O531 2.117 . S
C506 O528 1.234 . S
C506 O529 1.283 . S
C507 O519 1.281 . S
C507 O520 1.236 . S
C508 O530 1.240 . S
C508 O531 1.264 . S
O509 Mn504 2.095 . S
O509 C518 1.250 . S
O510 Mn505 2.121 . S
O510 C518 1.258 . S
C511 N512 1.326 . S
C511 C515 1.460 . S
C511 H517 0.929 . S
N512 Mn505 2.257 . S
N512 C511 1.326 . S
N512 C516 1.362 . S
C513 C514 1.258 . S
C513 C516 1.431 . S
C513 C533 1.449 . S
C514 C513 1.258 . S
C514 C515 1.477 . S
C514 H534 0.931 . S
C515 C511 1.460 . S
C515 C514 1.477 . S
C515 H535 0.930 . S
C516 N512 1.362 . S
C516 C513 1.431 . S
C516 C526 1.476 . S
H517 C511 0.929 . S
C518 O509 1.250 . S
C518 O510 1.258 . S
O519 Mn504 2.162 . S
O519 C507 1.281 . S
O520 Mn504 2.297 . S
O520 C507 1.236 . S
N521 Mn505 2.282 . S
N521 C522 1.328 . S
N521 C526 1.318 . S
C522 N521 1.328 . S
C522 C523 1.457 . S
C522 H527 0.929 . S
C523 C522 1.457 . S
C523 C524 1.291 . S
C523 H536 0.931 . S
C524 C523 1.291 . S
C524 C525 1.373 . S
C524 H537 0.929 . S
C525 C524 1.373 . S
C525 C526 1.396 . S
C525 C532 1.403 . S
C526 C516 1.476 . S
C526 N521 1.318 . S
C526 C525 1.396 . S
H527 C522 0.929 . S
O528 Mn504 2.385 . S
O528 C506 1.234 . S
O529 Mn504 2.209 . S
O529 Mn505 2.215 . S
O529 C506 1.283 . S
O530 Mn504 2.094 . S
O530 C508 1.240 . S
O531 Mn505 2.117 . S
O531 C508 1.264 . S
C532 C525 1.403 . S
C532 C533 1.399 . S
C532 H538 0.929 . S
C533 C513 1.449 . S
C533 C532 1.399 . S
C533 H539 0.930 . S
H534 C514 0.931 . S
H535 C515 0.930 . S
H536 C523 0.931 . S
H537 C524 0.929 . S
H538 C532 0.929 . S
H539 C533 0.930 . S
Mn540 O545 2.095 . S
Mn540 O555 2.162 . S
Mn540 O556 2.297 . S
Mn540 O564 2.385 . S
Mn540 O565 2.209 . S
Mn540 O566 2.094 . S
Mn541 O546 2.121 . S
Mn541 N548 2.257 . S
Mn541 N557 2.282 . S
Mn541 O565 2.215 . S
Mn541 O567 2.117 . S
C542 O564 1.234 . S
C542 O565 1.283 . S
C543 O555 1.281 . S
C543 O556 1.236 . S
C544 O566 1.240 . S
C544 O567 1.264 . S
O545 Mn540 2.095 . S
O545 C554 1.250 . S
O546 Mn541 2.121 . S
O546 C554 1.258 . S
C547 N548 1.326 . S
C547 C551 1.460 . S
C547 H553 0.929 . S
N548 Mn541 2.257 . S
N548 C547 1.326 . S
N548 C552 1.362 . S
C549 C550 1.258 . S
C549 C552 1.431 . S
C549 C569 1.449 . S
C550 C549 1.258 . S
C550 C551 1.477 . S
C550 H570 0.931 . S
C551 C547 1.460 . S
C551 C550 1.477 . S
C551 H571 0.930 . S
C552 N548 1.362 . S
C552 C549 1.431 . S
C552 C562 1.476 . S
H553 C547 0.929 . S
C554 O545 1.250 . S
C554 O546 1.258 . S
O555 Mn540 2.162 . S
O555 C543 1.281 . S
O556 Mn540 2.297 . S
O556 C543 1.236 . S
N557 Mn541 2.282 . S
N557 C558 1.328 . S
N557 C562 1.318 . S
C558 N557 1.328 . S
C558 C559 1.457 . S
C558 H563 0.929 . S
C559 C558 1.457 . S
C559 C560 1.291 . S
C559 H572 0.931 . S
C560 C559 1.291 . S
C560 C561 1.373 . S
C560 H573 0.929 . S
C561 C560 1.373 . S
C561 C562 1.396 . S
C561 C568 1.403 . S
C562 C552 1.476 . S
C562 N557 1.318 . S
C562 C561 1.396 . S
H563 C558 0.929 . S
O564 Mn540 2.385 . S
O564 C542 1.234 . S
O565 Mn540 2.209 . S
O565 Mn541 2.215 . S
O565 C542 1.283 . S
O566 Mn540 2.094 . S
O566 C544 1.240 . S
O567 Mn541 2.117 . S
O567 C544 1.264 . S
C568 C561 1.403 . S
C568 C569 1.399 . S
C568 H574 0.929 . S
C569 C549 1.449 . S
C569 C568 1.399 . S
C569 H575 0.930 . S
H570 C550 0.931 . S
H571 C551 0.930 . S
H572 C559 0.931 . S
H573 C560 0.929 . S
H574 C568 0.929 . S
H575 C569 0.930 . S
Mn576 O581 2.095 . S
Mn576 O591 2.162 . S
Mn576 O592 2.297 . S
Mn576 O600 2.385 . S
Mn576 O601 2.209 . S
Mn576 O602 2.094 . S
Mn577 O582 2.121 . S
Mn577 N584 2.257 . S
Mn577 N593 2.282 . S
Mn577 O601 2.215 . S
Mn577 O603 2.117 . S
C578 O600 1.234 . S
C578 O601 1.283 . S
C579 O591 1.281 . S
C579 O592 1.236 . S
C580 O602 1.240 . S
C580 O603 1.264 . S
O581 Mn576 2.095 . S
O581 C590 1.250 . S
O582 Mn577 2.121 . S
O582 C590 1.258 . S
C583 N584 1.326 . S
C583 C587 1.460 . S
C583 H589 0.929 . S
N584 Mn577 2.257 . S
N584 C583 1.326 . S
N584 C588 1.362 . S
C585 C586 1.258 . S
C585 C588 1.431 . S
C585 C605 1.449 . S
C586 C585 1.258 . S
C586 C587 1.477 . S
C586 H606 0.931 . S
C587 C583 1.460 . S
C587 C586 1.477 . S
C587 H607 0.930 . S
C588 N584 1.362 . S
C588 C585 1.431 . S
C588 C598 1.476 . S
H589 C583 0.929 . S
C590 O581 1.250 . S
C590 O582 1.258 . S
O591 Mn576 2.162 . S
O591 C579 1.281 . S
O592 Mn576 2.297 . S
O592 C579 1.236 . S
N593 Mn577 2.282 . S
N593 C594 1.328 . S
N593 C598 1.318 . S
C594 N593 1.328 . S
C594 C595 1.457 . S
C594 H599 0.929 . S
C595 C594 1.457 . S
C595 C596 1.291 . S
C595 H608 0.931 . S
C596 C595 1.291 . S
C596 C597 1.373 . S
C596 H609 0.929 . S
C597 C596 1.373 . S
C597 C598 1.396 . S
C597 C604 1.403 . S
C598 C588 1.476 . S
C598 N593 1.318 . S
C598 C597 1.396 . S
H599 C594 0.929 . S
O600 Mn576 2.385 . S
O600 C578 1.234 . S
O601 Mn576 2.209 . S
O601 Mn577 2.215 . S
O601 C578 1.283 . S
O602 Mn576 2.094 . S
O602 C580 1.240 . S
O603 Mn577 2.117 . S
O603 C580 1.264 . S
C604 C597 1.403 . S
C604 C605 1.399 . S
C604 H610 0.929 . S
C605 C585 1.449 . S
C605 C604 1.399 . S
C605 H611 0.930 . S
H606 C586 0.931 . S
H607 C587 0.930 . S
H608 C595 0.931 . S
H609 C596 0.929 . S
H610 C604 0.929 . S
H611 C605 0.930 . S
Mn612 O617 2.095 . S
Mn612 O627 2.162 . S
Mn612 O628 2.297 . S
Mn612 O636 2.385 . S
Mn612 O637 2.209 . S
Mn612 O638 2.094 . S
Mn613 O618 2.121 . S
Mn613 N620 2.257 . S
Mn613 N629 2.282 . S
Mn613 O637 2.215 . S
Mn613 O639 2.117 . S
C614 O636 1.234 . S
C614 O637 1.283 . S
C615 O627 1.281 . S
C615 O628 1.236 . S
C616 O638 1.240 . S
C616 O639 1.264 . S
O617 Mn612 2.095 . S
O617 C626 1.250 . S
O618 Mn613 2.121 . S
O618 C626 1.258 . S
C619 N620 1.326 . S
C619 C623 1.460 . S
C619 H625 0.929 . S
N620 Mn613 2.257 . S
N620 C619 1.326 . S
N620 C624 1.362 . S
C621 C622 1.258 . S
C621 C624 1.431 . S
C621 C641 1.449 . S
C622 C621 1.258 . S
C622 C623 1.477 . S
C622 H642 0.931 . S
C623 C619 1.460 . S
C623 C622 1.477 . S
C623 H643 0.930 . S
C624 N620 1.362 . S
C624 C621 1.431 . S
C624 C634 1.476 . S
H625 C619 0.929 . S
C626 O617 1.250 . S
C626 O618 1.258 . S
O627 Mn612 2.162 . S
O627 C615 1.281 . S
O628 Mn612 2.297 . S
O628 C615 1.236 . S
N629 Mn613 2.282 . S
N629 C630 1.328 . S
N629 C634 1.318 . S
C630 N629 1.328 . S
C630 C631 1.457 . S
C630 H635 0.929 . S
C631 C630 1.457 . S
C631 C632 1.291 . S
C631 H644 0.931 . S
C632 C631 1.291 . S
C632 C633 1.373 . S
C632 H645 0.929 . S
C633 C632 1.373 . S
C633 C634 1.396 . S
C633 C640 1.403 . S
C634 C624 1.476 . S
C634 N629 1.318 . S
C634 C633 1.396 . S
H635 C630 0.929 . S
O636 Mn612 2.385 . S
O636 C614 1.234 . S
O637 Mn612 2.209 . S
O637 Mn613 2.215 . S
O637 C614 1.283 . S
O638 Mn612 2.094 . S
O638 C616 1.240 . S
O639 Mn613 2.117 . S
O639 C616 1.264 . S
C640 C633 1.403 . S
C640 C641 1.399 . S
C640 H646 0.929 . S
C641 C621 1.449 . S
C641 C640 1.399 . S
C641 H647 0.930 . S
H642 C622 0.931 . S
H643 C623 0.930 . S
H644 C631 0.931 . S
H645 C632 0.929 . S
H646 C640 0.929 . S
H647 C641 0.930 . S
Mn648 O653 2.095 . S
Mn648 O663 2.162 . S
Mn648 O664 2.297 . S
Mn648 O672 2.385 . S
Mn648 O673 2.209 . S
Mn648 O674 2.094 . S
Mn649 O654 2.121 . S
Mn649 N656 2.257 . S
Mn649 N665 2.282 . S
Mn649 O673 2.215 . S
Mn649 O675 2.117 . S
C650 O672 1.234 . S
C650 O673 1.283 . S
C651 O663 1.281 . S
C651 O664 1.236 . S
C652 O674 1.240 . S
C652 O675 1.264 . S
O653 Mn648 2.095 . S
O653 C662 1.250 . S
O654 Mn649 2.121 . S
O654 C662 1.258 . S
C655 N656 1.326 . S
C655 C659 1.460 . S
C655 H661 0.929 . S
N656 Mn649 2.257 . S
N656 C655 1.326 . S
N656 C660 1.362 . S
C657 C658 1.258 . S
C657 C660 1.431 . S
C657 C677 1.449 . S
C658 C657 1.258 . S
C658 C659 1.477 . S
C658 H678 0.931 . S
C659 C655 1.460 . S
C659 C658 1.477 . S
C659 H679 0.930 . S
C660 N656 1.362 . S
C660 C657 1.431 . S
C660 C670 1.476 . S
H661 C655 0.929 . S
C662 O653 1.250 . S
C662 O654 1.258 . S
O663 Mn648 2.162 . S
O663 C651 1.281 . S
O664 Mn648 2.297 . S
O664 C651 1.236 . S
N665 Mn649 2.282 . S
N665 C666 1.328 . S
N665 C670 1.318 . S
C666 N665 1.328 . S
C666 C667 1.457 . S
C666 H671 0.929 . S
C667 C666 1.457 . S
C667 C668 1.291 . S
C667 H680 0.931 . S
C668 C667 1.291 . S
C668 C669 1.373 . S
C668 H681 0.929 . S
C669 C668 1.373 . S
C669 C670 1.396 . S
C669 C676 1.403 . S
C670 C660 1.476 . S
C670 N665 1.318 . S
C670 C669 1.396 . S
H671 C666 0.929 . S
O672 Mn648 2.385 . S
O672 C650 1.234 . S
O673 Mn648 2.209 . S
O673 Mn649 2.215 . S
O673 C650 1.283 . S
O674 Mn648 2.094 . S
O674 C652 1.240 . S
O675 Mn649 2.117 . S
O675 C652 1.264 . S
C676 C669 1.403 . S
C676 C677 1.399 . S
C676 H682 0.929 . S
C677 C657 1.449 . S
C677 C676 1.399 . S
C677 H683 0.930 . S
H678 C658 0.931 . S
H679 C659 0.930 . S
H680 C667 0.931 . S
H681 C668 0.929 . S
H682 C676 0.929 . S
H683 C677 0.930 . S
Mn684 O689 2.095 . S
Mn684 O699 2.162 . S
Mn684 O700 2.297 . S
Mn684 O708 2.385 . S
Mn684 O709 2.209 . S
Mn684 O710 2.094 . S
Mn685 O690 2.121 . S
Mn685 N692 2.257 . S
Mn685 N701 2.282 . S
Mn685 O709 2.215 . S
Mn685 O711 2.117 . S
C686 O708 1.234 . S
C686 O709 1.283 . S
C687 O699 1.281 . S
C687 O700 1.236 . S
C688 O710 1.240 . S
C688 O711 1.264 . S
O689 Mn684 2.095 . S
O689 C698 1.250 . S
O690 Mn685 2.121 . S
O690 C698 1.258 . S
C691 N692 1.326 . S
C691 C695 1.460 . S
C691 H697 0.929 . S
N692 Mn685 2.257 . S
N692 C691 1.326 . S
N692 C696 1.362 . S
C693 C694 1.258 . S
C693 C696 1.431 . S
C693 C713 1.449 . S
C694 C693 1.258 . S
C694 C695 1.477 . S
C694 H714 0.931 . S
C695 C691 1.460 . S
C695 C694 1.477 . S
C695 H715 0.930 . S
C696 N692 1.362 . S
C696 C693 1.431 . S
C696 C706 1.476 . S
H697 C691 0.929 . S
C698 O689 1.250 . S
C698 O690 1.258 . S
O699 Mn684 2.162 . S
O699 C687 1.281 . S
O700 Mn684 2.297 . S
O700 C687 1.236 . S
N701 Mn685 2.282 . S
N701 C702 1.328 . S
N701 C706 1.318 . S
C702 N701 1.328 . S
C702 C703 1.457 . S
C702 H707 0.929 . S
C703 C702 1.457 . S
C703 C704 1.291 . S
C703 H716 0.931 . S
C704 C703 1.291 . S
C704 C705 1.373 . S
C704 H717 0.929 . S
C705 C704 1.373 . S
C705 C706 1.396 . S
C705 C712 1.403 . S
C706 C696 1.476 . S
C706 N701 1.318 . S
C706 C705 1.396 . S
H707 C702 0.929 . S
O708 Mn684 2.385 . S
O708 C686 1.234 . S
O709 Mn684 2.209 . S
O709 Mn685 2.215 . S
O709 C686 1.283 . S
O710 Mn684 2.094 . S
O710 C688 1.240 . S
O711 Mn685 2.117 . S
O711 C688 1.264 . S
C712 C705 1.403 . S
C712 C713 1.399 . S
C712 H718 0.929 . S
C713 C693 1.449 . S
C713 C712 1.399 . S
C713 H719 0.930 . S
H714 C694 0.931 . S
H715 C695 0.930 . S
H716 C703 0.931 . S
H717 C704 0.929 . S
H718 C712 0.929 . S
H719 C713 0.930 . S
Mn720 O725 2.095 . S
Mn720 O735 2.162 . S
Mn720 O736 2.297 . S
Mn720 O744 2.385 . S
Mn720 O745 2.209 . S
Mn720 O746 2.094 . S
Mn721 O726 2.121 . S
Mn721 N728 2.257 . S
Mn721 N737 2.282 . S
Mn721 O745 2.215 . S
Mn721 O747 2.117 . S
C722 O744 1.234 . S
C722 O745 1.283 . S
C723 O735 1.281 . S
C723 O736 1.236 . S
C724 O746 1.240 . S
C724 O747 1.264 . S
O725 Mn720 2.095 . S
O725 C734 1.250 . S
O726 Mn721 2.121 . S
O726 C734 1.258 . S
C727 N728 1.326 . S
C727 C731 1.460 . S
C727 H733 0.929 . S
N728 Mn721 2.257 . S
N728 C727 1.326 . S
N728 C732 1.362 . S
C729 C730 1.258 . S
C729 C732 1.431 . S
C729 C749 1.449 . S
C730 C729 1.258 . S
C730 C731 1.477 . S
C730 H750 0.931 . S
C731 C727 1.460 . S
C731 C730 1.477 . S
C731 H751 0.930 . S
C732 N728 1.362 . S
C732 C729 1.431 . S
C732 C742 1.476 . S
H733 C727 0.929 . S
C734 O725 1.250 . S
C734 O726 1.258 . S
O735 Mn720 2.162 . S
O735 C723 1.281 . S
O736 Mn720 2.297 . S
O736 C723 1.236 . S
N737 Mn721 2.282 . S
N737 C738 1.328 . S
N737 C742 1.318 . S
C738 N737 1.328 . S
C738 C739 1.457 . S
C738 H743 0.929 . S
C739 C738 1.457 . S
C739 C740 1.291 . S
C739 H752 0.931 . S
C740 C739 1.291 . S
C740 C741 1.373 . S
C740 H753 0.929 . S
C741 C740 1.373 . S
C741 C742 1.396 . S
C741 C748 1.403 . S
C742 C732 1.476 . S
C742 N737 1.318 . S
C742 C741 1.396 . S
H743 C738 0.929 . S
O744 Mn720 2.385 . S
O744 C722 1.234 . S
O745 Mn720 2.209 . S
O745 Mn721 2.215 . S
O745 C722 1.283 . S
O746 Mn720 2.094 . S
O746 C724 1.240 . S
O747 Mn721 2.117 . S
O747 C724 1.264 . S
C748 C741 1.403 . S
C748 C749 1.399 . S
C748 H754 0.929 . S
C749 C729 1.449 . S
C749 C748 1.399 . S
C749 H755 0.930 . S
H750 C730 0.931 . S
H751 C731 0.930 . S
H752 C739 0.931 . S
H753 C740 0.929 . S
H754 C748 0.929 . S
H755 C749 0.930 . S
Mn756 O761 2.095 . S
Mn756 O771 2.162 . S
Mn756 O772 2.297 . S
Mn756 O780 2.385 . S
Mn756 O781 2.209 . S
Mn756 O782 2.094 . S
Mn757 O762 2.121 . S
Mn757 N764 2.257 . S
Mn757 N773 2.282 . S
Mn757 O781 2.215 . S
Mn757 O783 2.117 . S
C758 O780 1.234 . S
C758 O781 1.283 . S
C759 O771 1.281 . S
C759 O772 1.236 . S
C760 O782 1.240 . S
C760 O783 1.264 . S
O761 Mn756 2.095 . S
O761 C770 1.250 . S
O762 Mn757 2.121 . S
O762 C770 1.258 . S
C763 N764 1.326 . S
C763 C767 1.460 . S
C763 H769 0.929 . S
N764 Mn757 2.257 . S
N764 C763 1.326 . S
N764 C768 1.362 . S
C765 C766 1.258 . S
C765 C768 1.431 . S
C765 C785 1.449 . S
C766 C765 1.258 . S
C766 C767 1.477 . S
C766 H786 0.931 . S
C767 C763 1.460 . S
C767 C766 1.477 . S
C767 H787 0.930 . S
C768 N764 1.362 . S
C768 C765 1.431 . S
C768 C778 1.476 . S
H769 C763 0.929 . S
C770 O761 1.250 . S
C770 O762 1.258 . S
O771 Mn756 2.162 . S
O771 C759 1.281 . S
O772 Mn756 2.297 . S
O772 C759 1.236 . S
N773 Mn757 2.282 . S
N773 C774 1.328 . S
N773 C778 1.318 . S
C774 N773 1.328 . S
C774 C775 1.457 . S
C774 H779 0.929 . S
C775 C774 1.457 . S
C775 C776 1.291 . S
C775 H788 0.931 . S
C776 C775 1.291 . S
C776 C777 1.373 . S
C776 H789 0.929 . S
C777 C776 1.373 . S
C777 C778 1.396 . S
C777 C784 1.403 . S
C778 C768 1.476 . S
C778 N773 1.318 . S
C778 C777 1.396 . S
H779 C774 0.929 . S
O780 Mn756 2.385 . S
O780 C758 1.234 . S
O781 Mn756 2.209 . S
O781 Mn757 2.215 . S
O781 C758 1.283 . S
O782 Mn756 2.094 . S
O782 C760 1.240 . S
O783 Mn757 2.117 . S
O783 C760 1.264 . S
C784 C777 1.403 . S
C784 C785 1.399 . S
C784 H790 0.929 . S
C785 C765 1.449 . S
C785 C784 1.399 . S
C785 H791 0.930 . S
H786 C766 0.931 . S
H787 C767 0.930 . S
H788 C775 0.931 . S
H789 C776 0.929 . S
H790 C784 0.929 . S
H791 C785 0.930 . S
Mn792 O797 2.095 . S
Mn792 O807 2.162 . S
Mn792 O808 2.297 . S
Mn792 O816 2.385 . S
Mn792 O817 2.209 . S
Mn792 O818 2.094 . S
Mn793 O798 2.121 . S
Mn793 N800 2.257 . S
Mn793 N809 2.282 . S
Mn793 O817 2.215 . S
Mn793 O819 2.117 . S
C794 O816 1.234 . S
C794 O817 1.283 . S
C795 O807 1.281 . S
C795 O808 1.236 . S
C796 O818 1.240 . S
C796 O819 1.264 . S
O797 Mn792 2.095 . S
O797 C806 1.250 . S
O798 Mn793 2.121 . S
O798 C806 1.258 . S
C799 N800 1.326 . S
C799 C803 1.460 . S
C799 H805 0.929 . S
N800 Mn793 2.257 . S
N800 C799 1.326 . S
N800 C804 1.362 . S
C801 C802 1.258 . S
C801 C804 1.431 . S
C801 C821 1.449 . S
C802 C801 1.258 . S
C802 C803 1.477 . S
C802 H822 0.931 . S
C803 C799 1.460 . S
C803 C802 1.477 . S
C803 H823 0.930 . S
C804 N800 1.362 . S
C804 C801 1.431 . S
C804 C814 1.476 . S
H805 C799 0.929 . S
C806 O797 1.250 . S
C806 O798 1.258 . S
O807 Mn792 2.162 . S
O807 C795 1.281 . S
O808 Mn792 2.297 . S
O808 C795 1.236 . S
N809 Mn793 2.282 . S
N809 C810 1.328 . S
N809 C814 1.318 . S
C810 N809 1.328 . S
C810 C811 1.457 . S
C810 H815 0.929 . S
C811 C810 1.457 . S
C811 C812 1.291 . S
C811 H824 0.931 . S
C812 C811 1.291 . S
C812 C813 1.373 . S
C812 H825 0.929 . S
C813 C812 1.373 . S
C813 C814 1.396 . S
C813 C820 1.403 . S
C814 C804 1.476 . S
C814 N809 1.318 . S
C814 C813 1.396 . S
H815 C810 0.929 . S
O816 Mn792 2.385 . S
O816 C794 1.234 . S
O817 Mn792 2.209 . S
O817 Mn793 2.215 . S
O817 C794 1.283 . S
O818 Mn792 2.094 . S
O818 C796 1.240 . S
O819 Mn793 2.117 . S
O819 C796 1.264 . S
C820 C813 1.403 . S
C820 C821 1.399 . S
C820 H826 0.929 . S
C821 C801 1.449 . S
C821 C820 1.399 . S
C821 H827 0.930 . S
H822 C802 0.931 . S
H823 C803 0.930 . S
H824 C811 0.931 . S
H825 C812 0.929 . S
H826 C820 0.929 . S
H827 C821 0.930 . S
Mn828 O833 2.095 . S
Mn828 O843 2.162 . S
Mn828 O844 2.297 . S
Mn828 O852 2.385 . S
Mn828 O853 2.209 . S
Mn828 O854 2.094 . S
Mn829 O834 2.121 . S
Mn829 N836 2.257 . S
Mn829 N845 2.282 . S
Mn829 O853 2.215 . S
Mn829 O855 2.117 . S
C830 O852 1.234 . S
C830 O853 1.283 . S
C831 O843 1.281 . S
C831 O844 1.236 . S
C832 O854 1.240 . S
C832 O855 1.264 . S
O833 Mn828 2.095 . S
O833 C842 1.250 . S
O834 Mn829 2.121 . S
O834 C842 1.258 . S
C835 N836 1.326 . S
C835 C839 1.460 . S
C835 H841 0.929 . S
N836 Mn829 2.257 . S
N836 C835 1.326 . S
N836 C840 1.362 . S
C837 C838 1.258 . S
C837 C840 1.431 . S
C837 C857 1.449 . S
C838 C837 1.258 . S
C838 C839 1.477 . S
C838 H858 0.931 . S
C839 C835 1.460 . S
C839 C838 1.477 . S
C839 H859 0.930 . S
C840 N836 1.362 . S
C840 C837 1.431 . S
C840 C850 1.476 . S
H841 C835 0.929 . S
C842 O833 1.250 . S
C842 O834 1.258 . S
O843 Mn828 2.162 . S
O843 C831 1.281 . S
O844 Mn828 2.297 . S
O844 C831 1.236 . S
N845 Mn829 2.282 . S
N845 C846 1.328 . S
N845 C850 1.318 . S
C846 N845 1.328 . S
C846 C847 1.457 . S
C846 H851 0.929 . S
C847 C846 1.457 . S
C847 C848 1.291 . S
C847 H860 0.931 . S
C848 C847 1.291 . S
C848 C849 1.373 . S
C848 H861 0.929 . S
C849 C848 1.373 . S
C849 C850 1.396 . S
C849 C856 1.403 . S
C850 C840 1.476 . S
C850 N845 1.318 . S
C850 C849 1.396 . S
H851 C846 0.929 . S
O852 Mn828 2.385 . S
O852 C830 1.234 . S
O853 Mn828 2.209 . S
O853 Mn829 2.215 . S
O853 C830 1.283 . S
O854 Mn828 2.094 . S
O854 C832 1.240 . S
O855 Mn829 2.117 . S
O855 C832 1.264 . S
C856 C849 1.403 . S
C856 C857 1.399 . S
C856 H862 0.929 . S
C857 C837 1.449 . S
C857 C856 1.399 . S
C857 H863 0.930 . S
H858 C838 0.931 . S
H859 C839 0.930 . S
H860 C847 0.931 . S
H861 C848 0.929 . S
H862 C856 0.929 . S
H863 C857 0.930 . S
C864 C865 1.391 . S
C864 C866 1.394 . S
C864 H880 0.931 . S
C865 C864 1.391 . S
C865 C869 1.376 . S
C866 C864 1.394 . S
C866 C867 1.369 . S
C866 C870 1.531 . S
C867 C866 1.369 . S
C867 C868 1.410 . S
C867 C875 1.503 . S
C868 C867 1.410 . S
C868 C869 1.392 . S
C868 C871 1.511 . S
C869 C865 1.376 . S
C869 C868 1.392 . S
C869 H881 0.929 . S
C870 C866 1.531 . S
C870 H882 0.960 . S
C870 H883 0.962 . S
C870 H884 0.960 . S
C871 C868 1.511 . S
C871 H885 0.961 . S
C871 H886 0.961 . S
C871 H887 0.961 . S
C872 C873 1.370 . S
C872 C874 1.363 . S
C872 H888 0.931 . S
C873 C872 1.370 . S
C873 C877 1.408 . S
C874 C872 1.363 . S
C874 C875 1.370 . S
C874 C878 1.524 . S
C875 C867 1.503 . S
C875 C874 1.370 . S
C875 C876 1.403 . S
C876 C875 1.403 . S
C876 C877 1.404 . S
C876 C879 1.539 . S
C877 C873 1.408 . S
C877 C876 1.404 . S
C877 H889 0.930 . S
C878 C874 1.524 . S
C878 H890 0.956 . S
C878 H891 0.961 . S
C878 H892 0.961 . S
C879 C876 1.539 . S
C879 H893 0.958 . S
C879 H894 0.961 . S
C879 H895 0.960 . S
H880 C864 0.931 . S
H881 C869 0.929 . S
H882 C870 0.960 . S
H883 C870 0.962 . S
H884 C870 0.960 . S
H885 C871 0.961 . S
H886 C871 0.961 . S
H887 C871 0.961 . S
H888 C872 0.931 . S
H889 C877 0.930 . S
H890 C878 0.956 . S
H891 C878 0.961 . S
H892 C878 0.961 . S
H893 C879 0.958 . S
H894 C879 0.961 . S
H895 C879 0.960 . S
C896 C897 1.391 . S
C896 C898 1.394 . S
C896 H912 0.931 . S
C897 C896 1.391 . S
C897 C901 1.376 . S
C898 C896 1.394 . S
C898 C899 1.369 . S
C898 C902 1.531 . S
C899 C898 1.369 . S
C899 C900 1.410 . S
C899 C907 1.503 . S
C900 C899 1.410 . S
C900 C901 1.392 . S
C900 C903 1.511 . S
C901 C897 1.376 . S
C901 C900 1.392 . S
C901 H913 0.929 . S
C902 C898 1.531 . S
C902 H914 0.960 . S
C902 H915 0.962 . S
C902 H916 0.960 . S
C903 C900 1.511 . S
C903 H917 0.961 . S
C903 H918 0.961 . S
C903 H919 0.961 . S
C904 C905 1.370 . S
C904 C906 1.363 . S
C904 H920 0.931 . S
C905 C904 1.370 . S
C905 C909 1.408 . S
C906 C904 1.363 . S
C906 C907 1.370 . S
C906 C910 1.524 . S
C907 C899 1.503 . S
C907 C906 1.370 . S
C907 C908 1.403 . S
C908 C907 1.403 . S
C908 C909 1.404 . S
C908 C911 1.539 . S
C909 C905 1.408 . S
C909 C908 1.404 . S
C909 H921 0.930 . S
C910 C906 1.524 . S
C910 H922 0.956 . S
C910 H923 0.961 . S
C910 H924 0.961 . S
C911 C908 1.539 . S
C911 H925 0.958 . S
C911 H926 0.961 . S
C911 H927 0.960 . S
H912 C896 0.931 . S
H913 C901 0.929 . S
H914 C902 0.960 . S
H915 C902 0.962 . S
H916 C902 0.960 . S
H917 C903 0.961 . S
H918 C903 0.961 . S
H919 C903 0.961 . S
H920 C904 0.931 . S
H921 C909 0.930 . S
H922 C910 0.956 . S
H923 C910 0.961 . S
H924 C910 0.961 . S
H925 C911 0.958 . S
H926 C911 0.961 . S
H927 C911 0.960 . S
C928 C929 1.391 . S
C928 C930 1.394 . S
C928 H944 0.931 . S
C929 C928 1.391 . S
C929 C933 1.376 . S
C930 C928 1.394 . S
C930 C931 1.369 . S
C930 C934 1.531 . S
C931 C930 1.369 . S
C931 C932 1.410 . S
C931 C939 1.503 . S
C932 C931 1.410 . S
C932 C933 1.392 . S
C932 C935 1.511 . S
C933 C929 1.376 . S
C933 C932 1.392 . S
C933 H945 0.929 . S
C934 C930 1.531 . S
C934 H946 0.960 . S
C934 H947 0.962 . S
C934 H948 0.960 . S
C935 C932 1.511 . S
C935 H949 0.961 . S
C935 H950 0.961 . S
C935 H951 0.961 . S
C936 C937 1.370 . S
C936 C938 1.363 . S
C936 H952 0.931 . S
C937 C936 1.370 . S
C937 C941 1.408 . S
C938 C936 1.363 . S
C938 C939 1.370 . S
C938 C942 1.524 . S
C939 C931 1.503 . S
C939 C938 1.370 . S
C939 C940 1.403 . S
C940 C939 1.403 . S
C940 C941 1.404 . S
C940 C943 1.539 . S
C941 C937 1.408 . S
C941 C940 1.404 . S
C941 H953 0.930 . S
C942 C938 1.524 . S
C942 H954 0.956 . S
C942 H955 0.961 . S
C942 H956 0.961 . S
C943 C940 1.539 . S
C943 H957 0.958 . S
C943 H958 0.961 . S
C943 H959 0.960 . S
H944 C928 0.931 . S
H945 C933 0.929 . S
H946 C934 0.960 . S
H947 C934 0.962 . S
H948 C934 0.960 . S
H949 C935 0.961 . S
H950 C935 0.961 . S
H951 C935 0.961 . S
H952 C936 0.931 . S
H953 C941 0.930 . S
H954 C942 0.956 . S
H955 C942 0.961 . S
H956 C942 0.961 . S
H957 C943 0.958 . S
H958 C943 0.961 . S
H959 C943 0.960 . S
C960 C961 1.391 . S
C960 C962 1.394 . S
C960 H976 0.931 . S
C961 C960 1.391 . S
C961 C965 1.376 . S
C962 C960 1.394 . S
C962 C963 1.369 . S
C962 C966 1.531 . S
C963 C962 1.369 . S
C963 C964 1.410 . S
C963 C971 1.503 . S
C964 C963 1.410 . S
C964 C965 1.392 . S
C964 C967 1.511 . S
C965 C961 1.376 . S
C965 C964 1.392 . S
C965 H977 0.929 . S
C966 C962 1.531 . S
C966 H978 0.960 . S
C966 H979 0.962 . S
C966 H980 0.960 . S
C967 C964 1.511 . S
C967 H981 0.961 . S
C967 H982 0.961 . S
C967 H983 0.961 . S
C968 C969 1.370 . S
C968 C970 1.363 . S
C968 H984 0.931 . S
C969 C968 1.370 . S
C969 C973 1.408 . S
C970 C968 1.363 . S
C970 C971 1.370 . S
C970 C974 1.524 . S
C971 C963 1.503 . S
C971 C970 1.370 . S
C971 C972 1.403 . S
C972 C971 1.403 . S
C972 C973 1.404 . S
C972 C975 1.539 . S
C973 C969 1.408 . S
C973 C972 1.404 . S
C973 H985 0.930 . S
C974 C970 1.524 . S
C974 H986 0.956 . S
C974 H987 0.961 . S
C974 H988 0.961 . S
C975 C972 1.539 . S
C975 H989 0.958 . S
C975 H990 0.961 . S
C975 H991 0.960 . S
H976 C960 0.931 . S
H977 C965 0.929 . S
H978 C966 0.960 . S
H979 C966 0.962 . S
H980 C966 0.960 . S
H981 C967 0.961 . S
H982 C967 0.961 . S
H983 C967 0.961 . S
H984 C968 0.931 . S
H985 C973 0.930 . S
H986 C974 0.956 . S
H987 C974 0.961 . S
H988 C974 0.961 . S
H989 C975 0.958 . S
H990 C975 0.961 . S
H991 C975 0.960 . S
C992 C993 1.391 . S
C992 C994 1.394 . S
C992 H1008 0.931 . S
C993 C992 1.391 . S
C993 C997 1.376 . S
C994 C992 1.394 . S
C994 C995 1.369 . S
C994 C998 1.531 . S
C995 C994 1.369 . S
C995 C996 1.410 . S
C995 C1003 1.503 . S
C996 C995 1.410 . S
C996 C997 1.392 . S
C996 C999 1.511 . S
C997 C993 1.376 . S
C997 C996 1.392 . S
C997 H1009 0.929 . S
C998 C994 1.531 . S
C998 H1010 0.960 . S
C998 H1011 0.962 . S
C998 H1012 0.960 . S
C999 C996 1.511 . S
C999 H1013 0.961 . S
C999 H1014 0.961 . S
C999 H1015 0.961 . S
C1000 C1001 1.370 . S
C1000 C1002 1.363 . S
C1000 H1016 0.931 . S
C1001 C1000 1.370 . S
C1001 C1005 1.408 . S
C1002 C1000 1.363 . S
C1002 C1003 1.370 . S
C1002 C1006 1.524 . S
C1003 C995 1.503 . S
C1003 C1002 1.370 . S
C1003 C1004 1.403 . S
C1004 C1003 1.403 . S
C1004 C1005 1.404 . S
C1004 C1007 1.539 . S
C1005 C1001 1.408 . S
C1005 C1004 1.404 . S
C1005 H1017 0.930 . S
C1006 C1002 1.524 . S
C1006 H1018 0.956 . S
C1006 H1019 0.961 . S
C1006 H1020 0.961 . S
C1007 C1004 1.539 . S
C1007 H1021 0.958 . S
C1007 H1022 0.961 . S
C1007 H1023 0.960 . S
H1008 C992 0.931 . S
H1009 C997 0.929 . S
H1010 C998 0.960 . S
H1011 C998 0.962 . S
H1012 C998 0.960 . S
H1013 C999 0.961 . S
H1014 C999 0.961 . S
H1015 C999 0.961 . S
H1016 C1000 0.931 . S
H1017 C1005 0.930 . S
H1018 C1006 0.956 . S
H1019 C1006 0.961 . S
H1020 C1006 0.961 . S
H1021 C1007 0.958 . S
H1022 C1007 0.961 . S
H1023 C1007 0.960 . S
C1024 C1025 1.391 . S
C1024 C1026 1.394 . S
C1024 H1040 0.931 . S
C1025 C1024 1.391 . S
C1025 C1029 1.376 . S
C1026 C1024 1.394 . S
C1026 C1027 1.369 . S
C1026 C1030 1.531 . S
C1027 C1026 1.369 . S
C1027 C1028 1.410 . S
C1027 C1035 1.503 . S
C1028 C1027 1.410 . S
C1028 C1029 1.392 . S
C1028 C1031 1.511 . S
C1029 C1025 1.376 . S
C1029 C1028 1.392 . S
C1029 H1041 0.929 . S
C1030 C1026 1.531 . S
C1030 H1042 0.960 . S
C1030 H1043 0.962 . S
C1030 H1044 0.960 . S
C1031 C1028 1.511 . S
C1031 H1045 0.961 . S
C1031 H1046 0.961 . S
C1031 H1047 0.961 . S
C1032 C1033 1.370 . S
C1032 C1034 1.363 . S
C1032 H1048 0.931 . S
C1033 C1032 1.370 . S
C1033 C1037 1.408 . S
C1034 C1032 1.363 . S
C1034 C1035 1.370 . S
C1034 C1038 1.524 . S
C1035 C1027 1.503 . S
C1035 C1034 1.370 . S
C1035 C1036 1.403 . S
C1036 C1035 1.403 . S
C1036 C1037 1.404 . S
C1036 C1039 1.539 . S
C1037 C1033 1.408 . S
C1037 C1036 1.404 . S
C1037 H1049 0.930 . S
C1038 C1034 1.524 . S
C1038 H1050 0.956 . S
C1038 H1051 0.961 . S
C1038 H1052 0.961 . S
C1039 C1036 1.539 . S
C1039 H1053 0.958 . S
C1039 H1054 0.961 . S
C1039 H1055 0.960 . S
H1040 C1024 0.931 . S
H1041 C1029 0.929 . S
H1042 C1030 0.960 . S
H1043 C1030 0.962 . S
H1044 C1030 0.960 . S
H1045 C1031 0.961 . S
H1046 C1031 0.961 . S
H1047 C1031 0.961 . S
H1048 C1032 0.931 . S
H1049 C1037 0.930 . S
H1050 C1038 0.956 . S
H1051 C1038 0.961 . S
H1052 C1038 0.961 . S
H1053 C1039 0.958 . S
H1054 C1039 0.961 . S
H1055 C1039 0.960 . S
C1056 C1057 1.391 . S
C1056 C1058 1.394 . S
C1056 H1072 0.931 . S
C1057 C1056 1.391 . S
C1057 C1061 1.376 . S
C1058 C1056 1.394 . S
C1058 C1059 1.369 . S
C1058 C1062 1.531 . S
C1059 C1058 1.369 . S
C1059 C1060 1.410 . S
C1059 C1067 1.503 . S
C1060 C1059 1.410 . S
C1060 C1061 1.392 . S
C1060 C1063 1.511 . S
C1061 C1057 1.376 . S
C1061 C1060 1.392 . S
C1061 H1073 0.929 . S
C1062 C1058 1.531 . S
C1062 H1074 0.960 . S
C1062 H1075 0.962 . S
C1062 H1076 0.960 . S
C1063 C1060 1.511 . S
C1063 H1077 0.961 . S
C1063 H1078 0.961 . S
C1063 H1079 0.961 . S
C1064 C1065 1.370 . S
C1064 C1066 1.363 . S
C1064 H1080 0.931 . S
C1065 C1064 1.370 . S
C1065 C1069 1.408 . S
C1066 C1064 1.363 . S
C1066 C1067 1.370 . S
C1066 C1070 1.524 . S
C1067 C1059 1.503 . S
C1067 C1066 1.370 . S
C1067 C1068 1.403 . S
C1068 C1067 1.403 . S
C1068 C1069 1.404 . S
C1068 C1071 1.539 . S
C1069 C1065 1.408 . S
C1069 C1068 1.404 . S
C1069 H1081 0.930 . S
C1070 C1066 1.524 . S
C1070 H1082 0.956 . S
C1070 H1083 0.961 . S
C1070 H1084 0.961 . S
C1071 C1068 1.539 . S
C1071 H1085 0.958 . S
C1071 H1086 0.961 . S
C1071 H1087 0.960 . S
H1072 C1056 0.931 . S
H1073 C1061 0.929 . S
H1074 C1062 0.960 . S
H1075 C1062 0.962 . S
H1076 C1062 0.960 . S
H1077 C1063 0.961 . S
H1078 C1063 0.961 . S
H1079 C1063 0.961 . S
H1080 C1064 0.931 . S
H1081 C1069 0.930 . S
H1082 C1070 0.956 . S
H1083 C1070 0.961 . S
H1084 C1070 0.961 . S
H1085 C1071 0.958 . S
H1086 C1071 0.961 . S
H1087 C1071 0.960 . S
C1088 C1089 1.391 . S
C1088 C1090 1.394 . S
C1088 H1104 0.931 . S
C1089 C1088 1.391 . S
C1089 C1093 1.376 . S
C1090 C1088 1.394 . S
C1090 C1091 1.369 . S
C1090 C1094 1.531 . S
C1091 C1090 1.369 . S
C1091 C1092 1.410 . S
C1091 C1099 1.503 . S
C1092 C1091 1.410 . S
C1092 C1093 1.392 . S
C1092 C1095 1.511 . S
C1093 C1089 1.376 . S
C1093 C1092 1.392 . S
C1093 H1105 0.929 . S
C1094 C1090 1.531 . S
C1094 H1106 0.960 . S
C1094 H1107 0.962 . S
C1094 H1108 0.960 . S
C1095 C1092 1.511 . S
C1095 H1109 0.961 . S
C1095 H1110 0.961 . S
C1095 H1111 0.961 . S
C1096 C1097 1.370 . S
C1096 C1098 1.363 . S
C1096 H1112 0.931 . S
C1097 C1096 1.370 . S
C1097 C1101 1.408 . S
C1098 C1096 1.363 . S
C1098 C1099 1.370 . S
C1098 C1102 1.524 . S
C1099 C1091 1.503 . S
C1099 C1098 1.370 . S
C1099 C1100 1.403 . S
C1100 C1099 1.403 . S
C1100 C1101 1.404 . S
C1100 C1103 1.539 . S
C1101 C1097 1.408 . S
C1101 C1100 1.404 . S
C1101 H1113 0.930 . S
C1102 C1098 1.524 . S
C1102 H1114 0.956 . S
C1102 H1115 0.961 . S
C1102 H1116 0.961 . S
C1103 C1100 1.539 . S
C1103 H1117 0.958 . S
C1103 H1118 0.961 . S
C1103 H1119 0.960 . S
H1104 C1088 0.931 . S
H1105 C1093 0.929 . S
H1106 C1094 0.960 . S
H1107 C1094 0.962 . S
H1108 C1094 0.960 . S
H1109 C1095 0.961 . S
H1110 C1095 0.961 . S
H1111 C1095 0.961 . S
H1112 C1096 0.931 . S
H1113 C1101 0.930 . S
H1114 C1102 0.956 . S
H1115 C1102 0.961 . S
H1116 C1102 0.961 . S
H1117 C1103 0.958 . S
H1118 C1103 0.961 . S
H1119 C1103 0.960 . S
C1120 C1121 1.391 . S
C1120 C1122 1.394 . S
C1120 H1136 0.931 . S
C1121 C1120 1.391 . S
C1121 C1125 1.376 . S
C1122 C1120 1.394 . S
C1122 C1123 1.369 . S
C1122 C1126 1.531 . S
C1123 C1122 1.369 . S
C1123 C1124 1.410 . S
C1123 C1131 1.503 . S
C1124 C1123 1.410 . S
C1124 C1125 1.392 . S
C1124 C1127 1.511 . S
C1125 C1121 1.376 . S
C1125 C1124 1.392 . S
C1125 H1137 0.929 . S
C1126 C1122 1.531 . S
C1126 H1138 0.960 . S
C1126 H1139 0.962 . S
C1126 H1140 0.960 . S
C1127 C1124 1.511 . S
C1127 H1141 0.961 . S
C1127 H1142 0.961 . S
C1127 H1143 0.961 . S
C1128 C1129 1.370 . S
C1128 C1130 1.363 . S
C1128 H1144 0.931 . S
C1129 C1128 1.370 . S
C1129 C1133 1.408 . S
C1130 C1128 1.363 . S
C1130 C1131 1.370 . S
C1130 C1134 1.524 . S
C1131 C1123 1.503 . S
C1131 C1130 1.370 . S
C1131 C1132 1.403 . S
C1132 C1131 1.403 . S
C1132 C1133 1.404 . S
C1132 C1135 1.539 . S
C1133 C1129 1.408 . S
C1133 C1132 1.404 . S
C1133 H1145 0.930 . S
C1134 C1130 1.524 . S
C1134 H1146 0.956 . S
C1134 H1147 0.961 . S
C1134 H1148 0.961 . S
C1135 C1132 1.539 . S
C1135 H1149 0.958 . S
C1135 H1150 0.961 . S
C1135 H1151 0.960 . S
H1136 C1120 0.931 . S
H1137 C1125 0.929 . S
H1138 C1126 0.960 . S
H1139 C1126 0.962 . S
H1140 C1126 0.960 . S
H1141 C1127 0.961 . S
H1142 C1127 0.961 . S
H1143 C1127 0.961 . S
H1144 C1128 0.931 . S
H1145 C1133 0.930 . S
H1146 C1134 0.956 . S
H1147 C1134 0.961 . S
H1148 C1134 0.961 . S
H1149 C1135 0.958 . S
H1150 C1135 0.961 . S
H1151 C1135 0.960 . S
C1152 C1153 1.391 . S
C1152 C1154 1.394 . S
C1152 H1168 0.931 . S
C1153 C1152 1.391 . S
C1153 C1157 1.376 . S
C1154 C1152 1.394 . S
C1154 C1155 1.369 . S
C1154 C1158 1.531 . S
C1155 C1154 1.369 . S
C1155 C1156 1.410 . S
C1155 C1163 1.503 . S
C1156 C1155 1.410 . S
C1156 C1157 1.392 . S
C1156 C1159 1.511 . S
C1157 C1153 1.376 . S
C1157 C1156 1.392 . S
C1157 H1169 0.929 . S
C1158 C1154 1.531 . S
C1158 H1170 0.960 . S
C1158 H1171 0.962 . S
C1158 H1172 0.960 . S
C1159 C1156 1.511 . S
C1159 H1173 0.961 . S
C1159 H1174 0.961 . S
C1159 H1175 0.961 . S
C1160 C1161 1.370 . S
C1160 C1162 1.363 . S
C1160 H1176 0.931 . S
C1161 C1160 1.370 . S
C1161 C1165 1.408 . S
C1162 C1160 1.363 . S
C1162 C1163 1.370 . S
C1162 C1166 1.524 . S
C1163 C1155 1.503 . S
C1163 C1162 1.370 . S
C1163 C1164 1.403 . S
C1164 C1163 1.403 . S
C1164 C1165 1.404 . S
C1164 C1167 1.539 . S
C1165 C1161 1.408 . S
C1165 C1164 1.404 . S
C1165 H1177 0.930 . S
C1166 C1162 1.524 . S
C1166 H1178 0.956 . S
C1166 H1179 0.961 . S
C1166 H1180 0.961 . S
C1167 C1164 1.539 . S
C1167 H1181 0.958 . S
C1167 H1182 0.961 . S
C1167 H1183 0.960 . S
H1168 C1152 0.931 . S
H1169 C1157 0.929 . S
H1170 C1158 0.960 . S
H1171 C1158 0.962 . S
H1172 C1158 0.960 . S
H1173 C1159 0.961 . S
H1174 C1159 0.961 . S
H1175 C1159 0.961 . S
H1176 C1160 0.931 . S
H1177 C1165 0.930 . S
H1178 C1166 0.956 . S
H1179 C1166 0.961 . S
H1180 C1166 0.961 . S
H1181 C1167 0.958 . S
H1182 C1167 0.961 . S
H1183 C1167 0.960 . S
C1184 C1185 1.391 . S
C1184 C1186 1.394 . S
C1184 H1200 0.931 . S
C1185 C1184 1.391 . S
C1185 C1189 1.376 . S
C1186 C1184 1.394 . S
C1186 C1187 1.369 . S
C1186 C1190 1.531 . S
C1187 C1186 1.369 . S
C1187 C1188 1.410 . S
C1187 C1195 1.503 . S
C1188 C1187 1.410 . S
C1188 C1189 1.392 . S
C1188 C1191 1.511 . S
C1189 C1185 1.376 . S
C1189 C1188 1.392 . S
C1189 H1201 0.929 . S
C1190 C1186 1.531 . S
C1190 H1202 0.960 . S
C1190 H1203 0.962 . S
C1190 H1204 0.960 . S
C1191 C1188 1.511 . S
C1191 H1205 0.961 . S
C1191 H1206 0.961 . S
C1191 H1207 0.961 . S
C1192 C1193 1.370 . S
C1192 C1194 1.363 . S
C1192 H1208 0.931 . S
C1193 C1192 1.370 . S
C1193 C1197 1.408 . S
C1194 C1192 1.363 . S
C1194 C1195 1.370 . S
C1194 C1198 1.524 . S
C1195 C1187 1.503 . S
C1195 C1194 1.370 . S
C1195 C1196 1.403 . S
C1196 C1195 1.403 . S
C1196 C1197 1.404 . S
C1196 C1199 1.539 . S
C1197 C1193 1.408 . S
C1197 C1196 1.404 . S
C1197 H1209 0.930 . S
C1198 C1194 1.524 . S
C1198 H1210 0.956 . S
C1198 H1211 0.961 . S
C1198 H1212 0.961 . S
C1199 C1196 1.539 . S
C1199 H1213 0.958 . S
C1199 H1214 0.961 . S
C1199 H1215 0.960 . S
H1200 C1184 0.931 . S
H1201 C1189 0.929 . S
H1202 C1190 0.960 . S
H1203 C1190 0.962 . S
H1204 C1190 0.960 . S
H1205 C1191 0.961 . S
H1206 C1191 0.961 . S
H1207 C1191 0.961 . S
H1208 C1192 0.931 . S
H1209 C1197 0.930 . S
H1210 C1198 0.956 . S
H1211 C1198 0.961 . S
H1212 C1198 0.961 . S
H1213 C1199 0.958 . S
H1214 C1199 0.961 . S
H1215 C1199 0.960 . S
C1216 C1217 1.391 . S
C1216 C1218 1.394 . S
C1216 H1232 0.931 . S
C1217 C1216 1.391 . S
C1217 C1221 1.376 . S
C1218 C1216 1.394 . S
C1218 C1219 1.369 . S
C1218 C1222 1.531 . S
C1219 C1218 1.369 . S
C1219 C1220 1.410 . S
C1219 C1227 1.503 . S
C1220 C1219 1.410 . S
C1220 C1221 1.392 . S
C1220 C1223 1.511 . S
C1221 C1217 1.376 . S
C1221 C1220 1.392 . S
C1221 H1233 0.929 . S
C1222 C1218 1.531 . S
C1222 H1234 0.960 . S
C1222 H1235 0.962 . S
C1222 H1236 0.960 . S
C1223 C1220 1.511 . S
C1223 H1237 0.961 . S
C1223 H1238 0.961 . S
C1223 H1239 0.961 . S
C1224 C1225 1.370 . S
C1224 C1226 1.363 . S
C1224 H1240 0.931 . S
C1225 C1224 1.370 . S
C1225 C1229 1.408 . S
C1226 C1224 1.363 . S
C1226 C1227 1.370 . S
C1226 C1230 1.524 . S
C1227 C1219 1.503 . S
C1227 C1226 1.370 . S
C1227 C1228 1.403 . S
C1228 C1227 1.403 . S
C1228 C1229 1.404 . S
C1228 C1231 1.539 . S
C1229 C1225 1.408 . S
C1229 C1228 1.404 . S
C1229 H1241 0.930 . S
C1230 C1226 1.524 . S
C1230 H1242 0.956 . S
C1230 H1243 0.961 . S
C1230 H1244 0.961 . S
C1231 C1228 1.539 . S
C1231 H1245 0.958 . S
C1231 H1246 0.961 . S
C1231 H1247 0.960 . S
H1232 C1216 0.931 . S
H1233 C1221 0.929 . S
H1234 C1222 0.960 . S
H1235 C1222 0.962 . S
H1236 C1222 0.960 . S
H1237 C1223 0.961 . S
H1238 C1223 0.961 . S
H1239 C1223 0.961 . S
H1240 C1224 0.931 . S
H1241 C1229 0.930 . S
H1242 C1230 0.956 . S
H1243 C1230 0.961 . S
H1244 C1230 0.961 . S
H1245 C1231 0.958 . S
H1246 C1231 0.961 . S
H1247 C1231 0.960 . S
C1248 C1249 1.391 . S
C1248 C1250 1.394 . S
C1248 H1264 0.931 . S
C1249 C1248 1.391 . S
C1249 C1253 1.376 . S
C1250 C1248 1.394 . S
C1250 C1251 1.369 . S
C1250 C1254 1.531 . S
C1251 C1250 1.369 . S
C1251 C1252 1.410 . S
C1251 C1259 1.503 . S
C1252 C1251 1.410 . S
C1252 C1253 1.392 . S
C1252 C1255 1.511 . S
C1253 C1249 1.376 . S
C1253 C1252 1.392 . S
C1253 H1265 0.929 . S
C1254 C1250 1.531 . S
C1254 H1266 0.960 . S
C1254 H1267 0.962 . S
C1254 H1268 0.960 . S
C1255 C1252 1.511 . S
C1255 H1269 0.961 . S
C1255 H1270 0.961 . S
C1255 H1271 0.961 . S
C1256 C1257 1.370 . S
C1256 C1258 1.363 . S
C1256 H1272 0.931 . S
C1257 C1256 1.370 . S
C1257 C1261 1.408 . S
C1258 C1256 1.363 . S
C1258 C1259 1.370 . S
C1258 C1262 1.524 . S
C1259 C1251 1.503 . S
C1259 C1258 1.370 . S
C1259 C1260 1.403 . S
C1260 C1259 1.403 . S
C1260 C1261 1.404 . S
C1260 C1263 1.539 . S
C1261 C1257 1.408 . S
C1261 C1260 1.404 . S
C1261 H1273 0.930 . S
C1262 C1258 1.524 . S
C1262 H1274 0.956 . S
C1262 H1275 0.961 . S
C1262 H1276 0.961 . S
C1263 C1260 1.539 . S
C1263 H1277 0.958 . S
C1263 H1278 0.961 . S
C1263 H1279 0.960 . S
H1264 C1248 0.931 . S
H1265 C1253 0.929 . S
H1266 C1254 0.960 . S
H1267 C1254 0.962 . S
H1268 C1254 0.960 . S
H1269 C1255 0.961 . S
H1270 C1255 0.961 . S
H1271 C1255 0.961 . S
H1272 C1256 0.931 . S
H1273 C1261 0.930 . S
H1274 C1262 0.956 . S
H1275 C1262 0.961 . S
H1276 C1262 0.961 . S
H1277 C1263 0.958 . S
H1278 C1263 0.961 . S
H1279 C1263 0.960 . S
C1280 C1281 1.391 . S
C1280 C1282 1.394 . S
C1280 H1296 0.931 . S
C1281 C1280 1.391 . S
C1281 C1285 1.376 . S
C1282 C1280 1.394 . S
C1282 C1283 1.369 . S
C1282 C1286 1.531 . S
C1283 C1282 1.369 . S
C1283 C1284 1.410 . S
C1283 C1291 1.503 . S
C1284 C1283 1.410 . S
C1284 C1285 1.392 . S
C1284 C1287 1.511 . S
C1285 C1281 1.376 . S
C1285 C1284 1.392 . S
C1285 H1297 0.929 . S
C1286 C1282 1.531 . S
C1286 H1298 0.960 . S
C1286 H1299 0.962 . S
C1286 H1300 0.960 . S
C1287 C1284 1.511 . S
C1287 H1301 0.961 . S
C1287 H1302 0.961 . S
C1287 H1303 0.961 . S
C1288 C1289 1.370 . S
C1288 C1290 1.363 . S
C1288 H1304 0.931 . S
C1289 C1288 1.370 . S
C1289 C1293 1.408 . S
C1290 C1288 1.363 . S
C1290 C1291 1.370 . S
C1290 C1294 1.524 . S
C1291 C1283 1.503 . S
C1291 C1290 1.370 . S
C1291 C1292 1.403 . S
C1292 C1291 1.403 . S
C1292 C1293 1.404 . S
C1292 C1295 1.539 . S
C1293 C1289 1.408 . S
C1293 C1292 1.404 . S
C1293 H1305 0.930 . S
C1294 C1290 1.524 . S
C1294 H1306 0.956 . S
C1294 H1307 0.961 . S
C1294 H1308 0.961 . S
C1295 C1292 1.539 . S
C1295 H1309 0.958 . S
C1295 H1310 0.961 . S
C1295 H1311 0.960 . S
H1296 C1280 0.931 . S
H1297 C1285 0.929 . S
H1298 C1286 0.960 . S
H1299 C1286 0.962 . S
H1300 C1286 0.960 . S
H1301 C1287 0.961 . S
H1302 C1287 0.961 . S
H1303 C1287 0.961 . S
H1304 C1288 0.931 . S
H1305 C1293 0.930 . S
H1306 C1294 0.956 . S
H1307 C1294 0.961 . S
H1308 C1294 0.961 . S
H1309 C1295 0.958 . S
H1310 C1295 0.961 . S
H1311 C1295 0.960 . S
C1312 C1313 1.391 . S
C1312 C1314 1.394 . S
C1312 H1328 0.931 . S
C1313 C1312 1.391 . S
C1313 C1317 1.376 . S
C1314 C1312 1.394 . S
C1314 C1315 1.369 . S
C1314 C1318 1.531 . S
C1315 C1314 1.369 . S
C1315 C1316 1.410 . S
C1315 C1323 1.503 . S
C1316 C1315 1.410 . S
C1316 C1317 1.392 . S
C1316 C1319 1.511 . S
C1317 C1313 1.376 . S
C1317 C1316 1.392 . S
C1317 H1329 0.929 . S
C1318 C1314 1.531 . S
C1318 H1330 0.960 . S
C1318 H1331 0.962 . S
C1318 H1332 0.960 . S
C1319 C1316 1.511 . S
C1319 H1333 0.961 . S
C1319 H1334 0.961 . S
C1319 H1335 0.961 . S
C1320 C1321 1.370 . S
C1320 C1322 1.363 . S
C1320 H1336 0.931 . S
C1321 C1320 1.370 . S
C1321 C1325 1.408 . S
C1322 C1320 1.363 . S
C1322 C1323 1.370 . S
C1322 C1326 1.524 . S
C1323 C1315 1.503 . S
C1323 C1322 1.370 . S
C1323 C1324 1.403 . S
C1324 C1323 1.403 . S
C1324 C1325 1.404 . S
C1324 C1327 1.539 . S
C1325 C1321 1.408 . S
C1325 C1324 1.404 . S
C1325 H1337 0.930 . S
C1326 C1322 1.524 . S
C1326 H1338 0.956 . S
C1326 H1339 0.961 . S
C1326 H1340 0.961 . S
C1327 C1324 1.539 . S
C1327 H1341 0.958 . S
C1327 H1342 0.961 . S
C1327 H1343 0.960 . S
H1328 C1312 0.931 . S
H1329 C1317 0.929 . S
H1330 C1318 0.960 . S
H1331 C1318 0.962 . S
H1332 C1318 0.960 . S
H1333 C1319 0.961 . S
H1334 C1319 0.961 . S
H1335 C1319 0.961 . S
H1336 C1320 0.931 . S
H1337 C1325 0.930 . S
H1338 C1326 0.956 . S
H1339 C1326 0.961 . S
H1340 C1326 0.961 . S
H1341 C1327 0.958 . S
H1342 C1327 0.961 . S
H1343 C1327 0.960 . S
C1344 C1345 1.391 . S
C1344 C1346 1.394 . S
C1344 H1360 0.931 . S
C1345 C1344 1.391 . S
C1345 C1349 1.376 . S
C1346 C1344 1.394 . S
C1346 C1347 1.369 . S
C1346 C1350 1.531 . S
C1347 C1346 1.369 . S
C1347 C1348 1.410 . S
C1347 C1355 1.503 . S
C1348 C1347 1.410 . S
C1348 C1349 1.392 . S
C1348 C1351 1.511 . S
C1349 C1345 1.376 . S
C1349 C1348 1.392 . S
C1349 H1361 0.929 . S
C1350 C1346 1.531 . S
C1350 H1362 0.960 . S
C1350 H1363 0.962 . S
C1350 H1364 0.960 . S
C1351 C1348 1.511 . S
C1351 H1365 0.961 . S
C1351 H1366 0.961 . S
C1351 H1367 0.961 . S
C1352 C1353 1.370 . S
C1352 C1354 1.363 . S
C1352 H1368 0.931 . S
C1353 C1352 1.370 . S
C1353 C1357 1.408 . S
C1354 C1352 1.363 . S
C1354 C1355 1.370 . S
C1354 C1358 1.524 . S
C1355 C1347 1.503 . S
C1355 C1354 1.370 . S
C1355 C1356 1.403 . S
C1356 C1355 1.403 . S
C1356 C1357 1.404 . S
C1356 C1359 1.539 . S
C1357 C1353 1.408 . S
C1357 C1356 1.404 . S
C1357 H1369 0.930 . S
C1358 C1354 1.524 . S
C1358 H1370 0.956 . S
C1358 H1371 0.961 . S
C1358 H1372 0.961 . S
C1359 C1356 1.539 . S
C1359 H1373 0.958 . S
C1359 H1374 0.961 . S
C1359 H1375 0.960 . S
H1360 C1344 0.931 . S
H1361 C1349 0.929 . S
H1362 C1350 0.960 . S
H1363 C1350 0.962 . S
H1364 C1350 0.960 . S
H1365 C1351 0.961 . S
H1366 C1351 0.961 . S
H1367 C1351 0.961 . S
H1368 C1352 0.931 . S
H1369 C1357 0.930 . S
H1370 C1358 0.956 . S
H1371 C1358 0.961 . S
H1372 C1358 0.961 . S
H1373 C1359 0.958 . S
H1374 C1359 0.961 . S
H1375 C1359 0.960 . S
C1376 C1377 1.391 . S
C1376 C1378 1.394 . S
C1376 H1392 0.931 . S
C1377 C1376 1.391 . S
C1377 C1381 1.376 . S
C1378 C1376 1.394 . S
C1378 C1379 1.369 . S
C1378 C1382 1.531 . S
C1379 C1378 1.369 . S
C1379 C1380 1.410 . S
C1379 C1387 1.503 . S
C1380 C1379 1.410 . S
C1380 C1381 1.392 . S
C1380 C1383 1.511 . S
C1381 C1377 1.376 . S
C1381 C1380 1.392 . S
C1381 H1393 0.929 . S
C1382 C1378 1.531 . S
C1382 H1394 0.960 . S
C1382 H1395 0.962 . S
C1382 H1396 0.960 . S
C1383 C1380 1.511 . S
C1383 H1397 0.961 . S
C1383 H1398 0.961 . S
C1383 H1399 0.961 . S
C1384 C1385 1.370 . S
C1384 C1386 1.363 . S
C1384 H1400 0.931 . S
C1385 C1384 1.370 . S
C1385 C1389 1.408 . S
C1386 C1384 1.363 . S
C1386 C1387 1.370 . S
C1386 C1390 1.524 . S
C1387 C1379 1.503 . S
C1387 C1386 1.370 . S
C1387 C1388 1.403 . S
C1388 C1387 1.403 . S
C1388 C1389 1.404 . S
C1388 C1391 1.539 . S
C1389 C1385 1.408 . S
C1389 C1388 1.404 . S
C1389 H1401 0.930 . S
C1390 C1386 1.524 . S
C1390 H1402 0.956 . S
C1390 H1403 0.961 . S
C1390 H1404 0.961 . S
C1391 C1388 1.539 . S
C1391 H1405 0.958 . S
C1391 H1406 0.961 . S
C1391 H1407 0.960 . S
H1392 C1376 0.931 . S
H1393 C1381 0.929 . S
H1394 C1382 0.960 . S
H1395 C1382 0.962 . S
H1396 C1382 0.960 . S
H1397 C1383 0.961 . S
H1398 C1383 0.961 . S
H1399 C1383 0.961 . S
H1400 C1384 0.931 . S
H1401 C1389 0.930 . S
H1402 C1390 0.956 . S
H1403 C1390 0.961 . S
H1404 C1390 0.961 . S
H1405 C1391 0.958 . S
H1406 C1391 0.961 . S
H1407 C1391 0.960 . S
C1408 C1409 1.391 . S
C1408 C1410 1.394 . S
C1408 H1424 0.931 . S
C1409 C1408 1.391 . S
C1409 C1413 1.376 . S
C1410 C1408 1.394 . S
C1410 C1411 1.369 . S
C1410 C1414 1.531 . S
C1411 C1410 1.369 . S
C1411 C1412 1.410 . S
C1411 C1419 1.503 . S
C1412 C1411 1.410 . S
C1412 C1413 1.392 . S
C1412 C1415 1.511 . S
C1413 C1409 1.376 . S
C1413 C1412 1.392 . S
C1413 H1425 0.929 . S
C1414 C1410 1.531 . S
C1414 H1426 0.960 . S
C1414 H1427 0.962 . S
C1414 H1428 0.960 . S
C1415 C1412 1.511 . S
C1415 H1429 0.961 . S
C1415 H1430 0.961 . S
C1415 H1431 0.961 . S
C1416 C1417 1.370 . S
C1416 C1418 1.363 . S
C1416 H1432 0.931 . S
C1417 C1416 1.370 . S
C1417 C1421 1.408 . S
C1418 C1416 1.363 . S
C1418 C1419 1.370 . S
C1418 C1422 1.524 . S
C1419 C1411 1.503 . S
C1419 C1418 1.370 . S
C1419 C1420 1.403 . S
C1420 C1419 1.403 . S
C1420 C1421 1.404 . S
C1420 C1423 1.539 . S
C1421 C1417 1.408 . S
C1421 C1420 1.404 . S
C1421 H1433 0.930 . S
C1422 C1418 1.524 . S
C1422 H1434 0.956 . S
C1422 H1435 0.961 . S
C1422 H1436 0.961 . S
C1423 C1420 1.539 . S
C1423 H1437 0.958 . S
C1423 H1438 0.961 . S
C1423 H1439 0.960 . S
H1424 C1408 0.931 . S
H1425 C1413 0.929 . S
H1426 C1414 0.960 . S
H1427 C1414 0.962 . S
H1428 C1414 0.960 . S
H1429 C1415 0.961 . S
H1430 C1415 0.961 . S
H1431 C1415 0.961 . S
H1432 C1416 0.931 . S
H1433 C1421 0.930 . S
H1434 C1422 0.956 . S
H1435 C1422 0.961 . S
H1436 C1422 0.961 . S
H1437 C1423 0.958 . S
H1438 C1423 0.961 . S
H1439 C1423 0.960 . S
C1440 C1441 1.391 . S
C1440 C1442 1.394 . S
C1440 H1456 0.931 . S
C1441 C1440 1.391 . S
C1441 C1445 1.376 . S
C1442 C1440 1.394 . S
C1442 C1443 1.369 . S
C1442 C1446 1.531 . S
C1443 C1442 1.369 . S
C1443 C1444 1.410 . S
C1443 C1451 1.503 . S
C1444 C1443 1.410 . S
C1444 C1445 1.392 . S
C1444 C1447 1.511 . S
C1445 C1441 1.376 . S
C1445 C1444 1.392 . S
C1445 H1457 0.929 . S
C1446 C1442 1.531 . S
C1446 H1458 0.960 . S
C1446 H1459 0.962 . S
C1446 H1460 0.960 . S
C1447 C1444 1.511 . S
C1447 H1461 0.961 . S
C1447 H1462 0.961 . S
C1447 H1463 0.961 . S
C1448 C1449 1.370 . S
C1448 C1450 1.363 . S
C1448 H1464 0.931 . S
C1449 C1448 1.370 . S
C1449 C1453 1.408 . S
C1450 C1448 1.363 . S
C1450 C1451 1.370 . S
C1450 C1454 1.524 . S
C1451 C1443 1.503 . S
C1451 C1450 1.370 . S
C1451 C1452 1.403 . S
C1452 C1451 1.403 . S
C1452 C1453 1.404 . S
C1452 C1455 1.539 . S
C1453 C1449 1.408 . S
C1453 C1452 1.404 . S
C1453 H1465 0.930 . S
C1454 C1450 1.524 . S
C1454 H1466 0.956 . S
C1454 H1467 0.961 . S
C1454 H1468 0.961 . S
C1455 C1452 1.539 . S
C1455 H1469 0.958 . S
C1455 H1470 0.961 . S
C1455 H1471 0.960 . S
H1456 C1440 0.931 . S
H1457 C1445 0.929 . S
H1458 C1446 0.960 . S
H1459 C1446 0.962 . S
H1460 C1446 0.960 . S
H1461 C1447 0.961 . S
H1462 C1447 0.961 . S
H1463 C1447 0.961 . S
H1464 C1448 0.931 . S
H1465 C1453 0.930 . S
H1466 C1454 0.956 . S
H1467 C1454 0.961 . S
H1468 C1454 0.961 . S
H1469 C1455 0.958 . S
H1470 C1455 0.961 . S
H1471 C1455 0.960 . S
C1472 C1473 1.391 . S
C1472 C1474 1.394 . S
C1472 H1488 0.931 . S
C1473 C1472 1.391 . S
C1473 C1477 1.376 . S
C1474 C1472 1.394 . S
C1474 C1475 1.369 . S
C1474 C1478 1.531 . S
C1475 C1474 1.369 . S
C1475 C1476 1.410 . S
C1475 C1483 1.503 . S
C1476 C1475 1.410 . S
C1476 C1477 1.392 . S
C1476 C1479 1.511 . S
C1477 C1473 1.376 . S
C1477 C1476 1.392 . S
C1477 H1489 0.929 . S
C1478 C1474 1.531 . S
C1478 H1490 0.960 . S
C1478 H1491 0.962 . S
C1478 H1492 0.960 . S
C1479 C1476 1.511 . S
C1479 H1493 0.961 . S
C1479 H1494 0.961 . S
C1479 H1495 0.961 . S
C1480 C1481 1.370 . S
C1480 C1482 1.363 . S
C1480 H1496 0.931 . S
C1481 C1480 1.370 . S
C1481 C1485 1.408 . S
C1482 C1480 1.363 . S
C1482 C1483 1.370 . S
C1482 C1486 1.524 . S
C1483 C1475 1.503 . S
C1483 C1482 1.370 . S
C1483 C1484 1.403 . S
C1484 C1483 1.403 . S
C1484 C1485 1.404 . S
C1484 C1487 1.539 . S
C1485 C1481 1.408 . S
C1485 C1484 1.404 . S
C1485 H1497 0.930 . S
C1486 C1482 1.524 . S
C1486 H1498 0.956 . S
C1486 H1499 0.961 . S
C1486 H1500 0.961 . S
C1487 C1484 1.539 . S
C1487 H1501 0.958 . S
C1487 H1502 0.961 . S
C1487 H1503 0.960 . S
H1488 C1472 0.931 . S
H1489 C1477 0.929 . S
H1490 C1478 0.960 . S
H1491 C1478 0.962 . S
H1492 C1478 0.960 . S
H1493 C1479 0.961 . S
H1494 C1479 0.961 . S
H1495 C1479 0.961 . S
H1496 C1480 0.931 . S
H1497 C1485 0.930 . S
H1498 C1486 0.956 . S
H1499 C1486 0.961 . S
H1500 C1486 0.961 . S
H1501 C1487 0.958 . S
H1502 C1487 0.961 . S
H1503 C1487 0.960 . S
C1504 C1505 1.391 . S
C1504 C1506 1.394 . S
C1504 H1520 0.931 . S
C1505 C1504 1.391 . S
C1505 C1509 1.376 . S
C1506 C1504 1.394 . S
C1506 C1507 1.369 . S
C1506 C1510 1.531 . S
C1507 C1506 1.369 . S
C1507 C1508 1.410 . S
C1507 C1515 1.503 . S
C1508 C1507 1.410 . S
C1508 C1509 1.392 . S
C1508 C1511 1.511 . S
C1509 C1505 1.376 . S
C1509 C1508 1.392 . S
C1509 H1521 0.929 . S
C1510 C1506 1.531 . S
C1510 H1522 0.960 . S
C1510 H1523 0.962 . S
C1510 H1524 0.960 . S
C1511 C1508 1.511 . S
C1511 H1525 0.961 . S
C1511 H1526 0.961 . S
C1511 H1527 0.961 . S
C1512 C1513 1.370 . S
C1512 C1514 1.363 . S
C1512 H1528 0.931 . S
C1513 C1512 1.370 . S
C1513 C1517 1.408 . S
C1514 C1512 1.363 . S
C1514 C1515 1.370 . S
C1514 C1518 1.524 . S
C1515 C1507 1.503 . S
C1515 C1514 1.370 . S
C1515 C1516 1.403 . S
C1516 C1515 1.403 . S
C1516 C1517 1.404 . S
C1516 C1519 1.539 . S
C1517 C1513 1.408 . S
C1517 C1516 1.404 . S
C1517 H1529 0.930 . S
C1518 C1514 1.524 . S
C1518 H1530 0.956 . S
C1518 H1531 0.961 . S
C1518 H1532 0.961 . S
C1519 C1516 1.539 . S
C1519 H1533 0.958 . S
C1519 H1534 0.961 . S
C1519 H1535 0.960 . S
H1520 C1504 0.931 . S
H1521 C1509 0.929 . S
H1522 C1510 0.960 . S
H1523 C1510 0.962 . S
H1524 C1510 0.960 . S
H1525 C1511 0.961 . S
H1526 C1511 0.961 . S
H1527 C1511 0.961 . S
H1528 C1512 0.931 . S
H1529 C1517 0.930 . S
H1530 C1518 0.956 . S
H1531 C1518 0.961 . S
H1532 C1518 0.961 . S
H1533 C1519 0.958 . S
H1534 C1519 0.961 . S
H1535 C1519 0.960 . S
C1536 C1537 1.391 . S
C1536 C1538 1.394 . S
C1536 H1552 0.931 . S
C1537 C1536 1.391 . S
C1537 C1541 1.376 . S
C1538 C1536 1.394 . S
C1538 C1539 1.369 . S
C1538 C1542 1.531 . S
C1539 C1538 1.369 . S
C1539 C1540 1.410 . S
C1539 C1547 1.503 . S
C1540 C1539 1.410 . S
C1540 C1541 1.392 . S
C1540 C1543 1.511 . S
C1541 C1537 1.376 . S
C1541 C1540 1.392 . S
C1541 H1553 0.929 . S
C1542 C1538 1.531 . S
C1542 H1554 0.960 . S
C1542 H1555 0.962 . S
C1542 H1556 0.960 . S
C1543 C1540 1.511 . S
C1543 H1557 0.961 . S
C1543 H1558 0.961 . S
C1543 H1559 0.961 . S
C1544 C1545 1.370 . S
C1544 C1546 1.363 . S
C1544 H1560 0.931 . S
C1545 C1544 1.370 . S
C1545 C1549 1.408 . S
C1546 C1544 1.363 . S
C1546 C1547 1.370 . S
C1546 C1550 1.524 . S
C1547 C1539 1.503 . S
C1547 C1546 1.370 . S
C1547 C1548 1.403 . S
C1548 C1547 1.403 . S
C1548 C1549 1.404 . S
C1548 C1551 1.539 . S
C1549 C1545 1.408 . S
C1549 C1548 1.404 . S
C1549 H1561 0.930 . S
C1550 C1546 1.524 . S
C1550 H1562 0.956 . S
C1550 H1563 0.961 . S
C1550 H1564 0.961 . S
C1551 C1548 1.539 . S
C1551 H1565 0.958 . S
C1551 H1566 0.961 . S
C1551 H1567 0.960 . S
H1552 C1536 0.931 . S
H1553 C1541 0.929 . S
H1554 C1542 0.960 . S
H1555 C1542 0.962 . S
H1556 C1542 0.960 . S
H1557 C1543 0.961 . S
H1558 C1543 0.961 . S
H1559 C1543 0.961 . S
H1560 C1544 0.931 . S
H1561 C1549 0.930 . S
H1562 C1550 0.956 . S
H1563 C1550 0.961 . S
H1564 C1550 0.961 . S
H1565 C1551 0.958 . S
H1566 C1551 0.961 . S
H1567 C1551 0.960 . S
C1568 C1569 1.391 . S
C1568 C1570 1.394 . S
C1568 H1584 0.931 . S
C1569 C1568 1.391 . S
C1569 C1573 1.376 . S
C1570 C1568 1.394 . S
C1570 C1571 1.369 . S
C1570 C1574 1.531 . S
C1571 C1570 1.369 . S
C1571 C1572 1.410 . S
C1571 C1579 1.503 . S
C1572 C1571 1.410 . S
C1572 C1573 1.392 . S
C1572 C1575 1.511 . S
C1573 C1569 1.376 . S
C1573 C1572 1.392 . S
C1573 H1585 0.929 . S
C1574 C1570 1.531 . S
C1574 H1586 0.960 . S
C1574 H1587 0.962 . S
C1574 H1588 0.960 . S
C1575 C1572 1.511 . S
C1575 H1589 0.961 . S
C1575 H1590 0.961 . S
C1575 H1591 0.961 . S
C1576 C1577 1.370 . S
C1576 C1578 1.363 . S
C1576 H1592 0.931 . S
C1577 C1576 1.370 . S
C1577 C1581 1.408 . S
C1578 C1576 1.363 . S
C1578 C1579 1.370 . S
C1578 C1582 1.524 . S
C1579 C1571 1.503 . S
C1579 C1578 1.370 . S
C1579 C1580 1.403 . S
C1580 C1579 1.403 . S
C1580 C1581 1.404 . S
C1580 C1583 1.539 . S
C1581 C1577 1.408 . S
C1581 C1580 1.404 . S
C1581 H1593 0.930 . S
C1582 C1578 1.524 . S
C1582 H1594 0.956 . S
C1582 H1595 0.961 . S
C1582 H1596 0.961 . S
C1583 C1580 1.539 . S
C1583 H1597 0.958 . S
C1583 H1598 0.961 . S
C1583 H1599 0.960 . S
H1584 C1568 0.931 . S
H1585 C1573 0.929 . S
H1586 C1574 0.960 . S
H1587 C1574 0.962 . S
H1588 C1574 0.960 . S
H1589 C1575 0.961 . S
H1590 C1575 0.961 . S
H1591 C1575 0.961 . S
H1592 C1576 0.931 . S
H1593 C1581 0.930 . S
H1594 C1582 0.956 . S
H1595 C1582 0.961 . S
H1596 C1582 0.961 . S
H1597 C1583 0.958 . S
H1598 C1583 0.961 . S
H1599 C1583 0.960 . S
C1600 C1601 1.391 . S
C1600 C1602 1.394 . S
C1600 H1616 0.931 . S
C1601 C1600 1.391 . S
C1601 C1605 1.376 . S
C1602 C1600 1.394 . S
C1602 C1603 1.369 . S
C1602 C1606 1.531 . S
C1603 C1602 1.369 . S
C1603 C1604 1.410 . S
C1603 C1611 1.503 . S
C1604 C1603 1.410 . S
C1604 C1605 1.392 . S
C1604 C1607 1.511 . S
C1605 C1601 1.376 . S
C1605 C1604 1.392 . S
C1605 H1617 0.929 . S
C1606 C1602 1.531 . S
C1606 H1618 0.960 . S
C1606 H1619 0.962 . S
C1606 H1620 0.960 . S
C1607 C1604 1.511 . S
C1607 H1621 0.961 . S
C1607 H1622 0.961 . S
C1607 H1623 0.961 . S
C1608 C1609 1.370 . S
C1608 C1610 1.363 . S
C1608 H1624 0.931 . S
C1609 C1608 1.370 . S
C1609 C1613 1.408 . S
C1610 C1608 1.363 . S
C1610 C1611 1.370 . S
C1610 C1614 1.524 . S
C1611 C1603 1.503 . S
C1611 C1610 1.370 . S
C1611 C1612 1.403 . S
C1612 C1611 1.403 . S
C1612 C1613 1.404 . S
C1612 C1615 1.539 . S
C1613 C1609 1.408 . S
C1613 C1612 1.404 . S
C1613 H1625 0.930 . S
C1614 C1610 1.524 . S
C1614 H1626 0.956 . S
C1614 H1627 0.961 . S
C1614 H1628 0.961 . S
C1615 C1612 1.539 . S
C1615 H1629 0.958 . S
C1615 H1630 0.961 . S
C1615 H1631 0.960 . S
H1616 C1600 0.931 . S
H1617 C1605 0.929 . S
H1618 C1606 0.960 . S
H1619 C1606 0.962 . S
H1620 C1606 0.960 . S
H1621 C1607 0.961 . S
H1622 C1607 0.961 . S
H1623 C1607 0.961 . S
H1624 C1608 0.931 . S
H1625 C1613 0.930 . S
H1626 C1614 0.956 . S
H1627 C1614 0.961 . S
H1628 C1614 0.961 . S
H1629 C1615 0.958 . S
H1630 C1615 0.961 . S
H1631 C1615 0.960 . S
C1632 C1633 1.391 . S
C1632 C1634 1.394 . S
C1632 H1648 0.931 . S
C1633 C1632 1.391 . S
C1633 C1637 1.376 . S
C1634 C1632 1.394 . S
C1634 C1635 1.369 . S
C1634 C1638 1.531 . S
C1635 C1634 1.369 . S
C1635 C1636 1.410 . S
C1635 C1643 1.503 . S
C1636 C1635 1.410 . S
C1636 C1637 1.392 . S
C1636 C1639 1.511 . S
C1637 C1633 1.376 . S
C1637 C1636 1.392 . S
C1637 H1649 0.929 . S
C1638 C1634 1.531 . S
C1638 H1650 0.960 . S
C1638 H1651 0.962 . S
C1638 H1652 0.960 . S
C1639 C1636 1.511 . S
C1639 H1653 0.961 . S
C1639 H1654 0.961 . S
C1639 H1655 0.961 . S
C1640 C1641 1.370 . S
C1640 C1642 1.363 . S
C1640 H1656 0.931 . S
C1641 C1640 1.370 . S
C1641 C1645 1.408 . S
C1642 C1640 1.363 . S
C1642 C1643 1.370 . S
C1642 C1646 1.524 . S
C1643 C1635 1.503 . S
C1643 C1642 1.370 . S
C1643 C1644 1.403 . S
C1644 C1643 1.403 . S
C1644 C1645 1.404 . S
C1644 C1647 1.539 . S
C1645 C1641 1.408 . S
C1645 C1644 1.404 . S
C1645 H1657 0.930 . S
C1646 C1642 1.524 . S
C1646 H1658 0.956 . S
C1646 H1659 0.961 . S
C1646 H1660 0.961 . S
C1647 C1644 1.539 . S
C1647 H1661 0.958 . S
C1647 H1662 0.961 . S
C1647 H1663 0.960 . S
H1648 C1632 0.931 . S
H1649 C1637 0.929 . S
H1650 C1638 0.960 . S
H1651 C1638 0.962 . S
H1652 C1638 0.960 . S
H1653 C1639 0.961 . S
H1654 C1639 0.961 . S
H1655 C1639 0.961 . S
H1656 C1640 0.931 . S
H1657 C1645 0.930 . S
H1658 C1646 0.956 . S
H1659 C1646 0.961 . S
H1660 C1646 0.961 . S
H1661 C1647 0.958 . S
H1662 C1647 0.961 . S
H1663 C1647 0.960 . S
C1664 C1665 1.391 . S
C1664 C1666 1.394 . S
C1664 H1680 0.931 . S
C1665 C1664 1.391 . S
C1665 C1669 1.376 . S
C1666 C1664 1.394 . S
C1666 C1667 1.369 1_554 S
C1666 C1670 1.531 . S
C1667 C1666 1.369 1_556 S
C1667 C1668 1.410 1_556 S
C1667 C1675 1.503 . S
C1668 C1667 1.410 1_554 S
C1668 C1669 1.392 . S
C1668 C1671 1.511 1_554 S
C1669 C1665 1.376 . S
C1669 C1668 1.392 . S
C1669 H1681 0.929 . S
C1670 C1666 1.531 . S
C1670 H1682 0.960 1_554 S
C1670 H1683 0.962 . S
C1670 H1684 0.960 . S
C1671 C1668 1.511 1_556 S
C1671 H1685 0.961 . S
C1671 H1686 0.961 . S
C1671 H1687 0.961 . S
C1672 C1673 1.370 . S
C1672 C1674 1.363 . S
C1672 H1688 0.931 . S
C1673 C1672 1.370 . S
C1673 C1677 1.408 . S
C1674 C1672 1.363 . S
C1674 C1675 1.370 . S
C1674 C1678 1.524 . S
C1675 C1667 1.503 . S
C1675 C1674 1.370 . S
C1675 C1676 1.403 . S
C1676 C1675 1.403 . S
C1676 C1677 1.404 . S
C1676 C1679 1.539 . S
C1677 C1673 1.408 . S
C1677 C1676 1.404 . S
C1677 H1689 0.930 . S
C1678 C1674 1.524 . S
C1678 H1690 0.956 . S
C1678 H1691 0.961 . S
C1678 H1692 0.961 . S
C1679 C1676 1.539 . S
C1679 H1693 0.958 . S
C1679 H1694 0.961 . S
C1679 H1695 0.960 . S
H1680 C1664 0.931 . S
H1681 C1669 0.929 . S
H1682 C1670 0.960 1_556 S
H1683 C1670 0.962 . S
H1684 C1670 0.960 . S
H1685 C1671 0.961 . S
H1686 C1671 0.961 . S
H1687 C1671 0.961 . S
H1688 C1672 0.931 . S
H1689 C1677 0.930 . S
H1690 C1678 0.956 . S
H1691 C1678 0.961 . S
H1692 C1678 0.961 . S
H1693 C1679 0.958 . S
H1694 C1679 0.961 . S
H1695 C1679 0.960 . S
C1696 C1697 1.391 . S
C1696 C1698 1.394 . S
C1696 H1712 0.931 . S
C1697 C1696 1.391 . S
C1697 C1701 1.376 . S
C1698 C1696 1.394 . S
C1698 C1699 1.369 . S
C1698 C1702 1.531 . S
C1699 C1698 1.369 . S
C1699 C1700 1.410 . S
C1699 C1707 1.503 . S
C1700 C1699 1.410 . S
C1700 C1701 1.392 . S
C1700 C1703 1.511 . S
C1701 C1697 1.376 . S
C1701 C1700 1.392 . S
C1701 H1713 0.929 . S
C1702 C1698 1.531 . S
C1702 H1714 0.960 . S
C1702 H1715 0.962 . S
C1702 H1716 0.960 . S
C1703 C1700 1.511 . S
C1703 H1717 0.961 . S
C1703 H1718 0.961 . S
C1703 H1719 0.961 . S
C1704 C1705 1.370 . S
C1704 C1706 1.363 . S
C1704 H1720 0.931 . S
C1705 C1704 1.370 . S
C1705 C1709 1.408 . S
C1706 C1704 1.363 . S
C1706 C1707 1.370 . S
C1706 C1710 1.524 . S
C1707 C1699 1.503 . S
C1707 C1706 1.370 . S
C1707 C1708 1.403 . S
C1708 C1707 1.403 . S
C1708 C1709 1.404 . S
C1708 C1711 1.539 . S
C1709 C1705 1.408 . S
C1709 C1708 1.404 . S
C1709 H1721 0.930 . S
C1710 C1706 1.524 . S
C1710 H1722 0.956 . S
C1710 H1723 0.961 . S
C1710 H1724 0.961 . S
C1711 C1708 1.539 . S
C1711 H1725 0.958 . S
C1711 H1726 0.961 . S
C1711 H1727 0.960 . S
H1712 C1696 0.931 . S
H1713 C1701 0.929 . S
H1714 C1702 0.960 . S
H1715 C1702 0.962 . S
H1716 C1702 0.960 . S
H1717 C1703 0.961 . S
H1718 C1703 0.961 . S
H1719 C1703 0.961 . S
H1720 C1704 0.931 . S
H1721 C1709 0.930 . S
H1722 C1710 0.956 . S
H1723 C1710 0.961 . S
H1724 C1710 0.961 . S
H1725 C1711 0.958 . S
H1726 C1711 0.961 . S
H1727 C1711 0.960 . S
C1728 C1729 1.391 . S
C1728 C1730 1.394 . S
C1728 H1744 0.931 . S
C1729 C1728 1.391 . S
C1729 C1733 1.376 . S
C1730 C1728 1.394 . S
C1730 C1731 1.369 . S
C1730 C1734 1.531 . S
C1731 C1730 1.369 . S
C1731 C1732 1.410 . S
C1731 C1739 1.503 . S
C1732 C1731 1.410 . S
C1732 C1733 1.392 . S
C1732 C1735 1.511 . S
C1733 C1729 1.376 . S
C1733 C1732 1.392 . S
C1733 H1745 0.929 . S
C1734 C1730 1.531 . S
C1734 H1746 0.960 . S
C1734 H1747 0.962 . S
C1734 H1748 0.960 . S
C1735 C1732 1.511 . S
C1735 H1749 0.961 . S
C1735 H1750 0.961 . S
C1735 H1751 0.961 . S
C1736 C1737 1.370 . S
C1736 C1738 1.363 . S
C1736 H1752 0.931 . S
C1737 C1736 1.370 . S
C1737 C1741 1.408 . S
C1738 C1736 1.363 . S
C1738 C1739 1.370 1_556 S
C1738 C1742 1.524 1_556 S
C1739 C1731 1.503 . S
C1739 C1738 1.370 1_554 S
C1739 C1740 1.403 1_554 S
C1740 C1739 1.403 1_556 S
C1740 C1741 1.404 . S
C1740 C1743 1.539 . S
C1741 C1737 1.408 . S
C1741 C1740 1.404 . S
C1741 H1753 0.930 . S
C1742 C1738 1.524 1_554 S
C1742 H1754 0.956 . S
C1742 H1755 0.961 . S
C1742 H1756 0.961 . S
C1743 C1740 1.539 . S
C1743 H1757 0.958 . S
C1743 H1758 0.961 . S
C1743 H1759 0.960 1_556 S
H1744 C1728 0.931 . S
H1745 C1733 0.929 . S
H1746 C1734 0.960 . S
H1747 C1734 0.962 . S
H1748 C1734 0.960 . S
H1749 C1735 0.961 . S
H1750 C1735 0.961 . S
H1751 C1735 0.961 . S
H1752 C1736 0.931 . S
H1753 C1741 0.930 . S
H1754 C1742 0.956 . S
H1755 C1742 0.961 . S
H1756 C1742 0.961 . S
H1757 C1743 0.958 . S
H1758 C1743 0.961 . S
H1759 C1743 0.960 1_554 S
C1760 C1761 1.391 . S
C1760 C1762 1.394 . S
C1760 H1776 0.931 . S
C1761 C1760 1.391 . S
C1761 C1765 1.376 . S
C1762 C1760 1.394 . S
C1762 C1763 1.369 . S
C1762 C1766 1.531 . S
C1763 C1762 1.369 . S
C1763 C1764 1.410 . S
C1763 C1771 1.503 . S
C1764 C1763 1.410 . S
C1764 C1765 1.392 . S
C1764 C1767 1.511 . S
C1765 C1761 1.376 . S
C1765 C1764 1.392 . S
C1765 H1777 0.929 . S
C1766 C1762 1.531 . S
C1766 H1778 0.960 . S
C1766 H1779 0.962 . S
C1766 H1780 0.960 . S
C1767 C1764 1.511 . S
C1767 H1781 0.961 . S
C1767 H1782 0.961 . S
C1767 H1783 0.961 . S
C1768 C1769 1.370 . S
C1768 C1770 1.363 . S
C1768 H1784 0.931 . S
C1769 C1768 1.370 . S
C1769 C1773 1.408 . S
C1770 C1768 1.363 . S
C1770 C1771 1.370 . S
C1770 C1774 1.524 . S
C1771 C1763 1.503 . S
C1771 C1770 1.370 . S
C1771 C1772 1.403 . S
C1772 C1771 1.403 . S
C1772 C1773 1.404 . S
C1772 C1775 1.539 . S
C1773 C1769 1.408 . S
C1773 C1772 1.404 . S
C1773 H1785 0.930 . S
C1774 C1770 1.524 . S
C1774 H1786 0.956 . S
C1774 H1787 0.961 . S
C1774 H1788 0.961 . S
C1775 C1772 1.539 . S
C1775 H1789 0.958 . S
C1775 H1790 0.961 . S
C1775 H1791 0.960 . S
H1776 C1760 0.931 . S
H1777 C1765 0.929 . S
H1778 C1766 0.960 . S
H1779 C1766 0.962 . S
H1780 C1766 0.960 . S
H1781 C1767 0.961 . S
H1782 C1767 0.961 . S
H1783 C1767 0.961 . S
H1784 C1768 0.931 . S
H1785 C1773 0.930 . S
H1786 C1774 0.956 . S
H1787 C1774 0.961 . S
H1788 C1774 0.961 . S
H1789 C1775 0.958 . S
H1790 C1775 0.961 . S
H1791 C1775 0.960 . S
C1792 C1793 1.391 . S
C1792 C1794 1.394 . S
C1792 H1808 0.931 . S
C1793 C1792 1.391 . S
C1793 C1797 1.376 . S
C1794 C1792 1.394 . S
C1794 C1795 1.369 1_655 S
C1794 C1798 1.531 1_655 S
C1795 C1794 1.369 1_455 S
C1795 C1796 1.410 1_455 S
C1795 C1803 1.503 . S
C1796 C1795 1.410 1_655 S
C1796 C1797 1.392 . S
C1796 C1799 1.511 1_655 S
C1797 C1793 1.376 . S
C1797 C1796 1.392 . S
C1797 H1809 0.929 . S
C1798 C1794 1.531 1_455 S
C1798 H1810 0.960 . S
C1798 H1811 0.962 . S
C1798 H1812 0.950 1_455 S
C1799 C1796 1.511 1_455 S
C1799 H1813 0.961 1_455 S
C1799 H1814 0.961 . S
C1799 H1815 0.961 . S
C1800 C1801 1.370 . S
C1800 C1802 1.363 . S
C1800 H1816 0.931 . S
C1801 C1800 1.370 . S
C1801 C1805 1.408 . S
C1802 C1800 1.363 . S
C1802 C1803 1.370 . S
C1802 C1806 1.524 . S
C1803 C1795 1.503 . S
C1803 C1802 1.370 . S
C1803 C1804 1.403 . S
C1804 C1803 1.403 . S
C1804 C1805 1.404 . S
C1804 C1807 1.539 . S
C1805 C1801 1.408 . S
C1805 C1804 1.404 . S
C1805 H1817 0.930 . S
C1806 C1802 1.524 . S
C1806 H1818 0.956 . S
C1806 H1819 0.961 . S
C1806 H1820 0.961 . S
C1807 C1804 1.539 . S
C1807 H1821 0.958 . S
C1807 H1822 0.961 . S
C1807 H1823 0.960 . S
H1808 C1792 0.931 . S
H1809 C1797 0.929 . S
H1810 C1798 0.960 . S
H1811 C1798 0.962 . S
H1812 C1798 0.950 1_655 S
H1813 C1799 0.961 1_655 S
H1814 C1799 0.961 . S
H1815 C1799 0.961 . S
H1816 C1800 0.931 . S
H1817 C1805 0.930 . S
H1818 C1806 0.956 . S
H1819 C1806 0.961 . S
H1820 C1806 0.961 . S
H1821 C1807 0.958 . S
H1822 C1807 0.961 . S
H1823 C1807 0.960 . S
C1824 C1825 1.391 . S
C1824 C1826 1.394 . S
C1824 H1840 0.931 . S
C1825 C1824 1.391 . S
C1825 C1829 1.376 . S
C1826 C1824 1.394 . S
C1826 C1827 1.369 1_455 S
C1826 C1830 1.531 1_455 S
C1827 C1826 1.369 1_655 S
C1827 C1828 1.398 1_655 S
C1827 C1835 1.503 . S
C1828 C1827 1.398 1_455 S
C1828 C1829 1.424 . S
C1828 C1831 1.493 1_455 S
C1829 C1825 1.376 . S
C1829 C1828 1.424 . S
C1829 H1841 0.929 . S
C1830 C1826 1.531 1_655 S
C1830 H1842 0.960 . S
C1830 H1843 0.962 . S
C1830 H1844 0.960 1_655 S
C1831 C1828 1.493 1_655 S
C1831 H1845 0.961 . S
C1831 H1846 0.961 . S
C1831 H1847 0.961 . S
C1832 C1833 1.370 . S
C1832 C1834 1.363 . S
C1832 H1848 0.931 . S
C1833 C1832 1.370 . S
C1833 C1837 1.408 . S
C1834 C1832 1.363 . S
C1834 C1835 1.370 . S
C1834 C1838 1.524 . S
C1835 C1827 1.503 . S
C1835 C1834 1.370 . S
C1835 C1836 1.403 . S
C1836 C1835 1.403 . S
C1836 C1837 1.404 . S
C1836 C1839 1.539 . S
C1837 C1833 1.408 . S
C1837 C1836 1.404 . S
C1837 H1849 0.930 . S
C1838 C1834 1.524 . S
C1838 H1850 0.956 . S
C1838 H1851 0.961 . S
C1838 H1852 0.961 . S
C1839 C1836 1.539 . S
C1839 H1853 0.958 . S
C1839 H1854 0.961 . S
C1839 H1855 0.960 . S
H1840 C1824 0.931 . S
H1841 C1829 0.929 . S
H1842 C1830 0.960 . S
H1843 C1830 0.962 . S
H1844 C1830 0.960 1_455 S
H1845 C1831 0.961 . S
H1846 C1831 0.961 . S
H1847 C1831 0.961 . S
H1848 C1832 0.931 . S
H1849 C1837 0.930 . S
H1850 C1838 0.956 . S
H1851 C1838 0.961 . S
H1852 C1838 0.961 . S
H1853 C1839 0.958 . S
H1854 C1839 0.961 . S
H1855 C1839 0.960 . S
C1856 C1857 1.391 . S
C1856 C1858 1.394 . S
C1856 H1872 0.931 . S
C1857 C1856 1.391 . S
C1857 C1861 1.376 . S
C1858 C1856 1.394 . S
C1858 C1859 1.369 . S
C1858 C1862 1.531 . S
C1859 C1858 1.369 . S
C1859 C1860 1.410 . S
C1859 C1867 1.503 . S
C1860 C1859 1.410 . S
C1860 C1861 1.392 . S
C1860 C1863 1.511 . S
C1861 C1857 1.376 . S
C1861 C1860 1.392 . S
C1861 H1873 0.929 . S
C1862 C1858 1.531 . S
C1862 H1874 0.960 . S
C1862 H1875 0.962 . S
C1862 H1876 0.960 . S
C1863 C1860 1.511 . S
C1863 H1877 0.961 . S
C1863 H1878 0.961 . S
C1863 H1879 0.961 . S
C1864 C1865 1.370 . S
C1864 C1866 1.363 . S
C1864 H1880 0.931 . S
C1865 C1864 1.370 . S
C1865 C1869 1.408 . S
C1866 C1864 1.363 . S
C1866 C1867 1.370 . S
C1866 C1870 1.524 . S
C1867 C1859 1.503 . S
C1867 C1866 1.370 . S
C1867 C1868 1.403 . S
C1868 C1867 1.403 . S
C1868 C1869 1.404 . S
C1868 C1871 1.539 . S
C1869 C1865 1.408 . S
C1869 C1868 1.404 . S
C1869 H1881 0.930 . S
C1870 C1866 1.524 . S
C1870 H1882 0.956 . S
C1870 H1883 0.961 . S
C1870 H1884 0.961 . S
C1871 C1868 1.539 . S
C1871 H1885 0.958 . S
C1871 H1886 0.961 . S
C1871 H1887 0.960 . S
H1872 C1856 0.931 . S
H1873 C1861 0.929 . S
H1874 C1862 0.960 . S
H1875 C1862 0.962 . S
H1876 C1862 0.960 . S
H1877 C1863 0.961 . S
H1878 C1863 0.961 . S
H1879 C1863 0.961 . S
H1880 C1864 0.931 . S
H1881 C1869 0.930 . S
H1882 C1870 0.956 . S
H1883 C1870 0.961 . S
H1884 C1870 0.961 . S
H1885 C1871 0.958 . S
H1886 C1871 0.961 . S
H1887 C1871 0.960 . S
C1888 C1889 1.391 . S
C1888 C1890 1.394 . S
C1888 H1904 0.931 . S
C1889 C1888 1.391 . S
C1889 C1893 1.376 . S
C1890 C1888 1.394 . S
C1890 C1891 1.369 . S
C1890 C1894 1.531 . S
C1891 C1890 1.369 . S
C1891 C1892 1.410 . S
C1891 C1899 1.503 . S
C1892 C1891 1.410 . S
C1892 C1893 1.392 . S
C1892 C1895 1.511 . S
C1893 C1889 1.376 . S
C1893 C1892 1.392 . S
C1893 H1905 0.929 . S
C1894 C1890 1.531 . S
C1894 H1906 0.960 . S
C1894 H1907 0.962 . S
C1894 H1908 0.960 . S
C1895 C1892 1.511 . S
C1895 H1909 0.961 . S
C1895 H1910 0.961 . S
C1895 H1911 0.961 . S
C1896 C1897 1.370 . S
C1896 C1898 1.363 . S
C1896 H1912 0.931 . S
C1897 C1896 1.370 . S
C1897 C1901 1.408 . S
C1898 C1896 1.363 . S
C1898 C1899 1.370 . S
C1898 C1902 1.524 . S
C1899 C1891 1.503 . S
C1899 C1898 1.370 . S
C1899 C1900 1.403 . S
C1900 C1899 1.403 . S
C1900 C1901 1.404 . S
C1900 C1903 1.539 . S
C1901 C1897 1.408 . S
C1901 C1900 1.404 . S
C1901 H1913 0.930 . S
C1902 C1898 1.524 . S
C1902 H1914 0.956 . S
C1902 H1915 0.961 . S
C1902 H1916 0.961 . S
C1903 C1900 1.539 . S
C1903 H1917 0.958 . S
C1903 H1918 0.961 . S
C1903 H1919 0.960 . S
H1904 C1888 0.931 . S
H1905 C1893 0.929 . S
H1906 C1894 0.960 . S
H1907 C1894 0.962 . S
H1908 C1894 0.960 . S
H1909 C1895 0.961 . S
H1910 C1895 0.961 . S
H1911 C1895 0.961 . S
H1912 C1896 0.931 . S
H1913 C1901 0.930 . S
H1914 C1902 0.956 . S
H1915 C1902 0.961 . S
H1916 C1902 0.961 . S
H1917 C1903 0.958 . S
H1918 C1903 0.961 . S
H1919 C1903 0.960 . S
C1920 C1921 1.391 . S
C1920 C1922 1.394 . S
C1920 H1936 0.931 . S
C1921 C1920 1.391 . S
C1921 C1925 1.376 . S
C1922 C1920 1.394 . S
C1922 C1923 1.369 1_565 S
C1922 C1926 1.531 1_565 S
C1923 C1922 1.369 1_545 S
C1923 C1924 1.410 . S
C1923 C1931 1.503 . S
C1924 C1923 1.410 . S
C1924 C1925 1.392 1_545 S
C1924 C1927 1.511 . S
C1925 C1921 1.376 . S
C1925 C1924 1.392 1_565 S
C1925 H1937 0.929 . S
C1926 C1922 1.531 1_545 S
C1926 H1938 0.960 . S
C1926 H1939 0.962 . S
C1926 H1940 0.960 1_545 S
C1927 C1924 1.511 . S
C1927 H1941 0.961 . S
C1927 H1942 0.961 . S
C1927 H1943 0.961 . S
C1928 C1929 1.370 . S
C1928 C1930 1.363 . S
C1928 H1944 0.931 . S
C1929 C1928 1.370 . S
C1929 C1933 1.408 . S
C1930 C1928 1.363 . S
C1930 C1931 1.370 . S
C1930 C1934 1.524 . S
C1931 C1923 1.503 . S
C1931 C1930 1.370 . S
C1931 C1932 1.403 . S
C1932 C1931 1.403 . S
C1932 C1933 1.404 . S
C1932 C1935 1.539 . S
C1933 C1929 1.408 . S
C1933 C1932 1.404 . S
C1933 H1945 0.930 . S
C1934 C1930 1.524 . S
C1934 H1946 0.956 . S
C1934 H1947 0.961 . S
C1934 H1948 0.961 . S
C1935 C1932 1.539 . S
C1935 H1949 0.958 . S
C1935 H1950 0.961 . S
C1935 H1951 0.960 . S
H1936 C1920 0.931 . S
H1937 C1925 0.929 . S
H1938 C1926 0.960 . S
H1939 C1926 0.962 . S
H1940 C1926 0.960 1_565 S
H1941 C1927 0.961 . S
H1942 C1927 0.961 . S
H1943 C1927 0.961 . S
H1944 C1928 0.931 . S
H1945 C1933 0.930 . S
H1946 C1934 0.956 . S
H1947 C1934 0.961 . S
H1948 C1934 0.961 . S
H1949 C1935 0.958 . S
H1950 C1935 0.961 . S
H1951 C1935 0.960 . S
C1952 C1953 1.391 . S
C1952 C1954 1.394 . S
C1952 H1968 0.931 . S
C1953 C1952 1.391 . S
C1953 C1957 1.376 . S
C1954 C1952 1.394 . S
C1954 C1955 1.369 1_545 S
C1954 C1958 1.529 1_545 S
C1955 C1954 1.369 1_565 S
C1955 C1956 1.410 . S
C1955 C1963 1.503 . S
C1956 C1955 1.410 . S
C1956 C1957 1.392 1_565 S
C1956 C1959 1.511 . S
C1957 C1953 1.376 . S
C1957 C1956 1.392 1_545 S
C1957 H1969 0.929 . S
C1958 C1954 1.529 1_565 S
C1958 H1970 0.967 . S
C1958 H1971 0.961 . S
C1958 H1972 0.956 1_565 S
C1959 C1956 1.511 . S
C1959 H1973 0.961 . S
C1959 H1974 0.961 . S
C1959 H1975 0.961 . S
C1960 C1961 1.370 . S
C1960 C1962 1.363 . S
C1960 H1976 0.931 . S
C1961 C1960 1.370 . S
C1961 C1965 1.408 . S
C1962 C1960 1.363 . S
C1962 C1963 1.370 . S
C1962 C1966 1.524 . S
C1963 C1955 1.503 . S
C1963 C1962 1.370 . S
C1963 C1964 1.403 . S
C1964 C1963 1.403 . S
C1964 C1965 1.404 . S
C1964 C1967 1.539 . S
C1965 C1961 1.408 . S
C1965 C1964 1.404 . S
C1965 H1977 0.930 . S
C1966 C1962 1.524 . S
C1966 H1978 0.956 . S
C1966 H1979 0.961 . S
C1966 H1980 0.961 . S
C1967 C1964 1.539 . S
C1967 H1981 0.958 . S
C1967 H1982 0.961 . S
C1967 H1983 0.960 . S
H1968 C1952 0.931 . S
H1969 C1957 0.929 . S
H1970 C1958 0.967 . S
H1971 C1958 0.961 . S
H1972 C1958 0.956 1_545 S
H1973 C1959 0.961 . S
H1974 C1959 0.961 . S
H1975 C1959 0.961 . S
H1976 C1960 0.931 . S
H1977 C1965 0.930 . S
H1978 C1966 0.956 . S
H1979 C1966 0.961 . S
H1980 C1966 0.961 . S
H1981 C1967 0.958 . S
H1982 C1967 0.961 . S
H1983 C1967 0.960 . S
C1984 C1985 1.391 . S
C1984 C1986 1.394 . S
C1984 H2000 0.931 . S
C1985 C1984 1.391 . S
C1985 C1989 1.376 . S
C1986 C1984 1.394 . S
C1986 C1987 1.369 . S
C1986 C1990 1.531 . S
C1987 C1986 1.369 . S
C1987 C1988 1.410 . S
C1987 C1995 1.503 . S
C1988 C1987 1.410 . S
C1988 C1989 1.392 . S
C1988 C1991 1.511 . S
C1989 C1985 1.376 . S
C1989 C1988 1.392 . S
C1989 H2001 0.929 . S
C1990 C1986 1.531 . S
C1990 H2002 0.960 . S
C1990 H2003 0.962 . S
C1990 H2004 0.960 . S
C1991 C1988 1.511 . S
C1991 H2005 0.961 . S
C1991 H2006 0.961 . S
C1991 H2007 0.961 . S
C1992 C1993 1.370 . S
C1992 C1994 1.363 . S
C1992 H2008 0.931 . S
C1993 C1992 1.370 . S
C1993 C1997 1.408 . S
C1994 C1992 1.363 . S
C1994 C1995 1.370 . S
C1994 C1998 1.524 . S
C1995 C1987 1.503 . S
C1995 C1994 1.370 . S
C1995 C1996 1.403 . S
C1996 C1995 1.403 . S
C1996 C1997 1.404 . S
C1996 C1999 1.539 . S
C1997 C1993 1.408 . S
C1997 C1996 1.404 . S
C1997 H2009 0.930 . S
C1998 C1994 1.524 . S
C1998 H2010 0.956 . S
C1998 H2011 0.961 . S
C1998 H2012 0.961 . S
C1999 C1996 1.539 . S
C1999 H2013 0.958 . S
C1999 H2014 0.961 . S
C1999 H2015 0.960 . S
H2000 C1984 0.931 . S
H2001 C1989 0.929 . S
H2002 C1990 0.960 . S
H2003 C1990 0.962 . S
H2004 C1990 0.960 . S
H2005 C1991 0.961 . S
H2006 C1991 0.961 . S
H2007 C1991 0.961 . S
H2008 C1992 0.931 . S
H2009 C1997 0.930 . S
H2010 C1998 0.956 . S
H2011 C1998 0.961 . S
H2012 C1998 0.961 . S
H2013 C1999 0.958 . S
H2014 C1999 0.961 . S
H2015 C1999 0.960 . S
C2016 C2017 1.391 . S
C2016 C2018 1.394 . S
C2016 H2032 0.931 . S
C2017 C2016 1.391 . S
C2017 C2021 1.376 . S
C2018 C2016 1.394 . S
C2018 C2019 1.369 . S
C2018 C2022 1.531 . S
C2019 C2018 1.369 . S
C2019 C2020 1.410 . S
C2019 C2027 1.503 . S
C2020 C2019 1.410 . S
C2020 C2021 1.392 . S
C2020 C2023 1.511 . S
C2021 C2017 1.376 . S
C2021 C2020 1.392 . S
C2021 H2033 0.929 . S
C2022 C2018 1.531 . S
C2022 H2034 0.960 . S
C2022 H2035 0.962 . S
C2022 H2036 0.960 . S
C2023 C2020 1.511 . S
C2023 H2037 0.961 . S
C2023 H2038 0.961 . S
C2023 H2039 0.961 . S
C2024 C2025 1.370 . S
C2024 C2026 1.363 . S
C2024 H2040 0.931 . S
C2025 C2024 1.370 . S
C2025 C2029 1.408 . S
C2026 C2024 1.363 . S
C2026 C2027 1.370 . S
C2026 C2030 1.524 . S
C2027 C2019 1.503 . S
C2027 C2026 1.370 . S
C2027 C2028 1.403 . S
C2028 C2027 1.403 . S
C2028 C2029 1.404 . S
C2028 C2031 1.539 . S
C2029 C2025 1.408 . S
C2029 C2028 1.404 . S
C2029 H2041 0.930 . S
C2030 C2026 1.524 . S
C2030 H2042 0.956 . S
C2030 H2043 0.961 . S
C2030 H2044 0.961 . S
C2031 C2028 1.539 . S
C2031 H2045 0.958 . S
C2031 H2046 0.961 . S
C2031 H2047 0.960 . S
H2032 C2016 0.931 . S
H2033 C2021 0.929 . S
H2034 C2022 0.960 . S
H2035 C2022 0.962 . S
H2036 C2022 0.960 . S
H2037 C2023 0.961 . S
H2038 C2023 0.961 . S
H2039 C2023 0.961 . S
H2040 C2024 0.931 . S
H2041 C2029 0.930 . S
H2042 C2030 0.956 . S
H2043 C2030 0.961 . S
H2044 C2030 0.961 . S
H2045 C2031 0.958 . S
H2046 C2031 0.961 . S
H2047 C2031 0.960 . S
C2048 C2049 1.391 . S
C2048 C2050 1.394 1_556 S
C2048 H2064 0.931 . S
C2049 C2048 1.391 . S
C2049 C2053 1.376 . S
C2050 C2048 1.394 1_554 S
C2050 C2051 1.369 . S
C2050 C2054 1.531 . S
C2051 C2050 1.369 . S
C2051 C2052 1.410 1_554 S
C2051 C2059 1.503 . S
C2052 C2051 1.410 1_556 S
C2052 C2053 1.392 . S
C2052 C2055 1.511 1_556 S
C2053 C2049 1.376 . S
C2053 C2052 1.392 . S
C2053 H2065 0.929 . S
C2054 C2050 1.531 . S
C2054 H2066 0.960 . S
C2054 H2067 0.962 . S
C2054 H2068 0.960 . S
C2055 C2052 1.511 1_554 S
C2055 H2069 0.961 1_554 S
C2055 H2070 0.961 . S
C2055 H2071 0.961 . S
C2056 C2057 1.370 . S
C2056 C2058 1.363 . S
C2056 H2072 0.931 . S
C2057 C2056 1.370 . S
C2057 C2061 1.408 . S
C2058 C2056 1.363 . S
C2058 C2059 1.370 . S
C2058 C2062 1.524 . S
C2059 C2051 1.503 . S
C2059 C2058 1.370 . S
C2059 C2060 1.403 . S
C2060 C2059 1.403 . S
C2060 C2061 1.404 . S
C2060 C2063 1.539 . S
C2061 C2057 1.408 . S
C2061 C2060 1.404 . S
C2061 H2073 0.930 . S
C2062 C2058 1.524 . S
C2062 H2074 0.956 . S
C2062 H2075 0.961 . S
C2062 H2076 0.961 . S
C2063 C2060 1.539 . S
C2063 H2077 0.958 . S
C2063 H2078 0.961 . S
C2063 H2079 0.960 . S
H2064 C2048 0.931 . S
H2065 C2053 0.929 . S
H2066 C2054 0.960 . S
H2067 C2054 0.962 . S
H2068 C2054 0.960 . S
H2069 C2055 0.961 1_556 S
H2070 C2055 0.961 . S
H2071 C2055 0.961 . S
H2072 C2056 0.931 . S
H2073 C2061 0.930 . S
H2074 C2062 0.956 . S
H2075 C2062 0.961 . S
H2076 C2062 0.961 . S
H2077 C2063 0.958 . S
H2078 C2063 0.961 . S
H2079 C2063 0.960 . S
C2080 C2081 1.391 . S
C2080 C2082 1.394 . S
C2080 H2096 0.931 . S
C2081 C2080 1.391 . S
C2081 C2085 1.376 . S
C2082 C2080 1.394 . S
C2082 C2083 1.369 . S
C2082 C2086 1.531 . S
C2083 C2082 1.369 . S
C2083 C2084 1.410 . S
C2083 C2091 1.503 . S
C2084 C2083 1.410 . S
C2084 C2085 1.392 . S
C2084 C2087 1.511 . S
C2085 C2081 1.376 . S
C2085 C2084 1.392 . S
C2085 H2097 0.929 . S
C2086 C2082 1.531 . S
C2086 H2098 0.960 . S
C2086 H2099 0.962 . S
C2086 H2100 0.960 . S
C2087 C2084 1.511 . S
C2087 H2101 0.961 . S
C2087 H2102 0.961 . S
C2087 H2103 0.961 . S
C2088 C2089 1.370 . S
C2088 C2090 1.363 . S
C2088 H2104 0.931 . S
C2089 C2088 1.370 . S
C2089 C2093 1.408 . S
C2090 C2088 1.363 . S
C2090 C2091 1.370 . S
C2090 C2094 1.524 . S
C2091 C2083 1.503 . S
C2091 C2090 1.370 . S
C2091 C2092 1.403 . S
C2092 C2091 1.403 . S
C2092 C2093 1.404 . S
C2092 C2095 1.539 . S
C2093 C2089 1.408 . S
C2093 C2092 1.404 . S
C2093 H2105 0.930 . S
C2094 C2090 1.524 . S
C2094 H2106 0.956 . S
C2094 H2107 0.961 . S
C2094 H2108 0.961 . S
C2095 C2092 1.539 . S
C2095 H2109 0.958 . S
C2095 H2110 0.961 . S
C2095 H2111 0.960 . S
H2096 C2080 0.931 . S
H2097 C2085 0.929 . S
H2098 C2086 0.960 . S
H2099 C2086 0.962 . S
H2100 C2086 0.960 . S
H2101 C2087 0.961 . S
H2102 C2087 0.961 . S
H2103 C2087 0.961 . S
H2104 C2088 0.931 . S
H2105 C2093 0.930 . S
H2106 C2094 0.956 . S
H2107 C2094 0.961 . S
H2108 C2094 0.961 . S
H2109 C2095 0.958 . S
H2110 C2095 0.961 . S
H2111 C2095 0.960 . S
C2112 C2113 1.391 . S
C2112 C2114 1.394 1_554 S
C2112 H2128 0.931 . S
C2113 C2112 1.391 . S
C2113 C2117 1.376 . S
C2114 C2112 1.394 1_556 S
C2114 C2115 1.369 . S
C2114 C2118 1.531 . S
C2115 C2114 1.369 . S
C2115 C2116 1.404 1_556 S
C2115 C2123 1.503 . S
C2116 C2115 1.404 1_554 S
C2116 C2117 1.403 . S
C2116 C2119 1.507 1_554 S
C2117 C2113 1.376 . S
C2117 C2116 1.403 . S
C2117 H2129 0.929 . S
C2118 C2114 1.531 . S
C2118 H2130 0.960 . S
C2118 H2131 0.962 . S
C2118 H2132 0.960 . S
C2119 C2116 1.507 1_556 S
C2119 H2133 0.961 1_556 S
C2119 H2134 0.961 . S
C2119 H2135 0.961 . S
C2120 C2121 1.370 . S
C2120 C2122 1.363 . S
C2120 H2136 0.931 . S
C2121 C2120 1.370 . S
C2121 C2125 1.408 . S
C2122 C2120 1.363 . S
C2122 C2123 1.370 . S
C2122 C2126 1.524 . S
C2123 C2115 1.503 . S
C2123 C2122 1.370 . S
C2123 C2124 1.403 . S
C2124 C2123 1.403 . S
C2124 C2125 1.404 . S
C2124 C2127 1.539 . S
C2125 C2121 1.408 . S
C2125 C2124 1.404 . S
C2125 H2137 0.930 . S
C2126 C2122 1.524 . S
C2126 H2138 0.956 . S
C2126 H2139 0.961 . S
C2126 H2140 0.961 . S
C2127 C2124 1.539 . S
C2127 H2141 0.958 . S
C2127 H2142 0.961 . S
C2127 H2143 0.960 . S
H2128 C2112 0.931 . S
H2129 C2117 0.929 . S
H2130 C2118 0.960 . S
H2131 C2118 0.962 . S
H2132 C2118 0.960 . S
H2133 C2119 0.961 1_554 S
H2134 C2119 0.961 . S
H2135 C2119 0.961 . S
H2136 C2120 0.931 . S
H2137 C2125 0.930 . S
H2138 C2126 0.956 . S
H2139 C2126 0.961 . S
H2140 C2126 0.961 . S
H2141 C2127 0.958 . S
H2142 C2127 0.961 . S
H2143 C2127 0.960 . S
C2144 C2145 1.391 . S
C2144 C2146 1.394 . S
C2144 H2160 0.931 . S
C2145 C2144 1.391 . S
C2145 C2149 1.376 . S
C2146 C2144 1.394 . S
C2146 C2147 1.369 . S
C2146 C2150 1.531 . S
C2147 C2146 1.369 . S
C2147 C2148 1.410 . S
C2147 C2155 1.503 . S
C2148 C2147 1.410 . S
C2148 C2149 1.392 . S
C2148 C2151 1.511 . S
C2149 C2145 1.376 . S
C2149 C2148 1.392 . S
C2149 H2161 0.929 . S
C2150 C2146 1.531 . S
C2150 H2162 0.960 . S
C2150 H2163 0.962 . S
C2150 H2164 0.960 . S
C2151 C2148 1.511 . S
C2151 H2165 0.961 . S
C2151 H2166 0.961 . S
C2151 H2167 0.961 . S
C2152 C2153 1.370 . S
C2152 C2154 1.363 . S
C2152 H2168 0.931 . S
C2153 C2152 1.370 . S
C2153 C2157 1.408 . S
C2154 C2152 1.363 . S
C2154 C2155 1.370 . S
C2154 C2158 1.524 . S
C2155 C2147 1.503 . S
C2155 C2154 1.370 . S
C2155 C2156 1.403 . S
C2156 C2155 1.403 . S
C2156 C2157 1.404 . S
C2156 C2159 1.539 . S
C2157 C2153 1.408 . S
C2157 C2156 1.404 . S
C2157 H2169 0.930 . S
C2158 C2154 1.524 . S
C2158 H2170 0.956 . S
C2158 H2171 0.961 . S
C2158 H2172 0.961 . S
C2159 C2156 1.539 . S
C2159 H2173 0.958 . S
C2159 H2174 0.961 . S
C2159 H2175 0.960 . S
H2160 C2144 0.931 . S
H2161 C2149 0.929 . S
H2162 C2150 0.960 . S
H2163 C2150 0.962 . S
H2164 C2150 0.960 . S
H2165 C2151 0.961 . S
H2166 C2151 0.961 . S
H2167 C2151 0.961 . S
H2168 C2152 0.931 . S
H2169 C2157 0.930 . S
H2170 C2158 0.956 . S
H2171 C2158 0.961 . S
H2172 C2158 0.961 . S
H2173 C2159 0.958 . S
H2174 C2159 0.961 . S
H2175 C2159 0.960 . S
C2176 C2177 1.391 . S
C2176 C2178 1.394 . S
C2176 H2192 0.931 . S
C2177 C2176 1.391 . S
C2177 C2181 1.376 . S
C2178 C2176 1.394 . S
C2178 C2179 1.369 . S
C2178 C2182 1.531 . S
C2179 C2178 1.369 . S
C2179 C2180 1.410 . S
C2179 C2187 1.503 . S
C2180 C2179 1.410 . S
C2180 C2181 1.392 . S
C2180 C2183 1.511 . S
C2181 C2177 1.376 . S
C2181 C2180 1.392 . S
C2181 H2193 0.929 . S
C2182 C2178 1.531 . S
C2182 H2194 0.960 . S
C2182 H2195 0.962 . S
C2182 H2196 0.960 . S
C2183 C2180 1.511 . S
C2183 H2197 0.961 . S
C2183 H2198 0.961 . S
C2183 H2199 0.961 . S
C2184 C2185 1.370 . S
C2184 C2186 1.363 . S
C2184 H2200 0.931 . S
C2185 C2184 1.370 . S
C2185 C2189 1.408 . S
C2186 C2184 1.363 . S
C2186 C2187 1.370 1_455 S
C2186 C2190 1.524 1_455 S
C2187 C2179 1.503 . S
C2187 C2186 1.370 1_655 S
C2187 C2188 1.403 1_655 S
C2188 C2187 1.403 1_455 S
C2188 C2189 1.404 . S
C2188 C2191 1.539 1_455 S
C2189 C2185 1.408 . S
C2189 C2188 1.404 . S
C2189 H2201 0.930 . S
C2190 C2186 1.524 1_655 S
C2190 H2202 0.956 . S
C2190 H2203 0.961 . S
C2190 H2204 0.961 1_655 S
C2191 C2188 1.539 1_655 S
C2191 H2205 0.958 . S
C2191 H2206 0.961 . S
C2191 H2207 0.960 . S
H2192 C2176 0.931 . S
H2193 C2181 0.929 . S
H2194 C2182 0.960 . S
H2195 C2182 0.962 . S
H2196 C2182 0.960 . S
H2197 C2183 0.961 . S
H2198 C2183 0.961 . S
H2199 C2183 0.961 . S
H2200 C2184 0.931 . S
H2201 C2189 0.930 . S
H2202 C2190 0.956 . S
H2203 C2190 0.961 . S
H2204 C2190 0.961 1_455 S
H2205 C2191 0.958 . S
H2206 C2191 0.961 . S
H2207 C2191 0.960 . S
C2208 C2209 1.391 . S
C2208 C2210 1.394 . S
C2208 H2224 0.931 . S
C2209 C2208 1.391 . S
C2209 C2213 1.376 . S
C2210 C2208 1.394 . S
C2210 C2211 1.369 . S
C2210 C2214 1.531 . S
C2211 C2210 1.369 . S
C2211 C2212 1.410 . S
C2211 C2219 1.503 . S
C2212 C2211 1.410 . S
C2212 C2213 1.392 . S
C2212 C2215 1.511 . S
C2213 C2209 1.376 . S
C2213 C2212 1.392 . S
C2213 H2225 0.929 . S
C2214 C2210 1.531 . S
C2214 H2226 0.960 . S
C2214 H2227 0.962 . S
C2214 H2228 0.960 . S
C2215 C2212 1.511 . S
C2215 H2229 0.961 . S
C2215 H2230 0.961 . S
C2215 H2231 0.961 . S
C2216 C2217 1.370 . S
C2216 C2218 1.363 . S
C2216 H2232 0.931 . S
C2217 C2216 1.370 . S
C2217 C2221 1.408 . S
C2218 C2216 1.363 . S
C2218 C2219 1.370 1_655 S
C2218 C2222 1.531 . S
C2219 C2211 1.503 . S
C2219 C2218 1.370 1_455 S
C2219 C2220 1.403 . S
C2220 C2219 1.403 . S
C2220 C2221 1.404 1_455 S
C2220 C2223 1.539 . S
C2221 C2217 1.408 . S
C2221 C2220 1.404 1_655 S
C2221 H2233 0.930 . S
C2222 C2218 1.531 . S
C2222 H2234 0.947 1_655 S
C2222 H2235 0.944 1_655 S
C2222 H2236 0.980 . S
C2223 C2220 1.539 . S
C2223 H2237 0.958 . S
C2223 H2238 0.961 . S
C2223 H2239 0.960 . S
H2224 C2208 0.931 . S
H2225 C2213 0.929 . S
H2226 C2214 0.960 . S
H2227 C2214 0.962 . S
H2228 C2214 0.960 . S
H2229 C2215 0.961 . S
H2230 C2215 0.961 . S
H2231 C2215 0.961 . S
H2232 C2216 0.931 . S
H2233 C2221 0.930 . S
H2234 C2222 0.947 1_455 S
H2235 C2222 0.944 1_455 S
H2236 C2222 0.980 . S
H2237 C2223 0.958 . S
H2238 C2223 0.961 . S
H2239 C2223 0.960 . S
C2240 C2241 1.391 . S
C2240 C2242 1.394 . S
C2240 H2256 0.931 . S
C2241 C2240 1.391 . S
C2241 C2245 1.376 . S
C2242 C2240 1.394 . S
C2242 C2243 1.369 . S
C2242 C2246 1.531 . S
C2243 C2242 1.369 . S
C2243 C2244 1.410 . S
C2243 C2251 1.503 . S
C2244 C2243 1.410 . S
C2244 C2245 1.392 . S
C2244 C2247 1.511 . S
C2245 C2241 1.376 . S
C2245 C2244 1.392 . S
C2245 H2257 0.929 . S
C2246 C2242 1.531 . S
C2246 H2258 0.960 . S
C2246 H2259 0.962 . S
C2246 H2260 0.960 . S
C2247 C2244 1.511 . S
C2247 H2261 0.961 . S
C2247 H2262 0.961 . S
C2247 H2263 0.961 . S
C2248 C2249 1.370 . S
C2248 C2250 1.363 . S
C2248 H2264 0.931 . S
C2249 C2248 1.370 . S
C2249 C2253 1.408 . S
C2250 C2248 1.363 . S
C2250 C2251 1.370 . S
C2250 C2254 1.524 . S
C2251 C2243 1.503 . S
C2251 C2250 1.370 . S
C2251 C2252 1.403 . S
C2252 C2251 1.403 . S
C2252 C2253 1.404 . S
C2252 C2255 1.539 . S
C2253 C2249 1.408 . S
C2253 C2252 1.404 . S
C2253 H2265 0.930 . S
C2254 C2250 1.524 . S
C2254 H2266 0.956 . S
C2254 H2267 0.961 . S
C2254 H2268 0.961 . S
C2255 C2252 1.539 . S
C2255 H2269 0.958 . S
C2255 H2270 0.961 . S
C2255 H2271 0.960 . S
H2256 C2240 0.931 . S
H2257 C2245 0.929 . S
H2258 C2246 0.960 . S
H2259 C2246 0.962 . S
H2260 C2246 0.960 . S
H2261 C2247 0.961 . S
H2262 C2247 0.961 . S
H2263 C2247 0.961 . S
H2264 C2248 0.931 . S
H2265 C2253 0.930 . S
H2266 C2254 0.956 . S
H2267 C2254 0.961 . S
H2268 C2254 0.961 . S
H2269 C2255 0.958 . S
H2270 C2255 0.961 . S
H2271 C2255 0.960 . S
C2272 C2273 1.391 . S
C2272 C2274 1.394 . S
C2272 H2288 0.931 . S
C2273 C2272 1.391 . S
C2273 C2277 1.376 . S
C2274 C2272 1.394 . S
C2274 C2275 1.369 . S
C2274 C2278 1.531 . S
C2275 C2274 1.369 . S
C2275 C2276 1.410 . S
C2275 C2283 1.503 . S
C2276 C2275 1.410 . S
C2276 C2277 1.392 . S
C2276 C2279 1.511 . S
C2277 C2273 1.376 . S
C2277 C2276 1.392 . S
C2277 H2289 0.929 . S
C2278 C2274 1.531 . S
C2278 H2290 0.960 . S
C2278 H2291 0.962 . S
C2278 H2292 0.960 . S
C2279 C2276 1.511 . S
C2279 H2293 0.961 . S
C2279 H2294 0.961 . S
C2279 H2295 0.961 . S
C2280 C2281 1.370 . S
C2280 C2282 1.363 . S
C2280 H2296 0.931 . S
C2281 C2280 1.370 . S
C2281 C2285 1.408 . S
C2282 C2280 1.363 . S
C2282 C2283 1.370 . S
C2282 C2286 1.524 . S
C2283 C2275 1.503 . S
C2283 C2282 1.370 . S
C2283 C2284 1.403 . S
C2284 C2283 1.403 . S
C2284 C2285 1.404 . S
C2284 C2287 1.539 . S
C2285 C2281 1.408 . S
C2285 C2284 1.404 . S
C2285 H2297 0.930 . S
C2286 C2282 1.524 . S
C2286 H2298 0.956 . S
C2286 H2299 0.961 . S
C2286 H2300 0.961 . S
C2287 C2284 1.539 . S
C2287 H2301 0.958 . S
C2287 H2302 0.961 . S
C2287 H2303 0.960 . S
H2288 C2272 0.931 . S
H2289 C2277 0.929 . S
H2290 C2278 0.960 . S
H2291 C2278 0.962 . S
H2292 C2278 0.960 . S
H2293 C2279 0.961 . S
H2294 C2279 0.961 . S
H2295 C2279 0.961 . S
H2296 C2280 0.931 . S
H2297 C2285 0.930 . S
H2298 C2286 0.956 . S
H2299 C2286 0.961 . S
H2300 C2286 0.961 . S
H2301 C2287 0.958 . S
H2302 C2287 0.961 . S
H2303 C2287 0.960 . S
C2304 C2305 1.391 . S
C2304 C2306 1.394 . S
C2304 H2320 0.931 . S
C2305 C2304 1.391 . S
C2305 C2309 1.376 . S
C2306 C2304 1.394 . S
C2306 C2307 1.369 . S
C2306 C2310 1.531 . S
C2307 C2306 1.369 . S
C2307 C2308 1.410 . S
C2307 C2315 1.503 . S
C2308 C2307 1.410 . S
C2308 C2309 1.392 . S
C2308 C2311 1.511 . S
C2309 C2305 1.376 . S
C2309 C2308 1.392 . S
C2309 H2321 0.929 . S
C2310 C2306 1.531 . S
C2310 H2322 0.960 . S
C2310 H2323 0.962 . S
C2310 H2324 0.960 . S
C2311 C2308 1.511 . S
C2311 H2325 0.961 . S
C2311 H2326 0.967 . S
C2311 H2327 0.961 . S
C2312 C2313 1.370 . S
C2312 C2314 1.363 . S
C2312 H2328 0.931 . S
C2313 C2312 1.370 . S
C2313 C2317 1.408 . S
C2314 C2312 1.363 . S
C2314 C2315 1.370 1_545 S
C2314 C2318 1.524 1_545 S
C2315 C2307 1.503 . S
C2315 C2314 1.370 1_565 S
C2315 C2316 1.403 1_565 S
C2316 C2315 1.403 1_545 S
C2316 C2317 1.404 . S
C2316 C2319 1.539 1_545 S
C2317 C2313 1.408 . S
C2317 C2316 1.404 . S
C2317 H2329 0.930 . S
C2318 C2314 1.524 1_565 S
C2318 H2330 0.956 . S
C2318 H2331 0.961 . S
C2318 H2332 0.961 1_565 S
C2319 C2316 1.539 1_565 S
C2319 H2333 0.958 . S
C2319 H2334 0.961 1_565 S
C2319 H2335 0.960 . S
H2320 C2304 0.931 . S
H2321 C2309 0.929 . S
H2322 C2310 0.960 . S
H2323 C2310 0.962 . S
H2324 C2310 0.960 . S
H2325 C2311 0.961 . S
H2326 C2311 0.967 . S
H2327 C2311 0.961 . S
H2328 C2312 0.931 . S
H2329 C2317 0.930 . S
H2330 C2318 0.956 . S
H2331 C2318 0.961 . S
H2332 C2318 0.961 1_545 S
H2333 C2319 0.958 . S
H2334 C2319 0.961 1_545 S
H2335 C2319 0.960 . S
C2336 C2337 1.391 . S
C2336 C2338 1.394 . S
C2336 H2352 0.931 . S
C2337 C2336 1.391 . S
C2337 C2341 1.376 . S
C2338 C2336 1.394 . S
C2338 C2339 1.369 1_565 S
C2338 C2342 1.531 . S
C2339 C2338 1.369 1_545 S
C2339 C2340 1.410 1_545 S
C2339 C2347 1.503 . S
C2340 C2339 1.410 1_565 S
C2340 C2341 1.392 . S
C2340 C2343 1.511 1_565 S
C2341 C2337 1.376 . S
C2341 C2340 1.392 . S
C2341 H2353 0.929 . S
C2342 C2338 1.531 . S
C2342 H2354 0.960 1_565 S
C2342 H2355 0.962 . S
C2342 H2356 0.960 . S
C2343 C2340 1.511 1_545 S
C2343 H2357 0.961 . S
C2343 H2358 0.961 . S
C2343 H2359 0.961 . S
C2344 C2345 1.370 . S
C2344 C2346 1.363 . S
C2344 H2360 0.931 . S
C2345 C2344 1.370 . S
C2345 C2349 1.408 . S
C2346 C2344 1.363 . S
C2346 C2347 1.370 . S
C2346 C2350 1.524 . S
C2347 C2339 1.503 . S
C2347 C2346 1.370 . S
C2347 C2348 1.403 . S
C2348 C2347 1.403 . S
C2348 C2349 1.404 . S
C2348 C2351 1.539 . S
C2349 C2345 1.408 . S
C2349 C2348 1.404 . S
C2349 H2361 0.930 . S
C2350 C2346 1.524 . S
C2350 H2362 0.956 . S
C2350 H2363 0.961 . S
C2350 H2364 0.961 . S
C2351 C2348 1.539 . S
C2351 H2365 0.958 . S
C2351 H2366 0.961 . S
C2351 H2367 0.960 . S
H2352 C2336 0.931 . S
H2353 C2341 0.929 . S
H2354 C2342 0.960 1_545 S
H2355 C2342 0.962 . S
H2356 C2342 0.960 . S
H2357 C2343 0.961 . S
H2358 C2343 0.961 . S
H2359 C2343 0.961 . S
H2360 C2344 0.931 . S
H2361 C2349 0.930 . S
H2362 C2350 0.956 . S
H2363 C2350 0.961 . S
H2364 C2350 0.961 . S
H2365 C2351 0.958 . S
H2366 C2351 0.961 . S
H2367 C2351 0.960 . S
C2368 C2369 1.391 . S
C2368 C2370 1.394 . S
C2368 H2384 0.931 . S
C2369 C2368 1.391 . S
C2369 C2373 1.376 . S
C2370 C2368 1.394 . S
C2370 C2371 1.369 . S
C2370 C2374 1.531 . S
C2371 C2370 1.369 . S
C2371 C2372 1.410 . S
C2371 C2379 1.503 . S
C2372 C2371 1.410 . S
C2372 C2373 1.392 . S
C2372 C2375 1.511 . S
C2373 C2369 1.376 . S
C2373 C2372 1.392 . S
C2373 H2385 0.929 . S
C2374 C2370 1.531 . S
C2374 H2386 0.960 . S
C2374 H2387 0.962 . S
C2374 H2388 0.960 . S
C2375 C2372 1.511 . S
C2375 H2389 0.961 . S
C2375 H2390 0.961 . S
C2375 H2391 0.961 . S
C2376 C2377 1.370 . S
C2376 C2378 1.363 . S
C2376 H2392 0.931 . S
C2377 C2376 1.370 . S
C2377 C2381 1.408 . S
C2378 C2376 1.363 . S
C2378 C2379 1.370 . S
C2378 C2382 1.524 . S
C2379 C2371 1.503 . S
C2379 C2378 1.370 . S
C2379 C2380 1.403 . S
C2380 C2379 1.403 . S
C2380 C2381 1.404 . S
C2380 C2383 1.539 . S
C2381 C2377 1.408 . S
C2381 C2380 1.404 . S
C2381 H2393 0.930 . S
C2382 C2378 1.524 . S
C2382 H2394 0.956 . S
C2382 H2395 0.961 . S
C2382 H2396 0.961 . S
C2383 C2380 1.539 . S
C2383 H2397 0.958 . S
C2383 H2398 0.961 . S
C2383 H2399 0.960 . S
H2384 C2368 0.931 . S
H2385 C2373 0.929 . S
H2386 C2374 0.960 . S
H2387 C2374 0.962 . S
H2388 C2374 0.960 . S
H2389 C2375 0.961 . S
H2390 C2375 0.961 . S
H2391 C2375 0.961 . S
H2392 C2376 0.931 . S
H2393 C2381 0.930 . S
H2394 C2382 0.956 . S
H2395 C2382 0.961 . S
H2396 C2382 0.961 . S
H2397 C2383 0.958 . S
H2398 C2383 0.961 . S
H2399 C2383 0.960 . S
C865 C291 1.001 . S
C873 C3 0.994 . S
C897 C39 0.972 . S
C905 C399 0.980 . S
C929 C75 1.012 . S
C937 C327 0.992 . S
C961 C111 0.982 . S
C969 C363 0.981 . S
C993 C147 0.988 . S
C1001 C2 0.992 . S
C1025 C38 0.946 . S
C1033 C183 1.016 . S
C1057 C219 1.031 . S
C1065 C74 0.982 . S
C1089 C110 1.036 . S
C1097 C255 1.022 . S
C1121 C146 1.027 . S
C1129 C290 1.058 . S
C1153 C218 1.024 . S
C1161 C326 1.052 . S
C1185 C362 1.012 . S
C1193 C254 1.054 . S
C1217 C182 1.026 . S
C1225 C398 1.041 . S
C1249 C722 1.032 . S
C1257 C435 1.023 . S
C1281 C471 1.040 . S
C1289 C830 1.006 . S
C1313 C507 1.040 . S
C1321 C758 1.006 . S
C1345 C794 1.011 . S
C1353 C543 1.025 . S
C1377 C579 1.043 . S
C1385 C434 1.037 . S
C1409 C470 1.053 . S
C1417 C615 1.044 . S
C1441 C506 1.033 . S
C1449 C651 1.045 . S
C1473 C687 1.049 . S
C1481 C542 1.012 . S
C1505 C723 1.041 . S
C1513 C578 1.021 . S
C1537 C650 0.958 . S
C1545 C759 1.014 . S
C1569 C686 1.044 . S
C1577 C795 1.028 . S
C1601 C831 1.044 . S
C1609 C614 1.019 . S
C1633 C806 1.356 . S
C1641 C4 1.353 . S
C1665 C770 1.350 . S
C1673 C40 1.355 . S
C1697 C842 1.360 . S
C1705 C76 1.349 . S
C1729 C112 1.366 . S
C1737 C734 1.335 . S
C1761 C148 1.363 . S
C1769 C482 1.343 . S
C1793 C446 1.330 . S
C1801 C184 1.374 . S
C1825 C554 1.374 . S
C1833 C220 1.366 . S
C1857 C518 1.325 . S
C1865 C256 1.366 . S
C1889 C302 1.352 . S
C1897 C662 1.343 . S
C1921 C590 1.356 . S
C1929 C338 1.349 . S
C1953 C626 1.356 . S
C1961 C374 1.348 . S
C1985 C698 1.330 . S
C1993 C410 1.336 . S
C2017 C364 1.417 . S
C2025 C436 1.411 . S
C2049 C328 1.413 . S
C2057 C472 1.412 . S
C2081 C508 1.404 . S
C2089 C400 1.421 . S
C2113 C292 1.402 . S
C2121 C544 1.401 . S
C2145 C580 1.364 . S
C2153 C50 1.358 . S
C2177 C616 1.379 . S
C2185 C14 1.379 . S
C2209 C652 1.362 . S
C2217 C122 1.374 . S
C2241 C688 1.388 . S
C2249 C86 1.378 . S
C2273 C724 1.358 . S
C2281 C230 1.357 . S
C2305 C760 1.359 . S
C2313 C158 1.356 . S
C2337 C194 1.336 . S
C2345 C796 1.374 . S
C2369 C832 1.356 . S
C2377 C266 1.358 . S
