# Generated by pormake.
# Topology zfm, (5)-cn, num edge types: 1
# Building blocks:
#     Node 0, Type 0, BuildingBlock: BEQFEK_clean_sbu_0, # of connection points: 5
#     Node 1, Type 0, BuildingBlock: BEQFEK_clean_sbu_0, # of connection points: 5
#     Node 2, Type 0, BuildingBlock: BEQFEK_clean_sbu_0, # of connection points: 5
#     Node 3, Type 0, BuildingBlock: BEQFEK_clean_sbu_0, # of connection points: 5
#     Node 4, Type 0, BuildingBlock: BEQFEK_clean_sbu_0, # of connection points: 5
#     Node 5, Type 0, BuildingBlock: BEQFEK_clean_sbu_0, # of connection points: 5
#     Node 6, Type 0, BuildingBlock: BEQFEK_clean_sbu_0, # of connection points: 5
#     Node 7, Type 0, BuildingBlock: BEQFEK_clean_sbu_0, # of connection points: 5
#     Node 8, Type 0, BuildingBlock: BEQFEK_clean_sbu_0, # of connection points: 5
#     Node 9, Type 0, BuildingBlock: BEQFEK_clean_sbu_0, # of connection points: 5
#     Node 10, Type 0, BuildingBlock: BEQFEK_clean_sbu_0, # of connection points: 5
#     Node 11, Type 0, BuildingBlock: BEQFEK_clean_sbu_0, # of connection points: 5
#     Node 12, Type 0, BuildingBlock: BEQFEK_clean_sbu_0, # of connection points: 5
#     Node 13, Type 0, BuildingBlock: BEQFEK_clean_sbu_0, # of connection points: 5
#     Node 14, Type 0, BuildingBlock: BEQFEK_clean_sbu_0, # of connection points: 5
#     Node 15, Type 0, BuildingBlock: BEQFEK_clean_sbu_0, # of connection points: 5
#     Edge 16, Type (0, 0), BuildingBlock: XIVTED_clean_linker_0, # of connection points: 2
#     Edge 17, Type (0, 0), BuildingBlock: XIVTED_clean_linker_0, # of connection points: 2
#     Edge 18, Type (0, 0), BuildingBlock: XIVTED_clean_linker_0, # of connection points: 2
#     Edge 19, Type (0, 0), BuildingBlock: XIVTED_clean_linker_0, # of connection points: 2
#     Edge 20, Type (0, 0), BuildingBlock: XIVTED_clean_linker_0, # of connection points: 2
#     Edge 21, Type (0, 0), BuildingBlock: XIVTED_clean_linker_0, # of connection points: 2
#     Edge 22, Type (0, 0), BuildingBlock: XIVTED_clean_linker_0, # of connection points: 2
#     Edge 23, Type (0, 0), BuildingBlock: XIVTED_clean_linker_0, # of connection points: 2
#     Edge 24, Type (0, 0), BuildingBlock: XIVTED_clean_linker_0, # of connection points: 2
#     Edge 25, Type (0, 0), BuildingBlock: XIVTED_clean_linker_0, # of connection points: 2
#     Edge 26, Type (0, 0), BuildingBlock: XIVTED_clean_linker_0, # of connection points: 2
#     Edge 27, Type (0, 0), BuildingBlock: XIVTED_clean_linker_0, # of connection points: 2
#     Edge 28, Type (0, 0), BuildingBlock: XIVTED_clean_linker_0, # of connection points: 2
#     Edge 29, Type (0, 0), BuildingBlock: XIVTED_clean_linker_0, # of connection points: 2
#     Edge 30, Type (0, 0), BuildingBlock: XIVTED_clean_linker_0, # of connection points: 2
#     Edge 31, Type (0, 0), BuildingBlock: XIVTED_clean_linker_0, # of connection points: 2
#     Edge 32, Type (0, 0), BuildingBlock: XIVTED_clean_linker_0, # of connection points: 2
#     Edge 33, Type (0, 0), BuildingBlock: XIVTED_clean_linker_0, # of connection points: 2
#     Edge 34, Type (0, 0), BuildingBlock: XIVTED_clean_linker_0, # of connection points: 2
#     Edge 35, Type (0, 0), BuildingBlock: XIVTED_clean_linker_0, # of connection points: 2
#     Edge 36, Type (0, 0), BuildingBlock: XIVTED_clean_linker_0, # of connection points: 2
#     Edge 37, Type (0, 0), BuildingBlock: XIVTED_clean_linker_0, # of connection points: 2
#     Edge 38, Type (0, 0), BuildingBlock: XIVTED_clean_linker_0, # of connection points: 2
#     Edge 39, Type (0, 0), BuildingBlock: XIVTED_clean_linker_0, # of connection points: 2
#     Edge 40, Type (0, 0), BuildingBlock: XIVTED_clean_linker_0, # of connection points: 2
#     Edge 41, Type (0, 0), BuildingBlock: XIVTED_clean_linker_0, # of connection points: 2
#     Edge 42, Type (0, 0), BuildingBlock: XIVTED_clean_linker_0, # of connection points: 2
#     Edge 43, Type (0, 0), BuildingBlock: XIVTED_clean_linker_0, # of connection points: 2
#     Edge 44, Type (0, 0), BuildingBlock: XIVTED_clean_linker_0, # of connection points: 2
#     Edge 45, Type (0, 0), BuildingBlock: XIVTED_clean_linker_0, # of connection points: 2
#     Edge 46, Type (0, 0), BuildingBlock: XIVTED_clean_linker_0, # of connection points: 2
#     Edge 47, Type (0, 0), BuildingBlock: XIVTED_clean_linker_0, # of connection points: 2
#     Edge 48, Type (0, 0), BuildingBlock: XIVTED_clean_linker_0, # of connection points: 2
#     Edge 49, Type (0, 0), BuildingBlock: XIVTED_clean_linker_0, # of connection points: 2
#     Edge 50, Type (0, 0), BuildingBlock: XIVTED_clean_linker_0, # of connection points: 2
#     Edge 51, Type (0, 0), BuildingBlock: XIVTED_clean_linker_0, # of connection points: 2
#     Edge 52, Type (0, 0), BuildingBlock: XIVTED_clean_linker_0, # of connection points: 2
#     Edge 53, Type (0, 0), BuildingBlock: XIVTED_clean_linker_0, # of connection points: 2
#     Edge 54, Type (0, 0), BuildingBlock: XIVTED_clean_linker_0, # of connection points: 2
#     Edge 55, Type (0, 0), BuildingBlock: XIVTED_clean_linker_0, # of connection points: 2
# Relax obj value: 0.135
# Max RMSD: 0.194
# Mean RMSD: 0.194
data_MOF--net-zfm--node1-BEQFEK_clean_sbu_0--edge1-XIVTED_clean_linker_0
_symmetry_space_group_name_H-M    P1
_symmetry_Int_Tables_number       1
_symmetry_cell_setting            triclinic
loop_
_symmetry_equiv_pos_as_xyz
'x, y, z'
_cell_length_a     28.549582
_cell_length_b     28.534317
_cell_length_c     77.121099
_cell_angle_alpha  89.971846
_cell_angle_beta   89.978698
_cell_angle_gamma 90.042633
loop_
_atom_site_label
_atom_site_type_symbol
_atom_site_fract_x
_atom_site_fract_y
_atom_site_fract_z
_atom_type_partial_charge
Co0 Co 0.45175 0.07711 0.15259 0.0
Co1 Co 0.44772 0.08009 0.11174 0.0
C2 C 0.40484 0.00137 0.13218 0.0
O3 O 0.41836 0.0193 0.14641 0.0
O4 O 0.41457 0.02066 0.11771 0.0
C5 C 0.46801 0.03735 0.1861 0.0
O6 O 0.47249 0.99841 0.17718 0.0
C7 C 0.46857 0.05136 0.07574 0.0
C8 C 0.44751 0.11465 0.06119 0.0
C9 C 0.4652 0.06981 0.05907 0.0
N10 N 0.45389 0.08402 0.08709 0.0
N11 N 0.44146 0.12176 0.07828 0.0
C12 C 0.48274 0.00274 0.08081 0.0
H13 H 0.47063 0.99435 0.09409 0.0
H14 H 0.52147 2e-05 0.08064 0.0
H15 H 0.4684 0.97685 0.07147 0.0
C16 C 0.55373 0.08602 0.14508 0.0
N17 N 0.50865 0.08328 0.13999 0.0
N18 N 0.50663 0.08676 0.12299 0.0
C19 C 0.55015 0.09385 0.11678 0.0
C20 C 0.58173 0.09298 0.13051 0.0
C21 C 0.5693 0.07789 0.16337 0.0
H22 H 0.55854 0.1081 0.1715 0.0
H23 H 0.55181 0.04617 0.16852 0.0
H24 H 0.60762 0.07271 0.16442 0.0
O25 O 0.40772 0.12954 0.14759 0.0
O26 O 0.40551 0.13082 0.11882 0.0
H27 H 0.5334 0.12763 0.09271 0.0
H28 H 0.59527 0.12244 0.09685 0.0
C29 C 0.5609 0.10461 0.09819 0.0
H30 H 0.5617 0.07156 0.09066 0.0
H31 H 0.42835 0.15226 0.08395 0.0
O32 O 0.46128 0.07576 0.17811 0.0
C33 C 0.39196 0.14636 0.13344 0.0
Co34 Co 0.41523 0.45523 0.65243 0.0
Co35 Co 0.41876 0.45557 0.61163 0.0
C36 C 0.49401 0.41022 0.63192 0.0
O37 O 0.47343 0.42176 0.64595 0.0
O38 O 0.47763 0.42219 0.61722 0.0
C39 C 0.45227 0.47912 0.68578 0.0
O40 O 0.48836 0.49373 0.67668 0.0
C41 C 0.44793 0.46812 0.57512 0.0
C42 C 0.37965 0.47911 0.56228 0.0
C43 C 0.42735 0.47663 0.55906 0.0
N44 N 0.41386 0.46553 0.58715 0.0
N45 N 0.37316 0.47194 0.57936 0.0
C46 C 0.49908 0.46665 0.57934 0.0
H47 H 0.50515 0.47903 0.59279 0.0
H48 H 0.51948 0.48876 0.57022 0.0
H49 H 0.51163 0.42995 0.57836 0.0
C50 C 0.4026 0.55683 0.64652 0.0
N51 N 0.40895 0.51288 0.64068 0.0
N52 N 0.4136 0.51368 0.62372 0.0
C53 C 0.41236 0.5586 0.61828 0.0
C54 C 0.40499 0.58762 0.63255 0.0
C55 C 0.39202 0.56854 0.66503 0.0
H56 H 0.37121 0.54003 0.67105 0.0
H57 H 0.42534 0.57215 0.6723 0.0
H58 H 0.37227 0.60192 0.66601 0.0
O59 O 0.3634 0.41306 0.6468 0.0
O60 O 0.36716 0.4114 0.61805 0.0
H61 H 0.39052 0.56939 0.59207 0.0
H62 H 0.43486 0.61015 0.59934 0.0
C63 C 0.42265 0.57332 0.60003 0.0
H64 H 0.45028 0.55065 0.59449 0.0
H65 H 0.34095 0.47191 0.58575 0.0
O66 O 0.41662 0.46288 0.67794 0.0
C67 C 0.34916 0.39746 0.63229 0.0
Co68 Co 0.04318 0.41482 0.15104 0.0
Co69 Co 0.05004 0.41183 0.11027 0.0
C70 C 0.0928 0.48984 0.13131 0.0
O71 O 0.07794 0.47229 0.14544 0.0
O72 O 0.08384 0.47056 0.11678 0.0
C73 C 0.03455 0.44987 0.1858 0.0
O74 O 0.04334 0.49041 0.1784 0.0
C75 C 0.0303 0.44269 0.07449 0.0
C76 C 0.05221 0.38062 0.05942 0.0
C77 C 0.03416 0.42545 0.05768 0.0
N78 N 0.04502 0.40936 0.08557 0.0
N79 N 0.05799 0.37236 0.07646 0.0
C80 C 0.01561 0.4908 0.07999 0.0
H81 H 0.02758 0.4984 0.09335 0.0
H82 H 0.97685 0.49315 0.07984 0.0
H83 H 0.02972 0.51748 0.07089 0.0
C84 C 0.94188 0.40913 0.14266 0.0
N85 N 0.98728 0.41027 0.13793 0.0
N86 N 0.99027 0.40611 0.12098 0.0
C87 C 0.94695 0.39982 0.11445 0.0
C88 C 0.91457 0.40216 0.12792 0.0
C89 C 0.92533 0.41876 0.16073 0.0
H90 H 0.92631 0.38577 0.16834 0.0
H91 H 0.94878 0.44454 0.16704 0.0
H92 H 0.88915 0.43286 0.16084 0.0
O93 O 0.0866 0.36195 0.14619 0.0
O94 O 0.091 0.36009 0.11745 0.0
H95 H 0.96516 0.36533 0.09066 0.0
H96 H 0.90303 0.36983 0.09449 0.0
C97 C 0.93712 0.38816 0.09588 0.0
H98 H 0.93609 0.42088 0.08814 0.0
H99 H 0.07119 0.34157 0.08188 0.0
O100 O 0.03106 0.41337 0.17642 0.0
C101 C 0.10319 0.34462 0.13226 0.0
Co102 Co 0.08424 0.04689 0.65201 0.0
Co103 Co 0.08554 0.05161 0.61111 0.0
C104 C 0.00819 0.09486 0.63214 0.0
O105 O 0.02651 0.08094 0.64626 0.0
O106 O 0.02682 0.08521 0.61756 0.0
C107 C 0.04552 0.02946 0.68565 0.0
O108 O 0.00639 0.02572 0.67679 0.0
C109 C 0.05472 0.03145 0.57529 0.0
C110 C 0.11751 0.05197 0.56033 0.0
C111 C 0.0724 0.03472 0.55851 0.0
N112 N 0.08809 0.04575 0.58642 0.0
N113 N 0.1255 0.05789 0.57738 0.0
C114 C 0.00623 0.0177 0.58068 0.0
H115 H 0.99856 0.03 0.59399 0.0
H116 H 0.00313 0.97897 0.58059 0.0
H117 H 0.98007 0.03218 0.57148 0.0
C118 C 0.09125 0.94483 0.64417 0.0
N119 N 0.08917 0.99012 0.63922 0.0
N120 N 0.09208 0.99247 0.62221 0.0
C121 C 0.09819 0.94897 0.61584 0.0
C122 C 0.09716 0.91705 0.62947 0.0
C123 C 0.08325 0.92894 0.66243 0.0
H124 H 0.05122 0.94587 0.66754 0.0
H125 H 0.07865 0.89053 0.66346 0.0
H126 H 0.11318 0.9402 0.67061 0.0
O127 O 0.13683 0.09073 0.64665 0.0
O128 O 0.13706 0.0932 0.61786 0.0
H129 H 0.12526 0.90386 0.59565 0.0
H130 H 0.07471 0.93826 0.58982 0.0
C131 C 0.10804 0.93847 0.59717 0.0
H132 H 0.13125 0.96577 0.59163 0.0
H133 H 0.15641 0.07064 0.58284 0.0
O134 O 0.08377 0.03656 0.67758 0.0
C135 C 0.15326 0.10648 0.63241 0.0
Co136 Co 0.4458 0.42149 0.84898 0.0
Co137 Co 0.45298 0.41909 0.88969 0.0
C138 C 0.40375 0.49688 0.87153 0.0
O139 O 0.41305 0.47933 0.85674 0.0
O140 O 0.41815 0.47763 0.88544 0.0
C141 C 0.46521 0.46075 0.81557 0.0
O142 O 0.48107 0.4962 0.82471 0.0
C143 C 0.47008 0.44722 0.92587 0.0
C144 C 0.48273 0.37888 0.93854 0.0
C145 C 0.48037 0.42659 0.94173 0.0
N146 N 0.46704 0.41324 0.91384 0.0
N147 N 0.47468 0.37251 0.9215 0.0
C148 C 0.45933 0.49761 0.92224 0.0
H149 H 0.42179 0.5006 0.91883 0.0
H150 H 0.48008 0.50971 0.91092 0.0
H151 H 0.466 0.52061 0.93352 0.0
C152 C 0.5486 0.40839 0.85252 0.0
N153 N 0.50552 0.41414 0.85931 0.0
N154 N 0.50883 0.41622 0.8763 0.0
C155 C 0.55436 0.41411 0.88084 0.0
C156 C 0.58127 0.40849 0.86592 0.0
C157 C 0.55775 0.4002 0.83365 0.0
H158 H 0.52834 0.38036 0.8278 0.0
H159 H 0.56071 0.43445 0.82693 0.0
H160 H 0.59077 0.38039 0.83171 0.0
O161 O 0.40484 0.36865 0.85503 0.0
O162 O 0.40912 0.36712 0.88379 0.0
H163 H 0.56845 0.38931 0.90648 0.0
H164 H 0.60859 0.43413 0.89911 0.0
C165 C 0.57163 0.42226 0.89893 0.0
H166 H 0.55005 0.44952 0.90527 0.0
H167 H 0.47411 0.34031 0.91509 0.0
O168 O 0.4497 0.42467 0.82336 0.0
C169 C 0.39259 0.35143 0.86957 0.0
Co170 Co 0.07281 0.44904 0.34982 0.0
Co171 Co 0.07508 0.45282 0.39056 0.0
C172 C 0.99613 0.40708 0.37193 0.0
O173 O 0.01433 0.41711 0.35731 0.0
O174 O 0.0153 0.42004 0.38605 0.0
C175 C 0.0568 0.42235 0.31511 0.0
O176 O 0.04914 0.3817 0.32261 0.0
C177 C 0.05001 0.46492 0.42737 0.0
C178 C 0.11825 0.48394 0.43894 0.0
C179 C 0.07141 0.47716 0.44289 0.0
N180 N 0.08261 0.46515 0.41479 0.0
N181 N 0.12334 0.4764 0.4218 0.0
C182 C 0.00051 0.44944 0.4246 0.0
H183 H 0.00091 0.41345 0.41925 0.0
H184 H 0.9835 0.47268 0.41493 0.0
H185 H 0.97984 0.44888 0.43674 0.0
C186 C 0.08777 0.55077 0.35439 0.0
N187 N 0.08163 0.50739 0.36085 0.0
N188 N 0.07936 0.50964 0.37784 0.0
C189 C 0.08184 0.55491 0.38275 0.0
C190 C 0.08785 0.58269 0.36804 0.0
C191 C 0.09543 0.56065 0.33553 0.0
H192 H 0.1171 0.53253 0.3297 0.0
H193 H 0.0611 0.56106 0.32879 0.0
H194 H 0.11322 0.59482 0.33356 0.0
O195 O 0.1245 0.40595 0.35511 0.0
O196 O 0.12536 0.40787 0.38392 0.0
H197 H 0.10663 0.56964 0.40832 0.0
H198 H 0.05993 0.60772 0.40122 0.0
C199 C 0.07335 0.57128 0.40093 0.0
H200 H 0.04729 0.54831 0.40734 0.0
H201 H 0.15459 0.47914 0.41486 0.0
O202 O 0.06835 0.45722 0.32441 0.0
C203 C 0.14083 0.39192 0.36957 0.0
Co204 Co 0.05207 0.08001 0.84932 0.0
Co205 Co 0.0449 0.08092 0.89016 0.0
C206 C 0.09268 0.00303 0.87158 0.0
O207 O 0.08372 0.02142 0.85689 0.0
O208 O 0.0786 0.02188 0.88561 0.0
C209 C 0.03222 0.04261 0.81555 0.0
O210 O 0.01461 0.00748 0.82445 0.0
C211 C 0.02807 0.05238 0.92643 0.0
C212 C 0.01624 0.12071 0.93918 0.0
C213 C 0.01837 0.07299 0.94235 0.0
N214 N 0.03104 0.0864 0.91439 0.0
N215 N 0.02386 0.12713 0.92211 0.0
C216 C 0.03852 0.00197 0.92276 0.0
H217 H 0.07597 0.99885 0.9192 0.0
H218 H 0.01744 0.99 0.91151 0.0
H219 H 0.03203 0.97897 0.93406 0.0
C220 C 0.94937 0.09426 0.85305 0.0
N221 N 0.99245 0.08792 0.85976 0.0
N222 N 0.98919 0.08523 0.87675 0.0
C223 C 0.94371 0.08755 0.88135 0.0
C224 C 0.91676 0.09394 0.86648 0.0
C225 C 0.94016 0.10297 0.83421 0.0
H226 H 0.96983 0.12247 0.82836 0.0
H227 H 0.9366 0.06892 0.82741 0.0
H228 H 0.90741 0.12332 0.83238 0.0
O229 O 0.09402 0.13177 0.85569 0.0
O230 O 0.08975 0.13224 0.88445 0.0
H231 H 0.92966 0.11133 0.90711 0.0
H232 H 0.88953 0.06678 0.89954 0.0
C233 C 0.92649 0.07867 0.8994 0.0
H234 H 0.9481 0.05117 0.9056 0.0
H235 H 0.02455 0.15937 0.91572 0.0
O236 O 0.0487 0.07782 0.8236 0.0
C237 C 0.1066 0.14815 0.87031 0.0
Co238 Co 0.40306 0.04611 0.34874 0.0
Co239 Co 0.40866 0.04324 0.38945 0.0
C240 C 0.48229 0.09093 0.36913 0.0
O241 O 0.46101 0.07994 0.3552 0.0
O242 O 0.46688 0.07797 0.38387 0.0
C243 C 0.44061 0.02384 0.31556 0.0
O244 O 0.4756 0.00795 0.32493 0.0
C245 C 0.43939 0.02935 0.42563 0.0
C246 C 0.37187 0.01598 0.43876 0.0
C247 C 0.41961 0.01959 0.44172 0.0
N248 N 0.40482 0.03162 0.41381 0.0
N249 N 0.36458 0.02376 0.42177 0.0
C250 C 0.49032 0.03236 0.42115 0.0
H251 H 0.49622 0.02031 0.40765 0.0
H252 H 0.51167 0.01076 0.43012 0.0
H253 H 0.50188 0.06941 0.42211 0.0
C254 C 0.39223 0.94382 0.35383 0.0
N255 N 0.39825 0.98754 0.35998 0.0
N256 N 0.40381 0.98581 0.37689 0.0
C257 C 0.40346 0.94057 0.38198 0.0
C258 C 0.39573 0.91227 0.36753 0.0
C259 C 0.38087 0.93296 0.33532 0.0
H260 H 0.35996 0.96179 0.32958 0.0
H261 H 0.41387 0.92952 0.32784 0.0
H262 H 0.36096 0.89966 0.33427 0.0
O263 O 0.35077 0.08705 0.3551 0.0
O264 O 0.35607 0.0868 0.38382 0.0
H265 H 0.38303 0.92772 0.40822 0.0
H266 H 0.42776 0.88833 0.40032 0.0
C267 C 0.41486 0.92495 0.40003 0.0
H268 H 0.44232 0.94782 0.40558 0.0
H269 H 0.33214 0.02328 0.41554 0.0
O270 O 0.40465 0.04026 0.32315 0.0
C271 C 0.33705 0.10137 0.36987 0.0
Co272 Co 0.54413 0.92226 0.8494 0.0
Co273 Co 0.54998 0.91684 0.8901 0.0
C274 C 0.59299 0.99618 0.86987 0.0
O275 O 0.57818 0.97957 0.85559 0.0
O276 O 0.58392 0.97598 0.88422 0.0
C277 C 0.56882 0.93178 0.81475 0.0
O278 O 0.60996 0.93464 0.82231 0.0
C279 C 0.52958 0.94507 0.92611 0.0
C280 C 0.55212 0.88232 0.94067 0.0
C281 C 0.53365 0.92686 0.94278 0.0
N282 N 0.54462 0.91257 0.91476 0.0
N283 N 0.55793 0.87515 0.92356 0.0
C284 C 0.51443 0.99334 0.92098 0.0
H285 H 0.52626 0.00178 0.90766 0.0
H286 H 0.47565 0.9953 0.92119 0.0
H287 H 0.52837 0.01963 0.93025 0.0
C288 C 0.4428 0.91412 0.85731 0.0
N289 N 0.48796 0.91636 0.86226 0.0
N290 N 0.49051 0.91147 0.87919 0.0
C291 C 0.44717 0.90368 0.88548 0.0
C292 C 0.41522 0.90565 0.87187 0.0
C293 C 0.42663 0.92357 0.83917 0.0
H294 H 0.4502 0.94926 0.83282 0.0
H295 H 0.39042 0.93759 0.83899 0.0
H296 H 0.42765 0.89046 0.83164 0.0
O297 O 0.58762 0.86901 0.85374 0.0
O298 O 0.59107 0.86572 0.88249 0.0
H299 H 0.40347 0.87136 0.90505 0.0
H300 H 0.43526 0.92273 0.91193 0.0
C301 C 0.43715 0.89056 0.90392 0.0
H302 H 0.46556 0.86802 0.90902 0.0
H303 H 0.57148 0.84485 0.91789 0.0
O304 O 0.53271 0.92531 0.82409 0.0
C305 C 0.60374 0.851 0.86764 0.0
Co306 Co 0.58227 0.54563 0.34779 0.0
Co307 Co 0.5784 0.54454 0.38857 0.0
C308 C 0.50357 0.59074 0.36832 0.0
O309 O 0.52425 0.57934 0.3543 0.0
O310 O 0.51974 0.57846 0.38303 0.0
C311 C 0.54505 0.5237 0.31429 0.0
O312 O 0.50839 0.51002 0.32327 0.0
C313 C 0.54925 0.53163 0.42508 0.0
C314 C 0.61751 0.51974 0.43784 0.0
C315 C 0.56986 0.52267 0.4411 0.0
N316 N 0.58327 0.53406 0.41303 0.0
N317 N 0.62395 0.5271 0.42077 0.0
C318 C 0.49811 0.53373 0.4209 0.0
H319 H 0.49183 0.52168 0.40743 0.0
H320 H 0.47752 0.51166 0.42999 0.0
H321 H 0.48595 0.57054 0.42199 0.0
C322 C 0.59351 0.44375 0.35341 0.0
N323 N 0.58787 0.48768 0.35937 0.0
N324 N 0.58318 0.48661 0.37633 0.0
C325 C 0.58378 0.44157 0.38165 0.0
C326 C 0.59069 0.41272 0.3673 0.0
C327 C 0.60359 0.43222 0.33485 0.0
H328 H 0.625 0.46039 0.32888 0.0
H329 H 0.57011 0.4296 0.32762 0.0
H330 H 0.62255 0.39841 0.33373 0.0
O331 O 0.63441 0.58727 0.35358 0.0
O332 O 0.63035 0.58842 0.38233 0.0
H333 H 0.60537 0.43012 0.40785 0.0
H334 H 0.56066 0.38992 0.40046 0.0
C335 C 0.57324 0.42664 0.39986 0.0
H336 H 0.54582 0.44951 0.40543 0.0
H337 H 0.65612 0.5269 0.41434 0.0
O338 O 0.58109 0.53857 0.32225 0.0
C339 C 0.64863 0.60248 0.36815 0.0
Co340 Co 0.95229 0.58283 0.84906 0.0
Co341 Co 0.94682 0.58578 0.88985 0.0
C342 C 0.90432 0.50725 0.86912 0.0
O343 O 0.9185 0.52499 0.85493 0.0
O344 O 0.9136 0.5266 0.88361 0.0
C345 C 0.96939 0.5443 0.81538 0.0
O346 O 0.97213 0.50468 0.824 0.0
C347 C 0.96734 0.55597 0.9257 0.0
C348 C 0.94527 0.61832 0.94058 0.0
C349 C 0.96359 0.57364 0.94246 0.0
N350 N 0.9523 0.58892 0.91453 0.0
N351 N 0.93924 0.62609 0.92352 0.0
C352 C 0.98219 0.50778 0.92036 0.0
H353 H 0.97012 0.49977 0.90705 0.0
H354 H 0.02096 0.50562 0.92047 0.0
H355 H 0.96829 0.48129 0.92957 0.0
C356 C 0.05393 0.59145 0.857 0.0
N357 N 0.0087 0.58873 0.86191 0.0
N358 N 0.00613 0.5924 0.87889 0.0
C359 C 0.04945 0.59969 0.88527 0.0
C360 C 0.08145 0.59872 0.87167 0.0
C361 C 0.07011 0.583 0.8388 0.0
H362 H 0.06081 0.61366 0.83065 0.0
H363 H 0.05189 0.55191 0.8335 0.0
H364 H 0.1083 0.57659 0.83802 0.0
O365 O 0.90822 0.63527 0.85392 0.0
O366 O 0.90508 0.63681 0.88269 0.0
H367 H 0.03159 0.63352 0.90922 0.0
H368 H 0.09364 0.62928 0.90524 0.0
C369 C 0.05959 0.6109 0.90386 0.0
H370 H 0.06079 0.57797 0.91147 0.0
H371 H 0.92578 0.65665 0.91801 0.0
O372 O 0.96311 0.58236 0.82363 0.0
C373 C 0.89205 0.65226 0.86799 0.0
Co374 Co 0.91362 0.95348 0.3497 0.0
Co375 Co 0.91143 0.94857 0.39059 0.0
C376 C 0.98942 0.90578 0.3697 0.0
O377 O 0.97151 0.91982 0.35553 0.0
O378 O 0.97032 0.91519 0.38422 0.0
C379 C 0.95195 0.96957 0.31583 0.0
O380 O 0.99149 0.97256 0.32447 0.0
C381 C 0.94195 0.96926 0.42637 0.0
C382 C 0.87961 0.94765 0.44137 0.0
C383 C 0.92444 0.96564 0.44317 0.0
N384 N 0.90877 0.95442 0.41526 0.0
N385 N 0.87161 0.94164 0.42433 0.0
C386 C 0.99014 0.98386 0.42093 0.0
H387 H 0.99789 0.97174 0.4076 0.0
H388 H 0.99256 0.02264 0.42103 0.0
H389 H 0.01665 0.9698 0.43008 0.0
C390 C 0.90561 0.0555 0.3576 0.0
N391 N 0.90813 0.0102 0.3625 0.0
N392 N 0.90468 0.00768 0.37949 0.0
C393 C 0.89765 0.05101 0.38588 0.0
C394 C 0.8987 0.08307 0.37229 0.0
C395 C 0.91373 0.07176 0.33939 0.0
H396 H 0.94352 0.05227 0.33373 0.0
H397 H 0.92187 0.10968 0.33872 0.0
H398 H 0.88213 0.06421 0.33149 0.0
O399 O 0.86132 0.90926 0.35499 0.0
O400 O 0.86019 0.90677 0.38377 0.0
H401 H 0.86833 0.09523 0.40591 0.0
H402 H 0.91943 0.06208 0.41209 0.0
C403 C 0.88652 0.0611 0.40449 0.0
H404 H 0.86371 0.03317 0.40982 0.0
H405 H 0.84089 0.92837 0.41889 0.0
O406 O 0.91384 0.96361 0.32411 0.0
C407 C 0.84453 0.89339 0.36916 0.0
Co408 Co 0.54884 0.58126 0.15144 0.0
Co409 Co 0.54376 0.58301 0.11068 0.0
C410 C 0.59155 0.50523 0.12927 0.0
O411 O 0.58168 0.52322 0.14395 0.0
O412 O 0.57783 0.52418 0.11522 0.0
C413 C 0.52723 0.542 0.18461 0.0
O414 O 0.51105 0.5071 0.17525 0.0
C415 C 0.52853 0.55521 0.07434 0.0
C416 C 0.51569 0.62357 0.06172 0.0
C417 C 0.51853 0.57593 0.05848 0.0
N418 N 0.53091 0.58905 0.08644 0.0
N419 N 0.52322 0.62982 0.07881 0.0
C420 C 0.53949 0.50485 0.07792 0.0
H421 H 0.57665 0.50221 0.0819 0.0
H422 H 0.51765 0.49216 0.08887 0.0
H423 H 0.53439 0.48212 0.06646 0.0
C424 C 0.4463 0.59477 0.14715 0.0
N425 N 0.48971 0.58887 0.14068 0.0
N426 N 0.48727 0.58641 0.12368 0.0
C427 C 0.44198 0.58838 0.11882 0.0
C428 C 0.4143 0.59431 0.13353 0.0
C429 C 0.43621 0.60337 0.16593 0.0
H430 H 0.46546 0.62308 0.17195 0.0
H431 H 0.4326 0.56927 0.17271 0.0
H432 H 0.40324 0.62347 0.16757 0.0
O433 O 0.59056 0.63367 0.14564 0.0
O434 O 0.58793 0.63449 0.11686 0.0
H435 H 0.42878 0.61243 0.09302 0.0
H436 H 0.3888 0.56735 0.10029 0.0
C437 C 0.42563 0.57962 0.10065 0.0
H438 H 0.44778 0.55244 0.09452 0.0
H439 H 0.52326 0.66194 0.08527 0.0
O440 O 0.54372 0.57797 0.17702 0.0
C441 C 0.60387 0.65033 0.13114 0.0
Co442 Co 0.91786 0.55269 0.65249 0.0
Co443 Co 0.9178 0.54488 0.61182 0.0
C444 C 0.99514 0.59345 0.63026 0.0
O445 O 0.97628 0.58467 0.64488 0.0
O446 O 0.97688 0.57886 0.61619 0.0
C447 C 0.95633 0.53166 0.68568 0.0
O448 O 0.99033 0.51363 0.67634 0.0
C449 C 0.94419 0.52994 0.57525 0.0
C450 C 0.87636 0.50954 0.56367 0.0
C451 C 0.9232 0.51656 0.55978 0.0
N452 N 0.91134 0.53014 0.58774 0.0
N453 N 0.87088 0.51801 0.58072 0.0
C454 C 0.99347 0.54614 0.57802 0.0
H455 H 0.99264 0.58254 0.58297 0.0
H456 H 0.01043 0.52388 0.58802 0.0
H457 H 0.01446 0.54585 0.56595 0.0
C458 C 0.90395 0.44979 0.64905 0.0
N459 N 0.91022 0.49283 0.64226 0.0
N460 N 0.9137 0.48931 0.62531 0.0
C461 C 0.91215 0.44369 0.62083 0.0
C462 C 0.90527 0.41693 0.63572 0.0
C463 C 0.89433 0.44076 0.66784 0.0
H464 H 0.87488 0.47063 0.67356 0.0
H465 H 0.928 0.43687 0.67486 0.0
H466 H 0.87361 0.40816 0.66956 0.0
O467 O 0.866 0.59446 0.64615 0.0
O468 O 0.86663 0.58978 0.61741 0.0
H469 H 0.88978 0.42655 0.59515 0.0
H470 H 0.9366 0.38997 0.60317 0.0
C471 C 0.92246 0.42614 0.60293 0.0
H472 H 0.94862 0.44912 0.59658 0.0
H473 H 0.83949 0.51549 0.5876 0.0
O474 O 0.92091 0.54915 0.6781 0.0
C475 C 0.85022 0.60688 0.63141 0.0
Co476 Co 0.94669 0.91749 0.15253 0.0
Co477 Co 0.95433 0.91662 0.11171 0.0
C478 C 0.90528 0.99387 0.13014 0.0
O479 O 0.91433 0.97565 0.14485 0.0
O480 O 0.91987 0.97523 0.11616 0.0
C481 C 0.96754 0.95564 0.18599 0.0
O482 O 0.98586 0.98982 0.17679 0.0
C483 C 0.97143 0.94533 0.07548 0.0
C484 C 0.98337 0.87707 0.06269 0.0
C485 C 0.98124 0.92481 0.05955 0.0
N486 N 0.9684 0.91124 0.08749 0.0
N487 N 0.97565 0.87056 0.07975 0.0
C488 C 0.96103 0.99574 0.07919 0.0
H489 H 0.92361 0.99892 0.08279 0.0
H490 H 0.98218 0.00763 0.09043 0.0
H491 H 0.9675 0.01879 0.0679 0.0
C492 C 0.04945 0.90323 0.14892 0.0
N493 N 0.00648 0.90993 0.14215 0.0
N494 N 0.00992 0.91277 0.12518 0.0
C495 C 0.05543 0.91024 0.12064 0.0
C496 C 0.08219 0.9035 0.13553 0.0
C497 C 0.05841 0.89379 0.16772 0.0
H498 H 0.02838 0.87468 0.17349 0.0
H499 H 0.06264 0.92756 0.17466 0.0
H500 H 0.09078 0.87279 0.16948 0.0
O501 O 0.90528 0.86525 0.14618 0.0
O502 O 0.90994 0.86495 0.11742 0.0
H503 H 0.06979 0.88621 0.09493 0.0
H504 H 0.10984 0.93081 0.10252 0.0
C505 C 0.07287 0.91895 0.1026 0.0
H506 H 0.05136 0.9464 0.09633 0.0
H507 H 0.97494 0.83828 0.08612 0.0
O508 O 0.95007 0.92042 0.17824 0.0
C509 C 0.89304 0.84883 0.13152 0.0
Co510 Co 0.58938 0.95414 0.65079 0.0
Co511 Co 0.58499 0.95648 0.61001 0.0
C512 C 0.51043 0.90952 0.63034 0.0
O513 O 0.53127 0.92057 0.64435 0.0
O514 O 0.52648 0.92212 0.61564 0.0
C515 C 0.55259 0.96297 0.68529 0.0
O516 O 0.51193 0.96259 0.67732 0.0
C517 C 0.55439 0.97042 0.57383 0.0
C518 C 0.62202 0.98287 0.56066 0.0
C519 C 0.57424 0.97978 0.55772 0.0
N520 N 0.58895 0.96787 0.58564 0.0
N521 N 0.62926 0.97519 0.57767 0.0
C522 C 0.50344 0.96805 0.57834 0.0
H523 H 0.49773 0.98037 0.59182 0.0
H524 H 0.48231 0.98975 0.56933 0.0
H525 H 0.49147 0.93112 0.57746 0.0
C526 C 0.60012 0.05591 0.64571 0.0
N527 N 0.59456 0.01228 0.63946 0.0
N528 N 0.59006 0.01403 0.62251 0.0
C529 C 0.5909 0.0593 0.61746 0.0
C530 C 0.59767 0.08753 0.632 0.0
C531 C 0.6095 0.0664 0.66441 0.0
H532 H 0.6328 0.03919 0.66997 0.0
H533 H 0.57596 0.06571 0.67168 0.0
H534 H 0.62625 0.10123 0.66603 0.0
O535 O 0.64135 0.91291 0.64447 0.0
O536 O 0.63725 0.91259 0.61572 0.0
H537 H 0.61299 0.07144 0.59136 0.0
H538 H 0.5688 0.11196 0.59889 0.0
C539 C 0.58082 0.07505 0.59932 0.0
H540 H 0.55315 0.05274 0.59358 0.0
H541 H 0.66172 0.97535 0.58389 0.0
O542 O 0.59002 0.96104 0.67638 0.0
C543 C 0.6556 0.89822 0.62982 0.0
H544 H 0.50051 0.96776 0.20734 0.0
H545 H 0.38775 0.075 0.29288 0.0
H546 H 0.43364 0.10334 0.20843 0.0
H547 H 0.50151 0.97557 0.29475 0.0
H548 H 0.3963 0.07911 0.26136 0.0
H549 H 0.4945 0.96398 0.23902 0.0
C550 C 0.48476 0.9968 0.21425 0.0
C551 C 0.46755 0.03593 0.20526 0.0
C552 C 0.41938 0.05643 0.26868 0.0
C553 C 0.45991 0.03144 0.24136 0.0
C554 C 0.41434 0.05381 0.28665 0.0
C555 C 0.44403 0.02493 0.29645 0.0
C556 C 0.45385 0.02942 0.26041 0.0
C557 C 0.47802 0.99843 0.28769 0.0
C558 C 0.48142 0.99463 0.2323 0.0
C559 C 0.44755 0.07261 0.21485 0.0
N560 N 0.48187 0.00111 0.27014 0.0
N561 N 0.44386 0.06927 0.23238 0.0
H562 H 0.41916 0.40246 0.79322 0.0
H563 H 0.51556 0.52321 0.70698 0.0
H564 H 0.50851 0.52455 0.7943 0.0
H565 H 0.39305 0.43449 0.70822 0.0
H566 H 0.51932 0.5194 0.73871 0.0
H567 H 0.41567 0.40818 0.76166 0.0
C568 C 0.43821 0.43038 0.78682 0.0
C569 C 0.4641 0.46315 0.79642 0.0
C570 C 0.49154 0.50097 0.732 0.0
C571 C 0.46029 0.4698 0.76026 0.0
C572 C 0.4894 0.50306 0.71391 0.0
C573 C 0.45395 0.47911 0.70494 0.0
C574 C 0.4584 0.4742 0.74113 0.0
C575 C 0.42092 0.45361 0.71459 0.0
C576 C 0.436 0.43375 0.7688 0.0
C577 C 0.48798 0.49866 0.78741 0.0
N578 N 0.42415 0.45157 0.73214 0.0
N579 N 0.48565 0.50096 0.76981 0.0
H580 H 0.06751 0.50185 0.29554 0.0
H581 H 0.0176 0.37163 0.20546 0.0
H582 H 0.03347 0.3548 0.29145 0.0
H583 H 0.04746 0.51955 0.20971 0.0
H584 H 0.02051 0.36532 0.23703 0.0
H585 H 0.05838 0.50944 0.26417 0.0
C586 C 0.05811 0.47114 0.28805 0.0
C587 C 0.05138 0.42757 0.29614 0.0
C588 C 0.0262 0.39921 0.23107 0.0
C589 C 0.04079 0.43605 0.2602 0.0
C590 C 0.02447 0.40286 0.21303 0.0
C591 C 0.03253 0.44615 0.20491 0.0
C592 C 0.03621 0.43911 0.24107 0.0
C593 C 0.04115 0.48543 0.21539 0.0
C594 C 0.05282 0.47552 0.27014 0.0
C595 C 0.03911 0.38905 0.28577 0.0
N596 N 0.043 0.48091 0.23292 0.0
N597 N 0.03431 0.39417 0.26835 0.0
H598 H 0.08569 0.09611 0.79374 0.0
H599 H 0.97609 0.99518 0.70656 0.0
H600 H 0.98357 0.9845 0.79374 0.0
H601 H 0.11223 0.06082 0.70837 0.0
H602 H 0.97295 0.99729 0.73829 0.0
H603 H 0.09014 0.09088 0.76211 0.0
C604 C 0.06404 0.07063 0.78708 0.0
C605 C 0.03421 0.04065 0.79639 0.0
C606 C 0.00359 0.01097 0.73173 0.0
C607 C 0.03905 0.03468 0.76022 0.0
C608 C 0.00539 0.00987 0.71363 0.0
C609 C 0.04449 0.02787 0.70482 0.0
C610 C 0.04076 0.031 0.74105 0.0
C611 C 0.0815 0.04639 0.71464 0.0
C612 C 0.06684 0.06749 0.76905 0.0
C613 C 0.00715 0.00817 0.78708 0.0
N614 N 0.07854 0.04788 0.73223 0.0
N615 N 0.00999 0.00622 0.76949 0.0
H616 H 0.48928 0.9312 0.79468 0.0
H617 H 0.63063 0.96643 0.70583 0.0
H618 H 0.63964 0.94512 0.79147 0.0
H619 H 0.47983 0.95717 0.70843 0.0
H620 H 0.63408 0.96013 0.73734 0.0
H621 H 0.48454 0.94133 0.76319 0.0
C622 C 0.52128 0.93633 0.78736 0.0
C623 C 0.56494 0.93724 0.79573 0.0
C624 C 0.60019 0.95963 0.73105 0.0
C625 C 0.55976 0.94896 0.75974 0.0
C626 C 0.59819 0.96328 0.71303 0.0
C627 C 0.55488 0.96216 0.70445 0.0
C628 C 0.55858 0.95467 0.74061 0.0
C629 C 0.51401 0.95816 0.71449 0.0
C630 C 0.51855 0.9422 0.7694 0.0
C631 C 0.60523 0.94411 0.7856 0.0
N632 N 0.51687 0.95435 0.73203 0.0
N633 N 0.60165 0.94965 0.76817 0.0
H634 H 0.60639 0.56648 0.29214 0.0
H635 H 0.48161 0.47885 0.20544 0.0
H636 H 0.48032 0.48284 0.2928 0.0
H637 H 0.57511 0.5977 0.20733 0.0
H638 H 0.48598 0.47296 0.23711 0.0
H639 H 0.60148 0.57063 0.26057 0.0
C640 C 0.5778 0.54874 0.28564 0.0
C641 C 0.54361 0.52437 0.29513 0.0
C642 C 0.50538 0.50037 0.23056 0.0
C643 C 0.53787 0.529 0.25897 0.0
C644 C 0.50299 0.50372 0.21251 0.0
C645 C 0.52804 0.53882 0.20374 0.0
C646 C 0.53356 0.53192 0.23986 0.0
C647 C 0.5551 0.57018 0.21355 0.0
C648 C 0.5749 0.55136 0.26763 0.0
C649 C 0.50731 0.50217 0.286 0.0
N650 N 0.55737 0.5658 0.23106 0.0
N651 N 0.50544 0.50491 0.2684 0.0
H652 H 0.0141 0.48004 0.70662 0.0
H653 H 0.94139 0.61379 0.79328 0.0
H654 H 0.90645 0.58609 0.7082 0.0
H655 H 0.00052 0.4746 0.79389 0.0
H656 H 0.93944 0.61097 0.76159 0.0
H657 H 0.01978 0.4838 0.73832 0.0
C658 C 0.99172 0.50412 0.71363 0.0
C659 C 0.95968 0.53273 0.70479 0.0
C660 C 0.95294 0.58112 0.76868 0.0
C661 C 0.96646 0.5376 0.7409 0.0
C662 C 0.95434 0.58279 0.78675 0.0
C663 C 0.97097 0.54427 0.79623 0.0
C664 C 0.96894 0.54095 0.76002 0.0
C665 C 0.98715 0.50495 0.78708 0.0
C666 C 0.99491 0.50615 0.73169 0.0
C667 C 0.93144 0.56322 0.71451 0.0
N668 N 0.98585 0.50432 0.76946 0.0
N669 N 0.9357 0.56507 0.73203 0.0
H670 H 0.88304 0.9405 0.2936 0.0
H671 H 0.01886 0.01298 0.20719 0.0
H672 H 0.0218 0.00059 0.29438 0.0
H673 H 0.91241 0.90555 0.20834 0.0
H674 H 0.01431 0.01851 0.23887 0.0
H675 H 0.88659 0.93786 0.26188 0.0
C676 C 0.91408 0.95351 0.2871 0.0
C677 C 0.95226 0.97066 0.29665 0.0
C678 C 0.99204 0.99371 0.23216 0.0
C679 C 0.95643 0.96785 0.26041 0.0
C680 C 0.99453 0.99059 0.2141 0.0
C681 C 0.96604 0.95868 0.20513 0.0
C682 C 0.96024 0.96531 0.24127 0.0
C683 C 0.93521 0.93045 0.21474 0.0
C684 C 0.91618 0.95171 0.26902 0.0
C685 C 0.99168 0.98687 0.28754 0.0
N686 N 0.93291 0.93463 0.23228 0.0
N687 N 0.99271 0.9852 0.26992 0.0
H688 H 0.5363 0.0082 0.05088 0.0
H689 H 0.46201 0.98779 0.95107 0.0
H690 H 0.41954 0.0826 0.02848 0.0
H691 H 0.57982 0.91474 0.97331 0.0
H692 H 0.44604 0.02305 0.97925 0.0
H693 H 0.55231 0.973 0.02268 0.0
C694 C 0.51342 0.01646 0.04015 0.0
C695 C 0.47573 0.04749 0.04218 0.0
C696 C 0.47561 -0.00044 0.97795 0.0
C697 C 0.49483 0.00842 0.00964 0.0
C698 C 0.48513 0.97984 0.96176 0.0
C699 C 0.52309 0.94917 0.95968 0.0
C700 C 0.50403 0.98828 0.99222 0.0
C701 C 0.55036 0.93845 0.9743 0.0
C702 C 0.52297 0.99677 0.02395 0.0
C703 C 0.44877 0.05859 0.02753 0.0
N704 N 0.5404 0.95806 0.98992 0.0
N705 N 0.45873 0.03898 0.0119 0.0
H706 H 0.4924 0.56724 0.4546 0.0
H707 H 0.50526 0.43258 0.54569 0.0
H708 H 0.59805 0.46467 0.46712 0.0
H709 H 0.39891 0.53425 0.53298 0.0
H710 H 0.54022 0.44435 0.5171 0.0
H711 H 0.45752 0.55552 0.48319 0.0
C712 C 0.50778 0.54161 0.46322 0.0
C713 C 0.54753 0.51602 0.45828 0.0
C714 C 0.50941 0.46433 0.5206 0.0
C715 C 0.50861 0.50346 0.4913 0.0
C716 C 0.48973 0.45801 0.53702 0.0
C717 C 0.44974 0.48333 0.5419 0.0
C718 C 0.48878 0.49596 0.5089 0.0
C719 C 0.42993 0.51424 0.52979 0.0
C720 C 0.48815 0.53532 0.47965 0.0
C721 C 0.56719 0.48489 0.47035 0.0
N722 N 0.44971 0.5198 0.51389 0.0
N723 N 0.54747 0.47937 0.48626 0.0
H724 H 0.03574 0.51294 0.95025 0.0
H725 H 0.96244 0.48681 0.04999 0.0
H726 H 0.91782 0.58431 0.97316 0.0
H727 H 0.08009 0.41517 0.02701 0.0
H728 H 0.94602 0.52351 0.02209 0.0
H729 H 0.05239 0.47664 0.9782 0.0
C730 C 0.01274 0.52029 0.96104 0.0
C731 C 0.97454 0.55077 0.95922 0.0
C732 C 0.97565 0.50003 0.02317 0.0
C733 C 0.99437 0.51046 0.99149 0.0
C734 C 0.98544 0.47949 0.0392 0.0
C735 C 0.02347 0.44877 0.04098 0.0
C736 C 0.0039 0.48954 0.00876 0.0
C737 C 0.05058 0.43889 0.02624 0.0
C738 C 0.02266 0.49998 0.9771 0.0
C739 C 0.94745 0.56075 0.97395 0.0
N740 N 0.04038 0.4593 0.01078 0.0
N741 N 0.95777 0.54054 0.98944 0.0
H742 H 0.00992 0.96394 0.55079 0.0
H743 H 0.9864 0.03693 0.45092 0.0
H744 H 0.08418 0.08013 0.52779 0.0
H745 H 0.91311 0.92004 0.47386 0.0
H746 H 0.02281 0.05315 0.47888 0.0
H747 H 0.97351 0.94781 0.52282 0.0
C748 C 0.01789 0.98669 0.53997 0.0
C749 C 0.04925 0.02423 0.54177 0.0
C750 C -0.00098 0.02373 0.47778 0.0
C751 C 0.0088 0.00498 0.50948 0.0
C752 C 0.97864 0.01405 0.46172 0.0
C753 C 0.94756 0.97628 0.4599 0.0
C754 C 0.98798 0.99564 0.49219 0.0
C755 C 0.93713 0.94934 0.47465 0.0
C756 C 0.99751 0.97706 0.52391 0.0
C757 C 0.05994 0.05101 0.52701 0.0
N758 N 0.95737 0.95944 0.49014 0.0
N759 N 0.03966 0.04098 0.51151 0.0
H760 H 0.46542 0.4991 0.05048 0.0
H761 H 0.53409 0.50307 0.94971 0.0
H762 H 0.55562 0.60334 0.02759 0.0
H763 H 0.44293 0.39963 0.97258 0.0
H764 H 0.5427 0.5403 0.97812 0.0
H765 H 0.45689 0.46195 0.02207 0.0
C766 C 0.48399 0.51369 0.03948 0.0
C767 C 0.51239 0.55342 0.04141 0.0
C768 C 0.52056 0.50963 0.97693 0.0
C769 C 0.5018 0.51208 0.0088 0.0
C770 C 0.51532 0.48869 0.9607 0.0
C771 C 0.48664 0.44916 0.95878 0.0
C772 C 0.49732 0.49055 0.99137 0.0
C773 C 0.46488 0.43048 0.97354 0.0
C774 C 0.47879 0.49277 0.02325 0.0
C775 C 0.53391 0.57232 0.02664 0.0
N776 N 0.47046 0.45149 0.98921 0.0
N777 N 0.52839 0.55133 0.01095 0.0
H778 H 0.88856 0.54558 0.52875 0.0
H779 H 0.10586 0.44724 0.47386 0.0
H780 H 0.00532 0.47235 0.55155 0.0
H781 H 0.98985 0.52211 0.45126 0.0
H782 H 0.06999 0.45647 0.50252 0.0
H783 H 0.92452 0.53625 0.50013 0.0
C784 C 0.92193 0.52775 0.5277 0.0
C785 C 0.94473 0.51087 0.54252 0.0
C786 C 0.05218 0.4706 0.49129 0.0
C787 C 0.98592 0.49969 0.50992 0.0
C788 C 0.07268 0.46539 0.47497 0.0
C789 C 0.05004 0.48275 0.46019 0.0
C790 C 0.00897 0.49381 0.49282 0.0
C791 C 0.00754 0.50667 0.46228 0.0
C792 C 0.94249 0.5225 0.5114 0.0
C793 C 0.98749 0.48738 0.54049 0.0
N794 N 0.98826 0.51135 0.47829 0.0
N795 N 0.00682 0.48261 0.52449 0.0
H796 H 0.96465 0.99664 0.95064 0.0
H797 H 0.03488 0.00128 0.0513 0.0
H798 H 0.05666 0.09992 0.97307 0.0
H799 H 0.94305 0.89791 0.02882 0.0
H800 H 0.04329 0.03809 0.02279 0.0
H801 H 0.95626 0.95987 0.97916 0.0
C802 C 0.98368 0.01107 0.96155 0.0
C803 C 0.0125 0.05045 0.95946 0.0
C804 C 0.02103 0.00755 0.02408 0.0
C805 C 0.00205 0.00957 0.99221 0.0
C806 C 0.01589 0.98684 0.04038 0.0
C807 C 0.98712 0.94741 0.04245 0.0
C808 C 0.99759 0.98835 0.00972 0.0
C809 C 0.96509 0.92868 0.02776 0.0
C810 C 0.97855 0.99039 0.97785 0.0
C811 C 0.03459 0.06918 0.97414 0.0
N812 N 0.97057 0.94945 0.01203 0.0
N813 N 0.02911 0.04844 0.98989 0.0
H814 H 0.60016 0.03899 0.53176 0.0
H815 H 0.39414 0.95989 0.46759 0.0
H816 H 0.49709 0.93396 0.54463 0.0
H817 H 0.49638 0.06588 0.45491 0.0
H818 H 0.43123 0.95001 0.49592 0.0
H819 H 0.56311 0.04884 0.50342 0.0
C820 C 0.56953 0.01819 0.52866 0.0
C821 C 0.55106 0.98638 0.54073 0.0
C822 C 0.44578 0.97521 0.4869 0.0
C823 C 0.50863 0.99716 0.50827 0.0
C824 C 0.42459 0.9809 0.47073 0.0
C825 C 0.44283 0.01299 0.45871 0.0
C826 C 0.48531 0.00216 0.49117 0.0
C827 C 0.48209 0.03959 0.46351 0.0
C828 C 0.54837 0.02386 0.51249 0.0
C829 C 0.51159 0.96004 0.53598 0.0
N830 N 0.50204 0.03354 0.47936 0.0
N831 N 0.49168 0.96605 0.52012 0.0
H832 H 0.6456 0.13913 0.15119 0.0
H833 H 0.86276 0.0284 0.10101 0.0
H834 H 0.63585 0.04627 0.1072 0.0
H835 H 0.86242 0.0416 0.15681 0.0
H836 H 0.78692 0.06718 0.10002 0.0
H837 H 0.73152 0.13099 0.15036 0.0
C838 C 0.66149 0.1174 0.1413 0.0
C839 C 0.63357 0.09284 0.12938 0.0
C840 C 0.80412 0.06262 0.11243 0.0
C841 C 0.73104 0.08546 0.12787 0.0
C842 C 0.84765 0.04073 0.11304 0.0
C843 C 0.86856 0.03044 0.12907 0.0
C844 C 0.78156 0.07479 0.12792 0.0
C845 C 0.84714 0.0479 0.14417 0.0
C846 C 0.71031 0.11322 0.14075 0.0
C847 C 0.65591 0.06623 0.11653 0.0
N848 N 0.80424 0.06849 0.14327 0.0
N849 N 0.70327 0.06321 0.11613 0.0
H850 H 0.47109 0.87077 0.65933 0.0
H851 H 0.36361 0.65017 0.61006 0.0
H852 H 0.46584 0.86447 0.60338 0.0
H853 H 0.44858 0.64353 0.65626 0.0
H854 H 0.37338 0.73593 0.60985 0.0
H855 H 0.43064 0.79562 0.66068 0.0
C856 C 0.46031 0.85436 0.64731 0.0
C857 C 0.47326 0.87334 0.63119 0.0
C858 C 0.38897 0.71547 0.62017 0.0
C859 C 0.42689 0.78737 0.63276 0.0
C860 C 0.38384 0.6667 0.62024 0.0
C861 C 0.40568 0.63959 0.63312 0.0
C862 C 0.41496 0.73709 0.63336 0.0
C863 C 0.43049 0.66286 0.64624 0.0
C864 C 0.43738 0.81135 0.64813 0.0
C865 C 0.45744 0.85069 0.61609 0.0
N866 N 0.43451 0.71019 0.646 0.0
N867 N 0.43581 0.80828 0.61723 0.0
H868 H 0.86205 0.44648 0.10342 0.0
H869 H 0.63428 0.45861 0.15622 0.0
H870 H 0.84911 0.36116 0.14938 0.0
H871 H 0.63377 0.46896 0.10036 0.0
H872 H 0.71007 0.41882 0.15468 0.0
H873 H 0.77728 0.4534 0.10223 0.0
C874 C 0.84135 0.42832 0.11307 0.0
C875 C 0.86278 0.4032 0.12652 0.0
C876 C 0.69261 0.42868 0.14276 0.0
C877 C 0.76543 0.41254 0.12561 0.0
C878 C 0.64928 0.45135 0.1436 0.0
C879 C 0.62809 0.46842 0.12841 0.0
C880 C 0.71498 0.42383 0.12665 0.0
C881 C 0.64905 0.45743 0.11244 0.0
C882 C 0.79285 0.43244 0.11243 0.0
C883 C 0.83401 0.38163 0.13898 0.0
N884 N 0.69191 0.437 0.11201 0.0
N885 N 0.78671 0.38753 0.13844 0.0
H886 H 0.04234 0.63561 0.65718 0.0
H887 H 0.04758 0.86518 0.60632 0.0
H888 H 0.03102 0.63621 0.60135 0.0
H889 H 0.14242 0.85103 0.64954 0.0
H890 H 0.04083 0.78031 0.60485 0.0
H891 H 0.08171 0.71178 0.65575 0.0
C892 C 0.04932 0.65093 0.64459 0.0
C893 C 0.03204 0.62996 0.62938 0.0
C894 C 0.06371 0.79567 0.61451 0.0
C895 C 0.0761 0.71721 0.62777 0.0
C896 C 0.06766 0.84418 0.61533 0.0
C897 C 0.09548 0.86524 0.62811 0.0
C898 C 0.08658 0.76785 0.62687 0.0
C899 C 0.11976 0.83614 0.63973 0.0
C900 C 0.07177 0.69444 0.64381 0.0
C901 C 0.0427 0.65131 0.61345 0.0
N902 N 0.11402 0.78878 0.63908 0.0
N903 N 0.0628 0.69439 0.61309 0.0
H904 H 0.63571 0.45373 0.84208 0.0
H905 H 0.85831 0.46394 0.89614 0.0
H906 H 0.64494 0.36277 0.88666 0.0
H907 H 0.86581 0.4674 0.8402 0.0
H908 H 0.78249 0.42415 0.89398 0.0
H909 H 0.72078 0.45889 0.84144 0.0
C910 C 0.6556 0.43397 0.85152 0.0
C911 C 0.63309 0.40797 0.8645 0.0
C912 C 0.80152 0.43247 0.88222 0.0
C913 C 0.73062 0.41528 0.86424 0.0
C914 C 0.84483 0.45513 0.88342 0.0
C915 C 0.8679 0.47031 0.86833 0.0
C916 C 0.78105 0.4259 0.86585 0.0
C917 C 0.84887 0.45742 0.85221 0.0
C918 C 0.70424 0.4371 0.85119 0.0
C919 C 0.6609 0.38413 0.87668 0.0
N920 N 0.80589 0.43724 0.85139 0.0
N921 N 0.70831 0.3892 0.87652 0.0
H922 H 0.13337 0.64481 0.38947 0.0
H923 H 0.02922 0.86743 0.34073 0.0
H924 H 0.04361 0.63893 0.34451 0.0
H925 H 0.03283 0.85972 0.39668 0.0
H926 H 0.06819 0.79156 0.33931 0.0
H927 H 0.12579 0.73072 0.38946 0.0
C928 C 0.11258 0.66153 0.3795 0.0
C929 C 0.0887 0.63461 0.36706 0.0
C930 C 0.06151 0.80719 0.35187 0.0
C931 C 0.08194 0.73225 0.36654 0.0
C932 C 0.03944 0.85062 0.35275 0.0
C933 C 0.02632 0.86938 0.36888 0.0
C934 C 0.07118 0.78272 0.3672 0.0
C935 C 0.04134 0.84611 0.38396 0.0
C936 C 0.1087 0.71037 0.37944 0.0
C937 C 0.06322 0.65811 0.35419 0.0
N938 N 0.06226 0.8034 0.38277 0.0
N939 N 0.06045 0.70555 0.35428 0.0
H940 H 0.86193 0.04971 0.84252 0.0
H941 H 0.6399 0.03775 0.89704 0.0
H942 H 0.85344 0.13903 0.88754 0.0
H943 H 0.63164 0.03677 0.8411 0.0
H944 H 0.71598 0.07714 0.89492 0.0
H945 H 0.77686 0.04454 0.84208 0.0
C946 C 0.84221 0.06914 0.8521 0.0
C947 C 0.86493 0.09466 0.86514 0.0
C948 C 0.69673 0.06944 0.88316 0.0
C949 C 0.7674 0.08729 0.86511 0.0
C950 C 0.65328 0.04702 0.88434 0.0
C951 C 0.62985 0.03273 0.86922 0.0
C952 C 0.71698 0.07666 0.86679 0.0
C953 C 0.64879 0.04613 0.85313 0.0
C954 C 0.79355 0.06598 0.85188 0.0
C955 C 0.83731 0.11804 0.8775 0.0
N956 N 0.69187 0.06608 0.85233 0.0
N957 N 0.78991 0.11294 0.87744 0.0
H958 H 0.3558 0.8483 0.38983 0.0
H959 H 0.46568 0.63087 0.33932 0.0
H960 H 0.43866 0.85788 0.34316 0.0
H961 H 0.45783 0.63461 0.39526 0.0
H962 H 0.42496 0.70585 0.33819 0.0
H963 H 0.36649 0.76272 0.38952 0.0
C964 C 0.37577 0.83244 0.37944 0.0
C965 C 0.3968 0.86034 0.3666 0.0
C966 C 0.43124 0.68963 0.35068 0.0
C967 C 0.40724 0.76298 0.36579 0.0
C968 C 0.45429 0.64668 0.35138 0.0
C969 C 0.46651 0.62699 0.36745 0.0
C970 C 0.41987 0.71283 0.36613 0.0
C971 C 0.44998 0.64893 0.38259 0.0
C972 C 0.38145 0.78375 0.37922 0.0
C973 C 0.42126 0.83791 0.35319 0.0
N974 N 0.42821 0.69126 0.38158 0.0
N975 N 0.4259 0.79062 0.35317 0.0
H976 H 0.13291 0.96543 0.90067 0.0
H977 H 0.35279 0.86294 0.8497 0.0
H978 H 0.1362 0.95659 0.84478 0.0
H979 H 0.35952 0.94557 0.89648 0.0
H980 H 0.26688 0.86947 0.85034 0.0
H981 H 0.20832 0.92585 0.90182 0.0
C982 C 0.1486 0.95395 0.88864 0.0
C983 C 0.12873 0.96579 0.87257 0.0
C984 C 0.28741 0.88525 0.86061 0.0
C985 C 0.21523 0.92057 0.87388 0.0
C986 C 0.33627 0.882 0.86018 0.0
C987 C 0.36338 0.90419 0.87297 0.0
C988 C 0.26576 0.90985 0.87415 0.0
C989 C 0.34016 0.92737 0.88649 0.0
C990 C 0.19187 0.93157 0.88934 0.0
C991 C 0.15072 0.94919 0.85745 0.0
N992 N 0.29274 0.92971 0.88669 0.0
N993 N 0.1934 0.92822 0.85845 0.0
H994 H 0.51985 0.13082 0.34003 0.0
H995 H 0.6314 0.34911 0.38953 0.0
H996 H 0.52808 0.13538 0.39595 0.0
H997 H 0.54574 0.35798 0.34356 0.0
H998 H 0.62033 0.26352 0.38954 0.0
H999 H 0.56041 0.20591 0.3387 0.0
C1000 C 0.53129 0.14685 0.35204 0.0
C1001 C 0.51923 0.12734 0.36817 0.0
C1002 C 0.60484 0.28441 0.37931 0.0
C1003 C 0.56572 0.21328 0.36662 0.0
C1004 C 0.61074 0.33309 0.37936 0.0
C1005 C 0.58911 0.36078 0.3666 0.0
C1006 C 0.57825 0.26344 0.36614 0.0
C1007 C 0.56368 0.33816 0.35349 0.0
C1008 C 0.55426 0.18984 0.35123 0.0
C1009 C 0.53582 0.14954 0.38324 0.0
N1010 N 0.5589 0.29089 0.35362 0.0
N1011 N 0.55753 0.19193 0.38212 0.0
H1012 H 0.14551 0.64435 0.8509 0.0
H1013 H 0.36191 0.53129 0.90082 0.0
H1014 H 0.13531 0.55312 0.89538 0.0
H1015 H 0.3609 0.54541 0.84506 0.0
H1016 H 0.28672 0.57125 0.90209 0.0
H1017 H 0.23134 0.63569 0.85171 0.0
C1018 C 0.1613 0.62292 0.86091 0.0
C1019 C 0.13326 0.59885 0.87295 0.0
C1020 C 0.30363 0.5666 0.88963 0.0
C1021 C 0.23067 0.59083 0.87441 0.0
C1022 C 0.34678 0.54401 0.88886 0.0
C1023 C 0.3673 0.53369 0.87276 0.0
C1024 C 0.28102 0.57938 0.87421 0.0
C1025 C 0.34591 0.5517 0.85774 0.0
C1026 C 0.21007 0.61843 0.86143 0.0
C1027 C 0.15546 0.57266 0.88594 0.0
N1028 N 0.30335 0.57294 0.85879 0.0
N1029 N 0.20281 0.56926 0.88629 0.0
H1030 H 0.95063 0.36455 0.3447 0.0
H1031 H 0.94463 0.13624 0.3961 0.0
H1032 H 0.95776 0.36521 0.40062 0.0
H1033 H 0.85411 0.14794 0.35152 0.0
H1034 H 0.9493 0.2212 0.39756 0.0
H1035 H 0.9117 0.28821 0.34594 0.0
C1036 C 0.94279 0.34948 0.35726 0.0
C1037 C 0.95898 0.37078 0.37258 0.0
C1038 C 0.92774 0.20528 0.38761 0.0
C1039 C 0.91538 0.28329 0.37398 0.0
C1040 C 0.92496 0.15669 0.38679 0.0
C1041 C 0.89898 0.13491 0.37366 0.0
C1042 C 0.90563 0.23249 0.37488 0.0
C1043 C 0.87533 0.16339 0.36165 0.0
C1044 C 0.92061 0.30584 0.35793 0.0
C1045 C 0.94718 0.34974 0.38846 0.0
N1046 N 0.87997 0.21086 0.36231 0.0
N1047 N 0.92737 0.30652 0.38873 0.0
H1048 H 0.13056 0.52949 0.16041 0.0
H1049 H 0.3515 0.639 0.11213 0.0
H1050 H 0.13917 0.53373 0.10449 0.0
H1051 H 0.35878 0.54978 0.15724 0.0
H1052 H 0.26583 0.62946 0.11202 0.0
H1053 H 0.20561 0.57 0.16205 0.0
C1054 C 0.1474 0.54011 0.14844 0.0
C1055 C 0.12911 0.52686 0.13225 0.0
C1056 C 0.2864 0.61291 0.1221 0.0
C1057 C 0.21485 0.57349 0.13418 0.0
C1058 C 0.33512 0.61792 0.12211 0.0
C1059 C 0.36241 0.59459 0.13458 0.0
C1060 C 0.26498 0.58565 0.13498 0.0
C1061 C 0.33932 0.56886 0.14751 0.0
C1062 C 0.19036 0.56308 0.14944 0.0
C1063 C 0.15241 0.54237 0.11724 0.0
N1064 N 0.29197 0.56497 0.14734 0.0
N1065 N 0.19465 0.5642 0.11856 0.0
H1066 H 0.96402 0.14058 0.60528 0.0
H1067 H 0.94857 0.36288 0.66018 0.0
H1068 H 0.969 0.13329 0.6612 0.0
H1069 H 0.86233 0.35278 0.6144 0.0
H1070 H 0.95505 0.27789 0.66073 0.0
H1071 H 0.92332 0.21583 0.60755 0.0
C1072 C 0.95541 0.154 0.61802 0.0
C1073 C 0.9712 0.13115 0.63306 0.0
C1074 C 0.93396 0.29418 0.65073 0.0
C1075 C 0.92568 0.21739 0.63568 0.0
C1076 C 0.93004 0.3428 0.65046 0.0
C1077 C 0.90506 0.36508 0.63717 0.0
C1078 C 0.91395 0.26762 0.63733 0.0
C1079 C 0.88287 0.33703 0.62465 0.0
C1080 C 0.93222 0.197 0.61929 0.0
C1081 C 0.95853 0.15008 0.64922 0.0
N1082 N 0.88869 0.28971 0.62478 0.0
N1083 N 0.93773 0.19274 0.6501 0.0
H1084 H 0.13724 0.94653 0.15971 0.0
H1085 H 0.35856 0.95891 0.10506 0.0
H1086 H 0.14527 0.85814 0.11442 0.0
H1087 H 0.36716 0.96002 0.16099 0.0
H1088 H 0.28292 0.9188 0.10723 0.0
H1089 H 0.22232 0.95101 0.16023 0.0
C1090 C 0.15686 0.92715 0.15009 0.0
C1091 C 0.134 0.90217 0.13693 0.0
C1092 C 0.30215 0.92667 0.11898 0.0
C1093 C 0.23159 0.90874 0.13707 0.0
C1094 C 0.34537 0.94951 0.11777 0.0
C1095 C 0.36865 0.96417 0.13287 0.0
C1096 C 0.28201 0.91937 0.13536 0.0
C1097 C 0.35001 0.9505 0.14898 0.0
C1098 C 0.20553 0.9299 0.15035 0.0
C1099 C 0.1615 0.87878 0.12454 0.0
N1100 N 0.30711 0.93015 0.14981 0.0
N1101 N 0.20894 0.88352 0.12465 0.0
H1102 H 0.53105 0.36916 0.66089 0.0
H1103 H 0.63997 0.15149 0.61033 0.0
H1104 H 0.54021 0.36688 0.60497 0.0
H1105 H 0.55256 0.14177 0.65584 0.0
H1106 H 0.63056 0.23726 0.61088 0.0
H1107 H 0.57057 0.29352 0.66186 0.0
C1108 C 0.54254 0.35355 0.64882 0.0
C1109 C 0.53092 0.37382 0.63278 0.0
C1110 C 0.61431 0.21612 0.62088 0.0
C1111 C 0.57621 0.28727 0.63391 0.0
C1112 C 0.61925 0.16736 0.62051 0.0
C1113 C 0.59669 0.13943 0.63299 0.0
C1114 C 0.58772 0.23689 0.63409 0.0
C1115 C 0.57117 0.1618 0.64612 0.0
C1116 C 0.56489 0.31023 0.64942 0.0
C1117 C 0.54755 0.3521 0.61761 0.0
N1118 N 0.56735 0.20916 0.64632 0.0
N1119 N 0.56863 0.30941 0.61852 0.0
H1120 H 0.14681 0.30959 0.16129 0.0
H1121 H 0.3514 0.19075 0.1059 0.0
H1122 H 0.14951 0.30307 0.10533 0.0
H1123 H 0.342 0.17799 0.16162 0.0
H1124 H 0.27975 0.23668 0.10597 0.0
H1125 H 0.21875 0.26306 0.16211 0.0
C1126 C 0.16208 0.29787 0.14919 0.0
C1127 C 0.14213 0.31052 0.13321 0.0
C1128 C 0.29338 0.22403 0.11821 0.0
C1129 C 0.22483 0.25809 0.13409 0.0
C1130 C 0.33458 0.19802 0.1182 0.0
C1131 C 0.35272 0.18018 0.13378 0.0
C1132 C 0.26993 0.23246 0.1339 0.0
C1133 C 0.32931 0.19099 0.1493 0.0
C1134 C 0.20333 0.27158 0.14968 0.0
C1135 C 0.16362 0.29441 0.11796 0.0
N1136 N 0.28893 0.21625 0.14896 0.0
N1137 N 0.20392 0.26939 0.11879 0.0
H1138 H 0.19901 0.14553 0.60478 0.0
H1139 H 0.30395 0.35807 0.66004 0.0
H1140 H 0.18379 0.15786 0.66032 0.0
H1141 H 0.31948 0.34514 0.60452 0.0
H1142 H 0.25876 0.28558 0.66032 0.0
H1143 H 0.24481 0.21759 0.60458 0.0
C1144 C 0.20576 0.16305 0.61698 0.0
C1145 C 0.18726 0.14564 0.63259 0.0
C1146 C 0.27182 0.29871 0.64807 0.0
C1147 C 0.23923 0.22876 0.63239 0.0
C1148 C 0.29741 0.34034 0.64786 0.0
C1149 C 0.31577 0.35775 0.63222 0.0
C1150 C 0.26452 0.27415 0.63254 0.0
C1151 C 0.30606 0.33313 0.61688 0.0
C1152 C 0.23172 0.20442 0.61683 0.0
C1153 C 0.19733 0.1699 0.64798 0.0
N1154 N 0.28135 0.29244 0.61745 0.0
N1155 N 0.22236 0.21042 0.64747 0.0
H1156 H 0.35018 0.30878 0.84199 0.0
H1157 H 0.15128 0.18445 0.8989 0.0
H1158 H 0.34602 0.31606 0.89792 0.0
H1159 H 0.15248 0.1881 0.8429 0.0
H1160 H 0.22277 0.23178 0.89912 0.0
H1161 H 0.27963 0.26093 0.84244 0.0
C1162 C 0.33475 0.29992 0.8544 0.0
C1163 C 0.35402 0.31676 0.86994 0.0
C1164 C 0.20717 0.2224 0.8868 0.0
C1165 C 0.27253 0.26231 0.87052 0.0
C1166 C 0.16616 0.19564 0.88666 0.0
C1167 C 0.14583 0.18207 0.87085 0.0
C1168 C 0.22803 0.23555 0.87104 0.0
C1169 C 0.16686 0.19752 0.85541 0.0
C1170 C 0.2942 0.27278 0.85464 0.0
C1171 C 0.33241 0.30391 0.88561 0.0
N1172 N 0.20688 0.22315 0.8559 0.0
N1173 N 0.29263 0.27767 0.8855 0.0
H1174 H 0.30548 0.14899 0.39856 0.0
H1175 H 0.17785 0.3456 0.3417 0.0
H1176 H 0.29216 0.14398 0.34279 0.0
H1177 H 0.17786 0.34597 0.39772 0.0
H1178 H 0.22298 0.27327 0.34209 0.0
H1179 H 0.25912 0.22102 0.39879 0.0
C1180 C 0.29231 0.16259 0.38639 0.0
C1181 C 0.30302 0.14044 0.37062 0.0
C1182 C 0.2133 0.28923 0.35431 0.0
C1183 C 0.25067 0.22328 0.37079 0.0
C1184 C 0.18778 0.33082 0.35411 0.0
C1185 C 0.17383 0.35195 0.36971 0.0
C1186 C 0.2251 0.26845 0.37023 0.0
C1187 C 0.18779 0.33097 0.38537 0.0
C1188 C 0.2661 0.20391 0.38653 0.0
C1189 C 0.28503 0.15983 0.35527 0.0
N1190 N 0.21248 0.29025 0.38523 0.0
N1191 N 0.26009 0.20026 0.35574 0.0
H1192 H 0.65015 0.81893 0.8387 0.0
H1193 H 0.84967 0.69593 0.89529 0.0
H1194 H 0.64708 0.80634 0.89452 0.0
H1195 H 0.84414 0.68483 0.83946 0.0
H1196 H 0.77814 0.74198 0.89472 0.0
H1197 H 0.72207 0.77221 0.83821 0.0
C1198 C 0.66414 0.80583 0.85082 0.0
C1199 C 0.64261 0.81685 0.86669 0.0
C1200 C 0.79259 0.72965 0.88257 0.0
C1201 C 0.72522 0.76427 0.86621 0.0
C1202 C 0.83374 0.70359 0.88286 0.0
C1203 C 0.85291 0.68617 0.8674 0.0
C1204 C 0.77027 0.7386 0.8667 0.0
C1205 C 0.83061 0.69749 0.8517 0.0
C1206 C 0.70536 0.77944 0.85053 0.0
C1207 C 0.66246 0.79902 0.88198 0.0
N1208 N 0.79027 0.72283 0.85176 0.0
N1209 N 0.70277 0.77399 0.88135 0.0
H1210 H 0.79852 0.85368 0.3966 0.0
H1211 H 0.69441 0.64216 0.34059 0.0
H1212 H 0.81483 0.84225 0.34107 0.0
H1213 H 0.67833 0.65397 0.39612 0.0
H1214 H 0.73987 0.7145 0.34058 0.0
H1215 H 0.75296 0.78147 0.39652 0.0
C1216 C 0.79207 0.83632 0.38434 0.0
C1217 C 0.81078 0.85404 0.36881 0.0
C1218 C 0.72663 0.70114 0.35278 0.0
C1219 C 0.75909 0.77075 0.3687 0.0
C1220 C 0.70089 0.6596 0.35283 0.0
C1221 C 0.68227 0.64195 0.36838 0.0
C1222 C 0.73381 0.72536 0.36839 0.0
C1223 C 0.69193 0.66619 0.38381 0.0
C1224 C 0.76625 0.79486 0.38433 0.0
C1225 C 0.80111 0.82997 0.35335 0.0
N1226 N 0.71678 0.7068 0.3834 0.0
N1227 N 0.77619 0.78937 0.35371 0.0
H1228 H 0.64626 0.69218 0.1589 0.0
H1229 H 0.84913 0.81251 0.10278 0.0
H1230 H 0.65212 0.68457 0.103 0.0
H1231 H 0.84643 0.80891 0.15878 0.0
H1232 H 0.77712 0.76605 0.10231 0.0
H1233 H 0.71798 0.73829 0.15875 0.0
C1234 C 0.6623 0.70063 0.14656 0.0
C1235 C 0.64314 0.68421 0.13094 0.0
C1236 C 0.79251 0.77521 0.11468 0.0
C1237 C 0.72596 0.73662 0.13071 0.0
C1238 C 0.83382 0.80147 0.11497 0.0
C1239 C 0.85384 0.8149 0.13085 0.0
C1240 C 0.77102 0.76244 0.13037 0.0
C1241 C 0.83228 0.79962 0.14622 0.0
C1242 C 0.70352 0.72675 0.1465 0.0
C1243 C 0.66559 0.69645 0.11536 0.0
N1244 N 0.79195 0.77452 0.14558 0.0
N1245 N 0.70599 0.7217 0.11565 0.0
H1246 H 0.81348 0.64931 0.60244 0.0
H1247 H 0.70257 0.85965 0.65718 0.0
H1248 H 0.81238 0.65613 0.6584 0.0
H1249 H 0.68475 0.84629 0.60178 0.0
H1250 H 0.74803 0.78764 0.65727 0.0
H1251 H 0.76838 0.72214 0.60148 0.0
C1252 C 0.80327 0.6657 0.61453 0.0
C1253 C 0.81698 0.64658 0.63053 0.0
C1254 C 0.73439 0.8005 0.64506 0.0
C1255 C 0.76615 0.73032 0.62949 0.0
C1256 C 0.70866 0.8419 0.64498 0.0
C1257 C 0.68947 0.859 0.62946 0.0
C1258 C 0.74116 0.77581 0.62953 0.0
C1259 C 0.69879 0.83442 0.61406 0.0
C1260 C 0.77778 0.70745 0.61395 0.0
C1261 C 0.8028 0.66951 0.64575 0.0
N1262 N 0.72376 0.79386 0.61449 0.0
N1263 N 0.7785 0.71027 0.64484 0.0
loop_
_geom_bond_atom_site_label_1
_geom_bond_atom_site_label_2
_geom_bond_distance
_geom_bond_site_symmetry_2
_ccdc_geom_bond_type
Co0 O3 1.970 . S
Co0 N17 1.989 . S
Co0 O25 1.967 . S
Co0 O32 1.920 . S
Co1 O4 1.966 . S
Co1 N10 2.022 . S
Co1 N18 1.993 . S
Co1 O26 1.941 . S
C2 O3 1.258 . S
C2 O4 1.263 . S
O3 Co0 1.970 . S
O3 C2 1.258 . S
O4 Co1 1.966 . S
O4 C2 1.263 . S
C5 O6 1.235 . S
C5 O32 1.289 . S
O6 C5 1.235 . S
C7 C9 1.400 . S
C7 N10 1.351 . S
C7 C12 1.501 1_545 S
C8 C9 1.387 . S
C8 N11 1.341 . S
C9 C7 1.400 . S
C9 C8 1.387 . S
N10 Co1 2.022 . S
N10 C7 1.351 . S
N10 N11 1.365 . S
N11 C8 1.341 . S
N11 N10 1.365 . S
N11 H31 0.862 . S
C12 C7 1.501 1_565 S
C12 H13 0.961 1_565 S
C12 H14 0.961 . S
C12 H15 0.960 . S
H13 C12 0.961 1_545 S
H14 C12 0.961 . S
H15 C12 0.960 . S
C16 N17 1.342 . S
C16 C20 1.401 . S
C16 C21 1.499 . S
N17 Co0 1.989 . S
N17 C16 1.342 . S
N17 N18 1.388 . S
N18 Co1 1.993 . S
N18 N17 1.388 . S
N18 C19 1.346 . S
C19 N18 1.346 . S
C19 C20 1.396 . S
C19 C29 1.510 . S
C20 C16 1.401 . S
C20 C19 1.396 . S
C21 C16 1.499 . S
C21 H22 0.959 . S
C21 H23 0.960 . S
C21 H24 0.961 . S
H22 C21 0.959 . S
H23 C21 0.960 . S
H24 C21 0.961 . S
O25 Co0 1.967 . S
O25 C33 1.258 . S
O26 Co1 1.941 . S
O26 C33 1.266 . S
H27 C29 0.959 . S
H28 C29 0.961 . S
C29 C19 1.510 . S
C29 H27 0.959 . S
C29 H28 0.961 . S
C29 H30 0.960 . S
H30 C29 0.960 . S
H31 N11 0.862 . S
O32 Co0 1.920 . S
O32 C5 1.289 . S
C33 O25 1.258 . S
C33 O26 1.266 . S
Co34 O37 1.970 . S
Co34 N51 1.989 . S
Co34 O59 1.967 . S
Co34 O66 1.920 . S
Co35 O38 1.966 . S
Co35 N44 2.022 . S
Co35 N52 1.993 . S
Co35 O60 1.941 . S
C36 O37 1.258 . S
C36 O38 1.263 . S
O37 Co34 1.970 . S
O37 C36 1.258 . S
O38 Co35 1.966 . S
O38 C36 1.263 . S
C39 O40 1.235 . S
C39 O66 1.289 . S
O40 C39 1.235 . S
C41 C43 1.400 . S
C41 N44 1.351 . S
C41 C46 1.501 . S
C42 C43 1.387 . S
C42 N45 1.341 . S
C43 C41 1.400 . S
C43 C42 1.387 . S
N44 Co35 2.022 . S
N44 C41 1.351 . S
N44 N45 1.365 . S
N45 C42 1.341 . S
N45 N44 1.365 . S
N45 H65 0.862 . S
C46 C41 1.501 . S
C46 H47 0.961 . S
C46 H48 0.961 . S
C46 H49 0.960 . S
H47 C46 0.961 . S
H48 C46 0.961 . S
H49 C46 0.960 . S
C50 N51 1.342 . S
C50 C54 1.401 . S
C50 C55 1.499 . S
N51 Co34 1.989 . S
N51 C50 1.342 . S
N51 N52 1.388 . S
N52 Co35 1.993 . S
N52 N51 1.388 . S
N52 C53 1.346 . S
C53 N52 1.346 . S
C53 C54 1.396 . S
C53 C63 1.510 . S
C54 C50 1.401 . S
C54 C53 1.396 . S
C55 C50 1.499 . S
C55 H56 0.959 . S
C55 H57 0.960 . S
C55 H58 0.961 . S
H56 C55 0.959 . S
H57 C55 0.960 . S
H58 C55 0.961 . S
O59 Co34 1.967 . S
O59 C67 1.258 . S
O60 Co35 1.941 . S
O60 C67 1.266 . S
H61 C63 0.959 . S
H62 C63 0.961 . S
C63 C53 1.510 . S
C63 H61 0.959 . S
C63 H62 0.961 . S
C63 H64 0.960 . S
H64 C63 0.960 . S
H65 N45 0.862 . S
O66 Co34 1.920 . S
O66 C39 1.289 . S
C67 O59 1.258 . S
C67 O60 1.266 . S
Co68 O71 1.970 . S
Co68 N85 1.989 . S
Co68 O93 1.967 . S
Co68 O100 1.920 . S
Co69 O72 1.966 . S
Co69 N78 2.022 . S
Co69 N86 1.993 . S
Co69 O94 1.941 . S
C70 O71 1.258 . S
C70 O72 1.263 . S
O71 Co68 1.970 . S
O71 C70 1.258 . S
O72 Co69 1.966 . S
O72 C70 1.263 . S
C73 O74 1.235 . S
C73 O100 1.289 . S
O74 C73 1.235 . S
C75 C77 1.400 . S
C75 N78 1.351 . S
C75 C80 1.501 . S
C76 C77 1.387 . S
C76 N79 1.341 . S
C77 C75 1.400 . S
C77 C76 1.387 . S
N78 Co69 2.022 . S
N78 C75 1.351 . S
N78 N79 1.365 . S
N79 C76 1.341 . S
N79 N78 1.365 . S
N79 H99 0.862 . S
C80 C75 1.501 . S
C80 H81 0.961 . S
C80 H82 0.961 . S
C80 H83 0.960 . S
H81 C80 0.961 . S
H82 C80 0.961 . S
H83 C80 0.960 . S
C84 N85 1.342 1_655 S
C84 C88 1.401 . S
C84 C89 1.499 . S
N85 Co68 1.989 . S
N85 C84 1.342 1_455 S
N85 N86 1.388 . S
N86 Co69 1.993 . S
N86 N85 1.388 . S
N86 C87 1.346 1_455 S
C87 N86 1.346 1_655 S
C87 C88 1.396 . S
C87 C97 1.510 . S
C88 C84 1.401 . S
C88 C87 1.396 . S
C89 C84 1.499 . S
C89 H90 0.951 1_655 S
C89 H91 0.960 . S
C89 H92 0.961 . S
H90 C89 0.951 1_455 S
H91 C89 0.960 . S
H92 C89 0.961 . S
O93 Co68 1.967 . S
O93 C101 1.258 . S
O94 Co69 1.941 . S
O94 C101 1.266 . S
H95 C97 0.959 . S
H96 C97 0.961 . S
C97 C87 1.510 . S
C97 H95 0.959 . S
C97 H96 0.961 . S
C97 H98 0.960 . S
H98 C97 0.960 . S
H99 N79 0.862 . S
O100 Co68 1.920 . S
O100 C73 1.289 . S
C101 O93 1.258 . S
C101 O94 1.266 . S
Co102 O105 1.970 . S
Co102 N119 1.989 . S
Co102 O127 1.967 . S
Co102 O134 1.920 . S
Co103 O106 1.966 . S
Co103 N112 2.022 . S
Co103 N120 1.993 . S
Co103 O128 1.941 . S
C104 O105 1.258 . S
C104 O106 1.263 . S
O105 Co102 1.970 . S
O105 C104 1.258 . S
O106 Co103 1.966 . S
O106 C104 1.263 . S
C107 O108 1.235 . S
C107 O134 1.289 . S
O108 C107 1.235 . S
C109 C111 1.400 . S
C109 N112 1.351 . S
C109 C114 1.501 1_455 S
C110 C111 1.387 . S
C110 N113 1.341 . S
C111 C109 1.400 . S
C111 C110 1.387 . S
N112 Co103 2.022 . S
N112 C109 1.351 . S
N112 N113 1.365 . S
N113 C110 1.341 . S
N113 N112 1.365 . S
N113 H133 0.862 . S
C114 C109 1.501 1_655 S
C114 H115 0.961 1_655 S
C114 H116 0.961 . S
C114 H117 0.960 . S
H115 C114 0.961 1_455 S
H116 C114 0.961 . S
H117 C114 0.960 . S
C118 N119 1.342 1_565 S
C118 C122 1.401 . S
C118 C123 1.499 . S
N119 Co102 1.989 . S
N119 C118 1.342 1_545 S
N119 N120 1.388 . S
N120 Co103 1.993 . S
N120 N119 1.388 . S
N120 C121 1.346 1_545 S
C121 N120 1.346 1_565 S
C121 C122 1.396 . S
C121 C131 1.510 . S
C122 C118 1.401 . S
C122 C121 1.396 . S
C123 C118 1.499 . S
C123 H124 0.951 1_565 S
C123 H125 0.960 . S
C123 H126 0.961 . S
H124 C123 0.951 1_545 S
H125 C123 0.960 . S
H126 C123 0.961 . S
O127 Co102 1.967 . S
O127 C135 1.258 . S
O128 Co103 1.941 . S
O128 C135 1.266 . S
H129 C131 0.959 . S
H130 C131 0.961 . S
C131 C121 1.510 . S
C131 H129 0.959 . S
C131 H130 0.961 . S
C131 H132 0.960 . S
H132 C131 0.960 . S
H133 N113 0.862 . S
O134 Co102 1.920 . S
O134 C107 1.289 . S
C135 O127 1.258 . S
C135 O128 1.266 . S
Co136 O139 1.970 . S
Co136 N153 1.989 . S
Co136 O161 1.967 . S
Co136 O168 1.920 . S
Co137 O140 1.966 . S
Co137 N146 2.022 . S
Co137 N154 1.993 . S
Co137 O162 1.941 . S
C138 O139 1.258 . S
C138 O140 1.263 . S
O139 Co136 1.970 . S
O139 C138 1.258 . S
O140 Co137 1.966 . S
O140 C138 1.263 . S
C141 O142 1.235 . S
C141 O168 1.289 . S
O142 C141 1.235 . S
C143 C145 1.400 . S
C143 N146 1.351 . S
C143 C148 1.501 . S
C144 C145 1.387 . S
C144 N147 1.341 . S
C145 C143 1.400 . S
C145 C144 1.387 . S
N146 Co137 2.022 . S
N146 C143 1.351 . S
N146 N147 1.365 . S
N147 C144 1.341 . S
N147 N146 1.365 . S
N147 H167 0.862 . S
C148 C143 1.501 . S
C148 H149 0.961 . S
C148 H150 0.961 . S
C148 H151 0.960 . S
H149 C148 0.961 . S
H150 C148 0.961 . S
H151 C148 0.960 . S
C152 N153 1.342 . S
C152 C156 1.401 . S
C152 C157 1.499 . S
N153 Co136 1.989 . S
N153 C152 1.342 . S
N153 N154 1.388 . S
N154 Co137 1.993 . S
N154 N153 1.388 . S
N154 C155 1.346 . S
C155 N154 1.346 . S
C155 C156 1.396 . S
C155 C165 1.510 . S
C156 C152 1.401 . S
C156 C155 1.396 . S
C157 C152 1.499 . S
C157 H158 0.959 . S
C157 H159 0.960 . S
C157 H160 0.961 . S
H158 C157 0.959 . S
H159 C157 0.960 . S
H160 C157 0.961 . S
O161 Co136 1.967 . S
O161 C169 1.258 . S
O162 Co137 1.941 . S
O162 C169 1.266 . S
H163 C165 0.959 . S
H164 C165 0.961 . S
C165 C155 1.510 . S
C165 H163 0.959 . S
C165 H164 0.961 . S
C165 H166 0.960 . S
H166 C165 0.960 . S
H167 N147 0.862 . S
O168 Co136 1.920 . S
O168 C141 1.289 . S
C169 O161 1.258 . S
C169 O162 1.266 . S
Co170 O173 1.970 . S
Co170 N187 1.989 . S
Co170 O195 1.967 . S
Co170 O202 1.920 . S
Co171 O174 1.966 . S
Co171 N180 2.022 . S
Co171 N188 1.993 . S
Co171 O196 1.941 . S
C172 O173 1.258 . S
C172 O174 1.263 . S
O173 Co170 1.970 . S
O173 C172 1.258 . S
O174 Co171 1.966 . S
O174 C172 1.263 . S
C175 O176 1.235 . S
C175 O202 1.289 . S
O176 C175 1.235 . S
C177 C179 1.400 . S
C177 N180 1.351 . S
C177 C182 1.501 1_455 S
C178 C179 1.387 . S
C178 N181 1.341 . S
C179 C177 1.400 . S
C179 C178 1.387 . S
N180 Co171 2.022 . S
N180 C177 1.351 . S
N180 N181 1.365 . S
N181 C178 1.341 . S
N181 N180 1.365 . S
N181 H201 0.862 . S
C182 C177 1.501 1_655 S
C182 H183 0.961 1_655 S
C182 H184 0.961 . S
C182 H185 0.960 . S
H183 C182 0.961 1_455 S
H184 C182 0.961 . S
H185 C182 0.960 . S
C186 N187 1.342 . S
C186 C190 1.401 . S
C186 C191 1.499 . S
N187 Co170 1.989 . S
N187 C186 1.342 . S
N187 N188 1.388 . S
N188 Co171 1.993 . S
N188 N187 1.388 . S
N188 C189 1.346 . S
C189 N188 1.346 . S
C189 C190 1.396 . S
C189 C199 1.510 . S
C190 C186 1.401 . S
C190 C189 1.396 . S
C191 C186 1.499 . S
C191 H192 0.959 . S
C191 H193 0.960 . S
C191 H194 0.961 . S
H192 C191 0.959 . S
H193 C191 0.960 . S
H194 C191 0.961 . S
O195 Co170 1.967 . S
O195 C203 1.258 . S
O196 Co171 1.941 . S
O196 C203 1.266 . S
H197 C199 0.959 . S
H198 C199 0.961 . S
C199 C189 1.510 . S
C199 H197 0.959 . S
C199 H198 0.961 . S
C199 H200 0.960 . S
H200 C199 0.960 . S
H201 N181 0.862 . S
O202 Co170 1.920 . S
O202 C175 1.289 . S
C203 O195 1.258 . S
C203 O196 1.266 . S
Co204 O207 1.970 . S
Co204 N221 1.989 . S
Co204 O229 1.967 . S
Co204 O236 1.920 . S
Co205 O208 1.966 . S
Co205 N214 2.022 . S
Co205 N222 1.993 . S
Co205 O230 1.941 . S
C206 O207 1.258 . S
C206 O208 1.263 . S
O207 Co204 1.970 . S
O207 C206 1.258 . S
O208 Co205 1.966 . S
O208 C206 1.263 . S
C209 O210 1.235 . S
C209 O236 1.289 . S
O210 C209 1.235 . S
C211 C213 1.400 . S
C211 N214 1.351 . S
C211 C216 1.501 1_545 S
C212 C213 1.387 . S
C212 N215 1.341 . S
C213 C211 1.400 . S
C213 C212 1.387 . S
N214 Co205 2.022 . S
N214 C211 1.351 . S
N214 N215 1.365 . S
N215 C212 1.341 . S
N215 N214 1.365 . S
N215 H235 0.862 . S
C216 C211 1.501 1_565 S
C216 H217 0.961 1_565 S
C216 H218 0.961 . S
C216 H219 0.960 . S
H217 C216 0.961 1_545 S
H218 C216 0.961 . S
H219 C216 0.960 . S
C220 N221 1.342 1_655 S
C220 C224 1.401 . S
C220 C225 1.499 . S
N221 Co204 1.989 . S
N221 C220 1.342 1_455 S
N221 N222 1.388 . S
N222 Co205 1.993 . S
N222 N221 1.388 . S
N222 C223 1.346 1_455 S
C223 N222 1.346 1_655 S
C223 C224 1.396 . S
C223 C233 1.510 . S
C224 C220 1.401 . S
C224 C223 1.396 . S
C225 C220 1.499 . S
C225 H226 0.951 1_655 S
C225 H227 0.960 . S
C225 H228 0.961 . S
H226 C225 0.951 1_455 S
H227 C225 0.960 . S
H228 C225 0.961 . S
O229 Co204 1.967 . S
O229 C237 1.258 . S
O230 Co205 1.941 . S
O230 C237 1.266 . S
H231 C233 0.959 . S
H232 C233 0.961 . S
C233 C223 1.510 . S
C233 H231 0.959 . S
C233 H232 0.961 . S
C233 H234 0.960 . S
H234 C233 0.960 . S
H235 N215 0.862 . S
O236 Co204 1.920 . S
O236 C209 1.289 . S
C237 O229 1.258 . S
C237 O230 1.266 . S
Co238 O241 1.970 . S
Co238 N255 1.989 . S
Co238 O263 1.967 . S
Co238 O270 1.920 . S
Co239 O242 1.966 . S
Co239 N248 2.022 . S
Co239 N256 1.993 . S
Co239 O264 1.941 . S
C240 O241 1.258 . S
C240 O242 1.263 . S
O241 Co238 1.970 . S
O241 C240 1.258 . S
O242 Co239 1.966 . S
O242 C240 1.263 . S
C243 O244 1.235 . S
C243 O270 1.289 . S
O244 C243 1.235 . S
C245 C247 1.400 . S
C245 N248 1.351 . S
C245 C250 1.501 . S
C246 C247 1.387 . S
C246 N249 1.341 . S
C247 C245 1.400 . S
C247 C246 1.387 . S
N248 Co239 2.022 . S
N248 C245 1.351 . S
N248 N249 1.365 . S
N249 C246 1.341 . S
N249 N248 1.365 . S
N249 H269 0.862 . S
C250 C245 1.501 . S
C250 H251 0.961 . S
C250 H252 0.961 . S
C250 H253 0.960 . S
H251 C250 0.961 . S
H252 C250 0.961 . S
H253 C250 0.960 . S
C254 N255 1.342 1_565 S
C254 C258 1.401 . S
C254 C259 1.499 . S
N255 Co238 1.989 . S
N255 C254 1.342 1_545 S
N255 N256 1.388 . S
N256 Co239 1.993 . S
N256 N255 1.388 . S
N256 C257 1.346 1_545 S
C257 N256 1.346 1_565 S
C257 C258 1.396 . S
C257 C267 1.510 . S
C258 C254 1.401 . S
C258 C257 1.396 . S
C259 C254 1.499 . S
C259 H260 0.951 1_565 S
C259 H261 0.960 . S
C259 H262 0.961 . S
H260 C259 0.951 1_545 S
H261 C259 0.960 . S
H262 C259 0.961 . S
O263 Co238 1.967 . S
O263 C271 1.258 . S
O264 Co239 1.941 . S
O264 C271 1.266 . S
H265 C267 0.959 . S
H266 C267 0.961 . S
C267 C257 1.510 . S
C267 H265 0.959 . S
C267 H266 0.961 . S
C267 H268 0.960 . S
H268 C267 0.960 . S
H269 N249 0.862 . S
O270 Co238 1.920 . S
O270 C243 1.289 . S
C271 O263 1.258 . S
C271 O264 1.266 . S
Co272 O275 1.970 . S
Co272 N289 1.989 . S
Co272 O297 1.967 . S
Co272 O304 1.920 . S
Co273 O276 1.966 . S
Co273 N282 2.022 . S
Co273 N290 1.993 . S
Co273 O298 1.941 . S
C274 O275 1.258 . S
C274 O276 1.263 . S
O275 Co272 1.970 . S
O275 C274 1.258 . S
O276 Co273 1.966 . S
O276 C274 1.263 . S
C277 O278 1.235 . S
C277 O304 1.289 . S
O278 C277 1.235 . S
C279 C281 1.400 . S
C279 N282 1.351 . S
C279 C284 1.501 1_565 S
C280 C281 1.387 . S
C280 N283 1.341 . S
C281 C279 1.400 . S
C281 C280 1.387 . S
N282 Co273 2.022 . S
N282 C279 1.351 . S
N282 N283 1.365 . S
N283 C280 1.341 . S
N283 N282 1.365 . S
N283 H303 0.862 . S
C284 C279 1.501 1_545 S
C284 H285 0.961 1_545 S
C284 H286 0.961 . S
C284 H287 0.960 . S
H285 C284 0.961 1_565 S
H286 C284 0.961 . S
H287 C284 0.960 . S
C288 N289 1.342 . S
C288 C292 1.401 . S
C288 C293 1.499 . S
N289 Co272 1.989 . S
N289 C288 1.342 . S
N289 N290 1.388 . S
N290 Co273 1.993 . S
N290 N289 1.388 . S
N290 C291 1.346 . S
C291 N290 1.346 . S
C291 C292 1.396 . S
C291 C301 1.510 . S
C292 C288 1.401 . S
C292 C291 1.396 . S
C293 C288 1.499 . S
C293 H294 0.959 . S
C293 H295 0.960 . S
C293 H296 0.961 . S
H294 C293 0.959 . S
H295 C293 0.960 . S
H296 C293 0.961 . S
O297 Co272 1.967 . S
O297 C305 1.258 . S
O298 Co273 1.941 . S
O298 C305 1.266 . S
H299 C301 0.959 . S
H300 C301 0.961 . S
C301 C291 1.510 . S
C301 H299 0.959 . S
C301 H300 0.961 . S
C301 H302 0.960 . S
H302 C301 0.960 . S
H303 N283 0.862 . S
O304 Co272 1.920 . S
O304 C277 1.289 . S
C305 O297 1.258 . S
C305 O298 1.266 . S
Co306 O309 1.970 . S
Co306 N323 1.989 . S
Co306 O331 1.967 . S
Co306 O338 1.920 . S
Co307 O310 1.966 . S
Co307 N316 2.022 . S
Co307 N324 1.993 . S
Co307 O332 1.941 . S
C308 O309 1.258 . S
C308 O310 1.263 . S
O309 Co306 1.970 . S
O309 C308 1.258 . S
O310 Co307 1.966 . S
O310 C308 1.263 . S
C311 O312 1.235 . S
C311 O338 1.289 . S
O312 C311 1.235 . S
C313 C315 1.400 . S
C313 N316 1.351 . S
C313 C318 1.501 . S
C314 C315 1.387 . S
C314 N317 1.341 . S
C315 C313 1.400 . S
C315 C314 1.387 . S
N316 Co307 2.022 . S
N316 C313 1.351 . S
N316 N317 1.365 . S
N317 C314 1.341 . S
N317 N316 1.365 . S
N317 H337 0.862 . S
C318 C313 1.501 . S
C318 H319 0.961 . S
C318 H320 0.961 . S
C318 H321 0.960 . S
H319 C318 0.961 . S
H320 C318 0.961 . S
H321 C318 0.960 . S
C322 N323 1.342 . S
C322 C326 1.401 . S
C322 C327 1.499 . S
N323 Co306 1.989 . S
N323 C322 1.342 . S
N323 N324 1.388 . S
N324 Co307 1.993 . S
N324 N323 1.388 . S
N324 C325 1.346 . S
C325 N324 1.346 . S
C325 C326 1.396 . S
C325 C335 1.510 . S
C326 C322 1.401 . S
C326 C325 1.396 . S
C327 C322 1.499 . S
C327 H328 0.959 . S
C327 H329 0.960 . S
C327 H330 0.961 . S
H328 C327 0.959 . S
H329 C327 0.960 . S
H330 C327 0.961 . S
O331 Co306 1.967 . S
O331 C339 1.258 . S
O332 Co307 1.941 . S
O332 C339 1.266 . S
H333 C335 0.959 . S
H334 C335 0.961 . S
C335 C325 1.510 . S
C335 H333 0.959 . S
C335 H334 0.961 . S
C335 H336 0.960 . S
H336 C335 0.960 . S
H337 N317 0.862 . S
O338 Co306 1.920 . S
O338 C311 1.289 . S
C339 O331 1.258 . S
C339 O332 1.266 . S
Co340 O343 1.970 . S
Co340 N357 1.989 . S
Co340 O365 1.967 . S
Co340 O372 1.920 . S
Co341 O344 1.966 . S
Co341 N350 2.022 . S
Co341 N358 1.993 . S
Co341 O366 1.941 . S
C342 O343 1.258 . S
C342 O344 1.263 . S
O343 Co340 1.970 . S
O343 C342 1.258 . S
O344 Co341 1.966 . S
O344 C342 1.263 . S
C345 O346 1.235 . S
C345 O372 1.289 . S
O346 C345 1.235 . S
C347 C349 1.400 . S
C347 N350 1.351 . S
C347 C352 1.501 . S
C348 C349 1.387 . S
C348 N351 1.341 . S
C349 C347 1.400 . S
C349 C348 1.387 . S
N350 Co341 2.022 . S
N350 C347 1.351 . S
N350 N351 1.365 . S
N351 C348 1.341 . S
N351 N350 1.365 . S
N351 H371 0.862 . S
C352 C347 1.501 . S
C352 H353 0.961 . S
C352 H354 0.961 . S
C352 H355 0.960 . S
H353 C352 0.961 . S
H354 C352 0.961 . S
H355 C352 0.960 . S
C356 N357 1.342 1_455 S
C356 C360 1.401 . S
C356 C361 1.499 . S
N357 Co340 1.989 . S
N357 C356 1.342 1_655 S
N357 N358 1.388 . S
N358 Co341 1.993 . S
N358 N357 1.388 . S
N358 C359 1.346 1_655 S
C359 N358 1.346 1_455 S
C359 C360 1.396 . S
C359 C369 1.510 . S
C360 C356 1.401 . S
C360 C359 1.396 . S
C361 C356 1.499 . S
C361 H362 0.951 1_455 S
C361 H363 0.960 . S
C361 H364 0.961 . S
H362 C361 0.951 1_655 S
H363 C361 0.960 . S
H364 C361 0.961 . S
O365 Co340 1.967 . S
O365 C373 1.258 . S
O366 Co341 1.941 . S
O366 C373 1.266 . S
H367 C369 0.959 . S
H368 C369 0.961 . S
C369 C359 1.510 . S
C369 H367 0.959 . S
C369 H368 0.961 . S
C369 H370 0.960 . S
H370 C369 0.960 . S
H371 N351 0.862 . S
O372 Co340 1.920 . S
O372 C345 1.289 . S
C373 O365 1.258 . S
C373 O366 1.266 . S
Co374 O377 1.970 . S
Co374 N391 1.989 . S
Co374 O399 1.967 . S
Co374 O406 1.920 . S
Co375 O378 1.966 . S
Co375 N384 2.022 . S
Co375 N392 1.993 . S
Co375 O400 1.941 . S
C376 O377 1.258 . S
C376 O378 1.263 . S
O377 Co374 1.970 . S
O377 C376 1.258 . S
O378 Co375 1.966 . S
O378 C376 1.263 . S
C379 O380 1.235 . S
C379 O406 1.289 . S
O380 C379 1.235 . S
C381 C383 1.400 . S
C381 N384 1.351 . S
C381 C386 1.501 1_655 S
C382 C383 1.387 . S
C382 N385 1.341 . S
C383 C381 1.400 . S
C383 C382 1.387 . S
N384 Co375 2.022 . S
N384 C381 1.351 . S
N384 N385 1.365 . S
N385 C382 1.341 . S
N385 N384 1.365 . S
N385 H405 0.862 . S
C386 C381 1.501 1_455 S
C386 H387 0.961 1_455 S
C386 H388 0.961 . S
C386 H389 0.960 . S
H387 C386 0.961 1_655 S
H388 C386 0.961 . S
H389 C386 0.960 . S
C390 N391 1.342 1_545 S
C390 C394 1.401 . S
C390 C395 1.499 . S
N391 Co374 1.989 . S
N391 C390 1.342 1_565 S
N391 N392 1.388 . S
N392 Co375 1.993 . S
N392 N391 1.388 . S
N392 C393 1.346 1_565 S
C393 N392 1.346 1_545 S
C393 C394 1.396 . S
C393 C403 1.510 . S
C394 C390 1.401 . S
C394 C393 1.396 . S
C395 C390 1.499 . S
C395 H396 0.951 1_545 S
C395 H397 0.960 . S
C395 H398 0.961 . S
H396 C395 0.951 1_565 S
H397 C395 0.960 . S
H398 C395 0.961 . S
O399 Co374 1.967 . S
O399 C407 1.258 . S
O400 Co375 1.941 . S
O400 C407 1.266 . S
H401 C403 0.959 . S
H402 C403 0.961 . S
C403 C393 1.510 . S
C403 H401 0.959 . S
C403 H402 0.961 . S
C403 H404 0.960 . S
H404 C403 0.960 . S
H405 N385 0.862 . S
O406 Co374 1.920 . S
O406 C379 1.289 . S
C407 O399 1.258 . S
C407 O400 1.266 . S
Co408 O411 1.970 . S
Co408 N425 1.989 . S
Co408 O433 1.967 . S
Co408 O440 1.920 . S
Co409 O412 1.966 . S
Co409 N418 2.022 . S
Co409 N426 1.993 . S
Co409 O434 1.941 . S
C410 O411 1.258 . S
C410 O412 1.263 . S
O411 Co408 1.970 . S
O411 C410 1.258 . S
O412 Co409 1.966 . S
O412 C410 1.263 . S
C413 O414 1.235 . S
C413 O440 1.289 . S
O414 C413 1.235 . S
C415 C417 1.400 . S
C415 N418 1.351 . S
C415 C420 1.501 . S
C416 C417 1.387 . S
C416 N419 1.341 . S
C417 C415 1.400 . S
C417 C416 1.387 . S
N418 Co409 2.022 . S
N418 C415 1.351 . S
N418 N419 1.365 . S
N419 C416 1.341 . S
N419 N418 1.365 . S
N419 H439 0.862 . S
C420 C415 1.501 . S
C420 H421 0.961 . S
C420 H422 0.961 . S
C420 H423 0.960 . S
H421 C420 0.961 . S
H422 C420 0.961 . S
H423 C420 0.960 . S
C424 N425 1.342 . S
C424 C428 1.401 . S
C424 C429 1.499 . S
N425 Co408 1.989 . S
N425 C424 1.342 . S
N425 N426 1.388 . S
N426 Co409 1.993 . S
N426 N425 1.388 . S
N426 C427 1.346 . S
C427 N426 1.346 . S
C427 C428 1.396 . S
C427 C437 1.510 . S
C428 C424 1.401 . S
C428 C427 1.396 . S
C429 C424 1.499 . S
C429 H430 0.959 . S
C429 H431 0.960 . S
C429 H432 0.961 . S
H430 C429 0.959 . S
H431 C429 0.960 . S
H432 C429 0.961 . S
O433 Co408 1.967 . S
O433 C441 1.258 . S
O434 Co409 1.941 . S
O434 C441 1.266 . S
H435 C437 0.959 . S
H436 C437 0.961 . S
C437 C427 1.510 . S
C437 H435 0.959 . S
C437 H436 0.961 . S
C437 H438 0.960 . S
H438 C437 0.960 . S
H439 N419 0.862 . S
O440 Co408 1.920 . S
O440 C413 1.289 . S
C441 O433 1.258 . S
C441 O434 1.266 . S
Co442 O445 1.970 . S
Co442 N459 1.989 . S
Co442 O467 1.967 . S
Co442 O474 1.920 . S
Co443 O446 1.966 . S
Co443 N452 2.022 . S
Co443 N460 1.993 . S
Co443 O468 1.941 . S
C444 O445 1.258 . S
C444 O446 1.263 . S
O445 Co442 1.970 . S
O445 C444 1.258 . S
O446 Co443 1.966 . S
O446 C444 1.263 . S
C447 O448 1.235 . S
C447 O474 1.289 . S
O448 C447 1.235 . S
C449 C451 1.400 . S
C449 N452 1.351 . S
C449 C454 1.501 1_655 S
C450 C451 1.387 . S
C450 N453 1.341 . S
C451 C449 1.400 . S
C451 C450 1.387 . S
N452 Co443 2.022 . S
N452 C449 1.351 . S
N452 N453 1.365 . S
N453 C450 1.341 . S
N453 N452 1.365 . S
N453 H473 0.862 . S
C454 C449 1.501 1_455 S
C454 H455 0.961 1_455 S
C454 H456 0.961 . S
C454 H457 0.960 . S
H455 C454 0.961 1_655 S
H456 C454 0.961 . S
H457 C454 0.960 . S
C458 N459 1.342 . S
C458 C462 1.401 . S
C458 C463 1.499 . S
N459 Co442 1.989 . S
N459 C458 1.342 . S
N459 N460 1.388 . S
N460 Co443 1.993 . S
N460 N459 1.388 . S
N460 C461 1.346 . S
C461 N460 1.346 . S
C461 C462 1.396 . S
C461 C471 1.510 . S
C462 C458 1.401 . S
C462 C461 1.396 . S
C463 C458 1.499 . S
C463 H464 0.959 . S
C463 H465 0.960 . S
C463 H466 0.961 . S
H464 C463 0.959 . S
H465 C463 0.960 . S
H466 C463 0.961 . S
O467 Co442 1.967 . S
O467 C475 1.258 . S
O468 Co443 1.941 . S
O468 C475 1.266 . S
H469 C471 0.959 . S
H470 C471 0.961 . S
C471 C461 1.510 . S
C471 H469 0.959 . S
C471 H470 0.961 . S
C471 H472 0.960 . S
H472 C471 0.960 . S
H473 N453 0.862 . S
O474 Co442 1.920 . S
O474 C447 1.289 . S
C475 O467 1.258 . S
C475 O468 1.266 . S
Co476 O479 1.970 . S
Co476 N493 1.989 . S
Co476 O501 1.967 . S
Co476 O508 1.920 . S
Co477 O480 1.966 . S
Co477 N486 2.022 . S
Co477 N494 1.993 . S
Co477 O502 1.941 . S
C478 O479 1.258 . S
C478 O480 1.263 . S
O479 Co476 1.970 . S
O479 C478 1.258 . S
O480 Co477 1.966 . S
O480 C478 1.263 . S
C481 O482 1.235 . S
C481 O508 1.289 . S
O482 C481 1.235 . S
C483 C485 1.400 . S
C483 N486 1.351 . S
C483 C488 1.501 1_565 S
C484 C485 1.387 . S
C484 N487 1.341 . S
C485 C483 1.400 . S
C485 C484 1.387 . S
N486 Co477 2.022 . S
N486 C483 1.351 . S
N486 N487 1.365 . S
N487 C484 1.341 . S
N487 N486 1.365 . S
N487 H507 0.862 . S
C488 C483 1.501 1_545 S
C488 H489 0.961 1_545 S
C488 H490 0.961 . S
C488 H491 0.960 . S
H489 C488 0.961 1_565 S
H490 C488 0.961 . S
H491 C488 0.960 . S
C492 N493 1.342 1_455 S
C492 C496 1.401 . S
C492 C497 1.499 . S
N493 Co476 1.989 . S
N493 C492 1.342 1_655 S
N493 N494 1.388 . S
N494 Co477 1.993 . S
N494 N493 1.388 . S
N494 C495 1.346 1_655 S
C495 N494 1.346 1_455 S
C495 C496 1.396 . S
C495 C505 1.510 . S
C496 C492 1.401 . S
C496 C495 1.396 . S
C497 C492 1.499 . S
C497 H498 0.951 1_455 S
C497 H499 0.960 . S
C497 H500 0.961 . S
H498 C497 0.951 1_655 S
H499 C497 0.960 . S
H500 C497 0.961 . S
O501 Co476 1.967 . S
O501 C509 1.258 . S
O502 Co477 1.941 . S
O502 C509 1.266 . S
H503 C505 0.959 . S
H504 C505 0.961 . S
C505 C495 1.510 . S
C505 H503 0.959 . S
C505 H504 0.961 . S
C505 H506 0.960 . S
H506 C505 0.960 . S
H507 N487 0.862 . S
O508 Co476 1.920 . S
O508 C481 1.289 . S
C509 O501 1.258 . S
C509 O502 1.266 . S
Co510 O513 1.970 . S
Co510 N527 1.989 . S
Co510 O535 1.967 . S
Co510 O542 1.920 . S
Co511 O514 1.966 . S
Co511 N520 2.022 . S
Co511 N528 1.993 . S
Co511 O536 1.941 . S
C512 O513 1.258 . S
C512 O514 1.263 . S
O513 Co510 1.970 . S
O513 C512 1.258 . S
O514 Co511 1.966 . S
O514 C512 1.263 . S
C515 O516 1.235 . S
C515 O542 1.289 . S
O516 C515 1.235 . S
C517 C519 1.400 . S
C517 N520 1.351 . S
C517 C522 1.501 . S
C518 C519 1.387 . S
C518 N521 1.341 . S
C519 C517 1.400 . S
C519 C518 1.387 . S
N520 Co511 2.022 . S
N520 C517 1.351 . S
N520 N521 1.365 . S
N521 C518 1.341 . S
N521 N520 1.365 . S
N521 H541 0.862 . S
C522 C517 1.501 . S
C522 H523 0.961 . S
C522 H524 0.961 . S
C522 H525 0.960 . S
H523 C522 0.961 . S
H524 C522 0.961 . S
H525 C522 0.960 . S
C526 N527 1.342 1_545 S
C526 C530 1.401 . S
C526 C531 1.499 . S
N527 Co510 1.989 . S
N527 C526 1.342 1_565 S
N527 N528 1.388 . S
N528 Co511 1.993 . S
N528 N527 1.388 . S
N528 C529 1.346 1_565 S
C529 N528 1.346 1_545 S
C529 C530 1.396 . S
C529 C539 1.510 . S
C530 C526 1.401 . S
C530 C529 1.396 . S
C531 C526 1.499 . S
C531 H532 0.951 1_545 S
C531 H533 0.960 . S
C531 H534 0.961 . S
H532 C531 0.951 1_565 S
H533 C531 0.960 . S
H534 C531 0.961 . S
O535 Co510 1.967 . S
O535 C543 1.258 . S
O536 Co511 1.941 . S
O536 C543 1.266 . S
H537 C539 0.959 . S
H538 C539 0.961 . S
C539 C529 1.510 . S
C539 H537 0.959 . S
C539 H538 0.961 . S
C539 H540 0.960 . S
H540 C539 0.960 . S
H541 N521 0.862 . S
O542 Co510 1.920 . S
O542 C515 1.289 . S
C543 O535 1.258 . S
C543 O536 1.266 . S
H544 C550 0.930 . S
H545 C554 0.930 . S
H546 C559 0.929 . S
H547 C557 0.929 . S
H548 C552 0.929 . S
H549 C558 0.929 . S
C550 H544 0.930 . S
C550 C551 1.367 . S
C550 C558 1.378 . S
C551 C550 1.367 . S
C551 C559 1.433 . S
C552 H548 0.929 . S
C552 C554 1.378 . S
C552 C556 1.350 . S
C553 C556 1.463 . S
C553 C558 1.350 . S
C553 N561 1.427 . S
C554 H545 0.930 . S
C554 C552 1.378 . S
C554 C555 1.367 . S
C555 C554 1.367 . S
C555 C557 1.433 . S
C556 C552 1.350 . S
C556 C553 1.463 . S
C556 N560 1.427 . S
C557 H547 0.929 . S
C557 C555 1.433 . S
C557 N560 1.384 . S
C558 H549 0.929 . S
C558 C550 1.378 . S
C558 C553 1.350 . S
C559 H546 0.929 . S
C559 C551 1.433 . S
C559 N561 1.384 . S
N560 C556 1.427 . S
N560 C557 1.384 . S
N561 C553 1.427 . S
N561 C559 1.384 . S
H562 C568 0.930 . S
H563 C572 0.930 . S
H564 C577 0.929 . S
H565 C575 0.929 . S
H566 C570 0.929 . S
H567 C576 0.929 . S
C568 H562 0.930 . S
C568 C569 1.367 . S
C568 C576 1.378 . S
C569 C568 1.367 . S
C569 C577 1.433 . S
C570 H566 0.929 . S
C570 C572 1.378 . S
C570 C574 1.350 . S
C571 C574 1.463 . S
C571 C576 1.350 . S
C571 N579 1.427 . S
C572 H563 0.930 . S
C572 C570 1.378 . S
C572 C573 1.367 . S
C573 C572 1.367 . S
C573 C575 1.433 . S
C574 C570 1.350 . S
C574 C571 1.463 . S
C574 N578 1.427 . S
C575 H565 0.929 . S
C575 C573 1.433 . S
C575 N578 1.384 . S
C576 H567 0.929 . S
C576 C568 1.378 . S
C576 C571 1.350 . S
C577 H564 0.929 . S
C577 C569 1.433 . S
C577 N579 1.384 . S
N578 C574 1.427 . S
N578 C575 1.384 . S
N579 C571 1.427 . S
N579 C577 1.384 . S
H580 C586 0.930 . S
H581 C590 0.930 . S
H582 C595 0.929 . S
H583 C593 0.929 . S
H584 C588 0.929 . S
H585 C594 0.929 . S
C586 H580 0.930 . S
C586 C587 1.367 . S
C586 C594 1.378 . S
C587 C586 1.367 . S
C587 C595 1.433 . S
C588 H584 0.929 . S
C588 C590 1.378 . S
C588 C592 1.350 . S
C589 C592 1.463 . S
C589 C594 1.350 . S
C589 N597 1.427 . S
C590 H581 0.930 . S
C590 C588 1.378 . S
C590 C591 1.367 . S
C591 C590 1.367 . S
C591 C593 1.433 . S
C592 C588 1.350 . S
C592 C589 1.463 . S
C592 N596 1.427 . S
C593 H583 0.929 . S
C593 C591 1.433 . S
C593 N596 1.384 . S
C594 H585 0.929 . S
C594 C586 1.378 . S
C594 C589 1.350 . S
C595 H582 0.929 . S
C595 C587 1.433 . S
C595 N597 1.384 . S
N596 C592 1.427 . S
N596 C593 1.384 . S
N597 C589 1.427 . S
N597 C595 1.384 . S
H598 C604 0.930 . S
H599 C608 0.930 1_655 S
H600 C613 0.929 . S
H601 C611 0.929 . S
H602 C606 0.929 . S
H603 C612 0.929 . S
C604 H598 0.930 . S
C604 C605 1.367 . S
C604 C612 1.378 . S
C605 C604 1.367 . S
C605 C613 1.433 . S
C606 H602 0.929 . S
C606 C608 1.378 . S
C606 C610 1.350 . S
C607 C610 1.463 . S
C607 C612 1.350 . S
C607 N615 1.427 . S
C608 H599 0.930 1_455 S
C608 C606 1.378 . S
C608 C609 1.367 . S
C609 C608 1.367 . S
C609 C611 1.433 . S
C610 C606 1.350 . S
C610 C607 1.463 . S
C610 N614 1.427 . S
C611 H601 0.929 . S
C611 C609 1.433 . S
C611 N614 1.384 . S
C612 H603 0.929 . S
C612 C604 1.378 . S
C612 C607 1.350 . S
C613 H600 0.929 . S
C613 C605 1.433 . S
C613 N615 1.384 . S
N614 C610 1.427 . S
N614 C611 1.384 . S
N615 C607 1.427 . S
N615 C613 1.384 . S
H616 C622 0.930 . S
H617 C626 0.930 . S
H618 C631 0.929 . S
H619 C629 0.929 . S
H620 C624 0.929 . S
H621 C630 0.929 . S
C622 H616 0.930 . S
C622 C623 1.367 . S
C622 C630 1.378 . S
C623 C622 1.367 . S
C623 C631 1.433 . S
C624 H620 0.929 . S
C624 C626 1.378 . S
C624 C628 1.350 . S
C625 C628 1.463 . S
C625 C630 1.350 . S
C625 N633 1.427 . S
C626 H617 0.930 . S
C626 C624 1.378 . S
C626 C627 1.367 . S
C627 C626 1.367 . S
C627 C629 1.433 . S
C628 C624 1.350 . S
C628 C625 1.463 . S
C628 N632 1.427 . S
C629 H619 0.929 . S
C629 C627 1.433 . S
C629 N632 1.384 . S
C630 H621 0.929 . S
C630 C622 1.378 . S
C630 C625 1.350 . S
C631 H618 0.929 . S
C631 C623 1.433 . S
C631 N633 1.384 . S
N632 C628 1.427 . S
N632 C629 1.384 . S
N633 C625 1.427 . S
N633 C631 1.384 . S
H634 C640 0.930 . S
H635 C644 0.930 . S
H636 C649 0.929 . S
H637 C647 0.929 . S
H638 C642 0.929 . S
H639 C648 0.929 . S
C640 H634 0.930 . S
C640 C641 1.367 . S
C640 C648 1.378 . S
C641 C640 1.367 . S
C641 C649 1.433 . S
C642 H638 0.929 . S
C642 C644 1.378 . S
C642 C646 1.350 . S
C643 C646 1.463 . S
C643 C648 1.350 . S
C643 N651 1.427 . S
C644 H635 0.930 . S
C644 C642 1.378 . S
C644 C645 1.367 . S
C645 C644 1.367 . S
C645 C647 1.433 . S
C646 C642 1.350 . S
C646 C643 1.463 . S
C646 N650 1.427 . S
C647 H637 0.929 . S
C647 C645 1.433 . S
C647 N650 1.384 . S
C648 H639 0.929 . S
C648 C640 1.378 . S
C648 C643 1.350 . S
C649 H636 0.929 . S
C649 C641 1.433 . S
C649 N651 1.384 . S
N650 C646 1.427 . S
N650 C647 1.384 . S
N651 C643 1.427 . S
N651 C649 1.384 . S
H652 C658 0.930 . S
H653 C662 0.930 . S
H654 C667 0.929 . S
H655 C665 0.929 . S
H656 C660 0.929 . S
H657 C666 0.929 . S
C658 H652 0.930 . S
C658 C659 1.367 . S
C658 C666 1.378 . S
C659 C658 1.367 . S
C659 C667 1.433 . S
C660 H656 0.929 . S
C660 C662 1.378 . S
C660 C664 1.350 . S
C661 C664 1.463 . S
C661 C666 1.350 . S
C661 N669 1.427 . S
C662 H653 0.930 . S
C662 C660 1.378 . S
C662 C663 1.367 . S
C663 C662 1.367 . S
C663 C665 1.433 . S
C664 C660 1.350 . S
C664 C661 1.463 . S
C664 N668 1.427 . S
C665 H655 0.929 . S
C665 C663 1.433 . S
C665 N668 1.384 . S
C666 H657 0.929 . S
C666 C658 1.378 . S
C666 C661 1.350 . S
C667 H654 0.929 . S
C667 C659 1.433 . S
C667 N669 1.384 . S
N668 C664 1.427 . S
N668 C665 1.384 . S
N669 C661 1.427 . S
N669 C667 1.384 . S
H670 C676 0.930 . S
H671 C680 0.930 . S
H672 C685 0.929 . S
H673 C683 0.929 . S
H674 C678 0.929 . S
H675 C684 0.929 . S
C676 H670 0.930 . S
C676 C677 1.367 . S
C676 C684 1.378 . S
C677 C676 1.367 . S
C677 C685 1.433 . S
C678 H674 0.929 . S
C678 C680 1.378 . S
C678 C682 1.350 . S
C679 C682 1.463 . S
C679 C684 1.350 . S
C679 N687 1.427 . S
C680 H671 0.930 . S
C680 C678 1.378 . S
C680 C681 1.367 . S
C681 C680 1.367 . S
C681 C683 1.433 . S
C682 C678 1.350 . S
C682 C679 1.463 . S
C682 N686 1.427 . S
C683 H673 0.929 . S
C683 C681 1.433 . S
C683 N686 1.384 . S
C684 H675 0.929 . S
C684 C676 1.378 . S
C684 C679 1.350 . S
C685 H672 0.929 . S
C685 C677 1.433 . S
C685 N687 1.384 . S
N686 C682 1.427 . S
N686 C683 1.384 . S
N687 C679 1.427 . S
N687 C685 1.384 . S
H688 C694 0.930 . S
H689 C698 0.930 . S
H690 C703 0.929 . S
H691 C701 0.929 . S
H692 C696 0.929 . S
H693 C702 0.929 . S
C694 H688 0.930 . S
C694 C695 1.367 1_565 S
C694 C702 1.378 . S
C695 C694 1.367 1_545 S
C695 C703 1.433 . S
C696 H692 0.929 . S
C696 C698 1.378 . S
C696 C700 1.350 1_545 S
C697 C700 1.463 1_544 S
C697 C702 1.350 1_545 S
C697 N705 1.427 . S
C698 H689 0.930 . S
C698 C696 1.378 . S
C698 C699 1.367 1_545 S
C699 C698 1.367 1_565 S
C699 C701 1.433 . S
C700 C696 1.350 1_565 S
C700 C697 1.463 1_566 S
C700 N704 1.427 . S
C701 H691 0.929 . S
C701 C699 1.433 . S
C701 N704 1.384 . S
C702 H693 0.929 . S
C702 C694 1.378 . S
C702 C697 1.350 1_565 S
C703 H690 0.929 . S
C703 C695 1.433 . S
C703 N705 1.384 . S
N704 C700 1.427 . S
N704 C701 1.384 . S
N705 C697 1.427 . S
N705 C703 1.384 . S
H706 C712 0.930 . S
H707 C716 0.930 . S
H708 C721 0.929 . S
H709 C719 0.929 . S
H710 C714 0.929 . S
H711 C720 0.929 . S
C712 H706 0.930 . S
C712 C713 1.367 . S
C712 C720 1.378 . S
C713 C712 1.367 . S
C713 C721 1.433 . S
C714 H710 0.929 . S
C714 C716 1.378 . S
C714 C718 1.350 . S
C715 C718 1.463 . S
C715 C720 1.350 . S
C715 N723 1.427 . S
C716 H707 0.930 . S
C716 C714 1.378 . S
C716 C717 1.367 . S
C717 C716 1.367 . S
C717 C719 1.433 . S
C718 C714 1.350 . S
C718 C715 1.463 . S
C718 N722 1.427 . S
C719 H709 0.929 . S
C719 C717 1.433 . S
C719 N722 1.384 . S
C720 H711 0.929 . S
C720 C712 1.378 . S
C720 C715 1.350 . S
C721 H708 0.929 . S
C721 C713 1.433 . S
C721 N723 1.384 . S
N722 C718 1.427 . S
N722 C719 1.384 . S
N723 C715 1.427 . S
N723 C721 1.384 . S
H724 C730 0.930 . S
H725 C734 0.930 . S
H726 C739 0.929 . S
H727 C737 0.929 . S
H728 C732 0.929 . S
H729 C738 0.929 . S
C730 H724 0.930 . S
C730 C731 1.367 . S
C730 C738 1.378 1_655 S
C731 C730 1.367 . S
C731 C739 1.433 . S
C732 H728 0.929 . S
C732 C734 1.378 1_655 S
C732 C736 1.350 1_655 S
C733 C736 1.463 1_656 S
C733 C738 1.350 1_655 S
C733 N741 1.427 . S
C734 H725 0.930 . S
C734 C732 1.378 1_455 S
C734 C735 1.367 . S
C735 C734 1.367 . S
C735 C737 1.433 . S
C736 C732 1.350 1_455 S
C736 C733 1.463 1_454 S
C736 N740 1.427 . S
C737 H727 0.929 . S
C737 C735 1.433 . S
C737 N740 1.384 . S
C738 H729 0.929 . S
C738 C730 1.378 1_455 S
C738 C733 1.350 1_455 S
C739 H726 0.929 . S
C739 C731 1.433 . S
C739 N741 1.384 . S
N740 C736 1.427 . S
N740 C737 1.384 . S
N741 C733 1.427 . S
N741 C739 1.384 . S
H742 C748 0.930 . S
H743 C752 0.930 . S
H744 C757 0.929 . S
H745 C755 0.929 . S
H746 C750 0.929 . S
H747 C756 0.929 . S
C748 H742 0.930 . S
C748 C749 1.367 1_655 S
C748 C756 1.378 1_545 S
C749 C748 1.367 1_455 S
C749 C757 1.433 . S
C750 H746 0.929 . S
C750 C752 1.378 1_545 S
C750 C754 1.350 1_445 S
C751 C754 1.463 1_445 S
C751 C756 1.350 1_445 S
C751 N759 1.427 . S
C752 H743 0.930 . S
C752 C750 1.378 1_565 S
C752 C753 1.367 1_455 S
C753 C752 1.367 1_655 S
C753 C755 1.433 . S
C754 C750 1.350 1_665 S
C754 C751 1.463 1_665 S
C754 N758 1.427 . S
C755 H745 0.929 . S
C755 C753 1.433 . S
C755 N758 1.384 . S
C756 H747 0.929 . S
C756 C748 1.378 1_565 S
C756 C751 1.350 1_665 S
C757 H744 0.929 . S
C757 C749 1.433 . S
C757 N759 1.384 . S
N758 C754 1.427 . S
N758 C755 1.384 . S
N759 C751 1.427 . S
N759 C757 1.384 . S
H760 C766 0.930 . S
H761 C770 0.930 . S
H762 C775 0.929 . S
H763 C773 0.929 . S
H764 C768 0.929 . S
H765 C774 0.929 . S
C766 H760 0.930 . S
C766 C767 1.367 . S
C766 C774 1.378 . S
C767 C766 1.367 . S
C767 C775 1.433 . S
C768 H764 0.929 . S
C768 C770 1.378 . S
C768 C772 1.350 . S
C769 C772 1.463 1_554 S
C769 C774 1.350 . S
C769 N777 1.427 . S
C770 H761 0.930 . S
C770 C768 1.378 . S
C770 C771 1.367 . S
C771 C770 1.367 . S
C771 C773 1.433 . S
C772 C768 1.350 . S
C772 C769 1.463 1_556 S
C772 N776 1.427 . S
C773 H763 0.929 . S
C773 C771 1.433 . S
C773 N776 1.384 . S
C774 H765 0.929 . S
C774 C766 1.378 . S
C774 C769 1.350 . S
C775 H762 0.929 . S
C775 C767 1.433 . S
C775 N777 1.384 . S
N776 C772 1.427 . S
N776 C773 1.384 . S
N777 C769 1.427 . S
N777 C775 1.384 . S
H778 C784 0.930 . S
H779 C788 0.930 . S
H780 C793 0.929 . S
H781 C791 0.929 . S
H782 C786 0.929 . S
H783 C792 0.929 . S
C784 H778 0.930 . S
C784 C785 1.367 . S
C784 C792 1.378 . S
C785 C784 1.367 . S
C785 C793 1.433 1_655 S
C786 H782 0.929 . S
C786 C788 1.378 . S
C786 C790 1.350 . S
C787 C790 1.463 1_655 S
C787 C792 1.350 . S
C787 N795 1.427 1_655 S
C788 H779 0.930 . S
C788 C786 1.378 . S
C788 C789 1.367 . S
C789 C788 1.367 . S
C789 C791 1.433 1_455 S
C790 C786 1.350 . S
C790 C787 1.463 1_455 S
C790 N794 1.427 1_455 S
C791 H781 0.929 . S
C791 C789 1.433 1_655 S
C791 N794 1.384 . S
C792 H783 0.929 . S
C792 C784 1.378 . S
C792 C787 1.350 . S
C793 H780 0.929 . S
C793 C785 1.433 1_455 S
C793 N795 1.384 . S
N794 C790 1.427 1_655 S
N794 C791 1.384 . S
N795 C787 1.427 1_455 S
N795 C793 1.384 . S
H796 C802 0.929 1_565 S
H797 C806 0.929 1_545 S
H798 C811 0.929 . S
H799 C809 0.929 . S
H800 C804 0.929 . S
H801 C810 0.929 . S
C802 H796 0.929 1_545 S
C802 C803 1.369 1_655 S
C802 C810 1.377 1_545 S
C803 C802 1.369 1_455 S
C803 C811 1.433 . S
C804 H800 0.929 . S
C804 C806 1.377 1_545 S
C804 C808 1.350 1_445 S
C805 C808 1.463 1_446 S
C805 C810 1.350 1_445 S
C805 N813 1.427 . S
C806 H797 0.929 1_565 S
C806 C804 1.377 1_565 S
C806 C807 1.369 1_455 S
C807 C806 1.369 1_655 S
C807 C809 1.433 . S
C808 C804 1.350 1_665 S
C808 C805 1.463 1_664 S
C808 N812 1.427 . S
C809 H799 0.929 . S
C809 C807 1.433 . S
C809 N812 1.384 . S
C810 H801 0.929 . S
C810 C802 1.377 1_565 S
C810 C805 1.350 1_665 S
C811 H798 0.929 . S
C811 C803 1.433 . S
C811 N813 1.384 . S
N812 C808 1.427 . S
N812 C809 1.384 . S
N813 C805 1.427 . S
N813 C811 1.384 . S
H814 C820 0.929 1_545 S
H815 C824 0.929 1_565 S
H816 C829 0.929 . S
H817 C827 0.929 . S
H818 C822 0.929 . S
H819 C828 0.929 . S
C820 H814 0.929 1_565 S
C820 C821 1.369 . S
C820 C828 1.377 1_565 S
C821 C820 1.369 . S
C821 C829 1.433 . S
C822 H818 0.929 . S
C822 C824 1.377 1_565 S
C822 C826 1.350 1_565 S
C823 C826 1.463 1_565 S
C823 C828 1.350 1_565 S
C823 N831 1.427 . S
C824 H815 0.929 1_545 S
C824 C822 1.377 1_545 S
C824 C825 1.369 . S
C825 C824 1.369 . S
C825 C827 1.433 . S
C826 C822 1.350 1_545 S
C826 C823 1.463 1_545 S
C826 N830 1.427 . S
C827 H817 0.929 . S
C827 C825 1.433 . S
C827 N830 1.384 . S
C828 H819 0.929 . S
C828 C820 1.377 1_545 S
C828 C823 1.350 1_545 S
C829 H816 0.929 . S
C829 C821 1.433 . S
C829 N831 1.384 . S
N830 C826 1.427 . S
N830 C827 1.384 . S
N831 C823 1.427 . S
N831 C829 1.384 . S
H832 C838 0.930 . S
H833 C842 0.930 . S
H834 C847 0.929 1_565 S
H835 C845 0.929 . S
H836 C840 0.929 . S
H837 C846 0.929 . S
C838 H832 0.930 . S
C838 C839 1.367 . S
C838 C846 1.378 . S
C839 C838 1.367 . S
C839 C847 1.433 . S
C840 H836 0.929 . S
C840 C842 1.378 . S
C840 C844 1.350 1_565 S
C841 C844 1.463 . S
C841 C846 1.350 . S
C841 N849 1.427 1_545 S
C842 H833 0.930 . S
C842 C840 1.378 . S
C842 C843 1.367 . S
C843 C842 1.367 . S
C843 C845 1.433 1_565 S
C844 C840 1.350 1_545 S
C844 C841 1.463 . S
C844 N848 1.427 . S
C845 H835 0.929 . S
C845 C843 1.433 1_545 S
C845 N848 1.384 . S
C846 H837 0.929 . S
C846 C838 1.378 . S
C846 C841 1.350 . S
C847 H834 0.929 1_545 S
C847 C839 1.433 . S
C847 N849 1.384 1_545 S
N848 C844 1.427 . S
N848 C845 1.384 . S
N849 C841 1.427 1_565 S
N849 C847 1.384 1_565 S
H850 C856 0.930 . S
H851 C860 0.930 . S
H852 C865 0.929 . S
H853 C863 0.929 . S
H854 C858 0.929 . S
H855 C864 0.929 . S
C856 H850 0.930 . S
C856 C857 1.367 . S
C856 C864 1.378 . S
C857 C856 1.367 . S
C857 C865 1.433 . S
C858 H854 0.929 . S
C858 C860 1.378 . S
C858 C862 1.350 . S
C859 C862 1.463 . S
C859 C864 1.350 . S
C859 N867 1.427 . S
C860 H851 0.930 . S
C860 C858 1.378 . S
C860 C861 1.367 . S
C861 C860 1.367 . S
C861 C863 1.433 . S
C862 C858 1.350 . S
C862 C859 1.463 . S
C862 N866 1.427 . S
C863 H853 0.929 . S
C863 C861 1.433 . S
C863 N866 1.384 . S
C864 H855 0.929 . S
C864 C856 1.378 . S
C864 C859 1.350 . S
C865 H852 0.929 . S
C865 C857 1.433 . S
C865 N867 1.384 . S
N866 C862 1.427 . S
N866 C863 1.384 . S
N867 C859 1.427 . S
N867 C865 1.384 . S
H868 C874 0.930 . S
H869 C878 0.930 . S
H870 C883 0.929 . S
H871 C881 0.929 . S
H872 C876 0.929 . S
H873 C882 0.929 . S
C874 H868 0.930 . S
C874 C875 1.367 . S
C874 C882 1.378 . S
C875 C874 1.367 . S
C875 C883 1.433 . S
C876 H872 0.929 . S
C876 C878 1.378 . S
C876 C880 1.350 . S
C877 C880 1.463 . S
C877 C882 1.350 . S
C877 N885 1.427 . S
C878 H869 0.930 . S
C878 C876 1.378 . S
C878 C879 1.367 . S
C879 C878 1.367 . S
C879 C881 1.433 . S
C880 C876 1.350 . S
C880 C877 1.463 . S
C880 N884 1.427 . S
C881 H871 0.929 . S
C881 C879 1.433 . S
C881 N884 1.384 . S
C882 H873 0.929 . S
C882 C874 1.378 . S
C882 C877 1.350 . S
C883 H870 0.929 . S
C883 C875 1.433 . S
C883 N885 1.384 . S
N884 C880 1.427 . S
N884 C881 1.384 . S
N885 C877 1.427 . S
N885 C883 1.384 . S
H886 C892 0.930 . S
H887 C896 0.930 . S
H888 C901 0.929 . S
H889 C899 0.929 . S
H890 C894 0.929 1_655 S
H891 C900 0.929 . S
C892 H886 0.930 . S
C892 C893 1.367 1_455 S
C892 C900 1.378 . S
C893 C892 1.367 1_655 S
C893 C901 1.433 . S
C894 H890 0.929 1_455 S
C894 C896 1.378 . S
C894 C898 1.350 . S
C895 C898 1.463 . S
C895 C900 1.350 . S
C895 N903 1.427 1_455 S
C896 H887 0.930 . S
C896 C894 1.378 . S
C896 C897 1.367 . S
C897 C896 1.367 . S
C897 C899 1.433 . S
C898 C894 1.350 . S
C898 C895 1.463 . S
C898 N902 1.427 . S
C899 H889 0.929 . S
C899 C897 1.433 . S
C899 N902 1.384 . S
C900 H891 0.929 . S
C900 C892 1.378 . S
C900 C895 1.350 . S
C901 H888 0.929 . S
C901 C893 1.433 . S
C901 N903 1.384 . S
N902 C898 1.427 . S
N902 C899 1.384 . S
N903 C895 1.427 1_655 S
N903 C901 1.384 . S
H904 C910 0.930 . S
H905 C914 0.930 . S
H906 C919 0.929 . S
H907 C917 0.929 . S
H908 C912 0.929 . S
H909 C918 0.929 . S
C910 H904 0.930 . S
C910 C911 1.367 . S
C910 C918 1.378 . S
C911 C910 1.367 . S
C911 C919 1.433 . S
C912 H908 0.929 . S
C912 C914 1.378 . S
C912 C916 1.350 . S
C913 C916 1.463 . S
C913 C918 1.350 . S
C913 N921 1.427 . S
C914 H905 0.930 . S
C914 C912 1.378 . S
C914 C915 1.367 . S
C915 C914 1.367 . S
C915 C917 1.433 . S
C916 C912 1.350 . S
C916 C913 1.463 . S
C916 N920 1.427 . S
C917 H907 0.929 . S
C917 C915 1.433 . S
C917 N920 1.384 . S
C918 H909 0.929 . S
C918 C910 1.378 . S
C918 C913 1.350 . S
C919 H906 0.929 . S
C919 C911 1.433 . S
C919 N921 1.384 . S
N920 C916 1.427 . S
N920 C917 1.384 . S
N921 C913 1.427 . S
N921 C919 1.384 . S
H922 C928 0.930 . S
H923 C932 0.930 . S
H924 C937 0.929 1_655 S
H925 C935 0.929 . S
H926 C930 0.929 . S
H927 C936 0.929 . S
C928 H922 0.930 . S
C928 C929 1.367 . S
C928 C936 1.378 . S
C929 C928 1.367 . S
C929 C937 1.433 . S
C930 H926 0.929 . S
C930 C932 1.378 . S
C930 C934 1.350 1_655 S
C931 C934 1.463 . S
C931 C936 1.350 . S
C931 N939 1.427 1_455 S
C932 H923 0.930 . S
C932 C930 1.378 . S
C932 C933 1.367 . S
C933 C932 1.367 . S
C933 C935 1.433 1_655 S
C934 C930 1.350 1_455 S
C934 C931 1.463 . S
C934 N938 1.427 . S
C935 H925 0.929 . S
C935 C933 1.433 1_455 S
C935 N938 1.384 . S
C936 H927 0.929 . S
C936 C928 1.378 . S
C936 C931 1.350 . S
C937 H924 0.929 1_455 S
C937 C929 1.433 . S
C937 N939 1.384 1_455 S
N938 C934 1.427 . S
N938 C935 1.384 . S
N939 C931 1.427 1_655 S
N939 C937 1.384 1_655 S
H940 C946 0.930 1_565 S
H941 C950 0.930 . S
H942 C955 0.929 . S
H943 C953 0.929 . S
H944 C948 0.929 . S
H945 C954 0.929 . S
C946 H940 0.930 1_545 S
C946 C947 1.367 . S
C946 C954 1.378 1_545 S
C947 C946 1.367 . S
C947 C955 1.433 . S
C948 H944 0.929 . S
C948 C950 1.378 . S
C948 C952 1.350 . S
C949 C952 1.463 . S
C949 C954 1.350 1_545 S
C949 N957 1.427 . S
C950 H941 0.930 . S
C950 C948 1.378 . S
C950 C951 1.367 1_545 S
C951 C950 1.367 1_565 S
C951 C953 1.433 . S
C952 C948 1.350 . S
C952 C949 1.463 . S
C952 N956 1.427 1_545 S
C953 H943 0.929 . S
C953 C951 1.433 . S
C953 N956 1.384 . S
C954 H945 0.929 . S
C954 C946 1.378 1_565 S
C954 C949 1.350 1_565 S
C955 H942 0.929 . S
C955 C947 1.433 . S
C955 N957 1.384 . S
N956 C952 1.427 1_565 S
N956 C953 1.384 . S
N957 C949 1.427 . S
N957 C955 1.384 . S
H958 C964 0.930 . S
H959 C968 0.930 . S
H960 C973 0.929 . S
H961 C971 0.929 . S
H962 C966 0.929 . S
H963 C972 0.929 . S
C964 H958 0.930 . S
C964 C965 1.367 . S
C964 C972 1.378 . S
C965 C964 1.367 . S
C965 C973 1.433 . S
C966 H962 0.929 . S
C966 C968 1.378 . S
C966 C970 1.350 . S
C967 C970 1.463 . S
C967 C972 1.350 . S
C967 N975 1.427 . S
C968 H959 0.930 . S
C968 C966 1.378 . S
C968 C969 1.367 . S
C969 C968 1.367 . S
C969 C971 1.433 . S
C970 C966 1.350 . S
C970 C967 1.463 . S
C970 N974 1.427 . S
C971 H961 0.929 . S
C971 C969 1.433 . S
C971 N974 1.384 . S
C972 H963 0.929 . S
C972 C964 1.378 . S
C972 C967 1.350 . S
C973 H960 0.929 . S
C973 C965 1.433 . S
C973 N975 1.384 . S
N974 C970 1.427 . S
N974 C971 1.384 . S
N975 C967 1.427 . S
N975 C973 1.384 . S
H976 C982 0.930 . S
H977 C986 0.930 . S
H978 C991 0.929 . S
H979 C989 0.929 . S
H980 C984 0.929 . S
H981 C990 0.929 . S
C982 H976 0.930 . S
C982 C983 1.367 . S
C982 C990 1.378 . S
C983 C982 1.367 . S
C983 C991 1.433 1_545 S
C984 H980 0.929 . S
C984 C986 1.378 . S
C984 C988 1.350 . S
C985 C988 1.463 . S
C985 C990 1.350 1_565 S
C985 N993 1.427 . S
C986 H977 0.930 . S
C986 C984 1.378 . S
C986 C987 1.367 . S
C987 C986 1.367 . S
C987 C989 1.433 . S
C988 C984 1.350 . S
C988 C985 1.463 . S
C988 N992 1.427 . S
C989 H979 0.929 . S
C989 C987 1.433 . S
C989 N992 1.384 . S
C990 H981 0.929 . S
C990 C982 1.378 . S
C990 C985 1.350 1_545 S
C991 H978 0.929 . S
C991 C983 1.433 1_565 S
C991 N993 1.384 . S
N992 C988 1.427 . S
N992 C989 1.384 . S
N993 C985 1.427 . S
N993 C991 1.384 . S
H994 C1000 0.930 . S
H995 C1004 0.930 . S
H996 C1009 0.929 . S
H997 C1007 0.929 . S
H998 C1002 0.929 . S
H999 C1008 0.929 . S
C1000 H994 0.930 . S
C1000 C1001 1.367 . S
C1000 C1008 1.378 . S
C1001 C1000 1.367 . S
C1001 C1009 1.433 . S
C1002 H998 0.929 . S
C1002 C1004 1.378 . S
C1002 C1006 1.350 . S
C1003 C1006 1.463 . S
C1003 C1008 1.350 . S
C1003 N1011 1.427 . S
C1004 H995 0.930 . S
C1004 C1002 1.378 . S
C1004 C1005 1.367 . S
C1005 C1004 1.367 . S
C1005 C1007 1.433 . S
C1006 C1002 1.350 . S
C1006 C1003 1.463 . S
C1006 N1010 1.427 . S
C1007 H997 0.929 . S
C1007 C1005 1.433 . S
C1007 N1010 1.384 . S
C1008 H999 0.929 . S
C1008 C1000 1.378 . S
C1008 C1003 1.350 . S
C1009 H996 0.929 . S
C1009 C1001 1.433 . S
C1009 N1011 1.384 . S
N1010 C1006 1.427 . S
N1010 C1007 1.384 . S
N1011 C1003 1.427 . S
N1011 C1009 1.384 . S
H1012 C1018 0.930 . S
H1013 C1022 0.930 . S
H1014 C1027 0.929 . S
H1015 C1025 0.929 . S
H1016 C1020 0.929 . S
H1017 C1026 0.929 . S
C1018 H1012 0.930 . S
C1018 C1019 1.367 . S
C1018 C1026 1.378 . S
C1019 C1018 1.367 . S
C1019 C1027 1.433 . S
C1020 H1016 0.929 . S
C1020 C1022 1.378 . S
C1020 C1024 1.350 . S
C1021 C1024 1.463 . S
C1021 C1026 1.350 . S
C1021 N1029 1.427 . S
C1022 H1013 0.930 . S
C1022 C1020 1.378 . S
C1022 C1023 1.367 . S
C1023 C1022 1.367 . S
C1023 C1025 1.433 . S
C1024 C1020 1.350 . S
C1024 C1021 1.463 . S
C1024 N1028 1.427 . S
C1025 H1015 0.929 . S
C1025 C1023 1.433 . S
C1025 N1028 1.384 . S
C1026 H1017 0.929 . S
C1026 C1018 1.378 . S
C1026 C1021 1.350 . S
C1027 H1014 0.929 . S
C1027 C1019 1.433 . S
C1027 N1029 1.384 . S
N1028 C1024 1.427 . S
N1028 C1025 1.384 . S
N1029 C1021 1.427 . S
N1029 C1027 1.384 . S
H1030 C1036 0.930 . S
H1031 C1040 0.930 . S
H1032 C1045 0.929 . S
H1033 C1043 0.929 . S
H1034 C1038 0.929 1_455 S
H1035 C1044 0.929 . S
C1036 H1030 0.930 . S
C1036 C1037 1.367 1_655 S
C1036 C1044 1.378 . S
C1037 C1036 1.367 1_455 S
C1037 C1045 1.433 . S
C1038 H1034 0.929 1_655 S
C1038 C1040 1.378 . S
C1038 C1042 1.350 . S
C1039 C1042 1.463 . S
C1039 C1044 1.350 . S
C1039 N1047 1.427 1_655 S
C1040 H1031 0.930 . S
C1040 C1038 1.378 . S
C1040 C1041 1.367 . S
C1041 C1040 1.367 . S
C1041 C1043 1.433 . S
C1042 C1038 1.350 . S
C1042 C1039 1.463 . S
C1042 N1046 1.427 . S
C1043 H1033 0.929 . S
C1043 C1041 1.433 . S
C1043 N1046 1.384 . S
C1044 H1035 0.929 . S
C1044 C1036 1.378 . S
C1044 C1039 1.350 . S
C1045 H1032 0.929 . S
C1045 C1037 1.433 . S
C1045 N1047 1.384 . S
N1046 C1042 1.427 . S
N1046 C1043 1.384 . S
N1047 C1039 1.427 1_455 S
N1047 C1045 1.384 . S
H1048 C1054 0.930 . S
H1049 C1058 0.930 . S
H1050 C1063 0.929 . S
H1051 C1061 0.929 . S
H1052 C1056 0.929 . S
H1053 C1062 0.929 . S
C1054 H1048 0.930 . S
C1054 C1055 1.367 . S
C1054 C1062 1.378 . S
C1055 C1054 1.367 . S
C1055 C1063 1.433 . S
C1056 H1052 0.929 . S
C1056 C1058 1.378 . S
C1056 C1060 1.350 . S
C1057 C1060 1.463 . S
C1057 C1062 1.350 . S
C1057 N1065 1.427 . S
C1058 H1049 0.930 . S
C1058 C1056 1.378 . S
C1058 C1059 1.367 . S
C1059 C1058 1.367 . S
C1059 C1061 1.433 . S
C1060 C1056 1.350 . S
C1060 C1057 1.463 . S
C1060 N1064 1.427 . S
C1061 H1051 0.929 . S
C1061 C1059 1.433 . S
C1061 N1064 1.384 . S
C1062 H1053 0.929 . S
C1062 C1054 1.378 . S
C1062 C1057 1.350 . S
C1063 H1050 0.929 . S
C1063 C1055 1.433 . S
C1063 N1065 1.384 . S
N1064 C1060 1.427 . S
N1064 C1061 1.384 . S
N1065 C1057 1.427 . S
N1065 C1063 1.384 . S
H1066 C1072 0.930 . S
H1067 C1076 0.930 1_455 S
H1068 C1081 0.929 . S
H1069 C1079 0.929 . S
H1070 C1074 0.929 . S
H1071 C1080 0.929 . S
C1072 H1066 0.930 . S
C1072 C1073 1.367 1_655 S
C1072 C1080 1.378 . S
C1073 C1072 1.367 1_455 S
C1073 C1081 1.433 . S
C1074 H1070 0.929 . S
C1074 C1076 1.378 1_455 S
C1074 C1078 1.350 1_455 S
C1075 C1078 1.463 . S
C1075 C1080 1.350 . S
C1075 N1083 1.427 1_655 S
C1076 H1067 0.930 1_655 S
C1076 C1074 1.378 1_655 S
C1076 C1077 1.367 . S
C1077 C1076 1.367 . S
C1077 C1079 1.433 . S
C1078 C1074 1.350 1_655 S
C1078 C1075 1.463 . S
C1078 N1082 1.427 . S
C1079 H1069 0.929 . S
C1079 C1077 1.433 . S
C1079 N1082 1.384 . S
C1080 H1071 0.929 . S
C1080 C1072 1.378 . S
C1080 C1075 1.350 . S
C1081 H1068 0.929 . S
C1081 C1073 1.433 . S
C1081 N1083 1.384 . S
N1082 C1078 1.427 . S
N1082 C1079 1.384 . S
N1083 C1075 1.427 1_455 S
N1083 C1081 1.384 . S
H1084 C1090 0.930 . S
H1085 C1094 0.930 . S
H1086 C1099 0.929 . S
H1087 C1097 0.929 . S
H1088 C1092 0.929 . S
H1089 C1098 0.929 . S
C1090 H1084 0.930 . S
C1090 C1091 1.367 . S
C1090 C1098 1.378 . S
C1091 C1090 1.367 . S
C1091 C1099 1.433 . S
C1092 H1088 0.929 . S
C1092 C1094 1.378 1_565 S
C1092 C1096 1.350 . S
C1093 C1096 1.463 . S
C1093 C1098 1.350 . S
C1093 N1101 1.427 . S
C1094 H1085 0.930 . S
C1094 C1092 1.378 1_545 S
C1094 C1095 1.367 . S
C1095 C1094 1.367 . S
C1095 C1097 1.433 . S
C1096 C1092 1.350 . S
C1096 C1093 1.463 . S
C1096 N1100 1.427 . S
C1097 H1087 0.929 . S
C1097 C1095 1.433 . S
C1097 N1100 1.384 1_545 S
C1098 H1089 0.929 . S
C1098 C1090 1.378 . S
C1098 C1093 1.350 . S
C1099 H1086 0.929 . S
C1099 C1091 1.433 . S
C1099 N1101 1.384 . S
N1100 C1096 1.427 . S
N1100 C1097 1.384 1_565 S
N1101 C1093 1.427 . S
N1101 C1099 1.384 . S
H1102 C1108 0.930 . S
H1103 C1112 0.930 . S
H1104 C1117 0.929 . S
H1105 C1115 0.929 . S
H1106 C1110 0.929 . S
H1107 C1116 0.929 . S
C1108 H1102 0.930 . S
C1108 C1109 1.367 . S
C1108 C1116 1.378 . S
C1109 C1108 1.367 . S
C1109 C1117 1.433 . S
C1110 H1106 0.929 . S
C1110 C1112 1.378 . S
C1110 C1114 1.350 . S
C1111 C1114 1.463 . S
C1111 C1116 1.350 . S
C1111 N1119 1.427 . S
C1112 H1103 0.930 . S
C1112 C1110 1.378 . S
C1112 C1113 1.367 . S
C1113 C1112 1.367 . S
C1113 C1115 1.433 . S
C1114 C1110 1.350 . S
C1114 C1111 1.463 . S
C1114 N1118 1.427 . S
C1115 H1105 0.929 . S
C1115 C1113 1.433 . S
C1115 N1118 1.384 . S
C1116 H1107 0.929 . S
C1116 C1108 1.378 . S
C1116 C1111 1.350 . S
C1117 H1104 0.929 . S
C1117 C1109 1.433 . S
C1117 N1119 1.384 . S
N1118 C1114 1.427 . S
N1118 C1115 1.384 . S
N1119 C1111 1.427 . S
N1119 C1117 1.384 . S
H1120 C1126 0.930 . S
H1121 C1130 0.930 . S
H1122 C1135 0.929 . S
H1123 C1133 0.929 . S
H1124 C1128 0.929 . S
H1125 C1134 0.929 . S
C1126 H1120 0.930 . S
C1126 C1127 1.367 . S
C1126 C1134 1.378 . S
C1127 C1126 1.367 . S
C1127 C1135 1.433 . S
C1128 H1124 0.929 . S
C1128 C1130 1.378 . S
C1128 C1132 1.350 . S
C1129 C1132 1.463 . S
C1129 C1134 1.350 . S
C1129 N1137 1.427 . S
C1130 H1121 0.930 . S
C1130 C1128 1.378 . S
C1130 C1131 1.367 . S
C1131 C1130 1.367 . S
C1131 C1133 1.433 . S
C1132 C1128 1.350 . S
C1132 C1129 1.463 . S
C1132 N1136 1.427 . S
C1133 H1123 0.929 . S
C1133 C1131 1.433 . S
C1133 N1136 1.384 . S
C1134 H1125 0.929 . S
C1134 C1126 1.378 . S
C1134 C1129 1.350 . S
C1135 H1122 0.929 . S
C1135 C1127 1.433 . S
C1135 N1137 1.384 . S
N1136 C1132 1.427 . S
N1136 C1133 1.384 . S
N1137 C1129 1.427 . S
N1137 C1135 1.384 . S
H1138 C1144 0.930 . S
H1139 C1148 0.930 . S
H1140 C1153 0.929 . S
H1141 C1151 0.929 . S
H1142 C1146 0.929 . S
H1143 C1152 0.929 . S
C1144 H1138 0.930 . S
C1144 C1145 1.367 . S
C1144 C1152 1.378 . S
C1145 C1144 1.367 . S
C1145 C1153 1.433 . S
C1146 H1142 0.929 . S
C1146 C1148 1.378 . S
C1146 C1150 1.350 . S
C1147 C1150 1.463 . S
C1147 C1152 1.350 . S
C1147 N1155 1.427 . S
C1148 H1139 0.930 . S
C1148 C1146 1.378 . S
C1148 C1149 1.367 . S
C1149 C1148 1.367 . S
C1149 C1151 1.433 . S
C1150 C1146 1.350 . S
C1150 C1147 1.463 . S
C1150 N1154 1.427 . S
C1151 H1141 0.929 . S
C1151 C1149 1.433 . S
C1151 N1154 1.384 . S
C1152 H1143 0.929 . S
C1152 C1144 1.378 . S
C1152 C1147 1.350 . S
C1153 H1140 0.929 . S
C1153 C1145 1.433 . S
C1153 N1155 1.384 . S
N1154 C1150 1.427 . S
N1154 C1151 1.384 . S
N1155 C1147 1.427 . S
N1155 C1153 1.384 . S
H1156 C1162 0.930 . S
H1157 C1166 0.930 . S
H1158 C1171 0.929 . S
H1159 C1169 0.929 . S
H1160 C1164 0.929 . S
H1161 C1170 0.929 . S
C1162 H1156 0.930 . S
C1162 C1163 1.367 . S
C1162 C1170 1.378 . S
C1163 C1162 1.367 . S
C1163 C1171 1.433 . S
C1164 H1160 0.929 . S
C1164 C1166 1.378 . S
C1164 C1168 1.350 . S
C1165 C1168 1.463 . S
C1165 C1170 1.350 . S
C1165 N1173 1.427 . S
C1166 H1157 0.930 . S
C1166 C1164 1.378 . S
C1166 C1167 1.367 . S
C1167 C1166 1.367 . S
C1167 C1169 1.433 . S
C1168 C1164 1.350 . S
C1168 C1165 1.463 . S
C1168 N1172 1.427 . S
C1169 H1159 0.929 . S
C1169 C1167 1.433 . S
C1169 N1172 1.384 . S
C1170 H1161 0.929 . S
C1170 C1162 1.378 . S
C1170 C1165 1.350 . S
C1171 H1158 0.929 . S
C1171 C1163 1.433 . S
C1171 N1173 1.384 . S
N1172 C1168 1.427 . S
N1172 C1169 1.384 . S
N1173 C1165 1.427 . S
N1173 C1171 1.384 . S
H1174 C1180 0.930 . S
H1175 C1184 0.930 . S
H1176 C1189 0.929 . S
H1177 C1187 0.929 . S
H1178 C1182 0.929 . S
H1179 C1188 0.929 . S
C1180 H1174 0.930 . S
C1180 C1181 1.367 . S
C1180 C1188 1.378 . S
C1181 C1180 1.367 . S
C1181 C1189 1.433 . S
C1182 H1178 0.929 . S
C1182 C1184 1.378 . S
C1182 C1186 1.350 . S
C1183 C1186 1.463 . S
C1183 C1188 1.350 . S
C1183 N1191 1.427 . S
C1184 H1175 0.930 . S
C1184 C1182 1.378 . S
C1184 C1185 1.367 . S
C1185 C1184 1.367 . S
C1185 C1187 1.433 . S
C1186 C1182 1.350 . S
C1186 C1183 1.463 . S
C1186 N1190 1.427 . S
C1187 H1177 0.929 . S
C1187 C1185 1.433 . S
C1187 N1190 1.384 . S
C1188 H1179 0.929 . S
C1188 C1180 1.378 . S
C1188 C1183 1.350 . S
C1189 H1176 0.929 . S
C1189 C1181 1.433 . S
C1189 N1191 1.384 . S
N1190 C1186 1.427 . S
N1190 C1187 1.384 . S
N1191 C1183 1.427 . S
N1191 C1189 1.384 . S
H1192 C1198 0.930 . S
H1193 C1202 0.930 . S
H1194 C1207 0.929 . S
H1195 C1205 0.929 . S
H1196 C1200 0.929 . S
H1197 C1206 0.929 . S
C1198 H1192 0.930 . S
C1198 C1199 1.367 . S
C1198 C1206 1.378 . S
C1199 C1198 1.367 . S
C1199 C1207 1.433 . S
C1200 H1196 0.929 . S
C1200 C1202 1.378 . S
C1200 C1204 1.350 . S
C1201 C1204 1.463 . S
C1201 C1206 1.350 . S
C1201 N1209 1.427 . S
C1202 H1193 0.930 . S
C1202 C1200 1.378 . S
C1202 C1203 1.367 . S
C1203 C1202 1.367 . S
C1203 C1205 1.433 . S
C1204 C1200 1.350 . S
C1204 C1201 1.463 . S
C1204 N1208 1.427 . S
C1205 H1195 0.929 . S
C1205 C1203 1.433 . S
C1205 N1208 1.384 . S
C1206 H1197 0.929 . S
C1206 C1198 1.378 . S
C1206 C1201 1.350 . S
C1207 H1194 0.929 . S
C1207 C1199 1.433 . S
C1207 N1209 1.384 . S
N1208 C1204 1.427 . S
N1208 C1205 1.384 . S
N1209 C1201 1.427 . S
N1209 C1207 1.384 . S
H1210 C1216 0.930 . S
H1211 C1220 0.930 . S
H1212 C1225 0.929 . S
H1213 C1223 0.929 . S
H1214 C1218 0.929 . S
H1215 C1224 0.929 . S
C1216 H1210 0.930 . S
C1216 C1217 1.367 . S
C1216 C1224 1.378 . S
C1217 C1216 1.367 . S
C1217 C1225 1.433 . S
C1218 H1214 0.929 . S
C1218 C1220 1.378 . S
C1218 C1222 1.350 . S
C1219 C1222 1.463 . S
C1219 C1224 1.350 . S
C1219 N1227 1.427 . S
C1220 H1211 0.930 . S
C1220 C1218 1.378 . S
C1220 C1221 1.367 . S
C1221 C1220 1.367 . S
C1221 C1223 1.433 . S
C1222 C1218 1.350 . S
C1222 C1219 1.463 . S
C1222 N1226 1.427 . S
C1223 H1213 0.929 . S
C1223 C1221 1.433 . S
C1223 N1226 1.384 . S
C1224 H1215 0.929 . S
C1224 C1216 1.378 . S
C1224 C1219 1.350 . S
C1225 H1212 0.929 . S
C1225 C1217 1.433 . S
C1225 N1227 1.384 . S
N1226 C1222 1.427 . S
N1226 C1223 1.384 . S
N1227 C1219 1.427 . S
N1227 C1225 1.384 . S
H1228 C1234 0.930 . S
H1229 C1238 0.930 . S
H1230 C1243 0.929 . S
H1231 C1241 0.929 . S
H1232 C1236 0.929 . S
H1233 C1242 0.929 . S
C1234 H1228 0.930 . S
C1234 C1235 1.367 . S
C1234 C1242 1.378 . S
C1235 C1234 1.367 . S
C1235 C1243 1.433 . S
C1236 H1232 0.929 . S
C1236 C1238 1.378 . S
C1236 C1240 1.350 . S
C1237 C1240 1.463 . S
C1237 C1242 1.350 . S
C1237 N1245 1.427 . S
C1238 H1229 0.930 . S
C1238 C1236 1.378 . S
C1238 C1239 1.367 . S
C1239 C1238 1.367 . S
C1239 C1241 1.433 . S
C1240 C1236 1.350 . S
C1240 C1237 1.463 . S
C1240 N1244 1.427 . S
C1241 H1231 0.929 . S
C1241 C1239 1.433 . S
C1241 N1244 1.384 . S
C1242 H1233 0.929 . S
C1242 C1234 1.378 . S
C1242 C1237 1.350 . S
C1243 H1230 0.929 . S
C1243 C1235 1.433 . S
C1243 N1245 1.384 . S
N1244 C1240 1.427 . S
N1244 C1241 1.384 . S
N1245 C1237 1.427 . S
N1245 C1243 1.384 . S
H1246 C1252 0.930 . S
H1247 C1256 0.930 . S
H1248 C1261 0.929 . S
H1249 C1259 0.929 . S
H1250 C1254 0.929 . S
H1251 C1260 0.929 . S
C1252 H1246 0.930 . S
C1252 C1253 1.367 . S
C1252 C1260 1.378 . S
C1253 C1252 1.367 . S
C1253 C1261 1.433 . S
C1254 H1250 0.929 . S
C1254 C1256 1.378 . S
C1254 C1258 1.350 . S
C1255 C1258 1.463 . S
C1255 C1260 1.350 . S
C1255 N1263 1.427 . S
C1256 H1247 0.930 . S
C1256 C1254 1.378 . S
C1256 C1257 1.367 . S
C1257 C1256 1.367 . S
C1257 C1259 1.433 . S
C1258 C1254 1.350 . S
C1258 C1255 1.463 . S
C1258 N1262 1.427 . S
C1259 H1249 0.929 . S
C1259 C1257 1.433 . S
C1259 N1262 1.384 . S
C1260 H1251 0.929 . S
C1260 C1252 1.378 . S
C1260 C1255 1.350 . S
C1261 H1248 0.929 . S
C1261 C1253 1.433 . S
C1261 N1263 1.384 . S
N1262 C1258 1.427 . S
N1262 C1259 1.384 . S
N1263 C1255 1.427 . S
N1263 C1261 1.384 . S
C551 C5 1.536 . S
C555 C243 1.541 . S
C569 C141 1.541 . S
C573 C39 1.536 . S
C587 C175 1.539 . S
C591 C73 1.539 . S
C605 C209 1.541 . S
C609 C107 1.536 . S
C623 C277 1.539 . S
C627 C515 1.539 . S
C641 C311 1.541 . S
C645 C413 1.536 . S
C659 C447 1.537 . S
C663 C345 1.541 . S
C677 C379 1.541 . S
C681 C481 1.536 . S
C695 C9 1.522 . S
C699 C281 1.522 . S
C713 C315 1.518 . S
C717 C43 1.518 . S
C731 C349 1.518 . S
C735 C77 1.518 . S
C749 C111 1.517 . S
C753 C383 1.517 . S
C767 C417 1.518 . S
C771 C145 1.518 . S
C785 C451 1.506 . S
C789 C179 1.506 . S
C803 C213 1.512 . S
C807 C485 1.512 . S
C821 C519 1.505 . S
C825 C247 1.505 . S
C839 C20 0.956 . S
C843 C478 0.943 . S
C857 C512 0.943 . S
C861 C54 0.953 . S
C875 C88 0.946 . S
C879 C410 0.953 . S
C893 C444 0.949 . S
C897 C122 0.948 . S
C911 C156 0.949 . S
C915 C342 0.954 . S
C929 C190 0.954 . S
C933 C376 0.942 . S
C947 C224 0.947 . S
C951 C274 0.954 . S
C965 C258 0.951 . S
C969 C308 0.945 . S
C983 C206 0.948 . S
C987 C292 0.954 . S
C1001 C240 0.943 . S
C1005 C326 0.956 . S
C1019 C360 0.956 . S
C1023 C138 0.943 . S
C1037 C172 0.948 . S
C1041 C394 0.948 . S
C1055 C70 0.944 . S
C1059 C428 0.952 . S
C1073 C104 0.954 . S
C1077 C462 0.947 . S
C1091 C496 0.952 . S
C1095 C2 0.950 . S
C1109 C36 0.943 . S
C1113 C530 0.952 . S
C1127 C101 1.227 . S
C1131 C33 1.226 . S
C1145 C135 1.208 . S
C1149 C67 1.209 . S
C1163 C169 1.207 . S
C1167 C237 1.207 . S
C1181 C271 1.207 . S
C1185 C203 1.207 . S
C1199 C305 1.214 . S
C1203 C373 1.212 . S
C1217 C407 1.226 . S
C1221 C339 1.227 . S
C1235 C441 1.214 . S
C1239 C509 1.212 . S
C1253 C475 1.219 . S
C1257 C543 1.221 . S
