# Generated by pormake.
# Topology ung, (4)-cn, num edge types: 1
# Building blocks:
#     Node 0, Type 0, BuildingBlock: CEKHIL_clean_sbu_0, # of connection points: 4
#     Node 1, Type 0, BuildingBlock: CEKHIL_clean_sbu_0, # of connection points: 4
#     Node 2, Type 0, BuildingBlock: CEKHIL_clean_sbu_0, # of connection points: 4
#     Node 3, Type 0, BuildingBlock: CEKHIL_clean_sbu_0, # of connection points: 4
#     Node 4, Type 0, BuildingBlock: CEKHIL_clean_sbu_0, # of connection points: 4
#     Node 5, Type 0, BuildingBlock: CEKHIL_clean_sbu_0, # of connection points: 4
#     Node 6, Type 0, BuildingBlock: CEKHIL_clean_sbu_0, # of connection points: 4
#     Node 7, Type 0, BuildingBlock: CEKHIL_clean_sbu_0, # of connection points: 4
#     Node 8, Type 0, BuildingBlock: CEKHIL_clean_sbu_0, # of connection points: 4
#     Node 9, Type 0, BuildingBlock: CEKHIL_clean_sbu_0, # of connection points: 4
#     Node 10, Type 0, BuildingBlock: CEKHIL_clean_sbu_0, # of connection points: 4
#     Node 11, Type 0, BuildingBlock: CEKHIL_clean_sbu_0, # of connection points: 4
#     Node 12, Type 0, BuildingBlock: CEKHIL_clean_sbu_0, # of connection points: 4
#     Node 13, Type 0, BuildingBlock: CEKHIL_clean_sbu_0, # of connection points: 4
#     Node 14, Type 0, BuildingBlock: CEKHIL_clean_sbu_0, # of connection points: 4
#     Node 15, Type 0, BuildingBlock: CEKHIL_clean_sbu_0, # of connection points: 4
#     Node 16, Type 0, BuildingBlock: CEKHIL_clean_sbu_0, # of connection points: 4
#     Node 17, Type 0, BuildingBlock: CEKHIL_clean_sbu_0, # of connection points: 4
#     Edge 18, Type (0, 0), BuildingBlock: AJUNOK_clean_linker_0, # of connection points: 2
#     Edge 19, Type (0, 0), BuildingBlock: AJUNOK_clean_linker_0, # of connection points: 2
#     Edge 20, Type (0, 0), BuildingBlock: AJUNOK_clean_linker_0, # of connection points: 2
#     Edge 21, Type (0, 0), BuildingBlock: AJUNOK_clean_linker_0, # of connection points: 2
#     Edge 22, Type (0, 0), BuildingBlock: AJUNOK_clean_linker_0, # of connection points: 2
#     Edge 23, Type (0, 0), BuildingBlock: AJUNOK_clean_linker_0, # of connection points: 2
#     Edge 24, Type (0, 0), BuildingBlock: AJUNOK_clean_linker_0, # of connection points: 2
#     Edge 25, Type (0, 0), BuildingBlock: AJUNOK_clean_linker_0, # of connection points: 2
#     Edge 26, Type (0, 0), BuildingBlock: AJUNOK_clean_linker_0, # of connection points: 2
#     Edge 27, Type (0, 0), BuildingBlock: AJUNOK_clean_linker_0, # of connection points: 2
#     Edge 28, Type (0, 0), BuildingBlock: AJUNOK_clean_linker_0, # of connection points: 2
#     Edge 29, Type (0, 0), BuildingBlock: AJUNOK_clean_linker_0, # of connection points: 2
#     Edge 30, Type (0, 0), BuildingBlock: AJUNOK_clean_linker_0, # of connection points: 2
#     Edge 31, Type (0, 0), BuildingBlock: AJUNOK_clean_linker_0, # of connection points: 2
#     Edge 32, Type (0, 0), BuildingBlock: AJUNOK_clean_linker_0, # of connection points: 2
#     Edge 33, Type (0, 0), BuildingBlock: AJUNOK_clean_linker_0, # of connection points: 2
#     Edge 34, Type (0, 0), BuildingBlock: AJUNOK_clean_linker_0, # of connection points: 2
#     Edge 35, Type (0, 0), BuildingBlock: AJUNOK_clean_linker_0, # of connection points: 2
#     Edge 36, Type (0, 0), BuildingBlock: AJUNOK_clean_linker_0, # of connection points: 2
#     Edge 37, Type (0, 0), BuildingBlock: AJUNOK_clean_linker_0, # of connection points: 2
#     Edge 38, Type (0, 0), BuildingBlock: AJUNOK_clean_linker_0, # of connection points: 2
#     Edge 39, Type (0, 0), BuildingBlock: AJUNOK_clean_linker_0, # of connection points: 2
#     Edge 40, Type (0, 0), BuildingBlock: AJUNOK_clean_linker_0, # of connection points: 2
#     Edge 41, Type (0, 0), BuildingBlock: AJUNOK_clean_linker_0, # of connection points: 2
#     Edge 42, Type (0, 0), BuildingBlock: AJUNOK_clean_linker_0, # of connection points: 2
#     Edge 43, Type (0, 0), BuildingBlock: AJUNOK_clean_linker_0, # of connection points: 2
#     Edge 44, Type (0, 0), BuildingBlock: AJUNOK_clean_linker_0, # of connection points: 2
#     Edge 45, Type (0, 0), BuildingBlock: AJUNOK_clean_linker_0, # of connection points: 2
#     Edge 46, Type (0, 0), BuildingBlock: AJUNOK_clean_linker_0, # of connection points: 2
#     Edge 47, Type (0, 0), BuildingBlock: AJUNOK_clean_linker_0, # of connection points: 2
#     Edge 48, Type (0, 0), BuildingBlock: AJUNOK_clean_linker_0, # of connection points: 2
#     Edge 49, Type (0, 0), BuildingBlock: AJUNOK_clean_linker_0, # of connection points: 2
#     Edge 50, Type (0, 0), BuildingBlock: AJUNOK_clean_linker_0, # of connection points: 2
#     Edge 51, Type (0, 0), BuildingBlock: AJUNOK_clean_linker_0, # of connection points: 2
#     Edge 52, Type (0, 0), BuildingBlock: AJUNOK_clean_linker_0, # of connection points: 2
#     Edge 53, Type (0, 0), BuildingBlock: AJUNOK_clean_linker_0, # of connection points: 2
# Relax obj value: 0.073
# Max RMSD: 0.191
# Mean RMSD: 0.184
data_MOF--net-ung--node1-CEKHIL_clean_sbu_0--edge1-AJUNOK_clean_linker_0
_symmetry_space_group_name_H-M    P1
_symmetry_Int_Tables_number       1
_symmetry_cell_setting            triclinic
loop_
_symmetry_equiv_pos_as_xyz
'x, y, z'
_cell_length_a     53.311166
_cell_length_b     53.725947
_cell_length_c     16.263369
_cell_angle_alpha  91.230543
_cell_angle_beta   91.264162
_cell_angle_gamma 119.88385
loop_
_atom_site_label
_atom_site_type_symbol
_atom_site_fract_x
_atom_site_fract_y
_atom_site_fract_z
_atom_type_partial_charge
Co0 Co 0.07891 0.61072 0.25689 0.0
O1 O 0.09631 0.59621 0.33091 0.0
O2 O 0.04915 0.57625 0.30651 0.0
C3 C 0.10492 0.65577 0.31043 0.0
O4 O 0.05426 0.62148 0.18258 0.0
Co5 Co 0.11882 0.65305 0.13404 0.0
O6 O 0.08401 0.65326 0.09257 0.0
C7 C 0.09151 0.59147 0.09303 0.0
C8 C 0.07058 0.57635 0.34726 0.0
C9 C 0.05895 0.63751 0.12004 0.0
O10 O 0.08072 0.5867 0.16431 0.0
O11 O 0.10849 0.61676 0.06879 0.0
O12 O 0.08081 0.63718 0.34107 0.0
O13 O 0.11422 0.64626 0.25108 0.0
Co14 Co 0.51165 0.48151 0.21458 0.0
O15 O 0.54441 0.49496 0.14635 0.0
O16 O 0.51867 0.51645 0.16009 0.0
C17 C 0.49163 0.43619 0.16419 0.0
O18 O 0.47553 0.47154 0.28229 0.0
Co19 Co 0.50769 0.43958 0.34414 0.0
O20 O 0.47206 0.43929 0.37481 0.0
C21 C 0.5435 0.50108 0.38251 0.0
C22 C 0.54006 0.51551 0.12533 0.0
C23 C 0.46316 0.45509 0.34326 0.0
O24 O 0.53711 0.50531 0.3099 0.0
O25 O 0.5352 0.47594 0.40852 0.0
O26 O 0.48724 0.45502 0.12839 0.0
O27 O 0.5101 0.44572 0.22647 0.0
Co28 Co 0.63728 0.04234 0.27569 0.0
O29 O 0.60533 0.02603 0.34687 0.0
O30 O 0.63435 0.07253 0.33772 0.0
C31 C 0.6537 0.0131 0.32039 0.0
O32 O 0.67346 0.06566 0.20646 0.0
Co33 Co 0.63561 0.0028 0.14048 0.0
O34 O 0.6727 0.03507 0.10831 0.0
C35 C 0.60204 0.0313 0.11345 0.0
C36 C 0.61231 0.05156 0.37243 0.0
C37 C 0.6842 0.05998 0.14272 0.0
O38 O 0.61151 0.04337 0.18494 0.0
O39 O 0.608 0.01272 0.08383 0.0
O40 O 0.66122 0.03754 0.35669 0.0
O41 O 0.63462 0.00553 0.25996 0.0
Co42 Co 0.05715 0.47115 0.70953 0.0
O43 O 0.03698 0.48248 0.6347 0.0
O44 O 0.08446 0.50604 0.65665 0.0
C45 C 0.03501 0.42542 0.66497 0.0
O46 O 0.08431 0.46365 0.78336 0.0
Co47 Co 0.02016 0.42942 0.83935 0.0
O48 O 0.05621 0.4299 0.8718 0.0
C49 C 0.04321 0.49085 0.87144 0.0
C50 C 0.06178 0.50373 0.617 0.0
C51 C 0.08077 0.44686 0.84316 0.0
O52 O 0.05391 0.49497 0.80012 0.0
O53 O 0.02782 0.46579 0.89944 0.0
O54 O 0.05721 0.44486 0.62846 0.0
O55 O 0.02413 0.43439 0.72125 0.0
Co56 Co 0.63982 0.62084 0.77242 0.0
O57 O 0.60785 0.6097 0.84223 0.0
O58 O 0.63212 0.58665 0.83311 0.0
C59 C 0.66173 0.66716 0.81468 0.0
O60 O 0.6752 0.62898 0.70414 0.0
Co61 Co 0.64358 0.66169 0.63813 0.0
O62 O 0.67938 0.66155 0.61169 0.0
C63 C 0.6042 0.60002 0.61019 0.0
C64 C 0.61143 0.58911 0.86713 0.0
C65 C 0.68796 0.64555 0.64381 0.0
O66 O 0.61297 0.59583 0.6798 0.0
O67 O 0.61231 0.62511 0.58424 0.0
O68 O 0.66579 0.64882 0.85447 0.0
O69 O 0.64215 0.6566 0.75565 0.0
Co70 Co 0.51333 0.06257 0.72653 0.0
O71 O 0.54701 0.08374 0.66273 0.0
O72 O 0.52265 0.03653 0.66693 0.0
C73 C 0.49117 0.08664 0.68242 0.0
O74 O 0.47666 0.03406 0.78635 0.0
Co75 Co 0.50428 0.0966 0.86458 0.0
O76 O 0.46968 0.05962 0.88607 0.0
C77 C 0.54302 0.07366 0.89834 0.0
C78 C 0.54387 0.05947 0.63659 0.0
C79 C 0.46275 0.03597 0.84827 0.0
O80 O 0.53804 0.06367 0.82367 0.0
O81 O 0.53275 0.08901 0.92659 0.0
O82 O 0.48936 0.06512 0.64013 0.0
O83 O 0.50876 0.09515 0.74664 0.0
Co84 Co 0.70829 0.92484 0.59234 0.0
O85 O 0.6865 0.88845 0.53564 0.0
O86 O 0.73409 0.91126 0.55857 0.0
C87 C 0.68818 0.94645 0.51943 0.0
O88 O 0.73746 0.96294 0.6491 0.0
Co89 Co 0.67411 0.9442 0.69827 0.0
O90 O 0.71267 0.97607 0.73319 0.0
C91 C 0.69408 0.90732 0.7708 0.0
C92 C 0.7109 0.88931 0.52546 0.0
C93 C 0.73626 0.97935 0.70586 0.0
O94 O 0.70376 0.90591 0.70042 0.0
O95 O 0.68003 0.92056 0.78302 0.0
O96 O 0.7097 0.94432 0.49271 0.0
O97 O 0.67712 0.93279 0.58618 0.0
Co98 Co 0.17841 0.80816 0.54578 0.0
O99 O 0.21203 0.82245 0.48113 0.0
O100 O 0.18503 0.84281 0.49122 0.0
C101 C 0.15973 0.76319 0.49325 0.0
O102 O 0.14124 0.79728 0.6088 0.0
Co103 Co 0.17301 0.76533 0.67411 0.0
O104 O 0.13673 0.76442 0.70033 0.0
C105 C 0.20924 0.82676 0.71521 0.0
C106 C 0.20694 0.84237 0.45831 0.0
C107 C 0.12812 0.78034 0.66806 0.0
O108 O 0.20271 0.83182 0.64363 0.0
O109 O 0.20086 0.80134 0.73889 0.0
O110 O 0.15531 0.78192 0.45719 0.0
O111 O 0.17735 0.77253 0.55738 0.0
Co112 Co 0.31172 0.39604 0.56202 0.0
O113 O 0.2972 0.41723 0.5049 0.0
O114 O 0.27367 0.36991 0.51089 0.0
C115 C 0.35599 0.41917 0.50479 0.0
O116 O 0.32157 0.36776 0.61746 0.0
Co117 Co 0.36088 0.4314 0.68823 0.0
O118 O 0.35725 0.39398 0.71244 0.0
C119 C 0.30139 0.4106 0.73788 0.0
C120 C 0.27464 0.393 0.48347 0.0
C121 C 0.33904 0.37007 0.67735 0.0
O122 O 0.2928 0.3985 0.66592 0.0
O123 O 0.3282 0.42686 0.75821 0.0
O124 O 0.33411 0.39729 0.46821 0.0
O125 O 0.35006 0.42843 0.57202 0.0
Co126 Co 0.72176 0.81248 0.08565 0.0
O127 O 0.69757 0.82462 0.03245 0.0
O128 O 0.74484 0.85237 0.05341 0.0
C129 C 0.70395 0.77132 0.01023 0.0
O130 O 0.75234 0.80502 0.14079 0.0
Co131 Co 0.68832 0.75711 0.18412 0.0
O132 O 0.72772 0.76418 0.21051 0.0
C133 C 0.70249 0.81265 0.26084 0.0
C134 C 0.72043 0.84913 0.02331 0.0
C135 C 0.75124 0.7857 0.18909 0.0
O136 O 0.71503 0.82511 0.19539 0.0
O137 O 0.68843 0.78536 0.26713 0.0
O138 O 0.72474 0.79502 0.9837 0.0
O139 O 0.69255 0.77364 0.07735 0.0
Co140 Co 0.30385 0.94635 0.10403 0.0
O141 O 0.27077 0.93291 0.16988 0.0
O142 O 0.29666 0.91148 0.1599 0.0
C143 C 0.32305 0.99149 0.15643 0.0
O144 O 0.34057 0.95697 0.03886 0.0
Co145 Co 0.30731 0.98768 0.97536 0.0
O146 O 0.34409 0.9898 0.94862 0.0
C147 C 0.26973 0.92657 0.93905 0.0
C148 C 0.27488 0.9124 0.19217 0.0
C149 C 0.35338 0.97431 0.98005 0.0
O150 O 0.2785 0.92236 0.00838 0.0
O151 O 0.27754 0.9517 0.91397 0.0
O152 O 0.32784 0.97272 0.19074 0.0
O153 O 0.30486 0.98205 0.09341 0.0
Co154 Co 0.17895 0.39092 0.05481 0.0
O155 O 0.21486 0.41446 0.00275 0.0
O156 O 0.19319 0.36721 0.00327 0.0
C157 C 0.15631 0.41298 0.99755 0.0
O158 O 0.14089 0.3606 0.10529 0.0
Co159 Co 0.16147 0.42346 0.17982 0.0
O160 O 0.12775 0.38495 0.19324 0.0
C161 C 0.20285 0.40535 0.23315 0.0
C162 C 0.2147 0.3913 0.97931 0.0
C163 C 0.12397 0.36164 0.15969 0.0
O164 O 0.20026 0.39363 0.16145 0.0
O165 O 0.19095 0.42029 0.25124 0.0
O166 O 0.15756 0.39241 0.95845 0.0
O167 O 0.17106 0.42147 0.06684 0.0
Co168 Co 0.40825 0.28104 0.9459 0.0
O169 O 0.42753 0.26695 0.01393 0.0
O170 O 0.38003 0.24724 0.00232 0.0
C171 C 0.43604 0.3263 0.99523 0.0
O172 O 0.38226 0.2922 0.87915 0.0
Co173 Co 0.44612 0.32261 0.81622 0.0
O174 O 0.41088 0.32406 0.78714 0.0
C175 C 0.41774 0.26062 0.779 0.0
C176 C 0.40257 0.24792 0.03802 0.0
C177 C 0.38635 0.30884 0.81843 0.0
O178 O 0.40719 0.25626 0.85071 0.0
O179 O 0.43523 0.28569 0.75413 0.0
O180 O 0.41302 0.30834 0.03177 0.0
O181 O 0.44328 0.31598 0.93312 0.0
Co182 Co 0.84366 0.13366 0.87829 0.0
O183 O 0.87726 0.14545 0.81429 0.0
O184 O 0.85196 0.16768 0.81727 0.0
C185 C 0.82267 0.08738 0.83668 0.0
O186 O 0.80676 0.12543 0.93956 0.0
Co187 Co 0.83706 0.09293 0.01812 0.0
O188 O 0.80194 0.09505 0.04013 0.0
C189 C 0.8751 0.15496 0.04679 0.0
C190 C 0.87348 0.16576 0.78719 0.0
C191 C 0.7937 0.11038 0.00228 0.0
O192 O 0.86817 0.15862 0.97399 0.0
O193 O 0.86634 0.13007 0.07547 0.0
O194 O 0.82012 0.10584 0.79277 0.0
O195 O 0.84037 0.0978 0.90036 0.0
Co196 Co 0.96824 0.70246 0.92516 0.0
O197 O 0.93518 0.68305 0.99154 0.0
O198 O 0.96192 0.73012 0.98827 0.0
C199 C 0.98803 0.67585 0.96521 0.0
O200 O 0.00499 0.72894 0.86237 0.0
Co201 Co 0.9717 0.66641 0.78381 0.0
O202 O 0.00827 0.70135 0.76137 0.0
C203 C 0.93534 0.69224 0.75855 0.0
C204 C 0.94014 0.70779 0.01929 0.0
C205 C 0.01763 0.72543 0.79963 0.0
O206 O 0.94315 0.70314 0.83189 0.0
O207 O 0.94323 0.67528 0.72736 0.0
O208 O 0.99201 0.69816 0.00798 0.0
O209 O 0.96959 0.6681 0.90303 0.0
Co210 Co 0.38961 0.14188 0.39751 0.0
O211 O 0.37044 0.15414 0.32188 0.0
O212 O 0.41771 0.17712 0.34782 0.0
C213 C 0.36651 0.09663 0.34684 0.0
O214 O 0.41612 0.13372 0.4725 0.0
Co215 Co 0.35223 0.09955 0.52319 0.0
O216 O 0.38795 0.10043 0.56137 0.0
C217 C 0.37334 0.16037 0.55736 0.0
C218 C 0.39559 0.17529 0.30625 0.0
C219 C 0.41263 0.11732 0.53337 0.0
O220 O 0.38561 0.16504 0.48832 0.0
O221 O 0.35758 0.13508 0.58338 0.0
O222 O 0.38988 0.11616 0.31499 0.0
O223 O 0.35591 0.10518 0.4051 0.0
Co224 Co 0.97016 0.27242 0.435 0.0
O225 O 0.93827 0.2587 0.50612 0.0
O226 O 0.96357 0.23704 0.4865 0.0
C227 C 0.99118 0.31751 0.48818 0.0
O228 O 0.00559 0.28308 0.36353 0.0
Co229 Co 0.97259 0.31579 0.31244 0.0
O230 O 0.00848 0.31712 0.27881 0.0
C231 C 0.93507 0.25466 0.27165 0.0
C232 C 0.94265 0.23797 0.52431 0.0
C233 C 0.01771 0.30089 0.30517 0.0
O234 O 0.94339 0.24936 0.34026 0.0
O235 O 0.94293 0.28017 0.24982 0.0
O236 O 0.99584 0.29837 0.52064 0.0
O237 O 0.97161 0.30832 0.42888 0.0
Co238 Co 0.84533 0.72423 0.37626 0.0
O239 O 0.87831 0.7423 0.30845 0.0
O240 O 0.85096 0.69541 0.31809 0.0
C241 C 0.82608 0.7509 0.33093 0.0
O242 O 0.80879 0.69859 0.44071 0.0
Co243 Co 0.84112 0.76191 0.51201 0.0
O244 O 0.80554 0.72675 0.53985 0.0
C245 C 0.87679 0.73548 0.54511 0.0
C246 C 0.87276 0.71694 0.28448 0.0
C247 C 0.79653 0.70235 0.50391 0.0
O248 O 0.87034 0.72455 0.47146 0.0
O249 O 0.86848 0.75252 0.5729 0.0
O250 O 0.82161 0.72784 0.29136 0.0
O251 O 0.84425 0.75898 0.39377 0.0
C252 C 0.05523 0.51414 0.01225 0.0
C253 C 0.0531 0.51653 0.9268 0.0
C254 C 0.06869 0.53858 0.06502 0.0
C255 C 0.08065 0.56643 0.03455 0.0
H256 H 0.04722 0.49328 0.03859 0.0
H257 H 0.06974 0.53558 0.13041 0.0
S258 S 0.07862 0.58436 0.81622 0.0
N259 N 0.06268 0.54897 0.81437 0.0
N260 N 0.08794 0.59486 0.91367 0.0
C261 C 0.07824 0.56914 0.94934 0.0
C262 C 0.06441 0.54423 0.89557 0.0
C263 C 0.59671 0.54822 0.9623 0.0
C264 C 0.59305 0.5706 0.93306 0.0
C265 C 0.5797 0.53098 0.02515 0.0
C266 C 0.55825 0.53532 0.06155 0.0
H267 H 0.61279 0.54393 0.93651 0.0
H268 H 0.58336 0.51388 0.04483 0.0
S269 S 0.54037 0.59155 0.00881 0.0
N270 N 0.56645 0.59656 0.94678 0.0
N271 N 0.53472 0.564 0.0644 0.0
C272 C 0.5545 0.55775 0.03349 0.0
C273 C 0.5718 0.57538 0.96945 0.0
C274 C 0.58424 0.03705 0.97488 0.0
C275 C 0.58589 0.04145 0.06088 0.0
C276 C 0.57123 0.04832 0.92323 0.0
C277 C 0.55909 0.06445 0.955 0.0
H278 H 0.5935 0.02516 0.94673 0.0
H279 H 0.57057 0.04409 0.85755 0.0
S280 S 0.55674 0.08132 0.17668 0.0
N281 N 0.57366 0.06265 0.17598 0.0
N282 N 0.54912 0.08366 0.07923 0.0
C283 C 0.56047 0.06893 0.04115 0.0
C284 C 0.57381 0.05747 0.09383 0.0
C285 C 0.57437 0.03022 0.47705 0.0
C286 C 0.59591 0.05507 0.44017 0.0
C287 C 0.55811 0.03186 0.54122 0.0
C288 C 0.56259 0.05843 0.57166 0.0
H289 H 0.56983 0.00904 0.45627 0.0
H290 H 0.5417 0.01206 0.56653 0.0
S291 S 0.61661 0.13013 0.49775 0.0
N292 N 0.62105 0.10712 0.43974 0.0
N293 N 0.59059 0.1105 0.56047 0.0
C294 C 0.58429 0.08359 0.53604 0.0
C295 C 0.60089 0.08184 0.47037 0.0
C296 C 0.09182 0.55715 0.44813 0.0
C297 C 0.06701 0.55666 0.41379 0.0
C298 C 0.09013 0.54061 0.51524 0.0
C299 C 0.06355 0.52281 0.55053 0.0
H300 H 0.11292 0.57054 0.42323 0.0
H301 H 0.10975 0.54149 0.53868 0.0
S302 S 0.99225 0.51443 0.4859 0.0
N303 N 0.01518 0.53739 0.42144 0.0
N304 N 0.01175 0.50613 0.5477 0.0
C305 C 0.03851 0.52219 0.51724 0.0
C306 C 0.04029 0.53909 0.44872 0.0
C307 C 0.58421 0.54795 0.57174 0.0
C308 C 0.58662 0.57465 0.55414 0.0
C309 C 0.57057 0.52437 0.51584 0.0
C310 C 0.55885 0.52651 0.43988 0.0
H311 H 0.59351 0.54528 0.62845 0.0
H312 H 0.56947 0.50441 0.53213 0.0
S313 S 0.55706 0.59089 0.36694 0.0
N314 N 0.57444 0.60122 0.45732 0.0
N315 N 0.54891 0.55718 0.35225 0.0
C316 C 0.56044 0.55291 0.42236 0.0
C317 C 0.57423 0.57685 0.47945 0.0
C318 C 0.68396 0.82278 0.38931 0.0
C319 C 0.70626 0.83107 0.33372 0.0
C320 C 0.68654 0.84115 0.45526 0.0
C321 C 0.71173 0.8681 0.46872 0.0
H322 H 0.66391 0.80257 0.37976 0.0
H323 H 0.66821 0.83466 0.4942 0.0
S324 S 0.77788 0.89796 0.34718 0.0
N325 N 0.7555 0.86665 0.30086 0.0
N326 N 0.76034 0.90103 0.42562 0.0
C327 C 0.73496 0.87575 0.41702 0.0
C328 C 0.73218 0.85728 0.34907 0.0
C329 C 0.25008 0.86207 0.37032 0.0
C330 C 0.22421 0.86133 0.39232 0.0
C331 C 0.26592 0.87769 0.3036 0.0
C332 C 0.25649 0.89314 0.25621 0.0
H333 H 0.25825 0.85045 0.405 0.0
H334 H 0.28596 0.87812 0.29028 0.0
S335 S 0.18918 0.8967 0.28447 0.0
N336 N 0.18939 0.8765 0.35918 0.0
N337 N 0.21875 0.90565 0.23346 0.0
C338 C 0.23035 0.89217 0.27665 0.0
C339 C 0.21437 0.87641 0.34489 0.0
C340 C 0.24891 0.417 0.42683 0.0
C341 C 0.25278 0.39292 0.42591 0.0
C342 C 0.2324 0.42059 0.3651 0.0
C343 C 0.21954 0.40051 0.29889 0.0
H344 H 0.25934 0.43365 0.47484 0.0
H345 H 0.23044 0.43971 0.36813 0.0
S346 S 0.22158 0.3327 0.27059 0.0
N347 N 0.2412 0.34788 0.35607 0.0
N348 N 0.21029 0.35459 0.23894 0.0
C349 C 0.22247 0.3758 0.29855 0.0
C350 C 0.23898 0.37196 0.36244 0.0
C351 C 0.2645 0.41882 0.92625 0.0
C352 C 0.23728 0.39346 0.92322 0.0
C353 C 0.28516 0.42399 0.86704 0.0
C354 C 0.27927 0.40432 0.80097 0.0
H355 H 0.26975 0.43516 0.97422 0.0
H356 H 0.30562 0.44396 0.872 0.0
S357 S 0.21172 0.33389 0.76677 0.0
N358 N 0.20601 0.34787 0.85084 0.0
N359 N 0.24451 0.35757 0.73855 0.0
C360 C 0.25233 0.37849 0.79822 0.0
C361 C 0.23148 0.37303 0.85962 0.0
C362 C 0.7346 0.87963 0.90111 0.0
C363 C 0.71793 0.86993 0.97105 0.0
C364 C 0.72673 0.89185 0.83724 0.0
C365 C 0.70206 0.89513 0.84134 0.0
H366 H 0.75267 0.876 0.8931 0.0
H367 H 0.73985 0.89829 0.78344 0.0
S368 S 0.6532 0.87585 0.01667 0.0
N369 N 0.67699 0.86611 0.04408 0.0
N370 N 0.66262 0.88982 0.9253 0.0
C371 C 0.68634 0.88714 0.9136 0.0
C372 C 0.69415 0.87434 0.97802 0.0
C373 C 0.25354 0.90387 0.79784 0.0
C374 C 0.25238 0.90108 0.88356 0.0
C375 C 0.24017 0.87966 0.74416 0.0
C376 C 0.22507 0.85166 0.77399 0.0
H377 H 0.2655 0.92487 0.77181 0.0
H378 H 0.24181 0.88299 0.67858 0.0
S379 S 0.21351 0.83284 0.99362 0.0
N380 N 0.23349 0.8682 0.99609 0.0
N381 N 0.20836 0.82275 0.89524 0.0
C382 C 0.22327 0.84859 0.85969 0.0
C383 C 0.23685 0.87326 0.91437 0.0
C384 C 0.39406 0.20756 0.75147 0.0
C385 C 0.40673 0.23545 0.72096 0.0
C386 C 0.38174 0.18319 0.6983 0.0
C387 C 0.38153 0.18575 0.6125 0.0
H388 H 0.39391 0.20447 0.81711 0.0
H389 H 0.37328 0.16228 0.7247 0.0
S390 S 0.40893 0.25369 0.50128 0.0
N391 N 0.41627 0.26404 0.59935 0.0
N392 N 0.3931 0.21832 0.49948 0.0
C393 C 0.39321 0.21347 0.5812 0.0
C394 C 0.40588 0.23828 0.63531 0.0
C395 C 0.88541 0.20376 0.68434 0.0
C396 C 0.89185 0.18418 0.72131 0.0
C397 C 0.90162 0.22033 0.61958 0.0
C398 C 0.92507 0.21815 0.5888 0.0
H399 H 0.86758 0.20624 0.70512 0.0
H400 H 0.89567 0.23517 0.59378 0.0
S401 S 0.95115 0.17019 0.66439 0.0
N402 N 0.92358 0.16352 0.7223 0.0
N403 N 0.95392 0.19486 0.60063 0.0
C404 C 0.93175 0.1986 0.62484 0.0
C405 C 0.91523 0.18165 0.69109 0.0
C406 C 0.91853 0.69916 0.61973 0.0
C407 C 0.91894 0.70214 0.70606 0.0
C408 C 0.90557 0.71064 0.56861 0.0
C409 C 0.8924 0.72566 0.60126 0.0
H410 H 0.92878 0.68832 0.59106 0.0
H411 H 0.90593 0.70765 0.5026 0.0
S412 S 0.88588 0.73793 0.82365 0.0
N413 N 0.90387 0.72031 0.82215 0.0
N414 N 0.87957 0.74177 0.72627 0.0
C415 C 0.89233 0.72853 0.68762 0.0
C416 C 0.90551 0.71678 0.73975 0.0
C417 C 0.9124 0.73839 0.18403 0.0
C418 C 0.88985 0.71365 0.21849 0.0
C419 C 0.92835 0.73643 0.11921 0.0
C420 C 0.92242 0.70965 0.086 0.0
H421 H 0.91782 0.75963 0.20696 0.0
H422 H 0.94549 0.75608 0.09523 0.0
S423 S 0.86562 0.6382 0.15419 0.0
N424 N 0.86252 0.66153 0.21449 0.0
N425 N 0.89223 0.65758 0.09296 0.0
C426 C 0.89989 0.68467 0.11996 0.0
C427 C 0.88371 0.68672 0.18609 0.0
C428 C 0.37343 0.18811 0.18981 0.0
C429 C 0.39805 0.19484 0.2404 0.0
C430 C 0.37486 0.20533 0.12462 0.0
C431 C 0.40099 0.22986 0.10731 0.0
H432 H 0.3528 0.16913 0.19984 0.0
H433 H 0.35547 0.19919 0.08709 0.0
S434 S 0.47122 0.25816 0.22508 0.0
N435 N 0.4489 0.22847 0.27117 0.0
N436 N 0.45188 0.26105 0.14917 0.0
C437 C 0.42569 0.23719 0.15851 0.0
C438 C 0.42416 0.21963 0.2249 0.0
C439 C 0.90456 0.20186 0.242 0.0
C440 C 0.91823 0.22998 0.21294 0.0
C441 C 0.89143 0.17782 0.18785 0.0
C442 C 0.8914 0.1808 0.10216 0.0
H443 H 0.90414 0.1983 0.30741 0.0
H444 H 0.88089 0.15673 0.21373 0.0
S445 S 0.92502 0.24974 0.99385 0.0
N446 N 0.93136 0.25943 0.09248 0.0
N447 N 0.90675 0.2143 0.99049 0.0
C448 C 0.90501 0.20883 0.07206 0.0
C449 C 0.9183 0.23336 0.12739 0.0
C450 C 0.12085 0.68394 0.443 0.0
C451 C 0.12326 0.683 0.35682 0.0
C452 C 0.13474 0.70996 0.48883 0.0
C453 C 0.15103 0.73581 0.4495 0.0
H454 H 0.10736 0.66446 0.47508 0.0
H455 H 0.13124 0.71002 0.55421 0.0
S456 S 0.16658 0.74478 0.2273 0.0
N457 N 0.1453 0.7098 0.23559 0.0
N458 N 0.17106 0.75904 0.32127 0.0
C459 C 0.15498 0.73506 0.36426 0.0
C460 C 0.14121 0.70851 0.3179 0.0
C461 C 0.43652 0.45455 0.46808 0.0
C462 C 0.43733 0.45338 0.38132 0.0
C463 C 0.41042 0.44552 0.50839 0.0
C464 C 0.38407 0.43431 0.46328 0.0
H465 H 0.45609 0.46111 0.50526 0.0
H466 H 0.41065 0.44547 0.57501 0.0
S467 S 0.37475 0.42941 0.23511 0.0
N468 N 0.40986 0.4426 0.25207 0.0
N469 N 0.36073 0.42515 0.32683 0.0
C470 C 0.38485 0.43469 0.37646 0.0
C471 C 0.4115 0.44438 0.33566 0.0
C472 C 0.68188 0.96402 0.38375 0.0
C473 C 0.67553 0.96027 0.46812 0.0
C474 C 0.67303 0.9795 0.33403 0.0
C475 C 0.65779 0.99206 0.36716 0.0
H476 H 0.69446 0.95548 0.35604 0.0
H477 H 0.6794 0.98285 0.27062 0.0
S478 S 0.63374 0.98703 0.58179 0.0
N479 N 0.65131 0.96893 0.58046 0.0
N480 N 0.63503 -0.00155 0.48762 0.0
C481 C 0.65021 0.98752 0.45028 0.0
C482 C 0.65892 0.97146 0.50062 0.0
C483 C 0.71407 0.08117 0.02018 0.0
C484 C 0.71149 0.08198 0.10645 0.0
C485 C 0.74124 0.09425 0.98397 0.0
C486 C 0.76684 0.10851 0.03284 0.0
H487 H 0.695 0.06827 0.98079 0.0
H488 H 0.7422 0.09054 0.91866 0.0
S489 S 0.77206 0.12092 0.25956 0.0
N490 N 0.73689 0.10162 0.23805 0.0
N491 N 0.78794 0.12601 0.17048 0.0
C492 C 0.76446 0.11207 0.11802 0.0
C493 C 0.73678 0.09891 0.15479 0.0
C494 C -0.00099 0.65434 0.08434 0.0
C495 C -0.00038 0.65816 0.99867 0.0
C496 C 0.01622 0.64473 0.12321 0.0
C497 C 0.03505 0.6392 0.07772 0.0
H498 H 0.9864 0.6605 0.12235 0.0
H499 H 0.01656 0.64397 0.18973 0.0
S500 S 0.04182 0.64212 0.85081 0.0
N501 N 0.01801 0.65257 0.86877 0.0
N502 N 0.05083 0.6349 0.94142 0.0
C503 C 0.03411 0.64072 0.99123 0.0
C504 C 0.01623 0.65009 0.95167 0.0
C505 C 0.4645 0.37935 0.99292 0.0
C506 C 0.4554 0.35421 0.0359 0.0
C507 C 0.47725 0.40599 0.0354 0.0
C508 C 0.48164 0.40824 0.12181 0.0
H509 H 0.46013 0.37828 0.92716 0.0
H510 H 0.48294 0.4249 1.0004 0.0
S511 S 0.46467 0.3486 0.26035 0.0
N512 N 0.4537 0.33296 0.16782 0.0
N513 N 0.47832 0.38335 0.24737 0.0
C514 C 0.47449 0.3834 0.16452 0.0
C515 C 0.46112 0.35623 0.12149 0.0
C516 C 0.98483 0.35791 0.5419 0.0
C517 C 0.00236 0.3454 0.5319 0.0
C518 C 0.99438 0.38284 0.59208 0.0
C519 C 0.02171 0.39583 0.63283 0.0
H520 H 0.96357 0.34824 0.51164 0.0
H521 H 0.98096 0.39269 0.59602 0.0
S522 S 0.07566 0.37164 0.62598 0.0
N523 N 0.04808 0.34777 0.56718 0.0
N524 N 0.06608 0.39478 0.65991 0.0
C525 C 0.0392 0.38339 0.62367 0.0
C526 C 0.02951 0.35811 0.57349 0.0
C527 C 0.71759 0.64907 0.52418 0.0
C528 C 0.71498 0.64872 0.61048 0.0
C529 C 0.74477 0.6635 0.48826 0.0
C530 C 0.77021 0.67831 0.53767 0.0
H531 H 0.69835 0.64053 0.48418 0.0
H532 H 0.7456 0.66564 0.42214 0.0
S533 S 0.77554 0.67968 0.76586 0.0
N534 N 0.7404 0.66093 0.74354 0.0
N535 N 0.79146 0.68815 0.67665 0.0
C536 C 0.76804 0.67535 0.62361 0.0
C537 C 0.7404 0.66045 0.65999 0.0
C538 C 0.43749 0.1124 0.65878 0.0
C539 C 0.43759 0.11677 0.57337 0.0
C540 C 0.45702 0.10539 0.69645 0.0
C541 C 0.47698 0.1021 0.64959 0.0
H542 H 0.42118 0.11296 0.69609 0.0
H543 H 0.45497 0.10036 0.76098 0.0
S544 S 0.48844 0.11432 0.42644 0.0
N545 N 0.4614 0.1201 0.44529 0.0
N546 N 0.49771 0.10633 0.51544 0.0
C547 C 0.47867 0.10835 0.56552 0.0
C548 C 0.45911 0.11593 0.52751 0.0
C549 C 0.3843 0.98054 0.8613 0.0
C550 C 0.38102 0.97879 0.94736 0.0
C551 C 0.41173 0.99606 0.82729 0.0
C552 C 0.43677 0.01054 0.87839 0.0
H553 H 0.36533 0.97225 0.82029 0.0
H554 H 0.41297 -0.00068 0.76166 0.0
S555 S 0.44049 0.00843 0.10612 0.0
N556 N 0.40552 0.98936 0.08155 0.0
N557 N 0.45704 0.0186 0.01819 0.0
C558 C 0.43402 0.00616 0.96371 0.0
C559 C 0.40612 0.9902 0.99816 0.0
C560 C 0.12028 0.43521 0.83427 0.0
C561 C 0.10549 0.44567 0.88093 0.0
C562 C 0.13765 0.42575 0.87299 0.0
C563 C 0.14117 0.42688 0.95952 0.0
H564 H 0.1168 0.43241 0.76804 0.0
H565 H 0.14759 0.41655 0.83482 0.0
S566 S 0.10927 0.45542 0.10821 0.0
N567 N 0.09689 0.45857 0.01727 0.0
N568 N 0.1303 0.44162 0.08985 0.0
C569 C 0.12813 0.43923 0.00635 0.0
C570 C 0.11004 0.44838 0.96701 0.0
C571 C 0.7011 0.715 0.86213 0.0
C572 C 0.67139 0.69525 0.85404 0.0
C573 C 0.71142 0.73965 0.91329 0.0
C574 C 0.69237 0.74462 0.96013 0.0
H575 H 0.71646 0.71105 0.83001 0.0
H576 H 0.73452 0.75459 0.91768 0.0
S577 S 0.61257 0.69878 0.96099 0.0
N578 N 0.62298 0.68194 0.89594 0.0
N579 N 0.64245 0.72802 0.99439 0.0
C580 C 0.66259 0.72494 0.95261 0.0
C581 C 0.65205 0.70025 0.89881 0.0
C582 C 0.78374 0.02359 0.69175 0.0
C583 C 0.76303 0.00339 0.74241 0.0
C584 C 0.80524 0.05021 0.72503 0.0
C585 C 0.80695 0.05703 0.80985 0.0
H586 H 0.78185 0.01982 0.6256 0.0
H587 H 0.81938 0.06632 0.68333 0.0
S588 S 0.76085 0.00921 0.96956 0.0
N589 N 0.74764 0.99021 0.88228 0.0
N590 N 0.78863 0.04023 0.94469 0.0
C591 C 0.7883 0.03588 0.86201 0.0
C592 C 0.76608 0.00898 0.82812 0.0
C593 C 0.07597 0.76582 0.64987 0.0
C594 C 0.10106 0.77729 0.70092 0.0
C595 C 0.04841 0.75186 0.68365 0.0
C596 C 0.04502 0.74916 0.76952 0.0
H597 H 0.07754 0.76486 0.58368 0.0
H598 H 0.02963 0.74085 0.64197 0.0
S599 S 0.10413 0.78016 0.92939 0.0
N600 N 0.12092 0.78864 0.84149 0.0
N601 N 0.06913 0.7626 0.90451 0.0
C602 C 0.06989 0.76346 0.82114 0.0
C603 C 0.09794 0.77745 0.78683 0.0
C604 C 0.33992 0.34212 0.79556 0.0
C605 C 0.33933 0.34468 0.70942 0.0
C606 C 0.35139 0.32629 0.83206 0.0
C607 C 0.36285 0.31279 0.78338 0.0
H608 H 0.33411 0.35475 0.83536 0.0
H609 H 0.35439 0.32752 0.89844 0.0
S610 S 0.36137 0.30841 0.55519 0.0
N611 N 0.34701 0.32876 0.5766 0.0
N612 N 0.36874 0.29911 0.64482 0.0
C613 C 0.35909 0.31229 0.69715 0.0
C614 C 0.34725 0.32825 0.66008 0.0
C615 C 0.04602 0.30732 0.18002 0.0
C616 C 0.04433 0.3048 0.26632 0.0
C617 C 0.07279 0.32234 0.14214 0.0
C618 C 0.09883 0.33537 0.18934 0.0
H619 H 0.02643 0.30016 0.14239 0.0
H620 H 0.07291 0.32653 0.07723 0.0
S621 S 0.10654 0.33126 0.4152 0.0
N622 N 0.07118 0.31341 0.39593 0.0
N623 N 0.12147 0.34158 0.32518 0.0
C624 C 0.0975 0.33016 0.27422 0.0
C625 C 0.07024 0.31482 0.31271 0.0
C626 C 0.79957 0.77816 0.34551 0.0
C627 C 0.81427 0.7683 0.29602 0.0
C628 C 0.78135 0.78719 0.30956 0.0
C629 C 0.7778 0.78721 0.2233 0.0
H630 H 0.80006 0.77644 0.41172 0.0
H631 H 0.76818 0.79204 0.34935 0.0
S632 S 0.81512 0.76762 0.06769 0.0
N633 N 0.82684 0.7623 0.15686 0.0
N634 N 0.79284 0.77959 0.09016 0.0
C635 C 0.79456 0.78009 0.17372 0.0
C636 C 0.81275 0.77052 0.20999 0.0
C637 C 0.33404 0.01846 0.2907 0.0
C638 C 0.33025 0.01792 0.20425 0.0
C639 C 0.34347 0.04371 0.33847 0.0
C640 C 0.34968 0.06921 0.3011 0.0
H641 H 0.33039 -0.00064 0.32177 0.0
H642 H 0.34759 0.04366 0.40401 0.0
S643 S 0.34082 0.07885 0.07913 0.0
N644 N 0.33116 0.04457 0.08472 0.0
N645 N 0.34953 0.09242 0.17441 0.0
C646 C 0.34457 0.06873 0.21558 0.0
C647 C 0.33462 0.04292 0.16706 0.0
loop_
_geom_bond_atom_site_label_1
_geom_bond_atom_site_label_2
_geom_bond_distance
_geom_bond_site_symmetry_2
_ccdc_geom_bond_type
Co0 O1 2.216 . S
Co0 O2 2.091 . S
Co0 O4 2.004 . S
Co0 O10 2.021 . S
Co0 O12 2.137 . S
Co0 O13 2.244 . S
O1 Co0 2.216 . S
O1 C8 1.247 . S
O2 Co0 2.091 . S
O2 C8 1.261 . S
C3 O12 1.247 . S
C3 O13 1.272 . S
O4 Co0 2.004 . S
O4 C9 1.259 . S
Co5 O6 2.061 . S
Co5 O11 2.052 . S
Co5 O13 2.135 . S
O6 Co5 2.061 . S
O6 C9 1.235 . S
C7 O10 1.238 . S
C7 O11 1.241 . S
C8 O1 1.247 . S
C8 O2 1.261 . S
C9 O4 1.259 . S
C9 O6 1.235 . S
O10 Co0 2.021 . S
O10 C7 1.238 . S
O11 Co5 2.052 . S
O11 C7 1.241 . S
O12 Co0 2.137 . S
O12 C3 1.247 . S
O13 Co0 2.244 . S
O13 C3 1.272 . S
O13 Co5 2.135 . S
Co14 O15 2.216 . S
Co14 O16 2.091 . S
Co14 O18 2.004 . S
Co14 O24 2.021 . S
Co14 O26 2.137 . S
Co14 O27 2.244 . S
O15 Co14 2.216 . S
O15 C22 1.247 . S
O16 Co14 2.091 . S
O16 C22 1.261 . S
C17 O26 1.247 . S
C17 O27 1.272 . S
O18 Co14 2.004 . S
O18 C23 1.259 . S
Co19 O20 2.061 . S
Co19 O25 2.052 . S
Co19 O27 2.135 . S
O20 Co19 2.061 . S
O20 C23 1.235 . S
C21 O24 1.238 . S
C21 O25 1.241 . S
C22 O15 1.247 . S
C22 O16 1.261 . S
C23 O18 1.259 . S
C23 O20 1.235 . S
O24 Co14 2.021 . S
O24 C21 1.238 . S
O25 Co19 2.052 . S
O25 C21 1.241 . S
O26 Co14 2.137 . S
O26 C17 1.247 . S
O27 Co14 2.244 . S
O27 C17 1.272 . S
O27 Co19 2.135 . S
Co28 O29 2.216 . S
Co28 O30 2.091 . S
Co28 O32 2.004 . S
Co28 O38 2.021 . S
Co28 O40 2.137 . S
Co28 O41 2.244 . S
O29 Co28 2.216 . S
O29 C36 1.247 . S
O30 Co28 2.091 . S
O30 C36 1.261 . S
C31 O40 1.247 . S
C31 O41 1.272 . S
O32 Co28 2.004 . S
O32 C37 1.259 . S
Co33 O34 2.061 . S
Co33 O39 2.052 . S
Co33 O41 2.135 . S
O34 Co33 2.061 . S
O34 C37 1.235 . S
C35 O38 1.238 . S
C35 O39 1.241 . S
C36 O29 1.247 . S
C36 O30 1.261 . S
C37 O32 1.259 . S
C37 O34 1.235 . S
O38 Co28 2.021 . S
O38 C35 1.238 . S
O39 Co33 2.052 . S
O39 C35 1.241 . S
O40 Co28 2.137 . S
O40 C31 1.247 . S
O41 Co28 2.244 . S
O41 C31 1.272 . S
O41 Co33 2.135 . S
Co42 O43 2.216 . S
Co42 O44 2.091 . S
Co42 O46 2.004 . S
Co42 O52 2.021 . S
Co42 O54 2.137 . S
Co42 O55 2.244 . S
O43 Co42 2.216 . S
O43 C50 1.247 . S
O44 Co42 2.091 . S
O44 C50 1.261 . S
C45 O54 1.247 . S
C45 O55 1.272 . S
O46 Co42 2.004 . S
O46 C51 1.259 . S
Co47 O48 2.061 . S
Co47 O53 2.052 . S
Co47 O55 2.135 . S
O48 Co47 2.061 . S
O48 C51 1.235 . S
C49 O52 1.238 . S
C49 O53 1.241 . S
C50 O43 1.247 . S
C50 O44 1.261 . S
C51 O46 1.259 . S
C51 O48 1.235 . S
O52 Co42 2.021 . S
O52 C49 1.238 . S
O53 Co47 2.052 . S
O53 C49 1.241 . S
O54 Co42 2.137 . S
O54 C45 1.247 . S
O55 Co42 2.244 . S
O55 C45 1.272 . S
O55 Co47 2.135 . S
Co56 O57 2.216 . S
Co56 O58 2.091 . S
Co56 O60 2.004 . S
Co56 O66 2.021 . S
Co56 O68 2.137 . S
Co56 O69 2.244 . S
O57 Co56 2.216 . S
O57 C64 1.247 . S
O58 Co56 2.091 . S
O58 C64 1.261 . S
C59 O68 1.247 . S
C59 O69 1.272 . S
O60 Co56 2.004 . S
O60 C65 1.259 . S
Co61 O62 2.061 . S
Co61 O67 2.052 . S
Co61 O69 2.135 . S
O62 Co61 2.061 . S
O62 C65 1.235 . S
C63 O66 1.238 . S
C63 O67 1.241 . S
C64 O57 1.247 . S
C64 O58 1.261 . S
C65 O60 1.259 . S
C65 O62 1.235 . S
O66 Co56 2.021 . S
O66 C63 1.238 . S
O67 Co61 2.052 . S
O67 C63 1.241 . S
O68 Co56 2.137 . S
O68 C59 1.247 . S
O69 Co56 2.244 . S
O69 C59 1.272 . S
O69 Co61 2.135 . S
Co70 O71 2.216 . S
Co70 O72 2.091 . S
Co70 O74 2.004 . S
Co70 O80 2.021 . S
Co70 O82 2.137 . S
Co70 O83 2.244 . S
O71 Co70 2.216 . S
O71 C78 1.247 . S
O72 Co70 2.091 . S
O72 C78 1.261 . S
C73 O82 1.247 . S
C73 O83 1.272 . S
O74 Co70 2.004 . S
O74 C79 1.259 . S
Co75 O76 2.061 . S
Co75 O81 2.052 . S
Co75 O83 2.135 . S
O76 Co75 2.061 . S
O76 C79 1.235 . S
C77 O80 1.238 . S
C77 O81 1.241 . S
C78 O71 1.247 . S
C78 O72 1.261 . S
C79 O74 1.259 . S
C79 O76 1.235 . S
O80 Co70 2.021 . S
O80 C77 1.238 . S
O81 Co75 2.052 . S
O81 C77 1.241 . S
O82 Co70 2.137 . S
O82 C73 1.247 . S
O83 Co70 2.244 . S
O83 C73 1.272 . S
O83 Co75 2.135 . S
Co84 O85 2.216 . S
Co84 O86 2.091 . S
Co84 O88 2.004 . S
Co84 O94 2.021 . S
Co84 O96 2.137 . S
Co84 O97 2.244 . S
O85 Co84 2.216 . S
O85 C92 1.247 . S
O86 Co84 2.091 . S
O86 C92 1.261 . S
C87 O96 1.247 . S
C87 O97 1.272 . S
O88 Co84 2.004 . S
O88 C93 1.259 1_565 S
Co89 O90 2.061 . S
Co89 O95 2.052 . S
Co89 O97 2.135 . S
O90 Co89 2.061 . S
O90 C93 1.235 1_565 S
C91 O94 1.238 . S
C91 O95 1.241 . S
C92 O85 1.247 . S
C92 O86 1.261 . S
C93 O88 1.259 1_545 S
C93 O90 1.235 1_545 S
O94 Co84 2.021 . S
O94 C91 1.238 . S
O95 Co89 2.052 . S
O95 C91 1.241 . S
O96 Co84 2.137 . S
O96 C87 1.247 . S
O97 Co84 2.244 . S
O97 C87 1.272 . S
O97 Co89 2.135 . S
Co98 O99 2.216 . S
Co98 O100 2.091 . S
Co98 O102 2.004 . S
Co98 O108 2.021 . S
Co98 O110 2.137 . S
Co98 O111 2.244 . S
O99 Co98 2.216 . S
O99 C106 1.247 . S
O100 Co98 2.091 . S
O100 C106 1.261 . S
C101 O110 1.247 . S
C101 O111 1.272 . S
O102 Co98 2.004 . S
O102 C107 1.259 . S
Co103 O104 2.061 . S
Co103 O109 2.052 . S
Co103 O111 2.135 . S
O104 Co103 2.061 . S
O104 C107 1.235 . S
C105 O108 1.238 . S
C105 O109 1.241 . S
C106 O99 1.247 . S
C106 O100 1.261 . S
C107 O102 1.259 . S
C107 O104 1.235 . S
O108 Co98 2.021 . S
O108 C105 1.238 . S
O109 Co103 2.052 . S
O109 C105 1.241 . S
O110 Co98 2.137 . S
O110 C101 1.247 . S
O111 Co98 2.244 . S
O111 C101 1.272 . S
O111 Co103 2.135 . S
Co112 O113 2.216 . S
Co112 O114 2.091 . S
Co112 O116 2.004 . S
Co112 O122 2.021 . S
Co112 O124 2.137 . S
Co112 O125 2.244 . S
O113 Co112 2.216 . S
O113 C120 1.247 . S
O114 Co112 2.091 . S
O114 C120 1.261 . S
C115 O124 1.247 . S
C115 O125 1.272 . S
O116 Co112 2.004 . S
O116 C121 1.259 . S
Co117 O118 2.061 . S
Co117 O123 2.052 . S
Co117 O125 2.135 . S
O118 Co117 2.061 . S
O118 C121 1.235 . S
C119 O122 1.238 . S
C119 O123 1.241 . S
C120 O113 1.247 . S
C120 O114 1.261 . S
C121 O116 1.259 . S
C121 O118 1.235 . S
O122 Co112 2.021 . S
O122 C119 1.238 . S
O123 Co117 2.052 . S
O123 C119 1.241 . S
O124 Co112 2.137 . S
O124 C115 1.247 . S
O125 Co112 2.244 . S
O125 C115 1.272 . S
O125 Co117 2.135 . S
Co126 O127 2.216 1_554 S
Co126 O128 2.091 1_554 S
Co126 O130 2.004 . S
Co126 O136 2.021 . S
Co126 O138 2.137 1_554 S
Co126 O139 2.244 . S
O127 Co126 2.216 1_556 S
O127 C134 1.247 . S
O128 Co126 2.091 1_556 S
O128 C134 1.261 . S
C129 O138 1.247 . S
C129 O139 1.272 1_556 S
O130 Co126 2.004 . S
O130 C135 1.259 . S
Co131 O132 2.061 . S
Co131 O137 2.052 . S
Co131 O139 2.135 . S
O132 Co131 2.061 . S
O132 C135 1.235 . S
C133 O136 1.238 . S
C133 O137 1.241 . S
C134 O127 1.247 . S
C134 O128 1.261 . S
C135 O130 1.259 . S
C135 O132 1.235 . S
O136 Co126 2.021 . S
O136 C133 1.238 . S
O137 Co131 2.052 . S
O137 C133 1.241 . S
O138 Co126 2.137 1_556 S
O138 C129 1.247 . S
O139 Co126 2.244 . S
O139 C129 1.272 1_554 S
O139 Co131 2.135 . S
Co140 O141 2.216 . S
Co140 O142 2.091 . S
Co140 O144 2.004 . S
Co140 O150 2.021 . S
Co140 O152 2.137 . S
Co140 O153 2.244 . S
O141 Co140 2.216 . S
O141 C148 1.247 . S
O142 Co140 2.091 . S
O142 C148 1.261 . S
C143 O152 1.247 . S
C143 O153 1.272 . S
O144 Co140 2.004 . S
O144 C149 1.259 . S
Co145 O146 2.061 . S
Co145 O151 2.052 . S
Co145 O153 2.135 1_556 S
O146 Co145 2.061 . S
O146 C149 1.235 1_556 S
C147 O150 1.238 1_556 S
C147 O151 1.241 . S
C148 O141 1.247 . S
C148 O142 1.261 . S
C149 O144 1.259 . S
C149 O146 1.235 1_554 S
O150 Co140 2.021 . S
O150 C147 1.238 1_554 S
O151 Co145 2.052 . S
O151 C147 1.241 . S
O152 Co140 2.137 . S
O152 C143 1.247 . S
O153 Co140 2.244 . S
O153 C143 1.272 . S
O153 Co145 2.135 1_554 S
Co154 O155 2.216 1_554 S
Co154 O156 2.091 1_554 S
Co154 O158 2.004 . S
Co154 O164 2.021 . S
Co154 O166 2.137 1_554 S
Co154 O167 2.244 . S
O155 Co154 2.216 1_556 S
O155 C162 1.247 . S
O156 Co154 2.091 1_556 S
O156 C162 1.261 . S
C157 O166 1.247 1_554 S
C157 O167 1.272 . S
O158 Co154 2.004 . S
O158 C163 1.259 . S
Co159 O160 2.061 . S
Co159 O165 2.052 . S
Co159 O167 2.135 . S
O160 Co159 2.061 . S
O160 C163 1.235 . S
C161 O164 1.238 . S
C161 O165 1.241 . S
C162 O155 1.247 . S
C162 O156 1.261 . S
C163 O158 1.259 . S
C163 O160 1.235 . S
O164 Co154 2.021 . S
O164 C161 1.238 . S
O165 Co159 2.052 . S
O165 C161 1.241 . S
O166 Co154 2.137 1_556 S
O166 C157 1.247 1_556 S
O167 Co154 2.244 . S
O167 C157 1.272 . S
O167 Co159 2.135 . S
Co168 O169 2.216 1_556 S
Co168 O170 2.091 1_556 S
Co168 O172 2.004 . S
Co168 O178 2.021 . S
Co168 O180 2.137 1_556 S
Co168 O181 2.244 . S
O169 Co168 2.216 1_554 S
O169 C176 1.247 . S
O170 Co168 2.091 1_554 S
O170 C176 1.261 . S
C171 O180 1.247 1_556 S
C171 O181 1.272 . S
O172 Co168 2.004 . S
O172 C177 1.259 . S
Co173 O174 2.061 . S
Co173 O179 2.052 . S
Co173 O181 2.135 . S
O174 Co173 2.061 . S
O174 C177 1.235 . S
C175 O178 1.238 . S
C175 O179 1.241 . S
C176 O169 1.247 . S
C176 O170 1.261 . S
C177 O172 1.259 . S
C177 O174 1.235 . S
O178 Co168 2.021 . S
O178 C175 1.238 . S
O179 Co173 2.052 . S
O179 C175 1.241 . S
O180 Co168 2.137 1_554 S
O180 C171 1.247 1_554 S
O181 Co168 2.244 . S
O181 C171 1.272 . S
O181 Co173 2.135 . S
Co182 O183 2.216 . S
Co182 O184 2.091 . S
Co182 O186 2.004 . S
Co182 O192 2.021 . S
Co182 O194 2.137 . S
Co182 O195 2.244 . S
O183 Co182 2.216 . S
O183 C190 1.247 . S
O184 Co182 2.091 . S
O184 C190 1.261 . S
C185 O194 1.247 . S
C185 O195 1.272 . S
O186 Co182 2.004 . S
O186 C191 1.259 1_556 S
Co187 O188 2.061 . S
Co187 O193 2.052 . S
Co187 O195 2.135 1_554 S
O188 Co187 2.061 . S
O188 C191 1.235 . S
C189 O192 1.238 1_554 S
C189 O193 1.241 . S
C190 O183 1.247 . S
C190 O184 1.261 . S
C191 O186 1.259 1_554 S
C191 O188 1.235 . S
O192 Co182 2.021 . S
O192 C189 1.238 1_556 S
O193 Co187 2.052 . S
O193 C189 1.241 . S
O194 Co182 2.137 . S
O194 C185 1.247 . S
O195 Co182 2.244 . S
O195 C185 1.272 . S
O195 Co187 2.135 1_556 S
Co196 O197 2.216 1_556 S
Co196 O198 2.091 1_556 S
Co196 O200 2.004 1_655 S
Co196 O206 2.021 . S
Co196 O208 2.137 1_556 S
Co196 O209 2.244 . S
O197 Co196 2.216 1_554 S
O197 C204 1.247 . S
O198 Co196 2.091 1_554 S
O198 C204 1.261 . S
C199 O208 1.247 1_556 S
C199 O209 1.272 . S
O200 Co196 2.004 1_455 S
O200 C205 1.259 . S
Co201 O202 2.061 1_655 S
Co201 O207 2.052 . S
Co201 O209 2.135 . S
O202 Co201 2.061 1_455 S
O202 C205 1.235 . S
C203 O206 1.238 . S
C203 O207 1.241 . S
C204 O197 1.247 . S
C204 O198 1.261 . S
C205 O200 1.259 . S
C205 O202 1.235 . S
O206 Co196 2.021 . S
O206 C203 1.238 . S
O207 Co201 2.052 . S
O207 C203 1.241 . S
O208 Co196 2.137 1_554 S
O208 C199 1.247 1_554 S
O209 Co196 2.244 . S
O209 C199 1.272 . S
O209 Co201 2.135 . S
Co210 O211 2.216 . S
Co210 O212 2.091 . S
Co210 O214 2.004 . S
Co210 O220 2.021 . S
Co210 O222 2.137 . S
Co210 O223 2.244 . S
O211 Co210 2.216 . S
O211 C218 1.247 . S
O212 Co210 2.091 . S
O212 C218 1.261 . S
C213 O222 1.247 . S
C213 O223 1.272 . S
O214 Co210 2.004 . S
O214 C219 1.259 . S
Co215 O216 2.061 . S
Co215 O221 2.052 . S
Co215 O223 2.135 . S
O216 Co215 2.061 . S
O216 C219 1.235 . S
C217 O220 1.238 . S
C217 O221 1.241 . S
C218 O211 1.247 . S
C218 O212 1.261 . S
C219 O214 1.259 . S
C219 O216 1.235 . S
O220 Co210 2.021 . S
O220 C217 1.238 . S
O221 Co215 2.052 . S
O221 C217 1.241 . S
O222 Co210 2.137 . S
O222 C213 1.247 . S
O223 Co210 2.244 . S
O223 C213 1.272 . S
O223 Co215 2.135 . S
Co224 O225 2.216 . S
Co224 O226 2.091 . S
Co224 O228 2.004 1_655 S
Co224 O234 2.021 . S
Co224 O236 2.137 . S
Co224 O237 2.244 . S
O225 Co224 2.216 . S
O225 C232 1.247 . S
O226 Co224 2.091 . S
O226 C232 1.261 . S
C227 O236 1.247 . S
C227 O237 1.272 . S
O228 Co224 2.004 1_455 S
O228 C233 1.259 . S
Co229 O230 2.061 1_655 S
Co229 O235 2.052 . S
Co229 O237 2.135 . S
O230 Co229 2.061 1_455 S
O230 C233 1.235 . S
C231 O234 1.238 . S
C231 O235 1.241 . S
C232 O225 1.247 . S
C232 O226 1.261 . S
C233 O228 1.259 . S
C233 O230 1.235 . S
O234 Co224 2.021 . S
O234 C231 1.238 . S
O235 Co229 2.052 . S
O235 C231 1.241 . S
O236 Co224 2.137 . S
O236 C227 1.247 . S
O237 Co224 2.244 . S
O237 C227 1.272 . S
O237 Co229 2.135 . S
Co238 O239 2.216 . S
Co238 O240 2.091 . S
Co238 O242 2.004 . S
Co238 O248 2.021 . S
Co238 O250 2.137 . S
Co238 O251 2.244 . S
O239 Co238 2.216 . S
O239 C246 1.247 . S
O240 Co238 2.091 . S
O240 C246 1.261 . S
C241 O250 1.247 . S
C241 O251 1.272 . S
O242 Co238 2.004 . S
O242 C247 1.259 . S
Co243 O244 2.061 . S
Co243 O249 2.052 . S
Co243 O251 2.135 . S
O244 Co243 2.061 . S
O244 C247 1.235 . S
C245 O248 1.238 . S
C245 O249 1.241 . S
C246 O239 1.247 . S
C246 O240 1.261 . S
C247 O242 1.259 . S
C247 O244 1.235 . S
O248 Co238 2.021 . S
O248 C245 1.238 . S
O249 Co243 2.052 . S
O249 C245 1.241 . S
O250 Co238 2.137 . S
O250 C241 1.247 . S
O251 Co238 2.244 . S
O251 C241 1.272 . S
O251 Co243 2.135 . S
C252 C253 1.369 . S
C252 C254 1.419 1_556 S
C252 H256 0.930 . S
C253 C252 1.369 . S
C253 C262 1.429 . S
C254 C252 1.419 1_554 S
C254 C255 1.363 . S
C254 H257 0.929 . S
C255 C254 1.363 . S
C255 C261 1.428 1_554 S
H256 C252 0.930 . S
H257 C254 0.929 . S
S258 N259 1.613 . S
S258 N260 1.610 . S
N259 S258 1.613 . S
N259 C262 1.350 . S
N260 S258 1.610 . S
N260 C261 1.351 . S
C261 C255 1.428 1_556 S
C261 N260 1.351 . S
C261 C262 1.434 . S
C262 C253 1.429 . S
C262 N259 1.350 . S
C262 C261 1.434 . S
C263 C264 1.369 . S
C263 C265 1.419 1_556 S
C263 H267 0.930 . S
C264 C263 1.369 . S
C264 C273 1.429 . S
C265 C263 1.419 1_554 S
C265 C266 1.363 . S
C265 H268 0.929 . S
C266 C265 1.363 . S
C266 C272 1.428 . S
H267 C263 0.930 . S
H268 C265 0.929 . S
S269 N270 1.613 1_554 S
S269 N271 1.610 . S
N270 S269 1.613 1_556 S
N270 C273 1.350 . S
N271 S269 1.610 . S
N271 C272 1.351 . S
C272 C266 1.428 . S
C272 N271 1.351 . S
C272 C273 1.434 1_554 S
C273 C264 1.429 . S
C273 N270 1.350 . S
C273 C272 1.434 1_556 S
C274 C275 1.356 1_556 S
C274 C276 1.428 . S
C274 H278 0.934 . S
C275 C274 1.356 1_554 S
C275 C284 1.429 . S
C276 C274 1.428 . S
C276 C277 1.363 . S
C276 H279 0.929 . S
C277 C276 1.363 . S
C277 C283 1.428 1_556 S
H278 C274 0.934 . S
H279 C276 0.929 . S
S280 N281 1.613 . S
S280 N282 1.610 . S
N281 S280 1.613 . S
N281 C284 1.350 . S
N282 S280 1.610 . S
N282 C283 1.351 . S
C283 C277 1.428 1_554 S
C283 N282 1.351 . S
C283 C284 1.434 . S
C284 C275 1.429 . S
C284 N281 1.350 . S
C284 C283 1.434 . S
C285 C286 1.369 . S
C285 C287 1.419 . S
C285 H289 0.930 . S
C286 C285 1.369 . S
C286 C295 1.429 . S
C287 C285 1.419 . S
C287 C288 1.363 . S
C287 H290 0.929 . S
C288 C287 1.363 . S
C288 C294 1.428 . S
H289 C285 0.930 . S
H290 C287 0.929 . S
S291 N292 1.613 . S
S291 N293 1.610 . S
N292 S291 1.613 . S
N292 C295 1.350 . S
N293 S291 1.610 . S
N293 C294 1.351 . S
C294 C288 1.428 . S
C294 N293 1.351 . S
C294 C295 1.434 . S
C295 C286 1.429 . S
C295 N292 1.350 . S
C295 C294 1.434 . S
C296 C297 1.369 . S
C296 C298 1.419 . S
C296 H300 0.930 . S
C297 C296 1.369 . S
C297 C306 1.429 . S
C298 C296 1.419 . S
C298 C299 1.363 . S
C298 H301 0.929 . S
C299 C298 1.363 . S
C299 C305 1.428 . S
H300 C296 0.930 . S
H301 C298 0.929 . S
S302 N303 1.613 . S
S302 N304 1.610 . S
N303 S302 1.613 . S
N303 C306 1.350 . S
N304 S302 1.610 . S
N304 C305 1.351 . S
C305 C299 1.428 . S
C305 N304 1.351 . S
C305 C306 1.434 . S
C306 C297 1.429 . S
C306 N303 1.350 . S
C306 C305 1.434 . S
C307 C308 1.369 . S
C307 C309 1.419 . S
C307 H311 0.930 . S
C308 C307 1.369 . S
C308 C317 1.429 . S
C309 C307 1.419 . S
C309 C310 1.363 . S
C309 H312 0.929 . S
C310 C309 1.363 . S
C310 C316 1.428 . S
H311 C307 0.930 . S
H312 C309 0.929 . S
S313 N314 1.613 . S
S313 N315 1.610 . S
N314 S313 1.613 . S
N314 C317 1.350 . S
N315 S313 1.610 . S
N315 C316 1.351 . S
C316 C310 1.428 . S
C316 N315 1.351 . S
C316 C317 1.434 . S
C317 C308 1.429 . S
C317 N314 1.350 . S
C317 C316 1.434 . S
C318 C319 1.369 . S
C318 C320 1.419 . S
C318 H322 0.930 . S
C319 C318 1.369 . S
C319 C328 1.429 . S
C320 C318 1.419 . S
C320 C321 1.363 . S
C320 H323 0.929 . S
C321 C320 1.363 . S
C321 C327 1.428 . S
H322 C318 0.930 . S
H323 C320 0.929 . S
S324 N325 1.613 . S
S324 N326 1.610 . S
N325 S324 1.613 . S
N325 C328 1.350 . S
N326 S324 1.610 . S
N326 C327 1.351 . S
C327 C321 1.428 . S
C327 N326 1.351 . S
C327 C328 1.434 . S
C328 C319 1.429 . S
C328 N325 1.350 . S
C328 C327 1.434 . S
C329 C330 1.369 . S
C329 C331 1.419 . S
C329 H333 0.930 . S
C330 C329 1.369 . S
C330 C339 1.429 . S
C331 C329 1.419 . S
C331 C332 1.363 . S
C331 H334 0.929 . S
C332 C331 1.363 . S
C332 C338 1.428 . S
H333 C329 0.930 . S
H334 C331 0.929 . S
S335 N336 1.613 . S
S335 N337 1.610 . S
N336 S335 1.613 . S
N336 C339 1.350 . S
N337 S335 1.610 . S
N337 C338 1.351 . S
C338 C332 1.428 . S
C338 N337 1.351 . S
C338 C339 1.434 . S
C339 C330 1.429 . S
C339 N336 1.350 . S
C339 C338 1.434 . S
C340 C341 1.369 . S
C340 C342 1.419 . S
C340 H344 0.930 . S
C341 C340 1.369 . S
C341 C350 1.429 . S
C342 C340 1.419 . S
C342 C343 1.363 . S
C342 H345 0.929 . S
C343 C342 1.363 . S
C343 C349 1.428 . S
H344 C340 0.930 . S
H345 C342 0.929 . S
S346 N347 1.613 . S
S346 N348 1.610 . S
N347 S346 1.613 . S
N347 C350 1.350 . S
N348 S346 1.610 . S
N348 C349 1.351 . S
C349 C343 1.428 . S
C349 N348 1.351 . S
C349 C350 1.434 . S
C350 C341 1.429 . S
C350 N347 1.350 . S
C350 C349 1.434 . S
C351 C352 1.369 . S
C351 C353 1.419 . S
C351 H355 0.930 . S
C352 C351 1.369 . S
C352 C361 1.429 . S
C353 C351 1.419 . S
C353 C354 1.363 . S
C353 H356 0.929 . S
C354 C353 1.363 . S
C354 C360 1.428 . S
H355 C351 0.930 . S
H356 C353 0.929 . S
S357 N358 1.613 . S
S357 N359 1.610 . S
N358 S357 1.613 . S
N358 C361 1.350 . S
N359 S357 1.610 . S
N359 C360 1.351 . S
C360 C354 1.428 . S
C360 N359 1.351 . S
C360 C361 1.434 . S
C361 C352 1.429 . S
C361 N358 1.350 . S
C361 C360 1.434 . S
C362 C363 1.369 . S
C362 C364 1.419 . S
C362 H366 0.930 . S
C363 C362 1.369 . S
C363 C372 1.429 . S
C364 C362 1.419 . S
C364 C365 1.363 . S
C364 H367 0.929 . S
C365 C364 1.363 . S
C365 C371 1.428 . S
H366 C362 0.930 . S
H367 C364 0.929 . S
S368 N369 1.613 . S
S368 N370 1.610 . S
N369 S368 1.613 . S
N369 C372 1.350 . S
N370 S368 1.610 . S
N370 C371 1.351 . S
C371 C365 1.428 . S
C371 N370 1.351 . S
C371 C372 1.434 . S
C372 C363 1.429 . S
C372 N369 1.350 . S
C372 C371 1.434 . S
C373 C374 1.369 . S
C373 C375 1.419 . S
C373 H377 0.930 . S
C374 C373 1.369 . S
C374 C383 1.429 . S
C375 C373 1.419 . S
C375 C376 1.363 . S
C375 H378 0.929 . S
C376 C375 1.363 . S
C376 C382 1.428 . S
H377 C373 0.930 . S
H378 C375 0.929 . S
S379 N380 1.613 . S
S379 N381 1.610 . S
N380 S379 1.613 . S
N380 C383 1.350 . S
N381 S379 1.610 . S
N381 C382 1.351 . S
C382 C376 1.428 . S
C382 N381 1.351 . S
C382 C383 1.434 . S
C383 C374 1.429 . S
C383 N380 1.350 . S
C383 C382 1.434 . S
C384 C385 1.369 . S
C384 C386 1.419 . S
C384 H388 0.930 . S
C385 C384 1.369 . S
C385 C394 1.429 . S
C386 C384 1.419 . S
C386 C387 1.363 . S
C386 H389 0.929 . S
C387 C386 1.363 . S
C387 C393 1.428 . S
H388 C384 0.930 . S
H389 C386 0.929 . S
S390 N391 1.613 . S
S390 N392 1.610 . S
N391 S390 1.613 . S
N391 C394 1.350 . S
N392 S390 1.610 . S
N392 C393 1.351 . S
C393 C387 1.428 . S
C393 N392 1.351 . S
C393 C394 1.434 . S
C394 C385 1.429 . S
C394 N391 1.350 . S
C394 C393 1.434 . S
C395 C396 1.369 . S
C395 C397 1.419 . S
C395 H399 0.930 . S
C396 C395 1.369 . S
C396 C405 1.429 . S
C397 C395 1.419 . S
C397 C398 1.363 . S
C397 H400 0.929 . S
C398 C397 1.363 . S
C398 C404 1.428 . S
H399 C395 0.930 . S
H400 C397 0.929 . S
S401 N402 1.613 . S
S401 N403 1.610 . S
N402 S401 1.613 . S
N402 C405 1.350 . S
N403 S401 1.610 . S
N403 C404 1.351 . S
C404 C398 1.428 . S
C404 N403 1.351 . S
C404 C405 1.434 . S
C405 C396 1.429 . S
C405 N402 1.350 . S
C405 C404 1.434 . S
C406 C407 1.369 . S
C406 C408 1.419 . S
C406 H410 0.930 . S
C407 C406 1.369 . S
C407 C416 1.429 . S
C408 C406 1.419 . S
C408 C409 1.363 . S
C408 H411 0.929 . S
C409 C408 1.363 . S
C409 C415 1.428 . S
H410 C406 0.930 . S
H411 C408 0.929 . S
S412 N413 1.613 . S
S412 N414 1.610 . S
N413 S412 1.613 . S
N413 C416 1.350 . S
N414 S412 1.610 . S
N414 C415 1.351 . S
C415 C409 1.428 . S
C415 N414 1.351 . S
C415 C416 1.434 . S
C416 C407 1.429 . S
C416 N413 1.350 . S
C416 C415 1.434 . S
C417 C418 1.369 . S
C417 C419 1.419 . S
C417 H421 0.930 . S
C418 C417 1.369 . S
C418 C427 1.429 . S
C419 C417 1.419 . S
C419 C420 1.363 . S
C419 H422 0.929 . S
C420 C419 1.363 . S
C420 C426 1.428 . S
H421 C417 0.930 . S
H422 C419 0.929 . S
S423 N424 1.613 . S
S423 N425 1.610 . S
N424 S423 1.613 . S
N424 C427 1.350 . S
N425 S423 1.610 . S
N425 C426 1.351 . S
C426 C420 1.428 . S
C426 N425 1.351 . S
C426 C427 1.434 . S
C427 C418 1.429 . S
C427 N424 1.350 . S
C427 C426 1.434 . S
C428 C429 1.369 . S
C428 C430 1.419 . S
C428 H432 0.930 . S
C429 C428 1.369 . S
C429 C438 1.429 . S
C430 C428 1.419 . S
C430 C431 1.363 . S
C430 H433 0.929 . S
C431 C430 1.363 . S
C431 C437 1.428 . S
H432 C428 0.930 . S
H433 C430 0.929 . S
S434 N435 1.613 . S
S434 N436 1.610 . S
N435 S434 1.613 . S
N435 C438 1.350 . S
N436 S434 1.610 . S
N436 C437 1.351 . S
C437 C431 1.428 . S
C437 N436 1.351 . S
C437 C438 1.434 . S
C438 C429 1.429 . S
C438 N435 1.350 . S
C438 C437 1.434 . S
C439 C440 1.369 . S
C439 C441 1.419 . S
C439 H443 0.930 . S
C440 C439 1.369 . S
C440 C449 1.429 . S
C441 C439 1.419 . S
C441 C442 1.363 . S
C441 H444 0.929 . S
C442 C441 1.363 . S
C442 C448 1.428 . S
H443 C439 0.930 . S
H444 C441 0.929 . S
S445 N446 1.613 . S
S445 N447 1.610 . S
N446 S445 1.613 . S
N446 C449 1.350 . S
N447 S445 1.610 . S
N447 C448 1.351 . S
C448 C442 1.428 . S
C448 N447 1.351 . S
C448 C449 1.434 . S
C449 C440 1.429 . S
C449 N446 1.350 . S
C449 C448 1.434 . S
C450 C451 1.369 . S
C450 C452 1.419 . S
C450 H454 0.930 . S
C451 C450 1.369 . S
C451 C460 1.429 . S
C452 C450 1.419 . S
C452 C453 1.363 . S
C452 H455 0.929 . S
C453 C452 1.363 . S
C453 C459 1.428 . S
H454 C450 0.930 . S
H455 C452 0.929 . S
S456 N457 1.613 . S
S456 N458 1.610 . S
N457 S456 1.613 . S
N457 C460 1.350 . S
N458 S456 1.610 . S
N458 C459 1.351 . S
C459 C453 1.428 . S
C459 N458 1.351 . S
C459 C460 1.434 . S
C460 C451 1.429 . S
C460 N457 1.350 . S
C460 C459 1.434 . S
C461 C462 1.369 . S
C461 C463 1.419 . S
C461 H465 0.930 . S
C462 C461 1.369 . S
C462 C471 1.429 . S
C463 C461 1.419 . S
C463 C464 1.363 . S
C463 H466 0.929 . S
C464 C463 1.363 . S
C464 C470 1.428 . S
H465 C461 0.930 . S
H466 C463 0.929 . S
S467 N468 1.613 . S
S467 N469 1.610 . S
N468 S467 1.613 . S
N468 C471 1.350 . S
N469 S467 1.610 . S
N469 C470 1.351 . S
C470 C464 1.428 . S
C470 N469 1.351 . S
C470 C471 1.434 . S
C471 C462 1.429 . S
C471 N468 1.350 . S
C471 C470 1.434 . S
C472 C473 1.369 . S
C472 C474 1.419 1_565 S
C472 H476 0.930 . S
C473 C472 1.369 . S
C473 C482 1.429 . S
C474 C472 1.419 1_545 S
C474 C475 1.358 . S
C474 H477 0.929 . S
C475 C474 1.358 . S
C475 C481 1.425 1_545 S
H476 C472 0.930 . S
H477 C474 0.929 . S
S478 N479 1.613 . S
S478 N480 1.610 . S
N479 S478 1.613 . S
N479 C482 1.350 . S
N480 S478 1.610 . S
N480 C481 1.351 . S
C481 C475 1.425 1_565 S
C481 N480 1.351 . S
C481 C482 1.434 . S
C482 C473 1.429 . S
C482 N479 1.350 . S
C482 C481 1.434 . S
C483 C484 1.369 . S
C483 C485 1.419 . S
C483 H487 0.930 . S
C484 C483 1.369 . S
C484 C493 1.429 . S
C485 C483 1.419 . S
C485 C486 1.363 . S
C485 H488 0.929 1_554 S
C486 C485 1.363 . S
C486 C492 1.428 . S
H487 C483 0.930 . S
H488 C485 0.929 1_556 S
S489 N490 1.613 . S
S489 N491 1.610 . S
N490 S489 1.613 . S
N490 C493 1.350 . S
N491 S489 1.610 . S
N491 C492 1.351 . S
C492 C486 1.428 . S
C492 N491 1.351 . S
C492 C493 1.434 . S
C493 C484 1.429 . S
C493 N490 1.350 . S
C493 C492 1.434 . S
C494 C495 1.369 . S
C494 C496 1.419 1_655 S
C494 H498 0.930 . S
C495 C494 1.369 . S
C495 C504 1.429 1_654 S
C496 C494 1.419 1_455 S
C496 C497 1.363 . S
C496 H499 0.929 . S
C497 C496 1.363 . S
C497 C503 1.428 . S
H498 C494 0.930 . S
H499 C496 0.929 . S
S500 N501 1.613 . S
S500 N502 1.610 . S
N501 S500 1.613 . S
N501 C504 1.350 . S
N502 S500 1.610 . S
N502 C503 1.351 1_556 S
C503 C497 1.428 . S
C503 N502 1.351 1_554 S
C503 C504 1.434 1_554 S
C504 C495 1.429 1_456 S
C504 N501 1.350 . S
C504 C503 1.434 1_556 S
C505 C506 1.369 . S
C505 C507 1.419 . S
C505 H509 0.930 1_554 S
C506 C505 1.369 . S
C506 C515 1.429 . S
C507 C505 1.419 . S
C507 C508 1.363 . S
C507 H510 0.929 . S
C508 C507 1.363 . S
C508 C514 1.428 . S
H509 C505 0.930 1_556 S
H510 C507 0.929 . S
S511 N512 1.613 . S
S511 N513 1.610 . S
N512 S511 1.613 . S
N512 C515 1.350 . S
N513 S511 1.610 . S
N513 C514 1.351 . S
C514 C508 1.428 . S
C514 N513 1.351 . S
C514 C515 1.434 . S
C515 C506 1.429 . S
C515 N512 1.350 . S
C515 C514 1.434 . S
C516 C517 1.369 . S
C516 C518 1.419 . S
C516 H520 0.930 . S
C517 C516 1.369 . S
C517 C526 1.429 1_655 S
C518 C516 1.419 . S
C518 C519 1.363 1_655 S
C518 H521 0.929 . S
C519 C518 1.363 1_455 S
C519 C525 1.428 . S
H520 C516 0.930 . S
H521 C518 0.929 . S
S522 N523 1.613 . S
S522 N524 1.610 . S
N523 S522 1.613 . S
N523 C526 1.350 . S
N524 S522 1.610 . S
N524 C525 1.351 . S
C525 C519 1.428 . S
C525 N524 1.351 . S
C525 C526 1.434 . S
C526 C517 1.429 1_455 S
C526 N523 1.350 . S
C526 C525 1.434 . S
C527 C528 1.369 . S
C527 C529 1.419 . S
C527 H531 0.930 . S
C528 C527 1.369 . S
C528 C537 1.429 . S
C529 C527 1.419 . S
C529 C530 1.363 . S
C529 H532 0.929 . S
C530 C529 1.363 . S
C530 C536 1.428 . S
H531 C527 0.930 . S
H532 C529 0.929 . S
S533 N534 1.613 . S
S533 N535 1.610 . S
N534 S533 1.613 . S
N534 C537 1.350 . S
N535 S533 1.610 . S
N535 C536 1.351 . S
C536 C530 1.428 . S
C536 N535 1.351 . S
C536 C537 1.434 . S
C537 C528 1.429 . S
C537 N534 1.350 . S
C537 C536 1.434 . S
C538 C539 1.369 . S
C538 C540 1.419 . S
C538 H542 0.930 . S
C539 C538 1.369 . S
C539 C548 1.429 . S
C540 C538 1.419 . S
C540 C541 1.363 . S
C540 H543 0.929 . S
C541 C540 1.363 . S
C541 C547 1.428 . S
H542 C538 0.930 . S
H543 C540 0.929 . S
S544 N545 1.613 . S
S544 N546 1.610 . S
N545 S544 1.613 . S
N545 C548 1.350 . S
N546 S544 1.610 . S
N546 C547 1.351 . S
C547 C541 1.428 . S
C547 N546 1.351 . S
C547 C548 1.434 . S
C548 C539 1.429 . S
C548 N545 1.350 . S
C548 C547 1.434 . S
C549 C550 1.374 . S
C549 C551 1.418 1_565 S
C549 H553 0.925 1_565 S
C550 C549 1.374 . S
C550 C559 1.429 . S
C551 C549 1.418 1_545 S
C551 C552 1.383 . S
C551 H554 0.929 . S
C552 C551 1.383 . S
C552 C558 1.408 1_545 S
H553 C549 0.925 1_545 S
H554 C551 0.929 . S
S555 N556 1.613 1_556 S
S555 N557 1.610 . S
N556 S555 1.613 1_554 S
N556 C559 1.350 1_554 S
N557 S555 1.610 . S
N557 C558 1.351 . S
C558 C552 1.408 1_565 S
C558 N557 1.351 . S
C558 C559 1.434 . S
C559 C550 1.429 . S
C559 N556 1.350 1_556 S
C559 C558 1.434 . S
C560 C561 1.369 . S
C560 C562 1.419 . S
C560 H564 0.930 . S
C561 C560 1.369 . S
C561 C570 1.429 . S
C562 C560 1.419 . S
C562 C563 1.363 . S
C562 H565 0.929 . S
C563 C562 1.363 . S
C563 C569 1.428 . S
H564 C560 0.930 . S
H565 C562 0.929 . S
S566 N567 1.613 1_554 S
S566 N568 1.610 . S
N567 S566 1.613 1_556 S
N567 C570 1.350 . S
N568 S566 1.610 . S
N568 C569 1.351 1_554 S
C569 C563 1.428 . S
C569 N568 1.351 1_556 S
C569 C570 1.434 . S
C570 C561 1.429 . S
C570 N567 1.350 . S
C570 C569 1.434 . S
C571 C572 1.369 . S
C571 C573 1.419 . S
C571 H575 0.930 . S
C572 C571 1.369 . S
C572 C581 1.429 . S
C573 C571 1.419 . S
C573 C574 1.363 . S
C573 H576 0.929 . S
C574 C573 1.363 . S
C574 C580 1.428 . S
H575 C571 0.930 . S
H576 C573 0.929 . S
S577 N578 1.613 . S
S577 N579 1.610 . S
N578 S577 1.613 . S
N578 C581 1.350 . S
N579 S577 1.610 . S
N579 C580 1.351 . S
C580 C574 1.428 . S
C580 N579 1.351 . S
C580 C581 1.434 . S
C581 C572 1.429 . S
C581 N578 1.350 . S
C581 C580 1.434 . S
C582 C583 1.369 . S
C582 C584 1.419 . S
C582 H586 0.930 . S
C583 C582 1.369 . S
C583 C592 1.429 . S
C584 C582 1.419 . S
C584 C585 1.363 . S
C584 H587 0.929 . S
C585 C584 1.363 . S
C585 C591 1.428 . S
H586 C582 0.930 . S
H587 C584 0.929 . S
S588 N589 1.613 . S
S588 N590 1.610 . S
N589 S588 1.613 . S
N589 C592 1.350 . S
N590 S588 1.610 . S
N590 C591 1.351 . S
C591 C585 1.428 . S
C591 N590 1.351 . S
C591 C592 1.434 . S
C592 C583 1.429 . S
C592 N589 1.350 . S
C592 C591 1.434 . S
C593 C594 1.369 . S
C593 C595 1.419 . S
C593 H597 0.930 . S
C594 C593 1.369 . S
C594 C603 1.429 . S
C595 C593 1.419 . S
C595 C596 1.363 . S
C595 H598 0.929 . S
C596 C595 1.363 . S
C596 C602 1.428 . S
H597 C593 0.930 . S
H598 C595 0.929 . S
S599 N600 1.613 . S
S599 N601 1.610 . S
N600 S599 1.613 . S
N600 C603 1.350 . S
N601 S599 1.610 . S
N601 C602 1.351 . S
C602 C596 1.428 . S
C602 N601 1.351 . S
C602 C603 1.434 . S
C603 C594 1.429 . S
C603 N600 1.350 . S
C603 C602 1.434 . S
C604 C605 1.369 . S
C604 C606 1.419 . S
C604 H608 0.930 . S
C605 C604 1.369 . S
C605 C614 1.429 . S
C606 C604 1.419 . S
C606 C607 1.363 . S
C606 H609 0.929 . S
C607 C606 1.363 . S
C607 C613 1.428 . S
H608 C604 0.930 . S
H609 C606 0.929 . S
S610 N611 1.613 . S
S610 N612 1.610 . S
N611 S610 1.613 . S
N611 C614 1.350 . S
N612 S610 1.610 . S
N612 C613 1.351 . S
C613 C607 1.428 . S
C613 N612 1.351 . S
C613 C614 1.434 . S
C614 C605 1.429 . S
C614 N611 1.350 . S
C614 C613 1.434 . S
C615 C616 1.369 . S
C615 C617 1.419 . S
C615 H619 0.930 . S
C616 C615 1.369 . S
C616 C625 1.429 . S
C617 C615 1.419 . S
C617 C618 1.363 . S
C617 H620 0.929 . S
C618 C617 1.363 . S
C618 C624 1.428 . S
H619 C615 0.930 . S
H620 C617 0.929 . S
S621 N622 1.613 . S
S621 N623 1.610 . S
N622 S621 1.613 . S
N622 C625 1.350 . S
N623 S621 1.610 . S
N623 C624 1.351 . S
C624 C618 1.428 . S
C624 N623 1.351 . S
C624 C625 1.434 . S
C625 C616 1.429 . S
C625 N622 1.350 . S
C625 C624 1.434 . S
C626 C627 1.369 . S
C626 C628 1.419 . S
C626 H630 0.930 . S
C627 C626 1.369 . S
C627 C636 1.429 . S
C628 C626 1.419 . S
C628 C629 1.363 . S
C628 H631 0.929 . S
C629 C628 1.363 . S
C629 C635 1.428 . S
H630 C626 0.930 . S
H631 C628 0.929 . S
S632 N633 1.613 . S
S632 N634 1.610 . S
N633 S632 1.613 . S
N633 C636 1.350 . S
N634 S632 1.610 . S
N634 C635 1.351 . S
C635 C629 1.428 . S
C635 N634 1.351 . S
C635 C636 1.434 . S
C636 C627 1.429 . S
C636 N633 1.350 . S
C636 C635 1.434 . S
C637 C638 1.369 . S
C637 C639 1.419 . S
C637 H641 0.930 . S
C638 C637 1.369 . S
C638 C647 1.429 . S
C639 C637 1.419 . S
C639 C640 1.363 . S
C639 H642 0.929 . S
C640 C639 1.363 . S
C640 C646 1.428 . S
H641 C637 0.930 . S
H642 C639 0.929 . S
S643 N644 1.613 . S
S643 N645 1.610 . S
N644 S643 1.613 . S
N644 C647 1.350 . S
N645 S643 1.610 . S
N645 C646 1.351 . S
C646 C640 1.428 . S
C646 N645 1.351 . S
C646 C647 1.434 . S
C647 C638 1.429 . S
C647 N644 1.350 . S
C647 C646 1.434 . S
C253 C49 1.454 . S
C255 C7 1.446 . S
C264 C64 1.450 . S
C266 C22 1.454 . S
C275 C35 1.473 . S
C277 C77 1.467 . S
C286 C36 1.413 . S
C288 C78 1.406 . S
C297 C8 1.391 . S
C299 C50 1.386 . S
C308 C63 1.402 . S
C310 C21 1.399 . S
C319 C133 1.360 . S
C321 C92 1.362 . S
C330 C106 1.381 . S
C332 C148 1.376 . S
C341 C120 1.391 . S
C343 C161 1.390 . S
C352 C162 1.502 . S
C354 C119 1.495 . S
C363 C134 1.473 . S
C365 C91 1.466 . S
C374 C147 1.487 . S
C376 C105 1.484 . S
C385 C175 1.450 . S
C387 C217 1.454 . S
C396 C190 1.454 . S
C398 C232 1.461 . S
C407 C203 1.475 . S
C409 C245 1.481 . S
C418 C246 1.414 . S
C420 C204 1.411 . S
C429 C218 1.396 . S
C431 C176 1.393 . S
C440 C231 1.409 . S
C442 C189 1.408 . S
C451 C3 1.337 . S
C453 C101 1.337 . S
C462 C23 1.337 . S
C464 C115 1.352 . S
C473 C87 1.343 . S
C475 C31 1.348 . S
C484 C37 1.328 . S
C486 C191 1.319 . S
C495 C199 1.328 1_554 S
C497 C9 1.313 . S
C506 C171 1.308 1_554 S
C508 C17 1.315 . S
C517 C227 1.303 . S
C519 C45 1.306 . S
C528 C65 1.329 . S
C530 C247 1.324 . S
C539 C219 1.312 . S
C541 C73 1.322 . S
C550 C149 1.303 1_556 S
C552 C79 1.308 . S
C561 C51 1.280 . S
C563 C157 1.303 1_556 S
C572 C59 1.286 . S
C574 C129 1.286 . S
C583 C93 1.279 . S
C585 C185 1.299 . S
C594 C107 1.294 . S
C596 C205 1.302 . S
C605 C121 1.299 . S
C607 C177 1.296 . S
C616 C233 1.354 . S
C618 C163 1.349 . S
C627 C241 1.346 . S
C629 C135 1.332 . S
C638 C143 1.340 1_545 S
C640 C213 1.334 . S
