# Generated by pormake.
# Topology uoj, (4)-cn, num edge types: 1
# Building blocks:
#     Node 0, Type 0, BuildingBlock: KUFVIS_clean_sbu_0, # of connection points: 4
#     Node 1, Type 0, BuildingBlock: KUFVIS_clean_sbu_0, # of connection points: 4
#     Node 2, Type 0, BuildingBlock: KUFVIS_clean_sbu_0, # of connection points: 4
#     Node 3, Type 0, BuildingBlock: KUFVIS_clean_sbu_0, # of connection points: 4
#     Node 4, Type 0, BuildingBlock: KUFVIS_clean_sbu_0, # of connection points: 4
#     Node 5, Type 0, BuildingBlock: KUFVIS_clean_sbu_0, # of connection points: 4
#     Node 6, Type 0, BuildingBlock: KUFVIS_clean_sbu_0, # of connection points: 4
#     Node 7, Type 0, BuildingBlock: KUFVIS_clean_sbu_0, # of connection points: 4
#     Edge 8, Type (0, 0), BuildingBlock: OJICUG_clean_linker_0, # of connection points: 2
#     Edge 9, Type (0, 0), BuildingBlock: OJICUG_clean_linker_0, # of connection points: 2
#     Edge 10, Type (0, 0), BuildingBlock: OJICUG_clean_linker_0, # of connection points: 2
#     Edge 11, Type (0, 0), BuildingBlock: OJICUG_clean_linker_0, # of connection points: 2
#     Edge 12, Type (0, 0), BuildingBlock: OJICUG_clean_linker_0, # of connection points: 2
#     Edge 13, Type (0, 0), BuildingBlock: OJICUG_clean_linker_0, # of connection points: 2
#     Edge 14, Type (0, 0), BuildingBlock: OJICUG_clean_linker_0, # of connection points: 2
#     Edge 15, Type (0, 0), BuildingBlock: OJICUG_clean_linker_0, # of connection points: 2
#     Edge 16, Type (0, 0), BuildingBlock: OJICUG_clean_linker_0, # of connection points: 2
#     Edge 17, Type (0, 0), BuildingBlock: OJICUG_clean_linker_0, # of connection points: 2
#     Edge 18, Type (0, 0), BuildingBlock: OJICUG_clean_linker_0, # of connection points: 2
#     Edge 19, Type (0, 0), BuildingBlock: OJICUG_clean_linker_0, # of connection points: 2
#     Edge 20, Type (0, 0), BuildingBlock: OJICUG_clean_linker_0, # of connection points: 2
#     Edge 21, Type (0, 0), BuildingBlock: OJICUG_clean_linker_0, # of connection points: 2
#     Edge 22, Type (0, 0), BuildingBlock: OJICUG_clean_linker_0, # of connection points: 2
#     Edge 23, Type (0, 0), BuildingBlock: OJICUG_clean_linker_0, # of connection points: 2
# Relax obj value: 0.135
# Max RMSD: 0.157
# Mean RMSD: 0.157
data_MOF--net-uoj--node1-KUFVIS_clean_sbu_0--edge1-OJICUG_clean_linker_0
_symmetry_space_group_name_H-M    P1
_symmetry_Int_Tables_number       1
_symmetry_cell_setting            triclinic
loop_
_symmetry_equiv_pos_as_xyz
'x, y, z'
_cell_length_a     23.876958
_cell_length_b     23.877029
_cell_length_c     26.465655
_cell_angle_alpha  90.012901
_cell_angle_beta   90.012616
_cell_angle_gamma 89.990991
loop_
_atom_site_label
_atom_site_type_symbol
_atom_site_fract_x
_atom_site_fract_y
_atom_site_fract_z
_atom_type_partial_charge
Mn0 Mn 0.05897 0.31332 0.43428 0.0
Mn1 Mn 0.07173 0.30926 0.56082 0.0
C2 C 0.02803 0.38821 0.48296 0.0
C3 C 0.09534 0.33203 0.35378 0.0
C4 C 0.97607 0.25432 0.50598 0.0
O5 O 0.11236 0.24742 0.44409 0.0
O6 O 0.11395 0.24805 0.52859 0.0
C7 C 0.19225 0.33846 0.56109 0.0
N8 N 0.13896 0.34848 0.57711 0.0
C9 C 0.17044 0.41955 0.63463 0.0
C10 C 0.22571 0.41017 0.61884 0.0
C11 C 0.23659 0.36978 0.58151 0.0
C12 C 0.12779 0.38873 0.61135 0.0
H13 H 0.20089 0.30658 0.53323 0.0
C14 C 0.12807 0.22699 0.48623 0.0
O15 O 0.05431 0.29709 0.36036 0.0
O16 O 0.11593 0.3552 0.39406 0.0
N17 N 0.03409 0.36489 0.59945 0.0
C18 C 0.97894 0.36592 0.61258 0.0
C19 C 0.96162 0.39963 0.65292 0.0
C20 C 0.00134 0.43103 0.6797 0.0
C21 C 0.05754 0.43107 0.66447 0.0
C22 C 0.07239 0.3963 0.62425 0.0
H23 H 0.94878 0.33946 0.59376 0.0
O24 O 0.0106 0.38105 0.43703 0.0
O25 O 0.06604 0.35303 0.4985 0.0
O26 O 0.99395 0.26601 0.46166 0.0
O27 O 0.00127 0.26912 0.54642 0.0
C28 C 0.09993 0.46173 0.68927 0.0
C29 C 0.15613 0.45694 0.67363 0.0
H30 H 0.26013 0.43329 0.63547 0.0
H31 H 0.27912 0.36212 0.56917 0.0
H32 H 0.91819 0.39972 0.66464 0.0
H33 H 0.98833 0.45349 0.71291 0.0
H34 H 0.09016 0.48891 0.72059 0.0
H35 H 0.18819 0.48093 0.69289 0.0
Mn36 Mn 0.31334 0.93739 0.57145 0.0
Mn37 Mn 0.30942 0.92485 0.44488 0.0
C38 C 0.38824 0.96851 0.52289 0.0
C39 C 0.332 0.90078 0.65187 0.0
C40 C 0.25418 0.02028 0.49983 0.0
O41 O 0.24749 0.88398 0.56143 0.0
O42 O 0.24836 0.88232 0.47692 0.0
C43 C 0.33917 0.80447 0.44441 0.0
N44 N 0.34895 0.85783 0.4285 0.0
C45 C 0.4204 0.82684 0.37117 0.0
C46 C 0.41126 0.77149 0.38684 0.0
C47 C 0.37079 0.76033 0.42402 0.0
C48 C 0.38926 0.86928 0.39441 0.0
H49 H 0.30725 0.79562 0.47217 0.0
C50 C 0.22723 0.86818 0.51924 0.0
O51 O 0.29704 0.94182 0.64535 0.0
O52 O 0.35523 0.88033 0.61157 0.0
N53 N 0.36494 0.96284 0.40645 0.0
C54 C 0.36583 0.01805 0.39354 0.0
C55 C 0.3997 0.03567 0.35343 0.0
C56 C 0.43138 0.99618 0.32665 0.0
C57 C 0.43154 0.9399 0.34167 0.0
C58 C 0.39662 0.92475 0.38167 0.0
H59 H 0.33918 0.04804 0.41236 0.0
O60 O 0.38107 0.98581 0.56885 0.0
O61 O 0.35308 0.93052 0.50726 0.0
O62 O 0.26599 0.00242 0.54414 0.0
O63 O 0.26898 0.9951 0.45938 0.0
C64 C 0.46248 0.89771 0.31689 0.0
C65 C 0.45789 0.84143 0.33236 0.0
H66 H 0.43463 0.73723 0.37024 0.0
H67 H 0.36333 0.71774 0.43627 0.0
H68 H 0.39969 0.07915 0.34187 0.0
H69 H 0.45388 0.00946 0.29357 0.0
H70 H 0.48976 0.90766 0.28573 0.0
H71 H 0.48213 0.80954 0.31313 0.0
Mn72 Mn 0.93758 0.68309 0.43352 0.0
Mn73 Mn 0.92492 0.68727 0.56006 0.0
C74 C 0.96866 0.60828 0.48224 0.0
C75 C 0.90095 0.66416 0.35315 0.0
C76 C 0.02039 0.7424 0.50512 0.0
O77 O 0.88418 0.74901 0.44338 0.0
O78 O 0.88226 0.74819 0.52788 0.0
C79 C 0.80459 0.65734 0.56058 0.0
N80 N 0.85798 0.64767 0.57649 0.0
C81 C 0.82716 0.57626 0.63392 0.0
C82 C 0.77178 0.58529 0.61825 0.0
C83 C 0.76052 0.62568 0.58101 0.0
C84 C 0.86953 0.60744 0.61064 0.0
H85 H 0.79567 0.6892 0.53278 0.0
C86 C 0.86822 0.76928 0.48551 0.0
O87 O 0.942 0.69913 0.35956 0.0
O88 O 0.88051 0.64111 0.39352 0.0
N89 N 0.96303 0.63187 0.59856 0.0
C90 C 0.01827 0.63102 0.6114 0.0
C91 C 0.03601 0.59714 0.65146 0.0
C92 C 0.99661 0.56542 0.67828 0.0
C93 C 0.94028 0.56527 0.66337 0.0
C94 C 0.92502 0.60017 0.62337 0.0
H95 H 0.0482 0.65767 0.59253 0.0
O96 O 0.98599 0.61535 0.43627 0.0
O97 O 0.93068 0.6435 0.49776 0.0
O98 O 0.00266 0.73046 0.46078 0.0
O99 O 0.99509 0.72777 0.54553 0.0
C100 C 0.89816 0.53433 0.68821 0.0
C101 C 0.84185 0.53884 0.67277 0.0
H102 H 0.73757 0.56188 0.63488 0.0
H103 H 0.71791 0.63306 0.56876 0.0
H104 H 0.07952 0.59714 0.66294 0.0
H105 H 0.01001 0.54287 0.7113 0.0
H106 H 0.90819 0.50712 0.7194 0.0
H107 H 0.81002 0.5146 0.69204 0.0
Mn108 Mn 0.68308 0.05886 0.5711 0.0
Mn109 Mn 0.68734 0.0718 0.44459 0.0
C110 C 0.6083 0.02792 0.52227 0.0
C111 C 0.66407 0.09521 0.65157 0.0
C112 C 0.74233 0.97612 0.49939 0.0
O113 O 0.74896 0.11231 0.56145 0.0
O114 O 0.74836 0.11419 0.47695 0.0
C115 C 0.65778 0.19224 0.44434 0.0
N116 N 0.64794 0.13893 0.42829 0.0
C117 C 0.5768 0.17021 0.37074 0.0
C118 C 0.586 0.2255 0.38657 0.0
C119 C 0.62633 0.23649 0.42393 0.0
C120 C 0.60776 0.12764 0.39402 0.0
H121 H 0.68961 0.20097 0.47223 0.0
C122 C 0.76935 0.12822 0.51937 0.0
O123 O 0.69908 0.0542 0.64506 0.0
O124 O 0.64104 0.11579 0.61123 0.0
N125 N 0.63188 0.03402 0.40589 0.0
C126 C 0.63097 0.97885 0.39281 0.0
C127 C 0.59726 0.9614 0.35251 0.0
C128 C 0.56575 0.00102 0.32573 0.0
C129 C 0.56561 0.05726 0.3409 0.0
C130 C 0.60036 0.07222 0.3811 0.0
H131 H 0.6575 0.94876 0.41164 0.0
O132 O 0.61539 0.01046 0.56819 0.0
O133 O 0.64348 0.06597 0.50684 0.0
O134 O 0.73049 0.99388 0.54373 0.0
O135 O 0.72765 0.00145 0.45899 0.0
C136 C 0.53485 0.09956 0.31609 0.0
C137 C 0.53947 0.15579 0.33173 0.0
H138 H 0.56278 0.25985 0.36995 0.0
H139 H 0.63384 0.27904 0.43629 0.0
H140 H 0.59724 0.91796 0.34083 0.0
H141 H 0.54326 0.9879 0.29257 0.0
H142 H 0.50772 0.08971 0.28476 0.0
H143 H 0.5154 0.18778 0.31247 0.0
Mn144 Mn 0.43713 0.81221 0.93277 0.0
Mn145 Mn 0.42386 0.80912 0.05929 0.0
C146 C 0.46801 0.88743 0.98114 0.0
C147 C 0.4009 0.83064 0.85216 0.0
C148 C 0.5195 0.75334 0.00502 0.0
O149 O 0.38365 0.74638 0.94285 0.0
O150 O 0.38108 0.74817 0.02733 0.0
C151 C 0.30367 0.83965 0.05925 0.0
N152 N 0.35703 0.84912 0.07534 0.0
C153 C 0.32624 0.92053 0.13281 0.0
C154 C 0.27089 0.91174 0.11695 0.0
C155 C 0.25964 0.87147 0.07959 0.0
C156 C 0.36859 0.88928 0.10955 0.0
H157 H 0.29475 0.80784 0.0314 0.0
C158 C 0.3673 0.72665 0.98506 0.0
O159 O 0.44189 0.79565 0.85889 0.0
O160 O 0.38026 0.85392 0.89235 0.0
N161 N 0.46205 0.86457 0.09763 0.0
C162 C 0.51725 0.86518 0.11062 0.0
C163 C 0.53494 0.89875 0.15092 0.0
C164 C 0.49552 0.93042 0.1778 0.0
C165 C 0.43928 0.93093 0.16267 0.0
C166 C 0.42406 0.89633 0.12244 0.0
H167 H 0.54717 0.8385 0.09175 0.0
O168 O 0.48554 0.87996 0.93529 0.0
O169 O 0.42996 0.85236 0.99674 0.0
O170 O 0.50209 0.76506 0.96054 0.0
O171 O 0.49392 0.76819 0.04523 0.0
C172 C 0.39717 0.9619 0.18755 0.0
C173 C 0.34092 0.95771 0.17187 0.0
H174 H 0.2367 0.93522 0.13354 0.0
H175 H 0.21704 0.86427 0.0672 0.0
H176 H 0.5784 0.89851 0.16255 0.0
H177 H 0.50884 0.95274 0.21097 0.0
H178 H 0.4072 0.98884 0.21896 0.0
H179 H 0.30909 0.98197 0.19116 0.0
Mn180 Mn 0.81199 0.55793 0.07261 0.0
Mn181 Mn 0.80869 0.57124 0.94611 0.0
C182 C 0.88713 0.52702 0.02418 0.0
C183 C 0.83062 0.59431 0.15315 0.0
C184 C 0.75294 0.47564 1.00043 0.0
O185 O 0.74612 0.6114 0.06259 0.0
O186 O 0.74786 0.6141 0.97812 0.0
C187 C 0.83937 0.69137 0.94612 0.0
N188 N 0.84874 0.638 0.93002 0.0
C189 C 0.92004 0.66867 0.87242 0.0
C190 C 0.91135 0.72403 0.88829 0.0
C191 C 0.87119 0.73536 0.92572 0.0
C192 C 0.8888 0.62637 0.89574 0.0
H193 H 0.80763 0.70034 0.97402 0.0
C194 C 0.72638 0.62783 0.0204 0.0
O195 O 0.79563 0.55331 0.14655 0.0
O196 O 0.85378 0.61487 0.11288 0.0
N197 N 0.86403 0.53295 0.90773 0.0
C198 C 0.86459 0.47774 0.89479 0.0
C199 C 0.89808 0.45997 0.85448 0.0
C200 C 0.92971 0.49933 0.82754 0.0
C201 C 0.93027 0.5556 0.84261 0.0
C202 C 0.89577 0.57088 0.88286 0.0
H203 H 0.83792 0.44786 0.91373 0.0
O204 O 0.87975 0.50952 0.07004 0.0
O205 O 0.85202 0.56507 0.00861 0.0
O206 O 0.76479 0.49297 0.04491 0.0
O207 O 0.76771 0.50125 0.96022 0.0
C208 C 0.9612 0.59766 0.81766 0.0
C209 C 0.9571 0.65393 0.83331 0.0
H210 H 0.93482 0.75819 0.87166 0.0
H211 H 0.86406 0.77796 0.93811 0.0
H212 H 0.8978 0.41649 0.8429 0.0
H213 H 0.95198 0.48593 0.79436 0.0
H214 H 0.98806 0.58759 0.78621 0.0
H215 H 0.98135 0.68572 0.81397 0.0
Mn216 Mn 0.55777 0.18316 0.93234 0.0
Mn217 Mn 0.57114 0.18619 0.05884 0.0
C218 C 0.52683 0.10797 0.98068 0.0
C219 C 0.59404 0.1647 0.85174 0.0
C220 C 0.47541 0.24196 0.00473 0.0
O221 O 0.6113 0.24896 0.94241 0.0
O222 O 0.61353 0.24734 0.02688 0.0
C223 C 0.69143 0.15605 0.05818 0.0
N224 N 0.6382 0.14643 0.07455 0.0
C225 C 0.66957 0.07481 0.13153 0.0
C226 C 0.72478 0.08379 0.1154 0.0
C227 C 0.73567 0.12425 0.07814 0.0
C228 C 0.62698 0.10607 0.10865 0.0
H229 H 0.70007 0.18798 0.03038 0.0
C230 C 0.62741 0.26883 0.98466 0.0
O231 O 0.55306 0.19971 0.85843 0.0
O232 O 0.6146 0.14139 0.89195 0.0
N233 N 0.53336 0.13054 0.09726 0.0
C234 C 0.47828 0.12981 0.1106 0.0
C235 C 0.46098 0.09613 0.15094 0.0
C236 C 0.50067 0.06445 0.17749 0.0
C237 C 0.55678 0.06403 0.16197 0.0
C238 C 0.57161 0.09881 0.12178 0.0
H239 H 0.44817 0.15651 0.09199 0.0
O240 O 0.50927 0.11545 0.93484 0.0
O241 O 0.56493 0.143 0.99628 0.0
O242 O 0.49292 0.23043 0.96022 0.0
O243 O 0.50087 0.22685 0.04494 0.0
C244 C 0.59914 0.03302 0.18646 0.0
C245 C 0.65526 0.0374 0.17049 0.0
H246 H 0.75914 0.06029 0.13169 0.0
H247 H 0.77816 0.13158 0.06552 0.0
H248 H 0.41763 0.09631 0.16288 0.0
H249 H 0.48769 0.04212 0.21076 0.0
H250 H 0.58943 0.00586 0.21778 0.0
H251 H 0.68728 0.01309 0.18947 0.0
Mn252 Mn 0.183 0.43742 0.07272 0.0
Mn253 Mn 0.18589 0.42414 0.9462 0.0
C254 C 0.10767 0.46823 0.02444 0.0
C255 C 0.16476 0.40121 0.15337 0.0
C256 C 0.24144 0.51997 1.00032 0.0
O257 O 0.24888 0.38397 0.06258 0.0
O258 O 0.24723 0.38191 0.97811 0.0
C259 C 0.15618 0.30376 0.94675 0.0
N260 N 0.14633 0.35697 0.93046 0.0
C261 C 0.07475 0.32543 0.87348 0.0
C262 C 0.08396 0.27022 0.88955 0.0
C263 C 0.12451 0.25942 0.92676 0.0
C264 C 0.10589 0.36809 0.89639 0.0
H265 H 0.18818 0.29518 0.97452 0.0
C266 C 0.26879 0.368 0.02032 0.0
O267 O 0.19969 0.44222 0.14659 0.0
O268 O 0.14141 0.38055 0.11322 0.0
N269 N 0.13007 0.46177 0.90782 0.0
C270 C 0.12914 0.51686 0.89448 0.0
C271 C 0.09535 0.53408 0.85416 0.0
C272 C 0.06376 0.49431 0.82763 0.0
C273 C 0.06355 0.4382 0.84312 0.0
C274 C 0.09842 0.42345 0.8833 0.0
H275 H 0.15578 0.54704 0.91308 0.0
O276 O 0.11519 0.48579 0.07028 0.0
O277 O 0.14275 0.43019 0.0088 0.0
O278 O 0.23007 0.50236 0.04481 0.0
O279 O 0.22634 0.49453 0.96009 0.0
C280 C 0.03264 0.39577 0.81863 0.0
C281 C 0.03724 0.33964 0.83456 0.0
H282 H 0.06058 0.2358 0.87323 0.0
H283 H 0.13203 0.21695 0.93932 0.0
H284 H 0.09539 0.57743 0.84223 0.0
H285 H 0.04135 0.50721 0.79436 0.0
H286 H 0.0054 0.40542 0.78732 0.0
H287 H 0.01302 0.30757 0.81556 0.0
C288 C 0.17457 0.40453 0.24788 0.0
C289 C 0.15 0.38071 0.20464 0.0
H290 H 0.17687 0.40768 0.32878 0.0
C291 C 0.10927 0.33873 0.21094 0.0
H292 H 0.20612 0.43688 0.24439 0.0
C293 C 0.09242 0.32204 0.25933 0.0
C294 C 0.11597 0.34684 0.30257 0.0
H295 H 0.08952 0.31944 0.17846 0.0
H296 H 0.0602 0.29034 0.2628 0.0
C297 C 0.15779 0.38775 0.29629 0.0
C298 C 0.38769 0.83816 0.70926 0.0
C299 C 0.34674 0.87997 0.70304 0.0
H300 H 0.43678 0.78966 0.76109 0.0
C301 C 0.32182 0.90332 0.7463 0.0
H302 H 0.40771 0.81924 0.67675 0.0
C303 C 0.33844 0.88628 0.79467 0.0
C304 C 0.38045 0.84556 0.80091 0.0
H305 H 0.29008 0.93552 0.74288 0.0
H306 H 0.31906 0.90588 0.82718 0.0
C307 C 0.40438 0.82119 0.75764 0.0
C308 C 0.83834 0.60815 0.29599 0.0
C309 C 0.88012 0.64915 0.30204 0.0
H310 H 0.78982 0.55879 0.24438 0.0
C311 C 0.90342 0.67386 0.25867 0.0
H312 H 0.81946 0.58828 0.32859 0.0
C313 C 0.88634 0.657 0.21038 0.0
C314 C 0.84563 0.61495 0.20432 0.0
H315 H 0.9356 0.70562 0.26196 0.0
H316 H 0.90589 0.67623 0.17779 0.0
C317 C 0.82133 0.59121 0.24769 0.0
C318 C 0.59104 0.17441 0.75723 0.0
C319 C 0.61469 0.14986 0.80054 0.0
H320 H 0.58825 0.17669 0.67632 0.0
C321 C 0.65669 0.10911 0.79438 0.0
H322 H 0.55866 0.20597 0.76061 0.0
C323 C 0.67361 0.09225 0.74605 0.0
C324 C 0.649 0.11581 0.70273 0.0
H325 H 0.67585 0.08938 0.82692 0.0
H326 H 0.70533 0.06003 0.74268 0.0
C327 C 0.60804 0.15762 0.70888 0.0
C328 C 0.21109 0.10531 0.53861 0.0
C329 C 0.22286 0.07366 0.49523 0.0
H330 H 0.17331 0.17818 0.56964 0.0
C331 C 0.2051 0.09404 0.44786 0.0
H332 H 0.22451 0.09143 0.57565 0.0
C333 C 0.17521 0.14446 0.44428 0.0
C334 C 0.16273 0.17547 0.48798 0.0
H335 H 0.2138 0.07086 0.41357 0.0
H336 H 0.16127 0.15863 0.4075 0.0
C337 C 0.18166 0.15544 0.53503 0.0
C338 C 0.15593 0.81439 0.47029 0.0
C339 C 0.17573 0.83351 0.51737 0.0
H340 H 0.09204 0.77151 0.42952 0.0
C341 C 0.14444 0.8213 0.56096 0.0
H342 H 0.17889 0.82251 0.43577 0.0
C343 C 0.09398 0.79154 0.55723 0.0
C344 C 0.07381 0.77362 0.50983 0.0
H345 H 0.15843 0.8354 0.59776 0.0
H346 H 0.07059 0.78308 0.59144 0.0
C347 C 0.10574 0.78508 0.46657 0.0
C348 C 0.78459 0.89054 0.53792 0.0
C349 C 0.77351 0.92266 0.49468 0.0
H350 H 0.82174 0.81725 0.56876 0.0
C351 C 0.79179 0.90265 0.44735 0.0
H352 H 0.77071 0.9041 0.57492 0.0
C353 C 0.82158 0.85218 0.44368 0.0
C354 C 0.83344 0.82073 0.48726 0.0
H355 H 0.78362 0.9262 0.41316 0.0
H356 H 0.836 0.83834 0.40694 0.0
C357 C 0.81391 0.84035 0.53425 0.0
C358 C 0.84053 0.18252 0.47079 0.0
C359 C 0.8208 0.163 0.51774 0.0
H360 H 0.90431 0.22579 0.43029 0.0
C361 C 0.85208 0.17496 0.56141 0.0
H362 H 0.81755 0.17462 0.43622 0.0
C363 C 0.9025 0.20484 0.55787 0.0
C364 C 0.92262 0.22311 0.51058 0.0
H365 H 0.83815 0.16056 0.59812 0.0
H366 H 0.92593 0.21308 0.59212 0.0
C367 C 0.89066 0.21193 0.46726 0.0
C368 C 0.29078 0.59302 0.94776 0.0
C369 C 0.27256 0.5734 0.99524 0.0
H370 H 0.33497 0.65698 0.90692 0.0
C371 C 0.28366 0.60588 0.03825 0.0
H372 H 0.28259 0.56919 0.91373 0.0
C373 C 0.31295 0.65604 0.03425 0.0
C374 C 0.33246 0.67526 0.98712 0.0
H375 H 0.26981 0.59263 0.07535 0.0
H376 H 0.3208 0.67941 0.06861 0.0
C377 C 0.32058 0.64345 0.94375 0.0
C378 C 0.64274 0.67381 0.06163 0.0
C379 C 0.67498 0.66266 0.01837 0.0
H380 H 0.56804 0.71108 0.0915 0.0
C381 C 0.65613 0.68279 0.97133 0.0
H382 H 0.65598 0.65891 0.09839 0.0
C383 C 0.60588 0.71194 0.96726 0.0
C384 C 0.57296 0.72227 0.01014 0.0
H385 H 0.67986 0.67554 0.93707 0.0
H386 H 0.59293 0.7263 0.93024 0.0
C387 C 0.59223 0.70347 0.05757 0.0
C388 C 0.71105 0.38947 0.03813 0.0
C389 C 0.72178 0.42224 0.99524 0.0
H390 H 0.67433 0.31563 0.06824 0.0
C391 C 0.7033 0.40288 0.94774 0.0
H392 H 0.72512 0.40251 0.07522 0.0
C393 C 0.67364 0.35239 0.94358 0.0
C394 C 0.66212 0.32029 0.98682 0.0
H395 H 0.71122 0.42694 0.9138 0.0
H396 H 0.65904 0.33905 0.90674 0.0
C397 C 0.68188 0.33926 0.03397 0.0
C398 C 0.39001 0.2852 0.96678 0.0
C399 C 0.42208 0.27328 0.00986 0.0
H400 H 0.31684 0.32303 0.93644 0.0
C401 C 0.40215 0.29087 0.05744 0.0
H402 H 0.40352 0.27192 0.92959 0.0
C403 C 0.35176 0.32073 0.06153 0.0
C404 C 0.32031 0.33334 0.01812 0.0
H405 H 0.42568 0.28205 0.09152 0.0
H406 H 0.33794 0.33454 0.09846 0.0
C407 C 0.3399 0.31457 0.97085 0.0
C408 C 0.0398 0.53963 0.51112 0.0
C409 C 0.98313 0.55533 0.50794 0.0
H410 H 0.09894 0.47197 0.50902 0.0
C411 C 0.9419 0.51379 0.51243 0.0
H412 H 0.07234 0.57094 0.50716 0.0
C413 C 0.95715 0.45708 0.51185 0.0
C414 C 0.01378 0.44134 0.50848 0.0
H415 H 0.89798 0.52473 0.50938 0.0
H416 H 0.92456 0.42573 0.50843 0.0
C417 C 0.05504 0.48293 0.51226 0.0
C418 C 0.53946 0.95711 0.49318 0.0
C419 C 0.55518 0.01375 0.4967 0.0
H420 H 0.47186 0.89793 0.49554 0.0
C421 C 0.51356 0.05501 0.49308 0.0
H422 H 0.57084 0.92453 0.4965 0.0
C423 C 0.45687 0.03974 0.49422 0.0
C424 C 0.4412 0.98307 0.49724 0.0
H425 H 0.52451 0.09889 0.49644 0.0
H426 H 0.42555 0.07228 0.49828 0.0
C427 C 0.48276 0.94186 0.49261 0.0
C428 C 0.45588 0.03895 0.00921 0.0
C429 C 0.5125 0.0548 0.00608 0.0
H430 H 0.39692 0.97114 0.00704 0.0
C431 C 0.55385 0.01335 0.01043 0.0
H432 H 0.42324 0.07019 0.00535 0.0
C433 C 0.53876 0.9566 0.00977 0.0
C434 C 0.48217 0.94072 0.00644 0.0
H435 H 0.59774 0.0244 0.0074 0.0
H436 H 0.57143 0.92533 0.00631 0.0
C437 C 0.44079 0.98221 0.01025 0.0
C438 C 0.03858 0.53915 0.99594 0.0
C439 C 0.05446 0.48254 0.99907 0.0
H440 H 0.97076 0.5981 0.99817 0.0
C441 C 0.01303 0.44118 0.99477 0.0
H442 H 0.06982 0.57179 0.99976 0.0
C443 C 0.95627 0.45626 0.99549 0.0
C444 C 0.94037 0.51286 0.99882 0.0
H445 H 0.02411 0.3973 0.99781 0.0
H446 H 0.92502 0.42359 0.999 0.0
C447 C 0.98184 0.55423 0.99495 0.0
loop_
_geom_bond_atom_site_label_1
_geom_bond_atom_site_label_2
_geom_bond_distance
_geom_bond_site_symmetry_2
_ccdc_geom_bond_type
Mn0 O5 2.095 . S
Mn0 O15 2.162 . S
Mn0 O16 2.297 . S
Mn0 O24 2.385 . S
Mn0 O25 2.209 . S
Mn0 O26 2.094 1_455 S
Mn1 O6 2.121 . S
Mn1 N8 2.257 . S
Mn1 N17 2.282 1_455 S
Mn1 O25 2.215 . S
Mn1 O27 2.117 1_455 S
C2 O24 1.234 . S
C2 O25 1.283 . S
C3 O15 1.281 . S
C3 O16 1.236 . S
C4 O26 1.240 . S
C4 O27 1.264 . S
O5 Mn0 2.095 . S
O5 C14 1.250 . S
O6 Mn1 2.121 . S
O6 C14 1.258 . S
C7 N8 1.326 . S
C7 C11 1.460 . S
C7 H13 0.929 . S
N8 Mn1 2.257 . S
N8 C7 1.326 . S
N8 C12 1.362 . S
C9 C10 1.258 . S
C9 C12 1.431 . S
C9 C29 1.449 . S
C10 C9 1.258 . S
C10 C11 1.477 . S
C10 H30 0.931 . S
C11 C7 1.460 . S
C11 C10 1.477 . S
C11 H31 0.930 . S
C12 N8 1.362 . S
C12 C9 1.431 . S
C12 C22 1.476 . S
H13 C7 0.929 . S
C14 O5 1.250 . S
C14 O6 1.258 . S
O15 Mn0 2.162 . S
O15 C3 1.281 . S
O16 Mn0 2.297 . S
O16 C3 1.236 . S
N17 Mn1 2.282 1_655 S
N17 C18 1.328 . S
N17 C22 1.318 1_655 S
C18 N17 1.328 . S
C18 C19 1.457 . S
C18 H23 0.929 . S
C19 C18 1.457 . S
C19 C20 1.291 . S
C19 H32 0.931 . S
C20 C19 1.291 . S
C20 C21 1.373 . S
C20 H33 0.929 . S
C21 C20 1.373 . S
C21 C22 1.396 1_655 S
C21 C28 1.403 1_655 S
C22 C12 1.476 . S
C22 N17 1.318 1_455 S
C22 C21 1.396 1_455 S
H23 C18 0.929 . S
O24 Mn0 2.385 . S
O24 C2 1.234 . S
O25 Mn0 2.209 . S
O25 Mn1 2.215 . S
O25 C2 1.283 . S
O26 Mn0 2.094 1_655 S
O26 C4 1.240 . S
O27 Mn1 2.117 1_655 S
O27 C4 1.264 . S
C28 C21 1.403 1_455 S
C28 C29 1.399 . S
C28 H34 0.929 1_455 S
C29 C9 1.449 . S
C29 C28 1.399 . S
C29 H35 0.930 . S
H30 C10 0.931 . S
H31 C11 0.930 . S
H32 C19 0.931 . S
H33 C20 0.929 . S
H34 C28 0.929 1_655 S
H35 C29 0.930 . S
Mn36 O41 2.095 . S
Mn36 O51 2.162 . S
Mn36 O52 2.297 . S
Mn36 O60 2.385 . S
Mn36 O61 2.209 . S
Mn36 O62 2.094 1_565 S
Mn37 O42 2.121 . S
Mn37 N44 2.257 . S
Mn37 N53 2.282 1_565 S
Mn37 O61 2.215 . S
Mn37 O63 2.117 1_565 S
C38 O60 1.234 . S
C38 O61 1.283 . S
C39 O51 1.281 . S
C39 O52 1.236 . S
C40 O62 1.240 . S
C40 O63 1.264 . S
O41 Mn36 2.095 . S
O41 C50 1.250 . S
O42 Mn37 2.121 . S
O42 C50 1.258 . S
C43 N44 1.326 . S
C43 C47 1.460 . S
C43 H49 0.929 . S
N44 Mn37 2.257 . S
N44 C43 1.326 . S
N44 C48 1.362 . S
C45 C46 1.258 . S
C45 C48 1.431 . S
C45 C65 1.449 . S
C46 C45 1.258 . S
C46 C47 1.477 . S
C46 H66 0.931 . S
C47 C43 1.460 . S
C47 C46 1.477 . S
C47 H67 0.930 . S
C48 N44 1.362 . S
C48 C45 1.431 . S
C48 C58 1.476 . S
H49 C43 0.929 . S
C50 O41 1.250 . S
C50 O42 1.258 . S
O51 Mn36 2.162 . S
O51 C39 1.281 . S
O52 Mn36 2.297 . S
O52 C39 1.236 . S
N53 Mn37 2.282 1_545 S
N53 C54 1.328 . S
N53 C58 1.318 1_545 S
C54 N53 1.328 . S
C54 C55 1.457 . S
C54 H59 0.929 . S
C55 C54 1.457 . S
C55 C56 1.291 . S
C55 H68 0.931 . S
C56 C55 1.291 . S
C56 C57 1.373 . S
C56 H69 0.929 . S
C57 C56 1.373 . S
C57 C58 1.396 1_545 S
C57 C64 1.403 1_545 S
C58 C48 1.476 . S
C58 N53 1.318 1_565 S
C58 C57 1.396 1_565 S
H59 C54 0.929 . S
O60 Mn36 2.385 . S
O60 C38 1.234 . S
O61 Mn36 2.209 . S
O61 Mn37 2.215 . S
O61 C38 1.283 . S
O62 Mn36 2.094 1_545 S
O62 C40 1.240 . S
O63 Mn37 2.117 1_545 S
O63 C40 1.264 . S
C64 C57 1.403 1_565 S
C64 C65 1.399 . S
C64 H70 0.929 1_565 S
C65 C45 1.449 . S
C65 C64 1.399 . S
C65 H71 0.930 . S
H66 C46 0.931 . S
H67 C47 0.930 . S
H68 C55 0.931 . S
H69 C56 0.929 . S
H70 C64 0.929 1_545 S
H71 C65 0.930 . S
Mn72 O77 2.095 . S
Mn72 O87 2.162 . S
Mn72 O88 2.297 . S
Mn72 O96 2.385 . S
Mn72 O97 2.209 . S
Mn72 O98 2.094 1_655 S
Mn73 O78 2.121 . S
Mn73 N80 2.257 . S
Mn73 N89 2.282 1_655 S
Mn73 O97 2.215 . S
Mn73 O99 2.117 1_655 S
C74 O96 1.234 . S
C74 O97 1.283 . S
C75 O87 1.281 . S
C75 O88 1.236 . S
C76 O98 1.240 . S
C76 O99 1.264 . S
O77 Mn72 2.095 . S
O77 C86 1.250 . S
O78 Mn73 2.121 . S
O78 C86 1.258 . S
C79 N80 1.326 . S
C79 C83 1.460 . S
C79 H85 0.929 . S
N80 Mn73 2.257 . S
N80 C79 1.326 . S
N80 C84 1.362 . S
C81 C82 1.258 . S
C81 C84 1.431 . S
C81 C101 1.449 . S
C82 C81 1.258 . S
C82 C83 1.477 . S
C82 H102 0.931 . S
C83 C79 1.460 . S
C83 C82 1.477 . S
C83 H103 0.930 . S
C84 N80 1.362 . S
C84 C81 1.431 . S
C84 C94 1.476 . S
H85 C79 0.929 . S
C86 O77 1.250 . S
C86 O78 1.258 . S
O87 Mn72 2.162 . S
O87 C75 1.281 . S
O88 Mn72 2.297 . S
O88 C75 1.236 . S
N89 Mn73 2.282 1_455 S
N89 C90 1.328 . S
N89 C94 1.318 1_455 S
C90 N89 1.328 . S
C90 C91 1.457 . S
C90 H95 0.929 . S
C91 C90 1.457 . S
C91 C92 1.291 . S
C91 H104 0.931 . S
C92 C91 1.291 . S
C92 C93 1.373 . S
C92 H105 0.929 . S
C93 C92 1.373 . S
C93 C94 1.396 1_455 S
C93 C100 1.403 1_455 S
C94 C84 1.476 . S
C94 N89 1.318 1_655 S
C94 C93 1.396 1_655 S
H95 C90 0.929 . S
O96 Mn72 2.385 . S
O96 C74 1.234 . S
O97 Mn72 2.209 . S
O97 Mn73 2.215 . S
O97 C74 1.283 . S
O98 Mn72 2.094 1_455 S
O98 C76 1.240 . S
O99 Mn73 2.117 1_455 S
O99 C76 1.264 . S
C100 C93 1.403 1_655 S
C100 C101 1.399 . S
C100 H106 0.929 1_655 S
C101 C81 1.449 . S
C101 C100 1.399 . S
C101 H107 0.930 . S
H102 C82 0.931 . S
H103 C83 0.930 . S
H104 C91 0.931 . S
H105 C92 0.929 . S
H106 C100 0.929 1_455 S
H107 C101 0.930 . S
Mn108 O113 2.095 . S
Mn108 O123 2.162 . S
Mn108 O124 2.297 . S
Mn108 O132 2.385 . S
Mn108 O133 2.209 . S
Mn108 O134 2.094 1_545 S
Mn109 O114 2.121 . S
Mn109 N116 2.257 . S
Mn109 N125 2.282 1_545 S
Mn109 O133 2.215 . S
Mn109 O135 2.117 1_545 S
C110 O132 1.234 . S
C110 O133 1.283 . S
C111 O123 1.281 . S
C111 O124 1.236 . S
C112 O134 1.240 . S
C112 O135 1.264 . S
O113 Mn108 2.095 . S
O113 C122 1.250 . S
O114 Mn109 2.121 . S
O114 C122 1.258 . S
C115 N116 1.326 . S
C115 C119 1.460 . S
C115 H121 0.929 . S
N116 Mn109 2.257 . S
N116 C115 1.326 . S
N116 C120 1.362 . S
C117 C118 1.258 . S
C117 C120 1.431 . S
C117 C137 1.449 . S
C118 C117 1.258 . S
C118 C119 1.477 . S
C118 H138 0.931 . S
C119 C115 1.460 . S
C119 C118 1.477 . S
C119 H139 0.930 . S
C120 N116 1.362 . S
C120 C117 1.431 . S
C120 C130 1.476 . S
H121 C115 0.929 . S
C122 O113 1.250 . S
C122 O114 1.258 . S
O123 Mn108 2.162 . S
O123 C111 1.281 . S
O124 Mn108 2.297 . S
O124 C111 1.236 . S
N125 Mn109 2.282 1_565 S
N125 C126 1.328 . S
N125 C130 1.318 1_565 S
C126 N125 1.328 . S
C126 C127 1.457 . S
C126 H131 0.929 . S
C127 C126 1.457 . S
C127 C128 1.291 . S
C127 H140 0.931 . S
C128 C127 1.291 . S
C128 C129 1.373 . S
C128 H141 0.929 . S
C129 C128 1.373 . S
C129 C130 1.396 1_565 S
C129 C136 1.403 1_565 S
C130 C120 1.476 . S
C130 N125 1.318 1_545 S
C130 C129 1.396 1_545 S
H131 C126 0.929 . S
O132 Mn108 2.385 . S
O132 C110 1.234 . S
O133 Mn108 2.209 . S
O133 Mn109 2.215 . S
O133 C110 1.283 . S
O134 Mn108 2.094 1_565 S
O134 C112 1.240 . S
O135 Mn109 2.117 1_565 S
O135 C112 1.264 . S
C136 C129 1.403 1_545 S
C136 C137 1.399 . S
C136 H142 0.929 1_545 S
C137 C117 1.449 . S
C137 C136 1.399 . S
C137 H143 0.930 . S
H138 C118 0.931 . S
H139 C119 0.930 . S
H140 C127 0.931 . S
H141 C128 0.929 . S
H142 C136 0.929 1_565 S
H143 C137 0.930 . S
Mn144 O149 2.095 . S
Mn144 O159 2.162 . S
Mn144 O160 2.297 . S
Mn144 O168 2.385 . S
Mn144 O169 2.225 . S
Mn144 O170 2.094 . S
Mn145 O150 2.121 . S
Mn145 N152 2.257 . S
Mn145 N161 2.282 . S
Mn145 O169 2.197 1_554 S
Mn145 O171 2.117 . S
C146 O168 1.234 . S
C146 O169 1.292 . S
C147 O159 1.281 . S
C147 O160 1.236 . S
C148 O170 1.240 . S
C148 O171 1.264 1_556 S
O149 Mn144 2.095 . S
O149 C158 1.250 1_556 S
O150 Mn145 2.121 . S
O150 C158 1.258 . S
C151 N152 1.326 . S
C151 C155 1.460 . S
C151 H157 0.929 . S
N152 Mn145 2.257 . S
N152 C151 1.326 . S
N152 C156 1.362 . S
C153 C154 1.258 . S
C153 C156 1.431 . S
C153 C173 1.449 . S
C154 C153 1.258 . S
C154 C155 1.477 . S
C154 H174 0.931 . S
C155 C151 1.460 . S
C155 C154 1.477 . S
C155 H175 0.930 . S
C156 N152 1.362 . S
C156 C153 1.431 . S
C156 C166 1.476 . S
H157 C151 0.929 . S
C158 O149 1.250 1_554 S
C158 O150 1.258 . S
O159 Mn144 2.162 . S
O159 C147 1.281 . S
O160 Mn144 2.297 . S
O160 C147 1.236 . S
N161 Mn145 2.282 . S
N161 C162 1.328 . S
N161 C166 1.318 . S
C162 N161 1.328 . S
C162 C163 1.457 . S
C162 H167 0.929 . S
C163 C162 1.457 . S
C163 C164 1.291 . S
C163 H176 0.931 . S
C164 C163 1.291 . S
C164 C165 1.373 . S
C164 H177 0.929 . S
C165 C164 1.373 . S
C165 C166 1.396 . S
C165 C172 1.403 . S
C166 C156 1.476 . S
C166 N161 1.318 . S
C166 C165 1.396 . S
H167 C162 0.929 . S
O168 Mn144 2.385 . S
O168 C146 1.234 . S
O169 Mn144 2.225 . S
O169 Mn145 2.197 1_556 S
O169 C146 1.292 . S
O170 Mn144 2.094 . S
O170 C148 1.240 . S
O171 Mn145 2.117 . S
O171 C148 1.264 1_554 S
C172 C165 1.403 . S
C172 C173 1.399 . S
C172 H178 0.929 1_565 S
C173 C153 1.449 . S
C173 C172 1.399 . S
C173 H179 0.930 1_565 S
H174 C154 0.931 . S
H175 C155 0.930 . S
H176 C163 0.931 . S
H177 C164 0.929 . S
H178 C172 0.929 1_545 S
H179 C173 0.930 1_545 S
Mn180 O185 2.095 . S
Mn180 O195 2.162 . S
Mn180 O196 2.297 . S
Mn180 O204 2.385 . S
Mn180 O205 2.225 . S
Mn180 O206 2.094 . S
Mn181 O186 2.121 . S
Mn181 N188 2.257 . S
Mn181 N197 2.282 . S
Mn181 O205 2.197 1_556 S
Mn181 O207 2.117 . S
C182 O204 1.234 . S
C182 O205 1.292 . S
C183 O195 1.281 . S
C183 O196 1.236 . S
C184 O206 1.240 . S
C184 O207 1.264 1_554 S
O185 Mn180 2.095 . S
O185 C194 1.250 1_554 S
O186 Mn181 2.121 . S
O186 C194 1.258 . S
C187 N188 1.326 . S
C187 C191 1.460 . S
C187 H193 0.929 . S
N188 Mn181 2.257 . S
N188 C187 1.326 . S
N188 C192 1.362 . S
C189 C190 1.258 . S
C189 C192 1.431 . S
C189 C209 1.449 . S
C190 C189 1.258 . S
C190 C191 1.477 . S
C190 H210 0.931 . S
C191 C187 1.460 . S
C191 C190 1.477 . S
C191 H211 0.930 . S
C192 N188 1.362 . S
C192 C189 1.431 . S
C192 C202 1.476 . S
H193 C187 0.929 . S
C194 O185 1.250 1_556 S
C194 O186 1.258 . S
O195 Mn180 2.162 . S
O195 C183 1.281 . S
O196 Mn180 2.297 . S
O196 C183 1.236 . S
N197 Mn181 2.282 . S
N197 C198 1.328 . S
N197 C202 1.318 . S
C198 N197 1.328 . S
C198 C199 1.457 . S
C198 H203 0.929 . S
C199 C198 1.457 . S
C199 C200 1.291 . S
C199 H212 0.931 . S
C200 C199 1.291 . S
C200 C201 1.373 . S
C200 H213 0.929 . S
C201 C200 1.373 . S
C201 C202 1.396 . S
C201 C208 1.403 . S
C202 C192 1.476 . S
C202 N197 1.318 . S
C202 C201 1.396 . S
H203 C198 0.929 . S
O204 Mn180 2.385 . S
O204 C182 1.234 . S
O205 Mn180 2.225 . S
O205 Mn181 2.197 1_554 S
O205 C182 1.292 . S
O206 Mn180 2.094 . S
O206 C184 1.240 . S
O207 Mn181 2.117 . S
O207 C184 1.264 1_556 S
C208 C201 1.403 . S
C208 C209 1.399 . S
C208 H214 0.929 1_655 S
C209 C189 1.449 . S
C209 C208 1.399 . S
C209 H215 0.930 1_655 S
H210 C190 0.931 . S
H211 C191 0.930 . S
H212 C199 0.931 . S
H213 C200 0.929 . S
H214 C208 0.929 1_455 S
H215 C209 0.930 1_455 S
Mn216 O221 2.095 . S
Mn216 O231 2.162 . S
Mn216 O232 2.297 . S
Mn216 O240 2.385 . S
Mn216 O241 2.225 . S
Mn216 O242 2.094 . S
Mn217 O222 2.121 . S
Mn217 N224 2.257 . S
Mn217 N233 2.282 . S
Mn217 O241 2.197 1_554 S
Mn217 O243 2.117 . S
C218 O240 1.234 . S
C218 O241 1.292 . S
C219 O231 1.281 . S
C219 O232 1.236 . S
C220 O242 1.240 . S
C220 O243 1.264 1_556 S
O221 Mn216 2.095 . S
O221 C230 1.250 1_556 S
O222 Mn217 2.121 . S
O222 C230 1.258 . S
C223 N224 1.326 . S
C223 C227 1.460 . S
C223 H229 0.929 . S
N224 Mn217 2.257 . S
N224 C223 1.326 . S
N224 C228 1.362 . S
C225 C226 1.258 . S
C225 C228 1.431 . S
C225 C245 1.449 . S
C226 C225 1.258 . S
C226 C227 1.477 . S
C226 H246 0.931 . S
C227 C223 1.460 . S
C227 C226 1.477 . S
C227 H247 0.930 . S
C228 N224 1.362 . S
C228 C225 1.431 . S
C228 C238 1.476 . S
H229 C223 0.929 . S
C230 O221 1.250 1_554 S
C230 O222 1.258 . S
O231 Mn216 2.162 . S
O231 C219 1.281 . S
O232 Mn216 2.297 . S
O232 C219 1.236 . S
N233 Mn217 2.282 . S
N233 C234 1.328 . S
N233 C238 1.318 . S
C234 N233 1.328 . S
C234 C235 1.457 . S
C234 H239 0.929 . S
C235 C234 1.457 . S
C235 C236 1.291 . S
C235 H248 0.931 . S
C236 C235 1.291 . S
C236 C237 1.373 . S
C236 H249 0.929 . S
C237 C236 1.373 . S
C237 C238 1.396 . S
C237 C244 1.403 . S
C238 C228 1.476 . S
C238 N233 1.318 . S
C238 C237 1.396 . S
H239 C234 0.929 . S
O240 Mn216 2.385 . S
O240 C218 1.234 . S
O241 Mn216 2.225 . S
O241 Mn217 2.197 1_556 S
O241 C218 1.292 . S
O242 Mn216 2.094 . S
O242 C220 1.240 . S
O243 Mn217 2.117 . S
O243 C220 1.264 1_554 S
C244 C237 1.403 . S
C244 C245 1.399 . S
C244 H250 0.929 1_545 S
C245 C225 1.449 . S
C245 C244 1.399 . S
C245 H251 0.930 1_545 S
H246 C226 0.931 . S
H247 C227 0.930 . S
H248 C235 0.931 . S
H249 C236 0.929 . S
H250 C244 0.929 1_565 S
H251 C245 0.930 1_565 S
Mn252 O257 2.095 . S
Mn252 O267 2.162 . S
Mn252 O268 2.297 . S
Mn252 O276 2.385 . S
Mn252 O277 2.225 . S
Mn252 O278 2.094 . S
Mn253 O258 2.121 . S
Mn253 N260 2.257 . S
Mn253 N269 2.282 . S
Mn253 O277 2.197 1_556 S
Mn253 O279 2.117 . S
C254 O276 1.234 . S
C254 O277 1.292 . S
C255 O267 1.281 . S
C255 O268 1.236 . S
C256 O278 1.240 . S
C256 O279 1.264 1_554 S
O257 Mn252 2.095 . S
O257 C266 1.250 1_554 S
O258 Mn253 2.121 . S
O258 C266 1.258 . S
C259 N260 1.326 . S
C259 C263 1.460 . S
C259 H265 0.929 . S
N260 Mn253 2.257 . S
N260 C259 1.326 . S
N260 C264 1.362 . S
C261 C262 1.258 . S
C261 C264 1.431 . S
C261 C281 1.449 . S
C262 C261 1.258 . S
C262 C263 1.477 . S
C262 H282 0.931 . S
C263 C259 1.460 . S
C263 C262 1.477 . S
C263 H283 0.930 . S
C264 N260 1.362 . S
C264 C261 1.431 . S
C264 C274 1.476 . S
H265 C259 0.929 . S
C266 O257 1.250 1_556 S
C266 O258 1.258 . S
O267 Mn252 2.162 . S
O267 C255 1.281 . S
O268 Mn252 2.297 . S
O268 C255 1.236 . S
N269 Mn253 2.282 . S
N269 C270 1.328 . S
N269 C274 1.318 . S
C270 N269 1.328 . S
C270 C271 1.457 . S
C270 H275 0.929 . S
C271 C270 1.457 . S
C271 C272 1.291 . S
C271 H284 0.931 . S
C272 C271 1.291 . S
C272 C273 1.373 . S
C272 H285 0.929 . S
C273 C272 1.373 . S
C273 C274 1.396 . S
C273 C280 1.403 . S
C274 C264 1.476 . S
C274 N269 1.318 . S
C274 C273 1.396 . S
H275 C270 0.929 . S
O276 Mn252 2.385 . S
O276 C254 1.234 . S
O277 Mn252 2.225 . S
O277 Mn253 2.197 1_554 S
O277 C254 1.292 . S
O278 Mn252 2.094 . S
O278 C256 1.240 . S
O279 Mn253 2.117 . S
O279 C256 1.264 1_556 S
C280 C273 1.403 . S
C280 C281 1.399 . S
C280 H286 0.929 1_455 S
C281 C261 1.449 . S
C281 C280 1.399 . S
C281 H287 0.930 1_455 S
H282 C262 0.931 . S
H283 C263 0.930 . S
H284 C271 0.931 . S
H285 C272 0.929 . S
H286 C280 0.929 1_655 S
H287 C281 0.930 1_655 S
C288 C289 1.387 . S
C288 H292 0.950 . S
C288 C297 1.390 . S
C289 C288 1.387 . S
C289 C291 1.387 . S
H290 C297 0.950 . S
C291 C289 1.387 . S
C291 C293 1.390 . S
C291 H295 0.950 . S
H292 C288 0.950 . S
C293 C291 1.390 . S
C293 C294 1.387 . S
C293 H296 0.950 . S
C294 C293 1.387 . S
C294 C297 1.387 . S
H295 C291 0.950 . S
H296 C293 0.950 . S
C297 C288 1.390 . S
C297 H290 0.950 . S
C297 C294 1.387 . S
C298 C299 1.387 . S
C298 H302 0.950 . S
C298 C307 1.390 . S
C299 C298 1.387 . S
C299 C301 1.387 . S
H300 C307 0.950 . S
C301 C299 1.387 . S
C301 C303 1.390 . S
C301 H305 0.950 . S
H302 C298 0.950 . S
C303 C301 1.390 . S
C303 C304 1.387 . S
C303 H306 0.950 . S
C304 C303 1.387 . S
C304 C307 1.387 . S
H305 C301 0.950 . S
H306 C303 0.950 . S
C307 C298 1.390 . S
C307 H300 0.950 . S
C307 C304 1.387 . S
C308 C309 1.387 . S
C308 H312 0.950 . S
C308 C317 1.390 . S
C309 C308 1.387 . S
C309 C311 1.387 . S
H310 C317 0.950 . S
C311 C309 1.387 . S
C311 C313 1.390 . S
C311 H315 0.950 . S
H312 C308 0.950 . S
C313 C311 1.390 . S
C313 C314 1.387 . S
C313 H316 0.950 . S
C314 C313 1.387 . S
C314 C317 1.387 . S
H315 C311 0.950 . S
H316 C313 0.950 . S
C317 C308 1.390 . S
C317 H310 0.950 . S
C317 C314 1.387 . S
C318 C319 1.387 . S
C318 H322 0.950 . S
C318 C327 1.390 . S
C319 C318 1.387 . S
C319 C321 1.387 . S
H320 C327 0.950 . S
C321 C319 1.387 . S
C321 C323 1.390 . S
C321 H325 0.950 . S
H322 C318 0.950 . S
C323 C321 1.390 . S
C323 C324 1.387 . S
C323 H326 0.950 . S
C324 C323 1.387 . S
C324 C327 1.387 . S
H325 C321 0.950 . S
H326 C323 0.950 . S
C327 C318 1.390 . S
C327 H320 0.950 . S
C327 C324 1.387 . S
C328 C329 1.387 . S
C328 H332 0.950 . S
C328 C337 1.390 . S
C329 C328 1.387 . S
C329 C331 1.387 . S
H330 C337 0.950 . S
C331 C329 1.387 . S
C331 C333 1.390 . S
C331 H335 0.950 . S
H332 C328 0.950 . S
C333 C331 1.390 . S
C333 C334 1.387 . S
C333 H336 0.950 . S
C334 C333 1.387 . S
C334 C337 1.387 . S
H335 C331 0.950 . S
H336 C333 0.950 . S
C337 C328 1.390 . S
C337 H330 0.950 . S
C337 C334 1.387 . S
C338 C339 1.387 . S
C338 H342 0.950 . S
C338 C347 1.390 . S
C339 C338 1.387 . S
C339 C341 1.387 . S
H340 C347 0.950 . S
C341 C339 1.387 . S
C341 C343 1.390 . S
C341 H345 0.950 . S
H342 C338 0.950 . S
C343 C341 1.390 . S
C343 C344 1.387 . S
C343 H346 0.950 . S
C344 C343 1.387 . S
C344 C347 1.387 . S
H345 C341 0.950 . S
H346 C343 0.950 . S
C347 C338 1.390 . S
C347 H340 0.950 . S
C347 C344 1.387 . S
C348 C349 1.387 . S
C348 H352 0.950 . S
C348 C357 1.390 . S
C349 C348 1.387 . S
C349 C351 1.387 . S
H350 C357 0.950 . S
C351 C349 1.387 . S
C351 C353 1.390 . S
C351 H355 0.950 . S
H352 C348 0.950 . S
C353 C351 1.390 . S
C353 C354 1.387 . S
C353 H356 0.950 . S
C354 C353 1.387 . S
C354 C357 1.387 . S
H355 C351 0.950 . S
H356 C353 0.950 . S
C357 C348 1.390 . S
C357 H350 0.950 . S
C357 C354 1.387 . S
C358 C359 1.387 . S
C358 H362 0.950 . S
C358 C367 1.390 . S
C359 C358 1.387 . S
C359 C361 1.387 . S
H360 C367 0.950 . S
C361 C359 1.387 . S
C361 C363 1.390 . S
C361 H365 0.950 . S
H362 C358 0.950 . S
C363 C361 1.390 . S
C363 C364 1.387 . S
C363 H366 0.950 . S
C364 C363 1.387 . S
C364 C367 1.387 . S
H365 C361 0.950 . S
H366 C363 0.950 . S
C367 C358 1.390 . S
C367 H360 0.950 . S
C367 C364 1.387 . S
C368 C369 1.387 1_556 S
C368 H372 0.950 . S
C368 C377 1.390 . S
C369 C368 1.387 1_554 S
C369 C371 1.387 . S
H370 C377 0.950 . S
C371 C369 1.387 . S
C371 C373 1.390 . S
C371 H375 0.950 . S
H372 C368 0.950 . S
C373 C371 1.390 . S
C373 C374 1.387 . S
C373 H376 0.950 . S
C374 C373 1.387 . S
C374 C377 1.387 1_554 S
H375 C371 0.950 . S
H376 C373 0.950 . S
C377 C368 1.390 . S
C377 H370 0.950 . S
C377 C374 1.387 1_556 S
C378 C379 1.387 1_554 S
C378 H382 0.950 . S
C378 C387 1.390 . S
C379 C378 1.387 1_556 S
C379 C381 1.387 . S
H380 C387 0.950 . S
C381 C379 1.387 . S
C381 C383 1.390 . S
C381 H385 0.950 . S
H382 C378 0.950 . S
C383 C381 1.390 . S
C383 C384 1.387 . S
C383 H386 0.950 . S
C384 C383 1.387 . S
C384 C387 1.387 1_556 S
H385 C381 0.950 . S
H386 C383 0.950 . S
C387 C378 1.390 . S
C387 H380 0.950 . S
C387 C384 1.387 1_554 S
C388 C389 1.387 . S
C388 H392 0.950 . S
C388 C397 1.390 . S
C389 C388 1.387 . S
C389 C391 1.387 1_554 S
H390 C397 0.950 . S
C391 C389 1.387 1_556 S
C391 C393 1.390 . S
C391 H395 0.950 . S
H392 C388 0.950 . S
C393 C391 1.390 . S
C393 C394 1.387 1_556 S
C393 H396 0.950 . S
C394 C393 1.387 1_554 S
C394 C397 1.387 . S
H395 C391 0.950 . S
H396 C393 0.950 . S
C397 C388 1.390 . S
C397 H390 0.950 . S
C397 C394 1.387 . S
C398 C399 1.387 . S
C398 H402 0.950 . S
C398 C407 1.390 . S
C399 C398 1.387 . S
C399 C401 1.387 1_556 S
H400 C407 0.950 . S
C401 C399 1.387 1_554 S
C401 C403 1.390 . S
C401 H405 0.950 . S
H402 C398 0.950 . S
C403 C401 1.390 . S
C403 C404 1.387 1_554 S
C403 H406 0.950 . S
C404 C403 1.387 1_556 S
C404 C407 1.387 . S
H405 C401 0.950 . S
H406 C403 0.950 . S
C407 C398 1.390 . S
C407 H400 0.950 . S
C407 C404 1.387 . S
C408 C409 1.387 . S
C408 H412 0.950 . S
C408 C417 1.390 1_655 S
C409 C408 1.387 . S
C409 C411 1.387 . S
H410 C417 0.950 . S
C411 C409 1.387 . S
C411 C413 1.390 1_655 S
C411 H415 0.950 . S
H412 C408 0.950 . S
C413 C411 1.390 1_455 S
C413 C414 1.387 . S
C413 H416 0.950 . S
C414 C413 1.387 . S
C414 C417 1.387 . S
H415 C411 0.950 . S
H416 C413 0.950 . S
C417 C408 1.390 1_455 S
C417 H410 0.950 . S
C417 C414 1.387 . S
C418 C419 1.387 . S
C418 H422 0.950 . S
C418 C427 1.390 1_545 S
C419 C418 1.387 . S
C419 C421 1.387 . S
H420 C427 0.950 . S
C421 C419 1.387 . S
C421 C423 1.390 1_545 S
C421 H425 0.950 . S
H422 C418 0.950 . S
C423 C421 1.390 1_565 S
C423 C424 1.387 . S
C423 H426 0.950 . S
C424 C423 1.387 . S
C424 C427 1.387 . S
H425 C421 0.950 . S
H426 C423 0.950 . S
C427 C418 1.390 1_565 S
C427 H420 0.950 . S
C427 C424 1.387 . S
C428 C429 1.387 . S
C428 H432 0.950 . S
C428 C437 1.390 1_545 S
C429 C428 1.387 . S
C429 C431 1.387 1_556 S
H430 C437 0.950 . S
C431 C429 1.387 1_554 S
C431 C433 1.390 1_545 S
C431 H435 0.950 . S
H432 C428 0.950 . S
C433 C431 1.390 1_565 S
C433 C434 1.387 1_554 S
C433 H436 0.950 . S
C434 C433 1.387 1_556 S
C434 C437 1.387 . S
H435 C431 0.950 . S
H436 C433 0.950 . S
C437 C428 1.390 1_565 S
C437 H430 0.950 . S
C437 C434 1.387 . S
C438 C439 1.387 . S
C438 H442 0.950 . S
C438 C447 1.390 1_455 S
C439 C438 1.387 . S
C439 C441 1.387 1_554 S
H440 C447 0.950 . S
C441 C439 1.387 1_556 S
C441 C443 1.390 1_455 S
C441 H445 0.950 . S
H442 C438 0.950 . S
C443 C441 1.390 1_655 S
C443 C444 1.387 1_556 S
C443 H446 0.950 . S
C444 C443 1.387 1_554 S
C444 C447 1.387 . S
H445 C441 0.950 . S
H446 C443 0.950 . S
C447 C438 1.390 1_655 S
C447 H440 0.950 . S
C447 C444 1.387 . S
C289 C255 1.539 . S
C294 C3 1.539 . S
C299 C39 1.539 . S
C304 C147 1.539 . S
C309 C75 1.539 . S
C314 C183 1.539 . S
C319 C219 1.539 . S
C324 C111 1.539 . S
C329 C40 1.530 . S
C334 C14 1.471 . S
C339 C50 1.467 . S
C344 C76 1.529 . S
C349 C112 1.530 . S
C354 C86 1.470 . S
C359 C122 1.467 . S
C364 C4 1.529 . S
C369 C256 1.530 . S
C374 C158 1.470 . S
C379 C194 1.467 . S
C384 C148 1.529 . S
C389 C184 1.529 . S
C394 C230 1.467 . S
C399 C220 1.530 . S
C404 C266 1.470 . S
C409 C74 1.114 . S
C414 C2 1.114 . S
C419 C110 1.114 . S
C424 C38 1.114 . S
C429 C218 1.110 . S
C434 C146 1.110 . S
C439 C254 1.114 . S
C444 C182 1.114 . S
