# Generated by pormake.
# Topology umw, (4)-cn, num edge types: 1
# Building blocks:
#     Node 0, Type 0, BuildingBlock: ICAMEG_clean_sbu_1, # of connection points: 4
#     Node 1, Type 0, BuildingBlock: ICAMEG_clean_sbu_1, # of connection points: 4
#     Node 2, Type 0, BuildingBlock: ICAMEG_clean_sbu_1, # of connection points: 4
#     Node 3, Type 0, BuildingBlock: ICAMEG_clean_sbu_1, # of connection points: 4
#     Node 4, Type 0, BuildingBlock: ICAMEG_clean_sbu_1, # of connection points: 4
#     Node 5, Type 0, BuildingBlock: ICAMEG_clean_sbu_1, # of connection points: 4
#     Node 6, Type 0, BuildingBlock: ICAMEG_clean_sbu_1, # of connection points: 4
#     Node 7, Type 0, BuildingBlock: ICAMEG_clean_sbu_1, # of connection points: 4
#     Edge 8, Type (0, 0), BuildingBlock: ZUJKAS_clean_linker_0, # of connection points: 2
#     Edge 9, Type (0, 0), BuildingBlock: ZUJKAS_clean_linker_0, # of connection points: 2
#     Edge 10, Type (0, 0), BuildingBlock: ZUJKAS_clean_linker_0, # of connection points: 2
#     Edge 11, Type (0, 0), BuildingBlock: ZUJKAS_clean_linker_0, # of connection points: 2
#     Edge 12, Type (0, 0), BuildingBlock: ZUJKAS_clean_linker_0, # of connection points: 2
#     Edge 13, Type (0, 0), BuildingBlock: ZUJKAS_clean_linker_0, # of connection points: 2
#     Edge 14, Type (0, 0), BuildingBlock: ZUJKAS_clean_linker_0, # of connection points: 2
#     Edge 15, Type (0, 0), BuildingBlock: ZUJKAS_clean_linker_0, # of connection points: 2
#     Edge 16, Type (0, 0), BuildingBlock: ZUJKAS_clean_linker_0, # of connection points: 2
#     Edge 17, Type (0, 0), BuildingBlock: ZUJKAS_clean_linker_0, # of connection points: 2
#     Edge 18, Type (0, 0), BuildingBlock: ZUJKAS_clean_linker_0, # of connection points: 2
#     Edge 19, Type (0, 0), BuildingBlock: ZUJKAS_clean_linker_0, # of connection points: 2
#     Edge 20, Type (0, 0), BuildingBlock: ZUJKAS_clean_linker_0, # of connection points: 2
#     Edge 21, Type (0, 0), BuildingBlock: ZUJKAS_clean_linker_0, # of connection points: 2
#     Edge 22, Type (0, 0), BuildingBlock: ZUJKAS_clean_linker_0, # of connection points: 2
#     Edge 23, Type (0, 0), BuildingBlock: ZUJKAS_clean_linker_0, # of connection points: 2
# Relax obj value: 0.123
# Max RMSD: 0.129
# Mean RMSD: 0.129
data_MOF--net-umw--node1-ICAMEG_clean_sbu_1--edge1-ZUJKAS_clean_linker_0
_symmetry_space_group_name_H-M    P1
_symmetry_Int_Tables_number       1
_symmetry_cell_setting            triclinic
loop_
_symmetry_equiv_pos_as_xyz
'x, y, z'
_cell_length_a     54.834667
_cell_length_b     54.877902
_cell_length_c     37.084543
_cell_angle_alpha  90.011545
_cell_angle_beta   90.086804
_cell_angle_gamma 89.900516
loop_
_atom_site_label
_atom_site_type_symbol
_atom_site_fract_x
_atom_site_fract_y
_atom_site_fract_z
_atom_type_partial_charge
Co0 Co 0.45238 0.18194 0.3027 0.0
Co1 Co 0.3925 0.1793 0.329 0.0
O2 O 0.41906 0.19458 0.30211 0.0
C3 C 0.44357 0.18534 0.22417 0.0
O4 O 0.42316 0.17321 0.22866 0.0
C5 C 0.38955 0.2304 0.3543 0.0
O6 O 0.41297 0.22915 0.36152 0.0
O7 O 0.41187 0.18029 0.37449 0.0
O8 O 0.44953 0.17237 0.3541 0.0
H9 H 0.35556 0.11991 0.41629 0.0
H10 H 0.44312 0.23221 0.27692 0.0
O11 O 0.45657 0.19116 0.25121 0.0
H12 H 0.49892 0.24107 0.3805 0.0
H13 H 0.54184 0.18361 0.27221 0.0
H14 H 0.47612 0.13734 0.33142 0.0
H15 H 0.48552 0.20037 0.36054 0.0
H16 H 0.49977 0.19956 0.27314 0.0
O17 O 0.37866 0.21224 0.34021 0.0
H18 H 0.38895 0.13891 0.38187 0.0
H19 H 0.33903 0.18859 0.33403 0.0
H20 H 0.51796 0.12082 0.3314 0.0
H21 H 0.45627 0.27327 0.29576 0.0
H22 H 0.55118 0.14401 0.30162 0.0
H23 H 0.48431 0.27788 0.34797 0.0
O24 O 0.44078 0.14905 0.28812 0.0
H25 H 0.35809 0.21406 0.21439 0.0
H26 H 0.36391 0.14082 0.29097 0.0
H27 H 0.3409 0.13891 0.23385 0.0
H28 H 0.33784 0.17573 0.19516 0.0
H29 H 0.3811 0.2151 0.27159 0.0
H30 H 0.30512 0.17028 0.36819 0.0
H31 H 0.31328 0.13561 0.40955 0.0
O32 O 0.40559 0.14593 0.31864 0.0
C33 C 0.43414 0.1745 0.37953 0.0
C34 C 0.35175 0.13494 0.39825 0.0
C35 C 0.32345 0.16324 0.37128 0.0
N36 N 0.3659 0.16465 0.35568 0.0
C37 C 0.37058 0.14572 0.37859 0.0
C38 C 0.34273 0.17355 0.35206 0.0
C39 C 0.32804 0.14378 0.39448 0.0
C40 C 0.4555 0.23408 0.29945 0.0
N41 N 0.46363 0.21392 0.31748 0.0
C42 C 0.46281 0.25737 0.31008 0.0
C43 C 0.47852 0.25994 0.33941 0.0
C44 C 0.48671 0.2393 0.35769 0.0
C45 C 0.47901 0.2163 0.34631 0.0
C46 C 0.52754 0.17336 0.28535 0.0
C47 C 0.49049 0.14763 0.31863 0.0
C48 C 0.50367 0.18229 0.28591 0.0
N49 N 0.48554 0.16951 0.30261 0.0
C50 C 0.51414 0.13814 0.31861 0.0
C51 C 0.53277 0.15115 0.30186 0.0
C52 C 0.42304 0.13661 0.3005 0.0
C53 C 0.35923 0.19791 0.23106 0.0
C54 C 0.36273 0.1569 0.27423 0.0
C55 C 0.34963 0.15572 0.24195 0.0
C56 C 0.3479 0.17639 0.22027 0.0
N57 N 0.37374 0.17809 0.28467 0.0
C58 C 0.37216 0.19842 0.26353 0.0
Co59 Co 0.80809 0.45712 0.54068 0.0
Co60 Co 0.81754 0.40038 0.57867 0.0
O61 O 0.80081 0.42244 0.54538 0.0
C62 C 0.81544 0.4403 0.46555 0.0
O63 O 0.82956 0.42275 0.47763 0.0
C64 C 0.76596 0.39593 0.60086 0.0
O65 O 0.76489 0.41984 0.6012 0.0
O66 O 0.81416 0.42376 0.61962 0.0
O67 O 0.81122 0.46056 0.59356 0.0
H68 H 0.87855 0.37772 0.67425 0.0
H69 H 0.76402 0.43633 0.5062 0.0
O70 O 0.80499 0.4548 0.48736 0.0
H71 H 0.7335 0.49949 0.58936 0.0
H72 H 0.79711 0.54105 0.48809 0.0
H73 H 0.84358 0.49085 0.57455 0.0
H74 H 0.77763 0.49195 0.58318 0.0
H75 H 0.78792 0.49735 0.49534 0.0
O76 O 0.78562 0.38516 0.59185 0.0
H77 H 0.85749 0.40549 0.63215 0.0
H78 H 0.81244 0.34755 0.59585 0.0
H79 H 0.85322 0.53453 0.5684 0.0
H80 H 0.71972 0.44341 0.51124 0.0
H81 H 0.82991 0.55994 0.52489 0.0
H82 H 0.7042 0.47513 0.55316 0.0
O83 O 0.84388 0.4505 0.53712 0.0
H84 H 0.78818 0.35209 0.47203 0.0
H85 H 0.85904 0.37159 0.54874 0.0
H86 H 0.86408 0.34333 0.49757 0.0
H87 H 0.82846 0.33337 0.45885 0.0
H88 H 0.784 0.38044 0.52331 0.0
H89 H 0.83287 0.31919 0.63778 0.0
H90 H 0.86625 0.33422 0.67725 0.0
O91 O 0.84961 0.41507 0.56634 0.0
C92 C 0.8129 0.44696 0.62119 0.0
C93 C 0.86408 0.37093 0.65712 0.0
C94 C 0.83842 0.33809 0.63668 0.0
N95 N 0.83387 0.37811 0.6114 0.0
C96 C 0.85213 0.38656 0.63316 0.0
C97 C 0.82687 0.35425 0.61305 0.0
C98 C 0.85715 0.34653 0.65881 0.0
C99 C 0.75741 0.45028 0.52431 0.0
N100 N 0.7734 0.46371 0.54439 0.0
C101 C 0.7323 0.45416 0.52713 0.0
C102 C 0.7236 0.47194 0.55069 0.0
C103 C 0.74003 0.48559 0.57103 0.0
C104 C 0.76501 0.48119 0.56753 0.0
C105 C 0.80737 0.53018 0.50718 0.0
C106 C 0.83325 0.50182 0.55572 0.0
C107 C 0.80229 0.50541 0.51134 0.0
N108 N 0.8151 0.49159 0.53552 0.0
C109 C 0.83884 0.52653 0.55229 0.0
C110 C 0.82577 0.54077 0.52785 0.0
C111 C 0.85766 0.4338 0.54992 0.0
C112 C 0.80382 0.35624 0.48876 0.0
C113 C 0.84348 0.36742 0.53194 0.0
C114 C 0.84643 0.35136 0.50305 0.0
C115 C 0.82643 0.34577 0.48135 0.0
N116 N 0.82122 0.37757 0.53909 0.0
C117 C 0.80154 0.37221 0.5179 0.0
Co118 Co 0.54816 0.81888 0.80478 0.0
Co119 Co 0.60931 0.82339 0.82555 0.0
O120 O 0.58207 0.80824 0.79985 0.0
C121 C 0.5553 0.82136 0.72605 0.0
O122 O 0.57562 0.83331 0.73217 0.0
C123 C 0.61412 0.77173 0.84696 0.0
O124 O 0.59064 0.77205 0.85389 0.0
O125 O 0.59203 0.82051 0.87258 0.0
O126 O 0.55258 0.82473 0.85712 0.0
H127 H 0.6482 0.88182 0.9126 0.0
H128 H 0.55891 0.77154 0.76974 0.0
O129 O 0.54262 0.81349 0.75225 0.0
H130 H 0.50819 0.75155 0.87535 0.0
H131 H 0.45793 0.81424 0.78028 0.0
H132 H 0.52312 0.85919 0.84325 0.0
H133 H 0.51859 0.79423 0.86154 0.0
H134 H 0.50081 0.80101 0.77529 0.0
O135 O 0.62441 0.79056 0.83387 0.0
H136 H 0.61397 0.86275 0.87993 0.0
H137 H 0.6631 0.81535 0.82583 0.0
H138 H 0.48047 0.8729 0.84924 0.0
H139 H 0.54873 0.7286 0.78235 0.0
H140 H 0.44753 0.85037 0.8176 0.0
H141 H 0.52326 0.71839 0.83555 0.0
O142 O 0.55721 0.85333 0.79512 0.0
H143 H 0.63988 0.79263 0.70631 0.0
H144 H 0.63525 0.86365 0.78752 0.0
H145 H 0.65576 0.86771 0.72869 0.0
H146 H 0.6582 0.83202 0.68765 0.0
H147 H 0.61934 0.78944 0.76528 0.0
H148 H 0.69784 0.83373 0.85818 0.0
H149 H 0.6905 0.8673 0.9018 0.0
O150 O 0.59493 0.8566 0.8183 0.0
C151 C 0.56961 0.82347 0.88035 0.0
C152 C 0.65164 0.86726 0.89358 0.0
C153 C 0.6795 0.84025 0.86307 0.0
N154 N 0.63656 0.83809 0.85081 0.0
C155 C 0.63234 0.85644 0.87493 0.0
C156 C 0.65975 0.82987 0.8449 0.0
C157 C 0.67537 0.85909 0.88753 0.0
C158 C 0.54762 0.76724 0.79273 0.0
N159 N 0.53925 0.78537 0.81475 0.0
C160 C 0.542 0.7429 0.79982 0.0
C161 C 0.52773 0.73717 0.82971 0.0
C162 C 0.51928 0.75577 0.85206 0.0
C163 C 0.52528 0.7799 0.84415 0.0
C164 C 0.47212 0.82418 0.79425 0.0
C165 C 0.50887 0.84919 0.82958 0.0
C166 C 0.49644 0.81681 0.79146 0.0
N167 N 0.51443 0.82921 0.80917 0.0
C168 C 0.48476 0.85709 0.83299 0.0
C169 C 0.46629 0.84445 0.8152 0.0
C170 C 0.57557 0.86593 0.80497 0.0
C171 C 0.63898 0.8083 0.72399 0.0
C172 C 0.63617 0.84806 0.76977 0.0
C173 C 0.64786 0.85045 0.73653 0.0
C174 C 0.64923 0.83041 0.71352 0.0
N175 N 0.6262 0.82629 0.77985 0.0
C176 C 0.62746 0.80657 0.75745 0.0
Co177 Co 0.1923 0.54283 0.04893 0.0
Co178 Co 0.18553 0.60412 0.06904 0.0
O179 O 0.20045 0.5772 0.04216 0.0
C180 C 0.18085 0.55035 0.97168 0.0
O181 O 0.17022 0.57107 0.97991 0.0
C182 C 0.23757 0.60754 0.08875 0.0
O183 O 0.23736 0.58374 0.0922 0.0
O184 O 0.18804 0.58635 0.11592 0.0
O185 O 0.19339 0.54689 0.10178 0.0
H186 H 0.12709 0.64232 0.15679 0.0
H187 H 0.23376 0.55707 0.00246 0.0
O188 O 0.19116 0.53761 -0.00406 0.0
H189 H 0.26941 0.5046 0.09681 0.0
H190 H 0.1978 0.453 0.02193 0.0
H191 H 0.15905 0.51596 0.09762 0.0
H192 H 0.22519 0.51288 0.09549 0.0
H193 H 0.20829 0.49637 0.01417 0.0
O194 O 0.21847 0.61871 0.07809 0.0
H195 H 0.14595 0.60841 0.12317 0.0
H196 H 0.19397 0.65775 0.07106 0.0
H197 H 0.14822 0.47278 0.10656 0.0
H198 H 0.27805 0.54905 0.00244 0.0
H199 H 0.16764 0.44096 0.06852 0.0
H200 H 0.29616 0.52273 0.04997 0.0
O201 O 0.15655 0.55014 0.04874 0.0
H202 H 0.21661 0.63626 0.95093 0.0
H203 H 0.14539 0.63077 0.03156 0.0
H204 H 0.14147 0.6522 0.97337 0.0
H205 H 0.17726 0.65508 0.93264 0.0
H206 H 0.21967 0.61483 0.00926 0.0
H207 H 0.17577 0.69217 0.10435 0.0
H208 H 0.14201 0.68456 0.14747 0.0
O209 O 0.15254 0.59004 0.06122 0.0
C210 C 0.19126 0.56408 0.12451 0.0
C211 C 0.14174 0.64588 0.138 0.0
C212 C 0.16908 0.67385 0.1086 0.0
N213 N 0.17092 0.63112 0.095 0.0
C214 C 0.15245 0.62676 0.11882 0.0
C215 C 0.17936 0.65428 0.08989 0.0
C216 C 0.15013 0.66957 0.13278 0.0
C217 C 0.2415 0.54548 0.02309 0.0
N218 N 0.22693 0.53553 0.04904 0.0
C219 C 0.26659 0.54106 0.023 0.0
C220 C 0.27674 0.52631 0.0497 0.0
C221 C 0.26175 0.51616 0.07601 0.0
C222 C 0.23675 0.521 0.07526 0.0
C223 C 0.18923 0.4667 0.03869 0.0
C224 C 0.16768 0.5022 0.08111 0.0
C225 C 0.19503 0.49129 0.03433 0.0
N226 N 0.18437 0.50867 0.05552 0.0
C227 C 0.16143 0.47779 0.08623 0.0
C228 C 0.17231 0.45995 0.06485 0.0
C229 C 0.14358 0.56914 0.05418 0.0
C230 C 0.2009 0.63518 0.96849 0.0
C231 C 0.16103 0.63189 0.01394 0.0
C232 C 0.15871 0.6441 0.98106 0.0
C233 C 0.17881 0.64571 0.95822 0.0
N234 N 0.18278 0.62167 0.02384 0.0
C235 C 0.20255 0.62315 0.00159 0.0
Co236 Co 0.4612 0.83076 0.29464 0.0
Co237 Co 0.4022 0.82894 0.26433 0.0
O238 O 0.42844 0.81677 0.29522 0.0
C239 C 0.44989 0.83105 0.37277 0.0
O240 O 0.42926 0.84224 0.36557 0.0
C241 C 0.40208 0.77641 0.24722 0.0
O242 O 0.42578 0.77804 0.2429 0.0
O243 O 0.42297 0.82492 0.22087 0.0
O244 O 0.45945 0.83686 0.24176 0.0
H245 H 0.36614 0.8798 0.16494 0.0
H246 H 0.45349 0.78196 0.32686 0.0
O247 O 0.46423 0.82491 0.34743 0.0
H248 H 0.51248 0.76911 0.2284 0.0
H249 H 0.54964 0.83514 0.33081 0.0
H250 H 0.48385 0.87405 0.26051 0.0
H251 H 0.49675 0.81024 0.24172 0.0
H252 H 0.50834 0.81743 0.32983 0.0
O253 O 0.38989 0.79491 0.2576 0.0
H254 H 0.399 0.86481 0.2047 0.0
H255 H 0.34928 0.81747 0.25734 0.0
H256 H 0.52493 0.89226 0.26051 0.0
H257 H 0.46899 0.74054 0.31473 0.0
H258 H 0.55817 0.87277 0.29584 0.0
H259 H 0.49863 0.7339 0.2651 0.0
O260 O 0.44773 0.86381 0.30384 0.0
H261 H 0.36534 0.80191 0.38154 0.0
H262 H 0.37118 0.86907 0.29364 0.0
H263 H 0.3463 0.87446 0.34842 0.0
H264 H 0.34322 0.8407 0.39279 0.0
H265 H 0.3902 0.79737 0.32651 0.0
H266 H 0.31592 0.83176 0.21792 0.0
H267 H 0.32424 0.86324 0.17142 0.0
O268 O 0.41384 0.86338 0.26979 0.0
C269 C 0.44505 0.83127 0.21614 0.0
C270 C 0.36226 0.86616 0.1852 0.0
C271 C 0.33408 0.83917 0.2149 0.0
N272 N 0.376 0.84051 0.23357 0.0
C273 C 0.38077 0.85767 0.20787 0.0
C274 C 0.35305 0.83113 0.23711 0.0
C275 C 0.33876 0.85684 0.18883 0.0
C276 C 0.46657 0.77925 0.30546 0.0
N277 N 0.47427 0.79851 0.28514 0.0
C278 C 0.47521 0.75574 0.29862 0.0
C279 C 0.49182 0.75203 0.27073 0.0
C280 C 0.49958 0.77177 0.25012 0.0
C281 C 0.49056 0.79501 0.25773 0.0
C282 C 0.53532 0.84378 0.31525 0.0
C283 C 0.49825 0.86538 0.27579 0.0
C284 C 0.51188 0.83386 0.31466 0.0
N285 N 0.49374 0.8446 0.29492 0.0
C286 C 0.52146 0.87581 0.27576 0.0
C287 C 0.5401 0.86488 0.29562 0.0
C288 C 0.43014 0.8746 0.28794 0.0
C289 C 0.36649 0.81673 0.36237 0.0
C290 C 0.37 0.85432 0.31289 0.0
C291 C 0.35584 0.85746 0.34381 0.0
C292 C 0.35411 0.83851 0.36868 0.0
N293 N 0.38204 0.83288 0.30685 0.0
C294 C 0.38046 0.81423 0.33112 0.0
Co295 Co 0.16687 0.46036 0.53989 0.0
Co296 Co 0.16103 0.40164 0.50844 0.0
O297 O 0.17682 0.4262 0.53861 0.0
C298 C 0.16509 0.44765 0.61732 0.0
O299 O 0.15149 0.42874 0.60924 0.0
C300 C 0.21268 0.39813 0.48651 0.0
O301 O 0.21232 0.42193 0.48293 0.0
O302 O 0.16386 0.42269 0.46487 0.0
O303 O 0.16023 0.46048 0.48741 0.0
H304 H 0.10142 0.37121 0.41584 0.0
H305 H 0.21451 0.44586 0.57114 0.0
O306 O 0.17325 0.46143 0.59261 0.0
H307 H 0.23412 0.50462 0.47491 0.0
H308 H 0.17391 0.54773 0.58006 0.0
H309 H 0.12625 0.48905 0.50815 0.0
H310 H 0.19138 0.49401 0.48814 0.0
H311 H 0.18635 0.50458 0.57672 0.0
O312 O 0.19369 0.38694 0.49729 0.0
H313 H 0.12116 0.40212 0.45432 0.0
H314 H 0.16838 0.34827 0.49808 0.0
H315 H 0.11327 0.53207 0.5105 0.0
H316 H 0.25751 0.45615 0.55903 0.0
H317 H 0.13718 0.56175 0.54666 0.0
H318 H 0.26753 0.48566 0.51053 0.0
O319 O 0.13237 0.45113 0.5489 0.0
H320 H 0.19192 0.36084 0.62086 0.0
H321 H 0.12058 0.37322 0.5418 0.0
H322 H 0.11651 0.34786 0.59635 0.0
H323 H 0.15237 0.34149 0.63627 0.0
H324 H 0.19513 0.38624 0.56618 0.0
H325 H 0.14931 0.3168 0.45984 0.0
H326 H 0.11551 0.3282 0.41846 0.0
O327 O 0.1281 0.41585 0.51875 0.0
C328 C 0.16108 0.44562 0.46115 0.0
C329 C 0.11608 0.366 0.43384 0.0
C330 C 0.14299 0.33547 0.4585 0.0
N331 N 0.14576 0.37696 0.47861 0.0
C332 C 0.12728 0.38341 0.45576 0.0
C333 C 0.15375 0.35337 0.48003 0.0
C334 C 0.12401 0.34188 0.4353 0.0
C335 C 0.21873 0.45891 0.55024 0.0
N336 N 0.20046 0.46941 0.53051 0.0
C337 C 0.24311 0.46458 0.5434 0.0
C338 C 0.24872 0.48112 0.51615 0.0
C339 C 0.22998 0.49175 0.49614 0.0
C340 C 0.20582 0.48562 0.5037 0.0
C341 C 0.16338 0.53499 0.56413 0.0
C342 C 0.13685 0.50189 0.52372 0.0
C343 C 0.17032 0.51053 0.56217 0.0
N344 N 0.15718 0.49436 0.54195 0.0
C345 C 0.12937 0.52621 0.52505 0.0
C346 C 0.14277 0.54284 0.54537 0.0
C347 C 0.11929 0.43402 0.53592 0.0
C348 C 0.17618 0.36343 0.60363 0.0
C349 C 0.13624 0.37061 0.5591 0.0
C350 C 0.13384 0.35618 0.58991 0.0
C351 C 0.15398 0.3526 0.61228 0.0
N352 N 0.1581 0.38111 0.55076 0.0
C353 C 0.17791 0.37772 0.57258 0.0
Co354 Co 0.5402 0.1738 0.80025 0.0
Co355 Co 0.59858 0.17046 0.76696 0.0
O356 O 0.57369 0.18567 0.79721 0.0
C357 C 0.55425 0.17585 0.87738 0.0
O358 O 0.57389 0.16308 0.86994 0.0
C359 C 0.59965 0.22173 0.74245 0.0
O360 O 0.57586 0.22048 0.73885 0.0
O361 O 0.57671 0.17158 0.72401 0.0
O362 O 0.53973 0.16568 0.74819 0.0
H363 H 0.63044 0.11081 0.67557 0.0
H364 H 0.5523 0.22312 0.82751 0.0
O365 O 0.53946 0.18184 0.8525 0.0
H366 H 0.49059 0.23618 0.73256 0.0
H367 H 0.45308 0.17674 0.84286 0.0
H368 H 0.51364 0.13084 0.77176 0.0
H369 H 0.50411 0.19465 0.74829 0.0
H370 H 0.49533 0.19161 0.83738 0.0
O371 O 0.61158 0.20342 0.75418 0.0
H372 H 0.59918 0.12981 0.71426 0.0
H373 H 0.65146 0.17989 0.75474 0.0
H374 H 0.47154 0.11542 0.77631 0.0
H375 H 0.53912 0.26497 0.81286 0.0
H376 H 0.44093 0.13843 0.81206 0.0
H377 H 0.5081 0.2717 0.76499 0.0
O378 O 0.55175 0.14018 0.81132 0.0
H379 H 0.63945 0.20504 0.87691 0.0
H380 H 0.62951 0.13197 0.80092 0.0
H381 H 0.65585 0.12998 0.85481 0.0
H382 H 0.66099 0.16673 0.89319 0.0
H383 H 0.61311 0.20615 0.82293 0.0
H384 H 0.68325 0.16157 0.71625 0.0
H385 H 0.67282 0.12671 0.67642 0.0
O386 O 0.5862 0.1372 0.77893 0.0
C387 C 0.55394 0.16727 0.72123 0.0
C388 C 0.63522 0.12594 0.6929 0.0
C389 C 0.66485 0.15446 0.7157 0.0
N390 N 0.62354 0.1558 0.73694 0.0
C391 C 0.61762 0.13673 0.71493 0.0
C392 C 0.64677 0.16479 0.73737 0.0
C393 C 0.659 0.13489 0.69336 0.0
C394 C 0.53863 0.22589 0.80688 0.0
N395 N 0.52891 0.20645 0.78891 0.0
C396 C 0.5313 0.24963 0.79861 0.0
C397 C 0.51393 0.2534 0.77171 0.0
C398 C 0.5041 0.23348 0.75349 0.0
C399 C 0.51188 0.21 0.76246 0.0
C400 C 0.46624 0.16658 0.82714 0.0
C401 C 0.50039 0.14104 0.7872 0.0
C402 C 0.49021 0.17488 0.82399 0.0
N403 N 0.50689 0.16221 0.80402 0.0
C404 C 0.47659 0.13218 0.78975 0.0
C405 C 0.45943 0.14509 0.80985 0.0
C406 C 0.56917 0.12778 0.79774 0.0
C407 C 0.6374 0.18893 0.86036 0.0
C408 C 0.63158 0.148 0.81756 0.0
C409 C 0.64657 0.14679 0.84799 0.0
C410 C 0.64946 0.16742 0.8695 0.0
N411 N 0.61987 0.16919 0.80873 0.0
C412 C 0.62258 0.18947 0.8297 0.0
Co413 Co 0.83595 0.53898 0.03433 0.0
Co414 Co 0.83959 0.60064 0.01727 0.0
O415 O 0.82399 0.57239 0.03967 0.0
C416 C 0.83342 0.5443 0.11346 0.0
O417 O 0.84455 0.56536 0.11027 0.0
C418 C 0.78906 0.60389 0.98992 0.0
O419 O 0.79079 0.58062 0.98212 0.0
O420 O 0.84005 0.58433 0.96925 0.0
O421 O 0.84434 0.54475 0.9831 0.0
H422 H 0.90129 0.64338 0.93985 0.0
H423 H 0.78652 0.54755 0.06397 0.0
O424 O 0.82794 0.53198 0.0856 0.0
H425 H 0.77385 0.49878 0.95384 0.0
H426 H 0.83283 0.44817 0.0532 0.0
H427 H 0.87928 0.51619 0.00033 0.0
H428 H 0.81535 0.51 0.97335 0.0
H429 H 0.81789 0.49043 0.05857 0.0
O430 O 0.80675 0.61473 0.00543 0.0
H431 H 0.88173 0.60784 0.96838 0.0
H432 H 0.82958 0.65404 0.01842 0.0
H433 H 0.8948 0.47419 -0.00594 0.0
H434 H 0.7447 0.53652 0.04563 0.0
H435 H 0.87151 0.43983 0.02062 0.0
H436 H 0.73817 0.51203 0.99013 0.0
O437 O 0.86945 0.54886 0.04871 0.0
H438 H 0.80094 0.62765 0.13332 0.0
H439 H 0.87659 0.627 0.06157 0.0
H440 H 0.87649 0.64642 0.12156 0.0
H441 H 0.83845 0.64686 0.15784 0.0
H442 H 0.80192 0.60825 0.0733 0.0
H443 H 0.84843 0.69006 0.99017 0.0
H444 H 0.88463 0.68486 0.95069 0.0
O445 O 0.87278 0.58721 0.02812 0.0
C446 C 0.84389 0.5622 0.96054 0.0
C447 C 0.88558 0.64589 0.95709 0.0
C448 C 0.85589 0.67209 0.9853 0.0
N449 N 0.85467 0.62889 -0.00474 0.0
C450 C 0.87447 0.62585 0.9734 0.0
C451 C 0.84526 0.65162 0.00116 0.0
C452 C 0.8762 0.66916 0.96316 0.0
C453 C 0.78383 0.53668 0.03999 0.0
N454 N 0.80335 0.52933 0.01987 0.0
C455 C 0.76011 0.53058 0.02966 0.0
C456 C 0.75645 0.51687 -0.00152 0.0
C457 C 0.77646 0.50944 0.9781 0.0
C458 C 0.79991 0.5159 0.98924 0.0
C459 C 0.84312 0.46298 0.04144 0.0
C460 C 0.86897 0.50132 0.01176 0.0
C461 C 0.83477 0.48695 0.04446 0.0
N462 N 0.8476 0.50574 0.02952 0.0
C463 C 0.87788 0.47758 0.00821 0.0
C464 C 0.86481 0.45831 0.02315 0.0
C465 C 0.88195 0.56783 0.04157 0.0
C466 C 0.81761 0.62763 0.11773 0.0
C467 C 0.85999 0.62705 0.07725 0.0
C468 C 0.86003 0.63812 0.11116 0.0
C469 C 0.83867 0.63838 0.13149 0.0
N470 N 0.83924 0.6166 0.06392 0.0
C471 C 0.81825 0.61676 0.08369 0.0
H472 H 0.41482 0.19073 0.44361 0.0
H473 H 0.43378 0.18751 0.5036 0.0
H474 H 0.4934 0.14657 0.45788 0.0
H475 H 0.47476 0.14942 0.3986 0.0
H476 H 0.4751 0.12764 0.52376 0.0
H477 H 0.4968 0.22666 0.52941 0.0
H478 H 0.46543 0.21882 0.52124 0.0
H479 H 0.48813 0.21154 0.48811 0.0
C480 C 0.43178 0.18078 0.44656 0.0
C481 C 0.44344 0.17058 0.41638 0.0
C482 C 0.44264 0.1791 0.48066 0.0
C483 C 0.46512 0.16712 0.48484 0.0
C484 C 0.47612 0.156 0.45508 0.0
H485 H 0.57376 0.1782 0.65508 0.0
H486 H 0.55295 0.17686 0.5964 0.0
C487 C 0.46544 0.15774 0.42119 0.0
C488 C 0.47797 0.16667 0.51976 0.0
H489 H 0.50885 0.2027 0.5792 0.0
C490 C 0.48238 0.14403 0.53606 0.0
C491 C 0.48787 0.18808 0.53505 0.0
C492 C 0.48456 0.21268 0.51754 0.0
C493 C 0.49632 0.14224 0.56763 0.0
C494 C 0.50578 0.1637 0.58335 0.0
C495 C 0.50155 0.18632 0.5669 0.0
C496 C 0.51898 0.16319 0.61799 0.0
C497 C 0.50111 0.11739 0.58361 0.0
C498 C 0.50669 0.15591 0.64918 0.0
C499 C 0.51841 0.15662 0.68242 0.0
C500 C 0.54266 0.1648 0.68523 0.0
C501 C 0.55514 0.17172 0.65377 0.0
C502 C 0.54328 0.17105 0.62035 0.0
H503 H 0.49837 0.10266 0.56345 0.0
H504 H 0.51997 0.11611 0.5944 0.0
H505 H 0.48825 0.11423 0.6062 0.0
H506 H 0.48781 0.15017 0.64793 0.0
H507 H 0.50819 0.15113 0.70602 0.0
H508 H 0.82737 0.42772 0.68624 0.0
H509 H 0.8337 0.45004 0.74289 0.0
H510 H 0.80889 0.51627 0.69217 0.0
H511 H 0.80268 0.49452 0.63587 0.0
H512 H 0.86562 0.49565 0.74681 0.0
H513 H 0.76919 0.50905 0.78957 0.0
H514 H 0.77842 0.4845 0.76007 0.0
H515 H 0.77628 0.51502 0.74303 0.0
C516 C 0.82291 0.44694 0.68733 0.0
C517 C 0.81445 0.45929 0.65652 0.0
C518 C 0.82663 0.45964 0.71958 0.0
C519 C 0.8216 0.48468 0.72149 0.0
C520 C 0.81262 0.49688 0.69117 0.0
H521 H 0.82698 0.58705 0.90136 0.0
H522 H 0.82445 0.57137 0.83943 0.0
C523 C 0.8091 0.48435 0.659 0.0
C524 C 0.82682 0.49857 0.75455 0.0
H525 H 0.79949 0.52914 0.82352 0.0
C526 C 0.85122 0.50295 0.76372 0.0
C527 C 0.80791 0.50841 0.77585 0.0
C528 C 0.78143 0.50397 0.76693 0.0
C529 C 0.85726 0.51689 0.79411 0.0
C530 C 0.83835 0.52616 0.8161 0.0
C531 C 0.81393 0.52216 0.80641 0.0
C532 C 0.84334 0.53764 0.85133 0.0
C533 C 0.88379 0.52164 0.80227 0.0
C534 C 0.85519 0.52405 0.87809 0.0
C535 C 0.85668 0.5329 0.91314 0.0
C536 C 0.84614 0.55545 0.92224 0.0
C537 C 0.83538 0.56969 0.89503 0.0
C538 C 0.83384 0.56073 0.85978 0.0
H539 H 0.89504 0.5209 0.77739 0.0
H540 H 0.88637 0.53969 0.81527 0.0
H541 H 0.89066 0.50737 0.82091 0.0
H542 H 0.86219 0.50599 0.87236 0.0
H543 H 0.86519 0.52153 0.93346 0.0
H544 H 0.43425 0.79991 0.16127 0.0
H545 H 0.45699 0.79502 0.10475 0.0
H546 H 0.50189 0.85673 0.13281 0.0
H547 H 0.47997 0.86104 0.18963 0.0
H548 H 0.46463 0.82283 0.04788 0.0
H549 H 0.55317 0.80625 0.11462 0.0
H550 H 0.52478 0.80672 0.13916 0.0
H551 H 0.54045 0.83473 0.12896 0.0
C552 C 0.44878 0.81257 0.15503 0.0
C553 C 0.45554 0.83072 0.17976 0.0
C554 C 0.46185 0.80967 0.12296 0.0
C555 C 0.48166 0.82501 0.11522 0.0
C556 C 0.48731 0.8441 0.13891 0.0
H557 H 0.54157 0.85828 0.90995 0.0
H558 H 0.52162 0.85694 0.96876 0.0
C559 C 0.47459 0.84674 0.17112 0.0
C560 C 0.49632 0.82145 0.08221 0.0
H561 H 0.55501 0.81816 0.05198 0.0
C562 C 0.48436 0.82149 0.0488 0.0
C563 C 0.52203 0.81896 0.08345 0.0
C564 C 0.5358 0.81636 0.11852 0.0
C565 C 0.49751 0.8205 0.01649 0.0
C566 C 0.52333 0.82037 0.01774 0.0
C567 C 0.53525 0.81888 0.05112 0.0
C568 C 0.53812 0.8227 0.98466 0.0
C569 C 0.48356 0.81963 0.98138 0.0
C570 C 0.55549 0.8049 0.97544 0.0
C571 C 0.56751 0.80607 0.94223 0.0
C572 C 0.56207 0.82497 0.91806 0.0
C573 C 0.5459 0.84351 0.9283 0.0
C574 C 0.5343 0.84259 0.96159 0.0
H575 H 0.46518 0.81153 0.98515 0.0
H576 H 0.48099 0.83845 0.97112 0.0
H577 H 0.49347 0.80888 0.96066 0.0
H578 H 0.55889 0.78956 -0.00685 0.0
H579 H 0.57977 0.79148 0.9345 0.0
H580 H 0.13953 0.48817 0.4421 0.0
H581 H 0.14285 0.50947 0.38477 0.0
H582 H 0.1845 0.44956 0.3412 0.0
H583 H 0.18089 0.42778 0.39871 0.0
H584 H 0.18634 0.52391 0.35568 0.0
H585 H 0.13572 0.46417 0.26086 0.0
H586 H 0.13281 0.4616 0.30921 0.0
H587 H 0.1587 0.44855 0.28656 0.0
C588 C 0.14905 0.4793 0.42014 0.0
C589 C 0.16007 0.45636 0.42485 0.0
C590 C 0.15093 0.49152 0.38745 0.0
C591 C 0.16384 0.48107 0.35883 0.0
C592 C 0.1741 0.45774 0.36287 0.0
H593 H 0.21622 0.52663 0.15446 0.0
H594 H 0.21014 0.50911 0.21404 0.0
C595 C 0.17205 0.44533 0.39565 0.0
C596 C 0.16811 0.49549 0.32591 0.0
H597 H 0.16011 0.49543 0.23481 0.0
C598 C 0.18042 0.51783 0.32925 0.0
C599 C 0.16025 0.48748 0.29165 0.0
C600 C 0.14593 0.46425 0.28677 0.0
C601 C 0.18571 0.53208 0.29891 0.0
C602 C 0.17837 0.52374 0.26465 0.0
C603 C 0.16571 0.50165 0.26134 0.0
C604 C 0.18471 0.53686 0.2314 0.0
C605 C 0.19968 0.55553 0.30341 0.0
C606 C 0.17303 0.55877 0.22214 0.0
C607 C 0.17652 0.56892 0.18793 0.0
C608 C 0.19148 0.55701 0.16273 0.0
C609 C 0.2043 0.53597 0.17314 0.0
C610 C 0.2009 0.52596 0.20715 0.0
H611 H 0.20668 0.55789 0.33132 0.0
H612 H 0.21529 0.55607 0.28438 0.0
H613 H 0.18756 0.57115 0.29695 0.0
H614 H 0.16033 0.56729 0.24062 0.0
H615 H 0.16635 0.58509 0.18045 0.0
H616 H 0.34186 0.24005 0.33866 0.0
H617 H 0.31683 0.27355 0.36101 0.0
H618 H 0.37894 0.3031 0.41736 0.0
H619 H 0.40428 0.26941 0.39519 0.0
H620 H 0.33706 0.29801 0.46045 0.0
H621 H 0.31523 0.34589 0.33296 0.0
H622 H 0.30956 0.31372 0.33077 0.0
H623 H 0.34023 0.32456 0.33691 0.0
C624 C 0.35035 0.25381 0.35542 0.0
C625 C 0.3751 0.25203 0.36516 0.0
C626 C 0.33601 0.27305 0.36801 0.0
C627 C 0.34608 0.29098 0.39049 0.0
C628 C 0.37086 0.28952 0.39983 0.0
H629 H 0.25497 0.41518 0.45631 0.0
H630 H 0.28998 0.39121 0.43547 0.0
C631 C 0.38531 0.2703 0.38708 0.0
C632 C 0.33016 0.31011 0.40614 0.0
H633 H 0.28901 0.35428 0.38329 0.0
C634 C 0.32682 0.31058 0.44365 0.0
C635 C 0.31703 0.32669 0.38424 0.0
C636 C 0.32084 0.32791 0.34401 0.0
C637 C 0.30977 0.32633 0.45967 0.0
C638 C 0.29551 0.34178 0.43753 0.0
C639 C 0.29977 0.34223 0.40021 0.0
C640 C 0.27512 0.35653 0.45221 0.0
C641 C 0.30696 0.32606 0.50013 0.0
C642 C 0.25515 0.34496 0.46845 0.0
C643 C 0.23513 0.35855 0.48029 0.0
C644 C 0.23461 0.38401 0.47598 0.0
C645 C 0.2548 0.39561 0.46012 0.0
C646 C 0.27481 0.38196 0.44815 0.0
H647 H 0.32364 0.31901 0.51363 0.0
H648 H 0.30294 0.34459 0.51065 0.0
H649 H 0.29157 0.31393 0.50744 0.0
H650 H 0.25478 0.32532 0.47121 0.0
H651 H 0.21989 0.349 0.49227 0.0
H652 H 0.72295 0.41199 0.63045 0.0
H653 H 0.68955 0.387 0.65413 0.0
H654 H 0.72802 0.32184 0.62256 0.0
H655 H 0.7613 0.34648 0.59879 0.0
H656 H 0.67661 0.32265 0.60506 0.0
H657 H 0.69638 0.34576 0.74843 0.0
H658 H 0.69222 0.37074 0.71759 0.0
H659 H 0.71815 0.35103 0.71281 0.0
C660 C 0.72421 0.39235 0.62833 0.0
C661 C 0.74488 0.38123 0.61298 0.0
C662 C 0.70517 0.37812 0.642 0.0
C663 C 0.70649 0.3526 0.64043 0.0
C664 C 0.7267 0.34152 0.6241 0.0
H665 H 0.64818 0.23116 0.75048 0.0
H666 H 0.67116 0.2655 0.72634 0.0
C667 C 0.74574 0.35566 0.61061 0.0
C668 C 0.6873 0.33712 0.65662 0.0
H669 H 0.66522 0.31732 0.73752 0.0
C670 C 0.67381 0.3217 0.63397 0.0
C671 C 0.68394 0.33584 0.69438 0.0
C672 C 0.69849 0.35156 0.71991 0.0
C673 C 0.65748 0.30453 0.64816 0.0
C674 C 0.65446 0.30292 0.68595 0.0
C675 C 0.66748 0.31878 0.70855 0.0
C676 C 0.63979 0.28328 0.70259 0.0
C677 C 0.64443 0.28745 0.62276 0.0
C678 C 0.61442 0.2822 0.69787 0.0
C679 C 0.60114 0.26254 0.71173 0.0
C680 C 0.61308 0.24365 0.73043 0.0
C681 C 0.63841 0.24529 0.73604 0.0
C682 C 0.65159 0.26494 0.72235 0.0
H683 H 0.65161 0.28861 0.59482 0.0
H684 H 0.64615 0.26833 0.63225 0.0
H685 H 0.62474 0.29212 0.62213 0.0
H686 H 0.60495 0.29636 0.68306 0.0
H687 H 0.58165 0.26187 0.70706 0.0
H688 H 0.74911 0.58772 0.95231 0.0
H689 H 0.71558 0.61227 0.92789 0.0
H690 H 0.74714 0.67686 0.97476 0.0
H691 H 0.7805 0.65255 -0.00039 0.0
H692 H 0.69644 0.67389 0.98364 0.0
H693 H 0.7238 0.65822 0.84113 0.0
H694 H 0.71854 0.63125 0.86746 0.0
H695 H 0.74352 0.65099 0.87865 0.0
C696 C 0.74883 0.60712 0.95767 0.0
C697 C 0.76762 0.61819 0.97769 0.0
C698 C 0.72972 0.62114 0.94351 0.0
C699 C 0.7291 0.64644 0.94899 0.0
C700 C 0.74733 0.65737 0.97006 0.0
H701 H 0.66319 0.76569 0.83769 0.0
H702 H 0.68895 0.73317 0.86163 0.0
C703 C 0.76641 0.64342 0.98421 0.0
C704 C 0.70991 0.66182 0.93217 0.0
H705 H 0.689 0.68256 0.85091 0.0
C706 C 0.69464 0.67564 0.95463 0.0
C707 C 0.70781 0.66424 0.89429 0.0
C708 C 0.72438 0.65057 0.86886 0.0
C709 C 0.67755 0.69211 0.94026 0.0
C710 C 0.67547 0.69456 0.90238 0.0
C711 C 0.69049 0.68047 0.87992 0.0
C712 C 0.65923 0.71307 0.88568 0.0
C713 C 0.66258 0.70747 0.96575 0.0
C714 C 0.63385 0.71222 0.8904 0.0
C715 C 0.61899 0.73085 0.87675 0.0
C716 C 0.62929 0.75062 0.85804 0.0
C717 C 0.65463 0.75082 0.8521 0.0
C718 C 0.66941 0.73222 0.86574 0.0
H719 H 0.66985 0.70693 -0.00628 0.0
H720 H 0.66202 0.72673 0.95661 0.0
H721 H 0.64359 0.70052 0.96627 0.0
H722 H 0.62557 0.69735 0.90514 0.0
H723 H 0.59954 0.73005 0.88163 0.0
H724 H 0.27949 0.59044 0.12026 0.0
H725 H 0.31253 0.61454 0.14678 0.0
H726 H 0.27682 0.68068 0.11258 0.0
H727 H 0.24387 0.65687 0.0858 0.0
H728 H 0.32838 0.67992 0.10136 0.0
H729 H 0.30218 0.6539 0.24113 0.0
H730 H 0.30795 0.62931 0.21022 0.0
H731 H 0.28229 0.64908 0.20296 0.0
C732 C 0.27879 0.61011 0.11802 0.0
C733 C 0.25891 0.62174 0.1012 0.0
C734 C 0.29763 0.62383 0.13336 0.0
C735 C 0.29689 0.64937 0.13212 0.0
C736 C 0.27766 0.66098 0.11395 0.0
H737 H 0.35355 0.76662 0.25458 0.0
H738 H 0.33074 0.73303 0.22776 0.0
C739 C 0.25883 0.64732 0.09869 0.0
C740 C 0.31548 0.66426 0.15094 0.0
H741 H 0.33484 0.68128 0.23482 0.0
C742 C 0.33006 0.68003 0.1305 0.0
C743 C 0.31737 0.66447 0.189 0.0
C744 C 0.30154 0.64845 0.21229 0.0
C745 C 0.34614 0.69645 0.14716 0.0
C746 C 0.34782 0.69687 0.18523 0.0
C747 C 0.33364 0.68071 0.20564 0.0
C748 C 0.36237 0.71558 0.20435 0.0
C749 C 0.36038 0.71398 0.124 0.0
C750 C 0.38785 0.71645 0.20101 0.0
C751 C 0.40102 0.73567 0.21638 0.0
C752 C 0.38887 0.75431 0.2353 0.0
C753 C 0.36348 0.75266 0.24002 0.0
C754 C 0.35039 0.73346 0.22475 0.0
H755 H 0.35388 0.71408 0.0956 0.0
H756 H 0.35905 0.73278 0.13491 0.0
H757 H 0.3799 0.70864 0.12408 0.0
H758 H 0.39746 0.7026 0.18581 0.0
H759 H 0.42056 0.73635 0.21236 0.0
H760 H 0.40718 0.90452 0.24006 0.0
H761 H 0.40719 0.94889 0.23878 0.0
H762 H 0.45 0.95023 0.33651 0.0
H763 H 0.45113 0.90563 0.33689 0.0
H764 H 0.38931 0.98095 0.28131 0.0
H765 H 0.48896 0.99591 0.27705 0.0
H766 H 0.47564 0.96612 0.27157 0.0
H767 H 0.48029 0.97864 0.31598 0.0
C768 C 0.41667 0.91422 0.26128 0.0
C769 C 0.42927 0.90154 0.28851 0.0
C770 C 0.41669 0.93964 0.26047 0.0
C771 C 0.42902 0.95301 0.28711 0.0
C772 C 0.44105 0.94039 0.31495 0.0
H773 H 0.39711 0.10294 0.33835 0.0
H774 H 0.39875 0.05883 0.3331 0.0
C775 C 0.44147 0.91489 0.31537 0.0
C776 C 0.42848 0.9801 0.2862 0.0
H777 H 0.46438 0.03081 0.29052 0.0
C778 C 0.40578 0.99181 0.28302 0.0
C779 C 0.44996 0.99438 0.28759 0.0
C780 C 0.47508 0.9831 0.28782 0.0
C781 C 0.40389 0.0173 0.28199 0.0
C782 C 0.42522 0.03158 0.28581 0.0
C783 C 0.44799 0.0199 0.28808 0.0
C784 C 0.42425 0.05858 0.28857 0.0
C785 C 0.37905 0.02853 0.27615 0.0
C786 C 0.43877 0.07328 0.26622 0.0
C787 C 0.43832 0.09869 0.26975 0.0
C788 C 0.42319 0.10984 0.29553 0.0
C789 C 0.40869 0.09504 0.31781 0.0
C790 C 0.40947 0.06972 0.31468 0.0
H791 H 0.36682 0.01596 0.26114 0.0
H792 H 0.37048 0.03221 0.30268 0.0
H793 H 0.38026 0.04592 0.26096 0.0
H794 H 0.45046 0.0651 0.24603 0.0
H795 H 0.44978 0.10957 0.25228 0.0
H796 H 0.88396 0.47145 0.51994 0.0
H797 H 0.92849 0.4754 0.51714 0.0
H798 H 0.9365 0.40573 0.56958 0.0
H799 H 0.89243 0.40164 0.57285 0.0
H800 H 0.96528 0.44308 0.59991 0.0
H801 H 0.97569 0.43699 0.45089 0.0
H802 H 0.95464 0.45954 0.46739 0.0
H803 H 0.94814 0.42779 0.47371 0.0
C804 C 0.8952 0.4569 0.53065 0.0
C805 C 0.88452 0.43619 0.5465 0.0
C806 C 0.92063 0.45917 0.52895 0.0
C807 C 0.93575 0.44077 0.54294 0.0
C808 C 0.92515 0.42014 0.55863 0.0
H809 H 0.08512 0.4011 0.51315 0.0
H810 H 0.04085 0.4049 0.51585 0.0
C811 C 0.89987 0.41783 0.56035 0.0
C812 C 0.96268 0.44283 0.54198 0.0
H813 H 0.01157 0.44191 0.48512 0.0
C814 C 0.97545 0.44305 0.57484 0.0
C815 C 0.9758 0.44255 0.50921 0.0
C816 C 0.96298 0.44153 0.47321 0.0
C817 C 1.00103 0.44256 0.57582 0.0
C818 C 0.01417 0.44213 0.54305 0.0
C819 C 0.00141 0.44234 0.51018 0.0
C820 C 0.04111 0.44004 0.54226 0.0
C821 C 0.01379 0.44155 0.61189 0.0
C822 C 0.05595 0.45856 0.55632 0.0
C823 C 0.08137 0.45643 0.55499 0.0
C824 C 0.09239 0.43578 0.53939 0.0
C825 C 0.07736 0.41724 0.52548 0.0
C826 C 0.052 0.4194 0.52684 0.0
H827 H 1.00104 0.43694 0.63412 0.0
H828 H 0.02874 0.42788 0.6115 0.0
H829 H 0.02193 0.45961 0.61783 0.0
H830 H 0.04789 0.4748 0.56787 0.0
H831 H 0.09234 0.47116 0.5657 0.0
H832 H 0.53718 0.89382 0.78094 0.0
H833 H 0.53413 0.93832 0.78051 0.0
H834 H 0.60703 0.94361 0.82343 0.0
H835 H 0.61033 0.89929 0.82417 0.0
H836 H 0.57134 0.97263 0.86008 0.0
H837 H 0.5696 0.98597 0.71137 0.0
H838 H 0.54791 0.96456 0.7291 0.0
H839 H 0.57994 0.95799 0.73202 0.0
C840 C 0.55268 0.90442 0.78998 0.0
C841 C 0.57405 0.89289 0.80247 0.0
C842 C 0.55089 0.92985 0.78967 0.0
C843 C 0.57041 0.94422 0.80173 0.0
C844 C 0.59176 0.93283 0.81401 0.0
H845 H 0.60345 0.09545 0.77366 0.0
H846 H 0.60234 0.05115 0.77664 0.0
C847 C 0.59362 0.90745 0.81427 0.0
C848 C 0.56858 0.97115 0.8022 0.0
H849 H 0.5647 0.02103 0.74752 0.0
C850 C 0.56977 0.98326 0.83552 0.0
C851 C 0.5667 0.98488 0.77007 0.0
C852 C 0.56614 0.97279 0.73352 0.0
C853 C 0.56929 0.00881 0.83754 0.0
C854 C 0.56737 0.02253 0.8054 0.0
C855 C 0.56601 0.01041 0.77212 0.0
C856 C 0.56813 0.04951 0.80545 0.0
C857 C 0.57154 0.02098 0.87387 0.0
C858 C 0.54929 0.06332 0.82093 0.0
C859 C 0.54983 0.08881 0.81934 0.0
C860 C 0.56922 0.1009 0.80213 0.0
C861 C 0.58822 0.08688 0.78717 0.0
C862 C 0.58762 0.06149 0.78874 0.0
H863 H 0.57739 0.008 0.89519 0.0
H864 H 0.58483 0.03621 0.8727 0.0
H865 H 0.55359 0.02869 0.88168 0.0
H866 H 0.53393 0.05437 0.83358 0.0
H867 H 0.53482 0.09899 0.83093 0.0
H868 H 0.90938 0.53043 0.06982 0.0
H869 H 0.95389 0.5281 0.07424 0.0
H870 H 0.95977 0.60035 0.02961 0.0
H871 H 0.91545 0.60305 0.0252 0.0
H872 H 0.98923 0.56081 -0.00478 0.0
H873 H 1.0003 0.56834 0.14418 0.0
H874 H 0.97784 0.5473 0.12728 0.0
H875 H 0.97345 0.5794 0.12103 0.0
C876 C 0.92009 0.54596 0.06132 0.0
C877 C 0.90875 0.56694 0.04714 0.0
C878 C 0.94552 0.54457 0.0639 0.0
C879 C 0.96002 0.56407 0.05231 0.0
C880 C 0.94883 0.58512 0.03868 0.0
H881 H 0.10989 0.60411 0.07103 0.0
H882 H 0.06559 0.60062 0.07041 0.0
C883 C 0.92346 0.58662 0.03629 0.0
C884 C 0.98694 0.56234 0.0531 0.0
H885 H 0.03608 0.5634 0.10972 0.0
C886 C 0.99952 0.56118 0.02022 0.0
C887 C 1.00018 0.56295 0.0858 0.0
C888 C 0.9874 0.5647 0.12169 0.0
C889 C 0.02511 0.56084 0.01916 0.0
C890 C 0.03836 0.56164 0.05184 0.0
C891 C 0.02578 0.5626 0.08476 0.0
C892 C 0.06529 0.5632 0.05226 0.0
C893 C 0.03787 0.56038 0.98316 0.0
C894 C 0.07978 0.54321 0.04231 0.0
C895 C 0.10525 0.54506 0.04272 0.0
C896 C 0.11661 0.56699 0.05296 0.0
C897 C 0.10188 0.58695 0.06286 0.0
C898 C 0.07651 0.58501 0.06266 0.0
H899 H 0.025 0.56304 0.96032 0.0
H900 H 0.05203 0.57481 0.98205 0.0
H901 H 0.04714 0.54255 0.97964 0.0
H902 H 0.07139 0.52617 0.03442 0.0
H903 H 0.116 0.52931 0.03505 0.0
H904 H 0.51705 0.20489 0.89969 0.0
H905 H 0.5016 0.20984 0.96052 0.0
H906 H 0.55999 0.16489 0.00156 0.0
H907 H 0.5754 0.1592 0.94 0.0
H908 H 0.51563 0.15002 0.0249 0.0
H909 H 0.52373 0.24939 0.04576 0.0
H910 H 0.50797 0.24255 0.00461 0.0
H911 H 0.53942 0.23367 0.00984 0.0
C912 C 0.52691 0.19628 0.92161 0.0
C913 C 0.5474 0.18148 0.91497 0.0
C914 C 0.51813 0.19936 0.95649 0.0
C915 C 0.52981 0.18802 0.98562 0.0
C916 C 0.5508 0.17391 0.97938 0.0
H917 H 0.48528 0.20954 0.20708 0.0
H918 H 0.50594 0.21048 0.14914 0.0
C919 C 0.55962 0.17074 0.94427 0.0
C920 C 0.51854 0.18911 0.0218 0.0
H921 H 0.49496 0.22854 0.08381 0.0
C922 C 0.51138 0.16717 0.03805 0.0
C923 C 0.51316 0.21149 0.03898 0.0
C924 C 0.52171 0.23557 0.02405 0.0
C925 C 0.49835 0.16703 0.07054 0.0
C926 C 0.49175 0.18946 0.08663 0.0
C927 C 0.49957 0.21138 0.07098 0.0
C928 C 0.47785 0.19052 0.12078 0.0
C929 C 0.49207 0.14284 0.08749 0.0
C930 C 0.4547 0.17977 0.12376 0.0
C931 C 0.44282 0.17899 0.1571 0.0
C932 C 0.45385 0.18918 0.1878 0.0
C933 C 0.47634 0.20126 0.18408 0.0
C934 C 0.48822 0.20187 0.15093 0.0
H935 H 0.50389 0.12793 0.07716 0.0
H936 H 0.49393 0.14361 0.11729 0.0
H937 H 0.47289 0.13817 0.0809 0.0
H938 H 0.4461 0.17148 0.1005 0.0
H939 H 0.42544 0.16973 0.15903 0.0
H940 H 0.81682 0.49861 0.12782 0.0
H941 H 0.81215 0.47921 0.18626 0.0
H942 H 0.83499 0.54543 0.23901 0.0
H943 H 0.84046 0.565 0.18009 0.0
H944 H 0.85826 0.50541 0.26545 0.0
H945 H 0.75883 0.4881 0.25965 0.0
H946 H 0.77477 0.47575 0.2216 0.0
H947 H 0.77402 0.50821 0.22847 0.0
C948 C 0.82065 0.50924 0.15177 0.0
C949 C 0.82897 0.53343 0.14929 0.0
C950 C 0.81781 0.4981 0.18522 0.0
C951 C 0.82281 0.51099 0.21697 0.0
C952 C 0.83092 0.53522 0.21474 0.0
H953 H 0.78531 0.47298 0.43309 0.0
H954 H 0.78731 0.48777 0.37144 0.0
C955 C 0.83397 0.54638 0.18113 0.0
C956 C 0.8206 0.49871 0.25232 0.0
H957 H 0.78091 0.46755 0.30595 0.0
C958 C 0.84133 0.49722 0.27443 0.0
C959 C 0.79845 0.48814 0.26395 0.0
C960 C 0.7752 0.49032 0.24234 0.0
C961 C 0.84055 0.4854 0.30793 0.0
C962 C 0.81858 0.47423 0.31911 0.0
C963 C 0.79784 0.47575 0.29699 0.0
C964 C 0.81605 0.46304 0.3552 0.0
C965 C 0.86302 0.48567 0.3315 0.0
C966 C 0.83093 0.44353 0.36619 0.0
C967 C 0.83 0.43508 0.40179 0.0
C968 C 0.81403 0.44596 0.42667 0.0
C969 C 0.79806 0.46438 0.41476 0.0
C970 C 0.79911 0.47285 0.37944 0.0
H971 H 0.87636 0.49964 0.3226 0.0
H972 H 0.85815 0.48933 0.36005 0.0
H973 H 0.87209 0.46761 0.33016 0.0
H974 H 0.84371 0.43532 0.34755 0.0
H975 H 0.8424 0.42075 0.4101 0.0
H976 H 0.51294 0.79939 0.70554 0.0
H977 H 0.49442 0.79901 0.64587 0.0
H978 H 0.55632 0.83766 0.60292 0.0
H979 H 0.57495 0.8386 0.66304 0.0
H980 H 0.51208 0.85812 0.58352 0.0
H981 H 0.51159 0.75858 0.55772 0.0
H982 H 0.49764 0.76693 0.59969 0.0
H983 H 0.52967 0.77225 0.59303 0.0
C984 C 0.52284 0.80759 0.6834 0.0
C985 C 0.54546 0.81906 0.68907 0.0
C986 C 0.51222 0.80722 0.64923 0.0
C987 C 0.52412 0.81804 0.61992 0.0
C988 C 0.54691 0.82913 0.62525 0.0
H989 H 0.49033 0.80656 0.39514 0.0
H990 H 0.50646 0.80339 0.45605 0.0
C991 C 0.55755 0.82958 0.65955 0.0
C992 C 0.5121 0.81889 0.5842 0.0
H993 H 0.488 0.78313 0.51787 0.0
C994 C 0.50688 0.84175 0.56905 0.0
C995 C 0.50542 0.79747 0.56544 0.0
C996 C 0.51156 0.77242 0.5796 0.0
C997 C 0.49509 0.84379 0.53559 0.0
C998 C 0.48792 0.82237 0.51721 0.0
C999 C 0.4932 0.79952 0.53233 0.0
C1000 C 0.47679 0.82324 0.48086 0.0
C1001 C 0.49103 0.86881 0.51976 0.0
C1002 C 0.45437 0.83497 0.47471 0.0
C1003 C 0.44505 0.83696 0.43965 0.0
C1004 C 0.45801 0.82715 0.41036 0.0
C1005 C 0.47994 0.81454 0.41699 0.0
C1006 C 0.4892 0.81263 0.45185 0.0
H1007 H 0.5023 0.88287 0.53342 0.0
H1008 H 0.49536 0.86897 0.49052 0.0
H1009 H 0.47158 0.87396 0.52299 0.0
H1010 H 0.44427 0.84285 0.49692 0.0
H1011 H 0.42805 0.84663 0.43543 0.0
H1012 H 0.19453 0.50508 0.94997 0.0
H1013 H 0.1921 0.48768 0.88995 0.0
H1014 H 0.16261 0.55517 0.84906 0.0
H1015 H 0.16443 0.57283 0.90992 0.0
H1016 H 0.13772 0.51421 0.82486 0.0
H1017 H 0.23728 0.50242 0.80646 0.0
H1018 H 0.22637 0.48852 0.84711 0.0
H1019 H 0.22455 0.52108 0.84184 0.0
C1020 C 0.18767 0.51642 0.92831 0.0
C1021 C 0.17986 0.54047 0.93468 0.0
C1022 C 0.18639 0.5064 0.89393 0.0
C1023 C 0.17766 0.52029 0.865 0.0
C1024 C 0.16959 0.54424 0.87112 0.0
H1025 H 0.19436 0.48406 0.64147 0.0
H1026 H 0.1968 0.50056 0.70214 0.0
C1027 C 0.17069 0.55431 0.90579 0.0
C1028 C 0.17661 0.50935 0.82864 0.0
H1029 H 0.21163 0.48106 0.76523 0.0
C1030 C 0.15387 0.5071 0.81163 0.0
C1031 C 0.19777 0.50026 0.81147 0.0
C1032 C 0.2229 0.5034 0.82749 0.0
C1033 C 0.15166 0.49564 0.77796 0.0
C1034 C 0.1727 0.48574 0.76144 0.0
C1035 C 0.19547 0.48829 0.7783 0.0
C1036 C 0.17188 0.47439 0.72533 0.0
C1037 C 0.12694 0.49473 0.76004 0.0
C1038 C 0.15759 0.45368 0.71846 0.0
C1039 C 0.156 0.44417 0.68351 0.0
C1040 C 0.16883 0.45522 0.65511 0.0
C1041 C 0.18403 0.47522 0.66262 0.0
C1042 C 0.1855 0.4847 0.69733 0.0
H1043 H 0.11402 0.50802 0.77215 0.0
H1044 H 0.12844 0.49855 0.73073 0.0
H1045 H 0.11914 0.47623 0.76337 0.0
H1046 H 0.1474 0.44511 0.73999 0.0
H1047 H 0.14425 0.42868 0.67858 0.0
loop_
_geom_bond_atom_site_label_1
_geom_bond_atom_site_label_2
_geom_bond_distance
_geom_bond_site_symmetry_2
_ccdc_geom_bond_type
Co0 O2 2.143 . S
Co0 O8 2.074 . S
Co0 O11 2.093 . S
Co0 O24 2.097 . S
Co0 N41 2.151 . S
Co0 N49 2.214 . S
Co1 O2 2.160 . S
Co1 O7 2.058 . S
Co1 O17 2.057 . S
Co1 O32 2.037 . S
Co1 N36 2.145 . S
Co1 N57 2.257 . S
O2 Co0 2.143 . S
O2 Co1 2.160 . S
C3 O4 1.278 . S
C3 O11 1.224 . S
O4 C3 1.278 . S
C5 O6 1.245 . S
C5 O17 1.232 . S
O6 C5 1.245 . S
O7 Co1 2.058 . S
O7 C33 1.269 . S
O8 Co0 2.074 . S
O8 C33 1.257 . S
H9 C34 0.930 . S
H10 C40 0.930 . S
O11 Co0 2.093 . S
O11 C3 1.224 . S
H12 C44 0.929 . S
H13 C46 0.930 . S
H14 C47 0.930 . S
H15 C45 0.929 . S
H16 C48 0.928 . S
O17 Co1 2.057 . S
O17 C5 1.232 . S
H18 C37 0.929 . S
H19 C38 0.929 . S
H20 C50 0.931 . S
H21 C42 0.929 . S
H22 C51 0.930 . S
H23 C43 0.931 . S
O24 Co0 2.097 . S
O24 C52 1.214 . S
H25 C53 0.929 . S
H26 C54 0.929 . S
H27 C55 0.930 . S
H28 C56 0.929 . S
H29 C58 0.930 . S
H30 C35 0.930 . S
H31 C39 0.930 . S
O32 Co1 2.037 . S
O32 C52 1.234 . S
C33 O7 1.269 . S
C33 O8 1.257 . S
C34 H9 0.930 . S
C34 C37 1.388 . S
C34 C39 1.418 . S
C35 H30 0.930 . S
C35 C38 1.404 . S
C35 C39 1.353 . S
N36 Co1 2.145 . S
N36 C37 1.397 . S
N36 C38 1.334 . S
C37 H18 0.929 . S
C37 C34 1.388 . S
C37 N36 1.397 . S
C38 H19 0.929 . S
C38 C35 1.404 . S
C38 N36 1.334 . S
C39 H31 0.930 . S
C39 C34 1.418 . S
C39 C35 1.353 . S
C40 H10 0.930 . S
C40 N41 1.330 . S
C40 C42 1.446 . S
N41 Co0 2.151 . S
N41 C40 1.330 . S
N41 C45 1.418 . S
C42 H21 0.929 . S
C42 C40 1.446 . S
C42 C43 1.332 . S
C43 H23 0.931 . S
C43 C42 1.332 . S
C43 C44 1.267 . S
C44 H12 0.929 . S
C44 C43 1.267 . S
C44 C45 1.251 . S
C45 H15 0.929 . S
C45 N41 1.418 . S
C45 C44 1.251 . S
C46 H13 0.930 . S
C46 C48 1.406 . S
C46 C51 1.261 . S
C47 H14 0.930 . S
C47 N49 1.325 . S
C47 C50 1.357 . S
C48 H16 0.928 . S
C48 C46 1.406 . S
C48 N49 1.261 . S
N49 Co0 2.214 . S
N49 C47 1.325 . S
N49 C48 1.261 . S
C50 H20 0.931 . S
C50 C47 1.357 . S
C50 C51 1.312 . S
C51 H22 0.930 . S
C51 C46 1.261 . S
C51 C50 1.312 . S
C52 O24 1.214 . S
C52 O32 1.234 . S
C53 H25 0.929 . S
C53 C56 1.391 . S
C53 C58 1.391 . S
C54 H26 0.929 . S
C54 C55 1.390 . S
C54 N57 1.391 . S
C55 H27 0.930 . S
C55 C54 1.390 . S
C55 C56 1.392 . S
C56 H28 0.929 . S
C56 C53 1.391 . S
C56 C55 1.392 . S
N57 Co1 2.257 . S
N57 C54 1.391 . S
N57 C58 1.388 . S
C58 H29 0.930 . S
C58 C53 1.391 . S
C58 N57 1.388 . S
Co59 O61 2.143 . S
Co59 O67 2.074 . S
Co59 O70 2.093 . S
Co59 O83 2.097 . S
Co59 N100 2.151 . S
Co59 N108 2.214 . S
Co60 O61 2.160 . S
Co60 O66 2.058 . S
Co60 O76 2.057 . S
Co60 O91 2.037 . S
Co60 N95 2.145 . S
Co60 N116 2.257 . S
O61 Co59 2.143 . S
O61 Co60 2.160 . S
C62 O63 1.278 . S
C62 O70 1.224 . S
O63 C62 1.278 . S
C64 O65 1.245 . S
C64 O76 1.232 . S
O65 C64 1.245 . S
O66 Co60 2.058 . S
O66 C92 1.269 . S
O67 Co59 2.074 . S
O67 C92 1.257 . S
H68 C93 0.930 . S
H69 C99 0.930 . S
O70 Co59 2.093 . S
O70 C62 1.224 . S
H71 C103 0.929 . S
H72 C105 0.930 . S
H73 C106 0.930 . S
H74 C104 0.929 . S
H75 C107 0.928 . S
O76 Co60 2.057 . S
O76 C64 1.232 . S
H77 C96 0.929 . S
H78 C97 0.929 . S
H79 C109 0.931 . S
H80 C101 0.929 . S
H81 C110 0.930 . S
H82 C102 0.931 . S
O83 Co59 2.097 . S
O83 C111 1.214 . S
H84 C112 0.929 . S
H85 C113 0.929 . S
H86 C114 0.930 . S
H87 C115 0.929 . S
H88 C117 0.930 . S
H89 C94 0.930 . S
H90 C98 0.930 . S
O91 Co60 2.037 . S
O91 C111 1.234 . S
C92 O66 1.269 . S
C92 O67 1.257 . S
C93 H68 0.930 . S
C93 C96 1.388 . S
C93 C98 1.418 . S
C94 H89 0.930 . S
C94 C97 1.404 . S
C94 C98 1.353 . S
N95 Co60 2.145 . S
N95 C96 1.397 . S
N95 C97 1.334 . S
C96 H77 0.929 . S
C96 C93 1.388 . S
C96 N95 1.397 . S
C97 H78 0.929 . S
C97 C94 1.404 . S
C97 N95 1.334 . S
C98 H90 0.930 . S
C98 C93 1.418 . S
C98 C94 1.353 . S
C99 H69 0.930 . S
C99 N100 1.330 . S
C99 C101 1.446 . S
N100 Co59 2.151 . S
N100 C99 1.330 . S
N100 C104 1.418 . S
C101 H80 0.929 . S
C101 C99 1.446 . S
C101 C102 1.332 . S
C102 H82 0.931 . S
C102 C101 1.332 . S
C102 C103 1.267 . S
C103 H71 0.929 . S
C103 C102 1.267 . S
C103 C104 1.251 . S
C104 H74 0.929 . S
C104 N100 1.418 . S
C104 C103 1.251 . S
C105 H72 0.930 . S
C105 C107 1.406 . S
C105 C110 1.261 . S
C106 H73 0.930 . S
C106 N108 1.325 . S
C106 C109 1.357 . S
C107 H75 0.928 . S
C107 C105 1.406 . S
C107 N108 1.261 . S
N108 Co59 2.214 . S
N108 C106 1.325 . S
N108 C107 1.261 . S
C109 H79 0.931 . S
C109 C106 1.357 . S
C109 C110 1.312 . S
C110 H81 0.930 . S
C110 C105 1.261 . S
C110 C109 1.312 . S
C111 O83 1.214 . S
C111 O91 1.234 . S
C112 H84 0.929 . S
C112 C115 1.391 . S
C112 C117 1.391 . S
C113 H85 0.929 . S
C113 C114 1.390 . S
C113 N116 1.391 . S
C114 H86 0.930 . S
C114 C113 1.390 . S
C114 C115 1.392 . S
C115 H87 0.929 . S
C115 C112 1.391 . S
C115 C114 1.392 . S
N116 Co60 2.257 . S
N116 C113 1.391 . S
N116 C117 1.388 . S
C117 H88 0.930 . S
C117 C112 1.391 . S
C117 N116 1.388 . S
Co118 O120 2.143 . S
Co118 O126 2.074 . S
Co118 O129 2.093 . S
Co118 O142 2.097 . S
Co118 N159 2.151 . S
Co118 N167 2.214 . S
Co119 O120 2.160 . S
Co119 O125 2.058 . S
Co119 O135 2.057 . S
Co119 O150 2.037 . S
Co119 N154 2.145 . S
Co119 N175 2.257 . S
O120 Co118 2.143 . S
O120 Co119 2.160 . S
C121 O122 1.278 . S
C121 O129 1.224 . S
O122 C121 1.278 . S
C123 O124 1.245 . S
C123 O135 1.232 . S
O124 C123 1.245 . S
O125 Co119 2.058 . S
O125 C151 1.269 . S
O126 Co118 2.074 . S
O126 C151 1.257 . S
H127 C152 0.930 . S
H128 C158 0.930 . S
O129 Co118 2.093 . S
O129 C121 1.224 . S
H130 C162 0.929 . S
H131 C164 0.930 . S
H132 C165 0.930 . S
H133 C163 0.929 . S
H134 C166 0.928 . S
O135 Co119 2.057 . S
O135 C123 1.232 . S
H136 C155 0.929 . S
H137 C156 0.929 . S
H138 C168 0.931 . S
H139 C160 0.929 . S
H140 C169 0.930 . S
H141 C161 0.931 . S
O142 Co118 2.097 . S
O142 C170 1.214 . S
H143 C171 0.929 . S
H144 C172 0.929 . S
H145 C173 0.930 . S
H146 C174 0.929 . S
H147 C176 0.930 . S
H148 C153 0.930 . S
H149 C157 0.930 . S
O150 Co119 2.037 . S
O150 C170 1.234 . S
C151 O125 1.269 . S
C151 O126 1.257 . S
C152 H127 0.930 . S
C152 C155 1.388 . S
C152 C157 1.418 . S
C153 H148 0.930 . S
C153 C156 1.404 . S
C153 C157 1.353 . S
N154 Co119 2.145 . S
N154 C155 1.397 . S
N154 C156 1.334 . S
C155 H136 0.929 . S
C155 C152 1.388 . S
C155 N154 1.397 . S
C156 H137 0.929 . S
C156 C153 1.404 . S
C156 N154 1.334 . S
C157 H149 0.930 . S
C157 C152 1.418 . S
C157 C153 1.353 . S
C158 H128 0.930 . S
C158 N159 1.330 . S
C158 C160 1.446 . S
N159 Co118 2.151 . S
N159 C158 1.330 . S
N159 C163 1.418 . S
C160 H139 0.929 . S
C160 C158 1.446 . S
C160 C161 1.332 . S
C161 H141 0.931 . S
C161 C160 1.332 . S
C161 C162 1.267 . S
C162 H130 0.929 . S
C162 C161 1.267 . S
C162 C163 1.251 . S
C163 H133 0.929 . S
C163 N159 1.418 . S
C163 C162 1.251 . S
C164 H131 0.930 . S
C164 C166 1.406 . S
C164 C169 1.261 . S
C165 H132 0.930 . S
C165 N167 1.325 . S
C165 C168 1.357 . S
C166 H134 0.928 . S
C166 C164 1.406 . S
C166 N167 1.261 . S
N167 Co118 2.214 . S
N167 C165 1.325 . S
N167 C166 1.261 . S
C168 H138 0.931 . S
C168 C165 1.357 . S
C168 C169 1.312 . S
C169 H140 0.930 . S
C169 C164 1.261 . S
C169 C168 1.312 . S
C170 O142 1.214 . S
C170 O150 1.234 . S
C171 H143 0.929 . S
C171 C174 1.391 . S
C171 C176 1.391 . S
C172 H144 0.929 . S
C172 C173 1.390 . S
C172 N175 1.391 . S
C173 H145 0.930 . S
C173 C172 1.390 . S
C173 C174 1.392 . S
C174 H146 0.929 . S
C174 C171 1.391 . S
C174 C173 1.392 . S
N175 Co119 2.257 . S
N175 C172 1.391 . S
N175 C176 1.388 . S
C176 H147 0.930 . S
C176 C171 1.391 . S
C176 N175 1.388 . S
Co177 O179 2.143 . S
Co177 O185 2.074 . S
Co177 O188 2.113 . S
Co177 O201 2.097 . S
Co177 N218 2.151 . S
Co177 N226 2.214 . S
Co178 O179 2.160 . S
Co178 O184 2.058 . S
Co178 O194 2.057 . S
Co178 O209 2.037 . S
Co178 N213 2.145 . S
Co178 N234 2.257 . S
O179 Co177 2.143 . S
O179 Co178 2.160 . S
C180 O181 1.278 . S
C180 O188 1.213 1_556 S
O181 C180 1.278 . S
C182 O183 1.245 . S
C182 O194 1.232 . S
O183 C182 1.245 . S
O184 Co178 2.058 . S
O184 C210 1.269 . S
O185 Co177 2.074 . S
O185 C210 1.257 . S
H186 C211 0.930 . S
H187 C217 0.930 . S
O188 Co177 2.113 . S
O188 C180 1.213 1_554 S
H189 C221 0.929 . S
H190 C223 0.930 . S
H191 C224 0.930 . S
H192 C222 0.929 . S
H193 C225 0.928 . S
O194 Co178 2.057 . S
O194 C182 1.232 . S
H195 C214 0.929 . S
H196 C215 0.929 . S
H197 C227 0.931 . S
H198 C219 0.929 . S
H199 C228 0.930 . S
H200 C220 0.931 . S
O201 Co177 2.097 . S
O201 C229 1.214 . S
H202 C230 0.929 . S
H203 C231 0.929 . S
H204 C232 0.930 . S
H205 C233 0.929 . S
H206 C235 0.930 . S
H207 C212 0.930 . S
H208 C216 0.930 . S
O209 Co178 2.037 . S
O209 C229 1.234 . S
C210 O184 1.269 . S
C210 O185 1.257 . S
C211 H186 0.930 . S
C211 C214 1.388 . S
C211 C216 1.418 . S
C212 H207 0.930 . S
C212 C215 1.404 . S
C212 C216 1.353 . S
N213 Co178 2.145 . S
N213 C214 1.397 . S
N213 C215 1.334 . S
C214 H195 0.929 . S
C214 C211 1.388 . S
C214 N213 1.397 . S
C215 H196 0.929 . S
C215 C212 1.404 . S
C215 N213 1.334 . S
C216 H208 0.930 . S
C216 C211 1.418 . S
C216 C212 1.353 . S
C217 H187 0.930 . S
C217 N218 1.330 . S
C217 C219 1.446 . S
N218 Co177 2.151 . S
N218 C217 1.330 . S
N218 C222 1.418 . S
C219 H198 0.929 . S
C219 C217 1.446 . S
C219 C220 1.332 . S
C220 H200 0.931 . S
C220 C219 1.332 . S
C220 C221 1.267 . S
C221 H189 0.929 . S
C221 C220 1.267 . S
C221 C222 1.251 . S
C222 H192 0.929 . S
C222 N218 1.418 . S
C222 C221 1.251 . S
C223 H190 0.930 . S
C223 C225 1.406 . S
C223 C228 1.261 . S
C224 H191 0.930 . S
C224 N226 1.325 . S
C224 C227 1.357 . S
C225 H193 0.928 . S
C225 C223 1.406 . S
C225 N226 1.261 . S
N226 Co177 2.214 . S
N226 C224 1.325 . S
N226 C225 1.261 . S
C227 H197 0.931 . S
C227 C224 1.357 . S
C227 C228 1.312 . S
C228 H199 0.930 . S
C228 C223 1.261 . S
C228 C227 1.312 . S
C229 O201 1.214 . S
C229 O209 1.234 . S
C230 H202 0.929 . S
C230 C233 1.391 . S
C230 C235 1.391 1_556 S
C231 H203 0.929 . S
C231 C232 1.390 . S
C231 N234 1.391 . S
C232 H204 0.930 . S
C232 C231 1.390 . S
C232 C233 1.392 1_554 S
C233 H205 0.929 . S
C233 C230 1.391 . S
C233 C232 1.392 1_556 S
N234 Co178 2.257 . S
N234 C231 1.391 . S
N234 C235 1.388 . S
C235 H206 0.930 . S
C235 C230 1.391 1_554 S
C235 N234 1.388 . S
Co236 O238 2.143 . S
Co236 O244 2.074 . S
Co236 O247 2.093 . S
Co236 O260 2.097 . S
Co236 N277 2.151 . S
Co236 N285 2.214 . S
Co237 O238 2.160 . S
Co237 O243 2.058 . S
Co237 O253 2.057 . S
Co237 O268 2.037 . S
Co237 N272 2.145 . S
Co237 N293 2.257 . S
O238 Co236 2.143 . S
O238 Co237 2.160 . S
C239 O240 1.278 . S
C239 O247 1.224 . S
O240 C239 1.278 . S
C241 O242 1.245 . S
C241 O253 1.232 . S
O242 C241 1.245 . S
O243 Co237 2.058 . S
O243 C269 1.269 . S
O244 Co236 2.074 . S
O244 C269 1.257 . S
H245 C270 0.930 . S
H246 C276 0.930 . S
O247 Co236 2.093 . S
O247 C239 1.224 . S
H248 C280 0.929 . S
H249 C282 0.930 . S
H250 C283 0.930 . S
H251 C281 0.929 . S
H252 C284 0.928 . S
O253 Co237 2.057 . S
O253 C241 1.232 . S
H254 C273 0.929 . S
H255 C274 0.929 . S
H256 C286 0.931 . S
H257 C278 0.929 . S
H258 C287 0.930 . S
H259 C279 0.931 . S
O260 Co236 2.097 . S
O260 C288 1.214 . S
H261 C289 0.929 . S
H262 C290 0.929 . S
H263 C291 0.930 . S
H264 C292 0.929 . S
H265 C294 0.930 . S
H266 C271 0.930 . S
H267 C275 0.930 . S
O268 Co237 2.037 . S
O268 C288 1.234 . S
C269 O243 1.269 . S
C269 O244 1.257 . S
C270 H245 0.930 . S
C270 C273 1.388 . S
C270 C275 1.418 . S
C271 H266 0.930 . S
C271 C274 1.404 . S
C271 C275 1.353 . S
N272 Co237 2.145 . S
N272 C273 1.397 . S
N272 C274 1.334 . S
C273 H254 0.929 . S
C273 C270 1.388 . S
C273 N272 1.397 . S
C274 H255 0.929 . S
C274 C271 1.404 . S
C274 N272 1.334 . S
C275 H267 0.930 . S
C275 C270 1.418 . S
C275 C271 1.353 . S
C276 H246 0.930 . S
C276 N277 1.330 . S
C276 C278 1.446 . S
N277 Co236 2.151 . S
N277 C276 1.330 . S
N277 C281 1.418 . S
C278 H257 0.929 . S
C278 C276 1.446 . S
C278 C279 1.332 . S
C279 H259 0.931 . S
C279 C278 1.332 . S
C279 C280 1.267 . S
C280 H248 0.929 . S
C280 C279 1.267 . S
C280 C281 1.251 . S
C281 H251 0.929 . S
C281 N277 1.418 . S
C281 C280 1.251 . S
C282 H249 0.930 . S
C282 C284 1.406 . S
C282 C287 1.261 . S
C283 H250 0.930 . S
C283 N285 1.325 . S
C283 C286 1.357 . S
C284 H252 0.928 . S
C284 C282 1.406 . S
C284 N285 1.261 . S
N285 Co236 2.214 . S
N285 C283 1.325 . S
N285 C284 1.261 . S
C286 H256 0.931 . S
C286 C283 1.357 . S
C286 C287 1.312 . S
C287 H258 0.930 . S
C287 C282 1.261 . S
C287 C286 1.312 . S
C288 O260 1.214 . S
C288 O268 1.234 . S
C289 H261 0.929 . S
C289 C292 1.391 . S
C289 C294 1.391 . S
C290 H262 0.929 . S
C290 C291 1.390 . S
C290 N293 1.391 . S
C291 H263 0.930 . S
C291 C290 1.390 . S
C291 C292 1.392 . S
C292 H264 0.929 . S
C292 C289 1.391 . S
C292 C291 1.392 . S
N293 Co237 2.257 . S
N293 C290 1.391 . S
N293 C294 1.388 . S
C294 H265 0.930 . S
C294 C289 1.391 . S
C294 N293 1.388 . S
Co295 O297 2.143 . S
Co295 O303 2.074 . S
Co295 O306 2.093 . S
Co295 O319 2.097 . S
Co295 N336 2.151 . S
Co295 N344 2.214 . S
Co296 O297 2.160 . S
Co296 O302 2.058 . S
Co296 O312 2.057 . S
Co296 O327 2.037 . S
Co296 N331 2.145 . S
Co296 N352 2.257 . S
O297 Co295 2.143 . S
O297 Co296 2.160 . S
C298 O299 1.278 . S
C298 O306 1.224 . S
O299 C298 1.278 . S
C300 O301 1.245 . S
C300 O312 1.232 . S
O301 C300 1.245 . S
O302 Co296 2.058 . S
O302 C328 1.269 . S
O303 Co295 2.074 . S
O303 C328 1.257 . S
H304 C329 0.930 . S
H305 C335 0.930 . S
O306 Co295 2.093 . S
O306 C298 1.224 . S
H307 C339 0.929 . S
H308 C341 0.930 . S
H309 C342 0.930 . S
H310 C340 0.929 . S
H311 C343 0.928 . S
O312 Co296 2.057 . S
O312 C300 1.232 . S
H313 C332 0.929 . S
H314 C333 0.929 . S
H315 C345 0.931 . S
H316 C337 0.929 . S
H317 C346 0.930 . S
H318 C338 0.931 . S
O319 Co295 2.097 . S
O319 C347 1.214 . S
H320 C348 0.929 . S
H321 C349 0.929 . S
H322 C350 0.930 . S
H323 C351 0.929 . S
H324 C353 0.930 . S
H325 C330 0.930 . S
H326 C334 0.930 . S
O327 Co296 2.037 . S
O327 C347 1.234 . S
C328 O302 1.269 . S
C328 O303 1.257 . S
C329 H304 0.930 . S
C329 C332 1.388 . S
C329 C334 1.418 . S
C330 H325 0.930 . S
C330 C333 1.404 . S
C330 C334 1.353 . S
N331 Co296 2.145 . S
N331 C332 1.397 . S
N331 C333 1.334 . S
C332 H313 0.929 . S
C332 C329 1.388 . S
C332 N331 1.397 . S
C333 H314 0.929 . S
C333 C330 1.404 . S
C333 N331 1.334 . S
C334 H326 0.930 . S
C334 C329 1.418 . S
C334 C330 1.353 . S
C335 H305 0.930 . S
C335 N336 1.330 . S
C335 C337 1.446 . S
N336 Co295 2.151 . S
N336 C335 1.330 . S
N336 C340 1.418 . S
C337 H316 0.929 . S
C337 C335 1.446 . S
C337 C338 1.332 . S
C338 H318 0.931 . S
C338 C337 1.332 . S
C338 C339 1.267 . S
C339 H307 0.929 . S
C339 C338 1.267 . S
C339 C340 1.251 . S
C340 H310 0.929 . S
C340 N336 1.418 . S
C340 C339 1.251 . S
C341 H308 0.930 . S
C341 C343 1.406 . S
C341 C346 1.261 . S
C342 H309 0.930 . S
C342 N344 1.325 . S
C342 C345 1.357 . S
C343 H311 0.928 . S
C343 C341 1.406 . S
C343 N344 1.261 . S
N344 Co295 2.214 . S
N344 C342 1.325 . S
N344 C343 1.261 . S
C345 H315 0.931 . S
C345 C342 1.357 . S
C345 C346 1.312 . S
C346 H317 0.930 . S
C346 C341 1.261 . S
C346 C345 1.312 . S
C347 O319 1.214 . S
C347 O327 1.234 . S
C348 H320 0.929 . S
C348 C351 1.391 . S
C348 C353 1.391 . S
C349 H321 0.929 . S
C349 C350 1.390 . S
C349 N352 1.391 . S
C350 H322 0.930 . S
C350 C349 1.390 . S
C350 C351 1.392 . S
C351 H323 0.929 . S
C351 C348 1.391 . S
C351 C350 1.392 . S
N352 Co296 2.257 . S
N352 C349 1.391 . S
N352 C353 1.388 . S
C353 H324 0.930 . S
C353 C348 1.391 . S
C353 N352 1.388 . S
Co354 O356 2.143 . S
Co354 O362 2.074 . S
Co354 O365 2.093 . S
Co354 O378 2.097 . S
Co354 N395 2.151 . S
Co354 N403 2.214 . S
Co355 O356 2.160 . S
Co355 O361 2.058 . S
Co355 O371 2.057 . S
Co355 O386 2.037 . S
Co355 N390 2.145 . S
Co355 N411 2.257 . S
O356 Co354 2.143 . S
O356 Co355 2.160 . S
C357 O358 1.278 . S
C357 O365 1.224 . S
O358 C357 1.278 . S
C359 O360 1.245 . S
C359 O371 1.232 . S
O360 C359 1.245 . S
O361 Co355 2.058 . S
O361 C387 1.269 . S
O362 Co354 2.074 . S
O362 C387 1.257 . S
H363 C388 0.930 . S
H364 C394 0.930 . S
O365 Co354 2.093 . S
O365 C357 1.224 . S
H366 C398 0.929 . S
H367 C400 0.930 . S
H368 C401 0.930 . S
H369 C399 0.929 . S
H370 C402 0.928 . S
O371 Co355 2.057 . S
O371 C359 1.232 . S
H372 C391 0.929 . S
H373 C392 0.929 . S
H374 C404 0.931 . S
H375 C396 0.929 . S
H376 C405 0.930 . S
H377 C397 0.931 . S
O378 Co354 2.097 . S
O378 C406 1.214 . S
H379 C407 0.929 . S
H380 C408 0.929 . S
H381 C409 0.930 . S
H382 C410 0.929 . S
H383 C412 0.930 . S
H384 C389 0.930 . S
H385 C393 0.930 . S
O386 Co355 2.037 . S
O386 C406 1.234 . S
C387 O361 1.269 . S
C387 O362 1.257 . S
C388 H363 0.930 . S
C388 C391 1.388 . S
C388 C393 1.418 . S
C389 H384 0.930 . S
C389 C392 1.404 . S
C389 C393 1.353 . S
N390 Co355 2.145 . S
N390 C391 1.397 . S
N390 C392 1.334 . S
C391 H372 0.929 . S
C391 C388 1.388 . S
C391 N390 1.397 . S
C392 H373 0.929 . S
C392 C389 1.404 . S
C392 N390 1.334 . S
C393 H385 0.930 . S
C393 C388 1.418 . S
C393 C389 1.353 . S
C394 H364 0.930 . S
C394 N395 1.330 . S
C394 C396 1.446 . S
N395 Co354 2.151 . S
N395 C394 1.330 . S
N395 C399 1.418 . S
C396 H375 0.929 . S
C396 C394 1.446 . S
C396 C397 1.332 . S
C397 H377 0.931 . S
C397 C396 1.332 . S
C397 C398 1.267 . S
C398 H366 0.929 . S
C398 C397 1.267 . S
C398 C399 1.251 . S
C399 H369 0.929 . S
C399 N395 1.418 . S
C399 C398 1.251 . S
C400 H367 0.930 . S
C400 C402 1.406 . S
C400 C405 1.261 . S
C401 H368 0.930 . S
C401 N403 1.325 . S
C401 C404 1.357 . S
C402 H370 0.928 . S
C402 C400 1.406 . S
C402 N403 1.261 . S
N403 Co354 2.214 . S
N403 C401 1.325 . S
N403 C402 1.261 . S
C404 H374 0.931 . S
C404 C401 1.357 . S
C404 C405 1.312 . S
C405 H376 0.930 . S
C405 C400 1.261 . S
C405 C404 1.312 . S
C406 O378 1.214 . S
C406 O386 1.234 . S
C407 H379 0.929 . S
C407 C410 1.391 . S
C407 C412 1.391 . S
C408 H380 0.929 . S
C408 C409 1.390 . S
C408 N411 1.391 . S
C409 H381 0.930 . S
C409 C408 1.390 . S
C409 C410 1.392 . S
C410 H382 0.929 . S
C410 C407 1.391 . S
C410 C409 1.392 . S
N411 Co355 2.257 . S
N411 C408 1.391 . S
N411 C412 1.388 . S
C412 H383 0.930 . S
C412 C407 1.391 . S
C412 N411 1.388 . S
Co413 O415 2.143 . S
Co413 O421 2.074 1_554 S
Co413 O424 2.093 . S
Co413 O437 2.097 . S
Co413 N454 2.151 . S
Co413 N462 2.214 . S
Co414 O415 2.160 . S
Co414 O420 2.058 1_554 S
Co414 O430 2.057 . S
Co414 O445 2.037 . S
Co414 N449 2.145 1_554 S
Co414 N470 2.257 . S
O415 Co413 2.143 . S
O415 Co414 2.160 . S
C416 O417 1.278 . S
C416 O424 1.224 . S
O417 C416 1.278 . S
C418 O419 1.245 . S
C418 O430 1.232 . S
O419 C418 1.245 . S
O420 Co414 2.058 1_556 S
O420 C446 1.269 . S
O421 Co413 2.074 1_556 S
O421 C446 1.257 . S
H422 C447 0.930 . S
H423 C453 0.930 . S
O424 Co413 2.093 . S
O424 C416 1.224 . S
H425 C457 0.929 . S
H426 C459 0.930 . S
H427 C460 0.930 . S
H428 C458 0.929 . S
H429 C461 0.928 . S
O430 Co414 2.057 . S
O430 C418 1.232 . S
H431 C450 0.929 . S
H432 C451 0.929 . S
H433 C463 0.931 . S
H434 C455 0.929 . S
H435 C464 0.930 . S
H436 C456 0.931 . S
O437 Co413 2.097 . S
O437 C465 1.214 . S
H438 C466 0.929 . S
H439 C467 0.929 . S
H440 C468 0.930 . S
H441 C469 0.929 . S
H442 C471 0.930 . S
H443 C448 0.930 . S
H444 C452 0.930 . S
O445 Co414 2.037 . S
O445 C465 1.234 . S
C446 O420 1.269 . S
C446 O421 1.257 . S
C447 H422 0.930 . S
C447 C450 1.388 . S
C447 C452 1.418 . S
C448 H443 0.930 . S
C448 C451 1.404 . S
C448 C452 1.353 . S
N449 Co414 2.145 1_556 S
N449 C450 1.397 . S
N449 C451 1.334 . S
C450 H431 0.929 . S
C450 C447 1.388 . S
C450 N449 1.397 . S
C451 H432 0.929 . S
C451 C448 1.404 . S
C451 N449 1.334 . S
C452 H444 0.930 . S
C452 C447 1.418 . S
C452 C448 1.353 . S
C453 H423 0.930 . S
C453 N454 1.330 . S
C453 C455 1.446 . S
N454 Co413 2.151 . S
N454 C453 1.330 . S
N454 C458 1.418 . S
C455 H434 0.929 . S
C455 C453 1.446 . S
C455 C456 1.332 . S
C456 H436 0.931 . S
C456 C455 1.332 . S
C456 C457 1.267 . S
C457 H425 0.929 . S
C457 C456 1.267 . S
C457 C458 1.251 . S
C458 H428 0.929 . S
C458 N454 1.418 . S
C458 C457 1.251 . S
C459 H426 0.930 . S
C459 C461 1.406 . S
C459 C464 1.261 . S
C460 H427 0.930 . S
C460 N462 1.325 . S
C460 C463 1.357 . S
C461 H429 0.928 . S
C461 C459 1.406 . S
C461 N462 1.261 . S
N462 Co413 2.214 . S
N462 C460 1.325 . S
N462 C461 1.261 . S
C463 H433 0.931 . S
C463 C460 1.357 . S
C463 C464 1.312 . S
C464 H435 0.930 . S
C464 C459 1.261 . S
C464 C463 1.312 . S
C465 O437 1.214 . S
C465 O445 1.234 . S
C466 H438 0.929 . S
C466 C469 1.391 . S
C466 C471 1.391 . S
C467 H439 0.929 . S
C467 C468 1.390 . S
C467 N470 1.391 . S
C468 H440 0.930 . S
C468 C467 1.390 . S
C468 C469 1.392 . S
C469 H441 0.929 . S
C469 C466 1.391 . S
C469 C468 1.392 . S
N470 Co414 2.257 . S
N470 C467 1.391 . S
N470 C471 1.388 . S
C471 H442 0.930 . S
C471 C466 1.391 . S
C471 N470 1.388 . S
H472 C480 0.929 . S
H473 C482 0.930 . S
H474 C484 0.930 . S
H475 C487 0.929 . S
H476 C490 0.930 . S
H477 C492 0.960 . S
H478 C492 0.960 . S
H479 C492 0.960 . S
C480 H472 0.929 . S
C480 C481 1.377 . S
C480 C482 1.384 . S
C481 C480 1.377 . S
C481 C487 1.390 . S
C482 H473 0.930 . S
C482 C480 1.384 . S
C482 C483 1.372 . S
C483 C482 1.372 . S
C483 C484 1.400 . S
C483 C488 1.490 . S
C484 H474 0.930 . S
C484 C483 1.400 . S
C484 C487 1.386 . S
H485 C501 0.930 . S
H486 C502 0.931 . S
C487 H475 0.929 . S
C487 C481 1.390 . S
C487 C484 1.386 . S
C488 C483 1.490 . S
C488 C490 1.395 . S
C488 C491 1.403 . S
H489 C495 0.930 . S
C490 H476 0.930 . S
C490 C488 1.395 . S
C490 C493 1.403 . S
C491 C488 1.403 . S
C491 C492 1.524 . S
C491 C495 1.400 . S
C492 H477 0.960 . S
C492 H478 0.960 . S
C492 H479 0.960 . S
C492 C491 1.524 . S
C493 C490 1.403 . S
C493 C494 1.392 . S
C493 C497 1.495 . S
C494 C493 1.392 . S
C494 C495 1.385 . S
C494 C496 1.478 . S
C495 H489 0.930 . S
C495 C491 1.400 . S
C495 C494 1.385 . S
C496 C494 1.478 . S
C496 C498 1.381 . S
C496 C502 1.383 . S
C497 C493 1.495 . S
C497 H503 0.959 . S
C497 H504 0.961 . S
C497 H505 0.960 . S
C498 C496 1.381 . S
C498 C499 1.394 . S
C498 H506 0.930 . S
C499 C498 1.394 . S
C499 C500 1.383 . S
C499 H507 0.929 . S
C500 C499 1.383 . S
C500 C501 1.377 . S
C501 H485 0.930 . S
C501 C500 1.377 . S
C501 C502 1.379 . S
C502 H486 0.931 . S
C502 C496 1.383 . S
C502 C501 1.379 . S
H503 C497 0.959 . S
H504 C497 0.961 . S
H505 C497 0.960 . S
H506 C498 0.930 . S
H507 C499 0.929 . S
H508 C516 0.929 . S
H509 C518 0.930 . S
H510 C520 0.930 . S
H511 C523 0.929 . S
H512 C526 0.930 . S
H513 C528 0.960 . S
H514 C528 0.960 . S
H515 C528 0.960 . S
C516 H508 0.929 . S
C516 C517 1.377 . S
C516 C518 1.384 . S
C517 C516 1.377 . S
C517 C523 1.390 . S
C518 H509 0.930 . S
C518 C516 1.384 . S
C518 C519 1.372 . S
C519 C518 1.372 . S
C519 C520 1.400 . S
C519 C524 1.490 . S
C520 H510 0.930 . S
C520 C519 1.400 . S
C520 C523 1.386 . S
H521 C537 0.930 . S
H522 C538 0.931 . S
C523 H511 0.929 . S
C523 C517 1.390 . S
C523 C520 1.386 . S
C524 C519 1.490 . S
C524 C526 1.395 . S
C524 C527 1.403 . S
H525 C531 0.930 . S
C526 H512 0.930 . S
C526 C524 1.395 . S
C526 C529 1.403 . S
C527 C524 1.403 . S
C527 C528 1.524 . S
C527 C531 1.400 . S
C528 H513 0.960 . S
C528 H514 0.960 . S
C528 H515 0.960 . S
C528 C527 1.524 . S
C529 C526 1.403 . S
C529 C530 1.392 . S
C529 C533 1.495 . S
C530 C529 1.392 . S
C530 C531 1.385 . S
C530 C532 1.478 . S
C531 H525 0.930 . S
C531 C527 1.400 . S
C531 C530 1.385 . S
C532 C530 1.478 . S
C532 C534 1.381 . S
C532 C538 1.383 . S
C533 C529 1.495 . S
C533 H539 0.959 . S
C533 H540 0.961 . S
C533 H541 0.960 . S
C534 C532 1.381 . S
C534 C535 1.394 . S
C534 H542 0.930 . S
C535 C534 1.394 . S
C535 C536 1.383 . S
C535 H543 0.929 . S
C536 C535 1.383 . S
C536 C537 1.377 . S
C537 H521 0.930 . S
C537 C536 1.377 . S
C537 C538 1.379 . S
C538 H522 0.931 . S
C538 C532 1.383 . S
C538 C537 1.379 . S
H539 C533 0.959 . S
H540 C533 0.961 . S
H541 C533 0.960 . S
H542 C534 0.930 . S
H543 C535 0.929 . S
H544 C552 0.929 . S
H545 C554 0.930 . S
H546 C556 0.930 . S
H547 C559 0.929 . S
H548 C562 0.930 . S
H549 C564 0.960 . S
H550 C564 0.960 . S
H551 C564 0.960 . S
C552 H544 0.929 . S
C552 C553 1.377 . S
C552 C554 1.384 . S
C553 C552 1.377 . S
C553 C559 1.390 . S
C554 H545 0.930 . S
C554 C552 1.384 . S
C554 C555 1.372 . S
C555 C554 1.372 . S
C555 C556 1.400 . S
C555 C560 1.490 . S
C556 H546 0.930 . S
C556 C555 1.400 . S
C556 C559 1.386 . S
H557 C573 0.930 . S
H558 C574 0.931 . S
C559 H547 0.929 . S
C559 C553 1.390 . S
C559 C556 1.386 . S
C560 C555 1.490 . S
C560 C562 1.395 . S
C560 C563 1.403 . S
H561 C567 0.930 . S
C562 H548 0.930 . S
C562 C560 1.395 . S
C562 C565 1.403 . S
C563 C560 1.403 . S
C563 C564 1.524 . S
C563 C567 1.400 . S
C564 H549 0.960 . S
C564 H550 0.960 . S
C564 H551 0.960 . S
C564 C563 1.524 . S
C565 C562 1.403 . S
C565 C566 1.392 . S
C565 C569 1.495 1_554 S
C566 C565 1.392 . S
C566 C567 1.385 . S
C566 C568 1.478 1_554 S
C567 H561 0.930 . S
C567 C563 1.400 . S
C567 C566 1.385 . S
C568 C566 1.478 1_556 S
C568 C570 1.381 . S
C568 C574 1.383 . S
C569 C565 1.495 1_556 S
C569 H575 0.959 1_556 S
C569 H576 0.961 . S
C569 H577 0.960 . S
C570 C568 1.381 . S
C570 C571 1.394 . S
C570 H578 0.930 . S
C571 C570 1.394 . S
C571 C572 1.383 . S
C571 H579 0.929 . S
C572 C571 1.383 . S
C572 C573 1.377 . S
C573 H557 0.930 . S
C573 C572 1.377 . S
C573 C574 1.379 . S
C574 H558 0.931 . S
C574 C568 1.383 . S
C574 C573 1.379 . S
H575 C569 0.959 1_554 S
H576 C569 0.961 . S
H577 C569 0.960 . S
H578 C570 0.930 . S
H579 C571 0.929 . S
H580 C588 0.929 . S
H581 C590 0.930 . S
H582 C592 0.930 . S
H583 C595 0.929 . S
H584 C598 0.930 . S
H585 C600 0.960 . S
H586 C600 0.960 . S
H587 C600 0.960 . S
C588 H580 0.929 . S
C588 C589 1.377 . S
C588 C590 1.384 . S
C589 C588 1.377 . S
C589 C595 1.390 . S
C590 H581 0.930 . S
C590 C588 1.384 . S
C590 C591 1.372 . S
C591 C590 1.372 . S
C591 C592 1.400 . S
C591 C596 1.490 . S
C592 H582 0.930 . S
C592 C591 1.400 . S
C592 C595 1.386 . S
H593 C609 0.930 . S
H594 C610 0.931 . S
C595 H583 0.929 . S
C595 C589 1.390 . S
C595 C592 1.386 . S
C596 C591 1.490 . S
C596 C598 1.395 . S
C596 C599 1.403 . S
H597 C603 0.930 . S
C598 H584 0.930 . S
C598 C596 1.395 . S
C598 C601 1.403 . S
C599 C596 1.403 . S
C599 C600 1.524 . S
C599 C603 1.400 . S
C600 H585 0.960 . S
C600 H586 0.960 . S
C600 H587 0.960 . S
C600 C599 1.524 . S
C601 C598 1.403 . S
C601 C602 1.392 . S
C601 C605 1.495 . S
C602 C601 1.392 . S
C602 C603 1.385 . S
C602 C604 1.478 . S
C603 H597 0.930 . S
C603 C599 1.400 . S
C603 C602 1.385 . S
C604 C602 1.478 . S
C604 C606 1.381 . S
C604 C610 1.383 . S
C605 C601 1.495 . S
C605 H611 0.959 . S
C605 H612 0.961 . S
C605 H613 0.960 . S
C606 C604 1.381 . S
C606 C607 1.394 . S
C606 H614 0.930 . S
C607 C606 1.394 . S
C607 C608 1.383 . S
C607 H615 0.929 . S
C608 C607 1.383 . S
C608 C609 1.377 . S
C609 H593 0.930 . S
C609 C608 1.377 . S
C609 C610 1.379 . S
C610 H594 0.931 . S
C610 C604 1.383 . S
C610 C609 1.379 . S
H611 C605 0.959 . S
H612 C605 0.961 . S
H613 C605 0.960 . S
H614 C606 0.930 . S
H615 C607 0.929 . S
H616 C624 0.929 . S
H617 C626 0.930 . S
H618 C628 0.930 . S
H619 C631 0.929 . S
H620 C634 0.930 . S
H621 C636 0.960 . S
H622 C636 0.960 . S
H623 C636 0.960 . S
C624 H616 0.929 . S
C624 C625 1.377 . S
C624 C626 1.384 . S
C625 C624 1.377 . S
C625 C631 1.390 . S
C626 H617 0.930 . S
C626 C624 1.384 . S
C626 C627 1.372 . S
C627 C626 1.372 . S
C627 C628 1.400 . S
C627 C632 1.490 . S
C628 H618 0.930 . S
C628 C627 1.400 . S
C628 C631 1.386 . S
H629 C645 0.930 . S
H630 C646 0.931 . S
C631 H619 0.929 . S
C631 C625 1.390 . S
C631 C628 1.386 . S
C632 C627 1.490 . S
C632 C634 1.395 . S
C632 C635 1.403 . S
H633 C639 0.930 . S
C634 H620 0.930 . S
C634 C632 1.395 . S
C634 C637 1.403 . S
C635 C632 1.403 . S
C635 C636 1.524 . S
C635 C639 1.400 . S
C636 H621 0.960 . S
C636 H622 0.960 . S
C636 H623 0.960 . S
C636 C635 1.524 . S
C637 C634 1.403 . S
C637 C638 1.392 . S
C637 C641 1.495 . S
C638 C637 1.392 . S
C638 C639 1.385 . S
C638 C640 1.478 . S
C639 H633 0.930 . S
C639 C635 1.400 . S
C639 C638 1.385 . S
C640 C638 1.478 . S
C640 C642 1.381 . S
C640 C646 1.383 . S
C641 C637 1.495 . S
C641 H647 0.959 . S
C641 H648 0.961 . S
C641 H649 0.960 . S
C642 C640 1.381 . S
C642 C643 1.394 . S
C642 H650 0.930 . S
C643 C642 1.394 . S
C643 C644 1.383 . S
C643 H651 0.929 . S
C644 C643 1.383 . S
C644 C645 1.377 . S
C645 H629 0.930 . S
C645 C644 1.377 . S
C645 C646 1.379 . S
C646 H630 0.931 . S
C646 C640 1.383 . S
C646 C645 1.379 . S
H647 C641 0.959 . S
H648 C641 0.961 . S
H649 C641 0.960 . S
H650 C642 0.930 . S
H651 C643 0.929 . S
H652 C660 0.929 . S
H653 C662 0.930 . S
H654 C664 0.930 . S
H655 C667 0.929 . S
H656 C670 0.930 . S
H657 C672 0.960 . S
H658 C672 0.960 . S
H659 C672 0.960 . S
C660 H652 0.929 . S
C660 C661 1.377 . S
C660 C662 1.384 . S
C661 C660 1.377 . S
C661 C667 1.390 . S
C662 H653 0.930 . S
C662 C660 1.384 . S
C662 C663 1.372 . S
C663 C662 1.372 . S
C663 C664 1.400 . S
C663 C668 1.490 . S
C664 H654 0.930 . S
C664 C663 1.400 . S
C664 C667 1.386 . S
H665 C681 0.930 . S
H666 C682 0.931 . S
C667 H655 0.929 . S
C667 C661 1.390 . S
C667 C664 1.386 . S
C668 C663 1.490 . S
C668 C670 1.395 . S
C668 C671 1.403 . S
H669 C675 0.930 . S
C670 H656 0.930 . S
C670 C668 1.395 . S
C670 C673 1.403 . S
C671 C668 1.403 . S
C671 C672 1.524 . S
C671 C675 1.400 . S
C672 H657 0.960 . S
C672 H658 0.960 . S
C672 H659 0.960 . S
C672 C671 1.524 . S
C673 C670 1.403 . S
C673 C674 1.392 . S
C673 C677 1.495 . S
C674 C673 1.392 . S
C674 C675 1.385 . S
C674 C676 1.478 . S
C675 H669 0.930 . S
C675 C671 1.400 . S
C675 C674 1.385 . S
C676 C674 1.478 . S
C676 C678 1.381 . S
C676 C682 1.383 . S
C677 C673 1.495 . S
C677 H683 0.959 . S
C677 H684 0.961 . S
C677 H685 0.960 . S
C678 C676 1.381 . S
C678 C679 1.394 . S
C678 H686 0.930 . S
C679 C678 1.394 . S
C679 C680 1.383 . S
C679 H687 0.929 . S
C680 C679 1.383 . S
C680 C681 1.377 . S
C681 H665 0.930 . S
C681 C680 1.377 . S
C681 C682 1.379 . S
C682 H666 0.931 . S
C682 C676 1.383 . S
C682 C681 1.379 . S
H683 C677 0.959 . S
H684 C677 0.961 . S
H685 C677 0.960 . S
H686 C678 0.930 . S
H687 C679 0.929 . S
H688 C696 0.929 1_554 S
H689 C698 0.930 . S
H690 C700 0.930 . S
H691 C703 0.929 . S
H692 C706 0.930 . S
H693 C708 0.960 . S
H694 C708 0.960 . S
H695 C708 0.960 . S
C696 H688 0.929 1_556 S
C696 C697 1.377 . S
C696 C698 1.384 . S
C697 C696 1.377 . S
C697 C703 1.389 . S
C698 H689 0.930 . S
C698 C696 1.384 . S
C698 C699 1.372 . S
C699 C698 1.372 . S
C699 C700 1.400 . S
C699 C704 1.490 . S
C700 H690 0.930 . S
C700 C699 1.400 . S
C700 C703 1.386 . S
H701 C717 0.930 . S
H702 C718 0.931 . S
C703 H691 0.929 . S
C703 C697 1.389 . S
C703 C700 1.386 . S
C704 C699 1.490 . S
C704 C706 1.395 . S
C704 C707 1.403 . S
H705 C711 0.930 . S
C706 H692 0.930 . S
C706 C704 1.395 . S
C706 C709 1.403 . S
C707 C704 1.403 . S
C707 C708 1.524 . S
C707 C711 1.400 . S
C708 H693 0.960 . S
C708 H694 0.960 . S
C708 H695 0.960 . S
C708 C707 1.524 . S
C709 C706 1.403 . S
C709 C710 1.392 . S
C709 C713 1.495 . S
C710 C709 1.392 . S
C710 C711 1.385 . S
C710 C712 1.478 . S
C711 H705 0.930 . S
C711 C707 1.400 . S
C711 C710 1.385 . S
C712 C710 1.478 . S
C712 C714 1.381 . S
C712 C718 1.383 . S
C713 C709 1.495 . S
C713 H719 0.959 . S
C713 H720 0.961 . S
C713 H721 0.960 . S
C714 C712 1.381 . S
C714 C715 1.394 . S
C714 H722 0.930 . S
C715 C714 1.394 . S
C715 C716 1.383 . S
C715 H723 0.929 . S
C716 C715 1.383 . S
C716 C717 1.377 . S
C717 H701 0.930 . S
C717 C716 1.377 . S
C717 C718 1.379 . S
C718 H702 0.931 . S
C718 C712 1.383 . S
C718 C717 1.379 . S
H719 C713 0.959 . S
H720 C713 0.961 . S
H721 C713 0.960 . S
H722 C714 0.930 . S
H723 C715 0.929 . S
H724 C732 0.929 . S
H725 C734 0.930 . S
H726 C736 0.930 . S
H727 C739 0.929 . S
H728 C742 0.930 . S
H729 C744 0.960 . S
H730 C744 0.960 . S
H731 C744 0.960 . S
C732 H724 0.929 . S
C732 C733 1.377 . S
C732 C734 1.384 . S
C733 C732 1.377 . S
C733 C739 1.390 . S
C734 H725 0.930 . S
C734 C732 1.384 . S
C734 C735 1.372 . S
C735 C734 1.372 . S
C735 C736 1.400 . S
C735 C740 1.490 . S
C736 H726 0.930 . S
C736 C735 1.400 . S
C736 C739 1.386 . S
H737 C753 0.930 . S
H738 C754 0.931 . S
C739 H727 0.929 . S
C739 C733 1.390 . S
C739 C736 1.386 . S
C740 C735 1.490 . S
C740 C742 1.395 . S
C740 C743 1.403 . S
H741 C747 0.930 . S
C742 H728 0.930 . S
C742 C740 1.395 . S
C742 C745 1.403 . S
C743 C740 1.403 . S
C743 C744 1.524 . S
C743 C747 1.400 . S
C744 H729 0.960 . S
C744 H730 0.960 . S
C744 H731 0.960 . S
C744 C743 1.524 . S
C745 C742 1.403 . S
C745 C746 1.392 . S
C745 C749 1.495 . S
C746 C745 1.392 . S
C746 C747 1.385 . S
C746 C748 1.478 . S
C747 H741 0.930 . S
C747 C743 1.400 . S
C747 C746 1.385 . S
C748 C746 1.478 . S
C748 C750 1.381 . S
C748 C754 1.383 . S
C749 C745 1.495 . S
C749 H755 0.959 . S
C749 H756 0.961 . S
C749 H757 0.960 . S
C750 C748 1.381 . S
C750 C751 1.394 . S
C750 H758 0.930 . S
C751 C750 1.394 . S
C751 C752 1.383 . S
C751 H759 0.929 . S
C752 C751 1.383 . S
C752 C753 1.377 . S
C753 H737 0.930 . S
C753 C752 1.377 . S
C753 C754 1.379 . S
C754 H738 0.931 . S
C754 C748 1.383 . S
C754 C753 1.379 . S
H755 C749 0.959 . S
H756 C749 0.961 . S
H757 C749 0.960 . S
H758 C750 0.930 . S
H759 C751 0.929 . S
H760 C768 0.929 . S
H761 C770 0.930 . S
H762 C772 0.930 . S
H763 C775 0.929 . S
H764 C778 0.930 . S
H765 C780 0.960 . S
H766 C780 0.960 . S
H767 C780 0.960 . S
C768 H760 0.929 . S
C768 C769 1.377 . S
C768 C770 1.384 . S
C769 C768 1.377 . S
C769 C775 1.390 . S
C770 H761 0.930 . S
C770 C768 1.384 . S
C770 C771 1.372 . S
C771 C770 1.372 . S
C771 C772 1.400 . S
C771 C776 1.490 . S
C772 H762 0.930 . S
C772 C771 1.400 . S
C772 C775 1.386 . S
H773 C789 0.930 . S
H774 C790 0.931 . S
C775 H763 0.929 . S
C775 C769 1.390 . S
C775 C772 1.386 . S
C776 C771 1.490 . S
C776 C778 1.395 . S
C776 C779 1.403 . S
H777 C783 0.930 . S
C778 H764 0.930 . S
C778 C776 1.395 . S
C778 C781 1.403 1_565 S
C779 C776 1.403 . S
C779 C780 1.524 . S
C779 C783 1.400 1_565 S
C780 H765 0.960 . S
C780 H766 0.960 . S
C780 H767 0.960 . S
C780 C779 1.524 . S
C781 C778 1.403 1_545 S
C781 C782 1.392 . S
C781 C785 1.495 . S
C782 C781 1.392 . S
C782 C783 1.385 . S
C782 C784 1.478 . S
C783 H777 0.930 . S
C783 C779 1.400 1_545 S
C783 C782 1.385 . S
C784 C782 1.478 . S
C784 C786 1.381 . S
C784 C790 1.383 . S
C785 C781 1.495 . S
C785 H791 0.959 . S
C785 H792 0.961 . S
C785 H793 0.960 . S
C786 C784 1.381 . S
C786 C787 1.394 . S
C786 H794 0.930 . S
C787 C786 1.394 . S
C787 C788 1.383 . S
C787 H795 0.929 . S
C788 C787 1.383 . S
C788 C789 1.377 . S
C789 H773 0.930 . S
C789 C788 1.377 . S
C789 C790 1.379 . S
C790 H774 0.931 . S
C790 C784 1.383 . S
C790 C789 1.379 . S
H791 C785 0.959 . S
H792 C785 0.961 . S
H793 C785 0.960 . S
H794 C786 0.930 . S
H795 C787 0.929 . S
H796 C804 0.929 . S
H797 C806 0.930 . S
H798 C808 0.930 . S
H799 C811 0.929 . S
H800 C814 0.930 . S
H801 C816 0.960 . S
H802 C816 0.960 . S
H803 C816 0.960 . S
C804 H796 0.929 . S
C804 C805 1.377 . S
C804 C806 1.384 . S
C805 C804 1.377 . S
C805 C811 1.390 . S
C806 H797 0.930 . S
C806 C804 1.384 . S
C806 C807 1.372 . S
C807 C806 1.372 . S
C807 C808 1.400 . S
C807 C812 1.490 . S
C808 H798 0.930 . S
C808 C807 1.400 . S
C808 C811 1.386 . S
H809 C825 0.930 . S
H810 C826 0.931 . S
C811 H799 0.929 . S
C811 C805 1.390 . S
C811 C808 1.386 . S
C812 C807 1.490 . S
C812 C814 1.395 . S
C812 C815 1.403 . S
H813 C819 0.930 . S
C814 H800 0.930 . S
C814 C812 1.395 . S
C814 C817 1.403 1_655 S
C815 C812 1.403 . S
C815 C816 1.524 . S
C815 C819 1.400 1_655 S
C816 H801 0.960 . S
C816 H802 0.960 . S
C816 H803 0.960 . S
C816 C815 1.524 . S
C817 C814 1.403 1_455 S
C817 C818 1.392 . S
C817 C821 1.495 . S
C818 C817 1.392 . S
C818 C819 1.385 . S
C818 C820 1.478 . S
C819 H813 0.930 . S
C819 C815 1.400 1_455 S
C819 C818 1.385 . S
C820 C818 1.478 . S
C820 C822 1.381 . S
C820 C826 1.383 . S
C821 C817 1.495 . S
C821 H827 0.959 . S
C821 H828 0.961 . S
C821 H829 0.960 . S
C822 C820 1.381 . S
C822 C823 1.394 . S
C822 H830 0.930 . S
C823 C822 1.394 . S
C823 C824 1.383 . S
C823 H831 0.929 . S
C824 C823 1.383 . S
C824 C825 1.377 . S
C825 H809 0.930 . S
C825 C824 1.377 . S
C825 C826 1.379 . S
C826 H810 0.931 . S
C826 C820 1.383 . S
C826 C825 1.379 . S
H827 C821 0.959 . S
H828 C821 0.961 . S
H829 C821 0.960 . S
H830 C822 0.930 . S
H831 C823 0.929 . S
H832 C840 0.929 . S
H833 C842 0.930 . S
H834 C844 0.930 . S
H835 C847 0.929 . S
H836 C850 0.930 . S
H837 C852 0.960 . S
H838 C852 0.960 . S
H839 C852 0.960 . S
C840 H832 0.929 . S
C840 C841 1.377 . S
C840 C842 1.384 . S
C841 C840 1.377 . S
C841 C847 1.390 . S
C842 H833 0.930 . S
C842 C840 1.384 . S
C842 C843 1.372 . S
C843 C842 1.372 . S
C843 C844 1.400 . S
C843 C848 1.490 . S
C844 H834 0.930 . S
C844 C843 1.400 . S
C844 C847 1.386 . S
H845 C861 0.930 . S
H846 C862 0.931 . S
C847 H835 0.929 . S
C847 C841 1.390 . S
C847 C844 1.386 . S
C848 C843 1.490 . S
C848 C850 1.395 . S
C848 C851 1.403 . S
H849 C855 0.930 . S
C850 H836 0.930 . S
C850 C848 1.395 . S
C850 C853 1.403 1_565 S
C851 C848 1.403 . S
C851 C852 1.524 . S
C851 C855 1.400 1_565 S
C852 H837 0.960 . S
C852 H838 0.960 . S
C852 H839 0.960 . S
C852 C851 1.524 . S
C853 C850 1.403 1_545 S
C853 C854 1.392 . S
C853 C857 1.495 . S
C854 C853 1.392 . S
C854 C855 1.385 . S
C854 C856 1.478 . S
C855 H849 0.930 . S
C855 C851 1.400 1_545 S
C855 C854 1.385 . S
C856 C854 1.478 . S
C856 C858 1.381 . S
C856 C862 1.383 . S
C857 C853 1.495 . S
C857 H863 0.959 . S
C857 H864 0.961 . S
C857 H865 0.960 . S
C858 C856 1.381 . S
C858 C859 1.394 . S
C858 H866 0.930 . S
C859 C858 1.394 . S
C859 C860 1.383 . S
C859 H867 0.929 . S
C860 C859 1.383 . S
C860 C861 1.377 . S
C861 H845 0.930 . S
C861 C860 1.377 . S
C861 C862 1.379 . S
C862 H846 0.931 . S
C862 C856 1.383 . S
C862 C861 1.379 . S
H863 C857 0.959 . S
H864 C857 0.961 . S
H865 C857 0.960 . S
H866 C858 0.930 . S
H867 C859 0.929 . S
H868 C876 0.942 . S
H869 C878 0.930 . S
H870 C880 0.930 . S
H871 C883 0.929 . S
H872 C886 0.930 1_556 S
H873 C888 0.960 . S
H874 C888 0.960 . S
H875 C888 0.960 . S
C876 H868 0.942 . S
C876 C877 1.377 . S
C876 C878 1.384 . S
C877 C876 1.377 . S
C877 C883 1.390 . S
C878 H869 0.930 . S
C878 C876 1.384 . S
C878 C879 1.372 . S
C879 C878 1.372 . S
C879 C880 1.400 . S
C879 C884 1.490 . S
C880 H870 0.930 . S
C880 C879 1.400 . S
C880 C883 1.386 . S
H881 C897 0.930 . S
H882 C898 0.931 . S
C883 H871 0.929 . S
C883 C877 1.390 . S
C883 C880 1.386 . S
C884 C879 1.490 . S
C884 C886 1.395 . S
C884 C887 1.403 . S
H885 C891 0.930 . S
C886 H872 0.930 1_554 S
C886 C884 1.395 . S
C886 C889 1.403 1_655 S
C887 C884 1.403 . S
C887 C888 1.524 . S
C887 C891 1.400 1_655 S
C888 H873 0.960 . S
C888 H874 0.960 . S
C888 H875 0.960 . S
C888 C887 1.524 . S
C889 C886 1.403 1_455 S
C889 C890 1.392 . S
C889 C893 1.495 1_554 S
C890 C889 1.392 . S
C890 C891 1.385 . S
C890 C892 1.478 . S
C891 H885 0.930 . S
C891 C887 1.400 1_455 S
C891 C890 1.385 . S
C892 C890 1.478 . S
C892 C894 1.381 . S
C892 C898 1.383 . S
C893 C889 1.495 1_556 S
C893 H899 0.959 . S
C893 H900 0.961 . S
C893 H901 0.960 . S
C894 C892 1.381 . S
C894 C895 1.394 . S
C894 H902 0.930 . S
C895 C894 1.394 . S
C895 C896 1.383 . S
C895 H903 0.929 . S
C896 C895 1.383 . S
C896 C897 1.377 . S
C897 H881 0.930 . S
C897 C896 1.377 . S
C897 C898 1.379 . S
C898 H882 0.931 . S
C898 C892 1.383 . S
C898 C897 1.379 . S
H899 C893 0.959 . S
H900 C893 0.961 . S
H901 C893 0.960 . S
H902 C894 0.930 . S
H903 C895 0.929 . S
H904 C912 0.929 . S
H905 C914 0.930 . S
H906 C916 0.930 . S
H907 C919 0.929 . S
H908 C922 0.930 . S
H909 C924 0.960 . S
H910 C924 0.960 . S
H911 C924 0.960 . S
C912 H904 0.929 . S
C912 C913 1.377 . S
C912 C914 1.384 . S
C913 C912 1.377 . S
C913 C919 1.390 . S
C914 H905 0.930 . S
C914 C912 1.384 . S
C914 C915 1.372 . S
C915 C914 1.372 . S
C915 C916 1.400 . S
C915 C920 1.490 1_556 S
C916 H906 0.930 . S
C916 C915 1.400 . S
C916 C919 1.386 . S
H917 C933 0.930 . S
H918 C934 0.931 . S
C919 H907 0.929 . S
C919 C913 1.390 . S
C919 C916 1.386 . S
C920 C915 1.490 1_554 S
C920 C922 1.395 . S
C920 C923 1.403 . S
H921 C927 0.930 . S
C922 H908 0.930 . S
C922 C920 1.395 . S
C922 C925 1.403 . S
C923 C920 1.403 . S
C923 C924 1.524 . S
C923 C927 1.400 . S
C924 H909 0.960 . S
C924 H910 0.960 . S
C924 H911 0.960 . S
C924 C923 1.524 . S
C925 C922 1.403 . S
C925 C926 1.392 . S
C925 C929 1.495 . S
C926 C925 1.392 . S
C926 C927 1.385 . S
C926 C928 1.478 . S
C927 H921 0.930 . S
C927 C923 1.400 . S
C927 C926 1.385 . S
C928 C926 1.478 . S
C928 C930 1.381 . S
C928 C934 1.383 . S
C929 C925 1.495 . S
C929 H935 0.959 . S
C929 H936 0.961 . S
C929 H937 0.960 . S
C930 C928 1.381 . S
C930 C931 1.394 . S
C930 H938 0.930 . S
C931 C930 1.394 . S
C931 C932 1.383 . S
C931 H939 0.929 . S
C932 C931 1.383 . S
C932 C933 1.377 . S
C933 H917 0.930 . S
C933 C932 1.377 . S
C933 C934 1.379 . S
C934 H918 0.931 . S
C934 C928 1.383 . S
C934 C933 1.379 . S
H935 C929 0.959 . S
H936 C929 0.961 . S
H937 C929 0.960 . S
H938 C930 0.930 . S
H939 C931 0.929 . S
H940 C948 0.929 . S
H941 C950 0.930 . S
H942 C952 0.930 . S
H943 C955 0.929 . S
H944 C958 0.930 . S
H945 C960 0.960 . S
H946 C960 0.960 . S
H947 C960 0.960 . S
C948 H940 0.929 . S
C948 C949 1.377 . S
C948 C950 1.384 . S
C949 C948 1.377 . S
C949 C955 1.390 . S
C950 H941 0.930 . S
C950 C948 1.384 . S
C950 C951 1.372 . S
C951 C950 1.372 . S
C951 C952 1.400 . S
C951 C956 1.490 . S
C952 H942 0.930 . S
C952 C951 1.400 . S
C952 C955 1.386 . S
H953 C969 0.930 . S
H954 C970 0.931 . S
C955 H943 0.929 . S
C955 C949 1.390 . S
C955 C952 1.386 . S
C956 C951 1.490 . S
C956 C958 1.395 . S
C956 C959 1.403 . S
H957 C963 0.930 . S
C958 H944 0.930 . S
C958 C956 1.395 . S
C958 C961 1.403 . S
C959 C956 1.403 . S
C959 C960 1.524 . S
C959 C963 1.400 . S
C960 H945 0.960 . S
C960 H946 0.960 . S
C960 H947 0.960 . S
C960 C959 1.524 . S
C961 C958 1.403 . S
C961 C962 1.392 . S
C961 C965 1.495 . S
C962 C961 1.392 . S
C962 C963 1.385 . S
C962 C964 1.478 . S
C963 H957 0.930 . S
C963 C959 1.400 . S
C963 C962 1.385 . S
C964 C962 1.478 . S
C964 C966 1.381 . S
C964 C970 1.383 . S
C965 C961 1.495 . S
C965 H971 0.959 . S
C965 H972 0.961 . S
C965 H973 0.960 . S
C966 C964 1.381 . S
C966 C967 1.394 . S
C966 H974 0.930 . S
C967 C966 1.394 . S
C967 C968 1.383 . S
C967 H975 0.929 . S
C968 C967 1.383 . S
C968 C969 1.377 . S
C969 H953 0.930 . S
C969 C968 1.377 . S
C969 C970 1.379 . S
C970 H954 0.931 . S
C970 C964 1.383 . S
C970 C969 1.379 . S
H971 C965 0.959 . S
H972 C965 0.961 . S
H973 C965 0.960 . S
H974 C966 0.930 . S
H975 C967 0.929 . S
H976 C984 0.929 . S
H977 C986 0.930 . S
H978 C988 0.930 . S
H979 C991 0.929 . S
H980 C994 0.930 . S
H981 C996 0.960 . S
H982 C996 0.960 . S
H983 C996 0.960 . S
C984 H976 0.929 . S
C984 C985 1.377 . S
C984 C986 1.384 . S
C985 C984 1.377 . S
C985 C991 1.390 . S
C986 H977 0.930 . S
C986 C984 1.384 . S
C986 C987 1.372 . S
C987 C986 1.372 . S
C987 C988 1.400 . S
C987 C992 1.490 . S
C988 H978 0.930 . S
C988 C987 1.400 . S
C988 C991 1.386 . S
H989 C1005 0.930 . S
H990 C1006 0.931 . S
C991 H979 0.929 . S
C991 C985 1.390 . S
C991 C988 1.386 . S
C992 C987 1.490 . S
C992 C994 1.395 . S
C992 C995 1.403 . S
H993 C999 0.930 . S
C994 H980 0.930 . S
C994 C992 1.395 . S
C994 C997 1.403 . S
C995 C992 1.403 . S
C995 C996 1.524 . S
C995 C999 1.400 . S
C996 H981 0.960 . S
C996 H982 0.960 . S
C996 H983 0.960 . S
C996 C995 1.524 . S
C997 C994 1.403 . S
C997 C998 1.392 . S
C997 C1001 1.495 . S
C998 C997 1.392 . S
C998 C999 1.385 . S
C998 C1000 1.478 . S
C999 H993 0.930 . S
C999 C995 1.400 . S
C999 C998 1.385 . S
C1000 C998 1.478 . S
C1000 C1002 1.381 . S
C1000 C1006 1.383 . S
C1001 C997 1.495 . S
C1001 H1007 0.959 . S
C1001 H1008 0.961 . S
C1001 H1009 0.960 . S
C1002 C1000 1.381 . S
C1002 C1003 1.394 . S
C1002 H1010 0.930 . S
C1003 C1002 1.394 . S
C1003 C1004 1.383 . S
C1003 H1011 0.929 . S
C1004 C1003 1.383 . S
C1004 C1005 1.377 . S
C1005 H989 0.930 . S
C1005 C1004 1.377 . S
C1005 C1006 1.379 . S
C1006 H990 0.931 . S
C1006 C1000 1.383 . S
C1006 C1005 1.379 . S
H1007 C1001 0.959 . S
H1008 C1001 0.961 . S
H1009 C1001 0.960 . S
H1010 C1002 0.930 . S
H1011 C1003 0.929 . S
H1012 C1020 0.929 . S
H1013 C1022 0.930 . S
H1014 C1024 0.930 . S
H1015 C1027 0.929 . S
H1016 C1030 0.930 . S
H1017 C1032 0.960 . S
H1018 C1032 0.960 . S
H1019 C1032 0.960 . S
C1020 H1012 0.929 . S
C1020 C1021 1.377 . S
C1020 C1022 1.384 . S
C1021 C1020 1.377 . S
C1021 C1027 1.390 . S
C1022 H1013 0.930 . S
C1022 C1020 1.384 . S
C1022 C1023 1.372 . S
C1023 C1022 1.372 . S
C1023 C1024 1.400 . S
C1023 C1028 1.490 . S
C1024 H1014 0.930 . S
C1024 C1023 1.400 . S
C1024 C1027 1.386 . S
H1025 C1041 0.930 . S
H1026 C1042 0.931 . S
C1027 H1015 0.929 . S
C1027 C1021 1.390 . S
C1027 C1024 1.386 . S
C1028 C1023 1.490 . S
C1028 C1030 1.395 . S
C1028 C1031 1.403 . S
H1029 C1035 0.930 . S
C1030 H1016 0.930 . S
C1030 C1028 1.395 . S
C1030 C1033 1.403 . S
C1031 C1028 1.403 . S
C1031 C1032 1.524 . S
C1031 C1035 1.400 . S
C1032 H1017 0.960 . S
C1032 H1018 0.960 . S
C1032 H1019 0.960 . S
C1032 C1031 1.524 . S
C1033 C1030 1.403 . S
C1033 C1034 1.392 . S
C1033 C1037 1.495 . S
C1034 C1033 1.392 . S
C1034 C1035 1.385 . S
C1034 C1036 1.478 . S
C1035 H1029 0.930 . S
C1035 C1031 1.400 . S
C1035 C1034 1.385 . S
C1036 C1034 1.478 . S
C1036 C1038 1.381 . S
C1036 C1042 1.383 . S
C1037 C1033 1.495 . S
C1037 H1043 0.959 . S
C1037 H1044 0.961 . S
C1037 H1045 0.960 . S
C1038 C1036 1.381 . S
C1038 C1039 1.394 . S
C1038 H1046 0.930 . S
C1039 C1038 1.394 . S
C1039 C1040 1.383 . S
C1039 H1047 0.929 . S
C1040 C1039 1.383 . S
C1040 C1041 1.377 . S
C1041 H1025 0.930 . S
C1041 C1040 1.377 . S
C1041 C1042 1.379 . S
C1042 H1026 0.931 . S
C1042 C1036 1.383 . S
C1042 C1041 1.379 . S
H1043 C1037 0.959 . S
H1044 C1037 0.961 . S
H1045 C1037 0.960 . S
H1046 C1038 0.930 . S
H1047 C1039 0.929 . S
C481 C33 0.660 . S
C500 C387 0.668 . S
C517 C92 0.659 . S
C536 C446 0.657 . S
C553 C269 0.664 . S
C572 C151 0.676 . S
C589 C328 0.663 . S
C608 C210 0.652 . S
C625 C5 1.657 . S
C644 C300 1.666 . S
C661 C64 1.651 . S
C680 C359 1.647 . S
C697 C418 1.653 1_556 S
C716 C123 1.636 . S
C733 C182 1.651 . S
C752 C241 1.643 . S
C769 C288 1.649 . S
C788 C52 1.638 . S
C805 C111 1.646 . S
C824 C347 1.642 . S
C841 C170 1.647 . S
C860 C406 1.637 . S
C877 C465 1.648 . S
C896 C229 1.637 . S
C913 C357 1.323 . S
C932 C3 1.304 . S
C949 C416 1.315 . S
C968 C62 1.301 . S
C985 C121 1.323 . S
C1004 C239 1.304 . S
C1021 C180 1.316 . S
C1040 C298 1.296 . S
