# Generated by pormake.
# Topology wjk, (5)-cn, num edge types: 1
# Building blocks:
#     Node 0, Type 0, BuildingBlock: XOMCOT_clean_sbu_0, # of connection points: 5
#     Node 1, Type 0, BuildingBlock: XOMCOT_clean_sbu_0, # of connection points: 5
#     Node 2, Type 0, BuildingBlock: XOMCOT_clean_sbu_0, # of connection points: 5
#     Node 3, Type 0, BuildingBlock: XOMCOT_clean_sbu_0, # of connection points: 5
#     Node 4, Type 0, BuildingBlock: XOMCOT_clean_sbu_0, # of connection points: 5
#     Node 5, Type 0, BuildingBlock: XOMCOT_clean_sbu_0, # of connection points: 5
#     Node 6, Type 0, BuildingBlock: XOMCOT_clean_sbu_0, # of connection points: 5
#     Node 7, Type 0, BuildingBlock: XOMCOT_clean_sbu_0, # of connection points: 5
#     Node 8, Type 0, BuildingBlock: XOMCOT_clean_sbu_0, # of connection points: 5
#     Node 9, Type 0, BuildingBlock: XOMCOT_clean_sbu_0, # of connection points: 5
#     Node 10, Type 0, BuildingBlock: XOMCOT_clean_sbu_0, # of connection points: 5
#     Node 11, Type 0, BuildingBlock: XOMCOT_clean_sbu_0, # of connection points: 5
#     Edge 12, Type (0, 0), BuildingBlock: CIFDUS_clean_linker_0, # of connection points: 2
#     Edge 13, Type (0, 0), BuildingBlock: CIFDUS_clean_linker_0, # of connection points: 2
#     Edge 14, Type (0, 0), BuildingBlock: CIFDUS_clean_linker_0, # of connection points: 2
#     Edge 15, Type (0, 0), BuildingBlock: CIFDUS_clean_linker_0, # of connection points: 2
#     Edge 16, Type (0, 0), BuildingBlock: CIFDUS_clean_linker_0, # of connection points: 2
#     Edge 17, Type (0, 0), BuildingBlock: CIFDUS_clean_linker_0, # of connection points: 2
#     Edge 18, Type (0, 0), BuildingBlock: CIFDUS_clean_linker_0, # of connection points: 2
#     Edge 19, Type (0, 0), BuildingBlock: CIFDUS_clean_linker_0, # of connection points: 2
#     Edge 20, Type (0, 0), BuildingBlock: CIFDUS_clean_linker_0, # of connection points: 2
#     Edge 21, Type (0, 0), BuildingBlock: CIFDUS_clean_linker_0, # of connection points: 2
#     Edge 22, Type (0, 0), BuildingBlock: CIFDUS_clean_linker_0, # of connection points: 2
#     Edge 23, Type (0, 0), BuildingBlock: CIFDUS_clean_linker_0, # of connection points: 2
#     Edge 24, Type (0, 0), BuildingBlock: CIFDUS_clean_linker_0, # of connection points: 2
#     Edge 25, Type (0, 0), BuildingBlock: CIFDUS_clean_linker_0, # of connection points: 2
#     Edge 26, Type (0, 0), BuildingBlock: CIFDUS_clean_linker_0, # of connection points: 2
#     Edge 27, Type (0, 0), BuildingBlock: CIFDUS_clean_linker_0, # of connection points: 2
#     Edge 28, Type (0, 0), BuildingBlock: CIFDUS_clean_linker_0, # of connection points: 2
#     Edge 29, Type (0, 0), BuildingBlock: CIFDUS_clean_linker_0, # of connection points: 2
#     Edge 30, Type (0, 0), BuildingBlock: CIFDUS_clean_linker_0, # of connection points: 2
#     Edge 31, Type (0, 0), BuildingBlock: CIFDUS_clean_linker_0, # of connection points: 2
#     Edge 32, Type (0, 0), BuildingBlock: CIFDUS_clean_linker_0, # of connection points: 2
#     Edge 33, Type (0, 0), BuildingBlock: CIFDUS_clean_linker_0, # of connection points: 2
#     Edge 34, Type (0, 0), BuildingBlock: CIFDUS_clean_linker_0, # of connection points: 2
#     Edge 35, Type (0, 0), BuildingBlock: CIFDUS_clean_linker_0, # of connection points: 2
#     Edge 36, Type (0, 0), BuildingBlock: CIFDUS_clean_linker_0, # of connection points: 2
#     Edge 37, Type (0, 0), BuildingBlock: CIFDUS_clean_linker_0, # of connection points: 2
#     Edge 38, Type (0, 0), BuildingBlock: CIFDUS_clean_linker_0, # of connection points: 2
#     Edge 39, Type (0, 0), BuildingBlock: CIFDUS_clean_linker_0, # of connection points: 2
#     Edge 40, Type (0, 0), BuildingBlock: CIFDUS_clean_linker_0, # of connection points: 2
#     Edge 41, Type (0, 0), BuildingBlock: CIFDUS_clean_linker_0, # of connection points: 2
# Relax obj value: 0.583
# Max RMSD: 0.269
# Mean RMSD: 0.269
data_MOF--net-wjk--node1-XOMCOT_clean_sbu_0--edge1-CIFDUS_clean_linker_0
_symmetry_space_group_name_H-M    P1
_symmetry_Int_Tables_number       1
_symmetry_cell_setting            triclinic
loop_
_symmetry_equiv_pos_as_xyz
'x, y, z'
_cell_length_a     28.833575
_cell_length_b     29.062469
_cell_length_c     59.592732
_cell_angle_alpha  90.07887
_cell_angle_beta   90.237436
_cell_angle_gamma 120.03716
loop_
_atom_site_label
_atom_site_type_symbol
_atom_site_fract_x
_atom_site_fract_y
_atom_site_fract_z
_atom_type_partial_charge
Co0 Co 0.26796 0.33032 0.25245 0.0
C1 C 0.34879 0.43454 0.27051 0.0
C2 C 0.31662 0.44288 0.23945 0.0
C3 C 0.36672 0.48698 0.24271 0.0
N4 N 0.30618 0.40815 0.25634 0.0
N5 N 0.38746 0.48105 0.26206 0.0
H6 H 0.35672 0.41641 0.28469 0.0
H7 H 0.29445 0.43342 0.22392 0.0
C8 C 0.19077 0.33419 0.21603 0.0
O9 O 0.22821 0.3575 0.20083 0.0
N10 N 0.2332 0.25429 0.2491 0.0
C11 C 0.25837 0.22603 0.24679 0.0
C12 C 0.22068 0.17296 0.24659 0.0
C13 C 0.1807 0.21832 0.2505 0.0
N14 N 0.172 0.16825 0.24898 0.0
C15 C 0.36313 0.36813 0.22726 0.0
C16 C 0.3184 0.29673 0.19236 0.0
C17 C 0.37374 0.32181 0.19632 0.0
C18 C 0.39652 0.36188 0.21245 0.0
C19 C 0.28624 0.30505 0.20734 0.0
N20 N 0.30862 0.33835 0.22531 0.0
H21 H 0.38156 0.3915 0.24202 0.0
H22 H 0.24333 0.27932 0.20617 0.0
H23 H 0.30131 0.24297 0.24558 0.0
H24 H 0.14988 0.22849 0.25343 0.0
O25 O 0.31637 0.32456 0.27363 0.0
O26 O 0.24015 0.32083 0.28268 0.0
O27 O 0.20314 0.32769 0.23614 0.0
C28 C 0.28182 0.31781 0.2891 0.0
H29 H 0.38899 0.51729 0.23032 0.0
H30 H 0.22851 0.14037 0.24494 0.0
H31 H 0.29937 0.26466 0.18024 0.0
H32 H 0.43902 0.38113 0.21621 0.0
Co33 Co 0.9324 0.23444 0.60813 0.0
C34 C 0.91084 0.32146 0.6158 0.0
C35 C 0.85569 0.2669 0.59186 0.0
C36 C 0.85989 0.31587 0.58869 0.0
N37 N 0.89031 0.27088 0.60803 0.0
N38 N 0.89673 0.35124 0.60315 0.0
H39 H 0.94208 0.3386 0.62829 0.0
H40 H 0.83295 0.23281 0.5813 0.0
C41 C 0.85368 0.15235 0.5718 0.0
O42 O 0.86306 0.1885 0.55654 0.0
N43 N 0.97676 0.20246 0.60852 0.0
C44 C 0.03041 0.22885 0.60608 0.0
C45 C 0.04832 0.19328 0.6079 0.0
C46 C 0.96265 0.15151 0.6122 0.0
N47 N 1.00569 0.14481 0.61174 0.0
C48 C 0.99176 0.32471 0.57978 0.0
C49 C 1.00002 0.2695 0.54396 0.0
C50 C 1.02406 0.32512 0.5426 0.0
C51 C 1.01904 0.35267 0.56075 0.0
C52 C 0.97266 0.24324 0.5632 0.0
N53 N 0.96682 0.27048 0.58051 0.0
H54 H 0.99407 0.34743 0.59437 0.0
H55 H 0.9582 0.20116 0.56455 0.0
H56 H 0.05476 0.27115 0.60323 0.0
H57 H 0.92193 0.12016 0.61505 0.0
O58 O 0.98312 0.28621 0.62934 0.0
O59 O 0.91084 0.21097 0.63881 0.0
O60 O 0.87386 0.16646 0.59176 0.0
C61 C 0.95423 0.25392 0.64516 0.0
H62 H 0.84173 0.32545 0.57491 0.0
H63 H 0.08955 0.20248 0.60681 0.0
H64 H 1.00567 0.24653 0.53105 0.0
H65 H 0.03911 0.39569 0.5609 0.0
Co66 Co 0.72252 0.93252 0.92552 0.0
C67 C 0.616 0.91399 0.93822 0.0
C68 C 0.6096 0.86221 0.91148 0.0
C69 C 0.56459 0.86752 0.91144 0.0
N70 N 0.64368 0.89371 0.92759 0.0
N71 N 0.56977 0.9024 0.92764 0.0
H72 H 0.63375 0.94517 0.95064 0.0
H73 H 0.6192 0.84234 0.89862 0.0
C74 C 0.72022 0.85263 0.88932 0.0
O75 O 0.69674 0.86649 0.874 0.0
N76 N 0.79954 0.97369 0.92403 0.0
C77 C 0.82795 0.027 0.92201 0.0
C78 C 0.88142 0.04296 0.9223 0.0
C79 C 0.83595 0.95777 0.92577 0.0
N80 N 0.88646 0.99952 0.92474 0.0
C81 C 0.68914 0.99125 0.89827 0.0
C82 C 0.7627 1.01442 0.86464 0.0
C83 C 0.73695 0.04424 0.86669 0.0
C84 C 0.69637 0.02905 0.88241 0.0
C85 C 0.75332 0.97575 0.88063 0.0
N86 N 0.71837 0.96599 0.89783 0.0
H87 H 0.66544 0.98858 0.91249 0.0
H88 H 0.77896 0.95853 0.88068 0.0
H89 H 0.81078 0.05249 0.92035 0.0
H90 H 0.82574 0.91689 0.92825 0.0
O91 O 0.72675 0.98574 0.94648 0.0
O92 O 0.72788 0.91279 0.95614 0.0
O93 O 0.72623 0.87101 0.90951 0.0
C94 C 0.73053 0.95707 0.96234 0.0
H95 H 0.53366 0.85165 0.89865 0.0
H96 H 0.91404 0.08342 0.92063 0.0
H97 H 0.79547 0.02621 0.85298 0.0
H98 H 0.67698 0.05243 0.88484 0.0
Co99 Co 0.8204 0.72412 0.27517 0.0
C100 C 0.72719 0.61822 0.28329 0.0
C101 C 0.78291 0.61193 0.26191 0.0
C102 C 0.73313 0.56712 0.25922 0.0
N103 N 0.77881 0.64584 0.27611 0.0
N104 N 0.69731 0.57215 0.27199 0.0
H105 H 0.709 0.63557 0.29348 0.0
H106 H 0.81788 0.62063 0.25233 0.0
C107 C 0.89714 0.71843 0.2396 0.0
O108 O 0.85824 0.69299 0.22497 0.0
N109 N 0.85792 0.80074 0.27459 0.0
C110 C 0.83389 0.83033 0.27429 0.0
C111 C 0.87239 0.88279 0.27244 0.0
C112 C 0.9108 0.83552 0.27301 0.0
N113 N 0.92068 0.88604 0.27146 0.0
C114 C 0.73114 0.69789 0.24631 0.0
C115 C 0.7883 0.7663 0.2121 0.0
C116 C 0.73235 0.74161 0.21211 0.0
C117 C 0.70362 0.70504 0.2288 0.0
C118 C 0.81438 0.75768 0.22995 0.0
N119 N 0.7859 0.7237 0.24691 0.0
H120 H 0.70772 0.67662 0.26051 0.0
H121 H 0.85746 0.78181 0.231 0.0
H122 H 0.79108 0.81468 0.2748 0.0
H123 H 0.94112 0.82407 0.27225 0.0
O124 O 0.76951 0.72772 0.29509 0.0
O125 O 0.84199 0.72696 0.30661 0.0
O126 O 0.88633 0.72688 0.2597 0.0
C127 C 0.8 0.73065 0.31175 0.0
H128 H 0.72329 0.53597 0.24699 0.0
H129 H 0.86517 0.91588 0.27177 0.0
H130 H 0.81181 0.79677 0.19993 0.0
H131 H 0.6605 0.68742 0.22985 0.0
Co132 Co 0.08825 0.78459 0.5951 0.0
C133 C 0.11085 0.69677 0.60071 0.0
C134 C 0.13302 0.73069 0.56802 0.0
C135 C 0.12567 0.67995 0.56743 0.0
N136 N 0.1213 0.74082 0.58873 0.0
N137 N 0.11092 0.65838 0.58796 0.0
H138 H 0.09421 0.6885 0.61738 0.0
H139 H 0.13831 0.7544 0.5534 0.0
C140 C 0.14716 0.85761 0.55399 0.0
O141 O 0.11743 0.82012 0.53952 0.0
N142 N 0.05357 0.82493 0.60217 0.0
C143 C 1.00177 0.80372 0.6081 0.0
C144 C 0.99086 0.84399 0.61126 0.0
C145 C 0.07384 0.87788 0.6022 0.0
N146 N 0.03613 0.89059 0.60756 0.0
C147 C 1.00724 0.69474 0.57276 0.0
C148 C 0.96002 0.74809 0.55431 0.0
C149 C 0.92839 0.69403 0.55963 0.0
C150 C 0.95342 0.66639 0.56692 0.0
C151 C 1.01441 0.77489 0.55996 0.0
N152 N 0.03601 0.74893 0.57115 0.0
H153 H 1.02216 0.67353 0.58218 0.0
H154 H 0.03623 0.81774 0.55876 0.0
H155 H 0.97335 0.76162 0.60929 0.0
H156 H 0.11504 0.90633 0.5984 0.0
O157 O 0.04576 0.73628 0.61849 0.0
O158 O 0.12557 0.80699 0.62409 0.0
O159 O 0.14233 0.84736 0.57525 0.0
C160 C 0.08251 0.76716 0.63266 0.0
H161 H 0.12459 0.65831 0.55245 0.0
H162 H 0.952 0.83905 0.61515 0.0
H163 H 0.94183 0.77052 0.54819 0.0
H164 H 0.93034 0.6246 0.57116 0.0
Co165 Co 0.34079 0.10529 0.94147 0.0
C166 C 0.44847 0.12322 0.95191 0.0
C167 C 0.44953 0.16541 0.92251 0.0
C168 C 0.49172 0.15573 0.9216 0.0
N169 N 0.41985 0.14212 0.94091 0.0
N170 N 0.49002 0.12757 0.93981 0.0
H171 H 0.43364 0.09726 0.96626 0.0
H172 H 0.43761 0.18137 0.90887 0.0
C173 C 0.33923 0.17837 0.90261 0.0
O174 O 0.35856 0.15967 0.8875 0.0
N175 N 0.26353 0.06575 0.94231 0.0
C176 C 0.23422 1.01239 0.94386 0.0
C177 C 0.18102 0.99726 0.94294 0.0
C178 C 0.22779 0.08258 0.94055 0.0
N179 N 0.17692 0.04126 0.94073 0.0
C180 C 0.3647 0.0365 0.91667 0.0
C181 C 0.29188 1.01405 0.88246 0.0
C182 C 0.31742 0.98407 0.88464 0.0
C183 C 0.35593 0.99713 0.90129 0.0
C184 C 0.30192 0.05334 0.89828 0.0
N185 N 0.33811 0.06432 0.9152 0.0
H186 H 0.38836 0.0398 0.93114 0.0
H187 H 0.27717 0.07153 0.89803 0.0
H188 H 0.25053 0.98611 0.94513 0.0
H189 H 0.23868 0.12378 0.93862 0.0
O190 O 0.33943 0.0565 0.96396 0.0
O191 O 0.34205 0.13219 0.97166 0.0
O192 O 0.33608 0.16419 0.92337 0.0
C193 C 0.33894 0.0885 0.97906 0.0
H194 H 0.51731 0.16284 0.90724 0.0
H195 H 0.14794 0.95686 0.94389 0.0
H196 H 0.25978 1.0029 0.87036 0.0
H197 H 0.37413 0.97277 0.90408 0.0
Co198 Co 0.73202 0.78313 0.47722 0.0
C199 C 0.63291 0.69182 0.46254 0.0
C200 C 0.61634 0.7496 0.4768 0.0
C201 C 0.56949 0.70063 0.47623 0.0
N202 N 0.65662 0.74391 0.46849 0.0
N203 N 0.58029 0.66417 0.46743 0.0
H204 H 0.65497 0.67222 0.45801 0.0
H205 H 0.6216 0.78472 0.48538 0.0
C206 C 0.75175 0.86782 0.51158 0.0
O207 O 0.77509 0.84704 0.52345 0.0
N208 N 0.80716 0.81771 0.48603 0.0
C209 C 0.8305 0.80056 0.50101 0.0
C210 C 0.88495 0.83354 0.50044 0.0
C211 C 0.84823 0.86096 0.47652 0.0
N212 N 0.89608 0.87122 0.48494 0.0
C213 C 0.71472 0.69391 0.50286 0.0
C214 C 0.66767 0.71095 0.53976 0.0
C215 C 0.68174 0.67119 0.54079 0.0
C216 C 0.70069 0.65989 0.52099 0.0
C217 C 0.68096 0.74325 0.52075 0.0
N218 N 0.7096 0.738 0.50368 0.0
H219 H 0.73317 0.68636 0.48874 0.0
H220 H 0.66944 0.77324 0.52023 0.0
H221 H 0.81032 0.7665 0.51177 0.0
H222 H 0.84326 0.88403 0.46348 0.0
O223 O 0.74613 0.73887 0.45709 0.0
O224 O 0.75206 0.81449 0.44715 0.0
O225 O 0.72711 0.84442 0.49314 0.0
C226 C 0.75645 0.77355 0.4415 0.0
H227 H 0.53169 0.69178 0.48362 0.0
H228 H 0.91419 0.82896 0.51016 0.0
H229 H 0.65003 0.71944 0.55404 0.0
H230 H 0.71068 0.6287 0.51997 0.0
Co231 Co 0.94797 0.70908 0.79488 0.0
C232 C 0.93363 0.60258 0.78752 0.0
C233 C 0.87791 0.59939 0.81177 0.0
C234 C 0.88428 0.55567 0.81445 0.0
N235 N 0.91118 0.63079 0.7956 0.0
N236 N 0.92149 0.55892 0.79983 0.0
H237 H 0.96604 0.61852 0.77563 0.0
H238 H 0.85489 0.60973 0.82268 0.0
C239 C 0.87089 0.70882 0.83236 0.0
O240 O 0.88723 0.68762 0.84768 0.0
N241 N 0.98743 0.78567 0.79388 0.0
C242 C 0.0413 0.81508 0.79336 0.0
C243 C 0.05606 0.86777 0.79409 0.0
C244 C 0.96992 0.82079 0.79483 0.0
N245 N 1.01127 0.87142 0.79501 0.0
C246 C 1.01735 0.68735 0.82117 0.0
C247 C 0.03388 0.75743 0.85555 0.0
C248 C 0.06535 0.73326 0.85433 0.0
C249 C 0.05502 0.69596 0.83758 0.0
C250 C 0.99599 0.74723 0.8388 0.0
N251 N 0.98786 0.71233 0.82181 0.0
H252 H 1.01723 0.66548 0.8067 0.0
H253 H 0.97677 0.77096 0.83845 0.0
H254 H 0.0681 0.79915 0.79322 0.0
H255 H 0.92809 0.80962 0.79553 0.0
O256 O 0.99813 0.71037 0.77285 0.0
O257 O 0.92166 0.70704 0.76461 0.0
O258 O 0.88772 0.71366 0.81197 0.0
C259 C 0.96571 0.70985 0.75753 0.0
H260 H 0.86685 0.52688 0.8278 0.0
H261 H 0.09676 0.90076 0.79475 0.0
H262 H 0.04289 0.78861 0.86771 0.0
H263 H 0.08067 0.67889 0.83552 0.0
Co264 Co 0.26026 0.93893 0.13919 0.0
C265 C 0.34698 0.9184 0.12683 0.0
C266 C 0.30133 0.86824 0.15383 0.0
C267 C 0.35125 0.87254 0.15378 0.0
N268 N 0.29932 0.89946 0.13762 0.0
N269 N 0.38123 0.90651 0.13743 0.0
H270 H 0.36072 0.94904 0.11427 0.0
H271 H 0.27174 0.84893 0.16669 0.0
C272 C 0.1859 0.86374 0.17714 0.0
O273 O 0.22525 0.88013 0.19176 0.0
N274 N 0.2251 0.98043 0.14005 0.0
C275 C 0.25059 0.0339 0.1414 0.0
C276 C 0.21356 0.05007 0.13941 0.0
C277 C 0.173 0.96465 0.13689 0.0
N278 N 0.16484 1.0066 0.13653 0.0
C279 C 0.35497 1.00048 0.16521 0.0
C280 C 0.30773 0.02961 0.19807 0.0
C281 C 0.36338 0.0588 0.19527 0.0
C282 C 0.38721 0.04072 0.18008 0.0
C283 C 0.27671 0.98827 0.18316 0.0
N284 N 0.30031 0.97568 0.16621 0.0
H285 H 0.3749 0.99556 0.15114 0.0
H286 H 0.23372 0.97111 0.18358 0.0
H287 H 0.29348 0.05944 0.14315 0.0
H288 H 0.14212 0.92361 0.13449 0.0
O289 O 0.30837 0.98963 0.11728 0.0
O290 O 0.23297 0.91592 0.10885 0.0
O291 O 0.1958 0.87953 0.15656 0.0
C292 C 0.2746 0.95952 0.10191 0.0
H293 H 0.36595 0.85661 0.16657 0.0
H294 H 0.22223 0.09085 0.13912 0.0
H295 H 0.28791 0.04345 0.20937 0.0
H296 H 0.43 0.06337 0.17711 0.0
Co297 Co 0.31223 0.21573 0.44823 0.0
C298 C 0.41911 0.31378 0.45042 0.0
C299 C 0.40214 0.27071 0.48114 0.0
C300 C 0.44285 0.32224 0.48492 0.0
N301 N 0.38522 0.2654 0.45961 0.0
N302 N 0.45289 0.34952 0.46563 0.0
H303 H 0.41446 0.32561 0.43378 0.0
H304 H 0.38329 0.24148 0.49403 0.0
C305 C 0.29306 0.14056 0.48872 0.0
O306 O 0.29392 0.17597 0.50266 0.0
N307 N 0.2407 0.16928 0.43609 0.0
C308 C 0.21086 0.18567 0.42479 0.0
C309 C 0.16045 0.1432 0.4214 0.0
C310 C 0.20773 0.11673 0.43928 0.0
N311 N 0.15836 0.1001 0.43076 0.0
C312 C 0.30168 0.29459 0.47138 0.0
C313 C 0.19724 0.2273 0.48405 0.0
C314 C 0.21599 0.28178 0.48194 0.0
C315 C 0.26972 0.31595 0.47703 0.0
C316 C 0.23085 0.20756 0.47853 0.0
N317 N 0.28133 0.24079 0.47068 0.0
H318 H 0.34041 0.32163 0.46468 0.0
H319 H 0.21406 0.16503 0.47825 0.0
H320 H 0.22331 0.22642 0.42067 0.0
H321 H 0.21805 0.0918 0.44896 0.0
O322 O 0.32056 0.26705 0.42618 0.0
O323 O 0.341 0.2044 0.4201 0.0
O324 O 0.30425 0.15253 0.46774 0.0
C325 C 0.33524 0.24316 0.41201 0.0
H326 H 0.46061 0.33941 0.50104 0.0
H327 H 0.12657 0.1449 0.41447 0.0
H328 H 0.15608 0.19988 0.48862 0.0
H329 H 0.28565 0.35839 0.47551 0.0
Co330 Co 0.1172 0.32294 0.8035 0.0
C331 C 0.13915 0.42941 0.78998 0.0
C332 C 0.17886 0.43297 0.82076 0.0
C333 C 0.17106 0.47611 0.81971 0.0
N334 N 0.15599 0.40143 0.80266 0.0
N335 N 0.14456 0.47297 0.80059 0.0
H336 H 0.11397 0.41357 0.7753 0.0
H337 H 0.19231 0.42173 0.83551 0.0
C338 C 0.19369 0.32315 0.84135 0.0
O339 O 0.17664 0.34413 0.85641 0.0
N340 N 0.07615 0.24634 0.80383 0.0
C341 C 1.02224 0.21755 0.80447 0.0
C342 C 1.00671 0.16469 0.80326 0.0
C343 C 0.09287 0.21076 0.80195 0.0
N344 N 0.05104 0.16036 0.80169 0.0
C345 C 0.05404 0.35293 0.82916 0.0
C346 C 1.02621 0.27734 0.86209 0.0
C347 C 0.99608 0.30262 0.85917 0.0
C348 C 1.01302 0.34373 0.84375 0.0
C349 C 0.06768 0.28826 0.84723 0.0
N350 N 0.07994 0.32441 0.83042 0.0
H351 H 0.05943 0.37797 0.81507 0.0
H352 H 0.08536 0.2631 0.84764 0.0
H353 H 0.99598 0.23406 0.8055 0.0
H354 H 0.13453 0.22157 0.80069 0.0
O355 O 0.06547 0.32019 0.78187 0.0
O356 O 0.13979 0.32009 0.77294 0.0
O357 O 0.17785 0.31865 0.82072 0.0
C358 C 0.09524 0.31723 0.76628 0.0
H359 H 0.17793 0.50351 0.83334 0.0
H360 H 0.96579 0.13209 0.80287 0.0
H361 H 1.01289 0.24405 0.87346 0.0
H362 H 0.98941 0.36267 0.84061 0.0
Co363 Co 0.81621 0.11145 0.12122 0.0
C364 C 0.72464 0.12727 0.1125 0.0
C365 C 0.76722 0.16919 0.14193 0.0
C366 C 0.71511 0.15889 0.14338 0.0
N367 N 0.77291 0.14662 0.1231 0.0
N368 N 0.68782 0.131 0.12512 0.0
H369 H 0.71288 0.10168 0.09794 0.0
H370 H 0.79582 0.1851 0.15542 0.0
C371 C 0.89403 0.18592 0.15921 0.0
O372 O 0.85735 0.16645 0.17489 0.0
N373 N 0.85501 0.07344 0.1191 0.0
C374 C 0.83128 0.02016 0.11717 0.0
C375 C 0.86975 1.00581 0.11823 0.0
C376 C 0.90784 0.09099 0.12122 0.0
N377 N 0.91784 0.05022 0.12081 0.0
C378 C 0.72618 0.04099 0.14715 0.0
C379 C 0.7816 0.01947 0.17927 0.0
C380 C 0.72588 0.98764 0.17773 0.0
C381 C 0.69781 0.99994 0.16215 0.0
C382 C 0.80856 0.06006 0.16379 0.0
N383 N 0.78091 0.07033 0.14781 0.0
H384 H 0.70393 0.04451 0.13346 0.0
H385 H 0.85175 0.07972 0.1634 0.0
H386 H 0.78851 0.99326 0.11615 0.0
H387 H 0.93802 0.13229 0.12347 0.0
O388 O 0.76681 0.0617 0.09929 0.0
O389 O 0.83876 0.13818 0.09085 0.0
O390 O 0.88116 0.17155 0.13853 0.0
C391 C 0.79781 0.09375 0.08389 0.0
H392 H 0.69714 0.16548 0.15805 0.0
H393 H 0.86244 0.96548 0.11824 0.0
H394 H 0.80447 1.00906 0.19055 0.0
H395 H 0.65498 0.97431 0.15989 0.0
H396 H 0.62042 0.56447 0.30064 0.0
H397 H 0.64432 0.52803 0.2329 0.0
H398 H 0.55167 0.49982 0.22365 0.0
H399 H 0.46364 0.48758 0.23414 0.0
H400 H 0.43695 0.51994 0.30185 0.0
H401 H 0.53065 0.5489 0.31159 0.0
C402 C 0.60533 0.55007 0.28389 0.0
C403 C 0.64007 0.54837 0.26762 0.0
C404 C 0.5515 0.53423 0.27849 0.0
C405 C 0.61909 0.5291 0.24602 0.0
C406 C 0.56595 0.51353 0.24056 0.0
C407 C 0.47869 0.50187 0.25091 0.0
C408 C 0.44385 0.50312 0.26712 0.0
C409 C 0.53197 0.51659 0.25652 0.0
C410 C 0.46336 0.51979 0.28902 0.0
C411 C 0.51676 0.53587 0.29458 0.0
H412 H 1.01346 0.59033 0.57108 0.0
H413 H 0.13535 0.60129 0.61623 0.0
H414 H 0.07869 0.50692 0.62596 0.0
H415 H 0.99536 0.42206 0.62116 0.0
H416 H 0.86984 0.41325 0.57818 0.0
H417 H 0.92669 0.50644 0.56851 0.0
C418 C 0.0275 0.57186 0.58301 0.0
C419 C 0.07886 0.60228 0.59268 0.0
C420 C 0.99387 0.51823 0.58906 0.0
C421 C 0.09637 0.57829 0.60837 0.0
C422 C 0.06379 0.52454 0.61399 0.0
C423 C 0.97942 0.43987 0.60989 0.0
C424 C 0.9277 0.40887 0.6002 0.0
C425 C 1.01234 0.49408 0.60446 0.0
C426 C 0.90932 0.43469 0.58567 0.0
C427 C 0.94198 0.48838 0.58008 0.0
H428 H 0.48806 0.06295 0.90681 0.0
H429 H 0.53154 0.10486 0.97609 0.0
H430 H 0.55719 0.03612 0.97915 0.0
H431 H 0.56743 0.96393 0.96184 0.0
H432 H 0.52149 0.92219 0.89244 0.0
H433 H 0.49522 0.98935 0.89002 0.0
C434 C 0.50407 0.05767 0.92247 0.0
C435 C 0.50934 0.09012 0.94107 0.0
C436 C 0.51723 0.01708 0.92422 0.0
C437 C 0.52813 0.08119 0.96146 0.0
C438 C 0.54239 0.0416 0.96322 0.0
C439 C 0.55151 0.96926 0.94618 0.0
C440 C 0.54674 0.93718 0.92739 0.0
C441 C 0.53704 1.00913 0.94469 0.0
C442 C 0.5252 0.9449 0.90739 0.0
C443 C 0.51068 0.98414 0.90584 0.0
H444 H 0.58269 0.59216 0.43936 0.0
H445 H 0.50835 0.60587 0.49965 0.0
H446 H 0.46374 0.50963 0.50489 0.0
H447 H 0.44757 0.42104 0.49295 0.0
H448 H 0.51869 0.40654 0.43194 0.0
H449 H 0.56326 0.50314 0.42648 0.0
C450 C 0.55643 0.57401 0.45357 0.0
C451 C 0.54891 0.60659 0.46903 0.0
C452 C 0.53089 0.51836 0.45651 0.0
C453 C 0.51439 0.58212 0.48727 0.0
C454 C 0.48926 0.52695 0.49042 0.0
C455 C 0.47337 0.43922 0.47862 0.0
C456 C 0.4808 0.40678 0.46308 0.0
C457 C 0.49766 0.49468 0.47531 0.0
C458 C 0.51295 0.43072 0.44422 0.0
C459 C 0.53822 0.4859 0.44108 0.0
H460 H 0.98702 0.55195 0.7687 0.0
H461 H 0.93723 0.51601 0.83778 0.0
H462 H 1.00342 0.48911 0.8442 0.0
H463 H 0.07781 0.47773 0.83089 0.0
H464 H 0.12743 0.51108 0.762 0.0
H465 H 0.06043 0.53823 0.75503 0.0
C466 C 0.99042 0.53815 0.78517 0.0
C467 C 0.95632 0.53624 0.80263 0.0
C468 C 0.02964 0.52322 0.78897 0.0
C469 C 0.96157 0.51743 0.82377 0.0
C470 C 1.00021 0.50255 0.82761 0.0
C471 C 0.07465 0.49194 0.81446 0.0
C472 C 0.1087 0.49383 0.79711 0.0
C473 C 0.03497 0.50595 0.81047 0.0
C474 C 0.1025 0.51031 0.7757 0.0
C475 C 0.06388 0.52541 0.77171 0.0
H476 H 0.44511 0.96769 0.10325 0.0
H477 H 0.45034 0.92511 0.17228 0.0
H478 H 0.54451 0.99193 0.17462 0.0
H479 H 0.62559 0.06572 0.15793 0.0
H480 H 0.62257 0.10891 0.08913 0.0
H481 H 0.52757 0.04009 0.08608 0.0
C482 C 0.46668 0.97278 0.11883 0.0
C483 C 0.43942 0.94065 0.13754 0.0
C484 C 0.52139 1.01255 0.12031 0.0
C485 C 0.46922 0.94795 0.1574 0.0
C486 C 0.52341 0.98699 0.15891 0.0
C487 C 0.60384 0.06072 0.1424 0.0
C488 C 0.63075 0.09352 0.12393 0.0
C489 C 0.54969 0.02018 0.14065 0.0
C490 C 0.60248 0.08495 0.10366 0.0
C491 C 0.5483 0.04532 0.10191 0.0
H492 H 0.29386 0.29891 0.39366 0.0
H493 H 0.37508 0.21361 0.37561 0.0
H494 H 0.36814 0.23158 0.33567 0.0
H495 H 0.3356 0.26966 0.30591 0.0
H496 H 0.24703 0.34653 0.32564 0.0
H497 H 0.26005 0.33344 0.36507 0.0
C498 C 0.31065 0.2844 0.38113 0.0
C499 C 0.33558 0.25535 0.38773 0.0
C500 C 0.3047 0.29314 0.35847 0.0
C501 C 0.35609 0.23636 0.37105 0.0
C502 C 0.3519 0.24653 0.34823 0.0
C503 C 0.31943 0.28365 0.31891 0.0
C504 C 0.2905 0.30927 0.31289 0.0
C505 C 0.32582 0.27457 0.34173 0.0
C506 C 0.26916 0.3266 0.32983 0.0
C507 C 0.27674 0.31925 0.35238 0.0
H508 H 0.05652 0.30494 0.66104 0.0
H509 H 0.89197 0.22345 0.68261 0.0
H510 H 0.92128 0.23761 0.72192 0.0
H511 H 0.99372 0.27203 0.75018 0.0
H512 H 0.15815 0.3462 0.72876 0.0
H513 H 0.12911 0.33593 0.68942 0.0
C514 C 0.02714 0.29069 0.67439 0.0
C515 C 0.97209 0.26378 0.66895 0.0
C516 C 0.04437 0.29743 0.69695 0.0
C517 C 0.93448 0.24446 0.68637 0.0
C518 C 0.95127 0.25253 0.70884 0.0
C519 C 1.02322 0.28611 0.73689 0.0
C520 C 0.0781 0.31027 0.74238 0.0
C521 C 1.00608 0.27878 0.71433 0.0
C522 C 0.11574 0.32748 0.72498 0.0
C523 C 0.09911 0.32172 0.70249 0.0
H524 H 0.74687 0.99372 0.06732 0.0
H525 H 0.82864 0.15775 0.04671 0.0
H526 H 0.81292 0.12986 1.00718 0.0
H527 H 0.77664 0.0583 0.97848 0.0
H528 H 0.70197 0.89476 0.99956 0.0
H529 H 0.71409 0.92284 0.0389 0.0
C530 C 0.76096 0.02341 0.05417 0.0
C531 C 0.78836 0.07777 0.05991 0.0
C532 C 0.75312 1.00704 1.03158 0.0
C533 C 0.80733 0.11572 0.0427 0.0
C534 C 0.7983 0.09973 1.02012 0.0
C535 C 0.76284 0.02887 0.99172 0.0
C536 C 0.73804 0.97445 0.98613 0.0
C537 C 0.77132 0.04546 1.01435 0.0
C538 C 0.72115 0.9368 1.00343 0.0
C539 C 0.72801 0.95286 1.02592 0.0
H540 H 0.7326 0.80089 0.40099 0.0
H541 H 0.81526 0.72731 0.4311 0.0
H542 H 0.83839 0.70911 0.39395 0.0
H543 H 0.83287 0.71164 0.35245 0.0
H544 H 0.74298 0.77822 0.32269 0.0
H545 H 0.72495 0.80119 0.35972 0.0
C546 C 0.75611 0.78137 0.39936 0.0
C547 C 0.77258 0.76591 0.41877 0.0
C548 C 0.76764 0.76925 0.37786 0.0
C549 C 0.80216 0.73969 0.4164 0.0
C550 C 0.81537 0.72919 0.39514 0.0
C551 C 0.8094 0.73119 0.35412 0.0
C552 C 0.7893 0.74304 0.33476 0.0
C553 C 0.79793 0.74331 0.37568 0.0
C554 C 0.75863 0.76814 0.33727 0.0
C555 C 0.74842 0.78158 0.35849 0.0
H556 H 0.98555 0.71584 0.65204 0.0
H557 H 0.15412 0.8026 0.66816 0.0
H558 H 0.13274 0.7901 0.70841 0.0
H559 H 0.06528 0.75558 0.73895 0.0
H560 H 0.89714 0.67558 0.72191 0.0
H561 H 0.91914 0.68422 0.68199 0.0
C562 C 1.0178 0.73169 0.66432 0.0
C563 C 0.07148 0.75954 0.65711 0.0
C564 C 1.00511 0.72561 0.68725 0.0
C565 C 0.11257 0.7808 0.67328 0.0
C566 C 0.10027 0.77363 0.69626 0.0
C567 C 0.03352 0.73976 0.72646 0.0
C568 C 0.97953 0.71451 0.73338 0.0
C569 C 0.04661 0.74623 0.70345 0.0
C570 C 0.93887 0.69506 0.71704 0.0
C571 C 0.95146 0.69998 0.69422 0.0
H572 H 0.28985 0.98924 0.99644 0.0
H573 H 0.37204 0.1545 1.01577 0.0
H574 H 0.36126 0.12915 0.0555 0.0
H575 H 0.32791 0.05956 0.08477 0.0
H576 H 0.23887 0.89454 0.06517 0.0
H577 H 0.25278 0.92003 1.02555 0.0
C578 C 0.30562 0.01973 1.00936 0.0
C579 C 0.33227 0.07376 1.00317 0.0
C580 C 0.29792 1.00477 0.03212 0.0
C581 C 0.35152 0.11273 1.0201 0.0
C582 C 0.3454 0.09819 0.0428 0.0
C583 C 0.31176 0.02922 0.0718 0.0
C584 C 0.28281 0.97514 0.0779 0.0
C585 C 0.31866 0.04431 0.04902 0.0
C586 C 0.2613 0.93633 0.06093 0.0
C587 C 0.26933 0.95093 0.03827 0.0
H588 H 0.15608 0.07656 0.26661 0.0
H589 H 0.07491 0.15118 0.23582 0.0
H590 H 0.98903 0.06896 0.23971 0.0
H591 H 0.93775 0.97656 0.25186 0.0
H592 H 1.01856 0.90245 0.28358 0.0
H593 H 0.10459 0.98368 0.27865 0.0
C594 C 0.11968 0.07461 0.26052 0.0
C595 C 0.1217 0.11973 0.25092 0.0
C596 C 0.07068 0.02743 0.26288 0.0
C597 C 0.07414 0.11705 0.24348 0.0
C598 C 1.02519 0.07006 0.2456 0.0
C599 C 0.97398 0.97823 0.25798 0.0
C600 C 0.97156 0.93353 0.26826 0.0
C601 C 1.02304 0.02517 0.25539 0.0
C602 C 1.01926 0.93608 0.27548 0.0
C603 C 0.06842 0.98262 0.27278 0.0
H604 H 0.07343 0.11942 0.59211 0.0
H605 H 0.93897 0.06067 0.63708 0.0
H606 H 0.93876 0.97686 0.64083 0.0
H607 H 0.97581 0.92037 0.63077 0.0
H608 H 0.10782 0.97756 0.58443 0.0
H609 H 0.11149 0.06314 0.58247 0.0
C610 C 0.04455 0.08851 0.60294 0.0
C611 C 1.00626 0.09604 0.6143 0.0
C612 C 0.04457 0.04056 0.60491 0.0
C613 C 0.96838 0.05539 0.62797 0.0
C614 C 0.96848 1.00771 0.63022 0.0
C615 C 1.00517 0.95134 0.62011 0.0
C616 C 0.04117 0.94235 0.60765 0.0
C617 C 1.00612 0.99979 0.61861 0.0
C618 C 0.07992 0.9835 0.59438 0.0
C619 C 0.08175 0.0323 0.59309 0.0
H620 H 0.08319 0.96394 0.92401 0.0
H621 H 0.16047 0.12219 0.9522 0.0
H622 H 0.07641 0.12319 0.94955 0.0
H623 H 0.98072 0.07788 0.94043 0.0
H624 H 0.90335 0.91943 0.91246 0.0
H625 H 0.98775 0.91892 0.9146 0.0
C626 C 0.08163 0.99846 0.92982 0.0
C627 C 0.128 0.04276 0.93849 0.0
C628 C 0.03316 0.99845 0.92851 0.0
C629 C 0.12551 0.08774 0.94534 0.0
C630 C 0.07739 0.08817 0.94396 0.0
C631 C 0.98239 0.04344 0.93457 0.0
C632 C 0.93585 0.99878 0.92626 0.0
C633 C 0.03097 0.04362 0.9357 0.0
C634 C 0.93845 0.95402 0.91917 0.0
C635 C 0.98674 0.95387 0.92025 0.0
H636 H 0.92444 0.91371 0.44374 0.0
H637 H 0.98608 0.91849 0.51031 0.0
H638 H 0.07551 0.98608 0.49846 0.0
H639 H 0.13464 0.04794 0.46988 0.0
H640 H 0.07262 0.04621 0.40379 0.0
H641 H 0.98457 0.97307 0.41467 0.0
C642 C 0.95732 0.9299 0.45568 0.0
C643 C 0.94854 0.91146 0.4779 0.0
C644 C 1.00849 0.96901 0.4488 0.0
C645 C 0.99186 0.93188 0.49308 0.0
C646 C 0.04297 0.97059 0.48634 0.0
C647 C 0.10218 0.03061 0.45773 0.0
C648 C 0.10986 0.05199 0.43604 0.0
C649 C 0.05161 0.98974 0.4643 0.0
C650 C 0.06726 0.03011 0.42057 0.0
C651 C 1.01705 0.98863 0.42682 0.0
H652 H 0.08469 0.96818 0.78034 0.0
H653 H 0.93352 0.88356 0.81483 0.0
H654 H 0.93299 0.96663 0.82022 0.0
H655 H 0.97682 0.0633 0.81604 0.0
H656 H 0.12815 0.14773 0.78163 0.0
H657 H 0.12839 0.06464 0.77614 0.0
C658 C 0.05181 0.96789 0.7892 0.0
C659 C 1.00932 0.91972 0.79722 0.0
C660 C 0.05219 0.01576 0.79251 0.0
C661 C 0.96642 0.91992 0.80824 0.0
C662 C 0.96633 0.96748 0.8115 0.0
C663 C 1.00963 0.06355 0.80714 0.0
C664 C 0.05231 0.11174 0.79918 0.0
C665 C 1.00915 0.0156 0.80379 0.0
C666 C 0.09511 0.1114 0.78815 0.0
C667 C 0.09505 0.06383 0.78483 0.0
H668 H 0.94465 0.97937 0.10613 0.0
H669 H 1.00385 0.12473 0.1442 0.0
H670 H 0.08618 0.12355 0.15271 0.0
H671 H 0.13956 0.07937 0.15037 0.0
H672 H 0.07942 0.93343 0.11265 0.0
H673 H 0.99777 0.93538 0.10379 0.0
C674 C 0.97534 1.01062 0.11643 0.0
C675 C 0.96796 0.05192 0.12458 0.0
C676 C 1.02189 1.00909 0.12161 0.0
C677 C 1.00872 0.09279 0.13748 0.0
C678 C 0.05557 0.09186 0.14254 0.0
C679 C 0.10881 0.04822 0.14006 0.0
C680 C 0.11565 1.00637 0.13215 0.0
C681 C 0.06233 0.04996 0.13482 0.0
C682 C 0.07491 0.96571 0.11919 0.0
C683 C 0.02844 0.96707 0.11394 0.0
H684 H 0.93685 0.20894 0.20192 0.0
H685 H 0.98338 0.23856 0.13238 0.0
H686 H 0.07778 0.28844 0.1437 0.0
H687 H 0.14811 0.32154 0.17333 0.0
H688 H 0.10115 0.28862 0.24274 0.0
H689 H 1.00683 0.24276 0.23147 0.0
C690 C 0.96743 0.2267 0.18914 0.0
C691 C 0.95211 0.2199 0.16617 0.0
C692 C 1.02213 0.25491 0.1958 0.0
C693 C 0.99316 0.243 0.15011 0.0
C694 C 0.04748 0.27158 0.15661 0.0
C695 C 0.11738 0.30493 0.18609 0.0
C696 C 0.13261 0.30938 0.20903 0.0
C697 C 0.06261 0.27759 0.17941 0.0
C698 C 0.09145 0.28652 0.22506 0.0
C699 C 0.03716 0.26001 0.21858 0.0
H700 H 0.81088 0.10759 0.53024 0.0
H701 H 0.83603 0.06569 0.59685 0.0
H702 H 0.80376 0.9746 0.58438 0.0
H703 H 0.77413 0.9077 0.55419 0.0
H704 H 0.7469 0.94711 0.48757 0.0
H705 H 0.77305 0.03735 0.50049 0.0
C706 C 0.80872 0.0785 0.54219 0.0
C707 C 0.8268 0.0946 0.56461 0.0
C708 C 0.78959 0.02532 0.53484 0.0
C709 C 0.82317 0.05551 0.57958 0.0
C710 C 0.80458 1.00303 0.57241 0.0
C711 C 0.77312 0.93566 0.54245 0.0
C712 C 0.75843 0.92001 0.51977 0.0
C713 C 0.78857 0.98764 0.55002 0.0
C714 C 0.75738 0.9573 0.50506 0.0
C715 C 0.77287 1.00926 0.51247 0.0
H716 H 0.84628 0.72584 0.87519 0.0
H717 H 0.82029 0.74789 0.80564 0.0
H718 H 0.77005 0.79136 0.81697 0.0
H719 H 0.7353 0.82589 0.8466 0.0
H720 H 0.76491 0.80759 0.91613 0.0
H721 H 0.81128 0.76016 0.90484 0.0
C722 C 0.82923 0.73958 0.86242 0.0
C723 C 0.8371 0.73274 0.83943 0.0
C724 C 0.80084 0.76558 0.86911 0.0
C725 C 0.81501 0.75194 0.82337 0.0
C726 C 0.78619 0.77704 0.82989 0.0
C727 C 0.7513 0.81109 0.85938 0.0
C728 C 0.74569 0.82026 0.88236 0.0
C729 C 0.77901 0.78441 0.85271 0.0
C730 C 0.76787 0.80117 0.89842 0.0
C731 C 0.79467 0.774 0.89192 0.0
H732 H 0.1492 0.843 0.22071 0.0
H733 H 0.09285 0.81118 0.15216 0.0
H734 H 1.00019 0.76188 0.16532 0.0
H735 H 0.93425 0.7298 0.19626 0.0
H736 H 0.99033 0.76551 0.26476 0.0
H737 H 0.08317 0.81078 0.25168 0.0
C738 C 0.11681 0.82489 0.20855 0.0
C739 C 0.12885 0.83079 0.18529 0.0
C740 C 0.06307 0.79719 0.2163 0.0
C741 C 0.08558 0.80741 0.17006 0.0
C742 C 0.03227 0.77914 0.17763 0.0
C743 C 0.96663 0.74691 0.20844 0.0
C744 C 0.95447 0.74338 0.23166 0.0
C745 C 1.02038 0.77397 0.20071 0.0
C746 C 0.99772 0.76694 0.2469 0.0
C747 C 0.05111 0.79307 0.23937 0.0
H748 H 0.17603 0.89177 0.51028 0.0
H749 H 0.19752 0.9514 0.57812 0.0
H750 H 0.24499 0.04252 0.56411 0.0
H751 H 0.27695 0.10617 0.53253 0.0
H752 H 0.26089 0.04737 0.46478 0.0
H753 H 0.21562 0.95602 0.4788 0.0
C754 C 0.19149 0.92457 0.52211 0.0
C755 C 0.18215 0.91376 0.54542 0.0
C756 C 0.21986 0.97757 0.51388 0.0
C757 C 0.20327 0.95755 0.56021 0.0
C758 C 0.2306 1.01006 0.55215 0.0
C759 C 0.26415 0.07356 0.52072 0.0
C760 C 0.27211 0.08457 0.49739 0.0
C761 C 0.23861 0.02069 0.529 0.0
C762 C 0.25528 0.04102 0.48268 0.0
C763 C 0.22917 0.9884 0.49076 0.0
H764 H 0.32358 0.20129 0.85924 0.0
H765 H 0.29847 0.22935 0.92806 0.0
H766 H 0.25418 0.27789 0.91532 0.0
H767 H 0.21949 0.31019 0.88466 0.0
H768 H 0.24158 0.27917 0.81585 0.0
H769 H 0.28991 0.2346 0.82857 0.0
C770 C 0.30898 0.2184 0.87156 0.0
C771 C 0.31514 0.21152 0.89478 0.0
C772 C 0.28263 0.24588 0.86405 0.0
C773 C 0.29497 0.23382 0.9102 0.0
C774 C 0.26937 0.26165 0.90287 0.0
C775 C 0.23526 0.29423 0.87233 0.0
C776 C 0.22679 0.29884 0.84913 0.0
C777 C 0.26257 0.26769 0.87983 0.0
C778 C 0.24735 0.27692 0.8337 0.0
C779 C 0.27503 0.25114 0.84102 0.0
H780 H 0.40337 0.2765 0.22735 0.0
H781 H 0.39769 0.29434 0.15575 0.0
H782 H 0.41067 0.21803 0.14978 0.0
H783 H 0.39983 0.13561 0.16503 0.0
H784 H 0.38393 0.10787 0.23635 0.0
H785 H 0.40409 0.19949 0.24273 0.0
C786 C 0.40745 0.26506 0.21044 0.0
C787 C 0.4001 0.29076 0.19193 0.0
C788 C 0.40987 0.2188 0.20731 0.0
C789 C 0.40385 0.27513 0.1701 0.0
C790 C 0.41059 0.2313 0.16679 0.0
C791 C 0.40311 0.15051 0.18202 0.0
C792 C 0.39099 0.11584 0.2003 0.0
C793 C 0.41022 0.20113 0.18527 0.0
C794 C 0.39364 0.13444 0.2222 0.0
C795 C 0.40469 0.18645 0.22574 0.0
H796 H 1.01638 0.30171 0.49824 0.0
H797 H 0.12427 0.41201 0.54774 0.0
H798 H 0.20044 0.41843 0.52783 0.0
H799 H 0.23045 0.36686 0.50592 0.0
H800 H 0.11963 0.24362 0.46118 0.0
H801 H 0.05062 0.26604 0.46994 0.0
C802 C 0.05687 0.32881 0.50405 0.0
C803 C 0.06461 0.35335 0.52509 0.0
C804 C 0.09978 0.32728 0.49407 0.0
C805 C 0.11694 0.3909 0.53196 0.0
C806 C 0.16067 0.39371 0.52084 0.0
C807 C 0.19167 0.34611 0.49763 0.0
C808 C 0.17893 0.30239 0.48374 0.0
C809 C 0.15176 0.35775 0.50344 0.0
C810 C 0.12913 0.2761 0.47269 0.0
C811 C 0.08999 0.28923 0.4775 0.0
H812 H 0.91827 0.25347 0.8294 0.0
H813 H 0.94838 0.28112 0.90042 0.0
H814 H 0.85768 0.20808 0.90827 0.0
H815 H 0.78184 0.12532 0.89502 0.0
H816 H 0.76248 0.08682 0.82447 0.0
H817 H 0.83654 0.17609 0.8159 0.0
C818 C 0.9039 0.24475 0.84656 0.0
C819 C 0.93898 0.27227 0.86441 0.0
C820 C 0.85408 0.20036 0.8508 0.0
C821 C 0.92134 0.26036 0.88658 0.0
C822 C 0.86991 0.21849 0.89097 0.0
C823 C 0.79241 0.13745 0.8777 0.0
C824 C 0.76701 0.10035 0.86028 0.0
C825 C 0.83745 0.18649 0.87324 0.0
C826 C 0.78154 0.11533 0.83796 0.0
C827 C 0.82404 0.16596 0.83318 0.0
H828 H 0.68778 0.79181 0.23157 0.0
H829 H 0.7255 0.75301 0.16687 0.0
H830 H 0.71092 0.82103 0.1493 0.0
H831 H 0.70963 0.90384 0.15427 0.0
H832 H 0.6914 0.95307 0.22026 0.0
H833 H 0.67492 0.86801 0.23577 0.0
C834 C 0.6905 0.79685 0.21348 0.0
C835 C 0.70733 0.76783 0.20034 0.0
C836 C 0.68648 0.83853 0.20402 0.0
C837 C 0.71221 0.77504 0.17708 0.0
C838 C 0.70441 0.81412 0.16718 0.0
C839 C 0.70002 0.89473 0.17189 0.0
C840 C 0.70134 0.93356 0.18629 0.0
C841 C 0.69479 0.84801 0.18072 0.0
C842 C 0.69011 0.92298 0.2091 0.0
C843 C 0.68115 0.87476 0.21787 0.0
H844 H 0.67935 0.57718 0.55233 0.0
H845 H 0.71078 0.72475 0.58186 0.0
H846 H 0.79922 0.74344 0.59358 0.0
H847 H 0.8765 0.73501 0.58188 0.0
H848 H 0.85013 0.59624 0.54486 0.0
H849 H 0.75298 0.55874 0.54768 0.0
C850 C 0.70522 0.6127 0.562 0.0
C851 C 0.69305 0.65394 0.56276 0.0
C852 C 0.75888 0.6267 0.56538 0.0
C853 C 0.72202 0.69507 0.5784 0.0
C854 C 0.77356 0.70678 0.5846 0.0
C855 C 0.84941 0.69655 0.57443 0.0
C856 C 0.86994 0.66949 0.56216 0.0
C857 C 0.79416 0.67607 0.57566 0.0
C858 C 0.8348 0.61844 0.55367 0.0
C859 C 0.77944 0.59679 0.55552 0.0
H860 H 0.25908 0.89769 0.90846 0.0
H861 H 0.31212 0.95173 0.84116 0.0
H862 H 0.24316 0.86556 0.82616 0.0
H863 H 0.15603 0.78689 0.83208 0.0
H864 H 0.09213 0.74381 0.89886 0.0
H865 H 0.17763 0.81294 0.91466 0.0
C866 C 0.25668 0.88946 0.89058 0.0
C867 C 0.29005 0.92997 0.87576 0.0
C868 C 0.21444 0.84217 0.88221 0.0
C869 C 0.28663 0.9204 0.85264 0.0
C870 C 0.24707 0.87154 0.84418 0.0
C871 C 0.16186 0.79138 0.85014 0.0
C872 C 0.11874 0.76081 0.86447 0.0
C873 C 0.2089 0.83369 0.85875 0.0
C874 C 0.1254 0.76711 0.88775 0.0
C875 C 0.1739 0.80676 0.89665 0.0
loop_
_geom_bond_atom_site_label_1
_geom_bond_atom_site_label_2
_geom_bond_distance
_geom_bond_site_symmetry_2
_ccdc_geom_bond_type
Co0 N4 2.148 . S
Co0 N10 2.128 . S
Co0 N20 2.194 . S
Co0 O25 2.351 . S
Co0 O26 2.155 . S
Co0 O27 2.096 . S
C1 N4 1.301 . S
C1 N5 1.328 . S
C1 H6 0.930 . S
C2 C3 1.333 . S
C2 N4 1.317 . S
C2 H7 0.930 . S
C3 C2 1.333 . S
C3 N5 1.350 . S
C3 H29 0.931 . S
N4 Co0 2.148 . S
N4 C1 1.301 . S
N4 C2 1.317 . S
N5 C1 1.328 . S
N5 C3 1.350 . S
H6 C1 0.930 . S
H7 C2 0.930 . S
C8 O9 1.224 . S
C8 O27 1.247 . S
O9 C8 1.224 . S
N10 Co0 2.128 . S
N10 C11 1.355 . S
N10 C13 1.311 . S
C11 N10 1.355 . S
C11 C12 1.363 . S
C11 H23 0.929 . S
C12 C11 1.363 . S
C12 N14 1.375 . S
C12 H30 0.931 . S
C13 N10 1.311 . S
C13 N14 1.347 . S
C13 H24 0.929 . S
N14 C12 1.375 . S
N14 C13 1.347 . S
C15 C18 1.365 . S
C15 N20 1.328 . S
C15 H21 0.929 . S
C16 C17 1.362 . S
C16 C19 1.378 . S
C16 H31 0.929 . S
C17 C16 1.362 . S
C17 C18 1.366 . S
C18 C15 1.365 . S
C18 C17 1.366 . S
C18 H32 0.930 . S
C19 C16 1.378 . S
C19 N20 1.315 . S
C19 H22 0.930 . S
N20 Co0 2.194 . S
N20 C15 1.328 . S
N20 C19 1.315 . S
H21 C15 0.929 . S
H22 C19 0.930 . S
H23 C11 0.929 . S
H24 C13 0.929 . S
O25 Co0 2.351 . S
O25 C28 1.244 . S
O26 Co0 2.155 . S
O26 C28 1.240 . S
O27 Co0 2.096 . S
O27 C8 1.247 . S
C28 O25 1.244 . S
C28 O26 1.240 . S
H29 C3 0.931 . S
H30 C12 0.931 . S
H31 C16 0.929 . S
H32 C18 0.930 . S
Co33 N37 2.148 . S
Co33 N43 2.128 . S
Co33 N53 2.194 . S
Co33 O58 2.351 . S
Co33 O59 2.155 . S
Co33 O60 2.096 . S
C34 N37 1.301 . S
C34 N38 1.328 . S
C34 H39 0.930 . S
C35 C36 1.333 . S
C35 N37 1.317 . S
C35 H40 0.930 . S
C36 C35 1.333 . S
C36 N38 1.350 . S
C36 H62 0.931 . S
N37 Co33 2.148 . S
N37 C34 1.301 . S
N37 C35 1.317 . S
N38 C34 1.328 . S
N38 C36 1.350 . S
H39 C34 0.930 . S
H40 C35 0.930 . S
C41 O42 1.224 . S
C41 O60 1.247 . S
O42 C41 1.224 . S
N43 Co33 2.128 . S
N43 C44 1.355 . S
N43 C46 1.311 . S
C44 N43 1.355 . S
C44 C45 1.363 . S
C44 H56 0.929 1_655 S
C45 C44 1.363 . S
C45 N47 1.375 . S
C45 H63 0.931 1_655 S
C46 N43 1.311 . S
C46 N47 1.347 . S
C46 H57 0.929 . S
N47 C45 1.375 . S
N47 C46 1.347 . S
C48 C51 1.365 . S
C48 N53 1.328 1_455 S
C48 H54 0.929 . S
C49 C50 1.362 . S
C49 C52 1.378 1_455 S
C49 H64 0.929 . S
C50 C49 1.362 . S
C50 C51 1.366 . S
C51 C48 1.365 . S
C51 C50 1.366 . S
C51 H65 0.930 . S
C52 C49 1.378 1_655 S
C52 N53 1.315 . S
C52 H55 0.930 . S
N53 Co33 2.194 . S
N53 C48 1.328 1_655 S
N53 C52 1.315 . S
H54 C48 0.929 . S
H55 C52 0.930 . S
H56 C44 0.929 1_455 S
H57 C46 0.929 . S
O58 Co33 2.351 . S
O58 C61 1.244 . S
O59 Co33 2.155 . S
O59 C61 1.240 . S
O60 Co33 2.096 . S
O60 C41 1.247 . S
C61 O58 1.244 . S
C61 O59 1.240 . S
H62 C36 0.931 . S
H63 C45 0.931 1_455 S
H64 C49 0.929 . S
H65 C51 0.930 . S
Co66 N70 2.148 . S
Co66 N76 2.128 . S
Co66 N86 2.194 . S
Co66 O91 2.351 . S
Co66 O92 2.155 . S
Co66 O93 2.096 . S
C67 N70 1.301 . S
C67 N71 1.328 . S
C67 H72 0.930 . S
C68 C69 1.333 . S
C68 N70 1.317 . S
C68 H73 0.930 . S
C69 C68 1.333 . S
C69 N71 1.350 . S
C69 H95 0.931 . S
N70 Co66 2.148 . S
N70 C67 1.301 . S
N70 C68 1.317 . S
N71 C67 1.328 . S
N71 C69 1.350 . S
H72 C67 0.930 . S
H73 C68 0.930 . S
C74 O75 1.224 . S
C74 O93 1.247 . S
O75 C74 1.224 . S
N76 Co66 2.128 . S
N76 C77 1.355 . S
N76 C79 1.311 . S
C77 N76 1.355 . S
C77 C78 1.363 . S
C77 H89 0.929 1_565 S
C78 C77 1.363 . S
C78 N80 1.375 . S
C78 H96 0.931 1_565 S
C79 N76 1.311 . S
C79 N80 1.347 . S
C79 H90 0.929 . S
N80 C78 1.375 . S
N80 C79 1.347 . S
C81 C84 1.365 . S
C81 N86 1.328 1_545 S
C81 H87 0.929 . S
C82 C83 1.362 . S
C82 C85 1.378 1_545 S
C82 H97 0.929 . S
C83 C82 1.362 . S
C83 C84 1.366 . S
C84 C81 1.365 . S
C84 C83 1.366 . S
C84 H98 0.930 . S
C85 C82 1.378 1_565 S
C85 N86 1.315 . S
C85 H88 0.930 . S
N86 Co66 2.194 . S
N86 C81 1.328 1_565 S
N86 C85 1.315 . S
H87 C81 0.929 . S
H88 C85 0.930 . S
H89 C77 0.929 1_545 S
H90 C79 0.929 . S
O91 Co66 2.351 . S
O91 C94 1.244 . S
O92 Co66 2.155 . S
O92 C94 1.240 . S
O93 Co66 2.096 . S
O93 C74 1.247 . S
C94 O91 1.244 . S
C94 O92 1.240 . S
H95 C69 0.931 . S
H96 C78 0.931 1_545 S
H97 C82 0.929 . S
H98 C84 0.930 . S
Co99 N103 2.148 . S
Co99 N109 2.128 . S
Co99 N119 2.194 . S
Co99 O124 2.351 . S
Co99 O125 2.155 . S
Co99 O126 2.096 . S
C100 N103 1.301 . S
C100 N104 1.328 . S
C100 H105 0.930 . S
C101 C102 1.333 . S
C101 N103 1.317 . S
C101 H106 0.930 . S
C102 C101 1.333 . S
C102 N104 1.350 . S
C102 H128 0.931 . S
N103 Co99 2.148 . S
N103 C100 1.301 . S
N103 C101 1.317 . S
N104 C100 1.328 . S
N104 C102 1.350 . S
H105 C100 0.930 . S
H106 C101 0.930 . S
C107 O108 1.224 . S
C107 O126 1.247 . S
O108 C107 1.224 . S
N109 Co99 2.128 . S
N109 C110 1.355 . S
N109 C112 1.311 . S
C110 N109 1.355 . S
C110 C111 1.363 . S
C110 H122 0.929 . S
C111 C110 1.363 . S
C111 N113 1.375 . S
C111 H129 0.931 . S
C112 N109 1.311 . S
C112 N113 1.347 . S
C112 H123 0.929 . S
N113 C111 1.375 . S
N113 C112 1.347 . S
C114 C117 1.365 . S
C114 N119 1.328 . S
C114 H120 0.929 . S
C115 C116 1.362 . S
C115 C118 1.378 . S
C115 H130 0.929 . S
C116 C115 1.362 . S
C116 C117 1.366 . S
C117 C114 1.365 . S
C117 C116 1.366 . S
C117 H131 0.930 . S
C118 C115 1.378 . S
C118 N119 1.315 . S
C118 H121 0.930 . S
N119 Co99 2.194 . S
N119 C114 1.328 . S
N119 C118 1.315 . S
H120 C114 0.929 . S
H121 C118 0.930 . S
H122 C110 0.929 . S
H123 C112 0.929 . S
O124 Co99 2.351 . S
O124 C127 1.244 . S
O125 Co99 2.155 . S
O125 C127 1.240 . S
O126 Co99 2.096 . S
O126 C107 1.247 . S
C127 O124 1.244 . S
C127 O125 1.240 . S
H128 C102 0.931 . S
H129 C111 0.931 . S
H130 C115 0.929 . S
H131 C117 0.930 . S
Co132 N136 2.148 . S
Co132 N142 2.128 . S
Co132 N152 2.194 . S
Co132 O157 2.351 . S
Co132 O158 2.155 . S
Co132 O159 2.096 . S
C133 N136 1.301 . S
C133 N137 1.328 . S
C133 H138 0.930 . S
C134 C135 1.333 . S
C134 N136 1.317 . S
C134 H139 0.930 . S
C135 C134 1.333 . S
C135 N137 1.350 . S
C135 H161 0.931 . S
N136 Co132 2.148 . S
N136 C133 1.301 . S
N136 C134 1.317 . S
N137 C133 1.328 . S
N137 C135 1.350 . S
H138 C133 0.930 . S
H139 C134 0.930 . S
C140 O141 1.224 . S
C140 O159 1.247 . S
O141 C140 1.224 . S
N142 Co132 2.128 . S
N142 C143 1.355 . S
N142 C145 1.311 . S
C143 N142 1.355 . S
C143 C144 1.363 . S
C143 H155 0.929 1_455 S
C144 C143 1.363 . S
C144 N146 1.375 . S
C144 H162 0.931 1_455 S
C145 N142 1.311 . S
C145 N146 1.347 . S
C145 H156 0.929 . S
N146 C144 1.375 . S
N146 C145 1.347 . S
C147 C150 1.365 . S
C147 N152 1.328 1_655 S
C147 H153 0.929 . S
C148 C149 1.362 . S
C148 C151 1.378 1_655 S
C148 H163 0.929 . S
C149 C148 1.362 . S
C149 C150 1.366 . S
C150 C147 1.365 . S
C150 C149 1.366 . S
C150 H164 0.930 . S
C151 C148 1.378 1_455 S
C151 N152 1.315 . S
C151 H154 0.930 . S
N152 Co132 2.194 . S
N152 C147 1.328 1_455 S
N152 C151 1.315 . S
H153 C147 0.929 . S
H154 C151 0.930 . S
H155 C143 0.929 1_655 S
H156 C145 0.929 . S
O157 Co132 2.351 . S
O157 C160 1.244 . S
O158 Co132 2.155 . S
O158 C160 1.240 . S
O159 Co132 2.096 . S
O159 C140 1.247 . S
C160 O157 1.244 . S
C160 O158 1.240 . S
H161 C135 0.931 . S
H162 C144 0.931 1_655 S
H163 C148 0.929 . S
H164 C150 0.930 . S
Co165 N169 2.148 . S
Co165 N175 2.128 . S
Co165 N185 2.194 . S
Co165 O190 2.351 . S
Co165 O191 2.155 . S
Co165 O192 2.096 . S
C166 N169 1.301 . S
C166 N170 1.328 . S
C166 H171 0.930 . S
C167 C168 1.333 . S
C167 N169 1.317 . S
C167 H172 0.930 . S
C168 C167 1.333 . S
C168 N170 1.350 . S
C168 H194 0.931 . S
N169 Co165 2.148 . S
N169 C166 1.301 . S
N169 C167 1.317 . S
N170 C166 1.328 . S
N170 C168 1.350 . S
H171 C166 0.930 . S
H172 C167 0.930 . S
C173 O174 1.224 . S
C173 O192 1.247 . S
O174 C173 1.224 . S
N175 Co165 2.128 . S
N175 C176 1.355 . S
N175 C178 1.311 . S
C176 N175 1.355 . S
C176 C177 1.363 . S
C176 H188 0.929 1_545 S
C177 C176 1.363 . S
C177 N179 1.375 . S
C177 H195 0.931 1_545 S
C178 N175 1.311 . S
C178 N179 1.347 . S
C178 H189 0.929 . S
N179 C177 1.375 . S
N179 C178 1.347 . S
C180 C183 1.365 . S
C180 N185 1.328 1_565 S
C180 H186 0.929 . S
C181 C182 1.362 . S
C181 C184 1.378 1_565 S
C181 H196 0.929 . S
C182 C181 1.362 . S
C182 C183 1.366 . S
C183 C180 1.365 . S
C183 C182 1.366 . S
C183 H197 0.930 . S
C184 C181 1.378 1_545 S
C184 N185 1.315 . S
C184 H187 0.930 . S
N185 Co165 2.194 . S
N185 C180 1.328 1_545 S
N185 C184 1.315 . S
H186 C180 0.929 . S
H187 C184 0.930 . S
H188 C176 0.929 1_565 S
H189 C178 0.929 . S
O190 Co165 2.351 . S
O190 C193 1.244 . S
O191 Co165 2.155 . S
O191 C193 1.240 . S
O192 Co165 2.096 . S
O192 C173 1.247 . S
C193 O190 1.244 . S
C193 O191 1.240 . S
H194 C168 0.931 . S
H195 C177 0.931 1_565 S
H196 C181 0.929 . S
H197 C183 0.930 . S
Co198 N202 2.148 . S
Co198 N208 2.128 . S
Co198 N218 2.194 . S
Co198 O223 2.351 . S
Co198 O224 2.155 . S
Co198 O225 2.096 . S
C199 N202 1.301 . S
C199 N203 1.328 . S
C199 H204 0.930 . S
C200 C201 1.333 . S
C200 N202 1.317 . S
C200 H205 0.930 . S
C201 C200 1.333 . S
C201 N203 1.350 . S
C201 H227 0.931 . S
N202 Co198 2.148 . S
N202 C199 1.301 . S
N202 C200 1.317 . S
N203 C199 1.328 . S
N203 C201 1.350 . S
H204 C199 0.930 . S
H205 C200 0.930 . S
C206 O207 1.224 . S
C206 O225 1.247 . S
O207 C206 1.224 . S
N208 Co198 2.128 . S
N208 C209 1.355 . S
N208 C211 1.311 . S
C209 N208 1.355 . S
C209 C210 1.363 . S
C209 H221 0.929 . S
C210 C209 1.363 . S
C210 N212 1.375 . S
C210 H228 0.931 . S
C211 N208 1.311 . S
C211 N212 1.347 . S
C211 H222 0.929 . S
N212 C210 1.375 . S
N212 C211 1.347 . S
C213 C216 1.365 . S
C213 N218 1.328 . S
C213 H219 0.929 . S
C214 C215 1.362 . S
C214 C217 1.378 . S
C214 H229 0.929 . S
C215 C214 1.362 . S
C215 C216 1.366 . S
C216 C213 1.365 . S
C216 C215 1.366 . S
C216 H230 0.930 . S
C217 C214 1.378 . S
C217 N218 1.315 . S
C217 H220 0.930 . S
N218 Co198 2.194 . S
N218 C213 1.328 . S
N218 C217 1.315 . S
H219 C213 0.929 . S
H220 C217 0.930 . S
H221 C209 0.929 . S
H222 C211 0.929 . S
O223 Co198 2.351 . S
O223 C226 1.244 . S
O224 Co198 2.155 . S
O224 C226 1.240 . S
O225 Co198 2.096 . S
O225 C206 1.247 . S
C226 O223 1.244 . S
C226 O224 1.240 . S
H227 C201 0.931 . S
H228 C210 0.931 . S
H229 C214 0.929 . S
H230 C216 0.930 . S
Co231 N235 2.148 . S
Co231 N241 2.128 . S
Co231 N251 2.194 . S
Co231 O256 2.351 . S
Co231 O257 2.155 . S
Co231 O258 2.096 . S
C232 N235 1.301 . S
C232 N236 1.328 . S
C232 H237 0.930 . S
C233 C234 1.333 . S
C233 N235 1.317 . S
C233 H238 0.930 . S
C234 C233 1.333 . S
C234 N236 1.350 . S
C234 H260 0.931 . S
N235 Co231 2.148 . S
N235 C232 1.301 . S
N235 C233 1.317 . S
N236 C232 1.328 . S
N236 C234 1.350 . S
H237 C232 0.930 . S
H238 C233 0.930 . S
C239 O240 1.224 . S
C239 O258 1.247 . S
O240 C239 1.224 . S
N241 Co231 2.128 . S
N241 C242 1.355 . S
N241 C244 1.311 . S
C242 N241 1.355 . S
C242 C243 1.363 . S
C242 H254 0.929 1_655 S
C243 C242 1.363 . S
C243 N245 1.375 . S
C243 H261 0.931 1_655 S
C244 N241 1.311 . S
C244 N245 1.347 . S
C244 H255 0.929 . S
N245 C243 1.375 . S
N245 C244 1.347 . S
C246 C249 1.365 . S
C246 N251 1.328 1_455 S
C246 H252 0.929 . S
C247 C248 1.362 . S
C247 C250 1.378 1_455 S
C247 H262 0.929 . S
C248 C247 1.362 . S
C248 C249 1.366 . S
C249 C246 1.365 . S
C249 C248 1.366 . S
C249 H263 0.930 . S
C250 C247 1.378 1_655 S
C250 N251 1.315 . S
C250 H253 0.930 . S
N251 Co231 2.194 . S
N251 C246 1.328 1_655 S
N251 C250 1.315 . S
H252 C246 0.929 . S
H253 C250 0.930 . S
H254 C242 0.929 1_455 S
H255 C244 0.929 . S
O256 Co231 2.351 . S
O256 C259 1.244 . S
O257 Co231 2.155 . S
O257 C259 1.240 . S
O258 Co231 2.096 . S
O258 C239 1.247 . S
C259 O256 1.244 . S
C259 O257 1.240 . S
H260 C234 0.931 . S
H261 C243 0.931 1_455 S
H262 C247 0.929 . S
H263 C249 0.930 . S
Co264 N268 2.148 . S
Co264 N274 2.128 . S
Co264 N284 2.194 . S
Co264 O289 2.351 . S
Co264 O290 2.155 . S
Co264 O291 2.096 . S
C265 N268 1.301 . S
C265 N269 1.328 . S
C265 H270 0.930 . S
C266 C267 1.333 . S
C266 N268 1.317 . S
C266 H271 0.930 . S
C267 C266 1.333 . S
C267 N269 1.350 . S
C267 H293 0.931 . S
N268 Co264 2.148 . S
N268 C265 1.301 . S
N268 C266 1.317 . S
N269 C265 1.328 . S
N269 C267 1.350 . S
H270 C265 0.930 . S
H271 C266 0.930 . S
C272 O273 1.224 . S
C272 O291 1.247 . S
O273 C272 1.224 . S
N274 Co264 2.128 . S
N274 C275 1.355 . S
N274 C277 1.311 . S
C275 N274 1.355 . S
C275 C276 1.363 . S
C275 H287 0.929 1_565 S
C276 C275 1.363 . S
C276 N278 1.375 . S
C276 H294 0.931 1_565 S
C277 N274 1.311 . S
C277 N278 1.347 . S
C277 H288 0.929 . S
N278 C276 1.375 . S
N278 C277 1.347 . S
C279 C282 1.365 . S
C279 N284 1.328 1_545 S
C279 H285 0.929 . S
C280 C281 1.362 . S
C280 C283 1.378 1_545 S
C280 H295 0.929 . S
C281 C280 1.362 . S
C281 C282 1.366 . S
C282 C279 1.365 . S
C282 C281 1.366 . S
C282 H296 0.930 . S
C283 C280 1.378 1_565 S
C283 N284 1.315 . S
C283 H286 0.930 . S
N284 Co264 2.194 . S
N284 C279 1.328 1_565 S
N284 C283 1.315 . S
H285 C279 0.929 . S
H286 C283 0.930 . S
H287 C275 0.929 1_545 S
H288 C277 0.929 . S
O289 Co264 2.351 . S
O289 C292 1.244 . S
O290 Co264 2.155 . S
O290 C292 1.240 . S
O291 Co264 2.096 . S
O291 C272 1.247 . S
C292 O289 1.244 . S
C292 O290 1.240 . S
H293 C267 0.931 . S
H294 C276 0.931 1_545 S
H295 C280 0.929 . S
H296 C282 0.930 . S
Co297 N301 2.148 . S
Co297 N307 2.128 . S
Co297 N317 2.194 . S
Co297 O322 2.351 . S
Co297 O323 2.155 . S
Co297 O324 2.096 . S
C298 N301 1.301 . S
C298 N302 1.328 . S
C298 H303 0.930 . S
C299 C300 1.333 . S
C299 N301 1.317 . S
C299 H304 0.930 . S
C300 C299 1.333 . S
C300 N302 1.350 . S
C300 H326 0.931 . S
N301 Co297 2.148 . S
N301 C298 1.301 . S
N301 C299 1.317 . S
N302 C298 1.328 . S
N302 C300 1.350 . S
H303 C298 0.930 . S
H304 C299 0.930 . S
C305 O306 1.224 . S
C305 O324 1.247 . S
O306 C305 1.224 . S
N307 Co297 2.128 . S
N307 C308 1.355 . S
N307 C310 1.311 . S
C308 N307 1.355 . S
C308 C309 1.363 . S
C308 H320 0.929 . S
C309 C308 1.363 . S
C309 N311 1.375 . S
C309 H327 0.931 . S
C310 N307 1.311 . S
C310 N311 1.347 . S
C310 H321 0.929 . S
N311 C309 1.375 . S
N311 C310 1.347 . S
C312 C315 1.365 . S
C312 N317 1.328 . S
C312 H318 0.929 . S
C313 C314 1.362 . S
C313 C316 1.378 . S
C313 H328 0.929 . S
C314 C313 1.362 . S
C314 C315 1.366 . S
C315 C312 1.365 . S
C315 C314 1.366 . S
C315 H329 0.930 . S
C316 C313 1.378 . S
C316 N317 1.315 . S
C316 H319 0.930 . S
N317 Co297 2.194 . S
N317 C312 1.328 . S
N317 C316 1.315 . S
H318 C312 0.929 . S
H319 C316 0.930 . S
H320 C308 0.929 . S
H321 C310 0.929 . S
O322 Co297 2.351 . S
O322 C325 1.244 . S
O323 Co297 2.155 . S
O323 C325 1.240 . S
O324 Co297 2.096 . S
O324 C305 1.247 . S
C325 O322 1.244 . S
C325 O323 1.240 . S
H326 C300 0.931 . S
H327 C309 0.931 . S
H328 C313 0.929 . S
H329 C315 0.930 . S
Co330 N334 2.148 . S
Co330 N340 2.128 . S
Co330 N350 2.194 . S
Co330 O355 2.351 . S
Co330 O356 2.155 . S
Co330 O357 2.096 . S
C331 N334 1.301 . S
C331 N335 1.328 . S
C331 H336 0.930 . S
C332 C333 1.333 . S
C332 N334 1.317 . S
C332 H337 0.930 . S
C333 C332 1.333 . S
C333 N335 1.350 . S
C333 H359 0.931 . S
N334 Co330 2.148 . S
N334 C331 1.301 . S
N334 C332 1.317 . S
N335 C331 1.328 . S
N335 C333 1.350 . S
H336 C331 0.930 . S
H337 C332 0.930 . S
C338 O339 1.224 . S
C338 O357 1.247 . S
O339 C338 1.224 . S
N340 Co330 2.128 . S
N340 C341 1.355 . S
N340 C343 1.311 . S
C341 N340 1.355 . S
C341 C342 1.363 . S
C341 H353 0.929 1_455 S
C342 C341 1.363 . S
C342 N344 1.375 . S
C342 H360 0.931 1_455 S
C343 N340 1.311 . S
C343 N344 1.347 . S
C343 H354 0.929 . S
N344 C342 1.375 . S
N344 C343 1.347 . S
C345 C348 1.365 . S
C345 N350 1.328 1_655 S
C345 H351 0.929 . S
C346 C347 1.362 . S
C346 C349 1.378 1_655 S
C346 H361 0.929 . S
C347 C346 1.362 . S
C347 C348 1.366 . S
C348 C345 1.365 . S
C348 C347 1.366 . S
C348 H362 0.930 . S
C349 C346 1.378 1_455 S
C349 N350 1.315 . S
C349 H352 0.930 . S
N350 Co330 2.194 . S
N350 C345 1.328 1_455 S
N350 C349 1.315 . S
H351 C345 0.929 . S
H352 C349 0.930 . S
H353 C341 0.929 1_655 S
H354 C343 0.929 . S
O355 Co330 2.351 . S
O355 C358 1.244 . S
O356 Co330 2.155 . S
O356 C358 1.240 . S
O357 Co330 2.096 . S
O357 C338 1.247 . S
C358 O355 1.244 . S
C358 O356 1.240 . S
H359 C333 0.931 . S
H360 C342 0.931 1_655 S
H361 C346 0.929 . S
H362 C348 0.930 . S
Co363 N367 2.148 . S
Co363 N373 2.128 . S
Co363 N383 2.194 . S
Co363 O388 2.351 . S
Co363 O389 2.155 . S
Co363 O390 2.096 . S
C364 N367 1.301 . S
C364 N368 1.328 . S
C364 H369 0.930 . S
C365 C366 1.333 . S
C365 N367 1.317 . S
C365 H370 0.930 . S
C366 C365 1.333 . S
C366 N368 1.350 . S
C366 H392 0.931 . S
N367 Co363 2.148 . S
N367 C364 1.301 . S
N367 C365 1.317 . S
N368 C364 1.328 . S
N368 C366 1.350 . S
H369 C364 0.930 . S
H370 C365 0.930 . S
C371 O372 1.224 . S
C371 O390 1.247 . S
O372 C371 1.224 . S
N373 Co363 2.128 . S
N373 C374 1.355 . S
N373 C376 1.311 . S
C374 N373 1.355 . S
C374 C375 1.363 . S
C374 H386 0.929 1_545 S
C375 C374 1.363 . S
C375 N377 1.375 . S
C375 H393 0.931 1_545 S
C376 N373 1.311 . S
C376 N377 1.347 . S
C376 H387 0.929 . S
N377 C375 1.375 . S
N377 C376 1.347 . S
C378 C381 1.365 . S
C378 N383 1.328 1_565 S
C378 H384 0.929 . S
C379 C380 1.362 . S
C379 C382 1.378 1_565 S
C379 H394 0.929 . S
C380 C379 1.362 . S
C380 C381 1.366 . S
C381 C378 1.365 . S
C381 C380 1.366 . S
C381 H395 0.930 . S
C382 C379 1.378 1_545 S
C382 N383 1.315 . S
C382 H385 0.930 . S
N383 Co363 2.194 . S
N383 C378 1.328 1_545 S
N383 C382 1.315 . S
H384 C378 0.929 . S
H385 C382 0.930 . S
H386 C374 0.929 1_565 S
H387 C376 0.929 . S
O388 Co363 2.351 . S
O388 C391 1.244 . S
O389 Co363 2.155 . S
O389 C391 1.240 . S
O390 Co363 2.096 . S
O390 C371 1.247 . S
C391 O388 1.244 . S
C391 O389 1.240 . S
H392 C366 0.931 . S
H393 C375 0.931 1_565 S
H394 C379 0.929 . S
H395 C381 0.930 . S
H396 C402 0.930 . S
H397 C405 0.930 . S
H398 C406 0.930 . S
H399 C407 0.930 . S
H400 C410 0.930 . S
H401 C411 0.930 . S
C402 H396 0.930 . S
C402 C403 1.355 . S
C402 C404 1.415 . S
C403 C402 1.355 . S
C403 C405 1.419 . S
C404 C402 1.415 . S
C404 C409 1.425 . S
C404 C411 1.409 . S
C405 H397 0.930 . S
C405 C403 1.419 . S
C405 C406 1.362 . S
C406 H398 0.930 . S
C406 C405 1.362 . S
C406 C409 1.409 . S
C407 H399 0.930 . S
C407 C408 1.355 . S
C407 C409 1.415 . S
C408 C407 1.355 . S
C408 C410 1.419 . S
C409 C404 1.425 . S
C409 C406 1.409 . S
C409 C407 1.415 . S
C410 H400 0.930 . S
C410 C408 1.419 . S
C410 C411 1.362 . S
C411 H401 0.930 . S
C411 C404 1.409 . S
C411 C410 1.362 . S
H412 C418 0.930 1_655 S
H413 C421 0.930 . S
H414 C422 0.930 . S
H415 C423 0.930 1_455 S
H416 C426 0.930 . S
H417 C427 0.930 . S
C418 H412 0.930 1_455 S
C418 C419 1.355 . S
C418 C420 1.415 1_455 S
C419 C418 1.355 . S
C419 C421 1.419 . S
C420 C418 1.415 1_655 S
C420 C425 1.425 1_655 S
C420 C427 1.409 . S
C421 H413 0.930 . S
C421 C419 1.419 . S
C421 C422 1.362 . S
C422 H414 0.930 . S
C422 C421 1.362 . S
C422 C425 1.409 . S
C423 H415 0.930 1_655 S
C423 C424 1.355 . S
C423 C425 1.415 1_655 S
C424 C423 1.355 . S
C424 C426 1.419 . S
C425 C420 1.425 1_455 S
C425 C422 1.409 . S
C425 C423 1.415 1_455 S
C426 H416 0.930 . S
C426 C424 1.419 . S
C426 C427 1.362 . S
C427 H417 0.930 . S
C427 C420 1.409 . S
C427 C426 1.362 . S
H428 C434 0.930 . S
H429 C437 0.930 . S
H430 C438 0.930 . S
H431 C439 0.930 . S
H432 C442 0.930 . S
H433 C443 0.930 . S
C434 H428 0.930 . S
C434 C435 1.355 . S
C434 C436 1.415 . S
C435 C434 1.355 . S
C435 C437 1.419 . S
C436 C434 1.415 . S
C436 C441 1.425 1_545 S
C436 C443 1.409 . S
C437 H429 0.930 . S
C437 C435 1.419 . S
C437 C438 1.362 1_545 S
C438 H430 0.930 . S
C438 C437 1.362 1_565 S
C438 C441 1.409 . S
C439 H431 0.930 . S
C439 C440 1.355 . S
C439 C441 1.415 . S
C440 C439 1.355 . S
C440 C442 1.419 . S
C441 C436 1.425 1_565 S
C441 C438 1.409 . S
C441 C439 1.415 . S
C442 H432 0.930 . S
C442 C440 1.419 . S
C442 C443 1.362 1_565 S
C443 H433 0.930 . S
C443 C436 1.409 . S
C443 C442 1.362 1_545 S
H444 C450 0.930 . S
H445 C453 0.930 . S
H446 C454 0.930 . S
H447 C455 0.930 . S
H448 C458 0.930 . S
H449 C459 0.930 . S
C450 H444 0.930 . S
C450 C451 1.355 . S
C450 C452 1.415 . S
C451 C450 1.355 . S
C451 C453 1.419 . S
C452 C450 1.415 . S
C452 C457 1.425 . S
C452 C459 1.409 . S
C453 H445 0.930 . S
C453 C451 1.419 . S
C453 C454 1.362 . S
C454 H446 0.930 . S
C454 C453 1.362 . S
C454 C457 1.409 . S
C455 H447 0.930 . S
C455 C456 1.355 . S
C455 C457 1.415 . S
C456 C455 1.355 . S
C456 C458 1.419 . S
C457 C452 1.425 . S
C457 C454 1.409 . S
C457 C455 1.415 . S
C458 H448 0.930 . S
C458 C456 1.419 . S
C458 C459 1.362 . S
C459 H449 0.930 . S
C459 C452 1.409 . S
C459 C458 1.362 . S
H460 C466 0.930 . S
H461 C469 0.930 1_455 S
H462 C470 0.930 . S
H463 C471 0.930 . S
H464 C474 0.930 1_655 S
H465 C475 0.930 . S
C466 H460 0.930 . S
C466 C467 1.355 . S
C466 C468 1.415 . S
C467 C466 1.355 . S
C467 C469 1.419 . S
C468 C466 1.415 . S
C468 C473 1.425 1_655 S
C468 C475 1.409 . S
C469 H461 0.930 1_655 S
C469 C467 1.419 . S
C469 C470 1.362 1_655 S
C470 H462 0.930 . S
C470 C469 1.362 1_455 S
C470 C473 1.409 . S
C471 H463 0.930 . S
C471 C472 1.355 . S
C471 C473 1.415 . S
C472 C471 1.355 . S
C472 C474 1.419 . S
C473 C468 1.425 1_455 S
C473 C470 1.409 . S
C473 C471 1.415 . S
C474 H464 0.930 1_455 S
C474 C472 1.419 . S
C474 C475 1.362 1_455 S
C475 H465 0.930 . S
C475 C468 1.409 . S
C475 C474 1.362 1_655 S
H476 C482 0.930 . S
H477 C485 0.930 . S
H478 C486 0.930 1_545 S
H479 C487 0.930 . S
H480 C490 0.930 . S
H481 C491 0.930 1_565 S
C482 H476 0.930 . S
C482 C483 1.355 . S
C482 C484 1.415 . S
C483 C482 1.355 . S
C483 C485 1.419 . S
C484 C482 1.415 . S
C484 C489 1.425 1_565 S
C484 C491 1.409 1_565 S
C485 H477 0.930 . S
C485 C483 1.419 . S
C485 C486 1.362 . S
C486 H478 0.930 1_565 S
C486 C485 1.362 . S
C486 C489 1.409 1_565 S
C487 H479 0.930 . S
C487 C488 1.355 . S
C487 C489 1.415 . S
C488 C487 1.355 . S
C488 C490 1.419 . S
C489 C484 1.425 1_545 S
C489 C486 1.409 1_545 S
C489 C487 1.415 . S
C490 H480 0.930 . S
C490 C488 1.419 . S
C490 C491 1.362 . S
C491 H481 0.930 1_545 S
C491 C484 1.409 1_545 S
C491 C490 1.362 . S
H492 C498 0.930 . S
H493 C501 0.930 . S
H494 C502 0.930 . S
H495 C503 0.930 . S
H496 C506 0.930 . S
H497 C507 0.930 . S
C498 H492 0.930 . S
C498 C499 1.355 . S
C498 C500 1.415 . S
C499 C498 1.355 . S
C499 C501 1.419 . S
C500 C498 1.415 . S
C500 C505 1.425 . S
C500 C507 1.409 . S
C501 H493 0.930 . S
C501 C499 1.419 . S
C501 C502 1.362 . S
C502 H494 0.930 . S
C502 C501 1.362 . S
C502 C505 1.409 . S
C503 H495 0.930 . S
C503 C504 1.355 . S
C503 C505 1.415 . S
C504 C503 1.355 . S
C504 C506 1.419 . S
C505 C500 1.425 . S
C505 C502 1.409 . S
C505 C503 1.415 . S
C506 H496 0.930 . S
C506 C504 1.419 . S
C506 C507 1.362 . S
C507 H497 0.930 . S
C507 C500 1.409 . S
C507 C506 1.362 . S
H508 C514 0.930 1_455 S
H509 C517 0.930 . S
H510 C518 0.930 . S
H511 C519 0.930 1_655 S
H512 C522 0.930 . S
H513 C523 0.930 . S
C514 H508 0.930 1_655 S
C514 C515 1.355 . S
C514 C516 1.415 1_655 S
C515 C514 1.355 . S
C515 C517 1.419 . S
C516 C514 1.415 1_455 S
C516 C521 1.425 1_455 S
C516 C523 1.409 . S
C517 H509 0.930 . S
C517 C515 1.419 . S
C517 C518 1.362 . S
C518 H510 0.930 . S
C518 C517 1.362 . S
C518 C521 1.409 . S
C519 H511 0.930 1_455 S
C519 C520 1.355 . S
C519 C521 1.415 1_455 S
C520 C519 1.355 . S
C520 C522 1.419 . S
C521 C516 1.425 1_655 S
C521 C518 1.409 . S
C521 C519 1.415 1_655 S
C522 H512 0.930 . S
C522 C520 1.419 . S
C522 C523 1.362 . S
C523 H513 0.930 . S
C523 C516 1.409 . S
C523 C522 1.362 . S
H524 C530 0.930 1_565 S
H525 C533 0.930 . S
H526 C534 0.930 1_556 S
H527 C535 0.930 1_545 S
H528 C538 0.930 . S
H529 C539 0.930 1_554 S
C530 H524 0.930 1_545 S
C530 C531 1.355 . S
C530 C532 1.415 1_545 S
C531 C530 1.355 . S
C531 C533 1.419 . S
C532 C530 1.415 1_565 S
C532 C537 1.425 1_564 S
C532 C539 1.409 1_554 S
C533 H525 0.930 . S
C533 C531 1.419 . S
C533 C534 1.362 . S
C534 H526 0.930 1_554 S
C534 C533 1.362 . S
C534 C537 1.409 1_554 S
C535 H527 0.930 1_565 S
C535 C536 1.355 . S
C535 C537 1.415 1_565 S
C536 C535 1.355 . S
C536 C538 1.419 . S
C537 C532 1.425 1_546 S
C537 C534 1.409 1_556 S
C537 C535 1.415 1_545 S
C538 H528 0.930 . S
C538 C536 1.419 . S
C538 C539 1.362 . S
C539 H529 0.930 1_556 S
C539 C532 1.409 1_556 S
C539 C538 1.362 . S
H540 C546 0.930 . S
H541 C549 0.930 . S
H542 C550 0.930 . S
H543 C551 0.930 . S
H544 C554 0.930 . S
H545 C555 0.930 . S
C546 H540 0.930 . S
C546 C547 1.355 . S
C546 C548 1.415 . S
C547 C546 1.355 . S
C547 C549 1.419 . S
C548 C546 1.415 . S
C548 C553 1.425 . S
C548 C555 1.409 . S
C549 H541 0.930 . S
C549 C547 1.419 . S
C549 C550 1.362 . S
C550 H542 0.930 . S
C550 C549 1.362 . S
C550 C553 1.409 . S
C551 H543 0.930 . S
C551 C552 1.355 . S
C551 C553 1.415 . S
C552 C551 1.355 . S
C552 C554 1.419 . S
C553 C548 1.425 . S
C553 C550 1.409 . S
C553 C551 1.415 . S
C554 H544 0.930 . S
C554 C552 1.419 . S
C554 C555 1.362 . S
C555 H545 0.930 . S
C555 C548 1.409 . S
C555 C554 1.362 . S
H556 C562 0.930 . S
H557 C565 0.930 . S
H558 C566 0.930 . S
H559 C567 0.930 . S
H560 C570 0.930 . S
H561 C571 0.930 . S
C562 H556 0.930 . S
C562 C563 1.355 . S
C562 C564 1.415 . S
C563 C562 1.355 . S
C563 C565 1.419 . S
C564 C562 1.415 . S
C564 C569 1.425 1_455 S
C564 C571 1.409 . S
C565 H557 0.930 . S
C565 C563 1.419 . S
C565 C566 1.362 1_455 S
C566 H558 0.930 . S
C566 C565 1.362 1_655 S
C566 C569 1.409 . S
C567 H559 0.930 . S
C567 C568 1.355 . S
C567 C569 1.415 . S
C568 C567 1.355 . S
C568 C570 1.419 . S
C569 C564 1.425 1_655 S
C569 C566 1.409 . S
C569 C567 1.415 . S
C570 H560 0.930 . S
C570 C568 1.419 . S
C570 C571 1.362 1_655 S
C571 H561 0.930 . S
C571 C564 1.409 . S
C571 C570 1.362 1_455 S
H572 C578 0.930 . S
H573 C581 0.930 . S
H574 C582 0.938 . S
H575 C583 0.930 . S
H576 C586 0.930 . S
H577 C587 0.938 . S
C578 H572 0.930 . S
C578 C579 1.355 1_565 S
C578 C580 1.415 . S
C579 C578 1.355 1_545 S
C579 C581 1.419 . S
C580 C578 1.415 . S
C580 C585 1.425 1_566 S
C580 C587 1.413 . S
C581 H573 0.930 . S
C581 C579 1.419 . S
C581 C582 1.351 1_556 S
C582 H574 0.938 . S
C582 C581 1.351 1_554 S
C582 C585 1.413 . S
C583 H575 0.930 . S
C583 C584 1.355 1_545 S
C583 C585 1.415 . S
C584 C583 1.355 1_565 S
C584 C586 1.419 . S
C585 C580 1.425 1_544 S
C585 C582 1.413 . S
C585 C583 1.415 . S
C586 H576 0.930 . S
C586 C584 1.419 . S
C586 C587 1.351 1_554 S
C587 H577 0.938 . S
C587 C580 1.413 . S
C587 C586 1.351 1_556 S
H588 C594 0.930 . S
H589 C597 0.930 . S
H590 C598 0.930 . S
H591 C599 0.930 . S
H592 C602 0.930 . S
H593 C603 0.930 . S
C594 H588 0.930 . S
C594 C595 1.355 . S
C594 C596 1.415 . S
C595 C594 1.355 . S
C595 C597 1.419 1_455 S
C596 C594 1.415 . S
C596 C601 1.425 1_445 S
C596 C603 1.409 1_545 S
C597 H589 0.930 . S
C597 C595 1.419 1_655 S
C597 C598 1.362 . S
C598 H590 0.930 . S
C598 C597 1.362 . S
C598 C601 1.409 1_545 S
C599 H591 0.930 . S
C599 C600 1.355 . S
C599 C601 1.415 . S
C600 C599 1.355 . S
C600 C602 1.419 1_655 S
C601 C596 1.425 1_665 S
C601 C598 1.409 1_565 S
C601 C599 1.415 . S
C602 H592 0.930 . S
C602 C600 1.419 1_455 S
C602 C603 1.362 . S
C603 H593 0.930 . S
C603 C596 1.409 1_565 S
C603 C602 1.362 . S
H604 C610 0.930 1_455 S
H605 C613 0.930 . S
H606 C614 0.930 . S
H607 C615 0.930 1_655 S
H608 C618 0.930 . S
H609 C619 0.930 . S
C610 H604 0.930 1_655 S
C610 C611 1.355 . S
C610 C612 1.415 1_655 S
C611 C610 1.355 . S
C611 C613 1.419 1_545 S
C612 C610 1.415 1_455 S
C612 C617 1.425 1_445 S
C612 C619 1.409 . S
C613 H605 0.930 . S
C613 C611 1.419 1_565 S
C613 C614 1.362 . S
C614 H606 0.930 . S
C614 C613 1.362 . S
C614 C617 1.409 . S
C615 H607 0.930 1_455 S
C615 C616 1.355 . S
C615 C617 1.415 1_455 S
C616 C615 1.355 . S
C616 C618 1.419 1_565 S
C617 C612 1.425 1_665 S
C617 C614 1.409 . S
C617 C615 1.415 1_655 S
C618 H608 0.930 . S
C618 C616 1.419 1_545 S
C618 C619 1.362 . S
C619 H609 0.930 . S
C619 C612 1.409 . S
C619 C618 1.362 . S
H620 C626 0.930 . S
H621 C629 0.930 . S
H622 C630 0.930 . S
H623 C631 0.930 . S
H624 C634 0.930 . S
H625 C635 0.930 . S
C626 H620 0.930 . S
C626 C627 1.355 . S
C626 C628 1.415 1_545 S
C627 C626 1.355 . S
C627 C629 1.419 . S
C628 C626 1.415 1_565 S
C628 C633 1.425 1_465 S
C628 C635 1.409 1_455 S
C629 H621 0.930 . S
C629 C627 1.419 . S
C629 C630 1.362 . S
C630 H622 0.930 . S
C630 C629 1.362 . S
C630 C633 1.409 1_455 S
C631 H623 0.930 . S
C631 C632 1.355 . S
C631 C633 1.415 1_565 S
C632 C631 1.355 . S
C632 C634 1.419 . S
C633 C628 1.425 1_645 S
C633 C630 1.409 1_655 S
C633 C631 1.415 1_545 S
C634 H624 0.930 . S
C634 C632 1.419 . S
C634 C635 1.362 . S
C635 H625 0.930 . S
C635 C628 1.409 1_655 S
C635 C634 1.362 . S
H636 C642 0.930 . S
H637 C645 0.930 . S
H638 C646 0.930 . S
H639 C647 0.930 . S
H640 C650 0.930 . S
H641 C651 0.930 . S
C642 H636 0.930 . S
C642 C643 1.355 1_545 S
C642 C644 1.415 . S
C643 C642 1.355 1_565 S
C643 C645 1.419 . S
C644 C642 1.415 . S
C644 C649 1.425 1_645 S
C644 C651 1.409 1_655 S
C645 H637 0.930 . S
C645 C643 1.419 . S
C645 C646 1.362 . S
C646 H638 0.930 . S
C646 C645 1.362 . S
C646 C649 1.409 1_655 S
C647 H639 0.930 . S
C647 C648 1.355 1_565 S
C647 C649 1.415 . S
C648 C647 1.355 1_545 S
C648 C650 1.419 . S
C649 C644 1.425 1_465 S
C649 C646 1.409 1_455 S
C649 C647 1.415 . S
C650 H640 0.930 . S
C650 C648 1.419 . S
C650 C651 1.362 . S
C651 H641 0.930 . S
C651 C644 1.409 1_455 S
C651 C650 1.362 . S
H652 C658 0.930 . S
H653 C661 0.930 . S
H654 C662 0.930 . S
H655 C663 0.930 . S
H656 C666 0.930 . S
H657 C667 0.930 . S
C658 H652 0.930 . S
C658 C659 1.355 . S
C658 C660 1.415 1_655 S
C659 C658 1.355 . S
C659 C661 1.419 . S
C660 C658 1.415 1_455 S
C660 C665 1.425 1_465 S
C660 C667 1.409 1_565 S
C661 H653 0.930 . S
C661 C659 1.419 . S
C661 C662 1.362 . S
C662 H654 0.930 . S
C662 C661 1.362 . S
C662 C665 1.409 1_565 S
C663 H655 0.930 . S
C663 C664 1.355 . S
C663 C665 1.415 1_455 S
C664 C663 1.355 . S
C664 C666 1.419 . S
C665 C660 1.425 1_645 S
C665 C662 1.409 1_545 S
C665 C663 1.415 1_655 S
C666 H656 0.930 . S
C666 C664 1.419 . S
C666 C667 1.362 . S
C667 H657 0.930 . S
C667 C660 1.409 1_545 S
C667 C666 1.362 . S
H668 C674 0.930 1_565 S
H669 C677 0.930 . S
H670 C678 0.930 . S
H671 C679 0.930 1_545 S
H672 C682 0.930 . S
H673 C683 0.930 . S
C674 H668 0.930 1_545 S
C674 C675 1.355 . S
C674 C676 1.415 1_545 S
C675 C674 1.355 . S
C675 C677 1.419 1_655 S
C676 C674 1.415 1_565 S
C676 C681 1.425 1_665 S
C676 C683 1.409 . S
C677 H669 0.930 . S
C677 C675 1.419 1_455 S
C677 C678 1.362 . S
C678 H670 0.930 . S
C678 C677 1.362 . S
C678 C681 1.409 . S
C679 H671 0.930 1_565 S
C679 C680 1.355 . S
C679 C681 1.415 1_565 S
C680 C679 1.355 . S
C680 C682 1.419 1_455 S
C681 C676 1.425 1_445 S
C681 C678 1.409 . S
C681 C679 1.415 1_545 S
C682 H672 0.930 . S
C682 C680 1.419 1_655 S
C682 C683 1.362 . S
C683 H673 0.930 . S
C683 C676 1.409 . S
C683 C682 1.362 . S
H684 C690 0.930 . S
H685 C693 0.930 . S
H686 C694 0.930 . S
H687 C695 0.930 . S
H688 C698 0.930 . S
H689 C699 0.930 . S
C690 H684 0.930 . S
C690 C691 1.355 . S
C690 C692 1.415 1_655 S
C691 C690 1.355 . S
C691 C693 1.419 . S
C692 C690 1.415 1_455 S
C692 C697 1.425 1_455 S
C692 C699 1.409 . S
C693 H685 0.930 . S
C693 C691 1.419 . S
C693 C694 1.362 . S
C694 H686 0.930 . S
C694 C693 1.362 . S
C694 C697 1.409 . S
C695 H687 0.930 . S
C695 C696 1.355 . S
C695 C697 1.415 1_455 S
C696 C695 1.355 . S
C696 C698 1.419 . S
C697 C692 1.425 1_655 S
C697 C694 1.409 . S
C697 C695 1.415 1_655 S
C698 H688 0.930 . S
C698 C696 1.419 . S
C698 C699 1.362 . S
C699 H689 0.930 . S
C699 C692 1.409 . S
C699 C698 1.362 . S
H700 C706 0.930 . S
H701 C709 0.930 . S
H702 C710 0.930 . S
H703 C711 0.930 . S
H704 C714 0.930 . S
H705 C715 0.930 . S
C706 H700 0.930 . S
C706 C707 1.355 . S
C706 C708 1.415 1_545 S
C707 C706 1.355 . S
C707 C709 1.419 . S
C708 C706 1.415 1_565 S
C708 C713 1.425 1_565 S
C708 C715 1.409 . S
C709 H701 0.930 . S
C709 C707 1.419 . S
C709 C710 1.362 . S
C710 H702 0.930 . S
C710 C709 1.362 . S
C710 C713 1.409 . S
C711 H703 0.930 . S
C711 C712 1.355 . S
C711 C713 1.415 1_565 S
C712 C711 1.355 . S
C712 C714 1.419 . S
C713 C708 1.425 1_545 S
C713 C710 1.409 . S
C713 C711 1.415 1_545 S
C714 H704 0.930 . S
C714 C712 1.419 . S
C714 C715 1.362 . S
C715 H705 0.930 . S
C715 C708 1.409 . S
C715 C714 1.362 . S
H716 C722 0.930 . S
H717 C725 0.930 . S
H718 C726 0.930 . S
H719 C727 0.930 . S
H720 C730 0.930 . S
H721 C731 0.930 . S
C722 H716 0.930 . S
C722 C723 1.355 . S
C722 C724 1.415 . S
C723 C722 1.355 . S
C723 C725 1.419 . S
C724 C722 1.415 . S
C724 C729 1.425 . S
C724 C731 1.409 . S
C725 H717 0.930 . S
C725 C723 1.419 . S
C725 C726 1.362 . S
C726 H718 0.930 . S
C726 C725 1.362 . S
C726 C729 1.409 . S
C727 H719 0.930 . S
C727 C728 1.355 . S
C727 C729 1.415 . S
C728 C727 1.355 . S
C728 C730 1.419 . S
C729 C724 1.425 . S
C729 C726 1.409 . S
C729 C727 1.415 . S
C730 H720 0.930 . S
C730 C728 1.419 . S
C730 C731 1.362 . S
C731 H721 0.930 . S
C731 C724 1.409 . S
C731 C730 1.362 . S
H732 C738 0.930 . S
H733 C741 0.930 . S
H734 C742 0.930 . S
H735 C743 0.930 . S
H736 C746 0.930 . S
H737 C747 0.930 . S
C738 H732 0.930 . S
C738 C739 1.355 . S
C738 C740 1.415 . S
C739 C738 1.355 . S
C739 C741 1.419 . S
C740 C738 1.415 . S
C740 C745 1.425 1_455 S
C740 C747 1.409 . S
C741 H733 0.930 . S
C741 C739 1.419 . S
C741 C742 1.362 1_455 S
C742 H734 0.930 . S
C742 C741 1.362 1_655 S
C742 C745 1.409 . S
C743 H735 0.930 . S
C743 C744 1.355 . S
C743 C745 1.415 . S
C744 C743 1.355 . S
C744 C746 1.419 . S
C745 C740 1.425 1_655 S
C745 C742 1.409 . S
C745 C743 1.415 . S
C746 H736 0.930 . S
C746 C744 1.419 . S
C746 C747 1.362 1_655 S
C747 H737 0.930 . S
C747 C740 1.409 . S
C747 C746 1.362 1_455 S
H748 C754 0.930 . S
H749 C757 0.930 . S
H750 C758 0.930 . S
H751 C759 0.930 . S
H752 C762 0.930 . S
H753 C763 0.930 . S
C754 H748 0.930 . S
C754 C755 1.355 . S
C754 C756 1.415 1_565 S
C755 C754 1.355 . S
C755 C757 1.419 . S
C756 C754 1.415 1_545 S
C756 C761 1.425 1_545 S
C756 C763 1.409 . S
C757 H749 0.930 . S
C757 C755 1.419 . S
C757 C758 1.362 . S
C758 H750 0.930 . S
C758 C757 1.362 . S
C758 C761 1.409 . S
C759 H751 0.930 . S
C759 C760 1.355 . S
C759 C761 1.415 1_545 S
C760 C759 1.355 . S
C760 C762 1.419 . S
C761 C756 1.425 1_565 S
C761 C758 1.409 . S
C761 C759 1.415 1_565 S
C762 H752 0.930 . S
C762 C760 1.419 . S
C762 C763 1.362 . S
C763 H753 0.930 . S
C763 C756 1.409 . S
C763 C762 1.362 . S
H764 C770 0.930 . S
H765 C773 0.930 . S
H766 C774 0.930 . S
H767 C775 0.930 . S
H768 C778 0.930 . S
H769 C779 0.930 . S
C770 H764 0.930 . S
C770 C771 1.355 . S
C770 C772 1.415 . S
C771 C770 1.355 . S
C771 C773 1.419 . S
C772 C770 1.415 . S
C772 C777 1.425 . S
C772 C779 1.409 . S
C773 H765 0.930 . S
C773 C771 1.419 . S
C773 C774 1.362 . S
C774 H766 0.930 . S
C774 C773 1.362 . S
C774 C777 1.409 . S
C775 H767 0.930 . S
C775 C776 1.355 . S
C775 C777 1.415 . S
C776 C775 1.355 . S
C776 C778 1.419 . S
C777 C772 1.425 . S
C777 C774 1.409 . S
C777 C775 1.415 . S
C778 H768 0.930 . S
C778 C776 1.419 . S
C778 C779 1.362 . S
C779 H769 0.930 . S
C779 C772 1.409 . S
C779 C778 1.362 . S
H780 C786 0.930 . S
H781 C789 0.930 . S
H782 C790 0.930 . S
H783 C791 0.930 . S
H784 C794 0.930 . S
H785 C795 0.930 . S
C786 H780 0.930 . S
C786 C787 1.355 . S
C786 C788 1.415 . S
C787 C786 1.355 . S
C787 C789 1.419 . S
C788 C786 1.415 . S
C788 C793 1.425 . S
C788 C795 1.409 . S
C789 H781 0.930 . S
C789 C787 1.419 . S
C789 C790 1.362 . S
C790 H782 0.930 . S
C790 C789 1.362 . S
C790 C793 1.409 . S
C791 H783 0.930 . S
C791 C792 1.355 . S
C791 C793 1.415 . S
C792 C791 1.355 . S
C792 C794 1.419 . S
C793 C788 1.425 . S
C793 C790 1.409 . S
C793 C791 1.415 . S
C794 H784 0.930 . S
C794 C792 1.419 . S
C794 C795 1.362 . S
C795 H785 0.930 . S
C795 C788 1.409 . S
C795 C794 1.362 . S
H796 C802 0.930 . S
H797 C805 0.930 . S
H798 C806 0.930 . S
H799 C807 0.930 . S
H800 C810 0.930 . S
H801 C811 0.930 . S
C802 H796 0.930 . S
C802 C803 1.355 . S
C802 C804 1.415 . S
C803 C802 1.355 . S
C803 C805 1.419 . S
C804 C802 1.415 . S
C804 C809 1.425 . S
C804 C811 1.409 . S
C805 H797 0.930 . S
C805 C803 1.419 . S
C805 C806 1.362 . S
C806 H798 0.930 . S
C806 C805 1.362 . S
C806 C809 1.409 . S
C807 H799 0.930 . S
C807 C808 1.355 . S
C807 C809 1.415 . S
C808 C807 1.355 . S
C808 C810 1.419 . S
C809 C804 1.425 . S
C809 C806 1.409 . S
C809 C807 1.415 . S
C810 H800 0.930 . S
C810 C808 1.419 . S
C810 C811 1.362 . S
C811 H801 0.930 . S
C811 C804 1.409 . S
C811 C810 1.362 . S
H812 C818 0.930 . S
H813 C821 0.930 . S
H814 C822 0.930 . S
H815 C823 0.930 . S
H816 C826 0.930 . S
H817 C827 0.930 . S
C818 H812 0.930 . S
C818 C819 1.355 . S
C818 C820 1.415 . S
C819 C818 1.355 . S
C819 C821 1.419 . S
C820 C818 1.415 . S
C820 C825 1.425 . S
C820 C827 1.409 . S
C821 H813 0.930 . S
C821 C819 1.419 . S
C821 C822 1.362 . S
C822 H814 0.930 . S
C822 C821 1.362 . S
C822 C825 1.409 . S
C823 H815 0.930 . S
C823 C824 1.355 . S
C823 C825 1.415 . S
C824 C823 1.355 . S
C824 C826 1.419 . S
C825 C820 1.425 . S
C825 C822 1.409 . S
C825 C823 1.415 . S
C826 H816 0.930 . S
C826 C824 1.419 . S
C826 C827 1.362 . S
C827 H817 0.930 . S
C827 C820 1.409 . S
C827 C826 1.362 . S
H828 C834 0.930 . S
H829 C837 0.930 . S
H830 C838 0.930 . S
H831 C839 0.930 . S
H832 C842 0.930 . S
H833 C843 0.930 . S
C834 H828 0.930 . S
C834 C835 1.355 . S
C834 C836 1.415 . S
C835 C834 1.355 . S
C835 C837 1.419 . S
C836 C834 1.415 . S
C836 C841 1.425 . S
C836 C843 1.409 . S
C837 H829 0.930 . S
C837 C835 1.419 . S
C837 C838 1.362 . S
C838 H830 0.930 . S
C838 C837 1.362 . S
C838 C841 1.409 . S
C839 H831 0.930 . S
C839 C840 1.355 . S
C839 C841 1.415 . S
C840 C839 1.355 . S
C840 C842 1.419 . S
C841 C836 1.425 . S
C841 C838 1.409 . S
C841 C839 1.415 . S
C842 H832 0.930 . S
C842 C840 1.419 . S
C842 C843 1.362 . S
C843 H833 0.930 . S
C843 C836 1.409 . S
C843 C842 1.362 . S
H844 C850 0.930 . S
H845 C853 0.930 . S
H846 C854 0.930 . S
H847 C855 0.930 . S
H848 C858 0.930 . S
H849 C859 0.930 . S
C850 H844 0.930 . S
C850 C851 1.355 . S
C850 C852 1.415 . S
C851 C850 1.355 . S
C851 C853 1.419 . S
C852 C850 1.415 . S
C852 C857 1.425 . S
C852 C859 1.409 . S
C853 H845 0.930 . S
C853 C851 1.419 . S
C853 C854 1.362 . S
C854 H846 0.930 . S
C854 C853 1.362 . S
C854 C857 1.409 . S
C855 H847 0.930 . S
C855 C856 1.355 . S
C855 C857 1.415 . S
C856 C855 1.355 . S
C856 C858 1.419 . S
C857 C852 1.425 . S
C857 C854 1.409 . S
C857 C855 1.415 . S
C858 H848 0.930 . S
C858 C856 1.419 . S
C858 C859 1.362 . S
C859 H849 0.930 . S
C859 C852 1.409 . S
C859 C858 1.362 . S
H860 C866 0.930 . S
H861 C869 0.930 . S
H862 C870 0.930 . S
H863 C871 0.930 . S
H864 C874 0.930 . S
H865 C875 0.930 . S
C866 H860 0.930 . S
C866 C867 1.355 . S
C866 C868 1.415 . S
C867 C866 1.355 . S
C867 C869 1.419 . S
C868 C866 1.415 . S
C868 C873 1.425 . S
C868 C875 1.409 . S
C869 H861 0.930 . S
C869 C867 1.419 . S
C869 C870 1.362 . S
C870 H862 0.930 . S
C870 C869 1.362 . S
C870 C873 1.409 . S
C871 H863 0.930 . S
C871 C872 1.355 . S
C871 C873 1.415 . S
C872 C871 1.355 . S
C872 C874 1.419 . S
C873 C868 1.425 . S
C873 C870 1.409 . S
C873 C871 1.415 . S
C874 H864 0.930 . S
C874 C872 1.419 . S
C874 C875 1.362 . S
C875 H865 0.930 . S
C875 C868 1.409 . S
C875 C874 1.362 . S
C403 N104 1.839 . S
C408 N5 1.849 . S
C419 N137 1.876 . S
C424 N38 1.867 . S
C435 N170 1.844 . S
C440 N71 1.837 . S
C451 N203 1.867 . S
C456 N302 1.876 . S
C467 N236 1.837 . S
C472 N335 1.841 . S
C483 N269 1.854 . S
C488 N368 1.866 . S
C499 C325 1.807 . S
C504 C28 1.779 . S
C515 C61 1.824 . S
C520 C358 1.811 . S
C531 C391 1.789 . S
C536 C94 1.822 . S
C547 C226 1.802 . S
C552 C127 1.779 . S
C563 C160 1.779 . S
C568 C259 1.801 . S
C579 C193 1.804 . S
C584 C292 1.826 . S
C595 N14 1.048 . S
C600 N113 1.036 . S
C611 N47 1.059 . S
C616 N146 1.059 . S
C627 N179 1.030 . S
C632 N80 1.043 . S
C643 N212 0.882 . S
C648 N311 0.888 . S
C659 N245 1.022 . S
C664 N344 1.005 . S
C675 N377 1.040 . S
C680 N278 1.027 . S
C691 C371 1.743 . S
C696 C8 1.735 . S
C707 C41 1.720 . S
C712 C206 1.759 . S
C723 C239 1.785 . S
C728 C74 1.710 . S
C739 C272 1.752 . S
C744 C107 1.757 . S
C755 C140 1.711 . S
C760 C305 1.772 . S
C771 C173 1.774 . S
C776 C338 1.711 . S
C787 C17 0.451 . S
C792 C281 0.430 . S
C803 C50 0.336 . S
C808 C314 0.350 . S
C819 C347 0.484 . S
C824 C83 0.348 . S
C835 C116 0.473 . S
C840 C380 0.297 . S
C851 C215 0.451 . S
C856 C149 0.431 . S
C867 C182 0.468 . S
C872 C248 0.291 . S
