# Generated by pormake.
# Topology dft, (4)-cn, num edge types: 1
# Building blocks:
#     Node 0, Type 0, BuildingBlock: UXUYUI_clean_sbu_0, # of connection points: 4
#     Node 1, Type 0, BuildingBlock: UXUYUI_clean_sbu_0, # of connection points: 4
#     Node 2, Type 0, BuildingBlock: UXUYUI_clean_sbu_0, # of connection points: 4
#     Node 3, Type 0, BuildingBlock: UXUYUI_clean_sbu_0, # of connection points: 4
#     Node 4, Type 0, BuildingBlock: UXUYUI_clean_sbu_0, # of connection points: 4
#     Node 5, Type 0, BuildingBlock: UXUYUI_clean_sbu_0, # of connection points: 4
#     Node 6, Type 0, BuildingBlock: UXUYUI_clean_sbu_0, # of connection points: 4
#     Node 7, Type 0, BuildingBlock: UXUYUI_clean_sbu_0, # of connection points: 4
#     Edge 8, Type (0, 0), BuildingBlock: CIFDUS_clean_linker_0, # of connection points: 2
#     Edge 9, Type (0, 0), BuildingBlock: CIFDUS_clean_linker_0, # of connection points: 2
#     Edge 10, Type (0, 0), BuildingBlock: CIFDUS_clean_linker_0, # of connection points: 2
#     Edge 11, Type (0, 0), BuildingBlock: CIFDUS_clean_linker_0, # of connection points: 2
#     Edge 12, Type (0, 0), BuildingBlock: CIFDUS_clean_linker_0, # of connection points: 2
#     Edge 13, Type (0, 0), BuildingBlock: CIFDUS_clean_linker_0, # of connection points: 2
#     Edge 14, Type (0, 0), BuildingBlock: CIFDUS_clean_linker_0, # of connection points: 2
#     Edge 15, Type (0, 0), BuildingBlock: CIFDUS_clean_linker_0, # of connection points: 2
#     Edge 16, Type (0, 0), BuildingBlock: CIFDUS_clean_linker_0, # of connection points: 2
#     Edge 17, Type (0, 0), BuildingBlock: CIFDUS_clean_linker_0, # of connection points: 2
#     Edge 18, Type (0, 0), BuildingBlock: CIFDUS_clean_linker_0, # of connection points: 2
#     Edge 19, Type (0, 0), BuildingBlock: CIFDUS_clean_linker_0, # of connection points: 2
#     Edge 20, Type (0, 0), BuildingBlock: CIFDUS_clean_linker_0, # of connection points: 2
#     Edge 21, Type (0, 0), BuildingBlock: CIFDUS_clean_linker_0, # of connection points: 2
#     Edge 22, Type (0, 0), BuildingBlock: CIFDUS_clean_linker_0, # of connection points: 2
#     Edge 23, Type (0, 0), BuildingBlock: CIFDUS_clean_linker_0, # of connection points: 2
# Relax obj value: 0.226
# Max RMSD: 0.178
# Mean RMSD: 0.177
data_MOF--net-dft--node1-UXUYUI_clean_sbu_0--edge1-CIFDUS_clean_linker_0
_symmetry_space_group_name_H-M    P1
_symmetry_Int_Tables_number       1
_symmetry_cell_setting            triclinic
loop_
_symmetry_equiv_pos_as_xyz
'x, y, z'
_cell_length_a     46.171535
_cell_length_b     46.046598
_cell_length_c     53.495528
_cell_angle_alpha  89.98007
_cell_angle_beta   89.976963
_cell_angle_gamma 89.984977
loop_
_atom_site_label
_atom_site_type_symbol
_atom_site_fract_x
_atom_site_fract_y
_atom_site_fract_z
_atom_type_partial_charge
Li0 Li 0.27496 0.02263 0.19874 0.0
Li1 Li 0.3192 0.99378 0.2015 0.0
Li2 Li 0.29183 0.99713 0.16254 0.0
Li3 Li 0.27342 0.96947 0.19827 0.0
C4 C 0.3261 0.04235 0.16216 0.0
N5 N 0.35485 0.06765 0.12244 0.0
C6 C 0.35554 0.03681 0.15836 0.0
C7 C 0.31132 0.06089 0.14586 0.0
C8 C 0.36968 0.04981 0.13816 0.0
C9 C 0.32622 0.0734 0.12585 0.0
C10 C 0.29974 0.99716 0.24793 0.0
C11 C 0.32751 0.97552 0.28125 0.0
N12 N 0.32859 0.0017 0.29298 0.0
C13 C 0.301 0.02383 0.26036 0.0
C14 C 0.31295 0.97276 0.2585 0.0
C15 C 0.31572 0.02568 0.28311 0.0
C16 C 0.23274 0.05212 0.22625 0.0
N17 N 0.25569 0.05614 0.21076 0.0
C18 C 0.24921 0.10757 0.212 0.0
C19 C 0.26439 0.08313 0.20379 0.0
C20 C 0.22478 0.10409 0.22744 0.0
C21 C 0.21671 0.07583 0.23462 0.0
H22 H 0.22657 0.03036 0.2317 0.0
H23 H 0.28304 0.08567 0.19177 0.0
C24 C 0.37413 0.96929 0.20887 0.0
N25 N 0.35705 0.99222 0.21497 0.0
C26 C 0.40297 0.96857 0.21648 0.0
C27 C 0.39588 0.01469 0.23718 0.0
C28 C 0.36725 0.0147 0.22886 0.0
C29 C 0.41437 0.99165 0.2306 0.0
H30 H 0.36565 0.95206 0.1973 0.0
H31 H 0.35332 0.03297 0.23295 0.0
C32 C 0.22557 0.00915 0.17671 0.0
N33 N 0.17189 0.03552 0.17941 0.0
C34 C 0.2032 0.99621 0.19035 0.0
C35 C 0.22057 0.0354 0.16428 0.0
C36 C 0.17623 0.0099 0.19151 0.0
C37 C 0.19331 0.04843 0.16595 0.0
C38 C 0.30815 0.93315 0.1743 0.0
C39 C 0.29968 0.92233 0.15101 0.0
C40 C 0.31499 0.91387 0.1936 0.0
C41 C 0.29796 0.89232 0.14749 0.0
C42 C 0.31294 0.88401 0.18935 0.0
N43 N 0.30454 0.87394 0.16658 0.0
C44 C 0.32053 0.99095 0.11616 0.0
C45 C 0.27113 0.00463 0.11337 0.0
C46 C 0.32309 0.99115 0.09015 0.0
N47 N 0.29486 0.99777 0.12715 0.0
C48 C 0.27271 0.00512 0.08735 0.0
C49 C 0.29894 0.99831 0.0754 0.0
H50 H 0.33897 0.9853 0.12764 0.0
H51 H 0.25088 0.00945 0.12257 0.0
C52 C 0.24647 0.93303 0.2333 0.0
N53 N 0.25132 0.93683 0.20846 0.0
C54 C 0.2288 0.91045 0.24159 0.0
C55 C 0.22191 0.89573 0.19861 0.0
C56 C 0.23935 0.91892 0.19111 0.0
C57 C 0.21622 0.89158 0.22412 0.0
H58 H 0.25578 0.94795 0.24665 0.0
H59 H 0.24286 0.92299 0.17145 0.0
O60 O 0.31172 0.02941 0.18154 0.0
O61 O 0.28565 0.99495 0.22554 0.0
O62 O 0.25227 0.99631 0.17567 0.0
O63 O 0.30974 0.96245 0.17819 0.0
H64 H 0.3673 0.02245 0.17072 0.0
H65 H 0.28848 0.06524 0.14845 0.0
H66 H 0.39244 0.04564 0.13492 0.0
H67 H 0.31501 0.08762 0.11298 0.0
H68 H 0.33798 0.95686 0.28958 0.0
H69 H 0.29092 0.04294 0.25243 0.0
H70 H 0.31215 0.95197 0.24911 0.0
H71 H 0.31699 0.0462 0.29289 0.0
H72 H 0.25657 0.1289 0.20636 0.0
H73 H 0.19782 0.07193 0.24612 0.0
H74 H 0.41647 0.95069 0.21038 0.0
H75 H 0.40358 0.03284 0.2482 0.0
H76 H 0.20666 0.97594 0.20012 0.0
H77 H 0.2377 0.04586 0.15383 0.0
H78 H 0.15876 0.00019 0.20209 0.0
H79 H 0.18922 0.06887 0.15662 0.0
H80 H 0.29422 0.93693 0.13588 0.0
H81 H 0.32156 0.92189 0.21173 0.0
H82 H 0.29131 0.88364 0.1296 0.0
H83 H 0.318 0.86884 0.20416 0.0
H84 H 0.34376 0.98593 0.08169 0.0
H85 H 0.25342 0.01022 0.07669 0.0
H86 H 0.22479 0.9079 0.26143 0.0
H87 H 0.21215 0.88184 0.18461 0.0
Li88 Li 0.99359 0.2927 0.66245 0.0
Li89 Li 0.99434 0.32314 0.69955 0.0
Li90 Li 0.02353 0.27896 0.69719 0.0
Li91 Li 0.97105 0.27692 0.70159 0.0
C92 C 0.05559 0.31981 0.67714 0.0
N93 N 0.11456 0.32942 0.68032 0.0
C94 C 0.06629 0.34247 0.69186 0.0
C95 C 0.0749 0.30208 0.66399 0.0
C96 C 0.09617 0.34698 0.69321 0.0
C97 C 0.10463 0.30726 0.66587 0.0
C98 C 0.94349 0.33405 0.67852 0.0
C99 C 0.91267 0.37006 0.69764 0.0
N100 N 0.91213 0.38507 0.67575 0.0
C101 C 0.94253 0.34977 0.65618 0.0
C102 C 0.92831 0.34417 0.6994 0.0
C103 C 0.92656 0.37553 0.65516 0.0
C104 C 0.96429 0.28702 0.61621 0.0
N105 N 0.99031 0.29265 0.62705 0.0
C106 C 0.01281 0.29758 0.58711 0.0
C107 C 0.0143 0.29806 0.61312 0.0
C108 C 0.98625 0.29185 0.57526 0.0
C109 C 0.96174 0.28655 0.5902 0.0
H110 H 0.94553 0.28295 0.62782 0.0
H111 H 0.03465 0.30258 0.62221 0.0
C112 C 0.99074 0.37014 0.73443 0.0
N113 N 0.99303 0.36235 0.70998 0.0
C114 C 0.98808 0.39944 0.74092 0.0
C115 C 0.99042 0.41178 0.69698 0.0
C116 C 0.99364 0.38246 0.69142 0.0
C117 C 0.98737 0.42044 0.72195 0.0
H118 H 0.99067 0.35364 0.7488 0.0
H119 H 0.99608 0.37556 0.67221 0.0
C120 C 0.99077 0.23669 0.65899 0.0
N121 N 0.97897 0.20358 0.61716 0.0
C122 C 0.96273 0.22637 0.65475 0.0
C123 C 0.01283 0.23011 0.642 0.0
C124 C 0.95722 0.20964 0.6335 0.0
C125 C 0.00641 0.21338 0.62094 0.0
C126 C 0.99065 0.28177 0.74742 0.0
C127 C 0.00461 0.2574 0.75731 0.0
C128 C 0.96658 0.29337 0.75973 0.0
C129 C 0.99406 0.24487 0.77929 0.0
C130 C 0.95666 0.28018 0.78164 0.0
N131 N 0.97048 0.2564 0.79087 0.0
C132 C 0.07758 0.2733 0.7225 0.0
C133 C 0.06169 0.23205 0.69984 0.0
C134 C 0.10213 0.25832 0.73069 0.0
N135 N 0.05812 0.26001 0.70724 0.0
C136 C 0.0857 0.21622 0.70773 0.0
C137 C 0.10633 0.22927 0.72343 0.0
H138 H 0.07384 0.29539 0.72853 0.0
H139 H 0.04548 0.22175 0.68832 0.0
C140 C 0.91319 0.2635 0.71688 0.0
N141 N 0.94108 0.25416 0.71573 0.0
C142 C 0.89174 0.2455 0.72686 0.0
C143 C 0.92826 0.20882 0.73425 0.0
C144 C 0.9489 0.22743 0.72408 0.0
C145 C 0.89918 0.21766 0.73554 0.0
H146 H 0.90752 0.28468 0.70972 0.0
H147 H 0.97124 0.22055 0.72267 0.0
O148 O 0.02641 0.31492 0.6757 0.0
O149 O 0.95946 0.30907 0.68003 0.0
O150 O 0.99646 0.25377 0.67932 0.0
O151 O 0.00026 0.29398 0.72563 0.0
H152 H 0.05173 0.35635 0.70225 0.0
H153 H 0.06706 0.28414 0.65283 0.0
H154 H 0.10475 0.3644 0.70457 0.0
H155 H 0.11981 0.29358 0.65595 0.0
H156 H 0.90104 0.37827 0.71372 0.0
H157 H 0.95429 0.34241 0.63989 0.0
H158 H 0.929 0.33241 0.71689 0.0
H159 H 0.92577 0.388 0.63804 0.0
H160 H 0.03238 0.30129 0.57643 0.0
H161 H 0.94075 0.2824 0.58193 0.0
H162 H 0.98595 0.40558 0.76038 0.0
H163 H 0.99037 0.42757 0.68196 0.0
H164 H 0.94533 0.23148 0.66756 0.0
H165 H 0.03457 0.23823 0.64484 0.0
H166 H 0.9356 0.2016 0.62992 0.0
H167 H 0.02322 0.2083 0.60754 0.0
H168 H 0.0232 0.24806 0.748 0.0
H169 H 0.95547 0.31216 0.7523 0.0
H170 H 0.00455 0.22592 0.78709 0.0
H171 H 0.93793 0.2888 0.79126 0.0
H172 H 0.11749 0.26929 0.74271 0.0
H173 H 0.08752 0.19367 0.70221 0.0
H174 H 0.86951 0.253 0.72719 0.0
H175 H 0.93502 0.18771 0.741 0.0
Li176 Li 0.67977 0.00777 0.20242 0.0
Li177 Li 0.72179 0.97782 0.19975 0.0
Li178 Li 0.7264 0.02998 0.19652 0.0
Li179 Li 0.70597 0.00068 0.16102 0.0
C180 C 0.70112 0.00882 0.24858 0.0
N181 N 0.6759 0.01228 0.29532 0.0
C182 C 0.69906 0.98407 0.26362 0.0
C183 C 0.69058 0.03536 0.25739 0.0
C184 C 0.68619 0.98626 0.28719 0.0
C185 C 0.67782 0.03665 0.28104 0.0
C186 C 0.67694 0.94368 0.18264 0.0
C187 C 0.66816 0.89801 0.16197 0.0
N188 N 0.66144 0.8858 0.1844 0.0
C189 C 0.66986 0.93074 0.20547 0.0
C190 C 0.67604 0.92727 0.16069 0.0
C191 C 0.66213 0.90141 0.20597 0.0
C192 C 0.62494 0.03276 0.20367 0.0
N193 N 0.64178 0.01284 0.21549 0.0
C194 C 0.60225 -0.00106 0.24176 0.0
C195 C 0.63109 0.99612 0.23431 0.0
C196 C 0.58405 0.0187 0.22933 0.0
C197 C 0.59593 0.03604 0.21028 0.0
H198 H 0.63375 0.04538 0.18844 0.0
H199 H 0.64463 0.98007 0.24317 0.0
C200 C 0.7606 0.95123 0.23166 0.0
N201 N 0.74232 0.94499 0.21248 0.0
C202 C 0.78013 0.93045 0.24024 0.0
C203 C 0.76084 0.89659 0.20999 0.0
C204 C 0.74206 0.91827 0.2016 0.0
C205 C 0.78051 0.90291 0.22917 0.0
H206 H 0.7609 0.97287 0.23951 0.0
H207 H 0.72843 0.91411 0.18564 0.0
C208 C 0.69156 0.06591 0.17112 0.0
N209 N 0.69476 0.12442 0.1601 0.0
C210 C 0.69927 0.07499 0.14709 0.0
C211 C 0.68515 0.08653 0.18946 0.0
C212 C 0.70084 0.10469 0.14191 0.0
C213 C 0.687 0.11602 0.18355 0.0
C214 C 0.77092 0.98604 0.17524 0.0
C215 C 0.79338 0.99527 0.19083 0.0
C216 C 0.77449 0.96114 0.16062 0.0
C217 C 0.81903 0.97919 0.19173 0.0
C218 C 0.80047 0.94565 0.16207 0.0
N219 N 0.82199 0.9549 0.17749 0.0
C220 C 0.75797 0.06636 0.22836 0.0
C221 C 0.76182 0.07853 0.18545 0.0
C222 C 0.77747 0.08824 0.23472 0.0
N223 N 0.75057 0.06197 0.2041 0.0
C224 C 0.78108 0.10098 0.19098 0.0
C225 C 0.78942 0.1059 0.2159 0.0
H226 H 0.7494 0.05229 0.24274 0.0
H227 H 0.75623 0.07398 0.16623 0.0
C228 C 0.67555 0.99821 0.11542 0.0
N229 N 0.7023 0.99802 0.126 0.0
C230 C 0.67266 0.99727 0.08944 0.0
C231 C 0.72488 0.99563 0.08593 0.0
C232 C 0.72676 0.99688 0.11192 0.0
C233 C 0.69757 0.99591 0.07439 0.0
H234 H 0.65653 -0.00068 0.12719 0.0
H235 H 0.74773 0.99733 0.12086 0.0
O236 O 0.71371 0.00714 0.22548 0.0
O237 O 0.68453 0.97232 0.18167 0.0
O238 O 0.69012 0.03695 0.17661 0.0
O239 O 0.7453 0.00094 0.17473 0.0
H240 H 0.707 0.96332 0.25708 0.0
H241 H 0.69218 0.05474 0.24605 0.0
H242 H 0.68431 0.96727 0.29897 0.0
H243 H 0.66945 0.05703 0.28805 0.0
H244 H 0.66742 0.885 0.14515 0.0
H245 H 0.6708 0.94306 0.22263 0.0
H246 H 0.68145 0.93702 0.14287 0.0
H247 H 0.65677 0.89105 0.22352 0.0
H248 H 0.59417 0.9853 0.2567 0.0
H249 H 0.58269 0.0511 0.19973 0.0
H250 H 0.79525 0.93601 0.25497 0.0
H251 H 0.76104 0.87564 0.20078 0.0
H252 H 0.70423 0.0593 0.13267 0.0
H253 H 0.6789 0.07982 0.20807 0.0
H254 H 0.70694 0.11206 0.12344 0.0
H255 H 0.68226 0.13224 0.19759 0.0
H256 H 0.7909 0.01442 0.20235 0.0
H257 H 0.75717 0.95354 0.14867 0.0
H258 H 0.83653 0.98594 0.20385 0.0
H259 H 0.80344 0.92618 0.15106 0.0
H260 H 0.78378 0.09061 0.2541 0.0
H261 H 0.78952 0.11411 0.17585 0.0
H262 H 0.65123 0.99742 0.08121 0.0
H263 H 0.7446 0.99509 0.07496 0.0
Li264 Li 0.97166 0.72106 0.69092 0.0
Li265 Li 0.02388 0.72866 0.69397 0.0
Li266 Li 0.00228 0.70475 0.65835 0.0
Li267 Li 0.00359 0.68052 0.69897 0.0
C268 C 0.00321 0.76005 0.64788 0.0
N269 N 0.01751 0.7873 0.60346 0.0
C270 C 0.03122 0.77072 0.64408 0.0
C271 C 0.98244 0.76342 0.62906 0.0
C272 C 0.03802 0.78442 0.62152 0.0
C273 C 0.99011 0.77717 0.60674 0.0
C274 C 0.0115 0.71127 0.7424 0.0
C275 C 0.05425 0.69719 0.76531 0.0
N276 N 0.04091 0.70477 0.78703 0.0
C277 C -0.00178 0.71892 0.76493 0.0
C278 C 0.03975 0.70032 0.74256 0.0
C279 C 0.01345 0.71547 0.7873 0.0
C280 C 0.92341 0.73079 0.72225 0.0
N281 N 0.93603 0.73842 0.70026 0.0
C282 C 0.90029 0.77491 0.69324 0.0
C283 C 0.92497 0.75988 0.68572 0.0
C284 C 0.8874 0.76854 0.71642 0.0
C285 C 0.89898 0.74573 0.7308 0.0
H286 H 0.93294 0.71379 0.73353 0.0
H287 H 0.93562 0.76572 0.66849 0.0
C288 C 0.08062 0.75148 0.70196 0.0
N289 N 0.0518 0.75497 0.70617 0.0
C290 C 0.10027 0.77223 0.71062 0.0
C291 C 0.06014 0.79921 0.72816 0.0
C292 C 0.04133 0.77804 0.71911 0.0
C293 C 0.09003 0.79665 0.72372 0.0
H294 H 0.08822 0.73288 0.69153 0.0
H295 H 0.01826 0.78002 0.72223 0.0
C296 C 0.9421 0.67713 0.67113 0.0
N297 N 0.88354 0.66726 0.6643 0.0
C298 C 0.92905 0.65236 0.68121 0.0
C299 C 0.92543 0.69644 0.65701 0.0
C300 C 0.89941 0.64785 0.67769 0.0
C301 C 0.89585 0.69124 0.65394 0.0
C302 C 0.04998 0.66909 0.66638 0.0
C303 C 0.03271 0.64692 0.65651 0.0
C304 C 0.08011 0.66713 0.66449 0.0
C305 C 0.04592 0.62311 0.64504 0.0
C306 C 0.09248 0.64295 0.65289 0.0
N307 N 0.07528 0.62162 0.64349 0.0
C308 C 0.03216 0.70563 0.61228 0.0
C309 C 0.98285 0.69195 0.60911 0.0
C310 C 0.0352 0.70473 0.58633 0.0
N311 N 0.00615 0.69973 0.62306 0.0
C312 C 0.98481 0.69107 0.58311 0.0
C313 C 0.01118 0.69785 0.57131 0.0
H314 H 0.05039 0.7117 0.62384 0.0
H315 H 0.96251 0.68711 0.61806 0.0
C316 C 0.98253 0.63569 0.7289 0.0
N317 N 0.00681 0.64504 0.71705 0.0
C318 C 0.98138 0.60773 0.73891 0.0
C319 C 0.03146 0.60096 0.72707 0.0
C320 C 0.03154 0.62898 0.71715 0.0
C321 C 0.00574 0.58961 0.7371 0.0
H322 H 0.9636 0.64951 0.72955 0.0
H323 H 0.05104 0.63734 0.70867 0.0
O324 O 0.99638 0.7458 0.6696 0.0
O325 O 0.99678 0.71458 0.72039 0.0
O326 O 0.97115 0.68198 0.67445 0.0
O327 O 0.03769 0.69283 0.67756 0.0
H328 H 0.0477 0.76816 0.6582 0.0
H329 H 0.96075 0.75507 0.63139 0.0
H330 H 0.05965 0.79263 0.61833 0.0
H331 H 0.97431 0.77967 0.59197 0.0
H332 H 0.07611 0.68875 0.7657 0.0
H333 H 0.97637 0.72746 0.76511 0.0
H334 H 0.05043 0.6943 0.72534 0.0
H335 H 0.00343 0.7213 0.80488 0.0
H336 H 0.89183 0.7918 0.6812 0.0
H337 H 0.89008 0.74023 0.74892 0.0
H338 H 0.1231 0.76956 0.70659 0.0
H339 H 0.05136 0.81739 0.73853 0.0
H340 H 0.94168 0.63648 0.69128 0.0
H341 H 0.93523 0.71538 0.64863 0.0
H342 H 0.88906 0.62881 0.68549 0.0
H343 H 0.8827 0.70623 0.64329 0.0
H344 H 0.00938 0.64795 0.65768 0.0
H345 H 0.0938 0.6841 0.67195 0.0
H346 H 0.03282 0.60579 0.63738 0.0
H347 H 0.11578 0.64115 0.65134 0.0
H348 H 0.05609 0.70963 0.57815 0.0
H349 H 0.96558 0.68602 0.5724 0.0
H350 H 0.96131 0.59992 0.74696 0.0
H351 H 0.05075 0.58772 0.7254 0.0
Li352 Li 0.26981 0.0322 0.80075 0.0
Li353 Li 0.28296 0.00715 0.84006 0.0
Li354 Li 0.31381 0.00448 0.8033 0.0
Li355 Li 0.26873 0.98074 0.80368 0.0
C356 C 0.30153 0.0643 0.83682 0.0
N357 N 0.29683 0.11411 0.86532 0.0
C358 C 0.27481 0.07227 0.84705 0.0
C359 C 0.32585 0.08163 0.84112 0.0
C360 C 0.27288 0.09753 0.8614 0.0
C361 C 0.32303 0.10675 0.85556 0.0
C362 C 0.22093 0.99243 0.82774 0.0
C363 C 0.19692 0.95403 0.85037 0.0
N364 N 0.17314 0.95749 0.83567 0.0
C365 C 0.1962 0.99572 0.81295 0.0
C366 C 0.22129 0.97148 0.84665 0.0
C367 C 0.17229 0.9778 0.81721 0.0
C368 C 0.22941 0.05725 0.76953 0.0
N369 N 0.25134 0.06448 0.78526 0.0
C370 C 0.24425 0.11494 0.77671 0.0
C371 C 0.25949 0.09262 0.78853 0.0
C372 C 0.22098 0.10807 0.76092 0.0
C373 C 0.21386 0.07879 0.75709 0.0
H374 H 0.22407 0.03464 0.76665 0.0
H375 H 0.27783 0.09791 0.80015 0.0
C376 C 0.30851 0.00319 0.88727 0.0
N377 N 0.28332 0.0095 0.87535 0.0
C378 C 0.31023 0.00518 0.91327 0.0
C379 C 0.26004 0.02024 0.91411 0.0
C380 C 0.25932 0.01798 0.88811 0.0
C381 C 0.28576 0.0138 0.92704 0.0
H382 H 0.3273 0.99677 0.87652 0.0
H383 H 0.23962 0.02304 0.87808 0.0
C384 C 0.29524 0.01907 0.75592 0.0
N385 N 0.31604 0.04945 0.71513 0.0
C386 C 0.28979 0.00911 0.73171 0.0
C387 C 0.31128 0.04452 0.75939 0.0
C388 C 0.30049 0.02476 0.71133 0.0
C389 C 0.3216 0.05955 0.73853 0.0
C390 C 0.31608 0.94751 0.81922 0.0
C391 C 0.31711 0.93886 0.79419 0.0
C392 C 0.32986 0.93071 0.83743 0.0
C393 C 0.33195 0.91349 0.78779 0.0
C394 C 0.34447 0.90546 0.83028 0.0
N395 N 0.34521 0.89745 0.80582 0.0
C396 C 0.37241 0.01317 0.81047 0.0
C397 C 0.3617 0.99105 0.77151 0.0
C398 C 0.40194 0.01231 0.80527 0.0
N399 N 0.35307 0.00268 0.79366 0.0
C400 C 0.39111 0.98972 0.76553 0.0
C401 C 0.41163 0.00047 0.78255 0.0
H402 H 0.36482 0.02193 0.82805 0.0
H403 H 0.34581 0.98267 0.75855 0.0
C404 C 0.23343 0.95077 0.77033 0.0
N405 N 0.24765 0.94793 0.7924 0.0
C406 C 0.21609 0.92826 0.76146 0.0
C407 C 0.22867 0.90014 0.79808 0.0
C408 C 0.24587 0.92321 0.80622 0.0
C409 C 0.21325 0.90264 0.77554 0.0
H410 H 0.23523 0.97077 0.75983 0.0
H411 H 0.25727 0.9217 0.82383 0.0
O412 O 0.30419 0.0394 0.82306 0.0
O413 O 0.24489 0.00917 0.82341 0.0
O414 O 0.28469 0.00386 0.77595 0.0
O415 O 0.30187 0.97235 0.82607 0.0
H416 H 0.25569 0.05927 0.84381 0.0
H417 H 0.3467 0.07572 0.83338 0.0
H418 H 0.25234 0.10397 0.86939 0.0
H419 H 0.34168 0.12038 0.85903 0.0
H420 H 0.19699 0.93759 0.86482 0.0
H421 H 0.19549 0.01182 0.79826 0.0
H422 H 0.2404 0.96832 0.85803 0.0
H423 H 0.15306 0.98001 0.80582 0.0
H424 H 0.25066 0.13729 0.77975 0.0
H425 H 0.19602 0.07263 0.74505 0.0
H426 H 0.33058 0.00039 0.92243 0.0
H427 H 0.24058 0.02663 0.92398 0.0
H428 H 0.27741 0.98945 0.72872 0.0
H429 H 0.31579 0.05265 0.77792 0.0
H430 H 0.29643 0.01728 0.69249 0.0
H431 H 0.33403 0.07926 0.74094 0.0
H432 H 0.30661 0.95154 0.7798 0.0
H433 H 0.32928 0.93714 0.85689 0.0
H434 H 0.33293 0.90656 0.76849 0.0
H435 H 0.35525 0.89225 0.84418 0.0
H436 H 0.41706 0.02029 0.81913 0.0
H437 H 0.39769 0.98053 0.74779 0.0
H438 H 0.20494 0.93095 0.7438 0.0
H439 H 0.22683 0.88093 0.80966 0.0
Li440 Li 0.00561 0.31947 0.29951 0.0
Li441 Li 0.00371 0.29383 0.33951 0.0
Li442 Li 0.03306 0.27595 0.30467 0.0
Li443 Li 0.98012 0.27349 0.30343 0.0
C444 C 0.06626 0.31432 0.32788 0.0
N445 N 0.12522 0.31508 0.3366 0.0
C446 C 0.07698 0.30904 0.35189 0.0
C447 C 0.0855 0.32021 0.30835 0.0
C448 C 0.10687 0.30949 0.35591 0.0
C449 C 0.11524 0.32041 0.31312 0.0
C450 C 0.95526 0.32401 0.33795 0.0
C451 C 0.92257 0.32229 0.3731 0.0
N452 N 0.92498 0.35158 0.37566 0.0
C453 C 0.95736 0.3541 0.34088 0.0
C454 C 0.93765 0.30796 0.35412 0.0
C455 C 0.94188 0.36763 0.36007 0.0
C456 C 0.97763 0.36502 0.27489 0.0
N457 N 0.00344 0.3567 0.28475 0.0
C458 C 0.02298 0.40417 0.27881 0.0
C459 C 0.02614 0.37535 0.28641 0.0
C460 C 0.9961 0.41378 0.26967 0.0
C461 C 0.97349 0.39361 0.26709 0.0
H462 H 0.95986 0.34975 0.27415 0.0
H463 H 0.04625 0.36823 0.29471 0.0
C464 C 0.00026 0.27357 0.38907 0.0
N465 N 0.00215 0.29789 0.37479 0.0
C466 C -0.0008 0.27572 0.41506 0.0
C467 C 0.00216 0.32795 0.41117 0.0
C468 C 0.00348 0.32474 0.38525 0.0
C469 C 2e-05 0.3032 0.42648 0.0
H470 H -9e-05 0.25246 0.3803 0.0
H471 H 0.00556 0.34368 0.37343 0.0
C472 C 0.00419 0.29885 0.25417 0.0
N473 N 0.99744 0.32806 0.20945 0.0
C474 C 0.97707 0.29992 0.24261 0.0
C475 C 0.02792 0.31243 0.24293 0.0
C476 C 0.9741 0.31484 0.22001 0.0
C477 C 0.02404 0.32716 0.22034 0.0
C478 C 0.99649 0.22628 0.32773 0.0
C479 C 0.01066 0.20411 0.31471 0.0
C480 C 0.97098 0.22012 0.34079 0.0
C481 C -0.00111 0.17616 0.3148 0.0
C482 C 0.95987 0.19191 0.34036 0.0
N483 N 0.97393 0.1707 0.32748 0.0
C484 C 0.08442 0.24521 0.31507 0.0
C485 C 0.07189 0.24775 0.27217 0.0
C486 C 0.10793 0.22727 0.30965 0.0
N487 N 0.06703 0.25501 0.29641 0.0
C488 C 0.09483 0.2294 0.26593 0.0
C489 C 0.11307 0.21857 0.28484 0.0
H490 H 0.07955 0.2507 0.33426 0.0
H491 H 0.05725 0.25529 0.25779 0.0
C492 C 0.92075 0.26011 0.29737 0.0
N493 N 0.94816 0.25165 0.29173 0.0
C494 C 0.89715 0.24384 0.28906 0.0
C495 C 0.93054 0.2107 0.26906 0.0
C496 C 0.95342 0.22782 0.27749 0.0
C497 C 0.90188 0.21857 0.27487 0.0
H498 H 0.91719 0.27956 0.30823 0.0
H499 H 0.97548 0.22196 0.27292 0.0
O500 O 0.03709 0.31378 0.32354 0.0
O501 O 0.97054 0.31028 0.3195 0.0
O502 O 0.00743 0.28485 0.27653 0.0
O503 O 0.00741 0.25389 0.32757 0.0
H504 H 0.0624 0.30444 0.36723 0.0
H505 H 0.07756 0.32425 0.28965 0.0
H506 H 0.11549 0.30532 0.37437 0.0
H507 H 0.13039 0.32474 0.29815 0.0
H508 H 0.90901 0.31012 0.38584 0.0
H509 H 0.97105 0.36686 0.3287 0.0
H510 H 0.93589 0.28465 0.35219 0.0
H511 H 0.9434 0.39089 0.36262 0.0
H512 H 0.04081 0.41912 0.28148 0.0
H513 H 0.9525 0.40013 0.26 0.0
H514 H -0.00172 0.256 0.42605 0.0
H515 H 0.00265 0.34958 0.41908 0.0
H516 H 0.95847 0.28959 0.25111 0.0
H517 H 0.04904 0.3118 0.25167 0.0
H518 H 0.95321 0.31598 0.21091 0.0
H519 H 0.04217 0.33791 0.21149 0.0
H520 H 0.03038 0.20845 0.30448 0.0
H521 H 0.9597 0.23703 0.3509 0.0
H522 H 0.00954 0.15883 0.30471 0.0
H523 H 0.94004 0.18689 0.35023 0.0
H524 H 0.12153 0.21984 0.32484 0.0
H525 H 0.09742 0.22286 0.24663 0.0
H526 H 0.87546 0.25111 0.29355 0.0
H527 H 0.93534 0.19125 0.25847 0.0
Li528 Li 0.71267 0.98978 0.83921 0.0
Li529 Li 0.72345 0.96549 0.7982 0.0
Li530 Li 0.72794 0.01731 0.80266 0.0
Li531 Li 0.68168 0.99572 0.80089 0.0
C532 C 0.77747 0.9959 0.81933 0.0
N533 N 0.83324 0.0168 0.81424 0.0
C534 C 0.79364 0.9893 0.79798 0.0
C535 C 0.78968 0.01303 0.83814 0.0
C536 C 0.82179 0.00012 0.79574 0.0
C537 C 0.81792 0.0234 0.83521 0.0
C538 C 0.68845 0.93037 0.82288 0.0
C539 C 0.67813 0.88317 0.80548 0.0
N540 N 0.6877 0.87054 0.82694 0.0
C541 C 0.69803 0.91694 0.8448 0.0
C542 C 0.67825 0.91338 0.8031 0.0
C543 C 0.69752 0.88666 0.84648 0.0
C544 C 0.68703 0.98937 0.88652 0.0
N545 N 0.71262 0.98606 0.87433 0.0
C546 C 0.73737 0.97754 0.91279 0.0
C547 C 0.73751 0.97995 0.88679 0.0
C548 C 0.71129 0.98112 0.92604 0.0
C549 C 0.68583 0.98693 0.9125 0.0
H550 H 0.66755 0.99394 0.87598 0.0
H551 H 0.75745 0.97696 0.87653 0.0
C552 C 0.74499 0.93242 0.75844 0.0
N553 N 0.74165 0.93268 0.78367 0.0
C554 C 0.76225 0.91139 0.7471 0.0
C555 C 0.77152 0.89058 0.78784 0.0
C556 C 0.75432 0.91228 0.79845 0.0
C557 C 0.7762 0.89051 0.76192 0.0
H558 H 0.73546 0.94942 0.74721 0.0
H559 H 0.75215 0.91363 0.81853 0.0
C560 C 0.69758 0.05426 0.83107 0.0
N561 N 0.70307 0.11243 0.84285 0.0
C562 C 0.69254 0.07548 0.81288 0.0
C563 C 0.7053 0.06264 0.85528 0.0
C564 C 0.69549 0.10476 0.81919 0.0
C565 C 0.70797 0.09216 0.86087 0.0
C566 C 0.69374 -0.00036 0.75421 0.0
C567 C 0.68997 0.02735 0.74403 0.0
C568 C 0.67876 0.9761 0.74398 0.0
C569 C 0.67114 0.03105 0.72384 0.0
C570 C 0.66008 0.9807 0.72383 0.0
N571 N 0.65669 0.00786 0.71426 0.0
C572 C 0.7609 0.04774 0.76777 0.0
C573 C 0.76322 0.06882 0.80812 0.0
C574 C 0.78066 0.06795 0.75858 0.0
N575 N 0.75245 0.04858 0.79209 0.0
C576 C 0.78304 0.08953 0.7997 0.0
C577 C 0.79216 0.08908 0.77465 0.0
H578 H 0.75289 0.03084 0.7556 0.0
H579 H 0.75725 0.06834 0.82762 0.0
C580 C 0.62396 0.97754 0.79528 0.0
N581 N 0.6423 0.00014 0.79137 0.0
C582 C 0.5944 0.98068 0.79069 0.0
C583 C 0.60328 0.03007 0.7774 0.0
C584 C 0.63262 0.02602 0.78245 0.0
C585 C 0.58364 0.00739 0.78199 0.0
H586 H 0.63212 0.95736 0.80277 0.0
H587 H 0.64755 0.04372 0.77968 0.0
O588 O 0.74959 0.9862 0.82152 0.0
O589 O 0.68901 0.95999 0.82079 0.0
O590 O 0.69459 0.02547 0.82536 0.0
O591 O 0.7118 0.9956 0.7742 0.0
H592 H 0.78443 0.97631 0.78314 0.0
H593 H 0.7773 0.01876 0.85459 0.0
H594 H 0.83449 0.99534 0.77925 0.0
H595 H 0.82758 0.03685 0.84952 0.0
H596 H 0.67045 0.86976 0.79027 0.0
H597 H 0.70596 0.92968 0.86032 0.0
H598 H 0.67067 0.92339 0.78604 0.0
H599 H 0.70499 0.87597 0.86329 0.0
H600 H 0.75758 0.97335 0.92241 0.0
H601 H 0.66516 0.98934 0.92183 0.0
H602 H 0.76547 0.91203 0.72705 0.0
H603 H 0.78236 0.8751 0.79988 0.0
H604 H 0.68702 0.06943 0.79397 0.0
H605 H 0.70929 0.04656 0.8696 0.0
H606 H 0.69188 0.1214 0.80525 0.0
H607 H 0.71399 0.09895 0.87951 0.0
H608 H 0.70111 0.0459 0.75183 0.0
H609 H 0.68138 0.95452 0.75162 0.0
H610 H 0.6679 0.0524 0.71587 0.0
H611 H 0.64826 0.96269 0.71582 0.0
H612 H 0.78703 0.06688 0.73912 0.0
H613 H 0.79187 0.10508 0.81283 0.0
H614 H 0.58003 0.96277 0.79496 0.0
H615 H 0.59599 0.05091 0.77044 0.0
Li616 Li 0.96419 0.7216 0.30008 0.0
Li617 Li 0.0171 0.72662 0.30094 0.0
Li618 Li 0.99407 0.67941 0.29528 0.0
Li619 Li 0.99282 0.70384 0.33564 0.0
C620 C -0.00199 0.70094 0.25084 0.0
N621 N 0.01071 0.67219 0.20688 0.0
C622 C 0.02676 0.69785 0.24312 0.0
C623 C 0.9757 0.68946 0.23621 0.0
C624 C 0.03274 0.68324 0.22083 0.0
C625 C 0.98258 0.67498 0.21405 0.0
C626 C 0.99624 0.77235 0.326 0.0
C627 C 0.02965 0.8088 0.34076 0.0
N628 N 0.01426 0.82953 0.32846 0.0
C629 C 0.98063 0.79407 0.31364 0.0
C630 C 0.02082 0.7798 0.33984 0.0
C631 C 0.99013 0.82283 0.31508 0.0
C632 C 0.90945 0.7489 0.30704 0.0
N633 N 0.93004 0.74133 0.29005 0.0
C634 C 0.90519 0.76694 0.25775 0.0
C635 C 0.92829 0.74985 0.26578 0.0
C636 C 0.88366 0.77507 0.27486 0.0
C637 C 0.88562 0.76551 0.29969 0.0
H638 H 0.9119 0.74266 0.3264 0.0
H639 H 0.94536 0.7442 0.25284 0.0
C640 C 0.07574 0.74545 0.29554 0.0
N641 N 0.04752 0.75139 0.29038 0.0
C642 C 0.0974 0.76492 0.28833 0.0
C643 C 0.0605 0.79581 0.27034 0.0
C644 C 0.0397 0.77552 0.27741 0.0
C645 C 0.08969 0.79067 0.27599 0.0
H646 H 0.0814 0.72572 0.30533 0.0
H647 H 0.01717 0.77918 0.2729 0.0
C648 C 0.93172 0.68181 0.32257 0.0
N649 N 0.87284 0.67907 0.33164 0.0
C650 C 0.92111 0.68485 0.34691 0.0
C651 C 0.91236 0.67731 0.30285 0.0
C652 C 0.89128 0.68339 0.35111 0.0
C653 C 0.88268 0.67604 0.30782 0.0
C654 C 0.04381 0.67855 0.33588 0.0
C655 C 0.04336 0.64874 0.34085 0.0
C656 C 0.06023 0.69697 0.35105 0.0
C657 C 0.05932 0.63787 0.36097 0.0
C658 C 0.07583 0.68527 0.37103 0.0
N659 N 0.07506 0.65621 0.37554 0.0
C660 C 0.02393 0.63009 0.27734 0.0
C661 C 0.97307 0.62894 0.2716 0.0
C662 C 0.02638 0.60151 0.26888 0.0
N663 N 0.99744 0.64273 0.27936 0.0
C664 C 0.97455 0.60061 0.26255 0.0
C665 C 0.00132 0.58606 0.26206 0.0
H666 H 0.04301 0.64176 0.28338 0.0
H667 H 0.95237 0.63965 0.27304 0.0
C668 C 0.99468 0.7223 0.38593 0.0
N669 N 0.9934 0.69856 0.37092 0.0
C670 C 0.99578 0.7191 0.41184 0.0
C671 C 0.99392 0.66702 0.40641 0.0
C672 C 0.99253 0.67127 0.38059 0.0
C673 C 0.99566 0.69115 0.42245 0.0
H674 H 0.99468 0.74376 0.3778 0.0
H675 H 0.99091 0.65279 0.36822 0.0
O676 O 0.99179 0.71441 0.27296 0.0
O677 O 0.98757 0.74397 0.32448 0.0
O678 O 0.96089 0.6831 0.3181 0.0
O679 O 0.02795 0.6897 0.3165 0.0
H680 H 0.04429 0.70637 0.25436 0.0
H681 H 0.95335 0.69136 0.2421 0.0
H682 H 0.0549 0.68058 0.21465 0.0
H683 H 0.96556 0.66585 0.2026 0.0
H684 H 0.04877 0.81481 0.35123 0.0
H685 H 0.96156 0.78881 0.30286 0.0
H686 H 0.03314 0.76334 0.34955 0.0
H687 H 0.97835 0.83981 0.30548 0.0
H688 H 0.90437 0.77415 0.23848 0.0
H689 H 0.8696 0.77187 0.31343 0.0
H690 H 0.1198 0.76027 0.29283 0.0
H691 H 0.0539 0.81527 0.26047 0.0
H692 H 0.93567 0.68842 0.36241 0.0
H693 H 0.92006 0.67556 0.28383 0.0
H694 H 0.88277 0.68576 0.36984 0.0
H695 H 0.86745 0.67282 0.29271 0.0
H696 H 0.03042 0.63419 0.32961 0.0
H697 H 0.06075 0.72008 0.34757 0.0
H698 H 0.05902 0.61488 0.36511 0.0
H699 H 0.08851 0.69931 0.38299 0.0
H700 H 0.04747 0.59125 0.26901 0.0
H701 H 0.95476 0.58991 0.25684 0.0
H702 H 0.99633 0.73838 0.42341 0.0
H703 H 0.99394 0.64507 0.41366 0.0
H704 H 0.27619 0.03767 0.04301 0.0
H705 H 0.32577 0.95827 0.04562 0.0
H706 H 0.32693 0.95662 -1e-05 0.0
H707 H 0.3119 0.97648 0.95943 0.0
H708 H 0.26219 0.05583 0.95686 0.0
H709 H 0.26246 0.05834 0.00244 0.0
C710 C 0.28713 0.01993 0.03358 0.0
C711 C 0.30076 0.99807 0.0477 0.0
C712 C 0.28746 0.01895 0.00738 0.0
C713 C 0.31534 0.97552 0.03521 0.0
C714 C 0.31584 0.97445 0.00912 0.0
C715 C 0.30144 0.99453 0.96882 0.0
C716 C 0.28692 0.01584 0.95473 0.0
C717 C 0.30178 0.99592 0.99502 0.0
C718 C 0.27313 0.03887 0.96724 0.0
C719 C 0.27341 0.04043 0.9933 0.0
H720 H 0.01353 0.32746 0.54209 0.0
H721 H 0.95455 0.25482 0.54595 0.0
H722 H 0.95239 0.25305 0.5004 0.0
H723 H 0.96834 0.27114 0.45953 0.0
H724 H 0.03022 0.34134 0.45586 0.0
H725 H 0.03004 0.34502 0.50131 0.0
C726 C 0.00041 0.31102 0.53302 0.0
C727 C 0.98431 0.29125 0.54751 0.0
C728 C -0.00026 0.3097 0.50683 0.0
C729 C 0.9669 0.27056 0.53534 0.0
C730 C 0.96581 0.26938 0.50926 0.0
C731 C 0.98202 0.28707 0.46864 0.0
C732 C -0.00072 0.30589 0.45419 0.0
C733 C 0.98233 0.28868 0.49483 0.0
C734 C 0.01638 0.32683 0.46639 0.0
C735 C 0.01648 0.32881 0.49243 0.0
H736 H 0.67993 0.01416 0.95857 0.0
H737 H 0.74145 0.94355 0.95602 0.0
H738 H 0.74235 0.94176 0.00157 0.0
H739 H 0.72629 0.96071 0.04217 0.0
H740 H 0.66379 0.03026 0.04478 0.0
H741 H 0.66198 0.03139 0.9991 0.0
C742 C 0.69321 0.99805 0.96792 0.0
C743 C 0.71075 0.97917 0.95379 0.0
C744 C 0.69335 0.99686 0.99413 0.0
C745 C 0.72815 0.95875 0.96635 0.0
C746 C 0.72854 0.95756 0.99242 0.0
C747 C 0.71231 0.97612 0.0327 0.0
C748 C 0.69531 0.99546 0.04677 0.0
C749 C 0.71142 0.97666 0.00649 0.0
C750 C 0.67693 0.01502 0.03433 0.0
C751 C 0.67602 0.01578 0.00823 0.0
H752 H 0.0271 0.72265 0.45598 0.0
H753 H 0.9671 0.65094 0.45113 0.0
H754 H 0.96833 0.6454 0.49644 0.0
H755 H 0.98501 0.66196 0.53753 0.0
H756 H 0.04164 0.73639 0.54249 0.0
H757 H 0.04322 0.73963 0.49706 0.0
C758 C 0.01403 0.70598 0.4648 0.0
C759 C 0.99697 0.68732 0.45005 0.0
C760 C 0.01429 0.70331 0.49093 0.0
C761 C 0.98075 0.6654 0.46188 0.0
C762 C 0.98126 0.66233 0.48785 0.0
C763 C 0.99753 0.67906 0.52873 0.0
C764 C 0.01316 0.69887 0.54355 0.0
C765 C 0.99773 0.68134 0.50257 0.0
C766 C 0.02975 0.7205 0.53167 0.0
C767 C 0.03047 0.72256 0.50564 0.0
H768 H 0.4496 0.03913 0.23056 0.0
H769 H 0.45021 0.9465 0.2434 0.0
H770 H 0.50293 0.94713 0.24606 0.0
H771 H 0.54867 0.97306 0.24019 0.0
H772 H 0.54801 0.06607 0.22967 0.0
H773 H 0.49521 0.06613 0.23102 0.0
C774 C 0.46108 0.01914 0.23465 0.0
C775 C 0.44586 0.99273 0.23634 0.0
C776 C 0.49139 0.01965 0.23632 0.0
C777 C 0.46135 0.96706 0.24136 0.0
C778 C 0.49152 0.9674 0.24301 0.0
C779 C 0.53713 0.99352 0.23889 0.0
C780 C 0.55239 0.01946 0.2344 0.0
C781 C 0.50677 0.99345 0.23982 0.0
C782 C 0.53685 0.04566 0.2325 0.0
C783 C 0.50664 0.04575 0.23338 0.0
H784 H 0.02242 0.45475 0.74976 0.0
H785 H 0.94393 0.4552 0.70621 0.0
H786 H 0.94057 0.508 0.71029 0.0
H787 H 0.96309 0.55401 0.72176 0.0
H788 H 0.04354 0.55451 0.76265 0.0
H789 H 0.04307 0.50132 0.76431 0.0
C790 C 0.00434 0.46651 0.74167 0.0
C791 C 0.98344 0.45145 0.72771 0.0
C792 C 0.00311 0.49692 0.74342 0.0
C793 C 0.96023 0.46662 0.71697 0.0
C794 C 0.95836 0.49671 0.71926 0.0
C795 C 0.98011 0.54252 0.73165 0.0
C796 C 0.00328 0.55808 0.74211 0.0
C797 C 0.9801 0.51212 0.73182 0.0
C798 C 0.02554 0.5429 0.75437 0.0
C799 C 0.02529 0.51255 0.75528 0.0
H800 H 0.54293 0.96984 0.7641 0.0
H801 H 0.5531 0.05576 0.79525 0.0
H802 H 0.50077 0.06214 0.79577 0.0
H803 H 0.45215 0.04194 0.79077 0.0
H804 H 0.44157 0.95495 0.76227 0.0
H805 H 0.49399 0.95044 0.75721 0.0
C806 C 0.53369 0.98997 0.77099 0.0
C807 C 0.55197 0.01219 0.77974 0.0
C808 C 0.5035 0.99326 0.77184 0.0
C809 C 0.53964 0.03838 0.78812 0.0
C810 C 0.50967 0.04198 0.78865 0.0
C811 C 0.46133 0.02199 0.78346 0.0
C812 C 0.44306 -0.00128 0.77718 0.0
C813 C 0.49142 0.01934 0.78109 0.0
C814 C 0.45518 0.97324 0.76715 0.0
C815 C 0.48515 0.97057 0.76442 0.0
H816 H 0.03104 0.45337 0.24651 0.0
H817 H 0.94927 0.44475 0.28496 0.0
H818 H 0.94259 0.49716 0.28386 0.0
H819 H 0.96221 0.54529 0.27624 0.0
H820 H 0.04372 0.55506 0.23752 0.0
H821 H 0.04851 0.50227 0.23494 0.0
C822 C 0.01167 0.46302 0.25443 0.0
C823 C 0.99074 0.4452 0.26585 0.0
C824 C 0.0081 0.49332 0.25404 0.0
C825 C 0.96556 0.45791 0.27579 0.0
C826 C 0.96183 0.48792 0.27538 0.0
C827 C 0.98068 0.53607 0.26657 0.0
C828 C 0.00264 0.55427 0.25723 0.0
C829 C 0.98324 0.50583 0.26506 0.0
C830 C 0.0267 0.54162 0.24528 0.0
C831 C 0.02941 0.51142 0.2437 0.0
H832 H 0.14737 0.21572 0.24318 0.0
H833 H 0.13003 0.1719 0.31305 0.0
H834 H 0.16504 0.13447 0.30243 0.0
H835 H 0.19831 0.11243 0.27242 0.0
H836 H 0.21175 0.15317 0.20061 0.0
H837 H 0.18067 0.19349 0.21299 0.0
C838 C 0.15105 0.19792 0.25605 0.0
C839 C 0.13593 0.19682 0.27891 0.0
C840 C 0.17053 0.17578 0.24948 0.0
C841 C 0.14161 0.1738 0.29553 0.0
C842 C 0.16146 0.15211 0.28937 0.0
C843 C 0.1943 0.12997 0.25934 0.0
C844 C 0.20729 0.12955 0.23554 0.0
C845 C 0.17567 0.15264 0.26624 0.0
C846 C 0.20238 0.15297 0.21916 0.0
C847 C 0.18437 0.17597 0.22614 0.0
H848 H 0.89438 0.16006 0.72602 0.0
H849 H 0.85335 0.23003 0.76634 0.0
H850 H 0.81646 0.19648 0.78195 0.0
H851 H 0.79602 0.1471 0.78416 0.0
H852 H 0.83834 0.07724 0.74463 0.0
H853 H 0.87472 0.11094 0.72883 0.0
C854 C 0.87758 0.16794 0.73847 0.0
C855 C 0.87671 0.19747 0.7451 0.0
C856 C 0.85665 0.14856 0.74748 0.0
C857 C 0.85438 0.20744 0.76078 0.0
C858 C 0.83338 0.18824 0.76982 0.0
C859 C 0.81335 0.13925 0.77225 0.0
C860 C 0.81437 0.10975 0.76547 0.0
C861 C 0.83433 0.15874 0.76331 0.0
C862 C 0.83677 0.09994 0.7498 0.0
C863 C 0.85769 0.11914 0.74086 0.0
H864 H 0.89057 0.82773 0.254 0.0
H865 H 0.82524 0.76768 0.2792 0.0
H866 H 0.78705 0.80172 0.2665 0.0
H867 H 0.77253 0.84898 0.24835 0.0
H868 H 0.83842 0.90988 0.22579 0.0
H869 H 0.87629 0.87514 0.2372 0.0
C870 C 0.86793 0.82211 0.25652 0.0
C871 C 0.86052 0.7953 0.26721 0.0
C872 C 0.84633 0.84194 0.2497 0.0
C873 C 0.83125 0.78829 0.27092 0.0
C874 C 0.80952 0.80768 0.26365 0.0
C875 C 0.79522 0.85444 0.24596 0.0
C876 C 0.80291 0.88172 0.23629 0.0
C877 C 0.81682 0.8346 0.25304 0.0
C878 C 0.83223 0.88894 0.23336 0.0
C879 C 0.85379 0.86912 0.23981 0.0
H880 H 0.14342 0.79005 0.74482 0.0
H881 H 0.08183 0.85524 0.72155 0.0
H882 H 0.11424 0.8935 0.73593 0.0
H883 H 0.15981 0.90853 0.75515 0.0
H884 H 0.2225 0.84386 0.77713 0.0
H885 H 0.18984 0.8053 0.76329 0.0
C886 C 0.13723 0.81264 0.74269 0.0
C887 C 0.11017 0.81973 0.73223 0.0
C888 C 0.15609 0.83461 0.75082 0.0
C889 C 0.10231 0.84912 0.7299 0.0
C890 C 0.1209 0.87104 0.73798 0.0
C891 C 0.16652 0.88602 0.75662 0.0
C892 C 0.19361 0.87912 0.76705 0.0
C893 C 0.1478 0.86404 0.74846 0.0
C894 C 0.20165 0.84978 0.76938 0.0
C895 C 0.18306 0.82772 0.76134 0.0
H896 H 0.78082 0.83184 0.76767 0.0
H897 H 0.82047 0.90548 0.7314 0.0
H898 H 0.85809 0.87421 0.71409 0.0
H899 H 0.88067 0.82673 0.71061 0.0
H900 H 0.84024 0.75192 0.74461 0.0
H901 H 0.80233 0.78302 0.76198 0.0
C902 C 0.79769 0.84089 0.7559 0.0
C903 C 0.79789 0.87082 0.7507 0.0
C904 C 0.8192 0.82271 0.74583 0.0
C905 C 0.81972 0.88241 0.73536 0.0
C906 C 0.84131 0.8646 0.72559 0.0
C907 C 0.86328 0.81696 0.72133 0.0
C908 C 0.86338 0.78692 0.72616 0.0
C909 C 0.84131 0.83478 0.73078 0.0
C910 C 0.841 0.775 0.7408 0.0
C911 C 0.81919 0.79275 0.75063 0.0
H912 H 0.16987 0.89834 0.25423 0.0
H913 H 0.21692 0.83399 0.2121 0.0
H914 H 0.1825 0.79648 0.22538 0.0
H915 H 0.13831 0.78239 0.24844 0.0
H916 H 0.09006 0.84766 0.28848 0.0
H917 H 0.12572 0.88452 0.27674 0.0
C918 C 0.17267 0.87603 0.24818 0.0
C919 C 0.19588 0.86876 0.23242 0.0
C920 C 0.15258 0.85486 0.25549 0.0
C921 C 0.1991 0.83997 0.22424 0.0
C922 C 0.1795 0.81858 0.23186 0.0
C923 C 0.13585 0.80467 0.25467 0.0
C924 C 0.11181 0.81245 0.26931 0.0
C925 C 0.15609 0.82581 0.2474 0.0
C926 C 0.10844 0.84136 0.2771 0.0
C927 C 0.12879 0.86236 0.27043 0.0
H928 H 0.13836 0.18895 0.69847 0.0
H929 H 0.12973 0.23041 0.77048 0.0
H930 H 0.16681 0.19842 0.78769 0.0
H931 H 0.19817 0.15556 0.78338 0.0
H932 H 0.20416 0.112 0.71222 0.0
H933 H 0.17119 0.14757 0.69368 0.0
C934 C 0.14451 0.19098 0.71795 0.0
C935 C 0.13104 0.21194 0.73317 0.0
C936 C 0.16516 0.17191 0.72795 0.0
C937 C 0.13987 0.21471 0.75822 0.0
C938 C 0.16091 0.19622 0.76817 0.0
C939 C 0.1926 0.15419 0.76372 0.0
C940 C 0.20341 0.13121 0.74917 0.0
C941 C 0.17322 0.17435 0.75335 0.0
C942 C 0.19582 0.1294 0.7238 0.0
C943 C 0.17705 0.14972 0.71321 0.0
H944 H 0.89609 0.18992 0.23054 0.0
H945 H 0.852 0.20596 0.30042 0.0
H946 H 0.81232 0.17455 0.28738 0.0
H947 H 0.79116 0.14085 0.25706 0.0
H948 H 0.83763 0.1212 0.18902 0.0
H949 H 0.87518 0.15587 0.20042 0.0
C950 C 0.87796 0.18637 0.24306 0.0
C951 C 0.8772 0.20028 0.26648 0.0
C952 C 0.85555 0.16766 0.23576 0.0
C953 C 0.85309 0.19591 0.28215 0.0
C954 C 0.83045 0.17774 0.2748 0.0
C955 C 0.80959 0.14393 0.24478 0.0
C956 C 0.81146 0.12829 0.22223 0.0
C957 C 0.83162 0.16324 0.25178 0.0
C958 C 0.83525 0.13318 0.20631 0.0
C959 C 0.85695 0.15283 0.21292 0.0
loop_
_geom_bond_atom_site_label_1
_geom_bond_atom_site_label_2
_geom_bond_distance
_geom_bond_site_symmetry_2
_ccdc_geom_bond_type
Li0 N17 1.990 . S
Li0 O60 1.956 . S
Li0 O61 1.970 . S
Li0 O62 1.975 . S
Li1 N25 1.990 1_545 S
Li1 O60 1.980 . S
Li1 O61 1.956 . S
Li1 O63 1.952 1_545 S
Li2 N47 1.990 . S
Li2 O60 1.961 . S
Li2 O62 1.957 . S
Li2 O63 1.970 1_545 S
Li3 N53 1.990 . S
Li3 O61 1.961 1_565 S
Li3 O62 1.957 1_565 S
Li3 O63 1.956 . S
C4 C6 1.348 . S
C4 C7 1.356 . S
C4 O60 1.325 . S
N5 C8 1.314 . S
N5 C9 1.279 . S
C6 C4 1.348 . S
C6 C8 1.353 . S
C6 H64 0.929 . S
C7 C4 1.356 . S
C7 C9 1.358 . S
C7 H65 0.930 . S
C8 N5 1.314 . S
C8 C6 1.353 . S
C8 H66 0.930 . S
C9 N5 1.279 . S
C9 C7 1.358 . S
C9 H67 0.930 . S
C10 C13 1.373 . S
C10 C14 1.332 1_545 S
C10 O61 1.326 . S
C11 N12 1.293 . S
C11 C14 1.358 . S
C11 H68 0.930 . S
N12 C11 1.293 . S
N12 C15 1.300 1_565 S
C13 C10 1.373 . S
C13 C15 1.353 . S
C13 H69 0.929 . S
C14 C10 1.332 1_565 S
C14 C11 1.358 . S
C14 H70 0.930 . S
C15 N12 1.300 1_545 S
C15 C13 1.353 . S
C15 H71 0.930 . S
C16 N17 1.314 . S
C16 C21 1.353 . S
C16 H22 0.930 . S
N17 Li0 1.990 . S
N17 C16 1.314 . S
N17 C19 1.279 . S
C18 C19 1.358 . S
C18 C20 1.356 . S
C18 H72 0.930 . S
C19 N17 1.279 . S
C19 C18 1.358 . S
C19 H23 0.930 . S
C20 C18 1.356 . S
C20 C21 1.348 . S
C21 C16 1.353 . S
C21 C20 1.348 . S
C21 H73 0.929 . S
H22 C16 0.930 . S
H23 C19 0.930 . S
C24 N25 1.314 . S
C24 C26 1.353 . S
C24 H30 0.930 . S
N25 Li1 1.990 1_565 S
N25 C24 1.314 . S
N25 C28 1.279 1_565 S
C26 C24 1.353 . S
C26 C29 1.337 1_565 S
C26 H74 0.929 . S
C27 C28 1.358 . S
C27 C29 1.363 . S
C27 H75 0.930 . S
C28 N25 1.279 1_545 S
C28 C27 1.358 . S
C28 H31 0.930 . S
C29 C26 1.337 1_545 S
C29 C27 1.363 . S
H30 C24 0.930 . S
H31 C28 0.930 . S
C32 C34 1.316 1_545 S
C32 C35 1.388 . S
C32 O62 1.325 . S
N33 C36 1.314 1_545 S
N33 C37 1.279 . S
C34 C32 1.316 1_565 S
C34 C36 1.353 . S
C34 H76 0.929 . S
C35 C32 1.388 . S
C35 C37 1.358 . S
C35 H77 0.930 . S
C36 N33 1.314 1_565 S
C36 C34 1.353 . S
C36 H78 0.930 . S
C37 N33 1.279 . S
C37 C35 1.358 . S
C37 H79 0.930 . S
C38 C39 1.348 . S
C38 C40 1.356 . S
C38 O63 1.325 . S
C39 C38 1.348 . S
C39 C41 1.353 . S
C39 H80 0.929 . S
C40 C38 1.356 . S
C40 C42 1.358 . S
C40 H81 0.930 . S
C41 C39 1.353 . S
C41 N43 1.314 . S
C41 H82 0.930 . S
C42 C40 1.358 . S
C42 N43 1.279 . S
C42 H83 0.930 . S
N43 C41 1.314 . S
N43 C42 1.279 . S
C44 C46 1.353 . S
C44 N47 1.314 . S
C44 H50 0.930 . S
C45 N47 1.279 1_565 S
C45 C48 1.358 . S
C45 H51 0.930 . S
C46 C44 1.353 . S
C46 C49 1.358 . S
C46 H84 0.929 . S
N47 Li2 1.990 . S
N47 C44 1.314 . S
N47 C45 1.279 1_545 S
C48 C45 1.358 . S
C48 C49 1.351 1_565 S
C48 H85 0.930 . S
C49 C46 1.358 . S
C49 C48 1.351 1_545 S
H50 C44 0.930 . S
H51 C45 0.930 . S
C52 N53 1.314 . S
C52 C54 1.353 . S
C52 H58 0.930 . S
N53 Li3 1.990 . S
N53 C52 1.314 . S
N53 C56 1.279 . S
C54 C52 1.353 . S
C54 C57 1.348 . S
C54 H86 0.929 . S
C55 C56 1.358 . S
C55 C57 1.356 . S
C55 H87 0.930 . S
C56 N53 1.279 . S
C56 C55 1.358 . S
C56 H59 0.930 . S
C57 C54 1.348 . S
C57 C55 1.356 . S
H58 C52 0.930 . S
H59 C56 0.930 . S
O60 Li0 1.956 . S
O60 Li1 1.980 . S
O60 Li2 1.961 . S
O60 C4 1.325 . S
O61 Li0 1.970 . S
O61 Li1 1.956 . S
O61 Li3 1.961 1_545 S
O61 C10 1.326 . S
O62 Li0 1.975 . S
O62 Li2 1.957 . S
O62 Li3 1.957 1_545 S
O62 C32 1.325 . S
O63 Li1 1.952 1_565 S
O63 Li2 1.970 1_565 S
O63 Li3 1.956 . S
O63 C38 1.325 . S
H64 C6 0.929 . S
H65 C7 0.930 . S
H66 C8 0.930 . S
H67 C9 0.930 . S
H68 C11 0.930 . S
H69 C13 0.929 . S
H70 C14 0.930 . S
H71 C15 0.930 . S
H72 C18 0.930 . S
H73 C21 0.929 . S
H74 C26 0.929 . S
H75 C27 0.930 . S
H76 C34 0.929 . S
H77 C35 0.930 . S
H78 C36 0.930 . S
H79 C37 0.930 . S
H80 C39 0.929 . S
H81 C40 0.930 . S
H82 C41 0.930 . S
H83 C42 0.930 . S
H84 C46 0.929 . S
H85 C48 0.930 . S
H86 C54 0.929 . S
H87 C55 0.930 . S
Li88 N105 1.990 . S
Li88 O148 1.956 . S
Li88 O149 1.970 1_455 S
Li88 O150 1.960 1_455 S
Li89 N113 1.991 . S
Li89 O148 1.954 1_655 S
Li89 O149 1.971 . S
Li89 O151 1.960 1_655 S
Li90 N135 1.990 . S
Li90 O148 1.961 . S
Li90 O150 1.946 1_455 S
Li90 O151 1.970 . S
Li91 N141 1.990 . S
Li91 O149 1.961 . S
Li91 O150 1.980 . S
Li91 O151 1.956 1_655 S
C92 C94 1.348 . S
C92 C95 1.356 . S
C92 O148 1.325 . S
N93 C96 1.314 . S
N93 C97 1.279 . S
C94 C92 1.348 . S
C94 C96 1.353 . S
C94 H152 0.929 . S
C95 C92 1.356 . S
C95 C97 1.358 . S
C95 H153 0.930 . S
C96 N93 1.314 . S
C96 C94 1.353 . S
C96 H154 0.930 . S
C97 N93 1.279 . S
C97 C95 1.358 . S
C97 H155 0.930 . S
C98 C101 1.348 . S
C98 C102 1.356 . S
C98 O149 1.325 . S
C99 N100 1.279 . S
C99 C102 1.358 . S
C99 H156 0.930 . S
N100 C99 1.279 . S
N100 C103 1.314 . S
C101 C98 1.348 . S
C101 C103 1.353 . S
C101 H157 0.929 . S
C102 C98 1.356 . S
C102 C99 1.358 . S
C102 H158 0.930 . S
C103 N100 1.314 . S
C103 C101 1.353 . S
C103 H159 0.930 . S
C104 N105 1.314 1_655 S
C104 C109 1.353 . S
C104 H110 0.930 . S
N105 Li88 1.990 . S
N105 C104 1.314 1_455 S
N105 C107 1.279 . S
C106 C107 1.358 . S
C106 C108 1.376 . S
C106 H160 0.930 . S
C107 N105 1.279 . S
C107 C106 1.358 . S
C107 H111 0.930 . S
C108 C106 1.376 . S
C108 C109 1.331 1_455 S
C109 C104 1.353 . S
C109 C108 1.331 1_655 S
C109 H161 0.929 . S
H110 C104 0.930 . S
H111 C107 0.930 . S
C112 N113 1.314 1_455 S
C112 C114 1.353 . S
C112 H118 0.930 . S
N113 Li89 1.991 . S
N113 C112 1.314 1_655 S
N113 C116 1.279 . S
C114 C112 1.353 . S
C114 C117 1.362 . S
C114 H162 0.929 . S
C115 C116 1.358 . S
C115 C117 1.339 1_655 S
C115 H163 0.930 . S
C116 N113 1.279 . S
C116 C115 1.358 . S
C116 H119 0.930 . S
C117 C114 1.362 . S
C117 C115 1.339 1_455 S
H118 C112 0.930 . S
H119 C116 0.930 . S
C120 C122 1.332 1_455 S
C120 C123 1.375 . S
C120 O150 1.324 1_455 S
N121 C124 1.314 1_455 S
N121 C125 1.279 . S
C122 C120 1.332 1_655 S
C122 C124 1.353 . S
C122 H164 0.929 . S
C123 C120 1.375 . S
C123 C125 1.358 . S
C123 H165 0.930 . S
C124 N121 1.314 1_655 S
C124 C122 1.353 . S
C124 H166 0.930 . S
C125 N121 1.279 . S
C125 C123 1.358 . S
C125 H167 0.930 . S
C126 C127 1.363 . S
C126 C128 1.338 1_455 S
C126 O151 1.326 . S
C127 C126 1.363 . S
C127 C129 1.353 . S
C127 H168 0.929 . S
C128 C126 1.338 1_655 S
C128 C130 1.358 . S
C128 H169 0.930 . S
C129 C127 1.353 . S
C129 N131 1.314 1_455 S
C129 H170 0.930 . S
C130 C128 1.358 . S
C130 N131 1.279 . S
C130 H171 0.930 . S
N131 C129 1.314 1_655 S
N131 C130 1.279 . S
C132 C134 1.353 . S
C132 N135 1.314 . S
C132 H138 0.930 . S
C133 N135 1.279 . S
C133 C136 1.358 . S
C133 H139 0.930 . S
C134 C132 1.353 . S
C134 C137 1.348 . S
C134 H172 0.929 . S
N135 Li90 1.990 . S
N135 C132 1.314 . S
N135 C133 1.279 . S
C136 C133 1.358 . S
C136 C137 1.356 . S
C136 H173 0.930 . S
C137 C134 1.348 . S
C137 C136 1.356 . S
H138 C132 0.930 . S
H139 C133 0.930 . S
C140 N141 1.314 . S
C140 C142 1.353 . S
C140 H146 0.930 . S
N141 Li91 1.990 . S
N141 C140 1.314 . S
N141 C144 1.279 . S
C142 C140 1.353 . S
C142 C145 1.348 . S
C142 H174 0.929 . S
C143 C144 1.358 . S
C143 C145 1.356 . S
C143 H175 0.930 . S
C144 N141 1.279 . S
C144 C143 1.358 . S
C144 H147 0.930 . S
C145 C142 1.348 . S
C145 C143 1.356 . S
H146 C140 0.930 . S
H147 C144 0.930 . S
O148 Li88 1.956 . S
O148 Li89 1.954 1_455 S
O148 Li90 1.961 . S
O148 C92 1.325 . S
O149 Li88 1.970 1_655 S
O149 Li89 1.971 . S
O149 Li91 1.961 . S
O149 C98 1.325 . S
O150 Li88 1.960 1_655 S
O150 Li90 1.946 1_655 S
O150 Li91 1.980 . S
O150 C120 1.324 1_655 S
O151 Li89 1.960 1_455 S
O151 Li90 1.970 . S
O151 Li91 1.956 1_455 S
O151 C126 1.326 . S
H152 C94 0.929 . S
H153 C95 0.930 . S
H154 C96 0.930 . S
H155 C97 0.930 . S
H156 C99 0.930 . S
H157 C101 0.929 . S
H158 C102 0.930 . S
H159 C103 0.930 . S
H160 C106 0.930 . S
H161 C109 0.929 . S
H162 C114 0.929 . S
H163 C115 0.930 . S
H164 C122 0.929 . S
H165 C123 0.930 . S
H166 C124 0.930 . S
H167 C125 0.930 . S
H168 C127 0.929 . S
H169 C128 0.930 . S
H170 C129 0.930 . S
H171 C130 0.930 . S
H172 C134 0.929 . S
H173 C136 0.930 . S
H174 C142 0.929 . S
H175 C143 0.930 . S
Li176 N193 1.990 . S
Li176 O236 1.956 . S
Li176 O237 1.970 1_545 S
Li176 O238 1.961 . S
Li177 N201 1.990 . S
Li177 O236 1.970 1_565 S
Li177 O237 1.956 . S
Li177 O239 1.961 1_565 S
Li178 N223 1.990 . S
Li178 O236 1.961 . S
Li178 O238 1.956 . S
Li178 O239 1.970 . S
Li179 N229 1.990 1_545 S
Li179 O237 1.961 1_545 S
Li179 O238 1.970 . S
Li179 O239 1.956 . S
C180 C182 1.348 1_545 S
C180 C183 1.356 . S
C180 O236 1.325 . S
N181 C184 1.314 1_545 S
N181 C185 1.279 . S
C182 C180 1.348 1_565 S
C182 C184 1.353 . S
C182 H240 0.929 . S
C183 C180 1.356 . S
C183 C185 1.358 . S
C183 H241 0.930 . S
C184 N181 1.314 1_565 S
C184 C182 1.353 . S
C184 H242 0.930 . S
C185 N181 1.279 . S
C185 C183 1.358 . S
C185 H243 0.930 . S
C186 C189 1.348 . S
C186 C190 1.356 . S
C186 O237 1.325 . S
C187 N188 1.279 . S
C187 C190 1.358 . S
C187 H244 0.930 . S
N188 C187 1.279 . S
N188 C191 1.314 . S
C189 C186 1.348 . S
C189 C191 1.353 . S
C189 H245 0.929 . S
C190 C186 1.356 . S
C190 C187 1.358 . S
C190 H246 0.930 . S
C191 N188 1.314 . S
C191 C189 1.353 . S
C191 H247 0.930 . S
C192 N193 1.314 . S
C192 C197 1.353 . S
C192 H198 0.930 . S
N193 Li176 1.990 . S
N193 C192 1.314 . S
N193 C195 1.279 1_545 S
C194 C195 1.358 . S
C194 C196 1.356 1_565 S
C194 H248 0.930 . S
C195 N193 1.279 1_565 S
C195 C194 1.358 . S
C195 H199 0.930 . S
C196 C194 1.356 1_545 S
C196 C197 1.348 . S
C197 C192 1.353 . S
C197 C196 1.348 . S
C197 H249 0.929 . S
H198 C192 0.930 . S
H199 C195 0.930 . S
C200 N201 1.314 . S
C200 C202 1.353 . S
C200 H206 0.930 . S
N201 Li177 1.990 . S
N201 C200 1.314 . S
N201 C204 1.279 . S
C202 C200 1.353 . S
C202 C205 1.348 . S
C202 H250 0.929 . S
C203 C204 1.358 . S
C203 C205 1.356 . S
C203 H251 0.930 . S
C204 N201 1.279 . S
C204 C203 1.358 . S
C204 H207 0.930 . S
C205 C202 1.348 . S
C205 C203 1.356 . S
H206 C200 0.930 . S
H207 C204 0.930 . S
C208 C210 1.348 . S
C208 C211 1.356 . S
C208 O238 1.325 . S
N209 C212 1.314 . S
N209 C213 1.279 . S
C210 C208 1.348 . S
C210 C212 1.353 . S
C210 H252 0.929 . S
C211 C208 1.356 . S
C211 C213 1.358 . S
C211 H253 0.930 . S
C212 N209 1.314 . S
C212 C210 1.353 . S
C212 H254 0.930 . S
C213 N209 1.279 . S
C213 C211 1.358 . S
C213 H255 0.930 . S
C214 C215 1.348 . S
C214 C216 1.356 1_545 S
C214 O239 1.325 . S
C215 C214 1.348 . S
C215 C217 1.353 . S
C215 H256 0.929 . S
C216 C214 1.356 1_565 S
C216 C218 1.358 . S
C216 H257 0.930 . S
C217 C215 1.353 . S
C217 N219 1.328 . S
C217 H258 0.930 . S
C218 C216 1.358 . S
C218 N219 1.266 1_565 S
C218 H259 0.930 . S
N219 C217 1.328 . S
N219 C218 1.266 1_545 S
C220 C222 1.353 . S
C220 N223 1.314 . S
C220 H226 0.930 . S
C221 N223 1.279 . S
C221 C224 1.358 . S
C221 H227 0.930 . S
C222 C220 1.353 . S
C222 C225 1.348 . S
C222 H260 0.929 . S
N223 Li178 1.990 . S
N223 C220 1.314 . S
N223 C221 1.279 . S
C224 C221 1.358 . S
C224 C225 1.356 . S
C224 H261 0.930 . S
C225 C222 1.348 . S
C225 C224 1.356 . S
H226 C220 0.930 . S
H227 C221 0.930 . S
C228 N229 1.318 . S
C228 C230 1.353 . S
C228 H234 0.930 . S
N229 Li179 1.990 1_565 S
N229 C228 1.318 . S
N229 C232 1.276 1_565 S
C230 C228 1.353 . S
C230 C233 1.348 1_565 S
C230 H262 0.929 . S
C231 C232 1.358 . S
C231 C233 1.356 . S
C231 H263 0.930 . S
C232 N229 1.276 1_545 S
C232 C231 1.358 . S
C232 H235 0.930 . S
C233 C230 1.348 1_545 S
C233 C231 1.356 . S
H234 C228 0.930 . S
H235 C232 0.930 . S
O236 Li176 1.956 . S
O236 Li177 1.970 1_545 S
O236 Li178 1.961 . S
O236 C180 1.325 . S
O237 Li176 1.970 1_565 S
O237 Li177 1.956 . S
O237 Li179 1.961 1_565 S
O237 C186 1.325 . S
O238 Li176 1.961 . S
O238 Li178 1.956 . S
O238 Li179 1.970 . S
O238 C208 1.325 . S
O239 Li177 1.961 1_545 S
O239 Li178 1.970 . S
O239 Li179 1.956 . S
O239 C214 1.325 . S
H240 C182 0.929 . S
H241 C183 0.930 . S
H242 C184 0.930 . S
H243 C185 0.930 . S
H244 C187 0.930 . S
H245 C189 0.929 . S
H246 C190 0.930 . S
H247 C191 0.930 . S
H248 C194 0.930 . S
H249 C197 0.929 . S
H250 C202 0.929 . S
H251 C203 0.930 . S
H252 C210 0.929 . S
H253 C211 0.930 . S
H254 C212 0.930 . S
H255 C213 0.930 . S
H256 C215 0.929 . S
H257 C216 0.930 . S
H258 C217 0.930 . S
H259 C218 0.930 . S
H260 C222 0.929 . S
H261 C224 0.930 . S
H262 C230 0.929 . S
H263 C231 0.930 . S
Li264 N281 1.990 . S
Li264 O324 1.956 1_655 S
Li264 O325 1.964 1_655 S
Li264 O326 1.961 . S
Li265 N289 1.990 . S
Li265 O324 1.970 . S
Li265 O325 1.963 . S
Li265 O327 1.961 . S
Li266 N311 1.990 1_455 S
Li266 O324 1.961 . S
Li266 O326 1.954 1_455 S
Li266 O327 1.973 . S
Li267 N317 1.990 . S
Li267 O325 1.961 . S
Li267 O326 1.970 1_455 S
Li267 O327 1.956 . S
C268 C270 1.348 . S
C268 C271 1.356 1_455 S
C268 O324 1.325 . S
N269 C272 1.314 1_655 S
N269 C273 1.279 . S
C270 C268 1.348 . S
C270 C272 1.353 . S
C270 H328 0.929 . S
C271 C268 1.356 1_655 S
C271 C273 1.358 . S
C271 H329 0.930 . S
C272 N269 1.314 1_455 S
C272 C270 1.353 . S
C272 H330 0.930 . S
C273 N269 1.279 . S
C273 C271 1.358 . S
C273 H331 0.930 . S
C274 C277 1.348 1_455 S
C274 C278 1.356 . S
C274 O325 1.325 . S
C275 N276 1.279 . S
C275 C278 1.358 . S
C275 H332 0.930 . S
N276 C275 1.279 . S
N276 C279 1.314 1_455 S
C277 C274 1.348 1_655 S
C277 C279 1.353 . S
C277 H333 0.929 . S
C278 C274 1.356 . S
C278 C275 1.358 . S
C278 H334 0.930 . S
C279 N276 1.314 1_655 S
C279 C277 1.353 . S
C279 H335 0.930 . S
C280 N281 1.314 . S
C280 C285 1.353 . S
C280 H286 0.930 . S
N281 Li264 1.990 . S
N281 C280 1.314 . S
N281 C283 1.279 . S
C282 C283 1.358 . S
C282 C284 1.356 . S
C282 H336 0.930 . S
C283 N281 1.279 . S
C283 C282 1.358 . S
C283 H287 0.930 . S
C284 C282 1.356 . S
C284 C285 1.348 . S
C285 C280 1.353 . S
C285 C284 1.348 . S
C285 H337 0.929 . S
H286 C280 0.930 . S
H287 C283 0.930 . S
C288 N289 1.314 . S
C288 C290 1.353 . S
C288 H294 0.930 . S
N289 Li265 1.990 . S
N289 C288 1.314 . S
N289 C292 1.279 . S
C290 C288 1.353 . S
C290 C293 1.348 . S
C290 H338 0.929 . S
C291 C292 1.358 . S
C291 C293 1.356 . S
C291 H339 0.930 . S
C292 N289 1.279 . S
C292 C291 1.358 . S
C292 H295 0.930 . S
C293 C290 1.348 . S
C293 C291 1.356 . S
H294 C288 0.930 . S
H295 C292 0.930 . S
C296 C298 1.348 . S
C296 C299 1.356 . S
C296 O326 1.325 . S
N297 C300 1.314 . S
N297 C301 1.279 . S
C298 C296 1.348 . S
C298 C300 1.353 . S
C298 H340 0.929 . S
C299 C296 1.356 . S
C299 C301 1.358 . S
C299 H341 0.930 . S
C300 N297 1.314 . S
C300 C298 1.353 . S
C300 H342 0.930 . S
C301 N297 1.279 . S
C301 C299 1.358 . S
C301 H343 0.930 . S
C302 C303 1.348 . S
C302 C304 1.356 . S
C302 O327 1.325 . S
C303 C302 1.348 . S
C303 C305 1.353 . S
C303 H344 0.929 . S
C304 C302 1.356 . S
C304 C306 1.358 . S
C304 H345 0.930 . S
C305 C303 1.353 . S
C305 N307 1.314 . S
C305 H346 0.930 . S
C306 C304 1.358 . S
C306 N307 1.279 . S
C306 H347 0.930 . S
N307 C305 1.314 . S
N307 C306 1.279 . S
C308 C310 1.353 . S
C308 N311 1.314 1_455 S
C308 H314 0.930 . S
C309 N311 1.279 . S
C309 C312 1.358 . S
C309 H315 0.930 . S
C310 C308 1.353 . S
C310 C313 1.348 . S
C310 H348 0.929 . S
N311 Li266 1.990 1_655 S
N311 C308 1.314 1_655 S
N311 C309 1.279 . S
C312 C309 1.358 . S
C312 C313 1.356 1_655 S
C312 H349 0.930 . S
C313 C310 1.348 . S
C313 C312 1.356 1_455 S
H314 C308 0.930 . S
H315 C309 0.930 . S
C316 N317 1.314 1_655 S
C316 C318 1.353 . S
C316 H322 0.930 . S
N317 Li267 1.990 . S
N317 C316 1.314 1_455 S
N317 C320 1.279 . S
C318 C316 1.353 . S
C318 C321 1.348 1_655 S
C318 H350 0.929 . S
C319 C320 1.358 . S
C319 C321 1.356 . S
C319 H351 0.930 . S
C320 N317 1.279 . S
C320 C319 1.358 . S
C320 H323 0.930 . S
C321 C318 1.348 1_455 S
C321 C319 1.356 . S
H322 C316 0.930 . S
H323 C320 0.930 . S
O324 Li264 1.956 1_455 S
O324 Li265 1.970 . S
O324 Li266 1.961 . S
O324 C268 1.325 . S
O325 Li264 1.964 1_455 S
O325 Li265 1.963 . S
O325 Li267 1.961 . S
O325 C274 1.325 . S
O326 Li264 1.961 . S
O326 Li266 1.954 1_655 S
O326 Li267 1.970 1_655 S
O326 C296 1.325 . S
O327 Li265 1.961 . S
O327 Li266 1.973 . S
O327 Li267 1.956 . S
O327 C302 1.325 . S
H328 C270 0.929 . S
H329 C271 0.930 . S
H330 C272 0.930 . S
H331 C273 0.930 . S
H332 C275 0.930 . S
H333 C277 0.929 . S
H334 C278 0.930 . S
H335 C279 0.930 . S
H336 C282 0.930 . S
H337 C285 0.929 . S
H338 C290 0.929 . S
H339 C291 0.930 . S
H340 C298 0.929 . S
H341 C299 0.930 . S
H342 C300 0.930 . S
H343 C301 0.930 . S
H344 C303 0.929 . S
H345 C304 0.930 . S
H346 C305 0.930 . S
H347 C306 0.930 . S
H348 C310 0.929 . S
H349 C312 0.930 . S
H350 C318 0.929 . S
H351 C319 0.930 . S
Li352 N369 1.990 . S
Li352 O412 1.956 . S
Li352 O413 1.970 . S
Li352 O414 1.961 . S
Li353 N377 1.990 1_545 S
Li353 O412 1.970 . S
Li353 O413 1.956 . S
Li353 O415 1.961 1_545 S
Li354 N399 1.990 . S
Li354 O412 1.961 . S
Li354 O414 1.956 . S
Li354 O415 1.970 1_545 S
Li355 N405 1.990 . S
Li355 O413 1.961 1_565 S
Li355 O414 1.970 1_565 S
Li355 O415 1.956 . S
C356 C358 1.348 . S
C356 C359 1.356 . S
C356 O412 1.325 . S
N357 C360 1.314 . S
N357 C361 1.279 . S
C358 C356 1.348 . S
C358 C360 1.353 . S
C358 H416 0.929 . S
C359 C356 1.356 . S
C359 C361 1.358 . S
C359 H417 0.930 . S
C360 N357 1.314 . S
C360 C358 1.353 . S
C360 H418 0.930 . S
C361 N357 1.279 . S
C361 C359 1.358 . S
C361 H419 0.930 . S
C362 C365 1.348 . S
C362 C366 1.356 1_545 S
C362 O413 1.325 . S
C363 N364 1.266 1_565 S
C363 C366 1.358 . S
C363 H420 0.930 . S
N364 C363 1.266 1_545 S
N364 C367 1.328 . S
C365 C362 1.348 . S
C365 C367 1.353 . S
C365 H421 0.929 . S
C366 C362 1.356 1_565 S
C366 C363 1.358 . S
C366 H422 0.930 . S
C367 N364 1.328 . S
C367 C365 1.353 . S
C367 H423 0.930 . S
C368 N369 1.314 . S
C368 C373 1.353 . S
C368 H374 0.930 . S
N369 Li352 1.990 . S
N369 C368 1.314 . S
N369 C371 1.279 . S
C370 C371 1.358 . S
C370 C372 1.356 . S
C370 H424 0.930 . S
C371 N369 1.279 . S
C371 C370 1.358 . S
C371 H375 0.930 . S
C372 C370 1.356 . S
C372 C373 1.348 . S
C373 C368 1.353 . S
C373 C372 1.348 . S
C373 H425 0.929 . S
H374 C368 0.930 . S
H375 C371 0.930 . S
C376 N377 1.318 . S
C376 C378 1.353 . S
C376 H382 0.930 . S
N377 Li353 1.990 1_565 S
N377 C376 1.318 . S
N377 C380 1.276 1_565 S
C378 C376 1.353 . S
C378 C381 1.348 1_565 S
C378 H426 0.929 . S
C379 C380 1.358 . S
C379 C381 1.356 . S
C379 H427 0.930 . S
C380 N377 1.276 1_545 S
C380 C379 1.358 . S
C380 H383 0.930 . S
C381 C378 1.348 1_545 S
C381 C379 1.356 . S
H382 C376 0.930 . S
H383 C380 0.930 . S
C384 C386 1.348 1_545 S
C384 C387 1.356 . S
C384 O414 1.325 . S
N385 C388 1.314 1_545 S
N385 C389 1.279 . S
C386 C384 1.348 1_565 S
C386 C388 1.353 . S
C386 H428 0.929 . S
C387 C384 1.356 . S
C387 C389 1.358 . S
C387 H429 0.930 . S
C388 N385 1.314 1_565 S
C388 C386 1.353 . S
C388 H430 0.930 . S
C389 N385 1.279 . S
C389 C387 1.358 . S
C389 H431 0.930 . S
C390 C391 1.348 . S
C390 C392 1.356 . S
C390 O415 1.325 . S
C391 C390 1.348 . S
C391 C393 1.353 . S
C391 H432 0.929 . S
C392 C390 1.356 . S
C392 C394 1.358 . S
C392 H433 0.930 . S
C393 C391 1.353 . S
C393 N395 1.314 . S
C393 H434 0.930 . S
C394 C392 1.358 . S
C394 N395 1.279 . S
C394 H435 0.930 . S
N395 C393 1.314 . S
N395 C394 1.279 . S
C396 C398 1.353 . S
C396 N399 1.314 . S
C396 H402 0.930 . S
C397 N399 1.279 1_565 S
C397 C400 1.358 . S
C397 H403 0.930 . S
C398 C396 1.353 . S
C398 C401 1.348 . S
C398 H436 0.929 . S
N399 Li354 1.990 . S
N399 C396 1.314 . S
N399 C397 1.279 1_545 S
C400 C397 1.358 . S
C400 C401 1.356 1_565 S
C400 H437 0.930 . S
C401 C398 1.348 . S
C401 C400 1.356 1_545 S
H402 C396 0.930 . S
H403 C397 0.930 . S
C404 N405 1.314 . S
C404 C406 1.353 . S
C404 H410 0.930 . S
N405 Li355 1.990 . S
N405 C404 1.314 . S
N405 C408 1.279 . S
C406 C404 1.353 . S
C406 C409 1.348 . S
C406 H438 0.929 . S
C407 C408 1.358 . S
C407 C409 1.356 . S
C407 H439 0.930 . S
C408 N405 1.279 . S
C408 C407 1.358 . S
C408 H411 0.930 . S
C409 C406 1.348 . S
C409 C407 1.356 . S
H410 C404 0.930 . S
H411 C408 0.930 . S
O412 Li352 1.956 . S
O412 Li353 1.970 . S
O412 Li354 1.961 . S
O412 C356 1.325 . S
O413 Li352 1.970 . S
O413 Li353 1.956 . S
O413 Li355 1.961 1_545 S
O413 C362 1.325 . S
O414 Li352 1.961 . S
O414 Li354 1.956 . S
O414 Li355 1.970 1_545 S
O414 C384 1.325 . S
O415 Li353 1.961 1_565 S
O415 Li354 1.970 1_565 S
O415 Li355 1.956 . S
O415 C390 1.325 . S
H416 C358 0.929 . S
H417 C359 0.930 . S
H418 C360 0.930 . S
H419 C361 0.930 . S
H420 C363 0.930 . S
H421 C365 0.929 . S
H422 C366 0.930 . S
H423 C367 0.930 . S
H424 C370 0.930 . S
H425 C373 0.929 . S
H426 C378 0.929 . S
H427 C379 0.930 . S
H428 C386 0.929 . S
H429 C387 0.930 . S
H430 C388 0.930 . S
H431 C389 0.930 . S
H432 C391 0.929 . S
H433 C392 0.930 . S
H434 C393 0.930 . S
H435 C394 0.930 . S
H436 C398 0.929 . S
H437 C400 0.930 . S
H438 C406 0.929 . S
H439 C407 0.930 . S
Li440 N457 1.990 . S
Li440 O500 1.956 . S
Li440 O501 1.970 1_455 S
Li440 O502 1.961 . S
Li441 N465 1.990 1_455 S
Li441 O500 1.973 . S
Li441 O501 1.954 1_455 S
Li441 O503 1.961 . S
Li442 N487 1.990 . S
Li442 O500 1.961 . S
Li442 O502 1.963 . S
Li442 O503 1.970 . S
Li443 N493 1.990 . S
Li443 O501 1.961 . S
Li443 O502 1.964 1_655 S
Li443 O503 1.956 1_655 S
C444 C446 1.348 . S
C444 C447 1.356 . S
C444 O500 1.325 . S
N445 C448 1.314 . S
N445 C449 1.279 . S
C446 C444 1.348 . S
C446 C448 1.353 . S
C446 H504 0.929 . S
C447 C444 1.356 . S
C447 C449 1.358 . S
C447 H505 0.930 . S
C448 N445 1.314 . S
C448 C446 1.353 . S
C448 H506 0.930 . S
C449 N445 1.279 . S
C449 C447 1.358 . S
C449 H507 0.930 . S
C450 C453 1.348 . S
C450 C454 1.356 . S
C450 O501 1.325 . S
C451 N452 1.279 . S
C451 C454 1.358 . S
C451 H508 0.930 . S
N452 C451 1.279 . S
N452 C455 1.314 . S
C453 C450 1.348 . S
C453 C455 1.353 . S
C453 H509 0.929 . S
C454 C450 1.356 . S
C454 C451 1.358 . S
C454 H510 0.930 . S
C455 N452 1.314 . S
C455 C453 1.353 . S
C455 H511 0.930 . S
C456 N457 1.314 1_655 S
C456 C461 1.353 . S
C456 H462 0.930 . S
N457 Li440 1.990 . S
N457 C456 1.314 1_455 S
N457 C459 1.279 . S
C458 C459 1.358 . S
C458 C460 1.356 . S
C458 H512 0.930 . S
C459 N457 1.279 . S
C459 C458 1.358 . S
C459 H463 0.930 . S
C460 C458 1.356 . S
C460 C461 1.348 1_455 S
C461 C456 1.353 . S
C461 C460 1.348 1_655 S
C461 H513 0.929 . S
H462 C456 0.930 . S
H463 C459 0.930 . S
C464 N465 1.314 1_455 S
C464 C466 1.353 . S
C464 H470 0.930 . S
N465 Li441 1.990 1_655 S
N465 C464 1.314 1_655 S
N465 C468 1.279 . S
C466 C464 1.353 . S
C466 C469 1.348 . S
C466 H514 0.929 . S
C467 C468 1.358 . S
C467 C469 1.356 1_655 S
C467 H515 0.930 . S
C468 N465 1.279 . S
C468 C467 1.358 . S
C468 H471 0.930 . S
C469 C466 1.348 . S
C469 C467 1.356 1_455 S
H470 C464 0.930 . S
H471 C468 0.930 . S
C472 C474 1.348 1_455 S
C472 C475 1.356 . S
C472 O502 1.325 . S
N473 C476 1.314 1_455 S
N473 C477 1.279 . S
C474 C472 1.348 1_655 S
C474 C476 1.353 . S
C474 H516 0.929 . S
C475 C472 1.356 . S
C475 C477 1.358 . S
C475 H517 0.930 . S
C476 N473 1.314 1_655 S
C476 C474 1.353 . S
C476 H518 0.930 . S
C477 N473 1.279 . S
C477 C475 1.358 . S
C477 H519 0.930 . S
C478 C479 1.348 . S
C478 C480 1.356 1_455 S
C478 O503 1.325 . S
C479 C478 1.348 . S
C479 C481 1.353 . S
C479 H520 0.929 . S
C480 C478 1.356 1_655 S
C480 C482 1.358 . S
C480 H521 0.930 . S
C481 C479 1.353 . S
C481 N483 1.314 1_455 S
C481 H522 0.930 . S
C482 C480 1.358 . S
C482 N483 1.279 . S
C482 H523 0.930 . S
N483 C481 1.314 1_655 S
N483 C482 1.279 . S
C484 C486 1.353 . S
C484 N487 1.314 . S
C484 H490 0.930 . S
C485 N487 1.279 . S
C485 C488 1.358 . S
C485 H491 0.930 . S
C486 C484 1.353 . S
C486 C489 1.348 . S
C486 H524 0.929 . S
N487 Li442 1.990 . S
N487 C484 1.314 . S
N487 C485 1.279 . S
C488 C485 1.358 . S
C488 C489 1.356 . S
C488 H525 0.930 . S
C489 C486 1.348 . S
C489 C488 1.356 . S
H490 C484 0.930 . S
H491 C485 0.930 . S
C492 N493 1.314 . S
C492 C494 1.353 . S
C492 H498 0.930 . S
N493 Li443 1.990 . S
N493 C492 1.314 . S
N493 C496 1.279 . S
C494 C492 1.353 . S
C494 C497 1.348 . S
C494 H526 0.929 . S
C495 C496 1.358 . S
C495 C497 1.356 . S
C495 H527 0.930 . S
C496 N493 1.279 . S
C496 C495 1.358 . S
C496 H499 0.930 . S
C497 C494 1.348 . S
C497 C495 1.356 . S
H498 C492 0.930 . S
H499 C496 0.930 . S
O500 Li440 1.956 . S
O500 Li441 1.973 . S
O500 Li442 1.961 . S
O500 C444 1.325 . S
O501 Li440 1.970 1_655 S
O501 Li441 1.954 1_655 S
O501 Li443 1.961 . S
O501 C450 1.325 . S
O502 Li440 1.961 . S
O502 Li442 1.963 . S
O502 Li443 1.964 1_455 S
O502 C472 1.325 . S
O503 Li441 1.961 . S
O503 Li442 1.970 . S
O503 Li443 1.956 1_455 S
O503 C478 1.325 . S
H504 C446 0.929 . S
H505 C447 0.930 . S
H506 C448 0.930 . S
H507 C449 0.930 . S
H508 C451 0.930 . S
H509 C453 0.929 . S
H510 C454 0.930 . S
H511 C455 0.930 . S
H512 C458 0.930 . S
H513 C461 0.929 . S
H514 C466 0.929 . S
H515 C467 0.930 . S
H516 C474 0.929 . S
H517 C475 0.930 . S
H518 C476 0.930 . S
H519 C477 0.930 . S
H520 C479 0.929 . S
H521 C480 0.930 . S
H522 C481 0.930 . S
H523 C482 0.930 . S
H524 C486 0.929 . S
H525 C488 0.930 . S
H526 C494 0.929 . S
H527 C495 0.930 . S
Li528 N545 1.990 . S
Li528 O588 1.957 . S
Li528 O589 1.970 1_545 S
Li528 O590 1.961 . S
Li529 N553 1.990 . S
Li529 O588 1.957 1_565 S
Li529 O589 1.956 . S
Li529 O591 1.961 1_565 S
Li530 N575 1.990 . S
Li530 O588 1.975 . S
Li530 O590 1.956 . S
Li530 O591 1.970 . S
Li531 N581 1.990 1_545 S
Li531 O589 1.952 1_545 S
Li531 O590 1.980 . S
Li531 O591 1.956 . S
C532 C534 1.316 1_545 S
C532 C535 1.388 . S
C532 O588 1.325 . S
N533 C536 1.314 1_545 S
N533 C537 1.279 . S
C534 C532 1.316 1_565 S
C534 C536 1.353 . S
C534 H592 0.929 . S
C535 C532 1.388 . S
C535 C537 1.358 . S
C535 H593 0.930 . S
C536 N533 1.314 1_565 S
C536 C534 1.353 . S
C536 H594 0.930 . S
C537 N533 1.279 . S
C537 C535 1.358 . S
C537 H595 0.930 . S
C538 C541 1.348 . S
C538 C542 1.356 . S
C538 O589 1.325 . S
C539 N540 1.279 . S
C539 C542 1.358 . S
C539 H596 0.930 . S
N540 C539 1.279 . S
N540 C543 1.314 . S
C541 C538 1.348 . S
C541 C543 1.353 . S
C541 H597 0.929 . S
C542 C538 1.356 . S
C542 C539 1.358 . S
C542 H598 0.930 . S
C543 N540 1.314 . S
C543 C541 1.353 . S
C543 H599 0.930 . S
C544 N545 1.314 . S
C544 C549 1.353 . S
C544 H550 0.930 . S
N545 Li528 1.990 . S
N545 C544 1.314 . S
N545 C547 1.279 1_545 S
C546 C547 1.358 . S
C546 C548 1.351 1_565 S
C546 H600 0.930 . S
C547 N545 1.279 1_565 S
C547 C546 1.358 . S
C547 H551 0.930 . S
C548 C546 1.351 1_545 S
C548 C549 1.358 . S
C549 C544 1.353 . S
C549 C548 1.358 . S
C549 H601 0.929 . S
H550 C544 0.930 . S
H551 C547 0.930 . S
C552 N553 1.314 . S
C552 C554 1.353 . S
C552 H558 0.930 . S
N553 Li529 1.990 . S
N553 C552 1.314 . S
N553 C556 1.279 . S
C554 C552 1.353 . S
C554 C557 1.348 . S
C554 H602 0.929 . S
C555 C556 1.358 . S
C555 C557 1.356 . S
C555 H603 0.930 . S
C556 N553 1.279 . S
C556 C555 1.358 . S
C556 H559 0.930 . S
C557 C554 1.348 . S
C557 C555 1.356 . S
H558 C552 0.930 . S
H559 C556 0.930 . S
C560 C562 1.348 . S
C560 C563 1.356 . S
C560 O590 1.325 . S
N561 C564 1.314 . S
N561 C565 1.279 . S
C562 C560 1.348 . S
C562 C564 1.353 . S
C562 H604 0.929 . S
C563 C560 1.356 . S
C563 C565 1.358 . S
C563 H605 0.930 . S
C564 N561 1.314 . S
C564 C562 1.353 . S
C564 H606 0.930 . S
C565 N561 1.279 . S
C565 C563 1.358 . S
C565 H607 0.930 . S
C566 C567 1.373 . S
C566 C568 1.331 1_545 S
C566 O591 1.326 . S
C567 C566 1.373 . S
C567 C569 1.353 . S
C567 H608 0.929 . S
C568 C566 1.331 1_565 S
C568 C570 1.358 . S
C568 H609 0.930 . S
C569 C567 1.353 . S
C569 N571 1.300 1_545 S
C569 H610 0.930 . S
C570 C568 1.358 . S
C570 N571 1.293 . S
C570 H611 0.930 . S
N571 C569 1.300 1_565 S
N571 C570 1.293 . S
C572 C574 1.353 . S
C572 N575 1.314 . S
C572 H578 0.930 . S
C573 N575 1.279 . S
C573 C576 1.358 . S
C573 H579 0.930 . S
C574 C572 1.353 . S
C574 C577 1.348 . S
C574 H612 0.929 . S
N575 Li530 1.990 . S
N575 C572 1.314 . S
N575 C573 1.279 . S
C576 C573 1.358 . S
C576 C577 1.356 . S
C576 H613 0.930 . S
C577 C574 1.348 . S
C577 C576 1.356 . S
H578 C572 0.930 . S
H579 C573 0.930 . S
C580 N581 1.314 . S
C580 C582 1.353 . S
C580 H586 0.930 . S
N581 Li531 1.990 1_565 S
N581 C580 1.314 . S
N581 C584 1.279 1_565 S
C582 C580 1.353 . S
C582 C585 1.337 1_565 S
C582 H614 0.929 . S
C583 C584 1.358 . S
C583 C585 1.363 . S
C583 H615 0.930 . S
C584 N581 1.279 1_545 S
C584 C583 1.358 . S
C584 H587 0.930 . S
C585 C582 1.337 1_545 S
C585 C583 1.363 . S
H586 C580 0.930 . S
H587 C584 0.930 . S
O588 Li528 1.957 . S
O588 Li529 1.957 1_545 S
O588 Li530 1.975 . S
O588 C532 1.325 . S
O589 Li528 1.970 1_565 S
O589 Li529 1.956 . S
O589 Li531 1.952 1_565 S
O589 C538 1.325 . S
O590 Li528 1.961 . S
O590 Li530 1.956 . S
O590 Li531 1.980 . S
O590 C560 1.325 . S
O591 Li529 1.961 1_545 S
O591 Li530 1.970 . S
O591 Li531 1.956 . S
O591 C566 1.326 . S
H592 C534 0.929 . S
H593 C535 0.930 . S
H594 C536 0.930 . S
H595 C537 0.930 . S
H596 C539 0.930 . S
H597 C541 0.929 . S
H598 C542 0.930 . S
H599 C543 0.930 . S
H600 C546 0.930 . S
H601 C549 0.929 . S
H602 C554 0.929 . S
H603 C555 0.930 . S
H604 C562 0.929 . S
H605 C563 0.930 . S
H606 C564 0.930 . S
H607 C565 0.930 . S
H608 C567 0.929 . S
H609 C568 0.930 . S
H610 C569 0.930 . S
H611 C570 0.930 . S
H612 C574 0.929 . S
H613 C576 0.930 . S
H614 C582 0.929 . S
H615 C583 0.930 . S
Li616 N633 1.990 . S
Li616 O676 1.956 1_655 S
Li616 O677 1.980 . S
Li616 O678 1.961 . S
Li617 N641 1.990 . S
Li617 O676 1.970 . S
Li617 O677 1.946 1_455 S
Li617 O679 1.961 . S
Li618 N663 1.991 . S
Li618 O676 1.960 1_655 S
Li618 O678 1.971 . S
Li618 O679 1.954 1_655 S
Li619 N669 1.990 . S
Li619 O677 1.960 1_455 S
Li619 O678 1.970 1_455 S
Li619 O679 1.956 . S
C620 C622 1.363 . S
C620 C623 1.338 1_455 S
C620 O676 1.326 . S
N621 C624 1.314 1_655 S
N621 C625 1.279 . S
C622 C620 1.363 . S
C622 C624 1.353 . S
C622 H680 0.929 . S
C623 C620 1.338 1_655 S
C623 C625 1.358 . S
C623 H681 0.930 . S
C624 N621 1.314 1_455 S
C624 C622 1.353 . S
C624 H682 0.930 . S
C625 N621 1.279 . S
C625 C623 1.358 . S
C625 H683 0.930 . S
C626 C629 1.332 1_455 S
C626 C630 1.375 . S
C626 O677 1.324 1_455 S
C627 N628 1.279 . S
C627 C630 1.358 . S
C627 H684 0.930 . S
N628 C627 1.279 . S
N628 C631 1.314 1_455 S
C629 C626 1.332 1_655 S
C629 C631 1.353 . S
C629 H685 0.929 . S
C630 C626 1.375 . S
C630 C627 1.358 . S
C630 H686 0.930 . S
C631 N628 1.314 1_655 S
C631 C629 1.353 . S
C631 H687 0.930 . S
C632 N633 1.314 . S
C632 C637 1.353 . S
C632 H638 0.930 . S
N633 Li616 1.990 . S
N633 C632 1.314 . S
N633 C635 1.279 . S
C634 C635 1.358 . S
C634 C636 1.356 . S
C634 H688 0.930 . S
C635 N633 1.279 . S
C635 C634 1.358 . S
C635 H639 0.930 . S
C636 C634 1.356 . S
C636 C637 1.348 . S
C637 C632 1.353 . S
C637 C636 1.348 . S
C637 H689 0.929 . S
H638 C632 0.930 . S
H639 C635 0.930 . S
C640 N641 1.314 . S
C640 C642 1.353 . S
C640 H646 0.930 . S
N641 Li617 1.990 . S
N641 C640 1.314 . S
N641 C644 1.279 . S
C642 C640 1.353 . S
C642 C645 1.348 . S
C642 H690 0.929 . S
C643 C644 1.358 . S
C643 C645 1.356 . S
C643 H691 0.930 . S
C644 N641 1.279 . S
C644 C643 1.358 . S
C644 H647 0.930 . S
C645 C642 1.348 . S
C645 C643 1.356 . S
H646 C640 0.930 . S
H647 C644 0.930 . S
C648 C650 1.348 . S
C648 C651 1.356 . S
C648 O678 1.325 . S
N649 C652 1.314 . S
N649 C653 1.279 . S
C650 C648 1.348 . S
C650 C652 1.353 . S
C650 H692 0.929 . S
C651 C648 1.356 . S
C651 C653 1.358 . S
C651 H693 0.930 . S
C652 N649 1.314 . S
C652 C650 1.353 . S
C652 H694 0.930 . S
C653 N649 1.279 . S
C653 C651 1.358 . S
C653 H695 0.930 . S
C654 C655 1.348 . S
C654 C656 1.356 . S
C654 O679 1.325 . S
C655 C654 1.348 . S
C655 C657 1.353 . S
C655 H696 0.929 . S
C656 C654 1.356 . S
C656 C658 1.358 . S
C656 H697 0.930 . S
C657 C655 1.353 . S
C657 N659 1.314 . S
C657 H698 0.930 . S
C658 C656 1.358 . S
C658 N659 1.279 . S
C658 H699 0.930 . S
N659 C657 1.314 . S
N659 C658 1.279 . S
C660 C662 1.353 . S
C660 N663 1.314 1_455 S
C660 H666 0.930 . S
C661 N663 1.279 . S
C661 C664 1.358 . S
C661 H667 0.930 . S
C662 C660 1.353 . S
C662 C665 1.362 . S
C662 H700 0.929 . S
N663 Li618 1.991 . S
N663 C660 1.314 1_655 S
N663 C661 1.279 . S
C664 C661 1.358 . S
C664 C665 1.339 1_655 S
C664 H701 0.930 . S
C665 C662 1.362 . S
C665 C664 1.339 1_455 S
H666 C660 0.930 . S
H667 C661 0.930 . S
C668 N669 1.314 1_655 S
C668 C670 1.353 . S
C668 H674 0.930 . S
N669 Li619 1.990 . S
N669 C668 1.314 1_455 S
N669 C672 1.279 . S
C670 C668 1.353 . S
C670 C673 1.331 1_655 S
C670 H702 0.929 . S
C671 C672 1.358 . S
C671 C673 1.376 . S
C671 H703 0.930 . S
C672 N669 1.279 . S
C672 C671 1.358 . S
C672 H675 0.930 . S
C673 C670 1.331 1_455 S
C673 C671 1.376 . S
H674 C668 0.930 . S
H675 C672 0.930 . S
O676 Li616 1.956 1_455 S
O676 Li617 1.970 . S
O676 Li618 1.960 1_455 S
O676 C620 1.326 . S
O677 Li616 1.980 . S
O677 Li617 1.946 1_655 S
O677 Li619 1.960 1_655 S
O677 C626 1.324 1_655 S
O678 Li616 1.961 . S
O678 Li618 1.971 . S
O678 Li619 1.970 1_655 S
O678 C648 1.325 . S
O679 Li617 1.961 . S
O679 Li618 1.954 1_455 S
O679 Li619 1.956 . S
O679 C654 1.325 . S
H680 C622 0.929 . S
H681 C623 0.930 . S
H682 C624 0.930 . S
H683 C625 0.930 . S
H684 C627 0.930 . S
H685 C629 0.929 . S
H686 C630 0.930 . S
H687 C631 0.930 . S
H688 C634 0.930 . S
H689 C637 0.929 . S
H690 C642 0.929 . S
H691 C643 0.930 . S
H692 C650 0.929 . S
H693 C651 0.930 . S
H694 C652 0.930 . S
H695 C653 0.930 . S
H696 C655 0.929 . S
H697 C656 0.930 . S
H698 C657 0.930 . S
H699 C658 0.930 . S
H700 C662 0.929 . S
H701 C664 0.930 . S
H702 C670 0.929 . S
H703 C671 0.930 . S
H704 C710 0.930 . S
H705 C713 0.930 . S
H706 C714 0.930 . S
H707 C715 0.930 . S
H708 C718 0.930 . S
H709 C719 0.930 . S
C710 H704 0.930 . S
C710 C711 1.355 1_545 S
C710 C712 1.415 . S
C711 C710 1.355 1_565 S
C711 C713 1.419 . S
C712 C710 1.415 . S
C712 C717 1.425 1_544 S
C712 C719 1.409 1_554 S
C713 H705 0.930 . S
C713 C711 1.419 . S
C713 C714 1.362 . S
C714 H706 0.930 . S
C714 C713 1.362 . S
C714 C717 1.409 1_554 S
C715 H707 0.930 . S
C715 C716 1.355 1_565 S
C715 C717 1.415 . S
C716 C715 1.355 1_545 S
C716 C718 1.419 . S
C717 C712 1.425 1_566 S
C717 C714 1.409 1_556 S
C717 C715 1.415 . S
C718 H708 0.930 . S
C718 C716 1.419 . S
C718 C719 1.362 . S
C719 H709 0.930 . S
C719 C712 1.409 1_556 S
C719 C718 1.362 . S
H720 C726 0.930 . S
H721 C729 0.930 . S
H722 C730 0.930 . S
H723 C731 0.935 . S
H724 C734 0.930 . S
H725 C735 0.930 . S
C726 H720 0.930 . S
C726 C727 1.355 1_455 S
C726 C728 1.415 . S
C727 C726 1.355 1_655 S
C727 C729 1.419 . S
C728 C726 1.415 . S
C728 C733 1.425 1_455 S
C728 C735 1.409 . S
C729 H721 0.930 . S
C729 C727 1.419 . S
C729 C730 1.362 . S
C730 H722 0.930 . S
C730 C729 1.362 . S
C730 C733 1.409 . S
C731 H723 0.935 . S
C731 C732 1.350 1_655 S
C731 C733 1.416 . S
C732 C731 1.350 1_455 S
C732 C734 1.419 . S
C733 C728 1.425 1_655 S
C733 C730 1.409 . S
C733 C731 1.416 . S
C734 H724 0.930 . S
C734 C732 1.419 . S
C734 C735 1.362 . S
C735 H725 0.930 . S
C735 C728 1.409 . S
C735 C734 1.362 . S
H736 C742 0.930 . S
H737 C745 0.930 . S
H738 C746 0.930 . S
H739 C747 0.930 . S
H740 C750 0.930 . S
H741 C751 0.930 . S
C742 H736 0.930 . S
C742 C743 1.355 1_545 S
C742 C744 1.415 . S
C743 C742 1.355 1_565 S
C743 C745 1.419 . S
C744 C742 1.415 . S
C744 C749 1.425 1_546 S
C744 C751 1.409 1_556 S
C745 H737 0.930 . S
C745 C743 1.419 . S
C745 C746 1.362 . S
C746 H738 0.930 . S
C746 C745 1.362 . S
C746 C749 1.409 1_556 S
C747 H739 0.930 . S
C747 C748 1.355 1_565 S
C747 C749 1.415 . S
C748 C747 1.355 1_545 S
C748 C750 1.419 . S
C749 C744 1.425 1_564 S
C749 C746 1.409 1_554 S
C749 C747 1.415 . S
C750 H740 0.930 . S
C750 C748 1.419 . S
C750 C751 1.362 . S
C751 H741 0.930 . S
C751 C744 1.409 1_554 S
C751 C750 1.362 . S
H752 C758 0.930 . S
H753 C761 0.930 . S
H754 C762 0.930 . S
H755 C763 0.930 . S
H756 C766 0.930 . S
H757 C767 0.930 . S
C758 H752 0.930 . S
C758 C759 1.355 1_655 S
C758 C760 1.415 . S
C759 C758 1.355 1_455 S
C759 C761 1.419 . S
C760 C758 1.415 . S
C760 C765 1.425 1_655 S
C760 C767 1.409 . S
C761 H753 0.930 . S
C761 C759 1.419 . S
C761 C762 1.362 . S
C762 H754 0.930 . S
C762 C761 1.362 . S
C762 C765 1.409 . S
C763 H755 0.930 . S
C763 C764 1.356 . S
C763 C765 1.415 . S
C764 C763 1.356 . S
C764 C766 1.417 1_455 S
C765 C760 1.425 1_455 S
C765 C762 1.409 . S
C765 C763 1.415 . S
C766 H756 0.930 . S
C766 C764 1.417 1_655 S
C766 C767 1.362 . S
C767 H757 0.930 . S
C767 C760 1.409 . S
C767 C766 1.362 . S
H768 C774 0.930 . S
H769 C777 0.930 . S
H770 C778 0.930 . S
H771 C779 0.930 . S
H772 C782 0.930 . S
H773 C783 0.930 . S
C774 H768 0.930 . S
C774 C775 1.356 1_545 S
C774 C776 1.415 . S
C775 C774 1.356 1_565 S
C775 C777 1.418 . S
C776 C774 1.415 . S
C776 C781 1.425 1_545 S
C776 C783 1.409 . S
C777 H769 0.930 . S
C777 C775 1.418 . S
C777 C778 1.362 . S
C778 H770 0.930 . S
C778 C777 1.362 . S
C778 C781 1.409 . S
C779 H771 0.930 . S
C779 C780 1.355 1_565 S
C779 C781 1.415 . S
C780 C779 1.355 1_545 S
C780 C782 1.419 . S
C781 C776 1.425 1_565 S
C781 C778 1.409 . S
C781 C779 1.415 . S
C782 H772 0.930 . S
C782 C780 1.419 . S
C782 C783 1.362 . S
C783 H773 0.930 . S
C783 C776 1.409 . S
C783 C782 1.362 . S
H784 C790 0.930 . S
H785 C793 0.930 . S
H786 C794 0.930 . S
H787 C795 0.930 . S
H788 C798 0.930 . S
H789 C799 0.930 . S
C790 H784 0.930 . S
C790 C791 1.355 1_455 S
C790 C792 1.415 . S
C791 C790 1.355 1_655 S
C791 C793 1.419 . S
C792 C790 1.415 . S
C792 C797 1.425 1_455 S
C792 C799 1.409 . S
C793 H785 0.930 . S
C793 C791 1.419 . S
C793 C794 1.362 . S
C794 H786 0.930 . S
C794 C793 1.362 . S
C794 C797 1.409 . S
C795 H787 0.930 . S
C795 C796 1.355 1_655 S
C795 C797 1.415 . S
C796 C795 1.355 1_455 S
C796 C798 1.419 . S
C797 C792 1.425 1_655 S
C797 C794 1.409 . S
C797 C795 1.415 . S
C798 H788 0.930 . S
C798 C796 1.419 . S
C798 C799 1.362 . S
C799 H789 0.930 . S
C799 C792 1.409 . S
C799 C798 1.362 . S
H800 C806 0.930 . S
H801 C809 0.930 . S
H802 C810 0.930 . S
H803 C811 0.930 . S
H804 C814 0.930 . S
H805 C815 0.930 . S
C806 H800 0.930 . S
C806 C807 1.355 1_565 S
C806 C808 1.415 . S
C807 C806 1.355 1_545 S
C807 C809 1.419 . S
C808 C806 1.415 . S
C808 C813 1.425 1_565 S
C808 C815 1.409 . S
C809 H801 0.930 . S
C809 C807 1.419 . S
C809 C810 1.362 . S
C810 H802 0.930 . S
C810 C809 1.362 . S
C810 C813 1.409 . S
C811 H803 0.930 . S
C811 C812 1.355 1_545 S
C811 C813 1.415 . S
C812 C811 1.355 1_565 S
C812 C814 1.419 . S
C813 C808 1.425 1_545 S
C813 C810 1.409 . S
C813 C811 1.415 . S
C814 H804 0.930 . S
C814 C812 1.419 . S
C814 C815 1.362 . S
C815 H805 0.930 . S
C815 C808 1.409 . S
C815 C814 1.362 . S
H816 C822 0.930 . S
H817 C825 0.930 . S
H818 C826 0.930 . S
H819 C827 0.930 . S
H820 C830 0.930 . S
H821 C831 0.930 . S
C822 H816 0.930 . S
C822 C823 1.363 . S
C822 C824 1.415 . S
C823 C822 1.363 . S
C823 C825 1.410 1_455 S
C824 C822 1.415 . S
C824 C829 1.425 1_455 S
C824 C831 1.409 . S
C825 H817 0.930 . S
C825 C823 1.410 1_655 S
C825 C826 1.362 . S
C826 H818 0.930 . S
C826 C825 1.362 . S
C826 C829 1.409 . S
C827 H819 0.930 . S
C827 C828 1.355 1_655 S
C827 C829 1.415 . S
C828 C827 1.355 1_455 S
C828 C830 1.419 . S
C829 C824 1.425 1_655 S
C829 C826 1.409 . S
C829 C827 1.415 . S
C830 H820 0.930 . S
C830 C828 1.419 . S
C830 C831 1.362 . S
C831 H821 0.930 . S
C831 C824 1.409 . S
C831 C830 1.362 . S
H832 C838 0.930 . S
H833 C841 0.930 . S
H834 C842 0.930 . S
H835 C843 0.930 . S
H836 C846 0.930 . S
H837 C847 0.930 . S
C838 H832 0.930 . S
C838 C839 1.355 . S
C838 C840 1.415 . S
C839 C838 1.355 . S
C839 C841 1.419 . S
C840 C838 1.415 . S
C840 C845 1.425 . S
C840 C847 1.409 . S
C841 H833 0.930 . S
C841 C839 1.419 . S
C841 C842 1.362 . S
C842 H834 0.930 . S
C842 C841 1.362 . S
C842 C845 1.409 . S
C843 H835 0.930 . S
C843 C844 1.355 . S
C843 C845 1.415 . S
C844 C843 1.355 . S
C844 C846 1.419 . S
C845 C840 1.425 . S
C845 C842 1.409 . S
C845 C843 1.415 . S
C846 H836 0.930 . S
C846 C844 1.419 . S
C846 C847 1.362 . S
C847 H837 0.930 . S
C847 C840 1.409 . S
C847 C846 1.362 . S
H848 C854 0.930 . S
H849 C857 0.930 . S
H850 C858 0.930 . S
H851 C859 0.930 . S
H852 C862 0.930 . S
H853 C863 0.930 . S
C854 H848 0.930 . S
C854 C855 1.355 . S
C854 C856 1.415 . S
C855 C854 1.355 . S
C855 C857 1.419 . S
C856 C854 1.415 . S
C856 C861 1.425 . S
C856 C863 1.409 . S
C857 H849 0.930 . S
C857 C855 1.419 . S
C857 C858 1.362 . S
C858 H850 0.930 . S
C858 C857 1.362 . S
C858 C861 1.409 . S
C859 H851 0.930 . S
C859 C860 1.355 . S
C859 C861 1.415 . S
C860 C859 1.355 . S
C860 C862 1.419 . S
C861 C856 1.425 . S
C861 C858 1.409 . S
C861 C859 1.415 . S
C862 H852 0.930 . S
C862 C860 1.419 . S
C862 C863 1.362 . S
C863 H853 0.930 . S
C863 C856 1.409 . S
C863 C862 1.362 . S
H864 C870 0.930 . S
H865 C873 0.930 . S
H866 C874 0.930 . S
H867 C875 0.930 . S
H868 C878 0.930 . S
H869 C879 0.930 . S
C870 H864 0.930 . S
C870 C871 1.355 . S
C870 C872 1.415 . S
C871 C870 1.355 . S
C871 C873 1.419 . S
C872 C870 1.415 . S
C872 C877 1.425 . S
C872 C879 1.409 . S
C873 H865 0.930 . S
C873 C871 1.419 . S
C873 C874 1.362 . S
C874 H866 0.930 . S
C874 C873 1.362 . S
C874 C877 1.409 . S
C875 H867 0.930 . S
C875 C876 1.355 . S
C875 C877 1.415 . S
C876 C875 1.355 . S
C876 C878 1.419 . S
C877 C872 1.425 . S
C877 C874 1.409 . S
C877 C875 1.415 . S
C878 H868 0.930 . S
C878 C876 1.419 . S
C878 C879 1.362 . S
C879 H869 0.930 . S
C879 C872 1.409 . S
C879 C878 1.362 . S
H880 C886 0.930 . S
H881 C889 0.930 . S
H882 C890 0.930 . S
H883 C891 0.930 . S
H884 C894 0.930 . S
H885 C895 0.930 . S
C886 H880 0.930 . S
C886 C887 1.355 . S
C886 C888 1.415 . S
C887 C886 1.355 . S
C887 C889 1.419 . S
C888 C886 1.415 . S
C888 C893 1.425 . S
C888 C895 1.409 . S
C889 H881 0.930 . S
C889 C887 1.419 . S
C889 C890 1.362 . S
C890 H882 0.930 . S
C890 C889 1.362 . S
C890 C893 1.409 . S
C891 H883 0.930 . S
C891 C892 1.355 . S
C891 C893 1.415 . S
C892 C891 1.355 . S
C892 C894 1.419 . S
C893 C888 1.425 . S
C893 C890 1.409 . S
C893 C891 1.415 . S
C894 H884 0.930 . S
C894 C892 1.419 . S
C894 C895 1.362 . S
C895 H885 0.930 . S
C895 C888 1.409 . S
C895 C894 1.362 . S
H896 C902 0.930 . S
H897 C905 0.930 . S
H898 C906 0.930 . S
H899 C907 0.930 . S
H900 C910 0.930 . S
H901 C911 0.930 . S
C902 H896 0.930 . S
C902 C903 1.355 . S
C902 C904 1.415 . S
C903 C902 1.355 . S
C903 C905 1.419 . S
C904 C902 1.415 . S
C904 C909 1.425 . S
C904 C911 1.409 . S
C905 H897 0.930 . S
C905 C903 1.419 . S
C905 C906 1.362 . S
C906 H898 0.930 . S
C906 C905 1.362 . S
C906 C909 1.409 . S
C907 H899 0.930 . S
C907 C908 1.355 . S
C907 C909 1.415 . S
C908 C907 1.355 . S
C908 C910 1.419 . S
C909 C904 1.425 . S
C909 C906 1.409 . S
C909 C907 1.415 . S
C910 H900 0.930 . S
C910 C908 1.419 . S
C910 C911 1.362 . S
C911 H901 0.930 . S
C911 C904 1.409 . S
C911 C910 1.362 . S
H912 C918 0.930 . S
H913 C921 0.930 . S
H914 C922 0.930 . S
H915 C923 0.930 . S
H916 C926 0.930 . S
H917 C927 0.930 . S
C918 H912 0.930 . S
C918 C919 1.355 . S
C918 C920 1.415 . S
C919 C918 1.355 . S
C919 C921 1.419 . S
C920 C918 1.415 . S
C920 C925 1.425 . S
C920 C927 1.409 . S
C921 H913 0.930 . S
C921 C919 1.419 . S
C921 C922 1.362 . S
C922 H914 0.930 . S
C922 C921 1.362 . S
C922 C925 1.409 . S
C923 H915 0.930 . S
C923 C924 1.355 . S
C923 C925 1.415 . S
C924 C923 1.355 . S
C924 C926 1.419 . S
C925 C920 1.425 . S
C925 C922 1.409 . S
C925 C923 1.415 . S
C926 H916 0.930 . S
C926 C924 1.419 . S
C926 C927 1.362 . S
C927 H917 0.930 . S
C927 C920 1.409 . S
C927 C926 1.362 . S
H928 C934 0.930 . S
H929 C937 0.930 . S
H930 C938 0.930 . S
H931 C939 0.930 . S
H932 C942 0.930 . S
H933 C943 0.930 . S
C934 H928 0.930 . S
C934 C935 1.355 . S
C934 C936 1.415 . S
C935 C934 1.355 . S
C935 C937 1.419 . S
C936 C934 1.415 . S
C936 C941 1.425 . S
C936 C943 1.409 . S
C937 H929 0.930 . S
C937 C935 1.419 . S
C937 C938 1.362 . S
C938 H930 0.930 . S
C938 C937 1.362 . S
C938 C941 1.409 . S
C939 H931 0.930 . S
C939 C940 1.355 . S
C939 C941 1.415 . S
C940 C939 1.355 . S
C940 C942 1.419 . S
C941 C936 1.425 . S
C941 C938 1.409 . S
C941 C939 1.415 . S
C942 H932 0.930 . S
C942 C940 1.419 . S
C942 C943 1.362 . S
C943 H933 0.930 . S
C943 C936 1.409 . S
C943 C942 1.362 . S
H944 C950 0.930 . S
H945 C953 0.930 . S
H946 C954 0.930 . S
H947 C955 0.930 . S
H948 C958 0.930 . S
H949 C959 0.930 . S
C950 H944 0.930 . S
C950 C951 1.355 . S
C950 C952 1.415 . S
C951 C950 1.355 . S
C951 C953 1.419 . S
C952 C950 1.415 . S
C952 C957 1.425 . S
C952 C959 1.409 . S
C953 H945 0.930 . S
C953 C951 1.419 . S
C953 C954 1.362 . S
C954 H946 0.930 . S
C954 C953 1.362 . S
C954 C957 1.409 . S
C955 H947 0.930 . S
C955 C956 1.355 . S
C955 C957 1.415 . S
C956 C955 1.355 . S
C956 C958 1.419 . S
C957 C952 1.425 . S
C957 C954 1.409 . S
C957 C955 1.415 . S
C958 H948 0.930 . S
C958 C956 1.419 . S
C958 C959 1.362 . S
C959 H949 0.930 . S
C959 C952 1.409 . S
C959 C958 1.362 . S
C711 C49 1.585 1_565 S
C716 C381 1.588 . S
C727 C108 1.586 1_655 S
C732 C469 1.583 . S
C743 C548 1.586 1_565 S
C748 C233 1.587 . S
C759 C673 1.581 . S
C764 C313 1.584 . S
C775 C29 0.795 1_565 S
C780 C196 0.854 . S
C791 C117 0.820 1_655 S
C796 C321 0.828 . S
C807 C585 0.843 . S
C812 C401 0.825 1_565 S
C823 C460 0.797 . S
C828 C665 0.867 . S
C839 C489 1.299 . S
C844 C20 1.324 . S
C855 C145 1.333 . S
C860 C577 1.290 . S
C871 C636 1.329 . S
C876 C205 1.287 . S
C887 C293 1.317 . S
C892 C409 1.342 . S
C903 C557 1.297 . S
C908 C284 1.321 . S
C919 C57 1.333 . S
C924 C645 1.288 . S
C935 C137 1.342 . S
C940 C372 1.330 . S
C951 C497 1.320 . S
C956 C225 1.296 . S
