# Generated by pormake.
# Topology yfz, (5)-cn, num edge types: 1
# Building blocks:
#     Node 0, Type 0, BuildingBlock: XOMCOT_clean_sbu_0, # of connection points: 5
#     Node 1, Type 0, BuildingBlock: XOMCOT_clean_sbu_0, # of connection points: 5
#     Node 2, Type 0, BuildingBlock: XOMCOT_clean_sbu_0, # of connection points: 5
#     Node 3, Type 0, BuildingBlock: XOMCOT_clean_sbu_0, # of connection points: 5
#     Node 4, Type 0, BuildingBlock: XOMCOT_clean_sbu_0, # of connection points: 5
#     Node 5, Type 0, BuildingBlock: XOMCOT_clean_sbu_0, # of connection points: 5
#     Node 6, Type 0, BuildingBlock: XOMCOT_clean_sbu_0, # of connection points: 5
#     Node 7, Type 0, BuildingBlock: XOMCOT_clean_sbu_0, # of connection points: 5
#     Edge 8, Type (0, 0), None
#     Edge 9, Type (0, 0), None
#     Edge 10, Type (0, 0), None
#     Edge 11, Type (0, 0), None
#     Edge 12, Type (0, 0), None
#     Edge 13, Type (0, 0), None
#     Edge 14, Type (0, 0), None
#     Edge 15, Type (0, 0), None
#     Edge 16, Type (0, 0), None
#     Edge 17, Type (0, 0), None
#     Edge 18, Type (0, 0), None
#     Edge 19, Type (0, 0), None
#     Edge 20, Type (0, 0), None
#     Edge 21, Type (0, 0), None
#     Edge 22, Type (0, 0), None
#     Edge 23, Type (0, 0), None
#     Edge 24, Type (0, 0), None
#     Edge 25, Type (0, 0), None
#     Edge 26, Type (0, 0), None
#     Edge 27, Type (0, 0), None
# Relax obj value: 0.175
# Max RMSD: 0.156
# Mean RMSD: 0.156
data_MOF--net-yfz--node1-XOMCOT_clean_sbu_0--edge1-none
_symmetry_space_group_name_H-M    P1
_symmetry_Int_Tables_number       1
_symmetry_cell_setting            triclinic
loop_
_symmetry_equiv_pos_as_xyz
'x, y, z'
_cell_length_a     25.096068
_cell_length_b     25.096076
_cell_length_c     9.3547472
_cell_angle_alpha  89.997032
_cell_angle_beta   90.002793
_cell_angle_gamma 90.000681
loop_
_atom_site_label
_atom_site_type_symbol
_atom_site_fract_x
_atom_site_fract_y
_atom_site_fract_z
_atom_type_partial_charge
Co0 Co 0.54341 0.12589 0.33238 0.0
C1 C 0.53375 0.14845 0.02008 0.0
C2 C 0.51481 0.0672 0.06936 0.0
C3 C 0.5152 0.07346 0.92978 0.0
N4 N 0.5266 0.1141 0.131 0.0
N5 N 0.52683 0.12453 0.90009 0.0
H6 H 0.54992 0.18816 0.0284 0.0
H7 H 0.51159 0.02999 0.12558 0.0
C8 C 0.49465 0.03178 0.50443 0.0
O9 O 0.53436 0.03245 0.59429 0.0
N10 N 0.55718 0.14078 0.5324 0.0
C11 C 0.60374 0.15471 0.59346 0.0
C12 C 0.59728 0.15525 0.73961 0.0
C13 C 0.52204 0.13718 0.64156 0.0
N14 N 0.54608 0.14361 0.76854 0.0
C15 C 0.63631 0.09163 0.18469 0.0
C16 C 0.68893 0.03882 0.3974 0.0
C17 C 0.71627 0.04958 0.2695 0.0
C18 C 0.68791 0.07407 0.16084 0.0
C19 C 0.63554 0.05527 0.41511 0.0
N20 N 0.60933 0.0826 0.30974 0.0
H21 H 0.62138 0.11807 0.10555 0.0
H22 H 0.61853 0.0507 0.5186 0.0
H23 H 0.64062 0.16063 0.5366 0.0
H24 H 0.48076 0.12556 0.63018 0.0
O25 O 0.57834 0.19051 0.28398 0.0
O26 O 0.49186 0.18579 0.32732 0.0
O27 O 0.49485 0.06188 0.3913 0.0
C28 C 0.5329 0.21449 0.28789 0.0
H29 H 0.51251 0.04197 0.85244 0.0
H30 H 0.62855 0.15975 0.81786 0.0
H31 H 0.70994 0.02131 0.48647 0.0
H32 H 0.70749 0.08594 0.06319 0.0
Co33 Co 0.35935 0.54331 0.83564 0.0
C34 C 0.33679 0.53372 0.52335 0.0
C35 C 0.41802 0.5147 0.57262 0.0
C36 C 0.41168 0.51503 0.42647 0.0
N37 N 0.37113 0.52653 0.63427 0.0
N38 N 0.36062 0.52672 0.39679 0.0
H39 H 0.29709 0.54992 0.53167 0.0
H40 H 0.45523 0.51144 0.62884 0.0
C41 C 0.45346 0.49453 1.00768 0.0
O42 O 0.45272 0.5343 0.09097 0.0
N43 N 0.34438 0.55713 0.02909 0.0
C44 C 0.33043 0.60368 0.09015 0.0
C45 C 0.32989 0.59719 0.23631 0.0
C46 C 0.34799 0.52197 0.13825 0.0
N47 N 0.34155 0.54598 0.26523 0.0
C48 C 0.39365 0.63623 0.68795 0.0
C49 C 0.4464 0.68883 0.90073 0.0
C50 C 0.43567 0.71618 0.77282 0.0
C51 C 0.41121 0.68783 0.66412 0.0
C52 C 0.42995 0.63544 0.91843 0.0
N53 N 0.40265 0.60924 0.81302 0.0
H54 H 0.36724 0.62131 0.60876 0.0
H55 H 0.43451 0.61842 1.02193 0.0
H56 H 0.3245 0.64056 0.03331 0.0
H57 H 0.35962 0.4807 0.12686 0.0
O58 O 0.29474 0.57825 0.78725 0.0
O59 O 0.29945 0.49177 0.83058 0.0
O60 O 0.42336 0.49475 0.89457 0.0
C61 C 0.27075 0.53281 0.79115 0.0
H62 H 0.44317 0.51231 0.34912 0.0
H63 H 0.32537 0.62844 0.31457 0.0
H64 H 0.46389 0.70983 0.98983 0.0
H65 H 0.39937 0.70742 0.56644 0.0
Co66 Co 0.94853 0.35926 0.33236 0.0
C67 C 0.95809 0.33674 0.02007 0.0
C68 C 0.9772 0.41795 0.06933 0.0
C69 C 0.97696 0.41155 0.92975 0.0
N70 N 0.96531 0.37107 0.13098 0.0
N71 N 0.96521 0.3605 0.90009 0.0
H72 H 0.94185 0.29706 0.0284 0.0
H73 H 0.9805 0.45515 0.12554 0.0
C74 C 0.99731 0.45335 0.50437 0.0
O75 O 0.95761 0.45269 0.59421 0.0
N76 N 0.93479 0.34434 0.53238 0.0
C77 C 0.88826 0.33034 0.59345 0.0
C78 C 0.89475 0.32977 0.7396 0.0
C79 C 0.96995 0.34795 0.64153 0.0
N80 N 0.94595 0.34146 0.76852 0.0
C81 C 0.85562 0.39367 0.18464 0.0
C82 C 0.803 0.44626 0.39759 0.0
C83 C 0.77565 0.4356 0.26963 0.0
C84 C 0.80402 0.41122 0.16085 0.0
C85 C 0.8564 0.42981 0.41526 0.0
N86 N 0.8826 0.40258 0.30976 0.0
H87 H 0.87055 0.36732 0.10535 0.0
H88 H 0.8734 0.43431 0.51878 0.0
H89 H 0.85137 0.3244 0.5366 0.0
H90 H 0.00454 0.35959 0.63014 0.0
O91 O 0.91357 0.29466 0.28397 0.0
O92 O 1.00005 0.29936 0.32729 0.0
O93 O 0.9971 0.42325 0.39128 0.0
C94 C 0.95901 0.27067 0.28787 0.0
H95 H 0.97973 0.44304 0.85238 0.0
H96 H 0.86351 0.32521 0.81787 0.0
H97 H 0.78199 0.46368 0.48674 0.0
H98 H 0.78444 0.39944 0.06313 0.0
Co99 Co 0.12599 0.94844 0.83567 0.0
C100 C 0.1485 0.95807 0.52338 0.0
C101 C 0.06728 0.9771 0.57264 0.0
C102 C 0.0736 0.9768 0.42649 0.0
N103 N 0.11417 0.96525 0.63429 0.0
N104 N 0.12466 0.9651 0.39682 0.0
H105 H 0.1882 0.94185 0.53171 0.0
H106 H 0.03008 0.98037 0.62885 0.0
C107 C 0.0319 0.99719 1.00768 0.0
O108 O 0.03248 0.95755 0.09093 0.0
N109 N 0.14083 0.93475 0.02912 0.0
C110 C 0.15483 0.8882 0.09018 0.0
C111 C 0.1554 0.89467 0.23633 0.0
C112 C 0.13722 0.96989 0.13827 0.0
N113 N 0.14371 0.94586 0.26525 0.0
C114 C 0.09158 0.85556 0.68795 0.0
C115 C 0.03899 0.8029 0.90091 0.0
C116 C 0.04964 0.77558 0.77295 0.0
C117 C 0.07402 0.80396 0.66416 0.0
C118 C 0.05543 0.85629 0.91857 0.0
N119 N 0.08267 0.88252 0.81308 0.0
H120 H 0.11792 0.8705 0.60865 0.0
H121 H 0.05095 0.87328 1.0221 0.0
H122 H 0.16078 0.85133 0.03333 0.0
H123 H 0.12557 0.00448 0.12689 0.0
O124 O 0.19058 0.91349 0.78727 0.0
O125 O 0.18589 0.99997 0.8306 0.0
O126 O 0.062 0.997 0.89459 0.0
C127 C 0.21458 0.95893 0.79118 0.0
H128 H 0.04211 0.97954 0.34913 0.0
H129 H 0.15996 0.86341 0.31459 0.0
H130 H 0.02157 0.78188 0.99006 0.0
H131 H 0.08579 0.78439 0.56643 0.0
Co132 Co 0.54338 0.35928 0.19754 0.0
C133 C 0.5338 0.33672 0.50982 0.0
C134 C 0.51472 0.41794 0.46056 0.0
C135 C 0.51504 0.4116 0.60671 0.0
N136 N 0.52659 0.37107 0.39891 0.0
N137 N 0.52677 0.36054 0.63638 0.0
H138 H 0.55003 0.29704 0.5015 0.0
H139 H 0.51142 0.45515 0.40435 0.0
C140 C 0.4946 0.4534 0.02551 0.0
O141 O 0.53438 0.45267 0.94224 0.0
N142 N 0.55719 0.34432 1.00409 0.0
C143 C 0.60372 0.33034 0.94302 0.0
C144 C 0.59723 0.32979 0.79687 0.0
C145 C 0.52203 0.34794 0.89493 0.0
N146 N 0.54603 0.34148 0.76795 0.0
C147 C 0.63628 0.39365 0.34526 0.0
C148 C 0.68891 0.44629 0.1323 0.0
C149 C 0.71625 0.43559 0.26025 0.0
C150 C 0.68789 0.4112 0.36904 0.0
C151 C 0.63551 0.42985 0.11465 0.0
N152 N 0.6093 0.4026 0.22013 0.0
H153 H 0.62135 0.36729 0.42454 0.0
H154 H 0.6185 0.43437 0.01113 0.0
H155 H 0.64061 0.32439 0.99987 0.0
H156 H 0.48076 0.35958 0.90633 0.0
O157 O 0.57833 0.29468 0.24593 0.0
O158 O 0.49184 0.29938 0.20261 0.0
O159 O 0.4948 0.42329 0.13861 0.0
C160 C 0.53289 0.27069 0.24204 0.0
H161 H 0.51228 0.44307 0.68408 0.0
H162 H 0.62848 0.32524 0.71861 0.0
H163 H 0.70991 0.46374 0.04317 0.0
H164 H 0.70747 0.3994 0.46676 0.0
Co165 Co 0.12596 0.54331 0.7008 0.0
C166 C 0.14851 0.53367 1.01309 0.0
C167 C 0.06728 0.51466 0.96382 0.0
C168 C 0.07354 0.51505 0.1034 0.0
N169 N 0.11417 0.5265 0.90218 0.0
N170 N 0.12461 0.52673 0.13308 0.0
H171 H 0.18821 0.54988 1.00477 0.0
H172 H 0.03007 0.51141 0.90761 0.0
C173 C 0.03184 0.49456 0.52876 0.0
O174 O 0.0325 0.53427 0.43892 0.0
N175 N 0.14085 0.55708 0.50078 0.0
C176 C 0.15481 0.60363 0.43972 0.0
C177 C 0.15535 0.59717 0.29356 0.0
C178 C 0.13723 0.52194 0.39162 0.0
N179 N 0.14368 0.54597 0.26464 0.0
C180 C 0.09163 0.63621 0.84851 0.0
C181 C 0.03893 0.68885 0.63564 0.0
C182 C 0.04966 0.71617 0.76357 0.0
C183 C 0.07408 0.68781 0.87232 0.0
C184 C 0.05537 0.63545 0.61797 0.0
N185 N 0.08265 0.60924 0.72342 0.0
H186 H 0.11802 0.62127 0.92774 0.0
H187 H 0.05083 0.61845 0.51446 0.0
H188 H 0.16074 0.64051 0.49657 0.0
H189 H 0.1256 0.48066 0.40301 0.0
O190 O 0.19056 0.57825 0.7492 0.0
O191 O 0.18585 0.49178 0.70587 0.0
O192 O 0.06195 0.49475 0.64188 0.0
C193 C 0.21455 0.53282 0.74531 0.0
H194 H 0.04206 0.51232 0.18076 0.0
H195 H 0.15988 0.62843 0.21531 0.0
H196 H 0.02146 0.70986 0.54653 0.0
H197 H 0.0859 0.70738 0.97001 0.0
Co198 Co 0.94853 0.12589 0.19751 0.0
C199 C 0.95815 0.14841 0.50979 0.0
C200 C 0.97725 0.0672 0.46054 0.0
C201 C 0.97695 0.07353 0.6067 0.0
N202 N 0.96535 0.11408 0.39889 0.0
N203 N 0.96521 0.12458 0.63635 0.0
H204 H 0.9419 0.18809 0.50146 0.0
H205 H 0.98054 0.03 0.40434 0.0
C206 C 0.99728 0.0318 0.02551 0.0
O207 O 0.95763 0.03237 0.94228 0.0
N208 N 0.93485 0.14074 1.00406 0.0
C209 C 0.88832 0.15477 0.943 0.0
C210 C 0.89479 0.15534 0.79684 0.0
C211 C 0.96999 0.13711 0.89491 0.0
N212 N 0.94597 0.14362 0.76793 0.0
C213 C 0.85567 0.09141 0.34526 0.0
C214 C 0.80298 0.03893 0.13213 0.0
C215 C 0.77567 0.04956 0.26012 0.0
C216 C 0.80406 0.07386 0.369 0.0
C217 C 0.85638 0.05537 0.11451 0.0
N218 N 0.88262 0.08255 0.22008 0.0
H219 H 0.87061 0.11771 0.42464 0.0
H220 H 0.87336 0.05092 0.01096 0.0
H221 H 0.85144 0.16074 0.99984 0.0
H222 H 0.00458 0.12545 0.9063 0.0
O223 O 0.91357 0.19048 0.24591 0.0
O224 O 1.00005 0.18579 0.20259 0.0
O225 O 0.9971 0.0619 0.13859 0.0
C226 C 0.95901 0.21448 0.24202 0.0
H227 H 0.97974 0.04204 0.68407 0.0
H228 H 0.86353 0.15993 0.71858 0.0
H229 H 0.78195 0.02156 0.04293 0.0
H230 H 0.7845 0.0856 0.46677 0.0
Co231 Co 0.35936 0.94846 0.70082 0.0
C232 C 0.33684 0.95801 1.0131 0.0
C233 C 0.41803 0.97718 0.96385 0.0
C234 C 0.41162 0.97695 0.10343 0.0
N235 N 0.37116 0.96525 0.9022 0.0
N236 N 0.36058 0.96516 0.13309 0.0
H237 H 0.29717 0.94174 1.00477 0.0
H238 H 0.45522 0.98052 0.90765 0.0
C239 C 0.45345 0.99724 0.52882 0.0
O240 O 0.4528 0.95753 0.43901 0.0
N241 N 0.34444 0.93474 0.5008 0.0
C242 C 0.3304 0.88821 0.43973 0.0
C243 C 0.32983 0.89471 0.29357 0.0
C244 C 0.34806 0.9699 0.39165 0.0
N245 N 0.34155 0.9459 0.26467 0.0
C246 C 0.39384 0.85557 0.84857 0.0
C247 C 0.44632 0.80292 0.63544 0.0
C248 C 0.43569 0.77559 0.76343 0.0
C249 C 0.41138 0.80396 0.8723 0.0
C250 C 0.42988 0.85632 0.61782 0.0
N251 N 0.40269 0.88254 0.72339 0.0
H252 H 0.36753 0.87051 0.92795 0.0
H253 H 0.43434 0.87333 0.51428 0.0
H254 H 0.32444 0.85133 0.49657 0.0
H255 H 0.35971 0.00448 0.40304 0.0
O256 O 0.29477 0.9135 0.74921 0.0
O257 O 0.29945 0.99998 0.7059 0.0
O258 O 0.42334 0.99704 0.6419 0.0
C259 C 0.27077 0.95893 0.74532 0.0
H260 H 0.4431 0.97976 0.18081 0.0
H261 H 0.32524 0.86347 0.21531 0.0
H262 H 0.4637 0.78191 0.54625 0.0
H263 H 0.39964 0.78439 0.97008 0.0
loop_
_geom_bond_atom_site_label_1
_geom_bond_atom_site_label_2
_geom_bond_distance
_geom_bond_site_symmetry_2
_ccdc_geom_bond_type
Co0 N4 2.148 . S
Co0 N10 2.128 . S
Co0 N20 2.194 . S
Co0 O25 2.351 . S
Co0 O26 2.155 . S
Co0 O27 2.096 . S
C1 N4 1.301 1_556 S
C1 N5 1.328 . S
C1 H6 0.930 . S
C2 C3 1.333 1_554 S
C2 N4 1.317 . S
C2 H7 0.930 . S
C3 C2 1.333 1_556 S
C3 N5 1.350 . S
C3 H29 0.931 . S
N4 Co0 2.148 . S
N4 C1 1.301 1_554 S
N4 C2 1.317 . S
N5 C1 1.328 . S
N5 C3 1.350 . S
H6 C1 0.930 . S
H7 C2 0.930 . S
C8 O9 1.224 . S
C8 O27 1.247 . S
O9 C8 1.224 . S
N10 Co0 2.128 . S
N10 C11 1.355 . S
N10 C13 1.311 . S
C11 N10 1.355 . S
C11 C12 1.363 . S
C11 H23 0.929 . S
C12 C11 1.363 . S
C12 N14 1.375 . S
C12 H30 0.931 . S
C13 N10 1.311 . S
C13 N14 1.347 . S
C13 H24 0.929 . S
N14 C12 1.375 . S
N14 C13 1.347 . S
C15 C18 1.365 . S
C15 N20 1.328 . S
C15 H21 0.929 . S
C16 C17 1.362 . S
C16 C19 1.378 . S
C16 H31 0.929 1_545 S
C17 C16 1.362 . S
C17 C18 1.366 . S
C18 C15 1.365 . S
C18 C17 1.366 . S
C18 H32 0.930 . S
C19 C16 1.378 . S
C19 N20 1.315 . S
C19 H22 0.930 . S
N20 Co0 2.194 . S
N20 C15 1.328 . S
N20 C19 1.315 . S
H21 C15 0.929 . S
H22 C19 0.930 . S
H23 C11 0.929 . S
H24 C13 0.929 . S
O25 Co0 2.351 . S
O25 C28 1.244 . S
O26 Co0 2.155 . S
O26 C28 1.240 . S
O27 Co0 2.096 . S
O27 C8 1.247 . S
C28 O25 1.244 . S
C28 O26 1.240 . S
H29 C3 0.931 . S
H30 C12 0.931 . S
H31 C16 0.929 1_565 S
H32 C18 0.930 . S
Co33 N37 2.148 . S
Co33 N43 2.128 1_556 S
Co33 N53 2.194 . S
Co33 O58 2.351 . S
Co33 O59 2.155 . S
Co33 O60 2.096 . S
C34 N37 1.301 . S
C34 N38 1.328 . S
C34 H39 0.930 . S
C35 C36 1.333 . S
C35 N37 1.317 . S
C35 H40 0.930 . S
C36 C35 1.333 . S
C36 N38 1.350 . S
C36 H62 0.931 . S
N37 Co33 2.148 . S
N37 C34 1.301 . S
N37 C35 1.317 . S
N38 C34 1.328 . S
N38 C36 1.350 . S
H39 C34 0.930 . S
H40 C35 0.930 . S
C41 O42 1.224 . S
C41 O60 1.247 . S
O42 C41 1.224 . S
N43 Co33 2.128 1_554 S
N43 C44 1.355 . S
N43 C46 1.311 . S
C44 N43 1.355 . S
C44 C45 1.363 . S
C44 H56 0.929 . S
C45 C44 1.363 . S
C45 N47 1.375 . S
C45 H63 0.931 . S
C46 N43 1.311 . S
C46 N47 1.347 . S
C46 H57 0.929 . S
N47 C45 1.375 . S
N47 C46 1.347 . S
C48 C51 1.365 . S
C48 N53 1.328 . S
C48 H54 0.929 . S
C49 C50 1.362 . S
C49 C52 1.378 . S
C49 H64 0.929 . S
C50 C49 1.362 . S
C50 C51 1.366 . S
C51 C48 1.365 . S
C51 C50 1.366 . S
C51 H65 0.930 . S
C52 C49 1.378 . S
C52 N53 1.315 . S
C52 H55 0.930 . S
N53 Co33 2.194 . S
N53 C48 1.328 . S
N53 C52 1.315 . S
H54 C48 0.929 . S
H55 C52 0.930 . S
H56 C44 0.929 . S
H57 C46 0.929 . S
O58 Co33 2.351 . S
O58 C61 1.244 . S
O59 Co33 2.155 . S
O59 C61 1.240 . S
O60 Co33 2.096 . S
O60 C41 1.247 . S
C61 O58 1.244 . S
C61 O59 1.240 . S
H62 C36 0.931 . S
H63 C45 0.931 . S
H64 C49 0.929 . S
H65 C51 0.930 . S
Co66 N70 2.148 . S
Co66 N76 2.128 . S
Co66 N86 2.194 . S
Co66 O91 2.351 . S
Co66 O92 2.155 1_655 S
Co66 O93 2.096 1_655 S
C67 N70 1.301 1_556 S
C67 N71 1.328 . S
C67 H72 0.930 . S
C68 C69 1.333 1_554 S
C68 N70 1.317 1_455 S
C68 H73 0.930 . S
C69 C68 1.333 1_556 S
C69 N71 1.350 1_455 S
C69 H95 0.931 . S
N70 Co66 2.148 . S
N70 C67 1.301 1_554 S
N70 C68 1.317 1_655 S
N71 C67 1.328 . S
N71 C69 1.350 1_655 S
H72 C67 0.930 . S
H73 C68 0.930 . S
C74 O75 1.224 1_455 S
C74 O93 1.247 . S
O75 C74 1.224 1_655 S
N76 Co66 2.128 . S
N76 C77 1.355 . S
N76 C79 1.311 . S
C77 N76 1.355 . S
C77 C78 1.363 . S
C77 H89 0.929 . S
C78 C77 1.363 . S
C78 N80 1.375 . S
C78 H96 0.931 . S
C79 N76 1.311 . S
C79 N80 1.347 . S
C79 H90 0.929 . S
N80 C78 1.375 . S
N80 C79 1.347 . S
C81 C84 1.365 . S
C81 N86 1.328 . S
C81 H87 0.929 . S
C82 C83 1.362 . S
C82 C85 1.378 . S
C82 H97 0.929 . S
C83 C82 1.362 . S
C83 C84 1.366 . S
C84 C81 1.365 . S
C84 C83 1.366 . S
C84 H98 0.930 . S
C85 C82 1.378 . S
C85 N86 1.315 . S
C85 H88 0.930 . S
N86 Co66 2.194 . S
N86 C81 1.328 . S
N86 C85 1.315 . S
H87 C81 0.929 . S
H88 C85 0.930 . S
H89 C77 0.929 . S
H90 C79 0.929 . S
O91 Co66 2.351 . S
O91 C94 1.244 . S
O92 Co66 2.155 1_455 S
O92 C94 1.240 1_455 S
O93 Co66 2.096 1_455 S
O93 C74 1.247 . S
C94 O91 1.244 . S
C94 O92 1.240 1_655 S
H95 C69 0.931 . S
H96 C78 0.931 . S
H97 C82 0.929 . S
H98 C84 0.930 . S
Co99 N103 2.148 . S
Co99 N109 2.128 1_556 S
Co99 N119 2.194 . S
Co99 O124 2.351 . S
Co99 O125 2.155 1_565 S
Co99 O126 2.096 1_565 S
C100 N103 1.301 . S
C100 N104 1.328 . S
C100 H105 0.930 . S
C101 C102 1.333 . S
C101 N103 1.317 1_545 S
C101 H106 0.930 . S
C102 C101 1.333 . S
C102 N104 1.350 1_545 S
C102 H128 0.931 . S
N103 Co99 2.148 . S
N103 C100 1.301 . S
N103 C101 1.317 1_565 S
N104 C100 1.328 . S
N104 C102 1.350 1_565 S
H105 C100 0.930 . S
H106 C101 0.930 . S
C107 O108 1.224 1_545 S
C107 O126 1.247 . S
O108 C107 1.224 1_565 S
N109 Co99 2.128 1_554 S
N109 C110 1.355 . S
N109 C112 1.311 . S
C110 N109 1.355 . S
C110 C111 1.363 . S
C110 H122 0.929 . S
C111 C110 1.363 . S
C111 N113 1.375 . S
C111 H129 0.931 . S
C112 N109 1.311 . S
C112 N113 1.347 . S
C112 H123 0.929 . S
N113 C111 1.375 . S
N113 C112 1.347 . S
C114 C117 1.365 . S
C114 N119 1.328 . S
C114 H120 0.929 . S
C115 C116 1.362 . S
C115 C118 1.378 . S
C115 H130 0.929 1_455 S
C116 C115 1.362 . S
C116 C117 1.366 . S
C117 C114 1.365 . S
C117 C116 1.366 . S
C117 H131 0.930 . S
C118 C115 1.378 . S
C118 N119 1.315 . S
C118 H121 0.930 . S
N119 Co99 2.194 . S
N119 C114 1.328 . S
N119 C118 1.315 . S
H120 C114 0.929 . S
H121 C118 0.930 . S
H122 C110 0.929 . S
H123 C112 0.929 . S
O124 Co99 2.351 . S
O124 C127 1.244 . S
O125 Co99 2.155 1_545 S
O125 C127 1.240 1_545 S
O126 Co99 2.096 1_545 S
O126 C107 1.247 . S
C127 O124 1.244 . S
C127 O125 1.240 1_565 S
H128 C102 0.931 . S
H129 C111 0.931 . S
H130 C115 0.929 1_655 S
H131 C117 0.930 . S
Co132 N136 2.148 . S
Co132 N142 2.128 1_554 S
Co132 N152 2.194 . S
Co132 O157 2.351 . S
Co132 O158 2.155 . S
Co132 O159 2.096 . S
C133 N136 1.301 . S
C133 N137 1.328 . S
C133 H138 0.930 . S
C134 C135 1.333 . S
C134 N136 1.317 . S
C134 H139 0.930 . S
C135 C134 1.333 . S
C135 N137 1.350 . S
C135 H161 0.931 . S
N136 Co132 2.148 . S
N136 C133 1.301 . S
N136 C134 1.317 . S
N137 C133 1.328 . S
N137 C135 1.350 . S
H138 C133 0.930 . S
H139 C134 0.930 . S
C140 O141 1.224 . S
C140 O159 1.247 . S
O141 C140 1.224 . S
N142 Co132 2.128 1_556 S
N142 C143 1.355 . S
N142 C145 1.311 . S
C143 N142 1.355 . S
C143 C144 1.363 . S
C143 H155 0.929 . S
C144 C143 1.363 . S
C144 N146 1.375 . S
C144 H162 0.931 . S
C145 N142 1.311 . S
C145 N146 1.347 . S
C145 H156 0.929 . S
N146 C144 1.375 . S
N146 C145 1.347 . S
C147 C150 1.365 . S
C147 N152 1.328 . S
C147 H153 0.929 . S
C148 C149 1.362 . S
C148 C151 1.378 . S
C148 H163 0.929 . S
C149 C148 1.362 . S
C149 C150 1.366 . S
C150 C147 1.365 . S
C150 C149 1.366 . S
C150 H164 0.930 . S
C151 C148 1.378 . S
C151 N152 1.315 . S
C151 H154 0.930 . S
N152 Co132 2.194 . S
N152 C147 1.328 . S
N152 C151 1.315 . S
H153 C147 0.929 . S
H154 C151 0.930 . S
H155 C143 0.929 . S
H156 C145 0.929 . S
O157 Co132 2.351 . S
O157 C160 1.244 . S
O158 Co132 2.155 . S
O158 C160 1.240 . S
O159 Co132 2.096 . S
O159 C140 1.247 . S
C160 O157 1.244 . S
C160 O158 1.240 . S
H161 C135 0.931 . S
H162 C144 0.931 . S
H163 C148 0.929 . S
H164 C150 0.930 . S
Co165 N169 2.148 . S
Co165 N175 2.128 . S
Co165 N185 2.194 . S
Co165 O190 2.351 . S
Co165 O191 2.155 . S
Co165 O192 2.096 . S
C166 N169 1.301 1_554 S
C166 N170 1.328 . S
C166 H171 0.930 . S
C167 C168 1.333 1_556 S
C167 N169 1.317 . S
C167 H172 0.930 . S
C168 C167 1.333 1_554 S
C168 N170 1.350 . S
C168 H194 0.931 . S
N169 Co165 2.148 . S
N169 C166 1.301 1_556 S
N169 C167 1.317 . S
N170 C166 1.328 . S
N170 C168 1.350 . S
H171 C166 0.930 . S
H172 C167 0.930 . S
C173 O174 1.224 . S
C173 O192 1.247 . S
O174 C173 1.224 . S
N175 Co165 2.128 . S
N175 C176 1.355 . S
N175 C178 1.311 . S
C176 N175 1.355 . S
C176 C177 1.363 . S
C176 H188 0.929 . S
C177 C176 1.363 . S
C177 N179 1.375 . S
C177 H195 0.931 . S
C178 N175 1.311 . S
C178 N179 1.347 . S
C178 H189 0.929 . S
N179 C177 1.375 . S
N179 C178 1.347 . S
C180 C183 1.365 . S
C180 N185 1.328 . S
C180 H186 0.929 . S
C181 C182 1.362 . S
C181 C184 1.378 . S
C181 H196 0.929 1_455 S
C182 C181 1.362 . S
C182 C183 1.366 . S
C183 C180 1.365 . S
C183 C182 1.366 . S
C183 H197 0.930 . S
C184 C181 1.378 . S
C184 N185 1.315 . S
C184 H187 0.930 . S
N185 Co165 2.194 . S
N185 C180 1.328 . S
N185 C184 1.315 . S
H186 C180 0.929 . S
H187 C184 0.930 . S
H188 C176 0.929 . S
H189 C178 0.929 . S
O190 Co165 2.351 . S
O190 C193 1.244 . S
O191 Co165 2.155 . S
O191 C193 1.240 . S
O192 Co165 2.096 . S
O192 C173 1.247 . S
C193 O190 1.244 . S
C193 O191 1.240 . S
H194 C168 0.931 . S
H195 C177 0.931 . S
H196 C181 0.929 1_655 S
H197 C183 0.930 . S
Co198 N202 2.148 . S
Co198 N208 2.128 1_554 S
Co198 N218 2.194 . S
Co198 O223 2.351 . S
Co198 O224 2.155 1_655 S
Co198 O225 2.096 1_655 S
C199 N202 1.301 . S
C199 N203 1.328 . S
C199 H204 0.930 . S
C200 C201 1.333 . S
C200 N202 1.317 1_455 S
C200 H205 0.930 . S
C201 C200 1.333 . S
C201 N203 1.350 1_455 S
C201 H227 0.931 . S
N202 Co198 2.148 . S
N202 C199 1.301 . S
N202 C200 1.317 1_655 S
N203 C199 1.328 . S
N203 C201 1.350 1_655 S
H204 C199 0.930 . S
H205 C200 0.930 . S
C206 O207 1.224 1_455 S
C206 O225 1.247 . S
O207 C206 1.224 1_655 S
N208 Co198 2.128 1_556 S
N208 C209 1.355 . S
N208 C211 1.311 . S
C209 N208 1.355 . S
C209 C210 1.363 . S
C209 H221 0.929 . S
C210 C209 1.363 . S
C210 N212 1.375 . S
C210 H228 0.931 . S
C211 N208 1.311 . S
C211 N212 1.347 . S
C211 H222 0.929 . S
N212 C210 1.375 . S
N212 C211 1.347 . S
C213 C216 1.365 . S
C213 N218 1.328 . S
C213 H219 0.929 . S
C214 C215 1.362 . S
C214 C217 1.378 . S
C214 H229 0.929 1_545 S
C215 C214 1.362 . S
C215 C216 1.366 . S
C216 C213 1.365 . S
C216 C215 1.366 . S
C216 H230 0.930 . S
C217 C214 1.378 . S
C217 N218 1.315 . S
C217 H220 0.930 . S
N218 Co198 2.194 . S
N218 C213 1.328 . S
N218 C217 1.315 . S
H219 C213 0.929 . S
H220 C217 0.930 . S
H221 C209 0.929 . S
H222 C211 0.929 . S
O223 Co198 2.351 . S
O223 C226 1.244 . S
O224 Co198 2.155 1_455 S
O224 C226 1.240 1_455 S
O225 Co198 2.096 1_455 S
O225 C206 1.247 . S
C226 O223 1.244 . S
C226 O224 1.240 1_655 S
H227 C201 0.931 . S
H228 C210 0.931 . S
H229 C214 0.929 1_565 S
H230 C216 0.930 . S
Co231 N235 2.148 . S
Co231 N241 2.128 . S
Co231 N251 2.194 . S
Co231 O256 2.351 . S
Co231 O257 2.155 1_565 S
Co231 O258 2.096 1_565 S
C232 N235 1.301 1_554 S
C232 N236 1.328 . S
C232 H237 0.930 . S
C233 C234 1.333 1_556 S
C233 N235 1.317 1_545 S
C233 H238 0.930 . S
C234 C233 1.333 1_554 S
C234 N236 1.350 1_545 S
C234 H260 0.931 . S
N235 Co231 2.148 . S
N235 C232 1.301 1_556 S
N235 C233 1.317 1_565 S
N236 C232 1.328 . S
N236 C234 1.350 1_565 S
H237 C232 0.930 . S
H238 C233 0.930 . S
C239 O240 1.224 1_545 S
C239 O258 1.247 . S
O240 C239 1.224 1_565 S
N241 Co231 2.128 . S
N241 C242 1.355 . S
N241 C244 1.311 . S
C242 N241 1.355 . S
C242 C243 1.363 . S
C242 H254 0.929 . S
C243 C242 1.363 . S
C243 N245 1.375 . S
C243 H261 0.931 . S
C244 N241 1.311 . S
C244 N245 1.347 . S
C244 H255 0.929 . S
N245 C243 1.375 . S
N245 C244 1.347 . S
C246 C249 1.365 . S
C246 N251 1.328 . S
C246 H252 0.929 . S
C247 C248 1.362 . S
C247 C250 1.378 . S
C247 H262 0.929 . S
C248 C247 1.362 . S
C248 C249 1.366 . S
C249 C246 1.365 . S
C249 C248 1.366 . S
C249 H263 0.930 . S
C250 C247 1.378 . S
C250 N251 1.315 . S
C250 H253 0.930 . S
N251 Co231 2.194 . S
N251 C246 1.328 . S
N251 C250 1.315 . S
H252 C246 0.929 . S
H253 C250 0.930 . S
H254 C242 0.929 . S
H255 C244 0.929 . S
O256 Co231 2.351 . S
O256 C259 1.244 . S
O257 Co231 2.155 1_545 S
O257 C259 1.240 1_545 S
O258 Co231 2.096 1_545 S
O258 C239 1.247 . S
C259 O256 1.244 . S
C259 O257 1.240 1_565 S
H260 C234 0.931 . S
H261 C243 0.931 . S
H262 C247 0.929 . S
H263 C249 0.930 . S
C239 C8 1.816 . S
C140 C41 1.816 1_554 S
C74 C173 1.816 . S
C206 C107 1.816 1_554 S
C28 C160 1.704 . S
C193 C61 1.704 . S
C226 C94 1.704 . S
C259 C127 1.704 . S
C248 C50 1.708 . S
C83 C149 1.708 . S
C116 C182 1.708 . S
C215 C17 1.708 . S
N14 N5 1.737 . S
N38 N47 1.737 . S
N71 N80 1.737 . S
N113 N104 1.737 . S
N137 N146 1.737 . S
N170 N179 1.737 . S
N203 N212 1.737 . S
N245 N236 1.737 . S
