# Generated by pormake.
# Topology sml, (6)-cn, num edge types: 1
# Building blocks:
#     Node 0, Type 0, BuildingBlock: BETDIP_clean_sbu_0, # of connection points: 6
#     Node 1, Type 0, BuildingBlock: BETDIP_clean_sbu_0, # of connection points: 6
#     Node 2, Type 0, BuildingBlock: BETDIP_clean_sbu_0, # of connection points: 6
#     Node 3, Type 0, BuildingBlock: BETDIP_clean_sbu_0, # of connection points: 6
#     Node 4, Type 0, BuildingBlock: BETDIP_clean_sbu_0, # of connection points: 6
#     Node 5, Type 0, BuildingBlock: BETDIP_clean_sbu_0, # of connection points: 6
#     Edge 6, Type (0, 0), BuildingBlock: UVAHIK_clean_linker_0, # of connection points: 2
#     Edge 7, Type (0, 0), BuildingBlock: UVAHIK_clean_linker_0, # of connection points: 2
#     Edge 8, Type (0, 0), BuildingBlock: UVAHIK_clean_linker_0, # of connection points: 2
#     Edge 9, Type (0, 0), BuildingBlock: UVAHIK_clean_linker_0, # of connection points: 2
#     Edge 10, Type (0, 0), BuildingBlock: UVAHIK_clean_linker_0, # of connection points: 2
#     Edge 11, Type (0, 0), BuildingBlock: UVAHIK_clean_linker_0, # of connection points: 2
#     Edge 12, Type (0, 0), BuildingBlock: UVAHIK_clean_linker_0, # of connection points: 2
#     Edge 13, Type (0, 0), BuildingBlock: UVAHIK_clean_linker_0, # of connection points: 2
#     Edge 14, Type (0, 0), BuildingBlock: UVAHIK_clean_linker_0, # of connection points: 2
#     Edge 15, Type (0, 0), BuildingBlock: UVAHIK_clean_linker_0, # of connection points: 2
#     Edge 16, Type (0, 0), BuildingBlock: UVAHIK_clean_linker_0, # of connection points: 2
#     Edge 17, Type (0, 0), BuildingBlock: UVAHIK_clean_linker_0, # of connection points: 2
#     Edge 18, Type (0, 0), BuildingBlock: UVAHIK_clean_linker_0, # of connection points: 2
#     Edge 19, Type (0, 0), BuildingBlock: UVAHIK_clean_linker_0, # of connection points: 2
#     Edge 20, Type (0, 0), BuildingBlock: UVAHIK_clean_linker_0, # of connection points: 2
#     Edge 21, Type (0, 0), BuildingBlock: UVAHIK_clean_linker_0, # of connection points: 2
#     Edge 22, Type (0, 0), BuildingBlock: UVAHIK_clean_linker_0, # of connection points: 2
#     Edge 23, Type (0, 0), BuildingBlock: UVAHIK_clean_linker_0, # of connection points: 2
# Relax obj value: 0.224
# Max RMSD: 0.235
# Mean RMSD: 0.235
data_MOF--net-sml--node1-BETDIP_clean_sbu_0--edge1-UVAHIK_clean_linker_0
_symmetry_space_group_name_H-M    P1
_symmetry_Int_Tables_number       1
_symmetry_cell_setting            triclinic
loop_
_symmetry_equiv_pos_as_xyz
'x, y, z'
_cell_length_a     43.917226
_cell_length_b     43.899465
_cell_length_c     29.61271
_cell_angle_alpha  90.073144
_cell_angle_beta   90.017581
_cell_angle_gamma 120.0499
loop_
_atom_site_label
_atom_site_type_symbol
_atom_site_fract_x
_atom_site_fract_y
_atom_site_fract_z
_atom_type_partial_charge
Tb0 Tb 0.18415 0.43823 0.95579 0.0
Tb1 Tb 0.20208 0.4077 0.03725 0.0
C2 C 0.18285 0.46418 0.8804 0.0
C3 C 0.18577 0.45833 0.83183 0.0
C4 C 0.2082 0.44656 0.81572 0.0
C5 C 0.21042 0.44162 0.76926 0.0
C6 C 0.19037 0.44853 0.73806 0.0
C7 C 0.16783 0.46009 0.75462 0.0
C8 C 0.16558 0.46491 0.80092 0.0
C9 C 0.13055 0.39124 1.00258 0.0
C10 C 0.20156 0.37567 0.94401 0.0
C11 C 0.20236 0.38107 0.11252 0.0
C12 C 0.20047 0.38748 0.16117 0.0
C13 C 0.17868 0.39982 0.17798 0.0
C14 C 0.17727 0.40505 0.22452 0.0
C15 C 0.1975 0.39791 0.25512 0.0
C16 C 0.21944 0.38585 0.23787 0.0
C17 C 0.22087 0.3807 0.19149 0.0
C18 C 0.25582 0.45563 0.99101 0.0
C19 C 0.18644 0.47146 0.04921 0.0
O20 O 0.21125 0.4755 0.90511 0.0
O21 O 0.15475 0.44 0.90095 0.0
O22 O 0.15812 0.3904 0.99352 0.0
O23 O 0.13142 0.41807 0.98309 0.0
O24 O 0.19989 0.4024 0.92584 0.0
O25 O 0.19803 0.36939 0.98793 0.0
O26 O 0.17394 0.37121 0.08829 0.0
O27 O 0.23089 0.40401 0.09148 0.0
O28 O 0.22781 0.45556 0.99988 0.0
O29 O 0.25558 0.42919 0.01082 0.0
O30 O 0.18793 0.44466 0.06756 0.0
O31 O 0.18908 0.47705 1.00508 0.0
H32 H 0.22414 0.44141 0.83896 0.0
H33 H 0.22825 0.43296 0.75774 0.0
H34 H 0.15155 0.46508 0.7318 0.0
H35 H 0.148 0.47386 0.81263 0.0
H36 H 0.1626 0.40516 0.15524 0.0
H37 H 0.15986 0.41409 0.23658 0.0
H38 H 0.23585 0.38067 0.2602 0.0
H39 H 0.23796 0.37131 0.17924 0.0
Tb40 Tb 0.75337 0.18534 0.29161 0.0
Tb41 Tb 0.79931 0.20058 0.37484 0.0
C42 C 0.72746 0.18677 0.21627 0.0
C43 C 0.73629 0.19001 0.1679 0.0
C44 C 0.77114 0.20943 0.15249 0.0
C45 C 0.77841 0.21205 0.1061 0.0
C46 C 0.75092 0.19543 0.07442 0.0
C47 C 0.71613 0.17587 0.09028 0.0
C48 C 0.70895 0.17323 0.13649 0.0
C49 C 0.74462 0.13004 0.33615 0.0
C50 C 0.83295 0.20165 0.28267 0.0
C51 C 0.82481 0.19855 0.45022 0.0
C52 C 0.81743 0.19872 0.49876 0.0
C53 C 0.78304 0.18063 0.516 0.0
C54 C 0.77716 0.18077 0.56249 0.0
C55 C 0.80557 0.19889 0.59254 0.0
C56 C 0.83988 0.21722 0.57487 0.0
C57 C 0.8457 0.21711 0.52851 0.0
C58 C 0.80626 0.25577 0.33094 0.0
C59 C 0.72037 0.18652 0.38423 0.0
O60 O 0.74575 0.21462 0.24157 0.0
O61 O 0.72194 0.15779 0.23597 0.0
O62 O 0.77361 0.15765 0.32912 0.0
O63 O 0.71959 0.13189 0.31554 0.0
O64 O 0.80546 0.20114 0.26328 0.0
O65 O 0.83395 0.19646 0.32646 0.0
O66 O 0.80323 0.1705 0.42701 0.0
O67 O 0.83392 0.22768 0.42823 0.0
O68 O 0.77828 0.22744 0.3381 0.0
O69 O 0.83203 0.25507 0.35129 0.0
O70 O 0.74804 0.18749 0.40389 0.0
O71 O 0.71868 0.18972 0.33998 0.0
H72 H 0.79265 0.22269 0.17621 0.0
H73 H 0.80546 0.22753 0.09504 0.0
H74 H 0.69439 0.16222 0.06696 0.0
H75 H 0.6819 0.15799 0.14776 0.0
H76 H 0.7608 0.16614 0.49366 0.0
H77 H 0.75043 0.16613 0.57497 0.0
H78 H 0.86231 0.23193 0.59687 0.0
H79 H 0.87243 0.23133 0.51585 0.0
Tb80 Tb 0.56787 0.74882 0.62235 0.0
Tb81 Tb 0.59717 0.79739 0.70432 0.0
C82 C 0.54275 0.72144 0.54665 0.0
C83 C 0.54902 0.73026 0.49825 0.0
C84 C 0.56444 0.7651 0.48275 0.0
C85 C 0.56945 0.77236 0.43636 0.0
C86 C 0.55903 0.74489 0.40468 0.0
C87 C 0.54395 0.71013 0.42067 0.0
C88 C 0.53901 0.70295 0.46689 0.0
C89 C 0.61271 0.74102 0.67218 0.0
C90 C 0.6314 0.82846 0.61175 0.0
C91 C 0.62313 0.82451 0.77983 0.0
C92 C 0.61695 0.8162 0.82838 0.0
C93 C 0.6023 0.78162 0.84463 0.0
C94 C 0.59729 0.77489 0.89113 0.0
C95 C 0.607 0.80264 0.92217 0.0
C96 C 0.62138 0.83712 0.90546 0.0
C97 C 0.62628 0.84377 0.85912 0.0
C98 C 0.55091 0.80393 0.65527 0.0
C99 C 0.5318 0.71861 0.71477 0.0
O100 O 0.53126 0.73864 0.57078 0.0
O101 O 0.56678 0.71763 0.56785 0.0
O102 O 0.61453 0.76979 0.6624 0.0
O103 O 0.58615 0.71534 0.65171 0.0
O104 O 0.60525 0.79995 0.59278 0.0
O105 O 0.63629 0.83166 0.65595 0.0
O106 O 0.63362 0.80643 0.75572 0.0
O107 O 0.59965 0.82925 0.75875 0.0
O108 O 0.55046 0.77587 0.66485 0.0
O109 O 0.57687 0.83 0.67612 0.0
O110 O 0.55856 0.74653 0.73409 0.0
O111 O 0.52756 0.71574 0.67039 0.0
H112 H 0.57233 0.78661 0.5064 0.0
H113 H 0.5809 0.7994 0.42528 0.0
H114 H 0.53622 0.68839 0.39744 0.0
H115 H 0.52725 0.67591 0.4782 0.0
H116 H 0.59499 0.75991 0.82147 0.0
H117 H 0.5864 0.74806 0.90282 0.0
H118 H 0.62859 0.85904 0.92821 0.0
H119 H 0.63748 0.87061 0.84725 0.0
Tb120 Tb 0.80923 0.56483 0.97296 0.0
Tb121 Tb 0.78528 0.58937 0.05502 0.0
C122 C 0.81586 0.54274 0.89714 0.0
C123 C 0.81226 0.54798 0.84873 0.0
C124 C 0.78933 0.55921 0.83298 0.0
C125 C 0.78634 0.56343 0.78654 0.0
C126 C 0.80615 0.55637 0.75513 0.0
C127 C 0.82927 0.54546 0.77138 0.0
C128 C 0.83225 0.54131 0.81764 0.0
C129 C 0.85926 0.60925 0.02674 0.0
C130 C 0.78935 0.62569 0.96397 0.0
C131 C 0.77923 0.61193 0.13078 0.0
C132 C 0.78293 0.60684 0.1792 0.0
C133 C 0.80632 0.59622 0.19505 0.0
C134 C 0.80938 0.59215 0.24151 0.0
C135 C 0.78922 0.59878 0.27283 0.0
C136 C 0.76567 0.60911 0.2565 0.0
C137 C 0.7626 0.61308 0.21022 0.0
C138 C 0.73519 0.5437 1.00177 0.0
C139 C 0.80392 0.52775 0.06424 0.0
O140 O 0.78691 0.52748 0.92107 0.0
O141 O 0.8417 0.5692 0.91844 0.0
O142 O 0.83193 0.61002 0.01593 0.0
O143 O 0.86035 0.58416 1.00508 0.0
O144 O 0.79295 0.60058 0.94406 0.0
O145 O 0.79031 0.62939 0.00833 0.0
O146 O 0.8081 0.62688 0.10665 0.0
O147 O 0.75316 0.58555 0.1097 0.0
O148 O 0.76297 0.544 0.01266 0.0
O149 O 0.73341 0.56852 0.02325 0.0
O150 O 0.80088 0.55321 0.08414 0.0
O151 O 0.80325 0.52428 0.01978 0.0
H152 H 0.77362 0.56447 0.85648 0.0
H153 H 0.76811 0.57164 0.77521 0.0
H154 H 0.8454 0.54042 0.74834 0.0
H155 H 0.85022 0.5328 0.82917 0.0
H156 H 0.82233 0.59132 0.17161 0.0
H157 H 0.82795 0.5844 0.25294 0.0
H158 H 0.74929 0.61382 0.27949 0.0
H159 H 0.74429 0.62114 0.19861 0.0
Tb160 Tb 0.23152 0.80271 0.31461 0.0
Tb161 Tb 0.18782 0.77789 0.40195 0.0
C162 C 0.26435 0.80663 0.2433 0.0
C163 C 0.26267 0.81358 0.19502 0.0
C164 C 0.2809 0.80453 0.16397 0.0
C165 C 0.27757 0.80804 0.1176 0.0
C166 C 0.2559 0.82072 0.10121 0.0
C167 C 0.23798 0.83023 0.13266 0.0
C168 C 0.24126 0.82658 0.17917 0.0
C169 C 0.22298 0.85067 0.35754 0.0
C170 C 0.15195 0.78226 0.31326 0.0
C171 C 0.16362 0.77047 0.48051 0.0
C172 C 0.17662 0.78179 0.52715 0.0
C173 C 0.16235 0.79826 0.5533 0.0
C174 C 0.17177 0.80635 0.59874 0.0
C175 C 0.19559 0.79798 0.61919 0.0
C176 C 0.21068 0.78241 0.5925 0.0
C177 C 0.20131 0.77441 0.54701 0.0
C178 C 0.18058 0.72846 0.34504 0.0
C179 C 0.26915 0.80114 0.4052 0.0
O180 O 0.2376 0.77744 0.25839 0.0
O181 O 0.27405 0.83308 0.27139 0.0
O182 O 0.22689 0.82674 0.37481 0.0
O183 O 0.22655 0.85008 0.31406 0.0
O184 O 0.17806 0.78275 0.29023 0.0
O185 O 0.153 0.78605 0.35772 0.0
O186 O 0.16604 0.7948 0.45257 0.0
O187 O 0.17127 0.74821 0.46124 0.0
O188 O 0.20821 0.75648 0.3545 0.0
O189 O 0.15518 0.72608 0.36979 0.0
O190 O 0.23989 0.79247 0.4278 0.0
O191 O 0.27148 0.80522 0.36075 0.0
H192 H 0.29715 0.79397 0.17559 0.0
H193 H 0.29123 0.7998 0.09457 0.0
H194 H 0.22135 0.84041 0.12136 0.0
H195 H 0.22671 0.83339 0.20269 0.0
H196 H 0.14332 0.80427 0.53879 0.0
H197 H 0.16011 0.81892 0.61795 0.0
H198 H 0.22885 0.77527 0.6071 0.0
H199 H 0.2128 0.76167 0.52779 0.0
Tb200 Tb 0.43182 0.24371 0.62801 0.0
Tb201 Tb 0.40676 0.19642 0.71043 0.0
C202 C 0.45588 0.27097 0.55202 0.0
C203 C 0.44899 0.26252 0.50359 0.0
C204 C 0.43425 0.22791 0.4873 0.0
C205 C 0.42885 0.22107 0.44084 0.0
C206 C 0.43822 0.24875 0.40992 0.0
C207 C 0.45257 0.28325 0.42669 0.0
C208 C 0.45789 0.29001 0.47298 0.0
C209 C 0.38837 0.25226 0.68004 0.0
C210 C 0.36895 0.16379 0.61969 0.0
C211 C 0.38567 0.1669 0.78604 0.0
C212 C 0.38733 0.17575 0.83425 0.0
C213 C 0.39977 0.21039 0.84906 0.0
C214 C 0.40236 0.21797 0.89541 0.0
C215 C 0.39237 0.19097 0.92758 0.0
C216 C 0.37964 0.15631 0.91226 0.0
C217 C 0.3772 0.14884 0.86611 0.0
C218 C 0.45166 0.1904 0.65758 0.0
C219 C 0.46811 0.27625 0.71946 0.0
O220 O 0.46738 0.25342 0.57528 0.0
O221 O 0.43236 0.275 0.57409 0.0
O222 O 0.38655 0.22319 0.67145 0.0
O223 O 0.41276 0.27687 0.65573 0.0
O224 O 0.39377 0.19233 0.59927 0.0
O225 O 0.36636 0.16112 0.66413 0.0
O226 O 0.36716 0.17546 0.75976 0.0
O227 O 0.41533 0.17344 0.76744 0.0
O228 O 0.45218 0.21829 0.66841 0.0
O229 O 0.42608 0.16418 0.6784 0.0
O230 O 0.44134 0.24879 0.73917 0.0
O231 O 0.4726 0.27785 0.67515 0.0
H232 H 0.42724 0.20627 0.51039 0.0
H233 H 0.41799 0.19424 0.42908 0.0
H234 H 0.4595 0.30511 0.40403 0.0
H235 H 0.46914 0.31687 0.48492 0.0
H236 H 0.40759 0.2315 0.82489 0.0
H237 H 0.41197 0.24488 0.90604 0.0
H238 H 0.37227 0.13498 0.93597 0.0
H239 H 0.36774 0.12198 0.85526 0.0
C240 C 0.34987 0.2429 0.74691 0.0
C241 C 0.36137 0.25666 0.70358 0.0
C242 C 0.32717 0.25079 0.77083 0.0
C243 C 0.30127 0.31885 0.77477 0.0
H244 H 0.22894 0.25438 0.85692 0.0
C245 C 0.21311 0.35955 0.86745 0.0
C246 C 0.21049 0.35408 0.91439 0.0
C247 C 0.22641 0.34312 0.83994 0.0
C248 C 0.24912 0.27264 0.83416 0.0
H249 H 0.35764 0.28841 0.65041 0.0
H250 H 0.31718 0.30125 0.69117 0.0
H251 H 0.26185 0.23392 0.81157 0.0
H252 H 0.21779 0.32527 0.96883 0.0
H253 H 0.24116 0.29664 0.92062 0.0
H254 H 0.28888 0.35759 0.79735 0.0
C255 C 0.32615 0.28506 0.70742 0.0
C256 C 0.26803 0.26099 0.80829 0.0
C257 C 0.34912 0.27754 0.68391 0.0
C258 C 0.21952 0.33013 0.93282 0.0
C259 C 0.23281 0.31362 0.90519 0.0
C260 C 0.28231 0.33036 0.80029 0.0
C261 C 0.31554 0.27251 0.75162 0.0
C262 C 0.2944 0.28403 0.77833 0.0
C263 C 0.23736 0.32078 0.85867 0.0
C264 C 0.25608 0.30747 0.83034 0.0
H265 H 0.35989 0.22777 0.76329 0.0
H266 H 0.32003 0.24115 0.80505 0.0
H267 H 0.32198 0.33762 0.753 0.0
H268 H 0.20592 0.3774 0.85198 0.0
H269 H 0.22898 0.34862 0.80405 0.0
C270 C 0.09744 0.33402 0.04383 0.0
C271 C 0.103 0.36775 0.03428 0.0
C272 C 0.07036 0.31166 0.07307 0.0
C273 C 0.99398 0.26602 0.10943 0.0
H274 H 0.98394 0.30214 0.22471 0.0
C275 C 0.86335 0.21287 0.20781 0.0
C276 C 0.86457 0.21113 0.25513 0.0
C277 C 0.89422 0.22654 0.18233 0.0
C278 C 0.98661 0.29147 0.19291 0.0
H279 H 0.08552 0.40503 0.04817 0.0
H280 H 0.03881 0.36635 0.09992 0.0
H281 H 0.03578 0.33775 0.17825 0.0
H282 H 0.89897 0.22068 0.31258 0.0
H283 H 0.95279 0.2448 0.26803 0.0
H284 H 0.94401 0.22029 0.12336 0.0
C285 C 0.0551 0.35706 0.08467 0.0
C286 C 0.01613 0.31194 0.16626 0.0
C287 C 0.08163 0.37906 0.0549 0.0
C288 C 0.89707 0.22169 0.2762 0.0
C289 C 0.92794 0.23567 0.25077 0.0
C290 C 0.96412 0.2457 0.13585 0.0
C291 C 0.04904 0.32309 0.09379 0.0
C292 C 0.0198 0.29965 0.12399 0.0
C293 C 0.92692 0.239 0.20372 0.0
C294 C 0.95996 0.25847 0.17757 0.0
H295 H 0.11363 0.32478 0.02815 0.0
H296 H 0.06617 0.28557 0.0797 0.0
H297 H 0.99618 0.25609 0.0768 0.0
H298 H 0.83872 0.20473 0.19051 0.0
H299 H 0.89268 0.22899 0.14612 0.0
C300 C 0.70479 0.07378 0.37463 0.0
C301 C 0.73918 0.09973 0.36351 0.0
C302 C 0.6987 0.04441 0.39964 0.0
C303 C 0.73991 0.01046 0.47768 0.0
H304 H 0.65816 0.92133 0.44539 0.0
C305 C 0.65466 0.85392 0.53556 0.0
C306 C 0.65399 0.85866 0.58239 0.0
C307 C 0.67173 0.88293 0.50692 0.0
C308 C 0.6815 0.94576 0.45455 0.0
H309 H 0.7943 0.11558 0.36968 0.0
H310 H 0.78365 0.06374 0.41355 0.0
H311 H 0.67507 0.97249 0.39841 0.0
H312 H 0.67222 0.89743 0.63617 0.0
H313 H 0.70107 0.94806 0.58622 0.0
H314 H 0.74638 0.98345 0.53381 0.0
C315 C 0.76142 0.06638 0.40324 0.0
C316 C 0.69088 0.9753 0.42791 0.0
C317 C 0.76753 0.09596 0.37814 0.0
C318 C 0.67236 0.89291 0.60022 0.0
C319 C 0.68907 0.92198 0.57151 0.0
C320 C 0.73061 0.98074 0.50434 0.0
C321 C 0.72686 0.04011 0.41388 0.0
C322 C 0.71962 0.00819 0.43974 0.0
C323 C 0.68808 0.91738 0.52439 0.0
C324 C 0.70083 0.94816 0.49359 0.0
H325 H 0.68246 0.07619 0.36411 0.0
H326 H 0.67182 0.02515 0.40813 0.0
H327 H 0.76219 0.03544 0.48775 0.0
H328 H 0.64117 0.82781 0.52083 0.0
H329 H 0.67118 0.87833 0.47092 0.0
C330 C 0.66861 0.76407 0.71625 0.0
C331 C 0.63487 0.73636 0.70544 0.0
C332 C 0.68972 0.75876 0.74702 0.0
C333 C 0.73302 0.72676 0.78696 0.0
H334 H 0.69273 0.67958 0.90037 0.0
C335 C 0.78101 0.64639 0.88855 0.0
C336 C 0.78096 0.64841 0.93594 0.0
C337 C 0.76866 0.6644 0.8623 0.0
C338 C 0.70457 0.69321 0.86914 0.0
H339 H 0.5963 0.68182 0.71854 0.0
H340 H 0.63281 0.67274 0.77282 0.0
H341 H 0.65941 0.6973 0.85181 0.0
H342 H 0.76969 0.67251 0.99279 0.0
H343 H 0.74796 0.70364 0.94689 0.0
H344 H 0.77766 0.7214 0.80359 0.0
C345 C 0.64305 0.69843 0.75749 0.0
C346 C 0.6854 0.7031 0.84127 0.0
C347 C 0.62229 0.70355 0.72626 0.0
C348 C 0.76996 0.67021 0.95639 0.0
C349 C 0.75738 0.68797 0.93017 0.0
C350 C 0.75206 0.71643 0.81463 0.0
C351 C 0.67702 0.72588 0.76792 0.0
C352 C 0.69917 0.71939 0.7996 0.0
C353 C 0.75582 0.68456 0.88295 0.0
C354 C 0.73775 0.69907 0.85567 0.0
H355 H 0.67882 0.78958 0.70041 0.0
H356 H 0.71583 0.7803 0.75464 0.0
H357 H 0.74408 0.73913 0.75483 0.0
H358 H 0.78948 0.63 0.87169 0.0
H359 H 0.76754 0.66111 0.82597 0.0
C360 C 0.11917 0.77526 0.24137 0.0
C361 C 0.11938 0.77412 0.28879 0.0
C362 C 0.08764 0.7634 0.21786 0.0
C363 C 0.99536 0.6985 0.22893 0.0
H364 H 0.98554 0.73998 0.11821 0.0
C365 C 0.88838 0.66323 0.07517 0.0
C366 C 0.88414 0.63051 0.06246 0.0
C367 C 0.91342 0.68381 0.10778 0.0
C368 C 0.98768 0.72836 0.14944 0.0
H369 H 0.08688 0.76121 0.3488 0.0
H370 H 0.03171 0.74009 0.30753 0.0
H371 H 0.03743 0.77344 0.16605 0.0
H372 H 0.90152 0.59294 0.07451 0.0
H373 H 0.94478 0.62852 0.13183 0.0
H374 H 0.94645 0.65284 0.2113 0.0
C375 C 0.056 0.75017 0.28869 0.0
C376 C 0.01743 0.74736 0.17659 0.0
C377 C 0.08761 0.7624 0.31226 0.0
C378 C 0.90448 0.6182 0.0836 0.0
C379 C 0.92898 0.6384 0.11664 0.0
C380 C 0.96587 0.67938 0.20155 0.0
C381 C 0.05564 0.74986 0.24125 0.0
C382 C 0.02194 0.73227 0.21604 0.0
C383 C 0.934 0.67157 0.12867 0.0
C384 C 0.9622 0.69379 0.161 0.0
H385 H 0.14323 0.78433 0.22228 0.0
H386 H 0.08814 0.76318 0.18129 0.0
H387 H -0.00176 0.68607 0.25893 0.0
H388 H 0.87295 0.67321 0.05915 0.0
H389 H 0.91683 0.7093 0.11656 0.0
C390 C 0.32294 0.10027 0.61294 0.0
C391 C 0.34501 0.13277 0.59203 0.0
C392 C 0.30377 0.06988 0.5871 0.0
C393 C 0.26965 0.03462 0.4741 0.0
H394 H 0.28616 0.95941 0.51096 0.0
C395 C 0.23607 0.91311 0.36163 0.0
C396 C 0.22753 0.88141 0.38337 0.0
C397 C 0.24549 0.94354 0.38696 0.0
C398 C 0.28049 0.97969 0.50058 0.0
H399 H 0.36243 0.15915 0.52735 0.0
H400 H 0.32868 0.10585 0.48221 0.0
H401 H 0.31051 0.01296 0.55533 0.0
H402 H 0.22045 0.85622 0.44841 0.0
H403 H 0.2344 0.9082 0.4924 0.0
H404 H 0.23933 0.00111 0.41937 0.0
C405 C 0.32642 0.10405 0.51866 0.0
C406 C 0.29467 0.01053 0.52601 0.0
C407 C 0.34589 0.13451 0.54456 0.0
C408 C 0.22661 0.88016 0.43069 0.0
C409 C 0.23525 0.91023 0.45593 0.0
C410 C 0.25497 0.00343 0.44882 0.0
C411 C 0.30598 0.07132 0.53978 0.0
C412 C 0.28951 0.03833 0.51304 0.0
C413 C 0.24605 0.94265 0.4345 0.0
C414 C 0.26028 0.97556 0.46175 0.0
H415 H 0.32144 0.09792 0.64938 0.0
H416 H 0.28787 0.04501 0.60419 0.0
H417 H 0.26524 0.05571 0.46346 0.0
H418 H 0.23712 0.91481 0.32512 0.0
H419 H 0.25387 0.96802 0.36921 0.0
C420 C 0.19462 0.41487 0.67143 0.0
C421 C 0.19281 0.44386 0.68846 0.0
C422 C 0.19559 0.40998 0.62477 0.0
C423 C 0.21461 0.45714 0.51498 0.0
H424 H 0.1593 0.36324 0.46514 0.0
C425 C 0.19441 0.43193 0.32212 0.0
C426 C 0.1958 0.40278 0.30482 0.0
C427 C 0.19389 0.43688 0.36883 0.0
C428 C 0.17522 0.3896 0.47848 0.0
H429 H 0.19165 0.49097 0.66943 0.0
H430 H 0.19273 0.48216 0.5884 0.0
H431 H 0.15971 0.3721 0.54647 0.0
H432 H 0.19678 0.3555 0.32348 0.0
H433 H 0.19652 0.36445 0.40459 0.0
H434 H 0.23011 0.47465 0.44699 0.0
C435 C 0.19361 0.46325 0.61103 0.0
C436 C 0.17548 0.39468 0.52522 0.0
C437 C 0.19257 0.46809 0.6576 0.0
C438 C 0.19618 0.37851 0.3355 0.0
C439 C 0.1956 0.38342 0.38212 0.0
C440 C 0.21435 0.45206 0.46824 0.0
C441 C 0.19493 0.43403 0.59392 0.0
C442 C 0.19515 0.42853 0.54413 0.0
C443 C 0.19461 0.41275 0.39949 0.0
C444 C 0.19463 0.41822 0.44932 0.0
H445 H 0.1946 0.39554 0.69413 0.0
H446 H 0.19702 0.3874 0.61287 0.0
H447 H 0.2305 0.48351 0.52833 0.0
H448 H 0.19435 0.4513 0.29958 0.0
H449 H 0.1927 0.45955 0.38091 0.0
C450 C 0.78665 0.19573 0.00765 0.0
C451 C 0.75817 0.19822 0.02499 0.0
C452 C 0.79232 0.19674 0.961 0.0
C453 C 0.74584 0.18205 0.85183 0.0
H454 H 0.84 0.23227 0.80194 0.0
C455 C 0.7716 0.20172 0.65942 0.0
C456 C 0.7997 0.19853 0.64214 0.0
C457 C 0.76662 0.20203 0.70608 0.0
C458 C 0.81354 0.21779 0.81535 0.0
H459 H 0.71418 0.20517 0.0068 0.0
H460 H 0.72407 0.20697 0.9257 0.0
H461 H 0.83167 0.23269 0.88333 0.0
H462 H 0.84402 0.1922 0.66057 0.0
H463 H 0.83533 0.19268 0.74173 0.0
H464 H 0.72769 0.16706 0.78392 0.0
C465 C 0.74161 0.20347 0.94805 0.0
C466 C 0.80878 0.21805 0.86204 0.0
C467 C 0.73595 0.20247 0.9946 0.0
C468 C 0.82249 0.19535 0.67268 0.0
C469 C 0.81752 0.19565 0.71927 0.0
C470 C 0.7506 0.18179 0.80516 0.0
C471 C 0.76966 0.20029 0.9306 0.0
C472 C 0.77486 0.20018 0.88088 0.0
C473 C 0.7896 0.19911 0.7366 0.0
C474 C 0.78451 0.19963 0.7863 0.0
H475 H 0.80404 0.19205 0.03006 0.0
H476 H 0.81397 0.19384 0.94873 0.0
H477 H 0.71938 0.16751 0.86522 0.0
H478 H 0.75382 0.20467 0.63689 0.0
H479 H 0.74511 0.20519 0.71823 0.0
C480 C 0.53756 0.72954 0.3245 0.0
C481 C 0.56365 0.75215 0.35517 0.0
C482 C 0.5422 0.73546 0.27797 0.0
C483 C 0.61131 0.7808 0.19131 0.0
H484 H 0.53265 0.76429 0.1151 0.0
C485 C 0.62827 0.8191 1.00225 0.0
C486 C 0.60236 0.79596 0.97178 0.0
C487 C 0.62365 0.81362 0.04886 0.0
C488 C 0.55481 0.76862 0.13579 0.0
H489 H 0.61506 0.799 0.36058 0.0
H490 H 0.62289 0.80973 0.27939 0.0
H491 H 0.52439 0.75602 0.19649 0.0
H492 H 0.55124 0.7487 0.96678 0.0
H493 H 0.54339 0.7388 0.04815 0.0
H494 H 0.64172 0.79343 0.1306 0.0
C495 C 0.59898 0.78709 0.29139 0.0
C496 C 0.55008 0.76391 0.18254 0.0
C497 C 0.59432 0.78118 0.33802 0.0
C498 C 0.57185 0.76691 0.9892 0.0
C499 C 0.56717 0.76147 0.03591 0.0
C500 C 0.61604 0.78554 0.14457 0.0
C501 C 0.57305 0.7642 0.26072 0.0
C502 C 0.57825 0.76988 0.21095 0.0
C503 C 0.59297 0.78484 0.06637 0.0
C504 C 0.58784 0.77948 0.11616 0.0
H505 H 0.51339 0.7072 0.33646 0.0
H506 H 0.5218 0.71708 0.25545 0.0
H507 H 0.63346 0.78508 0.21198 0.0
H508 H 0.65231 0.8415 0.99007 0.0
H509 H 0.64393 0.83235 0.07124 0.0
C510 C 0.803 0.53566 0.67511 0.0
C511 C 0.80289 0.56022 0.7056 0.0
C512 C 0.80136 0.53982 0.62854 0.0
C513 C 0.77666 0.58482 0.54256 0.0
H514 H 0.83591 0.56573 0.46416 0.0
C515 C 0.79215 0.61954 0.35276 0.0
C516 C 0.79253 0.59507 0.32237 0.0
C517 C 0.79383 0.61548 0.39936 0.0
C518 C 0.81889 0.57079 0.48548 0.0
H519 H 0.80071 0.60837 0.7107 0.0
H520 H 0.79778 0.61561 0.62935 0.0
H521 H 0.83742 0.55818 0.54552 0.0
H522 H 0.7952 0.54718 0.31741 0.0
H523 H 0.79813 0.54007 0.39878 0.0
H524 H 0.7581 0.59738 0.48252 0.0
C525 C 0.7988 0.5929 0.64158 0.0
C526 C 0.81975 0.56646 0.53219 0.0
C527 C 0.80046 0.58874 0.68826 0.0
C528 C 0.79524 0.56673 0.3398 0.0
C529 C 0.79691 0.56266 0.38649 0.0
C530 C 0.77578 0.58912 0.49584 0.0
C531 C 0.79951 0.56863 0.61111 0.0
C532 C 0.79863 0.57339 0.56135 0.0
C533 C 0.79596 0.58685 0.41689 0.0
C534 C 0.7969 0.58218 0.46667 0.0
H535 H 0.80412 0.51299 0.68726 0.0
H536 H 0.80124 0.52023 0.60616 0.0
H537 H 0.75966 0.58989 0.56389 0.0
H538 H 0.79078 0.64205 0.34052 0.0
H539 H 0.79377 0.63502 0.42166 0.0
C540 C 0.17671 0.79761 0.69959 0.0
C541 C 0.20352 0.80409 0.6685 0.0
C542 C 0.18367 0.80204 0.74597 0.0
C543 C 0.24652 0.80535 0.83179 0.0
H544 H 0.20234 0.84401 0.90808 0.0
C545 C 0.27968 0.83289 0.02174 0.0
C546 C 0.25126 0.82282 0.05155 0.0
C547 C 0.27492 0.83282 0.975 0.0
C548 C 0.21465 0.83288 0.88731 0.0
H549 H 0.25901 0.82118 0.66218 0.0
H550 H 0.27112 0.82885 0.74309 0.0
H551 H 0.19241 0.84006 0.82667 0.0
H552 H 0.19547 0.80503 0.05507 0.0
H553 H 0.18728 0.80525 0.97367 0.0
H554 H 0.26861 0.798 0.89244 0.0
C555 C 0.24454 0.81985 0.73155 0.0
C556 C 0.20895 0.8306 0.8406 0.0
C557 C 0.23759 0.81545 0.68511 0.0
C558 C 0.2181 0.81345 0.03331 0.0
C559 C 0.21337 0.81351 0.98654 0.0
C560 C 0.25226 0.80768 0.87848 0.0
C561 C 0.21762 0.81303 0.76262 0.0
C562 C 0.22465 0.81662 0.81223 0.0
C563 C 0.24164 0.82282 0.95676 0.0
C564 C 0.23626 0.82131 0.90689 0.0
H565 H 0.15002 0.7882 0.68822 0.0
H566 H 0.16215 0.79598 0.76887 0.0
H567 H 0.25859 0.7939 0.81115 0.0
H568 H 0.30574 0.84091 0.0345 0.0
H569 H 0.29741 0.84074 0.95313 0.0
C570 C 0.403 0.2128 0.34292 0.0
C571 C 0.43344 0.24201 0.36033 0.0
C572 C 0.39824 0.20729 0.29622 0.0
C573 C 0.447 0.2318 0.18765 0.0
H574 H 0.35517 0.20143 0.13555 0.0
C575 C 0.42581 0.22828 0.99451 0.0
C576 C 0.39582 0.19868 0.97696 0.0
C577 C 0.42999 0.23418 0.04117 0.0
C578 C 0.38091 0.2096 0.14957 0.0
H579 H 0.48317 0.28777 0.34208 0.0
H580 H 0.4746 0.27854 0.26095 0.0
H581 H 0.36333 0.20951 0.21706 0.0
H582 H 0.3461 0.15277 0.99482 0.0
H583 H 0.3536 0.16275 0.07601 0.0
H584 H 0.46459 0.23187 0.12021 0.0
C585 C 0.45446 0.25973 0.2833 0.0
C586 C 0.38558 0.21417 0.19636 0.0
C587 C 0.45918 0.26525 0.32989 0.0
C588 C 0.36974 0.1756 0.00718 0.0
C589 C 0.37387 0.18153 0.05377 0.0
C590 C 0.44234 0.22725 0.14089 0.0
C591 C 0.42386 0.23077 0.26579 0.0
C592 C 0.4187 0.22536 0.21602 0.0
C593 C 0.40421 0.21069 0.07143 0.0
C594 C 0.40924 0.2161 0.12121 0.0
H595 H 0.38253 0.19451 0.36535 0.0
H596 H 0.37453 0.18448 0.28396 0.0
H597 H 0.47275 0.2399 0.20164 0.0
H598 H 0.44653 0.24644 0.97226 0.0
H599 H 0.45348 0.25715 0.05355 0.0
C600 C 0.18203 0.49199 0.12659 0.0
C601 C 0.1827 0.49628 0.07948 0.0
C602 C 0.1793 0.5157 0.15539 0.0
C603 C 0.19806 0.58256 0.20671 0.0
H604 H 0.13547 0.61885 0.18132 0.0
C605 C 0.20991 0.7029 0.29949 0.0
C606 C 0.17875 0.70122 0.31424 0.0
C607 C 0.2087 0.67708 0.27085 0.0
C608 C 0.15287 0.60873 0.189 0.0
H609 H 0.18034 0.5286 0.02574 0.0
H610 H 0.17585 0.5702 0.07619 0.0
H611 H 0.1357 0.57451 0.13135 0.0
H612 H 0.12188 0.67146 0.31079 0.0
H613 H 0.11965 0.62591 0.26047 0.0
H614 H 0.21517 0.61655 0.26433 0.0
C615 C 0.17716 0.54826 0.09073 0.0
C616 C 0.15326 0.58364 0.16018 0.0
C617 C 0.17999 0.52455 0.06185 0.0
C618 C 0.14626 0.67328 0.29978 0.0
C619 C 0.14502 0.64741 0.27085 0.0
C620 C 0.1978 0.60771 0.23531 0.0
C621 C 0.17711 0.54426 0.13784 0.0
C622 C 0.17596 0.57036 0.16868 0.0
C623 C 0.17627 0.64895 0.25635 0.0
C624 C 0.17538 0.62125 0.22665 0.0
H625 H 0.18392 0.47047 0.14143 0.0
H626 H 0.17886 0.51162 0.19151 0.0
H627 H 0.21609 0.57312 0.21397 0.0
H628 H 0.23533 0.72406 0.31041 0.0
H629 H 0.23323 0.67925 0.25984 0.0
C630 C 0.66157 0.18219 0.39313 0.0
C631 C 0.6915 0.18386 0.41286 0.0
C632 C 0.63484 0.18084 0.42012 0.0
C633 C 0.6189 0.20348 0.53394 0.0
H634 H 0.52061 0.14413 0.50197 0.0
C635 C 0.47301 0.15581 0.61452 0.0
C636 C 0.47818 0.18846 0.62926 0.0
C637 C 0.49853 0.15405 0.5882 0.0
C638 C 0.54793 0.16065 0.51153 0.0
H639 H 0.71646 0.18488 0.47657 0.0
H640 H 0.6697 0.18224 0.52354 0.0
H641 H 0.56595 0.14211 0.45651 0.0
H642 H 0.51396 0.2448 0.62863 0.0
H643 H 0.5583 0.24184 0.58223 0.0
H644 H 0.60094 0.2218 0.58916 0.0
C645 C 0.66712 0.18238 0.48718 0.0
C646 C 0.57391 0.15975 0.48524 0.0
C647 C 0.69384 0.18366 0.4602 0.0
C648 C 0.50922 0.2193 0.61737 0.0
C649 C 0.53474 0.21756 0.59119 0.0
C650 C 0.59296 0.20445 0.56012 0.0
C651 C 0.63743 0.18119 0.46744 0.0
C652 C 0.60969 0.18126 0.49606 0.0
C653 C 0.52975 0.18491 0.57642 0.0
C654 C 0.55719 0.18319 0.54909 0.0
H655 H 0.65888 0.18229 0.35678 0.0
H656 H 0.61249 0.18034 0.40387 0.0
H657 H 0.64624 0.22064 0.54293 0.0
H658 H 0.44928 0.13165 0.62337 0.0
H659 H 0.49407 0.12849 0.57771 0.0
C660 C 0.28568 0.51354 0.9514 0.0
C661 C 0.28484 0.48222 0.96337 0.0
C662 C 0.31316 0.53874 0.92512 0.0
C663 C 0.38477 0.59597 0.89253 0.0
H664 H 0.41869 0.56648 0.78998 0.0
C665 C 0.50746 0.69372 0.7912 0.0
C666 C 0.50499 0.6906 0.74389 0.0
C667 C 0.48154 0.66782 0.81859 0.0
C668 C 0.4094 0.57515 0.81838 0.0
H669 H 0.31196 0.45259 0.95775 0.0
H670 H 0.36027 0.49677 0.91206 0.0
H671 H 0.37102 0.52233 0.83618 0.0
H672 H 0.47345 0.65747 0.68836 0.0
H673 H 0.42818 0.61252 0.73614 0.0
H674 H 0.42261 0.6488 0.87422 0.0
C675 C 0.33949 0.50171 0.92247 0.0
C676 C 0.38234 0.54983 0.84513 0.0
C677 C 0.31201 0.47654 0.94885 0.0
C678 C 0.47624 0.66074 0.72466 0.0
C679 C 0.45035 0.63483 0.75206 0.0
C680 C 0.41188 0.62127 0.86587 0.0
C681 C 0.3404 0.53313 0.91034 0.0
C682 C 0.3696 0.55996 0.88238 0.0
C683 C 0.45258 0.63817 0.79934 0.0
C684 C 0.42441 0.61117 0.82837 0.0
H685 H 0.26516 0.51866 0.96251 0.0
H686 H 0.31287 0.56247 0.91596 0.0
H687 H 0.37582 0.60462 0.92128 0.0
H688 H 0.52927 0.7163 0.80721 0.0
H689 H 0.48426 0.67096 0.85492 0.0
C690 C 0.77786 0.28609 0.29401 0.0
C691 C 0.80863 0.28562 0.30539 0.0
C692 C 0.77969 0.31403 0.2694 0.0
C693 C 0.79231 0.38555 0.24063 0.0
H694 H 0.85368 0.42169 0.13643 0.0
C695 C 0.80829 0.50506 0.14017 0.0
C696 C 0.80762 0.50215 0.09284 0.0
C697 C 0.81096 0.48046 0.16723 0.0
C698 C 0.83633 0.41179 0.16536 0.0
H699 H 0.86546 0.31389 0.3005 0.0
H700 H 0.86879 0.36314 0.25746 0.0
H701 H 0.85307 0.37491 0.18172 0.0
H702 H 0.80981 0.47133 0.03687 0.0
H703 H 0.81408 0.42823 0.08413 0.0
H704 H 0.77486 0.42168 0.22374 0.0
C705 C 0.84322 0.34169 0.26722 0.0
C706 C 0.83627 0.38528 0.19157 0.0
C707 C 0.84136 0.3137 0.29204 0.0
C708 C 0.81023 0.47437 0.0732 0.0
C709 C 0.81293 0.44978 0.10029 0.0
C710 C 0.79245 0.41209 0.21455 0.0
C711 C 0.81236 0.34215 0.25569 0.0
C712 C 0.81396 0.37161 0.22921 0.0
C713 C 0.81306 0.45239 0.14761 0.0
C714 C 0.81422 0.4253 0.17639 0.0
H715 H 0.75229 0.26485 0.30419 0.0
H716 H 0.75542 0.31336 0.26058 0.0
H717 H 0.77513 0.37586 0.26974 0.0
H718 H 0.80654 0.52622 0.15649 0.0
H719 H 0.81146 0.48347 0.20358 0.0
C720 C 0.33032 0.81034 0.4084 0.0
C721 C 0.30018 0.80595 0.43087 0.0
C722 C 0.35877 0.81296 0.43288 0.0
C723 C 0.37936 0.7888 0.54303 0.0
H724 H 0.47626 0.85134 0.50789 0.0
C725 C 0.52793 0.83861 0.6158 0.0
C726 C 0.52363 0.80596 0.62877 0.0
C727 C 0.50154 0.84026 0.5913 0.0
C728 C 0.44934 0.83395 0.51833 0.0
H729 H 0.27694 0.80226 0.49681 0.0
H730 H 0.32657 0.80716 0.53927 0.0
H731 H 0.42878 0.85259 0.46642 0.0
H732 H 0.48856 0.74949 0.6268 0.0
H733 H 0.44289 0.75224 0.58342 0.0
H734 H 0.39975 0.77045 0.59522 0.0
C735 C 0.32796 0.80788 0.50274 0.0
C736 C 0.42215 0.8344 0.4943 0.0
C737 C 0.29953 0.8052 0.47833 0.0
C738 C 0.49266 0.77501 0.61685 0.0
C739 C 0.46636 0.77663 0.59242 0.0
C740 C 0.40647 0.78834 0.56697 0.0
C741 C 0.3577 0.8113 0.48031 0.0
C742 C 0.38683 0.81173 0.50631 0.0
C743 C 0.47036 0.80926 0.57961 0.0
C744 C 0.44176 0.81071 0.55474 0.0
H745 H 0.33168 0.811 0.37187 0.0
H746 H 0.38116 0.81524 0.41457 0.0
H747 H 0.35245 0.7707 0.55286 0.0
H748 H 0.5516 0.86285 0.6247 0.0
H749 H 0.50526 0.86581 0.58227 0.0
C750 C 0.70867 0.48721 0.95896 0.0
C751 C 0.70783 0.51757 0.9717 0.0
C752 C 0.68247 0.46203 0.9311 0.0
C753 C 0.6122 0.40354 0.89706 0.0
H754 H 0.5781 0.43107 0.79287 0.0
C755 C 0.49143 0.30312 0.79541 0.0
C756 C 0.49423 0.30534 0.74808 0.0
C757 C 0.51676 0.32985 0.82255 0.0
C758 C 0.58748 0.42299 0.82174 0.0
H759 H 0.67924 0.5457 0.96538 0.0
H760 H 0.63313 0.5015 0.91675 0.0
H761 H 0.62455 0.47626 0.83991 0.0
H762 H 0.52565 0.33781 0.69221 0.0
H763 H 0.56997 0.38436 0.73967 0.0
H764 H 0.57563 0.35032 0.87862 0.0
C765 C 0.65424 0.49731 0.92793 0.0
C766 C 0.61382 0.44886 0.84891 0.0
C767 C 0.68044 0.52246 0.95597 0.0
C768 C 0.52266 0.33522 0.72854 0.0
C769 C 0.54798 0.36202 0.75573 0.0
C770 C 0.58581 0.37772 0.87005 0.0
C771 C 0.65486 0.4667 0.91543 0.0
C772 C 0.62657 0.4394 0.88676 0.0
C773 C 0.54549 0.35947 0.80305 0.0
C774 C 0.57318 0.38712 0.83202 0.0
H775 H 0.72937 0.48267 0.97096 0.0
H776 H 0.68393 0.43895 0.92166 0.0
H777 H 0.62118 0.3954 0.92627 0.0
H778 H 0.46986 0.28056 0.81167 0.0
H779 H 0.51382 0.32732 0.85889 0.0
loop_
_geom_bond_atom_site_label_1
_geom_bond_atom_site_label_2
_geom_bond_distance
_geom_bond_site_symmetry_2
_ccdc_geom_bond_type
Tb0 C2 2.809 . S
Tb0 O20 2.484 . S
Tb0 O21 2.440 . S
Tb0 O22 2.658 1_556 S
Tb0 O23 2.409 . S
Tb0 O24 2.378 . S
Tb0 O28 2.325 . S
Tb0 O31 2.341 1_556 S
Tb1 C11 2.809 . S
Tb1 O22 2.325 . S
Tb1 O25 2.341 1_554 S
Tb1 O26 2.484 . S
Tb1 O27 2.440 . S
Tb1 O28 2.658 1_554 S
Tb1 O29 2.409 . S
Tb1 O30 2.378 . S
C2 Tb0 2.809 . S
C2 C3 1.514 . S
C2 O20 1.248 . S
C2 O21 1.266 . S
C3 C2 1.514 . S
C3 C4 1.359 . S
C3 C8 1.348 . S
C4 C3 1.359 . S
C4 C5 1.380 . S
C4 H32 0.929 . S
C5 C4 1.380 . S
C5 C6 1.347 . S
C5 H33 0.931 . S
C6 C5 1.347 . S
C6 C7 1.369 . S
C7 C6 1.369 . S
C7 C8 1.408 . S
C7 H34 0.930 . S
C8 C3 1.348 . S
C8 C7 1.408 . S
C8 H35 0.930 . S
C9 O22 1.281 . S
C9 O23 1.254 1_554 S
C10 O24 1.236 . S
C10 O25 1.266 . S
C11 Tb1 2.809 . S
C11 C12 1.514 . S
C11 O26 1.248 . S
C11 O27 1.266 . S
C12 C11 1.514 . S
C12 C13 1.359 . S
C12 C17 1.348 . S
C13 C12 1.359 . S
C13 C14 1.380 . S
C13 H36 0.929 . S
C14 C13 1.380 . S
C14 C15 1.347 . S
C14 H37 0.931 . S
C15 C14 1.347 . S
C15 C16 1.369 . S
C16 C15 1.369 . S
C16 C17 1.408 . S
C16 H38 0.930 . S
C17 C12 1.348 . S
C17 C16 1.408 . S
C17 H39 0.930 . S
C18 O28 1.281 . S
C18 O29 1.254 1_556 S
C19 O30 1.236 . S
C19 O31 1.266 . S
O20 Tb0 2.484 . S
O20 C2 1.248 . S
O21 Tb0 2.440 . S
O21 C2 1.266 . S
O22 Tb0 2.658 1_554 S
O22 Tb1 2.325 . S
O22 C9 1.281 . S
O23 Tb0 2.409 . S
O23 C9 1.254 1_556 S
O24 Tb0 2.378 . S
O24 C10 1.236 . S
O25 Tb1 2.341 1_556 S
O25 C10 1.266 . S
O26 Tb1 2.484 . S
O26 C11 1.248 . S
O27 Tb1 2.440 . S
O27 C11 1.266 . S
O28 Tb0 2.325 . S
O28 Tb1 2.658 1_556 S
O28 C18 1.281 . S
O29 Tb1 2.409 . S
O29 C18 1.254 1_554 S
O30 Tb1 2.378 . S
O30 C19 1.236 . S
O31 Tb0 2.341 1_554 S
O31 C19 1.266 . S
H32 C4 0.929 . S
H33 C5 0.931 . S
H34 C7 0.930 . S
H35 C8 0.930 . S
H36 C13 0.929 . S
H37 C14 0.931 . S
H38 C16 0.930 . S
H39 C17 0.930 . S
Tb40 C42 2.809 . S
Tb40 O60 2.484 . S
Tb40 O61 2.440 . S
Tb40 O62 2.658 . S
Tb40 O63 2.409 . S
Tb40 O64 2.378 . S
Tb40 O68 2.325 . S
Tb40 O71 2.341 . S
Tb41 C51 2.809 . S
Tb41 O62 2.325 . S
Tb41 O65 2.341 . S
Tb41 O66 2.484 . S
Tb41 O67 2.440 . S
Tb41 O68 2.658 . S
Tb41 O69 2.409 . S
Tb41 O70 2.378 . S
C42 Tb40 2.809 . S
C42 C43 1.514 . S
C42 O60 1.248 . S
C42 O61 1.266 . S
C43 C42 1.514 . S
C43 C44 1.359 . S
C43 C48 1.348 . S
C44 C43 1.359 . S
C44 C45 1.380 . S
C44 H72 0.929 . S
C45 C44 1.380 . S
C45 C46 1.347 . S
C45 H73 0.931 . S
C46 C45 1.347 . S
C46 C47 1.369 . S
C47 C46 1.369 . S
C47 C48 1.408 . S
C47 H74 0.930 . S
C48 C43 1.348 . S
C48 C47 1.408 . S
C48 H75 0.930 . S
C49 O62 1.281 . S
C49 O63 1.254 . S
C50 O64 1.236 . S
C50 O65 1.266 . S
C51 Tb41 2.809 . S
C51 C52 1.514 . S
C51 O66 1.248 . S
C51 O67 1.266 . S
C52 C51 1.514 . S
C52 C53 1.359 . S
C52 C57 1.348 . S
C53 C52 1.359 . S
C53 C54 1.380 . S
C53 H76 0.929 . S
C54 C53 1.380 . S
C54 C55 1.347 . S
C54 H77 0.931 . S
C55 C54 1.347 . S
C55 C56 1.369 . S
C56 C55 1.369 . S
C56 C57 1.408 . S
C56 H78 0.930 . S
C57 C52 1.348 . S
C57 C56 1.408 . S
C57 H79 0.930 . S
C58 O68 1.281 . S
C58 O69 1.254 . S
C59 O70 1.236 . S
C59 O71 1.266 . S
O60 Tb40 2.484 . S
O60 C42 1.248 . S
O61 Tb40 2.440 . S
O61 C42 1.266 . S
O62 Tb40 2.658 . S
O62 Tb41 2.325 . S
O62 C49 1.281 . S
O63 Tb40 2.409 . S
O63 C49 1.254 . S
O64 Tb40 2.378 . S
O64 C50 1.236 . S
O65 Tb41 2.341 . S
O65 C50 1.266 . S
O66 Tb41 2.484 . S
O66 C51 1.248 . S
O67 Tb41 2.440 . S
O67 C51 1.266 . S
O68 Tb40 2.325 . S
O68 Tb41 2.658 . S
O68 C58 1.281 . S
O69 Tb41 2.409 . S
O69 C58 1.254 . S
O70 Tb41 2.378 . S
O70 C59 1.236 . S
O71 Tb40 2.341 . S
O71 C59 1.266 . S
H72 C44 0.929 . S
H73 C45 0.931 . S
H74 C47 0.930 . S
H75 C48 0.930 . S
H76 C53 0.929 . S
H77 C54 0.931 . S
H78 C56 0.930 . S
H79 C57 0.930 . S
Tb80 C82 2.809 . S
Tb80 O100 2.484 . S
Tb80 O101 2.440 . S
Tb80 O102 2.658 . S
Tb80 O103 2.409 . S
Tb80 O104 2.378 . S
Tb80 O108 2.325 . S
Tb80 O111 2.341 . S
Tb81 C91 2.809 . S
Tb81 O102 2.325 . S
Tb81 O105 2.341 . S
Tb81 O106 2.484 . S
Tb81 O107 2.440 . S
Tb81 O108 2.658 . S
Tb81 O109 2.409 . S
Tb81 O110 2.378 . S
C82 Tb80 2.809 . S
C82 C83 1.514 . S
C82 O100 1.248 . S
C82 O101 1.266 . S
C83 C82 1.514 . S
C83 C84 1.359 . S
C83 C88 1.348 . S
C84 C83 1.359 . S
C84 C85 1.380 . S
C84 H112 0.929 . S
C85 C84 1.380 . S
C85 C86 1.347 . S
C85 H113 0.931 . S
C86 C85 1.347 . S
C86 C87 1.369 . S
C87 C86 1.369 . S
C87 C88 1.408 . S
C87 H114 0.930 . S
C88 C83 1.348 . S
C88 C87 1.408 . S
C88 H115 0.930 . S
C89 O102 1.281 . S
C89 O103 1.254 . S
C90 O104 1.236 . S
C90 O105 1.266 . S
C91 Tb81 2.809 . S
C91 C92 1.514 . S
C91 O106 1.248 . S
C91 O107 1.266 . S
C92 C91 1.514 . S
C92 C93 1.359 . S
C92 C97 1.348 . S
C93 C92 1.359 . S
C93 C94 1.380 . S
C93 H116 0.929 . S
C94 C93 1.380 . S
C94 C95 1.347 . S
C94 H117 0.931 . S
C95 C94 1.347 . S
C95 C96 1.369 . S
C96 C95 1.369 . S
C96 C97 1.408 . S
C96 H118 0.930 . S
C97 C92 1.348 . S
C97 C96 1.408 . S
C97 H119 0.930 . S
C98 O108 1.281 . S
C98 O109 1.254 . S
C99 O110 1.236 . S
C99 O111 1.266 . S
O100 Tb80 2.484 . S
O100 C82 1.248 . S
O101 Tb80 2.440 . S
O101 C82 1.266 . S
O102 Tb80 2.658 . S
O102 Tb81 2.325 . S
O102 C89 1.281 . S
O103 Tb80 2.409 . S
O103 C89 1.254 . S
O104 Tb80 2.378 . S
O104 C90 1.236 . S
O105 Tb81 2.341 . S
O105 C90 1.266 . S
O106 Tb81 2.484 . S
O106 C91 1.248 . S
O107 Tb81 2.440 . S
O107 C91 1.266 . S
O108 Tb80 2.325 . S
O108 Tb81 2.658 . S
O108 C98 1.281 . S
O109 Tb81 2.409 . S
O109 C98 1.254 . S
O110 Tb81 2.378 . S
O110 C99 1.236 . S
O111 Tb80 2.341 . S
O111 C99 1.266 . S
H112 C84 0.929 . S
H113 C85 0.931 . S
H114 C87 0.930 . S
H115 C88 0.930 . S
H116 C93 0.929 . S
H117 C94 0.931 . S
H118 C96 0.930 . S
H119 C97 0.930 . S
Tb120 C122 2.809 . S
Tb120 O140 2.484 . S
Tb120 O141 2.440 . S
Tb120 O142 2.658 1_556 S
Tb120 O143 2.409 . S
Tb120 O144 2.378 . S
Tb120 O148 2.325 . S
Tb120 O151 2.341 1_556 S
Tb121 C131 2.809 . S
Tb121 O142 2.325 . S
Tb121 O145 2.341 1_554 S
Tb121 O146 2.484 . S
Tb121 O147 2.440 . S
Tb121 O148 2.658 1_554 S
Tb121 O149 2.409 . S
Tb121 O150 2.378 . S
C122 Tb120 2.809 . S
C122 C123 1.514 . S
C122 O140 1.248 . S
C122 O141 1.266 . S
C123 C122 1.514 . S
C123 C124 1.359 . S
C123 C128 1.348 . S
C124 C123 1.359 . S
C124 C125 1.380 . S
C124 H152 0.929 . S
C125 C124 1.380 . S
C125 C126 1.347 . S
C125 H153 0.931 . S
C126 C125 1.347 . S
C126 C127 1.369 . S
C127 C126 1.369 . S
C127 C128 1.408 . S
C127 H154 0.930 . S
C128 C123 1.348 . S
C128 C127 1.408 . S
C128 H155 0.930 . S
C129 O142 1.281 . S
C129 O143 1.254 1_554 S
C130 O144 1.236 . S
C130 O145 1.266 . S
C131 Tb121 2.809 . S
C131 C132 1.514 . S
C131 O146 1.248 . S
C131 O147 1.266 . S
C132 C131 1.514 . S
C132 C133 1.359 . S
C132 C137 1.348 . S
C133 C132 1.359 . S
C133 C134 1.380 . S
C133 H156 0.929 . S
C134 C133 1.380 . S
C134 C135 1.347 . S
C134 H157 0.931 . S
C135 C134 1.347 . S
C135 C136 1.369 . S
C136 C135 1.369 . S
C136 C137 1.408 . S
C136 H158 0.930 . S
C137 C132 1.348 . S
C137 C136 1.408 . S
C137 H159 0.930 . S
C138 O148 1.281 . S
C138 O149 1.254 1_556 S
C139 O150 1.236 . S
C139 O151 1.266 . S
O140 Tb120 2.484 . S
O140 C122 1.248 . S
O141 Tb120 2.440 . S
O141 C122 1.266 . S
O142 Tb120 2.658 1_554 S
O142 Tb121 2.325 . S
O142 C129 1.281 . S
O143 Tb120 2.409 . S
O143 C129 1.254 1_556 S
O144 Tb120 2.378 . S
O144 C130 1.236 . S
O145 Tb121 2.341 1_556 S
O145 C130 1.266 . S
O146 Tb121 2.484 . S
O146 C131 1.248 . S
O147 Tb121 2.440 . S
O147 C131 1.266 . S
O148 Tb120 2.325 . S
O148 Tb121 2.658 1_556 S
O148 C138 1.281 . S
O149 Tb121 2.409 . S
O149 C138 1.254 1_554 S
O150 Tb121 2.378 . S
O150 C139 1.236 . S
O151 Tb120 2.341 1_554 S
O151 C139 1.266 . S
H152 C124 0.929 . S
H153 C125 0.931 . S
H154 C127 0.930 . S
H155 C128 0.930 . S
H156 C133 0.929 . S
H157 C134 0.931 . S
H158 C136 0.930 . S
H159 C137 0.930 . S
Tb160 C162 2.809 . S
Tb160 O180 2.484 . S
Tb160 O181 2.440 . S
Tb160 O182 2.658 . S
Tb160 O183 2.409 . S
Tb160 O184 2.378 . S
Tb160 O188 2.325 . S
Tb160 O191 2.341 . S
Tb161 C171 2.809 . S
Tb161 O182 2.325 . S
Tb161 O185 2.341 . S
Tb161 O186 2.484 . S
Tb161 O187 2.440 . S
Tb161 O188 2.658 . S
Tb161 O189 2.409 . S
Tb161 O190 2.378 . S
C162 Tb160 2.809 . S
C162 C163 1.514 . S
C162 O180 1.248 . S
C162 O181 1.266 . S
C163 C162 1.514 . S
C163 C164 1.359 . S
C163 C168 1.348 . S
C164 C163 1.359 . S
C164 C165 1.380 . S
C164 H192 0.929 . S
C165 C164 1.380 . S
C165 C166 1.347 . S
C165 H193 0.931 . S
C166 C165 1.347 . S
C166 C167 1.369 . S
C167 C166 1.369 . S
C167 C168 1.408 . S
C167 H194 0.930 . S
C168 C163 1.348 . S
C168 C167 1.408 . S
C168 H195 0.930 . S
C169 O182 1.281 . S
C169 O183 1.254 . S
C170 O184 1.236 . S
C170 O185 1.266 . S
C171 Tb161 2.809 . S
C171 C172 1.514 . S
C171 O186 1.248 . S
C171 O187 1.266 . S
C172 C171 1.514 . S
C172 C173 1.359 . S
C172 C177 1.348 . S
C173 C172 1.359 . S
C173 C174 1.380 . S
C173 H196 0.929 . S
C174 C173 1.380 . S
C174 C175 1.347 . S
C174 H197 0.931 . S
C175 C174 1.347 . S
C175 C176 1.369 . S
C176 C175 1.369 . S
C176 C177 1.408 . S
C176 H198 0.930 . S
C177 C172 1.348 . S
C177 C176 1.408 . S
C177 H199 0.930 . S
C178 O188 1.281 . S
C178 O189 1.254 . S
C179 O190 1.236 . S
C179 O191 1.266 . S
O180 Tb160 2.484 . S
O180 C162 1.248 . S
O181 Tb160 2.440 . S
O181 C162 1.266 . S
O182 Tb160 2.658 . S
O182 Tb161 2.325 . S
O182 C169 1.281 . S
O183 Tb160 2.409 . S
O183 C169 1.254 . S
O184 Tb160 2.378 . S
O184 C170 1.236 . S
O185 Tb161 2.341 . S
O185 C170 1.266 . S
O186 Tb161 2.484 . S
O186 C171 1.248 . S
O187 Tb161 2.440 . S
O187 C171 1.266 . S
O188 Tb160 2.325 . S
O188 Tb161 2.658 . S
O188 C178 1.281 . S
O189 Tb161 2.409 . S
O189 C178 1.254 . S
O190 Tb161 2.378 . S
O190 C179 1.236 . S
O191 Tb160 2.341 . S
O191 C179 1.266 . S
H192 C164 0.929 . S
H193 C165 0.931 . S
H194 C167 0.930 . S
H195 C168 0.930 . S
H196 C173 0.929 . S
H197 C174 0.931 . S
H198 C176 0.930 . S
H199 C177 0.930 . S
Tb200 C202 2.809 . S
Tb200 O220 2.484 . S
Tb200 O221 2.440 . S
Tb200 O222 2.658 . S
Tb200 O223 2.409 . S
Tb200 O224 2.378 . S
Tb200 O228 2.325 . S
Tb200 O231 2.341 . S
Tb201 C211 2.809 . S
Tb201 O222 2.325 . S
Tb201 O225 2.341 . S
Tb201 O226 2.484 . S
Tb201 O227 2.440 . S
Tb201 O228 2.658 . S
Tb201 O229 2.409 . S
Tb201 O230 2.378 . S
C202 Tb200 2.809 . S
C202 C203 1.514 . S
C202 O220 1.248 . S
C202 O221 1.266 . S
C203 C202 1.514 . S
C203 C204 1.359 . S
C203 C208 1.348 . S
C204 C203 1.359 . S
C204 C205 1.380 . S
C204 H232 0.929 . S
C205 C204 1.380 . S
C205 C206 1.347 . S
C205 H233 0.931 . S
C206 C205 1.347 . S
C206 C207 1.369 . S
C207 C206 1.369 . S
C207 C208 1.408 . S
C207 H234 0.930 . S
C208 C203 1.348 . S
C208 C207 1.408 . S
C208 H235 0.930 . S
C209 O222 1.281 . S
C209 O223 1.254 . S
C210 O224 1.236 . S
C210 O225 1.266 . S
C211 Tb201 2.809 . S
C211 C212 1.514 . S
C211 O226 1.248 . S
C211 O227 1.266 . S
C212 C211 1.514 . S
C212 C213 1.359 . S
C212 C217 1.348 . S
C213 C212 1.359 . S
C213 C214 1.380 . S
C213 H236 0.929 . S
C214 C213 1.380 . S
C214 C215 1.347 . S
C214 H237 0.931 . S
C215 C214 1.347 . S
C215 C216 1.369 . S
C216 C215 1.369 . S
C216 C217 1.408 . S
C216 H238 0.930 . S
C217 C212 1.348 . S
C217 C216 1.408 . S
C217 H239 0.930 . S
C218 O228 1.281 . S
C218 O229 1.254 . S
C219 O230 1.236 . S
C219 O231 1.266 . S
O220 Tb200 2.484 . S
O220 C202 1.248 . S
O221 Tb200 2.440 . S
O221 C202 1.266 . S
O222 Tb200 2.658 . S
O222 Tb201 2.325 . S
O222 C209 1.281 . S
O223 Tb200 2.409 . S
O223 C209 1.254 . S
O224 Tb200 2.378 . S
O224 C210 1.236 . S
O225 Tb201 2.341 . S
O225 C210 1.266 . S
O226 Tb201 2.484 . S
O226 C211 1.248 . S
O227 Tb201 2.440 . S
O227 C211 1.266 . S
O228 Tb200 2.325 . S
O228 Tb201 2.658 . S
O228 C218 1.281 . S
O229 Tb201 2.409 . S
O229 C218 1.254 . S
O230 Tb201 2.378 . S
O230 C219 1.236 . S
O231 Tb200 2.341 . S
O231 C219 1.266 . S
H232 C204 0.929 . S
H233 C205 0.931 . S
H234 C207 0.930 . S
H235 C208 0.930 . S
H236 C213 0.929 . S
H237 C214 0.931 . S
H238 C216 0.930 . S
H239 C217 0.930 . S
C240 C241 1.349 . S
C240 C242 1.327 . S
C240 H265 0.950 . S
C241 C240 1.349 . S
C241 C257 1.349 . S
C242 C240 1.327 . S
C242 C261 1.429 . S
C242 H266 0.950 . S
C243 C260 1.574 . S
C243 C262 1.368 . S
C243 H267 0.949 . S
H244 C248 0.949 . S
C245 C246 1.349 . S
C245 C247 1.327 . S
C245 H268 0.950 . S
C246 C245 1.349 . S
C246 C258 1.349 . S
C247 C245 1.327 . S
C247 C263 1.429 . S
C247 H269 0.950 . S
C248 H244 0.949 . S
C248 C256 1.574 . S
C248 C264 1.368 . S
H249 C257 0.950 . S
H250 C255 0.950 . S
H251 C256 0.949 . S
H252 C258 0.950 . S
H253 C259 0.950 . S
H254 C260 0.949 . S
C255 H250 0.950 . S
C255 C257 1.327 . S
C255 C261 1.429 . S
C256 C248 1.574 . S
C256 H251 0.949 . S
C256 C262 1.368 . S
C257 C241 1.349 . S
C257 H249 0.950 . S
C257 C255 1.327 . S
C258 C246 1.349 . S
C258 H252 0.950 . S
C258 C259 1.327 . S
C259 H253 0.950 . S
C259 C258 1.327 . S
C259 C263 1.429 . S
C260 C243 1.574 . S
C260 H254 0.949 . S
C260 C264 1.368 . S
C261 C242 1.429 . S
C261 C255 1.429 . S
C261 C262 1.523 . S
C262 C243 1.368 . S
C262 C256 1.368 . S
C262 C261 1.523 . S
C263 C247 1.429 . S
C263 C259 1.429 . S
C263 C264 1.523 . S
C264 C248 1.368 . S
C264 C260 1.368 . S
C264 C263 1.523 . S
H265 C240 0.950 . S
H266 C242 0.950 . S
H267 C243 0.949 . S
H268 C245 0.950 . S
H269 C247 0.950 . S
C270 C271 1.349 . S
C270 C272 1.327 . S
C270 H295 0.950 . S
C271 C270 1.349 . S
C271 C287 1.349 . S
C272 C270 1.327 . S
C272 C291 1.429 . S
C272 H296 0.950 . S
C273 C290 1.574 1_455 S
C273 C292 1.368 . S
C273 H297 0.949 . S
H274 C278 0.949 . S
C275 C276 1.349 . S
C275 C277 1.327 . S
C275 H298 0.950 . S
C276 C275 1.349 . S
C276 C288 1.349 . S
C277 C275 1.327 . S
C277 C293 1.429 . S
C277 H299 0.950 . S
C278 H274 0.949 . S
C278 C286 1.574 1_655 S
C278 C294 1.368 . S
H279 C287 0.950 . S
H280 C285 0.950 . S
H281 C286 0.949 . S
H282 C288 0.950 . S
H283 C289 0.950 . S
H284 C290 0.949 . S
C285 H280 0.950 . S
C285 C287 1.327 . S
C285 C291 1.429 . S
C286 C278 1.574 1_455 S
C286 H281 0.949 . S
C286 C292 1.368 . S
C287 C271 1.349 . S
C287 H279 0.950 . S
C287 C285 1.327 . S
C288 C276 1.349 . S
C288 H282 0.950 . S
C288 C289 1.327 . S
C289 H283 0.950 . S
C289 C288 1.327 . S
C289 C293 1.429 . S
C290 C273 1.574 1_655 S
C290 H284 0.949 . S
C290 C294 1.368 . S
C291 C272 1.429 . S
C291 C285 1.429 . S
C291 C292 1.523 . S
C292 C273 1.368 . S
C292 C286 1.368 . S
C292 C291 1.523 . S
C293 C277 1.429 . S
C293 C289 1.429 . S
C293 C294 1.523 . S
C294 C278 1.368 . S
C294 C290 1.368 . S
C294 C293 1.523 . S
H295 C270 0.950 . S
H296 C272 0.950 . S
H297 C273 0.949 . S
H298 C275 0.950 . S
H299 C277 0.950 . S
C300 C301 1.349 . S
C300 C302 1.327 . S
C300 H325 0.950 . S
C301 C300 1.349 . S
C301 C317 1.349 . S
C302 C300 1.327 . S
C302 C321 1.429 . S
C302 H326 0.950 . S
C303 C320 1.574 1_545 S
C303 C322 1.368 . S
C303 H327 0.949 . S
H304 C308 0.949 . S
C305 C306 1.349 . S
C305 C307 1.327 . S
C305 H328 0.950 . S
C306 C305 1.349 . S
C306 C318 1.349 . S
C307 C305 1.327 . S
C307 C323 1.429 . S
C307 H329 0.950 . S
C308 H304 0.949 . S
C308 C316 1.574 1_565 S
C308 C324 1.368 . S
H309 C317 0.950 . S
H310 C315 0.950 . S
H311 C316 0.949 . S
H312 C318 0.950 . S
H313 C319 0.950 . S
H314 C320 0.949 . S
C315 H310 0.950 . S
C315 C317 1.327 . S
C315 C321 1.429 . S
C316 C308 1.574 1_545 S
C316 H311 0.949 . S
C316 C322 1.368 . S
C317 C301 1.349 . S
C317 H309 0.950 . S
C317 C315 1.327 . S
C318 C306 1.349 . S
C318 H312 0.950 . S
C318 C319 1.327 . S
C319 H313 0.950 . S
C319 C318 1.327 . S
C319 C323 1.429 . S
C320 C303 1.574 1_565 S
C320 H314 0.949 . S
C320 C324 1.368 . S
C321 C302 1.429 . S
C321 C315 1.429 . S
C321 C322 1.523 . S
C322 C303 1.368 . S
C322 C316 1.368 . S
C322 C321 1.523 . S
C323 C307 1.429 . S
C323 C319 1.429 . S
C323 C324 1.523 . S
C324 C308 1.368 . S
C324 C320 1.368 . S
C324 C323 1.523 . S
H325 C300 0.950 . S
H326 C302 0.950 . S
H327 C303 0.949 . S
H328 C305 0.950 . S
H329 C307 0.950 . S
C330 C331 1.349 . S
C330 C332 1.327 . S
C330 H355 0.950 . S
C331 C330 1.349 . S
C331 C347 1.349 . S
C332 C330 1.327 . S
C332 C351 1.429 . S
C332 H356 0.950 . S
C333 C350 1.574 . S
C333 C352 1.368 . S
C333 H357 0.949 . S
H334 C338 0.949 . S
C335 C336 1.349 . S
C335 C337 1.327 . S
C335 H358 0.950 . S
C336 C335 1.349 . S
C336 C348 1.349 . S
C337 C335 1.327 . S
C337 C353 1.429 . S
C337 H359 0.950 . S
C338 H334 0.949 . S
C338 C346 1.574 . S
C338 C354 1.368 . S
H339 C347 0.950 . S
H340 C345 0.950 . S
H341 C346 0.949 . S
H342 C348 0.950 . S
H343 C349 0.950 . S
H344 C350 0.949 . S
C345 H340 0.950 . S
C345 C347 1.327 . S
C345 C351 1.429 . S
C346 C338 1.574 . S
C346 H341 0.949 . S
C346 C352 1.368 . S
C347 C331 1.349 . S
C347 H339 0.950 . S
C347 C345 1.327 . S
C348 C336 1.349 . S
C348 H342 0.950 . S
C348 C349 1.327 . S
C349 H343 0.950 . S
C349 C348 1.327 . S
C349 C353 1.429 . S
C350 C333 1.574 . S
C350 H344 0.949 . S
C350 C354 1.368 . S
C351 C332 1.429 . S
C351 C345 1.429 . S
C351 C352 1.523 . S
C352 C333 1.368 . S
C352 C346 1.368 . S
C352 C351 1.523 . S
C353 C337 1.429 . S
C353 C349 1.429 . S
C353 C354 1.523 . S
C354 C338 1.368 . S
C354 C350 1.368 . S
C354 C353 1.523 . S
H355 C330 0.950 . S
H356 C332 0.950 . S
H357 C333 0.949 . S
H358 C335 0.950 . S
H359 C337 0.950 . S
C360 C361 1.349 . S
C360 C362 1.327 . S
C360 H385 0.950 . S
C361 C360 1.349 . S
C361 C377 1.349 . S
C362 C360 1.327 . S
C362 C381 1.429 . S
C362 H386 0.950 . S
C363 C380 1.574 1_455 S
C363 C382 1.368 . S
C363 H387 0.949 . S
H364 C368 0.949 . S
C365 C366 1.349 . S
C365 C367 1.327 . S
C365 H388 0.950 . S
C366 C365 1.349 . S
C366 C378 1.349 . S
C367 C365 1.327 . S
C367 C383 1.429 . S
C367 H389 0.950 . S
C368 H364 0.949 . S
C368 C376 1.574 1_655 S
C368 C384 1.368 . S
H369 C377 0.950 . S
H370 C375 0.950 . S
H371 C376 0.949 . S
H372 C378 0.950 . S
H373 C379 0.950 . S
H374 C380 0.949 . S
C375 H370 0.950 . S
C375 C377 1.327 . S
C375 C381 1.429 . S
C376 C368 1.574 1_455 S
C376 H371 0.949 . S
C376 C382 1.368 . S
C377 C361 1.349 . S
C377 H369 0.950 . S
C377 C375 1.327 . S
C378 C366 1.349 . S
C378 H372 0.950 . S
C378 C379 1.327 . S
C379 H373 0.950 . S
C379 C378 1.327 . S
C379 C383 1.429 . S
C380 C363 1.574 1_655 S
C380 H374 0.949 . S
C380 C384 1.368 . S
C381 C362 1.429 . S
C381 C375 1.429 . S
C381 C382 1.523 . S
C382 C363 1.368 . S
C382 C376 1.368 . S
C382 C381 1.523 . S
C383 C367 1.429 . S
C383 C379 1.429 . S
C383 C384 1.523 . S
C384 C368 1.368 . S
C384 C380 1.368 . S
C384 C383 1.523 . S
H385 C360 0.950 . S
H386 C362 0.950 . S
H387 C363 0.949 . S
H388 C365 0.950 . S
H389 C367 0.950 . S
C390 C391 1.349 . S
C390 C392 1.327 . S
C390 H415 0.950 . S
C391 C390 1.349 . S
C391 C407 1.349 . S
C392 C390 1.327 . S
C392 C411 1.429 . S
C392 H416 0.950 . S
C393 C410 1.566 1_545 S
C393 C412 1.368 . S
C393 H417 0.949 . S
H394 C398 0.949 . S
C395 C396 1.349 . S
C395 C397 1.327 . S
C395 H418 0.950 . S
C396 C395 1.349 . S
C396 C408 1.349 . S
C397 C395 1.327 . S
C397 C413 1.429 . S
C397 H419 0.950 . S
C398 H394 0.949 . S
C398 C406 1.574 1_565 S
C398 C414 1.368 . S
H399 C407 0.950 . S
H400 C405 0.950 . S
H401 C406 0.949 . S
H402 C408 0.950 . S
H403 C409 0.950 . S
H404 C410 0.953 . S
C405 H400 0.950 . S
C405 C407 1.327 . S
C405 C411 1.429 . S
C406 C398 1.574 1_545 S
C406 H401 0.949 . S
C406 C412 1.368 . S
C407 C391 1.349 . S
C407 H399 0.950 . S
C407 C405 1.327 . S
C408 C396 1.349 . S
C408 H402 0.950 . S
C408 C409 1.327 . S
C409 H403 0.950 . S
C409 C408 1.327 . S
C409 C413 1.429 . S
C410 C393 1.566 1_565 S
C410 H404 0.953 . S
C410 C414 1.372 . S
C411 C392 1.429 . S
C411 C405 1.429 . S
C411 C412 1.523 . S
C412 C393 1.368 . S
C412 C406 1.368 . S
C412 C411 1.523 . S
C413 C397 1.429 . S
C413 C409 1.429 . S
C413 C414 1.523 . S
C414 C398 1.368 . S
C414 C410 1.372 . S
C414 C413 1.523 . S
H415 C390 0.950 . S
H416 C392 0.950 . S
H417 C393 0.949 . S
H418 C395 0.950 . S
H419 C397 0.950 . S
C420 C421 1.349 . S
C420 C422 1.327 . S
C420 H445 0.950 . S
C421 C420 1.349 . S
C421 C437 1.349 . S
C422 C420 1.327 . S
C422 C441 1.429 . S
C422 H446 0.950 . S
C423 C440 1.574 . S
C423 C442 1.368 . S
C423 H447 0.949 . S
H424 C428 0.949 . S
C425 C426 1.349 . S
C425 C427 1.327 . S
C425 H448 0.950 . S
C426 C425 1.349 . S
C426 C438 1.349 . S
C427 C425 1.327 . S
C427 C443 1.429 . S
C427 H449 0.950 . S
C428 H424 0.949 . S
C428 C436 1.574 . S
C428 C444 1.368 . S
H429 C437 0.950 . S
H430 C435 0.950 . S
H431 C436 0.949 . S
H432 C438 0.950 . S
H433 C439 0.950 . S
H434 C440 0.949 . S
C435 H430 0.950 . S
C435 C437 1.327 . S
C435 C441 1.429 . S
C436 C428 1.574 . S
C436 H431 0.949 . S
C436 C442 1.368 . S
C437 C421 1.349 . S
C437 H429 0.950 . S
C437 C435 1.327 . S
C438 C426 1.349 . S
C438 H432 0.950 . S
C438 C439 1.327 . S
C439 H433 0.950 . S
C439 C438 1.327 . S
C439 C443 1.429 . S
C440 C423 1.574 . S
C440 H434 0.949 . S
C440 C444 1.368 . S
C441 C422 1.429 . S
C441 C435 1.429 . S
C441 C442 1.523 . S
C442 C423 1.368 . S
C442 C436 1.368 . S
C442 C441 1.523 . S
C443 C427 1.429 . S
C443 C439 1.429 . S
C443 C444 1.523 . S
C444 C428 1.368 . S
C444 C440 1.368 . S
C444 C443 1.523 . S
H445 C420 0.950 . S
H446 C422 0.950 . S
H447 C423 0.949 . S
H448 C425 0.950 . S
H449 C427 0.950 . S
C450 C451 1.349 1_556 S
C450 C452 1.327 . S
C450 H475 0.950 1_556 S
C451 C450 1.349 1_554 S
C451 C467 1.349 1_554 S
C452 C450 1.327 . S
C452 C471 1.429 . S
C452 H476 0.950 . S
C453 C470 1.574 . S
C453 C472 1.368 . S
C453 H477 0.949 . S
H454 C458 0.949 . S
C455 C456 1.349 . S
C455 C457 1.327 . S
C455 H478 0.950 . S
C456 C455 1.349 . S
C456 C468 1.349 . S
C457 C455 1.327 . S
C457 C473 1.429 . S
C457 H479 0.950 . S
C458 H454 0.949 . S
C458 C466 1.574 . S
C458 C474 1.368 . S
H459 C467 0.939 1_554 S
H460 C465 0.950 . S
H461 C466 0.949 . S
H462 C468 0.950 . S
H463 C469 0.950 . S
H464 C470 0.949 . S
C465 H460 0.950 . S
C465 C467 1.327 . S
C465 C471 1.429 . S
C466 C458 1.574 . S
C466 H461 0.949 . S
C466 C472 1.368 . S
C467 C451 1.349 1_556 S
C467 H459 0.939 1_556 S
C467 C465 1.327 . S
C468 C456 1.349 . S
C468 H462 0.950 . S
C468 C469 1.327 . S
C469 H463 0.950 . S
C469 C468 1.327 . S
C469 C473 1.429 . S
C470 C453 1.574 . S
C470 H464 0.949 . S
C470 C474 1.368 . S
C471 C452 1.429 . S
C471 C465 1.429 . S
C471 C472 1.523 . S
C472 C453 1.368 . S
C472 C466 1.368 . S
C472 C471 1.523 . S
C473 C457 1.429 . S
C473 C469 1.429 . S
C473 C474 1.523 . S
C474 C458 1.368 . S
C474 C470 1.368 . S
C474 C473 1.523 . S
H475 C450 0.950 1_554 S
H476 C452 0.950 . S
H477 C453 0.949 . S
H478 C455 0.950 . S
H479 C457 0.950 . S
C480 C481 1.349 . S
C480 C482 1.327 . S
C480 H505 0.950 . S
C481 C480 1.349 . S
C481 C497 1.349 . S
C482 C480 1.327 . S
C482 C501 1.429 . S
C482 H506 0.950 . S
C483 C500 1.574 . S
C483 C502 1.368 . S
C483 H507 0.949 . S
H484 C488 0.949 . S
C485 C486 1.349 1_554 S
C485 C487 1.327 . S
C485 H508 0.950 1_554 S
C486 C485 1.349 1_556 S
C486 C498 1.349 1_556 S
C487 C485 1.327 . S
C487 C503 1.429 . S
C487 H509 0.950 . S
C488 H484 0.949 . S
C488 C496 1.574 . S
C488 C504 1.368 . S
H489 C497 0.950 . S
H490 C495 0.950 . S
H491 C496 0.949 . S
H492 C498 0.950 . S
H493 C499 0.950 . S
H494 C500 0.949 . S
C495 H490 0.950 . S
C495 C497 1.327 . S
C495 C501 1.429 . S
C496 C488 1.574 . S
C496 H491 0.949 . S
C496 C502 1.368 . S
C497 C481 1.349 . S
C497 H489 0.950 . S
C497 C495 1.327 . S
C498 C486 1.349 1_554 S
C498 H492 0.950 . S
C498 C499 1.327 . S
C499 H493 0.950 . S
C499 C498 1.327 . S
C499 C503 1.429 . S
C500 C483 1.574 . S
C500 H494 0.949 . S
C500 C504 1.368 . S
C501 C482 1.429 . S
C501 C495 1.429 . S
C501 C502 1.523 . S
C502 C483 1.368 . S
C502 C496 1.368 . S
C502 C501 1.523 . S
C503 C487 1.429 . S
C503 C499 1.429 . S
C503 C504 1.523 . S
C504 C488 1.368 . S
C504 C500 1.368 . S
C504 C503 1.523 . S
H505 C480 0.950 . S
H506 C482 0.950 . S
H507 C483 0.949 . S
H508 C485 0.950 1_556 S
H509 C487 0.950 . S
C510 C511 1.349 . S
C510 C512 1.327 . S
C510 H535 0.950 . S
C511 C510 1.349 . S
C511 C527 1.349 . S
C512 C510 1.327 . S
C512 C531 1.429 . S
C512 H536 0.950 . S
C513 C530 1.574 . S
C513 C532 1.368 . S
C513 H537 0.949 . S
H514 C518 0.949 . S
C515 C516 1.349 . S
C515 C517 1.327 . S
C515 H538 0.950 . S
C516 C515 1.349 . S
C516 C528 1.349 . S
C517 C515 1.327 . S
C517 C533 1.429 . S
C517 H539 0.950 . S
C518 H514 0.949 . S
C518 C526 1.574 . S
C518 C534 1.368 . S
H519 C527 0.950 . S
H520 C525 0.950 . S
H521 C526 0.949 . S
H522 C528 0.950 . S
H523 C529 0.950 . S
H524 C530 0.949 . S
C525 H520 0.950 . S
C525 C527 1.327 . S
C525 C531 1.429 . S
C526 C518 1.574 . S
C526 H521 0.949 . S
C526 C532 1.368 . S
C527 C511 1.349 . S
C527 H519 0.950 . S
C527 C525 1.327 . S
C528 C516 1.349 . S
C528 H522 0.950 . S
C528 C529 1.327 . S
C529 H523 0.950 . S
C529 C528 1.327 . S
C529 C533 1.429 . S
C530 C513 1.574 . S
C530 H524 0.949 . S
C530 C534 1.368 . S
C531 C512 1.429 . S
C531 C525 1.429 . S
C531 C532 1.523 . S
C532 C513 1.368 . S
C532 C526 1.368 . S
C532 C531 1.523 . S
C533 C517 1.429 . S
C533 C529 1.429 . S
C533 C534 1.523 . S
C534 C518 1.368 . S
C534 C530 1.368 . S
C534 C533 1.523 . S
H535 C510 0.950 . S
H536 C512 0.950 . S
H537 C513 0.949 . S
H538 C515 0.950 . S
H539 C517 0.950 . S
C540 C541 1.349 . S
C540 C542 1.327 . S
C540 H565 0.950 . S
C541 C540 1.349 . S
C541 C557 1.349 . S
C542 C540 1.327 . S
C542 C561 1.429 . S
C542 H566 0.950 . S
C543 C560 1.574 . S
C543 C562 1.368 . S
C543 H567 0.949 . S
H544 C548 0.949 . S
C545 C546 1.349 . S
C545 C547 1.327 1_554 S
C545 H568 0.950 . S
C546 C545 1.349 . S
C546 C558 1.349 1_554 S
C547 C545 1.327 1_556 S
C547 C563 1.429 . S
C547 H569 0.950 . S
C548 H544 0.949 . S
C548 C556 1.574 . S
C548 C564 1.368 . S
H549 C557 0.950 . S
H550 C555 0.950 . S
H551 C556 0.949 . S
H552 C558 0.950 . S
H553 C559 0.950 . S
H554 C560 0.949 . S
C555 H550 0.950 . S
C555 C557 1.327 . S
C555 C561 1.429 . S
C556 C548 1.574 . S
C556 H551 0.949 . S
C556 C562 1.368 . S
C557 C541 1.349 . S
C557 H549 0.950 . S
C557 C555 1.327 . S
C558 C546 1.349 1_556 S
C558 H552 0.950 . S
C558 C559 1.327 . S
C559 H553 0.950 . S
C559 C558 1.327 . S
C559 C563 1.429 . S
C560 C543 1.574 . S
C560 H554 0.949 . S
C560 C564 1.368 . S
C561 C542 1.429 . S
C561 C555 1.429 . S
C561 C562 1.523 . S
C562 C543 1.368 . S
C562 C556 1.368 . S
C562 C561 1.523 . S
C563 C547 1.429 . S
C563 C559 1.429 . S
C563 C564 1.523 . S
C564 C548 1.368 . S
C564 C560 1.368 . S
C564 C563 1.523 . S
H565 C540 0.950 . S
H566 C542 0.950 . S
H567 C543 0.949 . S
H568 C545 0.950 . S
H569 C547 0.950 . S
C570 C571 1.349 . S
C570 C572 1.327 . S
C570 H595 0.950 . S
C571 C570 1.349 . S
C571 C587 1.349 . S
C572 C570 1.327 . S
C572 C591 1.429 . S
C572 H596 0.950 . S
C573 C590 1.574 . S
C573 C592 1.368 . S
C573 H597 0.949 . S
H574 C578 0.949 . S
C575 C576 1.349 1_554 S
C575 C577 1.327 . S
C575 H598 0.950 . S
C576 C575 1.349 1_556 S
C576 C588 1.349 1_556 S
C577 C575 1.327 . S
C577 C593 1.429 . S
C577 H599 0.950 . S
C578 H574 0.949 . S
C578 C586 1.574 . S
C578 C594 1.368 . S
H579 C587 0.950 . S
H580 C585 0.950 . S
H581 C586 0.949 . S
H582 C588 0.950 1_556 S
H583 C589 0.950 . S
H584 C590 0.949 . S
C585 H580 0.950 . S
C585 C587 1.327 . S
C585 C591 1.429 . S
C586 C578 1.574 . S
C586 H581 0.949 . S
C586 C592 1.368 . S
C587 C571 1.349 . S
C587 H579 0.950 . S
C587 C585 1.327 . S
C588 C576 1.349 1_554 S
C588 H582 0.950 1_554 S
C588 C589 1.327 . S
C589 H583 0.950 . S
C589 C588 1.327 . S
C589 C593 1.429 . S
C590 C573 1.574 . S
C590 H584 0.949 . S
C590 C594 1.368 . S
C591 C572 1.429 . S
C591 C585 1.429 . S
C591 C592 1.523 . S
C592 C573 1.368 . S
C592 C586 1.368 . S
C592 C591 1.523 . S
C593 C577 1.429 . S
C593 C589 1.429 . S
C593 C594 1.523 . S
C594 C578 1.368 . S
C594 C590 1.368 . S
C594 C593 1.523 . S
H595 C570 0.950 . S
H596 C572 0.950 . S
H597 C573 0.949 . S
H598 C575 0.950 . S
H599 C577 0.950 . S
C600 C601 1.349 . S
C600 C602 1.327 . S
C600 H625 0.950 . S
C601 C600 1.349 . S
C601 C617 1.349 . S
C602 C600 1.327 . S
C602 C621 1.429 . S
C602 H626 0.950 . S
C603 C620 1.574 . S
C603 C622 1.368 . S
C603 H627 0.949 . S
H604 C608 0.949 . S
C605 C606 1.349 . S
C605 C607 1.327 . S
C605 H628 0.950 . S
C606 C605 1.349 . S
C606 C618 1.349 . S
C607 C605 1.327 . S
C607 C623 1.429 . S
C607 H629 0.950 . S
C608 H604 0.949 . S
C608 C616 1.574 . S
C608 C624 1.368 . S
H609 C617 0.950 . S
H610 C615 0.950 . S
H611 C616 0.949 . S
H612 C618 0.950 . S
H613 C619 0.950 . S
H614 C620 0.949 . S
C615 H610 0.950 . S
C615 C617 1.327 . S
C615 C621 1.429 . S
C616 C608 1.574 . S
C616 H611 0.949 . S
C616 C622 1.368 . S
C617 C601 1.349 . S
C617 H609 0.950 . S
C617 C615 1.327 . S
C618 C606 1.349 . S
C618 H612 0.950 . S
C618 C619 1.327 . S
C619 H613 0.950 . S
C619 C618 1.327 . S
C619 C623 1.429 . S
C620 C603 1.574 . S
C620 H614 0.949 . S
C620 C624 1.368 . S
C621 C602 1.429 . S
C621 C615 1.429 . S
C621 C622 1.523 . S
C622 C603 1.368 . S
C622 C616 1.368 . S
C622 C621 1.523 . S
C623 C607 1.429 . S
C623 C619 1.429 . S
C623 C624 1.523 . S
C624 C608 1.368 . S
C624 C620 1.368 . S
C624 C623 1.523 . S
H625 C600 0.950 . S
H626 C602 0.950 . S
H627 C603 0.949 . S
H628 C605 0.950 . S
H629 C607 0.950 . S
C630 C631 1.349 . S
C630 C632 1.327 . S
C630 H655 0.950 . S
C631 C630 1.349 . S
C631 C647 1.349 . S
C632 C630 1.327 . S
C632 C651 1.429 . S
C632 H656 0.950 . S
C633 C650 1.574 . S
C633 C652 1.368 . S
C633 H657 0.949 . S
H634 C638 0.949 . S
C635 C636 1.349 . S
C635 C637 1.327 . S
C635 H658 0.950 . S
C636 C635 1.349 . S
C636 C648 1.349 . S
C637 C635 1.327 . S
C637 C653 1.429 . S
C637 H659 0.950 . S
C638 H634 0.949 . S
C638 C646 1.574 . S
C638 C654 1.368 . S
H639 C647 0.950 . S
H640 C645 0.950 . S
H641 C646 0.949 . S
H642 C648 0.950 . S
H643 C649 0.950 . S
H644 C650 0.949 . S
C645 H640 0.950 . S
C645 C647 1.327 . S
C645 C651 1.429 . S
C646 C638 1.574 . S
C646 H641 0.949 . S
C646 C652 1.368 . S
C647 C631 1.349 . S
C647 H639 0.950 . S
C647 C645 1.327 . S
C648 C636 1.349 . S
C648 H642 0.950 . S
C648 C649 1.327 . S
C649 H643 0.950 . S
C649 C648 1.327 . S
C649 C653 1.429 . S
C650 C633 1.574 . S
C650 H644 0.949 . S
C650 C654 1.368 . S
C651 C632 1.429 . S
C651 C645 1.429 . S
C651 C652 1.523 . S
C652 C633 1.368 . S
C652 C646 1.368 . S
C652 C651 1.523 . S
C653 C637 1.429 . S
C653 C649 1.429 . S
C653 C654 1.523 . S
C654 C638 1.368 . S
C654 C650 1.368 . S
C654 C653 1.523 . S
H655 C630 0.950 . S
H656 C632 0.950 . S
H657 C633 0.949 . S
H658 C635 0.950 . S
H659 C637 0.950 . S
C660 C661 1.349 . S
C660 C662 1.327 . S
C660 H685 0.950 . S
C661 C660 1.349 . S
C661 C677 1.349 . S
C662 C660 1.327 . S
C662 C681 1.429 . S
C662 H686 0.950 . S
C663 C680 1.574 . S
C663 C682 1.368 . S
C663 H687 0.949 . S
H664 C668 0.949 . S
C665 C666 1.349 . S
C665 C667 1.327 . S
C665 H688 0.950 . S
C666 C665 1.349 . S
C666 C678 1.349 . S
C667 C665 1.327 . S
C667 C683 1.429 . S
C667 H689 0.950 . S
C668 H664 0.949 . S
C668 C676 1.574 . S
C668 C684 1.368 . S
H669 C677 0.950 . S
H670 C675 0.950 . S
H671 C676 0.949 . S
H672 C678 0.950 . S
H673 C679 0.950 . S
H674 C680 0.949 . S
C675 H670 0.950 . S
C675 C677 1.327 . S
C675 C681 1.429 . S
C676 C668 1.574 . S
C676 H671 0.949 . S
C676 C682 1.368 . S
C677 C661 1.349 . S
C677 H669 0.950 . S
C677 C675 1.327 . S
C678 C666 1.349 . S
C678 H672 0.950 . S
C678 C679 1.327 . S
C679 H673 0.950 . S
C679 C678 1.327 . S
C679 C683 1.429 . S
C680 C663 1.574 . S
C680 H674 0.949 . S
C680 C684 1.368 . S
C681 C662 1.429 . S
C681 C675 1.429 . S
C681 C682 1.523 . S
C682 C663 1.368 . S
C682 C676 1.368 . S
C682 C681 1.523 . S
C683 C667 1.429 . S
C683 C679 1.429 . S
C683 C684 1.523 . S
C684 C668 1.368 . S
C684 C680 1.368 . S
C684 C683 1.523 . S
H685 C660 0.950 . S
H686 C662 0.950 . S
H687 C663 0.949 . S
H688 C665 0.950 . S
H689 C667 0.950 . S
C690 C691 1.349 . S
C690 C692 1.327 . S
C690 H715 0.950 . S
C691 C690 1.349 . S
C691 C707 1.349 . S
C692 C690 1.327 . S
C692 C711 1.429 . S
C692 H716 0.950 . S
C693 C710 1.574 . S
C693 C712 1.368 . S
C693 H717 0.949 . S
H694 C698 0.949 . S
C695 C696 1.349 . S
C695 C697 1.327 . S
C695 H718 0.950 . S
C696 C695 1.349 . S
C696 C708 1.349 . S
C697 C695 1.327 . S
C697 C713 1.429 . S
C697 H719 0.950 . S
C698 H694 0.949 . S
C698 C706 1.574 . S
C698 C714 1.368 . S
H699 C707 0.950 . S
H700 C705 0.950 . S
H701 C706 0.949 . S
H702 C708 0.950 . S
H703 C709 0.950 . S
H704 C710 0.949 . S
C705 H700 0.950 . S
C705 C707 1.327 . S
C705 C711 1.429 . S
C706 C698 1.574 . S
C706 H701 0.949 . S
C706 C712 1.368 . S
C707 C691 1.349 . S
C707 H699 0.950 . S
C707 C705 1.327 . S
C708 C696 1.349 . S
C708 H702 0.950 . S
C708 C709 1.327 . S
C709 H703 0.950 . S
C709 C708 1.327 . S
C709 C713 1.429 . S
C710 C693 1.574 . S
C710 H704 0.949 . S
C710 C714 1.368 . S
C711 C692 1.429 . S
C711 C705 1.429 . S
C711 C712 1.523 . S
C712 C693 1.368 . S
C712 C706 1.368 . S
C712 C711 1.523 . S
C713 C697 1.429 . S
C713 C709 1.429 . S
C713 C714 1.523 . S
C714 C698 1.368 . S
C714 C710 1.368 . S
C714 C713 1.523 . S
H715 C690 0.950 . S
H716 C692 0.950 . S
H717 C693 0.949 . S
H718 C695 0.950 . S
H719 C697 0.950 . S
C720 C721 1.349 . S
C720 C722 1.327 . S
C720 H745 0.950 . S
C721 C720 1.349 . S
C721 C737 1.349 . S
C722 C720 1.327 . S
C722 C741 1.429 . S
C722 H746 0.950 . S
C723 C740 1.574 . S
C723 C742 1.368 . S
C723 H747 0.949 . S
H724 C728 0.949 . S
C725 C726 1.349 . S
C725 C727 1.327 . S
C725 H748 0.950 . S
C726 C725 1.349 . S
C726 C738 1.349 . S
C727 C725 1.327 . S
C727 C743 1.429 . S
C727 H749 0.950 . S
C728 H724 0.949 . S
C728 C736 1.574 . S
C728 C744 1.368 . S
H729 C737 0.950 . S
H730 C735 0.950 . S
H731 C736 0.949 . S
H732 C738 0.950 . S
H733 C739 0.950 . S
H734 C740 0.949 . S
C735 H730 0.950 . S
C735 C737 1.327 . S
C735 C741 1.429 . S
C736 C728 1.574 . S
C736 H731 0.949 . S
C736 C742 1.368 . S
C737 C721 1.349 . S
C737 H729 0.950 . S
C737 C735 1.327 . S
C738 C726 1.349 . S
C738 H732 0.950 . S
C738 C739 1.327 . S
C739 H733 0.950 . S
C739 C738 1.327 . S
C739 C743 1.429 . S
C740 C723 1.574 . S
C740 H734 0.949 . S
C740 C744 1.368 . S
C741 C722 1.429 . S
C741 C735 1.429 . S
C741 C742 1.523 . S
C742 C723 1.368 . S
C742 C736 1.368 . S
C742 C741 1.523 . S
C743 C727 1.429 . S
C743 C739 1.429 . S
C743 C744 1.523 . S
C744 C728 1.368 . S
C744 C740 1.368 . S
C744 C743 1.523 . S
H745 C720 0.950 . S
H746 C722 0.950 . S
H747 C723 0.949 . S
H748 C725 0.950 . S
H749 C727 0.950 . S
C750 C751 1.349 . S
C750 C752 1.327 . S
C750 H775 0.950 . S
C751 C750 1.349 . S
C751 C767 1.349 . S
C752 C750 1.327 . S
C752 C771 1.429 . S
C752 H776 0.950 . S
C753 C770 1.574 . S
C753 C772 1.368 . S
C753 H777 0.949 . S
H754 C758 0.949 . S
C755 C756 1.349 . S
C755 C757 1.327 . S
C755 H778 0.950 . S
C756 C755 1.349 . S
C756 C768 1.349 . S
C757 C755 1.327 . S
C757 C773 1.429 . S
C757 H779 0.950 . S
C758 H754 0.949 . S
C758 C766 1.574 . S
C758 C774 1.368 . S
H759 C767 0.950 . S
H760 C765 0.950 . S
H761 C766 0.949 . S
H762 C768 0.950 . S
H763 C769 0.950 . S
H764 C770 0.949 . S
C765 H760 0.950 . S
C765 C767 1.327 . S
C765 C771 1.429 . S
C766 C758 1.574 . S
C766 H761 0.949 . S
C766 C772 1.368 . S
C767 C751 1.349 . S
C767 H759 0.950 . S
C767 C765 1.327 . S
C768 C756 1.349 . S
C768 H762 0.950 . S
C768 C769 1.327 . S
C769 H763 0.950 . S
C769 C768 1.327 . S
C769 C773 1.429 . S
C770 C753 1.574 . S
C770 H764 0.949 . S
C770 C774 1.368 . S
C771 C752 1.429 . S
C771 C765 1.429 . S
C771 C772 1.523 . S
C772 C753 1.368 . S
C772 C766 1.368 . S
C772 C771 1.523 . S
C773 C757 1.429 . S
C773 C769 1.429 . S
C773 C774 1.523 . S
C774 C758 1.368 . S
C774 C770 1.368 . S
C774 C773 1.523 . S
H775 C750 0.950 . S
H776 C752 0.950 . S
H777 C753 0.949 . S
H778 C755 0.950 . S
H779 C757 0.950 . S
C241 C209 1.231 . S
C246 C10 1.289 . S
C271 C9 1.231 . S
C276 C50 1.289 . S
C301 C49 1.231 . S
C306 C90 1.289 . S
C331 C89 1.231 . S
C336 C130 1.289 . S
C361 C170 1.289 . S
C366 C129 1.231 . S
C391 C210 1.289 . S
C396 C169 1.231 . S
C421 C6 1.283 . S
C426 C15 1.283 . S
C451 C46 1.283 . S
C456 C55 1.283 . S
C481 C86 1.283 . S
C486 C95 1.283 . S
C511 C126 1.283 . S
C516 C135 1.283 . S
C541 C175 1.283 . S
C546 C166 1.283 . S
C571 C206 1.283 . S
C576 C215 1.283 . S
C601 C19 1.664 . S
C606 C178 1.677 . S
C631 C59 1.664 . S
C636 C218 1.677 . S
C661 C18 1.677 . S
C666 C99 1.664 . S
C691 C58 1.677 . S
C696 C139 1.664 . S
C721 C179 1.664 . S
C726 C98 1.677 . S
C751 C138 1.677 . S
C756 C219 1.664 . S
