# Generated by pormake.
# Topology unj, (4)-cn, num edge types: 1
# Building blocks:
#     Node 0, Type 0, BuildingBlock: CEKHIL_clean_sbu_0, # of connection points: 4
#     Node 1, Type 0, BuildingBlock: CEKHIL_clean_sbu_0, # of connection points: 4
#     Node 2, Type 0, BuildingBlock: CEKHIL_clean_sbu_0, # of connection points: 4
#     Node 3, Type 0, BuildingBlock: CEKHIL_clean_sbu_0, # of connection points: 4
#     Node 4, Type 0, BuildingBlock: CEKHIL_clean_sbu_0, # of connection points: 4
#     Node 5, Type 0, BuildingBlock: CEKHIL_clean_sbu_0, # of connection points: 4
#     Edge 6, Type (0, 0), BuildingBlock: XUDNAN_clean_linker_2, # of connection points: 2
#     Edge 7, Type (0, 0), BuildingBlock: XUDNAN_clean_linker_2, # of connection points: 2
#     Edge 8, Type (0, 0), BuildingBlock: XUDNAN_clean_linker_2, # of connection points: 2
#     Edge 9, Type (0, 0), BuildingBlock: XUDNAN_clean_linker_2, # of connection points: 2
#     Edge 10, Type (0, 0), BuildingBlock: XUDNAN_clean_linker_2, # of connection points: 2
#     Edge 11, Type (0, 0), BuildingBlock: XUDNAN_clean_linker_2, # of connection points: 2
#     Edge 12, Type (0, 0), BuildingBlock: XUDNAN_clean_linker_2, # of connection points: 2
#     Edge 13, Type (0, 0), BuildingBlock: XUDNAN_clean_linker_2, # of connection points: 2
#     Edge 14, Type (0, 0), BuildingBlock: XUDNAN_clean_linker_2, # of connection points: 2
#     Edge 15, Type (0, 0), BuildingBlock: XUDNAN_clean_linker_2, # of connection points: 2
#     Edge 16, Type (0, 0), BuildingBlock: XUDNAN_clean_linker_2, # of connection points: 2
#     Edge 17, Type (0, 0), BuildingBlock: XUDNAN_clean_linker_2, # of connection points: 2
# Relax obj value: 0.029
# Max RMSD: 0.081
# Mean RMSD: 0.081
data_MOF--net-unj--node1-CEKHIL_clean_sbu_0--edge1-XUDNAN_clean_linker_2
_symmetry_space_group_name_H-M    P1
_symmetry_Int_Tables_number       1
_symmetry_cell_setting            triclinic
loop_
_symmetry_equiv_pos_as_xyz
'x, y, z'
_cell_length_a     32.330026
_cell_length_b     32.532062
_cell_length_c     36.075233
_cell_angle_alpha  89.987465
_cell_angle_beta   90.091591
_cell_angle_gamma 119.93435
loop_
_atom_site_label
_atom_site_type_symbol
_atom_site_fract_x
_atom_site_fract_y
_atom_site_fract_z
_atom_type_partial_charge
Co0 Co 0.50968 0.27062 0.58805 0.0
O1 O 0.52885 0.33281 0.60705 0.0
O2 O 0.45541 0.27239 0.61051 0.0
C3 C 0.5489 0.29924 0.53358 0.0
O4 O 0.47552 0.20132 0.56978 0.0
Co5 Co 0.58365 0.24079 0.56588 0.0
O6 O 0.52866 0.18519 0.54322 0.0
C7 C 0.5634 0.24644 0.6452 0.0
C8 C 0.4849 0.31719 0.61669 0.0
C9 C 0.4859 0.17357 0.55135 0.0
O10 O 0.52826 0.25307 0.63685 0.0
O11 O 0.59087 0.24374 0.62101 0.0
O12 O 0.50601 0.29246 0.53787 0.0
O13 O 0.56657 0.28966 0.56209 0.0
Co14 Co 0.25798 0.498 0.75582 0.0
O15 O 0.20435 0.4964 0.7807 0.0
O16 O 0.21546 0.43503 0.77618 0.0
C17 C 0.25219 0.53695 0.70569 0.0
O18 O 0.3077 0.48495 0.73069 0.0
Co19 Co 0.34747 0.59335 0.73371 0.0
O20 O 0.36338 0.5523 0.70388 0.0
C21 C 0.33383 0.5609 0.81189 0.0
C22 C 0.18857 0.45188 0.78734 0.0
C23 C 0.34483 0.50797 0.70986 0.0
O24 O 0.29726 0.52039 0.80329 0.0
O25 O 0.3558 0.59463 0.7886 0.0
O26 O 0.22619 0.49102 0.7076 0.0
O27 O 0.2789 0.55724 0.73395 0.0
Co28 Co 0.76543 0.24299 0.92532 0.0
O29 O 0.70558 0.20256 0.94945 0.0
O30 O 0.76559 0.18852 0.9484 0.0
C31 C 0.72987 0.24974 0.87308 0.0
O32 O 0.83267 0.27603 0.90191 0.0
Co33 Co 0.79309 0.34474 0.89991 0.0
O34 O 0.84843 0.34532 0.87618 0.0
C35 C 0.79529 0.32387 0.97947 0.0
C36 C 0.72193 0.17478 0.95846 0.0
C37 C 0.85992 0.3139 0.88307 0.0
O38 O 0.79008 0.28273 0.97208 0.0
O39 O 0.7935 0.35146 0.95506 0.0
O40 O 0.73669 0.21388 0.87733 0.0
O41 O 0.7435 0.27907 0.9004 0.0
Co42 Co 0.53645 0.76558 0.09133 0.0
O43 O 0.53705 0.71326 0.11592 0.0
O44 O 0.59976 0.78507 0.11106 0.0
C45 C 0.49567 0.72141 0.04131 0.0
O46 O 0.55061 0.82849 0.06698 0.0
Co47 Co 0.44087 0.76148 0.07147 0.0
O48 O 0.48218 0.8233 0.04711 0.0
C49 C 0.47489 0.77681 0.14896 0.0
C50 C 0.58206 0.74148 0.12234 0.0
C51 C 0.52744 0.84624 0.0508 0.0
O52 O 0.51621 0.78382 0.13891 0.0
O53 O 0.43936 0.76305 0.12693 0.0
O54 O 0.54183 0.74047 0.04296 0.0
O55 O 0.47613 0.72822 0.06987 0.0
Co56 Co 0.79275 0.5276 0.25408 0.0
O57 O 0.83532 0.5093 0.27609 0.0
O58 O 0.84141 0.57948 0.28368 0.0
C59 C 0.79598 0.49963 0.19728 0.0
O60 O 0.75703 0.56075 0.23452 0.0
Co61 Co 0.69595 0.45431 0.2221 0.0
O62 O 0.69173 0.50895 0.20298 0.0
C63 C 0.70861 0.4625 0.30296 0.0
C64 C 0.85836 0.55139 0.29043 0.0
C65 C 0.72036 0.55088 0.21414 0.0
O66 O 0.74921 0.50048 0.29839 0.0
O67 O 0.68284 0.43706 0.27596 0.0
O68 O 0.82798 0.54188 0.20792 0.0
O69 O 0.76367 0.47472 0.22162 0.0
Co70 Co 0.27023 0.77976 0.42343 0.0
O71 O 0.32423 0.8325 0.44701 0.0
O72 O 0.25042 0.81953 0.44931 0.0
C73 C 0.30834 0.78839 0.36889 0.0
O74 O 0.20529 0.73075 0.40156 0.0
Co75 Co 0.27521 0.69223 0.39503 0.0
O76 O 0.21115 0.67156 0.37446 0.0
C77 C 0.26361 0.70253 0.47521 0.0
C78 C 0.29517 0.84666 0.4579 0.0
C79 C 0.18731 0.6917 0.38294 0.0
O80 O 0.25888 0.73905 0.46897 0.0
O81 O 0.27344 0.68126 0.44981 0.0
O82 O 0.28878 0.81396 0.37625 0.0
O83 O 0.30655 0.76064 0.39513 0.0
H84 H 0.49761 0.10307 0.52097 0.0
H85 H 0.38764 0.13359 0.55694 0.0
H86 H 0.32574 0.05215 0.53871 0.0
H87 H 0.43675 0.03385 0.44173 0.0
H88 H 0.45901 0.99336 0.44792 0.0
H89 H 0.49357 0.0536 0.46401 0.0
H90 H 0.49598 0.02322 0.52998 0.0
H91 H 0.46122 0.96285 0.51413 0.0
H92 H 0.44084 0.98295 0.55288 0.0
H93 H 0.27572 0.96605 0.51441 0.0
H94 H 0.24366 0.8857 0.48725 0.0
H95 H 0.38819 0.91384 0.4697 0.0
C96 C 0.46057 0.09302 0.52505 0.0
C97 C 0.44766 0.12513 0.54033 0.0
C98 C 0.39857 0.10984 0.54527 0.0
C99 C 0.36316 0.06358 0.53501 0.0
C100 C 0.37741 0.03294 0.52009 0.0
C101 C 0.42509 0.04727 0.51527 0.0
C102 C 0.43172 1.00821 0.49874 0.0
C103 C 0.45672 0.02316 0.46086 0.0
C104 C 0.45905 0.99344 0.52554 0.0
C105 C 0.38028 0.96945 0.49469 0.0
C106 C 0.34925 0.98412 0.50704 0.0
C107 C 0.29984 0.95428 0.50491 0.0
C108 C 0.28193 0.90867 0.48949 0.0
C109 C 0.31335 0.89327 0.47657 0.0
C110 C 0.3631 0.92418 0.47963 0.0
H111 H 0.39899 0.29839 0.65042 0.0
H112 H 0.53701 0.41273 0.61433 0.0
H113 H 0.51458 0.47107 0.63358 0.0
H114 H 0.32951 0.35265 0.62341 0.0
H115 H 0.29136 0.3335 0.6636 0.0
H116 H 0.31712 0.29892 0.64716 0.0
H117 H 0.35426 0.30428 0.71181 0.0
H118 H 0.32843 0.3387 0.72851 0.0
H119 H 0.39181 0.36167 0.73247 0.0
H120 H 0.47857 0.5174 0.65327 0.0
H121 H 0.43245 0.55185 0.67789 0.0
H122 H 0.31654 0.41095 0.70586 0.0
C123 C 0.42441 0.33572 0.64678 0.0
C124 C 0.46989 0.3508 0.63074 0.0
C125 C 0.50216 0.40002 0.6266 0.0
C126 C 0.4897 0.43364 0.63735 0.0
C127 C 0.4449 0.41789 0.65274 0.0
C128 C 0.41275 0.37033 0.65803 0.0
C129 C 0.36737 0.36414 0.67623 0.0
C130 C 0.32376 0.3356 0.65109 0.0
C131 C 0.36004 0.34081 0.71453 0.0
C132 C 0.37916 0.41564 0.67969 0.0
C133 C 0.4241 0.44559 0.66563 0.0
C134 C 0.44344 0.49444 0.66463 0.0
C135 C 0.41656 0.51364 0.67869 0.0
C136 C 0.3705 0.48439 0.69405 0.0
C137 C 0.35156 0.43443 0.69449 0.0
H138 H 0.93196 0.39723 0.85518 0.0
H139 H 0.89772 0.25372 0.88245 0.0
H140 H 0.97862 0.27268 0.86185 0.0
H141 H 1.0004 0.41117 0.77372 0.0
H142 H 0.04256 0.47265 0.78302 0.0
H143 H 0.98217 0.44689 0.79953 0.0
H144 H 1.01357 0.47289 0.8665 0.0
H145 H 0.07407 0.49857 0.85022 0.0
H146 H 0.05304 0.45473 0.88655 0.0
H147 H 0.06508 0.30898 0.83631 0.0
H148 H 0.14641 0.35835 0.81023 0.0
H149 H 0.12194 0.47757 0.80267 0.0
C150 C 0.94103 0.36942 0.85674 0.0
C151 C 0.90798 0.32371 0.87028 0.0
C152 C 0.92214 0.28892 0.87211 0.0
C153 C 0.9681 0.29943 0.86047 0.0
C154 C 0.99971 0.34502 0.84734 0.0
C155 C 0.98656 0.37939 0.84564 0.0
C156 C 0.02669 0.42588 0.83104 0.0
C157 C 1.01207 0.43995 0.79467 0.0
C158 C 0.04278 0.46533 0.86033 0.0
C159 C 0.06469 0.41253 0.82445 0.0
C160 C 0.04872 0.36577 0.83384 0.0
C161 C 0.07781 0.34567 0.82912 0.0
C162 C 0.124 0.37397 0.81431 0.0
C163 C 0.14083 0.42198 0.80461 0.0
C164 C 0.11056 0.4412 0.81008 0.0
H165 H 0.62105 0.90358 0.02527 0.0
H166 H 0.49039 0.90444 0.05157 0.0
H167 H 0.52847 0.98849 0.03466 0.0
H168 H 0.70455 0.02458 0.05662 0.0
H169 H 0.74583 0.03769 0.01892 0.0
H170 H 0.70996 0.97751 0.035 0.0
H171 H 0.67711 0.95046 0.96861 0.0
H172 H 0.71302 1.01049 0.95233 0.0
H173 H 0.64942 0.97918 0.9447 0.0
H174 H 0.57796 0.07081 0.01507 0.0
H175 H 0.63555 0.1478 0.98857 0.0
H176 H 0.73596 0.09767 0.9711 0.0
C177 C 0.60072 0.92169 0.0276 0.0
C178 C 0.55254 0.89714 0.03975 0.0
C179 C 0.52704 0.92204 0.04205 0.0
C180 C 0.54848 0.97004 0.03275 0.0
C181 C 0.59558 0.9931 0.02073 0.0
C182 C 0.62151 0.97 0.01766 0.0
C183 C 0.67091 1.00348 1.00186 0.0
C184 C 0.71013 0.01127 0.02978 0.0
C185 C 0.67802 0.98478 0.96467 0.0
C186 C 0.66824 0.04862 0.99656 0.0
C187 C 0.62444 0.0415 0.00813 0.0
C188 C 0.61241 0.07692 0.00586 0.0
C189 C 0.64554 0.12067 0.99069 0.0
C190 C 0.69041 0.12906 0.97762 0.0
C191 C 0.70214 0.09256 0.98107 0.0
H192 H 0.63617 0.5393 0.18703 0.0
H193 H 0.77918 0.64827 0.21814 0.0
H194 H 0.75969 0.71009 0.19945 0.0
H195 H 0.62404 0.59643 0.10727 0.0
H196 H 0.56179 0.5763 0.11526 0.0
H197 H 0.58738 0.54156 0.13157 0.0
H198 H 0.55879 0.54387 0.19823 0.0
H199 H 0.53313 0.57867 0.18213 0.0
H200 H 0.5759 0.60029 0.21951 0.0
H201 H 0.72395 0.76007 0.17411 0.0
H202 H 0.67516 0.79232 0.14737 0.0
H203 H 0.55579 0.64918 0.13584 0.0
C204 C 0.66362 0.57612 0.18996 0.0
C205 C 0.70941 0.58882 0.20388 0.0
C206 C 0.74386 0.63757 0.20755 0.0
C207 C 0.7331 0.67293 0.19695 0.0
C208 C 0.68756 0.65898 0.18312 0.0
C209 C 0.65336 0.61161 0.17994 0.0
C210 C 0.60702 0.60537 0.16452 0.0
C211 C 0.59434 0.57833 0.12746 0.0
C212 C 0.56632 0.58059 0.19279 0.0
C213 C 0.62039 0.65662 0.15905 0.0
C214 C 0.66698 0.68722 0.16978 0.0
C215 C 0.68734 0.73631 0.16596 0.0
C216 C 0.6594 0.75434 0.15073 0.0
C217 C 0.61154 0.72337 0.13976 0.0
C218 C 0.59205 0.67396 0.1443 0.0
H219 H 0.12756 0.72565 0.35957 0.0
H220 H 0.1301 0.59707 0.38734 0.0
H221 H 0.0448 0.5493 0.37235 0.0
H222 H 1.00478 0.686 0.39241 0.0
H223 H 0.99086 0.71291 0.3543 0.0
H224 H 0.05151 0.73859 0.37062 0.0
H225 H 0.07926 0.73301 0.30446 0.0
H226 H 1.01879 0.70747 0.28796 0.0
H227 H 0.05143 0.67656 0.28095 0.0
H228 H 0.96199 0.51444 0.3517 0.0
H229 H 0.88513 0.4932 0.32257 0.0
H230 H 0.93267 0.64239 0.30546 0.0
C231 C 0.10979 0.68752 0.36295 0.0
C232 C 0.13546 0.66505 0.37471 0.0
C233 C 0.11127 0.61502 0.37819 0.0
C234 C 0.0627 0.58753 0.36999 0.0
C235 C 0.03848 0.61039 0.35802 0.0
C236 C 0.06095 0.65913 0.35419 0.0
C237 C 0.02666 0.67372 0.33796 0.0
C238 C 1.01794 0.70464 0.36547 0.0
C239 C 0.04515 0.69919 0.30062 0.0
C240 C 0.98196 0.62551 0.33287 0.0
C241 C 0.98979 0.58973 0.34516 0.0
C242 C 0.9552 0.54208 0.34219 0.0
C243 C 0.91162 0.53038 0.32552 0.0
C244 C 0.90275 0.56606 0.31184 0.0
C245 C 0.93817 0.61439 0.31617 0.0
H246 H 0.52213 0.31412 0.464 0.0
H247 H 0.64534 0.34199 0.53078 0.0
H248 H 0.69873 0.38987 0.48037 0.0
H249 H 0.57164 0.30144 0.37718 0.0
H250 H 0.54562 0.32907 0.3497 0.0
H251 H 0.51658 0.29792 0.39157 0.0
H252 H 0.5178 0.37332 0.4162 0.0
H253 H 0.54734 0.40487 0.37456 0.0
H254 H 0.57378 0.42821 0.41919 0.0
H255 H 0.73936 0.43819 0.42473 0.0
H256 H 0.76483 0.47428 0.36278 0.0
H257 H 0.6165 0.41074 0.32901 0.0
C258 C 0.56032 0.33017 0.46783 0.0
C259 C 0.57951 0.32447 0.50142 0.0
C260 C 0.6297 0.34572 0.50533 0.0
C261 C 0.66045 0.37331 0.47692 0.0
C262 C 0.6406 0.37885 0.44442 0.0
C263 C 0.59176 0.35721 0.4393 0.0
C264 C 0.58013 0.36735 0.40077 0.0
C265 C 0.55183 0.3212 0.37849 0.0
C266 C 0.55317 0.39509 0.40282 0.0
C267 C 0.63003 0.39793 0.38523 0.0
C268 C 0.66429 0.40483 0.41124 0.0
C269 C 0.71292 0.43279 0.40397 0.0
C270 C 0.72704 0.45342 0.36881 0.0
C271 C 0.69269 0.44523 0.34111 0.0
C272 C 0.64353 0.4174 0.34962 0.0
H273 H 0.246 0.61431 0.49656 0.0
H274 H 0.26838 0.74826 0.5404 0.0
H275 H 0.26352 0.71817 0.6041 0.0
H276 H 0.16128 0.53895 0.56767 0.0
H277 H 0.18409 0.49846 0.56859 0.0
H278 H 0.18711 0.52968 0.52649 0.0
H279 H 0.27841 0.56286 0.52354 0.0
H280 H 0.27573 0.5319 0.56563 0.0
H281 H 0.3151 0.59512 0.56264 0.0
H282 H 0.26372 0.67667 0.66227 0.0
H283 H 0.26355 0.62458 0.71192 0.0
H284 H 0.23638 0.51528 0.63101 0.0
C285 C 0.24957 0.63729 0.51953 0.0
C286 C 0.2578 0.68382 0.51347 0.0
C287 C 0.26192 0.71252 0.54432 0.0
C288 C 0.25928 0.69574 0.58059 0.0
C289 C 0.25177 0.64997 0.58549 0.0
C290 C 0.2464 0.62091 0.55585 0.0
C291 C 0.2394 0.57342 0.56874 0.0
C292 C 0.19002 0.53272 0.55719 0.0
C293 C 0.27956 0.56538 0.55428 0.0
C294 C 0.24267 0.58065 0.61036 0.0
C295 C 0.24998 0.62518 0.6193 0.0
C296 C 0.25728 0.64151 0.65566 0.0
C297 C 0.25731 0.61171 0.68362 0.0
C298 C 0.2495 0.56582 0.67525 0.0
C299 C 0.24152 0.54985 0.63817 0.0
H300 H 0.707 0.20341 0.80562 0.0
H301 H 0.68782 0.30415 0.87165 0.0
H302 H 0.63607 0.3078 0.82312 0.0
H303 H 0.71558 0.26052 0.71871 0.0
H304 H 0.68488 0.20591 0.69287 0.0
H305 H 0.71784 0.20891 0.734 0.0
H306 H 0.64184 0.13757 0.76147 0.0
H307 H 0.60847 0.13485 0.72057 0.0
H308 H 0.58796 0.14079 0.76561 0.0
H309 H 0.58592 0.30061 0.76739 0.0
H310 H 0.55099 0.29174 0.70469 0.0
H311 H 0.60585 0.19905 0.67382 0.0
C312 C 0.69178 0.22609 0.80982 0.0
C313 C 0.70125 0.25326 0.84248 0.0
C314 C 0.68114 0.28301 0.84682 0.0
C315 C 0.65134 0.28508 0.81954 0.0
C316 C 0.64224 0.25755 0.78782 0.0
C317 C 0.66247 0.22921 0.78252 0.0
C318 C 0.64961 0.20581 0.74474 0.0
C319 C 0.69465 0.22123 0.72119 0.0
C320 C 0.62022 0.15153 0.74833 0.0
C321 C 0.6195 0.22581 0.72961 0.0
C322 C 0.61485 0.25483 0.75513 0.0
C323 C 0.58923 0.27789 0.74714 0.0
C324 C 0.56919 0.27239 0.7116 0.0
C325 C 0.5757 0.24475 0.68447 0.0
C326 C 0.60025 0.2204 0.69404 0.0
H327 H 0.42349 0.62593 0.83455 0.0
H328 H 0.28474 0.52061 0.87654 0.0
H329 H 0.31307 0.54771 0.94064 0.0
H330 H 0.49538 0.61902 0.91096 0.0
H331 H 0.53697 0.68191 0.90961 0.0
H332 H 0.50696 0.65095 0.86785 0.0
H333 H 0.47564 0.7096 0.85834 0.0
H334 H 0.50502 0.7404 0.90024 0.0
H335 H 0.44177 0.71709 0.8947 0.0
H336 H 0.35349 0.59353 0.9988 0.0
H337 H 0.40499 0.64841 0.04762 0.0
H338 H 0.51881 0.72164 0.96772 0.0
C339 C 0.39917 0.60788 0.85723 0.0
C340 C 0.35176 0.57113 0.85056 0.0
C341 C 0.32124 0.54851 0.88101 0.0
C342 C 0.337 0.56386 0.91745 0.0
C343 C 0.38352 0.60131 0.92282 0.0
C344 C 0.4144 0.62244 0.89354 0.0
C345 C 0.46196 0.66321 0.90639 0.0
C346 C 0.50273 0.65314 0.89822 0.0
C347 C 0.47163 0.71034 0.88888 0.0
C348 C 0.45293 0.6624 0.94759 0.0
C349 C 0.40734 0.6266 0.95644 0.0
C350 C 0.38946 0.62104 0.99227 0.0
C351 C 0.41891 0.65261 0.01973 0.0
C352 C 0.46598 0.68899 0.01142 0.0
C353 C 0.48328 0.69366 0.97491 0.0
H354 H 0.73265 0.30857 0.03553 0.0
H355 H 0.88214 0.38689 0.00562 0.0
H356 H 0.89899 0.43862 0.06032 0.0
H357 H 0.72193 0.40369 0.06146 0.0
H358 H 0.68285 0.37695 0.10054 0.0
H359 H 0.68291 0.3403 0.06322 0.0
H360 H 0.70154 0.29042 0.10904 0.0
H361 H 0.70018 0.32605 0.14678 0.0
H362 H 0.75198 0.31979 0.13989 0.0
H363 H 0.89712 0.48983 0.11046 0.0
H364 H 0.87974 0.53043 0.1605 0.0
H365 H 0.73164 0.41777 0.16086 0.0
C366 C 0.76922 0.33505 0.04179 0.0
C367 C 0.80652 0.34305 0.01727 0.0
C368 C 0.85358 0.3795 0.0249 0.0
C369 C 0.86331 0.40926 0.05565 0.0
C370 C 0.82551 0.40189 0.0785 0.0
C371 C 0.77956 0.36497 0.07262 0.0
C372 C 0.74506 0.367 0.1001 0.0
C373 C 0.70589 0.37231 0.08012 0.0
C374 C 0.72342 0.32321 0.12547 0.0
C375 C 0.77853 0.41167 0.12142 0.0
C376 C 0.82469 0.43124 0.10831 0.0
C377 C 0.86136 0.47431 0.12157 0.0
C378 C 0.85097 0.49737 0.14974 0.0
C379 C 0.80438 0.47716 0.1647 0.0
C380 C 0.76766 0.43382 0.15015 0.0
H381 H 0.32452 0.72359 0.3333 0.0
H382 H 0.35901 0.87056 0.33003 0.0
H383 H 0.41502 0.88567 0.27828 0.0
H384 H 0.441 0.74118 0.3096 0.0
H385 H 0.41781 0.68956 0.2802 0.0
H386 H 0.38292 0.69077 0.31867 0.0
H387 H 0.3125 0.67269 0.27448 0.0
H388 H 0.34676 0.67031 0.23614 0.0
H389 H 0.32291 0.70992 0.23453 0.0
H390 H 0.46777 0.88487 0.22742 0.0
H391 H 0.50108 0.8649 0.17308 0.0
H392 H 0.42776 0.7174 0.20631 0.0
C393 C 0.34393 0.75891 0.32161 0.0
C394 C 0.33781 0.79604 0.33565 0.0
C395 C 0.36314 0.84164 0.31946 0.0
C396 C 0.39539 0.85065 0.2904 0.0
C397 C 0.40132 0.81347 0.27758 0.0
C398 C 0.3754 0.76823 0.29203 0.0
C399 C 0.38509 0.73358 0.27103 0.0
C400 C 0.40807 0.71254 0.2964 0.0
C401 C 0.33909 0.69433 0.25296 0.0
C402 C 0.42023 0.76631 0.24227 0.0
C403 C 0.43009 0.81251 0.24718 0.0
C404 C 0.46058 0.84892 0.22346 0.0
C405 C 0.47979 0.83743 0.19297 0.0
C406 C 0.4679 0.78997 0.18634 0.0
C407 C 0.43852 0.75417 0.21163 0.0
loop_
_geom_bond_atom_site_label_1
_geom_bond_atom_site_label_2
_geom_bond_distance
_geom_bond_site_symmetry_2
_ccdc_geom_bond_type
Co0 O1 2.216 . S
Co0 O2 2.091 . S
Co0 O4 2.004 . S
Co0 O10 2.021 . S
Co0 O12 2.137 . S
Co0 O13 2.244 . S
O1 Co0 2.216 . S
O1 C8 1.247 . S
O2 Co0 2.091 . S
O2 C8 1.261 . S
C3 O12 1.247 . S
C3 O13 1.272 . S
O4 Co0 2.004 . S
O4 C9 1.259 . S
Co5 O6 2.061 . S
Co5 O11 2.052 . S
Co5 O13 2.135 . S
O6 Co5 2.061 . S
O6 C9 1.235 . S
C7 O10 1.238 . S
C7 O11 1.241 . S
C8 O1 1.247 . S
C8 O2 1.261 . S
C9 O4 1.259 . S
C9 O6 1.235 . S
O10 Co0 2.021 . S
O10 C7 1.238 . S
O11 Co5 2.052 . S
O11 C7 1.241 . S
O12 Co0 2.137 . S
O12 C3 1.247 . S
O13 Co0 2.244 . S
O13 C3 1.272 . S
O13 Co5 2.135 . S
Co14 O15 2.216 . S
Co14 O16 2.091 . S
Co14 O18 2.004 . S
Co14 O24 2.021 . S
Co14 O26 2.137 . S
Co14 O27 2.244 . S
O15 Co14 2.216 . S
O15 C22 1.247 . S
O16 Co14 2.091 . S
O16 C22 1.261 . S
C17 O26 1.247 . S
C17 O27 1.272 . S
O18 Co14 2.004 . S
O18 C23 1.259 . S
Co19 O20 2.061 . S
Co19 O25 2.052 . S
Co19 O27 2.135 . S
O20 Co19 2.061 . S
O20 C23 1.235 . S
C21 O24 1.238 . S
C21 O25 1.241 . S
C22 O15 1.247 . S
C22 O16 1.261 . S
C23 O18 1.259 . S
C23 O20 1.235 . S
O24 Co14 2.021 . S
O24 C21 1.238 . S
O25 Co19 2.052 . S
O25 C21 1.241 . S
O26 Co14 2.137 . S
O26 C17 1.247 . S
O27 Co14 2.244 . S
O27 C17 1.272 . S
O27 Co19 2.135 . S
Co28 O29 2.216 . S
Co28 O30 2.091 . S
Co28 O32 2.004 . S
Co28 O38 2.021 . S
Co28 O40 2.137 . S
Co28 O41 2.244 . S
O29 Co28 2.216 . S
O29 C36 1.247 . S
O30 Co28 2.091 . S
O30 C36 1.261 . S
C31 O40 1.247 . S
C31 O41 1.272 . S
O32 Co28 2.004 . S
O32 C37 1.259 . S
Co33 O34 2.061 . S
Co33 O39 2.052 . S
Co33 O41 2.135 . S
O34 Co33 2.061 . S
O34 C37 1.235 . S
C35 O38 1.238 . S
C35 O39 1.241 . S
C36 O29 1.247 . S
C36 O30 1.261 . S
C37 O32 1.259 . S
C37 O34 1.235 . S
O38 Co28 2.021 . S
O38 C35 1.238 . S
O39 Co33 2.052 . S
O39 C35 1.241 . S
O40 Co28 2.137 . S
O40 C31 1.247 . S
O41 Co28 2.244 . S
O41 C31 1.272 . S
O41 Co33 2.135 . S
Co42 O43 2.216 . S
Co42 O44 2.091 . S
Co42 O46 2.004 . S
Co42 O52 2.021 . S
Co42 O54 2.137 . S
Co42 O55 2.244 . S
O43 Co42 2.216 . S
O43 C50 1.247 . S
O44 Co42 2.091 . S
O44 C50 1.261 . S
C45 O54 1.247 . S
C45 O55 1.272 . S
O46 Co42 2.004 . S
O46 C51 1.259 . S
Co47 O48 2.061 . S
Co47 O53 2.052 . S
Co47 O55 2.135 . S
O48 Co47 2.061 . S
O48 C51 1.235 . S
C49 O52 1.238 . S
C49 O53 1.241 . S
C50 O43 1.247 . S
C50 O44 1.261 . S
C51 O46 1.259 . S
C51 O48 1.235 . S
O52 Co42 2.021 . S
O52 C49 1.238 . S
O53 Co47 2.052 . S
O53 C49 1.241 . S
O54 Co42 2.137 . S
O54 C45 1.247 . S
O55 Co42 2.244 . S
O55 C45 1.272 . S
O55 Co47 2.135 . S
Co56 O57 2.216 . S
Co56 O58 2.091 . S
Co56 O60 2.004 . S
Co56 O66 2.021 . S
Co56 O68 2.137 . S
Co56 O69 2.244 . S
O57 Co56 2.216 . S
O57 C64 1.247 . S
O58 Co56 2.091 . S
O58 C64 1.261 . S
C59 O68 1.247 . S
C59 O69 1.272 . S
O60 Co56 2.004 . S
O60 C65 1.259 . S
Co61 O62 2.061 . S
Co61 O67 2.052 . S
Co61 O69 2.135 . S
O62 Co61 2.061 . S
O62 C65 1.235 . S
C63 O66 1.238 . S
C63 O67 1.241 . S
C64 O57 1.247 . S
C64 O58 1.261 . S
C65 O60 1.259 . S
C65 O62 1.235 . S
O66 Co56 2.021 . S
O66 C63 1.238 . S
O67 Co61 2.052 . S
O67 C63 1.241 . S
O68 Co56 2.137 . S
O68 C59 1.247 . S
O69 Co56 2.244 . S
O69 C59 1.272 . S
O69 Co61 2.135 . S
Co70 O71 2.216 . S
Co70 O72 2.091 . S
Co70 O74 2.004 . S
Co70 O80 2.021 . S
Co70 O82 2.137 . S
Co70 O83 2.244 . S
O71 Co70 2.216 . S
O71 C78 1.247 . S
O72 Co70 2.091 . S
O72 C78 1.261 . S
C73 O82 1.247 . S
C73 O83 1.272 . S
O74 Co70 2.004 . S
O74 C79 1.259 . S
Co75 O76 2.061 . S
Co75 O81 2.052 . S
Co75 O83 2.135 . S
O76 Co75 2.061 . S
O76 C79 1.235 . S
C77 O80 1.238 . S
C77 O81 1.241 . S
C78 O71 1.247 . S
C78 O72 1.261 . S
C79 O74 1.259 . S
C79 O76 1.235 . S
O80 Co70 2.021 . S
O80 C77 1.238 . S
O81 Co75 2.052 . S
O81 C77 1.241 . S
O82 Co70 2.137 . S
O82 C73 1.247 . S
O83 Co70 2.244 . S
O83 C73 1.272 . S
O83 Co75 2.135 . S
H84 C96 0.930 . S
H85 C98 0.930 . S
H86 C99 0.930 . S
H87 C103 0.959 . S
H88 C103 0.959 . S
H89 C103 0.961 . S
H90 C104 0.960 . S
H91 C104 0.961 . S
H92 C104 0.959 . S
H93 C107 0.929 . S
H94 C108 0.931 . S
H95 C110 0.930 . S
C96 H84 0.930 . S
C96 C97 1.399 . S
C96 C101 1.399 . S
C97 C96 1.399 . S
C97 C98 1.376 . S
C98 H85 0.930 . S
C98 C97 1.376 . S
C98 C99 1.388 . S
C99 H86 0.930 . S
C99 C98 1.388 . S
C99 C100 1.390 . S
C100 C99 1.390 . S
C100 C101 1.394 . S
C100 C106 1.465 1_545 S
C101 C96 1.399 . S
C101 C100 1.394 . S
C101 C102 1.516 . S
C102 C101 1.516 . S
C102 C103 1.502 . S
C102 C104 1.561 . S
C102 C105 1.526 1_545 S
C103 H87 0.959 . S
C103 H88 0.959 . S
C103 H89 0.961 . S
C103 C102 1.502 . S
C104 H90 0.960 . S
C104 H91 0.961 . S
C104 H92 0.959 . S
C104 C102 1.561 . S
C105 C102 1.526 1_565 S
C105 C106 1.396 . S
C105 C110 1.390 . S
C106 C100 1.465 1_565 S
C106 C105 1.396 . S
C106 C107 1.399 . S
C107 H93 0.929 . S
C107 C106 1.399 . S
C107 C108 1.385 . S
C108 H94 0.931 . S
C108 C107 1.385 . S
C108 C109 1.389 . S
C109 C108 1.389 . S
C109 C110 1.387 . S
C110 H95 0.930 . S
C110 C105 1.390 . S
C110 C109 1.387 . S
H111 C123 0.930 . S
H112 C125 0.930 . S
H113 C126 0.930 . S
H114 C130 0.959 . S
H115 C130 0.959 . S
H116 C130 0.961 . S
H117 C131 0.960 . S
H118 C131 0.961 . S
H119 C131 0.959 . S
H120 C134 0.929 . S
H121 C135 0.931 . S
H122 C137 0.930 . S
C123 H111 0.930 . S
C123 C124 1.399 . S
C123 C128 1.399 . S
C124 C123 1.399 . S
C124 C125 1.376 . S
C125 H112 0.930 . S
C125 C124 1.376 . S
C125 C126 1.388 . S
C126 H113 0.930 . S
C126 C125 1.388 . S
C126 C127 1.390 . S
C127 C126 1.390 . S
C127 C128 1.394 . S
C127 C133 1.465 . S
C128 C123 1.399 . S
C128 C127 1.394 . S
C128 C129 1.516 . S
C129 C128 1.516 . S
C129 C130 1.502 . S
C129 C131 1.561 . S
C129 C132 1.526 . S
C130 H114 0.959 . S
C130 H115 0.959 . S
C130 H116 0.961 . S
C130 C129 1.502 . S
C131 H117 0.960 . S
C131 H118 0.961 . S
C131 H119 0.959 . S
C131 C129 1.561 . S
C132 C129 1.526 . S
C132 C133 1.396 . S
C132 C137 1.390 . S
C133 C127 1.465 . S
C133 C132 1.396 . S
C133 C134 1.399 . S
C134 H120 0.929 . S
C134 C133 1.399 . S
C134 C135 1.385 . S
C135 H121 0.931 . S
C135 C134 1.385 . S
C135 C136 1.389 . S
C136 C135 1.389 . S
C136 C137 1.387 . S
C137 H122 0.930 . S
C137 C132 1.390 . S
C137 C136 1.387 . S
H138 C150 0.930 . S
H139 C152 0.930 . S
H140 C153 0.930 . S
H141 C157 0.959 1_655 S
H142 C157 0.959 . S
H143 C157 0.961 1_655 S
H144 C158 0.960 . S
H145 C158 0.961 . S
H146 C158 0.959 . S
H147 C161 0.929 . S
H148 C162 0.931 . S
H149 C164 0.930 . S
C150 H138 0.930 . S
C150 C151 1.399 . S
C150 C155 1.399 . S
C151 C150 1.399 . S
C151 C152 1.376 . S
C152 H139 0.930 . S
C152 C151 1.376 . S
C152 C153 1.388 . S
C153 H140 0.930 . S
C153 C152 1.388 . S
C153 C154 1.390 . S
C154 C153 1.390 . S
C154 C155 1.394 . S
C154 C160 1.465 1_655 S
C155 C150 1.399 . S
C155 C154 1.394 . S
C155 C156 1.516 1_655 S
C156 C155 1.516 1_455 S
C156 C157 1.502 . S
C156 C158 1.561 . S
C156 C159 1.526 . S
C157 H141 0.959 1_455 S
C157 H142 0.959 . S
C157 H143 0.961 1_455 S
C157 C156 1.502 . S
C158 H144 0.960 . S
C158 H145 0.961 . S
C158 H146 0.959 . S
C158 C156 1.561 . S
C159 C156 1.526 . S
C159 C160 1.396 . S
C159 C164 1.390 . S
C160 C154 1.465 1_455 S
C160 C159 1.396 . S
C160 C161 1.399 . S
C161 H147 0.929 . S
C161 C160 1.399 . S
C161 C162 1.385 . S
C162 H148 0.931 . S
C162 C161 1.385 . S
C162 C163 1.389 . S
C163 C162 1.389 . S
C163 C164 1.387 . S
C164 H149 0.930 . S
C164 C159 1.390 . S
C164 C163 1.387 . S
H165 C177 0.930 1_556 S
H166 C179 0.930 . S
H167 C180 0.930 . S
H168 C184 0.959 . S
H169 C184 0.959 . S
H170 C184 0.961 . S
H171 C185 0.960 . S
H172 C185 0.961 . S
H173 C185 0.959 . S
H174 C188 0.929 . S
H175 C189 0.931 1_554 S
H176 C191 0.930 . S
C177 H165 0.930 1_554 S
C177 C178 1.399 . S
C177 C182 1.399 1_554 S
C178 C177 1.399 . S
C178 C179 1.376 . S
C179 H166 0.930 . S
C179 C178 1.376 . S
C179 C180 1.388 . S
C180 H167 0.930 . S
C180 C179 1.388 . S
C180 C181 1.390 . S
C181 C180 1.390 . S
C181 C182 1.394 1_554 S
C181 C187 1.465 1_565 S
C182 C177 1.399 1_556 S
C182 C181 1.394 1_556 S
C182 C183 1.516 . S
C183 C182 1.516 . S
C183 C184 1.502 . S
C183 C185 1.561 . S
C183 C186 1.526 1_565 S
C184 H168 0.959 . S
C184 H169 0.959 . S
C184 H170 0.961 . S
C184 C183 1.502 . S
C185 H171 0.960 . S
C185 H172 0.961 . S
C185 H173 0.959 . S
C185 C183 1.561 . S
C186 C183 1.526 1_545 S
C186 C187 1.396 1_556 S
C186 C191 1.390 . S
C187 C181 1.465 1_545 S
C187 C186 1.396 1_554 S
C187 C188 1.399 . S
C188 H174 0.929 . S
C188 C187 1.399 . S
C188 C189 1.385 1_554 S
C189 H175 0.931 1_556 S
C189 C188 1.385 1_556 S
C189 C190 1.389 . S
C190 C189 1.389 . S
C190 C191 1.387 . S
C191 H176 0.930 . S
C191 C186 1.390 . S
C191 C190 1.387 . S
H192 C204 0.930 . S
H193 C206 0.930 . S
H194 C207 0.930 . S
H195 C211 0.959 . S
H196 C211 0.959 . S
H197 C211 0.961 . S
H198 C212 0.960 . S
H199 C212 0.961 . S
H200 C212 0.959 . S
H201 C215 0.929 . S
H202 C216 0.931 . S
H203 C218 0.930 . S
C204 H192 0.930 . S
C204 C205 1.399 . S
C204 C209 1.399 . S
C205 C204 1.399 . S
C205 C206 1.376 . S
C206 H193 0.930 . S
C206 C205 1.376 . S
C206 C207 1.388 . S
C207 H194 0.930 . S
C207 C206 1.388 . S
C207 C208 1.390 . S
C208 C207 1.390 . S
C208 C209 1.394 . S
C208 C214 1.465 . S
C209 C204 1.399 . S
C209 C208 1.394 . S
C209 C210 1.516 . S
C210 C209 1.516 . S
C210 C211 1.502 . S
C210 C212 1.561 . S
C210 C213 1.526 . S
C211 H195 0.959 . S
C211 H196 0.959 . S
C211 H197 0.961 . S
C211 C210 1.502 . S
C212 H198 0.960 . S
C212 H199 0.961 . S
C212 H200 0.959 . S
C212 C210 1.561 . S
C213 C210 1.526 . S
C213 C214 1.396 . S
C213 C218 1.390 . S
C214 C208 1.465 . S
C214 C213 1.396 . S
C214 C215 1.399 . S
C215 H201 0.929 . S
C215 C214 1.399 . S
C215 C216 1.385 . S
C216 H202 0.931 . S
C216 C215 1.385 . S
C216 C217 1.389 . S
C217 C216 1.389 . S
C217 C218 1.387 . S
C218 H203 0.930 . S
C218 C213 1.390 . S
C218 C217 1.387 . S
H219 C231 0.930 . S
H220 C233 0.930 . S
H221 C234 0.930 . S
H222 C238 0.959 . S
H223 C238 0.959 . S
H224 C238 0.961 . S
H225 C239 0.960 . S
H226 C239 0.961 . S
H227 C239 0.959 . S
H228 C242 0.929 . S
H229 C243 0.931 . S
H230 C245 0.930 . S
C231 H219 0.930 . S
C231 C232 1.399 . S
C231 C236 1.399 . S
C232 C231 1.399 . S
C232 C233 1.376 . S
C233 H220 0.930 . S
C233 C232 1.376 . S
C233 C234 1.388 . S
C234 H221 0.930 . S
C234 C233 1.388 . S
C234 C235 1.390 . S
C235 C234 1.390 . S
C235 C236 1.394 . S
C235 C241 1.465 1_455 S
C236 C231 1.399 . S
C236 C235 1.394 . S
C236 C237 1.516 . S
C237 C236 1.516 . S
C237 C238 1.502 . S
C237 C239 1.561 . S
C237 C240 1.526 1_455 S
C238 H222 0.959 . S
C238 H223 0.959 . S
C238 H224 0.961 . S
C238 C237 1.502 . S
C239 H225 0.960 . S
C239 H226 0.961 . S
C239 H227 0.959 . S
C239 C237 1.561 . S
C240 C237 1.526 1_655 S
C240 C241 1.396 . S
C240 C245 1.390 . S
C241 C235 1.465 1_655 S
C241 C240 1.396 . S
C241 C242 1.399 . S
C242 H228 0.929 . S
C242 C241 1.399 . S
C242 C243 1.385 . S
C243 H229 0.931 . S
C243 C242 1.385 . S
C243 C244 1.389 . S
C244 C243 1.389 . S
C244 C245 1.387 . S
C245 H230 0.930 . S
C245 C240 1.390 . S
C245 C244 1.387 . S
H246 C258 0.930 . S
H247 C260 0.930 . S
H248 C261 0.930 . S
H249 C265 0.959 . S
H250 C265 0.959 . S
H251 C265 0.961 . S
H252 C266 0.960 . S
H253 C266 0.961 . S
H254 C266 0.959 . S
H255 C269 0.929 . S
H256 C270 0.931 . S
H257 C272 0.930 . S
C258 H246 0.930 . S
C258 C259 1.399 . S
C258 C263 1.399 . S
C259 C258 1.399 . S
C259 C260 1.376 . S
C260 H247 0.930 . S
C260 C259 1.376 . S
C260 C261 1.388 . S
C261 H248 0.930 . S
C261 C260 1.388 . S
C261 C262 1.390 . S
C262 C261 1.390 . S
C262 C263 1.394 . S
C262 C268 1.465 . S
C263 C258 1.399 . S
C263 C262 1.394 . S
C263 C264 1.516 . S
C264 C263 1.516 . S
C264 C265 1.502 . S
C264 C266 1.561 . S
C264 C267 1.526 . S
C265 H249 0.959 . S
C265 H250 0.959 . S
C265 H251 0.961 . S
C265 C264 1.502 . S
C266 H252 0.960 . S
C266 H253 0.961 . S
C266 H254 0.959 . S
C266 C264 1.561 . S
C267 C264 1.526 . S
C267 C268 1.396 . S
C267 C272 1.390 . S
C268 C262 1.465 . S
C268 C267 1.396 . S
C268 C269 1.399 . S
C269 H255 0.929 . S
C269 C268 1.399 . S
C269 C270 1.385 . S
C270 H256 0.931 . S
C270 C269 1.385 . S
C270 C271 1.389 . S
C271 C270 1.389 . S
C271 C272 1.387 . S
C272 H257 0.930 . S
C272 C267 1.390 . S
C272 C271 1.387 . S
H273 C285 0.930 . S
H274 C287 0.930 . S
H275 C288 0.930 . S
H276 C292 0.959 . S
H277 C292 0.959 . S
H278 C292 0.961 . S
H279 C293 0.960 . S
H280 C293 0.961 . S
H281 C293 0.959 . S
H282 C296 0.929 . S
H283 C297 0.931 . S
H284 C299 0.930 . S
C285 H273 0.930 . S
C285 C286 1.399 . S
C285 C290 1.399 . S
C286 C285 1.399 . S
C286 C287 1.376 . S
C287 H274 0.930 . S
C287 C286 1.376 . S
C287 C288 1.388 . S
C288 H275 0.930 . S
C288 C287 1.388 . S
C288 C289 1.390 . S
C289 C288 1.390 . S
C289 C290 1.394 . S
C289 C295 1.465 . S
C290 C285 1.399 . S
C290 C289 1.394 . S
C290 C291 1.516 . S
C291 C290 1.516 . S
C291 C292 1.502 . S
C291 C293 1.561 . S
C291 C294 1.526 . S
C292 H276 0.959 . S
C292 H277 0.959 . S
C292 H278 0.961 . S
C292 C291 1.502 . S
C293 H279 0.960 . S
C293 H280 0.961 . S
C293 H281 0.959 . S
C293 C291 1.561 . S
C294 C291 1.526 . S
C294 C295 1.396 . S
C294 C299 1.390 . S
C295 C289 1.465 . S
C295 C294 1.396 . S
C295 C296 1.399 . S
C296 H282 0.929 . S
C296 C295 1.399 . S
C296 C297 1.385 . S
C297 H283 0.931 . S
C297 C296 1.385 . S
C297 C298 1.389 . S
C298 C297 1.389 . S
C298 C299 1.387 . S
C299 H284 0.930 . S
C299 C294 1.390 . S
C299 C298 1.387 . S
H300 C312 0.930 . S
H301 C314 0.930 . S
H302 C315 0.930 . S
H303 C319 0.959 . S
H304 C319 0.959 . S
H305 C319 0.961 . S
H306 C320 0.960 . S
H307 C320 0.961 . S
H308 C320 0.959 . S
H309 C323 0.929 . S
H310 C324 0.931 . S
H311 C326 0.930 . S
C312 H300 0.930 . S
C312 C313 1.399 . S
C312 C317 1.399 . S
C313 C312 1.399 . S
C313 C314 1.376 . S
C314 H301 0.930 . S
C314 C313 1.376 . S
C314 C315 1.388 . S
C315 H302 0.930 . S
C315 C314 1.388 . S
C315 C316 1.390 . S
C316 C315 1.390 . S
C316 C317 1.394 . S
C316 C322 1.465 . S
C317 C312 1.399 . S
C317 C316 1.394 . S
C317 C318 1.516 . S
C318 C317 1.516 . S
C318 C319 1.502 . S
C318 C320 1.561 . S
C318 C321 1.526 . S
C319 H303 0.959 . S
C319 H304 0.959 . S
C319 H305 0.961 . S
C319 C318 1.502 . S
C320 H306 0.960 . S
C320 H307 0.961 . S
C320 H308 0.959 . S
C320 C318 1.561 . S
C321 C318 1.526 . S
C321 C322 1.396 . S
C321 C326 1.390 . S
C322 C316 1.465 . S
C322 C321 1.396 . S
C322 C323 1.399 . S
C323 H309 0.929 . S
C323 C322 1.399 . S
C323 C324 1.385 . S
C324 H310 0.931 . S
C324 C323 1.385 . S
C324 C325 1.389 . S
C325 C324 1.389 . S
C325 C326 1.387 . S
C326 H311 0.930 . S
C326 C321 1.390 . S
C326 C325 1.387 . S
H327 C339 0.930 . S
H328 C341 0.930 . S
H329 C342 0.930 . S
H330 C346 0.959 . S
H331 C346 0.959 . S
H332 C346 0.961 . S
H333 C347 0.960 . S
H334 C347 0.961 . S
H335 C347 0.959 . S
H336 C350 0.929 . S
H337 C351 0.931 . S
H338 C353 0.930 . S
C339 H327 0.930 . S
C339 C340 1.399 . S
C339 C344 1.399 . S
C340 C339 1.399 . S
C340 C341 1.376 . S
C341 H328 0.930 . S
C341 C340 1.376 . S
C341 C342 1.388 . S
C342 H329 0.930 . S
C342 C341 1.388 . S
C342 C343 1.390 . S
C343 C342 1.390 . S
C343 C344 1.394 . S
C343 C349 1.465 . S
C344 C339 1.399 . S
C344 C343 1.394 . S
C344 C345 1.516 . S
C345 C344 1.516 . S
C345 C346 1.502 . S
C345 C347 1.561 . S
C345 C348 1.526 . S
C346 H330 0.959 . S
C346 H331 0.959 . S
C346 H332 0.961 . S
C346 C345 1.502 . S
C347 H333 0.960 . S
C347 H334 0.961 . S
C347 H335 0.959 . S
C347 C345 1.561 . S
C348 C345 1.526 . S
C348 C349 1.396 . S
C348 C353 1.390 . S
C349 C343 1.465 . S
C349 C348 1.396 . S
C349 C350 1.399 . S
C350 H336 0.929 . S
C350 C349 1.399 . S
C350 C351 1.385 1_556 S
C351 H337 0.931 . S
C351 C350 1.385 1_554 S
C351 C352 1.389 1_554 S
C352 C351 1.389 1_556 S
C352 C353 1.387 . S
C353 H338 0.930 . S
C353 C348 1.390 . S
C353 C352 1.387 . S
H354 C366 0.930 . S
H355 C368 0.930 . S
H356 C369 0.930 . S
H357 C373 0.959 . S
H358 C373 0.959 . S
H359 C373 0.961 . S
H360 C374 0.960 . S
H361 C374 0.961 . S
H362 C374 0.959 . S
H363 C377 0.929 . S
H364 C378 0.931 . S
H365 C380 0.930 . S
C366 H354 0.930 . S
C366 C367 1.399 . S
C366 C371 1.399 . S
C367 C366 1.399 . S
C367 C368 1.376 1_554 S
C368 H355 0.930 . S
C368 C367 1.376 1_556 S
C368 C369 1.388 1_556 S
C369 H356 0.930 . S
C369 C368 1.388 1_554 S
C369 C370 1.390 . S
C370 C369 1.390 . S
C370 C371 1.394 . S
C370 C376 1.465 . S
C371 C366 1.399 . S
C371 C370 1.394 . S
C371 C372 1.516 . S
C372 C371 1.516 . S
C372 C373 1.502 . S
C372 C374 1.561 . S
C372 C375 1.526 . S
C373 H357 0.959 . S
C373 H358 0.959 . S
C373 H359 0.961 . S
C373 C372 1.502 . S
C374 H360 0.960 . S
C374 H361 0.961 . S
C374 H362 0.959 . S
C374 C372 1.561 . S
C375 C372 1.526 . S
C375 C376 1.396 . S
C375 C380 1.390 . S
C376 C370 1.465 . S
C376 C375 1.396 . S
C376 C377 1.399 . S
C377 H363 0.929 . S
C377 C376 1.399 . S
C377 C378 1.385 . S
C378 H364 0.931 . S
C378 C377 1.385 . S
C378 C379 1.389 . S
C379 C378 1.389 . S
C379 C380 1.387 . S
C380 H365 0.930 . S
C380 C375 1.390 . S
C380 C379 1.387 . S
H381 C393 0.930 . S
H382 C395 0.930 . S
H383 C396 0.930 . S
H384 C400 0.959 . S
H385 C400 0.959 . S
H386 C400 0.961 . S
H387 C401 0.960 . S
H388 C401 0.961 . S
H389 C401 0.959 . S
H390 C404 0.929 . S
H391 C405 0.931 . S
H392 C407 0.930 . S
C393 H381 0.930 . S
C393 C394 1.399 . S
C393 C398 1.399 . S
C394 C393 1.399 . S
C394 C395 1.376 . S
C395 H382 0.930 . S
C395 C394 1.376 . S
C395 C396 1.388 . S
C396 H383 0.930 . S
C396 C395 1.388 . S
C396 C397 1.390 . S
C397 C396 1.390 . S
C397 C398 1.394 . S
C397 C403 1.465 . S
C398 C393 1.399 . S
C398 C397 1.394 . S
C398 C399 1.516 . S
C399 C398 1.516 . S
C399 C400 1.502 . S
C399 C401 1.561 . S
C399 C402 1.526 . S
C400 H384 0.959 . S
C400 H385 0.959 . S
C400 H386 0.961 . S
C400 C399 1.502 . S
C401 H387 0.960 . S
C401 H388 0.961 . S
C401 H389 0.959 . S
C401 C399 1.561 . S
C402 C399 1.526 . S
C402 C403 1.396 . S
C402 C407 1.390 . S
C403 C397 1.465 . S
C403 C402 1.396 . S
C403 C404 1.399 . S
C404 H390 0.929 . S
C404 C403 1.399 . S
C404 C405 1.385 . S
C405 H391 0.931 . S
C405 C404 1.385 . S
C405 C406 1.389 . S
C406 C405 1.389 . S
C406 C407 1.387 . S
C407 H392 0.930 . S
C407 C402 1.390 . S
C407 C406 1.387 . S
C97 C9 1.612 . S
C109 C78 1.606 . S
C124 C8 1.612 . S
C136 C23 1.587 . S
C151 C37 1.611 . S
C163 C22 1.601 . S
C178 C51 1.596 . S
C190 C36 1.614 . S
C205 C65 1.600 . S
C217 C50 1.605 . S
C232 C79 1.595 . S
C244 C64 1.615 . S
C259 C3 1.451 . S
C271 C63 1.404 . S
C286 C77 1.450 . S
C298 C17 1.451 . S
C313 C31 1.451 . S
C325 C7 1.412 . S
C340 C21 1.449 . S
C352 C45 1.451 1_556 S
C367 C35 1.397 1_554 S
C379 C59 1.448 . S
C394 C73 1.448 . S
C406 C49 1.400 . S
