# Generated by pormake.
# Topology ths, (3)-cn, num edge types: 1
# Building blocks:
#     Node 0, Type 0, BuildingBlock: WUSLED_clean_sbu_0, # of connection points: 3
#     Node 1, Type 0, BuildingBlock: WUSLED_clean_sbu_0, # of connection points: 3
#     Node 2, Type 0, BuildingBlock: WUSLED_clean_sbu_0, # of connection points: 3
#     Node 3, Type 0, BuildingBlock: WUSLED_clean_sbu_0, # of connection points: 3
#     Node 4, Type 0, BuildingBlock: WUSLED_clean_sbu_0, # of connection points: 3
#     Node 5, Type 0, BuildingBlock: WUSLED_clean_sbu_0, # of connection points: 3
#     Node 6, Type 0, BuildingBlock: WUSLED_clean_sbu_0, # of connection points: 3
#     Node 7, Type 0, BuildingBlock: WUSLED_clean_sbu_0, # of connection points: 3
#     Edge 8, Type (0, 0), BuildingBlock: MIFKUJ_clean_linker_0, # of connection points: 2
#     Edge 9, Type (0, 0), BuildingBlock: MIFKUJ_clean_linker_0, # of connection points: 2
#     Edge 10, Type (0, 0), BuildingBlock: MIFKUJ_clean_linker_0, # of connection points: 2
#     Edge 11, Type (0, 0), BuildingBlock: MIFKUJ_clean_linker_0, # of connection points: 2
#     Edge 12, Type (0, 0), BuildingBlock: MIFKUJ_clean_linker_0, # of connection points: 2
#     Edge 13, Type (0, 0), BuildingBlock: MIFKUJ_clean_linker_0, # of connection points: 2
#     Edge 14, Type (0, 0), BuildingBlock: MIFKUJ_clean_linker_0, # of connection points: 2
#     Edge 15, Type (0, 0), BuildingBlock: MIFKUJ_clean_linker_0, # of connection points: 2
#     Edge 16, Type (0, 0), BuildingBlock: MIFKUJ_clean_linker_0, # of connection points: 2
#     Edge 17, Type (0, 0), BuildingBlock: MIFKUJ_clean_linker_0, # of connection points: 2
#     Edge 18, Type (0, 0), BuildingBlock: MIFKUJ_clean_linker_0, # of connection points: 2
#     Edge 19, Type (0, 0), BuildingBlock: MIFKUJ_clean_linker_0, # of connection points: 2
# Relax obj value: 0.000
# Max RMSD: 0.004
# Mean RMSD: 0.004
data_MOF--net-ths--node1-WUSLED_clean_sbu_0--edge1-MIFKUJ_clean_linker_0
_symmetry_space_group_name_H-M    P1
_symmetry_Int_Tables_number       1
_symmetry_cell_setting            triclinic
loop_
_symmetry_equiv_pos_as_xyz
'x, y, z'
_cell_length_a     48.084462
_cell_length_b     48.099316
_cell_length_c     161.0919
_cell_angle_alpha  88.822422
_cell_angle_beta   90.390234
_cell_angle_gamma 90.149888
loop_
_atom_site_label
_atom_site_type_symbol
_atom_site_fract_x
_atom_site_fract_y
_atom_site_fract_z
_atom_type_partial_charge
C0 C 0.07221 0.82241 0.04348 0.0
C1 C 0.0578 0.8431 0.04772 0.0
C2 C 0.07321 0.87825 0.0376 0.0
C3 C 0.05819 0.87073 0.04478 0.0
C4 C 0.0879 0.85749 0.03346 0.0
C5 C 0.08733 0.82986 0.03636 0.0
U6 U 0.06903 0.76601 0.06063 0.0
O7 O 0.04589 0.72644 0.06112 0.0
O8 O 0.09147 0.7263 0.06186 0.0
C9 C 0.06862 0.71133 0.0614 0.0
C10 C 0.0716 0.79301 0.04631 0.0
C11 C 0.06934 0.68762 0.05576 0.0
C12 C 0.07552 0.66803 0.04209 0.0
C13 C 0.0747 0.69117 0.04725 0.0
C14 C 0.06546 0.63776 0.05389 0.0
C15 C 0.07104 0.64099 0.04536 0.0
C16 C 0.06465 0.66082 0.05902 0.0
C17 C 0.06554 0.78782 0.08342 0.0
C18 C 0.07415 0.75723 0.09538 0.0
C19 C 0.0551 0.80319 0.09733 0.0
C20 C 0.05565 0.80815 0.08875 0.0
C21 C 0.06453 0.77775 0.10077 0.0
C22 C 0.07456 0.7622 0.08677 0.0
C23 C 0.06685 0.79409 0.07444 0.0
O24 O 0.09375 0.78421 0.05039 0.0
O25 O 0.04817 0.78411 0.04961 0.0
O26 O 0.04466 0.78752 0.07009 0.0
O27 O 0.09024 0.78761 0.07077 0.0
H28 H 0.04618 0.83791 0.05328 0.0
H29 H 0.04693 0.88627 0.04818 0.0
H30 H 0.09942 0.86248 0.02787 0.0
H31 H 0.09859 0.81423 0.033 0.0
H32 H 0.08009 0.67129 0.03557 0.0
H33 H 0.07836 0.71175 0.04462 0.0
H34 H 0.06139 0.61738 0.05661 0.0
H35 H 0.06034 0.6577 0.06557 0.0
H36 H 0.08126 0.73731 0.0978 0.0
H37 H 0.04792 0.81957 0.1013 0.0
H38 H 0.04864 0.82808 0.08628 0.0
H39 H 0.08214 0.74615 0.08275 0.0
C40 C 0.51446 0.76715 0.29335 0.0
C41 C 0.49318 0.75458 0.29805 0.0
C42 C 0.45899 0.76736 0.28738 0.0
C43 C 0.46572 0.75457 0.29507 0.0
C44 C 0.48036 0.78023 0.28277 0.0
C45 C 0.5078 0.78006 0.28572 0.0
U46 U 0.56942 0.76636 0.31069 0.0
O47 O 0.60863 0.74296 0.31183 0.0
O48 O 0.60933 0.78859 0.31157 0.0
C49 C 0.62403 0.76557 0.31163 0.0
C50 C 0.54366 0.76685 0.29625 0.0
C51 C 0.6481 0.76522 0.30602 0.0
C52 C 0.66925 0.77302 0.29248 0.0
C53 C 0.64573 0.7729 0.29759 0.0
C54 C 0.69756 0.75743 0.30416 0.0
C55 C 0.69554 0.76545 0.29572 0.0
C56 C 0.67411 0.75735 0.30924 0.0
C57 C 0.54501 0.7665 0.3334 0.0
C58 C 0.57419 0.77609 0.34542 0.0
C59 C 0.52746 0.75832 0.34735 0.0
C60 C 0.5237 0.75777 0.33874 0.0
C61 C 0.55265 0.76774 0.35081 0.0
C62 C 0.57041 0.77546 0.33678 0.0
C63 C 0.53996 0.76656 0.32437 0.0
O64 O 0.55236 0.78956 0.29987 0.0
O65 O 0.55202 0.74393 0.30008 0.0
O66 O 0.54667 0.74367 0.32055 0.0
O67 O 0.54725 0.7893 0.32027 0.0
H68 H 0.49778 0.74469 0.304 0.0
H69 H 0.44972 0.74478 0.29883 0.0
H70 H 0.47596 0.79001 0.27679 0.0
H71 H 0.5239 0.78988 0.282 0.0
H72 H 0.66694 0.77952 0.28604 0.0
H73 H 0.62578 0.77901 0.29498 0.0
H74 H 0.71729 0.75098 0.30684 0.0
H75 H 0.67632 0.75121 0.31572 0.0
H76 H 0.59378 0.78364 0.34786 0.0
H77 H 0.51062 0.7512 0.35129 0.0
H78 H 0.50401 0.75063 0.33625 0.0
H79 H 0.58716 0.78224 0.33275 0.0
C80 C 0.57082 0.32024 0.54339 0.0
C81 C 0.58078 0.34199 0.54828 0.0
C82 C 0.5701 0.37569 0.53717 0.0
C83 C 0.58048 0.36944 0.5452 0.0
C84 C 0.55976 0.35377 0.53237 0.0
C85 C 0.56018 0.32636 0.53544 0.0
U86 U 0.5738 0.26505 0.56088 0.0
O87 O 0.55245 0.22471 0.56208 0.0
O88 O 0.59807 0.22626 0.56176 0.0
C89 C 0.57572 0.21047 0.56177 0.0
C90 C 0.57172 0.29108 0.54639 0.0
C91 C 0.57603 0.18685 0.55606 0.0
C92 C 0.56146 0.16446 0.54333 0.0
C93 C 0.56177 0.18774 0.54843 0.0
C94 C 0.59021 0.13944 0.55335 0.0
C95 C 0.57548 0.13989 0.54576 0.0
C96 C 0.59041 0.16263 0.55844 0.0
C97 C 0.57531 0.28848 0.58356 0.0
C98 C 0.57278 0.25694 0.59553 0.0
C99 C 0.58081 0.30612 0.59749 0.0
C100 C 0.57979 0.31068 0.5889 0.0
C101 C 0.57737 0.2792 0.60093 0.0
C102 C 0.57183 0.26154 0.58691 0.0
C103 C 0.57425 0.29403 0.57454 0.0
O104 O 0.59506 0.28312 0.55 0.0
O105 O 0.54946 0.28205 0.55031 0.0
O106 O 0.55129 0.28635 0.57074 0.0
O107 O 0.59687 0.28793 0.57043 0.0
H108 H 0.58903 0.33771 0.55445 0.0
H109 H 0.58887 0.38568 0.54905 0.0
H110 H 0.55114 0.35778 0.52623 0.0
H111 H 0.55225 0.30987 0.53159 0.0
H112 H 0.54972 0.16553 0.53757 0.0
H113 H 0.55059 0.20628 0.54645 0.0
H114 H 0.6017 0.12115 0.55536 0.0
H115 H 0.60168 0.16158 0.56429 0.0
H116 H 0.57032 0.23593 0.59796 0.0
H117 H 0.58395 0.32379 0.60146 0.0
H118 H 0.58242 0.33163 0.58642 0.0
H119 H 0.56843 0.24412 0.58287 0.0
C120 C 0.02375 0.26571 0.79301 0.0
C121 C 1.00192 0.27483 0.79801 0.0
C122 C 0.96829 0.26462 0.78706 0.0
C123 C 0.97445 0.27439 0.79505 0.0
C124 C 0.99028 0.25527 0.78212 0.0
C125 C 1.01772 0.25586 0.78507 0.0
U126 U 0.07817 0.26781 0.81044 0.0
O127 O 0.11789 0.24557 0.81183 0.0
O128 O 0.11753 0.29118 0.81124 0.0
C129 C 0.13277 0.26853 0.81149 0.0
C130 C 0.05286 0.26634 0.79595 0.0
C131 C 0.1569 0.26836 0.80591 0.0
C132 C 0.17774 0.26101 0.79241 0.0
C133 C 0.15421 0.26164 0.7975 0.0
C134 C 0.20671 0.27411 0.80405 0.0
C135 C 0.20434 0.26707 0.79564 0.0
C136 C 0.18324 0.27471 0.80912 0.0
C137 C 0.05321 0.26868 0.83307 0.0
C138 C 0.08396 0.27268 0.84504 0.0
C139 C 0.03468 0.26459 0.84703 0.0
C140 C 0.03068 0.2647 0.83843 0.0
C141 C 0.06138 0.26847 0.85046 0.0
C142 C 0.07991 0.27271 0.83641 0.0
C143 C 0.0483 0.26827 0.82404 0.0
O144 O 0.06102 0.28953 0.79941 0.0
O145 O 0.06143 0.24393 0.79999 0.0
O146 O 0.05561 0.24532 0.82036 0.0
O147 O 0.05532 0.29093 0.81986 0.0
H148 H 1.00612 0.28232 0.80419 0.0
H149 H 0.95799 0.28142 0.79905 0.0
H150 H 0.98636 0.24791 0.77591 0.0
H151 H 0.03429 0.24873 0.78112 0.0
H152 H 0.17515 0.25528 0.78598 0.0
H153 H 0.13399 0.25668 0.79491 0.0
H154 H 0.22671 0.27941 0.80672 0.0
H155 H 0.1857 0.28008 0.81559 0.0
H156 H 0.10481 0.27547 0.84748 0.0
H157 H 1.01678 0.26171 0.851 0.0
H158 H 1.0099 0.26163 0.83595 0.0
H159 H 0.09759 0.27572 0.83236 0.0
C160 C 0.07357 0.21419 0.99731 0.0
C161 C 0.05392 0.19493 0.99439 0.0
C162 C 0.07361 0.15852 1.0034 0.0
C163 C 0.05388 0.16743 0.99743 0.0
C164 C 0.09343 0.17776 1.00623 0.0
C165 C 0.09333 0.20529 1.00324 0.0
U166 U 0.07355 0.27027 0.98001 0.0
O167 O 0.05089 0.30987 0.97894 0.0
O168 O 0.09653 0.30989 0.97907 0.0
C169 C 0.07374 0.32492 0.97907 0.0
C170 C 0.07362 0.24363 0.99441 0.0
C171 C 0.07373 0.34869 0.98469 0.0
C172 C 0.06799 0.3685 0.99836 0.0
C173 C 0.06853 0.3453 0.99322 0.0
C174 C 0.07811 0.39855 0.98651 0.0
C175 C 0.07261 0.39547 0.99505 0.0
C176 C 0.07864 0.37541 0.9814 0.0
C177 C 0.07343 0.24637 0.95731 0.0
C178 C 0.07291 0.27749 0.94521 0.0
C179 C 0.07362 0.2276 0.94343 0.0
C180 C 0.07378 0.22358 0.95205 0.0
C181 C 0.07305 0.25459 0.93989 0.0
C182 C 0.07306 0.2734 0.95386 0.0
C183 C 0.07345 0.24127 0.96635 0.0
O184 O 0.09647 0.25234 0.99074 0.0
O185 O 0.05084 0.25276 0.99071 0.0
O186 O 0.05066 0.24826 0.97024 0.0
O187 O 0.09628 0.24832 0.97032 0.0
H188 H 0.03852 0.20108 0.98978 0.0
H189 H 0.03854 0.15306 0.99506 0.0
H190 H 0.10873 0.17167 1.01088 0.0
H191 H 0.10862 0.21975 1.00561 0.0
H192 H 0.06348 0.36536 1.00489 0.0
H193 H 0.06469 0.32479 0.99588 0.0
H194 H 0.08227 0.41886 0.98376 0.0
H195 H 0.08281 0.37842 0.97484 0.0
H196 H 0.07226 0.29853 0.94269 0.0
H197 H 0.07424 0.20951 0.93955 0.0
H198 H 0.07422 0.20257 0.95461 0.0
H199 H 0.07278 0.29127 0.95784 0.0
C200 C 0.12424 0.76247 0.24756 0.0
C201 C 0.14554 0.775 0.24285 0.0
C202 C 0.17974 0.76213 0.25351 0.0
C203 C 0.173 0.77494 0.24582 0.0
C204 C 0.15836 0.7493 0.25813 0.0
C205 C 0.1309 0.74953 0.25519 0.0
U206 U 0.06922 0.76348 0.23024 0.0
O207 O 0.02926 0.74134 0.22936 0.0
O208 O 0.03005 0.78697 0.22913 0.0
C209 C 1.01461 0.76439 0.22932 0.0
C210 C 0.09503 0.76285 0.24467 0.0
C211 C 0.99057 0.76476 0.23495 0.0
C212 C 0.9695 0.75695 0.24849 0.0
C213 C 0.99299 0.75707 0.24337 0.0
C214 C 0.94112 0.77256 0.23683 0.0
C215 C 0.9432 0.76452 0.24527 0.0
C216 C 0.96455 0.77264 0.23174 0.0
C217 C 0.0936 0.76335 0.20752 0.0
C218 C 0.06353 0.7561 0.19555 0.0
C219 C 0.11167 0.76943 0.19356 0.0
C220 C 0.11556 0.7699 0.20216 0.0
C221 C 0.08567 0.76232 0.19013 0.0
C222 C 0.06746 0.75662 0.20418 0.0
C223 C 0.09866 0.76325 0.21655 0.0
O224 O 0.08671 0.78581 0.24085 0.0
O225 O 0.08626 0.74018 0.24105 0.0
O226 O 0.09127 0.74051 0.22064 0.0
O227 O 0.09199 0.78613 0.22038 0.0
H228 H 0.14093 0.7849 0.2369 0.0
H229 H 0.18901 0.7847 0.24206 0.0
H230 H 0.16275 0.7395 0.26411 0.0
H231 H 0.11479 0.73975 0.25891 0.0
H232 H 0.97184 0.75043 0.25493 0.0
H233 H 1.01295 0.75094 0.24597 0.0
H234 H 0.92138 0.77902 0.23416 0.0
H235 H 0.9623 0.77879 0.22526 0.0
H236 H 0.0433 0.75034 0.19313 0.0
H237 H 0.12904 0.77487 0.1896 0.0
H238 H 0.13584 0.77529 0.20464 0.0
H239 H 0.05022 0.75152 0.20823 0.0
C240 C 0.57112 0.71295 0.49775 0.0
C241 C 0.56112 0.69131 0.49282 0.0
C242 C 0.57126 0.65744 0.50393 0.0
C243 C 0.56112 0.66383 0.49588 0.0
C244 C 0.58164 0.67925 0.50877 0.0
C245 C 0.58152 0.70668 0.50571 0.0
U246 U 0.57049 0.76867 0.48035 0.0
O247 O 0.54637 0.80754 0.47929 0.0
O248 O 0.59201 0.80899 0.47954 0.0
C249 C 0.56873 0.82327 0.4796 0.0
C250 C 0.57053 0.74216 0.49477 0.0
C251 C 0.56771 0.84678 0.48535 0.0
C252 C 0.58169 0.86939 0.4981 0.0
C253 C 0.58177 0.84608 0.49302 0.0
C254 C 0.55291 0.89404 0.48801 0.0
C255 C 0.56749 0.8938 0.49562 0.0
C256 C 0.55309 0.87082 0.48293 0.0
C257 C 0.57276 0.74653 0.45757 0.0
C258 C 0.56037 0.77542 0.44553 0.0
C259 C 0.58548 0.73242 0.4437 0.0
C260 C 0.5854 0.7276 0.45229 0.0
C261 C 0.57279 0.75629 0.4402 0.0
C262 C 0.56045 0.77064 0.45414 0.0
C263 C 0.57236 0.74042 0.46657 0.0
O264 O 0.59331 0.75136 0.49118 0.0
O265 O 0.5477 0.75014 0.49088 0.0
O266 O 0.54909 0.74609 0.47043 0.0
O267 O 0.5947 0.74781 0.47073 0.0
H268 H 0.55305 0.69569 0.48663 0.0
H269 H 0.5527 0.64768 0.492 0.0
H270 H 0.59009 0.67513 0.51492 0.0
H271 H 0.58948 0.72307 0.50959 0.0
H272 H 0.59333 0.86848 0.50388 0.0
H273 H 0.59315 0.8277 0.49503 0.0
H274 H 0.54129 0.91221 0.48597 0.0
H275 H 0.542 0.87174 0.47706 0.0
H276 H 0.5507 0.79416 0.44305 0.0
H277 H 0.59492 0.71709 0.43978 0.0
H278 H 0.595 0.70887 0.45481 0.0
H279 H 0.55075 0.78566 0.45812 0.0
C280 C 0.63285 0.26484 0.74771 0.0
C281 C 0.65463 0.25566 0.7427 0.0
C282 C 0.68835 0.26584 0.75363 0.0
C283 C 0.68212 0.25606 0.74565 0.0
C284 C 0.66641 0.27525 0.75858 0.0
C285 C 0.63896 0.27471 0.75564 0.0
U286 U 0.57821 0.26283 0.73033 0.0
O287 O 0.53887 0.23941 0.72957 0.0
O288 O 0.53844 0.28503 0.729 0.0
C289 C 0.5236 0.26204 0.72935 0.0
C290 C 0.60371 0.26423 0.7448 0.0
C291 C 0.49953 0.26214 0.73495 0.0
C292 C 0.47882 0.26941 0.74848 0.0
C293 C 0.50229 0.26884 0.74336 0.0
C294 C 0.44976 0.25624 0.73685 0.0
C295 C 0.4522 0.26328 0.74527 0.0
C296 C 0.47318 0.25571 0.73176 0.0
C297 C 0.60286 0.26196 0.70768 0.0
C298 C 0.57171 0.26211 0.69571 0.0
C299 C 0.6216 0.26198 0.69372 0.0
C300 C 0.62566 0.26184 0.70232 0.0
C301 C 0.5946 0.26229 0.69029 0.0
C302 C 0.57582 0.26199 0.70434 0.0
C303 C 0.60789 0.2624 0.71669 0.0
O304 O 0.5951 0.28667 0.74077 0.0
O305 O 0.59551 0.24107 0.74133 0.0
O306 O 0.60095 0.23972 0.72088 0.0
O307 O 0.60059 0.28532 0.72039 0.0
H308 H 0.65037 0.24815 0.73653 0.0
H309 H 0.69854 0.24898 0.74164 0.0
H310 H 0.6704 0.28262 0.76478 0.0
H311 H 0.62243 0.28188 0.7596 0.0
H312 H 0.48145 0.27513 0.7549 0.0
H313 H 0.52252 0.27385 0.74594 0.0
H314 H 0.42975 0.2509 0.7342 0.0
H315 H 0.47067 0.25035 0.7253 0.0
H316 H 0.55066 0.26256 0.69328 0.0
H317 H 0.63969 0.26162 0.68975 0.0
H318 H 0.64668 0.2617 0.70479 0.0
H319 H 0.55796 0.26213 0.7084 0.0
H320 H 0.0498 0.44644 0.99136 0.0
H321 H 0.04984 0.48785 0.99987 0.0
H322 H 0.09278 0.44258 1.01944 0.0
H323 H 0.09303 0.401 1.01092 0.0
H324 H 0.05146 0.47413 0.02558 0.0
H325 H 0.12764 0.48823 1.0069 0.0
H326 H 0.1505 0.49112 0.99326 0.0
H327 H 0.09604 0.55773 0.98571 0.0
H328 H 0.07259 0.55497 0.99928 0.0
H329 H 0.09398 0.59003 0.04899 0.0
H330 H 0.09388 0.54867 0.04046 0.0
H331 H 0.05088 0.59408 0.02093 0.0
H332 H 0.05067 0.63561 0.02948 0.0
H333 H 0.09215 0.56249 1.01476 0.0
H334 H 1.016 0.54844 0.03344 0.0
H335 H 0.9931 0.54555 0.04708 0.0
H336 H 0.04743 0.47885 0.05463 0.0
H337 H 0.07093 0.48161 0.04107 0.0
C338 C 0.05947 0.44529 0.99745 0.0
C339 C 0.07166 0.42038 1.00041 0.0
C340 C 0.05942 0.46902 1.00232 0.0
C341 C 0.07167 0.4685 1.01026 0.0
C342 C 0.08323 0.44351 1.01333 0.0
C343 C 0.08328 0.41972 1.00846 0.0
C344 C 0.07253 0.49408 1.01531 0.0
C345 C 0.0607 0.49333 0.02326 0.0
C346 C 0.08401 0.51938 1.01222 0.0
C347 C 0.09819 0.52121 1.00408 0.0
C348 C 0.1204 0.50336 1.00231 0.0
C349 C 0.13349 0.50499 0.99459 0.0
C350 C 0.12468 0.52455 0.98861 0.0
C351 C 0.10282 0.54256 0.99034 0.0
C352 C 0.08964 0.54099 0.99805 0.0
C353 C 0.08429 0.59123 0.04291 0.0
C354 C 0.07209 0.61615 0.03997 0.0
C355 C 0.0843 0.56753 0.03803 0.0
C356 C 0.072 0.5681 0.03009 0.0
C357 C 0.06045 0.59311 0.02704 0.0
C358 C 0.06044 0.61688 0.03192 0.0
C359 C 0.07108 0.54254 0.02503 0.0
C360 C 0.0829 0.54329 1.01708 0.0
C361 C 0.05959 0.51724 0.02812 0.0
C362 C 0.0454 0.51542 0.03626 0.0
C363 C 0.0232 0.5333 0.03803 0.0
C364 C 1.01009 0.53166 0.04574 0.0
C365 C 1.01885 0.51208 0.05172 0.0
C366 C 0.04069 0.49403 0.04999 0.0
C367 C 0.0539 0.49561 0.04229 0.0
H368 H 1.00868 0.51084 0.05769 0.0
H369 H 0.13484 0.52578 0.98264 0.0
H370 H 0.93831 0.78075 0.26146 0.0
H371 H 0.89649 0.78052 0.27003 0.0
H372 H 0.84899 0.74702 0.24974 0.0
H373 H 0.89068 0.74696 0.24116 0.0
H374 H 0.82144 0.78868 0.25671 0.0
H375 H 0.86843 0.70625 0.26641 0.0
H376 H 0.90772 0.67877 0.27205 0.0
H377 H 0.90859 0.72792 0.294 0.0
H378 H 0.86954 0.75597 0.28844 0.0
H379 H 0.70049 0.74919 0.27954 0.0
H380 H 0.74235 0.7494 0.27098 0.0
H381 H 0.78977 0.78293 0.29129 0.0
H382 H 0.74804 0.78301 0.29985 0.0
H383 H 0.81737 0.74129 0.28432 0.0
H384 H 0.77038 0.82371 0.27462 0.0
H385 H 0.7311 0.8512 0.26899 0.0
H386 H 0.73022 0.80207 0.24703 0.0
H387 H 0.76927 0.77402 0.25258 0.0
C388 C 0.91905 0.77302 0.25885 0.0
C389 C 0.91793 0.7639 0.2506 0.0
C390 C 0.89511 0.77296 0.26375 0.0
C391 C 0.86956 0.76358 0.26055 0.0
C392 C 0.86839 0.75447 0.25234 0.0
C393 C 0.89228 0.75453 0.24743 0.0
C394 C 0.84395 0.76361 0.26571 0.0
C395 C 0.82045 0.77799 0.2627 0.0
C396 C 0.84277 0.75023 0.27361 0.0
C397 C 0.86625 0.73339 0.27697 0.0
C398 C 0.87715 0.71135 0.27241 0.0
C399 C 0.89935 0.69564 0.2756 0.0
C400 C 0.91069 0.70164 0.28337 0.0
C401 C 0.89981 0.72333 0.28798 0.0
C402 C 0.87764 0.73912 0.28481 0.0
C403 C 0.71974 0.75692 0.28216 0.0
C404 C 0.72083 0.76605 0.2904 0.0
C405 C 0.74371 0.75697 0.27726 0.0
C406 C 0.76924 0.76636 0.28047 0.0
C407 C 0.77038 0.77548 0.28868 0.0
C408 C 0.74647 0.77542 0.29358 0.0
C409 C 0.79486 0.76635 0.27532 0.0
C410 C 0.81837 0.75197 0.27833 0.0
C411 C 0.79604 0.77974 0.26741 0.0
C412 C 0.77257 0.79658 0.26406 0.0
C413 C 0.76166 0.81862 0.26862 0.0
C414 C 0.73946 0.83433 0.26544 0.0
C415 C 0.72812 0.82833 0.25766 0.0
C416 C 0.739 0.80666 0.25305 0.0
C417 C 0.76118 0.79086 0.25621 0.0
H418 H 0.71094 0.84053 0.25521 0.0
H419 H 0.92787 0.68945 0.28583 0.0
H420 H 0.58161 0.39359 0.52127 0.0
H421 H 0.58129 0.44112 0.51568 0.0
H422 H 0.55983 0.47163 0.53979 0.0
H423 H 0.5589 0.42396 0.54536 0.0
H424 H 0.52965 0.49715 0.52806 0.0
H425 H 0.62669 0.47743 0.53202 0.0
H426 H 0.67004 0.45076 0.53053 0.0
H427 H 0.66528 0.46152 0.50403 0.0
H428 H 0.62169 0.48795 0.50536 0.0
H429 H 0.55933 0.63949 0.5198 0.0
H430 H 0.5594 0.59194 0.52537 0.0
H431 H 0.58107 0.56147 0.50127 0.0
H432 H 0.58227 0.60916 0.49572 0.0
H433 H 0.61111 0.53591 0.51299 0.0
H434 H 0.51408 0.5557 0.50903 0.0
H435 H 0.47073 0.58236 0.51053 0.0
H436 H 0.47545 0.5715 0.53703 0.0
H437 H 0.51905 0.54507 0.53569 0.0
C438 C 0.57652 0.41034 0.52538 0.0
C439 C 0.57028 0.40483 0.53378 0.0
C440 C 0.57668 0.4376 0.52219 0.0
C441 C 0.57092 0.46007 0.52733 0.0
C442 C 0.56447 0.45467 0.5357 0.0
C443 C 0.5642 0.42738 0.5389 0.0
C444 C 0.57135 0.48916 0.52395 0.0
C445 C 0.54762 0.50574 0.52487 0.0
C446 C 0.59451 0.50024 0.5196 0.0
C447 C 0.62079 0.48445 0.51879 0.0
C448 C 0.63478 0.47393 0.52587 0.0
C449 C 0.65941 0.45889 0.52505 0.0
C450 C 0.67037 0.45439 0.51718 0.0
C451 C 0.65675 0.46499 0.51012 0.0
C452 C 0.6321 0.48003 0.5109 0.0
C453 C 0.5644 0.62275 0.51568 0.0
C454 C 0.57081 0.62828 0.50729 0.0
C455 C 0.5641 0.59548 0.51887 0.0
C456 C 0.56986 0.573 0.51373 0.0
C457 C 0.57643 0.57842 0.50536 0.0
C458 C 0.57685 0.60572 0.50218 0.0
C459 C 0.56941 0.54391 0.5171 0.0
C460 C 0.59313 0.52732 0.51618 0.0
C461 C 0.54624 0.53283 0.52145 0.0
C462 C 0.51997 0.54863 0.52226 0.0
C463 C 0.50598 0.55917 0.51518 0.0
C464 C 0.48135 0.57421 0.516 0.0
C465 C 0.47038 0.57868 0.52387 0.0
C466 C 0.48399 0.56805 0.53094 0.0
C467 C 0.50865 0.55301 0.53015 0.0
H468 H 0.45131 0.59033 0.5245 0.0
H469 H 0.68944 0.44274 0.51656 0.0
H470 H 0.92851 0.30496 0.78848 0.0
H471 H 0.8811 0.30496 0.78289 0.0
H472 H 0.89463 0.22385 0.77274 0.0
H473 H 0.94213 0.2238 0.77827 0.0
H474 H 0.86958 0.25637 0.76161 0.0
H475 H 0.85473 0.23343 0.79039 0.0
H476 H 0.85855 0.23962 0.80551 0.0
H477 H 0.81685 0.31824 0.80316 0.0
H478 H 0.81311 0.31269 0.788 0.0
H479 H 0.72807 0.22543 0.75219 0.0
H480 H 0.77549 0.22533 0.75777 0.0
H481 H 0.76214 0.30648 0.76792 0.0
H482 H 0.71464 0.30662 0.7624 0.0
H483 H 0.7871 0.27386 0.77905 0.0
H484 H 0.80199 0.29678 0.75027 0.0
H485 H 0.79818 0.29055 0.73514 0.0
H486 H 0.8398 0.21188 0.73752 0.0
H487 H 0.84353 0.21747 0.75268 0.0
C488 C 0.9213 0.28698 0.78514 0.0
C489 C 0.93914 0.26436 0.78384 0.0
C490 C 0.89415 0.287 0.78194 0.0
C491 C 0.8841 0.26427 0.77745 0.0
C492 C 0.90188 0.24167 0.77615 0.0
C493 C 0.92906 0.24169 0.77931 0.0
C494 C 0.85527 0.26424 0.77398 0.0
C495 C 0.85152 0.25981 0.76545 0.0
C496 C 0.83168 0.26939 0.77893 0.0
C497 C 0.83389 0.27276 0.78805 0.0
C498 C 0.84657 0.25214 0.79309 0.0
C499 C 0.84869 0.25551 0.80167 0.0
C500 C 0.83802 0.27934 0.80529 0.0
C501 C 0.82514 0.29981 0.80034 0.0
C502 C 0.823 0.29655 0.79176 0.0
C503 C 0.73532 0.24339 0.75553 0.0
C504 C 0.71753 0.26605 0.75683 0.0
C505 C 0.76247 0.24331 0.75873 0.0
C506 C 0.77258 0.26603 0.76321 0.0
C507 C 0.75486 0.28867 0.76451 0.0
C508 C 0.72766 0.2887 0.76136 0.0
C509 C 0.80141 0.266 0.76668 0.0
C510 C 0.80516 0.27042 0.77521 0.0
C511 C 0.825 0.26082 0.76173 0.0
C512 C 0.82279 0.25743 0.75262 0.0
C513 C 0.81013 0.27805 0.74757 0.0
C514 C 0.80802 0.27465 0.73899 0.0
C515 C 0.81867 0.2508 0.73538 0.0
C516 C 0.83152 0.23033 0.74033 0.0
C517 C 0.83366 0.23361 0.74891 0.0
H518 H 0.81703 0.24821 0.72873 0.0
H519 H 0.83967 0.28191 0.81194 0.0
H520 H 0.44662 0.24562 0.76152 0.0
H521 H 0.40485 0.24661 0.7701 0.0
H522 H 0.35871 0.28344 0.74964 0.0
H523 H 0.40056 0.28348 0.74114 0.0
H524 H 0.34607 0.30833 0.76369 0.0
H525 H 0.35265 0.21379 0.75486 0.0
H526 H 0.37545 0.16849 0.75303 0.0
H527 H 0.38446 0.15844 0.77946 0.0
H528 H 0.36205 0.20389 0.78145 0.0
H529 H 0.21008 0.28471 0.77939 0.0
H530 H 0.25192 0.28367 0.77084 0.0
H531 H 0.29785 0.24679 0.79134 0.0
H532 H 0.25593 0.2468 0.79981 0.0
H533 H 0.31065 0.22193 0.77729 0.0
H534 H 0.30404 0.31642 0.78613 0.0
H535 H 0.28129 0.36174 0.78797 0.0
H536 H 0.27236 0.37189 0.76154 0.0
H537 H 0.29474 0.32643 0.75954 0.0
C538 C 0.42767 0.25422 0.75887 0.0
C539 C 0.42697 0.2643 0.7506 0.0
C540 C 0.4037 0.25451 0.76376 0.0
C541 C 0.37846 0.26472 0.76048 0.0
C542 C 0.37785 0.27532 0.7523 0.0
C543 C 0.40179 0.27508 0.74742 0.0
C544 C 0.35264 0.26436 0.76555 0.0
C545 C 0.33814 0.28936 0.76658 0.0
C546 C 0.34255 0.23975 0.76948 0.0
C547 C 0.35593 0.21237 0.7683 0.0
C548 C 0.35969 0.20202 0.76028 0.0
C549 C 0.37251 0.1763 0.75921 0.0
C550 C 0.38146 0.16063 0.76612 0.0
C551 C 0.37755 0.17062 0.77411 0.0
C552 C 0.36477 0.19635 0.77521 0.0
C553 C 0.22899 0.27609 0.78206 0.0
C554 C 0.22961 0.26601 0.79032 0.0
C555 C 0.25301 0.27577 0.77718 0.0
C556 C 0.27821 0.26554 0.78048 0.0
C557 C 0.27874 0.25494 0.78866 0.0
C558 C 0.25476 0.2552 0.79353 0.0
C559 C 0.30407 0.26589 0.77543 0.0
C560 C 0.31858 0.2409 0.77441 0.0
C561 C 0.31418 0.29051 0.77151 0.0
C562 C 0.30081 0.31789 0.77269 0.0
C563 C 0.29703 0.32822 0.78071 0.0
C564 C 0.28424 0.35395 0.78178 0.0
C565 C 0.27532 0.36965 0.77488 0.0
C566 C 0.27925 0.35969 0.76688 0.0
C567 C 0.292 0.33395 0.76578 0.0
H568 H 0.26542 0.38957 0.77572 0.0
H569 H 0.39138 0.14072 0.76528 0.0
H570 H 0.21676 0.80556 0.25338 0.0
H571 H 0.26406 0.80631 0.25904 0.0
H572 H 0.25594 0.72018 0.26666 0.0
H573 H 0.20851 0.7194 0.26108 0.0
H574 H 0.27888 0.74864 0.27871 0.0
H575 H 0.29519 0.74128 0.24946 0.0
H576 H 0.29089 0.75466 0.23465 0.0
H577 H 0.32703 0.83439 0.2396 0.0
H578 H 0.33122 0.82163 0.25447 0.0
H579 H 0.42204 0.72386 0.28751 0.0
H580 H 0.37476 0.72303 0.28183 0.0
H581 H 0.38275 0.80917 0.27421 0.0
H582 H 0.43016 0.81003 0.27981 0.0
H583 H 0.35988 0.78065 0.26216 0.0
H584 H 0.34353 0.788 0.29141 0.0
H585 H 0.34784 0.7746 0.30623 0.0
H586 H 0.31178 0.69484 0.30126 0.0
H587 H 0.30759 0.70763 0.28639 0.0
C588 C 0.22515 0.78669 0.25618 0.0
C589 C 0.20884 0.7624 0.25676 0.0
C590 C 0.25223 0.78714 0.25942 0.0
C591 C 0.26378 0.7632 0.26321 0.0
C592 C 0.24753 0.73893 0.26379 0.0
C593 C 0.22039 0.73853 0.2606 0.0
C594 C 0.29256 0.76359 0.26672 0.0
C595 C 0.29664 0.75527 0.27505 0.0
C596 C 0.31573 0.77289 0.26203 0.0
C597 C 0.31327 0.78059 0.25309 0.0
C598 C 0.30202 0.76174 0.2474 0.0
C599 C 0.29964 0.7692 0.23899 0.0
C600 C 0.30862 0.79538 0.23619 0.0
C601 C 0.32006 0.81414 0.24178 0.0
C602 C 0.32246 0.80679 0.2502 0.0
C603 C 0.41363 0.74272 0.2847 0.0
C604 C 0.42989 0.76703 0.28413 0.0
C605 C 0.38655 0.74222 0.28146 0.0
C606 C 0.37497 0.76614 0.27766 0.0
C607 C 0.39118 0.79043 0.27709 0.0
C608 C 0.41832 0.79089 0.28028 0.0
C609 C 0.3462 0.76571 0.27415 0.0
C610 C 0.34212 0.77402 0.26582 0.0
C611 C 0.32303 0.7564 0.27884 0.0
C612 C 0.3255 0.74869 0.28778 0.0
C613 C 0.33672 0.76753 0.29347 0.0
C614 C 0.3391 0.76005 0.30188 0.0
C615 C 0.33016 0.73386 0.30468 0.0
C616 C 0.31874 0.71511 0.29908 0.0
C617 C 0.31633 0.72247 0.29067 0.0
H618 H 0.33202 0.72811 0.31119 0.0
H619 H 0.30676 0.80112 0.22968 0.0
H620 H 0.56523 0.89679 0.51265 0.0
H621 H 0.56687 0.93842 0.5211 0.0
H622 H 0.57222 0.9898 0.4989 0.0
H623 H 0.57182 0.9483 0.49044 0.0
H624 H 0.60761 1.00777 0.51021 0.0
H625 H 0.51089 0.98251 0.51 0.0
H626 H 0.47056 0.95136 0.51199 0.0
H627 H 0.49087 0.94179 0.53789 0.0
H628 H 0.53155 0.97261 0.53603 0.0
H629 H 0.5775 0.13714 0.52873 0.0
H630 H 0.57567 0.09565 0.52022 0.0
H631 H 0.57027 0.04398 0.54236 0.0
H632 H 0.57087 0.08535 0.55088 0.0
H633 H 0.53483 0.02623 0.53105 0.0
H634 H 0.63162 0.05142 0.53124 0.0
H635 H 0.67195 0.08256 0.52924 0.0
H636 H 0.6515 0.09226 0.50336 0.0
H637 H 0.6108 0.06146 0.50523 0.0
C638 C 0.56702 0.91692 0.50956 0.0
C639 C 0.56824 0.91911 0.50084 0.0
C640 C 0.56765 0.94076 0.5144 0.0
C641 C 0.56927 0.96734 0.51064 0.0
C642 C 0.57083 0.96957 0.50196 0.0
C643 C 0.5703 0.94577 0.49711 0.0
C644 C 0.56959 0.99285 0.51574 0.0
C645 C 0.59148 1.01197 0.51469 0.0
C646 C 0.54891 0.99813 0.52173 0.0
C647 C 0.52442 0.97965 0.52286 0.0
C648 C 0.50688 0.97359 0.51611 0.0
C649 C 0.48393 0.95603 0.51722 0.0
C650 C 0.4782 0.94454 0.52506 0.0
C651 C 0.49536 0.95067 0.53182 0.0
C652 C 0.51835 0.9682 0.53074 0.0
C653 C 0.57565 0.11699 0.53179 0.0
C654 C 0.57449 0.11468 0.54051 0.0
C655 C 0.57491 0.09322 0.52692 0.0
C656 C 0.57324 0.06659 0.53065 0.0
C657 C 0.57171 0.06424 0.53933 0.0
C658 C 0.57234 0.08797 0.5442 0.0
C659 C 0.57285 0.04114 0.52552 0.0
C660 C 0.55095 0.02203 0.52657 0.0
C661 C 0.59352 0.03588 0.51953 0.0
C662 C 0.61801 0.05436 0.51839 0.0
C663 C 0.6356 0.06037 0.52514 0.0
C664 C 0.65854 0.07792 0.52402 0.0
C665 C 0.66424 0.08944 0.51618 0.0
C666 C 0.64704 0.08336 0.50943 0.0
C667 C 0.62404 0.06584 0.51051 0.0
H668 H 0.68202 0.10302 0.51533 0.0
H669 H 0.46043 0.93095 0.5259 0.0
H670 H 0.0292 0.9142 0.03619 0.0
H671 H 0.02922 0.96181 0.03052 0.0
H672 H 0.11723 0.95605 0.02591 0.0
H673 H 0.11745 0.90858 0.0317 0.0
H674 H 0.10322 1.00591 0.03273 0.0
H675 H 0.0717 0.94952 1.0102 0.0
H676 H 0.04167 0.91481 1.00349 0.0
H677 H 0.97004 0.96559 1.00772 0.0
H678 H 0.99961 1.00045 1.01456 0.0
H679 H 0.11801 0.12382 1.00606 0.0
H680 H 0.11769 0.07646 1.01187 0.0
H681 H 0.02844 0.08003 1.01421 0.0
H682 H 0.02863 0.12729 1.00827 0.0
H683 H 0.0427 0.03118 1.00869 0.0
H684 H 0.07324 0.08757 0.03116 0.0
H685 H 0.10249 0.12244 0.0381 0.0
H686 H 0.17478 0.0721 0.03437 0.0
H687 H 0.14601 0.0371 0.02731 0.0
C688 C 0.04861 0.92315 0.03404 0.0
C689 C 0.07331 0.90752 0.03437 0.0
C690 C 0.04855 0.9503 0.03074 0.0
C691 C 0.07317 0.96243 0.0277 0.0
C692 C 0.09796 0.94711 0.02818 0.0
C693 C 0.09801 0.9199 0.03144 0.0
C694 C 0.07305 0.99097 0.02395 0.0
C695 C 0.09025 1.01137 0.02741 0.0
C696 C 0.05561 0.99829 1.01713 0.0
C697 C 0.03783 0.97746 1.01297 0.0
C698 C 0.04951 0.95319 1.00976 0.0
C699 C 0.03259 0.9335 1.00592 0.0
C700 C 1.00396 0.93796 1.0052 0.0
C701 C 0.99222 0.96215 1.00829 0.0
C702 C 1.00905 0.98189 1.01215 0.0
C703 C 0.09833 0.11456 1.00785 0.0
C704 C 0.07336 0.12941 1.00675 0.0
C705 C 0.09816 0.08747 1.01118 0.0
C706 C 0.07308 0.07473 1.01362 0.0
C707 C 0.04807 0.08934 1.01239 0.0
C708 C 0.0482 0.11636 1.00898 0.0
C709 C 0.07292 0.04624 1.01746 0.0
C710 C 0.05566 0.02582 1.01402 0.0
C711 C 0.09018 0.03894 0.02433 0.0
C712 C 0.1075 0.05984 0.02864 0.0
C713 C 0.0954 0.08403 0.03177 0.0
C714 C 0.11189 0.1038 0.03573 0.0
C715 C 0.14049 0.09952 0.03665 0.0
C716 C 0.15264 0.0754 0.03364 0.0
C717 C 0.13624 0.05558 0.02967 0.0
H718 H 0.15322 0.11486 0.03972 0.0
H719 H 0.99089 0.92269 1.00223 0.0
H720 H 0.04091 0.78008 0.18073 0.0
H721 H 0.03583 0.77989 0.16561 0.0
H722 H 0.11685 0.74251 0.16357 0.0
H723 H 0.12198 0.74236 0.17866 0.0
H724 H 0.1114 0.78544 0.15289 0.0
H725 H 0.05756 0.70487 0.16039 0.0
H726 H 0.02102 0.67841 0.16778 0.0
H727 H 0.95841 0.73108 0.15672 0.0
H728 H 0.99464 0.75813 0.14935 0.0
H729 H 0.10554 0.7533 0.11028 0.0
H730 H 0.1075 0.74809 0.1254 0.0
H731 H 0.02719 0.78712 0.1272 0.0
H732 H 0.02474 0.79175 0.11206 0.0
H733 H 0.03181 0.74299 0.13798 0.0
H734 H 0.08556 0.824 0.13073 0.0
H735 H 0.122 0.85059 0.12333 0.0
H736 H 0.18467 0.79716 0.13402 0.0
H737 H 0.14854 0.76997 0.14139 0.0
C738 C 0.05749 0.77146 0.17708 0.0
C739 C 0.08192 0.76134 0.18093 0.0
C740 C 0.05457 0.7714 0.16842 0.0
C741 C 0.07591 0.76106 0.16344 0.0
C742 C 0.10016 0.75072 0.16727 0.0
C743 C 0.1031 0.75076 0.17591 0.0
C744 C 0.07347 0.76188 0.15422 0.0
C745 C 0.09419 0.77578 0.14963 0.0
C746 C 0.05067 0.74992 0.14996 0.0
C747 C 0.02884 0.73371 0.15438 0.0
C748 C 0.03602 0.71097 0.15959 0.0
C749 C 1.01536 0.69583 0.16376 0.0
C750 C 0.98742 0.7031 0.16274 0.0
C751 C 0.98007 0.72549 0.15752 0.0
C752 C 1.00066 0.74072 0.15333 0.0
C753 C 0.08809 0.7604 0.11388 0.0
C754 C 0.06505 0.7731 0.10995 0.0
C755 C 0.08935 0.75762 0.12253 0.0
C756 C 0.06766 0.76756 0.12745 0.0
C757 C 0.04423 0.77941 0.12354 0.0
C758 C 0.04297 0.78225 0.11489 0.0
C759 C 0.06981 0.7664 0.13668 0.0
C760 C 0.04903 0.75255 0.14125 0.0
C761 C 0.09255 0.77842 0.14095 0.0
C762 C 0.11432 0.79478 0.13654 0.0
C763 C 0.1071 0.81778 0.13145 0.0
C764 C 0.1277 0.83298 0.12727 0.0
C765 C 0.15563 0.82552 0.12819 0.0
C766 C 0.16302 0.80288 0.1333 0.0
C767 C 0.1425 0.78758 0.13749 0.0
H768 H 0.17155 0.83733 0.12495 0.0
H769 H 0.97145 0.69135 0.16597 0.0
H770 H 0.61457 0.74789 0.42903 0.0
H771 H 0.61218 0.75235 0.41389 0.0
H772 H 0.52693 0.77932 0.41543 0.0
H773 H 0.52899 0.77431 0.43057 0.0
H774 H 0.53276 0.73975 0.40401 0.0
H775 H 0.57851 0.8252 0.41052 0.0
H776 H 0.61426 0.85496 0.41688 0.0
H777 H 0.67783 0.8139 0.40316 0.0
H778 H 0.64248 0.78361 0.39679 0.0
H779 H 0.51444 0.784 0.36227 0.0
H780 H 0.51924 0.7839 0.37736 0.0
H781 H 0.60361 0.75477 0.37538 0.0
H782 H 0.59888 0.75444 0.36023 0.0
H783 H 0.59881 0.79566 0.38697 0.0
H784 H 0.5532 0.70986 0.38065 0.0
H785 H 0.51748 0.68019 0.37424 0.0
H786 H 0.45371 0.72196 0.38769 0.0
H787 H 0.48905 0.75218 0.3941 0.0
C788 C 0.59531 0.75477 0.42615 0.0
C789 C 0.57195 0.7607 0.43102 0.0
C790 C 0.59404 0.75755 0.41749 0.0
C791 C 0.56943 0.76637 0.41351 0.0
C792 C 0.54617 0.77255 0.41836 0.0
C793 C 0.54744 0.76988 0.42702 0.0
C794 C 0.56756 0.76801 0.40429 0.0
C795 C 0.54695 0.75233 0.4003 0.0
C796 C 0.58655 0.78379 0.39942 0.0
C797 C 0.60787 0.80194 0.40324 0.0
C798 C 0.60014 0.82234 0.40891 0.0
C799 C 0.62032 0.83934 0.41251 0.0
C800 C 0.64831 0.83627 0.41044 0.0
C801 C 0.65615 0.81623 0.40476 0.0
C802 C 0.63605 0.79915 0.40115 0.0
C803 C 0.53398 0.77735 0.36502 0.0
C804 C 0.55617 0.76892 0.36001 0.0
C805 C 0.53672 0.77742 0.37366 0.0
C806 C 0.56166 0.76898 0.37751 0.0
C807 C 0.58416 0.76135 0.37254 0.0
C808 C 0.58143 0.76124 0.36388 0.0
C809 C 0.56393 0.76754 0.38673 0.0
C810 C 0.58462 0.78315 0.3907 0.0
C811 C 0.54504 0.75168 0.39161 0.0
C812 C 0.52375 0.73346 0.38779 0.0
C813 C 0.53154 0.71287 0.38219 0.0
C814 C 0.51136 0.69593 0.37857 0.0
C815 C 0.48333 0.69924 0.38054 0.0
C816 C 0.47543 0.71945 0.38616 0.0
C817 C 0.49552 0.73647 0.3898 0.0
H818 H 0.46774 0.68609 0.37773 0.0
H819 H 0.6639 0.84946 0.41323 0.0
H820 H 0.5441 0.24548 0.61065 0.0
H821 H 0.54552 0.23931 0.62578 0.0
H822 H 0.61434 0.29678 0.6271 0.0
H823 H 0.61358 0.3024 0.612 0.0
H824 H 0.62305 0.2525 0.63712 0.0
H825 H 0.54754 0.31648 0.63163 0.0
H826 H 0.50318 0.33149 0.62523 0.0
H827 H 0.46121 0.2624 0.63695 0.0
H828 H 0.50542 0.24677 0.64334 0.0
H829 H 0.62374 0.29277 0.67875 0.0
H830 H 0.61898 0.29236 0.66366 0.0
H831 H 0.55148 0.2335 0.66583 0.0
H832 H 0.55624 0.23366 0.681 0.0
H833 H 0.54035 0.27369 0.65411 0.0
H834 H 0.615 0.2114 0.66036 0.0
H835 H 0.65917 0.19637 0.66686 0.0
H836 H 0.70265 0.26151 0.6537 0.0
H837 H 0.65865 0.2772 0.64721 0.0
C838 C 0.55973 0.25656 0.61416 0.0
C839 C 0.57861 0.27459 0.61011 0.0
C840 C 0.56036 0.25321 0.62282 0.0
C841 C 0.57982 0.26786 0.6276 0.0
C842 C 0.59906 0.28534 0.62355 0.0
C843 C 0.59844 0.28872 0.61492 0.0
C844 C 0.58017 0.26529 0.63683 0.0
C845 C 0.60503 0.25738 0.64083 0.0
C846 C 0.55643 0.27083 0.64169 0.0
C847 C 0.52984 0.28029 0.63788 0.0
C848 C 0.52889 0.30437 0.63279 0.0
C849 C 0.50377 0.31301 0.62917 0.0
C850 C 0.47941 0.29786 0.63066 0.0
C851 C 0.4801 0.27409 0.63579 0.0
C852 C 0.50518 0.26534 0.63941 0.0
C853 C 0.60799 0.27956 0.67603 0.0
C854 C 0.59059 0.26299 0.6811 0.0
C855 C 0.60525 0.2794 0.6674 0.0
C856 C 0.58518 0.26254 0.6636 0.0
C857 C 0.56718 0.2466 0.66862 0.0
C858 C 0.56988 0.24678 0.67729 0.0
C859 C 0.58341 0.26145 0.65438 0.0
C860 C 0.5583 0.26859 0.65039 0.0
C861 C 0.6069 0.25514 0.64952 0.0
C862 C 0.63347 0.24561 0.65335 0.0
C863 C 0.63395 0.22264 0.6589 0.0
C864 C 0.65896 0.21398 0.66257 0.0
C865 C 0.68369 0.22801 0.66071 0.0
C866 C 0.68347 0.25068 0.65514 0.0
C867 C 0.6585 0.25944 0.65145 0.0
H868 H 0.70304 0.22128 0.66356 0.0
H869 H 0.45998 0.30459 0.62785 0.0
H870 H 0.10148 0.29321 0.93037 0.0
H871 H 0.10204 0.29785 0.91519 0.0
H872 H 0.04429 0.22944 0.91342 0.0
H873 H 0.04345 0.22483 0.92853 0.0
H874 H 0.08703 0.22328 0.903 0.0
H875 H 0.02391 0.29707 0.90998 0.0
H876 H 1.0098 0.33993 0.91695 0.0
H877 H 0.07636 0.38482 0.90508 0.0
H878 H 0.09109 0.34212 0.89812 0.0
H879 H 0.03771 0.23285 0.86184 0.0
H880 H 0.04286 0.23268 0.87692 0.0
H881 H 0.09984 0.30189 0.87504 0.0
H882 H 0.09416 0.30269 0.85989 0.0
H883 H 0.06252 0.30955 0.88724 0.0
H884 H 0.12396 0.23716 0.87955 0.0
H885 H 0.13866 0.19461 0.87253 0.0
H886 H 0.07669 0.14735 0.88576 0.0
H887 H 0.06134 0.1897 0.89277 0.0
C888 C 0.08862 0.2794 0.92675 0.0
C889 C 0.07254 0.25854 0.93068 0.0
C890 C 0.089 0.28204 0.91807 0.0
C891 C 0.07316 0.26402 0.91315 0.0
C892 C 0.05684 0.24346 0.91707 0.0
C893 C 0.05645 0.2408 0.92572 0.0
C894 C 0.07398 0.26589 0.90392 0.0
C895 C 0.08139 0.24207 0.89956 0.0
C896 C 0.06761 0.29068 0.89941 0.0
C897 C 0.05879 0.31633 0.90361 0.0
C898 C 0.03569 0.31603 0.90891 0.0
C899 C 0.02755 0.3403 0.91285 0.0
C900 C 0.04223 0.36506 0.91148 0.0
C901 C 0.06504 0.36561 0.90615 0.0
C902 C 0.07328 0.34139 0.9022 0.0
C903 C 0.05123 0.24817 0.86462 0.0
C904 C 0.06547 0.26783 0.85964 0.0
C905 C 0.05437 0.24787 0.87325 0.0
C906 C 0.07198 0.26708 0.87712 0.0
C907 C 0.08622 0.28679 0.87219 0.0
C908 C 0.08312 0.28708 0.86353 0.0
C909 C 0.07495 0.26674 0.88633 0.0
C910 C 0.06837 0.29082 0.89069 0.0
C911 C 0.0822 0.24222 0.89084 0.0
C912 C 0.09135 0.21667 0.88663 0.0
C913 C 0.11331 0.21774 0.88091 0.0
C914 C 0.12179 0.19365 0.87694 0.0
C915 C 0.10858 0.1683 0.87868 0.0
C916 C 0.08689 0.167 0.88441 0.0
C917 C 0.07831 0.19104 0.88839 0.0
H918 H 0.11518 0.14967 0.87561 0.0
H919 H 0.03588 0.38383 0.91453 0.0
loop_
_geom_bond_atom_site_label_1
_geom_bond_atom_site_label_2
_geom_bond_distance
_geom_bond_site_symmetry_2
_ccdc_geom_bond_type
C0 C1 1.264 . S
C0 C5 1.479 . S
C0 C10 1.465 . S
C1 C0 1.264 . S
C1 C3 1.339 . S
C1 H28 0.931 . S
C2 C3 1.395 . S
C2 C4 1.320 . S
C3 C1 1.339 . S
C3 C2 1.395 . S
C3 H29 0.929 . S
C4 C2 1.320 . S
C4 C5 1.405 . S
C4 H30 0.930 . S
C5 C0 1.479 . S
C5 C4 1.405 . S
C5 H31 0.931 . S
U6 O7 2.454 . S
U6 O8 2.458 . S
U6 C9 2.984 . S
U6 C10 2.847 . S
U6 C23 2.882 . S
U6 O24 2.441 . S
U6 O25 2.420 . S
U6 O26 2.455 . S
U6 O27 2.449 . S
O7 U6 2.454 . S
O7 C9 1.353 . S
O8 U6 2.458 . S
O8 C9 1.286 . S
C9 U6 2.984 . S
C9 O7 1.353 . S
C9 O8 1.286 . S
C9 C11 1.363 . S
C10 C0 1.465 . S
C10 U6 2.847 . S
C10 O24 1.249 . S
C10 O25 1.202 . S
C11 C9 1.363 . S
C11 C13 1.408 . S
C11 C16 1.342 . S
C12 C13 1.310 . S
C12 C15 1.461 . S
C12 H32 0.932 . S
C13 C11 1.408 . S
C13 C12 1.310 . S
C13 H33 0.930 . S
C14 C15 1.474 . S
C14 C16 1.285 . S
C14 H34 0.929 . S
C15 C12 1.461 . S
C15 C14 1.474 . S
C16 C11 1.342 . S
C16 C14 1.285 . S
C16 H35 0.930 . S
C17 C20 1.424 . S
C17 C22 1.245 . S
C17 C23 1.428 . S
C18 C21 1.260 . S
C18 C22 1.477 . S
C18 H36 0.932 . S
C19 C20 1.384 . S
C19 C21 1.479 . S
C19 H37 0.929 . S
C20 C17 1.424 . S
C20 C19 1.384 . S
C20 H38 0.928 . S
C21 C18 1.260 . S
C21 C19 1.479 . S
C22 C17 1.245 . S
C22 C18 1.477 . S
C22 H39 0.932 . S
C23 U6 2.882 . S
C23 C17 1.428 . S
C23 O26 1.301 . S
C23 O27 1.282 . S
O24 U6 2.441 . S
O24 C10 1.249 . S
O25 U6 2.420 . S
O25 C10 1.202 . S
O26 U6 2.455 . S
O26 C23 1.301 . S
O27 U6 2.449 . S
O27 C23 1.282 . S
H28 C1 0.931 . S
H29 C3 0.929 . S
H30 C4 0.930 . S
H31 C5 0.931 . S
H32 C12 0.932 . S
H33 C13 0.930 . S
H34 C14 0.929 . S
H35 C16 0.930 . S
H36 C18 0.932 . S
H37 C19 0.929 . S
H38 C20 0.928 . S
H39 C22 0.932 . S
C40 C41 1.264 . S
C40 C45 1.479 . S
C40 C50 1.465 . S
C41 C40 1.264 . S
C41 C43 1.339 . S
C41 H68 0.931 . S
C42 C43 1.395 . S
C42 C44 1.320 . S
C43 C41 1.339 . S
C43 C42 1.395 . S
C43 H69 0.929 . S
C44 C42 1.320 . S
C44 C45 1.405 . S
C44 H70 0.930 . S
C45 C40 1.479 . S
C45 C44 1.405 . S
C45 H71 0.931 . S
U46 O47 2.454 . S
U46 O48 2.458 . S
U46 C49 2.984 . S
U46 C50 2.847 . S
U46 C63 2.882 . S
U46 O64 2.441 . S
U46 O65 2.420 . S
U46 O66 2.455 . S
U46 O67 2.449 . S
O47 U46 2.454 . S
O47 C49 1.353 . S
O48 U46 2.458 . S
O48 C49 1.286 . S
C49 U46 2.984 . S
C49 O47 1.353 . S
C49 O48 1.286 . S
C49 C51 1.363 . S
C50 C40 1.465 . S
C50 U46 2.847 . S
C50 O64 1.249 . S
C50 O65 1.202 . S
C51 C49 1.363 . S
C51 C53 1.408 . S
C51 C56 1.342 . S
C52 C53 1.310 . S
C52 C55 1.461 . S
C52 H72 0.932 . S
C53 C51 1.408 . S
C53 C52 1.310 . S
C53 H73 0.930 . S
C54 C55 1.474 . S
C54 C56 1.285 . S
C54 H74 0.929 . S
C55 C52 1.461 . S
C55 C54 1.474 . S
C56 C51 1.342 . S
C56 C54 1.285 . S
C56 H75 0.930 . S
C57 C60 1.424 . S
C57 C62 1.245 . S
C57 C63 1.428 . S
C58 C61 1.260 . S
C58 C62 1.477 . S
C58 H76 0.932 . S
C59 C60 1.384 . S
C59 C61 1.479 . S
C59 H77 0.929 . S
C60 C57 1.424 . S
C60 C59 1.384 . S
C60 H78 0.928 . S
C61 C58 1.260 . S
C61 C59 1.479 . S
C62 C57 1.245 . S
C62 C58 1.477 . S
C62 H79 0.932 . S
C63 U46 2.882 . S
C63 C57 1.428 . S
C63 O66 1.301 . S
C63 O67 1.282 . S
O64 U46 2.441 . S
O64 C50 1.249 . S
O65 U46 2.420 . S
O65 C50 1.202 . S
O66 U46 2.455 . S
O66 C63 1.301 . S
O67 U46 2.449 . S
O67 C63 1.282 . S
H68 C41 0.931 . S
H69 C43 0.929 . S
H70 C44 0.930 . S
H71 C45 0.931 . S
H72 C52 0.932 . S
H73 C53 0.930 . S
H74 C54 0.929 . S
H75 C56 0.930 . S
H76 C58 0.932 . S
H77 C59 0.929 . S
H78 C60 0.928 . S
H79 C62 0.932 . S
C80 C81 1.264 . S
C80 C85 1.479 . S
C80 C90 1.465 . S
C81 C80 1.264 . S
C81 C83 1.339 . S
C81 H108 0.931 . S
C82 C83 1.395 . S
C82 C84 1.320 . S
C83 C81 1.339 . S
C83 C82 1.395 . S
C83 H109 0.929 . S
C84 C82 1.320 . S
C84 C85 1.405 . S
C84 H110 0.930 . S
C85 C80 1.479 . S
C85 C84 1.405 . S
C85 H111 0.931 . S
U86 O87 2.454 . S
U86 O88 2.458 . S
U86 C89 2.984 . S
U86 C90 2.847 . S
U86 C103 2.882 . S
U86 O104 2.441 . S
U86 O105 2.420 . S
U86 O106 2.455 . S
U86 O107 2.449 . S
O87 U86 2.454 . S
O87 C89 1.353 . S
O88 U86 2.458 . S
O88 C89 1.286 . S
C89 U86 2.984 . S
C89 O87 1.353 . S
C89 O88 1.286 . S
C89 C91 1.363 . S
C90 C80 1.465 . S
C90 U86 2.847 . S
C90 O104 1.249 . S
C90 O105 1.202 . S
C91 C89 1.363 . S
C91 C93 1.408 . S
C91 C96 1.342 . S
C92 C93 1.310 . S
C92 C95 1.461 . S
C92 H112 0.932 . S
C93 C91 1.408 . S
C93 C92 1.310 . S
C93 H113 0.930 . S
C94 C95 1.474 . S
C94 C96 1.285 . S
C94 H114 0.929 . S
C95 C92 1.461 . S
C95 C94 1.474 . S
C96 C91 1.342 . S
C96 C94 1.285 . S
C96 H115 0.930 . S
C97 C100 1.424 . S
C97 C102 1.245 . S
C97 C103 1.428 . S
C98 C101 1.260 . S
C98 C102 1.477 . S
C98 H116 0.932 . S
C99 C100 1.384 . S
C99 C101 1.479 . S
C99 H117 0.929 . S
C100 C97 1.424 . S
C100 C99 1.384 . S
C100 H118 0.928 . S
C101 C98 1.260 . S
C101 C99 1.479 . S
C102 C97 1.245 . S
C102 C98 1.477 . S
C102 H119 0.932 . S
C103 U86 2.882 . S
C103 C97 1.428 . S
C103 O106 1.301 . S
C103 O107 1.282 . S
O104 U86 2.441 . S
O104 C90 1.249 . S
O105 U86 2.420 . S
O105 C90 1.202 . S
O106 U86 2.455 . S
O106 C103 1.301 . S
O107 U86 2.449 . S
O107 C103 1.282 . S
H108 C81 0.931 . S
H109 C83 0.929 . S
H110 C84 0.930 . S
H111 C85 0.931 . S
H112 C92 0.932 . S
H113 C93 0.930 . S
H114 C94 0.929 . S
H115 C96 0.930 . S
H116 C98 0.932 . S
H117 C99 0.929 . S
H118 C100 0.928 . S
H119 C102 0.932 . S
C120 C121 1.264 . S
C120 C125 1.479 . S
C120 C130 1.465 1_655 S
C121 C120 1.264 . S
C121 C123 1.339 . S
C121 H148 0.931 . S
C122 C123 1.395 . S
C122 C124 1.320 . S
C123 C121 1.339 . S
C123 C122 1.395 . S
C123 H149 0.929 . S
C124 C122 1.320 . S
C124 C125 1.405 . S
C124 H150 0.930 . S
C125 C120 1.479 . S
C125 C124 1.405 . S
C125 H151 0.931 . S
U126 O127 2.454 . S
U126 O128 2.458 . S
U126 C129 2.984 . S
U126 C130 2.847 . S
U126 C143 2.882 . S
U126 O144 2.441 . S
U126 O145 2.420 . S
U126 O146 2.455 . S
U126 O147 2.449 . S
O127 U126 2.454 . S
O127 C129 1.353 . S
O128 U126 2.458 . S
O128 C129 1.286 . S
C129 U126 2.984 . S
C129 O127 1.353 . S
C129 O128 1.286 . S
C129 C131 1.363 . S
C130 C120 1.465 1_455 S
C130 U126 2.847 . S
C130 O144 1.249 . S
C130 O145 1.202 . S
C131 C129 1.363 . S
C131 C133 1.408 . S
C131 C136 1.342 . S
C132 C133 1.310 . S
C132 C135 1.461 . S
C132 H152 0.932 . S
C133 C131 1.408 . S
C133 C132 1.310 . S
C133 H153 0.930 . S
C134 C135 1.474 . S
C134 C136 1.285 . S
C134 H154 0.929 . S
C135 C132 1.461 . S
C135 C134 1.474 . S
C136 C131 1.342 . S
C136 C134 1.285 . S
C136 H155 0.930 . S
C137 C140 1.424 . S
C137 C142 1.245 . S
C137 C143 1.428 . S
C138 C141 1.260 . S
C138 C142 1.477 . S
C138 H156 0.932 . S
C139 C140 1.384 . S
C139 C141 1.479 . S
C139 H157 0.929 . S
C140 C137 1.424 . S
C140 C139 1.384 . S
C140 H158 0.928 . S
C141 C138 1.260 . S
C141 C139 1.479 . S
C142 C137 1.245 . S
C142 C138 1.477 . S
C142 H159 0.932 . S
C143 U126 2.882 . S
C143 C137 1.428 . S
C143 O146 1.301 . S
C143 O147 1.282 . S
O144 U126 2.441 . S
O144 C130 1.249 . S
O145 U126 2.420 . S
O145 C130 1.202 . S
O146 U126 2.455 . S
O146 C143 1.301 . S
O147 U126 2.449 . S
O147 C143 1.282 . S
H148 C121 0.931 . S
H149 C123 0.929 . S
H150 C124 0.930 . S
H151 C125 0.931 . S
H152 C132 0.932 . S
H153 C133 0.930 . S
H154 C134 0.929 . S
H155 C136 0.930 . S
H156 C138 0.932 . S
H157 C139 0.929 . S
H158 C140 0.928 . S
H159 C142 0.932 . S
C160 C161 1.264 . S
C160 C165 1.479 . S
C160 C170 1.465 . S
C161 C160 1.264 . S
C161 C163 1.339 . S
C161 H188 0.931 . S
C162 C163 1.395 . S
C162 C164 1.320 . S
C163 C161 1.339 . S
C163 C162 1.395 . S
C163 H189 0.929 . S
C164 C162 1.320 . S
C164 C165 1.405 . S
C164 H190 0.930 . S
C165 C160 1.479 . S
C165 C164 1.405 . S
C165 H191 0.931 . S
U166 O167 2.454 . S
U166 O168 2.458 . S
U166 C169 2.984 . S
U166 C170 2.847 . S
U166 C183 2.882 . S
U166 O184 2.441 . S
U166 O185 2.420 . S
U166 O186 2.455 . S
U166 O187 2.449 . S
O167 U166 2.454 . S
O167 C169 1.353 . S
O168 U166 2.458 . S
O168 C169 1.286 . S
C169 U166 2.984 . S
C169 O167 1.353 . S
C169 O168 1.286 . S
C169 C171 1.363 . S
C170 C160 1.465 . S
C170 U166 2.847 . S
C170 O184 1.249 . S
C170 O185 1.202 . S
C171 C169 1.363 . S
C171 C173 1.408 . S
C171 C176 1.342 . S
C172 C173 1.310 . S
C172 C175 1.461 . S
C172 H192 0.932 . S
C173 C171 1.408 . S
C173 C172 1.310 . S
C173 H193 0.930 . S
C174 C175 1.474 . S
C174 C176 1.285 . S
C174 H194 0.929 . S
C175 C172 1.461 . S
C175 C174 1.474 . S
C176 C171 1.342 . S
C176 C174 1.285 . S
C176 H195 0.930 . S
C177 C180 1.424 . S
C177 C182 1.245 . S
C177 C183 1.428 . S
C178 C181 1.260 . S
C178 C182 1.477 . S
C178 H196 0.932 . S
C179 C180 1.384 . S
C179 C181 1.479 . S
C179 H197 0.929 . S
C180 C177 1.424 . S
C180 C179 1.384 . S
C180 H198 0.928 . S
C181 C178 1.260 . S
C181 C179 1.479 . S
C182 C177 1.245 . S
C182 C178 1.477 . S
C182 H199 0.932 . S
C183 U166 2.882 . S
C183 C177 1.428 . S
C183 O186 1.301 . S
C183 O187 1.282 . S
O184 U166 2.441 . S
O184 C170 1.249 . S
O185 U166 2.420 . S
O185 C170 1.202 . S
O186 U166 2.455 . S
O186 C183 1.301 . S
O187 U166 2.449 . S
O187 C183 1.282 . S
H188 C161 0.931 . S
H189 C163 0.929 . S
H190 C164 0.930 . S
H191 C165 0.931 . S
H192 C172 0.932 . S
H193 C173 0.930 . S
H194 C174 0.929 . S
H195 C176 0.930 . S
H196 C178 0.932 . S
H197 C179 0.929 . S
H198 C180 0.928 . S
H199 C182 0.932 . S
C200 C201 1.264 . S
C200 C205 1.479 . S
C200 C210 1.465 . S
C201 C200 1.264 . S
C201 C203 1.339 . S
C201 H228 0.931 . S
C202 C203 1.395 . S
C202 C204 1.320 . S
C203 C201 1.339 . S
C203 C202 1.395 . S
C203 H229 0.929 . S
C204 C202 1.320 . S
C204 C205 1.405 . S
C204 H230 0.930 . S
C205 C200 1.479 . S
C205 C204 1.405 . S
C205 H231 0.931 . S
U206 O207 2.454 . S
U206 O208 2.458 . S
U206 C209 2.984 1_455 S
U206 C210 2.847 . S
U206 C223 2.882 . S
U206 O224 2.441 . S
U206 O225 2.420 . S
U206 O226 2.455 . S
U206 O227 2.449 . S
O207 U206 2.454 . S
O207 C209 1.353 1_455 S
O208 U206 2.458 . S
O208 C209 1.286 1_455 S
C209 U206 2.984 1_655 S
C209 O207 1.353 1_655 S
C209 O208 1.286 1_655 S
C209 C211 1.363 . S
C210 C200 1.465 . S
C210 U206 2.847 . S
C210 O224 1.249 . S
C210 O225 1.202 . S
C211 C209 1.363 . S
C211 C213 1.408 . S
C211 C216 1.342 . S
C212 C213 1.310 . S
C212 C215 1.461 . S
C212 H232 0.932 . S
C213 C211 1.408 . S
C213 C212 1.310 . S
C213 H233 0.930 . S
C214 C215 1.474 . S
C214 C216 1.285 . S
C214 H234 0.929 . S
C215 C212 1.461 . S
C215 C214 1.474 . S
C216 C211 1.342 . S
C216 C214 1.285 . S
C216 H235 0.930 . S
C217 C220 1.424 . S
C217 C222 1.245 . S
C217 C223 1.428 . S
C218 C221 1.260 . S
C218 C222 1.477 . S
C218 H236 0.932 . S
C219 C220 1.384 . S
C219 C221 1.479 . S
C219 H237 0.929 . S
C220 C217 1.424 . S
C220 C219 1.384 . S
C220 H238 0.928 . S
C221 C218 1.260 . S
C221 C219 1.479 . S
C222 C217 1.245 . S
C222 C218 1.477 . S
C222 H239 0.932 . S
C223 U206 2.882 . S
C223 C217 1.428 . S
C223 O226 1.301 . S
C223 O227 1.282 . S
O224 U206 2.441 . S
O224 C210 1.249 . S
O225 U206 2.420 . S
O225 C210 1.202 . S
O226 U206 2.455 . S
O226 C223 1.301 . S
O227 U206 2.449 . S
O227 C223 1.282 . S
H228 C201 0.931 . S
H229 C203 0.929 . S
H230 C204 0.930 . S
H231 C205 0.931 . S
H232 C212 0.932 . S
H233 C213 0.930 . S
H234 C214 0.929 . S
H235 C216 0.930 . S
H236 C218 0.932 . S
H237 C219 0.929 . S
H238 C220 0.928 . S
H239 C222 0.932 . S
C240 C241 1.264 . S
C240 C245 1.479 . S
C240 C250 1.465 . S
C241 C240 1.264 . S
C241 C243 1.339 . S
C241 H268 0.931 . S
C242 C243 1.395 . S
C242 C244 1.320 . S
C243 C241 1.339 . S
C243 C242 1.395 . S
C243 H269 0.929 . S
C244 C242 1.320 . S
C244 C245 1.405 . S
C244 H270 0.930 . S
C245 C240 1.479 . S
C245 C244 1.405 . S
C245 H271 0.931 . S
U246 O247 2.454 . S
U246 O248 2.458 . S
U246 C249 2.984 . S
U246 C250 2.847 . S
U246 C263 2.882 . S
U246 O264 2.441 . S
U246 O265 2.420 . S
U246 O266 2.455 . S
U246 O267 2.449 . S
O247 U246 2.454 . S
O247 C249 1.353 . S
O248 U246 2.458 . S
O248 C249 1.286 . S
C249 U246 2.984 . S
C249 O247 1.353 . S
C249 O248 1.286 . S
C249 C251 1.363 . S
C250 C240 1.465 . S
C250 U246 2.847 . S
C250 O264 1.249 . S
C250 O265 1.202 . S
C251 C249 1.363 . S
C251 C253 1.408 . S
C251 C256 1.342 . S
C252 C253 1.310 . S
C252 C255 1.461 . S
C252 H272 0.932 . S
C253 C251 1.408 . S
C253 C252 1.310 . S
C253 H273 0.930 . S
C254 C255 1.474 . S
C254 C256 1.285 . S
C254 H274 0.929 . S
C255 C252 1.461 . S
C255 C254 1.474 . S
C256 C251 1.342 . S
C256 C254 1.285 . S
C256 H275 0.930 . S
C257 C260 1.424 . S
C257 C262 1.245 . S
C257 C263 1.428 . S
C258 C261 1.260 . S
C258 C262 1.477 . S
C258 H276 0.932 . S
C259 C260 1.384 . S
C259 C261 1.479 . S
C259 H277 0.929 . S
C260 C257 1.424 . S
C260 C259 1.384 . S
C260 H278 0.928 . S
C261 C258 1.260 . S
C261 C259 1.479 . S
C262 C257 1.245 . S
C262 C258 1.477 . S
C262 H279 0.932 . S
C263 U246 2.882 . S
C263 C257 1.428 . S
C263 O266 1.301 . S
C263 O267 1.282 . S
O264 U246 2.441 . S
O264 C250 1.249 . S
O265 U246 2.420 . S
O265 C250 1.202 . S
O266 U246 2.455 . S
O266 C263 1.301 . S
O267 U246 2.449 . S
O267 C263 1.282 . S
H268 C241 0.931 . S
H269 C243 0.929 . S
H270 C244 0.930 . S
H271 C245 0.931 . S
H272 C252 0.932 . S
H273 C253 0.930 . S
H274 C254 0.929 . S
H275 C256 0.930 . S
H276 C258 0.932 . S
H277 C259 0.929 . S
H278 C260 0.928 . S
H279 C262 0.932 . S
C280 C281 1.264 . S
C280 C285 1.479 . S
C280 C290 1.465 . S
C281 C280 1.264 . S
C281 C283 1.339 . S
C281 H308 0.931 . S
C282 C283 1.395 . S
C282 C284 1.320 . S
C283 C281 1.339 . S
C283 C282 1.395 . S
C283 H309 0.929 . S
C284 C282 1.320 . S
C284 C285 1.405 . S
C284 H310 0.930 . S
C285 C280 1.479 . S
C285 C284 1.405 . S
C285 H311 0.931 . S
U286 O287 2.454 . S
U286 O288 2.458 . S
U286 C289 2.984 . S
U286 C290 2.847 . S
U286 C303 2.882 . S
U286 O304 2.441 . S
U286 O305 2.420 . S
U286 O306 2.455 . S
U286 O307 2.449 . S
O287 U286 2.454 . S
O287 C289 1.353 . S
O288 U286 2.458 . S
O288 C289 1.286 . S
C289 U286 2.984 . S
C289 O287 1.353 . S
C289 O288 1.286 . S
C289 C291 1.363 . S
C290 C280 1.465 . S
C290 U286 2.847 . S
C290 O304 1.249 . S
C290 O305 1.202 . S
C291 C289 1.363 . S
C291 C293 1.408 . S
C291 C296 1.342 . S
C292 C293 1.310 . S
C292 C295 1.461 . S
C292 H312 0.932 . S
C293 C291 1.408 . S
C293 C292 1.310 . S
C293 H313 0.930 . S
C294 C295 1.474 . S
C294 C296 1.285 . S
C294 H314 0.929 . S
C295 C292 1.461 . S
C295 C294 1.474 . S
C296 C291 1.342 . S
C296 C294 1.285 . S
C296 H315 0.930 . S
C297 C300 1.424 . S
C297 C302 1.245 . S
C297 C303 1.428 . S
C298 C301 1.260 . S
C298 C302 1.477 . S
C298 H316 0.932 . S
C299 C300 1.384 . S
C299 C301 1.479 . S
C299 H317 0.929 . S
C300 C297 1.424 . S
C300 C299 1.384 . S
C300 H318 0.928 . S
C301 C298 1.260 . S
C301 C299 1.479 . S
C302 C297 1.245 . S
C302 C298 1.477 . S
C302 H319 0.932 . S
C303 U286 2.882 . S
C303 C297 1.428 . S
C303 O306 1.301 . S
C303 O307 1.282 . S
O304 U286 2.441 . S
O304 C290 1.249 . S
O305 U286 2.420 . S
O305 C290 1.202 . S
O306 U286 2.455 . S
O306 C303 1.301 . S
O307 U286 2.449 . S
O307 C303 1.282 . S
H308 C281 0.931 . S
H309 C283 0.929 . S
H310 C284 0.930 . S
H311 C285 0.931 . S
H312 C292 0.932 . S
H313 C293 0.930 . S
H314 C294 0.929 . S
H315 C296 0.930 . S
H316 C298 0.932 . S
H317 C299 0.929 . S
H318 C300 0.928 . S
H319 C302 0.932 . S
H320 C338 0.951 . S
H321 C340 0.951 . S
H322 C342 0.909 1_554 S
H323 C343 0.950 . S
H324 C345 0.950 . S
H325 C348 0.950 . S
H326 C349 0.950 . S
H327 C351 0.950 . S
H328 C352 0.950 . S
H329 C353 0.951 . S
H330 C355 0.951 . S
H331 C357 0.908 1_556 S
H332 C358 0.950 . S
H333 C360 0.950 . S
H334 C363 0.950 . S
H335 C364 0.950 . S
H336 C366 0.950 . S
H337 C367 0.950 . S
C338 H320 0.951 . S
C338 C339 1.366 . S
C338 C340 1.388 . S
C339 C338 1.366 . S
C339 C343 1.385 . S
C340 H321 0.951 . S
C340 C338 1.388 . S
C340 C341 1.366 . S
C341 C340 1.366 . S
C341 C342 1.414 . S
C341 C344 1.499 . S
C342 H322 0.909 1_556 S
C342 C341 1.414 . S
C342 C343 1.374 . S
C343 H323 0.950 . S
C343 C339 1.385 . S
C343 C342 1.374 . S
C344 C341 1.499 . S
C344 C345 1.373 1_556 S
C344 C346 1.389 . S
C345 H324 0.950 . S
C345 C344 1.373 1_554 S
C345 C361 1.377 . S
C346 C344 1.389 . S
C346 C347 1.524 . S
C346 C360 1.377 . S
C347 C346 1.524 . S
C347 C348 1.397 . S
C347 C352 1.363 . S
C348 H325 0.950 . S
C348 C347 1.397 . S
C348 C349 1.334 . S
C349 H326 0.950 . S
C349 C348 1.334 . S
C349 C350 1.287 . S
C350 C349 1.287 . S
C350 C351 1.524 . S
C350 H369 0.913 . S
C351 H327 0.950 . S
C351 C350 1.524 . S
C351 C352 1.415 . S
C352 H328 0.950 . S
C352 C347 1.363 . S
C352 C351 1.415 . S
C353 H329 0.951 . S
C353 C354 1.366 . S
C353 C355 1.388 . S
C354 C353 1.366 . S
C354 C358 1.385 . S
C355 H330 0.951 . S
C355 C353 1.388 . S
C355 C356 1.366 . S
C356 C355 1.366 . S
C356 C357 1.414 . S
C356 C359 1.499 . S
C357 H331 0.908 1_554 S
C357 C356 1.414 . S
C357 C358 1.374 . S
C358 H332 0.950 . S
C358 C354 1.385 . S
C358 C357 1.374 . S
C359 C356 1.499 . S
C359 C360 1.373 1_554 S
C359 C361 1.389 . S
C360 H333 0.950 . S
C360 C346 1.377 . S
C360 C359 1.373 1_556 S
C361 C345 1.377 . S
C361 C359 1.389 . S
C361 C362 1.524 . S
C362 C361 1.524 . S
C362 C363 1.397 . S
C362 C367 1.363 . S
C363 H334 0.950 . S
C363 C362 1.397 . S
C363 C364 1.334 1_455 S
C364 H335 0.950 . S
C364 C363 1.334 1_655 S
C364 C365 1.287 1_655 S
C365 C364 1.287 1_455 S
C365 C366 1.524 . S
C365 H368 0.999 1_455 S
C366 H336 0.950 . S
C366 C365 1.524 . S
C366 C367 1.415 . S
C367 H337 0.950 . S
C367 C362 1.363 . S
C367 C366 1.415 . S
H368 C365 0.999 1_655 S
H369 C350 0.913 . S
H370 C388 0.951 . S
H371 C390 0.951 . S
H372 C392 0.950 . S
H373 C393 0.950 . S
H374 C395 0.950 . S
H375 C398 0.950 . S
H376 C399 0.950 . S
H377 C401 0.950 . S
H378 C402 0.950 . S
H379 C403 0.951 . S
H380 C405 0.951 . S
H381 C407 0.950 . S
H382 C408 0.950 . S
H383 C410 0.950 . S
H384 C413 0.950 . S
H385 C414 0.950 . S
H386 C416 0.950 . S
H387 C417 0.950 . S
C388 H370 0.951 . S
C388 C389 1.366 . S
C388 C390 1.388 . S
C389 C388 1.366 . S
C389 C393 1.385 . S
C390 H371 0.951 . S
C390 C388 1.388 . S
C390 C391 1.366 . S
C391 C390 1.366 . S
C391 C392 1.414 . S
C391 C394 1.499 . S
C392 H372 0.950 . S
C392 C391 1.414 . S
C392 C393 1.374 . S
C393 H373 0.950 . S
C393 C389 1.385 . S
C393 C392 1.374 . S
C394 C391 1.499 . S
C394 C395 1.373 . S
C394 C396 1.389 . S
C395 H374 0.950 . S
C395 C394 1.373 . S
C395 C411 1.377 . S
C396 C394 1.389 . S
C396 C397 1.524 . S
C396 C410 1.377 . S
C397 C396 1.524 . S
C397 C398 1.397 . S
C397 C402 1.363 . S
C398 H375 0.950 . S
C398 C397 1.397 . S
C398 C399 1.334 . S
C399 H376 0.950 . S
C399 C398 1.334 . S
C399 C400 1.287 . S
C400 C399 1.287 . S
C400 C401 1.524 . S
C400 H419 0.913 . S
C401 H377 0.950 . S
C401 C400 1.524 . S
C401 C402 1.415 . S
C402 H378 0.950 . S
C402 C397 1.363 . S
C402 C401 1.415 . S
C403 H379 0.951 . S
C403 C404 1.366 . S
C403 C405 1.388 . S
C404 C403 1.366 . S
C404 C408 1.385 . S
C405 H380 0.951 . S
C405 C403 1.388 . S
C405 C406 1.366 . S
C406 C405 1.366 . S
C406 C407 1.414 . S
C406 C409 1.499 . S
C407 H381 0.950 . S
C407 C406 1.414 . S
C407 C408 1.374 . S
C408 H382 0.950 . S
C408 C404 1.385 . S
C408 C407 1.374 . S
C409 C406 1.499 . S
C409 C410 1.373 . S
C409 C411 1.389 . S
C410 H383 0.950 . S
C410 C396 1.377 . S
C410 C409 1.373 . S
C411 C395 1.377 . S
C411 C409 1.389 . S
C411 C412 1.524 . S
C412 C411 1.524 . S
C412 C413 1.397 . S
C412 C417 1.363 . S
C413 H384 0.950 . S
C413 C412 1.397 . S
C413 C414 1.334 . S
C414 H385 0.950 . S
C414 C413 1.334 . S
C414 C415 1.287 . S
C415 C414 1.287 . S
C415 C416 1.524 . S
C415 H418 0.999 . S
C416 H386 0.950 . S
C416 C415 1.524 . S
C416 C417 1.415 . S
C417 H387 0.950 . S
C417 C412 1.363 . S
C417 C416 1.415 . S
H418 C415 0.999 . S
H419 C400 0.913 . S
H420 C438 0.951 . S
H421 C440 0.951 . S
H422 C442 0.950 . S
H423 C443 0.950 . S
H424 C445 0.950 . S
H425 C448 0.950 . S
H426 C449 0.950 . S
H427 C451 0.950 . S
H428 C452 0.950 . S
H429 C453 0.951 . S
H430 C455 0.951 . S
H431 C457 0.950 . S
H432 C458 0.950 . S
H433 C460 0.950 . S
H434 C463 0.950 . S
H435 C464 0.950 . S
H436 C466 0.950 . S
H437 C467 0.950 . S
C438 H420 0.951 . S
C438 C439 1.366 . S
C438 C440 1.388 . S
C439 C438 1.366 . S
C439 C443 1.385 . S
C440 H421 0.951 . S
C440 C438 1.388 . S
C440 C441 1.366 . S
C441 C440 1.366 . S
C441 C442 1.414 . S
C441 C444 1.499 . S
C442 H422 0.950 . S
C442 C441 1.414 . S
C442 C443 1.374 . S
C443 H423 0.950 . S
C443 C439 1.385 . S
C443 C442 1.374 . S
C444 C441 1.499 . S
C444 C445 1.373 . S
C444 C446 1.389 . S
C445 H424 0.950 . S
C445 C444 1.373 . S
C445 C461 1.377 . S
C446 C444 1.389 . S
C446 C447 1.524 . S
C446 C460 1.377 . S
C447 C446 1.524 . S
C447 C448 1.397 . S
C447 C452 1.363 . S
C448 H425 0.950 . S
C448 C447 1.397 . S
C448 C449 1.334 . S
C449 H426 0.950 . S
C449 C448 1.334 . S
C449 C450 1.287 . S
C450 C449 1.287 . S
C450 C451 1.524 . S
C450 H469 0.913 . S
C451 H427 0.950 . S
C451 C450 1.524 . S
C451 C452 1.415 . S
C452 H428 0.950 . S
C452 C447 1.363 . S
C452 C451 1.415 . S
C453 H429 0.951 . S
C453 C454 1.366 . S
C453 C455 1.388 . S
C454 C453 1.366 . S
C454 C458 1.385 . S
C455 H430 0.951 . S
C455 C453 1.388 . S
C455 C456 1.366 . S
C456 C455 1.366 . S
C456 C457 1.414 . S
C456 C459 1.499 . S
C457 H431 0.950 . S
C457 C456 1.414 . S
C457 C458 1.374 . S
C458 H432 0.950 . S
C458 C454 1.385 . S
C458 C457 1.374 . S
C459 C456 1.499 . S
C459 C460 1.373 . S
C459 C461 1.389 . S
C460 H433 0.950 . S
C460 C446 1.377 . S
C460 C459 1.373 . S
C461 C445 1.377 . S
C461 C459 1.389 . S
C461 C462 1.524 . S
C462 C461 1.524 . S
C462 C463 1.397 . S
C462 C467 1.363 . S
C463 H434 0.950 . S
C463 C462 1.397 . S
C463 C464 1.334 . S
C464 H435 0.950 . S
C464 C463 1.334 . S
C464 C465 1.287 . S
C465 C464 1.287 . S
C465 C466 1.524 . S
C465 H468 0.999 . S
C466 H436 0.950 . S
C466 C465 1.524 . S
C466 C467 1.415 . S
C467 H437 0.950 . S
C467 C462 1.363 . S
C467 C466 1.415 . S
H468 C465 0.999 . S
H469 C450 0.913 . S
H470 C488 0.951 . S
H471 C490 0.951 . S
H472 C492 0.950 . S
H473 C493 0.950 . S
H474 C495 0.950 . S
H475 C498 0.950 . S
H476 C499 0.950 . S
H477 C501 0.950 . S
H478 C502 0.950 . S
H479 C503 0.951 . S
H480 C505 0.951 . S
H481 C507 0.950 . S
H482 C508 0.950 . S
H483 C510 0.950 . S
H484 C513 0.950 . S
H485 C514 0.950 . S
H486 C516 0.950 . S
H487 C517 0.950 . S
C488 H470 0.951 . S
C488 C489 1.366 . S
C488 C490 1.388 . S
C489 C488 1.366 . S
C489 C493 1.385 . S
C490 H471 0.951 . S
C490 C488 1.388 . S
C490 C491 1.366 . S
C491 C490 1.366 . S
C491 C492 1.414 . S
C491 C494 1.499 . S
C492 H472 0.950 . S
C492 C491 1.414 . S
C492 C493 1.374 . S
C493 H473 0.950 . S
C493 C489 1.385 . S
C493 C492 1.374 . S
C494 C491 1.499 . S
C494 C495 1.373 . S
C494 C496 1.389 . S
C495 H474 0.950 . S
C495 C494 1.373 . S
C495 C511 1.377 . S
C496 C494 1.389 . S
C496 C497 1.524 . S
C496 C510 1.377 . S
C497 C496 1.524 . S
C497 C498 1.397 . S
C497 C502 1.363 . S
C498 H475 0.950 . S
C498 C497 1.397 . S
C498 C499 1.334 . S
C499 H476 0.950 . S
C499 C498 1.334 . S
C499 C500 1.287 . S
C500 C499 1.287 . S
C500 C501 1.524 . S
C500 H519 0.913 . S
C501 H477 0.950 . S
C501 C500 1.524 . S
C501 C502 1.415 . S
C502 H478 0.950 . S
C502 C497 1.363 . S
C502 C501 1.415 . S
C503 H479 0.951 . S
C503 C504 1.366 . S
C503 C505 1.388 . S
C504 C503 1.366 . S
C504 C508 1.385 . S
C505 H480 0.951 . S
C505 C503 1.388 . S
C505 C506 1.366 . S
C506 C505 1.366 . S
C506 C507 1.414 . S
C506 C509 1.499 . S
C507 H481 0.950 . S
C507 C506 1.414 . S
C507 C508 1.374 . S
C508 H482 0.950 . S
C508 C504 1.385 . S
C508 C507 1.374 . S
C509 C506 1.499 . S
C509 C510 1.373 . S
C509 C511 1.389 . S
C510 H483 0.950 . S
C510 C496 1.377 . S
C510 C509 1.373 . S
C511 C495 1.377 . S
C511 C509 1.389 . S
C511 C512 1.524 . S
C512 C511 1.524 . S
C512 C513 1.397 . S
C512 C517 1.363 . S
C513 H484 0.950 . S
C513 C512 1.397 . S
C513 C514 1.334 . S
C514 H485 0.950 . S
C514 C513 1.334 . S
C514 C515 1.287 . S
C515 C514 1.287 . S
C515 C516 1.524 . S
C515 H518 0.999 . S
C516 H486 0.950 . S
C516 C515 1.524 . S
C516 C517 1.415 . S
C517 H487 0.950 . S
C517 C512 1.363 . S
C517 C516 1.415 . S
H518 C515 0.999 . S
H519 C500 0.913 . S
H520 C538 0.951 . S
H521 C540 0.951 . S
H522 C542 0.950 . S
H523 C543 0.950 . S
H524 C545 0.950 . S
H525 C548 0.950 . S
H526 C549 0.950 . S
H527 C551 0.950 . S
H528 C552 0.950 . S
H529 C553 0.951 . S
H530 C555 0.951 . S
H531 C557 0.950 . S
H532 C558 0.950 . S
H533 C560 0.950 . S
H534 C563 0.950 . S
H535 C564 0.950 . S
H536 C566 0.950 . S
H537 C567 0.950 . S
C538 H520 0.951 . S
C538 C539 1.366 . S
C538 C540 1.388 . S
C539 C538 1.366 . S
C539 C543 1.385 . S
C540 H521 0.951 . S
C540 C538 1.388 . S
C540 C541 1.366 . S
C541 C540 1.366 . S
C541 C542 1.414 . S
C541 C544 1.499 . S
C542 H522 0.950 . S
C542 C541 1.414 . S
C542 C543 1.374 . S
C543 H523 0.950 . S
C543 C539 1.385 . S
C543 C542 1.374 . S
C544 C541 1.499 . S
C544 C545 1.373 . S
C544 C546 1.389 . S
C545 H524 0.950 . S
C545 C544 1.373 . S
C545 C561 1.377 . S
C546 C544 1.389 . S
C546 C547 1.524 . S
C546 C560 1.377 . S
C547 C546 1.524 . S
C547 C548 1.397 . S
C547 C552 1.363 . S
C548 H525 0.950 . S
C548 C547 1.397 . S
C548 C549 1.334 . S
C549 H526 0.950 . S
C549 C548 1.334 . S
C549 C550 1.287 . S
C550 C549 1.287 . S
C550 C551 1.524 . S
C550 H569 0.913 . S
C551 H527 0.950 . S
C551 C550 1.524 . S
C551 C552 1.415 . S
C552 H528 0.950 . S
C552 C547 1.363 . S
C552 C551 1.415 . S
C553 H529 0.951 . S
C553 C554 1.366 . S
C553 C555 1.388 . S
C554 C553 1.366 . S
C554 C558 1.385 . S
C555 H530 0.951 . S
C555 C553 1.388 . S
C555 C556 1.366 . S
C556 C555 1.366 . S
C556 C557 1.414 . S
C556 C559 1.499 . S
C557 H531 0.950 . S
C557 C556 1.414 . S
C557 C558 1.374 . S
C558 H532 0.950 . S
C558 C554 1.385 . S
C558 C557 1.374 . S
C559 C556 1.499 . S
C559 C560 1.373 . S
C559 C561 1.389 . S
C560 H533 0.950 . S
C560 C546 1.377 . S
C560 C559 1.373 . S
C561 C545 1.377 . S
C561 C559 1.389 . S
C561 C562 1.524 . S
C562 C561 1.524 . S
C562 C563 1.397 . S
C562 C567 1.363 . S
C563 H534 0.950 . S
C563 C562 1.397 . S
C563 C564 1.334 . S
C564 H535 0.950 . S
C564 C563 1.334 . S
C564 C565 1.287 . S
C565 C564 1.287 . S
C565 C566 1.524 . S
C565 H568 0.999 . S
C566 H536 0.950 . S
C566 C565 1.524 . S
C566 C567 1.415 . S
C567 H537 0.950 . S
C567 C562 1.363 . S
C567 C566 1.415 . S
H568 C565 0.999 . S
H569 C550 0.913 . S
H570 C588 0.951 . S
H571 C590 0.951 . S
H572 C592 0.950 . S
H573 C593 0.950 . S
H574 C595 0.950 . S
H575 C598 0.950 . S
H576 C599 0.950 . S
H577 C601 0.950 . S
H578 C602 0.950 . S
H579 C603 0.951 . S
H580 C605 0.951 . S
H581 C607 0.950 . S
H582 C608 0.950 . S
H583 C610 0.950 . S
H584 C613 0.950 . S
H585 C614 0.950 . S
H586 C616 0.950 . S
H587 C617 0.950 . S
C588 H570 0.951 . S
C588 C589 1.366 . S
C588 C590 1.388 . S
C589 C588 1.366 . S
C589 C593 1.385 . S
C590 H571 0.951 . S
C590 C588 1.388 . S
C590 C591 1.366 . S
C591 C590 1.366 . S
C591 C592 1.414 . S
C591 C594 1.499 . S
C592 H572 0.950 . S
C592 C591 1.414 . S
C592 C593 1.374 . S
C593 H573 0.950 . S
C593 C589 1.385 . S
C593 C592 1.374 . S
C594 C591 1.499 . S
C594 C595 1.373 . S
C594 C596 1.389 . S
C595 H574 0.950 . S
C595 C594 1.373 . S
C595 C611 1.377 . S
C596 C594 1.389 . S
C596 C597 1.524 . S
C596 C610 1.377 . S
C597 C596 1.524 . S
C597 C598 1.397 . S
C597 C602 1.363 . S
C598 H575 0.950 . S
C598 C597 1.397 . S
C598 C599 1.334 . S
C599 H576 0.950 . S
C599 C598 1.334 . S
C599 C600 1.287 . S
C600 C599 1.287 . S
C600 C601 1.524 . S
C600 H619 0.913 . S
C601 H577 0.950 . S
C601 C600 1.524 . S
C601 C602 1.415 . S
C602 H578 0.950 . S
C602 C597 1.363 . S
C602 C601 1.415 . S
C603 H579 0.951 . S
C603 C604 1.366 . S
C603 C605 1.388 . S
C604 C603 1.366 . S
C604 C608 1.385 . S
C605 H580 0.951 . S
C605 C603 1.388 . S
C605 C606 1.366 . S
C606 C605 1.366 . S
C606 C607 1.414 . S
C606 C609 1.499 . S
C607 H581 0.950 . S
C607 C606 1.414 . S
C607 C608 1.374 . S
C608 H582 0.950 . S
C608 C604 1.385 . S
C608 C607 1.374 . S
C609 C606 1.499 . S
C609 C610 1.373 . S
C609 C611 1.389 . S
C610 H583 0.950 . S
C610 C596 1.377 . S
C610 C609 1.373 . S
C611 C595 1.377 . S
C611 C609 1.389 . S
C611 C612 1.524 . S
C612 C611 1.524 . S
C612 C613 1.397 . S
C612 C617 1.363 . S
C613 H584 0.950 . S
C613 C612 1.397 . S
C613 C614 1.334 . S
C614 H585 0.950 . S
C614 C613 1.334 . S
C614 C615 1.287 . S
C615 C614 1.287 . S
C615 C616 1.524 . S
C615 H618 0.999 . S
C616 H586 0.950 . S
C616 C615 1.524 . S
C616 C617 1.415 . S
C617 H587 0.950 . S
C617 C612 1.363 . S
C617 C616 1.415 . S
H618 C615 0.999 . S
H619 C600 0.913 . S
H620 C638 0.951 . S
H621 C640 0.951 . S
H622 C642 0.950 . S
H623 C643 0.950 . S
H624 C645 0.950 . S
H625 C648 0.950 . S
H626 C649 0.950 . S
H627 C651 0.950 . S
H628 C652 0.950 . S
H629 C653 0.951 . S
H630 C655 0.951 . S
H631 C657 0.950 . S
H632 C658 0.950 . S
H633 C660 0.950 . S
H634 C663 0.950 . S
H635 C664 0.950 . S
H636 C666 0.950 . S
H637 C667 0.950 . S
C638 H620 0.951 . S
C638 C639 1.366 . S
C638 C640 1.388 . S
C639 C638 1.366 . S
C639 C643 1.385 . S
C640 H621 0.951 . S
C640 C638 1.388 . S
C640 C641 1.366 . S
C641 C640 1.366 . S
C641 C642 1.414 . S
C641 C644 1.499 . S
C642 H622 0.950 . S
C642 C641 1.414 . S
C642 C643 1.374 . S
C643 H623 0.950 . S
C643 C639 1.385 . S
C643 C642 1.374 . S
C644 C641 1.499 . S
C644 C645 1.373 . S
C644 C646 1.389 . S
C645 H624 0.950 . S
C645 C644 1.373 . S
C645 C661 1.377 1_565 S
C646 C644 1.389 . S
C646 C647 1.524 . S
C646 C660 1.377 1_565 S
C647 C646 1.524 . S
C647 C648 1.397 . S
C647 C652 1.363 . S
C648 H625 0.950 . S
C648 C647 1.397 . S
C648 C649 1.334 . S
C649 H626 0.950 . S
C649 C648 1.334 . S
C649 C650 1.287 . S
C650 C649 1.287 . S
C650 C651 1.524 . S
C650 H669 0.913 . S
C651 H627 0.950 . S
C651 C650 1.524 . S
C651 C652 1.415 . S
C652 H628 0.950 . S
C652 C647 1.363 . S
C652 C651 1.415 . S
C653 H629 0.951 . S
C653 C654 1.366 . S
C653 C655 1.388 . S
C654 C653 1.366 . S
C654 C658 1.385 . S
C655 H630 0.951 . S
C655 C653 1.388 . S
C655 C656 1.366 . S
C656 C655 1.366 . S
C656 C657 1.414 . S
C656 C659 1.499 . S
C657 H631 0.950 . S
C657 C656 1.414 . S
C657 C658 1.374 . S
C658 H632 0.950 . S
C658 C654 1.385 . S
C658 C657 1.374 . S
C659 C656 1.499 . S
C659 C660 1.373 . S
C659 C661 1.389 . S
C660 H633 0.950 . S
C660 C646 1.377 1_545 S
C660 C659 1.373 . S
C661 C645 1.377 1_545 S
C661 C659 1.389 . S
C661 C662 1.524 . S
C662 C661 1.524 . S
C662 C663 1.397 . S
C662 C667 1.363 . S
C663 H634 0.950 . S
C663 C662 1.397 . S
C663 C664 1.334 . S
C664 H635 0.950 . S
C664 C663 1.334 . S
C664 C665 1.287 . S
C665 C664 1.287 . S
C665 C666 1.524 . S
C665 H668 0.999 . S
C666 H636 0.950 . S
C666 C665 1.524 . S
C666 C667 1.415 . S
C667 H637 0.950 . S
C667 C662 1.363 . S
C667 C666 1.415 . S
H668 C665 0.999 . S
H669 C650 0.913 . S
H670 C688 0.951 . S
H671 C690 0.951 . S
H672 C692 0.950 . S
H673 C693 0.950 . S
H674 C695 0.950 . S
H675 C698 0.950 . S
H676 C699 0.950 . S
H677 C701 0.950 . S
H678 C702 0.950 . S
H679 C703 0.951 . S
H680 C705 0.951 . S
H681 C707 0.950 . S
H682 C708 0.950 . S
H683 C710 0.950 . S
H684 C713 0.950 . S
H685 C714 0.950 . S
H686 C716 0.950 . S
H687 C717 0.950 . S
C688 H670 0.951 . S
C688 C689 1.366 . S
C688 C690 1.388 . S
C689 C688 1.366 . S
C689 C693 1.385 . S
C690 H671 0.951 . S
C690 C688 1.388 . S
C690 C691 1.366 . S
C691 C690 1.366 . S
C691 C692 1.414 . S
C691 C694 1.499 . S
C692 H672 0.950 . S
C692 C691 1.414 . S
C692 C693 1.374 . S
C693 H673 0.950 . S
C693 C689 1.385 . S
C693 C692 1.374 . S
C694 C691 1.499 . S
C694 C695 1.373 . S
C694 C696 1.389 1_554 S
C695 H674 0.950 . S
C695 C694 1.373 . S
C695 C711 1.377 1_565 S
C696 C694 1.389 1_556 S
C696 C697 1.524 . S
C696 C710 1.377 1_565 S
C697 C696 1.524 . S
C697 C698 1.397 . S
C697 C702 1.363 1_455 S
C698 H675 0.950 . S
C698 C697 1.397 . S
C698 C699 1.334 . S
C699 H676 0.950 . S
C699 C698 1.334 . S
C699 C700 1.287 1_455 S
C700 C699 1.287 1_655 S
C700 C701 1.524 . S
C700 H719 0.913 . S
C701 H677 0.950 . S
C701 C700 1.524 . S
C701 C702 1.415 . S
C702 H678 0.950 . S
C702 C697 1.363 1_655 S
C702 C701 1.415 . S
C703 H679 0.951 . S
C703 C704 1.366 . S
C703 C705 1.388 . S
C704 C703 1.366 . S
C704 C708 1.385 . S
C705 H680 0.951 . S
C705 C703 1.388 . S
C705 C706 1.366 . S
C706 C705 1.366 . S
C706 C707 1.414 . S
C706 C709 1.499 . S
C707 H681 0.950 . S
C707 C706 1.414 . S
C707 C708 1.374 . S
C708 H682 0.950 . S
C708 C704 1.385 . S
C708 C707 1.374 . S
C709 C706 1.499 . S
C709 C710 1.373 . S
C709 C711 1.389 1_556 S
C710 H683 0.950 . S
C710 C696 1.377 1_545 S
C710 C709 1.373 . S
C711 C695 1.377 1_545 S
C711 C709 1.389 1_554 S
C711 C712 1.524 . S
C712 C711 1.524 . S
C712 C713 1.397 . S
C712 C717 1.363 . S
C713 H684 0.950 . S
C713 C712 1.397 . S
C713 C714 1.334 . S
C714 H685 0.950 . S
C714 C713 1.334 . S
C714 C715 1.287 . S
C715 C714 1.287 . S
C715 C716 1.524 . S
C715 H718 0.999 . S
C716 H686 0.950 . S
C716 C715 1.524 . S
C716 C717 1.415 . S
C717 H687 0.950 . S
C717 C712 1.363 . S
C717 C716 1.415 . S
H718 C715 0.999 . S
H719 C700 0.913 . S
H720 C738 0.951 . S
H721 C740 0.951 . S
H722 C742 0.950 . S
H723 C743 0.950 . S
H724 C745 0.950 . S
H725 C748 0.950 . S
H726 C749 0.950 1_455 S
H727 C751 0.950 . S
H728 C752 0.950 . S
H729 C753 0.951 . S
H730 C755 0.951 . S
H731 C757 0.950 . S
H732 C758 0.950 . S
H733 C760 0.950 . S
H734 C763 0.950 . S
H735 C764 0.950 . S
H736 C766 0.950 . S
H737 C767 0.950 . S
C738 H720 0.951 . S
C738 C739 1.366 . S
C738 C740 1.388 . S
C739 C738 1.366 . S
C739 C743 1.385 . S
C740 H721 0.951 . S
C740 C738 1.388 . S
C740 C741 1.366 . S
C741 C740 1.366 . S
C741 C742 1.414 . S
C741 C744 1.499 . S
C742 H722 0.950 . S
C742 C741 1.414 . S
C742 C743 1.374 . S
C743 H723 0.950 . S
C743 C739 1.385 . S
C743 C742 1.374 . S
C744 C741 1.499 . S
C744 C745 1.373 . S
C744 C746 1.389 . S
C745 H724 0.950 . S
C745 C744 1.373 . S
C745 C761 1.377 . S
C746 C744 1.389 . S
C746 C747 1.524 . S
C746 C760 1.377 . S
C747 C746 1.524 . S
C747 C748 1.397 . S
C747 C752 1.363 1_455 S
C748 H725 0.950 . S
C748 C747 1.397 . S
C748 C749 1.334 1_455 S
C749 H726 0.950 1_655 S
C749 C748 1.334 1_655 S
C749 C750 1.287 . S
C750 C749 1.287 . S
C750 C751 1.524 . S
C750 H769 0.913 . S
C751 H727 0.950 . S
C751 C750 1.524 . S
C751 C752 1.415 . S
C752 H728 0.950 . S
C752 C747 1.363 1_655 S
C752 C751 1.415 . S
C753 H729 0.951 . S
C753 C754 1.366 . S
C753 C755 1.388 . S
C754 C753 1.366 . S
C754 C758 1.385 . S
C755 H730 0.951 . S
C755 C753 1.388 . S
C755 C756 1.366 . S
C756 C755 1.366 . S
C756 C757 1.414 . S
C756 C759 1.499 . S
C757 H731 0.950 . S
C757 C756 1.414 . S
C757 C758 1.374 . S
C758 H732 0.950 . S
C758 C754 1.385 . S
C758 C757 1.374 . S
C759 C756 1.499 . S
C759 C760 1.373 . S
C759 C761 1.389 . S
C760 H733 0.950 . S
C760 C746 1.377 . S
C760 C759 1.373 . S
C761 C745 1.377 . S
C761 C759 1.389 . S
C761 C762 1.524 . S
C762 C761 1.524 . S
C762 C763 1.397 . S
C762 C767 1.363 . S
C763 H734 0.950 . S
C763 C762 1.397 . S
C763 C764 1.334 . S
C764 H735 0.950 . S
C764 C763 1.334 . S
C764 C765 1.287 . S
C765 C764 1.287 . S
C765 C766 1.524 . S
C765 H768 0.999 . S
C766 H736 0.950 . S
C766 C765 1.524 . S
C766 C767 1.415 . S
C767 H737 0.950 . S
C767 C762 1.363 . S
C767 C766 1.415 . S
H768 C765 0.999 . S
H769 C750 0.913 . S
H770 C788 0.951 . S
H771 C790 0.951 . S
H772 C792 0.950 . S
H773 C793 0.950 . S
H774 C795 0.950 . S
H775 C798 0.950 . S
H776 C799 0.950 . S
H777 C801 0.950 . S
H778 C802 0.950 . S
H779 C803 0.951 . S
H780 C805 0.951 . S
H781 C807 0.950 . S
H782 C808 0.950 . S
H783 C810 0.950 . S
H784 C813 0.950 . S
H785 C814 0.950 . S
H786 C816 0.950 . S
H787 C817 0.950 . S
C788 H770 0.951 . S
C788 C789 1.366 . S
C788 C790 1.388 . S
C789 C788 1.366 . S
C789 C793 1.385 . S
C790 H771 0.951 . S
C790 C788 1.388 . S
C790 C791 1.366 . S
C791 C790 1.366 . S
C791 C792 1.414 . S
C791 C794 1.499 . S
C792 H772 0.950 . S
C792 C791 1.414 . S
C792 C793 1.374 . S
C793 H773 0.950 . S
C793 C789 1.385 . S
C793 C792 1.374 . S
C794 C791 1.499 . S
C794 C795 1.373 . S
C794 C796 1.389 . S
C795 H774 0.950 . S
C795 C794 1.373 . S
C795 C811 1.377 . S
C796 C794 1.389 . S
C796 C797 1.524 . S
C796 C810 1.377 . S
C797 C796 1.524 . S
C797 C798 1.397 . S
C797 C802 1.363 . S
C798 H775 0.950 . S
C798 C797 1.397 . S
C798 C799 1.334 . S
C799 H776 0.950 . S
C799 C798 1.334 . S
C799 C800 1.287 . S
C800 C799 1.287 . S
C800 C801 1.524 . S
C800 H819 0.913 . S
C801 H777 0.950 . S
C801 C800 1.524 . S
C801 C802 1.415 . S
C802 H778 0.950 . S
C802 C797 1.363 . S
C802 C801 1.415 . S
C803 H779 0.951 . S
C803 C804 1.366 . S
C803 C805 1.388 . S
C804 C803 1.366 . S
C804 C808 1.385 . S
C805 H780 0.951 . S
C805 C803 1.388 . S
C805 C806 1.366 . S
C806 C805 1.366 . S
C806 C807 1.414 . S
C806 C809 1.499 . S
C807 H781 0.950 . S
C807 C806 1.414 . S
C807 C808 1.374 . S
C808 H782 0.950 . S
C808 C804 1.385 . S
C808 C807 1.374 . S
C809 C806 1.499 . S
C809 C810 1.373 . S
C809 C811 1.389 . S
C810 H783 0.950 . S
C810 C796 1.377 . S
C810 C809 1.373 . S
C811 C795 1.377 . S
C811 C809 1.389 . S
C811 C812 1.524 . S
C812 C811 1.524 . S
C812 C813 1.397 . S
C812 C817 1.363 . S
C813 H784 0.950 . S
C813 C812 1.397 . S
C813 C814 1.334 . S
C814 H785 0.950 . S
C814 C813 1.334 . S
C814 C815 1.287 . S
C815 C814 1.287 . S
C815 C816 1.524 . S
C815 H818 0.999 . S
C816 H786 0.950 . S
C816 C815 1.524 . S
C816 C817 1.415 . S
C817 H787 0.950 . S
C817 C812 1.363 . S
C817 C816 1.415 . S
H818 C815 0.999 . S
H819 C800 0.913 . S
H820 C838 0.951 . S
H821 C840 0.951 . S
H822 C842 0.950 . S
H823 C843 0.950 . S
H824 C845 0.950 . S
H825 C848 0.950 . S
H826 C849 0.950 . S
H827 C851 0.950 . S
H828 C852 0.950 . S
H829 C853 0.951 . S
H830 C855 0.951 . S
H831 C857 0.950 . S
H832 C858 0.950 . S
H833 C860 0.950 . S
H834 C863 0.950 . S
H835 C864 0.950 . S
H836 C866 0.950 . S
H837 C867 0.950 . S
C838 H820 0.951 . S
C838 C839 1.366 . S
C838 C840 1.388 . S
C839 C838 1.366 . S
C839 C843 1.385 . S
C840 H821 0.951 . S
C840 C838 1.388 . S
C840 C841 1.366 . S
C841 C840 1.366 . S
C841 C842 1.414 . S
C841 C844 1.499 . S
C842 H822 0.950 . S
C842 C841 1.414 . S
C842 C843 1.374 . S
C843 H823 0.950 . S
C843 C839 1.385 . S
C843 C842 1.374 . S
C844 C841 1.499 . S
C844 C845 1.373 . S
C844 C846 1.389 . S
C845 H824 0.950 . S
C845 C844 1.373 . S
C845 C861 1.377 . S
C846 C844 1.389 . S
C846 C847 1.524 . S
C846 C860 1.377 . S
C847 C846 1.524 . S
C847 C848 1.397 . S
C847 C852 1.363 . S
C848 H825 0.950 . S
C848 C847 1.397 . S
C848 C849 1.334 . S
C849 H826 0.950 . S
C849 C848 1.334 . S
C849 C850 1.287 . S
C850 C849 1.287 . S
C850 C851 1.524 . S
C850 H869 0.913 . S
C851 H827 0.950 . S
C851 C850 1.524 . S
C851 C852 1.415 . S
C852 H828 0.950 . S
C852 C847 1.363 . S
C852 C851 1.415 . S
C853 H829 0.951 . S
C853 C854 1.366 . S
C853 C855 1.388 . S
C854 C853 1.366 . S
C854 C858 1.385 . S
C855 H830 0.951 . S
C855 C853 1.388 . S
C855 C856 1.366 . S
C856 C855 1.366 . S
C856 C857 1.414 . S
C856 C859 1.499 . S
C857 H831 0.950 . S
C857 C856 1.414 . S
C857 C858 1.374 . S
C858 H832 0.950 . S
C858 C854 1.385 . S
C858 C857 1.374 . S
C859 C856 1.499 . S
C859 C860 1.373 . S
C859 C861 1.389 . S
C860 H833 0.950 . S
C860 C846 1.377 . S
C860 C859 1.373 . S
C861 C845 1.377 . S
C861 C859 1.389 . S
C861 C862 1.524 . S
C862 C861 1.524 . S
C862 C863 1.397 . S
C862 C867 1.363 . S
C863 H834 0.950 . S
C863 C862 1.397 . S
C863 C864 1.334 . S
C864 H835 0.950 . S
C864 C863 1.334 . S
C864 C865 1.287 . S
C865 C864 1.287 . S
C865 C866 1.524 . S
C865 H868 0.999 . S
C866 H836 0.950 . S
C866 C865 1.524 . S
C866 C867 1.415 . S
C867 H837 0.950 . S
C867 C862 1.363 . S
C867 C866 1.415 . S
H868 C865 0.999 . S
H869 C850 0.913 . S
H870 C888 0.951 . S
H871 C890 0.951 . S
H872 C892 0.950 . S
H873 C893 0.950 . S
H874 C895 0.950 . S
H875 C898 0.950 . S
H876 C899 0.950 1_655 S
H877 C901 0.950 . S
H878 C902 0.950 . S
H879 C903 0.951 . S
H880 C905 0.951 . S
H881 C907 0.950 . S
H882 C908 0.950 . S
H883 C910 0.950 . S
H884 C913 0.950 . S
H885 C914 0.950 . S
H886 C916 0.950 . S
H887 C917 0.950 . S
C888 H870 0.951 . S
C888 C889 1.366 . S
C888 C890 1.388 . S
C889 C888 1.366 . S
C889 C893 1.385 . S
C890 H871 0.951 . S
C890 C888 1.388 . S
C890 C891 1.366 . S
C891 C890 1.366 . S
C891 C892 1.414 . S
C891 C894 1.499 . S
C892 H872 0.950 . S
C892 C891 1.414 . S
C892 C893 1.374 . S
C893 H873 0.950 . S
C893 C889 1.385 . S
C893 C892 1.374 . S
C894 C891 1.499 . S
C894 C895 1.373 . S
C894 C896 1.389 . S
C895 H874 0.950 . S
C895 C894 1.373 . S
C895 C911 1.377 . S
C896 C894 1.389 . S
C896 C897 1.524 . S
C896 C910 1.377 . S
C897 C896 1.524 . S
C897 C898 1.397 . S
C897 C902 1.363 . S
C898 H875 0.950 . S
C898 C897 1.397 . S
C898 C899 1.334 . S
C899 H876 0.950 1_455 S
C899 C898 1.334 . S
C899 C900 1.287 . S
C900 C899 1.287 . S
C900 C901 1.524 . S
C900 H919 0.913 . S
C901 H877 0.950 . S
C901 C900 1.524 . S
C901 C902 1.415 . S
C902 H878 0.950 . S
C902 C897 1.363 . S
C902 C901 1.415 . S
C903 H879 0.951 . S
C903 C904 1.366 . S
C903 C905 1.388 . S
C904 C903 1.366 . S
C904 C908 1.385 . S
C905 H880 0.951 . S
C905 C903 1.388 . S
C905 C906 1.366 . S
C906 C905 1.366 . S
C906 C907 1.414 . S
C906 C909 1.499 . S
C907 H881 0.950 . S
C907 C906 1.414 . S
C907 C908 1.374 . S
C908 H882 0.950 . S
C908 C904 1.385 . S
C908 C907 1.374 . S
C909 C906 1.499 . S
C909 C910 1.373 . S
C909 C911 1.389 . S
C910 H883 0.950 . S
C910 C896 1.377 . S
C910 C909 1.373 . S
C911 C895 1.377 . S
C911 C909 1.389 . S
C911 C912 1.524 . S
C912 C911 1.524 . S
C912 C913 1.397 . S
C912 C917 1.363 . S
C913 H884 0.950 . S
C913 C912 1.397 . S
C913 C914 1.334 . S
C914 H885 0.950 . S
C914 C913 1.334 . S
C914 C915 1.287 . S
C915 C914 1.287 . S
C915 C916 1.524 . S
C915 H918 0.999 . S
C916 H886 0.950 . S
C916 C915 1.524 . S
C916 C917 1.415 . S
C917 H887 0.950 . S
C917 C912 1.363 . S
C917 C916 1.415 . S
H918 C915 0.999 . S
H919 C900 0.913 . S
C339 C175 1.500 . S
C354 C15 1.499 . S
C389 C215 1.501 . S
C404 C55 1.500 . S
C439 C82 1.491 . S
C454 C242 1.502 . S
C489 C122 1.486 . S
C504 C282 1.490 . S
C539 C295 1.501 . S
C554 C135 1.501 . S
C589 C202 1.489 . S
C604 C42 1.486 . S
C639 C255 1.510 . S
C654 C95 1.509 . S
C689 C2 1.486 . S
C704 C162 1.488 . S
C739 C221 1.491 . S
C754 C21 1.488 . S
C789 C261 1.496 . S
C804 C61 1.491 . S
C839 C101 1.489 . S
C854 C301 1.494 . S
C889 C181 1.490 . S
C904 C141 1.488 . S
