# Generated by pormake.
# Topology sop, (7)-cn, num edge types: 1
# Building blocks:
#     Node 0, Type 0, BuildingBlock: NUHQUE_clean_sbu_2, # of connection points: 7
#     Node 1, Type 0, BuildingBlock: NUHQUE_clean_sbu_2, # of connection points: 7
#     Node 2, Type 0, BuildingBlock: NUHQUE_clean_sbu_2, # of connection points: 7
#     Node 3, Type 0, BuildingBlock: NUHQUE_clean_sbu_2, # of connection points: 7
#     Node 4, Type 0, BuildingBlock: NUHQUE_clean_sbu_2, # of connection points: 7
#     Node 5, Type 0, BuildingBlock: NUHQUE_clean_sbu_2, # of connection points: 7
#     Node 6, Type 0, BuildingBlock: NUHQUE_clean_sbu_2, # of connection points: 7
#     Node 7, Type 0, BuildingBlock: NUHQUE_clean_sbu_2, # of connection points: 7
#     Node 8, Type 0, BuildingBlock: NUHQUE_clean_sbu_2, # of connection points: 7
#     Node 9, Type 0, BuildingBlock: NUHQUE_clean_sbu_2, # of connection points: 7
#     Node 10, Type 0, BuildingBlock: NUHQUE_clean_sbu_2, # of connection points: 7
#     Node 11, Type 0, BuildingBlock: NUHQUE_clean_sbu_2, # of connection points: 7
#     Node 12, Type 0, BuildingBlock: NUHQUE_clean_sbu_2, # of connection points: 7
#     Node 13, Type 0, BuildingBlock: NUHQUE_clean_sbu_2, # of connection points: 7
#     Node 14, Type 0, BuildingBlock: NUHQUE_clean_sbu_2, # of connection points: 7
#     Node 15, Type 0, BuildingBlock: NUHQUE_clean_sbu_2, # of connection points: 7
#     Node 16, Type 0, BuildingBlock: NUHQUE_clean_sbu_2, # of connection points: 7
#     Node 17, Type 0, BuildingBlock: NUHQUE_clean_sbu_2, # of connection points: 7
#     Node 18, Type 0, BuildingBlock: NUHQUE_clean_sbu_2, # of connection points: 7
#     Node 19, Type 0, BuildingBlock: NUHQUE_clean_sbu_2, # of connection points: 7
#     Node 20, Type 0, BuildingBlock: NUHQUE_clean_sbu_2, # of connection points: 7
#     Node 21, Type 0, BuildingBlock: NUHQUE_clean_sbu_2, # of connection points: 7
#     Node 22, Type 0, BuildingBlock: NUHQUE_clean_sbu_2, # of connection points: 7
#     Node 23, Type 0, BuildingBlock: NUHQUE_clean_sbu_2, # of connection points: 7
#     Node 24, Type 0, BuildingBlock: NUHQUE_clean_sbu_2, # of connection points: 7
#     Node 25, Type 0, BuildingBlock: NUHQUE_clean_sbu_2, # of connection points: 7
#     Node 26, Type 0, BuildingBlock: NUHQUE_clean_sbu_2, # of connection points: 7
#     Node 27, Type 0, BuildingBlock: NUHQUE_clean_sbu_2, # of connection points: 7
#     Node 28, Type 0, BuildingBlock: NUHQUE_clean_sbu_2, # of connection points: 7
#     Node 29, Type 0, BuildingBlock: NUHQUE_clean_sbu_2, # of connection points: 7
#     Node 30, Type 0, BuildingBlock: NUHQUE_clean_sbu_2, # of connection points: 7
#     Node 31, Type 0, BuildingBlock: NUHQUE_clean_sbu_2, # of connection points: 7
#     Edge 32, Type (0, 0), BuildingBlock: XUDNAN_clean_linker_2, # of connection points: 2
#     Edge 33, Type (0, 0), BuildingBlock: XUDNAN_clean_linker_2, # of connection points: 2
#     Edge 34, Type (0, 0), BuildingBlock: XUDNAN_clean_linker_2, # of connection points: 2
#     Edge 35, Type (0, 0), BuildingBlock: XUDNAN_clean_linker_2, # of connection points: 2
#     Edge 36, Type (0, 0), BuildingBlock: XUDNAN_clean_linker_2, # of connection points: 2
#     Edge 37, Type (0, 0), BuildingBlock: XUDNAN_clean_linker_2, # of connection points: 2
#     Edge 38, Type (0, 0), BuildingBlock: XUDNAN_clean_linker_2, # of connection points: 2
#     Edge 39, Type (0, 0), BuildingBlock: XUDNAN_clean_linker_2, # of connection points: 2
#     Edge 40, Type (0, 0), BuildingBlock: XUDNAN_clean_linker_2, # of connection points: 2
#     Edge 41, Type (0, 0), BuildingBlock: XUDNAN_clean_linker_2, # of connection points: 2
#     Edge 42, Type (0, 0), BuildingBlock: XUDNAN_clean_linker_2, # of connection points: 2
#     Edge 43, Type (0, 0), BuildingBlock: XUDNAN_clean_linker_2, # of connection points: 2
#     Edge 44, Type (0, 0), BuildingBlock: XUDNAN_clean_linker_2, # of connection points: 2
#     Edge 45, Type (0, 0), BuildingBlock: XUDNAN_clean_linker_2, # of connection points: 2
#     Edge 46, Type (0, 0), BuildingBlock: XUDNAN_clean_linker_2, # of connection points: 2
#     Edge 47, Type (0, 0), BuildingBlock: XUDNAN_clean_linker_2, # of connection points: 2
#     Edge 48, Type (0, 0), BuildingBlock: XUDNAN_clean_linker_2, # of connection points: 2
#     Edge 49, Type (0, 0), BuildingBlock: XUDNAN_clean_linker_2, # of connection points: 2
#     Edge 50, Type (0, 0), BuildingBlock: XUDNAN_clean_linker_2, # of connection points: 2
#     Edge 51, Type (0, 0), BuildingBlock: XUDNAN_clean_linker_2, # of connection points: 2
#     Edge 52, Type (0, 0), BuildingBlock: XUDNAN_clean_linker_2, # of connection points: 2
#     Edge 53, Type (0, 0), BuildingBlock: XUDNAN_clean_linker_2, # of connection points: 2
#     Edge 54, Type (0, 0), BuildingBlock: XUDNAN_clean_linker_2, # of connection points: 2
#     Edge 55, Type (0, 0), BuildingBlock: XUDNAN_clean_linker_2, # of connection points: 2
#     Edge 56, Type (0, 0), BuildingBlock: XUDNAN_clean_linker_2, # of connection points: 2
#     Edge 57, Type (0, 0), BuildingBlock: XUDNAN_clean_linker_2, # of connection points: 2
#     Edge 58, Type (0, 0), BuildingBlock: XUDNAN_clean_linker_2, # of connection points: 2
#     Edge 59, Type (0, 0), BuildingBlock: XUDNAN_clean_linker_2, # of connection points: 2
#     Edge 60, Type (0, 0), BuildingBlock: XUDNAN_clean_linker_2, # of connection points: 2
#     Edge 61, Type (0, 0), BuildingBlock: XUDNAN_clean_linker_2, # of connection points: 2
#     Edge 62, Type (0, 0), BuildingBlock: XUDNAN_clean_linker_2, # of connection points: 2
#     Edge 63, Type (0, 0), BuildingBlock: XUDNAN_clean_linker_2, # of connection points: 2
#     Edge 64, Type (0, 0), BuildingBlock: XUDNAN_clean_linker_2, # of connection points: 2
#     Edge 65, Type (0, 0), BuildingBlock: XUDNAN_clean_linker_2, # of connection points: 2
#     Edge 66, Type (0, 0), BuildingBlock: XUDNAN_clean_linker_2, # of connection points: 2
#     Edge 67, Type (0, 0), BuildingBlock: XUDNAN_clean_linker_2, # of connection points: 2
#     Edge 68, Type (0, 0), BuildingBlock: XUDNAN_clean_linker_2, # of connection points: 2
#     Edge 69, Type (0, 0), BuildingBlock: XUDNAN_clean_linker_2, # of connection points: 2
#     Edge 70, Type (0, 0), BuildingBlock: XUDNAN_clean_linker_2, # of connection points: 2
#     Edge 71, Type (0, 0), BuildingBlock: XUDNAN_clean_linker_2, # of connection points: 2
#     Edge 72, Type (0, 0), BuildingBlock: XUDNAN_clean_linker_2, # of connection points: 2
#     Edge 73, Type (0, 0), BuildingBlock: XUDNAN_clean_linker_2, # of connection points: 2
#     Edge 74, Type (0, 0), BuildingBlock: XUDNAN_clean_linker_2, # of connection points: 2
#     Edge 75, Type (0, 0), BuildingBlock: XUDNAN_clean_linker_2, # of connection points: 2
#     Edge 76, Type (0, 0), BuildingBlock: XUDNAN_clean_linker_2, # of connection points: 2
#     Edge 77, Type (0, 0), BuildingBlock: XUDNAN_clean_linker_2, # of connection points: 2
#     Edge 78, Type (0, 0), BuildingBlock: XUDNAN_clean_linker_2, # of connection points: 2
#     Edge 79, Type (0, 0), BuildingBlock: XUDNAN_clean_linker_2, # of connection points: 2
#     Edge 80, Type (0, 0), BuildingBlock: XUDNAN_clean_linker_2, # of connection points: 2
#     Edge 81, Type (0, 0), BuildingBlock: XUDNAN_clean_linker_2, # of connection points: 2
#     Edge 82, Type (0, 0), BuildingBlock: XUDNAN_clean_linker_2, # of connection points: 2
#     Edge 83, Type (0, 0), BuildingBlock: XUDNAN_clean_linker_2, # of connection points: 2
#     Edge 84, Type (0, 0), BuildingBlock: XUDNAN_clean_linker_2, # of connection points: 2
#     Edge 85, Type (0, 0), BuildingBlock: XUDNAN_clean_linker_2, # of connection points: 2
#     Edge 86, Type (0, 0), BuildingBlock: XUDNAN_clean_linker_2, # of connection points: 2
#     Edge 87, Type (0, 0), BuildingBlock: XUDNAN_clean_linker_2, # of connection points: 2
#     Edge 88, Type (0, 0), BuildingBlock: XUDNAN_clean_linker_2, # of connection points: 2
#     Edge 89, Type (0, 0), BuildingBlock: XUDNAN_clean_linker_2, # of connection points: 2
#     Edge 90, Type (0, 0), BuildingBlock: XUDNAN_clean_linker_2, # of connection points: 2
#     Edge 91, Type (0, 0), BuildingBlock: XUDNAN_clean_linker_2, # of connection points: 2
#     Edge 92, Type (0, 0), BuildingBlock: XUDNAN_clean_linker_2, # of connection points: 2
#     Edge 93, Type (0, 0), BuildingBlock: XUDNAN_clean_linker_2, # of connection points: 2
#     Edge 94, Type (0, 0), BuildingBlock: XUDNAN_clean_linker_2, # of connection points: 2
#     Edge 95, Type (0, 0), BuildingBlock: XUDNAN_clean_linker_2, # of connection points: 2
#     Edge 96, Type (0, 0), BuildingBlock: XUDNAN_clean_linker_2, # of connection points: 2
#     Edge 97, Type (0, 0), BuildingBlock: XUDNAN_clean_linker_2, # of connection points: 2
#     Edge 98, Type (0, 0), BuildingBlock: XUDNAN_clean_linker_2, # of connection points: 2
#     Edge 99, Type (0, 0), BuildingBlock: XUDNAN_clean_linker_2, # of connection points: 2
#     Edge 100, Type (0, 0), BuildingBlock: XUDNAN_clean_linker_2, # of connection points: 2
#     Edge 101, Type (0, 0), BuildingBlock: XUDNAN_clean_linker_2, # of connection points: 2
#     Edge 102, Type (0, 0), BuildingBlock: XUDNAN_clean_linker_2, # of connection points: 2
#     Edge 103, Type (0, 0), BuildingBlock: XUDNAN_clean_linker_2, # of connection points: 2
#     Edge 104, Type (0, 0), BuildingBlock: XUDNAN_clean_linker_2, # of connection points: 2
#     Edge 105, Type (0, 0), BuildingBlock: XUDNAN_clean_linker_2, # of connection points: 2
#     Edge 106, Type (0, 0), BuildingBlock: XUDNAN_clean_linker_2, # of connection points: 2
#     Edge 107, Type (0, 0), BuildingBlock: XUDNAN_clean_linker_2, # of connection points: 2
#     Edge 108, Type (0, 0), BuildingBlock: XUDNAN_clean_linker_2, # of connection points: 2
#     Edge 109, Type (0, 0), BuildingBlock: XUDNAN_clean_linker_2, # of connection points: 2
#     Edge 110, Type (0, 0), BuildingBlock: XUDNAN_clean_linker_2, # of connection points: 2
#     Edge 111, Type (0, 0), BuildingBlock: XUDNAN_clean_linker_2, # of connection points: 2
#     Edge 112, Type (0, 0), BuildingBlock: XUDNAN_clean_linker_2, # of connection points: 2
#     Edge 113, Type (0, 0), BuildingBlock: XUDNAN_clean_linker_2, # of connection points: 2
#     Edge 114, Type (0, 0), BuildingBlock: XUDNAN_clean_linker_2, # of connection points: 2
#     Edge 115, Type (0, 0), BuildingBlock: XUDNAN_clean_linker_2, # of connection points: 2
#     Edge 116, Type (0, 0), BuildingBlock: XUDNAN_clean_linker_2, # of connection points: 2
#     Edge 117, Type (0, 0), BuildingBlock: XUDNAN_clean_linker_2, # of connection points: 2
#     Edge 118, Type (0, 0), BuildingBlock: XUDNAN_clean_linker_2, # of connection points: 2
#     Edge 119, Type (0, 0), BuildingBlock: XUDNAN_clean_linker_2, # of connection points: 2
#     Edge 120, Type (0, 0), BuildingBlock: XUDNAN_clean_linker_2, # of connection points: 2
#     Edge 121, Type (0, 0), BuildingBlock: XUDNAN_clean_linker_2, # of connection points: 2
#     Edge 122, Type (0, 0), BuildingBlock: XUDNAN_clean_linker_2, # of connection points: 2
#     Edge 123, Type (0, 0), BuildingBlock: XUDNAN_clean_linker_2, # of connection points: 2
#     Edge 124, Type (0, 0), BuildingBlock: XUDNAN_clean_linker_2, # of connection points: 2
#     Edge 125, Type (0, 0), BuildingBlock: XUDNAN_clean_linker_2, # of connection points: 2
#     Edge 126, Type (0, 0), BuildingBlock: XUDNAN_clean_linker_2, # of connection points: 2
#     Edge 127, Type (0, 0), BuildingBlock: XUDNAN_clean_linker_2, # of connection points: 2
#     Edge 128, Type (0, 0), BuildingBlock: XUDNAN_clean_linker_2, # of connection points: 2
#     Edge 129, Type (0, 0), BuildingBlock: XUDNAN_clean_linker_2, # of connection points: 2
#     Edge 130, Type (0, 0), BuildingBlock: XUDNAN_clean_linker_2, # of connection points: 2
#     Edge 131, Type (0, 0), BuildingBlock: XUDNAN_clean_linker_2, # of connection points: 2
#     Edge 132, Type (0, 0), BuildingBlock: XUDNAN_clean_linker_2, # of connection points: 2
#     Edge 133, Type (0, 0), BuildingBlock: XUDNAN_clean_linker_2, # of connection points: 2
#     Edge 134, Type (0, 0), BuildingBlock: XUDNAN_clean_linker_2, # of connection points: 2
#     Edge 135, Type (0, 0), BuildingBlock: XUDNAN_clean_linker_2, # of connection points: 2
#     Edge 136, Type (0, 0), BuildingBlock: XUDNAN_clean_linker_2, # of connection points: 2
#     Edge 137, Type (0, 0), BuildingBlock: XUDNAN_clean_linker_2, # of connection points: 2
#     Edge 138, Type (0, 0), BuildingBlock: XUDNAN_clean_linker_2, # of connection points: 2
#     Edge 139, Type (0, 0), BuildingBlock: XUDNAN_clean_linker_2, # of connection points: 2
#     Edge 140, Type (0, 0), BuildingBlock: XUDNAN_clean_linker_2, # of connection points: 2
#     Edge 141, Type (0, 0), BuildingBlock: XUDNAN_clean_linker_2, # of connection points: 2
#     Edge 142, Type (0, 0), BuildingBlock: XUDNAN_clean_linker_2, # of connection points: 2
#     Edge 143, Type (0, 0), BuildingBlock: XUDNAN_clean_linker_2, # of connection points: 2
# Relax obj value: 0.250
# Max RMSD: 0.261
# Mean RMSD: 0.261
data_MOF--net-sop--node1-NUHQUE_clean_sbu_2--edge1-XUDNAN_clean_linker_2
_symmetry_space_group_name_H-M    P1
_symmetry_Int_Tables_number       1
_symmetry_cell_setting            triclinic
loop_
_symmetry_equiv_pos_as_xyz
'x, y, z'
_cell_length_a     117.69663
_cell_length_b     26.520376
_cell_length_c     61.555079
_cell_angle_alpha  89.867391
_cell_angle_beta   90.056714
_cell_angle_gamma 89.90622
loop_
_atom_site_label
_atom_site_type_symbol
_atom_site_fract_x
_atom_site_fract_y
_atom_site_fract_z
_atom_type_partial_charge
O0 O 0.10898 0.34903 0.05061 0.0
Tb1 Tb 0.10759 0.39936 0.07802 0.0
Eu2 Eu 0.0811 0.43372 0.08155 0.0
C3 C 0.10058 0.31824 0.04616 0.0
O4 O 0.09099 0.32275 0.05689 0.0
C5 C 0.09111 0.32857 0.10805 0.0
O6 O 0.07284 0.48727 0.10527 0.0
C7 C 0.0684 0.42608 0.04629 0.0
C8 C 0.07905 0.50263 0.12178 0.0
O9 O 0.08881 0.48003 0.12544 0.0
C10 C 0.10222 0.51262 0.07078 0.0
C11 C 0.06125 0.44789 1.02784 0.0
C12 C 0.06374 0.43631 1.00566 0.0
C13 C 0.05648 0.45198 0.98824 0.0
C14 C 0.04673 0.48038 0.9938 0.0
C15 C 0.04381 0.49167 1.01549 0.0
C16 C 0.0511 0.47503 1.03234 0.0
O17 O 0.10159 0.34038 0.10169 0.0
O18 O 0.08239 0.35785 0.1017 0.0
O19 O 0.12605 0.40379 0.07869 0.0
O20 O 0.11605 0.44414 0.10214 0.0
C21 C 0.12619 0.43753 0.09413 0.0
O22 O 0.09274 0.50493 0.08183 0.0
O23 O 0.10666 0.47306 0.06111 0.0
O24 O 0.06443 0.42896 0.06626 0.0
O25 O 0.07963 0.42631 0.04568 0.0
H26 H 0.07117 0.41364 1.00215 0.0
H27 H 0.04121 0.4942 0.98106 0.0
H28 H 0.04885 0.48347 0.049 0.0
O29 O 0.13725 0.9997 0.07095 0.0
Tb30 Tb 0.14997 0.95607 0.0879 0.0
Eu31 Eu 0.17452 0.90182 0.07718 0.0
C32 C 0.13889 1.01123 0.05042 0.0
O33 O 0.14806 0.99451 0.04062 0.0
C34 C 0.17101 1.01979 0.09845 0.0
O35 O 0.18203 0.84458 0.10041 0.0
C36 C 0.18793 0.89777 0.04294 0.0
C37 C 0.17595 0.82458 0.11613 0.0
O38 O 0.16559 0.84094 0.11953 0.0
C39 C 0.14917 0.83972 0.07371 0.0
C40 C 0.19657 0.89323 1.02449 0.0
C41 C 0.1939 0.90147 1.00214 0.0
C42 C 0.20207 0.89279 0.98515 0.0
C43 C 0.21304 0.87551 0.99158 0.0
C44 C 0.21609 0.86913 1.01361 0.0
C45 C 0.20775 0.87765 1.02965 0.0
O46 O 0.16157 1.02048 0.08695 0.0
O47 O 0.17695 0.97639 0.09873 0.0
O48 O 0.14077 0.97017 0.11779 0.0
O49 O 0.15686 0.93255 0.11896 0.0
C50 C 0.14857 0.9509 0.13043 0.0
O51 O 0.16051 0.83772 0.07486 0.0
O52 O 0.14397 0.8839 0.07469 0.0
O53 O 0.19092 0.88559 0.06284 0.0
O54 O 0.1774 0.91491 0.04146 0.0
H55 H 0.18545 0.91459 0.9982 0.0
H56 H 0.21945 0.86724 0.97957 0.0
H57 H 0.21002 0.87138 0.0465 0.0
O58 O 0.09297 0.97308 0.26834 0.0
Tb59 Tb 0.10536 0.9592 0.2429 0.0
Eu60 Eu 0.08196 0.90249 0.23509 0.0
C61 C 0.09081 1.01807 0.27672 0.0
O62 O 0.08378 1.02131 0.2932 0.0
C63 C 0.09031 1.00877 0.20628 0.0
O64 O 0.07538 0.84912 0.20944 0.0
C65 C 0.06757 0.89631 0.26794 0.0
C66 C 0.08226 0.83113 0.19452 0.0
O67 O 0.09264 0.84905 0.19323 0.0
C68 C 0.10672 0.8384 0.23669 0.0
C69 C 0.05902 0.8924 0.28647 0.0
C70 C 0.06209 0.90129 0.30866 0.0
C71 C 0.05418 0.89437 0.32611 0.0
C72 C 0.04316 0.87759 0.32043 0.0
C73 C 0.03966 0.87048 0.29873 0.0
C74 C 0.0477 0.87729 0.28196 0.0
O75 O 0.1008 0.99859 0.21245 0.0
O76 O 0.08186 0.98072 0.21498 0.0
O77 O 0.11617 1.02353 0.24943 0.0
O78 O 0.12187 0.95285 0.25937 0.0
C79 C 0.12459 1.00017 0.25866 0.0
O80 O 0.09547 0.83698 0.23914 0.0
O81 O 0.11167 0.88293 0.23427 0.0
O82 O 0.06453 0.89378 0.24739 0.0
O83 O 0.0785 0.90374 0.27066 0.0
H84 H 0.07064 0.91382 0.31216 0.0
H85 H 0.03708 0.8689 0.33302 0.0
H86 H 0.04508 0.87122 0.2653 0.0
O87 O 0.13521 0.35099 0.22212 0.0
Tb88 Tb 0.15017 0.39894 0.21826 0.0
Eu89 Eu 0.17584 0.43255 0.23156 0.0
C90 C 0.13481 0.32178 0.23952 0.0
O91 O 0.143 0.32585 0.25393 0.0
C92 C 0.16973 0.32446 0.20238 0.0
O93 O 0.18323 0.48614 0.20676 0.0
C94 C 0.1892 0.43526 0.26586 0.0
C95 C 0.18493 0.53337 0.21228 0.0
O96 O 0.18349 0.54675 0.23263 0.0
C97 C 0.15165 0.50345 0.23937 0.0
C98 C 0.19764 0.44115 0.28453 0.0
C99 C 0.19493 0.4276 0.30642 0.0
C100 C 0.20247 0.43835 0.3241 0.0
C101 C 0.21273 0.46352 0.31908 0.0
C102 C 0.21577 0.47721 0.2977 0.0
C103 C 0.20822 0.4653 0.28062 0.0
O104 O 0.15901 0.32845 0.20883 0.0
O105 O 0.17728 0.35968 0.20879 0.0
O106 O 0.14541 0.44333 0.18998 0.0
O107 O 0.16295 0.43848 0.19974 0.0
C108 C 0.15578 0.45967 0.1866 0.0
O109 O 0.1627 0.49982 0.23452 0.0
O110 O 0.14568 0.46119 0.24046 0.0
O111 O 0.1924 0.44588 0.24592 0.0
O112 O 0.1786 0.41916 0.26724 0.0
H113 H 0.1869 0.4092 0.3096 0.0
H114 H 0.21844 0.47409 0.33206 0.0
H115 H 0.21041 0.47708 0.26429 0.0
O116 O 0.88685 0.74558 0.99604 0.0
Tb117 Tb 0.89806 0.69201 0.9808 0.0
Eu118 Eu 0.9241 0.65715 0.98455 0.0
C119 C 0.89016 0.76715 1.0142 0.0
O120 O 0.89897 0.74829 1.02456 0.0
C121 C 0.91573 0.76609 0.95746 0.0
O122 O 0.93016 0.60444 0.95798 0.0
C123 C 0.93805 0.65256 1.01795 0.0
C124 C 0.93223 0.55676 0.96274 0.0
O125 O 0.93189 0.54249 0.98319 0.0
C126 C 0.90201 0.59097 1.00052 0.0
C127 C 0.94671 0.64862 0.03637 0.0
C128 C 0.94387 0.65527 0.05873 0.0
C129 C 0.95198 0.64666 0.07582 0.0
C130 C 0.96306 0.6308 0.06956 0.0
C131 C 0.96625 0.62577 0.04757 0.0
C132 C 0.95798 0.6345 1.03134 0.0
O133 O 0.90506 0.75618 0.96244 0.0
O134 O 0.92406 0.73535 0.96486 0.0
O135 O 0.88521 0.64965 0.96367 0.0
O136 O 0.90287 0.64074 0.95519 0.0
C137 C 0.8926 0.62367 0.95239 0.0
O138 O 0.91124 0.59022 0.9883 0.0
O139 O 0.89867 0.63607 1.00683 0.0
O140 O 0.94109 0.6448 0.99764 0.0
O141 O 0.9273 0.66607 1.02014 0.0
H142 H 0.93532 0.66711 0.06264 0.0
H143 H 0.96942 0.62254 0.08173 0.0
H144 H 0.96037 0.6293 1.01449 0.0
O145 O 0.87354 0.12419 0.96613 0.0
Tb146 Tb 0.85829 0.1662 0.95861 0.0
Eu147 Eu 0.83351 0.18704 0.98156 0.0
C148 C 0.8768 0.12142 0.98659 0.0
O149 O 0.87305 0.15528 1.00037 0.0
C150 C 0.8413 0.07848 0.95398 0.0
O151 O 0.82478 0.24444 0.95931 0.0
C152 C 0.81984 0.17331 1.01523 0.0
C153 C 0.83037 0.28219 0.95028 0.0
O154 O 0.84142 0.28504 0.95234 0.0
C155 C 0.85686 0.2649 0.98736 0.0
C156 C 0.81275 0.19557 0.03362 0.0
C157 C 0.81497 0.18437 0.05593 0.0
C158 C 0.80747 0.20036 0.07294 0.0
C159 C 0.79757 0.22755 0.06679 0.0
C160 C 0.79504 0.2386 0.04489 0.0
C161 C 0.80273 0.22284 1.02865 0.0
O162 O 0.85186 0.08886 0.95922 0.0
O163 O 0.83325 0.11241 0.95937 0.0
O164 O 0.8613 0.18521 0.92474 0.0
O165 O 0.84435 0.18867 0.93774 0.0
C166 C 0.85061 0.19574 0.92059 0.0
O167 O 0.84594 0.25358 0.99137 0.0
O168 O 0.86333 0.23352 0.97642 0.0
O169 O 0.81651 0.18219 0.99521 0.0
O170 O 0.83099 0.16913 1.01662 0.0
H171 H 0.82237 0.16189 0.05988 0.0
H172 H 0.79186 0.24185 0.07908 0.0
H173 H 0.80066 0.23065 1.01183 0.0
O174 O 0.90986 0.12775 0.80537 0.0
Tb175 Tb 0.8975 0.14623 0.8303 0.0
Eu176 Eu 0.92385 0.18682 0.82898 0.0
C177 C 0.9141 0.08272 0.801 0.0
O178 O 0.92205 0.0792 0.78611 0.0
C179 C 0.91432 0.08295 0.85969 0.0
O180 O 0.93153 0.24769 0.84994 0.0
C181 C 0.93756 0.17682 0.79507 0.0
C182 C 0.9277 0.25813 0.86948 0.0
O183 O 0.92005 0.22854 0.87836 0.0
C184 C 0.90096 0.26301 0.83085 0.0
C185 C 0.94503 0.19776 0.77711 0.0
C186 C 0.94247 0.18732 0.7549 0.0
C187 C 0.94976 0.20278 0.73763 0.0
C188 C 0.95966 0.22978 0.74331 0.0
C189 C 0.96256 0.24045 0.76511 0.0
C190 C 0.95524 0.22383 0.78187 0.0
O191 O 0.90354 0.09297 0.85519 0.0
O192 O 0.92266 0.11202 0.85108 0.0
O193 O 0.88475 0.15063 0.80442 0.0
O194 O 0.88064 0.11352 0.83374 0.0
C195 C 0.87674 0.1271 0.81479 0.0
O196 O 0.91124 0.25363 0.82273 0.0
O197 O 0.89531 0.2257 0.84003 0.0
O198 O 0.94101 0.1785 0.8154 0.0
O199 O 0.92647 0.1806 0.79345 0.0
H200 H 0.93491 0.16578 0.75118 0.0
H201 H 0.96524 0.24317 0.73059 0.0
H202 H 0.95745 0.23175 0.7986 0.0
O203 O 0.87428 0.7309 0.83391 0.0
Tb204 Tb 0.86071 0.6794 0.84198 0.0
Eu205 Eu 0.83225 0.65576 0.82848 0.0
C206 C 0.87151 0.77585 0.82669 0.0
O207 O 0.86077 0.78575 0.82265 0.0
C208 C 0.84147 0.75602 0.86052 0.0
O209 O 0.82278 0.59966 0.84938 0.0
C210 C 0.82045 0.66838 0.79229 0.0
C211 C 0.82576 0.59161 0.8697 0.0
O212 O 0.83337 0.62128 0.87861 0.0
C213 C 0.85462 0.58824 0.81694 0.0
C214 C 0.81364 0.64665 0.77344 0.0
C215 C 0.81649 0.65773 0.75136 0.0
C216 C 0.8094 0.64248 0.73366 0.0
C217 C 0.79946 0.61511 0.7388 0.0
C218 C 0.79626 0.60398 0.76039 0.0
C219 C 0.80339 0.62009 0.77749 0.0
O220 O 0.85211 0.7397 0.86049 0.0
O221 O 0.83333 0.73124 0.8494 0.0
O222 O 0.87405 0.63297 0.85569 0.0
O223 O 0.85669 0.61734 0.86374 0.0
C224 C 0.86714 0.60133 0.865 0.0
O225 O 0.84449 0.58635 0.82619 0.0
O226 O 0.85841 0.63416 0.81296 0.0
O227 O 0.81605 0.66528 0.81189 0.0
O228 O 0.83166 0.66664 0.79264 0.0
H229 H 0.82405 0.6797 0.74809 0.0
H230 H 0.79403 0.60208 0.72579 0.0
H231 H 0.80091 0.61176 0.79406 0.0
O232 O 0.12078 0.88358 0.61788 0.0
Tb233 Tb 0.10546 0.92721 0.61446 0.0
Eu234 Eu 0.08351 0.93805 0.57999 0.0
C235 C 0.12469 0.86316 0.5999 0.0
O236 O 0.12207 0.88491 0.58136 0.0
C237 C 0.08987 0.83192 0.61142 0.0
O238 O 0.07594 0.99739 0.60265 0.0
C239 C 0.0694 0.93896 0.54662 0.0
C240 C 0.08237 1.03247 0.61148 0.0
O241 O 0.09339 1.02816 0.61044 0.0
C242 C 0.10792 1.01111 0.57758 0.0
C243 C 0.06052 0.94151 0.52851 0.0
C244 C 0.06309 0.93361 0.50609 0.0
C245 C 0.05483 0.94223 0.4892 0.0
C246 C 0.04388 0.95922 0.49584 0.0
C247 C 0.04092 0.96515 0.51789 0.0
C248 C 0.04933 0.9565 0.53385 0.0
O249 O 0.10036 0.84826 0.61305 0.0
O250 O 0.0822 0.86024 0.6004 0.0
O251 O 0.10587 0.96158 0.64659 0.0
O252 O 0.08988 0.9411 0.63256 0.0
C253 C 0.09484 0.96158 0.64927 0.0
O254 O 0.09768 0.99741 0.56989 0.0
O255 O 0.11263 0.98619 0.59375 0.0
O256 O 0.06679 0.95315 0.56642 0.0
O257 O 0.07979 0.9205 0.54501 0.0
H258 H 0.07157 0.92121 0.50202 0.0
H259 H 0.03741 0.96774 0.48396 0.0
H260 H 0.04714 0.96256 0.55074 0.0
O261 O 0.13552 0.47113 0.59302 0.0
Tb262 Tb 0.15135 0.43108 0.59068 0.0
Eu263 Eu 0.17651 0.40346 0.57787 0.0
C264 C 0.13294 0.50213 0.57707 0.0
O265 O 0.13829 0.49694 0.55847 0.0
C266 C 0.16889 0.51082 0.60626 0.0
O267 O 0.18213 0.32919 0.59267 0.0
C268 C 0.18988 0.41739 0.54402 0.0
C269 C 0.18592 0.3181 0.61222 0.0
O270 O 0.18914 0.35411 0.62545 0.0
C271 C 0.15303 0.33751 0.565 0.0
C272 C 0.19736 0.39628 0.52591 0.0
C273 C 0.19464 0.40195 0.50342 0.0
C274 C 0.20244 0.3878 0.48659 0.0
C275 C 0.21313 0.36778 0.49311 0.0
C276 C 0.21631 0.36391 0.51515 0.0
C277 C 0.20827 0.3772 0.53119 0.0
O278 O 0.15878 0.50529 0.5974 0.0
O279 O 0.17667 0.47408 0.60274 0.0
O280 O 0.14644 0.37928 0.61645 0.0
O281 O 0.16406 0.39326 0.61063 0.0
C282 C 0.15682 0.36714 0.62177 0.0
O283 O 0.16352 0.33608 0.5731 0.0
O284 O 0.14838 0.38236 0.56305 0.0
O285 O 0.19339 0.41105 0.5642 0.0
O286 O 0.17865 0.41888 0.54252 0.0
H287 H 0.1866 0.41917 0.49918 0.0
H288 H 0.21927 0.35627 0.48104 0.0
H289 H 0.21072 0.37403 0.5481 0.0
O290 O 0.11472 0.49679 0.75187 0.0
Tb291 Tb 0.10718 0.44152 0.73065 0.0
Eu292 Eu 0.07968 0.40415 0.732 0.0
C293 C 0.11141 0.54402 0.7519 0.0
O294 O 0.10128 0.55591 0.74453 0.0
C295 C 0.08846 0.50792 0.70377 0.0
O296 O 0.07095 0.35658 0.70699 0.0
C297 C 0.06721 0.40087 0.76738 0.0
C298 C 0.07617 0.34922 0.68846 0.0
O299 O 0.0855 0.37481 0.68448 0.0
C300 C 0.10132 0.33428 0.74259 0.0
C301 C 0.05902 0.39649 0.7865 0.0
C302 C 0.06216 0.40365 0.80871 0.0
C303 C 0.05419 0.39597 0.82612 0.0
C304 C 0.04304 0.3802 0.82038 0.0
C305 C 0.03962 0.37473 0.79858 0.0
C306 C 0.04768 0.38262 0.78204 0.0
O307 O 0.09923 0.49537 0.70738 0.0
O308 O 0.07999 0.48108 0.71269 0.0
O309 O 0.12533 0.43164 0.72717 0.0
O310 O 0.11416 0.38725 0.70773 0.0
C311 C 0.12467 0.39424 0.71368 0.0
O312 O 0.09222 0.33627 0.73016 0.0
O313 O 0.10395 0.37718 0.75208 0.0
O314 O 0.06336 0.39489 0.74748 0.0
O315 O 0.07818 0.41127 0.7683 0.0
H316 H 0.07076 0.41541 0.81227 0.0
H317 H 0.03681 0.3725 0.83283 0.0
H318 H 0.04503 0.37716 0.76535 0.0
O319 O 0.15728 0.88678 0.75362 0.0
Tb320 Tb 0.14558 0.8985 0.72684 0.0
Eu321 Eu 0.17165 0.93652 0.73229 0.0
C322 C 0.15918 0.84295 0.76303 0.0
O323 O 0.16678 0.83981 0.7786 0.0
C324 C 0.16364 0.82971 0.70257 0.0
O325 O 0.17755 0.99207 0.70675 0.0
C326 C 0.18631 0.94041 0.76474 0.0
C327 C 0.17227 0.99571 0.68798 0.0
O328 O 0.16416 0.96335 0.68347 0.0
C329 C 0.149 1.01361 0.72765 0.0
C330 C 0.19516 0.94346 0.78276 0.0
C331 C 0.19262 0.93575 0.80524 0.0
C332 C 0.20102 0.94279 0.82196 0.0
C333 C 0.21201 0.95847 0.81516 0.0
C334 C 0.21485 0.9644 0.79305 0.0
C335 C 0.20636 0.95701 0.77721 0.0
O336 O 0.15273 0.84257 0.70392 0.0
O337 O 0.17152 0.85732 0.71332 0.0
O338 O 0.13297 0.90571 0.75258 0.0
O339 O 0.12827 0.86852 0.7237 0.0
C340 C 0.12459 0.88438 0.74248 0.0
O341 O 0.15861 1.00223 0.73809 0.0
O342 O 0.14399 0.97766 0.71642 0.0
O343 O 0.18911 0.94428 0.7441 0.0
O344 O 0.1754 0.93285 0.76787 0.0
H345 H 0.18411 0.9241 0.80948 0.0
H346 H 0.21858 0.96591 0.82695 0.0
H347 H 0.2085 0.96296 0.76028 0.0
O348 O 0.88468 0.23651 0.45839 0.0
Tb349 Tb 0.90024 0.19291 0.45554 0.0
Eu350 Eu 0.92659 0.15904 0.48238 0.0
C351 C 0.88273 0.25846 0.47714 0.0
O352 O 0.8898 0.25038 0.4933 0.0
C353 C 0.91919 0.26999 0.45853 0.0
O354 O 0.93531 0.10086 0.46106 0.0
C355 C 0.93926 0.16752 0.51768 0.0
C356 C 0.92918 0.07856 0.44604 0.0
O357 O 0.9186 0.09272 0.44357 0.0
C358 C 0.90221 0.08573 0.4801 0.0
C359 C 0.94607 0.14542 0.53651 0.0
C360 C 0.94324 0.15669 0.55852 0.0
C361 C 0.95031 0.14139 0.57623 0.0
C362 C 0.96025 0.11377 0.57124 0.0
C363 C 0.96345 0.10219 0.54971 0.0
C364 C 0.95633 0.11849 0.53253 0.0
O365 O 0.90891 0.26112 0.46593 0.0
O366 O 0.92709 0.23417 0.46141 0.0
O367 O 0.8976 0.18557 0.42052 0.0
O368 O 0.91442 0.18362 0.43325 0.0
C369 C 0.90837 0.18147 0.41575 0.0
O370 O 0.91316 0.09357 0.48525 0.0
O371 O 0.89575 0.1211 0.47123 0.0
O372 O 0.9432 0.16135 0.49789 0.0
O373 O 0.92806 0.17065 0.5181 0.0
H374 H 0.9357 0.17891 0.56174 0.0
H375 H 0.96565 0.10085 0.58435 0.0
H376 H 0.95881 0.11006 0.51599 0.0
O377 O 0.84837 0.61791 0.50647 0.0
Tb378 Tb 0.86139 0.63539 0.48269 0.0
Eu379 Eu 0.83583 0.68535 0.48022 0.0
C380 C 0.84365 0.57345 0.51005 0.0
O381 O 0.83517 0.57094 0.52387 0.0
C382 C 0.845 0.5779 0.45151 0.0
O383 O 0.82881 0.74277 0.45633 0.0
C384 C 0.82178 0.67968 0.51389 0.0
C385 C 0.83522 0.75936 0.44028 0.0
O386 O 0.84508 0.73762 0.43677 0.0
C387 C 0.85941 0.75276 0.47637 0.0
C388 C 0.81426 0.69959 0.53214 0.0
C389 C 0.81697 0.68886 0.55434 0.0
C390 C 0.80962 0.70295 0.57178 0.0
C391 C 0.79954 0.72894 0.56628 0.0
C392 C 0.79646 0.73992 0.54458 0.0
C393 C 0.80383 0.72457 0.52764 0.0
O394 O 0.85572 0.5849 0.45708 0.0
O395 O 0.83678 0.6089 0.45926 0.0
O396 O 0.87448 0.64472 0.50774 0.0
O397 O 0.87742 0.59441 0.48182 0.0
C398 C 0.88172 0.61293 0.49958 0.0
O399 O 0.84913 0.75025 0.48521 0.0
O400 O 0.86403 0.71086 0.4689 0.0
O401 O 0.81848 0.68317 0.4935 0.0
O402 O 0.83289 0.68008 0.51577 0.0
H403 H 0.82468 0.66813 0.55791 0.0
H404 H 0.79393 0.74138 0.57912 0.0
H405 H 0.80147 0.7326 0.51097 0.0
O406 O 0.88291 0.59747 0.3622 0.0
Tb407 Tb 0.89784 0.64537 0.36047 0.0
Eu408 Eu 0.92182 0.68308 0.33028 0.0
C409 C 0.87952 0.57774 0.34372 0.0
O410 O 0.88486 0.5905 0.32581 0.0
C411 C 0.91669 0.56948 0.35408 0.0
O412 O 0.92964 0.73501 0.35565 0.0
C413 C 0.93538 0.68959 0.29624 0.0
C414 C 0.92326 0.76517 0.36746 0.0
O415 O 0.91218 0.76173 0.3661 0.0
C416 C 0.89606 0.74618 0.33141 0.0
C417 C 0.944 0.6962 0.27787 0.0
C418 C 0.94183 0.68369 0.25567 0.0
C419 C 0.9499 0.69473 0.23874 0.0
C420 C 0.96019 0.7187 0.24496 0.0
C421 C 0.96263 0.73096 0.26673 0.0
C422 C 0.95452 0.71917 0.28282 0.0
O423 O 0.90606 0.57756 0.34874 0.0
O424 O 0.92424 0.60581 0.34954 0.0
O425 O 0.8977 0.65684 0.39556 0.0
O426 O 0.91332 0.66318 0.37833 0.0
C427 C 0.90858 0.66558 0.39732 0.0
O428 O 0.90692 0.74203 0.32494 0.0
O429 O 0.89108 0.71107 0.34331 0.0
O430 O 0.93781 0.70573 0.31584 0.0
O431 O 0.92538 0.66724 0.29499 0.0
H432 H 0.93385 0.66577 0.25172 0.0
H433 H 0.96624 0.73046 0.23277 0.0
H434 H 0.95642 0.72873 0.29953 0.0
O435 O 0.84647 0.22377 0.30043 0.0
Tb436 Tb 0.85895 0.20024 0.3245 0.0
Eu437 Eu 0.83248 0.16156 0.32555 0.0
C438 C 0.84228 0.26963 0.29743 0.0
O439 O 0.83428 0.27569 0.28276 0.0
C440 C 0.84313 0.26159 0.35591 0.0
O441 O 0.82602 0.10455 0.35009 0.0
C442 C 0.81783 0.17069 0.29306 0.0
C443 C 0.83306 0.08708 0.36498 0.0
O444 O 0.84304 0.10859 0.36718 0.0
C445 C 0.8548 0.08282 0.32551 0.0
C446 C 0.8102 0.1516 0.27484 0.0
C447 C 0.81338 0.15815 0.25259 0.0
C448 C 0.80582 0.14656 0.23515 0.0
C449 C 0.79501 0.12751 0.24072 0.0
C450 C 0.79132 0.12281 0.26244 0.0
C451 C 0.79905 0.13405 0.27936 0.0
O452 O 0.85371 0.24769 0.35189 0.0
O453 O 0.83442 0.23706 0.34631 0.0
O454 O 0.87202 0.19759 0.29911 0.0
O455 O 0.87512 0.23923 0.32763 0.0
C456 C 0.87931 0.22631 0.30891 0.0
O457 O 0.84434 0.09308 0.31856 0.0
O458 O 0.86121 0.11981 0.33299 0.0
O459 O 0.81486 0.16485 0.31355 0.0
O460 O 0.82891 0.17149 0.29054 0.0
H461 H 0.82161 0.1742 0.24896 0.0
H462 H 0.7892 0.11639 0.22798 0.0
H463 H 0.79617 0.13151 0.29604 0.0
O464 O 0.60573 0.32415 0.57148 0.0
Tb465 Tb 0.60994 0.38726 0.59274 0.0
Eu466 Eu 0.58494 0.43747 0.58242 0.0
C467 C 0.60775 0.27956 0.58039 0.0
O468 O 0.60807 0.27703 0.60165 0.0
C469 C 0.58987 0.33951 0.61814 0.0
O470 O 0.57675 0.48613 0.60808 0.0
C471 C 0.57115 0.44194 0.54857 0.0
C472 C 0.58269 0.50249 0.62465 0.0
O473 O 0.59327 0.48752 0.62685 0.0
C474 C 0.60906 0.50695 0.58661 0.0
C475 C 0.56243 0.44724 0.53021 0.0
C476 C 0.56471 0.43471 0.50809 0.0
C477 C 0.55662 0.44452 0.49105 0.0
C478 C 0.54612 0.46716 0.49703 0.0
C479 C 0.54358 0.4799 0.51874 0.0
C480 C 0.55176 0.46926 0.53497 0.0
O481 O 0.60041 0.35624 0.62048 0.0
O482 O 0.5833 0.36027 0.60249 0.0
O483 O 0.62358 0.38859 0.56931 0.0
O484 O 0.62685 0.36031 0.60154 0.0
C485 C 0.63119 0.36902 0.58219 0.0
O486 O 0.59883 0.50155 0.57742 0.0
O487 O 0.61342 0.46837 0.59732 0.0
O488 O 0.56865 0.45746 0.56822 0.0
O489 O 0.58133 0.4211 0.54722 0.0
H490 H 0.57283 0.41776 0.50423 0.0
H491 H 0.54004 0.47755 0.48462 0.0
H492 H 0.54981 0.47903 0.55163 0.0
O493 O 0.66263 0.97422 0.55441 0.0
Tb494 Tb 0.65151 0.9566 0.5815 0.0
Eu495 Eu 0.67742 0.91761 0.57518 0.0
C496 C 0.66065 1.01013 0.54 0.0
O497 O 0.66732 1.01371 0.52298 0.0
C498 C 0.66987 1.01929 0.60743 0.0
O499 O 0.6854 0.86484 0.59938 0.0
C500 C 0.69153 0.9235 0.54179 0.0
C501 C 0.67932 0.85045 0.61609 0.0
O502 O 0.66934 0.87136 0.61927 0.0
C503 C 0.65469 0.83857 0.58013 0.0
C504 C 0.69927 0.9023 0.52424 0.0
C505 C 0.6966 0.90747 0.5018 0.0
C506 C 0.70447 0.89378 0.48513 0.0
C507 C 0.71523 0.87476 0.4917 0.0
C508 C 0.71834 0.87092 0.51382 0.0
C509 C 0.71019 0.88398 0.52978 0.0
O510 O 0.6591 1.00474 0.60693 0.0
O511 O 0.67754 0.99465 0.59517 0.0
O512 O 0.6371 0.95713 0.55902 0.0
O513 O 0.63597 0.99963 0.5878 0.0
C514 C 0.63063 0.98724 0.57008 0.0
O515 O 0.66483 0.84857 0.57114 0.0
O516 O 0.64908 0.87586 0.58958 0.0
O517 O 0.69465 0.9195 0.56223 0.0
O518 O 0.68041 0.92461 0.53956 0.0
H519 H 0.68852 0.92416 0.49743 0.0
H520 H 0.72142 0.86402 0.47958 0.0
H521 H 0.71254 0.88119 0.54676 0.0
O522 O 0.61781 0.96806 0.6987 0.0
Tb523 Tb 0.60227 0.92797 0.7042 0.0
Eu524 Eu 0.58039 0.90574 0.7369 0.0
C525 C 0.62257 0.99074 0.7153 0.0
O526 O 0.61934 0.97811 0.73501 0.0
C527 C 0.58613 1.01677 0.71064 0.0
O528 O 0.57269 0.84744 0.714 0.0
C529 C 0.56726 0.90504 0.77142 0.0
C530 C 0.57931 0.82107 0.70107 0.0
O531 O 0.59015 0.83168 0.70053 0.0
C532 C 0.60471 0.83278 0.73585 0.0
C533 C 0.55876 0.90251 0.79002 0.0
C534 C 0.56156 0.91024 0.81236 0.0
C535 C 0.55336 0.90238 0.82939 0.0
C536 C 0.54232 0.88626 0.82299 0.0
C537 C 0.53925 0.88073 0.80101 0.0
C538 C 0.54754 0.88852 0.78495 0.0
O539 O 0.59682 1.00378 0.71344 0.0
O540 O 0.57824 0.98303 0.71683 0.0
O541 O 0.6024 0.90785 0.66997 0.0
O542 O 0.58656 0.92313 0.6852 0.0
C543 C 0.59144 0.91121 0.66702 0.0
O544 O 0.59449 0.84415 0.74419 0.0
O545 O 0.60937 0.86214 0.72107 0.0
O546 O 0.56416 0.89074 0.75188 0.0
O547 O 0.57772 0.92286 0.7723 0.0
H548 H 0.5701 0.92205 0.81626 0.0
H549 H 0.53589 0.87811 0.83496 0.0
H550 H 0.54517 0.88266 0.76813 0.0
O551 O 0.64004 0.3754 0.69295 0.0
Tb552 Tb 0.65458 0.42118 0.70024 0.0
Eu553 Eu 0.67681 0.44647 0.7313 0.0
C554 C 0.63523 0.35261 0.70952 0.0
O555 O 0.63748 0.36924 0.72916 0.0
C556 C 0.67183 0.33528 0.70408 0.0
O557 O 0.68355 0.50649 0.70795 0.0
C558 C 0.69058 0.4486 0.76498 0.0
C559 C 0.67659 0.53741 0.69766 0.0
O560 O 0.66562 0.53119 0.69975 0.0
C561 C 0.65128 0.51069 0.73391 0.0
C562 C 0.69923 0.45127 0.78335 0.0
C563 C 0.69642 0.44395 0.80567 0.0
C564 C 0.70456 0.45209 0.82277 0.0
C565 C 0.71565 0.46775 0.81636 0.0
C566 C 0.71879 0.47287 0.79436 0.0
C567 C 0.71049 0.46497 0.77823 0.0
O568 O 0.66105 0.34568 0.70731 0.0
O569 O 0.67943 0.37002 0.71065 0.0
O570 O 0.6552 0.44961 0.66698 0.0
O571 O 0.67062 0.43771 0.68418 0.0
C572 C 0.66627 0.45267 0.66588 0.0
O573 O 0.66209 0.50417 0.74032 0.0
O574 O 0.64655 0.47947 0.72003 0.0
O575 O 0.69319 0.46495 0.74546 0.0
O576 O 0.68039 0.42813 0.76619 0.0
H577 H 0.68786 0.43233 0.80943 0.0
H578 H 0.7221 0.47574 0.82831 0.0
H579 H 0.71284 0.47037 0.76137 0.0
O580 O 0.41134 0.71454 0.50751 0.0
Tb581 Tb 0.39886 0.70211 0.48212 0.0
Eu582 Eu 0.42378 0.65318 0.48499 0.0
C583 C 0.41497 0.75902 0.514 0.0
O584 O 0.42305 0.76124 0.52868 0.0
C585 C 0.41655 0.75804 0.45342 0.0
O586 O 0.43103 0.60197 0.45958 0.0
C587 C 0.43808 0.64595 0.518 0.0
C588 C 0.42477 0.58781 0.44309 0.0
O589 O 0.41474 0.60845 0.44016 0.0
C590 C 0.40008 0.58427 0.47859 0.0
C591 C 0.44663 0.64118 0.53652 0.0
C592 C 0.44351 0.64989 0.55864 0.0
C593 C 0.45133 0.64234 0.57617 0.0
C594 C 0.46237 0.62532 0.57067 0.0
C595 C 0.46596 0.61837 0.54901 0.0
C596 C 0.45797 0.62567 0.53212 0.0
O597 O 0.40565 0.7476 0.45558 0.0
O598 O 0.42431 0.73126 0.46497 0.0
O599 O 0.38468 0.69549 0.50471 0.0
O600 O 0.3837 0.74983 0.47975 0.0
C601 C 0.37822 0.72974 0.49598 0.0
O602 O 0.41019 0.58773 0.48832 0.0
O603 O 0.39566 0.62561 0.47003 0.0
O604 O 0.4411 0.64218 0.49751 0.0
O605 O 0.42721 0.65546 0.52066 0.0
H606 H 0.43497 0.66277 0.56204 0.0
H607 H 0.46839 0.61642 0.58339 0.0
H608 H 0.46063 0.61978 0.51548 0.0
O609 O 0.37358 0.10477 0.47262 0.0
Tb610 Tb 0.35825 0.14872 0.46817 0.0
Eu611 Eu 0.33087 0.18228 0.47848 0.0
C612 C 0.37376 0.07402 0.48936 0.0
O613 O 0.36524 0.07561 0.50313 0.0
C614 C 0.33951 0.07119 0.45471 0.0
O615 O 0.32002 0.23688 0.45863 0.0
C616 C 0.31921 0.16904 0.51478 0.0
C617 C 0.32485 0.26308 0.44301 0.0
O618 O 0.33568 0.25687 0.43943 0.0
C619 C 0.35439 0.25555 0.48547 0.0
C620 C 0.31213 0.19108 0.53317 0.0
C621 C 0.31482 0.18053 0.55536 0.0
C622 C 0.30753 0.19577 0.5727 0.0
C623 C 0.29759 0.22278 0.56719 0.0
C624 C 0.29452 0.23348 0.54551 0.0
C625 C 0.30181 0.21718 0.52866 0.0
O626 O 0.34938 0.07601 0.46478 0.0
O627 O 0.33182 0.10862 0.45637 0.0
O628 O 0.36512 0.18353 0.43911 0.0
O629 O 0.34713 0.17505 0.44253 0.0
C630 C 0.35521 0.19252 0.43044 0.0
O631 O 0.34357 0.25077 0.47925 0.0
O632 O 0.36026 0.21414 0.48973 0.0
O633 O 0.31482 0.17006 0.49516 0.0
O634 O 0.33041 0.17279 0.51445 0.0
H635 H 0.3224 0.15891 0.55899 0.0
H636 H 0.29205 0.23597 0.58001 0.0
H637 H 0.29943 0.22506 0.51199 0.0
O638 O 0.39098 0.07525 0.31554 0.0
Tb639 Tb 0.40009 0.12865 0.33564 0.0
Eu640 Eu 0.42651 0.18478 0.33372 0.0
C641 C 0.39686 0.04855 0.30155 0.0
O642 O 0.40657 0.06698 0.29464 0.0
C643 C 0.42092 0.07059 0.35496 0.0
O644 O 0.43318 0.242 0.35752 0.0
C645 C 0.43998 0.18806 0.29973 0.0
C646 C 0.42657 0.25782 0.37331 0.0
O647 O 0.4167 0.23592 0.37617 0.0
C648 C 0.40255 0.24314 0.31979 0.0
C649 C 0.44831 0.19118 0.28085 0.0
C650 C 0.44488 0.18295 0.25888 0.0
C651 C 0.4525 0.19074 0.24109 0.0
C652 C 0.46363 0.20722 0.24611 0.0
C653 C 0.4675 0.21373 0.26762 0.0
C654 C 0.45971 0.20636 0.28478 0.0
O655 O 0.4129 0.06892 0.34006 0.0
O656 O 0.42705 0.11283 0.35644 0.0
O657 O 0.38793 0.10374 0.35955 0.0
O658 O 0.40154 0.16067 0.3673 0.0
C659 C 0.3938 0.14386 0.35301 0.0
O660 O 0.4124 0.24608 0.33018 0.0
O661 O 0.39859 0.19781 0.31451 0.0
O662 O 0.44317 0.19951 0.31961 0.0
O663 O 0.42943 0.17122 0.29841 0.0
H664 H 0.43627 0.17085 0.25574 0.0
H665 H 0.46944 0.21632 0.23309 0.0
H666 H 0.46258 0.21211 0.30131 0.0
O667 O 0.37321 0.70871 0.36599 0.0
Tb668 Tb 0.35776 0.66569 0.36182 0.0
Eu669 Eu 0.33463 0.65043 0.32854 0.0
C670 C 0.3811 0.70704 0.3509 0.0
O671 O 0.38151 0.66789 0.33791 0.0
C672 C 0.34196 0.7581 0.35632 0.0
O673 O 0.32569 0.60066 0.35336 0.0
C674 C 0.32082 0.64848 0.29475 0.0
C675 C 0.33102 0.56333 0.36314 0.0
O676 O 0.342 0.55819 0.36069 0.0
C677 C 0.3585 0.57315 0.32854 0.0
C678 C 0.31205 0.64512 0.2765 0.0
C679 C 0.31468 0.65304 0.25412 0.0
C680 C 0.30649 0.64397 0.23722 0.0
C681 C 0.29556 0.62667 0.24369 0.0
C682 C 0.29256 0.62046 0.26572 0.0
C683 C 0.30091 0.62946 0.28174 0.0
O684 O 0.35257 0.74298 0.35474 0.0
O685 O 0.33376 0.72837 0.34805 0.0
O686 O 0.35697 0.64242 0.39574 0.0
O687 O 0.34159 0.65694 0.37844 0.0
C688 C 0.34588 0.6437 0.39709 0.0
O689 O 0.34823 0.58693 0.32099 0.0
O690 O 0.36377 0.60017 0.34339 0.0
O691 O 0.31819 0.6334 0.31442 0.0
O692 O 0.33109 0.66823 0.29342 0.0
H693 H 0.32313 0.66584 0.25004 0.0
H694 H 0.28918 0.61805 0.23164 0.0
H695 H 0.2987 0.62318 0.29862 0.0
O696 O 0.61965 0.84814 0.0731 0.0
Tb697 Tb 0.60682 0.89418 0.08854 0.0
Eu698 Eu 0.58093 0.9426 0.08458 0.0
C699 C 0.61663 0.80749 0.0625 0.0
O700 O 0.60684 0.80742 0.05222 0.0
C701 C 0.58718 0.82734 0.10625 0.0
O702 O 0.57234 0.99587 0.10816 0.0
C703 C 0.56745 0.94303 0.05037 0.0
C704 C 0.57832 1.02358 0.12165 0.0
O705 O 0.58935 1.01793 0.12263 0.0
C706 C 0.60439 1.00456 0.07027 0.0
C707 C 0.55877 0.94588 1.03192 0.0
C708 C 0.56154 0.93831 1.00957 0.0
C709 C 0.55338 0.94687 0.99251 0.0
C710 C 0.54239 0.96378 0.99881 0.0
C711 C 0.53925 0.9693 1.02075 0.0
C712 C 0.5475 0.96046 0.03695 0.0
O713 O 0.59577 0.82764 0.09252 0.0
O714 O 0.5807 0.86907 0.10708 0.0
O715 O 0.61749 0.88277 0.11657 0.0
O716 O 0.60188 0.9326 0.11747 0.0
C717 C 0.61129 0.91827 0.10681 0.0
O718 O 0.59454 1.00705 0.08076 0.0
O719 O 0.60827 0.95903 0.06535 0.0
O720 O 0.56439 0.95534 0.07017 0.0
O721 O 0.57806 0.92684 0.04907 0.0
H722 H 0.57006 0.92607 1.00566 0.0
H723 H 0.53603 0.9725 0.98672 0.0
H724 H 0.54511 0.96602 0.05377 0.0
O725 O 0.63922 0.44966 0.12256 0.0
Tb726 Tb 0.65474 0.41173 0.11399 0.0
Eu727 Eu 0.67629 0.4004 0.07768 0.0
C728 C 0.63225 0.46135 0.10666 0.0
O729 O 0.63286 0.43507 0.08862 0.0
C730 C 0.66978 0.50576 0.10785 0.0
O731 O 0.68521 0.34699 0.10097 0.0
C732 C 0.68993 0.40127 0.04369 0.0
C733 C 0.67944 0.31163 0.11099 0.0
O734 O 0.66835 0.31164 0.10976 0.0
C735 C 0.65208 0.32544 0.07802 0.0
C736 C 0.69852 0.40005 1.02513 0.0
C737 C 0.6955 0.41041 1.00303 0.0
C738 C 0.70348 0.40424 0.98564 0.0
C739 C 0.71449 0.38705 0.99125 0.0
C740 C 0.71798 0.37915 1.01288 0.0
C741 C 0.70988 0.38487 1.02959 0.0
O742 O 0.65917 0.4903 0.10721 0.0
O743 O 0.67777 0.47609 0.09876 0.0
O744 O 0.65591 0.38204 0.14688 0.0
O745 O 0.67101 0.40378 0.13074 0.0
C746 C 0.66692 0.38568 0.14877 0.0
O747 O 0.66208 0.33958 0.06931 0.0
O748 O 0.64773 0.35007 0.0946 0.0
O749 O 0.69262 0.3831 0.06285 0.0
O750 O 0.67974 0.42207 0.04306 0.0
H751 H 0.68693 0.42274 0.99949 0.0
H752 H 0.72055 0.37859 0.97861 0.0
H753 H 0.7125 0.37794 0.04621 0.0
O754 O 0.59661 0.46339 0.2538 0.0
Tb755 Tb 0.60908 0.4452 0.22927 0.0
Eu756 Eu 0.58331 0.40637 0.23637 0.0
C757 C 0.59707 0.50234 0.26696 0.0
O758 O 0.58925 0.50721 0.282 0.0
C759 C 0.59134 0.50792 0.20292 0.0
O760 O 0.5739 0.35119 0.21542 0.0
C761 C 0.57057 0.41513 0.27186 0.0
C762 C 0.57735 0.33978 0.19578 0.0
O763 O 0.58591 0.36472 0.1873 0.0
C764 C 0.60642 0.32789 0.23128 0.0
C765 C 0.56284 0.39368 0.28946 0.0
C766 C 0.56487 0.40367 0.31189 0.0
C767 C 0.5571 0.38846 0.32856 0.0
C768 C 0.54706 0.36313 0.32191 0.0
C769 C 0.54471 0.35294 0.29981 0.0
C770 C 0.5527 0.36827 0.28389 0.0
O771 O 0.60203 0.49239 0.20314 0.0
O772 O 0.58365 0.48366 0.21553 0.0
O773 O 0.62245 0.44747 0.25395 0.0
O774 O 0.62463 0.48857 0.22483 0.0
C775 C 0.62934 0.4766 0.2433 0.0
O776 O 0.59619 0.33789 0.23996 0.0
O777 O 0.61197 0.36487 0.22155 0.0
O778 O 0.56677 0.41753 0.25181 0.0
O779 O 0.58162 0.40817 0.27252 0.0
H780 H 0.57241 0.42473 0.31618 0.0
H781 H 0.54114 0.34954 0.33399 0.0
H782 H 0.55084 0.36143 0.26691 0.0
O783 O 0.63855 0.83461 0.23109 0.0
Tb784 Tb 0.65153 0.88835 0.22226 0.0
Eu785 Eu 0.67708 0.93269 0.23006 0.0
C786 C 0.63985 0.8139 0.25031 0.0
O787 O 0.64771 0.8324 0.2632 0.0
C788 C 0.67101 0.81871 0.20609 0.0
O789 O 0.6872 0.98813 0.2097 0.0
C790 C 0.68908 0.92091 0.2661 0.0
C791 C 0.68179 1.01409 0.19472 0.0
O792 O 0.67084 1.00788 0.19257 0.0
C793 C 0.65273 0.99748 0.2392 0.0
C794 C 0.69629 0.94374 0.28411 0.0
C795 C 0.69433 0.9323 0.30642 0.0
C796 C 0.70201 0.94793 0.32315 0.0
C797 C 0.71183 0.97505 0.31675 0.0
C798 C 0.71414 0.98634 0.2948 0.0
C799 C 0.70624 0.97101 0.2788 0.0
O800 O 0.66129 0.81935 0.21665 0.0
O801 O 0.67785 0.85914 0.2076 0.0
O802 O 0.64278 0.91706 0.19392 0.0
O803 O 0.661 0.92118 0.19582 0.0
C804 C 0.65209 0.93216 0.18434 0.0
O805 O 0.6634 0.99884 0.23183 0.0
O806 O 0.64846 0.95261 0.24397 0.0
O807 O 0.69325 0.92247 0.24636 0.0
O808 O 0.67788 0.92354 0.26611 0.0
H809 H 0.68699 0.90971 0.31057 0.0
H810 H 0.71767 0.98897 0.32892 0.0
H811 H 0.70811 0.97887 0.26191 0.0
O812 O 0.39926 0.23515 1.00327 0.0
Tb813 Tb 0.39809 0.205 0.97042 0.0
Eu814 Eu 0.42435 0.16883 0.98642 0.0
C815 C 0.4007 0.28413 1.00598 0.0
O816 O 0.40926 0.30553 0.99589 0.0
C817 C 0.41852 0.2654 0.95044 0.0
O818 O 0.433 0.11506 0.9637 0.0
C819 C 0.43751 0.17485 1.02119 0.0
C820 C 0.42812 0.10602 0.94501 0.0
O821 O 0.41923 0.13325 0.93945 0.0
C822 C 0.40235 0.08756 0.97812 0.0
C823 C 0.44443 0.15086 0.03945 0.0
C824 C 0.44195 0.16118 0.06172 0.0
C825 C 0.44908 0.14349 0.07895 0.0
C826 C 0.45867 0.11434 0.07314 0.0
C827 C 0.46161 0.10432 0.05137 0.0
C828 C 0.45447 0.12296 0.03469 0.0
O829 O 0.40848 0.24514 0.94632 0.0
O830 O 0.42497 0.24603 0.9665 0.0
O831 O 0.38403 0.25552 0.96067 0.0
O832 O 0.38067 0.18039 0.97027 0.0
C833 C 0.37611 0.2226 0.96443 0.0
O834 O 0.41169 0.09976 0.98948 0.0
O835 O 0.3975 0.12225 0.96575 0.0
O836 O 0.44117 0.16946 1.00116 0.0
O837 O 0.42633 0.17874 1.02214 0.0
H838 H 0.43465 0.18444 0.0655 0.0
H839 H 0.46406 0.099 0.08576 0.0
H840 H 0.45675 0.11556 1.01795 0.0
O841 O 0.34823 0.6132 1.00615 0.0
Tb842 Tb 0.35925 0.63173 0.97902 0.0
Eu843 Eu 0.33434 0.68293 0.98312 0.0
C844 C 0.34738 0.56883 1.01596 0.0
O845 O 0.33976 0.56392 1.03137 0.0
C846 C 0.34011 0.57384 0.95349 0.0
O847 O 0.32649 0.73151 0.95704 0.0
C848 C 0.32043 0.69079 1.01661 0.0
C849 C 0.33203 0.74327 0.93924 0.0
O850 O 0.34208 0.7232 0.93582 0.0
C851 C 0.35827 0.75086 0.97627 0.0
C852 C 0.31187 0.69718 0.03503 0.0
C853 C 0.31446 0.68426 0.05705 0.0
C854 C 0.30675 0.69479 0.07448 0.0
C855 C 0.29642 0.71915 0.06901 0.0
C856 C 0.29346 0.732 0.04746 0.0
C857 C 0.30119 0.72024 1.03065 0.0
O858 O 0.3512 0.58214 0.95502 0.0
O859 O 0.33277 0.60415 0.96422 0.0
O860 O 0.37315 0.63812 1.00214 0.0
O861 O 0.37542 0.59266 0.97427 0.0
C862 C 0.38041 0.61075 0.99152 0.0
O863 O 0.34812 0.74795 0.9859 0.0
O864 O 0.36237 0.70937 0.96731 0.0
O865 O 0.31766 0.70135 0.99643 0.0
O866 O 0.3309 0.67365 1.01871 0.0
H867 H 0.32253 0.66629 0.0605 0.0
H868 H 0.29057 0.72971 0.08173 0.0
H869 H 0.29906 0.73126 1.01418 0.0
O870 O 0.3869 0.60514 0.86028 0.0
Tb871 Tb 0.40045 0.65772 0.85425 0.0
Eu872 Eu 0.42394 0.69773 0.83113 0.0
C873 C 0.38409 0.57416 0.84454 0.0
O874 O 0.38765 0.58409 0.82476 0.0
C875 C 0.42028 0.58333 0.85574 0.0
O876 O 0.43051 0.75793 0.85472 0.0
C877 C 0.43701 0.70083 0.79654 0.0
C878 C 0.42351 0.79005 0.86427 0.0
O879 O 0.41253 0.78438 0.86185 0.0
C880 C 0.39769 0.75369 0.8251 0.0
C881 C 0.44523 0.70518 0.77757 0.0
C882 C 0.44243 0.69099 0.75578 0.0
C883 C 0.44999 0.70107 0.73799 0.0
C884 C 0.46024 0.72656 0.74287 0.0
C885 C 0.46332 0.74003 0.76418 0.0
C886 C 0.45585 0.72858 0.78129 0.0
O887 O 0.40976 0.58765 0.84882 0.0
O888 O 0.42726 0.62248 0.85203 0.0
O889 O 0.39875 0.68428 0.8876 0.0
O890 O 0.41485 0.68712 0.87228 0.0
C891 C 0.40939 0.69683 0.89005 0.0
O892 O 0.40902 0.75525 0.8236 0.0
O893 O 0.39262 0.71312 0.83268 0.0
O894 O 0.43989 0.71779 0.81582 0.0
O895 O 0.42692 0.67918 0.79609 0.0
H896 H 0.43438 0.67272 0.75278 0.0
H897 H 0.46593 0.73735 0.72992 0.0
H898 H 0.45816 0.74034 0.79756 0.0
O899 O 0.36399 0.19854 0.8744 0.0
Tb900 Tb 0.34851 0.16315 0.86393 0.0
Eu901 Eu 0.32774 0.15161 0.82859 0.0
C902 C 0.37084 0.2135 0.85885 0.0
O903 O 0.36954 0.19375 0.83944 0.0
C904 C 0.33452 0.25851 0.85745 0.0
O905 O 0.31998 0.08485 0.84718 0.0
C906 C 0.31519 0.1643 0.7934 0.0
C907 C 0.32659 0.05417 0.85849 0.0
O908 O 0.33715 0.06673 0.86192 0.0
C909 C 0.35177 0.07709 0.82841 0.0
C910 C 0.30896 0.14185 0.77406 0.0
C911 C 0.31219 0.15302 0.7522 0.0
C912 C 0.30551 0.1368 0.73411 0.0
C913 C 0.29562 0.10852 0.73859 0.0
C914 C 0.29207 0.09742 0.75995 0.0
C915 C 0.2988 0.11431 0.77745 0.0
O916 O 0.34502 0.24201 0.85618 0.0
O917 O 0.32636 0.22813 0.84956 0.0
O918 O 0.34455 0.13871 0.89696 0.0
O919 O 0.33104 0.15568 0.8754 0.0
C920 C 0.33349 0.14206 0.89512 0.0
O921 O 0.34188 0.09165 0.81945 0.0
O922 O 0.35603 0.10159 0.84513 0.0
O923 O 0.31118 0.15478 0.81292 0.0
O924 O 0.32633 0.16942 0.79341 0.0
H925 H 0.31968 0.17575 0.74938 0.0
H926 H 0.29049 0.09497 0.72523 0.0
H927 H 0.29603 0.10597 0.79385 0.0
H928 H 0.0399 0.41933 0.86149 0.0
H929 H 0.07546 0.39129 0.84681 0.0
H930 H 0.08008 0.40243 0.88564 0.0
H931 H 0.04356 0.5101 0.90332 0.0
H932 H 0.0321 0.48626 0.91978 0.0
H933 H 0.03173 0.47836 0.89074 0.0
H934 H 0.02952 0.38192 0.89561 0.0
H935 H 0.02981 0.38955 0.92468 0.0
H936 H 0.03977 0.34767 0.91168 0.0
H937 H 0.08072 0.41799 0.92809 0.0
H938 H 0.07718 0.43409 0.96707 0.0
H939 H 0.04096 0.44087 0.9537 0.0
C940 C 0.04869 0.41437 0.86609 0.0
C941 C 0.05723 0.40392 0.8502 0.0
C942 C 0.06862 0.39994 0.85792 0.0
C943 C 0.07136 0.40582 0.88025 0.0
C944 C 0.06267 0.41525 0.89526 0.0
C945 C 0.05154 0.41905 0.88834 0.0
C946 C 0.04364 0.42798 0.90756 0.0
C947 C 0.03739 0.47869 0.9052 0.0
C948 C 0.03519 0.38417 0.91003 0.0
C949 C 0.05202 0.42917 0.92645 0.0
C950 C 0.06299 0.42211 0.91913 0.0
C951 C 0.0721 0.42314 0.9338 0.0
C952 C 0.06998 0.43199 0.95619 0.0
C953 C 0.05877 0.43951 0.96425 0.0
C954 C 0.04973 0.43699 0.94875 0.0
H955 H 0.21697 0.90696 0.94933 0.0
H956 H 0.18086 0.89804 0.96399 0.0
H957 H 0.17662 0.91134 0.92529 0.0
H958 H 0.21577 0.99799 0.9069 0.0
H959 H 0.22645 0.96757 0.89053 0.0
H960 H 0.22667 0.96022 0.91962 0.0
H961 H 0.22619 0.86318 0.91541 0.0
H962 H 0.22607 0.87023 0.88631 0.0
H963 H 0.21505 0.83453 0.89959 0.0
H964 H 0.17635 0.92804 0.88309 0.0
H965 H 0.1801 0.94073 0.84413 0.0
H966 H 0.21631 0.92536 0.85695 0.0
C967 C 0.2081 0.90666 0.94486 0.0
C968 C 0.19934 0.90119 0.96084 0.0
C969 C 0.18793 0.903 0.95302 0.0
C970 C 0.18537 0.91018 0.93068 0.0
C971 C 0.19423 0.91485 0.91567 0.0
C972 C 0.20538 0.91247 0.92255 0.0
C973 C 0.21343 0.91646 0.9032 0.0
C974 C 0.22103 0.96334 0.90519 0.0
C975 C 0.22061 0.86823 0.901 0.0
C976 C 0.20511 0.92187 0.88431 0.0
C977 C 0.19406 0.92146 0.89178 0.0
C978 C 0.18501 0.92771 0.87723 0.0
C979 C 0.18728 0.93454 0.85476 0.0
C980 C 0.19857 0.93447 0.84636 0.0
C981 C 0.20752 0.92728 0.86188 0.0
H982 H 0.0397 0.9306 0.45352 0.0
H983 H 0.07593 0.93541 0.46758 0.0
H984 H 0.07985 0.92306 0.42872 0.0
H985 H 0.04005 0.84138 0.41092 0.0
H986 H 0.02944 0.87355 0.39491 0.0
H987 H 0.02949 0.88003 0.42402 0.0
H988 H 0.03053 0.97712 0.42016 0.0
H989 H 0.03038 0.97095 0.39103 0.0
H990 H 0.04171 1.00492 0.40416 0.0
H991 H 0.0797 0.90748 0.38614 0.0
H992 H 0.07543 0.89553 0.3472 0.0
H993 H 0.03951 0.91522 0.36138 0.0
C994 C 0.04854 0.93032 0.44894 0.0
C995 C 0.05741 0.93437 0.4648 0.0
C996 C 0.06876 0.93166 0.45673 0.0
C997 C 0.07115 0.925 0.43429 0.0
C998 C 0.06217 0.92183 0.41942 0.0
C999 C 0.05108 0.92514 0.42657 0.0
C1000 C 0.04286 0.92272 0.40744 0.0
C1001 C 0.035 0.87669 0.40945 0.0
C1002 C 0.03597 0.97184 0.40559 0.0
C1003 C 0.051 0.91691 0.38835 0.0
C1004 C 0.06211 0.91588 0.39547 0.0
C1005 C 0.07098 0.90886 0.38058 0.0
C1006 C 0.06844 0.90243 0.35817 0.0
C1007 C 0.05706 0.90359 0.35024 0.0
C1008 C 0.04833 0.91208 0.36603 0.0
H1009 H 0.21747 0.40135 0.45132 0.0
H1010 H 0.18136 0.3914 0.46535 0.0
H1011 H 0.17725 0.40244 0.42629 0.0
H1012 H 0.21614 0.49126 0.40849 0.0
H1013 H 0.22709 0.46149 0.39256 0.0
H1014 H 0.22711 0.45479 0.42168 0.0
H1015 H 0.22714 0.35762 0.41781 0.0
H1016 H 0.22718 0.36402 0.38867 0.0
H1017 H 0.21624 0.32759 0.40184 0.0
H1018 H 0.17722 0.4165 0.38376 0.0
H1019 H 0.18133 0.42994 0.34478 0.0
H1020 H 0.21743 0.41926 0.35889 0.0
C1021 C 0.20864 0.40034 0.44654 0.0
C1022 C 0.1998 0.39507 0.4623 0.0
C1023 C 0.18843 0.39603 0.45432 0.0
C1024 C 0.18597 0.40191 0.43187 0.0
C1025 C 0.19492 0.4063 0.41701 0.0
C1026 C 0.20604 0.40512 0.42416 0.0
C1027 C 0.21421 0.40943 0.40506 0.0
C1028 C 0.22157 0.45707 0.40708 0.0
C1029 C 0.22163 0.36183 0.40324 0.0
C1030 C 0.20601 0.41366 0.38597 0.0
C1031 C 0.1949 0.41219 0.39308 0.0
C1032 C 0.18594 0.41718 0.3782 0.0
C1033 C 0.18838 0.42442 0.35582 0.0
C1034 C 0.19975 0.42631 0.34797 0.0
C1035 C 0.2086 0.41965 0.36367 0.0
H1036 H 0.96657 0.66468 0.11163 0.0
H1037 H 0.93075 0.64435 0.09665 0.0
H1038 H 0.92624 0.65468 0.13544 0.0
H1039 H 0.96592 0.59063 0.16129 0.0
H1040 H 0.97624 0.62979 0.17476 0.0
H1041 H 0.97653 0.6235 0.14563 0.0
H1042 H 0.97526 0.7205 0.14162 0.0
H1043 H 0.9749 0.72706 0.17072 0.0
H1044 H 0.96372 0.75401 0.15435 0.0
H1045 H 0.92565 0.6693 0.1777 0.0
H1046 H 0.92914 0.68306 0.21674 0.0
H1047 H 0.96549 0.68167 0.20422 0.0
C1048 C 0.95773 0.6613 0.11612 0.0
C1049 C 0.94909 0.65347 0.10007 0.0
C1050 C 0.93768 0.65122 0.10777 0.0
C1051 C 0.93499 0.65663 0.13012 0.0
C1052 C 0.94374 0.66367 0.14523 0.0
C1053 C 0.95491 0.66545 0.13843 0.0
C1054 C 0.96284 0.67181 0.15785 0.0
C1055 C 0.97086 0.62622 0.16001 0.0
C1056 C 0.96958 0.72128 0.15602 0.0
C1057 C 0.95444 0.67383 0.17669 0.0
C1058 C 0.94344 0.66953 0.16914 0.0
C1059 C 0.93429 0.67211 0.18362 0.0
C1060 C 0.9364 0.67956 0.2061 0.0
C1061 C 0.94764 0.68392 0.21452 0.0
C1062 C 0.95672 0.68004 0.19913 0.0
H1063 H 0.7913 0.16875 0.20008 0.0
H1064 H 0.82703 0.1448 0.21458 0.0
H1065 H 0.83149 0.15615 0.1756 0.0
H1066 H 0.79123 0.09768 0.15008 0.0
H1067 H 0.7811 0.13885 0.13703 0.0
H1068 H 0.78092 0.13139 0.16612 0.0
H1069 H 0.78285 0.22797 0.1707 0.0
H1070 H 0.78308 0.23572 0.14162 0.0
H1071 H 0.79453 0.26038 0.1579 0.0
H1072 H 0.8319 0.17065 0.13326 0.0
H1073 H 0.82823 0.18538 0.09425 0.0
H1074 H 0.792 0.19041 0.10763 0.0
C1075 C 0.8001 0.16486 0.19535 0.0
C1076 C 0.80876 0.15521 0.21114 0.0
C1077 C 0.82014 0.15259 0.20342 0.0
C1078 C 0.82277 0.15866 0.18106 0.0
C1079 C 0.81398 0.16713 0.16611 0.0
C1080 C 0.80285 0.16996 0.17308 0.0
C1081 C 0.79485 0.17825 0.15391 0.0
C1082 C 0.78653 0.1339 0.15165 0.0
C1083 C 0.78845 0.22857 0.15617 0.0
C1084 C 0.80316 0.17988 0.13495 0.0
C1085 C 0.81418 0.17374 0.14224 0.0
C1086 C 0.82325 0.17506 0.12755 0.0
C1087 C 0.82104 0.18308 0.10514 0.0
C1088 C 0.80979 0.18945 0.09706 0.0
C1089 C 0.80078 0.18705 0.1126 0.0
H1090 H 0.96498 0.18635 0.70325 0.0
H1091 H 0.92881 0.19393 0.71665 0.0
H1092 H 0.92486 0.17986 0.67766 0.0
H1093 H 0.96385 0.25462 0.65249 0.0
H1094 H 0.97487 0.21737 0.64001 0.0
H1095 H 0.97475 0.22595 0.66903 0.0
H1096 H 0.97482 0.12916 0.67451 0.0
H1097 H 0.97493 0.12029 0.64551 0.0
H1098 H 0.96396 0.09156 0.66175 0.0
H1099 H 0.92499 0.16547 0.6354 0.0
H1100 H 0.92921 0.15093 0.59652 0.0
H1101 H 0.96527 0.15945 0.61089 0.0
C1102 C 0.95618 0.18576 0.69821 0.0
C1103 C 0.94724 0.19173 0.71368 0.0
C1104 C 0.93591 0.18899 0.7057 0.0
C1105 C 0.93356 0.18136 0.68334 0.0
C1106 C 0.94258 0.17654 0.66866 0.0
C1107 C 0.95368 0.17868 0.67592 0.0
C1108 C 0.96193 0.17304 0.65699 0.0
C1109 C 0.96928 0.22057 0.65449 0.0
C1110 C 0.96934 0.1257 0.65987 0.0
C1111 C 0.95379 0.16725 0.63788 0.0
C1112 C 0.94265 0.16923 0.64485 0.0
C1113 C 0.93372 0.16409 0.62995 0.0
C1114 C 0.93622 0.15619 0.60766 0.0
C1115 C 0.9476 0.15344 0.6 0.0
C1116 C 0.95643 0.15995 0.61569 0.0
H1117 H 0.7944 0.65923 0.69881 0.0
H1118 H 0.83049 0.65289 0.71323 0.0
H1119 H 0.83465 0.66715 0.67427 0.0
H1120 H 0.79596 0.59059 0.64841 0.0
H1121 H 0.78493 0.62724 0.63553 0.0
H1122 H 0.78492 0.61901 0.66458 0.0
H1123 H 0.78462 0.71584 0.66966 0.0
H1124 H 0.78464 0.72437 0.64062 0.0
H1125 H 0.79547 0.75374 0.65698 0.0
H1126 H 0.83471 0.6813 0.63177 0.0
H1127 H 0.83066 0.69504 0.59274 0.0
H1128 H 0.79455 0.68489 0.60635 0.0
C1129 C 0.80324 0.66009 0.69402 0.0
C1130 C 0.81209 0.65429 0.70977 0.0
C1131 C 0.82346 0.65757 0.70207 0.0
C1132 C 0.82592 0.66532 0.67972 0.0
C1133 C 0.81698 0.66975 0.66477 0.0
C1134 C 0.80585 0.66721 0.67177 0.0
C1135 C 0.79769 0.67229 0.65261 0.0
C1136 C 0.79045 0.62444 0.65014 0.0
C1137 C 0.79016 0.71936 0.65512 0.0
C1138 C 0.80591 0.6782 0.63364 0.0
C1139 C 0.81702 0.67684 0.64088 0.0
C1140 C 0.826 0.68219 0.62613 0.0
C1141 C 0.8236 0.68963 0.60373 0.0
C1142 C 0.81225 0.69165 0.59576 0.0
C1143 C 0.80336 0.68498 0.61133 0.0
H1144 H 0.54162 0.40009 0.36337 0.0
H1145 H 0.57787 0.39856 0.35007 0.0
H1146 H 0.58167 0.41262 0.38895 0.0
H1147 H 0.54188 0.49403 0.40546 0.0
H1148 H 0.53125 0.46312 0.42177 0.0
H1149 H 0.53132 0.45475 0.39273 0.0
H1150 H 0.53228 0.35801 0.39788 0.0
H1151 H 0.53219 0.36609 0.42693 0.0
H1152 H 0.54348 0.33101 0.4142 0.0
H1153 H 0.58156 0.42761 0.43077 0.0
H1154 H 0.57755 0.44091 0.46962 0.0
H1155 H 0.54146 0.42476 0.4564 0.0
C1156 C 0.55041 0.40202 0.36839 0.0
C1157 C 0.5594 0.39814 0.35281 0.0
C1158 C 0.5707 0.40225 0.36092 0.0
C1159 C 0.57299 0.40986 0.38329 0.0
C1160 C 0.56395 0.41306 0.39798 0.0
C1161 C 0.55287 0.40903 0.39078 0.0
C1162 C 0.54466 0.41291 0.40993 0.0
C1163 C 0.53681 0.45894 0.40731 0.0
C1164 C 0.53774 0.3641 0.41238 0.0
C1165 C 0.55281 0.41985 0.42903 0.0
C1166 C 0.56391 0.42009 0.4218 0.0
C1167 C 0.57287 0.42699 0.43646 0.0
C1168 C 0.57047 0.43411 0.45882 0.0
C1169 C 0.55915 0.43405 0.46694 0.0
C1170 C 0.55026 0.42617 0.4514 0.0
H1171 H 0.71918 0.912 0.44984 0.0
H1172 H 0.68337 0.89123 0.46447 0.0
H1173 H 0.67884 0.90285 0.42569 0.0
H1174 H 0.71608 1.00434 0.40788 0.0
H1175 H 0.7273 0.97902 0.39121 0.0
H1176 H 0.72773 0.97055 0.42024 0.0
H1177 H 0.72923 0.87392 0.4152 0.0
H1178 H 0.72886 0.88212 0.38615 0.0
H1179 H 0.71867 0.84158 0.39926 0.0
H1180 H 0.67815 0.91845 0.38398 0.0
H1181 H 0.68147 0.93414 0.34499 0.0
H1182 H 0.71785 0.9359 0.35715 0.0
C1183 C 0.71036 0.90899 0.44514 0.0
C1184 C 0.70169 0.90064 0.46098 0.0
C1185 C 0.69028 0.8985 0.45332 0.0
C1186 C 0.68758 0.90466 0.43106 0.0
C1187 C 0.69634 0.91256 0.41609 0.0
C1188 C 0.70752 0.91432 0.42289 0.0
C1189 C 0.7154 0.92236 0.40354 0.0
C1190 C 0.72202 0.97202 0.40586 0.0
C1191 C 0.72352 0.87731 0.40088 0.0
C1192 C 0.70694 0.92521 0.38479 0.0
C1193 C 0.69597 0.91972 0.39234 0.0
C1194 C 0.68675 0.92228 0.37801 0.0
C1195 C 0.68876 0.93085 0.35562 0.0
C1196 C 0.69995 0.93654 0.34724 0.0
C1197 C 0.70912 0.93297 0.36242 0.0
H1198 H 0.53843 0.93136 0.95704 0.0
H1199 H 0.57454 0.94379 0.97115 0.0
H1200 H 0.57862 0.93224 0.93223 0.0
H1201 H 0.53976 0.84251 0.91418 0.0
H1202 H 0.5288 0.87259 0.89828 0.0
H1203 H 0.52878 0.87861 0.92741 0.0
H1204 H 0.52875 0.97589 0.92384 0.0
H1205 H 0.52866 0.97016 0.89469 0.0
H1206 H 0.53961 1.00633 0.90791 0.0
H1207 H 0.57862 0.91709 0.88973 0.0
H1208 H 0.57453 0.90557 0.85082 0.0
H1209 H 0.53841 0.91756 0.8649 0.0
C1210 C 0.54726 0.93295 0.95241 0.0
C1211 C 0.55609 0.939 0.96823 0.0
C1212 C 0.56746 0.93852 0.96023 0.0
C1213 C 0.56991 0.93234 0.9378 0.0
C1214 C 0.56096 0.92736 0.92294 0.0
C1215 C 0.54986 0.92831 0.93007 0.0
C1216 C 0.54167 0.92442 0.91095 0.0
C1217 C 0.53432 0.8767 0.91283 0.0
C1218 C 0.53424 0.97203 0.90925 0.0
C1219 C 0.54985 0.92068 0.89185 0.0
C1220 C 0.56096 0.92176 0.899 0.0
C1221 C 0.5699 0.9169 0.88415 0.0
C1222 C 0.56744 0.91073 0.86172 0.0
C1223 C 0.55607 0.91016 0.85369 0.0
C1224 C 0.54725 0.91606 0.8695 0.0
H1225 H 0.71925 0.44366 0.85938 0.0
H1226 H 0.68319 0.44328 0.84344 0.0
H1227 H 0.67883 0.43088 0.88207 0.0
H1228 H 0.71898 0.35492 0.90211 0.0
H1229 H 0.72912 0.38865 0.91852 0.0
H1230 H 0.72942 0.39492 0.8894 0.0
H1231 H 0.72758 0.49186 0.89285 0.0
H1232 H 0.72737 0.48593 0.922 0.0
H1233 H 0.71596 0.5182 0.90818 0.0
H1234 H 0.67852 0.41519 0.9247 0.0
H1235 H 0.68243 0.40338 0.96389 0.0
H1236 H 0.71829 0.42898 0.95129 0.0
C1237 C 0.71035 0.44221 0.86342 0.0
C1238 C 0.70168 0.44475 0.84709 0.0
C1239 C 0.69024 0.4407 0.85461 0.0
C1240 C 0.68759 0.43397 0.87693 0.0
C1241 C 0.69638 0.43218 0.89225 0.0
C1242 C 0.70753 0.43699 0.88565 0.0
C1243 C 0.7155 0.43586 0.90515 0.0
C1244 C 0.72374 0.39092 0.9037 0.0
C1245 C 0.72198 0.48594 0.90716 0.0
C1246 C 0.70715 0.42907 0.92382 0.0
C1247 C 0.69615 0.42636 0.91619 0.0
C1248 C 0.68715 0.41789 0.93066 0.0
C1249 C 0.68947 0.41157 0.95318 0.0
C1250 C 0.70073 0.41428 0.96156 0.0
C1251 C 0.70957 0.42452 0.94622 0.0
H1252 H 0.46577 0.66362 0.6116 0.0
H1253 H 0.42997 0.64274 0.59674 0.0
H1254 H 0.42546 0.65524 0.63554 0.0
H1255 H 0.46514 0.59102 0.6614 0.0
H1256 H 0.47558 0.6303 0.67446 0.0
H1257 H 0.47573 0.62303 0.64538 0.0
H1258 H 0.4746 0.71996 0.64078 0.0
H1259 H 0.47437 0.72752 0.66984 0.0
H1260 H 0.46317 0.75426 0.65347 0.0
H1261 H 0.42506 0.67209 0.67819 0.0
H1262 H 0.42893 0.68792 0.71711 0.0
H1263 H 0.46513 0.68331 0.70346 0.0
C1264 C 0.45694 0.66032 0.6161 0.0
C1265 C 0.44831 0.65144 0.60018 0.0
C1266 C 0.43689 0.65 0.60785 0.0
C1267 C 0.43421 0.6567 0.63018 0.0
C1268 C 0.44299 0.66422 0.64522 0.0
C1269 C 0.45415 0.66545 0.63832 0.0
C1270 C 0.46217 0.6722 0.6575 0.0
C1271 C 0.47012 0.62641 0.65982 0.0
C1272 C 0.46898 0.7214 0.65525 0.0
C1273 C 0.45385 0.6751 0.67638 0.0
C1274 C 0.4428 0.67104 0.66912 0.0
C1275 C 0.43375 0.67477 0.68385 0.0
C1276 C 0.43606 0.68341 0.70621 0.0
C1277 C 0.44738 0.68781 0.71419 0.0
C1278 C 0.45631 0.68217 0.69864 0.0
H1279 H 0.29099 0.15356 0.69875 0.0
H1280 H 0.32688 0.14744 0.71485 0.0
H1281 H 0.33154 0.16116 0.67603 0.0
H1282 H 0.29316 0.08389 0.64886 0.0
H1283 H 0.28227 0.12021 0.63537 0.0
H1284 H 0.28193 0.11263 0.66444 0.0
H1285 H 0.28156 0.2096 0.66911 0.0
H1286 H 0.2819 0.21748 0.64005 0.0
H1287 H 0.29254 0.24726 0.65673 0.0
H1288 H 0.33208 0.17452 0.63344 0.0
H1289 H 0.32841 0.18771 0.59418 0.0
H1290 H 0.29218 0.17736 0.60652 0.0
C1291 C 0.29988 0.15437 0.69436 0.0
C1292 C 0.30853 0.14872 0.71046 0.0
C1293 C 0.32 0.15197 0.70333 0.0
C1294 C 0.32275 0.15941 0.68109 0.0
C1295 C 0.31398 0.16353 0.66575 0.0
C1296 C 0.30277 0.16111 0.67225 0.0
C1297 C 0.29483 0.16571 0.6528 0.0
C1298 C 0.28762 0.11776 0.65022 0.0
C1299 C 0.28726 0.21281 0.6548 0.0
C1300 C 0.30326 0.17122 0.63421 0.0
C1301 C 0.31429 0.1701 0.64188 0.0
C1302 C 0.32344 0.17526 0.62747 0.0
C1303 C 0.32126 0.18237 0.60497 0.0
C1304 C 0.30998 0.18426 0.59665 0.0
C1305 C 0.30095 0.17759 0.61184 0.0
H1306 H 0.46632 0.16636 0.2054 0.0
H1307 H 0.43102 0.19702 0.2213 0.0
H1308 H 0.42606 0.18817 0.18245 0.0
H1309 H 0.46646 0.24131 0.15636 0.0
H1310 H 0.47618 0.19962 0.14261 0.0
H1311 H 0.47665 0.20507 0.17176 0.0
H1312 H 0.47405 0.10849 0.17536 0.0
H1313 H 0.47351 0.10278 0.14623 0.0
H1314 H 0.46203 0.07867 0.16257 0.0
H1315 H 0.42514 0.17524 0.13973 0.0
H1316 H 0.42848 0.16155 0.10047 0.0
H1317 H 0.46472 0.15167 0.11325 0.0
C1318 C 0.45752 0.17234 0.20106 0.0
C1319 C 0.44915 0.18303 0.21721 0.0
C1320 C 0.43772 0.18824 0.2099 0.0
C1321 C 0.4348 0.18368 0.18759 0.0
C1322 C 0.44335 0.17438 0.17228 0.0
C1323 C 0.45451 0.16918 0.17888 0.0
C1324 C 0.46228 0.16106 0.15945 0.0
C1325 C 0.4709 0.20434 0.15743 0.0
C1326 C 0.46832 0.1097 0.161 0.0
C1327 C 0.45381 0.16195 0.14077 0.0
C1328 C 0.44289 0.16924 0.14835 0.0
C1329 C 0.43371 0.1699 0.13382 0.0
C1330 C 0.43572 0.16245 0.1113 0.0
C1331 C 0.44688 0.15474 0.10302 0.0
C1332 C 0.45599 0.15568 0.11838 0.0
H1333 H 0.29164 0.67839 0.10941 0.0
H1334 H 0.32782 0.68433 0.09549 0.0
H1335 H 0.33181 0.67034 0.13443 0.0
H1336 H 0.29339 0.75057 0.15883 0.0
H1337 H 0.28218 0.71581 0.17198 0.0
H1338 H 0.28228 0.72215 0.14284 0.0
H1339 H 0.28158 0.62504 0.139 0.0
H1340 H 0.28154 0.6184 0.16813 0.0
H1341 H 0.29226 0.58698 0.15222 0.0
H1342 H 0.3317 0.65538 0.17684 0.0
H1343 H 0.32758 0.64437 0.21579 0.0
H1344 H 0.29153 0.66101 0.20186 0.0
C1345 C 0.30047 0.67777 0.11419 0.0
C1346 C 0.30936 0.68313 0.09849 0.0
C1347 C 0.32071 0.67981 0.10644 0.0
C1348 C 0.3231 0.67223 0.12884 0.0
C1349 C 0.31411 0.66845 0.14366 0.0
C1350 C 0.30301 0.67152 0.13652 0.0
C1351 C 0.2948 0.66847 0.15563 0.0
C1352 C 0.28775 0.71714 0.15742 0.0
C1353 C 0.28709 0.62196 0.15362 0.0
C1354 C 0.30296 0.66303 0.17475 0.0
C1355 C 0.31407 0.66248 0.16759 0.0
C1356 C 0.32299 0.65635 0.18244 0.0
C1357 C 0.32052 0.65055 0.20487 0.0
C1358 C 0.30916 0.65151 0.21291 0.0
C1359 C 0.30035 0.65854 0.19713 0.0
H1360 H 0.09414 0.22557 0.05908 0.0
H1361 H 0.11429 0.30413 1.01101 0.0
H1362 H 0.12318 0.22352 1.00023 0.0
H1363 H 0.11541 0.16265 0.07922 0.0
H1364 H 0.10825 0.1045 0.08566 0.0
H1365 H 0.1003 0.16207 0.0841 0.0
H1366 H 0.08691 0.12337 0.05523 0.0
H1367 H 0.09467 0.0648 0.05704 0.0
H1368 H 0.0928 0.09532 1.03108 0.0
H1369 H 0.13293 0.14088 1.00073 0.0
H1370 H 0.14341 0.06612 1.01376 0.0
H1371 H 0.11802 1.04293 0.06378 0.0
C1372 C 0.09991 0.22514 0.04537 0.0
C1373 C 0.10334 0.27046 0.0354 0.0
C1374 C 0.1114 0.26936 1.01842 0.0
C1375 C 0.11646 0.22373 1.0122 0.0
C1376 C 0.11343 0.17984 1.02332 0.0
C1377 C 0.10528 0.18019 0.03955 0.0
C1378 C 0.10535 0.13136 0.05233 0.0
C1379 C 0.10746 0.14078 0.07674 0.0
C1380 C 0.09428 0.10197 0.04869 0.0
C1381 C 0.11531 0.10496 0.04181 0.0
C1382 C 0.11957 0.13254 1.02455 0.0
C1383 C 0.1295 0.11835 1.01385 0.0
C1384 C 0.13542 0.07587 1.02141 0.0
C1385 C 0.13151 0.04893 0.0398 0.0
C1386 C 0.12114 0.06269 0.04958 0.0
H1387 H 0.1071 0.07783 0.29541 0.0
H1388 H 0.08478 0.06712 0.23984 0.0
H1389 H 0.09316 0.14509 0.22439 0.0
H1390 H 0.10473 0.21615 0.29856 0.0
H1391 H 0.11911 0.22445 0.30793 0.0
H1392 H 0.1115 0.16752 0.31451 0.0
H1393 H 0.1274 0.11204 0.29663 0.0
H1394 H 0.13503 0.17001 0.29232 0.0
H1395 H 0.13227 0.12895 0.26985 0.0
H1396 H 0.10393 0.2247 0.21549 0.0
H1397 H 0.11749 0.29567 0.21149 0.0
H1398 H 0.13227 0.25674 0.27398 0.0
C1399 C 0.10409 0.09186 0.2799 0.0
C1400 C 0.09582 0.06498 0.26795 0.0
C1401 C 0.09171 0.08533 0.24824 0.0
C1402 C 0.09625 0.1301 0.23966 0.0
C1403 C 0.10468 0.15497 0.25141 0.0
C1404 C 0.10852 0.13679 0.2712 0.0
C1405 C 0.11742 0.17166 0.28082 0.0
C1406 C 0.11292 0.1964 0.30169 0.0
C1407 C 0.12868 0.14392 0.28515 0.0
C1408 C 0.11855 0.2102 0.26267 0.0
C1409 C 0.1109 0.20077 0.24618 0.0
C1410 C 0.1102 0.23182 0.22791 0.0
C1411 C 0.11785 0.27231 0.22592 0.0
C1412 C 0.12605 0.28171 0.24228 0.0
C1413 C 0.1262 0.25055 0.26105 0.0
H1414 H 0.87289 1.03015 0.96868 0.0
H1415 H 0.88826 0.10152 1.02474 0.0
H1416 H 0.89165 1.01706 0.04121 0.0
H1417 H 0.85797 0.9342 0.99716 0.0
H1418 H 0.86038 0.88802 0.97624 0.0
H1419 H 0.85964 0.95403 0.96937 0.0
H1420 H 0.88015 0.95042 0.95202 0.0
H1421 H 0.88014 0.8834 0.95759 0.0
H1422 H 0.89152 0.92248 0.9674 0.0
H1423 H 0.89429 0.92149 0.04965 0.0
H1424 H 0.89628 0.82846 0.04846 0.0
H1425 H 0.87676 0.82542 0.98869 0.0
C1426 C 0.87713 1.02831 0.98429 0.0
C1427 C 0.88052 0.07223 0.99525 0.0
C1428 C 0.88577 0.06801 1.01592 0.0
C1429 C 0.8876 1.02034 1.02547 0.0
C1430 C 0.88382 0.9777 1.01436 0.0
C1431 C 0.87866 0.98171 0.99428 0.0
C1432 C 0.87551 0.9311 0.98523 0.0
C1433 C 0.86261 0.92658 0.98178 0.0
C1434 C 0.88221 0.92113 0.9643 0.0
C1435 C 0.87955 0.89737 1.00326 0.0
C1436 C 0.88451 0.92442 1.01992 0.0
C1437 C 0.89021 0.90015 0.03687 0.0
C1438 C 0.89126 0.84728 0.0361 0.0
C1439 C 0.88659 0.81958 1.01854 0.0
C1440 C 0.88022 0.84508 1.0026 0.0
H1441 H 0.86745 0.87648 0.82277 0.0
H1442 H 0.89473 0.76703 0.82873 0.0
H1443 H 0.90881 0.83629 0.8277 0.0
H1444 H 0.88009 0.95886 0.78595 0.0
H1445 H 0.87461 1.01505 0.79867 0.0
H1446 H 0.86704 0.95663 0.80126 0.0
H1447 H 0.8677 0.96563 0.84291 0.0
H1448 H 0.87576 1.02294 0.84112 0.0
H1449 H 0.88117 0.97087 0.85666 0.0
H1450 H 0.9198 0.91718 0.82324 0.0
H1451 H 0.92683 1.00188 0.81311 0.0
H1452 H 0.89231 0.05625 0.80943 0.0
C1453 C 0.87639 0.86693 0.82378 0.0
C1454 C 0.88003 0.81643 0.82561 0.0
C1455 C 0.89178 0.80558 0.82724 0.0
C1456 C 0.89982 0.84463 0.82676 0.0
C1457 C 0.89591 0.89414 0.82502 0.0
C1458 C 0.88447 0.90526 0.82352 0.0
C1459 C 0.88243 0.96123 0.82131 0.0
C1460 C 0.87565 0.97364 0.80056 0.0
C1461 C 0.87642 0.98136 0.8417 0.0
C1462 C 0.89455 0.97975 0.82003 0.0
C1463 C 0.90222 0.94073 0.82301 0.0
C1464 C 0.91389 0.94811 0.82117 0.0
C1465 C 0.91779 0.9962 0.81535 0.0
C1466 C 0.91003 1.03597 0.81127 0.0
C1467 C 0.89834 1.02761 0.8139 0.0
H1468 H 0.1301 0.58531 0.55058 0.0
H1469 H 0.12549 0.5318 0.61678 0.0
H1470 H 0.12338 0.61832 0.62906 0.0
H1471 H 0.14619 0.68922 0.56225 0.0
H1472 H 0.13991 0.73195 0.54282 0.0
H1473 H 0.1397 0.6651 0.53785 0.0
H1474 H 0.11777 0.66663 0.5341 0.0
H1475 H 0.11793 0.73384 0.53842 0.0
H1476 H 0.10931 0.69394 0.55546 0.0
H1477 H 0.12606 0.70905 0.63519 0.0
H1478 H 0.12622 0.80154 0.63529 0.0
H1479 H 0.1279 0.79994 0.56473 0.0
C1480 C 0.12815 0.5918 0.56753 0.0
C1481 C 0.12808 0.55163 0.58275 0.0
C1482 C 0.1256 0.56172 0.60477 0.0
C1483 C 0.12438 0.61113 0.61198 0.0
C1484 C 0.12523 0.65008 0.59693 0.0
C1485 C 0.12663 0.64121 0.57503 0.0
C1486 C 0.12756 0.69049 0.56252 0.0
C1487 C 0.13903 0.69438 0.55066 0.0
C1488 C 0.11754 0.69659 0.54669 0.0
C1489 C 0.12683 0.72809 0.581 0.0
C1490 C 0.12558 0.70363 0.60061 0.0
C1491 C 0.12583 0.7293 0.62016 0.0
C1492 C 0.1264 0.78178 0.61992 0.0
C1493 C 0.12683 0.80829 0.60001 0.0
C1494 C 0.12742 0.78086 0.58027 0.0
H1495 H 0.10934 0.64099 0.76684 0.0
H1496 H 0.13328 0.53506 0.73872 0.0
H1497 H 0.14764 0.60217 0.73607 0.0
H1498 H 0.11725 0.75176 0.73683 0.0
H1499 H 0.11573 0.79174 0.76039 0.0
H1500 H 0.10751 0.73499 0.75826 0.0
H1501 H 0.11573 0.70926 0.79619 0.0
H1502 H 0.12421 0.7657 0.79688 0.0
H1503 H 0.13092 0.70488 0.79961 0.0
H1504 H 0.1593 0.6803 0.73588 0.0
H1505 H 0.16831 0.76328 0.74216 0.0
H1506 H 0.13726 0.81794 0.77159 0.0
C1507 C 0.11765 0.63204 0.76033 0.0
C1508 C 0.12023 0.58304 0.75306 0.0
C1509 C 0.13118 0.57233 0.74467 0.0
C1510 C 0.13936 0.61026 0.74288 0.0
C1511 C 0.13652 0.65842 0.7499 0.0
C1512 C 0.12604 0.6692 0.75893 0.0
C1513 C 0.12545 0.72336 0.76644 0.0
C1514 C 0.11592 0.7521 0.75471 0.0
C1515 C 0.12399 0.72593 0.79125 0.0
C1516 C 0.13707 0.74177 0.75953 0.0
C1517 C 0.14332 0.7036 0.75 0.0
C1518 C 0.15448 0.71066 0.74314 0.0
C1519 C 0.15949 0.75779 0.74661 0.0
C1520 C 0.15325 0.79713 0.75642 0.0
C1521 C 0.14194 0.78912 0.76296 0.0
H1522 H 0.88792 0.35425 0.48716 0.0
H1523 H 0.85964 0.25748 0.47061 0.0
H1524 H 0.84638 0.33 0.47498 0.0
H1525 H 0.87472 0.42865 0.52686 0.0
H1526 H 0.88133 0.48679 0.51859 0.0
H1527 H 0.88843 0.42775 0.51379 0.0
H1528 H 0.88988 0.44687 0.47277 0.0
H1529 H 0.88297 0.5064 0.47667 0.0
H1530 H 0.87724 0.46258 0.45759 0.0
H1531 H 0.83641 0.41386 0.48201 0.0
H1532 H 0.83036 0.49903 0.49367 0.0
H1533 H 0.86537 0.53942 0.50535 0.0
C1534 C 0.87892 0.34848 0.48441 0.0
C1535 C 0.8747 0.30073 0.47864 0.0
C1536 C 0.86295 0.29417 0.47497 0.0
C1537 C 0.85541 0.33499 0.4775 0.0
C1538 C 0.85988 0.38214 0.48288 0.0
C1539 C 0.87138 0.38884 0.48629 0.0
C1540 C 0.87416 0.44288 0.49176 0.0
C1541 C 0.88 0.44672 0.51407 0.0
C1542 C 0.88149 0.466 0.47364 0.0
C1543 C 0.86235 0.46557 0.49205 0.0
C1544 C 0.85425 0.43021 0.48634 0.0
C1545 C 0.8427 0.44182 0.48635 0.0
C1546 C 0.83935 0.49021 0.49301 0.0
C1547 C 0.8475 0.52634 0.4996 0.0
C1548 C 0.85911 0.51378 0.499 0.0
H1549 H 0.8639 0.30294 0.30476 0.0
H1550 H 0.82863 0.33991 0.31584 0.0
H1551 H 0.83432 0.4204 0.33292 0.0
H1552 H 0.8754 0.36201 0.35557 0.0
H1553 H 0.88794 0.3857 0.34215 0.0
H1554 H 0.8815 0.32789 0.33349 0.0
H1555 H 0.87916 0.36176 0.29383 0.0
H1556 H 0.88632 0.41819 0.30241 0.0
H1557 H 0.87252 0.42222 0.28977 0.0
H1558 H 0.84392 0.50028 0.34624 0.0
H1559 H 0.8567 0.57343 0.35276 0.0
H1560 H 0.88552 0.48364 0.33239 0.0
C1561 C 0.85748 0.32657 0.31198 0.0
C1562 C 0.84591 0.31419 0.30998 0.0
C1563 C 0.83758 0.34837 0.31768 0.0
C1564 C 0.84073 0.39403 0.32747 0.0
C1565 C 0.85225 0.40515 0.3293 0.0
C1566 C 0.86051 0.37227 0.32181 0.0
C1567 C 0.87222 0.39547 0.32353 0.0
C1568 C 0.8797 0.36611 0.33964 0.0
C1569 C 0.87789 0.39966 0.30106 0.0
C1570 C 0.86924 0.44678 0.3325 0.0
C1571 C 0.8577 0.45161 0.33609 0.0
C1572 C 0.85298 0.4967 0.34364 0.0
C1573 C 0.86026 0.53787 0.34742 0.0
C1574 C 0.87202 0.53355 0.34322 0.0
C1575 C 0.87654 0.48741 0.33593 0.0
H1576 H 0.62598 0.23028 0.59618 0.0
H1577 H 0.60463 0.24049 0.53885 0.0
H1578 H 0.61564 0.17 0.5222 0.0
H1579 H 0.65216 0.20403 0.56776 0.0
H1580 H 0.65728 0.16368 0.58929 0.0
H1581 H 0.64776 0.21485 0.59536 0.0
H1582 H 0.6341 0.15192 0.61404 0.0
H1583 H 0.64355 0.10063 0.60756 0.0
H1584 H 0.62892 0.09852 0.59922 0.0
H1585 H 0.6293 0.0973 0.51251 0.0
H1586 H 0.6444 1.03219 0.50999 0.0
H1587 H 0.65618 0.07156 0.57437 0.0
C1588 C 0.62351 0.21768 0.58012 0.0
C1589 C 0.61431 0.24024 0.56887 0.0
C1590 C 0.61162 0.22353 0.54771 0.0
C1591 C 0.6178 0.18349 0.53826 0.0
C1592 C 0.62667 0.16142 0.55015 0.0
C1593 C 0.62956 0.17855 0.57056 0.0
C1594 C 0.63956 0.15003 0.58004 0.0
C1595 C 0.6498 0.18522 0.58328 0.0
C1596 C 0.63634 0.12368 0.60146 0.0
C1597 C 0.64172 0.11268 0.56205 0.0
C1598 C 0.63431 0.12003 0.54482 0.0
C1599 C 0.63505 0.09113 0.52598 0.0
C1600 C 0.64363 0.05428 0.52469 0.0
C1601 C 0.65119 1.04613 0.54226 0.0
C1602 C 0.65023 0.07585 0.56108 0.0
H1603 H 0.63132 0.28155 0.74132 0.0
H1604 H 0.63137 0.30389 0.67133 0.0
H1605 H 0.62969 0.21243 0.66628 0.0
H1606 H 0.6481 0.17028 0.74244 0.0
H1607 H 0.64011 0.1393 0.76356 0.0
H1608 H 0.64067 0.20716 0.7625 0.0
H1609 H 0.61865 0.2121 0.76121 0.0
H1610 H 0.61807 0.14437 0.763 0.0
H1611 H 0.61105 0.17657 0.74095 0.0
H1612 H 0.63103 0.11942 0.66799 0.0
H1613 H 0.62879 1.03001 0.67638 0.0
H1614 H 0.6268 0.06582 0.74516 0.0
C1615 C 0.63084 0.26727 0.72488 0.0
C1616 C 0.63163 0.2999 0.70669 0.0
C1617 C 0.63093 0.27972 0.68551 0.0
C1618 C 0.63023 0.22773 0.68243 0.0
C1619 C 0.63033 0.19646 0.70053 0.0
C1620 C 0.6302 0.21526 0.72138 0.0
C1621 C 0.62962 0.17297 0.73796 0.0
C1622 C 0.64026 0.17242 0.75247 0.0
C1623 C 0.6187 0.17673 0.75157 0.0
C1624 C 0.6294 0.12764 0.72302 0.0
C1625 C 0.63001 0.14229 0.70155 0.0
C1626 C 0.63029 0.1076 0.6847 0.0
C1627 C 0.62912 0.05667 0.68967 0.0
C1628 C 0.62743 1.04095 0.71137 0.0
C1629 C 0.62807 0.07669 0.72837 0.0
H1630 H 0.37238 0.98993 0.51449 0.0
H1631 H 0.39388 0.06392 0.46692 0.0
H1632 H 0.40697 0.99054 0.4677 0.0
H1633 H 0.39468 0.92715 0.54566 0.0
H1634 H 0.38617 0.87144 0.5496 0.0
H1635 H 0.37941 0.93208 0.54674 0.0
H1636 H 0.36738 0.89681 0.51521 0.0
H1637 H 0.37437 0.83651 0.51701 0.0
H1638 H 0.37443 0.87134 0.49169 0.0
H1639 H 0.41816 0.90977 0.47571 0.0
H1640 H 0.42535 0.82591 0.4873 0.0
H1641 H 0.39476 0.8011 0.52461 0.0
C1642 C 0.37996 0.99134 0.50453 0.0
C1643 C 0.38221 1.0329 0.49086 0.0
C1644 C 0.39206 1.03258 0.47767 0.0
C1645 C 0.39953 0.99114 0.47803 0.0
C1646 C 0.39693 0.95037 0.4915 0.0
C1647 C 0.38735 0.95024 0.50443 0.0
C1648 C 0.38596 0.90073 0.5163 0.0
C1649 C 0.3866 0.90832 0.54104 0.0
C1650 C 0.37486 0.87475 0.50967 0.0
C1651 C 0.3962 0.87246 0.50793 0.0
C1652 C 0.4026 0.90213 0.49406 0.0
C1653 C 0.41303 0.88576 0.486 0.0
C1654 C 0.41698 0.838 0.49239 0.0
C1655 C 0.41023 0.8063 0.50558 0.0
C1656 C 0.39975 0.82379 0.51351 0.0
H1657 H 0.37864 0.99587 0.3174 0.0
H1658 H 0.41163 0.97616 0.28704 0.0
H1659 H 0.4112 0.88571 0.29623 0.0
H1660 H 0.38223 0.92224 0.36145 0.0
H1661 H 0.36848 0.89246 0.36153 0.0
H1662 H 0.37018 0.95393 0.34962 0.0
H1663 H 0.36185 0.9221 0.31344 0.0
H1664 H 0.35972 0.86109 0.32572 0.0
H1665 H 0.36772 0.86655 0.30086 0.0
H1666 H 0.40812 0.79913 0.31228 0.0
H1667 H 0.40154 0.72118 0.3307 0.0
H1668 H 0.37126 0.79991 0.35217 0.0
C1669 C 0.38561 0.97227 0.31205 0.0
C1670 C 0.39519 0.99325 0.30157 0.0
C1671 C 0.40417 0.96104 0.29498 0.0
C1672 C 0.40404 0.90958 0.30024 0.0
C1673 C 0.39479 0.89075 0.31174 0.0
C1674 C 0.38559 0.92082 0.31705 0.0
C1675 C 0.37686 0.89167 0.33 0.0
C1676 C 0.37432 0.91663 0.35196 0.0
C1677 C 0.36589 0.88494 0.3167 0.0
C1678 C 0.38303 0.84197 0.33273 0.0
C1679 C 0.39318 0.84153 0.32151 0.0
C1680 C 0.40016 0.79897 0.32106 0.0
C1681 C 0.39645 0.75514 0.33174 0.0
C1682 C 0.38603 0.75487 0.34318 0.0
C1683 C 0.37939 0.79924 0.344 0.0
H1684 H 0.61478 0.71314 0.04414 0.0
H1685 H 0.62783 0.79262 0.10057 0.0
H1686 H 0.63133 0.71253 0.11872 0.0
H1687 H 0.60126 0.61477 0.07209 0.0
H1688 H 0.60521 0.5651 0.05365 0.0
H1689 H 0.60386 0.62891 0.04388 0.0
H1690 H 0.62447 0.62692 1.02918 0.0
H1691 H 0.62576 0.56254 0.03825 0.0
H1692 H 0.63592 0.609 0.04709 0.0
H1693 H 0.63234 0.62532 0.13217 0.0
H1694 H 0.63402 0.53388 0.13797 0.0
H1695 H 0.62162 0.5083 0.07234 0.0
C1696 C 0.61875 0.71343 0.06002 0.0
C1697 C 0.62107 0.75924 0.07081 0.0
C1698 C 0.62612 0.75824 0.09171 0.0
C1699 C 0.62818 0.71271 0.10227 0.0
C1700 C 0.62562 0.66832 0.09149 0.0
C1701 C 0.62125 0.66799 0.07065 0.0
C1702 C 0.61927 0.6145 0.06293 0.0
C1703 C 0.60665 0.60532 0.05785 0.0
C1704 C 0.62681 0.60253 0.0432 0.0
C1705 C 0.62303 0.58524 0.08287 0.0
C1706 C 0.62654 0.61722 0.09916 0.0
C1707 C 0.63004 0.59958 0.11936 0.0
C1708 C 0.63075 0.54754 0.12259 0.0
C1709 C 0.62814 0.51384 0.10548 0.0
C1710 C 0.62375 0.53304 0.0857 0.0
H1711 H 0.60267 0.56494 0.23322 0.0
H1712 H 0.61121 0.52625 0.29962 0.0
H1713 H 0.62407 0.59953 0.30149 0.0
H1714 H 0.63176 0.6172 0.21798 0.0
H1715 H 0.62539 0.66557 0.20136 0.0
H1716 H 0.61855 0.60513 0.20411 0.0
H1717 H 0.60025 0.65054 0.21665 0.0
H1718 H 0.60714 0.71083 0.21471 0.0
H1719 H 0.60075 0.6915 0.23999 0.0
H1720 H 0.63356 0.68131 0.29824 0.0
H1721 H 0.64096 0.76524 0.28909 0.0
H1722 H 0.62656 0.75279 0.22428 0.0
C1723 C 0.60769 0.57057 0.24768 0.0
C1724 C 0.60626 0.53945 0.26609 0.0
C1725 C 0.61242 0.54942 0.28529 0.0
C1726 C 0.61972 0.59084 0.28647 0.0
C1727 C 0.6207 0.62185 0.26829 0.0
C1728 C 0.61504 0.61195 0.24909 0.0
C1729 C 0.61691 0.65389 0.23263 0.0
C1730 C 0.62355 0.63426 0.21286 0.0
C1731 C 0.60558 0.6781 0.2256 0.0
C1732 C 0.62403 0.68994 0.24606 0.0
C1733 C 0.6262 0.67018 0.26645 0.0
C1734 C 0.63212 0.69691 0.28221 0.0
C1735 C 0.63621 0.74478 0.27689 0.0
C1736 C 0.63435 0.76563 0.25599 0.0
C1737 C 0.62809 0.73791 0.24042 0.0
H1738 H 0.40088 0.38187 1.02051 0.0
H1739 H 0.37784 0.26077 1.00427 0.0
H1740 H 0.36193 0.32185 1.00197 0.0
H1741 H 0.3785 0.44418 0.05649 0.0
H1742 H 0.38429 0.50574 0.05099 0.0
H1743 H 0.39351 0.45144 0.05168 0.0
H1744 H 0.40059 0.47227 1.01263 0.0
H1745 H 0.39147 0.52643 1.01293 0.0
H1746 H 0.39023 0.48059 0.99128 0.0
H1747 H 0.34927 0.39997 0.99626 0.0
H1748 H 0.33954 0.48283 0.99784 0.0
H1749 H 0.37005 0.55048 1.02399 0.0
C1750 C 0.39244 0.36804 1.01688 0.0
C1751 C 0.39073 0.31698 1.01113 0.0
C1752 C 0.37949 0.30012 1.00737 0.0
C1753 C 0.37038 0.33458 1.00622 0.0
C1754 C 0.37253 0.38542 1.01038 0.0
C1755 C 0.38314 0.40139 1.01698 0.0
C1756 C 0.38302 0.45715 1.02236 0.0
C1757 C 0.38494 0.46509 0.04683 0.0
C1758 C 0.39186 0.48578 1.00893 0.0
C1759 C 0.37097 0.47133 1.01585 0.0
C1760 C 0.36504 0.42925 1.00903 0.0
C1761 C 0.35381 0.43293 1.00185 0.0
C1762 C 0.3484 0.48028 1.0025 0.0
C1763 C 0.35417 0.52358 1.01016 0.0
C1764 C 0.36562 0.51882 1.01692 0.0
H1765 H 0.38097 0.49337 0.81707 0.0
H1766 H 0.37975 0.53721 0.88501 0.0
H1767 H 0.37778 0.44835 0.89539 0.0
H1768 H 0.36028 0.39059 0.82291 0.0
H1769 H 0.36738 0.35126 0.8033 0.0
H1770 H 0.36817 0.41887 0.80096 0.0
H1771 H 0.39019 0.41275 0.801 0.0
H1772 H 0.38945 0.34522 0.80392 0.0
H1773 H 0.3973 0.38204 0.82338 0.0
H1774 H 0.37934 0.35489 0.89941 0.0
H1775 H 0.37626 0.26353 0.89603 0.0
H1776 H 0.37595 0.27902 0.82576 0.0
C1777 C 0.38019 0.48432 0.83416 0.0
C1778 C 0.38067 0.52235 0.85024 0.0
C1779 C 0.37955 0.50891 0.87236 0.0
C1780 C 0.37869 0.45839 0.8785 0.0
C1781 C 0.37895 0.42171 0.8625 0.0
C1782 C 0.37928 0.43391 0.84072 0.0
C1783 C 0.37879 0.38691 0.82683 0.0
C1784 C 0.36801 0.38691 0.81267 0.0
C1785 C 0.38958 0.38143 0.81296 0.0
C1786 C 0.37826 0.34666 0.84432 0.0
C1787 C 0.37855 0.36765 0.86477 0.0
C1788 C 0.37852 0.33819 0.88351 0.0
C1789 C 0.37702 0.2862 0.88144 0.0
C1790 C 0.37573 0.2643 0.8607 0.0
C1791 C 0.37691 0.29466 0.84189 0.0
H1792 H 0.1065 0.25354 0.1259 0.0
H1793 H 0.07067 0.29095 0.12435 0.0
H1794 H 0.06659 0.21651 0.1473 0.0
H1795 H 0.10315 0.11286 0.12604 0.0
H1796 H 0.11491 0.10366 0.14441 0.0
H1797 H 0.11469 0.15751 0.12648 0.0
H1798 H 0.11799 0.21085 0.15954 0.0
H1799 H 0.11589 0.16269 0.17981 0.0
H1800 H 0.10701 0.21779 0.17948 0.0
H1801 H 0.06623 0.13185 0.17165 0.0
H1802 H 0.06983 0.05608 0.19434 0.0
H1803 H 0.10588 0.07275 0.18256 0.0
C1804 C 0.09774 0.24624 0.13017 0.0
C1805 C 0.08895 0.28036 0.12264 0.0
C1806 C 0.07771 0.26732 0.12934 0.0
C1807 C 0.07527 0.22418 0.14258 0.0
C1808 C 0.08404 0.19192 0.14966 0.0
C1809 C 0.0951 0.20254 0.14352 0.0
C1810 C 0.10306 0.16312 0.15416 0.0
C1811 C 0.10933 0.1325 0.13673 0.0
C1812 C 0.11151 0.19008 0.16914 0.0
C1813 C 0.09487 0.12863 0.16721 0.0
C1814 C 0.08389 0.14562 0.16412 0.0
C1815 C 0.07487 0.11899 0.17397 0.0
C1816 C 0.07701 0.075 0.18701 0.0
C1817 C 0.08817 0.05588 0.19088 0.0
C1818 C 0.09718 0.08444 0.18048 0.0
H1819 H 0.15858 0.06382 0.13272 0.0
H1820 H 0.19006 0.08502 0.09789 0.0
H1821 H 0.19374 0.16303 0.11933 0.0
H1822 H 0.14533 0.12717 0.14987 0.0
H1823 H 0.14952 0.18791 0.13982 0.0
H1824 H 0.14504 0.18182 0.16752 0.0
H1825 H 0.15883 0.08015 0.17703 0.0
H1826 H 0.16 0.13333 0.19553 0.0
H1827 H 0.17235 0.10658 0.18341 0.0
H1828 H 0.19327 0.24694 0.14764 0.0
H1829 H 0.18894 0.31279 0.17519 0.0
H1830 H 0.15792 0.2344 0.1916 0.0
C1831 C 0.16629 0.08468 0.12941 0.0
C1832 C 0.17394 0.06666 0.11298 0.0
C1833 C 0.18395 0.09627 0.11009 0.0
C1834 C 0.18609 0.14154 0.12235 0.0
C1835 C 0.1783 0.15821 0.13827 0.0
C1836 C 0.16869 0.12948 0.14185 0.0
C1837 C 0.16208 0.15186 0.16094 0.0
C1838 C 0.14974 0.16266 0.15426 0.0
C1839 C 0.16327 0.11589 0.1804 0.0
C1840 C 0.16838 0.20066 0.16622 0.0
C1841 C 0.17809 0.20323 0.15366 0.0
C1842 C 0.18558 0.24399 0.15718 0.0
C1843 C 0.18305 0.2818 0.17326 0.0
C1844 C 0.17299 0.28066 0.18627 0.0
C1845 C 0.16567 0.23832 0.18229 0.0
H1846 H 0.90082 0.82252 0.92999 0.0
H1847 H 0.93593 0.821 0.95115 0.0
H1848 H 0.93947 0.89817 0.92926 0.0
H1849 H 0.90743 0.86613 0.87345 0.0
H1850 H 0.89446 0.90214 0.87145 0.0
H1851 H 0.89502 0.8469 0.88846 0.0
H1852 H 0.88809 0.90165 0.92021 0.0
H1853 H 0.88804 0.95702 0.90328 0.0
H1854 H 0.8962 0.95678 0.92805 0.0
H1855 H 0.93901 0.98191 0.90415 0.0
H1856 H 0.93475 0.05464 0.88002 0.0
H1857 H 0.90009 1.00216 0.87366 0.0
C1858 C 0.90931 0.83812 0.93014 0.0
C1859 C 0.91807 0.81395 0.94301 0.0
C1860 C 0.92897 0.83707 0.94192 0.0
C1861 C 0.93107 0.88167 0.92933 0.0
C1862 C 0.92229 0.90421 0.91704 0.0
C1863 C 0.91162 0.88246 0.91718 0.0
C1864 C 0.90372 0.91286 0.90187 0.0
C1865 C 0.89994 0.88002 0.88266 0.0
C1866 C 0.89339 0.93328 0.91414 0.0
C1867 C 0.91133 0.95646 0.89398 0.0
C1868 C 0.92209 0.9505 0.90268 0.0
C1869 C 0.93055 0.98613 0.89749 0.0
C1870 C 0.92802 1.02806 0.88356 0.0
C1871 C 0.91701 1.03627 0.87456 0.0
C1872 C 0.90862 0.99875 0.88009 0.0
H1873 H 0.85649 1.00724 0.93482 0.0
H1874 H 0.82045 1.03768 0.94032 0.0
H1875 H 0.81645 0.9626 0.91757 0.0
H1876 H 0.8561 0.96037 0.87798 0.0
H1877 H 0.867 0.91455 0.8835 0.0
H1878 H 0.86634 0.97183 0.89918 0.0
H1879 H 0.86548 0.91558 0.93365 0.0
H1880 H 0.86577 0.85949 0.91735 0.0
H1881 H 0.85444 0.86924 0.93664 0.0
H1882 H 0.81644 0.8783 0.89262 0.0
H1883 H 0.8205 0.80158 0.87085 0.0
H1884 H 0.85651 0.82444 0.88132 0.0
C1885 C 0.8477 0.99825 0.93146 0.0
C1886 C 0.83881 1.02994 0.94017 0.0
C1887 C 0.82753 1.01538 0.93452 0.0
C1888 C 0.82516 0.97215 0.92134 0.0
C1889 C 0.83408 0.94206 0.9132 0.0
C1890 C 0.84517 0.9549 0.91814 0.0
C1891 C 0.85326 0.91629 0.90748 0.0
C1892 C 0.86115 0.94235 0.89109 0.0
C1893 C 0.86015 0.8883 0.92483 0.0
C1894 C 0.84515 0.87975 0.8959 0.0
C1895 C 0.83406 0.89515 0.8993 0.0
C1896 C 0.82516 0.86672 0.89012 0.0
C1897 C 0.82756 0.82247 0.87757 0.0
C1898 C 0.83886 0.80495 0.87389 0.0
C1899 C 0.84771 0.8352 0.88347 0.0
H1900 H 0.10187 0.78141 0.64514 0.0
H1901 H 0.07137 0.76483 0.60638 0.0
H1902 H 0.06735 0.68384 0.62531 0.0
H1903 H 0.11048 0.65976 0.64693 0.0
H1904 H 0.11453 0.64914 0.67486 0.0
H1905 H 0.11533 0.71164 0.66376 0.0
H1906 H 0.1024 0.75297 0.68907 0.0
H1907 H 0.10214 0.69537 0.70448 0.0
H1908 H 0.08893 0.7236 0.69607 0.0
H1909 H 0.06664 0.59908 0.65069 0.0
H1910 H 0.07001 0.52699 0.67584 0.0
H1911 H 0.10126 0.59666 0.69722 0.0
C1912 C 0.09428 0.76109 0.6405 0.0
C1913 C 0.08703 0.78119 0.62353 0.0
C1914 C 0.0772 0.75194 0.61883 0.0
C1915 C 0.07482 0.70522 0.62974 0.0
C1916 C 0.08215 0.68675 0.64612 0.0
C1917 C 0.09164 0.71464 0.65167 0.0
C1918 C 0.09816 0.68674 0.66997 0.0
C1919 C 0.1104 0.67604 0.66344 0.0
C1920 C 0.09788 0.71663 0.69118 0.0
C1921 C 0.09146 0.63775 0.67281 0.0
C1922 C 0.08197 0.63892 0.65956 0.0
C1923 C 0.07418 0.5987 0.66078 0.0
C1924 C 0.07615 0.55735 0.67539 0.0
C1925 C 0.08601 0.55431 0.68882 0.0
C1926 C 0.0937 0.59608 0.68719 0.0
H1927 H 0.15398 0.59116 0.61771 0.0
H1928 H 0.18825 0.53974 0.6307 0.0
H1929 H 0.19098 0.61233 0.6557 0.0
H1930 H 0.16104 0.72436 0.61854 0.0
H1931 H 0.14809 0.74511 0.63092 0.0
H1932 H 0.14828 0.68861 0.61432 0.0
H1933 H 0.1404 0.63359 0.64596 0.0
H1934 H 0.1393 0.68944 0.66259 0.0
H1935 H 0.14726 0.63572 0.67199 0.0
H1936 H 0.18954 0.69807 0.68126 0.0
H1937 H 0.18426 0.77559 0.70148 0.0
H1938 H 0.15078 0.77057 0.67248 0.0
C1939 C 0.16214 0.5947 0.62569 0.0
C1940 C 0.1709 0.55779 0.62149 0.0
C1941 C 0.1813 0.56603 0.63291 0.0
C1942 C 0.18292 0.60786 0.64744 0.0
C1943 C 0.17411 0.64305 0.65114 0.0
C1944 C 0.1639 0.63637 0.6404 0.0
C1945 C 0.15576 0.67947 0.64662 0.0
C1946 C 0.15307 0.7112 0.62639 0.0
C1947 C 0.14501 0.65839 0.65738 0.0
C1948 C 0.1626 0.71093 0.66298 0.0
C1949 C 0.17329 0.68988 0.66527 0.0
C1950 C 0.18111 0.71375 0.67926 0.0
C1951 C 0.178 0.75869 0.69087 0.0
C1952 C 0.167 0.78128 0.68918 0.0
C1953 C 0.15927 0.75576 0.67473 0.0
H1954 H 0.90194 0.50244 0.37586 0.0
H1955 H 0.93784 0.53178 0.36701 0.0
H1956 H 0.94234 0.46079 0.39193 0.0
H1957 H 0.90358 0.47111 0.43354 0.0
H1958 H 0.89277 0.4231 0.43189 0.0
H1959 H 0.89264 0.47524 0.41309 0.0
H1960 H 0.89272 0.41167 0.38118 0.0
H1961 H 0.89294 0.36004 0.40025 0.0
H1962 H 0.90378 0.3647 0.37967 0.0
H1963 H 0.94294 0.38204 0.41852 0.0
H1964 H 0.93958 0.31067 0.44379 0.0
H1965 H 0.90328 0.33418 0.43762 0.0
C1966 C 0.91079 0.49384 0.3789 0.0
C1967 C 0.91952 0.52355 0.36873 0.0
C1968 C 0.93092 0.51037 0.37398 0.0
C1969 C 0.93356 0.46969 0.38834 0.0
C1970 C 0.92479 0.44157 0.39801 0.0
C1971 C 0.91359 0.45352 0.39353 0.0
C1972 C 0.9057 0.41833 0.40648 0.0
C1973 C 0.89823 0.44879 0.42219 0.0
C1974 C 0.89835 0.38679 0.39097 0.0
C1975 C 0.91413 0.38471 0.41899 0.0
C1976 C 0.92513 0.39842 0.4137 0.0
C1977 C 0.93433 0.37179 0.42274 0.0
C1978 C 0.93233 0.33085 0.43729 0.0
C1979 C 0.92118 0.31597 0.44344 0.0
C1980 C 0.91198 0.34417 0.43391 0.0
H1981 H 0.8596 0.50105 0.43575 0.0
H1982 H 0.8243 0.54738 0.43323 0.0
H1983 H 0.82007 0.47416 0.40955 0.0
H1984 H 0.86246 0.45912 0.38129 0.0
H1985 H 0.87111 0.40465 0.38716 0.0
H1986 H 0.8714 0.45834 0.40491 0.0
H1987 H 0.86592 0.40308 0.43762 0.0
H1988 H 0.86627 0.34901 0.42 0.0
H1989 H 0.85366 0.36246 0.43547 0.0
H1990 H 0.81956 0.39073 0.38572 0.0
H1991 H 0.82294 0.31309 0.36438 0.0
H1992 H 0.85875 0.32094 0.38039 0.0
C1993 C 0.85094 0.49623 0.43023 0.0
C1994 C 0.84232 0.53188 0.43668 0.0
C1995 C 0.83116 0.52214 0.42887 0.0
C1996 C 0.82866 0.48002 0.41525 0.0
C1997 C 0.83733 0.44625 0.40916 0.0
C1998 C 0.84828 0.45396 0.41657 0.0
C1999 C 0.85609 0.41207 0.4077 0.0
C2000 C 0.86584 0.43486 0.39443 0.0
C2001 C 0.86079 0.37978 0.42635 0.0
C2002 C 0.84798 0.38044 0.39356 0.0
C2003 C 0.83712 0.40018 0.39507 0.0
C2004 C 0.82808 0.37564 0.38454 0.0
C2005 C 0.83008 0.33073 0.3724 0.0
C2006 C 0.84111 0.30916 0.37025 0.0
C2007 C 0.85016 0.33536 0.38125 0.0
H2008 H 0.60069 0.09596 0.69778 0.0
H2009 H 0.56552 0.05103 0.69174 0.0
H2010 H 0.56188 0.12606 0.6683 0.0
H2011 H 0.59544 0.22953 0.70055 0.0
H2012 H 0.60784 0.24676 0.68548 0.0
H2013 H 0.60754 0.18854 0.7011 0.0
H2014 H 0.61182 0.1336 0.66556 0.0
H2015 H 0.61316 0.19234 0.65059 0.0
H2016 H 0.6034 0.14463 0.64198 0.0
H2017 H 0.56306 0.21294 0.64156 0.0
H2018 H 0.56852 0.28998 0.62079 0.0
H2019 H 0.60257 0.27824 0.64676 0.0
C2020 C 0.59212 0.10166 0.69183 0.0
C2021 C 0.58342 0.06601 0.6974 0.0
C2022 C 0.57246 0.07671 0.68848 0.0
C2023 C 0.57031 0.11983 0.67481 0.0
C2024 C 0.57912 0.15393 0.6697 0.0
C2025 C 0.58978 0.14476 0.67828 0.0
C2026 C 0.59793 0.18606 0.67081 0.0
C2027 C 0.60255 0.21435 0.69062 0.0
C2028 C 0.60721 0.16302 0.65648 0.0
C2029 C 0.59054 0.22087 0.65706 0.0
C2030 C 0.57964 0.20177 0.65602 0.0
C2031 C 0.57163 0.2273 0.64287 0.0
C2032 C 0.57484 0.27182 0.63091 0.0
C2033 C 0.58605 0.29247 0.63181 0.0
C2034 C 0.59386 0.2655 0.64546 0.0
H2035 H 0.65679 0.07625 0.63724 0.0
H2036 H 0.69069 0.07216 0.6103 0.0
H2037 H 0.69569 0.14846 0.63175 0.0
H2038 H 0.65378 0.19645 0.63289 0.0
H2039 H 0.64796 0.22321 0.65677 0.0
H2040 H 0.64414 0.15967 0.64846 0.0
H2041 H 0.65243 0.1017 0.67751 0.0
H2042 H 0.65234 0.15847 0.69408 0.0
H2043 H 0.66493 0.12101 0.69177 0.0
H2044 H 0.69644 0.23369 0.65918 0.0
H2045 H 0.69247 0.30629 0.6837 0.0
H2046 H 0.65792 0.25393 0.69122 0.0
C2047 C 0.66536 0.09062 0.63582 0.0
C2048 C 0.67326 0.06611 0.62159 0.0
C2049 C 0.6843 0.08847 0.62079 0.0
C2050 C 0.68726 0.13257 0.63316 0.0
C2051 C 0.6792 0.15559 0.64693 0.0
C2052 C 0.6685 0.13439 0.64819 0.0
C2053 C 0.66106 0.16641 0.66302 0.0
C2054 C 0.65109 0.18752 0.64971 0.0
C2055 C 0.65737 0.13508 0.68274 0.0
C2056 C 0.66892 0.20891 0.67041 0.0
C2057 C 0.67951 0.20238 0.6612 0.0
C2058 C 0.68808 0.23777 0.66625 0.0
C2059 C 0.68575 0.27948 0.68055 0.0
C2060 C 0.67485 0.2874 0.69022 0.0
C2061 C 0.66642 0.25041 0.68469 0.0
H2062 H 0.40618 0.98904 0.36502 0.0
H2063 H 0.43961 1.04589 0.38109 0.0
H2064 H 0.44244 0.97365 0.40624 0.0
H2065 H 0.39908 0.94627 0.42021 0.0
H2066 H 0.39123 0.89238 0.41069 0.0
H2067 H 0.39233 0.94801 0.39396 0.0
H2068 H 0.40106 0.89245 0.3624 0.0
H2069 H 0.39913 0.83848 0.37989 0.0
H2070 H 0.41291 0.85223 0.36862 0.0
H2071 H 0.44172 0.8893 0.43035 0.0
H2072 H 0.437 0.81206 0.45128 0.0
H2073 H 0.40345 0.81201 0.42225 0.0
C2074 C 0.41417 0.98638 0.37367 0.0
C2075 C 0.42274 1.02441 0.37035 0.0
C2076 C 0.43288 1.01836 0.38271 0.0
C2077 C 0.43457 0.97684 0.39724 0.0
C2078 C 0.426 0.94043 0.40007 0.0
C2079 C 0.41591 0.94533 0.38869 0.0
C2080 C 0.40784 0.9022 0.39523 0.0
C2081 C 0.39697 0.92346 0.40562 0.0
C2082 C 0.40505 0.86937 0.37538 0.0
C2083 C 0.41485 0.87216 0.412 0.0
C2084 C 0.4254 0.89443 0.41437 0.0
C2085 C 0.43342 0.87238 0.42849 0.0
C2086 C 0.43065 0.82773 0.44043 0.0
C2087 C 0.4198 0.80433 0.43898 0.0
C2088 C 0.41186 0.82783 0.42424 0.0
H2089 H 0.35378 0.98654 0.44523 0.0
H2090 H 0.3208 0.04845 0.42861 0.0
H2091 H 0.31781 0.97831 0.40275 0.0
H2092 H 0.36178 0.94498 0.39243 0.0
H2093 H 0.36842 0.88672 0.40103 0.0
H2094 H 0.36776 0.93957 0.41926 0.0
H2095 H 0.35775 0.88497 0.44799 0.0
H2096 H 0.35844 0.83144 0.43003 0.0
H2097 H 0.34496 0.85156 0.44085 0.0
H2098 H 0.31831 0.89682 0.37741 0.0
H2099 H 0.3225 0.81943 0.35624 0.0
H2100 H 0.3555 0.81017 0.38723 0.0
C2101 C 0.34584 0.98539 0.43636 0.0
C2102 C 0.3375 1.02458 0.43965 0.0
C2103 C 0.32737 1.02009 0.42709 0.0
C2104 C 0.3256 0.97979 0.41209 0.0
C2105 C 0.33396 0.94244 0.4092 0.0
C2106 C 0.3439 0.94487 0.42119 0.0
C2107 C 0.35159 0.90002 0.41496 0.0
C2108 C 0.36307 0.91892 0.40638 0.0
C2109 C 0.3533 0.86494 0.43463 0.0
C2110 C 0.34471 0.87305 0.39704 0.0
C2111 C 0.33442 0.89754 0.39433 0.0
C2112 C 0.32642 0.87813 0.37949 0.0
C2113 C 0.32889 0.83354 0.36733 0.0
C2114 C 0.33943 0.80753 0.36925 0.0
C2115 C 0.3474 0.82859 0.38461 0.0
H2116 H 0.60131 0.74129 0.11467 0.0
H2117 H 0.56907 0.80515 0.13444 0.0
H2118 H 0.56633 0.73349 0.15991 0.0
H2119 H 0.59239 0.60716 0.11861 0.0
H2120 H 0.60621 0.58733 0.12774 0.0
H2121 H 0.60464 0.64298 0.11089 0.0
H2122 H 0.61559 0.69388 0.14121 0.0
H2123 H 0.61642 0.63795 0.15789 0.0
H2124 H 0.60988 0.69433 0.16828 0.0
H2125 H 0.56717 0.64804 0.18466 0.0
H2126 H 0.57179 0.56889 0.20442 0.0
H2127 H 0.60387 0.56093 0.17026 0.0
C2128 C 0.59359 0.74048 0.12421 0.0
C2129 C 0.58536 0.78062 0.12175 0.0
C2130 C 0.57556 0.77626 0.13527 0.0
C2131 C 0.57394 0.73499 0.15006 0.0
C2132 C 0.58218 0.69657 0.15203 0.0
C2133 C 0.59187 0.69943 0.13941 0.0
C2134 C 0.59951 0.65358 0.14461 0.0
C2135 C 0.60081 0.62077 0.12427 0.0
C2136 C 0.61105 0.67092 0.15348 0.0
C2137 C 0.59287 0.62475 0.16222 0.0
C2138 C 0.58277 0.64975 0.16616 0.0
C2139 C 0.57514 0.6291 0.18142 0.0
C2140 C 0.57785 0.58321 0.19272 0.0
C2141 C 0.58824 0.55654 0.18942 0.0
C2142 C 0.59581 0.57887 0.17367 0.0
H2143 H 0.65515 0.57949 0.12639 0.0
H2144 H 0.69093 0.54371 0.12135 0.0
H2145 H 0.69541 0.61691 0.14495 0.0
H2146 H 0.66001 0.72029 0.12598 0.0
H2147 H 0.64753 0.72894 0.14245 0.0
H2148 H 0.64873 0.67521 0.12444 0.0
H2149 H 0.64534 0.61478 0.16053 0.0
H2150 H 0.64369 0.67435 0.1742 0.0
H2151 H 0.65411 0.63005 0.18363 0.0
H2152 H 0.69583 0.70035 0.17091 0.0
H2153 H 0.69198 0.77536 0.19404 0.0
H2154 H 0.65594 0.75596 0.18302 0.0
C2155 C 0.66398 0.58678 0.13011 0.0
C2156 C 0.67264 0.55422 0.12132 0.0
C2157 C 0.68401 0.56693 0.12716 0.0
C2158 C 0.68665 0.60894 0.14089 0.0
C2159 C 0.67792 0.63978 0.14922 0.0
C2160 C 0.66677 0.62892 0.14387 0.0
C2161 C 0.65893 0.66918 0.15389 0.0
C2162 C 0.65343 0.70029 0.13566 0.0
C2163 C 0.64996 0.64558 0.16886 0.0
C2164 C 0.66714 0.70223 0.16699 0.0
C2165 C 0.67815 0.68572 0.1637 0.0
C2166 C 0.68715 0.71246 0.17348 0.0
C2167 C 0.68488 0.75568 0.18678 0.0
C2168 C 0.67362 0.77268 0.19112 0.0
C2169 C 0.66469 0.74462 0.18073 0.0
H2170 H 0.4059 0.32239 0.92046 0.0
H2171 H 0.43918 0.32085 0.95029 0.0
H2172 H 0.44417 0.39889 0.92974 0.0
H2173 H 0.41371 0.36945 0.86755 0.0
H2174 H 0.40133 0.40811 0.86509 0.0
H2175 H 0.40104 0.35111 0.88149 0.0
H2176 H 0.39345 0.40643 0.91238 0.0
H2177 H 0.39654 0.46974 0.90246 0.0
H2178 H 0.40312 0.44677 0.92637 0.0
H2179 H 0.44482 0.48605 0.9028 0.0
H2180 H 0.44072 0.5587 0.87817 0.0
H2181 H 0.40682 0.50081 0.86788 0.0
C2182 C 0.41437 0.33742 0.92258 0.0
C2183 C 0.4221 0.31323 0.93723 0.0
C2184 C 0.43295 0.33696 0.93933 0.0
C2185 C 0.43589 0.38198 0.9275 0.0
C2186 C 0.42799 0.4046 0.9132 0.0
C2187 C 0.41746 0.38221 0.91096 0.0
C2188 C 0.40997 0.4145 0.89636 0.0
C2189 C 0.40619 0.38403 0.87649 0.0
C2190 C 0.40012 0.43533 0.91 0.0
C2191 C 0.41777 0.45731 0.88934 0.0
C2192 C 0.42822 0.45205 0.8993 0.0
C2193 C 0.43658 0.489 0.89511 0.0
C2194 C 0.43417 0.53072 0.88078 0.0
C2195 C 0.42344 0.53672 0.87019 0.0
C2196 C 0.41523 0.49849 0.87499 0.0
H2197 H 0.35284 0.50834 0.92704 0.0
H2198 H 0.31811 0.53177 0.94761 0.0
H2199 H 0.3122 0.45707 0.92585 0.0
H2200 H 0.34487 0.46822 0.87175 0.0
H2201 H 0.35671 0.42625 0.86995 0.0
H2202 H 0.35741 0.48273 0.88683 0.0
H2203 H 0.36347 0.42393 0.91877 0.0
H2204 H 0.36055 0.36432 0.90555 0.0
H2205 H 0.35315 0.38101 0.92965 0.0
H2206 H 0.31059 0.372 0.89812 0.0
H2207 H 0.31383 0.29839 0.8738 0.0
H2208 H 0.34977 0.33181 0.8732 0.0
C2209 C 0.34393 0.49835 0.92714 0.0
C2210 C 0.33607 0.5278 0.93958 0.0
C2211 C 0.32451 0.51139 0.93855 0.0
C2212 C 0.32103 0.46824 0.92602 0.0
C2213 C 0.32909 0.44027 0.91402 0.0
C2214 C 0.34028 0.45567 0.91467 0.0
C2215 C 0.34746 0.42107 0.90052 0.0
C2216 C 0.352 0.45126 0.88115 0.0
C2217 C 0.35678 0.39636 0.91435 0.0
C2218 C 0.33904 0.38179 0.89233 0.0
C2219 C 0.32828 0.39372 0.89967 0.0
C2220 C 0.31912 0.36341 0.89272 0.0
C2221 C 0.32104 0.32112 0.87854 0.0
C2222 C 0.33211 0.30738 0.87103 0.0
C2223 C 0.34114 0.33948 0.87831 0.0
H2224 H 0.12413 0.52793 0.11263 0.0
H2225 H 0.14859 0.42945 0.08243 0.0
H2226 H 0.16409 0.48313 0.09557 0.0
H2227 H 0.15039 0.64591 0.12165 0.0
H2228 H 0.14182 0.66223 0.14472 0.0
H2229 H 0.13517 0.65032 0.11892 0.0
H2230 H 0.12231 0.58896 0.13973 0.0
H2231 H 0.13006 0.5973 0.16447 0.0
H2232 H 0.12834 0.53483 0.15333 0.0
H2233 H 0.17516 0.50659 0.12608 0.0
H2234 H 0.17458 0.46306 0.16111 0.0
H2235 H 0.14436 0.54449 0.17854 0.0
C2236 C 0.13283 0.51925 0.10833 0.0
C2237 C 0.13538 0.47373 0.09775 0.0
C2238 C 0.14658 0.4635 0.09132 0.0
C2239 C 0.1554 0.49476 0.09836 0.0
C2240 C 0.15287 0.53533 0.11219 0.0
C2241 C 0.14164 0.54964 0.11598 0.0
C2242 C 0.14088 0.58221 0.13602 0.0
C2243 C 0.14217 0.63836 0.12993 0.0
C2244 C 0.12975 0.57515 0.14917 0.0
C2245 C 0.15155 0.56347 0.1472 0.0
C2246 C 0.15945 0.54702 0.13169 0.0
C2247 C 0.16883 0.51773 0.13788 0.0
C2248 C 0.16839 0.49234 0.15772 0.0
C2249 C 0.15889 0.49891 0.17114 0.0
C2250 C 0.15135 0.53881 0.16738 0.0
H2251 H 0.13052 0.083 0.23783 0.0
H2252 H 0.14501 0.95216 0.2689 0.0
H2253 H 0.1582 0.94185 0.2381 0.0
H2254 H 0.12528 0.97754 0.20729 0.0
H2255 H 0.12065 1.01079 0.18328 0.0
H2256 H 0.11871 1.03888 0.20953 0.0
H2257 H 0.14193 0.1189 0.19242 0.0
H2258 H 0.12771 0.11512 0.20055 0.0
H2259 H 0.13131 0.09717 0.17323 0.0
H2260 H 0.16486 0.92838 0.19892 0.0
H2261 H 0.16311 0.90734 0.15978 0.0
H2262 H 0.13584 1.0164 0.15334 0.0
C2263 C 0.1371 0.05443 0.23895 0.0
C2264 C 0.13635 1.01699 0.25497 0.0
C2265 C 0.14514 0.98064 0.25626 0.0
C2266 C 0.15249 0.97388 0.23844 0.0
C2267 C 0.15037 1.00215 0.21962 0.0
C2268 C 0.14218 1.03991 0.21966 0.0
C2269 C 0.13606 1.04206 0.19812 0.0
C2270 C 0.1245 1.01546 0.19964 0.0
C2271 C 0.13423 0.09634 0.19036 0.0
C2272 C 0.14382 1.01028 0.18457 0.0
C2273 C 0.1518 0.98573 0.1973 0.0
C2274 C 0.15876 0.94801 0.1888 0.0
C2275 C 0.15762 0.93589 0.16671 0.0
C2276 C 0.14934 0.96038 0.15376 0.0
C2277 C 0.14234 0.99761 0.16287 0.0
H2278 H 0.90579 0.57121 0.92477 0.0
H2279 H 0.87475 0.56295 0.96163 0.0
H2280 H 0.86917 0.48744 0.94193 0.0
H2281 H 0.90209 0.57882 0.88539 0.0
H2282 H 0.90717 0.53296 0.86607 0.0
H2283 H 0.91423 0.54016 0.89172 0.0
H2284 H 0.91195 0.44743 0.9004 0.0
H2285 H 0.90542 0.43876 0.87417 0.0
H2286 H 0.89843 0.41679 0.89838 0.0
H2287 H 0.86131 0.46309 0.90823 0.0
H2288 H 0.85387 0.53111 0.88524 0.0
H2289 H 0.88751 0.55709 0.86034 0.0
C2290 C 0.89803 0.55155 0.92887 0.0
C2291 C 0.89033 0.57376 0.94339 0.0
C2292 C 0.88045 0.54779 0.94945 0.0
C2293 C 0.8774 0.50386 0.93865 0.0
C2294 C 0.88392 0.48821 0.92083 0.0
C2295 C 0.89464 0.50902 0.91698 0.0
C2296 C 0.89797 0.49964 0.89365 0.0
C2297 C 0.90579 0.54046 0.88363 0.0
C2298 C 0.90375 0.44758 0.89153 0.0
C2299 C 0.88609 0.49745 0.88422 0.0
C2300 C 0.87869 0.47732 0.89978 0.0
C2301 C 0.86694 0.48203 0.89717 0.0
C2302 C 0.8628 0.52134 0.88439 0.0
C2303 C 0.87051 0.55144 0.87288 0.0
C2304 C 0.88181 0.53522 0.87039 0.0
H2305 H 0.84204 0.11844 0.89909 0.0
H2306 H 0.84965 0.27669 0.89319 0.0
H2307 H 0.84665 0.27227 0.85364 0.0
H2308 H 0.85814 0.07628 0.86866 0.0
H2309 H 0.85065 1.02823 0.8536 0.0
H2310 H 0.84545 1.0473 0.87945 0.0
H2311 H 0.8313 0.04858 0.8363 0.0
H2312 H 0.82506 0.11014 0.83961 0.0
H2313 H 0.82608 0.06803 0.86253 0.0
H2314 H 0.85075 0.24733 0.81733 0.0
H2315 H 0.86701 0.21143 0.79828 0.0
H2316 H 0.85945 0.06506 0.82485 0.0
C2317 C 0.84236 0.15235 0.88927 0.0
C2318 C 0.84592 0.19776 0.89867 0.0
C2319 C 0.84677 0.2417 0.88599 0.0
C2320 C 0.84492 0.2394 0.86353 0.0
C2321 C 0.84249 0.19261 0.85402 0.0
C2322 C 0.84105 0.14963 0.86672 0.0
C2323 C 0.84227 0.10232 0.8532 0.0
C2324 C 0.8496 0.06135 0.86442 0.0
C2325 C 0.83048 0.08107 0.84757 0.0
C2326 C 0.84774 0.12475 0.83309 0.0
C2327 C 0.84611 0.17676 0.83247 0.0
C2328 C 0.85206 0.20701 0.81777 0.0
C2329 C 0.8613 0.1861 0.80674 0.0
C2330 C 0.86458 0.13603 0.8112 0.0
C2331 C 0.85694 0.10364 0.82178 0.0
H2332 H 0.10557 0.83309 0.73083 0.0
H2333 H 0.11694 0.96977 0.76162 0.0
H2334 H 0.09923 1.01162 0.75096 0.0
H2335 H 0.09673 0.84031 0.6935 0.0
H2336 H 0.08215 0.82041 0.69012 0.0
H2337 H 0.09004 0.79934 0.71332 0.0
H2338 H 0.07432 0.83166 0.73776 0.0
H2339 H 0.06672 0.85591 0.71451 0.0
H2340 H 0.07023 0.89703 0.73672 0.0
H2341 H 0.09355 1.04266 0.71483 0.0
H2342 H 0.09608 1.04465 0.67529 0.0
H2343 H 0.08225 0.8951 0.67039 0.0
C2344 C 0.10377 0.87032 0.73702 0.0
C2345 C 0.11262 0.89843 0.74641 0.0
C2346 C 0.11034 0.94759 0.75396 0.0
C2347 C 0.10029 0.97191 0.74785 0.0
C2348 C 0.09251 0.94604 0.73493 0.0
C2349 C 0.09332 0.89416 0.73231 0.0
C2350 C 0.0847 0.87716 0.71562 0.0
C2351 C 0.08868 0.83171 0.70219 0.0
C2352 C 0.07333 0.86479 0.72682 0.0
C2353 C 0.08355 0.92552 0.70277 0.0
C2354 C 0.08712 0.96633 0.71531 0.0
C2355 C 0.09047 1.01147 0.7053 0.0
C2356 C 0.09195 1.01247 0.68273 0.0
C2357 C 0.08932 0.96973 0.67028 0.0
C2358 C 0.08396 0.92833 0.68004 0.0
H2359 H 0.12351 0.30432 0.69324 0.0
H2360 H 0.14627 0.40163 0.72851 0.0
H2361 H 0.16239 0.34935 0.71789 0.0
H2362 H 0.15118 0.18929 0.69135 0.0
H2363 H 0.14512 0.16934 0.66593 0.0
H2364 H 0.13622 0.17841 0.68937 0.0
H2365 H 0.12335 0.2382 0.66787 0.0
H2366 H 0.13199 0.22834 0.64438 0.0
H2367 H 0.12935 0.29163 0.65383 0.0
H2368 H 0.17363 0.33818 0.68716 0.0
H2369 H 0.17346 0.37812 0.65161 0.0
H2370 H 0.14661 0.27981 0.63063 0.0
C2371 C 0.13195 0.31275 0.69917 0.0
C2372 C 0.1339 0.35801 0.71038 0.0
C2373 C 0.14474 0.36812 0.71892 0.0
C2374 C 0.15391 0.33752 0.71344 0.0
C2375 C 0.15218 0.29775 0.69892 0.0
C2376 C 0.14122 0.28207 0.6935 0.0
C2377 C 0.14165 0.24855 0.6737 0.0
C2378 C 0.14368 0.19324 0.68048 0.0
C2379 C 0.13096 0.25211 0.65906 0.0
C2380 C 0.15239 0.26942 0.6637 0.0
C2381 C 0.15935 0.28968 0.67992 0.0
C2382 C 0.1682 0.32273 0.67465 0.0
C2383 C 0.16811 0.34555 0.65428 0.0
C2384 C 0.15983 0.33187 0.639 0.0
C2385 C 0.15286 0.29006 0.64275 0.0
H2386 H 0.90909 0.11328 0.38354 0.0
H2387 H 0.91755 0.26654 0.39976 0.0
H2388 H 0.91996 0.28702 0.36116 0.0
H2389 H 0.92607 0.12135 0.32312 0.0
H2390 H 0.91534 0.07889 0.31313 0.0
H2391 H 0.92132 0.06986 0.33984 0.0
H2392 H 0.90101 0.071 0.35581 0.0
H2393 H 0.89531 0.0805 0.32935 0.0
H2394 H 0.89185 0.12444 0.35067 0.0
H2395 H 0.91189 0.30106 0.32648 0.0
H2396 H 0.89414 0.30539 0.30596 0.0
H2397 H 0.89185 0.14369 0.30584 0.0
C2398 C 0.91211 0.15006 0.37859 0.0
C2399 C 0.91305 0.18848 0.39404 0.0
C2400 C 0.91684 0.23671 0.38786 0.0
C2401 C 0.91836 0.24837 0.36591 0.0
C2402 C 0.91624 0.21105 0.35042 0.0
C2403 C 0.91373 0.16181 0.35657 0.0
C2404 C 0.90916 0.1322 0.33751 0.0
C2405 C 0.91853 0.09863 0.32783 0.0
C2406 C 0.89869 0.10035 0.34375 0.0
C2407 C 0.90641 0.17515 0.32207 0.0
C2408 C 0.91164 0.21957 0.32876 0.0
C2409 C 0.90804 0.26644 0.32085 0.0
C2410 C 0.89787 0.26884 0.30914 0.0
C2411 C 0.8916 0.22464 0.30532 0.0
C2412 C 0.89674 0.17752 0.3088 0.0
H2413 H 0.89414 0.6958 0.50446 0.0
H2414 H 0.89677 0.53439 0.50087 0.0
H2415 H 0.91502 0.54152 0.4824 0.0
H2416 H 0.89542 0.72682 0.46316 0.0
H2417 H 0.90531 0.77833 0.45962 0.0
H2418 H 0.89957 0.76602 0.48587 0.0
H2419 H 0.91975 0.75804 0.50132 0.0
H2420 H 0.92545 0.771 0.4747 0.0
H2421 H 0.9298 0.71522 0.48925 0.0
H2422 H 0.9233 0.5596 0.4484 0.0
H2423 H 0.91964 0.58247 0.41048 0.0
H2424 H 0.91066 0.73335 0.42969 0.0
C2425 C 0.89918 0.66249 0.50126 0.0
C2426 C 0.89405 0.61489 0.50315 0.0
C2427 C 0.9005 0.57135 0.49893 0.0
C2428 C 0.91098 0.57537 0.48847 0.0
C2429 C 0.91473 0.62317 0.48202 0.0
C2430 C 0.90937 0.66674 0.48952 0.0
C2431 C 0.91256 0.71152 0.4754 0.0
C2432 C 0.90258 0.74765 0.47073 0.0
C2433 C 0.92248 0.74059 0.48578 0.0
C2434 C 0.91665 0.68382 0.4554 0.0
C2435 C 0.91943 0.63423 0.46061 0.0
C2436 C 0.92143 0.59849 0.44437 0.0
C2437 C 0.91922 0.61156 0.42278 0.0
C2438 C 0.91485 0.65957 0.41768 0.0
C2439 C 0.91423 0.69689 0.43373 0.0
H2440 H 0.64764 0.3068 0.59702 0.0
H2441 H 0.64187 0.43843 0.55749 0.0
H2442 H 0.66112 0.46777 0.56494 0.0
H2443 H 0.65703 0.32792 0.63458 0.0
H2444 H 0.67008 0.29435 0.64004 0.0
H2445 H 0.66055 0.27081 0.62009 0.0
H2446 H 0.67661 0.27018 0.5923 0.0
H2447 H 0.6862 0.29521 0.61244 0.0
H2448 H 0.6845 0.32688 0.58671 0.0
H2449 H 0.66978 0.50446 0.59581 0.0
H2450 H 0.66865 0.52501 0.63446 0.0
H2451 H 0.67617 0.37111 0.65119 0.0
C2452 C 0.65096 0.33939 0.58858 0.0
C2453 C 0.64339 0.37145 0.57761 0.0
C2454 C 0.64756 0.41403 0.56651 0.0
C2455 C 0.65861 0.43064 0.57043 0.0
C2456 C 0.66546 0.4028 0.58462 0.0
C2457 C 0.66229 0.35479 0.59151 0.0
C2458 C 0.67019 0.33676 0.60933 0.0
C2459 C 0.66405 0.30589 0.62712 0.0
C2460 C 0.67995 0.30549 0.5996 0.0
C2461 C 0.67462 0.38729 0.61706 0.0
C2462 C 0.6726 0.42469 0.6015 0.0
C2463 C 0.6719 0.4756 0.6076 0.0
C2464 C 0.67125 0.48744 0.6297 0.0
C2465 C 0.67235 0.4491 0.6453 0.0
C2466 C 0.67558 0.40044 0.63897 0.0
H2467 H 0.61796 0.90636 0.56397 0.0
H2468 H 0.61576 0.06632 0.57499 0.0
H2469 H 0.59659 0.05607 0.59015 0.0
H2470 H 0.58496 0.86998 0.56824 0.0
H2471 H 0.58922 0.81688 0.58471 0.0
H2472 H 0.59796 0.83684 0.56222 0.0
H2473 H 0.61544 0.84639 0.58866 0.0
H2474 H 0.60649 0.82346 0.60977 0.0
H2475 H 0.61369 0.88309 0.61289 0.0
H2476 H 0.58314 1.02943 0.61699 0.0
H2477 H 0.58066 0.99557 0.65375 0.0
H2478 H 0.59255 0.85014 0.63255 0.0
C2479 C 0.61301 0.93921 0.56838 0.0
C2480 C 0.6182 0.98677 0.56867 0.0
C2481 C 0.61187 1.02942 0.57486 0.0
C2482 C 0.6009 1.02366 0.58338 0.0
C2483 C 0.59662 0.97485 0.58634 0.0
C2484 C 0.60257 0.93301 0.57888 0.0
C2485 C 0.59897 0.88555 0.59076 0.0
C2486 C 0.59238 0.85024 0.57557 0.0
C2487 C 0.60925 0.85813 0.60115 0.0
C2488 C 0.59124 0.90776 0.60784 0.0
C2489 C 0.58922 0.95863 0.60393 0.0
C2490 C 0.58439 0.98952 0.61983 0.0
C2491 C 0.58293 0.96991 0.64077 0.0
C2492 C 0.58654 0.92043 0.64556 0.0
C2493 C 0.58961 0.88781 0.62869 0.0
H2494 H 0.366 0.64708 0.50366 0.0
H2495 H 0.36281 0.80374 0.48616 0.0
H2496 H 0.3439 0.78866 0.47177 0.0
H2497 H 0.36399 0.60658 0.46125 0.0
H2498 H 0.35514 0.55102 0.46295 0.0
H2499 H 0.36216 0.5732 0.48666 0.0
H2500 H 0.34305 0.57862 0.50663 0.0
H2501 H 0.33597 0.5556 0.48262 0.0
H2502 H 0.3314 0.61363 0.49504 0.0
H2503 H 0.33179 0.75708 0.44446 0.0
H2504 H 0.33284 0.723 0.40767 0.0
H2505 H 0.34666 0.58386 0.43265 0.0
C2506 C 0.36086 0.67839 0.49807 0.0
C2507 C 0.36573 0.72669 0.49643 0.0
C2508 C 0.35914 0.76689 0.48834 0.0
C2509 C 0.34829 0.75817 0.47992 0.0
C2510 C 0.34444 0.70845 0.47819 0.0
C2511 C 0.35054 0.6688 0.48746 0.0
C2512 C 0.34741 0.61918 0.47678 0.0
C2513 C 0.35782 0.58576 0.47156 0.0
C2514 C 0.33895 0.59009 0.49111 0.0
C2515 C 0.34147 0.63898 0.45664 0.0
C2516 C 0.33825 0.68898 0.45952 0.0
C2517 C 0.33412 0.71794 0.44223 0.0
C2518 C 0.33478 0.6983 0.42125 0.0
C2519 C 0.33997 0.65113 0.41775 0.0
C2520 C 0.34252 0.61969 0.43549 0.0
H2521 H 0.36563 0.27732 0.41981 0.0
H2522 H 0.34061 0.17168 0.39735 0.0
H2523 H 0.34365 0.19935 0.35981 0.0
H2524 H 0.36484 0.35207 0.35532 0.0
H2525 H 0.37956 0.36519 0.36032 0.0
H2526 H 0.36915 0.37879 0.3809 0.0
H2527 H 0.38075 0.32798 0.40803 0.0
H2528 H 0.39111 0.31419 0.38763 0.0
H2529 H 0.38451 0.26326 0.40236 0.0
H2530 H 0.35726 0.18529 0.33223 0.0
H2531 H 0.37436 0.13429 0.32862 0.0
H2532 H 0.39319 0.24334 0.36612 0.0
C2533 C 0.36046 0.26274 0.40669 0.0
C2534 C 0.35346 0.22125 0.41058 0.0
C2535 C 0.34634 0.20278 0.39416 0.0
C2536 C 0.34795 0.21904 0.3728 0.0
C2537 C 0.35692 0.25227 0.3684 0.0
C2538 C 0.36241 0.27781 0.38527 0.0
C2539 C 0.37356 0.29887 0.37746 0.0
C2540 C 0.37162 0.35184 0.36793 0.0
C2541 C 0.38303 0.30098 0.39495 0.0
C2542 C 0.37572 0.26157 0.35942 0.0
C2543 C 0.36545 0.24249 0.35171 0.0
C2544 C 0.36521 0.19984 0.33842 0.0
C2545 C 0.37497 0.17023 0.33682 0.0
C2546 C 0.38489 0.18345 0.3484 0.0
C2547 C 0.38553 0.23171 0.3579 0.0
H2548 H 0.61102 1.01079 0.12688 0.0
H2549 H 0.63013 0.92356 0.08046 0.0
H2550 H 0.6466 0.97578 0.0866 0.0
H2551 H 0.6374 0.12442 0.12701 0.0
H2552 H 0.6364 0.12998 0.15602 0.0
H2553 H 0.62371 0.13275 0.13995 0.0
H2554 H 0.61321 0.06216 0.15656 0.0
H2555 H 0.62396 0.06338 0.17699 0.0
H2556 H 0.62055 1.00458 0.16373 0.0
H2557 H 0.6605 0.97377 0.11378 0.0
H2558 H 0.66491 0.9279 0.14747 0.0
H2559 H 0.64011 1.01576 0.18197 0.0
C2560 C 0.61856 1.00471 0.11731 0.0
C2561 C 0.61943 0.9614 0.10414 0.0
C2562 C 0.62928 0.9549 0.09144 0.0
C2563 C 0.63872 0.98551 0.09461 0.0
C2564 C 0.63855 1.01974 0.11179 0.0
C2565 C 0.62831 1.03328 0.12174 0.0
C2566 C 0.63064 0.05722 0.14363 0.0
C2567 C 0.63215 0.11447 0.14139 0.0
C2568 C 0.62156 1.04587 0.16125 0.0
C2569 C 0.64205 1.03355 0.14797 0.0
C2570 C 0.64727 1.0192 0.12862 0.0
C2571 C 0.65644 0.98522 0.12874 0.0
C2572 C 0.65882 0.95856 0.14781 0.0
C2573 C 0.65225 0.96756 0.16638 0.0
C2574 C 0.64481 1.0085 0.16719 0.0
H2575 H 0.6443 0.54222 0.22657 0.0
H2576 H 0.64196 0.40701 0.26523 0.0
H2577 H 0.66037 0.37854 0.25143 0.0
H2578 H 0.64901 0.4856 0.18293 0.0
H2579 H 0.65808 0.53226 0.17057 0.0
H2580 H 0.64855 0.54993 0.19169 0.0
H2581 H 0.66669 0.58604 0.21237 0.0
H2582 H 0.67572 0.5633 0.19086 0.0
H2583 H 0.6783 0.54397 0.21854 0.0
H2584 H 0.66966 0.34403 0.22035 0.0
H2585 H 0.67108 0.31933 0.18197 0.0
H2586 H 0.67232 0.47563 0.16303 0.0
C2587 C 0.64819 0.50843 0.23308 0.0
C2588 C 0.64173 0.47608 0.24622 0.0
C2589 C 0.6468 0.43227 0.25495 0.0
C2590 C 0.65729 0.41564 0.247 0.0
C2591 C 0.66261 0.44383 0.23072 0.0
C2592 C 0.65849 0.49086 0.22455 0.0
C2593 C 0.66364 0.50763 0.20319 0.0
C2594 C 0.65429 0.51952 0.18615 0.0
C2595 C 0.67157 0.55291 0.20645 0.0
C2596 C 0.67025 0.46074 0.19705 0.0
C2597 C 0.66958 0.42407 0.21317 0.0
C2598 C 0.67095 0.37287 0.20814 0.0
C2599 C 0.67183 0.35879 0.18626 0.0
C2600 C 0.67204 0.39596 0.16993 0.0
C2601 C 0.67266 0.44707 0.17564 0.0
H2602 H 0.33103 0.0919 0.93299 0.0
H2603 H 0.32041 0.22502 0.89891 0.0
H2604 H 0.32466 0.2766 0.93055 0.0
H2605 H 0.32656 0.17402 0.99527 0.0
H2606 H 0.33747 0.13263 1.00553 0.0
H2607 H 0.32565 0.10718 0.99044 0.0
H2608 H 0.33963 0.06378 0.96415 0.0
H2609 H 0.35112 0.08813 0.97968 0.0
H2610 H 0.35049 0.10095 0.9509 0.0
H2611 H 0.3427 0.30448 0.94447 0.0
H2612 H 0.36355 0.3036 0.94899 0.0
H2613 H 0.36123 0.16065 0.98229 0.0
C2614 C 0.32849 0.13111 0.93341 0.0
C2615 C 0.32634 0.15572 0.91367 0.0
C2616 C 0.32264 0.2062 0.91393 0.0
C2617 C 0.32504 0.23594 0.93202 0.0
C2618 C 0.33023 0.213 0.94992 0.0
C2619 C 0.33051 0.1605 0.95201 0.0
C2620 C 0.33837 0.14543 0.97043 0.0
C2621 C 0.3316 0.13954 0.99166 0.0
C2622 C 0.34533 0.09686 0.96592 0.0
C2623 C 0.34553 0.19258 0.97139 0.0
C2624 C 0.34029 0.2327 0.96081 0.0
C2625 C 0.34664 0.27453 0.95378 0.0
C2626 C 0.35852 0.27355 0.95601 0.0
C2627 C 0.36382 0.2313 0.96548 0.0
C2628 C 0.3572 0.193 0.9748 0.0
H2629 H 0.41916 0.61827 0.90798 0.0
H2630 H 0.41077 0.77392 0.9194 0.0
H2631 H 0.41325 0.76131 0.95869 0.0
H2632 H 0.4018 0.57264 0.93226 0.0
H2633 H 0.40779 0.52008 0.94714 0.0
H2634 H 0.41487 0.54303 0.92361 0.0
H2635 H 0.43308 0.55623 0.94543 0.0
H2636 H 0.42606 0.53209 0.96932 0.0
H2637 H 0.43295 0.59267 0.9701 0.0
H2638 H 0.40785 0.72892 0.99325 0.0
H2639 H 0.39093 0.69143 1.0094 0.0
H2640 H 0.39708 0.55397 0.97408 0.0
C2641 C 0.41865 0.64991 0.91903 0.0
C2642 C 0.41492 0.69676 0.91122 0.0
C2643 C 0.4138 0.73785 0.92538 0.0
C2644 C 0.4153 0.73075 0.94775 0.0
C2645 C 0.41732 0.68184 0.95565 0.0
C2646 C 0.41914 0.64178 0.94143 0.0
C2647 C 0.41669 0.59179 0.9524 0.0
C2648 C 0.40984 0.55497 0.93797 0.0
C2649 C 0.42786 0.56679 0.95976 0.0
C2650 C 0.41014 0.6107 0.97192 0.0
C2651 C 0.41236 0.66152 0.97547 0.0
C2652 C 0.40614 0.6893 0.99063 0.0
C2653 C 0.39643 0.66767 0.99969 0.0
C2654 C 0.39272 0.61998 0.9925 0.0
C2655 C 0.40005 0.58983 0.98006 0.0
H2656 H 0.98099 0.55162 0.06414 0.0
H2657 H 0.97909 0.67222 1.01651 0.0
H2658 H 0.9987 0.65358 1.00499 0.0
H2659 H 0.01095 0.56926 0.07873 0.0
H2660 H 0.01392 0.50278 0.08113 0.0
H2661 H 0.99981 0.52628 0.08649 0.0
H2662 H 0.99157 0.46493 0.05795 0.0
H2663 H 0.00563 0.44114 0.05256 0.0
H2664 H 0.99709 0.46576 1.03064 0.0
H2665 H 0.01846 0.62222 0.99807 0.0
H2666 H 0.03668 0.57723 0.99472 0.0
H2667 H 0.02645 0.47409 0.04589 0.0
C2668 C 0.98474 0.57437 0.05142 0.0
C2669 C 0.97836 0.61355 0.04123 0.0
C2670 C 0.98364 0.64179 1.02446 0.0
C2671 C 0.99485 0.63165 1.01787 0.0
C2672 C 1.00085 0.59283 1.02806 0.0
C2673 C 0.996 0.56435 0.04441 0.0
C2674 C 0.0043 0.52351 0.05199 0.0
C2675 C 0.00743 0.53091 0.07602 0.0
C2676 C 0.99935 0.47071 0.04805 0.0
C2677 C 0.01451 0.53344 0.03728 0.0
C2678 C 0.0123 0.57396 1.02376 0.0
C2679 C 0.02025 0.59036 1.00854 0.0
C2680 C 0.03061 0.56432 1.00672 0.0
C2681 C 0.03311 0.52166 1.01987 0.0
C2682 C 0.02493 0.50669 0.03567 0.0
H2683 H 0.2764 0.71679 1.01596 0.0
H2684 H 0.2857 0.81398 0.06972 0.0
H2685 H 0.26749 0.85898 0.06616 0.0
H2686 H 0.26139 0.81507 0.98416 0.0
H2687 H 0.25041 0.77301 0.97485 0.0
H2688 H 0.2644 0.74888 0.9808 0.0
H2689 H 0.2557 0.68439 1.00759 0.0
H2690 H 0.2417 0.70843 1.00177 0.0
H2691 H 0.24678 0.70644 1.0294 0.0
H2692 H 0.24799 0.89185 0.05835 0.0
H2693 H 0.22864 0.91234 0.04594 0.0
H2694 H 0.23109 0.79632 0.99653 0.0
C2695 C 0.27466 0.74798 1.02677 0.0
C2696 C 0.28259 0.76125 0.04333 0.0
C2697 C 0.27982 0.80223 0.05717 0.0
C2698 C 0.26947 0.82833 0.05521 0.0
C2699 C 0.26178 0.81372 0.03919 0.0
C2700 C 0.26423 0.77477 1.02506 0.0
C2701 C 0.25423 0.76661 1.00956 0.0
C2702 C 0.25783 0.77648 0.98594 0.0
C2703 C 0.24931 0.71329 1.01224 0.0
C2704 C 0.2458 0.80665 1.01737 0.0
C2705 C 0.25042 0.83325 0.0345 0.0
C2706 C 0.24431 0.87128 0.04491 0.0
C2707 C 0.23324 0.88247 0.03779 0.0
C2708 C 0.22815 0.85601 1.02029 0.0
C2709 C 0.23466 0.8177 1.00984 0.0
H2710 H 0.03012 0.79767 0.27092 0.0
H2711 H 0.02109 0.91569 0.31651 0.0
H2712 H 1.00089 0.89399 0.31249 0.0
H2713 H 0.00506 0.81402 0.23524 0.0
H2714 H 1.00344 0.74746 0.23026 0.0
H2715 H 0.01731 0.77316 0.23579 0.0
H2716 H 0.01983 0.71007 0.26755 0.0
H2717 H 0.00596 0.68432 0.26217 0.0
H2718 H 0.00933 0.70793 0.28884 0.0
H2719 H 0.98167 0.85808 0.30519 0.0
H2720 H 0.96452 0.81157 0.29419 0.0
H2721 H 0.98507 0.71561 0.25279 0.0
C2722 C 0.02387 0.81937 0.2798 0.0
C2723 C 0.02733 0.85837 0.29422 0.0
C2724 C 0.01879 0.88533 0.30562 0.0
C2725 C 0.00723 0.87338 0.30338 0.0
C2726 C 0.00413 0.83429 0.28953 0.0
C2727 C 0.01215 0.80776 0.27777 0.0
C2728 C 0.00635 0.76669 0.26438 0.0
C2729 C 0.00815 0.77589 0.23996 0.0
C2730 C 0.01062 0.71414 0.27114 0.0
C2731 C 0.9939 0.77413 0.27065 0.0
C2732 C 0.99288 0.81348 0.28518 0.0
C2733 C 0.98237 0.82723 0.2938 0.0
C2734 C 0.97264 0.8002 0.28753 0.0
C2735 C 0.97332 0.7594 0.27271 0.0
C2736 C 0.98417 0.74667 0.26404 0.0
H2737 H 0.2779 0.5474 0.24814 0.0
H2738 H 0.27986 0.66161 0.29839 0.0
H2739 H 0.26057 0.63942 0.3105 0.0
H2740 H 0.24766 0.5651 0.23555 0.0
H2741 H 0.24494 0.49891 0.23153 0.0
H2742 H 0.25885 0.52424 0.22609 0.0
H2743 H 0.26776 0.45923 0.25251 0.0
H2744 H 0.25388 0.43367 0.25799 0.0
H2745 H 0.26264 0.45552 0.28007 0.0
H2746 H 0.24115 0.60505 0.31782 0.0
H2747 H 0.22311 0.55875 0.32077 0.0
H2748 H 0.23294 0.46447 0.26638 0.0
C2749 C 0.27423 0.56805 0.26157 0.0
C2750 C 0.28058 0.60634 0.27234 0.0
C2751 C 0.27538 0.63178 0.29 0.0
C2752 C 0.26434 0.61964 0.29694 0.0
C2753 C 0.2584 0.58169 0.28617 0.0
C2754 C 0.26313 0.55608 0.26888 0.0
C2755 C 0.25489 0.51587 0.26067 0.0
C2756 C 0.25138 0.52668 0.23706 0.0
C2757 C 0.2601 0.46293 0.26295 0.0
C2758 C 0.24485 0.52276 0.27613 0.0
C2759 C 0.24711 0.56127 0.29059 0.0
C2760 C 0.23932 0.57474 0.30662 0.0
C2761 C 0.22907 0.5479 0.30822 0.0
C2762 C 0.22652 0.50734 0.29402 0.0
C2763 C 0.23453 0.49529 0.27747 0.0
H2764 H 0.77275 0.2255 0.05964 0.0
H2765 H 0.79314 0.31729 1.01623 0.0
H2766 H 0.77597 0.36416 1.0051 0.0
H2767 H 0.74844 0.2161 1.02417 0.0
H2768 H 0.73804 0.21944 0.0456 0.0
H2769 H 0.75197 0.19413 0.05109 0.0
H2770 H 0.75465 0.25886 0.08204 0.0
H2771 H 0.74073 0.28444 0.07661 0.0
H2772 H 0.75297 0.32516 0.07633 0.0
H2773 H 0.75672 0.40111 0.99818 0.0
H2774 H 0.73653 0.42334 0.99444 0.0
H2775 H 0.72767 0.30738 0.04132 0.0
C2776 C 0.77361 0.25582 0.04795 0.0
C2777 C 0.78442 0.26751 0.03883 0.0
C2778 C 0.78505 0.30708 1.02335 0.0
C2779 C 0.77531 0.33421 1.017 0.0
C2780 C 0.76484 0.32157 1.02612 0.0
C2781 C 0.76388 0.2832 0.04121 0.0
C2782 C 0.75145 0.27638 0.04779 0.0
C2783 C 0.74723 0.22336 0.0418 0.0
C2784 C 0.74986 0.28683 0.07215 0.0
C2785 C 0.7456 0.31675 0.03398 0.0
C2786 C 0.75358 0.34245 1.02177 0.0
C2787 C 0.75042 0.38104 1.00761 0.0
C2788 C 0.73885 0.39327 1.00553 0.0
C2789 C 0.73034 0.36697 1.01733 0.0
C2790 C 0.73388 0.32855 1.03208 0.0
H2791 H 0.97987 0.22183 0.79543 0.0
H2792 H 0.96949 0.32682 0.74498 0.0
H2793 H 0.98751 0.3728 0.74917 0.0
H2794 H 0.99488 0.31578 0.82945 0.0
H2795 H 0.0061 0.27281 0.83697 0.0
H2796 H 0.99209 0.24904 0.83104 0.0
H2797 H 1.0006 0.18954 0.80202 0.0
H2798 H 0.01461 0.21324 0.8078 0.0
H2799 H 0.00914 0.21559 0.78046 0.0
H2800 H 0.007 0.40514 0.75689 0.0
H2801 H 0.02658 0.42359 0.76859 0.0
H2802 H 0.02505 0.29999 0.8148 0.0
C2803 C 0.98132 0.25502 0.78555 0.0
C2804 C 0.97318 0.27037 0.76974 0.0
C2805 C 0.97555 0.31374 0.757 0.0
C2806 C 0.98579 0.34034 0.75931 0.0
C2807 C 0.9937 0.32368 0.77459 0.0
C2808 C 0.9916 0.28228 0.78765 0.0
C2809 C 1.00181 0.27198 0.80236 0.0
C2810 C 0.99852 0.27775 0.82639 0.0
C2811 C 0.00684 0.21946 0.79789 0.0
C2812 C 0.00998 0.31359 0.79529 0.0
C2813 C 0.00505 0.34289 0.77925 0.0
C2814 C 0.01091 0.38259 0.76953 0.0
C2815 C 0.02209 0.39265 0.77623 0.0
C2816 C 0.02746 0.36337 0.7926 0.0
C2817 C 0.0212 0.32348 0.8024 0.0
H2818 H 0.77913 0.62173 0.7911 0.0
H2819 H 0.78868 0.52015 0.73902 0.0
H2820 H 0.77043 0.47579 0.74286 0.0
H2821 H 0.764 0.52637 0.82406 0.0
H2822 H 0.75304 0.56957 0.83254 0.0
H2823 H 0.76709 0.59268 0.82651 0.0
H2824 H 0.75858 0.65538 0.79863 0.0
H2825 H 0.74452 0.63235 0.8045 0.0
H2826 H 0.74973 0.63197 0.77698 0.0
H2827 H 0.75081 0.44435 0.75074 0.0
H2828 H 0.73133 0.42606 0.763 0.0
H2829 H 0.73381 0.54571 0.81073 0.0
C2830 C 0.77745 0.58965 0.78075 0.0
C2831 C 0.78544 0.57491 0.76458 0.0
C2832 C 0.78274 0.53295 0.75127 0.0
C2833 C 0.77237 0.50722 0.7534 0.0
C2834 C 0.76463 0.52327 0.76907 0.0
C2835 C 0.76704 0.56325 0.78267 0.0
C2836 C 0.75701 0.57309 0.79783 0.0
C2837 C 0.76049 0.56494 0.82165 0.0
C2838 C 0.75217 0.62637 0.79427 0.0
C2839 C 0.74859 0.53282 0.79043 0.0
C2840 C 0.75324 0.5046 0.77381 0.0
C2841 C 0.74712 0.46612 0.7638 0.0
C2842 C 0.73598 0.45619 0.77083 0.0
C2843 C 0.73089 0.48436 0.78781 0.0
C2844 C 0.73742 0.52305 0.79785 0.0
H2845 H 0.98076 0.11767 0.51892 0.0
H2846 H 0.97084 1.0187 0.57182 0.0
H2847 H 0.98908 0.97381 0.5689 0.0
H2848 H 0.99599 1.01988 0.48738 0.0
H2849 H 0.00703 0.06226 0.47856 0.0
H2850 H 0.99297 0.08612 0.48406 0.0
H2851 H 1.00142 0.1501 0.51129 0.0
H2852 H 0.01548 0.12627 0.50596 0.0
H2853 H 0.01014 0.12763 0.53339 0.0
H2854 H 0.00881 0.94178 0.562 0.0
H2855 H 0.0283 0.9218 0.55016 0.0
H2856 H 0.02609 1.03849 0.50079 0.0
C2857 C 0.98235 0.08604 0.52965 0.0
C2858 C 0.97425 0.07236 0.54581 0.0
C2859 C 0.97685 1.03084 0.55958 0.0
C2860 C 0.98723 1.00479 0.55798 0.0
C2861 C 0.99509 1.01993 0.54237 0.0
C2862 C 0.99278 0.05922 0.52824 0.0
C2863 C 1.0029 0.06783 0.51314 0.0
C2864 C 0.99952 0.05847 0.48937 0.0
C2865 C 0.00777 0.12113 0.51613 0.0
C2866 C 0.01126 1.0277 0.52118 0.0
C2867 C 0.00652 1.00066 0.53809 0.0
C2868 C 0.01258 0.96261 0.54869 0.0
C2869 C 0.02373 0.95171 0.54192 0.0
C2870 C 0.0289 0.97842 0.52455 0.0
C2871 C 0.02244 1.01689 0.51399 0.0
H2872 H 0.27684 0.21377 0.51593 0.0
H2873 H 0.28741 0.3193 0.56575 0.0
H2874 H 0.269 0.36299 0.56289 0.0
H2875 H 0.2606 0.30706 0.48313 0.0
H2876 H 0.24956 0.26299 0.47612 0.0
H2877 H 0.2638 0.24073 0.48112 0.0
H2878 H 0.25616 0.17942 0.51038 0.0
H2879 H 0.24191 0.20172 0.50558 0.0
H2880 H 0.24784 0.20383 0.53258 0.0
H2881 H 0.24914 0.39307 0.55659 0.0
H2882 H 0.22943 0.41098 0.54561 0.0
H2883 H 0.2309 0.28838 0.49907 0.0
C2884 C 0.27535 0.24664 0.52593 0.0
C2885 C 0.28368 0.26269 0.54122 0.0
C2886 C 0.28123 0.30564 0.55412 0.0
C2887 C 0.27076 0.33091 0.55259 0.0
C2888 C 0.26266 0.31346 0.5379 0.0
C2889 C 0.26482 0.27269 0.52458 0.0
C2890 C 0.25442 0.26168 0.51046 0.0
C2891 C 0.25727 0.26852 0.48627 0.0
C2892 C 0.24981 0.2085 0.51503 0.0
C2893 C 0.24609 0.30215 0.51817 0.0
C2894 C 0.25109 0.33143 0.53404 0.0
C2895 C 0.24515 0.37042 0.54413 0.0
C2896 C 0.23386 0.38004 0.53787 0.0
C2897 C 0.2284 0.35103 0.52158 0.0
C2898 C 0.23473 0.31157 0.51152 0.0
H2899 H 0.27486 0.11393 0.79041 0.0
H2900 H 0.28457 1.01442 0.73768 0.0
H2901 H 0.2663 0.97001 0.74098 0.0
H2902 H 0.25989 1.01716 0.82253 0.0
H2903 H 0.24892 0.0599 0.8314 0.0
H2904 H 0.26295 0.08337 0.8255 0.0
H2905 H 0.25438 0.14723 0.79816 0.0
H2906 H 0.24034 0.12383 0.80389 0.0
H2907 H 0.24552 0.1247 0.77634 0.0
H2908 H 0.24662 0.93838 0.74852 0.0
H2909 H 0.22717 0.91935 0.76087 0.0
H2910 H 0.22978 1.03679 0.80958 0.0
C2911 C 0.27322 0.0823 0.77978 0.0
C2912 C 0.28124 0.06822 0.76359 0.0
C2913 C 0.2786 1.02682 0.74993 0.0
C2914 C 0.26822 1.00103 0.75176 0.0
C2915 C 0.26046 1.01647 0.76749 0.0
C2916 C 0.26284 0.05583 0.78143 0.0
C2917 C 0.25284 0.06497 0.7967 0.0
C2918 C 0.25636 0.0558 0.82044 0.0
C2919 C 0.24798 0.11836 0.79358 0.0
C2920 C 0.24447 1.025 0.78899 0.0
C2921 C 0.24908 0.99755 0.7721 0.0
C2922 C 0.24295 0.95952 0.7618 0.0
C2923 C 0.23184 0.94917 0.76887 0.0
C2924 C 0.22683 0.97648 0.78618 0.0
C2925 C 0.23334 1.0148 0.79644 0.0
H2926 H 0.73298 0.79589 0.49763 0.0
H2927 H 0.73133 0.91724 0.54474 0.0
H2928 H 0.75097 0.89891 0.55597 0.0
H2929 H 0.74963 0.71059 0.53099 0.0
H2930 H 0.75803 0.68647 0.50883 0.0
H2931 H 0.74384 0.7094 0.50387 0.0
H2932 H 0.75161 0.77116 0.47492 0.0
H2933 H 0.76584 0.74858 0.47987 0.0
H2934 H 0.76268 0.81487 0.48222 0.0
H2935 H 0.77082 0.86859 0.56243 0.0
H2936 H 0.78922 0.82494 0.56526 0.0
H2937 H 0.77885 0.72081 0.51474 0.0
C2938 C 0.73677 0.81875 0.51025 0.0
C2939 C 0.7304 0.85797 0.52039 0.0
C2940 C 0.73579 0.8865 0.53693 0.0
C2941 C 0.74704 0.87664 0.54333 0.0
C2942 C 0.75302 0.83788 0.53315 0.0
C2943 C 0.74809 0.80909 0.51703 0.0
C2944 C 0.75645 0.76875 0.50927 0.0
C2945 C 0.7517 0.71565 0.5135 0.0
C2946 C 0.75931 0.7763 0.48513 0.0
C2947 C 0.76678 0.77932 0.52362 0.0
C2948 C 0.76456 0.81973 0.53712 0.0
C2949 C 0.77261 0.8368 0.55199 0.0
C2950 C 0.78308 0.81153 0.55351 0.0
C2951 C 0.78559 0.76898 0.5404 0.0
C2952 C 0.77731 0.75333 0.52493 0.0
H2953 H 0.73637 0.9738 0.31002 0.0
H2954 H 0.71617 0.06297 0.26505 0.0
H2955 H 0.73342 0.10827 0.25349 0.0
H2956 H 0.75601 0.07451 0.32571 0.0
H2957 H 0.76825 1.03364 0.32693 0.0
H2958 H 0.7543 1.00873 0.33238 0.0
H2959 H 0.75715 0.94146 0.30251 0.0
H2960 H 0.77111 0.96611 0.29698 0.0
H2961 H 0.76083 0.96115 0.27537 0.0
H2962 H 0.75273 0.14358 0.24616 0.0
H2963 H 0.77296 0.165 0.24253 0.0
H2964 H 0.78151 0.05376 0.29175 0.0
C2965 C 0.73555 1.00325 0.2979 0.0
C2966 C 0.72478 1.01452 0.28845 0.0
C2967 C 0.72423 0.05295 0.27241 0.0
C2968 C 0.73401 0.07922 0.26581 0.0
C2969 C 0.74444 0.06698 0.27529 0.0
C2970 C 0.74532 1.02986 0.29097 0.0
C2971 C 0.7577 1.02339 0.29797 0.0
C2972 C 0.75915 1.03581 0.32219 0.0
C2973 C 0.76195 0.96984 0.2929 0.0
C2974 C 0.76362 0.0625 0.28371 0.0
C2975 C 0.75573 0.08722 0.27087 0.0
C2976 C 0.75897 0.12435 0.25611 0.0
C2977 C 0.77055 0.13613 0.25411 0.0
C2978 C 0.77897 0.11094 0.26665 0.0
C2979 C 0.77536 0.07401 0.28196 0.0
H2980 H 0.4758 0.54567 0.52126 0.0
H2981 H 0.48441 0.66337 0.56725 0.0
H2982 H 0.50466 0.6418 0.56376 0.0
H2983 H 0.49663 0.45583 0.53961 0.0
H2984 H 0.50021 0.43249 0.51299 0.0
H2985 H 0.48626 0.45805 0.51803 0.0
H2986 H 0.48891 0.52144 0.48645 0.0
H2987 H 0.50285 0.49593 0.48127 0.0
H2988 H 0.50111 0.56242 0.48631 0.0
H2989 H 0.52399 0.60624 0.55689 0.0
H2990 H 0.54128 0.56031 0.54625 0.0
H2991 H 0.52116 0.4641 0.50421 0.0
C2992 C 0.48197 0.56732 0.53034 0.0
C2993 C 0.47835 0.60624 0.54472 0.0
C2994 C 0.48681 0.6331 0.55639 0.0
C2995 C 0.4984 0.62121 0.55445 0.0
C2996 C 0.50165 0.58223 0.54064 0.0
C2997 C 0.49373 0.55575 0.52863 0.0
C2998 C 0.49969 0.51483 0.51533 0.0
C2999 C 0.49544 0.46218 0.52189 0.0
C3000 C 0.49804 0.52422 0.49089 0.0
C3001 C 0.51211 0.5223 0.52195 0.0
C3002 C 0.51297 0.56155 0.53657 0.0
C3003 C 0.52341 0.57543 0.54545 0.0
C3004 C 0.53323 0.54868 0.53938 0.0
C3005 C 0.53274 0.50792 0.5245 0.0
C3006 C 0.52194 0.49506 0.51554 0.0
H3007 H 0.52451 0.80698 0.81729 0.0
H3008 H 0.52679 0.92656 0.76924 0.0
H3009 H 0.5077 0.90501 0.75579 0.0
H3010 H 0.51003 0.71819 0.78337 0.0
H3011 H 0.50098 0.69371 0.80449 0.0
H3012 H 0.51467 0.7195 0.81128 0.0
H3013 H 0.50516 0.78154 0.8381 0.0
H3014 H 0.49143 0.75584 0.83143 0.0
H3015 H 0.49397 0.82254 0.82859 0.0
H3016 H 0.48875 0.86929 0.74628 0.0
H3017 H 0.47091 0.8221 0.74162 0.0
H3018 H 0.48012 0.72473 0.79561 0.0
C3019 C 0.52092 0.82902 0.80414 0.0
C3020 C 0.52727 0.86844 0.79426 0.0
C3021 C 0.52224 0.89586 0.77692 0.0
C3022 C 0.51134 0.88404 0.76921 0.0
C3023 C 0.50541 0.84464 0.77897 0.0
C3024 C 0.50996 0.81757 0.79611 0.0
C3025 C 0.50176 0.77616 0.8032 0.0
C3026 C 0.50719 0.72379 0.80041 0.0
C3027 C 0.49785 0.78453 0.82673 0.0
C3028 C 0.492 0.78404 0.78723 0.0
C3029 C 0.49433 0.82391 0.77346 0.0
C3030 C 0.48683 0.83806 0.757 0.0
C3031 C 0.47671 0.81074 0.75439 0.0
C3032 C 0.47406 0.76936 0.7681 0.0
C3033 C 0.48182 0.75632 0.78493 0.0
H3034 H 0.5224 0.36454 0.31504 0.0
H3035 H 0.54263 0.27769 0.26956 0.0
H3036 H 0.52544 0.23238 0.2578 0.0
H3037 H 0.50298 0.26285 0.33031 0.0
H3038 H 0.49065 0.30311 0.33174 0.0
H3039 H 0.50456 0.32851 0.33719 0.0
H3040 H 0.50146 0.3965 0.30757 0.0
H3041 H 0.48755 0.37136 0.30205 0.0
H3042 H 0.49775 0.37742 0.28039 0.0
H3043 H 0.50614 0.19607 0.25056 0.0
H3044 H 0.48598 0.17322 0.24725 0.0
H3045 H 0.47735 0.28316 0.29673 0.0
C3046 C 0.52324 0.33568 0.30274 0.0
C3047 C 0.53402 0.32509 0.29322 0.0
C3048 C 0.53458 0.28731 0.27697 0.0
C3049 C 0.52482 0.26099 0.27025 0.0
C3050 C 0.51439 0.27251 0.2798 0.0
C3051 C 0.51348 0.30904 0.29566 0.0
C3052 C 0.50109 0.31469 0.30275 0.0
C3053 C 0.49975 0.3015 0.32694 0.0
C3054 C 0.4967 0.36817 0.2979 0.0
C3055 C 0.49521 0.27571 0.28839 0.0
C3056 C 0.50312 0.25181 0.27538 0.0
C3057 C 0.49989 0.21475 0.26061 0.0
C3058 C 0.48834 0.20217 0.25879 0.0
C3059 C 0.47989 0.2265 0.2715 0.0
C3060 C 0.4835 0.26346 0.28679 0.0
H3061 H 0.47923 0.12249 1.02153 0.0
H3062 H 0.46831 1.01695 0.07124 0.0
H3063 H 0.48653 0.9718 0.06826 0.0
H3064 H 0.49493 1.02789 0.98852 0.0
H3065 H 0.50612 0.07119 0.98139 0.0
H3066 H 0.49197 0.09446 0.9865 0.0
H3067 H 0.49994 0.15499 1.01564 0.0
H3068 H 0.51409 0.13166 1.01075 0.0
H3069 H 0.50824 0.1298 0.03779 0.0
H3070 H 0.50643 0.94108 0.06224 0.0
H3071 H 0.52617 0.92271 0.05139 0.0
H3072 H 0.52476 1.04451 1.00429 0.0
C3073 C 0.48058 0.08928 1.03146 0.0
C3074 C 0.47223 0.0738 0.04682 0.0
C3075 C 0.47452 1.03031 0.05961 0.0
C3076 C 0.48488 1.00418 0.05799 0.0
C3077 C 0.49302 1.02118 0.04328 0.0
C3078 C 0.49098 0.06227 1.02997 0.0
C3079 C 0.50137 0.0726 1.01577 0.0
C3080 C 0.49842 0.06615 0.99161 0.0
C3081 C 0.50619 0.12541 1.02026 0.0
C3082 C 0.50957 1.03147 1.02344 0.0
C3083 C 0.50452 1.00244 0.03939 0.0
C3084 C 0.51042 0.96336 0.04964 0.0
C3085 C 0.5217 0.95338 0.04345 0.0
C3086 C 0.52715 0.98195 1.02698 0.0
C3087 C 0.52088 1.02151 1.01679 0.0
H3088 H 0.09463 0.56973 0.13647 0.0
H3089 H 0.05831 0.54719 0.1299 0.0
H3090 H 0.0549 0.63088 0.14684 0.0
H3091 H 0.09433 0.63134 0.1871 0.0
H3092 H 0.10551 0.67524 0.18043 0.0
H3093 H 0.10511 0.61423 0.16767 0.0
H3094 H 0.10494 0.6558 0.12968 0.0
H3095 H 0.10574 0.71679 0.14234 0.0
H3096 H 0.09438 0.70346 0.1236 0.0
H3097 H 0.05578 0.71629 0.16661 0.0
H3098 H 0.06081 0.7959 0.18538 0.0
H3099 H 0.09656 0.76264 0.17609 0.0
C3100 C 0.08594 0.58212 0.13874 0.0
C3101 C 0.0767 0.55166 0.13229 0.0
C3102 C 0.06548 0.56985 0.13498 0.0
C3103 C 0.06349 0.6173 0.14451 0.0
C3104 C 0.07282 0.64642 0.15073 0.0
C3105 C 0.08382 0.6296 0.14766 0.0
C3106 C 0.09243 0.66781 0.15543 0.0
C3107 C 0.09978 0.64582 0.17375 0.0
C3108 C 0.09981 0.68707 0.13661 0.0
C3109 C 0.08461 0.70866 0.1637 0.0
C3110 C 0.07331 0.69579 0.16099 0.0
C3111 C 0.06459 0.72692 0.16851 0.0
C3112 C 0.06752 0.77204 0.17914 0.0
C3113 C 0.07906 0.78584 0.18189 0.0
C3114 C 0.08765 0.75378 0.17383 0.0
H3115 H 0.17512 0.62556 0.2124 0.0
H3116 H 0.1967 0.52844 0.17377 0.0
H3117 H 0.19783 0.59508 0.14537 0.0
H3118 H 0.1591 0.66862 0.1664 0.0
H3119 H 0.15659 0.73028 0.17775 0.0
H3120 H 0.15843 0.6766 0.19536 0.0
H3121 H 0.1749 0.72235 0.2152 0.0
H3122 H 0.17322 0.77613 0.19757 0.0
H3123 H 0.18683 0.74521 0.19971 0.0
H3124 H 0.19684 0.67508 0.1219 0.0
H3125 H 0.19172 0.75471 0.10309 0.0
H3126 H 0.16917 0.7934 0.1562 0.0
C3127 C 0.18021 0.61848 0.19813 0.0
C3128 C 0.18606 0.57255 0.19544 0.0
C3129 C 0.19232 0.56393 0.1762 0.0
C3130 C 0.193 0.6015 0.16007 0.0
C3131 C 0.18712 0.64665 0.16331 0.0
C3132 C 0.18064 0.65461 0.1817 0.0
C3133 C 0.17421 0.70386 0.18054 0.0
C3134 C 0.16131 0.69432 0.17998 0.0
C3135 C 0.17749 0.73896 0.19938 0.0
C3136 C 0.17841 0.72367 0.159 0.0
C3137 C 0.18591 0.69043 0.1493 0.0
C3138 C 0.19094 0.70118 0.12931 0.0
C3139 C 0.18805 0.74659 0.11883 0.0
C3140 C 0.18007 0.78008 0.12824 0.0
C3141 C 0.17529 0.76846 0.14863 0.0
H3142 H 0.93017 0.45459 0.96694 0.0
H3143 H 0.93683 0.57169 0.91933 0.0
H3144 H 0.93817 0.50666 0.89059 0.0
H3145 H 0.94841 0.35666 0.94358 0.0
H3146 H 0.93849 0.30699 0.9498 0.0
H3147 H 0.93919 0.36207 0.96683 0.0
H3148 H 0.91763 0.37848 0.96082 0.0
H3149 H 0.91696 0.32253 0.94444 0.0
H3150 H 0.91221 0.38186 0.93339 0.0
H3151 H 0.93795 0.42823 0.8668 0.0
H3152 H 0.93476 0.34508 0.84974 0.0
H3153 H 0.92726 0.28072 0.91293 0.0
C3154 C 0.93215 0.46662 0.95056 0.0
C3155 C 0.93361 0.51826 0.94546 0.0
C3156 C 0.93583 0.53235 0.92367 0.0
C3157 C 0.93665 0.49563 0.90727 0.0
C3158 C 0.93517 0.44502 0.91289 0.0
C3159 C 0.93286 0.43064 0.93401 0.0
C3160 C 0.93068 0.37444 0.93561 0.0
C3161 C 0.93973 0.34852 0.94979 0.0
C3162 C 0.91865 0.36373 0.94408 0.0
C3163 C 0.93184 0.35942 0.91203 0.0
C3164 C 0.93464 0.40042 0.8992 0.0
C3165 C 0.93586 0.39588 0.87676 0.0
C3166 C 0.93406 0.34844 0.86722 0.0
C3167 C 0.93082 0.30636 0.88004 0.0
C3168 C 0.92978 0.3121 0.90274 0.0
H3169 H 0.83298 0.38057 0.95896 0.0
H3170 H 0.81551 0.27797 0.91588 0.0
H3171 H 0.80961 0.35037 0.89274 0.0
H3172 H 0.81284 0.49339 0.95168 0.0
H3173 H 0.82478 0.53582 0.95305 0.0
H3174 H 0.82493 0.47787 0.96843 0.0
H3175 H 0.84397 0.45671 0.9509 0.0
H3176 H 0.84394 0.51024 0.93293 0.0
H3177 H 0.84461 0.44705 0.92204 0.0
H3178 H 0.80869 0.43236 0.87128 0.0
H3179 H 0.81254 0.51459 0.85385 0.0
H3180 H 0.83089 0.56257 0.91133 0.0
C3181 C 0.82746 0.37375 0.94518 0.0
C3182 C 0.82451 0.32417 0.93927 0.0
C3183 C 0.8176 0.31599 0.92084 0.0
C3184 C 0.81425 0.3569 0.90765 0.0
C3185 C 0.81767 0.40553 0.9135 0.0
C3186 C 0.82391 0.41409 0.9322 0.0
C3187 C 0.82785 0.46829 0.93357 0.0
C3188 C 0.82226 0.49545 0.95283 0.0
C3189 C 0.84088 0.47091 0.93496 0.0
C3190 C 0.82347 0.48848 0.91214 0.0
C3191 C 0.81738 0.4522 0.90099 0.0
C3192 C 0.81323 0.46127 0.8801 0.0
C3193 C 0.81548 0.50817 0.8703 0.0
C3194 C 0.82197 0.54529 0.88124 0.0
C3195 C 0.82579 0.53536 0.9026 0.0
H3196 H 0.08875 0.30876 0.65582 0.0
H3197 H 0.05725 0.28881 0.69132 0.0
H3198 H 0.0541 0.20764 0.67246 0.0
H3199 H 0.08002 0.2475 0.60451 0.0
H3200 H 0.09385 0.21927 0.60109 0.0
H3201 H 0.09249 0.27908 0.61468 0.0
H3202 H 0.1031 0.24245 0.64819 0.0
H3203 H 0.10443 0.18271 0.63472 0.0
H3204 H 0.09776 0.1861 0.66101 0.0
H3205 H 0.05558 0.12355 0.65203 0.0
H3206 H 0.06185 1.04579 0.63281 0.0
H3207 H 0.0926 0.12273 0.61274 0.0
C3208 C 0.081 0.28823 0.65918 0.0
C3209 C 0.07318 0.30535 0.67486 0.0
C3210 C 0.0633 0.27656 0.67918 0.0
C3211 C 0.06144 0.23043 0.66856 0.0
C3212 C 0.06955 0.21377 0.65369 0.0
C3213 C 0.07911 0.24211 0.64898 0.0
C3214 C 0.08716 0.21418 0.63421 0.0
C3215 C 0.08845 0.24165 0.61232 0.0
C3216 C 0.09879 0.20587 0.6452 0.0
C3217 C 0.08077 0.16528 0.63166 0.0
C3218 C 0.07056 0.1656 0.64268 0.0
C3219 C 0.06351 0.12316 0.64315 0.0
C3220 C 0.0671 0.07928 0.63223 0.0
C3221 C 0.0777 0.07841 0.62146 0.0
C3222 C 0.08446 0.12221 0.62098 0.0
H3223 H 0.18369 0.08466 0.69632 0.0
H3224 H 0.16602 1.00307 0.64544 0.0
H3225 H 0.16881 0.07481 0.6205 0.0
H3226 H 0.17175 0.20159 0.68482 0.0
H3227 H 0.18414 0.23997 0.6897 0.0
H3228 H 0.18245 0.1807 0.70364 0.0
H3229 H 0.2015 0.14749 0.68934 0.0
H3230 H 0.20387 0.20713 0.67599 0.0
H3231 H 0.20445 0.14941 0.66062 0.0
H3232 H 0.17337 0.15374 0.60119 0.0
H3233 H 0.1775 0.23958 0.58891 0.0
H3234 H 0.19136 0.27529 0.65254 0.0
C3235 C 0.18062 0.08153 0.67979 0.0
C3236 C 0.17474 1.03784 0.67276 0.0
C3237 C 0.1706 1.03584 0.65118 0.0
C3238 C 0.17218 0.07637 0.63685 0.0
C3239 C 0.17791 0.11888 0.64431 0.0
C3240 C 0.18205 0.122 0.66525 0.0
C3241 C 0.18724 0.17367 0.66939 0.0
C3242 C 0.18103 0.20067 0.68799 0.0
C3243 C 0.20002 0.16914 0.67411 0.0
C3244 C 0.18513 0.19936 0.64761 0.0
C3245 C 0.17996 0.16636 0.63336 0.0
C3246 C 0.17731 0.18016 0.61219 0.0
C3247 C 0.17977 0.22924 0.60537 0.0
C3248 C 0.18476 0.26478 0.6197 0.0
C3249 C 0.18759 0.24922 0.64112 0.0
H3250 H 0.91951 1.04215 0.41001 0.0
H3251 H 0.94717 1.01306 0.45484 0.0
H3252 H 0.95049 0.92997 0.43704 0.0
H3253 H 0.9085 0.92979 0.41624 0.0
H3254 H 0.90332 0.9165 0.38964 0.0
H3255 H 0.90419 0.9809 0.39875 0.0
H3256 H 0.91672 1.01141 0.36916 0.0
H3257 H 0.91755 0.95186 0.35513 0.0
H3258 H 0.93028 0.98251 0.36372 0.0
H3259 H 0.94895 0.84418 0.41509 0.0
H3260 H 0.94244 0.7696 0.39375 0.0
H3261 H 0.91485 0.85873 0.36731 0.0
C3262 C 0.9265 1.01918 0.41584 0.0
C3263 C 0.93313 1.03416 0.43369 0.0
C3264 C 0.94209 1.00249 0.44092 0.0
C3265 C 0.94398 0.95519 0.43096 0.0
C3266 C 0.93682 0.9406 0.41392 0.0
C3267 C 0.9283 0.97226 0.40657 0.0
C3268 C 0.9207 0.94718 0.39027 0.0
C3269 C 0.90847 0.94352 0.39916 0.0
C3270 C 0.92131 0.97484 0.36829 0.0
C3271 C 0.92621 0.89615 0.38917 0.0
C3272 C 0.93558 0.89244 0.40264 0.0
C3273 C 0.94166 0.84717 0.40444 0.0
C3274 C 0.93794 0.80509 0.39229 0.0
C3275 C 0.92812 0.80867 0.37907 0.0
C3276 C 0.92234 0.8549 0.37742 0.0
H3277 H 0.84975 0.82523 0.42054 0.0
H3278 H 0.81401 0.80051 0.43381 0.0
H3279 H 0.80934 0.88108 0.41525 0.0
H3280 H 0.8492 0.95681 0.43137 0.0
H3281 H 0.85951 0.97234 0.41078 0.0
H3282 H 0.85981 0.9112 0.42356 0.0
H3283 H 0.85837 0.86866 0.38563 0.0
H3284 H 0.85812 0.92988 0.37293 0.0
H3285 H 0.84685 0.88558 0.3677 0.0
H3286 H 0.80871 0.96496 0.39449 0.0
H3287 H 0.81232 1.04661 0.37595 0.0
H3288 H 0.84857 1.01808 0.37925 0.0
C3289 C 0.84091 0.83627 0.41922 0.0
C3290 C 0.8322 0.80617 0.4283 0.0
C3291 C 0.82079 0.82279 0.42681 0.0
C3292 C 0.81807 0.86844 0.41628 0.0
C3293 C 0.82688 0.89741 0.40762 0.0
C3294 C 0.83809 0.88203 0.40916 0.0
C3295 C 0.84607 0.92127 0.39981 0.0
C3296 C 0.85412 0.94159 0.41743 0.0
C3297 C 0.85274 0.90006 0.38037 0.0
C3298 C 0.83761 0.96111 0.39265 0.0
C3299 C 0.82657 0.94654 0.39702 0.0
C3300 C 0.81733 0.97685 0.39119 0.0
C3301 C 0.81944 1.02313 0.38068 0.0
C3302 C 0.83071 1.03907 0.37652 0.0
C3303 C 0.83986 1.00748 0.38265 0.0
H3304 H 0.59344 0.59108 0.62672 0.0
H3305 H 0.56303 0.51509 0.64859 0.0
H3306 H 0.5572 0.59248 0.66873 0.0
H3307 H 0.59939 0.66209 0.67452 0.0
H3308 H 0.60463 0.71322 0.65806 0.0
H3309 H 0.60511 0.64935 0.64812 0.0
H3310 H 0.59238 0.68408 0.613 0.0
H3311 H 0.59319 0.7452 0.62588 0.0
H3312 H 0.57963 0.71777 0.61939 0.0
H3313 H 0.55622 0.67926 0.68962 0.0
H3314 H 0.56002 0.7622 0.70709 0.0
H3315 H 0.59006 0.77929 0.6671 0.0
C3316 C 0.58555 0.59078 0.63576 0.0
C3317 C 0.57878 0.54734 0.63655 0.0
C3318 C 0.56837 0.5483 0.64807 0.0
C3319 C 0.565 0.59204 0.65944 0.0
C3320 C 0.57198 0.63462 0.65843 0.0
C3321 C 0.58194 0.63411 0.64651 0.0
C3322 C 0.58807 0.68368 0.64766 0.0
C3323 C 0.60001 0.67676 0.65762 0.0
C3324 C 0.58838 0.70922 0.62518 0.0
C3325 C 0.58038 0.712 0.66282 0.0
C3326 C 0.57107 0.68376 0.66898 0.0
C3327 C 0.5634 0.70183 0.6845 0.0
C3328 C 0.56557 0.74905 0.69427 0.0
C3329 C 0.57532 0.77719 0.68842 0.0
C3330 C 0.5825 0.7589 0.67193 0.0
H3331 H 0.66523 0.77228 0.62257 0.0
H3332 H 0.69976 0.82183 0.63394 0.0
H3333 H 0.70385 0.74156 0.65353 0.0
H3334 H 0.66015 0.71597 0.6714 0.0
H3335 H 0.65218 0.66329 0.66071 0.0
H3336 H 0.65254 0.72188 0.64609 0.0
H3337 H 0.65997 0.67586 0.61233 0.0
H3338 H 0.65971 0.61659 0.62658 0.0
H3339 H 0.67266 0.63786 0.61391 0.0
H3340 H 0.7032 0.65794 0.67504 0.0
H3341 H 0.69792 0.58092 0.69578 0.0
H3342 H 0.6641 0.5879 0.66787 0.0
C3343 C 0.67367 0.76607 0.62914 0.0
C3344 C 0.68214 0.80312 0.62727 0.0
C3345 C 0.69316 0.79365 0.63552 0.0
C3346 C 0.69555 0.74822 0.6465 0.0
C3347 C 0.6869 0.71241 0.64834 0.0
C3348 C 0.67625 0.72072 0.63948 0.0
C3349 C 0.66827 0.6776 0.64403 0.0
C3350 C 0.65766 0.69578 0.65632 0.0
C3351 C 0.66498 0.65031 0.62294 0.0
C3352 C 0.67583 0.64499 0.65804 0.0
C3353 C 0.68663 0.66479 0.66007 0.0
C3354 C 0.69482 0.6418 0.67327 0.0
C3355 C 0.69177 0.5981 0.68496 0.0
C3356 C 0.68062 0.57859 0.68347 0.0
C3357 C 0.67271 0.60188 0.66942 0.0
H3358 H 0.41211 0.31435 0.39789 0.0
H3359 H 0.44691 0.30819 0.37481 0.0
H3360 H 0.45064 0.39119 0.39166 0.0
H3361 H 0.40776 0.44625 0.38778 0.0
H3362 H 0.39866 0.45215 0.41105 0.0
H3363 H 0.3998 0.39252 0.39736 0.0
H3364 H 0.40536 0.35462 0.43562 0.0
H3365 H 0.40508 0.41653 0.44762 0.0
H3366 H 0.41778 0.37866 0.4493 0.0
H3367 H 0.45021 0.4772 0.40975 0.0
H3368 H 0.44543 0.55929 0.42689 0.0
H3369 H 0.41067 0.50961 0.43557 0.0
C3370 C 0.42058 0.32991 0.39671 0.0
C3371 C 0.42926 0.30464 0.3852 0.0
C3372 C 0.44017 0.3268 0.38368 0.0
C3373 C 0.44236 0.37388 0.3932 0.0
C3374 C 0.43353 0.39827 0.40405 0.0
C3375 C 0.42285 0.37699 0.40583 0.0
C3376 C 0.41463 0.41202 0.4172 0.0
C3377 C 0.4046 0.42644 0.40245 0.0
C3378 C 0.41048 0.38906 0.43871 0.0
C3379 C 0.42226 0.4568 0.42102 0.0
C3380 C 0.43318 0.44805 0.41367 0.0
C3381 C 0.44168 0.48446 0.41547 0.0
C3382 C 0.43889 0.53092 0.42503 0.0
C3383 C 0.42765 0.54073 0.43195 0.0
C3384 C 0.41927 0.50326 0.4299 0.0
H3385 H 0.33363 0.46508 0.35561 0.0
H3386 H 0.31502 0.57022 0.39577 0.0
H3387 H 0.3075 0.49852 0.41764 0.0
H3388 H 0.31286 0.35766 0.35773 0.0
H3389 H 0.32437 0.31273 0.3588 0.0
H3390 H 0.32609 0.3712 0.34419 0.0
H3391 H 0.34407 0.39079 0.36694 0.0
H3392 H 0.34227 0.33311 0.3817 0.0
H3393 H 0.34309 0.39183 0.39619 0.0
H3394 H 0.30548 0.41571 0.43918 0.0
H3395 H 0.30941 0.33392 0.45751 0.0
H3396 H 0.32844 0.28482 0.4013 0.0
C3397 C 0.32765 0.4728 0.36857 0.0
C3398 C 0.32479 0.5226 0.37405 0.0
C3399 C 0.31713 0.53189 0.39124 0.0
C3400 C 0.31284 0.49143 0.40367 0.0
C3401 C 0.31614 0.44232 0.39822 0.0
C3402 C 0.32325 0.43317 0.38077 0.0
C3403 C 0.3268 0.37866 0.37958 0.0
C3404 C 0.32225 0.3536 0.35884 0.0
C3405 C 0.33983 0.37342 0.38121 0.0
C3406 C 0.32096 0.35839 0.39956 0.0
C3407 C 0.31473 0.39517 0.41013 0.0
C3408 C 0.31003 0.38628 0.43067 0.0
C3409 C 0.3122 0.33962 0.44093 0.0
C3410 C 0.31907 0.30308 0.43059 0.0
C3411 C 0.32295 0.31183 0.4093 0.0
H3412 H 0.58184 0.12034 0.11068 0.0
H3413 H 0.56424 1.02548 0.1569 0.0
H3414 H 0.55904 0.10116 0.17842 0.0
H3415 H 0.59462 0.1959 0.14469 0.0
H3416 H 0.59303 0.2551 0.13048 0.0
H3417 H 0.59265 0.19715 0.11558 0.0
H3418 H 0.57332 0.21743 0.09915 0.0
H3419 H 0.5734 0.27714 0.11311 0.0
H3420 H 0.56165 0.2344 0.11662 0.0
H3421 H 0.5588 0.18464 0.19773 0.0
H3422 H 0.56355 0.26744 0.21339 0.0
H3423 H 0.58141 0.30775 0.15423 0.0
C3424 C 0.57649 0.11602 0.12488 0.0
C3425 C 0.57326 0.06776 0.13214 0.0
C3426 C 0.56657 0.06257 0.15102 0.0
C3427 C 0.56358 0.10529 0.16325 0.0
C3428 C 0.56719 0.15262 0.15601 0.0
C3429 C 0.57331 0.15825 0.13699 0.0
C3430 C 0.5772 0.21217 0.13388 0.0
C3431 C 0.59016 0.21525 0.13108 0.0
C3432 C 0.57102 0.23673 0.11455 0.0
C3433 C 0.57333 0.23495 0.1551 0.0
C3434 C 0.56719 0.20062 0.16728 0.0
C3435 C 0.56339 0.21208 0.18813 0.0
C3436 C 0.56617 0.25927 0.1969 0.0
C3437 C 0.57287 0.29408 0.18501 0.0
C3438 C 0.57622 0.28208 0.16365 0.0
H3439 H 0.67305 0.21623 0.10663 0.0
H3440 H 0.69782 0.31021 0.13902 0.0
H3441 H 0.7043 0.23597 0.16065 0.0
H3442 H 0.66438 0.15875 0.15178 0.0
H3443 H 0.66155 0.09808 0.14011 0.0
H3444 H 0.66073 0.15338 0.12341 0.0
H3445 H 0.67546 0.11805 0.09642 0.0
H3446 H 0.67606 0.06059 0.11206 0.0
H3447 H 0.68893 0.09486 0.10627 0.0
H3448 H 0.70507 0.15409 0.18345 0.0
H3449 H 0.69998 0.07664 0.20415 0.0
H3450 H 0.67522 1.03918 0.15474 0.0
C3451 C 0.68011 0.2208 0.11776 0.0
C3452 C 0.68501 0.26829 0.12123 0.0
C3453 C 0.6941 0.27352 0.13606 0.0
C3454 C 0.69781 0.23164 0.14834 0.0
C3455 C 0.69244 0.18521 0.14508 0.0
C3456 C 0.68387 0.17983 0.12984 0.0
C3457 C 0.67817 0.12926 0.13127 0.0
C3458 C 0.66547 0.1353 0.13697 0.0
C3459 C 0.67977 0.0989 0.11025 0.0
C3460 C 0.68476 0.10657 0.14983 0.0
C3461 C 0.69298 0.13889 0.15776 0.0
C3462 C 0.6989 0.12796 0.17695 0.0
C3463 C 0.69602 0.08387 0.18856 0.0
C3464 C 0.68727 0.05206 0.18085 0.0
C3465 C 0.68203 0.06258 0.16082 0.0
H3466 H 0.41415 0.05629 0.91777 0.0
H3467 H 0.44782 0.04904 0.94617 0.0
H3468 H 0.45111 0.96676 0.92783 0.0
H3469 H 0.4077 0.92939 0.92552 0.0
H3470 H 0.39973 0.92265 0.9008 0.0
H3471 H 0.40037 0.98292 0.91408 0.0
H3472 H 0.40778 1.02493 0.87967 0.0
H3473 H 0.40829 0.96688 0.86467 0.0
H3474 H 0.42089 1.00391 0.86748 0.0
H3475 H 0.4501 0.88241 0.90537 0.0
H3476 H 0.44457 0.80712 0.8836 0.0
H3477 H 0.41131 0.87341 0.87306 0.0
C3478 C 0.42231 1.03805 0.91991 0.0
C3479 C 0.4308 0.05939 0.93302 0.0
C3480 C 0.44124 1.03342 0.93589 0.0
C3481 C 0.44316 0.98669 0.9256 0.0
C3482 C 0.43448 0.96637 0.91288 0.0
C3483 C 0.42425 0.99145 0.91031 0.0
C3484 C 0.416 0.96199 0.8968 0.0
C3485 C 0.40532 0.94848 0.91006 0.0
C3486 C 0.41305 0.99125 0.87595 0.0
C3487 C 0.42307 0.91602 0.89196 0.0
C3488 C 0.43377 0.91879 0.90111 0.0
C3489 C 0.44171 0.88001 0.89824 0.0
C3490 C 0.43854 0.8375 0.88583 0.0
C3491 C 0.4275 0.83422 0.87677 0.0
C3492 C 0.41979 0.87427 0.87993 0.0
H3493 H 0.3395 0.97123 0.85819 0.0
H3494 H 0.30622 1.02512 0.87728 0.0
H3495 H 0.30284 0.94423 0.89686 0.0
H3496 H 0.33255 0.83534 0.85277 0.0
H3497 H 0.34612 0.81714 0.86392 0.0
H3498 H 0.34483 0.87473 0.84852 0.0
H3499 H 0.3533 0.92459 0.88074 0.0
H3500 H 0.35452 0.86763 0.8964 0.0
H3501 H 0.34667 0.92043 0.90709 0.0
H3502 H 0.3047 0.86286 0.91901 0.0
H3503 H 0.31105 0.78879 0.94029 0.0
H3504 H 0.34329 0.79059 0.90617 0.0
C3505 C 0.33134 0.96546 0.86596 0.0
C3506 C 0.32306 1.004 0.86621 0.0
C3507 C 0.31256 0.99553 0.87666 0.0
C3508 C 0.31064 0.94988 0.88787 0.0
C3509 C 0.31925 0.91338 0.88809 0.0
C3510 C 0.32935 0.92067 0.87711 0.0
C3511 C 0.33777 0.8787 0.8814 0.0
C3512 C 0.34047 0.84975 0.8604 0.0
C3513 C 0.3487 0.89908 0.89204 0.0
C3514 C 0.331 0.84685 0.89707 0.0
C3515 C 0.32031 0.86707 0.90066 0.0
C3516 C 0.31295 0.84626 0.91596 0.0
C3517 C 0.31665 0.80423 0.92802 0.0
C3518 C 0.32764 0.78357 0.92476 0.0
C3519 C 0.33477 0.8048 0.90878 0.0
H3520 H 0.15209 0.73593 0.05757 0.0
H3521 H 0.12786 0.83341 0.09018 0.0
H3522 H 0.11422 0.76403 0.09183 0.0
H3523 H 0.12921 0.6685 1.02541 0.0
H3524 H 0.13628 0.6082 1.02628 0.0
H3525 H 0.14448 0.66557 1.0269 0.0
H3526 H 0.15409 0.63419 0.06124 0.0
H3527 H 0.14548 0.57805 0.06283 0.0
H3528 H 0.14585 0.62194 0.0851 0.0
H3529 H 0.10227 0.68559 0.0893 0.0
H3530 H 0.09371 0.60133 0.08676 0.0
H3531 H 0.12429 0.54624 0.05531 0.0
C3532 C 0.14393 0.74281 0.06507 0.0
C3533 C 0.14134 0.79218 0.07371 0.0
C3534 C 0.13036 0.79767 0.08316 0.0
C3535 C 0.1224 0.75784 0.08425 0.0
C3536 C 0.12509 0.71074 0.07555 0.0
C3537 C 0.13556 0.70268 0.06596 0.0
C3538 C 0.13584 0.64764 0.05746 0.0
C3539 C 0.1365 0.64747 0.03253 0.0
C3540 C 0.14591 0.61862 0.06722 0.0
C3541 C 0.12428 0.6257 0.06509 0.0
C3542 C 0.11819 0.66385 0.07491 0.0
C3543 C 0.10712 0.65514 0.08227 0.0
C3544 C 0.10222 0.60656 0.08047 0.0
C3545 C 0.10807 0.56531 0.07087 0.0
C3546 C 0.11938 0.57593 0.06285 0.0
H3547 H 0.12808 0.53633 0.24383 0.0
H3548 H 0.16226 0.5953 0.23794 0.0
H3549 H 0.15461 0.68148 0.23612 0.0
H3550 H 0.11436 0.62382 0.20887 0.0
H3551 H 0.10165 0.63545 0.22459 0.0
H3552 H 0.10909 0.5762 0.22707 0.0
H3553 H 0.11165 0.58667 0.26797 0.0
H3554 H 0.10361 0.64454 0.26663 0.0
H3555 H 0.1176 0.64418 0.27856 0.0
H3556 H 0.14332 0.76392 0.23297 0.0
H3557 H 0.12988 0.83455 0.23207 0.0
H3558 H 0.1019 0.7303 0.2416 0.0
C3559 C 0.13401 0.56729 0.24239 0.0
C3560 C 0.14605 0.55695 0.24077 0.0
C3561 C 0.15316 0.60014 0.23887 0.0
C3562 C 0.14882 0.65009 0.23787 0.0
C3563 C 0.13709 0.65873 0.23904 0.0
C3564 C 0.12974 0.61863 0.24173 0.0
C3565 C 0.11747 0.63972 0.24305 0.0
C3566 C 0.11018 0.61749 0.2248 0.0
C3567 C 0.11227 0.62806 0.26538 0.0
C3568 C 0.11904 0.69743 0.24004 0.0
C3569 C 0.13053 0.70694 0.23785 0.0
C3570 C 0.13433 0.75644 0.23485 0.0
C3571 C 0.12646 0.79702 0.23431 0.0
C3572 C 0.1145 0.79022 0.23675 0.0
C3573 C 0.11084 0.7385 0.23962 0.0
H3574 H 0.8789 0.30237 0.97967 0.0
H3575 H 0.84672 0.34764 1.00781 0.0
H3576 H 0.85468 0.43263 1.01486 0.0
H3577 H 0.89746 0.37497 1.01645 0.0
H3578 H 0.90741 0.39167 0.99543 0.0
H3579 H 0.89955 0.33351 0.99364 0.0
H3580 H 0.89353 0.35958 0.95644 0.0
H3581 H 0.89864 0.42385 0.95673 0.0
H3582 H 0.88379 0.41068 0.95268 0.0
H3583 H 0.86665 0.51617 1.01884 0.0
H3584 H 0.88039 0.58649 1.01797 0.0
H3585 H 0.90486 0.4898 0.98588 0.0
C3586 C 0.8735 0.32966 0.98768 0.0
C3587 C 0.86204 0.31658 0.9934 0.0
C3588 C 0.85547 0.35509 1.00342 0.0
C3589 C 0.85997 0.40405 1.00748 0.0
C3590 C 0.87122 0.41541 1.00155 0.0
C3591 C 0.8779 0.37893 0.99192 0.0
C3592 C 0.88957 0.40124 0.98621 0.0
C3593 C 0.89906 0.37368 0.99866 0.0
C3594 C 0.89154 0.39875 0.96158 0.0
C3595 C 0.8885 0.45603 0.99404 0.0
C3596 C 0.87786 0.46322 1.00305 0.0
C3597 C 0.87496 0.51031 1.01177 0.0
C3598 C 0.88294 0.55049 1.0113 0.0
C3599 C 0.89396 0.545 1.00206 0.0
C3600 C 0.89665 0.49629 0.99329 0.0
H3601 H 0.85122 0.4847 0.82917 0.0
H3602 H 0.87736 0.58699 0.80641 0.0
H3603 H 0.89144 0.51829 0.80853 0.0
H3604 H 0.86952 0.40761 0.8666 0.0
H3605 H 0.86209 0.35085 0.85964 0.0
H3606 H 0.85487 0.41081 0.85795 0.0
H3607 H 0.8502 0.38646 0.81764 0.0
H3608 H 0.85853 0.32962 0.81987 0.0
H3609 H 0.86176 0.37516 0.79904 0.0
H3610 H 0.90335 0.43704 0.81342 0.0
H3611 H 0.91139 0.35186 0.81872 0.0
H3612 H 0.87813 0.29698 0.83757 0.0
C3613 C 0.85989 0.49276 0.8245 0.0
C3614 C 0.86293 0.54276 0.81745 0.0
C3615 C 0.87452 0.55016 0.8117 0.0
C3616 C 0.88271 0.51089 0.81296 0.0
C3617 C 0.87947 0.4627 0.81995 0.0
C3618 C 0.86829 0.45326 0.82553 0.0
C3619 C 0.8671 0.39712 0.83177 0.0
C3620 C 0.86313 0.39133 0.85539 0.0
C3621 C 0.8589 0.37054 0.81614 0.0
C3622 C 0.8793 0.3768 0.82908 0.0
C3623 C 0.88628 0.41562 0.8223 0.0
C3624 C 0.89787 0.40666 0.81868 0.0
C3625 C 0.90242 0.35752 0.82178 0.0
C3626 C 0.89561 0.31618 0.82864 0.0
C3627 C 0.88378 0.32687 0.83243 0.0
H3628 H 0.12936 0.05053 0.58945 0.0
H3629 H 0.09968 0.08816 0.5509 0.0
H3630 H 0.108 0.17203 0.54306 0.0
H3631 H 0.13382 0.17233 0.61306 0.0
H3632 H 0.14913 0.17101 0.6117 0.0
H3633 H 0.14127 0.11295 0.61381 0.0
H3634 H 0.15089 0.07976 0.57942 0.0
H3635 H 0.15876 0.13751 0.57604 0.0
H3636 H 0.14987 0.11496 0.5544 0.0
H3637 H 0.11952 0.2563 0.5407 0.0
H3638 H 0.13278 0.32817 0.54298 0.0
H3639 H 0.15564 0.23795 0.58235 0.0
C3640 C 0.12461 0.07595 0.57907 0.0
C3641 C 0.11371 0.06098 0.57063 0.0
C3642 C 0.10798 0.09696 0.55741 0.0
C3643 C 0.11269 0.14537 0.55296 0.0
C3644 C 0.12332 0.15872 0.56164 0.0
C3645 C 0.12925 0.12469 0.57434 0.0
C3646 C 0.14057 0.14838 0.58162 0.0
C3647 C 0.14124 0.15134 0.60653 0.0
C3648 C 0.15062 0.11833 0.57234 0.0
C3649 C 0.14003 0.20139 0.57147 0.0
C3650 C 0.12998 0.20639 0.55997 0.0
C3651 C 0.12741 0.25207 0.54956 0.0
C3652 C 0.1351 0.29318 0.55093 0.0
C3653 C 0.14556 0.28992 0.56251 0.0
C3654 C 0.14796 0.24249 0.57289 0.0
H3655 H 0.12658 0.0487 0.71762 0.0
H3656 H 0.1587 0.10062 0.74374 0.0
H3657 H 0.15032 0.18486 0.74982 0.0
H3658 H 0.11689 0.16592 0.69021 0.0
H3659 H 0.10248 0.15713 0.69894 0.0
H3660 H 0.11163 0.10327 0.6954 0.0
H3661 H 0.10749 0.0776 0.73581 0.0
H3662 H 0.09804 0.13121 0.73734 0.0
H3663 H 0.1093 0.12325 0.75699 0.0
H3664 H 0.13782 0.26466 0.75573 0.0
H3665 H 0.12334 0.3318 0.75782 0.0
H3666 H 0.09897 0.23356 0.7264 0.0
C3667 C 0.13195 0.0779 0.72432 0.0
C3668 C 0.14354 0.06656 0.73002 0.0
C3669 C 0.14993 0.10681 0.73915 0.0
C3670 C 0.14518 0.15541 0.74271 0.0
C3671 C 0.1338 0.16494 0.73724 0.0
C3672 C 0.12727 0.12731 0.72807 0.0
C3673 C 0.11507 0.14723 0.72476 0.0
C3674 C 0.11132 0.14312 0.70091 0.0
C3675 C 0.10694 0.11821 0.73963 0.0
C3676 C 0.11591 0.20246 0.73214 0.0
C3677 C 0.12675 0.21124 0.73995 0.0
C3678 C 0.12939 0.25781 0.74937 0.0
C3679 C 0.12098 0.29616 0.75058 0.0
C3680 C 0.10982 0.28964 0.7421 0.0
C3681 C 0.10736 0.24121 0.73281 0.0
H3682 H 0.85601 0.85257 0.49441 0.0
H3683 H 0.87852 0.76775 0.45234 0.0
H3684 H 0.89147 0.84012 0.45048 0.0
H3685 H 0.86111 0.97447 0.46437 0.0
H3686 H 0.85997 1.01241 0.4885 0.0
H3687 H 0.8523 0.95377 0.4866 0.0
H3688 H 0.86186 0.92462 0.52246 0.0
H3689 H 0.86976 0.98271 0.52384 0.0
H3690 H 0.87715 0.92313 0.52423 0.0
H3691 H 0.90395 0.91665 0.45751 0.0
H3692 H 0.91208 1.00115 0.4635 0.0
H3693 H 0.88108 1.04712 0.49595 0.0
C3694 C 0.86368 0.84901 0.48486 0.0
C3695 C 0.86629 0.80209 0.47428 0.0
C3696 C 0.87636 0.80115 0.4615 0.0
C3697 C 0.88388 0.8425 0.46031 0.0
C3698 C 0.88144 0.88649 0.47175 0.0
C3699 C 0.87136 0.8911 0.4831 0.0
C3700 C 0.87057 0.94506 0.49229 0.0
C3701 C 0.86037 0.97308 0.48236 0.0
C3702 C 0.86979 0.94379 0.51719 0.0
C3703 C 0.88186 0.96901 0.48484 0.0
C3704 C 0.88806 0.9337 0.47341 0.0
C3705 C 0.89903 0.94483 0.46604 0.0
C3706 C 0.90367 0.99325 0.46975 0.0
C3707 C 0.89741 1.03191 0.48028 0.0
C3708 C 0.88624 1.01902 0.48789 0.0
H3709 H 0.90146 0.85108 0.33133 0.0
H3710 H 0.87338 0.74821 0.32157 0.0
H3711 H 0.86021 0.8204 0.31836 0.0
H3712 H 0.88501 0.93837 0.36451 0.0
H3713 H 0.8926 0.9926 0.35461 0.0
H3714 H 0.89923 0.93128 0.35443 0.0
H3715 H 0.90344 0.94343 0.31361 0.0
H3716 H 0.89597 1.00263 0.31299 0.0
H3717 H 0.89168 0.9525 0.29519 0.0
H3718 H 0.84947 0.90645 0.31765 0.0
H3719 H 0.84272 0.99469 0.31917 0.0
H3720 H 0.87718 1.0448 0.33074 0.0
C3721 C 0.8926 0.84365 0.32785 0.0
C3722 C 0.88869 0.79271 0.32619 0.0
C3723 C 0.87683 0.78598 0.3226 0.0
C3724 C 0.86918 0.82719 0.3208 0.0
C3725 C 0.87326 0.8765 0.3228 0.0
C3726 C 0.88471 0.88488 0.32623 0.0
C3727 C 0.88671 0.9416 0.32914 0.0
C3728 C 0.89115 0.95179 0.35207 0.0
C3729 C 0.89494 0.96123 0.31172 0.0
C3730 C 0.87477 0.96404 0.32634 0.0
C3731 C 0.8671 0.92556 0.32279 0.0
C3732 C 0.85551 0.93654 0.32028 0.0
C3733 C 0.85171 0.98736 0.3212 0.0
C3734 C 0.8593 1.02818 0.32489 0.0
C3735 C 0.87105 1.01542 0.32769 0.0
H3736 H 0.60557 0.61492 0.59312 0.0
H3737 H 0.63116 0.50715 0.57331 0.0
H3738 H 0.645 0.57622 0.5686 0.0
H3739 H 0.61386 0.71703 0.55795 0.0
H3740 H 0.61199 0.76701 0.57716 0.0
H3741 H 0.60374 0.71041 0.57975 0.0
H3742 H 0.61129 0.6935 0.61866 0.0
H3743 H 0.61868 0.7527 0.61739 0.0
H3744 H 0.62622 0.6955 0.62405 0.0
H3745 H 0.65676 0.66165 0.56554 0.0
H3746 H 0.66471 0.74802 0.56713 0.0
H3747 H 0.6325 0.80318 0.59119 0.0
C3748 C 0.61403 0.60567 0.58752 0.0
C3749 C 0.61693 0.55384 0.5831 0.0
C3750 C 0.62839 0.54531 0.5765 0.0
C3751 C 0.63644 0.58494 0.5738 0.0
C3752 C 0.63334 0.63501 0.57816 0.0
C3753 C 0.62243 0.64533 0.58526 0.0
C3754 C 0.62153 0.7024 0.58976 0.0
C3755 C 0.61222 0.72562 0.57535 0.0
C3756 C 0.61929 0.71175 0.61391 0.0
C3757 C 0.63338 0.72277 0.58376 0.0
C3758 C 0.6401 0.68307 0.57706 0.0
C3759 C 0.65142 0.69246 0.57089 0.0
C3760 C 0.65595 0.74239 0.57191 0.0
C3761 C 0.64944 0.7844 0.57923 0.0
C3762 C 0.63789 0.77324 0.58531 0.0
H3763 H 0.65392 0.61407 0.72372 0.0
H3764 H 0.63131 0.51145 0.75707 0.0
H3765 H 0.61768 0.5814 0.7631 0.0
H3766 H 0.64769 0.72881 0.7563 0.0
H3767 H 0.64805 0.77026 0.73307 0.0
H3768 H 0.65649 0.71347 0.73327 0.0
H3769 H 0.64693 0.68348 0.69773 0.0
H3770 H 0.63899 0.74167 0.69703 0.0
H3771 H 0.63167 0.68201 0.6958 0.0
H3772 H 0.60563 0.66552 0.76428 0.0
H3773 H 0.59675 0.74954 0.75911 0.0
H3774 H 0.62649 0.79839 0.72338 0.0
C3775 C 0.64628 0.60659 0.73298 0.0
C3776 C 0.64407 0.55652 0.74071 0.0
C3777 C 0.63356 0.54895 0.75158 0.0
C3778 C 0.62566 0.58886 0.75497 0.0
C3779 C 0.62805 0.6374 0.74709 0.0
C3780 C 0.63815 0.64629 0.73624 0.0
C3781 C 0.6383 0.70103 0.72803 0.0
C3782 C 0.64822 0.73011 0.73828 0.0
C3783 C 0.639 0.70221 0.70314 0.0
C3784 C 0.62682 0.72172 0.73591 0.0
C3785 C 0.62104 0.68445 0.74704 0.0
C3786 C 0.61022 0.69463 0.75562 0.0
C3787 C 0.60518 0.74311 0.75267 0.0
C3788 C 0.61076 0.78227 0.74101 0.0
C3789 C 0.62184 0.77047 0.73262 0.0
H3790 H 0.40135 0.48822 0.50169 0.0
H3791 H 0.38274 0.56491 0.45043 0.0
H3792 H 0.36993 0.49247 0.44732 0.0
H3793 H 0.39802 0.35749 0.47753 0.0
H3794 H 0.39668 0.32828 0.50379 0.0
H3795 H 0.40483 0.38544 0.50083 0.0
H3796 H 0.39221 0.42521 0.53097 0.0
H3797 H 0.38384 0.36847 0.53268 0.0
H3798 H 0.37703 0.42804 0.52709 0.0
H3799 H 0.3574 0.41505 0.45161 0.0
H3800 H 0.34813 0.33386 0.45903 0.0
H3801 H 0.37459 0.29711 0.50562 0.0
C3802 C 0.39464 0.48976 0.48968 0.0
C3803 C 0.3932 0.53444 0.47652 0.0
C3804 C 0.38418 0.53302 0.46109 0.0
C3805 C 0.37673 0.49143 0.45915 0.0
C3806 C 0.37808 0.44948 0.47268 0.0
C3807 C 0.38696 0.44752 0.48739 0.0
C3808 C 0.38639 0.39643 0.49956 0.0
C3809 C 0.39713 0.3651 0.49518 0.0
C3810 C 0.38478 0.40506 0.52404 0.0
C3811 C 0.3758 0.37076 0.48959 0.0
C3812 C 0.37114 0.40285 0.47427 0.0
C3813 C 0.36112 0.38961 0.46341 0.0
C3814 C 0.35581 0.34282 0.46791 0.0
C3815 C 0.36038 0.30741 0.48298 0.0
C3816 C 0.37069 0.32228 0.49392 0.0
H3817 H 0.4068 0.34773 0.32841 0.0
H3818 H 0.38071 0.2481 0.30352 0.0
H3819 H 0.3673 0.31942 0.30192 0.0
H3820 H 0.3904 0.43431 0.36078 0.0
H3821 H 0.39794 0.48853 0.35123 0.0
H3822 H 0.40471 0.42757 0.3507 0.0
H3823 H 0.40868 0.44523 0.30984 0.0
H3824 H 0.40079 0.50353 0.311 0.0
H3825 H 0.39687 0.45564 0.29171 0.0
H3826 H 0.35577 0.40311 0.30502 0.0
H3827 H 0.34801 0.48868 0.3112 0.0
H3828 H 0.38123 0.53834 0.33269 0.0
C3829 C 0.39832 0.34086 0.32232 0.0
C3830 C 0.395 0.29055 0.31637 0.0
C3831 C 0.38371 0.28494 0.30837 0.0
C3832 C 0.37592 0.32581 0.30736 0.0
C3833 C 0.37937 0.37417 0.31363 0.0
C3834 C 0.39042 0.38219 0.32051 0.0
C3835 C 0.392 0.43877 0.32533 0.0
C3836 C 0.39651 0.44767 0.34838 0.0
C3837 C 0.40006 0.46217 0.30848 0.0
C3838 C 0.3799 0.46001 0.32243 0.0
C3839 C 0.37284 0.42227 0.31496 0.0
C3840 C 0.36134 0.43271 0.31069 0.0
C3841 C 0.35696 0.48207 0.31419 0.0
C3842 C 0.36384 0.52183 0.32232 0.0
C3843 C 0.37558 0.50977 0.32638 0.0
H3844 H 0.62989 0.29202 0.08795 0.0
H3845 H 0.66017 0.24392 0.05376 0.0
H3846 H 0.6512 0.16081 0.04708 0.0
H3847 H 0.62563 0.19258 0.11405 0.0
H3848 H 0.61115 0.17095 0.11313 0.0
H3849 H 0.61441 0.23746 0.11169 0.0
H3850 H 0.60822 0.26422 0.07515 0.0
H3851 H 0.59986 0.20734 0.07586 0.0
H3852 H 0.60878 0.22068 0.05276 0.0
H3853 H 0.63859 0.0789 0.04493 0.0
H3854 H 0.62477 1.00967 0.04829 0.0
H3855 H 0.60245 0.1072 0.0853 0.0
C3856 C 0.6346 0.26469 0.0785 0.0
C3857 C 0.6459 0.27633 0.07118 0.0
C3858 C 0.65157 0.23773 0.05936 0.0
C3859 C 0.64647 0.18978 0.05552 0.0
C3860 C 0.63544 0.17967 0.06319 0.0
C3861 C 0.6295 0.21669 0.0741 0.0
C3862 C 0.61801 0.19545 0.08176 0.0
C3863 C 0.61719 0.19921 0.10659 0.0
C3864 C 0.60813 0.22361 0.07073 0.0
C3865 C 0.61843 0.14024 0.07398 0.0
C3866 C 0.62851 0.13244 0.06291 0.0
C3867 C 0.63073 0.08527 0.05361 0.0
C3868 C 0.62268 1.04561 0.05558 0.0
C3869 C 0.61224 0.05127 0.06705 0.0
C3870 C 0.61019 0.1003 0.07629 0.0
H3871 H 0.65535 0.0999 0.22289 0.0
H3872 H 0.6316 1.00523 0.25804 0.0
H3873 H 0.61795 0.07555 0.25929 0.0
H3874 H 0.6485 0.21882 0.25148 0.0
H3875 H 0.6495 0.25815 0.22763 0.0
H3876 H 0.65771 0.20082 0.22941 0.0
H3877 H 0.64882 0.16926 0.19332 0.0
H3878 H 0.64086 0.2273 0.19152 0.0
H3879 H 0.63356 0.16769 0.19078 0.0
H3880 H 0.60598 0.15788 0.25649 0.0
H3881 H 0.59757 0.24222 0.25079 0.0
H3882 H 0.62826 0.28957 0.21764 0.0
C3883 C 0.64735 0.09393 0.23113 0.0
C3884 C 0.6449 1.04522 0.24062 0.0
C3885 C 0.63405 1.04074 0.25072 0.0
C3886 C 0.62609 0.08111 0.25149 0.0
C3887 C 0.6287 0.12783 0.24205 0.0
C3888 C 0.63912 0.13465 0.23207 0.0
C3889 C 0.6396 0.18916 0.22301 0.0
C3890 C 0.64941 0.21848 0.2335 0.0
C3891 C 0.6408 0.18831 0.19817 0.0
C3892 C 0.62797 0.21181 0.22962 0.0
C3893 C 0.62182 0.17529 0.2405 0.0
C3894 C 0.61083 0.18641 0.24802 0.0
C3895 C 0.60604 0.23517 0.24462 0.0
C3896 C 0.61198 0.27447 0.23369 0.0
C3897 C 0.62323 0.26155 0.22606 0.0
H3898 H 0.35342 0.85936 0.97614 0.0
H3899 H 0.38149 0.75327 0.97753 0.0
H3900 H 0.39502 0.82381 0.97873 0.0
H3901 H 0.36806 0.95141 0.94047 0.0
H3902 H 0.36222 1.00643 0.95352 0.0
H3903 H 0.35441 0.94801 0.95366 0.0
H3904 H 0.35333 0.95117 0.99543 0.0
H3905 H 0.36121 1.00941 0.99555 0.0
H3906 H 0.36623 0.95619 1.01109 0.0
H3907 H 0.4063 0.9086 0.98151 0.0
H3908 H 0.41368 0.99602 0.98192 0.0
H3909 H 0.3793 0.05257 0.97516 0.0
C3910 C 0.36241 0.85075 0.97682 0.0
C3911 C 0.3661 0.79871 0.97696 0.0
C3912 C 0.3781 0.79127 0.97745 0.0
C3913 C 0.38601 0.83179 0.97819 0.0
C3914 C 0.38216 0.88186 0.97803 0.0
C3915 C 0.37061 0.89165 0.97701 0.0
C3916 C 0.36891 0.94957 0.97602 0.0
C3917 C 0.36305 0.96475 0.95465 0.0
C3918 C 0.362 0.96765 0.99569 0.0
C3919 C 0.38119 0.97052 0.9769 0.0
C3920 C 0.38868 0.93047 0.97835 0.0
C3921 C 0.40041 0.93983 0.98021 0.0
C3922 C 0.4046 0.99032 0.98052 0.0
C3923 C 0.39732 1.03296 0.97852 0.0
C3924 C 0.38533 1.02188 0.97657 0.0
H3925 H 0.4002 0.85581 0.83721 0.0
H3926 H 0.37732 0.75633 0.80288 0.0
H3927 H 0.36376 0.82706 0.79787 0.0
H3928 H 0.37698 0.92288 0.86617 0.0
H3929 H 0.38551 0.97925 0.86664 0.0
H3930 H 0.39215 0.91785 0.86545 0.0
H3931 H 0.40282 0.95239 0.82908 0.0
H3932 H 0.39503 1.01061 0.83241 0.0
H3933 H 0.39393 0.97541 0.80749 0.0
H3934 H 0.35197 0.91275 0.79736 0.0
H3935 H 0.34348 0.99726 0.80348 0.0
H3936 H 0.37329 1.04012 0.84041 0.0
C3937 C 0.39248 0.84905 0.82812 0.0
C3938 C 0.39018 0.79974 0.81984 0.0
C3939 C 0.3796 0.79322 0.80899 0.0
C3940 C 0.37174 0.83358 0.80612 0.0
C3941 C 0.37423 0.88136 0.8146 0.0
C3942 C 0.38434 0.88892 0.8256 0.0
C3943 C 0.38458 0.94254 0.83478 0.0
C3944 C 0.38484 0.94069 0.85974 0.0
C3945 C 0.3947 0.97202 0.82544 0.0
C3946 C 0.3733 0.96472 0.82679 0.0
C3947 C 0.36739 0.92885 0.81512 0.0
C3948 C 0.35666 0.94074 0.80644 0.0
C3949 C 0.35187 0.98949 0.80989 0.0
C3950 C 0.35761 1.02705 0.82218 0.0
C3951 C 0.36856 1.01352 0.83063 0.0
loop_
_geom_bond_atom_site_label_1
_geom_bond_atom_site_label_2
_geom_bond_distance
_geom_bond_site_symmetry_2
_ccdc_geom_bond_type
O0 Tb1 2.292 . S
O0 C3 1.255 . S
Tb1 O0 2.292 . S
Tb1 O17 2.326 . S
Tb1 O19 2.500 . S
Tb1 O20 2.473 . S
Tb1 O23 2.324 . S
Eu2 O6 2.292 . S
Eu2 C7 2.852 . S
Eu2 O18 2.324 . S
Eu2 O22 2.326 . S
Eu2 O24 2.500 . S
Eu2 O25 2.473 . S
C3 O0 1.255 . S
C3 O4 1.247 . S
O4 C3 1.247 . S
C5 O17 1.242 . S
C5 O18 1.258 . S
O6 Eu2 2.292 . S
O6 C8 1.255 . S
C7 Eu2 2.852 . S
C7 C11 1.503 . S
C7 O24 1.273 . S
C7 O25 1.257 . S
C8 O6 1.255 . S
C8 O9 1.247 . S
O9 C8 1.247 . S
C10 O22 1.242 . S
C10 O23 1.258 . S
C11 C7 1.503 . S
C11 C12 1.379 1_554 S
C11 C16 1.392 . S
C12 C11 1.379 1_556 S
C12 C13 1.404 . S
C12 H26 0.918 1_556 S
C13 C12 1.404 . S
C13 C14 1.389 . S
C14 C13 1.389 . S
C14 C15 1.399 . S
C14 H27 0.931 . S
C15 C14 1.399 . S
C15 C16 1.390 1_556 S
C16 C11 1.392 . S
C16 C15 1.390 1_554 S
C16 H28 0.929 . S
O17 Tb1 2.326 . S
O17 C5 1.242 . S
O18 Eu2 2.324 . S
O18 C5 1.258 . S
O19 Tb1 2.500 . S
O19 C21 1.273 . S
O20 Tb1 2.473 . S
O20 C21 1.257 . S
C21 O19 1.273 . S
C21 O20 1.257 . S
O22 Eu2 2.326 . S
O22 C10 1.242 . S
O23 Tb1 2.324 . S
O23 C10 1.258 . S
O24 Eu2 2.500 . S
O24 C7 1.273 . S
O25 Eu2 2.473 . S
O25 C7 1.257 . S
H26 C12 0.918 1_554 S
H27 C14 0.931 . S
H28 C16 0.929 . S
O29 Tb30 2.292 . S
O29 C32 1.255 1_565 S
Tb30 O29 2.292 . S
Tb30 O46 2.326 . S
Tb30 O48 2.500 . S
Tb30 O49 2.473 . S
Tb30 O52 2.324 . S
Eu31 O35 2.292 . S
Eu31 C36 2.852 . S
Eu31 O47 2.324 . S
Eu31 O51 2.326 . S
Eu31 O53 2.500 . S
Eu31 O54 2.473 . S
C32 O29 1.255 1_545 S
C32 O33 1.247 . S
O33 C32 1.247 . S
C34 O46 1.242 . S
C34 O47 1.258 . S
O35 Eu31 2.292 . S
O35 C37 1.255 . S
C36 Eu31 2.852 . S
C36 C40 1.503 . S
C36 O53 1.273 . S
C36 O54 1.257 . S
C37 O35 1.255 . S
C37 O38 1.247 . S
O38 C37 1.247 . S
C39 O51 1.242 . S
C39 O52 1.258 . S
C40 C36 1.503 . S
C40 C41 1.379 1_554 S
C40 C45 1.392 . S
C41 C40 1.379 1_556 S
C41 C42 1.404 . S
C41 H55 0.918 1_556 S
C42 C41 1.404 . S
C42 C43 1.389 . S
C43 C42 1.389 . S
C43 C44 1.399 . S
C43 H56 0.931 . S
C44 C43 1.399 . S
C44 C45 1.390 1_556 S
C45 C40 1.392 . S
C45 C44 1.390 1_554 S
C45 H57 0.929 . S
O46 Tb30 2.326 . S
O46 C34 1.242 . S
O47 Eu31 2.324 . S
O47 C34 1.258 . S
O48 Tb30 2.500 . S
O48 C50 1.273 . S
O49 Tb30 2.473 . S
O49 C50 1.257 . S
C50 O48 1.273 . S
C50 O49 1.257 . S
O51 Eu31 2.326 . S
O51 C39 1.242 . S
O52 Tb30 2.324 . S
O52 C39 1.258 . S
O53 Eu31 2.500 . S
O53 C36 1.273 . S
O54 Eu31 2.473 . S
O54 C36 1.257 . S
H55 C41 0.918 1_554 S
H56 C43 0.931 . S
H57 C45 0.929 . S
O58 Tb59 2.292 . S
O58 C61 1.255 1_565 S
Tb59 O58 2.292 . S
Tb59 O75 2.326 . S
Tb59 O77 2.500 . S
Tb59 O78 2.473 . S
Tb59 O81 2.324 . S
Eu60 O64 2.292 . S
Eu60 C65 2.852 . S
Eu60 O76 2.324 . S
Eu60 O80 2.326 . S
Eu60 O82 2.500 . S
Eu60 O83 2.473 . S
C61 O58 1.255 1_545 S
C61 O62 1.247 . S
O62 C61 1.247 . S
C63 O75 1.242 . S
C63 O76 1.258 . S
O64 Eu60 2.292 . S
O64 C66 1.255 . S
C65 Eu60 2.852 . S
C65 C69 1.503 . S
C65 O82 1.273 . S
C65 O83 1.257 . S
C66 O64 1.255 . S
C66 O67 1.247 . S
O67 C66 1.247 . S
C68 O80 1.242 . S
C68 O81 1.258 . S
C69 C65 1.503 . S
C69 C70 1.379 . S
C69 C74 1.392 . S
C70 C69 1.379 . S
C70 C71 1.404 . S
C70 H84 0.929 . S
C71 C70 1.404 . S
C71 C72 1.389 . S
C72 C71 1.389 . S
C72 C73 1.399 . S
C72 H85 0.931 . S
C73 C72 1.399 . S
C73 C74 1.390 . S
C74 C69 1.392 . S
C74 C73 1.390 . S
C74 H86 0.929 . S
O75 Tb59 2.326 . S
O75 C63 1.242 . S
O76 Eu60 2.324 . S
O76 C63 1.258 . S
O77 Tb59 2.500 . S
O77 C79 1.273 . S
O78 Tb59 2.473 . S
O78 C79 1.257 . S
C79 O77 1.273 . S
C79 O78 1.257 . S
O80 Eu60 2.326 . S
O80 C68 1.242 . S
O81 Tb59 2.324 . S
O81 C68 1.258 . S
O82 Eu60 2.500 . S
O82 C65 1.273 . S
O83 Eu60 2.473 . S
O83 C65 1.257 . S
H84 C70 0.929 . S
H85 C72 0.931 . S
H86 C74 0.929 . S
O87 Tb88 2.292 . S
O87 C90 1.255 . S
Tb88 O87 2.292 . S
Tb88 O104 2.326 . S
Tb88 O106 2.500 . S
Tb88 O107 2.473 . S
Tb88 O110 2.324 . S
Eu89 O93 2.292 . S
Eu89 C94 2.852 . S
Eu89 O105 2.324 . S
Eu89 O109 2.326 . S
Eu89 O111 2.500 . S
Eu89 O112 2.473 . S
C90 O87 1.255 . S
C90 O91 1.247 . S
O91 C90 1.247 . S
C92 O104 1.242 . S
C92 O105 1.258 . S
O93 Eu89 2.292 . S
O93 C95 1.255 . S
C94 Eu89 2.852 . S
C94 C98 1.503 . S
C94 O111 1.273 . S
C94 O112 1.257 . S
C95 O93 1.255 . S
C95 O96 1.247 . S
O96 C95 1.247 . S
C97 O109 1.242 . S
C97 O110 1.258 . S
C98 C94 1.503 . S
C98 C99 1.379 . S
C98 C103 1.392 . S
C99 C98 1.379 . S
C99 C100 1.404 . S
C99 H113 0.929 . S
C100 C99 1.404 . S
C100 C101 1.389 . S
C101 C100 1.389 . S
C101 C102 1.399 . S
C101 H114 0.931 . S
C102 C101 1.399 . S
C102 C103 1.390 . S
C103 C98 1.392 . S
C103 C102 1.390 . S
C103 H115 0.929 . S
O104 Tb88 2.326 . S
O104 C92 1.242 . S
O105 Eu89 2.324 . S
O105 C92 1.258 . S
O106 Tb88 2.500 . S
O106 C108 1.273 . S
O107 Tb88 2.473 . S
O107 C108 1.257 . S
C108 O106 1.273 . S
C108 O107 1.257 . S
O109 Eu89 2.326 . S
O109 C97 1.242 . S
O110 Tb88 2.324 . S
O110 C97 1.258 . S
O111 Eu89 2.500 . S
O111 C94 1.273 . S
O112 Eu89 2.473 . S
O112 C94 1.257 . S
H113 C99 0.929 . S
H114 C101 0.931 . S
H115 C103 0.929 . S
O116 Tb117 2.292 . S
O116 C119 1.255 . S
Tb117 O116 2.292 . S
Tb117 O133 2.326 . S
Tb117 O135 2.500 . S
Tb117 O136 2.473 . S
Tb117 O139 2.324 . S
Eu118 O122 2.292 . S
Eu118 C123 2.852 . S
Eu118 O134 2.324 . S
Eu118 O138 2.326 . S
Eu118 O140 2.500 . S
Eu118 O141 2.473 . S
C119 O116 1.255 . S
C119 O120 1.247 . S
O120 C119 1.247 . S
C121 O133 1.242 . S
C121 O134 1.258 . S
O122 Eu118 2.292 . S
O122 C124 1.255 . S
C123 Eu118 2.852 . S
C123 C127 1.503 . S
C123 O140 1.273 . S
C123 O141 1.257 . S
C124 O122 1.255 . S
C124 O125 1.247 . S
O125 C124 1.247 . S
C126 O138 1.242 . S
C126 O139 1.258 . S
C127 C123 1.503 . S
C127 C128 1.379 1_556 S
C127 C132 1.392 . S
C128 C127 1.379 1_554 S
C128 C129 1.404 . S
C128 H142 0.918 1_554 S
C129 C128 1.404 . S
C129 C130 1.389 . S
C130 C129 1.389 . S
C130 C131 1.399 . S
C130 H143 0.931 . S
C131 C130 1.399 . S
C131 C132 1.390 1_554 S
C132 C127 1.392 . S
C132 C131 1.390 1_556 S
C132 H144 0.929 . S
O133 Tb117 2.326 . S
O133 C121 1.242 . S
O134 Eu118 2.324 . S
O134 C121 1.258 . S
O135 Tb117 2.500 . S
O135 C137 1.273 . S
O136 Tb117 2.473 . S
O136 C137 1.257 . S
C137 O135 1.273 . S
C137 O136 1.257 . S
O138 Eu118 2.326 . S
O138 C126 1.242 . S
O139 Tb117 2.324 . S
O139 C126 1.258 . S
O140 Eu118 2.500 . S
O140 C123 1.273 . S
O141 Eu118 2.473 . S
O141 C123 1.257 . S
H142 C128 0.918 1_556 S
H143 C130 0.931 . S
H144 C132 0.929 . S
O145 Tb146 2.292 . S
O145 C148 1.255 1_545 S
Tb146 O145 2.292 . S
Tb146 O162 2.326 . S
Tb146 O164 2.500 . S
Tb146 O165 2.473 . S
Tb146 O168 2.324 . S
Eu147 O151 2.292 . S
Eu147 C152 2.852 . S
Eu147 O163 2.324 . S
Eu147 O167 2.326 . S
Eu147 O169 2.500 . S
Eu147 O170 2.473 . S
C148 O145 1.255 1_565 S
C148 O149 1.247 . S
O149 C148 1.247 . S
C150 O162 1.242 . S
C150 O163 1.258 . S
O151 Eu147 2.292 . S
O151 C153 1.255 . S
C152 Eu147 2.852 . S
C152 C156 1.503 . S
C152 O169 1.273 . S
C152 O170 1.257 . S
C153 O151 1.255 . S
C153 O154 1.247 . S
O154 C153 1.247 . S
C155 O167 1.242 . S
C155 O168 1.258 . S
C156 C152 1.503 . S
C156 C157 1.379 1_556 S
C156 C161 1.392 . S
C157 C156 1.379 1_554 S
C157 C158 1.404 . S
C157 H171 0.918 1_554 S
C158 C157 1.404 . S
C158 C159 1.389 . S
C159 C158 1.389 . S
C159 C160 1.399 . S
C159 H172 0.931 . S
C160 C159 1.399 . S
C160 C161 1.390 1_554 S
C161 C156 1.392 . S
C161 C160 1.390 1_556 S
C161 H173 0.929 . S
O162 Tb146 2.326 . S
O162 C150 1.242 . S
O163 Eu147 2.324 . S
O163 C150 1.258 . S
O164 Tb146 2.500 . S
O164 C166 1.273 . S
O165 Tb146 2.473 . S
O165 C166 1.257 . S
C166 O164 1.273 . S
C166 O165 1.257 . S
O167 Eu147 2.326 . S
O167 C155 1.242 . S
O168 Tb146 2.324 . S
O168 C155 1.258 . S
O169 Eu147 2.500 . S
O169 C152 1.273 . S
O170 Eu147 2.473 . S
O170 C152 1.257 . S
H171 C157 0.918 1_556 S
H172 C159 0.931 . S
H173 C161 0.929 . S
O174 Tb175 2.292 . S
O174 C177 1.255 1_545 S
Tb175 O174 2.292 . S
Tb175 O191 2.326 . S
Tb175 O193 2.500 . S
Tb175 O194 2.473 . S
Tb175 O197 2.324 . S
Eu176 O180 2.292 . S
Eu176 C181 2.852 . S
Eu176 O192 2.324 . S
Eu176 O196 2.326 . S
Eu176 O198 2.500 . S
Eu176 O199 2.473 . S
C177 O174 1.255 1_565 S
C177 O178 1.247 . S
O178 C177 1.247 . S
C179 O191 1.242 . S
C179 O192 1.258 . S
O180 Eu176 2.292 . S
O180 C182 1.255 . S
C181 Eu176 2.852 . S
C181 C185 1.503 . S
C181 O198 1.273 . S
C181 O199 1.257 . S
C182 O180 1.255 . S
C182 O183 1.247 . S
O183 C182 1.247 . S
C184 O196 1.242 . S
C184 O197 1.258 . S
C185 C181 1.503 . S
C185 C186 1.379 . S
C185 C190 1.392 . S
C186 C185 1.379 . S
C186 C187 1.404 . S
C186 H200 0.929 . S
C187 C186 1.404 . S
C187 C188 1.389 . S
C188 C187 1.389 . S
C188 C189 1.399 . S
C188 H201 0.931 . S
C189 C188 1.399 . S
C189 C190 1.390 . S
C190 C185 1.392 . S
C190 C189 1.390 . S
C190 H202 0.929 . S
O191 Tb175 2.326 . S
O191 C179 1.242 . S
O192 Eu176 2.324 . S
O192 C179 1.258 . S
O193 Tb175 2.500 . S
O193 C195 1.273 . S
O194 Tb175 2.473 . S
O194 C195 1.257 . S
C195 O193 1.273 . S
C195 O194 1.257 . S
O196 Eu176 2.326 . S
O196 C184 1.242 . S
O197 Tb175 2.324 . S
O197 C184 1.258 . S
O198 Eu176 2.500 . S
O198 C181 1.273 . S
O199 Eu176 2.473 . S
O199 C181 1.257 . S
H200 C186 0.929 . S
H201 C188 0.931 . S
H202 C190 0.929 . S
O203 Tb204 2.292 . S
O203 C206 1.255 . S
Tb204 O203 2.292 . S
Tb204 O220 2.326 . S
Tb204 O222 2.500 . S
Tb204 O223 2.473 . S
Tb204 O226 2.324 . S
Eu205 O209 2.292 . S
Eu205 C210 2.852 . S
Eu205 O221 2.324 . S
Eu205 O225 2.326 . S
Eu205 O227 2.500 . S
Eu205 O228 2.473 . S
C206 O203 1.255 . S
C206 O207 1.247 . S
O207 C206 1.247 . S
C208 O220 1.242 . S
C208 O221 1.258 . S
O209 Eu205 2.292 . S
O209 C211 1.255 . S
C210 Eu205 2.852 . S
C210 C214 1.503 . S
C210 O227 1.273 . S
C210 O228 1.257 . S
C211 O209 1.255 . S
C211 O212 1.247 . S
O212 C211 1.247 . S
C213 O225 1.242 . S
C213 O226 1.258 . S
C214 C210 1.503 . S
C214 C215 1.379 . S
C214 C219 1.392 . S
C215 C214 1.379 . S
C215 C216 1.404 . S
C215 H229 0.929 . S
C216 C215 1.404 . S
C216 C217 1.389 . S
C217 C216 1.389 . S
C217 C218 1.399 . S
C217 H230 0.931 . S
C218 C217 1.399 . S
C218 C219 1.390 . S
C219 C214 1.392 . S
C219 C218 1.390 . S
C219 H231 0.929 . S
O220 Tb204 2.326 . S
O220 C208 1.242 . S
O221 Eu205 2.324 . S
O221 C208 1.258 . S
O222 Tb204 2.500 . S
O222 C224 1.273 . S
O223 Tb204 2.473 . S
O223 C224 1.257 . S
C224 O222 1.273 . S
C224 O223 1.257 . S
O225 Eu205 2.326 . S
O225 C213 1.242 . S
O226 Tb204 2.324 . S
O226 C213 1.258 . S
O227 Eu205 2.500 . S
O227 C210 1.273 . S
O228 Eu205 2.473 . S
O228 C210 1.257 . S
H229 C215 0.929 . S
H230 C217 0.931 . S
H231 C219 0.929 . S
O232 Tb233 2.292 . S
O232 C235 1.255 . S
Tb233 O232 2.292 . S
Tb233 O249 2.326 . S
Tb233 O251 2.500 . S
Tb233 O252 2.473 . S
Tb233 O255 2.324 . S
Eu234 O238 2.292 . S
Eu234 C239 2.852 . S
Eu234 O250 2.324 . S
Eu234 O254 2.326 . S
Eu234 O256 2.500 . S
Eu234 O257 2.473 . S
C235 O232 1.255 . S
C235 O236 1.247 . S
O236 C235 1.247 . S
C237 O249 1.242 . S
C237 O250 1.258 . S
O238 Eu234 2.292 . S
O238 C240 1.255 1_565 S
C239 Eu234 2.852 . S
C239 C243 1.503 . S
C239 O256 1.273 . S
C239 O257 1.257 . S
C240 O238 1.255 1_545 S
C240 O241 1.247 1_545 S
O241 C240 1.247 1_565 S
C242 O254 1.242 . S
C242 O255 1.258 . S
C243 C239 1.503 . S
C243 C244 1.379 . S
C243 C248 1.392 . S
C244 C243 1.379 . S
C244 C245 1.404 . S
C244 H258 0.929 . S
C245 C244 1.404 . S
C245 C246 1.389 . S
C246 C245 1.389 . S
C246 C247 1.399 . S
C246 H259 0.931 . S
C247 C246 1.399 . S
C247 C248 1.390 . S
C248 C243 1.392 . S
C248 C247 1.390 . S
C248 H260 0.929 . S
O249 Tb233 2.326 . S
O249 C237 1.242 . S
O250 Eu234 2.324 . S
O250 C237 1.258 . S
O251 Tb233 2.500 . S
O251 C253 1.273 . S
O252 Tb233 2.473 . S
O252 C253 1.257 . S
C253 O251 1.273 . S
C253 O252 1.257 . S
O254 Eu234 2.326 . S
O254 C242 1.242 . S
O255 Tb233 2.324 . S
O255 C242 1.258 . S
O256 Eu234 2.500 . S
O256 C239 1.273 . S
O257 Eu234 2.473 . S
O257 C239 1.257 . S
H258 C244 0.929 . S
H259 C246 0.931 . S
H260 C248 0.929 . S
O261 Tb262 2.292 . S
O261 C264 1.255 . S
Tb262 O261 2.292 . S
Tb262 O278 2.326 . S
Tb262 O280 2.500 . S
Tb262 O281 2.473 . S
Tb262 O284 2.324 . S
Eu263 O267 2.292 . S
Eu263 C268 2.852 . S
Eu263 O279 2.324 . S
Eu263 O283 2.326 . S
Eu263 O285 2.500 . S
Eu263 O286 2.473 . S
C264 O261 1.255 . S
C264 O265 1.247 . S
O265 C264 1.247 . S
C266 O278 1.242 . S
C266 O279 1.258 . S
O267 Eu263 2.292 . S
O267 C269 1.255 . S
C268 Eu263 2.852 . S
C268 C272 1.503 . S
C268 O285 1.273 . S
C268 O286 1.257 . S
C269 O267 1.255 . S
C269 O270 1.247 . S
O270 C269 1.247 . S
C271 O283 1.242 . S
C271 O284 1.258 . S
C272 C268 1.503 . S
C272 C273 1.379 . S
C272 C277 1.392 . S
C273 C272 1.379 . S
C273 C274 1.404 . S
C273 H287 0.929 . S
C274 C273 1.404 . S
C274 C275 1.389 . S
C275 C274 1.389 . S
C275 C276 1.399 . S
C275 H288 0.931 . S
C276 C275 1.399 . S
C276 C277 1.390 . S
C277 C272 1.392 . S
C277 C276 1.390 . S
C277 H289 0.929 . S
O278 Tb262 2.326 . S
O278 C266 1.242 . S
O279 Eu263 2.324 . S
O279 C266 1.258 . S
O280 Tb262 2.500 . S
O280 C282 1.273 . S
O281 Tb262 2.473 . S
O281 C282 1.257 . S
C282 O280 1.273 . S
C282 O281 1.257 . S
O283 Eu263 2.326 . S
O283 C271 1.242 . S
O284 Tb262 2.324 . S
O284 C271 1.258 . S
O285 Eu263 2.500 . S
O285 C268 1.273 . S
O286 Eu263 2.473 . S
O286 C268 1.257 . S
H287 C273 0.929 . S
H288 C275 0.931 . S
H289 C277 0.929 . S
O290 Tb291 2.292 . S
O290 C293 1.255 . S
Tb291 O290 2.292 . S
Tb291 O307 2.326 . S
Tb291 O309 2.500 . S
Tb291 O310 2.473 . S
Tb291 O313 2.324 . S
Eu292 O296 2.292 . S
Eu292 C297 2.852 . S
Eu292 O308 2.324 . S
Eu292 O312 2.326 . S
Eu292 O314 2.500 . S
Eu292 O315 2.473 . S
C293 O290 1.255 . S
C293 O294 1.247 . S
O294 C293 1.247 . S
C295 O307 1.242 . S
C295 O308 1.258 . S
O296 Eu292 2.292 . S
O296 C298 1.255 . S
C297 Eu292 2.852 . S
C297 C301 1.503 . S
C297 O314 1.273 . S
C297 O315 1.257 . S
C298 O296 1.255 . S
C298 O299 1.247 . S
O299 C298 1.247 . S
C300 O312 1.242 . S
C300 O313 1.258 . S
C301 C297 1.503 . S
C301 C302 1.379 . S
C301 C306 1.392 . S
C302 C301 1.379 . S
C302 C303 1.404 . S
C302 H316 0.929 . S
C303 C302 1.404 . S
C303 C304 1.389 . S
C304 C303 1.389 . S
C304 C305 1.399 . S
C304 H317 0.931 . S
C305 C304 1.399 . S
C305 C306 1.390 . S
C306 C301 1.392 . S
C306 C305 1.390 . S
C306 H318 0.929 . S
O307 Tb291 2.326 . S
O307 C295 1.242 . S
O308 Eu292 2.324 . S
O308 C295 1.258 . S
O309 Tb291 2.500 . S
O309 C311 1.273 . S
O310 Tb291 2.473 . S
O310 C311 1.257 . S
C311 O309 1.273 . S
C311 O310 1.257 . S
O312 Eu292 2.326 . S
O312 C300 1.242 . S
O313 Tb291 2.324 . S
O313 C300 1.258 . S
O314 Eu292 2.500 . S
O314 C297 1.273 . S
O315 Eu292 2.473 . S
O315 C297 1.257 . S
H316 C302 0.929 . S
H317 C304 0.931 . S
H318 C306 0.929 . S
O319 Tb320 2.292 . S
O319 C322 1.255 . S
Tb320 O319 2.292 . S
Tb320 O336 2.326 . S
Tb320 O338 2.500 . S
Tb320 O339 2.473 . S
Tb320 O342 2.324 . S
Eu321 O325 2.292 . S
Eu321 C326 2.852 . S
Eu321 O337 2.324 . S
Eu321 O341 2.326 . S
Eu321 O343 2.500 . S
Eu321 O344 2.473 . S
C322 O319 1.255 . S
C322 O323 1.247 . S
O323 C322 1.247 . S
C324 O336 1.242 . S
C324 O337 1.258 . S
O325 Eu321 2.292 . S
O325 C327 1.255 1_565 S
C326 Eu321 2.852 . S
C326 C330 1.503 . S
C326 O343 1.273 . S
C326 O344 1.257 . S
C327 O325 1.255 1_545 S
C327 O328 1.247 1_545 S
O328 C327 1.247 1_565 S
C329 O341 1.242 . S
C329 O342 1.258 . S
C330 C326 1.503 . S
C330 C331 1.379 . S
C330 C335 1.392 . S
C331 C330 1.379 . S
C331 C332 1.404 . S
C331 H345 0.929 . S
C332 C331 1.404 . S
C332 C333 1.389 . S
C333 C332 1.389 . S
C333 C334 1.399 . S
C333 H346 0.931 . S
C334 C333 1.399 . S
C334 C335 1.390 . S
C335 C330 1.392 . S
C335 C334 1.390 . S
C335 H347 0.929 . S
O336 Tb320 2.326 . S
O336 C324 1.242 . S
O337 Eu321 2.324 . S
O337 C324 1.258 . S
O338 Tb320 2.500 . S
O338 C340 1.273 . S
O339 Tb320 2.473 . S
O339 C340 1.257 . S
C340 O338 1.273 . S
C340 O339 1.257 . S
O341 Eu321 2.326 . S
O341 C329 1.242 . S
O342 Tb320 2.324 . S
O342 C329 1.258 . S
O343 Eu321 2.500 . S
O343 C326 1.273 . S
O344 Eu321 2.473 . S
O344 C326 1.257 . S
H345 C331 0.929 . S
H346 C333 0.931 . S
H347 C335 0.929 . S
O348 Tb349 2.292 . S
O348 C351 1.255 . S
Tb349 O348 2.292 . S
Tb349 O365 2.326 . S
Tb349 O367 2.500 . S
Tb349 O368 2.473 . S
Tb349 O371 2.324 . S
Eu350 O354 2.292 . S
Eu350 C355 2.852 . S
Eu350 O366 2.324 . S
Eu350 O370 2.326 . S
Eu350 O372 2.500 . S
Eu350 O373 2.473 . S
C351 O348 1.255 . S
C351 O352 1.247 . S
O352 C351 1.247 . S
C353 O365 1.242 . S
C353 O366 1.258 . S
O354 Eu350 2.292 . S
O354 C356 1.255 1_545 S
C355 Eu350 2.852 . S
C355 C359 1.503 . S
C355 O372 1.273 . S
C355 O373 1.257 . S
C356 O354 1.255 1_565 S
C356 O357 1.247 1_565 S
O357 C356 1.247 1_545 S
C358 O370 1.242 . S
C358 O371 1.258 . S
C359 C355 1.503 . S
C359 C360 1.379 . S
C359 C364 1.392 . S
C360 C359 1.379 . S
C360 C361 1.404 . S
C360 H374 0.929 . S
C361 C360 1.404 . S
C361 C362 1.389 . S
C362 C361 1.389 . S
C362 C363 1.399 . S
C362 H375 0.931 . S
C363 C362 1.399 . S
C363 C364 1.390 . S
C364 C359 1.392 . S
C364 C363 1.390 . S
C364 H376 0.929 . S
O365 Tb349 2.326 . S
O365 C353 1.242 . S
O366 Eu350 2.324 . S
O366 C353 1.258 . S
O367 Tb349 2.500 . S
O367 C369 1.273 . S
O368 Tb349 2.473 . S
O368 C369 1.257 . S
C369 O367 1.273 . S
C369 O368 1.257 . S
O370 Eu350 2.326 . S
O370 C358 1.242 . S
O371 Tb349 2.324 . S
O371 C358 1.258 . S
O372 Eu350 2.500 . S
O372 C355 1.273 . S
O373 Eu350 2.473 . S
O373 C355 1.257 . S
H374 C360 0.929 . S
H375 C362 0.931 . S
H376 C364 0.929 . S
O377 Tb378 2.292 . S
O377 C380 1.255 . S
Tb378 O377 2.292 . S
Tb378 O394 2.326 . S
Tb378 O396 2.500 . S
Tb378 O397 2.473 . S
Tb378 O400 2.324 . S
Eu379 O383 2.292 . S
Eu379 C384 2.852 . S
Eu379 O395 2.324 . S
Eu379 O399 2.326 . S
Eu379 O401 2.500 . S
Eu379 O402 2.473 . S
C380 O377 1.255 . S
C380 O381 1.247 . S
O381 C380 1.247 . S
C382 O394 1.242 . S
C382 O395 1.258 . S
O383 Eu379 2.292 . S
O383 C385 1.255 . S
C384 Eu379 2.852 . S
C384 C388 1.503 . S
C384 O401 1.273 . S
C384 O402 1.257 . S
C385 O383 1.255 . S
C385 O386 1.247 . S
O386 C385 1.247 . S
C387 O399 1.242 . S
C387 O400 1.258 . S
C388 C384 1.503 . S
C388 C389 1.379 . S
C388 C393 1.392 . S
C389 C388 1.379 . S
C389 C390 1.404 . S
C389 H403 0.929 . S
C390 C389 1.404 . S
C390 C391 1.389 . S
C391 C390 1.389 . S
C391 C392 1.399 . S
C391 H404 0.931 . S
C392 C391 1.399 . S
C392 C393 1.390 . S
C393 C388 1.392 . S
C393 C392 1.390 . S
C393 H405 0.929 . S
O394 Tb378 2.326 . S
O394 C382 1.242 . S
O395 Eu379 2.324 . S
O395 C382 1.258 . S
O396 Tb378 2.500 . S
O396 C398 1.273 . S
O397 Tb378 2.473 . S
O397 C398 1.257 . S
C398 O396 1.273 . S
C398 O397 1.257 . S
O399 Eu379 2.326 . S
O399 C387 1.242 . S
O400 Tb378 2.324 . S
O400 C387 1.258 . S
O401 Eu379 2.500 . S
O401 C384 1.273 . S
O402 Eu379 2.473 . S
O402 C384 1.257 . S
H403 C389 0.929 . S
H404 C391 0.931 . S
H405 C393 0.929 . S
O406 Tb407 2.292 . S
O406 C409 1.255 . S
Tb407 O406 2.292 . S
Tb407 O423 2.326 . S
Tb407 O425 2.500 . S
Tb407 O426 2.473 . S
Tb407 O429 2.324 . S
Eu408 O412 2.292 . S
Eu408 C413 2.852 . S
Eu408 O424 2.324 . S
Eu408 O428 2.326 . S
Eu408 O430 2.500 . S
Eu408 O431 2.473 . S
C409 O406 1.255 . S
C409 O410 1.247 . S
O410 C409 1.247 . S
C411 O423 1.242 . S
C411 O424 1.258 . S
O412 Eu408 2.292 . S
O412 C414 1.255 . S
C413 Eu408 2.852 . S
C413 C417 1.503 . S
C413 O430 1.273 . S
C413 O431 1.257 . S
C414 O412 1.255 . S
C414 O415 1.247 . S
O415 C414 1.247 . S
C416 O428 1.242 . S
C416 O429 1.258 . S
C417 C413 1.503 . S
C417 C418 1.379 . S
C417 C422 1.392 . S
C418 C417 1.379 . S
C418 C419 1.404 . S
C418 H432 0.929 . S
C419 C418 1.404 . S
C419 C420 1.389 . S
C420 C419 1.389 . S
C420 C421 1.399 . S
C420 H433 0.931 . S
C421 C420 1.399 . S
C421 C422 1.390 . S
C422 C417 1.392 . S
C422 C421 1.390 . S
C422 H434 0.929 . S
O423 Tb407 2.326 . S
O423 C411 1.242 . S
O424 Eu408 2.324 . S
O424 C411 1.258 . S
O425 Tb407 2.500 . S
O425 C427 1.273 . S
O426 Tb407 2.473 . S
O426 C427 1.257 . S
C427 O425 1.273 . S
C427 O426 1.257 . S
O428 Eu408 2.326 . S
O428 C416 1.242 . S
O429 Tb407 2.324 . S
O429 C416 1.258 . S
O430 Eu408 2.500 . S
O430 C413 1.273 . S
O431 Eu408 2.473 . S
O431 C413 1.257 . S
H432 C418 0.929 . S
H433 C420 0.931 . S
H434 C422 0.929 . S
O435 Tb436 2.292 . S
O435 C438 1.255 . S
Tb436 O435 2.292 . S
Tb436 O452 2.326 . S
Tb436 O454 2.500 . S
Tb436 O455 2.473 . S
Tb436 O458 2.324 . S
Eu437 O441 2.292 . S
Eu437 C442 2.852 . S
Eu437 O453 2.324 . S
Eu437 O457 2.326 . S
Eu437 O459 2.500 . S
Eu437 O460 2.473 . S
C438 O435 1.255 . S
C438 O439 1.247 . S
O439 C438 1.247 . S
C440 O452 1.242 . S
C440 O453 1.258 . S
O441 Eu437 2.292 . S
O441 C443 1.255 1_545 S
C442 Eu437 2.852 . S
C442 C446 1.503 . S
C442 O459 1.273 . S
C442 O460 1.257 . S
C443 O441 1.255 1_565 S
C443 O444 1.247 1_565 S
O444 C443 1.247 1_545 S
C445 O457 1.242 . S
C445 O458 1.258 . S
C446 C442 1.503 . S
C446 C447 1.379 . S
C446 C451 1.392 . S
C447 C446 1.379 . S
C447 C448 1.404 . S
C447 H461 0.929 . S
C448 C447 1.404 . S
C448 C449 1.389 . S
C449 C448 1.389 . S
C449 C450 1.399 . S
C449 H462 0.931 . S
C450 C449 1.399 . S
C450 C451 1.390 . S
C451 C446 1.392 . S
C451 C450 1.390 . S
C451 H463 0.929 . S
O452 Tb436 2.326 . S
O452 C440 1.242 . S
O453 Eu437 2.324 . S
O453 C440 1.258 . S
O454 Tb436 2.500 . S
O454 C456 1.273 . S
O455 Tb436 2.473 . S
O455 C456 1.257 . S
C456 O454 1.273 . S
C456 O455 1.257 . S
O457 Eu437 2.326 . S
O457 C445 1.242 . S
O458 Tb436 2.324 . S
O458 C445 1.258 . S
O459 Eu437 2.500 . S
O459 C442 1.273 . S
O460 Eu437 2.473 . S
O460 C442 1.257 . S
H461 C447 0.929 . S
H462 C449 0.931 . S
H463 C451 0.929 . S
O464 Tb465 2.292 . S
O464 C467 1.255 . S
Tb465 O464 2.292 . S
Tb465 O481 2.326 . S
Tb465 O483 2.500 . S
Tb465 O484 2.473 . S
Tb465 O487 2.324 . S
Eu466 O470 2.292 . S
Eu466 C471 2.852 . S
Eu466 O482 2.324 . S
Eu466 O486 2.326 . S
Eu466 O488 2.500 . S
Eu466 O489 2.473 . S
C467 O464 1.255 . S
C467 O468 1.247 . S
O468 C467 1.247 . S
C469 O481 1.242 . S
C469 O482 1.258 . S
O470 Eu466 2.292 . S
O470 C472 1.255 . S
C471 Eu466 2.852 . S
C471 C475 1.503 . S
C471 O488 1.273 . S
C471 O489 1.257 . S
C472 O470 1.255 . S
C472 O473 1.247 . S
O473 C472 1.247 . S
C474 O486 1.242 . S
C474 O487 1.258 . S
C475 C471 1.503 . S
C475 C476 1.379 . S
C475 C480 1.392 . S
C476 C475 1.379 . S
C476 C477 1.404 . S
C476 H490 0.929 . S
C477 C476 1.404 . S
C477 C478 1.389 . S
C478 C477 1.389 . S
C478 C479 1.399 . S
C478 H491 0.931 . S
C479 C478 1.399 . S
C479 C480 1.390 . S
C480 C475 1.392 . S
C480 C479 1.390 . S
C480 H492 0.929 . S
O481 Tb465 2.326 . S
O481 C469 1.242 . S
O482 Eu466 2.324 . S
O482 C469 1.258 . S
O483 Tb465 2.500 . S
O483 C485 1.273 . S
O484 Tb465 2.473 . S
O484 C485 1.257 . S
C485 O483 1.273 . S
C485 O484 1.257 . S
O486 Eu466 2.326 . S
O486 C474 1.242 . S
O487 Tb465 2.324 . S
O487 C474 1.258 . S
O488 Eu466 2.500 . S
O488 C471 1.273 . S
O489 Eu466 2.473 . S
O489 C471 1.257 . S
H490 C476 0.929 . S
H491 C478 0.931 . S
H492 C480 0.929 . S
O493 Tb494 2.292 . S
O493 C496 1.255 1_565 S
Tb494 O493 2.292 . S
Tb494 O510 2.326 . S
Tb494 O512 2.500 . S
Tb494 O513 2.473 . S
Tb494 O516 2.324 . S
Eu495 O499 2.292 . S
Eu495 C500 2.852 . S
Eu495 O511 2.324 . S
Eu495 O515 2.326 . S
Eu495 O517 2.500 . S
Eu495 O518 2.473 . S
C496 O493 1.255 1_545 S
C496 O497 1.247 . S
O497 C496 1.247 . S
C498 O510 1.242 . S
C498 O511 1.258 . S
O499 Eu495 2.292 . S
O499 C501 1.255 . S
C500 Eu495 2.852 . S
C500 C504 1.503 . S
C500 O517 1.273 . S
C500 O518 1.257 . S
C501 O499 1.255 . S
C501 O502 1.247 . S
O502 C501 1.247 . S
C503 O515 1.242 . S
C503 O516 1.258 . S
C504 C500 1.503 . S
C504 C505 1.379 . S
C504 C509 1.392 . S
C505 C504 1.379 . S
C505 C506 1.404 . S
C505 H519 0.929 . S
C506 C505 1.404 . S
C506 C507 1.389 . S
C507 C506 1.389 . S
C507 C508 1.399 . S
C507 H520 0.931 . S
C508 C507 1.399 . S
C508 C509 1.390 . S
C509 C504 1.392 . S
C509 C508 1.390 . S
C509 H521 0.929 . S
O510 Tb494 2.326 . S
O510 C498 1.242 . S
O511 Eu495 2.324 . S
O511 C498 1.258 . S
O512 Tb494 2.500 . S
O512 C514 1.273 . S
O513 Tb494 2.473 . S
O513 C514 1.257 . S
C514 O512 1.273 . S
C514 O513 1.257 . S
O515 Eu495 2.326 . S
O515 C503 1.242 . S
O516 Tb494 2.324 . S
O516 C503 1.258 . S
O517 Eu495 2.500 . S
O517 C500 1.273 . S
O518 Eu495 2.473 . S
O518 C500 1.257 . S
H519 C505 0.929 . S
H520 C507 0.931 . S
H521 C509 0.929 . S
O522 Tb523 2.292 . S
O522 C525 1.255 1_565 S
Tb523 O522 2.292 . S
Tb523 O539 2.326 . S
Tb523 O541 2.500 . S
Tb523 O542 2.473 . S
Tb523 O545 2.324 . S
Eu524 O528 2.292 . S
Eu524 C529 2.852 . S
Eu524 O540 2.324 . S
Eu524 O544 2.326 . S
Eu524 O546 2.500 . S
Eu524 O547 2.473 . S
C525 O522 1.255 1_545 S
C525 O526 1.247 . S
O526 C525 1.247 . S
C527 O539 1.242 . S
C527 O540 1.258 . S
O528 Eu524 2.292 . S
O528 C530 1.255 . S
C529 Eu524 2.852 . S
C529 C533 1.503 . S
C529 O546 1.273 . S
C529 O547 1.257 . S
C530 O528 1.255 . S
C530 O531 1.247 . S
O531 C530 1.247 . S
C532 O544 1.242 . S
C532 O545 1.258 . S
C533 C529 1.503 . S
C533 C534 1.379 . S
C533 C538 1.392 . S
C534 C533 1.379 . S
C534 C535 1.404 . S
C534 H548 0.929 . S
C535 C534 1.404 . S
C535 C536 1.389 . S
C536 C535 1.389 . S
C536 C537 1.399 . S
C536 H549 0.931 . S
C537 C536 1.399 . S
C537 C538 1.390 . S
C538 C533 1.392 . S
C538 C537 1.390 . S
C538 H550 0.929 . S
O539 Tb523 2.326 . S
O539 C527 1.242 . S
O540 Eu524 2.324 . S
O540 C527 1.258 . S
O541 Tb523 2.500 . S
O541 C543 1.273 . S
O542 Tb523 2.473 . S
O542 C543 1.257 . S
C543 O541 1.273 . S
C543 O542 1.257 . S
O544 Eu524 2.326 . S
O544 C532 1.242 . S
O545 Tb523 2.324 . S
O545 C532 1.258 . S
O546 Eu524 2.500 . S
O546 C529 1.273 . S
O547 Eu524 2.473 . S
O547 C529 1.257 . S
H548 C534 0.929 . S
H549 C536 0.931 . S
H550 C538 0.929 . S
O551 Tb552 2.292 . S
O551 C554 1.255 . S
Tb552 O551 2.292 . S
Tb552 O568 2.326 . S
Tb552 O570 2.500 . S
Tb552 O571 2.473 . S
Tb552 O574 2.324 . S
Eu553 O557 2.292 . S
Eu553 C558 2.852 . S
Eu553 O569 2.324 . S
Eu553 O573 2.326 . S
Eu553 O575 2.500 . S
Eu553 O576 2.473 . S
C554 O551 1.255 . S
C554 O555 1.247 . S
O555 C554 1.247 . S
C556 O568 1.242 . S
C556 O569 1.258 . S
O557 Eu553 2.292 . S
O557 C559 1.255 . S
C558 Eu553 2.852 . S
C558 C562 1.503 . S
C558 O575 1.273 . S
C558 O576 1.257 . S
C559 O557 1.255 . S
C559 O560 1.247 . S
O560 C559 1.247 . S
C561 O573 1.242 . S
C561 O574 1.258 . S
C562 C558 1.503 . S
C562 C563 1.379 . S
C562 C567 1.392 . S
C563 C562 1.379 . S
C563 C564 1.404 . S
C563 H577 0.929 . S
C564 C563 1.404 . S
C564 C565 1.389 . S
C565 C564 1.389 . S
C565 C566 1.399 . S
C565 H578 0.931 . S
C566 C565 1.399 . S
C566 C567 1.390 . S
C567 C562 1.392 . S
C567 C566 1.390 . S
C567 H579 0.929 . S
O568 Tb552 2.326 . S
O568 C556 1.242 . S
O569 Eu553 2.324 . S
O569 C556 1.258 . S
O570 Tb552 2.500 . S
O570 C572 1.273 . S
O571 Tb552 2.473 . S
O571 C572 1.257 . S
C572 O570 1.273 . S
C572 O571 1.257 . S
O573 Eu553 2.326 . S
O573 C561 1.242 . S
O574 Tb552 2.324 . S
O574 C561 1.258 . S
O575 Eu553 2.500 . S
O575 C558 1.273 . S
O576 Eu553 2.473 . S
O576 C558 1.257 . S
H577 C563 0.929 . S
H578 C565 0.931 . S
H579 C567 0.929 . S
O580 Tb581 2.292 . S
O580 C583 1.255 . S
Tb581 O580 2.292 . S
Tb581 O597 2.326 . S
Tb581 O599 2.500 . S
Tb581 O600 2.473 . S
Tb581 O603 2.324 . S
Eu582 O586 2.292 . S
Eu582 C587 2.852 . S
Eu582 O598 2.324 . S
Eu582 O602 2.326 . S
Eu582 O604 2.500 . S
Eu582 O605 2.473 . S
C583 O580 1.255 . S
C583 O584 1.247 . S
O584 C583 1.247 . S
C585 O597 1.242 . S
C585 O598 1.258 . S
O586 Eu582 2.292 . S
O586 C588 1.255 . S
C587 Eu582 2.852 . S
C587 C591 1.503 . S
C587 O604 1.273 . S
C587 O605 1.257 . S
C588 O586 1.255 . S
C588 O589 1.247 . S
O589 C588 1.247 . S
C590 O602 1.242 . S
C590 O603 1.258 . S
C591 C587 1.503 . S
C591 C592 1.379 . S
C591 C596 1.392 . S
C592 C591 1.379 . S
C592 C593 1.404 . S
C592 H606 0.929 . S
C593 C592 1.404 . S
C593 C594 1.389 . S
C594 C593 1.389 . S
C594 C595 1.399 . S
C594 H607 0.931 . S
C595 C594 1.399 . S
C595 C596 1.390 . S
C596 C591 1.392 . S
C596 C595 1.390 . S
C596 H608 0.929 . S
O597 Tb581 2.326 . S
O597 C585 1.242 . S
O598 Eu582 2.324 . S
O598 C585 1.258 . S
O599 Tb581 2.500 . S
O599 C601 1.273 . S
O600 Tb581 2.473 . S
O600 C601 1.257 . S
C601 O599 1.273 . S
C601 O600 1.257 . S
O602 Eu582 2.326 . S
O602 C590 1.242 . S
O603 Tb581 2.324 . S
O603 C590 1.258 . S
O604 Eu582 2.500 . S
O604 C587 1.273 . S
O605 Eu582 2.473 . S
O605 C587 1.257 . S
H606 C592 0.929 . S
H607 C594 0.931 . S
H608 C596 0.929 . S
O609 Tb610 2.292 . S
O609 C612 1.255 1_545 S
Tb610 O609 2.292 . S
Tb610 O626 2.326 . S
Tb610 O628 2.500 . S
Tb610 O629 2.473 . S
Tb610 O632 2.324 . S
Eu611 O615 2.292 . S
Eu611 C616 2.852 . S
Eu611 O627 2.324 . S
Eu611 O631 2.326 . S
Eu611 O633 2.500 . S
Eu611 O634 2.473 . S
C612 O609 1.255 1_565 S
C612 O613 1.247 . S
O613 C612 1.247 . S
C614 O626 1.242 . S
C614 O627 1.258 . S
O615 Eu611 2.292 . S
O615 C617 1.255 . S
C616 Eu611 2.852 . S
C616 C620 1.503 . S
C616 O633 1.273 . S
C616 O634 1.257 . S
C617 O615 1.255 . S
C617 O618 1.247 . S
O618 C617 1.247 . S
C619 O631 1.242 . S
C619 O632 1.258 . S
C620 C616 1.503 . S
C620 C621 1.379 . S
C620 C625 1.392 . S
C621 C620 1.379 . S
C621 C622 1.404 . S
C621 H635 0.929 . S
C622 C621 1.404 . S
C622 C623 1.389 . S
C623 C622 1.389 . S
C623 C624 1.399 . S
C623 H636 0.931 . S
C624 C623 1.399 . S
C624 C625 1.390 . S
C625 C620 1.392 . S
C625 C624 1.390 . S
C625 H637 0.929 . S
O626 Tb610 2.326 . S
O626 C614 1.242 . S
O627 Eu611 2.324 . S
O627 C614 1.258 . S
O628 Tb610 2.500 . S
O628 C630 1.273 . S
O629 Tb610 2.473 . S
O629 C630 1.257 . S
C630 O628 1.273 . S
C630 O629 1.257 . S
O631 Eu611 2.326 . S
O631 C619 1.242 . S
O632 Tb610 2.324 . S
O632 C619 1.258 . S
O633 Eu611 2.500 . S
O633 C616 1.273 . S
O634 Eu611 2.473 . S
O634 C616 1.257 . S
H635 C621 0.929 . S
H636 C623 0.931 . S
H637 C625 0.929 . S
O638 Tb639 2.292 . S
O638 C641 1.255 1_545 S
Tb639 O638 2.292 . S
Tb639 O655 2.326 . S
Tb639 O657 2.500 . S
Tb639 O658 2.473 . S
Tb639 O661 2.324 . S
Eu640 O644 2.292 . S
Eu640 C645 2.852 . S
Eu640 O656 2.324 . S
Eu640 O660 2.326 . S
Eu640 O662 2.500 . S
Eu640 O663 2.473 . S
C641 O638 1.255 1_565 S
C641 O642 1.247 . S
O642 C641 1.247 . S
C643 O655 1.242 . S
C643 O656 1.258 . S
O644 Eu640 2.292 . S
O644 C646 1.255 . S
C645 Eu640 2.852 . S
C645 C649 1.503 . S
C645 O662 1.273 . S
C645 O663 1.257 . S
C646 O644 1.255 . S
C646 O647 1.247 . S
O647 C646 1.247 . S
C648 O660 1.242 . S
C648 O661 1.258 . S
C649 C645 1.503 . S
C649 C650 1.379 . S
C649 C654 1.392 . S
C650 C649 1.379 . S
C650 C651 1.404 . S
C650 H664 0.929 . S
C651 C650 1.404 . S
C651 C652 1.389 . S
C652 C651 1.389 . S
C652 C653 1.399 . S
C652 H665 0.931 . S
C653 C652 1.399 . S
C653 C654 1.390 . S
C654 C649 1.392 . S
C654 C653 1.390 . S
C654 H666 0.929 . S
O655 Tb639 2.326 . S
O655 C643 1.242 . S
O656 Eu640 2.324 . S
O656 C643 1.258 . S
O657 Tb639 2.500 . S
O657 C659 1.273 . S
O658 Tb639 2.473 . S
O658 C659 1.257 . S
C659 O657 1.273 . S
C659 O658 1.257 . S
O660 Eu640 2.326 . S
O660 C648 1.242 . S
O661 Tb639 2.324 . S
O661 C648 1.258 . S
O662 Eu640 2.500 . S
O662 C645 1.273 . S
O663 Eu640 2.473 . S
O663 C645 1.257 . S
H664 C650 0.929 . S
H665 C652 0.931 . S
H666 C654 0.929 . S
O667 Tb668 2.292 . S
O667 C670 1.255 . S
Tb668 O667 2.292 . S
Tb668 O684 2.326 . S
Tb668 O686 2.500 . S
Tb668 O687 2.473 . S
Tb668 O690 2.324 . S
Eu669 O673 2.292 . S
Eu669 C674 2.852 . S
Eu669 O685 2.324 . S
Eu669 O689 2.326 . S
Eu669 O691 2.500 . S
Eu669 O692 2.473 . S
C670 O667 1.255 . S
C670 O671 1.247 . S
O671 C670 1.247 . S
C672 O684 1.242 . S
C672 O685 1.258 . S
O673 Eu669 2.292 . S
O673 C675 1.255 . S
C674 Eu669 2.852 . S
C674 C678 1.503 . S
C674 O691 1.273 . S
C674 O692 1.257 . S
C675 O673 1.255 . S
C675 O676 1.247 . S
O676 C675 1.247 . S
C677 O689 1.242 . S
C677 O690 1.258 . S
C678 C674 1.503 . S
C678 C679 1.379 . S
C678 C683 1.392 . S
C679 C678 1.379 . S
C679 C680 1.404 . S
C679 H693 0.929 . S
C680 C679 1.404 . S
C680 C681 1.389 . S
C681 C680 1.389 . S
C681 C682 1.399 . S
C681 H694 0.931 . S
C682 C681 1.399 . S
C682 C683 1.390 . S
C683 C678 1.392 . S
C683 C682 1.390 . S
C683 H695 0.929 . S
O684 Tb668 2.326 . S
O684 C672 1.242 . S
O685 Eu669 2.324 . S
O685 C672 1.258 . S
O686 Tb668 2.500 . S
O686 C688 1.273 . S
O687 Tb668 2.473 . S
O687 C688 1.257 . S
C688 O686 1.273 . S
C688 O687 1.257 . S
O689 Eu669 2.326 . S
O689 C677 1.242 . S
O690 Tb668 2.324 . S
O690 C677 1.258 . S
O691 Eu669 2.500 . S
O691 C674 1.273 . S
O692 Eu669 2.473 . S
O692 C674 1.257 . S
H693 C679 0.929 . S
H694 C681 0.931 . S
H695 C683 0.929 . S
O696 Tb697 2.292 . S
O696 C699 1.255 . S
Tb697 O696 2.292 . S
Tb697 O713 2.326 . S
Tb697 O715 2.500 . S
Tb697 O716 2.473 . S
Tb697 O719 2.324 . S
Eu698 O702 2.292 . S
Eu698 C703 2.852 . S
Eu698 O714 2.324 . S
Eu698 O718 2.326 . S
Eu698 O720 2.500 . S
Eu698 O721 2.473 . S
C699 O696 1.255 . S
C699 O700 1.247 . S
O700 C699 1.247 . S
C701 O713 1.242 . S
C701 O714 1.258 . S
O702 Eu698 2.292 . S
O702 C704 1.255 1_565 S
C703 Eu698 2.852 . S
C703 C707 1.503 . S
C703 O720 1.273 . S
C703 O721 1.257 . S
C704 O702 1.255 1_545 S
C704 O705 1.247 1_545 S
O705 C704 1.247 1_565 S
C706 O718 1.242 . S
C706 O719 1.258 . S
C707 C703 1.503 . S
C707 C708 1.379 1_554 S
C707 C712 1.392 . S
C708 C707 1.379 1_556 S
C708 C709 1.404 . S
C708 H722 0.918 1_556 S
C709 C708 1.404 . S
C709 C710 1.389 . S
C710 C709 1.389 . S
C710 C711 1.399 . S
C710 H723 0.931 . S
C711 C710 1.399 . S
C711 C712 1.390 1_556 S
C712 C707 1.392 . S
C712 C711 1.390 1_554 S
C712 H724 0.929 . S
O713 Tb697 2.326 . S
O713 C701 1.242 . S
O714 Eu698 2.324 . S
O714 C701 1.258 . S
O715 Tb697 2.500 . S
O715 C717 1.273 . S
O716 Tb697 2.473 . S
O716 C717 1.257 . S
C717 O715 1.273 . S
C717 O716 1.257 . S
O718 Eu698 2.326 . S
O718 C706 1.242 . S
O719 Tb697 2.324 . S
O719 C706 1.258 . S
O720 Eu698 2.500 . S
O720 C703 1.273 . S
O721 Eu698 2.473 . S
O721 C703 1.257 . S
H722 C708 0.918 1_554 S
H723 C710 0.931 . S
H724 C712 0.929 . S
O725 Tb726 2.292 . S
O725 C728 1.255 . S
Tb726 O725 2.292 . S
Tb726 O742 2.326 . S
Tb726 O744 2.500 . S
Tb726 O745 2.473 . S
Tb726 O748 2.324 . S
Eu727 O731 2.292 . S
Eu727 C732 2.852 . S
Eu727 O743 2.324 . S
Eu727 O747 2.326 . S
Eu727 O749 2.500 . S
Eu727 O750 2.473 . S
C728 O725 1.255 . S
C728 O729 1.247 . S
O729 C728 1.247 . S
C730 O742 1.242 . S
C730 O743 1.258 . S
O731 Eu727 2.292 . S
O731 C733 1.255 . S
C732 Eu727 2.852 . S
C732 C736 1.503 . S
C732 O749 1.273 . S
C732 O750 1.257 . S
C733 O731 1.255 . S
C733 O734 1.247 . S
O734 C733 1.247 . S
C735 O747 1.242 . S
C735 O748 1.258 . S
C736 C732 1.503 . S
C736 C737 1.379 1_554 S
C736 C741 1.392 . S
C737 C736 1.379 1_556 S
C737 C738 1.404 . S
C737 H751 0.918 1_556 S
C738 C737 1.404 . S
C738 C739 1.389 . S
C739 C738 1.389 . S
C739 C740 1.399 . S
C739 H752 0.931 . S
C740 C739 1.399 . S
C740 C741 1.390 1_556 S
C741 C736 1.392 . S
C741 C740 1.390 1_554 S
C741 H753 0.929 . S
O742 Tb726 2.326 . S
O742 C730 1.242 . S
O743 Eu727 2.324 . S
O743 C730 1.258 . S
O744 Tb726 2.500 . S
O744 C746 1.273 . S
O745 Tb726 2.473 . S
O745 C746 1.257 . S
C746 O744 1.273 . S
C746 O745 1.257 . S
O747 Eu727 2.326 . S
O747 C735 1.242 . S
O748 Tb726 2.324 . S
O748 C735 1.258 . S
O749 Eu727 2.500 . S
O749 C732 1.273 . S
O750 Eu727 2.473 . S
O750 C732 1.257 . S
H751 C737 0.918 1_554 S
H752 C739 0.931 . S
H753 C741 0.929 . S
O754 Tb755 2.292 . S
O754 C757 1.255 . S
Tb755 O754 2.292 . S
Tb755 O771 2.326 . S
Tb755 O773 2.500 . S
Tb755 O774 2.473 . S
Tb755 O777 2.324 . S
Eu756 O760 2.292 . S
Eu756 C761 2.852 . S
Eu756 O772 2.324 . S
Eu756 O776 2.326 . S
Eu756 O778 2.500 . S
Eu756 O779 2.473 . S
C757 O754 1.255 . S
C757 O758 1.247 . S
O758 C757 1.247 . S
C759 O771 1.242 . S
C759 O772 1.258 . S
O760 Eu756 2.292 . S
O760 C762 1.255 . S
C761 Eu756 2.852 . S
C761 C765 1.503 . S
C761 O778 1.273 . S
C761 O779 1.257 . S
C762 O760 1.255 . S
C762 O763 1.247 . S
O763 C762 1.247 . S
C764 O776 1.242 . S
C764 O777 1.258 . S
C765 C761 1.503 . S
C765 C766 1.379 . S
C765 C770 1.392 . S
C766 C765 1.379 . S
C766 C767 1.404 . S
C766 H780 0.929 . S
C767 C766 1.404 . S
C767 C768 1.389 . S
C768 C767 1.389 . S
C768 C769 1.399 . S
C768 H781 0.931 . S
C769 C768 1.399 . S
C769 C770 1.390 . S
C770 C765 1.392 . S
C770 C769 1.390 . S
C770 H782 0.929 . S
O771 Tb755 2.326 . S
O771 C759 1.242 . S
O772 Eu756 2.324 . S
O772 C759 1.258 . S
O773 Tb755 2.500 . S
O773 C775 1.273 . S
O774 Tb755 2.473 . S
O774 C775 1.257 . S
C775 O773 1.273 . S
C775 O774 1.257 . S
O776 Eu756 2.326 . S
O776 C764 1.242 . S
O777 Tb755 2.324 . S
O777 C764 1.258 . S
O778 Eu756 2.500 . S
O778 C761 1.273 . S
O779 Eu756 2.473 . S
O779 C761 1.257 . S
H780 C766 0.929 . S
H781 C768 0.931 . S
H782 C770 0.929 . S
O783 Tb784 2.292 . S
O783 C786 1.255 . S
Tb784 O783 2.292 . S
Tb784 O800 2.326 . S
Tb784 O802 2.500 . S
Tb784 O803 2.473 . S
Tb784 O806 2.324 . S
Eu785 O789 2.292 . S
Eu785 C790 2.852 . S
Eu785 O801 2.324 . S
Eu785 O805 2.326 . S
Eu785 O807 2.500 . S
Eu785 O808 2.473 . S
C786 O783 1.255 . S
C786 O787 1.247 . S
O787 C786 1.247 . S
C788 O800 1.242 . S
C788 O801 1.258 . S
O789 Eu785 2.292 . S
O789 C791 1.255 1_565 S
C790 Eu785 2.852 . S
C790 C794 1.503 . S
C790 O807 1.273 . S
C790 O808 1.257 . S
C791 O789 1.255 1_545 S
C791 O792 1.247 1_545 S
O792 C791 1.247 1_565 S
C793 O805 1.242 . S
C793 O806 1.258 . S
C794 C790 1.503 . S
C794 C795 1.379 . S
C794 C799 1.392 . S
C795 C794 1.379 . S
C795 C796 1.404 . S
C795 H809 0.929 . S
C796 C795 1.404 . S
C796 C797 1.389 . S
C797 C796 1.389 . S
C797 C798 1.399 . S
C797 H810 0.931 . S
C798 C797 1.399 . S
C798 C799 1.390 . S
C799 C794 1.392 . S
C799 C798 1.390 . S
C799 H811 0.929 . S
O800 Tb784 2.326 . S
O800 C788 1.242 . S
O801 Eu785 2.324 . S
O801 C788 1.258 . S
O802 Tb784 2.500 . S
O802 C804 1.273 . S
O803 Tb784 2.473 . S
O803 C804 1.257 . S
C804 O802 1.273 . S
C804 O803 1.257 . S
O805 Eu785 2.326 . S
O805 C793 1.242 . S
O806 Tb784 2.324 . S
O806 C793 1.258 . S
O807 Eu785 2.500 . S
O807 C790 1.273 . S
O808 Eu785 2.473 . S
O808 C790 1.257 . S
H809 C795 0.929 . S
H810 C797 0.931 . S
H811 C799 0.929 . S
O812 Tb813 2.292 . S
O812 C815 1.255 . S
Tb813 O812 2.292 . S
Tb813 O829 2.326 . S
Tb813 O831 2.500 . S
Tb813 O832 2.473 . S
Tb813 O835 2.324 . S
Eu814 O818 2.292 . S
Eu814 C819 2.852 . S
Eu814 O830 2.324 . S
Eu814 O834 2.326 . S
Eu814 O836 2.500 . S
Eu814 O837 2.473 . S
C815 O812 1.255 . S
C815 O816 1.247 . S
O816 C815 1.247 . S
C817 O829 1.242 . S
C817 O830 1.258 . S
O818 Eu814 2.292 . S
O818 C820 1.255 1_545 S
C819 Eu814 2.852 . S
C819 C823 1.503 . S
C819 O836 1.273 . S
C819 O837 1.257 . S
C820 O818 1.255 1_565 S
C820 O821 1.247 1_565 S
O821 C820 1.247 1_545 S
C822 O834 1.242 . S
C822 O835 1.258 . S
C823 C819 1.503 . S
C823 C824 1.379 1_556 S
C823 C828 1.392 . S
C824 C823 1.379 1_554 S
C824 C825 1.404 . S
C824 H838 0.918 1_554 S
C825 C824 1.404 . S
C825 C826 1.389 . S
C826 C825 1.389 . S
C826 C827 1.399 . S
C826 H839 0.931 . S
C827 C826 1.399 . S
C827 C828 1.390 1_554 S
C828 C823 1.392 . S
C828 C827 1.390 1_556 S
C828 H840 0.929 . S
O829 Tb813 2.326 . S
O829 C817 1.242 . S
O830 Eu814 2.324 . S
O830 C817 1.258 . S
O831 Tb813 2.500 . S
O831 C833 1.273 . S
O832 Tb813 2.473 . S
O832 C833 1.257 . S
C833 O831 1.273 . S
C833 O832 1.257 . S
O834 Eu814 2.326 . S
O834 C822 1.242 . S
O835 Tb813 2.324 . S
O835 C822 1.258 . S
O836 Eu814 2.500 . S
O836 C819 1.273 . S
O837 Eu814 2.473 . S
O837 C819 1.257 . S
H838 C824 0.918 1_556 S
H839 C826 0.931 . S
H840 C828 0.929 . S
O841 Tb842 2.292 . S
O841 C844 1.255 . S
Tb842 O841 2.292 . S
Tb842 O858 2.326 . S
Tb842 O860 2.500 . S
Tb842 O861 2.473 . S
Tb842 O864 2.324 . S
Eu843 O847 2.292 . S
Eu843 C848 2.852 . S
Eu843 O859 2.324 . S
Eu843 O863 2.326 . S
Eu843 O865 2.500 . S
Eu843 O866 2.473 . S
C844 O841 1.255 . S
C844 O845 1.247 . S
O845 C844 1.247 . S
C846 O858 1.242 . S
C846 O859 1.258 . S
O847 Eu843 2.292 . S
O847 C849 1.255 . S
C848 Eu843 2.852 . S
C848 C852 1.503 . S
C848 O865 1.273 . S
C848 O866 1.257 . S
C849 O847 1.255 . S
C849 O850 1.247 . S
O850 C849 1.247 . S
C851 O863 1.242 . S
C851 O864 1.258 . S
C852 C848 1.503 . S
C852 C853 1.379 1_556 S
C852 C857 1.392 . S
C853 C852 1.379 1_554 S
C853 C854 1.404 . S
C853 H867 0.918 1_554 S
C854 C853 1.404 . S
C854 C855 1.389 . S
C855 C854 1.389 . S
C855 C856 1.399 . S
C855 H868 0.931 . S
C856 C855 1.399 . S
C856 C857 1.390 1_554 S
C857 C852 1.392 . S
C857 C856 1.390 1_556 S
C857 H869 0.929 . S
O858 Tb842 2.326 . S
O858 C846 1.242 . S
O859 Eu843 2.324 . S
O859 C846 1.258 . S
O860 Tb842 2.500 . S
O860 C862 1.273 . S
O861 Tb842 2.473 . S
O861 C862 1.257 . S
C862 O860 1.273 . S
C862 O861 1.257 . S
O863 Eu843 2.326 . S
O863 C851 1.242 . S
O864 Tb842 2.324 . S
O864 C851 1.258 . S
O865 Eu843 2.500 . S
O865 C848 1.273 . S
O866 Eu843 2.473 . S
O866 C848 1.257 . S
H867 C853 0.918 1_556 S
H868 C855 0.931 . S
H869 C857 0.929 . S
O870 Tb871 2.292 . S
O870 C873 1.255 . S
Tb871 O870 2.292 . S
Tb871 O887 2.326 . S
Tb871 O889 2.500 . S
Tb871 O890 2.473 . S
Tb871 O893 2.324 . S
Eu872 O876 2.292 . S
Eu872 C877 2.852 . S
Eu872 O888 2.324 . S
Eu872 O892 2.326 . S
Eu872 O894 2.500 . S
Eu872 O895 2.473 . S
C873 O870 1.255 . S
C873 O874 1.247 . S
O874 C873 1.247 . S
C875 O887 1.242 . S
C875 O888 1.258 . S
O876 Eu872 2.292 . S
O876 C878 1.255 . S
C877 Eu872 2.852 . S
C877 C881 1.503 . S
C877 O894 1.273 . S
C877 O895 1.257 . S
C878 O876 1.255 . S
C878 O879 1.247 . S
O879 C878 1.247 . S
C880 O892 1.242 . S
C880 O893 1.258 . S
C881 C877 1.503 . S
C881 C882 1.379 . S
C881 C886 1.392 . S
C882 C881 1.379 . S
C882 C883 1.404 . S
C882 H896 0.929 . S
C883 C882 1.404 . S
C883 C884 1.389 . S
C884 C883 1.389 . S
C884 C885 1.399 . S
C884 H897 0.931 . S
C885 C884 1.399 . S
C885 C886 1.390 . S
C886 C881 1.392 . S
C886 C885 1.390 . S
C886 H898 0.929 . S
O887 Tb871 2.326 . S
O887 C875 1.242 . S
O888 Eu872 2.324 . S
O888 C875 1.258 . S
O889 Tb871 2.500 . S
O889 C891 1.273 . S
O890 Tb871 2.473 . S
O890 C891 1.257 . S
C891 O889 1.273 . S
C891 O890 1.257 . S
O892 Eu872 2.326 . S
O892 C880 1.242 . S
O893 Tb871 2.324 . S
O893 C880 1.258 . S
O894 Eu872 2.500 . S
O894 C877 1.273 . S
O895 Eu872 2.473 . S
O895 C877 1.257 . S
H896 C882 0.929 . S
H897 C884 0.931 . S
H898 C886 0.929 . S
O899 Tb900 2.292 . S
O899 C902 1.255 . S
Tb900 O899 2.292 . S
Tb900 O916 2.326 . S
Tb900 O918 2.500 . S
Tb900 O919 2.473 . S
Tb900 O922 2.324 . S
Eu901 O905 2.292 . S
Eu901 C906 2.852 . S
Eu901 O917 2.324 . S
Eu901 O921 2.326 . S
Eu901 O923 2.500 . S
Eu901 O924 2.473 . S
C902 O899 1.255 . S
C902 O903 1.247 . S
O903 C902 1.247 . S
C904 O916 1.242 . S
C904 O917 1.258 . S
O905 Eu901 2.292 . S
O905 C907 1.255 1_545 S
C906 Eu901 2.852 . S
C906 C910 1.503 . S
C906 O923 1.273 . S
C906 O924 1.257 . S
C907 O905 1.255 1_565 S
C907 O908 1.247 1_565 S
O908 C907 1.247 1_545 S
C909 O921 1.242 . S
C909 O922 1.258 . S
C910 C906 1.503 . S
C910 C911 1.379 . S
C910 C915 1.392 . S
C911 C910 1.379 . S
C911 C912 1.404 . S
C911 H925 0.929 . S
C912 C911 1.404 . S
C912 C913 1.389 . S
C913 C912 1.389 . S
C913 C914 1.399 . S
C913 H926 0.931 . S
C914 C913 1.399 . S
C914 C915 1.390 . S
C915 C910 1.392 . S
C915 C914 1.390 . S
C915 H927 0.929 . S
O916 Tb900 2.326 . S
O916 C904 1.242 . S
O917 Eu901 2.324 . S
O917 C904 1.258 . S
O918 Tb900 2.500 . S
O918 C920 1.273 . S
O919 Tb900 2.473 . S
O919 C920 1.257 . S
C920 O918 1.273 . S
C920 O919 1.257 . S
O921 Eu901 2.326 . S
O921 C909 1.242 . S
O922 Tb900 2.324 . S
O922 C909 1.258 . S
O923 Eu901 2.500 . S
O923 C906 1.273 . S
O924 Eu901 2.473 . S
O924 C906 1.257 . S
H925 C911 0.929 . S
H926 C913 0.931 . S
H927 C915 0.929 . S
H928 C940 0.930 . S
H929 C942 0.930 . S
H930 C943 0.930 . S
H931 C947 0.959 . S
H932 C947 0.959 . S
H933 C947 0.961 . S
H934 C948 0.960 . S
H935 C948 0.961 . S
H936 C948 0.959 . S
H937 C951 0.929 . S
H938 C952 0.931 . S
H939 C954 0.930 . S
C940 H928 0.930 . S
C940 C941 1.399 . S
C940 C945 1.399 . S
C941 C940 1.399 . S
C941 C942 1.376 . S
C942 H929 0.930 . S
C942 C941 1.376 . S
C942 C943 1.388 . S
C943 H930 0.930 . S
C943 C942 1.388 . S
C943 C944 1.390 . S
C944 C943 1.390 . S
C944 C945 1.394 . S
C944 C950 1.465 . S
C945 C940 1.399 . S
C945 C944 1.394 . S
C945 C946 1.516 . S
C946 C945 1.516 . S
C946 C947 1.502 . S
C946 C948 1.561 . S
C946 C949 1.526 . S
C947 H931 0.959 . S
C947 H932 0.959 . S
C947 H933 0.961 . S
C947 C946 1.502 . S
C948 H934 0.960 . S
C948 H935 0.961 . S
C948 H936 0.959 . S
C948 C946 1.561 . S
C949 C946 1.526 . S
C949 C950 1.396 . S
C949 C954 1.390 . S
C950 C944 1.465 . S
C950 C949 1.396 . S
C950 C951 1.399 . S
C951 H937 0.929 . S
C951 C950 1.399 . S
C951 C952 1.385 . S
C952 H938 0.931 . S
C952 C951 1.385 . S
C952 C953 1.389 . S
C953 C952 1.389 . S
C953 C954 1.387 . S
C954 H939 0.930 . S
C954 C949 1.390 . S
C954 C953 1.387 . S
H955 C967 0.930 . S
H956 C969 0.930 . S
H957 C970 0.930 . S
H958 C974 0.959 . S
H959 C974 0.959 . S
H960 C974 0.961 . S
H961 C975 0.960 . S
H962 C975 0.961 . S
H963 C975 0.959 . S
H964 C978 0.929 . S
H965 C979 0.931 . S
H966 C981 0.930 . S
C967 H955 0.930 . S
C967 C968 1.399 . S
C967 C972 1.399 . S
C968 C967 1.399 . S
C968 C969 1.376 . S
C969 H956 0.930 . S
C969 C968 1.376 . S
C969 C970 1.388 . S
C970 H957 0.930 . S
C970 C969 1.388 . S
C970 C971 1.390 . S
C971 C970 1.390 . S
C971 C972 1.394 . S
C971 C977 1.465 . S
C972 C967 1.399 . S
C972 C971 1.394 . S
C972 C973 1.516 . S
C973 C972 1.516 . S
C973 C974 1.502 . S
C973 C975 1.561 . S
C973 C976 1.526 . S
C974 H958 0.959 . S
C974 H959 0.959 . S
C974 H960 0.961 . S
C974 C973 1.502 . S
C975 H961 0.960 . S
C975 H962 0.961 . S
C975 H963 0.959 . S
C975 C973 1.561 . S
C976 C973 1.526 . S
C976 C977 1.396 . S
C976 C981 1.390 . S
C977 C971 1.465 . S
C977 C976 1.396 . S
C977 C978 1.399 . S
C978 H964 0.929 . S
C978 C977 1.399 . S
C978 C979 1.385 . S
C979 H965 0.931 . S
C979 C978 1.385 . S
C979 C980 1.389 . S
C980 C979 1.389 . S
C980 C981 1.387 . S
C981 H966 0.930 . S
C981 C976 1.390 . S
C981 C980 1.387 . S
H982 C994 0.930 . S
H983 C996 0.930 . S
H984 C997 0.930 . S
H985 C1001 0.959 . S
H986 C1001 0.959 . S
H987 C1001 0.961 . S
H988 C1002 0.960 . S
H989 C1002 0.961 . S
H990 C1002 0.959 . S
H991 C1005 0.929 . S
H992 C1006 0.931 . S
H993 C1008 0.930 . S
C994 H982 0.930 . S
C994 C995 1.399 . S
C994 C999 1.399 . S
C995 C994 1.399 . S
C995 C996 1.376 . S
C996 H983 0.930 . S
C996 C995 1.376 . S
C996 C997 1.388 . S
C997 H984 0.930 . S
C997 C996 1.388 . S
C997 C998 1.390 . S
C998 C997 1.390 . S
C998 C999 1.394 . S
C998 C1004 1.465 . S
C999 C994 1.399 . S
C999 C998 1.394 . S
C999 C1000 1.516 . S
C1000 C999 1.516 . S
C1000 C1001 1.502 . S
C1000 C1002 1.561 . S
C1000 C1003 1.526 . S
C1001 H985 0.959 . S
C1001 H986 0.959 . S
C1001 H987 0.961 . S
C1001 C1000 1.502 . S
C1002 H988 0.960 . S
C1002 H989 0.961 . S
C1002 H990 0.959 . S
C1002 C1000 1.561 . S
C1003 C1000 1.526 . S
C1003 C1004 1.396 . S
C1003 C1008 1.390 . S
C1004 C998 1.465 . S
C1004 C1003 1.396 . S
C1004 C1005 1.399 . S
C1005 H991 0.929 . S
C1005 C1004 1.399 . S
C1005 C1006 1.385 . S
C1006 H992 0.931 . S
C1006 C1005 1.385 . S
C1006 C1007 1.389 . S
C1007 C1006 1.389 . S
C1007 C1008 1.387 . S
C1008 H993 0.930 . S
C1008 C1003 1.390 . S
C1008 C1007 1.387 . S
H1009 C1021 0.930 . S
H1010 C1023 0.930 . S
H1011 C1024 0.930 . S
H1012 C1028 0.959 . S
H1013 C1028 0.959 . S
H1014 C1028 0.961 . S
H1015 C1029 0.960 . S
H1016 C1029 0.961 . S
H1017 C1029 0.959 . S
H1018 C1032 0.929 . S
H1019 C1033 0.931 . S
H1020 C1035 0.930 . S
C1021 H1009 0.930 . S
C1021 C1022 1.399 . S
C1021 C1026 1.399 . S
C1022 C1021 1.399 . S
C1022 C1023 1.376 . S
C1023 H1010 0.930 . S
C1023 C1022 1.376 . S
C1023 C1024 1.388 . S
C1024 H1011 0.930 . S
C1024 C1023 1.388 . S
C1024 C1025 1.390 . S
C1025 C1024 1.390 . S
C1025 C1026 1.394 . S
C1025 C1031 1.465 . S
C1026 C1021 1.399 . S
C1026 C1025 1.394 . S
C1026 C1027 1.516 . S
C1027 C1026 1.516 . S
C1027 C1028 1.502 . S
C1027 C1029 1.561 . S
C1027 C1030 1.526 . S
C1028 H1012 0.959 . S
C1028 H1013 0.959 . S
C1028 H1014 0.961 . S
C1028 C1027 1.502 . S
C1029 H1015 0.960 . S
C1029 H1016 0.961 . S
C1029 H1017 0.959 . S
C1029 C1027 1.561 . S
C1030 C1027 1.526 . S
C1030 C1031 1.396 . S
C1030 C1035 1.390 . S
C1031 C1025 1.465 . S
C1031 C1030 1.396 . S
C1031 C1032 1.399 . S
C1032 H1018 0.929 . S
C1032 C1031 1.399 . S
C1032 C1033 1.385 . S
C1033 H1019 0.931 . S
C1033 C1032 1.385 . S
C1033 C1034 1.389 . S
C1034 C1033 1.389 . S
C1034 C1035 1.387 . S
C1035 H1020 0.930 . S
C1035 C1030 1.390 . S
C1035 C1034 1.387 . S
H1036 C1048 0.930 . S
H1037 C1050 0.930 . S
H1038 C1051 0.930 . S
H1039 C1055 0.959 . S
H1040 C1055 0.959 . S
H1041 C1055 0.961 . S
H1042 C1056 0.960 . S
H1043 C1056 0.961 . S
H1044 C1056 0.959 . S
H1045 C1059 0.929 . S
H1046 C1060 0.931 . S
H1047 C1062 0.930 . S
C1048 H1036 0.930 . S
C1048 C1049 1.399 . S
C1048 C1053 1.399 . S
C1049 C1048 1.399 . S
C1049 C1050 1.376 . S
C1050 H1037 0.930 . S
C1050 C1049 1.376 . S
C1050 C1051 1.388 . S
C1051 H1038 0.930 . S
C1051 C1050 1.388 . S
C1051 C1052 1.390 . S
C1052 C1051 1.390 . S
C1052 C1053 1.394 . S
C1052 C1058 1.465 . S
C1053 C1048 1.399 . S
C1053 C1052 1.394 . S
C1053 C1054 1.516 . S
C1054 C1053 1.516 . S
C1054 C1055 1.502 . S
C1054 C1056 1.561 . S
C1054 C1057 1.526 . S
C1055 H1039 0.959 . S
C1055 H1040 0.959 . S
C1055 H1041 0.961 . S
C1055 C1054 1.502 . S
C1056 H1042 0.960 . S
C1056 H1043 0.961 . S
C1056 H1044 0.959 . S
C1056 C1054 1.561 . S
C1057 C1054 1.526 . S
C1057 C1058 1.396 . S
C1057 C1062 1.390 . S
C1058 C1052 1.465 . S
C1058 C1057 1.396 . S
C1058 C1059 1.399 . S
C1059 H1045 0.929 . S
C1059 C1058 1.399 . S
C1059 C1060 1.385 . S
C1060 H1046 0.931 . S
C1060 C1059 1.385 . S
C1060 C1061 1.389 . S
C1061 C1060 1.389 . S
C1061 C1062 1.387 . S
C1062 H1047 0.930 . S
C1062 C1057 1.390 . S
C1062 C1061 1.387 . S
H1063 C1075 0.930 . S
H1064 C1077 0.930 . S
H1065 C1078 0.930 . S
H1066 C1082 0.959 . S
H1067 C1082 0.959 . S
H1068 C1082 0.961 . S
H1069 C1083 0.960 . S
H1070 C1083 0.961 . S
H1071 C1083 0.959 . S
H1072 C1086 0.929 . S
H1073 C1087 0.931 . S
H1074 C1089 0.930 . S
C1075 H1063 0.930 . S
C1075 C1076 1.399 . S
C1075 C1080 1.399 . S
C1076 C1075 1.399 . S
C1076 C1077 1.376 . S
C1077 H1064 0.930 . S
C1077 C1076 1.376 . S
C1077 C1078 1.388 . S
C1078 H1065 0.930 . S
C1078 C1077 1.388 . S
C1078 C1079 1.390 . S
C1079 C1078 1.390 . S
C1079 C1080 1.394 . S
C1079 C1085 1.465 . S
C1080 C1075 1.399 . S
C1080 C1079 1.394 . S
C1080 C1081 1.516 . S
C1081 C1080 1.516 . S
C1081 C1082 1.502 . S
C1081 C1083 1.561 . S
C1081 C1084 1.526 . S
C1082 H1066 0.959 . S
C1082 H1067 0.959 . S
C1082 H1068 0.961 . S
C1082 C1081 1.502 . S
C1083 H1069 0.960 . S
C1083 H1070 0.961 . S
C1083 H1071 0.959 . S
C1083 C1081 1.561 . S
C1084 C1081 1.526 . S
C1084 C1085 1.396 . S
C1084 C1089 1.390 . S
C1085 C1079 1.465 . S
C1085 C1084 1.396 . S
C1085 C1086 1.399 . S
C1086 H1072 0.929 . S
C1086 C1085 1.399 . S
C1086 C1087 1.385 . S
C1087 H1073 0.931 . S
C1087 C1086 1.385 . S
C1087 C1088 1.389 . S
C1088 C1087 1.389 . S
C1088 C1089 1.387 . S
C1089 H1074 0.930 . S
C1089 C1084 1.390 . S
C1089 C1088 1.387 . S
H1090 C1102 0.930 . S
H1091 C1104 0.930 . S
H1092 C1105 0.930 . S
H1093 C1109 0.959 . S
H1094 C1109 0.959 . S
H1095 C1109 0.961 . S
H1096 C1110 0.960 . S
H1097 C1110 0.961 . S
H1098 C1110 0.959 . S
H1099 C1113 0.929 . S
H1100 C1114 0.931 . S
H1101 C1116 0.930 . S
C1102 H1090 0.930 . S
C1102 C1103 1.399 . S
C1102 C1107 1.399 . S
C1103 C1102 1.399 . S
C1103 C1104 1.376 . S
C1104 H1091 0.930 . S
C1104 C1103 1.376 . S
C1104 C1105 1.388 . S
C1105 H1092 0.930 . S
C1105 C1104 1.388 . S
C1105 C1106 1.390 . S
C1106 C1105 1.390 . S
C1106 C1107 1.394 . S
C1106 C1112 1.465 . S
C1107 C1102 1.399 . S
C1107 C1106 1.394 . S
C1107 C1108 1.516 . S
C1108 C1107 1.516 . S
C1108 C1109 1.502 . S
C1108 C1110 1.561 . S
C1108 C1111 1.526 . S
C1109 H1093 0.959 . S
C1109 H1094 0.959 . S
C1109 H1095 0.961 . S
C1109 C1108 1.502 . S
C1110 H1096 0.960 . S
C1110 H1097 0.961 . S
C1110 H1098 0.959 . S
C1110 C1108 1.561 . S
C1111 C1108 1.526 . S
C1111 C1112 1.396 . S
C1111 C1116 1.390 . S
C1112 C1106 1.465 . S
C1112 C1111 1.396 . S
C1112 C1113 1.399 . S
C1113 H1099 0.929 . S
C1113 C1112 1.399 . S
C1113 C1114 1.385 . S
C1114 H1100 0.931 . S
C1114 C1113 1.385 . S
C1114 C1115 1.389 . S
C1115 C1114 1.389 . S
C1115 C1116 1.387 . S
C1116 H1101 0.930 . S
C1116 C1111 1.390 . S
C1116 C1115 1.387 . S
H1117 C1129 0.930 . S
H1118 C1131 0.930 . S
H1119 C1132 0.930 . S
H1120 C1136 0.959 . S
H1121 C1136 0.959 . S
H1122 C1136 0.961 . S
H1123 C1137 0.960 . S
H1124 C1137 0.961 . S
H1125 C1137 0.959 . S
H1126 C1140 0.929 . S
H1127 C1141 0.931 . S
H1128 C1143 0.930 . S
C1129 H1117 0.930 . S
C1129 C1130 1.399 . S
C1129 C1134 1.399 . S
C1130 C1129 1.399 . S
C1130 C1131 1.376 . S
C1131 H1118 0.930 . S
C1131 C1130 1.376 . S
C1131 C1132 1.388 . S
C1132 H1119 0.930 . S
C1132 C1131 1.388 . S
C1132 C1133 1.390 . S
C1133 C1132 1.390 . S
C1133 C1134 1.394 . S
C1133 C1139 1.465 . S
C1134 C1129 1.399 . S
C1134 C1133 1.394 . S
C1134 C1135 1.516 . S
C1135 C1134 1.516 . S
C1135 C1136 1.502 . S
C1135 C1137 1.561 . S
C1135 C1138 1.526 . S
C1136 H1120 0.959 . S
C1136 H1121 0.959 . S
C1136 H1122 0.961 . S
C1136 C1135 1.502 . S
C1137 H1123 0.960 . S
C1137 H1124 0.961 . S
C1137 H1125 0.959 . S
C1137 C1135 1.561 . S
C1138 C1135 1.526 . S
C1138 C1139 1.396 . S
C1138 C1143 1.390 . S
C1139 C1133 1.465 . S
C1139 C1138 1.396 . S
C1139 C1140 1.399 . S
C1140 H1126 0.929 . S
C1140 C1139 1.399 . S
C1140 C1141 1.385 . S
C1141 H1127 0.931 . S
C1141 C1140 1.385 . S
C1141 C1142 1.389 . S
C1142 C1141 1.389 . S
C1142 C1143 1.387 . S
C1143 H1128 0.930 . S
C1143 C1138 1.390 . S
C1143 C1142 1.387 . S
H1144 C1156 0.930 . S
H1145 C1158 0.930 . S
H1146 C1159 0.930 . S
H1147 C1163 0.959 . S
H1148 C1163 0.959 . S
H1149 C1163 0.961 . S
H1150 C1164 0.960 . S
H1151 C1164 0.961 . S
H1152 C1164 0.959 . S
H1153 C1167 0.929 . S
H1154 C1168 0.931 . S
H1155 C1170 0.930 . S
C1156 H1144 0.930 . S
C1156 C1157 1.399 . S
C1156 C1161 1.399 . S
C1157 C1156 1.399 . S
C1157 C1158 1.376 . S
C1158 H1145 0.930 . S
C1158 C1157 1.376 . S
C1158 C1159 1.388 . S
C1159 H1146 0.930 . S
C1159 C1158 1.388 . S
C1159 C1160 1.390 . S
C1160 C1159 1.390 . S
C1160 C1161 1.394 . S
C1160 C1166 1.465 . S
C1161 C1156 1.399 . S
C1161 C1160 1.394 . S
C1161 C1162 1.516 . S
C1162 C1161 1.516 . S
C1162 C1163 1.502 . S
C1162 C1164 1.561 . S
C1162 C1165 1.526 . S
C1163 H1147 0.959 . S
C1163 H1148 0.959 . S
C1163 H1149 0.961 . S
C1163 C1162 1.502 . S
C1164 H1150 0.960 . S
C1164 H1151 0.961 . S
C1164 H1152 0.959 . S
C1164 C1162 1.561 . S
C1165 C1162 1.526 . S
C1165 C1166 1.396 . S
C1165 C1170 1.390 . S
C1166 C1160 1.465 . S
C1166 C1165 1.396 . S
C1166 C1167 1.399 . S
C1167 H1153 0.929 . S
C1167 C1166 1.399 . S
C1167 C1168 1.385 . S
C1168 H1154 0.931 . S
C1168 C1167 1.385 . S
C1168 C1169 1.389 . S
C1169 C1168 1.389 . S
C1169 C1170 1.387 . S
C1170 H1155 0.930 . S
C1170 C1165 1.390 . S
C1170 C1169 1.387 . S
H1171 C1183 0.930 . S
H1172 C1185 0.930 . S
H1173 C1186 0.930 . S
H1174 C1190 0.959 . S
H1175 C1190 0.959 . S
H1176 C1190 0.961 . S
H1177 C1191 0.960 . S
H1178 C1191 0.961 . S
H1179 C1191 0.959 . S
H1180 C1194 0.929 . S
H1181 C1195 0.931 . S
H1182 C1197 0.930 . S
C1183 H1171 0.930 . S
C1183 C1184 1.399 . S
C1183 C1188 1.399 . S
C1184 C1183 1.399 . S
C1184 C1185 1.376 . S
C1185 H1172 0.930 . S
C1185 C1184 1.376 . S
C1185 C1186 1.388 . S
C1186 H1173 0.930 . S
C1186 C1185 1.388 . S
C1186 C1187 1.390 . S
C1187 C1186 1.390 . S
C1187 C1188 1.394 . S
C1187 C1193 1.465 . S
C1188 C1183 1.399 . S
C1188 C1187 1.394 . S
C1188 C1189 1.516 . S
C1189 C1188 1.516 . S
C1189 C1190 1.502 . S
C1189 C1191 1.561 . S
C1189 C1192 1.526 . S
C1190 H1174 0.959 . S
C1190 H1175 0.959 . S
C1190 H1176 0.961 . S
C1190 C1189 1.502 . S
C1191 H1177 0.960 . S
C1191 H1178 0.961 . S
C1191 H1179 0.959 . S
C1191 C1189 1.561 . S
C1192 C1189 1.526 . S
C1192 C1193 1.396 . S
C1192 C1197 1.390 . S
C1193 C1187 1.465 . S
C1193 C1192 1.396 . S
C1193 C1194 1.399 . S
C1194 H1180 0.929 . S
C1194 C1193 1.399 . S
C1194 C1195 1.385 . S
C1195 H1181 0.931 . S
C1195 C1194 1.385 . S
C1195 C1196 1.389 . S
C1196 C1195 1.389 . S
C1196 C1197 1.387 . S
C1197 H1182 0.930 . S
C1197 C1192 1.390 . S
C1197 C1196 1.387 . S
H1198 C1210 0.930 . S
H1199 C1212 0.930 . S
H1200 C1213 0.930 . S
H1201 C1217 0.959 . S
H1202 C1217 0.959 . S
H1203 C1217 0.961 . S
H1204 C1218 0.960 . S
H1205 C1218 0.961 . S
H1206 C1218 0.959 . S
H1207 C1221 0.929 . S
H1208 C1222 0.931 . S
H1209 C1224 0.930 . S
C1210 H1198 0.930 . S
C1210 C1211 1.399 . S
C1210 C1215 1.399 . S
C1211 C1210 1.399 . S
C1211 C1212 1.376 . S
C1212 H1199 0.930 . S
C1212 C1211 1.376 . S
C1212 C1213 1.388 . S
C1213 H1200 0.930 . S
C1213 C1212 1.388 . S
C1213 C1214 1.390 . S
C1214 C1213 1.390 . S
C1214 C1215 1.394 . S
C1214 C1220 1.465 . S
C1215 C1210 1.399 . S
C1215 C1214 1.394 . S
C1215 C1216 1.516 . S
C1216 C1215 1.516 . S
C1216 C1217 1.502 . S
C1216 C1218 1.561 . S
C1216 C1219 1.526 . S
C1217 H1201 0.959 . S
C1217 H1202 0.959 . S
C1217 H1203 0.961 . S
C1217 C1216 1.502 . S
C1218 H1204 0.960 . S
C1218 H1205 0.961 . S
C1218 H1206 0.959 . S
C1218 C1216 1.561 . S
C1219 C1216 1.526 . S
C1219 C1220 1.396 . S
C1219 C1224 1.390 . S
C1220 C1214 1.465 . S
C1220 C1219 1.396 . S
C1220 C1221 1.399 . S
C1221 H1207 0.929 . S
C1221 C1220 1.399 . S
C1221 C1222 1.385 . S
C1222 H1208 0.931 . S
C1222 C1221 1.385 . S
C1222 C1223 1.389 . S
C1223 C1222 1.389 . S
C1223 C1224 1.387 . S
C1224 H1209 0.930 . S
C1224 C1219 1.390 . S
C1224 C1223 1.387 . S
H1225 C1237 0.930 . S
H1226 C1239 0.930 . S
H1227 C1240 0.930 . S
H1228 C1244 0.959 . S
H1229 C1244 0.959 . S
H1230 C1244 0.961 . S
H1231 C1245 0.960 . S
H1232 C1245 0.961 . S
H1233 C1245 0.959 . S
H1234 C1248 0.929 . S
H1235 C1249 0.931 . S
H1236 C1251 0.930 . S
C1237 H1225 0.930 . S
C1237 C1238 1.399 . S
C1237 C1242 1.399 . S
C1238 C1237 1.399 . S
C1238 C1239 1.376 . S
C1239 H1226 0.930 . S
C1239 C1238 1.376 . S
C1239 C1240 1.388 . S
C1240 H1227 0.930 . S
C1240 C1239 1.388 . S
C1240 C1241 1.390 . S
C1241 C1240 1.390 . S
C1241 C1242 1.394 . S
C1241 C1247 1.465 . S
C1242 C1237 1.399 . S
C1242 C1241 1.394 . S
C1242 C1243 1.516 . S
C1243 C1242 1.516 . S
C1243 C1244 1.502 . S
C1243 C1245 1.561 . S
C1243 C1246 1.526 . S
C1244 H1228 0.959 . S
C1244 H1229 0.959 . S
C1244 H1230 0.961 . S
C1244 C1243 1.502 . S
C1245 H1231 0.960 . S
C1245 H1232 0.961 . S
C1245 H1233 0.959 . S
C1245 C1243 1.561 . S
C1246 C1243 1.526 . S
C1246 C1247 1.396 . S
C1246 C1251 1.390 . S
C1247 C1241 1.465 . S
C1247 C1246 1.396 . S
C1247 C1248 1.399 . S
C1248 H1234 0.929 . S
C1248 C1247 1.399 . S
C1248 C1249 1.385 . S
C1249 H1235 0.931 . S
C1249 C1248 1.385 . S
C1249 C1250 1.389 . S
C1250 C1249 1.389 . S
C1250 C1251 1.387 . S
C1251 H1236 0.930 . S
C1251 C1246 1.390 . S
C1251 C1250 1.387 . S
H1252 C1264 0.930 . S
H1253 C1266 0.930 . S
H1254 C1267 0.930 . S
H1255 C1271 0.959 . S
H1256 C1271 0.959 . S
H1257 C1271 0.961 . S
H1258 C1272 0.960 . S
H1259 C1272 0.961 . S
H1260 C1272 0.959 . S
H1261 C1275 0.929 . S
H1262 C1276 0.931 . S
H1263 C1278 0.930 . S
C1264 H1252 0.930 . S
C1264 C1265 1.399 . S
C1264 C1269 1.399 . S
C1265 C1264 1.399 . S
C1265 C1266 1.376 . S
C1266 H1253 0.930 . S
C1266 C1265 1.376 . S
C1266 C1267 1.388 . S
C1267 H1254 0.930 . S
C1267 C1266 1.388 . S
C1267 C1268 1.390 . S
C1268 C1267 1.390 . S
C1268 C1269 1.394 . S
C1268 C1274 1.465 . S
C1269 C1264 1.399 . S
C1269 C1268 1.394 . S
C1269 C1270 1.516 . S
C1270 C1269 1.516 . S
C1270 C1271 1.502 . S
C1270 C1272 1.561 . S
C1270 C1273 1.526 . S
C1271 H1255 0.959 . S
C1271 H1256 0.959 . S
C1271 H1257 0.961 . S
C1271 C1270 1.502 . S
C1272 H1258 0.960 . S
C1272 H1259 0.961 . S
C1272 H1260 0.959 . S
C1272 C1270 1.561 . S
C1273 C1270 1.526 . S
C1273 C1274 1.396 . S
C1273 C1278 1.390 . S
C1274 C1268 1.465 . S
C1274 C1273 1.396 . S
C1274 C1275 1.399 . S
C1275 H1261 0.929 . S
C1275 C1274 1.399 . S
C1275 C1276 1.385 . S
C1276 H1262 0.931 . S
C1276 C1275 1.385 . S
C1276 C1277 1.389 . S
C1277 C1276 1.389 . S
C1277 C1278 1.387 . S
C1278 H1263 0.930 . S
C1278 C1273 1.390 . S
C1278 C1277 1.387 . S
H1279 C1291 0.930 . S
H1280 C1293 0.930 . S
H1281 C1294 0.930 . S
H1282 C1298 0.959 . S
H1283 C1298 0.959 . S
H1284 C1298 0.961 . S
H1285 C1299 0.960 . S
H1286 C1299 0.961 . S
H1287 C1299 0.959 . S
H1288 C1302 0.929 . S
H1289 C1303 0.931 . S
H1290 C1305 0.930 . S
C1291 H1279 0.930 . S
C1291 C1292 1.399 . S
C1291 C1296 1.399 . S
C1292 C1291 1.399 . S
C1292 C1293 1.376 . S
C1293 H1280 0.930 . S
C1293 C1292 1.376 . S
C1293 C1294 1.388 . S
C1294 H1281 0.930 . S
C1294 C1293 1.388 . S
C1294 C1295 1.390 . S
C1295 C1294 1.390 . S
C1295 C1296 1.394 . S
C1295 C1301 1.465 . S
C1296 C1291 1.399 . S
C1296 C1295 1.394 . S
C1296 C1297 1.516 . S
C1297 C1296 1.516 . S
C1297 C1298 1.502 . S
C1297 C1299 1.561 . S
C1297 C1300 1.526 . S
C1298 H1282 0.959 . S
C1298 H1283 0.959 . S
C1298 H1284 0.961 . S
C1298 C1297 1.502 . S
C1299 H1285 0.960 . S
C1299 H1286 0.961 . S
C1299 H1287 0.959 . S
C1299 C1297 1.561 . S
C1300 C1297 1.526 . S
C1300 C1301 1.396 . S
C1300 C1305 1.390 . S
C1301 C1295 1.465 . S
C1301 C1300 1.396 . S
C1301 C1302 1.399 . S
C1302 H1288 0.929 . S
C1302 C1301 1.399 . S
C1302 C1303 1.385 . S
C1303 H1289 0.931 . S
C1303 C1302 1.385 . S
C1303 C1304 1.389 . S
C1304 C1303 1.389 . S
C1304 C1305 1.387 . S
C1305 H1290 0.930 . S
C1305 C1300 1.390 . S
C1305 C1304 1.387 . S
H1306 C1318 0.930 . S
H1307 C1320 0.930 . S
H1308 C1321 0.930 . S
H1309 C1325 0.959 . S
H1310 C1325 0.959 . S
H1311 C1325 0.961 . S
H1312 C1326 0.960 . S
H1313 C1326 0.961 . S
H1314 C1326 0.959 . S
H1315 C1329 0.929 . S
H1316 C1330 0.931 . S
H1317 C1332 0.930 . S
C1318 H1306 0.930 . S
C1318 C1319 1.399 . S
C1318 C1323 1.399 . S
C1319 C1318 1.399 . S
C1319 C1320 1.376 . S
C1320 H1307 0.930 . S
C1320 C1319 1.376 . S
C1320 C1321 1.388 . S
C1321 H1308 0.930 . S
C1321 C1320 1.388 . S
C1321 C1322 1.390 . S
C1322 C1321 1.390 . S
C1322 C1323 1.394 . S
C1322 C1328 1.465 . S
C1323 C1318 1.399 . S
C1323 C1322 1.394 . S
C1323 C1324 1.516 . S
C1324 C1323 1.516 . S
C1324 C1325 1.502 . S
C1324 C1326 1.561 . S
C1324 C1327 1.526 . S
C1325 H1309 0.959 . S
C1325 H1310 0.959 . S
C1325 H1311 0.961 . S
C1325 C1324 1.502 . S
C1326 H1312 0.960 . S
C1326 H1313 0.961 . S
C1326 H1314 0.959 . S
C1326 C1324 1.561 . S
C1327 C1324 1.526 . S
C1327 C1328 1.396 . S
C1327 C1332 1.390 . S
C1328 C1322 1.465 . S
C1328 C1327 1.396 . S
C1328 C1329 1.399 . S
C1329 H1315 0.929 . S
C1329 C1328 1.399 . S
C1329 C1330 1.385 . S
C1330 H1316 0.931 . S
C1330 C1329 1.385 . S
C1330 C1331 1.389 . S
C1331 C1330 1.389 . S
C1331 C1332 1.387 . S
C1332 H1317 0.930 . S
C1332 C1327 1.390 . S
C1332 C1331 1.387 . S
H1333 C1345 0.930 . S
H1334 C1347 0.930 . S
H1335 C1348 0.930 . S
H1336 C1352 0.959 . S
H1337 C1352 0.959 . S
H1338 C1352 0.961 . S
H1339 C1353 0.960 . S
H1340 C1353 0.961 . S
H1341 C1353 0.959 . S
H1342 C1356 0.929 . S
H1343 C1357 0.931 . S
H1344 C1359 0.930 . S
C1345 H1333 0.930 . S
C1345 C1346 1.399 . S
C1345 C1350 1.399 . S
C1346 C1345 1.399 . S
C1346 C1347 1.376 . S
C1347 H1334 0.930 . S
C1347 C1346 1.376 . S
C1347 C1348 1.388 . S
C1348 H1335 0.930 . S
C1348 C1347 1.388 . S
C1348 C1349 1.390 . S
C1349 C1348 1.390 . S
C1349 C1350 1.394 . S
C1349 C1355 1.465 . S
C1350 C1345 1.399 . S
C1350 C1349 1.394 . S
C1350 C1351 1.516 . S
C1351 C1350 1.516 . S
C1351 C1352 1.502 . S
C1351 C1353 1.561 . S
C1351 C1354 1.526 . S
C1352 H1336 0.959 . S
C1352 H1337 0.959 . S
C1352 H1338 0.961 . S
C1352 C1351 1.502 . S
C1353 H1339 0.960 . S
C1353 H1340 0.961 . S
C1353 H1341 0.959 . S
C1353 C1351 1.561 . S
C1354 C1351 1.526 . S
C1354 C1355 1.396 . S
C1354 C1359 1.390 . S
C1355 C1349 1.465 . S
C1355 C1354 1.396 . S
C1355 C1356 1.399 . S
C1356 H1342 0.929 . S
C1356 C1355 1.399 . S
C1356 C1357 1.385 . S
C1357 H1343 0.931 . S
C1357 C1356 1.385 . S
C1357 C1358 1.389 . S
C1358 C1357 1.389 . S
C1358 C1359 1.387 . S
C1359 H1344 0.930 . S
C1359 C1354 1.390 . S
C1359 C1358 1.387 . S
H1360 C1372 0.930 . S
H1361 C1374 0.930 . S
H1362 C1375 0.930 . S
H1363 C1379 0.935 1_554 S
H1364 C1379 0.977 . S
H1365 C1379 0.975 . S
H1366 C1380 0.960 . S
H1367 C1380 0.961 . S
H1368 C1380 0.959 . S
H1369 C1383 0.929 . S
H1370 C1384 0.931 . S
H1371 C1386 0.930 . S
C1372 H1360 0.930 . S
C1372 C1373 1.399 . S
C1372 C1377 1.399 . S
C1373 C1372 1.399 . S
C1373 C1374 1.376 . S
C1374 H1361 0.930 . S
C1374 C1373 1.376 . S
C1374 C1375 1.388 . S
C1375 H1362 0.930 . S
C1375 C1374 1.388 . S
C1375 C1376 1.390 . S
C1376 C1375 1.390 . S
C1376 C1377 1.394 . S
C1376 C1382 1.465 . S
C1377 C1372 1.399 . S
C1377 C1376 1.394 . S
C1377 C1378 1.516 . S
C1378 C1377 1.516 . S
C1378 C1379 1.493 1_554 S
C1378 C1380 1.561 1_554 S
C1378 C1381 1.526 . S
C1379 H1363 0.935 1_556 S
C1379 H1364 0.977 . S
C1379 H1365 0.975 . S
C1379 C1378 1.493 1_556 S
C1380 H1366 0.960 . S
C1380 H1367 0.961 . S
C1380 H1368 0.959 . S
C1380 C1378 1.561 1_556 S
C1381 C1378 1.526 . S
C1381 C1382 1.396 . S
C1381 C1386 1.390 . S
C1382 C1376 1.465 . S
C1382 C1381 1.396 . S
C1382 C1383 1.399 . S
C1383 H1369 0.929 . S
C1383 C1382 1.399 . S
C1383 C1384 1.385 . S
C1384 H1370 0.931 . S
C1384 C1383 1.385 . S
C1384 C1385 1.389 . S
C1385 C1384 1.389 . S
C1385 C1386 1.387 . S
C1386 H1371 0.930 . S
C1386 C1381 1.390 . S
C1386 C1385 1.387 . S
H1387 C1399 0.930 . S
H1388 C1401 0.930 . S
H1389 C1402 0.930 . S
H1390 C1406 0.959 . S
H1391 C1406 0.959 . S
H1392 C1406 0.961 . S
H1393 C1407 0.960 . S
H1394 C1407 0.961 . S
H1395 C1407 0.959 . S
H1396 C1410 0.929 . S
H1397 C1411 0.931 . S
H1398 C1413 0.930 . S
C1399 H1387 0.930 . S
C1399 C1400 1.399 . S
C1399 C1404 1.399 . S
C1400 C1399 1.399 . S
C1400 C1401 1.376 . S
C1401 H1388 0.930 . S
C1401 C1400 1.376 . S
C1401 C1402 1.388 . S
C1402 H1389 0.930 . S
C1402 C1401 1.388 . S
C1402 C1403 1.390 . S
C1403 C1402 1.390 . S
C1403 C1404 1.394 . S
C1403 C1409 1.465 . S
C1404 C1399 1.399 . S
C1404 C1403 1.394 . S
C1404 C1405 1.516 . S
C1405 C1404 1.516 . S
C1405 C1406 1.502 . S
C1405 C1407 1.561 . S
C1405 C1408 1.526 . S
C1406 H1390 0.959 . S
C1406 H1391 0.959 . S
C1406 H1392 0.961 . S
C1406 C1405 1.502 . S
C1407 H1393 0.960 . S
C1407 H1394 0.961 . S
C1407 H1395 0.959 . S
C1407 C1405 1.561 . S
C1408 C1405 1.526 . S
C1408 C1409 1.396 . S
C1408 C1413 1.390 . S
C1409 C1403 1.465 . S
C1409 C1408 1.396 . S
C1409 C1410 1.399 . S
C1410 H1396 0.929 . S
C1410 C1409 1.399 . S
C1410 C1411 1.385 . S
C1411 H1397 0.931 . S
C1411 C1410 1.385 . S
C1411 C1412 1.389 . S
C1412 C1411 1.389 . S
C1412 C1413 1.387 . S
C1413 H1398 0.930 . S
C1413 C1408 1.390 . S
C1413 C1412 1.387 . S
H1414 C1426 0.930 . S
H1415 C1428 0.930 1_554 S
H1416 C1429 0.930 1_554 S
H1417 C1433 0.959 . S
H1418 C1433 0.959 . S
H1419 C1433 0.961 . S
H1420 C1434 0.960 . S
H1421 C1434 0.961 . S
H1422 C1434 0.959 . S
H1423 C1437 0.929 1_554 S
H1424 C1438 0.931 1_554 S
H1425 C1440 0.930 . S
C1426 H1414 0.930 . S
C1426 C1427 1.399 . S
C1426 C1431 1.399 . S
C1427 C1426 1.399 . S
C1427 C1428 1.376 . S
C1428 H1415 0.930 1_556 S
C1428 C1427 1.376 . S
C1428 C1429 1.388 . S
C1429 H1416 0.930 1_556 S
C1429 C1428 1.388 . S
C1429 C1430 1.390 . S
C1430 C1429 1.390 . S
C1430 C1431 1.394 . S
C1430 C1436 1.465 . S
C1431 C1426 1.399 . S
C1431 C1430 1.394 . S
C1431 C1432 1.516 . S
C1432 C1431 1.516 . S
C1432 C1433 1.502 . S
C1432 C1434 1.561 . S
C1432 C1435 1.526 . S
C1433 H1417 0.959 . S
C1433 H1418 0.959 . S
C1433 H1419 0.961 . S
C1433 C1432 1.502 . S
C1434 H1420 0.960 . S
C1434 H1421 0.961 . S
C1434 H1422 0.959 . S
C1434 C1432 1.561 . S
C1435 C1432 1.526 . S
C1435 C1436 1.396 . S
C1435 C1440 1.390 . S
C1436 C1430 1.465 . S
C1436 C1435 1.396 . S
C1436 C1437 1.399 . S
C1437 H1423 0.929 1_556 S
C1437 C1436 1.399 . S
C1437 C1438 1.385 . S
C1438 H1424 0.931 1_556 S
C1438 C1437 1.385 . S
C1438 C1439 1.389 . S
C1439 C1438 1.389 . S
C1439 C1440 1.387 . S
C1440 H1425 0.930 . S
C1440 C1435 1.390 . S
C1440 C1439 1.387 . S
H1441 C1453 0.930 . S
H1442 C1455 0.930 . S
H1443 C1456 0.930 . S
H1444 C1460 0.959 . S
H1445 C1460 0.959 . S
H1446 C1460 0.961 . S
H1447 C1461 0.960 . S
H1448 C1461 0.961 . S
H1449 C1461 0.959 . S
H1450 C1464 0.929 . S
H1451 C1465 0.931 . S
H1452 C1467 0.930 . S
C1453 H1441 0.930 . S
C1453 C1454 1.399 . S
C1453 C1458 1.399 . S
C1454 C1453 1.399 . S
C1454 C1455 1.376 . S
C1455 H1442 0.930 . S
C1455 C1454 1.376 . S
C1455 C1456 1.388 . S
C1456 H1443 0.930 . S
C1456 C1455 1.388 . S
C1456 C1457 1.390 . S
C1457 C1456 1.390 . S
C1457 C1458 1.394 . S
C1457 C1463 1.465 . S
C1458 C1453 1.399 . S
C1458 C1457 1.394 . S
C1458 C1459 1.516 . S
C1459 C1458 1.516 . S
C1459 C1460 1.502 . S
C1459 C1461 1.561 . S
C1459 C1462 1.526 . S
C1460 H1444 0.959 . S
C1460 H1445 0.959 . S
C1460 H1446 0.961 . S
C1460 C1459 1.502 . S
C1461 H1447 0.960 . S
C1461 H1448 0.961 . S
C1461 H1449 0.959 . S
C1461 C1459 1.561 . S
C1462 C1459 1.526 . S
C1462 C1463 1.396 . S
C1462 C1467 1.390 . S
C1463 C1457 1.465 . S
C1463 C1462 1.396 . S
C1463 C1464 1.399 . S
C1464 H1450 0.929 . S
C1464 C1463 1.399 . S
C1464 C1465 1.385 . S
C1465 H1451 0.931 . S
C1465 C1464 1.385 . S
C1465 C1466 1.389 . S
C1466 C1465 1.389 . S
C1466 C1467 1.387 . S
C1467 H1452 0.930 . S
C1467 C1462 1.390 . S
C1467 C1466 1.387 . S
H1468 C1480 0.930 . S
H1469 C1482 0.930 . S
H1470 C1483 0.930 . S
H1471 C1487 0.959 . S
H1472 C1487 0.959 . S
H1473 C1487 0.961 . S
H1474 C1488 0.960 . S
H1475 C1488 0.961 . S
H1476 C1488 0.959 . S
H1477 C1491 0.929 . S
H1478 C1492 0.931 . S
H1479 C1494 0.930 . S
C1480 H1468 0.930 . S
C1480 C1481 1.399 . S
C1480 C1485 1.399 . S
C1481 C1480 1.399 . S
C1481 C1482 1.376 . S
C1482 H1469 0.930 . S
C1482 C1481 1.376 . S
C1482 C1483 1.388 . S
C1483 H1470 0.930 . S
C1483 C1482 1.388 . S
C1483 C1484 1.390 . S
C1484 C1483 1.390 . S
C1484 C1485 1.394 . S
C1484 C1490 1.465 . S
C1485 C1480 1.399 . S
C1485 C1484 1.394 . S
C1485 C1486 1.516 . S
C1486 C1485 1.516 . S
C1486 C1487 1.502 . S
C1486 C1488 1.561 . S
C1486 C1489 1.526 . S
C1487 H1471 0.959 . S
C1487 H1472 0.959 . S
C1487 H1473 0.961 . S
C1487 C1486 1.502 . S
C1488 H1474 0.960 . S
C1488 H1475 0.961 . S
C1488 H1476 0.959 . S
C1488 C1486 1.561 . S
C1489 C1486 1.526 . S
C1489 C1490 1.396 . S
C1489 C1494 1.390 . S
C1490 C1484 1.465 . S
C1490 C1489 1.396 . S
C1490 C1491 1.399 . S
C1491 H1477 0.929 . S
C1491 C1490 1.399 . S
C1491 C1492 1.385 . S
C1492 H1478 0.931 . S
C1492 C1491 1.385 . S
C1492 C1493 1.389 . S
C1493 C1492 1.389 . S
C1493 C1494 1.387 . S
C1494 H1479 0.930 . S
C1494 C1489 1.390 . S
C1494 C1493 1.387 . S
H1495 C1507 0.930 . S
H1496 C1509 0.930 . S
H1497 C1510 0.930 . S
H1498 C1514 0.959 . S
H1499 C1514 0.959 . S
H1500 C1514 0.961 . S
H1501 C1515 0.960 . S
H1502 C1515 0.961 . S
H1503 C1515 0.959 . S
H1504 C1518 0.929 . S
H1505 C1519 0.931 . S
H1506 C1521 0.930 . S
C1507 H1495 0.930 . S
C1507 C1508 1.399 . S
C1507 C1512 1.399 . S
C1508 C1507 1.399 . S
C1508 C1509 1.376 . S
C1509 H1496 0.930 . S
C1509 C1508 1.376 . S
C1509 C1510 1.388 . S
C1510 H1497 0.930 . S
C1510 C1509 1.388 . S
C1510 C1511 1.390 . S
C1511 C1510 1.390 . S
C1511 C1512 1.394 . S
C1511 C1517 1.465 . S
C1512 C1507 1.399 . S
C1512 C1511 1.394 . S
C1512 C1513 1.516 . S
C1513 C1512 1.516 . S
C1513 C1514 1.502 . S
C1513 C1515 1.561 . S
C1513 C1516 1.526 . S
C1514 H1498 0.959 . S
C1514 H1499 0.959 . S
C1514 H1500 0.961 . S
C1514 C1513 1.502 . S
C1515 H1501 0.960 . S
C1515 H1502 0.961 . S
C1515 H1503 0.959 . S
C1515 C1513 1.561 . S
C1516 C1513 1.526 . S
C1516 C1517 1.396 . S
C1516 C1521 1.390 . S
C1517 C1511 1.465 . S
C1517 C1516 1.396 . S
C1517 C1518 1.399 . S
C1518 H1504 0.929 . S
C1518 C1517 1.399 . S
C1518 C1519 1.385 . S
C1519 H1505 0.931 . S
C1519 C1518 1.385 . S
C1519 C1520 1.389 . S
C1520 C1519 1.389 . S
C1520 C1521 1.387 . S
C1521 H1506 0.930 . S
C1521 C1516 1.390 . S
C1521 C1520 1.387 . S
H1522 C1534 0.930 . S
H1523 C1536 0.930 . S
H1524 C1537 0.930 . S
H1525 C1541 0.959 . S
H1526 C1541 0.959 . S
H1527 C1541 0.961 . S
H1528 C1542 0.960 . S
H1529 C1542 0.961 . S
H1530 C1542 0.959 . S
H1531 C1545 0.929 . S
H1532 C1546 0.931 . S
H1533 C1548 0.930 . S
C1534 H1522 0.930 . S
C1534 C1535 1.399 . S
C1534 C1539 1.399 . S
C1535 C1534 1.399 . S
C1535 C1536 1.376 . S
C1536 H1523 0.930 . S
C1536 C1535 1.376 . S
C1536 C1537 1.388 . S
C1537 H1524 0.930 . S
C1537 C1536 1.388 . S
C1537 C1538 1.390 . S
C1538 C1537 1.390 . S
C1538 C1539 1.394 . S
C1538 C1544 1.465 . S
C1539 C1534 1.399 . S
C1539 C1538 1.394 . S
C1539 C1540 1.516 . S
C1540 C1539 1.516 . S
C1540 C1541 1.502 . S
C1540 C1542 1.561 . S
C1540 C1543 1.526 . S
C1541 H1525 0.959 . S
C1541 H1526 0.959 . S
C1541 H1527 0.961 . S
C1541 C1540 1.502 . S
C1542 H1528 0.960 . S
C1542 H1529 0.961 . S
C1542 H1530 0.959 . S
C1542 C1540 1.561 . S
C1543 C1540 1.526 . S
C1543 C1544 1.396 . S
C1543 C1548 1.390 . S
C1544 C1538 1.465 . S
C1544 C1543 1.396 . S
C1544 C1545 1.399 . S
C1545 H1531 0.929 . S
C1545 C1544 1.399 . S
C1545 C1546 1.385 . S
C1546 H1532 0.931 . S
C1546 C1545 1.385 . S
C1546 C1547 1.389 . S
C1547 C1546 1.389 . S
C1547 C1548 1.387 . S
C1548 H1533 0.930 . S
C1548 C1543 1.390 . S
C1548 C1547 1.387 . S
H1549 C1561 0.930 . S
H1550 C1563 0.930 . S
H1551 C1564 0.930 . S
H1552 C1568 0.959 . S
H1553 C1568 0.959 . S
H1554 C1568 0.961 . S
H1555 C1569 0.960 . S
H1556 C1569 0.961 . S
H1557 C1569 0.959 . S
H1558 C1572 0.929 . S
H1559 C1573 0.931 . S
H1560 C1575 0.930 . S
C1561 H1549 0.930 . S
C1561 C1562 1.399 . S
C1561 C1566 1.399 . S
C1562 C1561 1.399 . S
C1562 C1563 1.376 . S
C1563 H1550 0.930 . S
C1563 C1562 1.376 . S
C1563 C1564 1.388 . S
C1564 H1551 0.930 . S
C1564 C1563 1.388 . S
C1564 C1565 1.390 . S
C1565 C1564 1.390 . S
C1565 C1566 1.394 . S
C1565 C1571 1.465 . S
C1566 C1561 1.399 . S
C1566 C1565 1.394 . S
C1566 C1567 1.516 . S
C1567 C1566 1.516 . S
C1567 C1568 1.502 . S
C1567 C1569 1.561 . S
C1567 C1570 1.526 . S
C1568 H1552 0.959 . S
C1568 H1553 0.959 . S
C1568 H1554 0.961 . S
C1568 C1567 1.502 . S
C1569 H1555 0.960 . S
C1569 H1556 0.961 . S
C1569 H1557 0.959 . S
C1569 C1567 1.561 . S
C1570 C1567 1.526 . S
C1570 C1571 1.396 . S
C1570 C1575 1.390 . S
C1571 C1565 1.465 . S
C1571 C1570 1.396 . S
C1571 C1572 1.399 . S
C1572 H1558 0.929 . S
C1572 C1571 1.399 . S
C1572 C1573 1.385 . S
C1573 H1559 0.931 . S
C1573 C1572 1.385 . S
C1573 C1574 1.389 . S
C1574 C1573 1.389 . S
C1574 C1575 1.387 . S
C1575 H1560 0.930 . S
C1575 C1570 1.390 . S
C1575 C1574 1.387 . S
H1576 C1588 0.930 . S
H1577 C1590 0.930 . S
H1578 C1591 0.930 . S
H1579 C1595 0.959 . S
H1580 C1595 0.959 . S
H1581 C1595 0.961 . S
H1582 C1596 0.960 . S
H1583 C1596 0.961 . S
H1584 C1596 0.959 . S
H1585 C1599 0.929 . S
H1586 C1600 0.931 1_565 S
H1587 C1602 0.930 . S
C1588 H1576 0.930 . S
C1588 C1589 1.399 . S
C1588 C1593 1.399 . S
C1589 C1588 1.399 . S
C1589 C1590 1.376 . S
C1590 H1577 0.930 . S
C1590 C1589 1.376 . S
C1590 C1591 1.388 . S
C1591 H1578 0.930 . S
C1591 C1590 1.388 . S
C1591 C1592 1.390 . S
C1592 C1591 1.390 . S
C1592 C1593 1.394 . S
C1592 C1598 1.465 . S
C1593 C1588 1.399 . S
C1593 C1592 1.394 . S
C1593 C1594 1.516 . S
C1594 C1593 1.516 . S
C1594 C1595 1.502 . S
C1594 C1596 1.561 . S
C1594 C1597 1.526 . S
C1595 H1579 0.959 . S
C1595 H1580 0.959 . S
C1595 H1581 0.961 . S
C1595 C1594 1.502 . S
C1596 H1582 0.960 . S
C1596 H1583 0.961 . S
C1596 H1584 0.959 . S
C1596 C1594 1.561 . S
C1597 C1594 1.526 . S
C1597 C1598 1.396 . S
C1597 C1602 1.390 . S
C1598 C1592 1.465 . S
C1598 C1597 1.396 . S
C1598 C1599 1.399 . S
C1599 H1585 0.929 . S
C1599 C1598 1.399 . S
C1599 C1600 1.385 . S
C1600 H1586 0.931 1_545 S
C1600 C1599 1.385 . S
C1600 C1601 1.389 . S
C1601 C1600 1.389 . S
C1601 C1602 1.387 . S
C1602 H1587 0.930 . S
C1602 C1597 1.390 . S
C1602 C1601 1.387 . S
H1603 C1615 0.930 . S
H1604 C1617 0.930 . S
H1605 C1618 0.930 . S
H1606 C1622 0.959 . S
H1607 C1622 0.959 . S
H1608 C1622 0.961 . S
H1609 C1623 0.960 . S
H1610 C1623 0.961 . S
H1611 C1623 0.959 . S
H1612 C1626 0.929 . S
H1613 C1627 0.931 . S
H1614 C1629 0.930 . S
C1615 H1603 0.930 . S
C1615 C1616 1.399 . S
C1615 C1620 1.399 . S
C1616 C1615 1.399 . S
C1616 C1617 1.376 . S
C1617 H1604 0.930 . S
C1617 C1616 1.376 . S
C1617 C1618 1.388 . S
C1618 H1605 0.930 . S
C1618 C1617 1.388 . S
C1618 C1619 1.390 . S
C1619 C1618 1.390 . S
C1619 C1620 1.394 . S
C1619 C1625 1.465 . S
C1620 C1615 1.399 . S
C1620 C1619 1.394 . S
C1620 C1621 1.516 . S
C1621 C1620 1.516 . S
C1621 C1622 1.502 . S
C1621 C1623 1.561 . S
C1621 C1624 1.526 . S
C1622 H1606 0.959 . S
C1622 H1607 0.959 . S
C1622 H1608 0.961 . S
C1622 C1621 1.502 . S
C1623 H1609 0.960 . S
C1623 H1610 0.961 . S
C1623 H1611 0.959 . S
C1623 C1621 1.561 . S
C1624 C1621 1.526 . S
C1624 C1625 1.396 . S
C1624 C1629 1.390 . S
C1625 C1619 1.465 . S
C1625 C1624 1.396 . S
C1625 C1626 1.399 . S
C1626 H1612 0.929 . S
C1626 C1625 1.399 . S
C1626 C1627 1.385 . S
C1627 H1613 0.931 . S
C1627 C1626 1.385 . S
C1627 C1628 1.389 . S
C1628 C1627 1.389 . S
C1628 C1629 1.387 . S
C1629 H1614 0.930 . S
C1629 C1624 1.390 . S
C1629 C1628 1.387 . S
H1630 C1642 0.930 . S
H1631 C1644 0.930 1_545 S
H1632 C1645 0.930 . S
H1633 C1649 0.959 . S
H1634 C1649 0.959 . S
H1635 C1649 0.961 . S
H1636 C1650 0.960 . S
H1637 C1650 0.961 . S
H1638 C1650 0.959 . S
H1639 C1653 0.929 . S
H1640 C1654 0.931 . S
H1641 C1656 0.930 . S
C1642 H1630 0.930 . S
C1642 C1643 1.399 . S
C1642 C1647 1.399 . S
C1643 C1642 1.399 . S
C1643 C1644 1.376 . S
C1644 H1631 0.930 1_565 S
C1644 C1643 1.376 . S
C1644 C1645 1.388 . S
C1645 H1632 0.930 . S
C1645 C1644 1.388 . S
C1645 C1646 1.390 . S
C1646 C1645 1.390 . S
C1646 C1647 1.394 . S
C1646 C1652 1.465 . S
C1647 C1642 1.399 . S
C1647 C1646 1.394 . S
C1647 C1648 1.516 . S
C1648 C1647 1.516 . S
C1648 C1649 1.502 . S
C1648 C1650 1.561 . S
C1648 C1651 1.526 . S
C1649 H1633 0.959 . S
C1649 H1634 0.959 . S
C1649 H1635 0.961 . S
C1649 C1648 1.502 . S
C1650 H1636 0.960 . S
C1650 H1637 0.961 . S
C1650 H1638 0.959 . S
C1650 C1648 1.561 . S
C1651 C1648 1.526 . S
C1651 C1652 1.396 . S
C1651 C1656 1.390 . S
C1652 C1646 1.465 . S
C1652 C1651 1.396 . S
C1652 C1653 1.399 . S
C1653 H1639 0.929 . S
C1653 C1652 1.399 . S
C1653 C1654 1.385 . S
C1654 H1640 0.931 . S
C1654 C1653 1.385 . S
C1654 C1655 1.389 . S
C1655 C1654 1.389 . S
C1655 C1656 1.387 . S
C1656 H1641 0.930 . S
C1656 C1651 1.390 . S
C1656 C1655 1.387 . S
H1657 C1669 0.930 . S
H1658 C1671 0.930 . S
H1659 C1672 0.930 . S
H1660 C1676 0.959 . S
H1661 C1676 0.959 . S
H1662 C1676 0.961 . S
H1663 C1677 0.960 . S
H1664 C1677 0.961 . S
H1665 C1677 0.959 . S
H1666 C1680 0.929 . S
H1667 C1681 0.931 . S
H1668 C1683 0.930 . S
C1669 H1657 0.930 . S
C1669 C1670 1.399 . S
C1669 C1674 1.399 . S
C1670 C1669 1.399 . S
C1670 C1671 1.376 . S
C1671 H1658 0.930 . S
C1671 C1670 1.376 . S
C1671 C1672 1.388 . S
C1672 H1659 0.930 . S
C1672 C1671 1.388 . S
C1672 C1673 1.390 . S
C1673 C1672 1.390 . S
C1673 C1674 1.394 . S
C1673 C1679 1.465 . S
C1674 C1669 1.399 . S
C1674 C1673 1.394 . S
C1674 C1675 1.516 . S
C1675 C1674 1.516 . S
C1675 C1676 1.502 . S
C1675 C1677 1.561 . S
C1675 C1678 1.526 . S
C1676 H1660 0.959 . S
C1676 H1661 0.959 . S
C1676 H1662 0.961 . S
C1676 C1675 1.502 . S
C1677 H1663 0.960 . S
C1677 H1664 0.961 . S
C1677 H1665 0.959 . S
C1677 C1675 1.561 . S
C1678 C1675 1.526 . S
C1678 C1679 1.396 . S
C1678 C1683 1.390 . S
C1679 C1673 1.465 . S
C1679 C1678 1.396 . S
C1679 C1680 1.399 . S
C1680 H1666 0.929 . S
C1680 C1679 1.399 . S
C1680 C1681 1.385 . S
C1681 H1667 0.931 . S
C1681 C1680 1.385 . S
C1681 C1682 1.389 . S
C1682 C1681 1.389 . S
C1682 C1683 1.387 . S
C1683 H1668 0.930 . S
C1683 C1678 1.390 . S
C1683 C1682 1.387 . S
H1684 C1696 0.930 . S
H1685 C1698 0.930 . S
H1686 C1699 0.930 . S
H1687 C1703 0.959 1_554 S
H1688 C1703 0.959 . S
H1689 C1703 0.961 . S
H1690 C1704 0.960 . S
H1691 C1704 0.961 . S
H1692 C1704 0.959 . S
H1693 C1707 0.929 . S
H1694 C1708 0.931 . S
H1695 C1710 0.930 . S
C1696 H1684 0.930 . S
C1696 C1697 1.399 . S
C1696 C1701 1.399 . S
C1697 C1696 1.399 . S
C1697 C1698 1.376 . S
C1698 H1685 0.930 . S
C1698 C1697 1.376 . S
C1698 C1699 1.388 . S
C1699 H1686 0.930 . S
C1699 C1698 1.388 . S
C1699 C1700 1.390 . S
C1700 C1699 1.390 . S
C1700 C1701 1.394 . S
C1700 C1706 1.465 . S
C1701 C1696 1.399 . S
C1701 C1700 1.394 . S
C1701 C1702 1.516 . S
C1702 C1701 1.516 . S
C1702 C1703 1.502 1_554 S
C1702 C1704 1.561 1_554 S
C1702 C1705 1.526 . S
C1703 H1687 0.959 1_556 S
C1703 H1688 0.959 . S
C1703 H1689 0.961 . S
C1703 C1702 1.502 1_556 S
C1704 H1690 0.960 . S
C1704 H1691 0.961 . S
C1704 H1692 0.959 . S
C1704 C1702 1.561 1_556 S
C1705 C1702 1.526 . S
C1705 C1706 1.396 . S
C1705 C1710 1.390 . S
C1706 C1700 1.465 . S
C1706 C1705 1.396 . S
C1706 C1707 1.399 . S
C1707 H1693 0.929 . S
C1707 C1706 1.399 . S
C1707 C1708 1.385 . S
C1708 H1694 0.931 . S
C1708 C1707 1.385 . S
C1708 C1709 1.389 . S
C1709 C1708 1.389 . S
C1709 C1710 1.387 . S
C1710 H1695 0.930 . S
C1710 C1705 1.390 . S
C1710 C1709 1.387 . S
H1711 C1723 0.930 . S
H1712 C1725 0.930 . S
H1713 C1726 0.930 . S
H1714 C1730 0.959 . S
H1715 C1730 0.959 . S
H1716 C1730 0.961 . S
H1717 C1731 0.960 . S
H1718 C1731 0.961 . S
H1719 C1731 0.959 . S
H1720 C1734 0.929 . S
H1721 C1735 0.931 . S
H1722 C1737 0.930 . S
C1723 H1711 0.930 . S
C1723 C1724 1.399 . S
C1723 C1728 1.399 . S
C1724 C1723 1.399 . S
C1724 C1725 1.376 . S
C1725 H1712 0.930 . S
C1725 C1724 1.376 . S
C1725 C1726 1.388 . S
C1726 H1713 0.930 . S
C1726 C1725 1.388 . S
C1726 C1727 1.390 . S
C1727 C1726 1.390 . S
C1727 C1728 1.394 . S
C1727 C1733 1.465 . S
C1728 C1723 1.399 . S
C1728 C1727 1.394 . S
C1728 C1729 1.516 . S
C1729 C1728 1.516 . S
C1729 C1730 1.502 . S
C1729 C1731 1.561 . S
C1729 C1732 1.526 . S
C1730 H1714 0.959 . S
C1730 H1715 0.959 . S
C1730 H1716 0.961 . S
C1730 C1729 1.502 . S
C1731 H1717 0.960 . S
C1731 H1718 0.961 . S
C1731 H1719 0.959 . S
C1731 C1729 1.561 . S
C1732 C1729 1.526 . S
C1732 C1733 1.396 . S
C1732 C1737 1.390 . S
C1733 C1727 1.465 . S
C1733 C1732 1.396 . S
C1733 C1734 1.399 . S
C1734 H1720 0.929 . S
C1734 C1733 1.399 . S
C1734 C1735 1.385 . S
C1735 H1721 0.931 . S
C1735 C1734 1.385 . S
C1735 C1736 1.389 . S
C1736 C1735 1.389 . S
C1736 C1737 1.387 . S
C1737 H1722 0.930 . S
C1737 C1732 1.390 . S
C1737 C1736 1.387 . S
H1738 C1750 0.930 . S
H1739 C1752 0.930 . S
H1740 C1753 0.930 1_554 S
H1741 C1757 0.959 . S
H1742 C1757 0.959 . S
H1743 C1757 0.961 . S
H1744 C1758 0.960 . S
H1745 C1758 0.961 . S
H1746 C1758 0.959 . S
H1747 C1761 0.929 1_554 S
H1748 C1762 0.931 . S
H1749 C1764 0.930 . S
C1750 H1738 0.930 . S
C1750 C1751 1.399 . S
C1750 C1755 1.399 . S
C1751 C1750 1.399 . S
C1751 C1752 1.376 . S
C1752 H1739 0.930 . S
C1752 C1751 1.376 . S
C1752 C1753 1.388 . S
C1753 H1740 0.930 1_556 S
C1753 C1752 1.388 . S
C1753 C1754 1.390 . S
C1754 C1753 1.390 . S
C1754 C1755 1.394 . S
C1754 C1760 1.465 . S
C1755 C1750 1.399 . S
C1755 C1754 1.394 . S
C1755 C1756 1.516 . S
C1756 C1755 1.516 . S
C1756 C1757 1.502 . S
C1756 C1758 1.561 . S
C1756 C1759 1.526 . S
C1757 H1741 0.959 . S
C1757 H1742 0.959 . S
C1757 H1743 0.961 . S
C1757 C1756 1.502 . S
C1758 H1744 0.960 . S
C1758 H1745 0.961 . S
C1758 H1746 0.959 . S
C1758 C1756 1.561 . S
C1759 C1756 1.526 . S
C1759 C1760 1.396 . S
C1759 C1764 1.390 . S
C1760 C1754 1.465 . S
C1760 C1759 1.396 . S
C1760 C1761 1.399 . S
C1761 H1747 0.929 1_556 S
C1761 C1760 1.399 . S
C1761 C1762 1.385 . S
C1762 H1748 0.931 . S
C1762 C1761 1.385 . S
C1762 C1763 1.389 . S
C1763 C1762 1.389 . S
C1763 C1764 1.387 . S
C1764 H1749 0.930 . S
C1764 C1759 1.390 . S
C1764 C1763 1.387 . S
H1765 C1777 0.930 . S
H1766 C1779 0.930 . S
H1767 C1780 0.930 . S
H1768 C1784 0.959 . S
H1769 C1784 0.959 . S
H1770 C1784 0.961 . S
H1771 C1785 0.960 . S
H1772 C1785 0.961 . S
H1773 C1785 0.959 . S
H1774 C1788 0.929 . S
H1775 C1789 0.931 . S
H1776 C1791 0.930 . S
C1777 H1765 0.930 . S
C1777 C1778 1.399 . S
C1777 C1782 1.399 . S
C1778 C1777 1.399 . S
C1778 C1779 1.376 . S
C1779 H1766 0.930 . S
C1779 C1778 1.376 . S
C1779 C1780 1.388 . S
C1780 H1767 0.930 . S
C1780 C1779 1.388 . S
C1780 C1781 1.390 . S
C1781 C1780 1.390 . S
C1781 C1782 1.394 . S
C1781 C1787 1.465 . S
C1782 C1777 1.399 . S
C1782 C1781 1.394 . S
C1782 C1783 1.516 . S
C1783 C1782 1.516 . S
C1783 C1784 1.502 . S
C1783 C1785 1.561 . S
C1783 C1786 1.526 . S
C1784 H1768 0.959 . S
C1784 H1769 0.959 . S
C1784 H1770 0.961 . S
C1784 C1783 1.502 . S
C1785 H1771 0.960 . S
C1785 H1772 0.961 . S
C1785 H1773 0.959 . S
C1785 C1783 1.561 . S
C1786 C1783 1.526 . S
C1786 C1787 1.396 . S
C1786 C1791 1.390 . S
C1787 C1781 1.465 . S
C1787 C1786 1.396 . S
C1787 C1788 1.399 . S
C1788 H1774 0.929 . S
C1788 C1787 1.399 . S
C1788 C1789 1.385 . S
C1789 H1775 0.931 . S
C1789 C1788 1.385 . S
C1789 C1790 1.389 . S
C1790 C1789 1.389 . S
C1790 C1791 1.387 . S
C1791 H1776 0.930 . S
C1791 C1786 1.390 . S
C1791 C1790 1.387 . S
H1792 C1804 0.930 . S
H1793 C1806 0.930 . S
H1794 C1807 0.930 . S
H1795 C1811 0.959 . S
H1796 C1811 0.959 . S
H1797 C1811 0.961 . S
H1798 C1812 0.960 . S
H1799 C1812 0.961 . S
H1800 C1812 0.959 . S
H1801 C1815 0.929 . S
H1802 C1816 0.931 . S
H1803 C1818 0.930 . S
C1804 H1792 0.930 . S
C1804 C1805 1.399 . S
C1804 C1809 1.399 . S
C1805 C1804 1.399 . S
C1805 C1806 1.376 . S
C1806 H1793 0.930 . S
C1806 C1805 1.376 . S
C1806 C1807 1.388 . S
C1807 H1794 0.930 . S
C1807 C1806 1.388 . S
C1807 C1808 1.390 . S
C1808 C1807 1.390 . S
C1808 C1809 1.394 . S
C1808 C1814 1.465 . S
C1809 C1804 1.399 . S
C1809 C1808 1.394 . S
C1809 C1810 1.516 . S
C1810 C1809 1.516 . S
C1810 C1811 1.502 . S
C1810 C1812 1.561 . S
C1810 C1813 1.526 . S
C1811 H1795 0.959 . S
C1811 H1796 0.959 . S
C1811 H1797 0.961 . S
C1811 C1810 1.502 . S
C1812 H1798 0.960 . S
C1812 H1799 0.961 . S
C1812 H1800 0.959 . S
C1812 C1810 1.561 . S
C1813 C1810 1.526 . S
C1813 C1814 1.396 . S
C1813 C1818 1.390 . S
C1814 C1808 1.465 . S
C1814 C1813 1.396 . S
C1814 C1815 1.399 . S
C1815 H1801 0.929 . S
C1815 C1814 1.399 . S
C1815 C1816 1.385 . S
C1816 H1802 0.931 . S
C1816 C1815 1.385 . S
C1816 C1817 1.389 . S
C1817 C1816 1.389 . S
C1817 C1818 1.387 . S
C1818 H1803 0.930 . S
C1818 C1813 1.390 . S
C1818 C1817 1.387 . S
H1819 C1831 0.930 . S
H1820 C1833 0.930 . S
H1821 C1834 0.930 . S
H1822 C1838 0.959 . S
H1823 C1838 0.959 . S
H1824 C1838 0.961 . S
H1825 C1839 0.960 . S
H1826 C1839 0.961 . S
H1827 C1839 0.959 . S
H1828 C1842 0.929 . S
H1829 C1843 0.931 . S
H1830 C1845 0.930 . S
C1831 H1819 0.930 . S
C1831 C1832 1.399 . S
C1831 C1836 1.399 . S
C1832 C1831 1.399 . S
C1832 C1833 1.376 . S
C1833 H1820 0.930 . S
C1833 C1832 1.376 . S
C1833 C1834 1.388 . S
C1834 H1821 0.930 . S
C1834 C1833 1.388 . S
C1834 C1835 1.390 . S
C1835 C1834 1.390 . S
C1835 C1836 1.394 . S
C1835 C1841 1.465 . S
C1836 C1831 1.399 . S
C1836 C1835 1.394 . S
C1836 C1837 1.516 . S
C1837 C1836 1.516 . S
C1837 C1838 1.502 . S
C1837 C1839 1.561 . S
C1837 C1840 1.526 . S
C1838 H1822 0.959 . S
C1838 H1823 0.959 . S
C1838 H1824 0.961 . S
C1838 C1837 1.502 . S
C1839 H1825 0.960 . S
C1839 H1826 0.961 . S
C1839 H1827 0.959 . S
C1839 C1837 1.561 . S
C1840 C1837 1.526 . S
C1840 C1841 1.396 . S
C1840 C1845 1.390 . S
C1841 C1835 1.465 . S
C1841 C1840 1.396 . S
C1841 C1842 1.399 . S
C1842 H1828 0.929 . S
C1842 C1841 1.399 . S
C1842 C1843 1.385 . S
C1843 H1829 0.931 . S
C1843 C1842 1.385 . S
C1843 C1844 1.389 . S
C1844 C1843 1.389 . S
C1844 C1845 1.387 . S
C1845 H1830 0.930 . S
C1845 C1840 1.390 . S
C1845 C1844 1.387 . S
H1846 C1858 0.930 . S
H1847 C1860 0.930 . S
H1848 C1861 0.930 . S
H1849 C1865 0.959 . S
H1850 C1865 0.959 . S
H1851 C1865 0.961 . S
H1852 C1866 0.960 . S
H1853 C1866 0.961 . S
H1854 C1866 0.959 . S
H1855 C1869 0.929 . S
H1856 C1870 0.931 . S
H1857 C1872 0.930 . S
C1858 H1846 0.930 . S
C1858 C1859 1.399 . S
C1858 C1863 1.399 . S
C1859 C1858 1.399 . S
C1859 C1860 1.376 . S
C1860 H1847 0.930 . S
C1860 C1859 1.376 . S
C1860 C1861 1.388 . S
C1861 H1848 0.930 . S
C1861 C1860 1.388 . S
C1861 C1862 1.390 . S
C1862 C1861 1.390 . S
C1862 C1863 1.394 . S
C1862 C1868 1.465 . S
C1863 C1858 1.399 . S
C1863 C1862 1.394 . S
C1863 C1864 1.516 . S
C1864 C1863 1.516 . S
C1864 C1865 1.502 . S
C1864 C1866 1.561 . S
C1864 C1867 1.526 . S
C1865 H1849 0.959 . S
C1865 H1850 0.959 . S
C1865 H1851 0.961 . S
C1865 C1864 1.502 . S
C1866 H1852 0.960 . S
C1866 H1853 0.961 . S
C1866 H1854 0.959 . S
C1866 C1864 1.561 . S
C1867 C1864 1.526 . S
C1867 C1868 1.396 . S
C1867 C1872 1.390 . S
C1868 C1862 1.465 . S
C1868 C1867 1.396 . S
C1868 C1869 1.399 . S
C1869 H1855 0.929 . S
C1869 C1868 1.399 . S
C1869 C1870 1.385 . S
C1870 H1856 0.931 . S
C1870 C1869 1.385 . S
C1870 C1871 1.389 . S
C1871 C1870 1.389 . S
C1871 C1872 1.387 . S
C1872 H1857 0.930 . S
C1872 C1867 1.390 . S
C1872 C1871 1.387 . S
H1873 C1885 0.930 . S
H1874 C1887 0.930 . S
H1875 C1888 0.930 . S
H1876 C1892 0.959 . S
H1877 C1892 0.959 . S
H1878 C1892 0.961 . S
H1879 C1893 0.960 . S
H1880 C1893 0.961 . S
H1881 C1893 0.959 . S
H1882 C1896 0.929 . S
H1883 C1897 0.931 . S
H1884 C1899 0.930 . S
C1885 H1873 0.930 . S
C1885 C1886 1.399 . S
C1885 C1890 1.399 . S
C1886 C1885 1.399 . S
C1886 C1887 1.376 . S
C1887 H1874 0.930 . S
C1887 C1886 1.376 . S
C1887 C1888 1.388 . S
C1888 H1875 0.930 . S
C1888 C1887 1.388 . S
C1888 C1889 1.390 . S
C1889 C1888 1.390 . S
C1889 C1890 1.394 . S
C1889 C1895 1.465 . S
C1890 C1885 1.399 . S
C1890 C1889 1.394 . S
C1890 C1891 1.516 . S
C1891 C1890 1.516 . S
C1891 C1892 1.502 . S
C1891 C1893 1.561 . S
C1891 C1894 1.526 . S
C1892 H1876 0.959 . S
C1892 H1877 0.959 . S
C1892 H1878 0.961 . S
C1892 C1891 1.502 . S
C1893 H1879 0.960 . S
C1893 H1880 0.961 . S
C1893 H1881 0.959 . S
C1893 C1891 1.561 . S
C1894 C1891 1.526 . S
C1894 C1895 1.396 . S
C1894 C1899 1.390 . S
C1895 C1889 1.465 . S
C1895 C1894 1.396 . S
C1895 C1896 1.399 . S
C1896 H1882 0.929 . S
C1896 C1895 1.399 . S
C1896 C1897 1.385 . S
C1897 H1883 0.931 . S
C1897 C1896 1.385 . S
C1897 C1898 1.389 . S
C1898 C1897 1.389 . S
C1898 C1899 1.387 . S
C1899 H1884 0.930 . S
C1899 C1894 1.390 . S
C1899 C1898 1.387 . S
H1900 C1912 0.930 . S
H1901 C1914 0.930 . S
H1902 C1915 0.930 . S
H1903 C1919 0.959 . S
H1904 C1919 0.959 . S
H1905 C1919 0.961 . S
H1906 C1920 0.960 . S
H1907 C1920 0.961 . S
H1908 C1920 0.959 . S
H1909 C1923 0.929 . S
H1910 C1924 0.931 . S
H1911 C1926 0.930 . S
C1912 H1900 0.930 . S
C1912 C1913 1.399 . S
C1912 C1917 1.399 . S
C1913 C1912 1.399 . S
C1913 C1914 1.376 . S
C1914 H1901 0.930 . S
C1914 C1913 1.376 . S
C1914 C1915 1.388 . S
C1915 H1902 0.930 . S
C1915 C1914 1.388 . S
C1915 C1916 1.390 . S
C1916 C1915 1.390 . S
C1916 C1917 1.394 . S
C1916 C1922 1.465 . S
C1917 C1912 1.399 . S
C1917 C1916 1.394 . S
C1917 C1918 1.516 . S
C1918 C1917 1.516 . S
C1918 C1919 1.502 . S
C1918 C1920 1.561 . S
C1918 C1921 1.526 . S
C1919 H1903 0.959 . S
C1919 H1904 0.959 . S
C1919 H1905 0.961 . S
C1919 C1918 1.502 . S
C1920 H1906 0.960 . S
C1920 H1907 0.961 . S
C1920 H1908 0.959 . S
C1920 C1918 1.561 . S
C1921 C1918 1.526 . S
C1921 C1922 1.396 . S
C1921 C1926 1.390 . S
C1922 C1916 1.465 . S
C1922 C1921 1.396 . S
C1922 C1923 1.399 . S
C1923 H1909 0.929 . S
C1923 C1922 1.399 . S
C1923 C1924 1.385 . S
C1924 H1910 0.931 . S
C1924 C1923 1.385 . S
C1924 C1925 1.389 . S
C1925 C1924 1.389 . S
C1925 C1926 1.387 . S
C1926 H1911 0.930 . S
C1926 C1921 1.390 . S
C1926 C1925 1.387 . S
H1927 C1939 0.930 . S
H1928 C1941 0.930 . S
H1929 C1942 0.930 . S
H1930 C1946 0.959 . S
H1931 C1946 0.959 . S
H1932 C1946 0.961 . S
H1933 C1947 0.960 . S
H1934 C1947 0.961 . S
H1935 C1947 0.959 . S
H1936 C1950 0.929 . S
H1937 C1951 0.931 . S
H1938 C1953 0.930 . S
C1939 H1927 0.930 . S
C1939 C1940 1.399 . S
C1939 C1944 1.399 . S
C1940 C1939 1.399 . S
C1940 C1941 1.376 . S
C1941 H1928 0.930 . S
C1941 C1940 1.376 . S
C1941 C1942 1.388 . S
C1942 H1929 0.930 . S
C1942 C1941 1.388 . S
C1942 C1943 1.390 . S
C1943 C1942 1.390 . S
C1943 C1944 1.394 . S
C1943 C1949 1.465 . S
C1944 C1939 1.399 . S
C1944 C1943 1.394 . S
C1944 C1945 1.516 . S
C1945 C1944 1.516 . S
C1945 C1946 1.502 . S
C1945 C1947 1.561 . S
C1945 C1948 1.526 . S
C1946 H1930 0.959 . S
C1946 H1931 0.959 . S
C1946 H1932 0.961 . S
C1946 C1945 1.502 . S
C1947 H1933 0.960 . S
C1947 H1934 0.961 . S
C1947 H1935 0.959 . S
C1947 C1945 1.561 . S
C1948 C1945 1.526 . S
C1948 C1949 1.396 . S
C1948 C1953 1.390 . S
C1949 C1943 1.465 . S
C1949 C1948 1.396 . S
C1949 C1950 1.399 . S
C1950 H1936 0.929 . S
C1950 C1949 1.399 . S
C1950 C1951 1.385 . S
C1951 H1937 0.931 . S
C1951 C1950 1.385 . S
C1951 C1952 1.389 . S
C1952 C1951 1.389 . S
C1952 C1953 1.387 . S
C1953 H1938 0.930 . S
C1953 C1948 1.390 . S
C1953 C1952 1.387 . S
H1954 C1966 0.930 . S
H1955 C1968 0.930 . S
H1956 C1969 0.930 . S
H1957 C1973 0.959 . S
H1958 C1973 0.959 . S
H1959 C1973 0.961 . S
H1960 C1974 0.960 . S
H1961 C1974 0.961 . S
H1962 C1974 0.959 . S
H1963 C1977 0.929 . S
H1964 C1978 0.931 . S
H1965 C1980 0.930 . S
C1966 H1954 0.930 . S
C1966 C1967 1.399 . S
C1966 C1971 1.399 . S
C1967 C1966 1.399 . S
C1967 C1968 1.376 . S
C1968 H1955 0.930 . S
C1968 C1967 1.376 . S
C1968 C1969 1.388 . S
C1969 H1956 0.930 . S
C1969 C1968 1.388 . S
C1969 C1970 1.390 . S
C1970 C1969 1.390 . S
C1970 C1971 1.394 . S
C1970 C1976 1.465 . S
C1971 C1966 1.399 . S
C1971 C1970 1.394 . S
C1971 C1972 1.516 . S
C1972 C1971 1.516 . S
C1972 C1973 1.502 . S
C1972 C1974 1.561 . S
C1972 C1975 1.526 . S
C1973 H1957 0.959 . S
C1973 H1958 0.959 . S
C1973 H1959 0.961 . S
C1973 C1972 1.502 . S
C1974 H1960 0.960 . S
C1974 H1961 0.961 . S
C1974 H1962 0.959 . S
C1974 C1972 1.561 . S
C1975 C1972 1.526 . S
C1975 C1976 1.396 . S
C1975 C1980 1.390 . S
C1976 C1970 1.465 . S
C1976 C1975 1.396 . S
C1976 C1977 1.399 . S
C1977 H1963 0.929 . S
C1977 C1976 1.399 . S
C1977 C1978 1.385 . S
C1978 H1964 0.931 . S
C1978 C1977 1.385 . S
C1978 C1979 1.389 . S
C1979 C1978 1.389 . S
C1979 C1980 1.387 . S
C1980 H1965 0.930 . S
C1980 C1975 1.390 . S
C1980 C1979 1.387 . S
H1981 C1993 0.930 . S
H1982 C1995 0.930 . S
H1983 C1996 0.930 . S
H1984 C2000 0.959 . S
H1985 C2000 0.959 . S
H1986 C2000 0.961 . S
H1987 C2001 0.960 . S
H1988 C2001 0.961 . S
H1989 C2001 0.959 . S
H1990 C2004 0.929 . S
H1991 C2005 0.931 . S
H1992 C2007 0.930 . S
C1993 H1981 0.930 . S
C1993 C1994 1.399 . S
C1993 C1998 1.399 . S
C1994 C1993 1.399 . S
C1994 C1995 1.376 . S
C1995 H1982 0.930 . S
C1995 C1994 1.376 . S
C1995 C1996 1.388 . S
C1996 H1983 0.930 . S
C1996 C1995 1.388 . S
C1996 C1997 1.390 . S
C1997 C1996 1.390 . S
C1997 C1998 1.394 . S
C1997 C2003 1.465 . S
C1998 C1993 1.399 . S
C1998 C1997 1.394 . S
C1998 C1999 1.516 . S
C1999 C1998 1.516 . S
C1999 C2000 1.502 . S
C1999 C2001 1.561 . S
C1999 C2002 1.526 . S
C2000 H1984 0.959 . S
C2000 H1985 0.959 . S
C2000 H1986 0.961 . S
C2000 C1999 1.502 . S
C2001 H1987 0.960 . S
C2001 H1988 0.961 . S
C2001 H1989 0.959 . S
C2001 C1999 1.561 . S
C2002 C1999 1.526 . S
C2002 C2003 1.396 . S
C2002 C2007 1.390 . S
C2003 C1997 1.465 . S
C2003 C2002 1.396 . S
C2003 C2004 1.399 . S
C2004 H1990 0.929 . S
C2004 C2003 1.399 . S
C2004 C2005 1.385 . S
C2005 H1991 0.931 . S
C2005 C2004 1.385 . S
C2005 C2006 1.389 . S
C2006 C2005 1.389 . S
C2006 C2007 1.387 . S
C2007 H1992 0.930 . S
C2007 C2002 1.390 . S
C2007 C2006 1.387 . S
H2008 C2020 0.930 . S
H2009 C2022 0.930 . S
H2010 C2023 0.930 . S
H2011 C2027 0.959 . S
H2012 C2027 0.959 . S
H2013 C2027 0.961 . S
H2014 C2028 0.960 . S
H2015 C2028 0.961 . S
H2016 C2028 0.959 . S
H2017 C2031 0.929 . S
H2018 C2032 0.931 . S
H2019 C2034 0.930 . S
C2020 H2008 0.930 . S
C2020 C2021 1.399 . S
C2020 C2025 1.399 . S
C2021 C2020 1.399 . S
C2021 C2022 1.376 . S
C2022 H2009 0.930 . S
C2022 C2021 1.376 . S
C2022 C2023 1.388 . S
C2023 H2010 0.930 . S
C2023 C2022 1.388 . S
C2023 C2024 1.390 . S
C2024 C2023 1.390 . S
C2024 C2025 1.394 . S
C2024 C2030 1.465 . S
C2025 C2020 1.399 . S
C2025 C2024 1.394 . S
C2025 C2026 1.516 . S
C2026 C2025 1.516 . S
C2026 C2027 1.502 . S
C2026 C2028 1.561 . S
C2026 C2029 1.526 . S
C2027 H2011 0.959 . S
C2027 H2012 0.959 . S
C2027 H2013 0.961 . S
C2027 C2026 1.502 . S
C2028 H2014 0.960 . S
C2028 H2015 0.961 . S
C2028 H2016 0.959 . S
C2028 C2026 1.561 . S
C2029 C2026 1.526 . S
C2029 C2030 1.396 . S
C2029 C2034 1.390 . S
C2030 C2024 1.465 . S
C2030 C2029 1.396 . S
C2030 C2031 1.399 . S
C2031 H2017 0.929 . S
C2031 C2030 1.399 . S
C2031 C2032 1.385 . S
C2032 H2018 0.931 . S
C2032 C2031 1.385 . S
C2032 C2033 1.389 . S
C2033 C2032 1.389 . S
C2033 C2034 1.387 . S
C2034 H2019 0.930 . S
C2034 C2029 1.390 . S
C2034 C2033 1.387 . S
H2035 C2047 0.930 . S
H2036 C2049 0.930 1_565 S
H2037 C2050 0.930 . S
H2038 C2054 0.959 . S
H2039 C2054 0.959 . S
H2040 C2054 0.961 . S
H2041 C2055 0.960 . S
H2042 C2055 0.961 . S
H2043 C2055 0.959 . S
H2044 C2058 0.929 . S
H2045 C2059 0.931 . S
H2046 C2061 0.930 . S
C2047 H2035 0.930 . S
C2047 C2048 1.399 . S
C2047 C2052 1.399 . S
C2048 C2047 1.399 . S
C2048 C2049 1.376 . S
C2049 H2036 0.930 1_545 S
C2049 C2048 1.376 . S
C2049 C2050 1.388 . S
C2050 H2037 0.930 . S
C2050 C2049 1.388 . S
C2050 C2051 1.390 . S
C2051 C2050 1.390 . S
C2051 C2052 1.394 . S
C2051 C2057 1.465 . S
C2052 C2047 1.399 . S
C2052 C2051 1.394 . S
C2052 C2053 1.516 . S
C2053 C2052 1.516 . S
C2053 C2054 1.502 . S
C2053 C2055 1.561 . S
C2053 C2056 1.526 . S
C2054 H2038 0.959 . S
C2054 H2039 0.959 . S
C2054 H2040 0.961 . S
C2054 C2053 1.502 . S
C2055 H2041 0.960 . S
C2055 H2042 0.961 . S
C2055 H2043 0.959 . S
C2055 C2053 1.561 . S
C2056 C2053 1.526 . S
C2056 C2057 1.396 . S
C2056 C2061 1.390 . S
C2057 C2051 1.465 . S
C2057 C2056 1.396 . S
C2057 C2058 1.399 . S
C2058 H2044 0.929 . S
C2058 C2057 1.399 . S
C2058 C2059 1.385 . S
C2059 H2045 0.931 . S
C2059 C2058 1.385 . S
C2059 C2060 1.389 . S
C2060 C2059 1.389 . S
C2060 C2061 1.387 . S
C2061 H2046 0.930 . S
C2061 C2056 1.390 . S
C2061 C2060 1.387 . S
H2062 C2074 0.930 . S
H2063 C2076 0.930 1_545 S
H2064 C2077 0.930 . S
H2065 C2081 0.959 . S
H2066 C2081 0.959 . S
H2067 C2081 0.961 . S
H2068 C2082 0.960 . S
H2069 C2082 0.961 . S
H2070 C2082 0.959 . S
H2071 C2085 0.929 . S
H2072 C2086 0.931 . S
H2073 C2088 0.930 . S
C2074 H2062 0.930 . S
C2074 C2075 1.399 . S
C2074 C2079 1.399 . S
C2075 C2074 1.399 . S
C2075 C2076 1.376 . S
C2076 H2063 0.930 1_565 S
C2076 C2075 1.376 . S
C2076 C2077 1.388 . S
C2077 H2064 0.930 . S
C2077 C2076 1.388 . S
C2077 C2078 1.390 . S
C2078 C2077 1.390 . S
C2078 C2079 1.394 . S
C2078 C2084 1.465 . S
C2079 C2074 1.399 . S
C2079 C2078 1.394 . S
C2079 C2080 1.516 . S
C2080 C2079 1.516 . S
C2080 C2081 1.502 . S
C2080 C2082 1.561 . S
C2080 C2083 1.526 . S
C2081 H2065 0.959 . S
C2081 H2066 0.959 . S
C2081 H2067 0.961 . S
C2081 C2080 1.502 . S
C2082 H2068 0.960 . S
C2082 H2069 0.961 . S
C2082 H2070 0.959 . S
C2082 C2080 1.561 . S
C2083 C2080 1.526 . S
C2083 C2084 1.396 . S
C2083 C2088 1.390 . S
C2084 C2078 1.465 . S
C2084 C2083 1.396 . S
C2084 C2085 1.399 . S
C2085 H2071 0.929 . S
C2085 C2084 1.399 . S
C2085 C2086 1.385 . S
C2086 H2072 0.931 . S
C2086 C2085 1.385 . S
C2086 C2087 1.389 . S
C2087 C2086 1.389 . S
C2087 C2088 1.387 . S
C2088 H2073 0.930 . S
C2088 C2083 1.390 . S
C2088 C2087 1.387 . S
H2089 C2101 0.930 . S
H2090 C2103 0.930 1_545 S
H2091 C2104 0.930 . S
H2092 C2108 0.959 . S
H2093 C2108 0.959 . S
H2094 C2108 0.961 . S
H2095 C2109 0.960 . S
H2096 C2109 0.961 . S
H2097 C2109 0.959 . S
H2098 C2112 0.929 . S
H2099 C2113 0.931 . S
H2100 C2115 0.930 . S
C2101 H2089 0.930 . S
C2101 C2102 1.399 . S
C2101 C2106 1.399 . S
C2102 C2101 1.399 . S
C2102 C2103 1.376 . S
C2103 H2090 0.930 1_565 S
C2103 C2102 1.376 . S
C2103 C2104 1.388 . S
C2104 H2091 0.930 . S
C2104 C2103 1.388 . S
C2104 C2105 1.390 . S
C2105 C2104 1.390 . S
C2105 C2106 1.394 . S
C2105 C2111 1.465 . S
C2106 C2101 1.399 . S
C2106 C2105 1.394 . S
C2106 C2107 1.516 . S
C2107 C2106 1.516 . S
C2107 C2108 1.502 . S
C2107 C2109 1.561 . S
C2107 C2110 1.526 . S
C2108 H2092 0.959 . S
C2108 H2093 0.959 . S
C2108 H2094 0.961 . S
C2108 C2107 1.502 . S
C2109 H2095 0.960 . S
C2109 H2096 0.961 . S
C2109 H2097 0.959 . S
C2109 C2107 1.561 . S
C2110 C2107 1.526 . S
C2110 C2111 1.396 . S
C2110 C2115 1.390 . S
C2111 C2105 1.465 . S
C2111 C2110 1.396 . S
C2111 C2112 1.399 . S
C2112 H2098 0.929 . S
C2112 C2111 1.399 . S
C2112 C2113 1.385 . S
C2113 H2099 0.931 . S
C2113 C2112 1.385 . S
C2113 C2114 1.389 . S
C2114 C2113 1.389 . S
C2114 C2115 1.387 . S
C2115 H2100 0.930 . S
C2115 C2110 1.390 . S
C2115 C2114 1.387 . S
H2116 C2128 0.930 . S
H2117 C2130 0.930 . S
H2118 C2131 0.930 . S
H2119 C2135 0.959 . S
H2120 C2135 0.959 . S
H2121 C2135 0.961 . S
H2122 C2136 0.960 . S
H2123 C2136 0.961 . S
H2124 C2136 0.959 . S
H2125 C2139 0.929 . S
H2126 C2140 0.931 . S
H2127 C2142 0.930 . S
C2128 H2116 0.930 . S
C2128 C2129 1.399 . S
C2128 C2133 1.399 . S
C2129 C2128 1.399 . S
C2129 C2130 1.376 . S
C2130 H2117 0.930 . S
C2130 C2129 1.376 . S
C2130 C2131 1.388 . S
C2131 H2118 0.930 . S
C2131 C2130 1.388 . S
C2131 C2132 1.390 . S
C2132 C2131 1.390 . S
C2132 C2133 1.394 . S
C2132 C2138 1.465 . S
C2133 C2128 1.399 . S
C2133 C2132 1.394 . S
C2133 C2134 1.516 . S
C2134 C2133 1.516 . S
C2134 C2135 1.502 . S
C2134 C2136 1.561 . S
C2134 C2137 1.526 . S
C2135 H2119 0.959 . S
C2135 H2120 0.959 . S
C2135 H2121 0.961 . S
C2135 C2134 1.502 . S
C2136 H2122 0.960 . S
C2136 H2123 0.961 . S
C2136 H2124 0.959 . S
C2136 C2134 1.561 . S
C2137 C2134 1.526 . S
C2137 C2138 1.396 . S
C2137 C2142 1.390 . S
C2138 C2132 1.465 . S
C2138 C2137 1.396 . S
C2138 C2139 1.399 . S
C2139 H2125 0.929 . S
C2139 C2138 1.399 . S
C2139 C2140 1.385 . S
C2140 H2126 0.931 . S
C2140 C2139 1.385 . S
C2140 C2141 1.389 . S
C2141 C2140 1.389 . S
C2141 C2142 1.387 . S
C2142 H2127 0.930 . S
C2142 C2137 1.390 . S
C2142 C2141 1.387 . S
H2143 C2155 0.930 . S
H2144 C2157 0.930 . S
H2145 C2158 0.930 . S
H2146 C2162 0.959 . S
H2147 C2162 0.959 . S
H2148 C2162 0.961 . S
H2149 C2163 0.960 . S
H2150 C2163 0.961 . S
H2151 C2163 0.959 . S
H2152 C2166 0.929 . S
H2153 C2167 0.931 . S
H2154 C2169 0.930 . S
C2155 H2143 0.930 . S
C2155 C2156 1.399 . S
C2155 C2160 1.399 . S
C2156 C2155 1.399 . S
C2156 C2157 1.376 . S
C2157 H2144 0.930 . S
C2157 C2156 1.376 . S
C2157 C2158 1.388 . S
C2158 H2145 0.930 . S
C2158 C2157 1.388 . S
C2158 C2159 1.390 . S
C2159 C2158 1.390 . S
C2159 C2160 1.394 . S
C2159 C2165 1.465 . S
C2160 C2155 1.399 . S
C2160 C2159 1.394 . S
C2160 C2161 1.516 . S
C2161 C2160 1.516 . S
C2161 C2162 1.502 . S
C2161 C2163 1.561 . S
C2161 C2164 1.526 . S
C2162 H2146 0.959 . S
C2162 H2147 0.959 . S
C2162 H2148 0.961 . S
C2162 C2161 1.502 . S
C2163 H2149 0.960 . S
C2163 H2150 0.961 . S
C2163 H2151 0.959 . S
C2163 C2161 1.561 . S
C2164 C2161 1.526 . S
C2164 C2165 1.396 . S
C2164 C2169 1.390 . S
C2165 C2159 1.465 . S
C2165 C2164 1.396 . S
C2165 C2166 1.399 . S
C2166 H2152 0.929 . S
C2166 C2165 1.399 . S
C2166 C2167 1.385 . S
C2167 H2153 0.931 . S
C2167 C2166 1.385 . S
C2167 C2168 1.389 . S
C2168 C2167 1.389 . S
C2168 C2169 1.387 . S
C2169 H2154 0.930 . S
C2169 C2164 1.390 . S
C2169 C2168 1.387 . S
H2170 C2182 0.930 . S
H2171 C2184 0.930 . S
H2172 C2185 0.930 . S
H2173 C2189 0.959 . S
H2174 C2189 0.959 . S
H2175 C2189 0.961 . S
H2176 C2190 0.960 . S
H2177 C2190 0.961 . S
H2178 C2190 0.959 . S
H2179 C2193 0.929 . S
H2180 C2194 0.931 . S
H2181 C2196 0.930 . S
C2182 H2170 0.930 . S
C2182 C2183 1.399 . S
C2182 C2187 1.399 . S
C2183 C2182 1.399 . S
C2183 C2184 1.376 . S
C2184 H2171 0.930 . S
C2184 C2183 1.376 . S
C2184 C2185 1.388 . S
C2185 H2172 0.930 . S
C2185 C2184 1.388 . S
C2185 C2186 1.390 . S
C2186 C2185 1.390 . S
C2186 C2187 1.394 . S
C2186 C2192 1.465 . S
C2187 C2182 1.399 . S
C2187 C2186 1.394 . S
C2187 C2188 1.516 . S
C2188 C2187 1.516 . S
C2188 C2189 1.502 . S
C2188 C2190 1.561 . S
C2188 C2191 1.526 . S
C2189 H2173 0.959 . S
C2189 H2174 0.959 . S
C2189 H2175 0.961 . S
C2189 C2188 1.502 . S
C2190 H2176 0.960 . S
C2190 H2177 0.961 . S
C2190 H2178 0.959 . S
C2190 C2188 1.561 . S
C2191 C2188 1.526 . S
C2191 C2192 1.396 . S
C2191 C2196 1.390 . S
C2192 C2186 1.465 . S
C2192 C2191 1.396 . S
C2192 C2193 1.399 . S
C2193 H2179 0.929 . S
C2193 C2192 1.399 . S
C2193 C2194 1.385 . S
C2194 H2180 0.931 . S
C2194 C2193 1.385 . S
C2194 C2195 1.389 . S
C2195 C2194 1.389 . S
C2195 C2196 1.387 . S
C2196 H2181 0.930 . S
C2196 C2191 1.390 . S
C2196 C2195 1.387 . S
H2197 C2209 0.930 . S
H2198 C2211 0.930 . S
H2199 C2212 0.930 . S
H2200 C2216 0.959 . S
H2201 C2216 0.959 . S
H2202 C2216 0.961 . S
H2203 C2217 0.960 . S
H2204 C2217 0.961 . S
H2205 C2217 0.959 . S
H2206 C2220 0.929 . S
H2207 C2221 0.931 . S
H2208 C2223 0.930 . S
C2209 H2197 0.930 . S
C2209 C2210 1.399 . S
C2209 C2214 1.399 . S
C2210 C2209 1.399 . S
C2210 C2211 1.376 . S
C2211 H2198 0.930 . S
C2211 C2210 1.376 . S
C2211 C2212 1.388 . S
C2212 H2199 0.930 . S
C2212 C2211 1.388 . S
C2212 C2213 1.390 . S
C2213 C2212 1.390 . S
C2213 C2214 1.394 . S
C2213 C2219 1.465 . S
C2214 C2209 1.399 . S
C2214 C2213 1.394 . S
C2214 C2215 1.516 . S
C2215 C2214 1.516 . S
C2215 C2216 1.502 . S
C2215 C2217 1.561 . S
C2215 C2218 1.526 . S
C2216 H2200 0.959 . S
C2216 H2201 0.959 . S
C2216 H2202 0.961 . S
C2216 C2215 1.502 . S
C2217 H2203 0.960 . S
C2217 H2204 0.961 . S
C2217 H2205 0.959 . S
C2217 C2215 1.561 . S
C2218 C2215 1.526 . S
C2218 C2219 1.396 . S
C2218 C2223 1.390 . S
C2219 C2213 1.465 . S
C2219 C2218 1.396 . S
C2219 C2220 1.399 . S
C2220 H2206 0.929 . S
C2220 C2219 1.399 . S
C2220 C2221 1.385 . S
C2221 H2207 0.931 . S
C2221 C2220 1.385 . S
C2221 C2222 1.389 . S
C2222 C2221 1.389 . S
C2222 C2223 1.387 . S
C2223 H2208 0.930 . S
C2223 C2218 1.390 . S
C2223 C2222 1.387 . S
H2224 C2236 0.930 . S
H2225 C2238 0.930 . S
H2226 C2239 0.930 . S
H2227 C2243 0.959 . S
H2228 C2243 0.959 . S
H2229 C2243 0.961 . S
H2230 C2244 0.960 . S
H2231 C2244 0.961 . S
H2232 C2244 0.959 . S
H2233 C2247 0.929 . S
H2234 C2248 0.931 . S
H2235 C2250 0.930 . S
C2236 H2224 0.930 . S
C2236 C2237 1.399 . S
C2236 C2241 1.399 . S
C2237 C2236 1.399 . S
C2237 C2238 1.376 . S
C2238 H2225 0.930 . S
C2238 C2237 1.376 . S
C2238 C2239 1.388 . S
C2239 H2226 0.930 . S
C2239 C2238 1.388 . S
C2239 C2240 1.390 . S
C2240 C2239 1.390 . S
C2240 C2241 1.394 . S
C2240 C2246 1.465 . S
C2241 C2236 1.399 . S
C2241 C2240 1.394 . S
C2241 C2242 1.516 . S
C2242 C2241 1.516 . S
C2242 C2243 1.502 . S
C2242 C2244 1.561 . S
C2242 C2245 1.526 . S
C2243 H2227 0.959 . S
C2243 H2228 0.959 . S
C2243 H2229 0.961 . S
C2243 C2242 1.502 . S
C2244 H2230 0.960 . S
C2244 H2231 0.961 . S
C2244 H2232 0.959 . S
C2244 C2242 1.561 . S
C2245 C2242 1.526 . S
C2245 C2246 1.396 . S
C2245 C2250 1.390 . S
C2246 C2240 1.465 . S
C2246 C2245 1.396 . S
C2246 C2247 1.399 . S
C2247 H2233 0.929 . S
C2247 C2246 1.399 . S
C2247 C2248 1.385 . S
C2248 H2234 0.931 . S
C2248 C2247 1.385 . S
C2248 C2249 1.389 . S
C2249 C2248 1.389 . S
C2249 C2250 1.387 . S
C2250 H2235 0.930 . S
C2250 C2245 1.390 . S
C2250 C2249 1.387 . S
H2251 C2263 0.930 . S
H2252 C2265 0.930 . S
H2253 C2266 0.930 . S
H2254 C2270 0.959 . S
H2255 C2270 0.959 . S
H2256 C2270 0.961 . S
H2257 C2271 0.960 . S
H2258 C2271 0.961 . S
H2259 C2271 0.959 . S
H2260 C2274 0.929 . S
H2261 C2275 0.931 . S
H2262 C2277 0.930 . S
C2263 H2251 0.930 . S
C2263 C2264 1.399 . S
C2263 C2268 1.399 . S
C2264 C2263 1.399 . S
C2264 C2265 1.376 . S
C2265 H2252 0.930 . S
C2265 C2264 1.376 . S
C2265 C2266 1.388 . S
C2266 H2253 0.930 . S
C2266 C2265 1.388 . S
C2266 C2267 1.390 . S
C2267 C2266 1.390 . S
C2267 C2268 1.394 . S
C2267 C2273 1.465 . S
C2268 C2263 1.399 . S
C2268 C2267 1.394 . S
C2268 C2269 1.516 . S
C2269 C2268 1.516 . S
C2269 C2270 1.502 . S
C2269 C2271 1.561 . S
C2269 C2272 1.526 . S
C2270 H2254 0.959 . S
C2270 H2255 0.959 . S
C2270 H2256 0.961 . S
C2270 C2269 1.502 . S
C2271 H2257 0.960 . S
C2271 H2258 0.961 . S
C2271 H2259 0.959 . S
C2271 C2269 1.561 . S
C2272 C2269 1.526 . S
C2272 C2273 1.396 . S
C2272 C2277 1.390 . S
C2273 C2267 1.465 . S
C2273 C2272 1.396 . S
C2273 C2274 1.399 . S
C2274 H2260 0.929 . S
C2274 C2273 1.399 . S
C2274 C2275 1.385 . S
C2275 H2261 0.931 . S
C2275 C2274 1.385 . S
C2275 C2276 1.389 . S
C2276 C2275 1.389 . S
C2276 C2277 1.387 . S
C2277 H2262 0.930 . S
C2277 C2272 1.390 . S
C2277 C2276 1.387 . S
H2278 C2290 0.930 . S
H2279 C2292 0.930 . S
H2280 C2293 0.930 . S
H2281 C2297 0.959 . S
H2282 C2297 0.959 . S
H2283 C2297 0.961 . S
H2284 C2298 0.960 . S
H2285 C2298 0.961 . S
H2286 C2298 0.959 . S
H2287 C2301 0.929 . S
H2288 C2302 0.931 . S
H2289 C2304 0.930 . S
C2290 H2278 0.930 . S
C2290 C2291 1.399 . S
C2290 C2295 1.399 . S
C2291 C2290 1.399 . S
C2291 C2292 1.376 . S
C2292 H2279 0.930 . S
C2292 C2291 1.376 . S
C2292 C2293 1.388 . S
C2293 H2280 0.930 . S
C2293 C2292 1.388 . S
C2293 C2294 1.390 . S
C2294 C2293 1.390 . S
C2294 C2295 1.394 . S
C2294 C2300 1.465 . S
C2295 C2290 1.399 . S
C2295 C2294 1.394 . S
C2295 C2296 1.516 . S
C2296 C2295 1.516 . S
C2296 C2297 1.502 . S
C2296 C2298 1.561 . S
C2296 C2299 1.526 . S
C2297 H2281 0.959 . S
C2297 H2282 0.959 . S
C2297 H2283 0.961 . S
C2297 C2296 1.502 . S
C2298 H2284 0.960 . S
C2298 H2285 0.961 . S
C2298 H2286 0.959 . S
C2298 C2296 1.561 . S
C2299 C2296 1.526 . S
C2299 C2300 1.396 . S
C2299 C2304 1.390 . S
C2300 C2294 1.465 . S
C2300 C2299 1.396 . S
C2300 C2301 1.399 . S
C2301 H2287 0.929 . S
C2301 C2300 1.399 . S
C2301 C2302 1.385 . S
C2302 H2288 0.931 . S
C2302 C2301 1.385 . S
C2302 C2303 1.389 . S
C2303 C2302 1.389 . S
C2303 C2304 1.387 . S
C2304 H2289 0.930 . S
C2304 C2299 1.390 . S
C2304 C2303 1.387 . S
H2305 C2317 0.930 . S
H2306 C2319 0.930 . S
H2307 C2320 0.930 . S
H2308 C2324 0.959 1_545 S
H2309 C2324 0.959 . S
H2310 C2324 0.961 . S
H2311 C2325 0.960 1_565 S
H2312 C2325 0.961 1_565 S
H2313 C2325 0.959 . S
H2314 C2328 0.929 . S
H2315 C2329 0.931 . S
H2316 C2331 0.930 . S
C2317 H2305 0.930 . S
C2317 C2318 1.399 . S
C2317 C2322 1.399 . S
C2318 C2317 1.399 . S
C2318 C2319 1.376 . S
C2319 H2306 0.930 . S
C2319 C2318 1.376 . S
C2319 C2320 1.388 . S
C2320 H2307 0.930 . S
C2320 C2319 1.388 . S
C2320 C2321 1.390 . S
C2321 C2320 1.390 . S
C2321 C2322 1.394 . S
C2321 C2327 1.465 . S
C2322 C2317 1.399 . S
C2322 C2321 1.394 . S
C2322 C2323 1.516 . S
C2323 C2322 1.516 . S
C2323 C2324 1.502 1_545 S
C2323 C2325 1.561 . S
C2323 C2326 1.526 . S
C2324 H2308 0.959 1_565 S
C2324 H2309 0.959 . S
C2324 H2310 0.961 . S
C2324 C2323 1.502 1_565 S
C2325 H2311 0.960 1_545 S
C2325 H2312 0.961 1_545 S
C2325 H2313 0.959 . S
C2325 C2323 1.561 . S
C2326 C2323 1.526 . S
C2326 C2327 1.396 . S
C2326 C2331 1.390 . S
C2327 C2321 1.465 . S
C2327 C2326 1.396 . S
C2327 C2328 1.399 . S
C2328 H2314 0.929 . S
C2328 C2327 1.399 . S
C2328 C2329 1.385 . S
C2329 H2315 0.931 . S
C2329 C2328 1.385 . S
C2329 C2330 1.389 . S
C2330 C2329 1.389 . S
C2330 C2331 1.387 . S
C2331 H2316 0.930 . S
C2331 C2326 1.390 . S
C2331 C2330 1.387 . S
H2332 C2344 0.930 . S
H2333 C2346 0.930 . S
H2334 C2347 0.930 . S
H2335 C2351 0.959 . S
H2336 C2351 0.959 . S
H2337 C2351 0.961 . S
H2338 C2352 0.960 . S
H2339 C2352 0.961 . S
H2340 C2352 0.959 . S
H2341 C2355 0.929 . S
H2342 C2356 0.931 . S
H2343 C2358 0.930 . S
C2344 H2332 0.930 . S
C2344 C2345 1.399 . S
C2344 C2349 1.399 . S
C2345 C2344 1.399 . S
C2345 C2346 1.376 . S
C2346 H2333 0.930 . S
C2346 C2345 1.376 . S
C2346 C2347 1.388 . S
C2347 H2334 0.930 . S
C2347 C2346 1.388 . S
C2347 C2348 1.390 . S
C2348 C2347 1.390 . S
C2348 C2349 1.394 . S
C2348 C2354 1.465 . S
C2349 C2344 1.399 . S
C2349 C2348 1.394 . S
C2349 C2350 1.516 . S
C2350 C2349 1.516 . S
C2350 C2351 1.502 . S
C2350 C2352 1.561 . S
C2350 C2353 1.526 . S
C2351 H2335 0.959 . S
C2351 H2336 0.959 . S
C2351 H2337 0.961 . S
C2351 C2350 1.502 . S
C2352 H2338 0.960 . S
C2352 H2339 0.961 . S
C2352 H2340 0.959 . S
C2352 C2350 1.561 . S
C2353 C2350 1.526 . S
C2353 C2354 1.396 . S
C2353 C2358 1.390 . S
C2354 C2348 1.465 . S
C2354 C2353 1.396 . S
C2354 C2355 1.399 . S
C2355 H2341 0.929 . S
C2355 C2354 1.399 . S
C2355 C2356 1.385 . S
C2356 H2342 0.931 . S
C2356 C2355 1.385 . S
C2356 C2357 1.389 . S
C2357 C2356 1.389 . S
C2357 C2358 1.387 . S
C2358 H2343 0.930 . S
C2358 C2353 1.390 . S
C2358 C2357 1.387 . S
H2359 C2371 0.930 . S
H2360 C2373 0.930 . S
H2361 C2374 0.930 . S
H2362 C2378 0.959 . S
H2363 C2378 0.959 . S
H2364 C2378 0.961 . S
H2365 C2379 0.960 . S
H2366 C2379 0.961 . S
H2367 C2379 0.959 . S
H2368 C2382 0.929 . S
H2369 C2383 0.931 . S
H2370 C2385 0.930 . S
C2371 H2359 0.930 . S
C2371 C2372 1.399 . S
C2371 C2376 1.399 . S
C2372 C2371 1.399 . S
C2372 C2373 1.376 . S
C2373 H2360 0.930 . S
C2373 C2372 1.376 . S
C2373 C2374 1.388 . S
C2374 H2361 0.930 . S
C2374 C2373 1.388 . S
C2374 C2375 1.390 . S
C2375 C2374 1.390 . S
C2375 C2376 1.394 . S
C2375 C2381 1.465 . S
C2376 C2371 1.399 . S
C2376 C2375 1.394 . S
C2376 C2377 1.516 . S
C2377 C2376 1.516 . S
C2377 C2378 1.502 . S
C2377 C2379 1.561 . S
C2377 C2380 1.526 . S
C2378 H2362 0.959 . S
C2378 H2363 0.959 . S
C2378 H2364 0.961 . S
C2378 C2377 1.502 . S
C2379 H2365 0.960 . S
C2379 H2366 0.961 . S
C2379 H2367 0.959 . S
C2379 C2377 1.561 . S
C2380 C2377 1.526 . S
C2380 C2381 1.396 . S
C2380 C2385 1.390 . S
C2381 C2375 1.465 . S
C2381 C2380 1.396 . S
C2381 C2382 1.399 . S
C2382 H2368 0.929 . S
C2382 C2381 1.399 . S
C2382 C2383 1.385 . S
C2383 H2369 0.931 . S
C2383 C2382 1.385 . S
C2383 C2384 1.389 . S
C2384 C2383 1.389 . S
C2384 C2385 1.387 . S
C2385 H2370 0.930 . S
C2385 C2380 1.390 . S
C2385 C2384 1.387 . S
H2386 C2398 0.930 . S
H2387 C2400 0.930 . S
H2388 C2401 0.930 . S
H2389 C2405 0.959 . S
H2390 C2405 0.959 . S
H2391 C2405 0.961 . S
H2392 C2406 0.960 . S
H2393 C2406 0.961 . S
H2394 C2406 0.959 . S
H2395 C2409 0.929 . S
H2396 C2410 0.931 . S
H2397 C2412 0.930 . S
C2398 H2386 0.930 . S
C2398 C2399 1.399 . S
C2398 C2403 1.399 . S
C2399 C2398 1.399 . S
C2399 C2400 1.376 . S
C2400 H2387 0.930 . S
C2400 C2399 1.376 . S
C2400 C2401 1.388 . S
C2401 H2388 0.930 . S
C2401 C2400 1.388 . S
C2401 C2402 1.390 . S
C2402 C2401 1.390 . S
C2402 C2403 1.394 . S
C2402 C2408 1.465 . S
C2403 C2398 1.399 . S
C2403 C2402 1.394 . S
C2403 C2404 1.516 . S
C2404 C2403 1.516 . S
C2404 C2405 1.502 . S
C2404 C2406 1.561 . S
C2404 C2407 1.526 . S
C2405 H2389 0.959 . S
C2405 H2390 0.959 . S
C2405 H2391 0.961 . S
C2405 C2404 1.502 . S
C2406 H2392 0.960 . S
C2406 H2393 0.961 . S
C2406 H2394 0.959 . S
C2406 C2404 1.561 . S
C2407 C2404 1.526 . S
C2407 C2408 1.396 . S
C2407 C2412 1.390 . S
C2408 C2402 1.465 . S
C2408 C2407 1.396 . S
C2408 C2409 1.399 . S
C2409 H2395 0.929 . S
C2409 C2408 1.399 . S
C2409 C2410 1.385 . S
C2410 H2396 0.931 . S
C2410 C2409 1.385 . S
C2410 C2411 1.389 . S
C2411 C2410 1.389 . S
C2411 C2412 1.387 . S
C2412 H2397 0.930 . S
C2412 C2407 1.390 . S
C2412 C2411 1.387 . S
H2413 C2425 0.930 . S
H2414 C2427 0.930 . S
H2415 C2428 0.930 . S
H2416 C2432 0.959 . S
H2417 C2432 0.959 . S
H2418 C2432 0.961 . S
H2419 C2433 0.960 . S
H2420 C2433 0.961 . S
H2421 C2433 0.959 . S
H2422 C2436 0.929 . S
H2423 C2437 0.931 . S
H2424 C2439 0.930 . S
C2425 H2413 0.930 . S
C2425 C2426 1.399 . S
C2425 C2430 1.399 . S
C2426 C2425 1.399 . S
C2426 C2427 1.376 . S
C2427 H2414 0.930 . S
C2427 C2426 1.376 . S
C2427 C2428 1.388 . S
C2428 H2415 0.930 . S
C2428 C2427 1.388 . S
C2428 C2429 1.390 . S
C2429 C2428 1.390 . S
C2429 C2430 1.394 . S
C2429 C2435 1.465 . S
C2430 C2425 1.399 . S
C2430 C2429 1.394 . S
C2430 C2431 1.516 . S
C2431 C2430 1.516 . S
C2431 C2432 1.502 . S
C2431 C2433 1.561 . S
C2431 C2434 1.526 . S
C2432 H2416 0.959 . S
C2432 H2417 0.959 . S
C2432 H2418 0.961 . S
C2432 C2431 1.502 . S
C2433 H2419 0.960 . S
C2433 H2420 0.961 . S
C2433 H2421 0.959 . S
C2433 C2431 1.561 . S
C2434 C2431 1.526 . S
C2434 C2435 1.396 . S
C2434 C2439 1.390 . S
C2435 C2429 1.465 . S
C2435 C2434 1.396 . S
C2435 C2436 1.399 . S
C2436 H2422 0.929 . S
C2436 C2435 1.399 . S
C2436 C2437 1.385 . S
C2437 H2423 0.931 . S
C2437 C2436 1.385 . S
C2437 C2438 1.389 . S
C2438 C2437 1.389 . S
C2438 C2439 1.387 . S
C2439 H2424 0.930 . S
C2439 C2434 1.390 . S
C2439 C2438 1.387 . S
H2440 C2452 0.930 . S
H2441 C2454 0.930 . S
H2442 C2455 0.930 . S
H2443 C2459 0.959 . S
H2444 C2459 0.959 . S
H2445 C2459 0.961 . S
H2446 C2460 0.960 . S
H2447 C2460 0.961 . S
H2448 C2460 0.959 . S
H2449 C2463 0.929 . S
H2450 C2464 0.931 . S
H2451 C2466 0.930 . S
C2452 H2440 0.930 . S
C2452 C2453 1.399 . S
C2452 C2457 1.399 . S
C2453 C2452 1.399 . S
C2453 C2454 1.376 . S
C2454 H2441 0.930 . S
C2454 C2453 1.376 . S
C2454 C2455 1.388 . S
C2455 H2442 0.930 . S
C2455 C2454 1.388 . S
C2455 C2456 1.390 . S
C2456 C2455 1.390 . S
C2456 C2457 1.394 . S
C2456 C2462 1.465 . S
C2457 C2452 1.399 . S
C2457 C2456 1.394 . S
C2457 C2458 1.516 . S
C2458 C2457 1.516 . S
C2458 C2459 1.502 . S
C2458 C2460 1.561 . S
C2458 C2461 1.526 . S
C2459 H2443 0.959 . S
C2459 H2444 0.959 . S
C2459 H2445 0.961 . S
C2459 C2458 1.502 . S
C2460 H2446 0.960 . S
C2460 H2447 0.961 . S
C2460 H2448 0.959 . S
C2460 C2458 1.561 . S
C2461 C2458 1.526 . S
C2461 C2462 1.396 . S
C2461 C2466 1.390 . S
C2462 C2456 1.465 . S
C2462 C2461 1.396 . S
C2462 C2463 1.399 . S
C2463 H2449 0.929 . S
C2463 C2462 1.399 . S
C2463 C2464 1.385 . S
C2464 H2450 0.931 . S
C2464 C2463 1.385 . S
C2464 C2465 1.389 . S
C2465 C2464 1.389 . S
C2465 C2466 1.387 . S
C2466 H2451 0.930 . S
C2466 C2461 1.390 . S
C2466 C2465 1.387 . S
H2467 C2479 0.930 . S
H2468 C2481 0.930 . S
H2469 C2482 0.930 . S
H2470 C2486 0.959 . S
H2471 C2486 0.959 . S
H2472 C2486 0.961 . S
H2473 C2487 0.960 . S
H2474 C2487 0.961 . S
H2475 C2487 0.959 . S
H2476 C2490 0.929 . S
H2477 C2491 0.931 . S
H2478 C2493 0.930 . S
C2479 H2467 0.930 . S
C2479 C2480 1.399 . S
C2479 C2484 1.399 . S
C2480 C2479 1.399 . S
C2480 C2481 1.376 . S
C2481 H2468 0.930 . S
C2481 C2480 1.376 . S
C2481 C2482 1.388 . S
C2482 H2469 0.930 . S
C2482 C2481 1.388 . S
C2482 C2483 1.390 . S
C2483 C2482 1.390 . S
C2483 C2484 1.394 . S
C2483 C2489 1.465 . S
C2484 C2479 1.399 . S
C2484 C2483 1.394 . S
C2484 C2485 1.516 . S
C2485 C2484 1.516 . S
C2485 C2486 1.502 . S
C2485 C2487 1.561 . S
C2485 C2488 1.526 . S
C2486 H2470 0.959 . S
C2486 H2471 0.959 . S
C2486 H2472 0.961 . S
C2486 C2485 1.502 . S
C2487 H2473 0.960 . S
C2487 H2474 0.961 . S
C2487 H2475 0.959 . S
C2487 C2485 1.561 . S
C2488 C2485 1.526 . S
C2488 C2489 1.396 . S
C2488 C2493 1.390 . S
C2489 C2483 1.465 . S
C2489 C2488 1.396 . S
C2489 C2490 1.399 . S
C2490 H2476 0.929 . S
C2490 C2489 1.399 . S
C2490 C2491 1.385 . S
C2491 H2477 0.931 . S
C2491 C2490 1.385 . S
C2491 C2492 1.389 . S
C2492 C2491 1.389 . S
C2492 C2493 1.387 . S
C2493 H2478 0.930 . S
C2493 C2488 1.390 . S
C2493 C2492 1.387 . S
H2494 C2506 0.930 . S
H2495 C2508 0.930 . S
H2496 C2509 0.930 . S
H2497 C2513 0.959 . S
H2498 C2513 0.959 . S
H2499 C2513 0.961 . S
H2500 C2514 0.960 . S
H2501 C2514 0.961 . S
H2502 C2514 0.959 . S
H2503 C2517 0.929 . S
H2504 C2518 0.931 . S
H2505 C2520 0.930 . S
C2506 H2494 0.930 . S
C2506 C2507 1.399 . S
C2506 C2511 1.399 . S
C2507 C2506 1.399 . S
C2507 C2508 1.376 . S
C2508 H2495 0.930 . S
C2508 C2507 1.376 . S
C2508 C2509 1.388 . S
C2509 H2496 0.930 . S
C2509 C2508 1.388 . S
C2509 C2510 1.390 . S
C2510 C2509 1.390 . S
C2510 C2511 1.394 . S
C2510 C2516 1.465 . S
C2511 C2506 1.399 . S
C2511 C2510 1.394 . S
C2511 C2512 1.516 . S
C2512 C2511 1.516 . S
C2512 C2513 1.502 . S
C2512 C2514 1.561 . S
C2512 C2515 1.526 . S
C2513 H2497 0.959 . S
C2513 H2498 0.959 . S
C2513 H2499 0.961 . S
C2513 C2512 1.502 . S
C2514 H2500 0.960 . S
C2514 H2501 0.961 . S
C2514 H2502 0.959 . S
C2514 C2512 1.561 . S
C2515 C2512 1.526 . S
C2515 C2516 1.396 . S
C2515 C2520 1.390 . S
C2516 C2510 1.465 . S
C2516 C2515 1.396 . S
C2516 C2517 1.399 . S
C2517 H2503 0.929 . S
C2517 C2516 1.399 . S
C2517 C2518 1.385 . S
C2518 H2504 0.931 . S
C2518 C2517 1.385 . S
C2518 C2519 1.389 . S
C2519 C2518 1.389 . S
C2519 C2520 1.387 . S
C2520 H2505 0.930 . S
C2520 C2515 1.390 . S
C2520 C2519 1.387 . S
H2521 C2533 0.930 . S
H2522 C2535 0.930 . S
H2523 C2536 0.930 . S
H2524 C2540 0.959 . S
H2525 C2540 0.959 . S
H2526 C2540 0.961 . S
H2527 C2541 0.960 . S
H2528 C2541 0.961 . S
H2529 C2541 0.959 . S
H2530 C2544 0.929 . S
H2531 C2545 0.931 . S
H2532 C2547 0.930 . S
C2533 H2521 0.930 . S
C2533 C2534 1.399 . S
C2533 C2538 1.399 . S
C2534 C2533 1.399 . S
C2534 C2535 1.376 . S
C2535 H2522 0.930 . S
C2535 C2534 1.376 . S
C2535 C2536 1.388 . S
C2536 H2523 0.930 . S
C2536 C2535 1.388 . S
C2536 C2537 1.390 . S
C2537 C2536 1.390 . S
C2537 C2538 1.394 . S
C2537 C2543 1.465 . S
C2538 C2533 1.399 . S
C2538 C2537 1.394 . S
C2538 C2539 1.516 . S
C2539 C2538 1.516 . S
C2539 C2540 1.502 . S
C2539 C2541 1.561 . S
C2539 C2542 1.526 . S
C2540 H2524 0.959 . S
C2540 H2525 0.959 . S
C2540 H2526 0.961 . S
C2540 C2539 1.502 . S
C2541 H2527 0.960 . S
C2541 H2528 0.961 . S
C2541 H2529 0.959 . S
C2541 C2539 1.561 . S
C2542 C2539 1.526 . S
C2542 C2543 1.396 . S
C2542 C2547 1.390 . S
C2543 C2537 1.465 . S
C2543 C2542 1.396 . S
C2543 C2544 1.399 . S
C2544 H2530 0.929 . S
C2544 C2543 1.399 . S
C2544 C2545 1.385 . S
C2545 H2531 0.931 . S
C2545 C2544 1.385 . S
C2545 C2546 1.389 . S
C2546 C2545 1.389 . S
C2546 C2547 1.387 . S
C2547 H2532 0.930 . S
C2547 C2542 1.390 . S
C2547 C2546 1.387 . S
H2548 C2560 0.930 . S
H2549 C2562 0.930 . S
H2550 C2563 0.930 . S
H2551 C2567 0.959 . S
H2552 C2567 0.959 . S
H2553 C2567 0.961 . S
H2554 C2568 0.960 . S
H2555 C2568 0.961 . S
H2556 C2568 0.959 . S
H2557 C2571 0.929 . S
H2558 C2572 0.931 . S
H2559 C2574 0.930 . S
C2560 H2548 0.930 . S
C2560 C2561 1.399 . S
C2560 C2565 1.399 . S
C2561 C2560 1.399 . S
C2561 C2562 1.376 . S
C2562 H2549 0.930 . S
C2562 C2561 1.376 . S
C2562 C2563 1.388 . S
C2563 H2550 0.930 . S
C2563 C2562 1.388 . S
C2563 C2564 1.390 . S
C2564 C2563 1.390 . S
C2564 C2565 1.394 . S
C2564 C2570 1.465 . S
C2565 C2560 1.399 . S
C2565 C2564 1.394 . S
C2565 C2566 1.516 . S
C2566 C2565 1.516 . S
C2566 C2567 1.502 . S
C2566 C2568 1.561 . S
C2566 C2569 1.526 . S
C2567 H2551 0.959 . S
C2567 H2552 0.959 . S
C2567 H2553 0.961 . S
C2567 C2566 1.502 . S
C2568 H2554 0.960 . S
C2568 H2555 0.961 . S
C2568 H2556 0.959 . S
C2568 C2566 1.561 . S
C2569 C2566 1.526 . S
C2569 C2570 1.396 . S
C2569 C2574 1.390 . S
C2570 C2564 1.465 . S
C2570 C2569 1.396 . S
C2570 C2571 1.399 . S
C2571 H2557 0.929 . S
C2571 C2570 1.399 . S
C2571 C2572 1.385 . S
C2572 H2558 0.931 . S
C2572 C2571 1.385 . S
C2572 C2573 1.389 . S
C2573 C2572 1.389 . S
C2573 C2574 1.387 . S
C2574 H2559 0.930 . S
C2574 C2569 1.390 . S
C2574 C2573 1.387 . S
H2575 C2587 0.930 . S
H2576 C2589 0.930 . S
H2577 C2590 0.930 . S
H2578 C2594 0.959 . S
H2579 C2594 0.959 . S
H2580 C2594 0.961 . S
H2581 C2595 0.960 . S
H2582 C2595 0.961 . S
H2583 C2595 0.959 . S
H2584 C2598 0.929 . S
H2585 C2599 0.931 . S
H2586 C2601 0.930 . S
C2587 H2575 0.930 . S
C2587 C2588 1.399 . S
C2587 C2592 1.399 . S
C2588 C2587 1.399 . S
C2588 C2589 1.376 . S
C2589 H2576 0.930 . S
C2589 C2588 1.376 . S
C2589 C2590 1.388 . S
C2590 H2577 0.930 . S
C2590 C2589 1.388 . S
C2590 C2591 1.390 . S
C2591 C2590 1.390 . S
C2591 C2592 1.394 . S
C2591 C2597 1.465 . S
C2592 C2587 1.399 . S
C2592 C2591 1.394 . S
C2592 C2593 1.516 . S
C2593 C2592 1.516 . S
C2593 C2594 1.502 . S
C2593 C2595 1.561 . S
C2593 C2596 1.526 . S
C2594 H2578 0.959 . S
C2594 H2579 0.959 . S
C2594 H2580 0.961 . S
C2594 C2593 1.502 . S
C2595 H2581 0.960 . S
C2595 H2582 0.961 . S
C2595 H2583 0.959 . S
C2595 C2593 1.561 . S
C2596 C2593 1.526 . S
C2596 C2597 1.396 . S
C2596 C2601 1.390 . S
C2597 C2591 1.465 . S
C2597 C2596 1.396 . S
C2597 C2598 1.399 . S
C2598 H2584 0.929 . S
C2598 C2597 1.399 . S
C2598 C2599 1.385 . S
C2599 H2585 0.931 . S
C2599 C2598 1.385 . S
C2599 C2600 1.389 . S
C2600 C2599 1.389 . S
C2600 C2601 1.387 . S
C2601 H2586 0.930 . S
C2601 C2596 1.390 . S
C2601 C2600 1.387 . S
H2602 C2614 0.930 . S
H2603 C2616 0.930 . S
H2604 C2617 0.930 . S
H2605 C2621 0.959 . S
H2606 C2621 0.959 . S
H2607 C2621 0.961 . S
H2608 C2622 0.960 . S
H2609 C2622 0.961 . S
H2610 C2622 0.959 . S
H2611 C2625 0.929 . S
H2612 C2626 0.931 . S
H2613 C2628 0.930 . S
C2614 H2602 0.930 . S
C2614 C2615 1.399 . S
C2614 C2619 1.399 . S
C2615 C2614 1.399 . S
C2615 C2616 1.376 . S
C2616 H2603 0.930 . S
C2616 C2615 1.376 . S
C2616 C2617 1.388 . S
C2617 H2604 0.930 . S
C2617 C2616 1.388 . S
C2617 C2618 1.390 . S
C2618 C2617 1.390 . S
C2618 C2619 1.394 . S
C2618 C2624 1.465 . S
C2619 C2614 1.399 . S
C2619 C2618 1.394 . S
C2619 C2620 1.516 . S
C2620 C2619 1.516 . S
C2620 C2621 1.502 . S
C2620 C2622 1.561 . S
C2620 C2623 1.526 . S
C2621 H2605 0.959 . S
C2621 H2606 0.959 . S
C2621 H2607 0.961 . S
C2621 C2620 1.502 . S
C2622 H2608 0.960 . S
C2622 H2609 0.961 . S
C2622 H2610 0.959 . S
C2622 C2620 1.561 . S
C2623 C2620 1.526 . S
C2623 C2624 1.396 . S
C2623 C2628 1.390 . S
C2624 C2618 1.465 . S
C2624 C2623 1.396 . S
C2624 C2625 1.399 . S
C2625 H2611 0.929 . S
C2625 C2624 1.399 . S
C2625 C2626 1.385 . S
C2626 H2612 0.931 . S
C2626 C2625 1.385 . S
C2626 C2627 1.389 . S
C2627 C2626 1.389 . S
C2627 C2628 1.387 . S
C2628 H2613 0.930 . S
C2628 C2623 1.390 . S
C2628 C2627 1.387 . S
H2629 C2641 0.930 . S
H2630 C2643 0.930 . S
H2631 C2644 0.930 . S
H2632 C2648 0.959 . S
H2633 C2648 0.959 . S
H2634 C2648 0.961 . S
H2635 C2649 0.960 . S
H2636 C2649 0.961 . S
H2637 C2649 0.959 . S
H2638 C2652 0.929 . S
H2639 C2653 0.931 . S
H2640 C2655 0.930 . S
C2641 H2629 0.930 . S
C2641 C2642 1.399 . S
C2641 C2646 1.399 . S
C2642 C2641 1.399 . S
C2642 C2643 1.376 . S
C2643 H2630 0.930 . S
C2643 C2642 1.376 . S
C2643 C2644 1.388 . S
C2644 H2631 0.930 . S
C2644 C2643 1.388 . S
C2644 C2645 1.390 . S
C2645 C2644 1.390 . S
C2645 C2646 1.394 . S
C2645 C2651 1.465 . S
C2646 C2641 1.399 . S
C2646 C2645 1.394 . S
C2646 C2647 1.516 . S
C2647 C2646 1.516 . S
C2647 C2648 1.502 . S
C2647 C2649 1.561 . S
C2647 C2650 1.526 . S
C2648 H2632 0.959 . S
C2648 H2633 0.959 . S
C2648 H2634 0.961 . S
C2648 C2647 1.502 . S
C2649 H2635 0.960 . S
C2649 H2636 0.961 . S
C2649 H2637 0.959 . S
C2649 C2647 1.561 . S
C2650 C2647 1.526 . S
C2650 C2651 1.396 . S
C2650 C2655 1.390 . S
C2651 C2645 1.465 . S
C2651 C2650 1.396 . S
C2651 C2652 1.399 . S
C2652 H2638 0.929 . S
C2652 C2651 1.399 . S
C2652 C2653 1.385 . S
C2653 H2639 0.931 . S
C2653 C2652 1.385 . S
C2653 C2654 1.389 . S
C2654 C2653 1.389 . S
C2654 C2655 1.387 . S
C2655 H2640 0.930 . S
C2655 C2650 1.390 . S
C2655 C2654 1.387 . S
H2656 C2668 0.930 . S
H2657 C2670 0.930 . S
H2658 C2671 0.930 . S
H2659 C2675 0.959 . S
H2660 C2675 0.959 . S
H2661 C2675 0.909 1_655 S
H2662 C2676 0.960 . S
H2663 C2676 0.961 1_455 S
H2664 C2676 0.959 . S
H2665 C2679 0.929 . S
H2666 C2680 0.931 . S
H2667 C2682 0.953 . S
C2668 H2656 0.930 . S
C2668 C2669 1.399 . S
C2668 C2673 1.399 . S
C2669 C2668 1.399 . S
C2669 C2670 1.376 1_554 S
C2670 H2657 0.930 . S
C2670 C2669 1.376 1_556 S
C2670 C2671 1.388 . S
C2671 H2658 0.930 . S
C2671 C2670 1.388 . S
C2671 C2672 1.390 . S
C2672 C2671 1.390 . S
C2672 C2673 1.394 1_556 S
C2672 C2678 1.465 1_655 S
C2673 C2668 1.399 . S
C2673 C2672 1.394 1_554 S
C2673 C2674 1.516 1_655 S
C2674 C2673 1.516 1_455 S
C2674 C2675 1.502 . S
C2674 C2676 1.561 1_455 S
C2674 C2677 1.526 . S
C2675 H2659 0.959 . S
C2675 H2660 0.959 . S
C2675 H2661 0.909 1_455 S
C2675 C2674 1.502 . S
C2676 H2662 0.960 . S
C2676 H2663 0.961 1_655 S
C2676 H2664 0.959 . S
C2676 C2674 1.561 1_655 S
C2677 C2674 1.526 . S
C2677 C2678 1.396 1_554 S
C2677 C2682 1.393 . S
C2678 C2672 1.465 1_455 S
C2678 C2677 1.396 1_556 S
C2678 C2679 1.399 . S
C2679 H2665 0.929 . S
C2679 C2678 1.399 . S
C2679 C2680 1.385 . S
C2680 H2666 0.931 . S
C2680 C2679 1.385 . S
C2680 C2681 1.389 . S
C2681 C2680 1.389 . S
C2681 C2682 1.361 1_556 S
C2682 H2667 0.953 . S
C2682 C2677 1.393 . S
C2682 C2681 1.361 1_554 S
H2683 C2695 0.903 1_556 S
H2684 C2697 0.930 . S
H2685 C2698 0.930 . S
H2686 C2702 0.959 . S
H2687 C2702 0.959 . S
H2688 C2702 0.961 . S
H2689 C2703 0.960 . S
H2690 C2703 0.961 . S
H2691 C2703 0.959 1_554 S
H2692 C2706 0.929 . S
H2693 C2707 0.931 . S
H2694 C2709 0.930 . S
C2695 H2683 0.903 1_554 S
C2695 C2696 1.431 . S
C2695 C2700 1.396 1_554 S
C2696 C2695 1.431 . S
C2696 C2697 1.376 . S
C2697 H2684 0.930 . S
C2697 C2696 1.376 . S
C2697 C2698 1.388 . S
C2698 H2685 0.930 . S
C2698 C2697 1.388 . S
C2698 C2699 1.390 . S
C2699 C2698 1.390 . S
C2699 C2700 1.394 1_554 S
C2699 C2705 1.465 . S
C2700 C2695 1.396 1_556 S
C2700 C2699 1.394 1_556 S
C2700 C2701 1.516 . S
C2701 C2700 1.516 . S
C2701 C2702 1.502 . S
C2701 C2703 1.561 . S
C2701 C2704 1.526 . S
C2702 H2686 0.959 . S
C2702 H2687 0.959 . S
C2702 H2688 0.961 . S
C2702 C2701 1.502 . S
C2703 H2689 0.960 . S
C2703 H2690 0.961 . S
C2703 H2691 0.959 1_556 S
C2703 C2701 1.561 . S
C2704 C2701 1.526 . S
C2704 C2705 1.396 1_556 S
C2704 C2709 1.390 . S
C2705 C2699 1.465 . S
C2705 C2704 1.396 1_554 S
C2705 C2706 1.399 . S
C2706 H2692 0.929 . S
C2706 C2705 1.399 . S
C2706 C2707 1.385 . S
C2707 H2693 0.931 . S
C2707 C2706 1.385 . S
C2707 C2708 1.389 1_554 S
C2708 C2707 1.389 1_556 S
C2708 C2709 1.387 . S
C2709 H2694 0.930 . S
C2709 C2704 1.390 . S
C2709 C2708 1.387 . S
H2710 C2722 0.930 . S
H2711 C2724 0.930 . S
H2712 C2725 0.930 . S
H2713 C2729 0.959 . S
H2714 C2729 0.959 . S
H2715 C2729 0.961 . S
H2716 C2730 0.960 . S
H2717 C2730 0.961 1_655 S
H2718 C2730 0.969 . S
H2719 C2733 0.929 . S
H2720 C2734 0.931 . S
H2721 C2736 0.930 . S
C2722 H2710 0.930 . S
C2722 C2723 1.399 . S
C2722 C2727 1.399 . S
C2723 C2722 1.399 . S
C2723 C2724 1.376 . S
C2724 H2711 0.930 . S
C2724 C2723 1.376 . S
C2724 C2725 1.388 . S
C2725 H2712 0.930 . S
C2725 C2724 1.388 . S
C2725 C2726 1.390 . S
C2726 C2725 1.390 . S
C2726 C2727 1.394 . S
C2726 C2732 1.465 1_455 S
C2727 C2722 1.399 . S
C2727 C2726 1.394 . S
C2727 C2728 1.516 . S
C2728 C2727 1.516 . S
C2728 C2729 1.502 . S
C2728 C2730 1.561 . S
C2728 C2731 1.526 1_455 S
C2729 H2713 0.959 . S
C2729 H2714 0.959 . S
C2729 H2715 0.961 . S
C2729 C2728 1.502 . S
C2730 H2716 0.960 . S
C2730 H2717 0.961 1_455 S
C2730 H2718 0.969 . S
C2730 C2728 1.561 . S
C2731 C2728 1.526 1_655 S
C2731 C2732 1.396 . S
C2731 C2736 1.390 . S
C2732 C2726 1.465 1_655 S
C2732 C2731 1.396 . S
C2732 C2733 1.399 . S
C2733 H2719 0.929 . S
C2733 C2732 1.399 . S
C2733 C2734 1.385 . S
C2734 H2720 0.931 . S
C2734 C2733 1.385 . S
C2734 C2735 1.389 . S
C2735 C2734 1.389 . S
C2735 C2736 1.387 . S
C2736 H2721 0.930 . S
C2736 C2731 1.390 . S
C2736 C2735 1.387 . S
H2737 C2749 0.930 . S
H2738 C2751 0.930 . S
H2739 C2752 0.930 . S
H2740 C2756 0.959 . S
H2741 C2756 0.959 . S
H2742 C2756 0.961 . S
H2743 C2757 0.960 . S
H2744 C2757 0.961 . S
H2745 C2757 0.959 . S
H2746 C2760 0.929 . S
H2747 C2761 0.931 . S
H2748 C2763 0.930 . S
C2749 H2737 0.930 . S
C2749 C2750 1.399 . S
C2749 C2754 1.399 . S
C2750 C2749 1.399 . S
C2750 C2751 1.376 . S
C2751 H2738 0.930 . S
C2751 C2750 1.376 . S
C2751 C2752 1.388 . S
C2752 H2739 0.930 . S
C2752 C2751 1.388 . S
C2752 C2753 1.390 . S
C2753 C2752 1.390 . S
C2753 C2754 1.394 . S
C2753 C2759 1.465 . S
C2754 C2749 1.399 . S
C2754 C2753 1.394 . S
C2754 C2755 1.516 . S
C2755 C2754 1.516 . S
C2755 C2756 1.502 . S
C2755 C2757 1.561 . S
C2755 C2758 1.526 . S
C2756 H2740 0.959 . S
C2756 H2741 0.959 . S
C2756 H2742 0.961 . S
C2756 C2755 1.502 . S
C2757 H2743 0.960 . S
C2757 H2744 0.961 . S
C2757 H2745 0.959 . S
C2757 C2755 1.561 . S
C2758 C2755 1.526 . S
C2758 C2759 1.396 . S
C2758 C2763 1.390 . S
C2759 C2753 1.465 . S
C2759 C2758 1.396 . S
C2759 C2760 1.399 . S
C2760 H2746 0.929 . S
C2760 C2759 1.399 . S
C2760 C2761 1.385 . S
C2761 H2747 0.931 . S
C2761 C2760 1.385 . S
C2761 C2762 1.389 . S
C2762 C2761 1.389 . S
C2762 C2763 1.387 . S
C2763 H2748 0.930 . S
C2763 C2758 1.390 . S
C2763 C2762 1.387 . S
H2764 C2776 0.930 . S
H2765 C2778 0.933 . S
H2766 C2779 0.930 . S
H2767 C2783 0.959 . S
H2768 C2783 0.959 . S
H2769 C2783 0.961 . S
H2770 C2784 0.960 . S
H2771 C2784 0.961 . S
H2772 C2784 0.959 . S
H2773 C2787 0.929 . S
H2774 C2788 0.931 . S
H2775 C2790 0.905 1_554 S
C2776 H2764 0.930 . S
C2776 C2777 1.399 . S
C2776 C2781 1.399 . S
C2777 C2776 1.399 . S
C2777 C2778 1.370 1_554 S
C2778 H2765 0.933 . S
C2778 C2777 1.370 1_556 S
C2778 C2779 1.392 . S
C2779 H2766 0.930 . S
C2779 C2778 1.392 . S
C2779 C2780 1.390 . S
C2780 C2779 1.390 . S
C2780 C2781 1.394 1_556 S
C2780 C2786 1.465 . S
C2781 C2776 1.399 . S
C2781 C2780 1.394 1_554 S
C2781 C2782 1.516 . S
C2782 C2781 1.516 . S
C2782 C2783 1.502 . S
C2782 C2784 1.561 . S
C2782 C2785 1.526 . S
C2783 H2767 0.959 . S
C2783 H2768 0.959 . S
C2783 H2769 0.961 . S
C2783 C2782 1.502 . S
C2784 H2770 0.960 . S
C2784 H2771 0.961 . S
C2784 H2772 0.959 . S
C2784 C2782 1.561 . S
C2785 C2782 1.526 . S
C2785 C2786 1.396 1_554 S
C2785 C2790 1.382 1_554 S
C2786 C2780 1.465 . S
C2786 C2785 1.396 1_556 S
C2786 C2787 1.399 . S
C2787 H2773 0.929 . S
C2787 C2786 1.399 . S
C2787 C2788 1.385 . S
C2788 H2774 0.931 . S
C2788 C2787 1.385 . S
C2788 C2789 1.389 . S
C2789 C2788 1.389 . S
C2789 C2790 1.421 . S
C2790 H2775 0.905 1_556 S
C2790 C2785 1.382 1_556 S
C2790 C2789 1.421 . S
H2791 C2803 0.930 . S
H2792 C2805 0.930 . S
H2793 C2806 0.930 . S
H2794 C2810 0.959 . S
H2795 C2810 0.959 1_455 S
H2796 C2810 0.961 . S
H2797 C2811 0.960 1_655 S
H2798 C2811 0.961 . S
H2799 C2811 0.959 . S
H2800 C2814 0.929 . S
H2801 C2815 0.931 . S
H2802 C2817 0.930 . S
C2803 H2791 0.930 . S
C2803 C2804 1.399 . S
C2803 C2808 1.399 . S
C2804 C2803 1.399 . S
C2804 C2805 1.376 . S
C2805 H2792 0.930 . S
C2805 C2804 1.376 . S
C2805 C2806 1.388 . S
C2806 H2793 0.930 . S
C2806 C2805 1.388 . S
C2806 C2807 1.390 . S
C2807 C2806 1.390 . S
C2807 C2808 1.394 . S
C2807 C2813 1.465 1_655 S
C2808 C2803 1.399 . S
C2808 C2807 1.394 . S
C2808 C2809 1.462 1_655 S
C2809 C2808 1.462 1_455 S
C2809 C2810 1.489 1_455 S
C2809 C2811 1.584 . S
C2809 C2812 1.578 . S
C2810 H2794 0.959 . S
C2810 H2795 0.959 1_655 S
C2810 H2796 0.961 . S
C2810 C2809 1.489 1_655 S
C2811 H2797 0.960 1_455 S
C2811 H2798 0.961 . S
C2811 H2799 0.959 . S
C2811 C2809 1.584 . S
C2812 C2809 1.578 . S
C2812 C2813 1.396 . S
C2812 C2817 1.390 . S
C2813 C2807 1.465 1_455 S
C2813 C2812 1.396 . S
C2813 C2814 1.399 . S
C2814 H2800 0.929 . S
C2814 C2813 1.399 . S
C2814 C2815 1.385 . S
C2815 H2801 0.931 . S
C2815 C2814 1.385 . S
C2815 C2816 1.389 . S
C2816 C2815 1.389 . S
C2816 C2817 1.387 . S
C2817 H2802 0.930 . S
C2817 C2812 1.390 . S
C2817 C2816 1.387 . S
H2818 C2830 0.930 . S
H2819 C2832 0.930 . S
H2820 C2833 0.930 . S
H2821 C2837 0.959 . S
H2822 C2837 0.959 . S
H2823 C2837 0.961 . S
H2824 C2838 0.960 . S
H2825 C2838 0.961 . S
H2826 C2838 0.959 . S
H2827 C2841 0.929 . S
H2828 C2842 0.931 . S
H2829 C2844 0.930 . S
C2830 H2818 0.930 . S
C2830 C2831 1.399 . S
C2830 C2835 1.399 . S
C2831 C2830 1.399 . S
C2831 C2832 1.376 . S
C2832 H2819 0.930 . S
C2832 C2831 1.376 . S
C2832 C2833 1.388 . S
C2833 H2820 0.930 . S
C2833 C2832 1.388 . S
C2833 C2834 1.390 . S
C2834 C2833 1.390 . S
C2834 C2835 1.394 . S
C2834 C2840 1.465 . S
C2835 C2830 1.399 . S
C2835 C2834 1.394 . S
C2835 C2836 1.516 . S
C2836 C2835 1.516 . S
C2836 C2837 1.502 . S
C2836 C2838 1.561 . S
C2836 C2839 1.526 . S
C2837 H2821 0.959 . S
C2837 H2822 0.959 . S
C2837 H2823 0.961 . S
C2837 C2836 1.502 . S
C2838 H2824 0.960 . S
C2838 H2825 0.961 . S
C2838 H2826 0.959 . S
C2838 C2836 1.561 . S
C2839 C2836 1.526 . S
C2839 C2840 1.396 . S
C2839 C2844 1.390 . S
C2840 C2834 1.465 . S
C2840 C2839 1.396 . S
C2840 C2841 1.399 . S
C2841 H2827 0.929 . S
C2841 C2840 1.399 . S
C2841 C2842 1.385 . S
C2842 H2828 0.931 . S
C2842 C2841 1.385 . S
C2842 C2843 1.389 . S
C2843 C2842 1.389 . S
C2843 C2844 1.387 . S
C2844 H2829 0.930 . S
C2844 C2839 1.390 . S
C2844 C2843 1.387 . S
H2845 C2857 0.930 . S
H2846 C2859 0.930 . S
H2847 C2860 0.930 . S
H2848 C2864 0.934 1_565 S
H2849 C2864 1.025 . S
H2850 C2864 0.970 . S
H2851 C2865 0.996 . S
H2852 C2865 0.936 1_455 S
H2853 C2865 0.943 1_455 S
H2854 C2868 0.929 . S
H2855 C2869 0.931 . S
H2856 C2871 0.930 1_545 S
C2857 H2845 0.930 . S
C2857 C2858 1.399 . S
C2857 C2862 1.399 . S
C2858 C2857 1.399 . S
C2858 C2859 1.376 . S
C2859 H2846 0.930 . S
C2859 C2858 1.376 . S
C2859 C2860 1.388 1_545 S
C2860 H2847 0.930 . S
C2860 C2859 1.388 1_565 S
C2860 C2861 1.390 1_565 S
C2861 C2860 1.390 1_545 S
C2861 C2862 1.394 . S
C2861 C2867 1.465 1_645 S
C2862 C2857 1.399 . S
C2862 C2861 1.394 . S
C2862 C2863 1.516 . S
C2863 C2862 1.516 . S
C2863 C2864 1.513 . S
C2863 C2865 1.567 . S
C2863 C2866 1.526 1_655 S
C2864 H2848 0.934 1_545 S
C2864 H2849 1.025 . S
C2864 H2850 0.970 . S
C2864 C2863 1.513 . S
C2865 H2851 0.996 . S
C2865 H2852 0.936 1_655 S
C2865 H2853 0.943 1_655 S
C2865 C2863 1.567 . S
C2866 C2863 1.526 1_455 S
C2866 C2867 1.396 1_545 S
C2866 C2871 1.390 1_545 S
C2867 C2861 1.465 1_465 S
C2867 C2866 1.396 1_565 S
C2867 C2868 1.399 . S
C2868 H2854 0.929 . S
C2868 C2867 1.399 . S
C2868 C2869 1.385 . S
C2869 H2855 0.931 . S
C2869 C2868 1.385 . S
C2869 C2870 1.389 . S
C2870 C2869 1.389 . S
C2870 C2871 1.387 . S
C2871 H2856 0.930 1_565 S
C2871 C2866 1.390 1_565 S
C2871 C2870 1.387 . S
H2872 C2884 0.930 . S
H2873 C2886 0.930 . S
H2874 C2887 0.930 . S
H2875 C2891 0.959 . S
H2876 C2891 0.959 . S
H2877 C2891 0.961 . S
H2878 C2892 0.960 . S
H2879 C2892 0.961 . S
H2880 C2892 0.959 . S
H2881 C2895 0.929 . S
H2882 C2896 0.931 . S
H2883 C2898 0.930 . S
C2884 H2872 0.930 . S
C2884 C2885 1.399 . S
C2884 C2889 1.399 . S
C2885 C2884 1.399 . S
C2885 C2886 1.376 . S
C2886 H2873 0.930 . S
C2886 C2885 1.376 . S
C2886 C2887 1.388 . S
C2887 H2874 0.930 . S
C2887 C2886 1.388 . S
C2887 C2888 1.390 . S
C2888 C2887 1.390 . S
C2888 C2889 1.394 . S
C2888 C2894 1.465 . S
C2889 C2884 1.399 . S
C2889 C2888 1.394 . S
C2889 C2890 1.516 . S
C2890 C2889 1.516 . S
C2890 C2891 1.502 . S
C2890 C2892 1.561 . S
C2890 C2893 1.526 . S
C2891 H2875 0.959 . S
C2891 H2876 0.959 . S
C2891 H2877 0.961 . S
C2891 C2890 1.502 . S
C2892 H2878 0.960 . S
C2892 H2879 0.961 . S
C2892 H2880 0.959 . S
C2892 C2890 1.561 . S
C2893 C2890 1.526 . S
C2893 C2894 1.396 . S
C2893 C2898 1.390 . S
C2894 C2888 1.465 . S
C2894 C2893 1.396 . S
C2894 C2895 1.399 . S
C2895 H2881 0.929 . S
C2895 C2894 1.399 . S
C2895 C2896 1.385 . S
C2896 H2882 0.931 . S
C2896 C2895 1.385 . S
C2896 C2897 1.389 . S
C2897 C2896 1.389 . S
C2897 C2898 1.387 . S
C2898 H2883 0.930 . S
C2898 C2893 1.390 . S
C2898 C2897 1.387 . S
H2899 C2911 0.930 . S
H2900 C2913 0.930 . S
H2901 C2914 0.930 . S
H2902 C2918 0.959 1_565 S
H2903 C2918 0.959 . S
H2904 C2918 0.961 . S
H2905 C2919 0.960 . S
H2906 C2919 0.961 . S
H2907 C2919 0.959 . S
H2908 C2922 0.929 . S
H2909 C2923 0.931 . S
H2910 C2925 0.930 . S
C2911 H2899 0.930 . S
C2911 C2912 1.399 . S
C2911 C2916 1.399 . S
C2912 C2911 1.399 . S
C2912 C2913 1.376 1_545 S
C2913 H2900 0.930 . S
C2913 C2912 1.376 1_565 S
C2913 C2914 1.388 . S
C2914 H2901 0.930 . S
C2914 C2913 1.388 . S
C2914 C2915 1.390 . S
C2915 C2914 1.390 . S
C2915 C2916 1.394 1_565 S
C2915 C2921 1.465 . S
C2916 C2911 1.399 . S
C2916 C2915 1.394 1_545 S
C2916 C2917 1.516 . S
C2917 C2916 1.516 . S
C2917 C2918 1.502 . S
C2917 C2919 1.561 . S
C2917 C2920 1.526 . S
C2918 H2902 0.959 1_545 S
C2918 H2903 0.959 . S
C2918 H2904 0.961 . S
C2918 C2917 1.502 . S
C2919 H2905 0.960 . S
C2919 H2906 0.961 . S
C2919 H2907 0.959 . S
C2919 C2917 1.561 . S
C2920 C2917 1.526 . S
C2920 C2921 1.396 1_545 S
C2920 C2925 1.390 . S
C2921 C2915 1.465 . S
C2921 C2920 1.396 1_565 S
C2921 C2922 1.399 . S
C2922 H2908 0.929 . S
C2922 C2921 1.399 . S
C2922 C2923 1.385 . S
C2923 H2909 0.931 . S
C2923 C2922 1.385 . S
C2923 C2924 1.389 . S
C2924 C2923 1.389 . S
C2924 C2925 1.387 1_565 S
C2925 H2910 0.930 . S
C2925 C2920 1.390 . S
C2925 C2924 1.387 1_545 S
H2926 C2938 0.930 . S
H2927 C2940 0.930 . S
H2928 C2941 0.930 . S
H2929 C2945 0.959 . S
H2930 C2945 0.959 . S
H2931 C2945 0.961 . S
H2932 C2946 0.960 . S
H2933 C2946 0.961 . S
H2934 C2946 0.959 . S
H2935 C2949 0.929 . S
H2936 C2950 0.931 . S
H2937 C2952 0.930 . S
C2938 H2926 0.930 . S
C2938 C2939 1.399 . S
C2938 C2943 1.399 . S
C2939 C2938 1.399 . S
C2939 C2940 1.376 . S
C2940 H2927 0.930 . S
C2940 C2939 1.376 . S
C2940 C2941 1.388 . S
C2941 H2928 0.930 . S
C2941 C2940 1.388 . S
C2941 C2942 1.390 . S
C2942 C2941 1.390 . S
C2942 C2943 1.394 . S
C2942 C2948 1.465 . S
C2943 C2938 1.399 . S
C2943 C2942 1.394 . S
C2943 C2944 1.516 . S
C2944 C2943 1.516 . S
C2944 C2945 1.502 . S
C2944 C2946 1.561 . S
C2944 C2947 1.526 . S
C2945 H2929 0.959 . S
C2945 H2930 0.959 . S
C2945 H2931 0.961 . S
C2945 C2944 1.502 . S
C2946 H2932 0.960 . S
C2946 H2933 0.961 . S
C2946 H2934 0.959 . S
C2946 C2944 1.561 . S
C2947 C2944 1.526 . S
C2947 C2948 1.396 . S
C2947 C2952 1.390 . S
C2948 C2942 1.465 . S
C2948 C2947 1.396 . S
C2948 C2949 1.399 . S
C2949 H2935 0.929 . S
C2949 C2948 1.399 . S
C2949 C2950 1.385 . S
C2950 H2936 0.931 . S
C2950 C2949 1.385 . S
C2950 C2951 1.389 . S
C2951 C2950 1.389 . S
C2951 C2952 1.387 . S
C2952 H2937 0.930 . S
C2952 C2947 1.390 . S
C2952 C2951 1.387 . S
H2953 C2965 0.930 . S
H2954 C2967 0.930 . S
H2955 C2968 0.930 . S
H2956 C2972 0.959 1_545 S
H2957 C2972 0.959 . S
H2958 C2972 0.961 . S
H2959 C2973 0.960 . S
H2960 C2973 0.961 . S
H2961 C2973 0.959 . S
H2962 C2976 0.929 . S
H2963 C2977 0.931 . S
H2964 C2979 0.930 . S
C2965 H2953 0.930 . S
C2965 C2966 1.399 . S
C2965 C2970 1.399 . S
C2966 C2965 1.399 . S
C2966 C2967 1.376 1_565 S
C2967 H2954 0.930 . S
C2967 C2966 1.376 1_545 S
C2967 C2968 1.388 . S
C2968 H2955 0.930 . S
C2968 C2967 1.388 . S
C2968 C2969 1.390 . S
C2969 C2968 1.390 . S
C2969 C2970 1.394 1_545 S
C2969 C2975 1.465 . S
C2970 C2965 1.399 . S
C2970 C2969 1.394 1_565 S
C2970 C2971 1.516 . S
C2971 C2970 1.516 . S
C2971 C2972 1.502 . S
C2971 C2973 1.561 . S
C2971 C2974 1.526 . S
C2972 H2956 0.959 1_565 S
C2972 H2957 0.959 . S
C2972 H2958 0.961 . S
C2972 C2971 1.502 . S
C2973 H2959 0.960 . S
C2973 H2960 0.961 . S
C2973 H2961 0.959 . S
C2973 C2971 1.561 . S
C2974 C2971 1.526 . S
C2974 C2975 1.396 1_565 S
C2974 C2979 1.390 . S
C2975 C2969 1.465 . S
C2975 C2974 1.396 1_545 S
C2975 C2976 1.399 . S
C2976 H2962 0.929 . S
C2976 C2975 1.399 . S
C2976 C2977 1.385 . S
C2977 H2963 0.931 . S
C2977 C2976 1.385 . S
C2977 C2978 1.389 . S
C2978 C2977 1.389 . S
C2978 C2979 1.387 1_545 S
C2979 H2964 0.930 . S
C2979 C2974 1.390 . S
C2979 C2978 1.387 1_565 S
H2980 C2992 0.930 . S
H2981 C2994 0.930 . S
H2982 C2995 0.930 . S
H2983 C2999 0.959 . S
H2984 C2999 0.959 . S
H2985 C2999 0.961 . S
H2986 C3000 0.960 . S
H2987 C3000 0.961 . S
H2988 C3000 0.959 . S
H2989 C3003 0.929 . S
H2990 C3004 0.931 . S
H2991 C3006 0.930 . S
C2992 H2980 0.930 . S
C2992 C2993 1.399 . S
C2992 C2997 1.399 . S
C2993 C2992 1.399 . S
C2993 C2994 1.376 . S
C2994 H2981 0.930 . S
C2994 C2993 1.376 . S
C2994 C2995 1.388 . S
C2995 H2982 0.930 . S
C2995 C2994 1.388 . S
C2995 C2996 1.390 . S
C2996 C2995 1.390 . S
C2996 C2997 1.394 . S
C2996 C3002 1.465 . S
C2997 C2992 1.399 . S
C2997 C2996 1.394 . S
C2997 C2998 1.516 . S
C2998 C2997 1.516 . S
C2998 C2999 1.502 . S
C2998 C3000 1.561 . S
C2998 C3001 1.526 . S
C2999 H2983 0.959 . S
C2999 H2984 0.959 . S
C2999 H2985 0.961 . S
C2999 C2998 1.502 . S
C3000 H2986 0.960 . S
C3000 H2987 0.961 . S
C3000 H2988 0.959 . S
C3000 C2998 1.561 . S
C3001 C2998 1.526 . S
C3001 C3002 1.396 . S
C3001 C3006 1.390 . S
C3002 C2996 1.465 . S
C3002 C3001 1.396 . S
C3002 C3003 1.399 . S
C3003 H2989 0.929 . S
C3003 C3002 1.399 . S
C3003 C3004 1.385 . S
C3004 H2990 0.931 . S
C3004 C3003 1.385 . S
C3004 C3005 1.389 . S
C3005 C3004 1.389 . S
C3005 C3006 1.387 . S
C3006 H2991 0.930 . S
C3006 C3001 1.390 . S
C3006 C3005 1.387 . S
H3007 C3019 0.930 . S
H3008 C3021 0.930 . S
H3009 C3022 0.930 . S
H3010 C3026 0.959 . S
H3011 C3026 0.959 . S
H3012 C3026 0.961 . S
H3013 C3027 0.960 . S
H3014 C3027 0.961 . S
H3015 C3027 0.959 . S
H3016 C3030 0.929 . S
H3017 C3031 0.931 . S
H3018 C3033 0.930 . S
C3019 H3007 0.930 . S
C3019 C3020 1.399 . S
C3019 C3024 1.399 . S
C3020 C3019 1.399 . S
C3020 C3021 1.376 . S
C3021 H3008 0.930 . S
C3021 C3020 1.376 . S
C3021 C3022 1.388 . S
C3022 H3009 0.930 . S
C3022 C3021 1.388 . S
C3022 C3023 1.390 . S
C3023 C3022 1.390 . S
C3023 C3024 1.394 . S
C3023 C3029 1.465 . S
C3024 C3019 1.399 . S
C3024 C3023 1.394 . S
C3024 C3025 1.516 . S
C3025 C3024 1.516 . S
C3025 C3026 1.502 . S
C3025 C3027 1.561 . S
C3025 C3028 1.526 . S
C3026 H3010 0.959 . S
C3026 H3011 0.959 . S
C3026 H3012 0.961 . S
C3026 C3025 1.502 . S
C3027 H3013 0.960 . S
C3027 H3014 0.961 . S
C3027 H3015 0.959 . S
C3027 C3025 1.561 . S
C3028 C3025 1.526 . S
C3028 C3029 1.396 . S
C3028 C3033 1.390 . S
C3029 C3023 1.465 . S
C3029 C3028 1.396 . S
C3029 C3030 1.399 . S
C3030 H3016 0.929 . S
C3030 C3029 1.399 . S
C3030 C3031 1.385 . S
C3031 H3017 0.931 . S
C3031 C3030 1.385 . S
C3031 C3032 1.389 . S
C3032 C3031 1.389 . S
C3032 C3033 1.387 . S
C3033 H3018 0.930 . S
C3033 C3028 1.390 . S
C3033 C3032 1.387 . S
H3034 C3046 0.930 . S
H3035 C3048 0.930 . S
H3036 C3049 0.930 . S
H3037 C3053 0.959 . S
H3038 C3053 0.959 . S
H3039 C3053 0.961 . S
H3040 C3054 0.960 . S
H3041 C3054 0.961 . S
H3042 C3054 0.959 . S
H3043 C3057 0.929 . S
H3044 C3058 0.931 . S
H3045 C3060 0.930 . S
C3046 H3034 0.930 . S
C3046 C3047 1.399 . S
C3046 C3051 1.399 . S
C3047 C3046 1.399 . S
C3047 C3048 1.376 . S
C3048 H3035 0.930 . S
C3048 C3047 1.376 . S
C3048 C3049 1.388 . S
C3049 H3036 0.930 . S
C3049 C3048 1.388 . S
C3049 C3050 1.390 . S
C3050 C3049 1.390 . S
C3050 C3051 1.394 . S
C3050 C3056 1.465 . S
C3051 C3046 1.399 . S
C3051 C3050 1.394 . S
C3051 C3052 1.516 . S
C3052 C3051 1.516 . S
C3052 C3053 1.502 . S
C3052 C3054 1.561 . S
C3052 C3055 1.526 . S
C3053 H3037 0.959 . S
C3053 H3038 0.959 . S
C3053 H3039 0.961 . S
C3053 C3052 1.502 . S
C3054 H3040 0.960 . S
C3054 H3041 0.961 . S
C3054 H3042 0.959 . S
C3054 C3052 1.561 . S
C3055 C3052 1.526 . S
C3055 C3056 1.396 . S
C3055 C3060 1.390 . S
C3056 C3050 1.465 . S
C3056 C3055 1.396 . S
C3056 C3057 1.399 . S
C3057 H3043 0.929 . S
C3057 C3056 1.399 . S
C3057 C3058 1.385 . S
C3058 H3044 0.931 . S
C3058 C3057 1.385 . S
C3058 C3059 1.389 . S
C3059 C3058 1.389 . S
C3059 C3060 1.387 . S
C3060 H3045 0.930 . S
C3060 C3055 1.390 . S
C3060 C3059 1.387 . S
H3061 C3073 0.930 . S
H3062 C3075 0.928 1_565 S
H3063 C3076 0.930 . S
H3064 C3080 0.959 1_565 S
H3065 C3080 0.959 . S
H3066 C3080 0.961 . S
H3067 C3081 0.960 . S
H3068 C3081 0.961 . S
H3069 C3081 0.959 . S
H3070 C3084 0.929 . S
H3071 C3085 0.931 . S
H3072 C3087 0.931 1_545 S
C3073 H3061 0.930 . S
C3073 C3074 1.399 1_556 S
C3073 C3078 1.399 . S
C3074 C3073 1.399 1_554 S
C3074 C3075 1.382 . S
C3075 H3062 0.928 1_545 S
C3075 C3074 1.382 . S
C3075 C3076 1.385 1_545 S
C3076 H3063 0.930 . S
C3076 C3075 1.385 1_565 S
C3076 C3077 1.390 . S
C3077 C3076 1.390 . S
C3077 C3078 1.394 1_564 S
C3077 C3083 1.465 . S
C3078 C3073 1.399 . S
C3078 C3077 1.394 1_546 S
C3078 C3079 1.516 . S
C3079 C3078 1.516 . S
C3079 C3080 1.502 . S
C3079 C3081 1.561 . S
C3079 C3082 1.526 . S
C3080 H3064 0.959 1_545 S
C3080 H3065 0.959 . S
C3080 H3066 0.961 . S
C3080 C3079 1.502 . S
C3081 H3067 0.960 . S
C3081 H3068 0.961 . S
C3081 H3069 0.959 . S
C3081 C3079 1.561 . S
C3082 C3079 1.526 . S
C3082 C3083 1.396 1_546 S
C3082 C3087 1.390 1_545 S
C3083 C3077 1.465 . S
C3083 C3082 1.396 1_564 S
C3083 C3084 1.399 . S
C3084 H3070 0.929 . S
C3084 C3083 1.399 . S
C3084 C3085 1.385 . S
C3085 H3071 0.931 . S
C3085 C3084 1.385 . S
C3085 C3086 1.389 1_554 S
C3086 C3085 1.389 1_556 S
C3086 C3087 1.386 . S
C3087 H3072 0.931 1_565 S
C3087 C3082 1.390 1_565 S
C3087 C3086 1.386 . S
H3088 C3100 0.930 . S
H3089 C3102 0.930 . S
H3090 C3103 0.930 . S
H3091 C3107 0.959 . S
H3092 C3107 0.959 . S
H3093 C3107 0.961 . S
H3094 C3108 0.960 . S
H3095 C3108 0.961 . S
H3096 C3108 0.959 . S
H3097 C3111 0.929 . S
H3098 C3112 0.931 . S
H3099 C3114 0.930 . S
C3100 H3088 0.930 . S
C3100 C3101 1.399 . S
C3100 C3105 1.399 . S
C3101 C3100 1.399 . S
C3101 C3102 1.376 . S
C3102 H3089 0.930 . S
C3102 C3101 1.376 . S
C3102 C3103 1.388 . S
C3103 H3090 0.930 . S
C3103 C3102 1.388 . S
C3103 C3104 1.390 . S
C3104 C3103 1.390 . S
C3104 C3105 1.394 . S
C3104 C3110 1.465 . S
C3105 C3100 1.399 . S
C3105 C3104 1.394 . S
C3105 C3106 1.516 . S
C3106 C3105 1.516 . S
C3106 C3107 1.502 . S
C3106 C3108 1.561 . S
C3106 C3109 1.526 . S
C3107 H3091 0.959 . S
C3107 H3092 0.959 . S
C3107 H3093 0.961 . S
C3107 C3106 1.502 . S
C3108 H3094 0.960 . S
C3108 H3095 0.961 . S
C3108 H3096 0.959 . S
C3108 C3106 1.561 . S
C3109 C3106 1.526 . S
C3109 C3110 1.396 . S
C3109 C3114 1.390 . S
C3110 C3104 1.465 . S
C3110 C3109 1.396 . S
C3110 C3111 1.399 . S
C3111 H3097 0.929 . S
C3111 C3110 1.399 . S
C3111 C3112 1.385 . S
C3112 H3098 0.931 . S
C3112 C3111 1.385 . S
C3112 C3113 1.389 . S
C3113 C3112 1.389 . S
C3113 C3114 1.387 . S
C3114 H3099 0.930 . S
C3114 C3109 1.390 . S
C3114 C3113 1.387 . S
H3115 C3127 0.930 . S
H3116 C3129 0.930 . S
H3117 C3130 0.930 . S
H3118 C3134 0.959 . S
H3119 C3134 0.959 . S
H3120 C3134 0.961 . S
H3121 C3135 0.960 . S
H3122 C3135 0.961 . S
H3123 C3135 0.959 . S
H3124 C3138 0.929 . S
H3125 C3139 0.931 . S
H3126 C3141 0.930 . S
C3127 H3115 0.930 . S
C3127 C3128 1.399 . S
C3127 C3132 1.399 . S
C3128 C3127 1.399 . S
C3128 C3129 1.376 . S
C3129 H3116 0.930 . S
C3129 C3128 1.376 . S
C3129 C3130 1.388 . S
C3130 H3117 0.930 . S
C3130 C3129 1.388 . S
C3130 C3131 1.390 . S
C3131 C3130 1.390 . S
C3131 C3132 1.394 . S
C3131 C3137 1.465 . S
C3132 C3127 1.399 . S
C3132 C3131 1.394 . S
C3132 C3133 1.516 . S
C3133 C3132 1.516 . S
C3133 C3134 1.502 . S
C3133 C3135 1.561 . S
C3133 C3136 1.526 . S
C3134 H3118 0.959 . S
C3134 H3119 0.959 . S
C3134 H3120 0.961 . S
C3134 C3133 1.502 . S
C3135 H3121 0.960 . S
C3135 H3122 0.961 . S
C3135 H3123 0.959 . S
C3135 C3133 1.561 . S
C3136 C3133 1.526 . S
C3136 C3137 1.396 . S
C3136 C3141 1.390 . S
C3137 C3131 1.465 . S
C3137 C3136 1.396 . S
C3137 C3138 1.399 . S
C3138 H3124 0.929 . S
C3138 C3137 1.399 . S
C3138 C3139 1.385 . S
C3139 H3125 0.931 . S
C3139 C3138 1.385 . S
C3139 C3140 1.389 . S
C3140 C3139 1.389 . S
C3140 C3141 1.387 . S
C3141 H3126 0.930 . S
C3141 C3136 1.390 . S
C3141 C3140 1.387 . S
H3142 C3154 0.930 . S
H3143 C3156 0.930 . S
H3144 C3157 0.930 . S
H3145 C3161 0.959 . S
H3146 C3161 0.959 . S
H3147 C3161 0.961 . S
H3148 C3162 0.960 . S
H3149 C3162 0.961 . S
H3150 C3162 0.959 . S
H3151 C3165 0.929 . S
H3152 C3166 0.931 . S
H3153 C3168 0.930 . S
C3154 H3142 0.930 . S
C3154 C3155 1.399 . S
C3154 C3159 1.399 . S
C3155 C3154 1.399 . S
C3155 C3156 1.376 . S
C3156 H3143 0.930 . S
C3156 C3155 1.376 . S
C3156 C3157 1.388 . S
C3157 H3144 0.930 . S
C3157 C3156 1.388 . S
C3157 C3158 1.390 . S
C3158 C3157 1.390 . S
C3158 C3159 1.394 . S
C3158 C3164 1.465 . S
C3159 C3154 1.399 . S
C3159 C3158 1.394 . S
C3159 C3160 1.516 . S
C3160 C3159 1.516 . S
C3160 C3161 1.502 . S
C3160 C3162 1.561 . S
C3160 C3163 1.526 . S
C3161 H3145 0.959 . S
C3161 H3146 0.959 . S
C3161 H3147 0.961 . S
C3161 C3160 1.502 . S
C3162 H3148 0.960 . S
C3162 H3149 0.961 . S
C3162 H3150 0.959 . S
C3162 C3160 1.561 . S
C3163 C3160 1.526 . S
C3163 C3164 1.396 . S
C3163 C3168 1.390 . S
C3164 C3158 1.465 . S
C3164 C3163 1.396 . S
C3164 C3165 1.399 . S
C3165 H3151 0.929 . S
C3165 C3164 1.399 . S
C3165 C3166 1.385 . S
C3166 H3152 0.931 . S
C3166 C3165 1.385 . S
C3166 C3167 1.389 . S
C3167 C3166 1.389 . S
C3167 C3168 1.387 . S
C3168 H3153 0.930 . S
C3168 C3163 1.390 . S
C3168 C3167 1.387 . S
H3169 C3181 0.930 . S
H3170 C3183 0.930 . S
H3171 C3184 0.930 . S
H3172 C3188 0.959 . S
H3173 C3188 0.959 . S
H3174 C3188 0.961 . S
H3175 C3189 0.960 . S
H3176 C3189 0.961 . S
H3177 C3189 0.959 . S
H3178 C3192 0.929 . S
H3179 C3193 0.931 . S
H3180 C3195 0.930 . S
C3181 H3169 0.930 . S
C3181 C3182 1.399 . S
C3181 C3186 1.399 . S
C3182 C3181 1.399 . S
C3182 C3183 1.376 . S
C3183 H3170 0.930 . S
C3183 C3182 1.376 . S
C3183 C3184 1.388 . S
C3184 H3171 0.930 . S
C3184 C3183 1.388 . S
C3184 C3185 1.390 . S
C3185 C3184 1.390 . S
C3185 C3186 1.394 . S
C3185 C3191 1.465 . S
C3186 C3181 1.399 . S
C3186 C3185 1.394 . S
C3186 C3187 1.516 . S
C3187 C3186 1.516 . S
C3187 C3188 1.502 . S
C3187 C3189 1.561 . S
C3187 C3190 1.526 . S
C3188 H3172 0.959 . S
C3188 H3173 0.959 . S
C3188 H3174 0.961 . S
C3188 C3187 1.502 . S
C3189 H3175 0.960 . S
C3189 H3176 0.961 . S
C3189 H3177 0.959 . S
C3189 C3187 1.561 . S
C3190 C3187 1.526 . S
C3190 C3191 1.396 . S
C3190 C3195 1.390 . S
C3191 C3185 1.465 . S
C3191 C3190 1.396 . S
C3191 C3192 1.399 . S
C3192 H3178 0.929 . S
C3192 C3191 1.399 . S
C3192 C3193 1.385 . S
C3193 H3179 0.931 . S
C3193 C3192 1.385 . S
C3193 C3194 1.389 . S
C3194 C3193 1.389 . S
C3194 C3195 1.387 . S
C3195 H3180 0.930 . S
C3195 C3190 1.390 . S
C3195 C3194 1.387 . S
H3196 C3208 0.930 . S
H3197 C3210 0.930 . S
H3198 C3211 0.930 . S
H3199 C3215 0.959 . S
H3200 C3215 0.959 . S
H3201 C3215 0.961 . S
H3202 C3216 0.960 . S
H3203 C3216 0.961 . S
H3204 C3216 0.959 . S
H3205 C3219 0.929 . S
H3206 C3220 0.931 . S
H3207 C3222 0.930 . S
C3208 H3196 0.930 . S
C3208 C3209 1.399 . S
C3208 C3213 1.399 . S
C3209 C3208 1.399 . S
C3209 C3210 1.376 . S
C3210 H3197 0.930 . S
C3210 C3209 1.376 . S
C3210 C3211 1.388 . S
C3211 H3198 0.930 . S
C3211 C3210 1.388 . S
C3211 C3212 1.390 . S
C3212 C3211 1.390 . S
C3212 C3213 1.394 . S
C3212 C3218 1.465 . S
C3213 C3208 1.399 . S
C3213 C3212 1.394 . S
C3213 C3214 1.516 . S
C3214 C3213 1.516 . S
C3214 C3215 1.502 . S
C3214 C3216 1.561 . S
C3214 C3217 1.526 . S
C3215 H3199 0.959 . S
C3215 H3200 0.959 . S
C3215 H3201 0.961 . S
C3215 C3214 1.502 . S
C3216 H3202 0.960 . S
C3216 H3203 0.961 . S
C3216 H3204 0.959 . S
C3216 C3214 1.561 . S
C3217 C3214 1.526 . S
C3217 C3218 1.396 . S
C3217 C3222 1.390 . S
C3218 C3212 1.465 . S
C3218 C3217 1.396 . S
C3218 C3219 1.399 . S
C3219 H3205 0.929 . S
C3219 C3218 1.399 . S
C3219 C3220 1.385 . S
C3220 H3206 0.931 . S
C3220 C3219 1.385 . S
C3220 C3221 1.389 . S
C3221 C3220 1.389 . S
C3221 C3222 1.387 . S
C3222 H3207 0.930 . S
C3222 C3217 1.390 . S
C3222 C3221 1.387 . S
H3223 C3235 0.930 . S
H3224 C3237 0.922 1_565 S
H3225 C3238 0.930 . S
H3226 C3242 0.959 . S
H3227 C3242 0.959 . S
H3228 C3242 0.961 . S
H3229 C3243 0.960 . S
H3230 C3243 0.961 . S
H3231 C3243 0.959 . S
H3232 C3246 0.929 . S
H3233 C3247 0.931 . S
H3234 C3249 0.930 . S
C3235 H3223 0.930 . S
C3235 C3236 1.399 . S
C3235 C3240 1.399 . S
C3236 C3235 1.399 . S
C3236 C3237 1.376 . S
C3237 H3224 0.922 1_545 S
C3237 C3236 1.376 . S
C3237 C3238 1.388 . S
C3238 H3225 0.930 . S
C3238 C3237 1.388 . S
C3238 C3239 1.390 . S
C3239 C3238 1.390 . S
C3239 C3240 1.394 . S
C3239 C3245 1.465 . S
C3240 C3235 1.399 . S
C3240 C3239 1.394 . S
C3240 C3241 1.516 . S
C3241 C3240 1.516 . S
C3241 C3242 1.502 . S
C3241 C3243 1.561 . S
C3241 C3244 1.526 . S
C3242 H3226 0.959 . S
C3242 H3227 0.959 . S
C3242 H3228 0.961 . S
C3242 C3241 1.502 . S
C3243 H3229 0.960 . S
C3243 H3230 0.961 . S
C3243 H3231 0.959 . S
C3243 C3241 1.561 . S
C3244 C3241 1.526 . S
C3244 C3245 1.396 . S
C3244 C3249 1.390 . S
C3245 C3239 1.465 . S
C3245 C3244 1.396 . S
C3245 C3246 1.399 . S
C3246 H3232 0.929 . S
C3246 C3245 1.399 . S
C3246 C3247 1.385 . S
C3247 H3233 0.931 . S
C3247 C3246 1.385 . S
C3247 C3248 1.389 . S
C3248 C3247 1.389 . S
C3248 C3249 1.387 . S
C3249 H3234 0.930 . S
C3249 C3244 1.390 . S
C3249 C3248 1.387 . S
H3250 C3262 0.930 . S
H3251 C3264 0.930 . S
H3252 C3265 0.930 . S
H3253 C3269 0.959 . S
H3254 C3269 0.959 . S
H3255 C3269 0.961 . S
H3256 C3270 0.960 . S
H3257 C3270 0.961 . S
H3258 C3270 0.959 . S
H3259 C3273 0.929 . S
H3260 C3274 0.931 . S
H3261 C3276 0.930 . S
C3262 H3250 0.930 . S
C3262 C3263 1.399 . S
C3262 C3267 1.399 . S
C3263 C3262 1.399 . S
C3263 C3264 1.376 . S
C3264 H3251 0.930 . S
C3264 C3263 1.376 . S
C3264 C3265 1.388 . S
C3265 H3252 0.930 . S
C3265 C3264 1.388 . S
C3265 C3266 1.390 . S
C3266 C3265 1.390 . S
C3266 C3267 1.394 . S
C3266 C3272 1.465 . S
C3267 C3262 1.399 . S
C3267 C3266 1.394 . S
C3267 C3268 1.516 . S
C3268 C3267 1.516 . S
C3268 C3269 1.502 . S
C3268 C3270 1.561 . S
C3268 C3271 1.526 . S
C3269 H3253 0.959 . S
C3269 H3254 0.959 . S
C3269 H3255 0.961 . S
C3269 C3268 1.502 . S
C3270 H3256 0.960 . S
C3270 H3257 0.961 . S
C3270 H3258 0.959 . S
C3270 C3268 1.561 . S
C3271 C3268 1.526 . S
C3271 C3272 1.396 . S
C3271 C3276 1.390 . S
C3272 C3266 1.465 . S
C3272 C3271 1.396 . S
C3272 C3273 1.399 . S
C3273 H3259 0.929 . S
C3273 C3272 1.399 . S
C3273 C3274 1.385 . S
C3274 H3260 0.931 . S
C3274 C3273 1.385 . S
C3274 C3275 1.389 . S
C3275 C3274 1.389 . S
C3275 C3276 1.387 . S
C3276 H3261 0.930 . S
C3276 C3271 1.390 . S
C3276 C3275 1.387 . S
H3277 C3289 0.930 . S
H3278 C3291 0.930 . S
H3279 C3292 0.930 . S
H3280 C3296 0.959 . S
H3281 C3296 0.959 . S
H3282 C3296 0.961 . S
H3283 C3297 0.960 . S
H3284 C3297 0.961 . S
H3285 C3297 0.959 . S
H3286 C3300 0.929 . S
H3287 C3301 0.931 1_545 S
H3288 C3303 0.930 . S
C3289 H3277 0.930 . S
C3289 C3290 1.399 . S
C3289 C3294 1.399 . S
C3290 C3289 1.399 . S
C3290 C3291 1.376 . S
C3291 H3278 0.930 . S
C3291 C3290 1.376 . S
C3291 C3292 1.388 . S
C3292 H3279 0.930 . S
C3292 C3291 1.388 . S
C3292 C3293 1.390 . S
C3293 C3292 1.390 . S
C3293 C3294 1.394 . S
C3293 C3299 1.465 . S
C3294 C3289 1.399 . S
C3294 C3293 1.394 . S
C3294 C3295 1.516 . S
C3295 C3294 1.516 . S
C3295 C3296 1.502 . S
C3295 C3297 1.561 . S
C3295 C3298 1.526 . S
C3296 H3280 0.959 . S
C3296 H3281 0.959 . S
C3296 H3282 0.961 . S
C3296 C3295 1.502 . S
C3297 H3283 0.960 . S
C3297 H3284 0.961 . S
C3297 H3285 0.959 . S
C3297 C3295 1.561 . S
C3298 C3295 1.526 . S
C3298 C3299 1.396 . S
C3298 C3303 1.390 . S
C3299 C3293 1.465 . S
C3299 C3298 1.396 . S
C3299 C3300 1.399 . S
C3300 H3286 0.929 . S
C3300 C3299 1.399 . S
C3300 C3301 1.385 . S
C3301 H3287 0.931 1_565 S
C3301 C3300 1.385 . S
C3301 C3302 1.389 . S
C3302 C3301 1.389 . S
C3302 C3303 1.387 . S
C3303 H3288 0.930 . S
C3303 C3298 1.390 . S
C3303 C3302 1.387 . S
H3304 C3316 0.930 . S
H3305 C3318 0.930 . S
H3306 C3319 0.930 . S
H3307 C3323 0.959 . S
H3308 C3323 0.959 . S
H3309 C3323 0.961 . S
H3310 C3324 0.960 . S
H3311 C3324 0.961 . S
H3312 C3324 0.959 . S
H3313 C3327 0.929 . S
H3314 C3328 0.931 . S
H3315 C3330 0.930 . S
C3316 H3304 0.930 . S
C3316 C3317 1.399 . S
C3316 C3321 1.399 . S
C3317 C3316 1.399 . S
C3317 C3318 1.376 . S
C3318 H3305 0.930 . S
C3318 C3317 1.376 . S
C3318 C3319 1.388 . S
C3319 H3306 0.930 . S
C3319 C3318 1.388 . S
C3319 C3320 1.390 . S
C3320 C3319 1.390 . S
C3320 C3321 1.394 . S
C3320 C3326 1.465 . S
C3321 C3316 1.399 . S
C3321 C3320 1.394 . S
C3321 C3322 1.516 . S
C3322 C3321 1.516 . S
C3322 C3323 1.502 . S
C3322 C3324 1.561 . S
C3322 C3325 1.526 . S
C3323 H3307 0.959 . S
C3323 H3308 0.959 . S
C3323 H3309 0.961 . S
C3323 C3322 1.502 . S
C3324 H3310 0.960 . S
C3324 H3311 0.961 . S
C3324 H3312 0.959 . S
C3324 C3322 1.561 . S
C3325 C3322 1.526 . S
C3325 C3326 1.396 . S
C3325 C3330 1.390 . S
C3326 C3320 1.465 . S
C3326 C3325 1.396 . S
C3326 C3327 1.399 . S
C3327 H3313 0.929 . S
C3327 C3326 1.399 . S
C3327 C3328 1.385 . S
C3328 H3314 0.931 . S
C3328 C3327 1.385 . S
C3328 C3329 1.389 . S
C3329 C3328 1.389 . S
C3329 C3330 1.387 . S
C3330 H3315 0.930 . S
C3330 C3325 1.390 . S
C3330 C3329 1.387 . S
H3331 C3343 0.930 . S
H3332 C3345 0.930 . S
H3333 C3346 0.930 . S
H3334 C3350 0.959 . S
H3335 C3350 0.959 . S
H3336 C3350 0.961 . S
H3337 C3351 0.960 . S
H3338 C3351 0.961 . S
H3339 C3351 0.959 . S
H3340 C3354 0.929 . S
H3341 C3355 0.931 . S
H3342 C3357 0.930 . S
C3343 H3331 0.930 . S
C3343 C3344 1.399 . S
C3343 C3348 1.399 . S
C3344 C3343 1.399 . S
C3344 C3345 1.376 . S
C3345 H3332 0.930 . S
C3345 C3344 1.376 . S
C3345 C3346 1.388 . S
C3346 H3333 0.930 . S
C3346 C3345 1.388 . S
C3346 C3347 1.390 . S
C3347 C3346 1.390 . S
C3347 C3348 1.394 . S
C3347 C3353 1.465 . S
C3348 C3343 1.399 . S
C3348 C3347 1.394 . S
C3348 C3349 1.516 . S
C3349 C3348 1.516 . S
C3349 C3350 1.502 . S
C3349 C3351 1.561 . S
C3349 C3352 1.526 . S
C3350 H3334 0.959 . S
C3350 H3335 0.959 . S
C3350 H3336 0.961 . S
C3350 C3349 1.502 . S
C3351 H3337 0.960 . S
C3351 H3338 0.961 . S
C3351 H3339 0.959 . S
C3351 C3349 1.561 . S
C3352 C3349 1.526 . S
C3352 C3353 1.396 . S
C3352 C3357 1.390 . S
C3353 C3347 1.465 . S
C3353 C3352 1.396 . S
C3353 C3354 1.399 . S
C3354 H3340 0.929 . S
C3354 C3353 1.399 . S
C3354 C3355 1.385 . S
C3355 H3341 0.931 . S
C3355 C3354 1.385 . S
C3355 C3356 1.389 . S
C3356 C3355 1.389 . S
C3356 C3357 1.387 . S
C3357 H3342 0.930 . S
C3357 C3352 1.390 . S
C3357 C3356 1.387 . S
H3358 C3370 0.930 . S
H3359 C3372 0.930 . S
H3360 C3373 0.930 . S
H3361 C3377 0.959 . S
H3362 C3377 0.959 . S
H3363 C3377 0.961 . S
H3364 C3378 0.960 . S
H3365 C3378 0.961 . S
H3366 C3378 0.959 . S
H3367 C3381 0.929 . S
H3368 C3382 0.931 . S
H3369 C3384 0.930 . S
C3370 H3358 0.930 . S
C3370 C3371 1.399 . S
C3370 C3375 1.399 . S
C3371 C3370 1.399 . S
C3371 C3372 1.376 . S
C3372 H3359 0.930 . S
C3372 C3371 1.376 . S
C3372 C3373 1.388 . S
C3373 H3360 0.930 . S
C3373 C3372 1.388 . S
C3373 C3374 1.390 . S
C3374 C3373 1.390 . S
C3374 C3375 1.394 . S
C3374 C3380 1.465 . S
C3375 C3370 1.399 . S
C3375 C3374 1.394 . S
C3375 C3376 1.516 . S
C3376 C3375 1.516 . S
C3376 C3377 1.502 . S
C3376 C3378 1.561 . S
C3376 C3379 1.526 . S
C3377 H3361 0.959 . S
C3377 H3362 0.959 . S
C3377 H3363 0.961 . S
C3377 C3376 1.502 . S
C3378 H3364 0.960 . S
C3378 H3365 0.961 . S
C3378 H3366 0.959 . S
C3378 C3376 1.561 . S
C3379 C3376 1.526 . S
C3379 C3380 1.396 . S
C3379 C3384 1.390 . S
C3380 C3374 1.465 . S
C3380 C3379 1.396 . S
C3380 C3381 1.399 . S
C3381 H3367 0.929 . S
C3381 C3380 1.399 . S
C3381 C3382 1.385 . S
C3382 H3368 0.931 . S
C3382 C3381 1.385 . S
C3382 C3383 1.389 . S
C3383 C3382 1.389 . S
C3383 C3384 1.387 . S
C3384 H3369 0.930 . S
C3384 C3379 1.390 . S
C3384 C3383 1.387 . S
H3385 C3397 0.930 . S
H3386 C3399 0.930 . S
H3387 C3400 0.930 . S
H3388 C3404 0.959 . S
H3389 C3404 0.959 . S
H3390 C3404 0.961 . S
H3391 C3405 0.960 . S
H3392 C3405 0.961 . S
H3393 C3405 0.959 . S
H3394 C3408 0.929 . S
H3395 C3409 0.931 . S
H3396 C3411 0.930 . S
C3397 H3385 0.930 . S
C3397 C3398 1.399 . S
C3397 C3402 1.399 . S
C3398 C3397 1.399 . S
C3398 C3399 1.376 . S
C3399 H3386 0.930 . S
C3399 C3398 1.376 . S
C3399 C3400 1.388 . S
C3400 H3387 0.930 . S
C3400 C3399 1.388 . S
C3400 C3401 1.390 . S
C3401 C3400 1.390 . S
C3401 C3402 1.394 . S
C3401 C3407 1.465 . S
C3402 C3397 1.399 . S
C3402 C3401 1.394 . S
C3402 C3403 1.516 . S
C3403 C3402 1.516 . S
C3403 C3404 1.502 . S
C3403 C3405 1.561 . S
C3403 C3406 1.526 . S
C3404 H3388 0.959 . S
C3404 H3389 0.959 . S
C3404 H3390 0.961 . S
C3404 C3403 1.502 . S
C3405 H3391 0.960 . S
C3405 H3392 0.961 . S
C3405 H3393 0.959 . S
C3405 C3403 1.561 . S
C3406 C3403 1.526 . S
C3406 C3407 1.396 . S
C3406 C3411 1.390 . S
C3407 C3401 1.465 . S
C3407 C3406 1.396 . S
C3407 C3408 1.399 . S
C3408 H3394 0.929 . S
C3408 C3407 1.399 . S
C3408 C3409 1.385 . S
C3409 H3395 0.931 . S
C3409 C3408 1.385 . S
C3409 C3410 1.389 . S
C3410 C3409 1.389 . S
C3410 C3411 1.387 . S
C3411 H3396 0.930 . S
C3411 C3406 1.390 . S
C3411 C3410 1.387 . S
H3412 C3424 0.930 . S
H3413 C3426 0.930 1_565 S
H3414 C3427 0.930 . S
H3415 C3431 0.959 . S
H3416 C3431 0.959 . S
H3417 C3431 0.961 . S
H3418 C3432 0.960 . S
H3419 C3432 0.961 . S
H3420 C3432 0.959 . S
H3421 C3435 0.929 . S
H3422 C3436 0.931 . S
H3423 C3438 0.930 . S
C3424 H3412 0.930 . S
C3424 C3425 1.399 . S
C3424 C3429 1.399 . S
C3425 C3424 1.399 . S
C3425 C3426 1.376 . S
C3426 H3413 0.930 1_545 S
C3426 C3425 1.376 . S
C3426 C3427 1.388 . S
C3427 H3414 0.930 . S
C3427 C3426 1.388 . S
C3427 C3428 1.390 . S
C3428 C3427 1.390 . S
C3428 C3429 1.394 . S
C3428 C3434 1.465 . S
C3429 C3424 1.399 . S
C3429 C3428 1.394 . S
C3429 C3430 1.516 . S
C3430 C3429 1.516 . S
C3430 C3431 1.502 . S
C3430 C3432 1.561 . S
C3430 C3433 1.526 . S
C3431 H3415 0.959 . S
C3431 H3416 0.959 . S
C3431 H3417 0.961 . S
C3431 C3430 1.502 . S
C3432 H3418 0.960 . S
C3432 H3419 0.961 . S
C3432 H3420 0.959 . S
C3432 C3430 1.561 . S
C3433 C3430 1.526 . S
C3433 C3434 1.396 . S
C3433 C3438 1.390 . S
C3434 C3428 1.465 . S
C3434 C3433 1.396 . S
C3434 C3435 1.399 . S
C3435 H3421 0.929 . S
C3435 C3434 1.399 . S
C3435 C3436 1.385 . S
C3436 H3422 0.931 . S
C3436 C3435 1.385 . S
C3436 C3437 1.389 . S
C3437 C3436 1.389 . S
C3437 C3438 1.387 . S
C3438 H3423 0.930 . S
C3438 C3433 1.390 . S
C3438 C3437 1.387 . S
H3439 C3451 0.930 . S
H3440 C3453 0.930 . S
H3441 C3454 0.930 . S
H3442 C3458 0.959 . S
H3443 C3458 0.959 . S
H3444 C3458 0.961 . S
H3445 C3459 0.960 . S
H3446 C3459 0.961 . S
H3447 C3459 0.959 . S
H3448 C3462 0.929 . S
H3449 C3463 0.931 . S
H3450 C3465 0.930 . S
C3451 H3439 0.930 . S
C3451 C3452 1.399 . S
C3451 C3456 1.399 . S
C3452 C3451 1.399 . S
C3452 C3453 1.376 . S
C3453 H3440 0.930 . S
C3453 C3452 1.376 . S
C3453 C3454 1.388 . S
C3454 H3441 0.930 . S
C3454 C3453 1.388 . S
C3454 C3455 1.390 . S
C3455 C3454 1.390 . S
C3455 C3456 1.394 . S
C3455 C3461 1.465 . S
C3456 C3451 1.399 . S
C3456 C3455 1.394 . S
C3456 C3457 1.516 . S
C3457 C3456 1.516 . S
C3457 C3458 1.502 . S
C3457 C3459 1.561 . S
C3457 C3460 1.526 . S
C3458 H3442 0.959 . S
C3458 H3443 0.959 . S
C3458 H3444 0.961 . S
C3458 C3457 1.502 . S
C3459 H3445 0.960 . S
C3459 H3446 0.961 . S
C3459 H3447 0.959 . S
C3459 C3457 1.561 . S
C3460 C3457 1.526 . S
C3460 C3461 1.396 . S
C3460 C3465 1.390 . S
C3461 C3455 1.465 . S
C3461 C3460 1.396 . S
C3461 C3462 1.399 . S
C3462 H3448 0.929 . S
C3462 C3461 1.399 . S
C3462 C3463 1.385 . S
C3463 H3449 0.931 . S
C3463 C3462 1.385 . S
C3463 C3464 1.389 . S
C3464 C3463 1.389 . S
C3464 C3465 1.387 . S
C3465 H3450 0.930 . S
C3465 C3460 1.390 . S
C3465 C3464 1.387 . S
H3466 C3478 0.930 . S
H3467 C3480 0.930 . S
H3468 C3481 0.930 . S
H3469 C3485 0.959 . S
H3470 C3485 0.959 . S
H3471 C3485 0.961 . S
H3472 C3486 0.960 . S
H3473 C3486 0.961 . S
H3474 C3486 0.959 . S
H3475 C3489 0.929 . S
H3476 C3490 0.931 . S
H3477 C3492 0.930 . S
C3478 H3466 0.930 . S
C3478 C3479 1.399 . S
C3478 C3483 1.399 . S
C3479 C3478 1.399 . S
C3479 C3480 1.376 . S
C3480 H3467 0.930 . S
C3480 C3479 1.376 . S
C3480 C3481 1.388 . S
C3481 H3468 0.930 . S
C3481 C3480 1.388 . S
C3481 C3482 1.390 . S
C3482 C3481 1.390 . S
C3482 C3483 1.394 . S
C3482 C3488 1.465 . S
C3483 C3478 1.399 . S
C3483 C3482 1.394 . S
C3483 C3484 1.516 . S
C3484 C3483 1.516 . S
C3484 C3485 1.502 . S
C3484 C3486 1.561 . S
C3484 C3487 1.526 . S
C3485 H3469 0.959 . S
C3485 H3470 0.959 . S
C3485 H3471 0.961 . S
C3485 C3484 1.502 . S
C3486 H3472 0.960 . S
C3486 H3473 0.961 . S
C3486 H3474 0.959 . S
C3486 C3484 1.561 . S
C3487 C3484 1.526 . S
C3487 C3488 1.396 . S
C3487 C3492 1.390 . S
C3488 C3482 1.465 . S
C3488 C3487 1.396 . S
C3488 C3489 1.399 . S
C3489 H3475 0.929 . S
C3489 C3488 1.399 . S
C3489 C3490 1.385 . S
C3490 H3476 0.931 . S
C3490 C3489 1.385 . S
C3490 C3491 1.389 . S
C3491 C3490 1.389 . S
C3491 C3492 1.387 . S
C3492 H3477 0.930 . S
C3492 C3487 1.390 . S
C3492 C3491 1.387 . S
H3493 C3505 0.930 . S
H3494 C3507 0.930 1_545 S
H3495 C3508 0.930 . S
H3496 C3512 0.959 . S
H3497 C3512 0.959 . S
H3498 C3512 0.961 . S
H3499 C3513 0.960 . S
H3500 C3513 0.961 . S
H3501 C3513 0.959 . S
H3502 C3516 0.929 . S
H3503 C3517 0.931 . S
H3504 C3519 0.930 . S
C3505 H3493 0.930 . S
C3505 C3506 1.399 . S
C3505 C3510 1.399 . S
C3506 C3505 1.399 . S
C3506 C3507 1.376 . S
C3507 H3494 0.930 1_565 S
C3507 C3506 1.376 . S
C3507 C3508 1.388 . S
C3508 H3495 0.930 . S
C3508 C3507 1.388 . S
C3508 C3509 1.390 . S
C3509 C3508 1.390 . S
C3509 C3510 1.394 . S
C3509 C3515 1.465 . S
C3510 C3505 1.399 . S
C3510 C3509 1.394 . S
C3510 C3511 1.516 . S
C3511 C3510 1.516 . S
C3511 C3512 1.502 . S
C3511 C3513 1.561 . S
C3511 C3514 1.526 . S
C3512 H3496 0.959 . S
C3512 H3497 0.959 . S
C3512 H3498 0.961 . S
C3512 C3511 1.502 . S
C3513 H3499 0.960 . S
C3513 H3500 0.961 . S
C3513 H3501 0.959 . S
C3513 C3511 1.561 . S
C3514 C3511 1.526 . S
C3514 C3515 1.396 . S
C3514 C3519 1.390 . S
C3515 C3509 1.465 . S
C3515 C3514 1.396 . S
C3515 C3516 1.399 . S
C3516 H3502 0.929 . S
C3516 C3515 1.399 . S
C3516 C3517 1.385 . S
C3517 H3503 0.931 . S
C3517 C3516 1.385 . S
C3517 C3518 1.389 . S
C3518 C3517 1.389 . S
C3518 C3519 1.387 . S
C3519 H3504 0.930 . S
C3519 C3514 1.390 . S
C3519 C3518 1.387 . S
H3520 C3532 0.930 . S
H3521 C3534 0.930 . S
H3522 C3535 0.930 . S
H3523 C3539 0.959 . S
H3524 C3539 0.959 . S
H3525 C3539 0.961 . S
H3526 C3540 0.960 . S
H3527 C3540 0.961 . S
H3528 C3540 0.959 . S
H3529 C3543 0.929 . S
H3530 C3544 0.931 . S
H3531 C3546 0.930 . S
C3532 H3520 0.930 . S
C3532 C3533 1.399 . S
C3532 C3537 1.399 . S
C3533 C3532 1.399 . S
C3533 C3534 1.376 . S
C3534 H3521 0.930 . S
C3534 C3533 1.376 . S
C3534 C3535 1.388 . S
C3535 H3522 0.930 . S
C3535 C3534 1.388 . S
C3535 C3536 1.390 . S
C3536 C3535 1.390 . S
C3536 C3537 1.394 . S
C3536 C3542 1.465 . S
C3537 C3532 1.399 . S
C3537 C3536 1.394 . S
C3537 C3538 1.516 . S
C3538 C3537 1.516 . S
C3538 C3539 1.502 . S
C3538 C3540 1.561 . S
C3538 C3541 1.526 . S
C3539 H3523 0.959 . S
C3539 H3524 0.959 . S
C3539 H3525 0.961 . S
C3539 C3538 1.502 . S
C3540 H3526 0.960 . S
C3540 H3527 0.961 . S
C3540 H3528 0.959 . S
C3540 C3538 1.561 . S
C3541 C3538 1.526 . S
C3541 C3542 1.396 . S
C3541 C3546 1.390 . S
C3542 C3536 1.465 . S
C3542 C3541 1.396 . S
C3542 C3543 1.399 . S
C3543 H3529 0.929 . S
C3543 C3542 1.399 . S
C3543 C3544 1.385 . S
C3544 H3530 0.931 . S
C3544 C3543 1.385 . S
C3544 C3545 1.389 . S
C3545 C3544 1.389 . S
C3545 C3546 1.387 . S
C3546 H3531 0.930 . S
C3546 C3541 1.390 . S
C3546 C3545 1.387 . S
H3547 C3559 0.930 . S
H3548 C3561 0.930 . S
H3549 C3562 0.930 . S
H3550 C3566 0.959 . S
H3551 C3566 0.959 . S
H3552 C3566 0.961 . S
H3553 C3567 0.960 . S
H3554 C3567 0.961 . S
H3555 C3567 0.959 . S
H3556 C3570 0.929 . S
H3557 C3571 0.931 . S
H3558 C3573 0.930 . S
C3559 H3547 0.930 . S
C3559 C3560 1.399 . S
C3559 C3564 1.399 . S
C3560 C3559 1.399 . S
C3560 C3561 1.376 . S
C3561 H3548 0.930 . S
C3561 C3560 1.376 . S
C3561 C3562 1.388 . S
C3562 H3549 0.930 . S
C3562 C3561 1.388 . S
C3562 C3563 1.390 . S
C3563 C3562 1.390 . S
C3563 C3564 1.394 . S
C3563 C3569 1.465 . S
C3564 C3559 1.399 . S
C3564 C3563 1.394 . S
C3564 C3565 1.516 . S
C3565 C3564 1.516 . S
C3565 C3566 1.502 . S
C3565 C3567 1.561 . S
C3565 C3568 1.526 . S
C3566 H3550 0.959 . S
C3566 H3551 0.959 . S
C3566 H3552 0.961 . S
C3566 C3565 1.502 . S
C3567 H3553 0.960 . S
C3567 H3554 0.961 . S
C3567 H3555 0.959 . S
C3567 C3565 1.561 . S
C3568 C3565 1.526 . S
C3568 C3569 1.396 . S
C3568 C3573 1.390 . S
C3569 C3563 1.465 . S
C3569 C3568 1.396 . S
C3569 C3570 1.399 . S
C3570 H3556 0.929 . S
C3570 C3569 1.399 . S
C3570 C3571 1.385 . S
C3571 H3557 0.931 . S
C3571 C3570 1.385 . S
C3571 C3572 1.389 . S
C3572 C3571 1.389 . S
C3572 C3573 1.387 . S
C3573 H3558 0.930 . S
C3573 C3568 1.390 . S
C3573 C3572 1.387 . S
H3574 C3586 0.930 . S
H3575 C3588 0.930 . S
H3576 C3589 0.930 . S
H3577 C3593 0.959 . S
H3578 C3593 0.959 . S
H3579 C3593 0.961 . S
H3580 C3594 0.960 . S
H3581 C3594 0.961 . S
H3582 C3594 0.959 . S
H3583 C3597 0.929 . S
H3584 C3598 0.931 . S
H3585 C3600 0.930 . S
C3586 H3574 0.930 . S
C3586 C3587 1.399 . S
C3586 C3591 1.399 . S
C3587 C3586 1.399 . S
C3587 C3588 1.376 . S
C3588 H3575 0.930 . S
C3588 C3587 1.376 . S
C3588 C3589 1.388 . S
C3589 H3576 0.930 . S
C3589 C3588 1.388 . S
C3589 C3590 1.390 . S
C3590 C3589 1.390 . S
C3590 C3591 1.394 . S
C3590 C3596 1.465 . S
C3591 C3586 1.399 . S
C3591 C3590 1.394 . S
C3591 C3592 1.516 . S
C3592 C3591 1.516 . S
C3592 C3593 1.502 . S
C3592 C3594 1.561 . S
C3592 C3595 1.526 . S
C3593 H3577 0.959 . S
C3593 H3578 0.959 . S
C3593 H3579 0.961 . S
C3593 C3592 1.502 . S
C3594 H3580 0.960 . S
C3594 H3581 0.961 . S
C3594 H3582 0.959 . S
C3594 C3592 1.561 . S
C3595 C3592 1.526 . S
C3595 C3596 1.396 . S
C3595 C3600 1.390 . S
C3596 C3590 1.465 . S
C3596 C3595 1.396 . S
C3596 C3597 1.399 . S
C3597 H3583 0.929 . S
C3597 C3596 1.399 . S
C3597 C3598 1.385 . S
C3598 H3584 0.931 . S
C3598 C3597 1.385 . S
C3598 C3599 1.389 . S
C3599 C3598 1.389 . S
C3599 C3600 1.387 . S
C3600 H3585 0.930 . S
C3600 C3595 1.390 . S
C3600 C3599 1.387 . S
H3601 C3613 0.930 . S
H3602 C3615 0.930 . S
H3603 C3616 0.930 . S
H3604 C3620 0.959 . S
H3605 C3620 0.959 . S
H3606 C3620 0.961 . S
H3607 C3621 0.960 . S
H3608 C3621 0.961 . S
H3609 C3621 0.959 . S
H3610 C3624 0.929 . S
H3611 C3625 0.931 . S
H3612 C3627 0.930 . S
C3613 H3601 0.930 . S
C3613 C3614 1.399 . S
C3613 C3618 1.399 . S
C3614 C3613 1.399 . S
C3614 C3615 1.376 . S
C3615 H3602 0.930 . S
C3615 C3614 1.376 . S
C3615 C3616 1.388 . S
C3616 H3603 0.930 . S
C3616 C3615 1.388 . S
C3616 C3617 1.390 . S
C3617 C3616 1.390 . S
C3617 C3618 1.394 . S
C3617 C3623 1.465 . S
C3618 C3613 1.399 . S
C3618 C3617 1.394 . S
C3618 C3619 1.516 . S
C3619 C3618 1.516 . S
C3619 C3620 1.502 . S
C3619 C3621 1.561 . S
C3619 C3622 1.526 . S
C3620 H3604 0.959 . S
C3620 H3605 0.959 . S
C3620 H3606 0.961 . S
C3620 C3619 1.502 . S
C3621 H3607 0.960 . S
C3621 H3608 0.961 . S
C3621 H3609 0.959 . S
C3621 C3619 1.561 . S
C3622 C3619 1.526 . S
C3622 C3623 1.396 . S
C3622 C3627 1.390 . S
C3623 C3617 1.465 . S
C3623 C3622 1.396 . S
C3623 C3624 1.399 . S
C3624 H3610 0.929 . S
C3624 C3623 1.399 . S
C3624 C3625 1.385 . S
C3625 H3611 0.931 . S
C3625 C3624 1.385 . S
C3625 C3626 1.389 . S
C3626 C3625 1.389 . S
C3626 C3627 1.387 . S
C3627 H3612 0.930 . S
C3627 C3622 1.390 . S
C3627 C3626 1.387 . S
H3628 C3640 0.930 . S
H3629 C3642 0.930 . S
H3630 C3643 0.930 . S
H3631 C3647 0.959 . S
H3632 C3647 0.959 . S
H3633 C3647 0.961 . S
H3634 C3648 0.960 . S
H3635 C3648 0.961 . S
H3636 C3648 0.959 . S
H3637 C3651 0.929 . S
H3638 C3652 0.931 . S
H3639 C3654 0.930 . S
C3640 H3628 0.930 . S
C3640 C3641 1.399 . S
C3640 C3645 1.399 . S
C3641 C3640 1.399 . S
C3641 C3642 1.376 . S
C3642 H3629 0.930 . S
C3642 C3641 1.376 . S
C3642 C3643 1.388 . S
C3643 H3630 0.930 . S
C3643 C3642 1.388 . S
C3643 C3644 1.390 . S
C3644 C3643 1.390 . S
C3644 C3645 1.394 . S
C3644 C3650 1.465 . S
C3645 C3640 1.399 . S
C3645 C3644 1.394 . S
C3645 C3646 1.516 . S
C3646 C3645 1.516 . S
C3646 C3647 1.502 . S
C3646 C3648 1.561 . S
C3646 C3649 1.526 . S
C3647 H3631 0.959 . S
C3647 H3632 0.959 . S
C3647 H3633 0.961 . S
C3647 C3646 1.502 . S
C3648 H3634 0.960 . S
C3648 H3635 0.961 . S
C3648 H3636 0.959 . S
C3648 C3646 1.561 . S
C3649 C3646 1.526 . S
C3649 C3650 1.396 . S
C3649 C3654 1.390 . S
C3650 C3644 1.465 . S
C3650 C3649 1.396 . S
C3650 C3651 1.399 . S
C3651 H3637 0.929 . S
C3651 C3650 1.399 . S
C3651 C3652 1.385 . S
C3652 H3638 0.931 . S
C3652 C3651 1.385 . S
C3652 C3653 1.389 . S
C3653 C3652 1.389 . S
C3653 C3654 1.387 . S
C3654 H3639 0.930 . S
C3654 C3649 1.390 . S
C3654 C3653 1.387 . S
H3655 C3667 0.930 . S
H3656 C3669 0.930 . S
H3657 C3670 0.930 . S
H3658 C3674 0.959 . S
H3659 C3674 0.959 . S
H3660 C3674 0.961 . S
H3661 C3675 0.960 . S
H3662 C3675 0.961 . S
H3663 C3675 0.959 . S
H3664 C3678 0.929 . S
H3665 C3679 0.931 . S
H3666 C3681 0.930 . S
C3667 H3655 0.930 . S
C3667 C3668 1.399 . S
C3667 C3672 1.399 . S
C3668 C3667 1.399 . S
C3668 C3669 1.376 . S
C3669 H3656 0.930 . S
C3669 C3668 1.376 . S
C3669 C3670 1.388 . S
C3670 H3657 0.930 . S
C3670 C3669 1.388 . S
C3670 C3671 1.390 . S
C3671 C3670 1.390 . S
C3671 C3672 1.394 . S
C3671 C3677 1.465 . S
C3672 C3667 1.399 . S
C3672 C3671 1.394 . S
C3672 C3673 1.516 . S
C3673 C3672 1.516 . S
C3673 C3674 1.502 . S
C3673 C3675 1.561 . S
C3673 C3676 1.526 . S
C3674 H3658 0.959 . S
C3674 H3659 0.959 . S
C3674 H3660 0.961 . S
C3674 C3673 1.502 . S
C3675 H3661 0.960 . S
C3675 H3662 0.961 . S
C3675 H3663 0.959 . S
C3675 C3673 1.561 . S
C3676 C3673 1.526 . S
C3676 C3677 1.396 . S
C3676 C3681 1.390 . S
C3677 C3671 1.465 . S
C3677 C3676 1.396 . S
C3677 C3678 1.399 . S
C3678 H3664 0.929 . S
C3678 C3677 1.399 . S
C3678 C3679 1.385 . S
C3679 H3665 0.931 . S
C3679 C3678 1.385 . S
C3679 C3680 1.389 . S
C3680 C3679 1.389 . S
C3680 C3681 1.387 . S
C3681 H3666 0.930 . S
C3681 C3676 1.390 . S
C3681 C3680 1.387 . S
H3682 C3694 0.930 . S
H3683 C3696 0.930 . S
H3684 C3697 0.930 . S
H3685 C3701 0.959 . S
H3686 C3701 0.959 . S
H3687 C3701 0.961 . S
H3688 C3702 0.960 . S
H3689 C3702 0.961 . S
H3690 C3702 0.959 . S
H3691 C3705 0.929 . S
H3692 C3706 0.931 . S
H3693 C3708 0.930 . S
C3694 H3682 0.930 . S
C3694 C3695 1.399 . S
C3694 C3699 1.399 . S
C3695 C3694 1.399 . S
C3695 C3696 1.376 . S
C3696 H3683 0.930 . S
C3696 C3695 1.376 . S
C3696 C3697 1.388 . S
C3697 H3684 0.930 . S
C3697 C3696 1.388 . S
C3697 C3698 1.390 . S
C3698 C3697 1.390 . S
C3698 C3699 1.394 . S
C3698 C3704 1.465 . S
C3699 C3694 1.399 . S
C3699 C3698 1.394 . S
C3699 C3700 1.516 . S
C3700 C3699 1.516 . S
C3700 C3701 1.502 . S
C3700 C3702 1.561 . S
C3700 C3703 1.526 . S
C3701 H3685 0.959 . S
C3701 H3686 0.959 . S
C3701 H3687 0.961 . S
C3701 C3700 1.502 . S
C3702 H3688 0.960 . S
C3702 H3689 0.961 . S
C3702 H3690 0.959 . S
C3702 C3700 1.561 . S
C3703 C3700 1.526 . S
C3703 C3704 1.396 . S
C3703 C3708 1.390 . S
C3704 C3698 1.465 . S
C3704 C3703 1.396 . S
C3704 C3705 1.399 . S
C3705 H3691 0.929 . S
C3705 C3704 1.399 . S
C3705 C3706 1.385 . S
C3706 H3692 0.931 . S
C3706 C3705 1.385 . S
C3706 C3707 1.389 . S
C3707 C3706 1.389 . S
C3707 C3708 1.387 . S
C3708 H3693 0.930 . S
C3708 C3703 1.390 . S
C3708 C3707 1.387 . S
H3709 C3721 0.930 . S
H3710 C3723 0.930 . S
H3711 C3724 0.930 . S
H3712 C3728 0.959 . S
H3713 C3728 0.959 . S
H3714 C3728 0.961 . S
H3715 C3729 0.960 . S
H3716 C3729 0.961 . S
H3717 C3729 0.959 . S
H3718 C3732 0.929 . S
H3719 C3733 0.931 . S
H3720 C3735 0.930 . S
C3721 H3709 0.930 . S
C3721 C3722 1.399 . S
C3721 C3726 1.399 . S
C3722 C3721 1.399 . S
C3722 C3723 1.376 . S
C3723 H3710 0.930 . S
C3723 C3722 1.376 . S
C3723 C3724 1.388 . S
C3724 H3711 0.930 . S
C3724 C3723 1.388 . S
C3724 C3725 1.390 . S
C3725 C3724 1.390 . S
C3725 C3726 1.394 . S
C3725 C3731 1.465 . S
C3726 C3721 1.399 . S
C3726 C3725 1.394 . S
C3726 C3727 1.516 . S
C3727 C3726 1.516 . S
C3727 C3728 1.502 . S
C3727 C3729 1.561 . S
C3727 C3730 1.526 . S
C3728 H3712 0.959 . S
C3728 H3713 0.959 . S
C3728 H3714 0.961 . S
C3728 C3727 1.502 . S
C3729 H3715 0.960 . S
C3729 H3716 0.961 . S
C3729 H3717 0.959 . S
C3729 C3727 1.561 . S
C3730 C3727 1.526 . S
C3730 C3731 1.396 . S
C3730 C3735 1.390 . S
C3731 C3725 1.465 . S
C3731 C3730 1.396 . S
C3731 C3732 1.399 . S
C3732 H3718 0.929 . S
C3732 C3731 1.399 . S
C3732 C3733 1.385 . S
C3733 H3719 0.931 . S
C3733 C3732 1.385 . S
C3733 C3734 1.389 . S
C3734 C3733 1.389 . S
C3734 C3735 1.387 . S
C3735 H3720 0.930 . S
C3735 C3730 1.390 . S
C3735 C3734 1.387 . S
H3736 C3748 0.930 . S
H3737 C3750 0.930 . S
H3738 C3751 0.930 . S
H3739 C3755 0.959 . S
H3740 C3755 0.959 . S
H3741 C3755 0.961 . S
H3742 C3756 0.960 . S
H3743 C3756 0.961 . S
H3744 C3756 0.959 . S
H3745 C3759 0.929 . S
H3746 C3760 0.931 . S
H3747 C3762 0.930 . S
C3748 H3736 0.930 . S
C3748 C3749 1.399 . S
C3748 C3753 1.399 . S
C3749 C3748 1.399 . S
C3749 C3750 1.376 . S
C3750 H3737 0.930 . S
C3750 C3749 1.376 . S
C3750 C3751 1.388 . S
C3751 H3738 0.930 . S
C3751 C3750 1.388 . S
C3751 C3752 1.390 . S
C3752 C3751 1.390 . S
C3752 C3753 1.394 . S
C3752 C3758 1.465 . S
C3753 C3748 1.399 . S
C3753 C3752 1.394 . S
C3753 C3754 1.516 . S
C3754 C3753 1.516 . S
C3754 C3755 1.502 . S
C3754 C3756 1.561 . S
C3754 C3757 1.526 . S
C3755 H3739 0.959 . S
C3755 H3740 0.959 . S
C3755 H3741 0.961 . S
C3755 C3754 1.502 . S
C3756 H3742 0.960 . S
C3756 H3743 0.961 . S
C3756 H3744 0.959 . S
C3756 C3754 1.561 . S
C3757 C3754 1.526 . S
C3757 C3758 1.396 . S
C3757 C3762 1.390 . S
C3758 C3752 1.465 . S
C3758 C3757 1.396 . S
C3758 C3759 1.399 . S
C3759 H3745 0.929 . S
C3759 C3758 1.399 . S
C3759 C3760 1.385 . S
C3760 H3746 0.931 . S
C3760 C3759 1.385 . S
C3760 C3761 1.389 . S
C3761 C3760 1.389 . S
C3761 C3762 1.387 . S
C3762 H3747 0.930 . S
C3762 C3757 1.390 . S
C3762 C3761 1.387 . S
H3763 C3775 0.930 . S
H3764 C3777 0.930 . S
H3765 C3778 0.930 . S
H3766 C3782 0.959 . S
H3767 C3782 0.959 . S
H3768 C3782 0.961 . S
H3769 C3783 0.960 . S
H3770 C3783 0.961 . S
H3771 C3783 0.959 . S
H3772 C3786 0.929 . S
H3773 C3787 0.931 . S
H3774 C3789 0.930 . S
C3775 H3763 0.930 . S
C3775 C3776 1.399 . S
C3775 C3780 1.399 . S
C3776 C3775 1.399 . S
C3776 C3777 1.376 . S
C3777 H3764 0.930 . S
C3777 C3776 1.376 . S
C3777 C3778 1.388 . S
C3778 H3765 0.930 . S
C3778 C3777 1.388 . S
C3778 C3779 1.390 . S
C3779 C3778 1.390 . S
C3779 C3780 1.394 . S
C3779 C3785 1.465 . S
C3780 C3775 1.399 . S
C3780 C3779 1.394 . S
C3780 C3781 1.516 . S
C3781 C3780 1.516 . S
C3781 C3782 1.502 . S
C3781 C3783 1.561 . S
C3781 C3784 1.526 . S
C3782 H3766 0.959 . S
C3782 H3767 0.959 . S
C3782 H3768 0.961 . S
C3782 C3781 1.502 . S
C3783 H3769 0.960 . S
C3783 H3770 0.961 . S
C3783 H3771 0.959 . S
C3783 C3781 1.561 . S
C3784 C3781 1.526 . S
C3784 C3785 1.396 . S
C3784 C3789 1.390 . S
C3785 C3779 1.465 . S
C3785 C3784 1.396 . S
C3785 C3786 1.399 . S
C3786 H3772 0.929 . S
C3786 C3785 1.399 . S
C3786 C3787 1.385 . S
C3787 H3773 0.931 . S
C3787 C3786 1.385 . S
C3787 C3788 1.389 . S
C3788 C3787 1.389 . S
C3788 C3789 1.387 . S
C3789 H3774 0.930 . S
C3789 C3784 1.390 . S
C3789 C3788 1.387 . S
H3790 C3802 0.930 . S
H3791 C3804 0.930 . S
H3792 C3805 0.930 . S
H3793 C3809 0.959 . S
H3794 C3809 0.959 . S
H3795 C3809 0.961 . S
H3796 C3810 0.960 . S
H3797 C3810 0.961 . S
H3798 C3810 0.959 . S
H3799 C3813 0.929 . S
H3800 C3814 0.931 . S
H3801 C3816 0.930 . S
C3802 H3790 0.930 . S
C3802 C3803 1.399 . S
C3802 C3807 1.399 . S
C3803 C3802 1.399 . S
C3803 C3804 1.376 . S
C3804 H3791 0.930 . S
C3804 C3803 1.376 . S
C3804 C3805 1.388 . S
C3805 H3792 0.930 . S
C3805 C3804 1.388 . S
C3805 C3806 1.390 . S
C3806 C3805 1.390 . S
C3806 C3807 1.394 . S
C3806 C3812 1.465 . S
C3807 C3802 1.399 . S
C3807 C3806 1.394 . S
C3807 C3808 1.516 . S
C3808 C3807 1.516 . S
C3808 C3809 1.502 . S
C3808 C3810 1.561 . S
C3808 C3811 1.526 . S
C3809 H3793 0.959 . S
C3809 H3794 0.959 . S
C3809 H3795 0.961 . S
C3809 C3808 1.502 . S
C3810 H3796 0.960 . S
C3810 H3797 0.961 . S
C3810 H3798 0.959 . S
C3810 C3808 1.561 . S
C3811 C3808 1.526 . S
C3811 C3812 1.396 . S
C3811 C3816 1.390 . S
C3812 C3806 1.465 . S
C3812 C3811 1.396 . S
C3812 C3813 1.399 . S
C3813 H3799 0.929 . S
C3813 C3812 1.399 . S
C3813 C3814 1.385 . S
C3814 H3800 0.931 . S
C3814 C3813 1.385 . S
C3814 C3815 1.389 . S
C3815 C3814 1.389 . S
C3815 C3816 1.387 . S
C3816 H3801 0.930 . S
C3816 C3811 1.390 . S
C3816 C3815 1.387 . S
H3817 C3829 0.930 . S
H3818 C3831 0.930 . S
H3819 C3832 0.930 . S
H3820 C3836 0.959 . S
H3821 C3836 0.959 . S
H3822 C3836 0.961 . S
H3823 C3837 0.960 . S
H3824 C3837 0.961 . S
H3825 C3837 0.959 . S
H3826 C3840 0.929 . S
H3827 C3841 0.931 . S
H3828 C3843 0.930 . S
C3829 H3817 0.930 . S
C3829 C3830 1.399 . S
C3829 C3834 1.399 . S
C3830 C3829 1.399 . S
C3830 C3831 1.376 . S
C3831 H3818 0.930 . S
C3831 C3830 1.376 . S
C3831 C3832 1.388 . S
C3832 H3819 0.930 . S
C3832 C3831 1.388 . S
C3832 C3833 1.390 . S
C3833 C3832 1.390 . S
C3833 C3834 1.394 . S
C3833 C3839 1.465 . S
C3834 C3829 1.399 . S
C3834 C3833 1.394 . S
C3834 C3835 1.516 . S
C3835 C3834 1.516 . S
C3835 C3836 1.502 . S
C3835 C3837 1.561 . S
C3835 C3838 1.526 . S
C3836 H3820 0.959 . S
C3836 H3821 0.959 . S
C3836 H3822 0.961 . S
C3836 C3835 1.502 . S
C3837 H3823 0.960 . S
C3837 H3824 0.961 . S
C3837 H3825 0.959 . S
C3837 C3835 1.561 . S
C3838 C3835 1.526 . S
C3838 C3839 1.396 . S
C3838 C3843 1.390 . S
C3839 C3833 1.465 . S
C3839 C3838 1.396 . S
C3839 C3840 1.399 . S
C3840 H3826 0.929 . S
C3840 C3839 1.399 . S
C3840 C3841 1.385 . S
C3841 H3827 0.931 . S
C3841 C3840 1.385 . S
C3841 C3842 1.389 . S
C3842 C3841 1.389 . S
C3842 C3843 1.387 . S
C3843 H3828 0.930 . S
C3843 C3838 1.390 . S
C3843 C3842 1.387 . S
H3844 C3856 0.930 . S
H3845 C3858 0.930 . S
H3846 C3859 0.930 . S
H3847 C3863 0.959 . S
H3848 C3863 0.959 . S
H3849 C3863 0.961 . S
H3850 C3864 0.960 . S
H3851 C3864 0.961 . S
H3852 C3864 0.959 . S
H3853 C3867 0.929 . S
H3854 C3868 0.931 1_565 S
H3855 C3870 0.930 . S
C3856 H3844 0.930 . S
C3856 C3857 1.399 . S
C3856 C3861 1.399 . S
C3857 C3856 1.399 . S
C3857 C3858 1.376 . S
C3858 H3845 0.930 . S
C3858 C3857 1.376 . S
C3858 C3859 1.388 . S
C3859 H3846 0.930 . S
C3859 C3858 1.388 . S
C3859 C3860 1.390 . S
C3860 C3859 1.390 . S
C3860 C3861 1.394 . S
C3860 C3866 1.465 . S
C3861 C3856 1.399 . S
C3861 C3860 1.394 . S
C3861 C3862 1.516 . S
C3862 C3861 1.516 . S
C3862 C3863 1.502 . S
C3862 C3864 1.561 . S
C3862 C3865 1.526 . S
C3863 H3847 0.959 . S
C3863 H3848 0.959 . S
C3863 H3849 0.961 . S
C3863 C3862 1.502 . S
C3864 H3850 0.960 . S
C3864 H3851 0.961 . S
C3864 H3852 0.959 . S
C3864 C3862 1.561 . S
C3865 C3862 1.526 . S
C3865 C3866 1.396 . S
C3865 C3870 1.390 . S
C3866 C3860 1.465 . S
C3866 C3865 1.396 . S
C3866 C3867 1.399 . S
C3867 H3853 0.929 . S
C3867 C3866 1.399 . S
C3867 C3868 1.385 . S
C3868 H3854 0.931 1_545 S
C3868 C3867 1.385 . S
C3868 C3869 1.389 . S
C3869 C3868 1.389 . S
C3869 C3870 1.387 . S
C3870 H3855 0.930 . S
C3870 C3865 1.390 . S
C3870 C3869 1.387 . S
H3871 C3883 0.930 . S
H3872 C3885 0.930 . S
H3873 C3886 0.930 . S
H3874 C3890 0.959 . S
H3875 C3890 0.959 . S
H3876 C3890 0.961 . S
H3877 C3891 0.960 . S
H3878 C3891 0.961 . S
H3879 C3891 0.959 . S
H3880 C3894 0.929 . S
H3881 C3895 0.931 . S
H3882 C3897 0.930 . S
C3883 H3871 0.930 . S
C3883 C3884 1.399 . S
C3883 C3888 1.399 . S
C3884 C3883 1.399 . S
C3884 C3885 1.376 . S
C3885 H3872 0.930 . S
C3885 C3884 1.376 . S
C3885 C3886 1.388 . S
C3886 H3873 0.930 . S
C3886 C3885 1.388 . S
C3886 C3887 1.390 . S
C3887 C3886 1.390 . S
C3887 C3888 1.394 . S
C3887 C3893 1.465 . S
C3888 C3883 1.399 . S
C3888 C3887 1.394 . S
C3888 C3889 1.516 . S
C3889 C3888 1.516 . S
C3889 C3890 1.502 . S
C3889 C3891 1.561 . S
C3889 C3892 1.526 . S
C3890 H3874 0.959 . S
C3890 H3875 0.959 . S
C3890 H3876 0.961 . S
C3890 C3889 1.502 . S
C3891 H3877 0.960 . S
C3891 H3878 0.961 . S
C3891 H3879 0.959 . S
C3891 C3889 1.561 . S
C3892 C3889 1.526 . S
C3892 C3893 1.396 . S
C3892 C3897 1.390 . S
C3893 C3887 1.465 . S
C3893 C3892 1.396 . S
C3893 C3894 1.399 . S
C3894 H3880 0.929 . S
C3894 C3893 1.399 . S
C3894 C3895 1.385 . S
C3895 H3881 0.931 . S
C3895 C3894 1.385 . S
C3895 C3896 1.389 . S
C3896 C3895 1.389 . S
C3896 C3897 1.387 . S
C3897 H3882 0.930 . S
C3897 C3892 1.390 . S
C3897 C3896 1.387 . S
H3898 C3910 0.930 . S
H3899 C3912 0.930 . S
H3900 C3913 0.930 . S
H3901 C3917 0.959 . S
H3902 C3917 0.959 . S
H3903 C3917 0.961 . S
H3904 C3918 0.954 1_554 S
H3905 C3918 0.954 1_554 S
H3906 C3918 0.962 . S
H3907 C3921 0.929 . S
H3908 C3922 0.931 . S
H3909 C3924 0.930 . S
C3910 H3898 0.930 . S
C3910 C3911 1.399 . S
C3910 C3915 1.399 . S
C3911 C3910 1.399 . S
C3911 C3912 1.376 . S
C3912 H3899 0.930 . S
C3912 C3911 1.376 . S
C3912 C3913 1.388 . S
C3913 H3900 0.930 . S
C3913 C3912 1.388 . S
C3913 C3914 1.390 . S
C3914 C3913 1.390 . S
C3914 C3915 1.394 . S
C3914 C3920 1.465 . S
C3915 C3910 1.399 . S
C3915 C3914 1.394 . S
C3915 C3916 1.516 . S
C3916 C3915 1.516 . S
C3916 C3917 1.502 . S
C3916 C3918 1.571 . S
C3916 C3919 1.526 . S
C3917 H3901 0.959 . S
C3917 H3902 0.959 . S
C3917 H3903 0.961 . S
C3917 C3916 1.502 . S
C3918 H3904 0.954 1_556 S
C3918 H3905 0.954 1_556 S
C3918 H3906 0.962 . S
C3918 C3916 1.571 . S
C3919 C3916 1.526 . S
C3919 C3920 1.396 . S
C3919 C3924 1.390 . S
C3920 C3914 1.465 . S
C3920 C3919 1.396 . S
C3920 C3921 1.399 . S
C3921 H3907 0.929 . S
C3921 C3920 1.399 . S
C3921 C3922 1.385 . S
C3922 H3908 0.931 . S
C3922 C3921 1.385 . S
C3922 C3923 1.389 . S
C3923 C3922 1.389 . S
C3923 C3924 1.387 . S
C3924 H3909 0.930 . S
C3924 C3919 1.390 . S
C3924 C3923 1.387 . S
H3925 C3937 0.930 . S
H3926 C3939 0.930 . S
H3927 C3940 0.930 . S
H3928 C3944 0.959 . S
H3929 C3944 0.959 . S
H3930 C3944 0.961 . S
H3931 C3945 0.960 . S
H3932 C3945 0.961 . S
H3933 C3945 0.959 . S
H3934 C3948 0.929 . S
H3935 C3949 0.931 . S
H3936 C3951 0.930 . S
C3937 H3925 0.930 . S
C3937 C3938 1.399 . S
C3937 C3942 1.399 . S
C3938 C3937 1.399 . S
C3938 C3939 1.376 . S
C3939 H3926 0.930 . S
C3939 C3938 1.376 . S
C3939 C3940 1.388 . S
C3940 H3927 0.930 . S
C3940 C3939 1.388 . S
C3940 C3941 1.390 . S
C3941 C3940 1.390 . S
C3941 C3942 1.394 . S
C3941 C3947 1.465 . S
C3942 C3937 1.399 . S
C3942 C3941 1.394 . S
C3942 C3943 1.516 . S
C3943 C3942 1.516 . S
C3943 C3944 1.502 . S
C3943 C3945 1.561 . S
C3943 C3946 1.526 . S
C3944 H3928 0.959 . S
C3944 H3929 0.959 . S
C3944 H3930 0.961 . S
C3944 C3943 1.502 . S
C3945 H3931 0.960 . S
C3945 H3932 0.961 . S
C3945 H3933 0.959 . S
C3945 C3943 1.561 . S
C3946 C3943 1.526 . S
C3946 C3947 1.396 . S
C3946 C3951 1.390 . S
C3947 C3941 1.465 . S
C3947 C3946 1.396 . S
C3947 C3948 1.399 . S
C3948 H3934 0.929 . S
C3948 C3947 1.399 . S
C3948 C3949 1.385 . S
C3949 H3935 0.931 . S
C3949 C3948 1.385 . S
C3949 C3950 1.389 . S
C3950 C3949 1.389 . S
C3950 C3951 1.387 . S
C3951 H3936 0.930 . S
C3951 C3946 1.390 . S
C3951 C3950 1.387 . S
C941 C303 3.116 . S
C953 C13 3.165 . S
C968 C42 3.171 . S
C980 C332 3.127 . S
C995 C245 3.116 . S
C1007 C71 3.164 . S
C1022 C274 3.166 . S
C1034 C100 3.134 . S
C1049 C129 3.131 . S
C1061 C419 3.173 . S
C1076 C448 3.151 . S
C1088 C158 3.117 . S
C1103 C187 3.140 . S
C1115 C361 3.172 . S
C1130 C216 3.169 . S
C1142 C390 3.146 . S
C1157 C767 3.170 . S
C1169 C477 3.129 . S
C1184 C506 3.173 . S
C1196 C796 3.120 . S
C1211 C709 3.120 . S
C1223 C535 3.157 . S
C1238 C564 3.134 . S
C1250 C738 3.166 . S
C1265 C593 3.151 . S
C1277 C883 3.117 . S
C1292 C912 3.158 . S
C1304 C622 3.116 . S
C1319 C651 3.132 . S
C1331 C825 3.173 . S
C1346 C854 3.129 . S
C1358 C680 3.173 . S
C1373 C3 0.809 . S
C1385 C32 0.868 . S
C1400 C61 0.812 . S
C1412 C90 0.863 . S
C1427 C148 0.825 . S
C1439 C119 0.866 . S
C1454 C206 0.820 . S
C1466 C177 0.872 . S
C1481 C264 0.809 . S
C1493 C235 0.868 . S
C1508 C293 0.824 . S
C1520 C322 0.886 . S
C1535 C351 0.820 . S
C1547 C380 0.872 . S
C1562 C438 0.882 . S
C1574 C409 0.811 . S
C1589 C467 0.875 . S
C1601 C496 0.806 . S
C1616 C554 0.822 . S
C1628 C525 0.851 . S
C1643 C612 0.812 . S
C1655 C583 0.883 . S
C1670 C641 0.882 . S
C1682 C670 0.811 . S
C1697 C699 0.815 . S
C1709 C728 0.860 . S
C1724 C757 0.809 . S
C1736 C786 0.868 . S
C1751 C815 0.811 . S
C1763 C844 0.880 . S
C1778 C873 0.875 . S
C1790 C902 0.824 . S
C1805 C5 2.489 . S
C1817 C63 2.517 1_545 S
C1832 C34 2.513 1_545 S
C1844 C92 2.491 . S
C1859 C121 2.502 . S
C1871 C179 2.510 1_565 S
C1886 C150 2.512 1_565 S
C1898 C208 2.500 . S
C1913 C237 2.517 . S
C1925 C295 2.488 . S
C1940 C266 2.510 . S
C1952 C324 2.494 . S
C1967 C411 2.513 . S
C1979 C353 2.489 . S
C1994 C382 2.491 . S
C2006 C440 2.517 . S
C2021 C527 2.515 1_545 S
C2033 C469 2.489 . S
C2048 C498 2.494 1_545 S
C2060 C556 2.513 . S
C2075 C643 2.497 1_565 S
C2087 C585 2.514 . S
C2102 C614 2.493 1_565 S
C2114 C672 2.517 . S
C2129 C701 2.490 . S
C2141 C759 2.516 . S
C2156 C730 2.501 . S
C2168 C788 2.502 . S
C2183 C817 2.517 . S
C2195 C875 2.489 . S
C2210 C846 2.502 . S
C2222 C904 2.496 . S
C2237 C21 0.794 . S
C2249 C108 0.889 . S
C2264 C79 0.794 . S
C2276 C50 0.889 . S
C2291 C137 0.784 . S
C2303 C224 0.883 . S
C2318 C166 0.857 . S
C2330 C195 0.814 . S
C2345 C340 0.784 . S
C2357 C253 0.854 . S
C2372 C311 0.890 . S
C2384 C282 0.796 . S
C2399 C369 0.882 . S
C2411 C456 0.780 . S
C2426 C398 0.810 . S
C2438 C427 0.851 . S
C2453 C485 0.778 . S
C2465 C572 0.861 . S
C2480 C514 0.881 . S
C2492 C543 0.812 . S
C2507 C601 0.795 . S
C2519 C688 0.866 . S
C2534 C630 0.882 . S
C2546 C659 0.780 . S
C2561 C717 0.794 . S
C2573 C804 0.889 . S
C2588 C775 0.784 . S
C2600 C746 0.854 . S
C2615 C920 0.795 . S
C2627 C833 0.866 . S
C2642 C891 0.789 . S
C2654 C862 0.879 . S
C2669 C131 2.655 . S
C2681 C15 2.710 . S
C2696 C856 2.708 . S
C2708 C44 2.646 . S
C2723 C73 2.677 . S
C2735 C421 2.693 . S
C2750 C682 2.644 . S
C2762 C102 2.715 . S
C2777 C160 2.702 . S
C2789 C740 2.667 . S
C2804 C189 2.713 . S
C2816 C305 2.644 . S
C2831 C218 2.716 . S
C2843 C566 2.646 . S
C2858 C363 2.696 . S
C2870 C247 2.655 . S
C2885 C624 2.704 . S
C2897 C276 2.649 . S
C2912 C914 2.702 . S
C2924 C334 2.650 . S
C2939 C508 2.648 . S
C2951 C392 2.715 . S
C2966 C798 2.664 . S
C2978 C450 2.685 . S
C2993 C595 2.643 . S
C3005 C479 2.712 . S
C3020 C537 2.651 . S
C3032 C885 2.713 . S
C3047 C769 2.696 . S
C3059 C653 2.655 . S
C3074 C827 2.700 . S
C3086 C711 2.652 . S
C3101 C8 0.938 . S
C3113 C66 0.886 . S
C3128 C95 0.869 . S
C3140 C37 0.938 . S
C3155 C124 0.782 . S
C3167 C182 0.926 . S
C3182 C153 0.782 . S
C3194 C211 0.926 . S
C3209 C298 0.836 . S
C3221 C240 0.931 . S
C3236 C327 0.768 . S
C3248 C269 0.854 . S
C3263 C356 0.939 . S
C3275 C414 0.826 . S
C3290 C385 0.937 . S
C3302 C443 0.843 . S
C3317 C472 0.881 . S
C3329 C530 0.937 . S
C3344 C501 0.865 . S
C3356 C559 0.938 . S
C3371 C646 0.812 . S
C3383 C588 0.937 . S
C3398 C675 0.790 . S
C3410 C617 0.931 . S
C3425 C704 0.851 . S
C3437 C762 0.935 . S
C3452 C733 0.899 . S
C3464 C791 0.933 . S
C3479 C820 0.933 . S
C3491 C878 0.856 . S
C3506 C907 0.775 . S
C3518 C849 0.918 . S
C3533 C39 3.267 . S
C3545 C10 3.303 . S
C3560 C97 3.302 . S
C3572 C68 3.269 . S
C3587 C155 3.303 . S
C3599 C126 3.278 . S
C3614 C213 3.263 . S
C3626 C184 3.281 . S
C3641 C242 3.283 1_545 S
C3653 C271 3.292 . S
C3668 C329 3.287 1_545 S
C3680 C300 3.268 . S
C3695 C387 3.277 . S
C3707 C358 3.303 1_565 S
C3722 C416 3.260 . S
C3734 C445 3.292 1_565 S
C3749 C474 3.272 . S
C3761 C503 3.301 . S
C3776 C561 3.267 . S
C3788 C532 3.303 . S
C3803 C590 3.261 . S
C3815 C619 3.287 . S
C3830 C648 3.261 . S
C3842 C677 3.286 . S
C3857 C735 3.302 . S
C3869 C706 3.269 1_545 S
C3884 C793 3.272 1_545 S
C3896 C764 3.301 . S
C3911 C851 3.261 . S
C3923 C822 3.287 1_565 S
C3938 C880 3.261 . S
C3950 C909 3.286 1_565 S
