# Generated by pormake.
# Topology wiv, (6)-cn, num edge types: 1
# Building blocks:
#     Node 0, Type 0, BuildingBlock: BETFEN_clean_sbu_0, # of connection points: 6
#     Node 1, Type 0, BuildingBlock: BETFEN_clean_sbu_0, # of connection points: 6
#     Node 2, Type 0, BuildingBlock: BETFEN_clean_sbu_0, # of connection points: 6
#     Node 3, Type 0, BuildingBlock: BETFEN_clean_sbu_0, # of connection points: 6
#     Node 4, Type 0, BuildingBlock: BETFEN_clean_sbu_0, # of connection points: 6
#     Node 5, Type 0, BuildingBlock: BETFEN_clean_sbu_0, # of connection points: 6
#     Node 6, Type 0, BuildingBlock: BETFEN_clean_sbu_0, # of connection points: 6
#     Node 7, Type 0, BuildingBlock: BETFEN_clean_sbu_0, # of connection points: 6
#     Node 8, Type 0, BuildingBlock: BETFEN_clean_sbu_0, # of connection points: 6
#     Node 9, Type 0, BuildingBlock: BETFEN_clean_sbu_0, # of connection points: 6
#     Node 10, Type 0, BuildingBlock: BETFEN_clean_sbu_0, # of connection points: 6
#     Node 11, Type 0, BuildingBlock: BETFEN_clean_sbu_0, # of connection points: 6
#     Node 12, Type 0, BuildingBlock: BETFEN_clean_sbu_0, # of connection points: 6
#     Node 13, Type 0, BuildingBlock: BETFEN_clean_sbu_0, # of connection points: 6
#     Node 14, Type 0, BuildingBlock: BETFEN_clean_sbu_0, # of connection points: 6
#     Node 15, Type 0, BuildingBlock: BETFEN_clean_sbu_0, # of connection points: 6
#     Edge 16, Type (0, 0), BuildingBlock: UVAHIK_clean_linker_0, # of connection points: 2
#     Edge 17, Type (0, 0), BuildingBlock: UVAHIK_clean_linker_0, # of connection points: 2
#     Edge 18, Type (0, 0), BuildingBlock: UVAHIK_clean_linker_0, # of connection points: 2
#     Edge 19, Type (0, 0), BuildingBlock: UVAHIK_clean_linker_0, # of connection points: 2
#     Edge 20, Type (0, 0), BuildingBlock: UVAHIK_clean_linker_0, # of connection points: 2
#     Edge 21, Type (0, 0), BuildingBlock: UVAHIK_clean_linker_0, # of connection points: 2
#     Edge 22, Type (0, 0), BuildingBlock: UVAHIK_clean_linker_0, # of connection points: 2
#     Edge 23, Type (0, 0), BuildingBlock: UVAHIK_clean_linker_0, # of connection points: 2
#     Edge 24, Type (0, 0), BuildingBlock: UVAHIK_clean_linker_0, # of connection points: 2
#     Edge 25, Type (0, 0), BuildingBlock: UVAHIK_clean_linker_0, # of connection points: 2
#     Edge 26, Type (0, 0), BuildingBlock: UVAHIK_clean_linker_0, # of connection points: 2
#     Edge 27, Type (0, 0), BuildingBlock: UVAHIK_clean_linker_0, # of connection points: 2
#     Edge 28, Type (0, 0), BuildingBlock: UVAHIK_clean_linker_0, # of connection points: 2
#     Edge 29, Type (0, 0), BuildingBlock: UVAHIK_clean_linker_0, # of connection points: 2
#     Edge 30, Type (0, 0), BuildingBlock: UVAHIK_clean_linker_0, # of connection points: 2
#     Edge 31, Type (0, 0), BuildingBlock: UVAHIK_clean_linker_0, # of connection points: 2
#     Edge 32, Type (0, 0), BuildingBlock: UVAHIK_clean_linker_0, # of connection points: 2
#     Edge 33, Type (0, 0), BuildingBlock: UVAHIK_clean_linker_0, # of connection points: 2
#     Edge 34, Type (0, 0), BuildingBlock: UVAHIK_clean_linker_0, # of connection points: 2
#     Edge 35, Type (0, 0), BuildingBlock: UVAHIK_clean_linker_0, # of connection points: 2
#     Edge 36, Type (0, 0), BuildingBlock: UVAHIK_clean_linker_0, # of connection points: 2
#     Edge 37, Type (0, 0), BuildingBlock: UVAHIK_clean_linker_0, # of connection points: 2
#     Edge 38, Type (0, 0), BuildingBlock: UVAHIK_clean_linker_0, # of connection points: 2
#     Edge 39, Type (0, 0), BuildingBlock: UVAHIK_clean_linker_0, # of connection points: 2
#     Edge 40, Type (0, 0), BuildingBlock: UVAHIK_clean_linker_0, # of connection points: 2
#     Edge 41, Type (0, 0), BuildingBlock: UVAHIK_clean_linker_0, # of connection points: 2
#     Edge 42, Type (0, 0), BuildingBlock: UVAHIK_clean_linker_0, # of connection points: 2
#     Edge 43, Type (0, 0), BuildingBlock: UVAHIK_clean_linker_0, # of connection points: 2
#     Edge 44, Type (0, 0), BuildingBlock: UVAHIK_clean_linker_0, # of connection points: 2
#     Edge 45, Type (0, 0), BuildingBlock: UVAHIK_clean_linker_0, # of connection points: 2
#     Edge 46, Type (0, 0), BuildingBlock: UVAHIK_clean_linker_0, # of connection points: 2
#     Edge 47, Type (0, 0), BuildingBlock: UVAHIK_clean_linker_0, # of connection points: 2
#     Edge 48, Type (0, 0), BuildingBlock: UVAHIK_clean_linker_0, # of connection points: 2
#     Edge 49, Type (0, 0), BuildingBlock: UVAHIK_clean_linker_0, # of connection points: 2
#     Edge 50, Type (0, 0), BuildingBlock: UVAHIK_clean_linker_0, # of connection points: 2
#     Edge 51, Type (0, 0), BuildingBlock: UVAHIK_clean_linker_0, # of connection points: 2
#     Edge 52, Type (0, 0), BuildingBlock: UVAHIK_clean_linker_0, # of connection points: 2
#     Edge 53, Type (0, 0), BuildingBlock: UVAHIK_clean_linker_0, # of connection points: 2
#     Edge 54, Type (0, 0), BuildingBlock: UVAHIK_clean_linker_0, # of connection points: 2
#     Edge 55, Type (0, 0), BuildingBlock: UVAHIK_clean_linker_0, # of connection points: 2
#     Edge 56, Type (0, 0), BuildingBlock: UVAHIK_clean_linker_0, # of connection points: 2
#     Edge 57, Type (0, 0), BuildingBlock: UVAHIK_clean_linker_0, # of connection points: 2
#     Edge 58, Type (0, 0), BuildingBlock: UVAHIK_clean_linker_0, # of connection points: 2
#     Edge 59, Type (0, 0), BuildingBlock: UVAHIK_clean_linker_0, # of connection points: 2
#     Edge 60, Type (0, 0), BuildingBlock: UVAHIK_clean_linker_0, # of connection points: 2
#     Edge 61, Type (0, 0), BuildingBlock: UVAHIK_clean_linker_0, # of connection points: 2
#     Edge 62, Type (0, 0), BuildingBlock: UVAHIK_clean_linker_0, # of connection points: 2
#     Edge 63, Type (0, 0), BuildingBlock: UVAHIK_clean_linker_0, # of connection points: 2
# Relax obj value: 0.103
# Max RMSD: 0.164
# Mean RMSD: 0.164
data_MOF--net-wiv--node1-BETFEN_clean_sbu_0--edge1-UVAHIK_clean_linker_0
_symmetry_space_group_name_H-M    P1
_symmetry_Int_Tables_number       1
_symmetry_cell_setting            triclinic
loop_
_symmetry_equiv_pos_as_xyz
'x, y, z'
_cell_length_a     68.790495
_cell_length_b     68.921761
_cell_length_c     29.913324
_cell_angle_alpha  89.99172
_cell_angle_beta   89.909192
_cell_angle_gamma 90.041504
loop_
_atom_site_label
_atom_site_type_symbol
_atom_site_fract_x
_atom_site_fract_y
_atom_site_fract_z
_atom_type_partial_charge
Pr0 Pr 0.35205 0.10803 0.15103 0.0
Pr1 Pr 0.37819 0.11233 0.07091 0.0
C2 C 0.33648 0.09831 0.23104 0.0
C3 C 0.34092 0.10018 0.27929 0.0
C4 C 0.34727 0.11781 0.29789 0.0
C5 C 0.35104 0.11926 0.34381 0.0
C6 C 0.34869 0.10309 0.37211 0.0
C7 C 0.34255 0.08542 0.35318 0.0
C8 C 0.33869 0.08401 0.30735 0.0
C9 C 0.35511 0.1464 0.12131 0.0
C10 C 0.40011 0.11612 0.1657 0.0
C11 C 0.39416 0.12141 0.991 0.0
C12 C 0.38965 0.1195 0.94278 0.0
C13 C 0.38279 0.10199 0.92452 0.0
C14 C 0.37894 0.10049 0.87863 0.0
C15 C 0.38171 0.1165 0.85006 0.0
C16 C 0.38836 0.13405 0.86863 0.0
C17 C 0.39232 0.1355 0.91442 0.0
C18 C 0.37667 0.07474 0.10578 0.0
C19 C 0.33049 0.10497 0.05408 0.0
O20 O 0.34754 0.08662 0.20785 0.0
O21 O 0.33186 0.11409 0.20924 0.0
O22 O 0.3692 0.13471 0.12462 0.0
O23 O 0.33886 0.1383 0.13328 0.0
O24 O 0.40116 0.12163 0.12356 0.0
O25 O 0.38382 0.10878 0.18227 0.0
O26 O 0.38344 0.13351 1.01399 0.0
O27 O 0.39832 0.10556 1.01306 0.0
O28 O 0.36207 0.0856 0.09992 0.0
O29 O 0.39254 0.08288 0.09148 0.0
O30 O 0.32859 0.1001 0.09663 0.0
O31 O 0.34712 0.11174 0.03859 0.0
H32 H 0.34931 0.13049 0.27698 0.0
H33 H 0.35601 0.13302 0.35709 0.0
H34 H 0.34038 0.07273 0.37395 0.0
H35 H 0.33382 0.07027 0.29379 0.0
H36 H 0.3804 0.08945 0.94566 0.0
H37 H 0.3736 0.08683 0.8656 0.0
H38 H 0.39085 0.14661 0.84761 0.0
H39 H 0.39759 0.14915 0.92769 0.0
Pr40 Pr 0.11264 0.62345 0.97086 0.0
Pr41 Pr 0.11116 0.64822 0.88707 0.0
C42 C 0.11648 0.60734 0.05292 0.0
C43 C 0.11915 0.6133 0.10009 0.0
C44 C 0.12712 0.60023 0.13096 0.0
C45 C 0.12797 0.60492 0.17655 0.0
C46 C 0.12086 0.62284 0.19234 0.0
C47 C 0.11335 0.63611 0.16095 0.0
C48 C 0.11244 0.63136 0.11544 0.0
C49 C 0.07647 0.62422 0.92764 0.0
C50 C 0.11094 0.67145 0.9847 0.0
C51 C 0.10332 0.66849 0.81198 0.0
C52 C 0.10642 0.66558 0.76354 0.0
C53 C 0.10106 0.68009 0.73312 0.0
C54 C 0.10309 0.67708 0.68698 0.0
C55 C 0.11052 0.65946 0.67023 0.0
C56 C 0.11609 0.64504 0.70106 0.0
C57 C 0.11404 0.64806 0.7472 0.0
C58 C 0.14851 0.63504 0.90725 0.0
C59 C 0.11597 0.60062 0.87656 0.0
O60 O 0.13115 0.60947 0.02536 0.0
O61 O 0.0998 0.61187 0.03489 0.0
O62 O 0.08709 0.63882 0.93484 0.0
O63 O 0.08439 0.60852 0.94307 0.0
O64 O 0.1097 0.67359 0.94076 0.0
O65 O 0.11232 0.65416 1.00308 0.0
O66 O 0.0909 0.65665 0.83092 0.0
O67 O 0.11882 0.67156 0.83639 0.0
O68 O 0.13666 0.6417 0.93588 0.0
O69 O 0.14114 0.63514 0.86743 0.0
O70 O 0.1226 0.60047 0.91801 0.0
O71 O 0.10754 0.61629 0.85985 0.0
H72 H 0.13222 0.58614 0.11998 0.0
H73 H 0.13363 0.59421 0.19958 0.0
H74 H 0.10802 0.65016 0.17153 0.0
H75 H 0.10605 0.64162 0.09236 0.0
H76 H 0.09515 0.6937 0.74504 0.0
H77 H 0.09892 0.68864 0.66443 0.0
H78 H 0.12163 0.63121 0.68956 0.0
H79 H 0.11817 0.63662 0.77014 0.0
Pr80 Pr 0.65552 0.89042 0.15588 0.0
Pr81 Pr 0.62715 0.88792 0.06936 0.0
C82 C 0.6719 0.8961 0.23683 0.0
C83 C 0.66561 0.89775 0.28392 0.0
C84 C 0.64884 0.88817 0.2992 0.0
C85 C 0.64389 0.88847 0.34461 0.0
C86 C 0.65557 0.8984 0.37572 0.0
C87 C 0.67204 0.90847 0.35999 0.0
C88 C 0.67702 0.90811 0.31454 0.0
C89 C 0.65263 0.85398 0.11576 0.0
C90 C 0.60668 0.88391 0.16829 0.0
C91 C 0.61077 0.87527 0.99297 0.0
C92 C 0.61282 0.87914 0.94473 0.0
C93 C 0.62707 0.89201 0.92885 0.0
C94 C 0.62986 0.89455 0.8828 0.0
C95 C 0.61843 0.88427 0.85171 0.0
C96 C 0.60391 0.87168 0.86803 0.0
C97 C 0.60118 0.86913 0.91406 0.0
C98 C 0.63075 0.92652 0.10056 0.0
C99 C 0.67508 0.89712 0.05574 0.0
O100 O 0.66755 0.91041 0.20986 0.0
O101 O 0.66977 0.87903 0.2184 0.0
O102 O 0.63851 0.86556 0.12148 0.0
O103 O 0.66881 0.86156 0.12998 0.0
O104 O 0.60468 0.8805 0.125 0.0
O105 O 0.62356 0.88915 0.18628 0.0
O106 O 0.62567 0.86677 1.01192 0.0
O107 O 0.60315 0.88909 0.01751 0.0
O108 O 0.63899 0.9114 0.1138 0.0
O109 O 0.61987 0.92201 0.06656 0.0
O110 O 0.67751 0.90021 0.09926 0.0
O111 O 0.65842 0.89088 0.03897 0.0
H112 H 0.63978 0.88011 0.27615 0.0
H113 H 0.63094 0.88082 0.35539 0.0
H114 H 0.68146 0.91613 0.383 0.0
H115 H 0.69004 0.91555 0.30346 0.0
H116 H 0.63624 0.89983 0.95209 0.0
H117 H 0.64132 0.90418 0.87162 0.0
H118 H 0.59461 0.86378 0.84523 0.0
H119 H 0.59012 0.85912 0.92571 0.0
Pr120 Pr 0.88601 0.37738 0.95842 0.0
Pr121 Pr 0.8927 0.3519 0.87754 0.0
C122 C 0.87538 0.39298 0.03779 0.0
C123 C 0.87771 0.389 0.08603 0.0
C124 C 0.89131 0.3754 0.10153 0.0
C125 C 0.89328 0.3718 0.14749 0.0
C126 C 0.88171 0.38179 0.17891 0.0
C127 C 0.86804 0.39533 0.16296 0.0
C128 C 0.86608 0.39887 0.11707 0.0
C129 C 0.92447 0.37644 0.9276 0.0
C130 C 0.89468 0.33002 0.97474 0.0
C131 C 0.90454 0.33706 0.79819 0.0
C132 C 0.90245 0.34103 0.74991 0.0
C133 C 0.88932 0.35503 0.73413 0.0
C134 C 0.88746 0.35849 0.68809 0.0
C135 C 0.89872 0.34803 0.65687 0.0
C136 C 0.91197 0.33414 0.67314 0.0
C137 C 0.91378 0.33069 0.7191 0.0
C138 C 0.85358 0.35357 0.9028 0.0
C139 C 0.88316 0.39959 0.86379 0.0
O140 O 0.86444 0.38091 0.01531 0.0
O141 O 0.89096 0.39825 0.01581 0.0
O142 O 0.91352 0.36187 0.9319 0.0
O143 O 0.91589 0.39217 0.94111 0.0
O144 O 0.9006 0.32865 0.9327 0.0
O145 O 0.88677 0.34617 0.98983 0.0
O146 O 0.91475 0.34951 0.82129 0.0
O147 O 0.88902 0.33111 0.81941 0.0
O148 O 0.86498 0.368 0.90219 0.0
O149 O 0.86236 0.33788 0.88976 0.0
O150 O 0.87622 0.3999 0.90491 0.0
O151 O 0.89205 0.38397 0.84804 0.0
H152 H 0.90046 0.36763 0.0781 0.0
H153 H 0.90408 0.36142 0.15842 0.0
H154 H 0.85865 0.40307 0.18592 0.0
H155 H 0.85541 0.40934 0.10579 0.0
H156 H 0.88045 0.3632 0.7574 0.0
H157 H 0.87698 0.36915 0.67695 0.0
H158 H 0.92114 0.32604 0.65038 0.0
H159 H 0.9241 0.31992 0.73062 0.0
Pr160 Pr 0.34804 0.39518 0.12446 0.0
Pr161 Pr 0.37463 0.38803 0.21085 0.0
C162 C 0.33435 0.41164 0.04905 0.0
C163 C 0.33582 0.40777 1.00065 0.0
C164 C 0.3478 0.39284 0.98454 0.0
C165 C 0.35022 0.39008 0.93846 0.0
C166 C 0.34072 0.40222 0.90749 0.0
C167 C 0.32849 0.41698 0.92399 0.0
C168 C 0.32611 0.41973 0.9701 0.0
C169 C 0.35159 0.35505 0.13707 0.0
C170 C 0.39563 0.38324 0.11429 0.0
C171 C 0.38948 0.37749 0.29085 0.0
C172 C 0.38448 0.37919 0.33872 0.0
C173 C 0.37127 0.39326 0.35391 0.0
C174 C 0.36703 0.39495 0.39962 0.0
C175 C 0.37595 0.38263 0.43109 0.0
C176 C 0.38899 0.36841 0.41544 0.0
C177 C 0.39319 0.36672 0.36978 0.0
C178 C 0.37444 0.42562 0.17542 0.0
C179 C 0.32663 0.39695 0.22445 0.0
O180 O 0.35057 0.41694 0.06841 0.0
O181 O 0.32417 0.39931 0.07297 0.0
O182 O 0.35921 0.36801 0.1613 0.0
O183 O 0.34104 0.3629 0.10605 0.0
O184 O 0.39602 0.37715 0.15616 0.0
O185 O 0.38034 0.39241 0.09743 0.0
O186 O 0.37855 0.36604 0.26666 0.0
O187 O 0.39421 0.39355 0.27019 0.0
O188 O 0.35979 0.41471 0.17979 0.0
O189 O 0.38993 0.41747 0.19176 0.0
O190 O 0.32433 0.40005 0.18092 0.0
O191 O 0.34358 0.39193 0.24176 0.0
H192 H 0.35549 0.38349 1.00764 0.0
H193 H 0.35954 0.37842 0.9271 0.0
H194 H 0.32115 0.42676 0.90128 0.0
H195 H 0.31694 0.43144 0.9819 0.0
H196 H 0.3644 0.40307 0.33046 0.0
H197 H 0.35707 0.40619 0.41035 0.0
H198 H 0.39589 0.35845 0.43848 0.0
H199 H 0.40334 0.3557 0.35872 0.0
Pr200 Pr 0.38922 0.62443 0.82029 0.0
Pr201 Pr 0.3957 0.64993 0.90097 0.0
C202 C 0.37884 0.60868 0.74106 0.0
C203 C 0.38088 0.61272 0.69264 0.0
C204 C 0.38477 0.59742 0.66305 0.0
C205 C 0.38655 0.60084 0.61706 0.0
C206 C 0.38452 0.6197 0.59955 0.0
C207 C 0.38076 0.63505 0.62941 0.0
C208 C 0.37891 0.63159 0.67541 0.0
C209 C 0.42743 0.62464 0.85229 0.0
C210 C 0.39837 0.67177 0.80394 0.0
C211 C 0.40678 0.66488 0.9806 0.0
C212 C 0.40468 0.66071 0.02891 0.0
C213 C 0.4024 0.67613 0.05904 0.0
C214 C 0.40063 0.67262 0.10498 0.0
C215 C 0.40115 0.65356 0.12197 0.0
C216 C 0.40329 0.6381 0.0915 0.0
C217 C 0.405 0.64163 0.04549 0.0
C218 C 0.35668 0.64839 0.87485 0.0
C219 C 0.38597 0.60236 0.91498 0.0
O220 O 0.36758 0.62024 0.76423 0.0
O221 O 0.39459 0.60368 0.76255 0.0
O222 O 0.41687 0.63949 0.84758 0.0
O223 O 0.41858 0.6091 0.83857 0.0
O224 O 0.4039 0.67319 0.84617 0.0
O225 O 0.3906 0.65559 0.78854 0.0
O226 O 0.41754 0.65303 0.95706 0.0
O227 O 0.39118 0.67052 0.95942 0.0
O228 O 0.36799 0.63393 0.87602 0.0
O229 O 0.36552 0.6641 0.88748 0.0
O230 O 0.37909 0.60206 0.87388 0.0
O231 O 0.39493 0.61794 0.93072 0.0
H232 H 0.3864 0.58275 0.67555 0.0
H233 H 0.38972 0.5887 0.59525 0.0
H234 H 0.37889 0.64972 0.61717 0.0
H235 H 0.37579 0.64366 0.69745 0.0
H236 H 0.402 0.69095 0.04699 0.0
H237 H 0.39865 0.68489 0.12714 0.0
H238 H 0.40397 0.62325 0.10322 0.0
H239 H 0.40668 0.62945 0.02294 0.0
Pr240 Pr 0.6534 0.61091 0.11889 0.0
Pr241 Pr 0.62689 0.61207 0.20939 0.0
C242 C 0.6746 0.60398 0.04477 0.0
C243 C 0.67146 0.60523 0.99564 0.0
C244 C 0.67215 0.62313 0.97304 0.0
C245 C 0.66864 0.62414 0.92697 0.0
C246 C 0.66436 0.60729 0.90227 0.0
C247 C 0.66393 0.58937 0.92483 0.0
C248 C 0.66749 0.58835 0.97084 0.0
C249 C 0.63925 0.64714 0.14338 0.0
C250 C 0.60524 0.6137 0.11057 0.0
C251 C 0.61036 0.62359 0.28681 0.0
C252 C 0.61432 0.62173 0.33539 0.0
C253 C 0.61521 0.60352 0.35655 0.0
C254 C 0.61924 0.60215 0.40236 0.0
C255 C 0.62261 0.61894 0.42802 0.0
C256 C 0.62168 0.63713 0.40676 0.0
C257 C 0.61752 0.63849 0.36106 0.0
C258 C 0.62997 0.57401 0.17434 0.0
C259 C 0.67469 0.60602 0.22091 0.0
O260 O 0.665 0.59042 0.0661 0.0
O261 O 0.67568 0.62028 0.06728 0.0
O262 O 0.6458 0.63464 0.17065 0.0
O263 O 0.64065 0.64124 0.10229 0.0
O264 O 0.60446 0.6195 0.15286 0.0
O265 O 0.62145 0.60689 0.09211 0.0
O266 O 0.62235 0.63449 0.26387 0.0
O267 O 0.6049 0.60801 0.2651 0.0
O268 O 0.63773 0.58942 0.16122 0.0
O269 O 0.62009 0.57783 0.21039 0.0
O270 O 0.67709 0.60718 0.17674 0.0
O271 O 0.65742 0.60704 0.24008 0.0
H272 H 0.67523 0.63643 0.99095 0.0
H273 H 0.66892 0.63821 0.91086 0.0
H274 H 0.66101 0.57605 0.90683 0.0
H275 H 0.66705 0.57431 0.98708 0.0
H276 H 0.61292 0.59029 0.33774 0.0
H277 H 0.62005 0.58791 0.41753 0.0
H278 H 0.62394 0.65036 0.42557 0.0
H279 H 0.61685 0.65271 0.34568 0.0
Pr280 Pr 0.60951 0.37746 0.81097 0.0
Pr281 Pr 0.60788 0.35244 0.89442 0.0
C282 C 0.61375 0.39362 0.72903 0.0
C283 C 0.61613 0.38774 0.68164 0.0
C284 C 0.60704 0.37099 0.66481 0.0
C285 C 0.60789 0.36657 0.61909 0.0
C286 C 0.61777 0.37885 0.58898 0.0
C287 C 0.62727 0.39535 0.60626 0.0
C288 C 0.62645 0.39972 0.65203 0.0
C289 C 0.5733 0.37657 0.85416 0.0
C290 C 0.60739 0.32953 0.7963 0.0
C291 C 0.59987 0.33214 0.96945 0.0
C292 C 0.60296 0.33512 0.01788 0.0
C293 C 0.61309 0.35145 0.03358 0.0
C294 C 0.61516 0.3547 0.07962 0.0
C295 C 0.60709 0.34172 0.11105 0.0
C296 C 0.59707 0.3253 0.09494 0.0
C297 C 0.59503 0.32207 0.04888 0.0
C298 C 0.64527 0.36569 0.87436 0.0
C299 C 0.6128 0.40001 0.90563 0.0
O300 O 0.6284 0.39097 0.7563 0.0
O301 O 0.59696 0.38972 0.7474 0.0
O302 O 0.58391 0.36198 0.84674 0.0
O303 O 0.58127 0.39233 0.839 0.0
O304 O 0.6066 0.3272 0.84029 0.0
O305 O 0.60846 0.3469 0.77824 0.0
O306 O 0.58748 0.34397 0.95051 0.0
O307 O 0.61537 0.32906 0.94497 0.0
O308 O 0.63344 0.35911 0.84567 0.0
O309 O 0.63788 0.36545 0.91422 0.0
O310 O 0.61953 0.40022 0.86421 0.0
O311 O 0.60426 0.38432 0.92207 0.0
H312 H 0.59883 0.36157 0.68684 0.0
H313 H 0.60023 0.35386 0.60715 0.0
H314 H 0.63528 0.40499 0.58435 0.0
H315 H 0.63355 0.41273 0.66416 0.0
H316 H 0.61926 0.36177 1.01019 0.0
H317 H 0.62318 0.36735 0.09054 0.0
H318 H 0.59039 0.31513 0.1179 0.0
H319 H 0.587 0.30948 0.03747 0.0
Pr320 Pr 0.85332 0.61127 0.64315 0.0
Pr321 Pr 0.8799 0.61305 0.56366 0.0
C322 C 0.83658 0.60414 0.72347 0.0
C323 C 0.84105 0.60588 0.77172 0.0
C324 C 0.82657 0.61222 0.80133 0.0
C325 C 0.83026 0.61349 0.84727 0.0
C326 C 0.84856 0.6084 0.86478 0.0
C327 C 0.86314 0.60225 0.83482 0.0
C328 C 0.85943 0.60101 0.78883 0.0
C329 C 0.8579 0.64889 0.60986 0.0
C330 C 0.90166 0.61737 0.65855 0.0
C331 C 0.89705 0.61983 0.48372 0.0
C332 C 0.89252 0.61875 0.43539 0.0
C333 C 0.90645 0.61133 0.40568 0.0
C334 C 0.90265 0.61041 0.35975 0.0
C335 C 0.88476 0.61685 0.34239 0.0
C336 C 0.87074 0.62414 0.37237 0.0
C337 C 0.8746 0.62513 0.41834 0.0
C338 C 0.87672 0.57608 0.60167 0.0
C339 C 0.83204 0.60809 0.54583 0.0
O340 O 0.84624 0.59114 0.70068 0.0
O341 O 0.83391 0.62023 0.70125 0.0
O342 O 0.8716 0.63683 0.61487 0.0
O343 O 0.84127 0.64143 0.62119 0.0
O344 O 0.90323 0.62183 0.61587 0.0
O345 O 0.88493 0.61123 0.67542 0.0
O346 O 0.88827 0.63326 0.50716 0.0
O347 O 0.89866 0.60339 0.50515 0.0
O348 O 0.86258 0.58743 0.59471 0.0
O349 O 0.89294 0.58339 0.58713 0.0
O350 O 0.8298 0.60354 0.58851 0.0
O351 O 0.84899 0.61416 0.53065 0.0
H352 H 0.81231 0.61613 0.78891 0.0
H353 H 0.81877 0.61862 0.86904 0.0
H354 H 0.87734 0.598 0.84695 0.0
H355 H 0.87089 0.59607 0.76673 0.0
H356 H 0.92035 0.60628 0.41804 0.0
H357 H 0.91368 0.60445 0.33786 0.0
H358 H 0.85689 0.62943 0.36025 0.0
H359 H 0.86362 0.63102 0.44047 0.0
Pr360 Pr 0.61489 0.12429 0.4613 0.0
Pr361 Pr 0.61353 0.15079 0.37065 0.0
C362 C 0.62657 0.10759 0.53846 0.0
C363 C 0.62457 0.11168 0.5867 0.0
C364 C 0.61287 0.12702 0.60186 0.0
C365 C 0.61145 0.13112 0.64765 0.0
C366 C 0.62166 0.11992 0.67927 0.0
C367 C 0.6333 0.1045 0.66373 0.0
C368 C 0.63475 0.10047 0.61793 0.0
C369 C 0.57663 0.12773 0.42739 0.0
C370 C 0.6085 0.17199 0.47268 0.0
C371 C 0.60685 0.17195 0.29638 0.0
C372 C 0.60885 0.16843 0.24789 0.0
C373 C 0.61928 0.15235 0.23197 0.0
C374 C 0.62057 0.14868 0.18598 0.0
C375 C 0.61135 0.16096 0.15486 0.0
C376 C 0.60093 0.17709 0.17117 0.0
C377 C 0.5997 0.18076 0.21719 0.0
C378 C 0.64992 0.13681 0.39553 0.0
C379 C 0.6161 0.10278 0.36217 0.0
O380 O 0.63734 0.11973 0.51563 0.0
O381 O 0.61075 0.10247 0.51726 0.0
O382 O 0.59207 0.13534 0.41375 0.0
O383 O 0.58056 0.1178 0.46324 0.0
O384 O 0.60938 0.1744 0.42848 0.0
O385 O 0.60998 0.15481 0.49187 0.0
O386 O 0.59333 0.16189 0.31669 0.0
O387 O 0.62301 0.1731 0.31939 0.0
O388 O 0.63726 0.14336 0.42246 0.0
O389 O 0.64405 0.13804 0.3544 0.0
O390 O 0.62219 0.10199 0.40426 0.0
O391 O 0.60911 0.11894 0.34414 0.0
H392 H 0.60486 0.13582 0.57825 0.0
H393 H 0.60217 0.14294 0.6583 0.0
H394 H 0.64158 0.09574 0.68693 0.0
H395 H 0.64395 0.08864 0.60688 0.0
H396 H 0.62636 0.14257 0.25516 0.0
H397 H 0.62893 0.13628 0.17484 0.0
H398 H 0.59339 0.1867 0.14845 0.0
H399 H 0.59142 0.19314 0.22883 0.0
Pr400 Pr 0.14897 0.39259 0.64849 0.0
Pr401 Pr 0.12256 0.38902 0.5689 0.0
C402 C 0.16513 0.40127 0.72848 0.0
C403 C 0.16069 0.3996 0.77677 0.0
C404 C 0.17564 0.39497 0.80676 0.0
C405 C 0.17189 0.39351 0.85268 0.0
C406 C 0.15305 0.39667 0.86972 0.0
C407 C 0.13806 0.40124 0.83945 0.0
C408 C 0.14184 0.40267 0.79348 0.0
C409 C 0.14681 0.35472 0.6156 0.0
C410 C 0.10101 0.3838 0.66393 0.0
C411 C 0.10589 0.38127 0.48902 0.0
C412 C 0.11045 0.38284 0.44076 0.0
C413 C 0.09572 0.38801 0.41067 0.0
C414 C 0.09961 0.38948 0.36482 0.0
C415 C 0.11839 0.38584 0.34793 0.0
C416 C 0.13316 0.38073 0.37831 0.0
C417 C 0.12923 0.37923 0.4242 0.0
C418 C 0.12362 0.42603 0.60723 0.0
C419 C 0.1701 0.39687 0.55111 0.0
O420 O 0.15481 0.41356 0.70516 0.0
O421 O 0.16868 0.38516 0.70697 0.0
O422 O 0.13238 0.36593 0.62019 0.0
O423 O 0.16288 0.36315 0.62754 0.0
O424 O 0.09974 0.37905 0.62136 0.0
O425 O 0.11737 0.39088 0.68066 0.0
O426 O 0.11559 0.36841 0.5122 0.0
O427 O 0.10315 0.39751 0.51069 0.0
O428 O 0.13832 0.41556 0.59952 0.0
O429 O 0.10777 0.41775 0.5934 0.0
O430 O 0.17218 0.40123 0.5939 0.0
O431 O 0.15346 0.39015 0.53569 0.0
H432 H 0.1903 0.3926 0.79467 0.0
H433 H 0.18385 0.39023 0.87491 0.0
H434 H 0.12334 0.40352 0.85121 0.0
H435 H 0.13002 0.4062 0.77103 0.0
H436 H 0.08111 0.3908 0.42265 0.0
H437 H 0.0878 0.39317 0.34252 0.0
H438 H 0.14784 0.37807 0.36673 0.0
H439 H 0.14087 0.37524 0.44671 0.0
Pr440 Pr 0.39105 0.87586 0.46163 0.0
Pr441 Pr 0.39618 0.8501 0.38115 0.0
C442 C 0.38166 0.8919 0.54125 0.0
C443 C 0.38339 0.88762 0.58958 0.0
C444 C 0.38779 0.90268 0.61942 0.0
C445 C 0.3893 0.89906 0.66536 0.0
C446 C 0.38647 0.88025 0.68256 0.0
C447 C 0.38221 0.86513 0.65242 0.0
C448 C 0.38065 0.86878 0.60645 0.0
C449 C 0.42898 0.87484 0.42769 0.0
C450 C 0.39908 0.82841 0.47836 0.0
C451 C 0.40666 0.83473 0.30147 0.0
C452 C 0.4046 0.83884 0.25312 0.0
C453 C 0.4008 0.82354 0.22348 0.0
C454 C 0.39909 0.82698 0.17751 0.0
C455 C 0.40116 0.84585 0.16003 0.0
C456 C 0.40481 0.86121 0.18999 0.0
C457 C 0.40651 0.85774 0.23601 0.0
C458 C 0.3575 0.85216 0.40937 0.0
C459 C 0.38696 0.89797 0.36684 0.0
O460 O 0.3697 0.88114 0.51794 0.0
O461 O 0.39773 0.89597 0.51981 0.0
O462 O 0.41815 0.86021 0.4331 0.0
O463 O 0.42056 0.89059 0.44155 0.0
O464 O 0.40409 0.82668 0.43581 0.0
O465 O 0.39198 0.84484 0.49392 0.0
O466 O 0.4178 0.84634 0.32471 0.0
O467 O 0.39097 0.82951 0.32301 0.0
O468 O 0.36898 0.86652 0.40744 0.0
O469 O 0.36607 0.83629 0.3968 0.0
O470 O 0.38167 0.89888 0.40916 0.0
O471 O 0.39445 0.88184 0.34992 0.0
H472 H 0.39003 0.91731 0.60717 0.0
H473 H 0.39289 0.91101 0.68735 0.0
H474 H 0.37973 0.8505 0.6644 0.0
H475 H 0.37717 0.8569 0.58417 0.0
H476 H 0.39919 0.80886 0.23592 0.0
H477 H 0.39595 0.81484 0.15571 0.0
H478 H 0.40671 0.87589 0.17785 0.0
H479 H 0.40946 0.86981 0.25813 0.0
Pr480 Pr 0.85076 0.89724 0.62349 0.0
Pr481 Pr 0.8777 0.89004 0.70918 0.0
C482 C 0.83705 0.91375 0.5481 0.0
C483 C 0.83849 0.91004 0.49957 0.0
C484 C 0.85087 0.89555 0.48293 0.0
C485 C 0.85316 0.89296 0.43672 0.0
C486 C 0.84315 0.90486 0.40613 0.0
C487 C 0.83055 0.9192 0.42316 0.0
C488 C 0.82827 0.92176 0.46937 0.0
C489 C 0.85452 0.85709 0.63532 0.0
C490 C 0.89834 0.8853 0.61234 0.0
C491 C 0.89264 0.87968 0.78928 0.0
C492 C 0.88757 0.88152 0.83715 0.0
C493 C 0.87443 0.8957 0.85205 0.0
C494 C 0.86991 0.89737 0.89763 0.0
C495 C 0.87848 0.88491 0.92936 0.0
C496 C 0.8916 0.87067 0.91405 0.0
C497 C 0.89606 0.869 0.86848 0.0
C498 C 0.8773 0.92768 0.67398 0.0
C499 C 0.8297 0.89881 0.72389 0.0
O500 O 0.85325 0.91905 0.56752 0.0
O501 O 0.8269 0.90137 0.57193 0.0
O502 O 0.86219 0.86996 0.65976 0.0
O503 O 0.8438 0.86504 0.60475 0.0
O504 O 0.89884 0.87906 0.65408 0.0
O505 O 0.88304 0.89463 0.596 0.0
O506 O 0.88174 0.86816 0.7652 0.0
O507 O 0.89738 0.89567 0.76835 0.0
O508 O 0.86268 0.91675 0.67867 0.0
O509 O 0.89288 0.91951 0.6898 0.0
O510 O 0.82716 0.90196 0.68043 0.0
O511 O 0.84675 0.89379 0.7406 0.0
H512 H 0.85903 0.88645 0.50572 0.0
H513 H 0.86317 0.88195 0.42501 0.0
H514 H 0.82239 0.92845 0.40076 0.0
H515 H 0.81869 0.93306 0.48153 0.0
H516 H 0.8677 0.90551 0.82842 0.0
H517 H 0.85956 0.90833 0.90794 0.0
H518 H 0.89871 0.861 0.93737 0.0
H519 H 0.90628 0.85799 0.85772 0.0
Pr520 Pr 0.89032 0.12682 0.31948 0.0
Pr521 Pr 0.89669 0.15249 0.40033 0.0
C522 C 0.87991 0.11099 0.24026 0.0
C523 C 0.88221 0.11493 0.19197 0.0
C524 C 0.8959 0.12843 0.17625 0.0
C525 C 0.89782 0.13202 0.13026 0.0
C526 C 0.88611 0.12211 0.09903 0.0
C527 C 0.87238 0.10865 0.11519 0.0
C528 C 0.87045 0.10513 0.16111 0.0
C529 C 0.92865 0.12782 0.35084 0.0
C530 C 0.89847 0.17431 0.30298 0.0
C531 C 0.90824 0.16748 0.47969 0.0
C532 C 0.90629 0.16335 0.52797 0.0
C533 C 0.89329 0.14922 0.54381 0.0
C534 C 0.89151 0.14567 0.58985 0.0
C535 C 0.90273 0.15618 0.62099 0.0
C536 C 0.91586 0.1702 0.60465 0.0
C537 C 0.9176 0.17373 0.5587 0.0
C538 C 0.85764 0.15036 0.37497 0.0
C539 C 0.8874 0.10475 0.41423 0.0
O540 O 0.86883 0.12295 0.26271 0.0
O541 O 0.89553 0.10593 0.2622 0.0
O542 O 0.91773 0.14242 0.34635 0.0
O543 O 0.92012 0.11211 0.33707 0.0
O544 O 0.90412 0.17593 0.34513 0.0
O545 O 0.89102 0.15795 0.28785 0.0
O546 O 0.91874 0.15536 0.45632 0.0
O547 O 0.89255 0.17304 0.45873 0.0
O548 O 0.86918 0.13607 0.37568 0.0
O549 O 0.86623 0.16616 0.38796 0.0
O550 O 0.88047 0.10438 0.37316 0.0
O551 O 0.89622 0.12042 0.42993 0.0
H552 H 0.90517 0.13612 0.19953 0.0
H553 H 0.90868 0.14234 0.11916 0.0
H554 H 0.8629 0.10097 0.09236 0.0
H555 H 0.85972 0.09473 0.17256 0.0
H556 H 0.88444 0.14101 0.52059 0.0
H557 H 0.88111 0.13491 0.60104 0.0
H558 H 0.925 0.17834 0.62736 0.0
H559 H 0.92781 0.18461 0.54714 0.0
Pr560 Pr 0.15126 0.1087 0.63422 0.0
Pr561 Pr 0.12521 0.11294 0.71436 0.0
C562 C 0.16709 0.09933 0.5542 0.0
C563 C 0.16275 0.10119 0.50593 0.0
C564 C 0.17783 0.10548 0.47592 0.0
C565 C 0.17415 0.1071 0.43003 0.0
C566 C 0.15526 0.10445 0.41304 0.0
C567 C 0.14013 0.10022 0.44332 0.0
C568 C 0.14383 0.09862 0.48926 0.0
C569 C 0.14911 0.14693 0.66507 0.0
C570 C 0.10338 0.1177 0.61942 0.0
C571 C 0.10883 0.12149 0.79422 0.0
C572 C 0.11328 0.11979 0.84247 0.0
C573 C 0.09835 0.11514 0.87261 0.0
C574 C 0.10216 0.11356 0.91845 0.0
C575 C 0.12103 0.11658 0.93526 0.0
C576 C 0.136 0.12118 0.90483 0.0
C577 C 0.13216 0.12278 0.85895 0.0
C578 C 0.12593 0.0756 0.6779 0.0
C579 C 0.1728 0.1049 0.73107 0.0
O580 O 0.15622 0.08748 0.57756 0.0
O581 O 0.17134 0.11527 0.57571 0.0
O582 O 0.13473 0.13556 0.66165 0.0
O583 O 0.16514 0.13845 0.65302 0.0
O584 O 0.10224 0.12264 0.66192 0.0
O585 O 0.11964 0.11044 0.60256 0.0
O586 O 0.1191 0.1339 0.77092 0.0
O587 O 0.10541 0.10535 0.77268 0.0
O588 O 0.14074 0.0861 0.68447 0.0
O589 O 0.1102 0.08402 0.69203 0.0
O590 O 0.17463 0.10034 0.68833 0.0
O591 O 0.15625 0.11169 0.74694 0.0
H592 H 0.19255 0.10747 0.48798 0.0
H593 H 0.18622 0.11011 0.40777 0.0
H594 H 0.12536 0.09833 0.4316 0.0
H595 H 0.13191 0.09535 0.51171 0.0
H596 H 0.08366 0.11283 0.86068 0.0
H597 H 0.0902 0.11027 0.9408 0.0
H598 H 0.15075 0.12336 0.91637 0.0
H599 H 0.14395 0.12637 0.8364 0.0
Pr600 Pr 0.1143 0.8767 0.31936 0.0
Pr601 Pr 0.11383 0.8504 0.40979 0.0
C602 C 0.12531 0.89363 0.24189 0.0
C603 C 0.12408 0.88906 0.19372 0.0
C604 C 0.12569 0.90396 0.16204 0.0
C605 C 0.12457 0.89982 0.11626 0.0
C606 C 0.12178 0.88066 0.10115 0.0
C607 C 0.12007 0.86576 0.13319 0.0
C608 C 0.12121 0.86993 0.17897 0.0
C609 C 0.0762 0.87298 0.35441 0.0
C610 C 0.10885 0.82893 0.30818 0.0
C611 C 0.10776 0.8291 0.48421 0.0
C612 C 0.10938 0.83284 0.53264 0.0
C613 C 0.10743 0.8176 0.56334 0.0
C614 C 0.10863 0.82118 0.60939 0.0
C615 C 0.11182 0.84011 0.62567 0.0
C616 C 0.11385 0.85532 0.59454 0.0
C617 C 0.11267 0.85172 0.54855 0.0
C618 C 0.14992 0.86476 0.3836 0.0
C619 C 0.1159 0.89847 0.41809 0.0
O620 O 0.13682 0.88267 0.26586 0.0
O621 O 0.10895 0.89767 0.26215 0.0
O622 O 0.09173 0.86565 0.36817 0.0
O623 O 0.07997 0.88279 0.31828 0.0
O624 O 0.1101 0.82658 0.35232 0.0
O625 O 0.10978 0.84612 0.28891 0.0
O626 O 0.09393 0.83849 0.46345 0.0
O627 O 0.12409 0.82867 0.46162 0.0
O628 O 0.13724 0.85794 0.3571 0.0
O629 O 0.14419 0.86368 0.4249 0.0
O630 O 0.12146 0.89934 0.37562 0.0
O631 O 0.10941 0.8822 0.43669 0.0
H632 H 0.1278 0.91883 0.17273 0.0
H633 H 0.12565 0.91171 0.0927 0.0
H634 H 0.11815 0.85082 0.12293 0.0
H635 H 0.11994 0.85818 0.20284 0.0
H636 H 0.10494 0.80293 0.5517 0.0
H637 H 0.10727 0.80906 0.63222 0.0
H638 H 0.11605 0.87011 0.60569 0.0
H639 H 0.11418 0.8637 0.52535 0.0
C640 C 0.37925 0.93337 0.35664 0.0
C641 C 0.38444 0.91538 0.33788 0.0
C642 C 0.37729 0.94992 0.3298 0.0
C643 C 0.36482 0.98127 0.26438 0.0
H644 H 0.40038 0.98855 0.16522 0.0
C645 C 0.3588 0.04741 0.14408 0.0
C646 C 0.37631 0.05578 0.12938 0.0
C647 C 0.35886 0.02977 0.16764 0.0
C648 C 0.39039 0.98687 0.19297 0.0
H649 H 0.39128 0.90075 0.27568 0.0
H650 H 0.38751 0.92943 0.22878 0.0
H651 H 0.40245 0.95927 0.21026 0.0
H652 H 0.4076 0.05226 0.12805 0.0
H653 H 0.40779 0.02191 0.16948 0.0
H654 H 0.35329 0.00926 0.24812 0.0
C655 C 0.38533 0.93089 0.26447 0.0
C656 C 0.3914 0.96986 0.21852 0.0
C657 C 0.38741 0.91435 0.2914 0.0
C658 C 0.39383 0.04613 0.13857 0.0
C659 C 0.39392 0.0286 0.16218 0.0
C660 C 0.36388 0.99834 0.23893 0.0
C661 C 0.38034 0.94897 0.28329 0.0
C662 C 0.37873 0.96684 0.25487 0.0
C663 C 0.37645 0.02012 0.17714 0.0
C664 C 0.37677 0.00149 0.20306 0.0
H665 H 0.37694 0.93479 0.39231 0.0
H666 H 0.37378 0.96356 0.34582 0.0
H667 H 0.35458 0.97941 0.29158 0.0
H668 H 0.34505 0.05451 0.13751 0.0
H669 H 0.34509 0.02364 0.17808 0.0
C670 C 0.93732 0.62376 0.66964 0.0
C671 C 0.91902 0.61922 0.68795 0.0
C672 C 0.9538 0.62516 0.6969 0.0
C673 C 0.98498 0.63695 0.76343 0.0
H674 H 0.99105 0.6009 0.86183 0.0
C675 C 0.04983 0.64206 0.88726 0.0
C676 C 0.05802 0.62453 0.902 0.0
C677 C 0.03251 0.6421 0.86254 0.0
C678 C 0.98971 0.61101 0.8343 0.0
H679 H 0.90377 0.61288 0.74974 0.0
H680 H 0.9324 0.61562 0.79737 0.0
H681 H 0.96193 0.59952 0.81589 0.0
H682 H 0.05456 0.59328 0.90208 0.0
H683 H 0.02467 0.59327 0.85856 0.0
H684 H 0.01307 0.64798 0.78089 0.0
C685 C 0.93411 0.61776 0.76172 0.0
C686 C 0.97281 0.61039 0.80824 0.0
C687 C 0.91762 0.61628 0.73438 0.0
C688 C 0.04854 0.60706 0.8915 0.0
C689 C 0.0313 0.60707 0.86672 0.0
C690 C 1.00191 0.63752 0.78941 0.0
C691 C 0.95247 0.62215 0.74335 0.0
C692 C 0.97023 0.62327 0.7722 0.0
C693 C 0.02298 0.62459 0.85188 0.0
C694 C 0.0046 0.62447 0.82506 0.0
H695 H 0.93903 0.62604 0.63403 0.0
H696 H 0.96767 0.62823 0.68128 0.0
H697 H 0.98346 0.6473 0.73643 0.0
H698 H 0.05679 0.65577 0.8949 0.0
H699 H 0.02648 0.6559 0.85223 0.0
C700 C 0.62247 0.962 0.10469 0.0
C701 C 0.63032 0.94532 0.12473 0.0
C702 C 0.62133 0.97952 0.1285 0.0
C703 C 0.64122 0.00472 0.22894 0.0
H704 H 0.59526 0.03686 0.21779 0.0
C705 C 0.62535 0.06774 0.35138 0.0
C706 C 0.61757 0.08502 0.33391 0.0
C707 C 0.62705 0.05112 0.32469 0.0
C708 C 0.60831 0.0282 0.22094 0.0
H709 H 0.64235 0.93378 0.18579 0.0
H710 H 0.64057 0.9641 0.22729 0.0
H711 H 0.59818 0.0074 0.17305 0.0
H712 H 0.60545 0.09822 0.27427 0.0
H713 H 0.60851 0.0693 0.22778 0.0
H714 H 0.65129 0.02541 0.27703 0.0
C715 C 0.63575 0.96394 0.19284 0.0
C716 C 0.61 0.01127 0.19519 0.0
C717 C 0.63688 0.9465 0.16902 0.0
C718 C 0.61145 0.08519 0.28902 0.0
C719 C 0.61312 0.06854 0.26233 0.0
C720 C 0.63952 0.02161 0.2547 0.0
C721 C 0.62794 0.98073 0.173 0.0
C722 C 0.62642 0.99921 0.19905 0.0
C723 C 0.62101 0.05128 0.27975 0.0
C724 C 0.62298 0.03353 0.25132 0.0
H725 H 0.61718 0.9615 0.07063 0.0
H726 H 0.61539 0.99215 0.11191 0.0
H727 H 0.65425 0.99604 0.23228 0.0
H728 H 0.63019 0.06699 0.38577 0.0
H729 H 0.63293 0.03805 0.33952 0.0
C730 C 0.95318 0.39366 0.89455 0.0
C731 C 0.94355 0.37619 0.90436 0.0
C732 C 0.97071 0.39364 0.87068 0.0
C733 C 1.00051 0.36308 0.7942 0.0
H734 H 0.04024 0.40131 0.8204 0.0
C735 C 0.06546 0.37665 0.67488 0.0
C736 C 0.08363 0.38153 0.69325 0.0
C737 C 0.04891 0.37519 0.70201 0.0
C738 C 0.02944 0.39037 0.81285 0.0
H739 H 0.94489 0.34494 0.89743 0.0
H740 H 0.9757 0.34481 0.85658 0.0
H741 H 0.01098 0.39997 0.86608 0.0
H742 H 0.0986 0.38833 0.75504 0.0
H743 H 0.06988 0.38543 0.80245 0.0
H744 H 0.01917 0.35317 0.74165 0.0
C745 C 0.96957 0.35861 0.86657 0.0
C746 C 0.01246 0.38978 0.83876 0.0
C747 C 0.95197 0.35865 0.89031 0.0
C748 C 0.08485 0.38466 0.73963 0.0
C749 C 0.0683 0.38311 0.76684 0.0
C750 C 0.01753 0.36361 0.76842 0.0
C751 C 0.97916 0.37613 0.85616 0.0
C752 C 0.99765 0.37623 0.82961 0.0
C753 C 0.05004 0.37846 0.7484 0.0
C754 C 0.0322 0.37737 0.77709 0.0
H755 H 0.94699 0.40743 0.90463 0.0
H756 H 0.97739 0.40745 0.86276 0.0
H757 H 0.98941 0.35256 0.78571 0.0
H758 H 0.0639 0.37424 0.63929 0.0
H759 H 0.03513 0.37191 0.68631 0.0
C760 C 0.35758 0.45166 0.13098 0.0
C761 C 0.37443 0.44462 0.15196 0.0
C762 C 0.35805 0.46905 0.10659 0.0
C763 C 0.38311 0.51555 0.09599 0.0
H764 H 0.3671 0.51469 0.97189 0.0
C765 C 0.39639 0.58168 0.97989 0.0
C766 C 0.38371 0.58495 0.94388 0.0
C767 C 0.39472 0.56487 1.00608 0.0
C768 C 0.37127 0.51545 1.0067 0.0
H769 H 0.40477 0.45076 0.16546 0.0
H770 H 0.40536 0.48147 0.12436 0.0
H771 H 0.36449 0.48535 0.01687 0.0
H772 H 0.35894 0.57342 0.90806 0.0
H773 H 0.35532 0.54475 0.9548 0.0
H774 H 0.38926 0.54569 0.08688 0.0
C775 C 0.3919 0.47333 0.12604 0.0
C776 C 0.36987 0.49849 0.0324 0.0
C777 C 0.39156 0.45573 0.14949 0.0
C778 C 0.36908 0.57123 0.93527 0.0
C779 C 0.36713 0.55464 0.96202 0.0
C780 C 0.38412 0.53264 0.07063 0.0
C781 C 0.37523 0.48006 0.10382 0.0
C782 C 0.37593 0.49831 0.07719 0.0
C783 C 0.38005 0.55103 0.99764 0.0
C784 C 0.3784 0.53287 0.02535 0.0
H785 H 0.34409 0.44359 0.13284 0.0
H786 H 0.34493 0.47397 0.09011 0.0
H787 H 0.38773 0.51587 0.13059 0.0
H788 H 0.40794 0.59188 0.98721 0.0
H789 H 0.40527 0.56264 0.03237 0.0
C790 C 0.588 0.61177 0.03636 0.0
C791 C 0.58735 0.61521 0.08271 0.0
C792 C 0.57119 0.61345 1.01018 0.0
C793 C 0.53185 0.60728 0.96594 0.0
H794 H 0.49319 0.64625 0.9947 0.0
C795 C 0.45547 0.6066 0.88549 0.0
C796 C 0.44641 0.62437 0.87585 0.0
C797 C 0.47295 0.60603 0.90934 0.0
C798 C 0.5039 0.63541 0.98578 0.0
H799 H 0.5683 0.62297 0.13773 0.0
H800 H 0.53905 0.62544 0.09248 0.0
H801 H 0.52309 0.64457 0.03796 0.0
H802 H 0.44868 0.65554 0.88331 0.0
H803 H 0.47945 0.65465 0.9242 0.0
H804 H 0.51291 0.59844 0.91304 0.0
C805 C 0.55261 0.62186 0.07603 0.0
C806 C 0.52099 0.63425 1.01111 0.0
C807 C 0.56943 0.6203 0.10214 0.0
C808 C 0.45532 0.64162 0.89025 0.0
C809 C 0.47289 0.64107 0.91401 0.0
C810 C 0.51481 0.60849 0.9405 0.0
C811 C 0.55322 0.6185 0.02961 0.0
C812 C 0.53518 0.62008 1.00179 0.0
C813 C 0.48195 0.62324 0.92405 0.0
C814 C 0.50049 0.62247 0.95022 0.0
H815 H 0.60154 0.60794 0.0201 0.0
H816 H 0.57238 0.61102 0.97452 0.0
H817 H 0.54226 0.59603 0.95789 0.0
H818 H 0.4489 0.59304 0.87519 0.0
H819 H 0.47919 0.59201 0.91702 0.0
C820 C 0.62269 0.53833 0.16921 0.0
C821 C 0.62924 0.55553 0.14896 0.0
C822 C 0.62133 0.52107 0.14445 0.0
C823 C 0.63905 0.49762 0.04 0.0
H824 H 0.59404 0.46435 0.05466 0.0
C825 C 0.62258 0.43489 0.91696 0.0
C826 C 0.61482 0.41756 0.9343 0.0
C827 C 0.62454 0.45136 0.94405 0.0
C828 C 0.60686 0.47331 0.05049 0.0
H829 H 0.63846 0.56828 0.08649 0.0
H830 H 0.63656 0.53836 0.0435 0.0
H831 H 0.59733 0.49336 0.10075 0.0
H832 H 0.6032 0.40403 0.99415 0.0
H833 H 0.60687 0.43259 0.0414 0.0
H834 H 0.64863 0.47762 0.98985 0.0
C835 C 0.63294 0.53796 0.07873 0.0
C836 C 0.60874 0.48998 0.077 0.0
C837 C 0.6342 0.55514 0.10345 0.0
C838 C 0.60912 0.41714 0.97949 0.0
C839 C 0.61114 0.4336 1.00662 0.0
C840 C 0.63721 0.48093 1.01362 0.0
C841 C 0.62647 0.52066 0.09883 0.0
C842 C 0.6248 0.50245 0.0719 0.0
C843 C 0.61888 0.45097 0.98932 0.0
C844 C 0.62102 0.46858 0.01823 0.0
H845 H 0.6186 0.53821 0.20419 0.0
H846 H 0.6164 0.50801 0.16113 0.0
H847 H 0.65178 0.50669 0.03561 0.0
H848 H 0.62707 0.4358 0.8823 0.0
H849 H 0.63028 0.46451 0.92924 0.0
C850 C 0.43092 0.3745 0.10474 0.0
C851 C 0.41322 0.38059 0.08586 0.0
C852 C 0.44775 0.373 0.07852 0.0
C853 C 0.47984 0.36231 1.01294 0.0
H854 H 0.48815 0.40045 0.91966 0.0
C855 C 0.54619 0.3585 0.89252 0.0
C856 C 0.55475 0.37614 0.87949 0.0
C857 C 0.52867 0.35832 0.91661 0.0
C858 C 0.48621 0.38976 0.94581 0.0
H859 H 0.39933 0.38931 0.024 0.0
H860 H 0.42847 0.38623 0.97815 0.0
H861 H 0.45852 0.40151 0.96387 0.0
H862 H 0.55182 0.40741 0.88209 0.0
H863 H 0.52165 0.40717 0.92473 0.0
H864 H 0.50791 0.35105 0.99599 0.0
C865 C 0.42952 0.38308 1.01352 0.0
C866 C 0.46898 0.39018 0.97083 0.0
C867 C 0.41272 0.38473 0.03982 0.0
C868 C 0.5455 0.39356 0.89129 0.0
C869 C 0.52809 0.39341 0.91555 0.0
C870 C 0.49713 0.36196 0.98807 0.0
C871 C 0.44736 0.37739 0.03255 0.0
C872 C 0.46554 0.37652 1.00493 0.0
C873 C 0.51933 0.37579 0.92846 0.0
C874 C 0.50064 0.37576 0.95427 0.0
H875 H 0.43192 0.37128 0.1401 0.0
H876 H 0.46119 0.36886 0.09469 0.0
H877 H 0.47768 0.35136 0.03842 0.0
H878 H 0.55298 0.34483 0.88388 0.0
H879 H 0.52232 0.34445 0.92539 0.0
C880 C 0.86685 0.43114 0.84422 0.0
C881 C 0.88102 0.41702 0.83482 0.0
C882 C 0.865 0.4477 0.8173 0.0
C883 C 0.88113 0.46881 0.70691 0.0
H884 H 0.86401 0.51699 0.76106 0.0
C885 C 0.89175 0.54478 0.62632 0.0
C886 C 0.87543 0.55706 0.62493 0.0
C887 C 0.89116 0.52724 0.6499 0.0
C888 C 0.86865 0.50359 0.74539 0.0
H889 H 0.90449 0.40938 0.78984 0.0
H890 H 0.90199 0.43852 0.74432 0.0
H891 H 0.86597 0.48768 0.80641 0.0
H892 H 0.84554 0.56027 0.6465 0.0
H893 H 0.84477 0.52988 0.68942 0.0
H894 H 0.8847 0.48522 0.64641 0.0
C895 C 0.89174 0.43663 0.77144 0.0
C896 C 0.86969 0.48666 0.77133 0.0
C897 C 0.89331 0.41989 0.79784 0.0
C898 C 0.85841 0.55125 0.64733 0.0
C899 C 0.85797 0.53386 0.67187 0.0
C900 C 0.88046 0.48584 0.68128 0.0
C901 C 0.87754 0.45086 0.78064 0.0
C902 C 0.87601 0.46895 0.7526 0.0
C903 C 0.87436 0.52168 0.67344 0.0
C904 C 0.87424 0.50342 0.70022 0.0
H905 H 0.857 0.4293 0.87219 0.0
H906 H 0.85357 0.45792 0.82521 0.0
H907 H 0.8856 0.45553 0.69059 0.0
H908 H 0.90508 0.5488 0.60937 0.0
H909 H 0.90405 0.51822 0.65067 0.0
C910 C 0.55722 0.13237 0.35753 0.0
C911 C 0.5579 0.12734 0.40292 0.0
C912 C 0.53982 0.13129 0.33355 0.0
C913 C 0.4861 0.12855 0.34659 0.0
H914 H 0.48845 0.11021 0.22417 0.0
C915 C 0.41703 0.11248 0.24001 0.0
C916 C 0.41759 0.11798 0.1947 0.0
C917 C 0.43374 0.11368 0.2667 0.0
C918 C 0.48752 0.11557 0.25814 0.0
H919 H 0.54083 0.11692 0.45885 0.0
H920 H 0.51031 0.11482 0.41696 0.0
H921 H 0.51808 0.11204 0.26823 0.0
H922 H 0.43624 0.12939 0.14234 0.0
H923 H 0.46518 0.13158 0.18873 0.0
H924 H 0.45542 0.13198 0.3363 0.0
C925 C 0.52322 0.11999 0.39995 0.0
C926 C 0.50456 0.11664 0.28348 0.0
C927 C 0.54072 0.12108 0.42394 0.0
C928 C 0.43522 0.12493 0.17698 0.0
C929 C 0.45191 0.12608 0.20358 0.0
C930 C 0.46899 0.12744 0.32119 0.0
C931 C 0.52256 0.12497 0.35428 0.0
C932 C 0.50415 0.12331 0.32795 0.0
C933 C 0.45146 0.12034 0.24872 0.0
C934 C 0.46951 0.12108 0.27647 0.0
H935 H 0.57028 0.13662 0.34013 0.0
H936 H 0.53993 0.13544 0.29863 0.0
H937 H 0.48521 0.13394 0.38053 0.0
H938 H 0.40372 0.10705 0.25484 0.0
H939 H 0.43288 0.109 0.30121 0.0
C940 C 0.12379 0.56517 0.86659 0.0
C941 C 0.11783 0.58297 0.8482 0.0
C942 C 0.12523 0.54852 0.83982 0.0
C943 C 0.13638 0.51724 0.77242 0.0
H944 H 0.09856 0.50984 0.67808 0.0
C945 C 0.14144 0.45306 0.6464 0.0
C946 C 0.12389 0.44441 0.63303 0.0
C947 C 0.14136 0.47019 0.67182 0.0
C948 C 0.10917 0.51152 0.70449 0.0
H949 H 0.10914 0.59726 0.78678 0.0
H950 H 0.11207 0.56851 0.74011 0.0
H951 H 0.09691 0.53865 0.72459 0.0
H952 H 0.09251 0.4468 0.63622 0.0
H953 H 0.09232 0.47625 0.68094 0.0
H954 H 0.14818 0.48969 0.75325 0.0
C955 C 0.11518 0.56718 0.77544 0.0
C956 C 0.1084 0.52828 0.73087 0.0
C957 C 0.1136 0.58377 0.80225 0.0
C958 C 0.1063 0.4532 0.64561 0.0
C959 C 0.1062 0.47021 0.67113 0.0
C960 C 0.13709 0.5004 0.74614 0.0
C961 C 0.12088 0.54926 0.79384 0.0
C962 C 0.12196 0.5314 0.76533 0.0
C963 C 0.12372 0.47902 0.68458 0.0
C964 C 0.12343 0.49724 0.71189 0.0
H965 H 0.12712 0.56399 0.90186 0.0
H966 H 0.12939 0.53499 0.85547 0.0
H967 H 0.14725 0.51918 0.79817 0.0
H968 H 0.15523 0.4466 0.63722 0.0
H969 H 0.15516 0.47661 0.68102 0.0
C970 C 0.57098 0.87739 0.17888 0.0
C971 C 0.58922 0.88178 0.19757 0.0
C972 C 0.55443 0.87566 0.20587 0.0
C973 C 0.52306 0.863 0.27107 0.0
H974 H 0.51613 0.89808 0.37102 0.0
C975 C 0.45655 0.85708 0.39033 0.0
C976 C 0.44816 0.87455 0.40487 0.0
C977 C 0.47436 0.85711 0.36734 0.0
C978 C 0.51773 0.88823 0.34307 0.0
H979 H 0.60421 0.88765 0.25986 0.0
H980 H 0.57544 0.88426 0.30704 0.0
H981 H 0.54565 0.89991 0.32622 0.0
H982 H 0.45187 0.90576 0.40675 0.0
H983 H 0.4826 0.90591 0.36628 0.0
H984 H 0.49482 0.85181 0.28687 0.0
C985 C 0.57386 0.88245 0.27127 0.0
C986 C 0.53484 0.8891 0.31766 0.0
C987 C 0.59045 0.88428 0.24418 0.0
C988 C 0.45801 0.89203 0.39625 0.0
C989 C 0.47574 0.89208 0.37322 0.0
C990 C 0.50591 0.86217 0.29639 0.0
C991 C 0.55558 0.87816 0.25249 0.0
C992 C 0.5377 0.87662 0.28099 0.0
C993 C 0.48418 0.87464 0.35826 0.0
C994 C 0.5029 0.87489 0.33254 0.0
H995 H 0.56935 0.87547 0.14315 0.0
H996 H 0.54062 0.87271 0.18992 0.0
H997 H 0.52479 0.85292 0.24359 0.0
H998 H 0.44932 0.84337 0.39653 0.0
H999 H 0.48047 0.84336 0.35693 0.0
C1000 C 0.89425 0.95786 0.64788 0.0
C1001 C 0.87716 0.94671 0.65065 0.0
C1002 C 0.89446 0.97549 0.62453 0.0
C1003 C 0.87205 1.00071 0.53147 0.0
H1004 H 0.89144 0.04792 0.58589 0.0
C1005 C 0.87071 0.07352 0.43465 0.0
C1006 C 0.88529 0.08732 0.44314 0.0
C1007 C 0.86891 0.0569 0.46137 0.0
C1008 C 0.8863 0.03487 0.56965 0.0
H1009 H 0.84674 0.94565 0.63215 0.0
H1010 H 0.84735 0.97608 0.58959 0.0
H1011 H 0.89016 0.01804 0.62945 0.0
H1012 H 0.90955 0.09436 0.48624 0.0
H1013 H 0.90715 0.06506 0.53132 0.0
H1014 H 0.86904 0.01696 0.47109 0.0
C1015 C 0.86054 0.97116 0.60576 0.0
C1016 C 0.88543 0.01775 0.59493 0.0
C1017 C 0.8602 0.95375 0.63007 0.0
C1018 C 0.89805 0.08409 0.47901 0.0
C1019 C 0.89653 0.06726 0.50515 0.0
C1020 C 0.87331 0.0177 0.50584 0.0
C1021 C 0.87769 0.98221 0.6027 0.0
C1022 C 0.87825 1.0005 0.57615 0.0
C1023 C 0.88193 0.05333 0.49682 0.0
C1024 C 0.88043 0.03513 0.52446 0.0
H1025 H 0.90753 0.9529 0.66353 0.0
H1026 H 0.9079 0.98367 0.62261 0.0
H1027 H 0.86667 0.98756 0.51595 0.0
H1028 H 0.8605 0.07567 0.40756 0.0
H1029 H 0.85714 0.04696 0.45423 0.0
C1030 C 0.06789 0.12515 0.60835 0.0
C1031 C 0.08608 0.12019 0.59009 0.0
C1032 C 0.05146 0.12693 0.58102 0.0
C1033 C 0.02047 0.13914 0.5142 0.0
H1034 H 0.01427 0.10347 0.41511 0.0
C1035 C 0.95592 0.14534 0.38981 0.0
C1036 C 0.94749 0.12793 0.37496 0.0
C1037 C 0.97329 0.14515 0.41437 0.0
C1038 C 0.01564 0.11349 0.44281 0.0
H1039 H 0.10121 0.11364 0.52828 0.0
H1040 H 0.07275 0.11708 0.48059 0.0
H1041 H 0.04314 0.10156 0.46165 0.0
H1042 H 0.95068 0.09666 0.37421 0.0
H1043 H 0.98064 0.09624 0.41737 0.0
H1044 H 0.9926 0.15058 0.49631 0.0
C1045 C 0.07103 0.1192 0.51624 0.0
C1046 C 0.03241 0.11256 0.46924 0.0
C1047 C 0.08744 0.11732 0.54363 0.0
C1048 C 0.95687 0.11035 0.38486 0.0
C1049 C 0.97416 0.11013 0.40949 0.0
C1050 C 0.00364 0.14001 0.48786 0.0
C1051 C 0.05275 0.12391 0.53454 0.0
C1052 C 0.03505 0.12531 0.50551 0.0
C1053 C 0.98263 0.12751 0.42476 0.0
C1054 C 1.00091 0.12711 0.45192 0.0
H1055 H 0.06623 0.12739 0.64399 0.0
H1056 H 0.03765 0.13027 0.59659 0.0
H1057 H 0.02203 0.1494 0.54138 0.0
H1058 H 0.94903 0.15913 0.38267 0.0
H1059 H 0.97945 0.15885 0.42497 0.0
C1060 C 0.1143 0.91555 0.49251 0.0
C1061 C 0.11741 0.9163 0.44604 0.0
C1062 C 0.11603 0.9323 0.51881 0.0
C1063 C 0.10969 0.97143 0.56353 0.0
H1064 H 0.14827 0.01045 0.53415 0.0
C1065 C 0.10828 0.04757 0.64389 0.0
C1066 C 0.12596 0.0568 0.65373 0.0
C1067 C 0.10791 0.03016 0.61989 0.0
C1068 C 0.13754 0.99964 0.54322 0.0
H1069 H 0.12468 0.93547 0.39094 0.0
H1070 H 0.12724 0.96462 0.43644 0.0
H1071 H 0.14669 0.98062 0.49065 0.0
H1072 H 0.15721 0.05494 0.64629 0.0
H1073 H 0.1567 0.02428 0.60497 0.0
H1074 H 0.10084 0.9902 0.61674 0.0
C1075 C 0.12387 0.95102 0.45286 0.0
C1076 C 0.13644 0.98258 0.51778 0.0
C1077 C 0.12225 0.93427 0.42661 0.0
C1078 C 0.14336 0.04817 0.63921 0.0
C1079 C 0.14301 0.03065 0.61525 0.0
C1080 C 0.11084 0.98842 0.58904 0.0
C1081 C 0.12082 0.9503 0.49939 0.0
C1082 C 0.1224 0.96828 0.52734 0.0
C1083 C 0.12526 0.0214 0.60518 0.0
C1084 C 0.12466 0.00288 0.57906 0.0
H1085 H 0.11069 0.90198 0.50878 0.0
H1086 H 0.11385 0.93103 0.55455 0.0
H1087 H 0.09854 0.96091 0.57177 0.0
H1088 H 0.09458 0.05394 0.65429 0.0
H1089 H 0.09394 0.02377 0.61216 0.0
C1090 C 0.04029 0.87949 0.35729 0.0
C1091 C 0.05727 0.87282 0.37832 0.0
C1092 C 0.02255 0.88002 0.38051 0.0
C1093 C 0.9974 0.85994 0.48067 0.0
H1094 H 0.96375 0.90465 0.46735 0.0
C1095 C 0.93291 0.87434 0.6008 0.0
C1096 C 0.91579 0.88255 0.58341 0.0
C1097 C 0.94959 0.87248 0.57422 0.0
C1098 C 0.9728 0.89191 0.47105 0.0
H1099 H 0.06904 0.86224 0.44057 0.0
H1100 H 0.03826 0.86284 0.48102 0.0
H1101 H 0.99367 0.9026 0.42377 0.0
H1102 H 0.90283 0.89489 0.52374 0.0
H1103 H 0.93179 0.89137 0.47731 0.0
H1104 H 0.9766 0.84924 0.52797 0.0
C1105 C 0.03845 0.86725 0.44627 0.0
C1106 C 0.99001 0.89074 0.446 0.0
C1107 C 0.05614 0.86679 0.42306 0.0
C1108 C 0.91575 0.88859 0.53845 0.0
C1109 C 0.93244 0.88668 0.51182 0.0
C1110 C 0.98018 0.86108 0.50561 0.0
C1111 C 0.02139 0.87391 0.42539 0.0
C1112 C 0.00264 0.87481 0.45072 0.0
C1113 C 0.94965 0.8787 0.52938 0.0
C1114 C 0.96768 0.87715 0.50146 0.0
H1115 H 0.04072 0.88434 0.32285 0.0
H1116 H 0.00971 0.8851 0.36319 0.0
H1117 H 0.00657 0.8473 0.48466 0.0
H1118 H 0.93357 0.86959 0.63528 0.0
H1119 H 0.96259 0.86652 0.58924 0.0
C1120 C 0.34106 0.17946 0.11066 0.0
C1121 C 0.35734 0.16777 0.11917 0.0
C1122 C 0.34253 0.19969 0.11203 0.0
C1123 C 0.36946 0.23959 0.16305 0.0
H1124 H 0.34643 0.27021 0.06832 0.0
C1125 C 0.36976 0.32488 0.16101 0.0
C1126 C 0.35332 0.33376 0.14221 0.0
C1127 C 0.3719 0.30456 0.15934 0.0
C1128 C 0.35271 0.26195 0.09549 0.0
H1129 H 0.38801 0.16811 0.13564 0.0
H1130 H 0.39049 0.20365 0.13889 0.0
H1131 H 0.34718 0.23506 0.06195 0.0
H1132 H 0.32575 0.3284 0.10957 0.0
H1133 H 0.32895 0.29343 0.10849 0.0
H1134 H 0.37436 0.26651 0.19738 0.0
C1135 C 0.37663 0.19707 0.13087 0.0
C1136 C 0.35324 0.24176 0.09159 0.0
C1137 C 0.37524 0.17676 0.12866 0.0
C1138 C 0.33871 0.322 0.12386 0.0
C1139 C 0.34067 0.30188 0.12279 0.0
C1140 C 0.3687 0.25989 0.16729 0.0
C1141 C 0.36025 0.20875 0.12268 0.0
C1142 C 0.36133 0.2303 0.12557 0.0
C1143 C 0.35753 0.29282 0.13919 0.0
C1144 C 0.35993 0.27133 0.13391 0.0
H1145 H 0.32708 0.17294 0.10339 0.0
H1146 H 0.32962 0.20828 0.10584 0.0
H1147 H 0.37573 0.23111 0.18988 0.0
H1148 H 0.3813 0.33364 0.17514 0.0
H1149 H 0.38509 0.29814 0.17236 0.0
C1150 C 0.32579 0.6295 0.86335 0.0
C1151 C 0.33522 0.64659 0.87685 0.0
C1152 C 0.30559 0.62752 0.86839 0.0
C1153 C 0.26045 0.6565 0.89308 0.0
H1154 H 0.23847 0.60573 0.91705 0.0
C1155 C 0.17975 0.64545 0.94345 0.0
C1156 C 0.16972 0.63326 0.91375 0.0
C1157 C 0.20014 0.64609 0.9429 0.0
C1158 C 0.24446 0.61999 0.91052 0.0
H1159 H 0.33088 0.675 0.90626 0.0
H1160 H 0.29616 0.67132 0.9169 0.0
H1161 H 0.27352 0.60913 0.90664 0.0
H1162 H 0.17297 0.61144 0.86221 0.0
H1163 H 0.20854 0.61198 0.86261 0.0
H1164 H 0.2313 0.66731 0.89832 0.0
C1165 C 0.30399 0.65959 0.90095 0.0
C1166 C 0.26455 0.62197 0.90401 0.0
C1167 C 0.32404 0.66169 0.8951 0.0
C1168 C 0.18039 0.62092 0.88553 0.0
C1169 C 0.20071 0.62122 0.88576 0.0
C1170 C 0.24045 0.65456 0.90053 0.0
C1171 C 0.29438 0.64247 0.88781 0.0
C1172 C 0.27288 0.64025 0.89487 0.0
C1173 C 0.2108 0.6342 0.91348 0.0
C1174 C 0.23222 0.63629 0.90903 0.0
H1175 H 0.33403 0.61762 0.84908 0.0
H1176 H 0.29882 0.61425 0.85691 0.0
H1177 H 0.26603 0.67076 0.8851 0.0
H1178 H 0.17185 0.65523 0.96523 0.0
H1179 H 0.20759 0.65619 0.96473 0.0
C1180 C 0.66603 0.82062 0.12513 0.0
C1181 C 0.65026 0.8326 0.11389 0.0
C1182 C 0.66359 0.80063 0.13003 0.0
C1183 C 0.62512 0.76274 0.14607 0.0
H1184 H 0.66866 0.72818 0.12512 0.0
C1185 C 0.62265 0.67838 0.12829 0.0
C1186 C 0.63642 0.66792 0.15314 0.0
C1187 C 0.62257 0.69867 0.12892 0.0
C1188 C 0.65645 0.73771 0.13159 0.0
H1189 H 0.6197 0.83283 0.09683 0.0
H1190 H 0.61557 0.79765 0.10283 0.0
H1191 H 0.6721 0.7626 0.10926 0.0
H1192 H 0.66049 0.6703 0.19933 0.0
H1193 H 0.66077 0.70598 0.19936 0.0
H1194 H 0.60925 0.73724 0.16586 0.0
C1195 C 0.62974 0.8038 0.10967 0.0
C1196 C 0.65839 0.75752 0.12265 0.0
C1197 C 0.63212 0.82397 0.1056 0.0
C1198 C 0.64955 0.67805 0.18041 0.0
C1199 C 0.64981 0.6984 0.18011 0.0
C1200 C 0.62306 0.74278 0.154 0.0
C1201 C 0.64538 0.79184 0.1228 0.0
C1202 C 0.64284 0.77045 0.13017 0.0
C1203 C 0.63662 0.70887 0.15348 0.0
C1204 C 0.63879 0.73013 0.14726 0.0
H1205 H 0.68021 0.82677 0.13207 0.0
H1206 H 0.67597 0.79223 0.14106 0.0
H1207 H 0.61287 0.7721 0.15308 0.0
H1208 H 0.61251 0.67085 0.1067 0.0
H1209 H 0.61234 0.70638 0.10793 0.0
C1210 C 0.82096 0.34041 0.88215 0.0
C1211 C 0.83212 0.35541 0.90087 0.0
C1212 C 0.8009 0.34247 0.87668 0.0
C1213 C 0.76124 0.37982 0.87603 0.0
H1214 H 0.72833 0.33416 0.8807 0.0
C1215 C 0.67709 0.37991 0.89623 0.0
C1216 C 0.66646 0.36769 0.86768 0.0
C1217 C 0.69741 0.37983 0.89562 0.0
C1218 C 0.73738 0.347 0.87878 0.0
H1219 H 0.83092 0.38417 0.92973 0.0
H1220 H 0.79567 0.38746 0.92253 0.0
H1221 H 0.7631 0.33091 0.89305 0.0
H1222 H 0.66868 0.34615 0.81524 0.0
H1223 H 0.70442 0.34556 0.81506 0.0
H1224 H 0.73501 0.39593 0.86419 0.0
C1225 C 0.80246 0.37431 0.91043 0.0
C1226 C 0.7574 0.34519 0.88572 0.0
C1227 C 0.82268 0.37238 0.91509 0.0
C1228 C 0.67654 0.35584 0.8373 0.0
C1229 C 0.69693 0.3554 0.83745 0.0
C1230 C 0.74111 0.38167 0.87004 0.0
C1231 C 0.79126 0.35944 0.89069 0.0
C1232 C 0.76972 0.36155 0.88425 0.0
C1233 C 0.70755 0.36717 0.86716 0.0
C1234 C 0.729 0.36526 0.87115 0.0
H1235 H 0.8278 0.3272 0.8704 0.0
H1236 H 0.79308 0.33082 0.8604 0.0
H1237 H 0.77011 0.39276 0.87371 0.0
H1238 H 0.66964 0.38914 0.92005 0.0
H1239 H 0.7052 0.38896 0.919 0.0
C1240 C 0.8449 0.68223 0.59728 0.0
C1241 C 0.86073 0.6702 0.60763 0.0
C1242 C 0.84668 0.70242 0.59937 0.0
C1243 C 0.87311 0.74148 0.65534 0.0
H1244 H 0.85149 0.77325 0.56086 0.0
C1245 C 0.87298 0.82689 0.6582 0.0
C1246 C 0.85651 0.83576 0.63946 0.0
C1247 C 0.87539 0.80661 0.65542 0.0
C1248 C 0.8574 0.76466 0.58791 0.0
H1249 H 0.89095 0.6699 0.628 0.0
H1250 H 0.89399 0.70539 0.63239 0.0
H1251 H 0.85242 0.7382 0.55221 0.0
H1252 H 0.82918 0.83039 0.60577 0.0
H1253 H 0.83291 0.7955 0.60256 0.0
H1254 H 0.87748 0.76801 0.69172 0.0
C1255 C 0.88023 0.6991 0.6224 0.0
C1256 C 0.85803 0.74452 0.58274 0.0
C1257 C 0.87854 0.67882 0.6195 0.0
C1258 C 0.84215 0.82401 0.62005 0.0
C1259 C 0.84441 0.80394 0.61777 0.0
C1260 C 0.87229 0.76173 0.66078 0.0
C1261 C 0.86427 0.71111 0.61256 0.0
C1262 C 0.86554 0.73264 0.61667 0.0
C1263 C 0.8613 0.79493 0.63411 0.0
C1264 C 0.864 0.77356 0.6275 0.0
H1265 H 0.83099 0.676 0.5882 0.0
H1266 H 0.83408 0.71124 0.59191 0.0
H1267 H 0.87893 0.73268 0.68217 0.0
H1268 H 0.88433 0.83564 0.67314 0.0
H1269 H 0.88858 0.8002 0.66847 0.0
C1270 C 0.82485 0.16312 0.39565 0.0
C1271 C 0.83621 0.14824 0.37705 0.0
C1272 C 0.80482 0.16077 0.40137 0.0
C1273 C 0.76568 0.12282 0.40295 0.0
H1274 H 0.73214 0.16794 0.39666 0.0
C1275 C 0.68184 0.12167 0.37883 0.0
C1276 C 0.67074 0.13419 0.4057 0.0
C1277 C 0.70213 0.12173 0.38133 0.0
C1278 C 0.74136 0.15525 0.3991 0.0
H1279 H 0.83539 0.11937 0.34869 0.0
H1280 H 0.8002 0.11555 0.35632 0.0
H1281 H 0.76691 0.17168 0.38477 0.0
H1282 H 0.67202 0.15611 0.45743 0.0
H1283 H 0.70773 0.15662 0.461 0.0
H1284 H 0.73964 0.10635 0.41475 0.0
C1285 C 0.80682 0.12885 0.36812 0.0
C1286 C 0.76138 0.15735 0.39239 0.0
C1287 C 0.82699 0.13108 0.36321 0.0
C1288 C 0.68025 0.14617 0.4367 0.0
C1289 C 0.70064 0.14657 0.43845 0.0
C1290 C 0.74556 0.12068 0.40872 0.0
C1291 C 0.79542 0.1436 0.38774 0.0
C1292 C 0.77392 0.14119 0.39432 0.0
C1293 C 0.71176 0.13465 0.41003 0.0
C1294 C 0.73322 0.13689 0.407 0.0
H1295 H 0.83151 0.17647 0.40711 0.0
H1296 H 0.79684 0.17234 0.41752 0.0
H1297 H 0.77474 0.11005 0.40562 0.0
H1298 H 0.67482 0.11237 0.35449 0.0
H1299 H 0.71032 0.11247 0.3589 0.0
C1300 C 0.12708 0.32391 0.61612 0.0
C1301 C 0.14521 0.33328 0.61357 0.0
C1302 C 0.12601 0.30362 0.61946 0.0
C1303 C 0.15522 0.25865 0.60299 0.0
H1304 H 0.11986 0.23622 0.68992 0.0
C1305 C 0.129 0.17745 0.66387 0.0
C1306 C 0.1473 0.16837 0.66498 0.0
C1307 C 0.12756 0.1976 0.65793 0.0
C1308 C 0.12967 0.24223 0.66518 0.0
H1309 H 0.17636 0.32871 0.61099 0.0
H1310 H 0.17454 0.29358 0.6169 0.0
H1311 H 0.11922 0.27118 0.67584 0.0
H1312 H 0.17839 0.1734 0.66306 0.0
H1313 H 0.1759 0.20839 0.65323 0.0
H1314 H 0.16586 0.22984 0.59268 0.0
C1315 C 0.1611 0.30174 0.61603 0.0
C1316 C 0.12927 0.26227 0.65698 0.0
C1317 C 0.16216 0.32194 0.61284 0.0
C1318 C 0.16408 0.17993 0.66197 0.0
C1319 C 0.16264 0.19998 0.65596 0.0
C1320 C 0.15565 0.23869 0.61125 0.0
C1321 C 0.14304 0.29228 0.62002 0.0
C1322 C 0.14225 0.27078 0.62622 0.0
C1323 C 0.14438 0.20905 0.65286 0.0
C1324 C 0.1431 0.23024 0.64293 0.0
H1325 H 0.11376 0.33228 0.61679 0.0
H1326 H 0.11185 0.29682 0.6219 0.0
H1327 H 0.16514 0.26458 0.57838 0.0
H1328 H 0.1158 0.16892 0.66605 0.0
H1329 H 0.11326 0.2041 0.65564 0.0
C1330 C 0.32678 0.87155 0.41932 0.0
C1331 C 0.33605 0.85415 0.40738 0.0
C1332 C 0.30662 0.87365 0.41393 0.0
C1333 C 0.26124 0.84467 0.3917 0.0
H1334 H 0.23976 0.89513 0.36294 0.0
C1335 C 0.18043 0.85473 0.34385 0.0
C1336 C 0.17073 0.86739 0.3731 0.0
C1337 C 0.20083 0.85436 0.34265 0.0
C1338 C 0.24561 0.88094 0.37076 0.0
H1339 H 0.33142 0.82532 0.38042 0.0
H1340 H 0.2968 0.82917 0.36924 0.0
H1341 H 0.27478 0.89165 0.37366 0.0
H1342 H 0.17448 0.89037 0.42165 0.0
H1343 H 0.21 0.8903 0.41808 0.0
H1344 H 0.23201 0.834 0.38765 0.0
C1345 C 0.30472 0.84107 0.38421 0.0
C1346 C 0.26568 0.87894 0.37746 0.0
C1347 C 0.32473 0.83887 0.39038 0.0
C1348 C 0.18165 0.88057 0.39861 0.0
C1349 C 0.20196 0.88052 0.3966 0.0
C1350 C 0.24127 0.84663 0.38409 0.0
C1351 C 0.29528 0.8585 0.39575 0.0
C1352 C 0.27382 0.86077 0.38838 0.0
C1353 C 0.21178 0.86695 0.36984 0.0
C1354 C 0.23322 0.86479 0.37385 0.0
H1355 H 0.33513 0.88357 0.43257 0.0
H1356 H 0.29996 0.88716 0.42415 0.0
H1357 H 0.26668 0.83052 0.40109 0.0
H1358 H 0.17234 0.84427 0.32429 0.0
H1359 H 0.20807 0.8438 0.3216 0.0
C1360 C 0.20874 0.10125 0.74822 0.0
C1361 C 0.18935 0.1026 0.76294 0.0
C1362 C 0.22411 0.10032 0.77919 0.0
C1363 C 0.23534 0.08908 0.89854 0.0
H1364 H 0.28076 0.12116 0.87853 0.0
C1365 C 0.29468 0.10051 0.03586 0.0
C1366 C 0.31405 0.10293 0.02176 0.0
C1367 C 0.27945 0.09966 1.00445 0.0
C1368 C 0.26837 0.11183 0.88455 0.0
H1369 H 0.17105 0.1033 0.82208 0.0
H1370 H 0.19759 0.10166 0.87546 0.0
H1371 H 0.25497 0.12044 0.82296 0.0
H1372 H 0.33251 0.10557 0.9631 0.0
H1373 H 0.30639 0.10355 0.90914 0.0
H1374 H 0.24877 0.08032 0.95995 0.0
C1375 C 0.20103 0.10134 0.84013 0.0
C1376 C 0.25351 0.11145 0.85248 0.0
C1377 C 0.18576 0.10246 0.80932 0.0
C1378 C 0.31778 0.10397 0.9755 0.0
C1379 C 0.30268 0.10295 0.94429 0.0
C1380 C 0.25029 0.08932 0.9305 0.0
C1381 C 0.22046 0.10044 0.82564 0.0
C1382 C 0.23672 0.10014 0.85903 0.0
C1383 C 0.28321 0.10105 0.9581 0.0
C1384 C 0.26707 0.10074 0.92412 0.0
H1385 H 0.21207 0.10132 0.71282 0.0
H1386 H 0.23887 0.09945 0.76674 0.0
H1387 H 0.22274 0.08001 0.90461 0.0
H1388 H 0.29123 0.09971 0.07114 0.0
H1389 H 0.26469 0.09837 0.01667 0.0
C1390 C 0.10477 0.70706 1.00266 0.0
C1391 C 0.11097 0.68847 0.01577 0.0
C1392 C 0.10399 0.72237 0.03391 0.0
C1393 C 0.10233 0.7314 0.15739 0.0
H1394 H 0.1177 0.78364 0.12546 0.0
C1395 C 0.11205 0.79298 0.29024 0.0
C1396 C 0.10691 0.81193 0.27742 0.0
C1397 C 0.11193 0.77773 0.2588 0.0
C1398 C 0.1131 0.7692 0.13498 0.0
H1399 H 0.12219 0.67188 0.07183 0.0
H1400 H 0.12087 0.69816 0.12529 0.0
H1401 H 0.11846 0.75814 0.06905 0.0
H1402 H 0.09662 0.82931 0.22166 0.0
H1403 H 0.0961 0.80304 0.168 0.0
H1404 H 0.09696 0.74243 0.22332 0.0
C1405 C 0.11606 0.70095 0.09143 0.0
C1406 C 0.11354 0.75453 0.10242 0.0
C1407 C 0.11686 0.6858 0.06046 0.0
C1408 C 0.10099 0.81502 0.23289 0.0
C1409 C 0.10081 0.79989 0.20175 0.0
C1410 C 0.10186 0.74607 0.18994 0.0
C1411 C 0.10941 0.71944 0.07896 0.0
C1412 C 0.10824 0.73537 0.11314 0.0
C1413 C 0.10659 0.78106 0.21384 0.0
C1414 C 0.10725 0.76522 0.1793 0.0
H1415 H 0.10014 0.70969 0.96861 0.0
H1416 H 0.09874 0.7364 0.02299 0.0
H1417 H 0.09783 0.71692 0.16691 0.0
H1418 H 0.11677 0.79004 0.32409 0.0
H1419 H 0.11657 0.76346 0.26948 0.0
C1420 C 0.68736 0.90057 0.97702 0.0
C1421 C 0.69138 0.90013 0.02323 0.0
C1422 C 0.70229 0.90202 0.94538 0.0
C1423 C 0.75481 0.89254 0.92985 0.0
H1424 H 0.74806 0.92256 0.82128 0.0
C1425 C 0.81743 0.901 0.80279 0.0
C1426 C 0.81333 0.90093 0.75662 0.0
C1427 C 0.80258 0.90194 0.83465 0.0
C1428 C 0.75013 0.91389 0.85107 0.0
H1429 H 0.71458 0.90129 0.07201 0.0
H1430 H 0.74082 0.90384 0.01654 0.0
H1431 H 0.72282 0.92295 0.87874 0.0
H1432 H 0.79 0.9022 0.70821 0.0
H1433 H 0.76384 0.90357 0.76408 0.0
H1434 H 0.78192 0.8832 0.90213 0.0
C1435 C 0.72595 0.90291 1.00494 0.0
C1436 C 0.73564 0.91417 0.88425 0.0
C1437 C 0.71089 0.9016 0.03683 0.0
C1438 C 0.79376 0.90225 0.74334 0.0
C1439 C 0.77875 0.90309 0.77551 0.0
C1440 C 0.76924 0.89219 0.89666 0.0
C1441 C 0.72185 0.90301 0.95868 0.0
C1442 C 0.73774 0.90347 0.92415 0.0
C1443 C 0.78295 0.90271 0.82175 0.0
C1444 C 0.76719 0.90289 0.85671 0.0
H1445 H 0.67257 0.89953 0.96494 0.0
H1446 H 0.69847 0.9018 0.91028 0.0
H1447 H 0.75684 0.88381 0.95958 0.0
H1448 H 0.83225 0.90025 0.81472 0.0
H1449 H 0.80658 0.90214 0.86964 0.0
C1450 C 0.90088 0.29451 0.99317 0.0
C1451 C 0.89713 0.31365 1.00714 0.0
C1452 C 0.9023 0.27935 0.02463 0.0
C1453 C 0.91135 0.26945 0.14539 0.0
H1454 H 0.88334 0.22164 0.12373 0.0
C1455 C 0.90193 0.21015 0.28396 0.0
C1456 C 0.90054 0.19066 0.27041 0.0
C1457 C 0.90245 0.22521 0.25203 0.0
C1458 C 0.8916 0.2347 0.13029 0.0
H1459 H 0.89239 0.3317 0.06567 0.0
H1460 H 0.89513 0.30559 0.11976 0.0
H1461 H 0.88336 0.24701 0.06718 0.0
H1462 H 0.89955 0.17184 0.21231 0.0
H1463 H 0.90126 0.19759 0.15755 0.0
H1464 H 0.91985 0.25713 0.2082 0.0
C1465 C 0.89694 0.30219 0.08465 0.0
C1466 C 0.89154 0.24933 0.09762 0.0
C1467 C 0.89524 0.31721 0.05336 0.0
C1468 C 0.90034 0.18665 0.22425 0.0
C1469 C 0.90114 0.20156 0.19256 0.0
C1470 C 0.91162 0.25471 0.17789 0.0
C1471 C 0.90034 0.283 0.07086 0.0
C1472 C 0.90131 0.26697 0.10476 0.0
C1473 C 0.90186 0.22116 0.20569 0.0
C1474 C 0.90169 0.23707 0.17102 0.0
H1475 H 0.90239 0.2912 0.95795 0.0
H1476 H 0.90504 0.26476 1.01278 0.0
H1477 H 0.9192 0.28277 0.15195 0.0
H1478 H 0.90204 0.2138 0.31917 0.0
H1479 H 0.90283 0.24005 0.26384 0.0
C1480 C 0.31353 0.39881 0.30279 0.0
C1481 C 0.30999 0.39913 0.25637 0.0
C1482 C 0.2983 0.40006 0.33368 0.0
C1483 C 0.24551 0.39152 0.34626 0.0
H1484 H 0.25188 0.42094 0.45581 0.0
C1485 C 0.1823 0.39964 0.47234 0.0
C1486 C 0.18638 0.39932 0.51846 0.0
C1487 C 0.19721 0.40072 0.4406 0.0
C1488 C 0.24989 0.41244 0.42573 0.0
H1489 H 0.28731 0.40123 0.20646 0.0
H1490 H 0.26054 0.40335 0.26065 0.0
H1491 H 0.27758 0.42118 0.39953 0.0
H1492 H 0.20961 0.40033 0.56714 0.0
H1493 H 0.23584 0.40191 0.51164 0.0
H1494 H 0.21802 0.38247 0.37259 0.0
C1495 C 0.27527 0.40204 0.27296 0.0
C1496 C 0.26466 0.41263 0.39325 0.0
C1497 C 0.29063 0.40094 0.24182 0.0
C1498 C 0.20591 0.40059 0.53197 0.0
C1499 C 0.22095 0.40155 0.50001 0.0
C1500 C 0.23079 0.39125 0.37881 0.0
C1501 C 0.27891 0.40157 0.31939 0.0
C1502 C 0.26272 0.40213 0.35306 0.0
C1503 C 0.21683 0.4014 0.45374 0.0
C1504 C 0.23272 0.40169 0.41913 0.0
H1505 H 0.32817 0.39744 0.31562 0.0
H1506 H 0.30174 0.39936 0.36896 0.0
H1507 H 0.24359 0.38298 0.31621 0.0
H1508 H 0.16745 0.39908 0.46049 0.0
H1509 H 0.19328 0.40111 0.40559 0.0
C1510 C 0.40023 0.68463 0.72551 0.0
C1511 C 0.40088 0.68823 0.77185 0.0
C1512 C 0.40155 0.69979 0.69448 0.0
C1513 C 0.39363 0.7526 0.68228 0.0
H1514 H 0.42244 0.74611 0.57175 0.0
C1515 C 0.40168 0.81594 0.5569 0.0
C1516 C 0.40142 0.81203 0.5107 0.0
C1517 C 0.40272 0.80095 0.58835 0.0
C1518 C 0.41409 0.74814 0.60209 0.0
H1519 H 0.40381 0.71085 0.82161 0.0
H1520 H 0.40605 0.73749 0.76726 0.0
H1521 H 0.42259 0.72032 0.62766 0.0
H1522 H 0.40249 0.789 0.46157 0.0
H1523 H 0.40393 0.76263 0.51654 0.0
H1524 H 0.38475 0.78017 0.65661 0.0
C1525 C 0.40439 0.7228 0.75504 0.0
C1526 C 0.41425 0.73332 0.63438 0.0
C1527 C 0.40324 0.70752 0.78626 0.0
C1528 C 0.40269 0.79257 0.49682 0.0
C1529 C 0.40358 0.77745 0.5285 0.0
C1530 C 0.39336 0.76735 0.64992 0.0
C1531 C 0.40347 0.71914 0.70864 0.0
C1532 C 0.40399 0.73531 0.67496 0.0
C1533 C 0.40338 0.7814 0.57487 0.0
C1534 C 0.40361 0.76541 0.60924 0.0
H1535 H 0.39865 0.66999 0.71295 0.0
H1536 H 0.40059 0.69632 0.65923 0.0
H1537 H 0.38527 0.75457 0.71265 0.0
H1538 H 0.40113 0.83073 0.56903 0.0
H1539 H 0.40309 0.80479 0.62343 0.0
C1540 C 0.68854 0.60017 0.29743 0.0
C1541 C 0.69175 0.60404 0.2517 0.0
C1542 C 0.70394 0.59953 0.32791 0.0
C1543 C 0.7547 0.61636 0.3447 0.0
H1544 H 0.75356 0.58012 0.44393 0.0
C1545 C 0.81938 0.6094 0.46714 0.0
C1546 C 0.81567 0.60652 0.51303 0.0
C1547 C 0.80444 0.60851 0.43551 0.0
C1548 C 0.75402 0.59052 0.41681 0.0
H1549 H 0.71412 0.60994 0.2025 0.0
H1550 H 0.74118 0.60867 0.25585 0.0
H1551 H 0.72808 0.57901 0.38738 0.0
H1552 H 0.793 0.60012 0.56114 0.0
H1553 H 0.76673 0.59869 0.50579 0.0
H1554 H 0.78058 0.62793 0.3742 0.0
C1555 C 0.72654 0.60632 0.26807 0.0
C1556 C 0.73938 0.58986 0.38414 0.0
C1557 C 0.71103 0.6069 0.2373 0.0
C1558 C 0.79645 0.60242 0.52621 0.0
C1559 C 0.78139 0.60153 0.49433 0.0
C1560 C 0.76934 0.61702 0.37736 0.0
C1561 C 0.72319 0.60274 0.31395 0.0
C1562 C 0.73942 0.60282 0.34762 0.0
C1563 C 0.78516 0.60471 0.44846 0.0
C1564 C 0.76925 0.60412 0.414 0.0
H1565 H 0.67398 0.59786 0.31018 0.0
H1566 H 0.7006 0.59702 0.36282 0.0
H1567 H 0.75513 0.62681 0.3177 0.0
H1568 H 0.83396 0.6123 0.45527 0.0
H1569 H 0.80813 0.6106 0.40063 0.0
C1570 C 0.60972 0.20816 0.4898 0.0
C1571 C 0.60629 0.18894 0.50357 0.0
C1572 C 0.60916 0.22352 0.52093 0.0
C1573 C 0.59182 0.23626 0.63642 0.0
H1574 H 0.63125 0.27628 0.62941 0.0
C1575 C 0.60338 0.29353 0.77861 0.0
C1576 C 0.60737 0.31264 0.76478 0.0
C1577 C 0.60309 0.2782 0.74734 0.0
C1578 C 0.61998 0.26535 0.63176 0.0
H1579 H 0.59889 0.17112 0.56111 0.0
H1580 H 0.59811 0.19745 0.61443 0.0
H1581 H 0.63008 0.25104 0.57247 0.0
H1582 H 0.61456 0.33028 0.70679 0.0
H1583 H 0.61372 0.3041 0.65333 0.0
H1584 H 0.58176 0.25057 0.69581 0.0
C1585 C 0.60111 0.20087 0.57976 0.0
C1586 C 0.61928 0.25085 0.59884 0.0
C1587 C 0.60174 0.18564 0.54893 0.0
C1588 C 0.61126 0.31589 0.71908 0.0
C1589 C 0.611 0.30071 0.68814 0.0
C1590 C 0.59252 0.25076 0.66936 0.0
C1591 C 0.60499 0.22004 0.56651 0.0
C1592 C 0.60521 0.23605 0.60062 0.0
C1593 C 0.60693 0.28161 0.70157 0.0
C1594 C 0.60659 0.26558 0.66752 0.0
H1595 H 0.61329 0.2113 0.45527 0.0
H1596 H 0.61201 0.23812 0.50927 0.0
H1597 H 0.58059 0.22529 0.63878 0.0
H1598 H 0.60034 0.29043 0.81342 0.0
H1599 H 0.60005 0.26366 0.75911 0.0
C1600 C 0.36187 0.0896 0.44437 0.0
C1601 C 0.35243 0.10464 0.42118 0.0
C1602 C 0.36506 0.09089 0.49052 0.0
C1603 C 0.36736 0.1262 0.58436 0.0
H1604 H 0.36065 0.08036 0.65793 0.0
C1605 C 0.36862 0.13002 0.77779 0.0
C1606 C 0.37788 0.1149 0.80105 0.0
C1607 C 0.36536 0.1287 0.73167 0.0
C1608 C 0.36283 0.09327 0.63789 0.0
H1609 H 0.33879 0.1328 0.42882 0.0
H1610 H 0.34428 0.13503 0.50919 0.0
H1611 H 0.3555 0.07828 0.5775 0.0
H1612 H 0.39112 0.08654 0.79364 0.0
H1613 H 0.3856 0.08428 0.71329 0.0
H1614 H 0.37473 0.14119 0.64471 0.0
C1615 C 0.34952 0.12234 0.49157 0.0
C1616 C 0.35986 0.09207 0.59164 0.0
C1617 C 0.34636 0.12106 0.4454 0.0
C1618 C 0.3837 0.09835 0.77697 0.0
C1619 C 0.38051 0.09705 0.7308 0.0
C1620 C 0.37035 0.12739 0.6306 0.0
C1621 C 0.35887 0.10725 0.51483 0.0
C1622 C 0.36208 0.10852 0.56419 0.0
C1623 C 0.37134 0.11223 0.70744 0.0
C1624 C 0.36812 0.11095 0.65807 0.0
H1625 H 0.36702 0.07687 0.42674 0.0
H1626 H 0.37261 0.07913 0.50706 0.0
H1627 H 0.36952 0.13911 0.56431 0.0
H1628 H 0.36367 0.14285 0.79535 0.0
H1629 H 0.35794 0.14053 0.7151 0.0
C1630 C 0.1282 0.64607 0.60273 0.0
C1631 C 0.11218 0.65606 0.6209 0.0
C1632 C 0.12964 0.6428 0.55656 0.0
C1633 C 0.11049 0.66001 0.44696 0.0
H1634 H 0.1303 0.61085 0.40352 0.0
C1635 C 0.10488 0.63737 0.26071 0.0
C1636 C 0.12063 0.62737 0.24137 0.0
C1637 C 0.10435 0.64119 0.30671 0.0
C1638 C 0.12495 0.62477 0.41499 0.0
H1639 H 0.08494 0.67011 0.60421 0.0
H1640 H 0.08743 0.66441 0.52405 0.0
H1641 H 0.12839 0.61679 0.48376 0.0
H1642 H 0.14841 0.61392 0.25589 0.0
H1643 H 0.14744 0.62049 0.336 0.0
H1644 H 0.10694 0.66793 0.37818 0.0
C1645 C 0.0991 0.6594 0.54538 0.0
C1646 C 0.12386 0.62819 0.46115 0.0
C1647 C 0.09766 0.66268 0.59151 0.0
C1648 C 0.13589 0.62138 0.2695 0.0
C1649 C 0.13534 0.62516 0.31557 0.0
C1650 C 0.11156 0.65658 0.40083 0.0
C1651 C 0.11511 0.64941 0.52717 0.0
C1652 C 0.11655 0.64584 0.47785 0.0
C1653 C 0.11953 0.63508 0.33487 0.0
C1654 C 0.11875 0.63888 0.38414 0.0
H1655 H 0.13981 0.641 0.62413 0.0
H1656 H 0.14234 0.63533 0.54385 0.0
H1657 H 0.10511 0.67392 0.45838 0.0
H1658 H 0.09266 0.64191 0.24047 0.0
H1659 H 0.09178 0.64858 0.32035 0.0
C1660 C 0.65299 0.91424 0.45158 0.0
C1661 C 0.65099 0.89768 0.42449 0.0
C1662 C 0.64905 0.91336 0.49752 0.0
C1663 C 0.62374 0.88333 0.58335 0.0
H1664 H 0.65674 0.91128 0.66628 0.0
C1665 C 0.62061 0.87012 0.77414 0.0
C1666 C 0.62187 0.88634 0.80258 0.0
C1667 C 0.62387 0.87195 0.72814 0.0
C1668 C 0.64724 0.90355 0.64357 0.0
H1669 H 0.64356 0.8671 0.4249 0.0
H1670 H 0.63685 0.86551 0.50474 0.0
H1671 H 0.66288 0.91366 0.58613 0.0
H1672 H 0.62742 0.91732 0.80432 0.0
H1673 H 0.63322 0.92048 0.72412 0.0
H1674 H 0.60823 0.87307 0.64083 0.0
C1675 C 0.64105 0.87933 0.49044 0.0
C1676 C 0.65074 0.90494 0.59752 0.0
C1677 C 0.64492 0.88023 0.44454 0.0
C1678 C 0.62657 0.90445 0.78365 0.0
C1679 C 0.62989 0.90628 0.7376 0.0
C1680 C 0.62028 0.88189 0.62936 0.0
C1681 C 0.64307 0.89587 0.51764 0.0
C1682 C 0.63909 0.89478 0.56674 0.0
C1683 C 0.62854 0.89005 0.70922 0.0
C1684 C 0.63203 0.89192 0.66012 0.0
H1685 H 0.65741 0.92798 0.43719 0.0
H1686 H 0.65048 0.92647 0.51718 0.0
H1687 H 0.61421 0.87558 0.56075 0.0
H1688 H 0.61741 0.85586 0.78751 0.0
H1689 H 0.62304 0.85908 0.70746 0.0
C1690 C 0.88266 0.39363 0.25878 0.0
C1691 C 0.88386 0.3782 0.22804 0.0
C1692 C 0.88439 0.39031 0.30482 0.0
C1693 C 0.88042 0.35154 0.39075 0.0
H1694 H 0.90864 0.38815 0.46466 0.0
C1695 C 0.8977 0.33599 0.57711 0.0
C1696 C 0.89671 0.35151 0.60765 0.0
C1697 C 0.89609 0.33921 0.53101 0.0
C1698 C 0.90049 0.37788 0.44469 0.0
H1699 H 0.88778 0.34708 0.22224 0.0
H1700 H 0.89114 0.34135 0.30238 0.0
H1701 H 0.90617 0.3937 0.38441 0.0
H1702 H 0.89328 0.38271 0.61294 0.0
H1703 H 0.89005 0.38826 0.53279 0.0
H1704 H 0.8747 0.33574 0.45103 0.0
C1705 C 0.88865 0.35604 0.29085 0.0
C1706 C 0.89908 0.38107 0.39852 0.0
C1707 C 0.88695 0.35936 0.24475 0.0
C1708 C 0.89394 0.37035 0.59064 0.0
C1709 C 0.89232 0.37357 0.54449 0.0
C1710 C 0.88181 0.34836 0.43694 0.0
C1711 C 0.88736 0.37147 0.32158 0.0
C1712 C 0.88902 0.36795 0.37085 0.0
C1713 C 0.89342 0.35805 0.51396 0.0
C1714 C 0.89186 0.36149 0.46463 0.0
H1715 H 0.88052 0.40837 0.24727 0.0
H1716 H 0.88312 0.40255 0.32734 0.0
H1717 H 0.87228 0.34128 0.37075 0.0
H1718 H 0.89957 0.32124 0.58882 0.0
H1719 H 0.89721 0.3269 0.50868 0.0
C1720 C 0.3531 0.38889 0.4958 0.0
C1721 C 0.37193 0.38473 0.48003 0.0
C1722 C 0.34943 0.39082 0.54172 0.0
C1723 C 0.37421 0.40017 0.65007 0.0
H1724 H 0.32705 0.37885 0.70148 0.0
C1725 C 0.36254 0.3955 0.84141 0.0
C1726 C 0.34394 0.39981 0.85834 0.0
C1727 C 0.36569 0.39365 0.79533 0.0
C1728 C 0.34019 0.38509 0.68764 0.0
H1729 H 0.40172 0.37966 0.50068 0.0
H1730 H 0.39527 0.38262 0.58041 0.0
H1731 H 0.33296 0.37581 0.62135 0.0
H1732 H 0.31399 0.40525 0.83958 0.0
H1733 H 0.31954 0.40234 0.75928 0.0
H1734 H 0.38148 0.40942 0.71629 0.0
C1735 C 0.38332 0.38457 0.55731 0.0
C1736 C 0.34359 0.38335 0.64159 0.0
C1737 C 0.38698 0.38262 0.51147 0.0
C1738 C 0.32854 0.40211 0.82783 0.0
C1739 C 0.33169 0.40022 0.78172 0.0
C1740 C 0.37083 0.40189 0.69607 0.0
C1741 C 0.3645 0.38871 0.57313 0.0
C1742 C 0.36068 0.39081 0.62215 0.0
C1743 C 0.35033 0.39605 0.76479 0.0
C1744 C 0.3538 0.39433 0.71557 0.0
H1745 H 0.3411 0.39044 0.47269 0.0
H1746 H 0.33479 0.3942 0.55254 0.0
H1747 H 0.38737 0.40641 0.63629 0.0
H1748 H 0.3748 0.39384 0.86373 0.0
H1749 H 0.38019 0.3902 0.78367 0.0
C1750 C 0.40839 0.66252 0.20212 0.0
C1751 C 0.39955 0.64991 0.17118 0.0
C1752 C 0.40675 0.65926 0.24819 0.0
C1753 C 0.39592 0.62096 0.33172 0.0
H1754 H 0.38716 0.66449 0.41131 0.0
C1755 C 0.37811 0.61017 0.51947 0.0
C1756 C 0.38621 0.62327 0.55038 0.0
C1757 C 0.37972 0.61344 0.47339 0.0
C1758 C 0.38986 0.65217 0.38971 0.0
H1759 H 0.38186 0.62396 0.16513 0.0
H1760 H 0.37917 0.6182 0.24535 0.0
H1761 H 0.39005 0.67004 0.33108 0.0
H1762 H 0.40258 0.65003 0.55659 0.0
H1763 H 0.40547 0.65568 0.47637 0.0
H1764 H 0.39584 0.60309 0.39028 0.0
C1765 C 0.38755 0.63054 0.23387 0.0
C1766 C 0.39149 0.65537 0.34359 0.0
C1767 C 0.38913 0.63384 0.18776 0.0
C1768 C 0.39592 0.63976 0.53387 0.0
C1769 C 0.39757 0.64301 0.48775 0.0
C1770 C 0.39434 0.61777 0.37785 0.0
C1771 C 0.3963 0.64323 0.26473 0.0
C1772 C 0.39454 0.6398 0.31393 0.0
C1773 C 0.3895 0.62989 0.45681 0.0
C1774 C 0.39127 0.63332 0.40755 0.0
H1775 H 0.41685 0.67483 0.19077 0.0
H1776 H 0.41396 0.66916 0.27088 0.0
H1777 H 0.39856 0.60866 0.31003 0.0
H1778 H 0.37024 0.59749 0.53089 0.0
H1779 H 0.373 0.60319 0.45076 0.0
C1780 C 0.67097 0.62086 0.82536 0.0
C1781 C 0.66022 0.60839 0.85332 0.0
C1782 C 0.66703 0.62192 0.77949 0.0
C1783 C 0.6436 0.59487 0.68673 0.0
H1784 H 0.6442 0.64484 0.62726 0.0
C1785 C 0.61691 0.6045 0.50439 0.0
C1786 C 0.6271 0.61752 0.47672 0.0
C1787 C 0.62101 0.60333 0.55017 0.0
C1788 C 0.6442 0.63072 0.64314 0.0
H1789 H 0.63663 0.5875 0.85466 0.0
H1790 H 0.62979 0.58933 0.77484 0.0
H1791 H 0.65127 0.64292 0.70693 0.0
H1792 H 0.64994 0.6392 0.47557 0.0
H1793 H 0.65723 0.63704 0.55515 0.0
H1794 H 0.6366 0.58264 0.62295 0.0
C1795 C 0.64149 0.59807 0.78825 0.0
C1796 C 0.64826 0.62963 0.68894 0.0
C1797 C 0.64543 0.59702 0.83411 0.0
C1798 C 0.64159 0.62924 0.49599 0.0
C1799 C 0.64575 0.62801 0.54172 0.0
C1800 C 0.63959 0.59595 0.6409 0.0
C1801 C 0.65223 0.61054 0.7603 0.0
C1802 C 0.64799 0.61169 0.71139 0.0
C1803 C 0.63548 0.61507 0.56952 0.0
C1804 C 0.63981 0.61389 0.61843 0.0
H1805 H 0.68265 0.62961 0.8388 0.0
H1806 H 0.6758 0.63146 0.75893 0.0
H1807 H 0.64355 0.58076 0.7027 0.0
H1808 H 0.60548 0.59545 0.49081 0.0
H1809 H 0.61257 0.59342 0.57054 0.0
C1810 C 0.61556 0.39012 0.50879 0.0
C1811 C 0.61757 0.37486 0.53973 0.0
C1812 C 0.61478 0.38643 0.46275 0.0
C1813 C 0.62661 0.34924 0.37668 0.0
H1814 H 0.59043 0.37856 0.30402 0.0
C1815 C 0.61163 0.33007 0.19062 0.0
C1816 C 0.60882 0.34545 0.16028 0.0
C1817 C 0.61294 0.33355 0.23673 0.0
C1818 C 0.60081 0.37039 0.3236 0.0
H1819 H 0.62065 0.34365 0.5458 0.0
H1820 H 0.61902 0.3372 0.46565 0.0
H1821 H 0.59234 0.38475 0.38405 0.0
H1822 H 0.60509 0.37663 0.15543 0.0
H1823 H 0.60783 0.38271 0.23535 0.0
H1824 H 0.6351 0.33489 0.31618 0.0
C1825 C 0.61819 0.35209 0.47703 0.0
C1826 C 0.6019 0.37394 0.36967 0.0
C1827 C 0.61892 0.35578 0.52314 0.0
C1828 C 0.60747 0.36441 0.1775 0.0
C1829 C 0.60879 0.36789 0.22358 0.0
C1830 C 0.62554 0.34569 0.33056 0.0
C1831 C 0.616 0.36736 0.44614 0.0
C1832 C 0.61483 0.36345 0.39693 0.0
C1833 C 0.61148 0.35251 0.25395 0.0
C1834 C 0.61264 0.35623 0.30328 0.0
H1835 H 0.61422 0.40498 0.52015 0.0
H1836 H 0.61332 0.3986 0.4401 0.0
H1837 H 0.63694 0.34104 0.39636 0.0
H1838 H 0.61296 0.31529 0.17876 0.0
H1839 H 0.61482 0.32129 0.25893 0.0
C1840 C 0.87042 0.61554 0.93065 0.0
C1841 C 0.85232 0.60934 0.91401 0.0
C1842 C 0.87389 0.61636 0.97678 0.0
C1843 C 0.84858 0.61868 0.08641 0.0
H1844 H 0.89827 0.60182 0.13334 0.0
C1845 C 0.86251 0.61065 0.27681 0.0
C1846 C 0.88087 0.61611 0.29324 0.0
C1847 C 0.85897 0.60983 0.2307 0.0
C1848 C 0.88438 0.60683 0.12084 0.0
H1849 H 0.8238 0.5988 0.9335 0.0
H1850 H 0.8298 0.60038 1.01365 0.0
H1851 H 0.89231 0.6005 0.05309 0.0
H1852 H 0.90977 0.62545 0.27362 0.0
H1853 H 0.9036 0.62413 0.19353 0.0
H1854 H 0.84066 0.62509 0.15409 0.0
C1855 C 0.84125 0.60488 0.991 0.0
C1856 C 0.88096 0.60605 0.07471 0.0
C1857 C 0.8378 0.60399 0.9449 0.0
C1858 C 0.89555 0.62084 0.26227 0.0
C1859 C 0.89201 0.62007 0.21621 0.0
C1860 C 0.85201 0.6195 0.13254 0.0
C1861 C 0.85934 0.61107 1.00761 0.0
C1862 C 0.86301 0.61196 0.05683 0.0
C1863 C 0.87368 0.61451 0.19971 0.0
C1864 C 0.86997 0.61359 0.15045 0.0
H1865 H 0.88187 0.62006 0.90804 0.0
H1866 H 0.8879 0.62147 0.9883 0.0
H1867 H 0.83468 0.62363 0.07384 0.0
H1868 H 0.85093 0.60665 0.29958 0.0
H1869 H 0.84476 0.6052 0.21936 0.0
C1870 C 0.61922 0.10923 0.75981 0.0
C1871 C 0.62026 0.12431 0.72814 0.0
C1872 C 0.61807 0.11332 0.80562 0.0
C1873 C 0.62812 0.15193 0.88894 0.0
H1874 H 0.59407 0.12147 0.96488 0.0
C1875 C 0.61408 0.17207 0.07454 0.0
C1876 C 0.61244 0.15687 0.10576 0.0
C1877 C 0.61495 0.16823 0.02856 0.0
C1878 C 0.60386 0.12998 0.94434 0.0
H1879 H 0.62106 0.15559 0.72033 0.0
H1880 H 0.61879 0.1627 0.80008 0.0
H1881 H 0.59569 0.11457 0.88506 0.0
H1882 H 0.61024 0.12559 0.11241 0.0
H1883 H 0.61228 0.11888 0.03265 0.0
H1884 H 0.63638 0.16726 0.94822 0.0
C1885 C 0.61901 0.14768 0.78947 0.0
C1886 C 0.60477 0.12603 0.89844 0.0
C1887 C 0.62009 0.14359 0.74363 0.0
C1888 C 0.61173 0.13769 0.08959 0.0
C1889 C 0.61264 0.13385 0.04363 0.0
C1890 C 0.62725 0.15585 0.93488 0.0
C1891 C 0.618 0.1326 0.82113 0.0
C1892 C 0.61692 0.13693 0.87007 0.0
C1893 C 0.61423 0.14905 1.01241 0.0
C1894 C 0.61512 0.14493 0.96329 0.0
H1895 H 0.61911 0.09421 0.7492 0.0
H1896 H 0.6175 0.10132 0.82896 0.0
H1897 H 0.63787 0.16044 0.86832 0.0
H1898 H 0.61488 0.18701 0.08559 0.0
H1899 H 0.61596 0.18035 1.00565 0.0
C1900 C 0.13469 0.37375 0.27751 0.0
C1901 C 0.12243 0.38723 0.29886 0.0
C1902 C 0.13812 0.37481 0.23136 0.0
C1903 C 0.13503 0.40836 0.13407 0.0
H1904 H 0.13728 0.36086 0.06486 0.0
C1905 C 0.13677 0.40867 0.9402 0.0
C1906 C 0.14917 0.39533 0.91885 0.0
C1907 C 0.13348 0.40766 0.9864 0.0
C1908 C 0.13691 0.37427 0.0837 0.0
H1909 H 0.10449 0.41266 0.28801 0.0
H1910 H 0.11014 0.41428 0.20768 0.0
H1911 H 0.13188 0.35925 0.14534 0.0
H1912 H 0.16753 0.3702 0.92969 0.0
H1913 H 0.16203 0.36861 1.01013 0.0
H1914 H 0.14002 0.42337 0.07239 0.0
C1915 C 0.11727 0.40295 0.22665 0.0
C1916 C 0.13382 0.37335 0.12997 0.0
C1917 C 0.11383 0.40188 0.27277 0.0
C1918 C 0.15806 0.38086 0.94496 0.0
C1919 C 0.15472 0.37981 0.99112 0.0
C1920 C 0.1381 0.40928 0.08779 0.0
C1921 C 0.1294 0.38939 0.20522 0.0
C1922 C 0.13283 0.39038 0.15585 0.0
C1923 C 0.14244 0.39324 1.01255 0.0
C1924 C 0.13908 0.39225 0.06193 0.0
H1925 H 0.14143 0.36215 0.29632 0.0
H1926 H 0.14773 0.36424 0.21623 0.0
H1927 H 0.13468 0.42177 0.15289 0.0
H1928 H 0.12981 0.42013 0.92133 0.0
H1929 H 0.12376 0.41812 1.00158 0.0
C1930 C 0.40743 0.83612 0.07993 0.0
C1931 C 0.39963 0.84943 0.11082 0.0
C1932 C 0.40596 0.83939 0.03385 0.0
C1933 C 0.39767 0.87828 0.95014 0.0
H1934 H 0.38628 0.83528 0.8708 0.0
C1935 C 0.38031 0.88992 0.76268 0.0
C1936 C 0.38784 0.8765 0.7317 0.0
C1937 C 0.38169 0.88654 0.80873 0.0
C1938 C 0.3897 0.84743 0.89235 0.0
H1939 H 0.38392 0.87659 0.11687 0.0
H1940 H 0.38143 0.88231 0.03663 0.0
H1941 H 0.38879 0.82963 0.95104 0.0
H1942 H 0.40292 0.84902 0.72538 0.0
H1943 H 0.40538 0.84315 0.80559 0.0
H1944 H 0.39864 0.89607 0.8915 0.0
C1945 C 0.38893 0.86944 0.04811 0.0
C1946 C 0.39113 0.84418 0.93848 0.0
C1947 C 0.39037 0.86615 0.09423 0.0
C1948 C 0.39672 0.85955 0.74814 0.0
C1949 C 0.39812 0.85618 0.79424 0.0
C1950 C 0.39626 0.88152 0.90402 0.0
C1951 C 0.39668 0.85609 0.01726 0.0
C1952 C 0.39513 0.85956 0.96804 0.0
C1953 C 0.39066 0.86965 0.82521 0.0
C1954 C 0.39224 0.86615 0.87444 0.0
H1955 H 0.41498 0.82327 0.09134 0.0
H1956 H 0.41239 0.82895 1.01119 0.0
H1957 H 0.40107 0.89042 0.97173 0.0
H1958 H 0.37305 0.90296 0.75134 0.0
H1959 H 0.37546 0.89708 0.83143 0.0
C1960 C 0.84724 0.91897 0.32874 0.0
C1961 C 0.84612 0.9026 0.3568 0.0
C1962 C 0.85027 0.91692 0.28264 0.0
C1963 C 0.86853 0.88208 0.19736 0.0
H1964 H 0.84193 0.91608 0.11432 0.0
C1965 C 0.87215 0.87031 1.00555 0.0
C1966 C 0.87397 0.88684 0.97817 0.0
C1967 C 0.86837 0.87212 0.05142 0.0
C1968 C 0.84966 0.90659 0.13701 0.0
H1969 H 0.84703 0.87115 0.35767 0.0
H1970 H 0.85226 0.86757 0.27744 0.0
H1971 H 0.83607 0.91937 0.19437 0.0
H1972 H 0.87331 0.91831 0.9783 0.0
H1973 H 0.86668 0.92144 0.05805 0.0
H1974 H 0.88213 0.86931 0.14 0.0
C1975 C 0.85111 0.88206 0.2912 0.0
C1976 C 0.84629 0.90848 0.18305 0.0
C1977 C 0.84809 0.88411 0.33733 0.0
C1978 C 0.87172 0.90523 0.99802 0.0
C1979 C 0.86792 0.90703 0.0439 0.0
C1980 C 0.87189 0.88018 0.15133 0.0
C1981 C 0.85228 0.89843 0.26316 0.0
C1982 C 0.8557 0.89627 0.21393 0.0
C1983 C 0.86626 0.8905 0.07132 0.0
C1984 C 0.86253 0.89243 0.12046 0.0
H1985 H 0.84615 0.93346 0.3425 0.0
H1986 H 0.85142 0.92989 0.26238 0.0
H1987 H 0.87631 0.87262 0.22002 0.0
H1988 H 0.87344 0.8559 0.99145 0.0
H1989 H 0.86686 0.85904 0.0712 0.0
C1990 C 0.89131 0.14455 0.03316 0.0
C1991 C 0.8882 0.12571 0.04988 0.0
C1992 C 0.89295 0.14789 0.98704 0.0
C1993 C 0.90329 0.12293 0.87924 0.0
H1994 H 0.87876 0.16818 0.82709 0.0
C1995 C 0.8981 0.13377 0.68718 0.0
C1996 C 0.90076 0.15264 0.67022 0.0
C1997 C 0.89651 0.13049 0.73333 0.0
C1998 C 0.88591 0.15558 0.84108 0.0
H1999 H 0.88478 0.09555 0.03068 0.0
H2000 H 0.88731 0.10139 0.95056 0.0
H2001 H 0.8764 0.1626 0.90739 0.0
H2002 H 0.90346 0.18291 0.68916 0.0
H2003 H 0.90116 0.17718 0.76929 0.0
H2004 H 0.91284 0.11593 0.81299 0.0
C2005 C 0.88862 0.11361 0.97309 0.0
C2006 C 0.88455 0.15238 0.88727 0.0
C2007 C 0.88693 0.11029 0.01915 0.0
C2008 C 0.90168 0.16814 0.70082 0.0
C2009 C 0.90009 0.16487 0.74692 0.0
C2010 C 0.90467 0.12615 0.83306 0.0
C2011 C 0.8916 0.13246 0.95631 0.0
C2012 C 0.8932 0.13599 0.90704 0.0
C2013 C 0.89752 0.146 0.76392 0.0
C2014 C 0.89599 0.14252 0.81325 0.0
H2015 H 0.8922 0.15682 0.05568 0.0
H2016 H 0.89544 0.16257 0.9755 0.0
H2017 H 0.91041 0.11032 0.89325 0.0
H2018 H 0.89751 0.12142 0.66483 0.0
H2019 H 0.89432 0.11578 0.74498 0.0
C2020 C 0.13766 0.12817 1.00559 0.0
C2021 C 0.12499 0.11507 0.98429 0.0
C2022 C 0.14103 0.127 0.0517 0.0
C2023 C 0.13697 0.09349 0.14882 0.0
H2024 H 0.14053 0.14085 0.21825 0.0
C2025 C 0.13868 0.09294 0.3426 0.0
C2026 C 0.15144 0.10593 0.36395 0.0
C2027 C 0.13543 0.09409 0.29644 0.0
C2028 C 0.1398 0.12747 0.19935 0.0
H2029 H 0.10626 0.09018 0.99518 0.0
H2030 H 0.11184 0.08836 0.07548 0.0
H2031 H 0.13517 0.14268 0.13782 0.0
H2032 H 0.17048 0.13059 0.35315 0.0
H2033 H 0.16506 0.1324 0.27275 0.0
H2034 H 0.14156 0.07829 0.21037 0.0
C2035 C 0.11932 0.09948 0.05648 0.0
C2036 C 0.13673 0.12852 0.15311 0.0
C2037 C 0.11593 0.10067 1.0104 0.0
C2038 C 0.16073 0.1202 0.33787 0.0
C2039 C 0.15744 0.12138 0.29175 0.0
C2040 C 0.14002 0.09245 0.19506 0.0
C2041 C 0.13187 0.11267 0.07785 0.0
C2042 C 0.13527 0.11155 0.12716 0.0
C2043 C 0.1448 0.1083 0.27033 0.0
C2044 C 0.14147 0.10942 0.221 0.0
H2045 H 0.14477 0.13958 0.98675 0.0
H2046 H 0.15097 0.13727 0.06681 0.0
H2047 H 0.13624 0.08011 0.12993 0.0
H2048 H 0.13141 0.08164 0.36145 0.0
H2049 H 0.12543 0.0839 0.28126 0.0
C2050 C 0.1263 0.85754 0.69199 0.0
C2051 C 0.11293 0.84399 0.6748 0.0
C2052 C 0.1272 0.86134 0.73794 0.0
C2053 C 0.11386 0.84084 0.8487 0.0
H2054 H 0.12113 0.89377 0.88929 0.0
C2055 C 0.10751 0.86243 0.03569 0.0
C2056 C 0.12073 0.87625 0.05225 0.0
C2057 C 0.1065 0.85839 0.98983 0.0
C2058 C 0.11933 0.87886 0.8786 0.0
H2059 H 0.08986 0.82401 0.69301 0.0
H2060 H 0.09149 0.83058 0.773 0.0
H2061 H 0.11954 0.88692 0.80946 0.0
H2062 H 0.14357 0.89634 0.03315 0.0
H2063 H 0.14181 0.88932 0.95345 0.0
H2064 H 0.11367 0.83278 0.91788 0.0
C2065 C 0.10148 0.83809 0.75095 0.0
C2066 C 0.11841 0.87493 0.83272 0.0
C2067 C 0.10055 0.8343 0.70497 0.0
C2068 C 0.13296 0.88586 0.02165 0.0
C2069 C 0.13195 0.88183 0.97582 0.0
C2070 C 0.11479 0.84477 0.89462 0.0
C2071 C 0.11479 0.85169 0.76808 0.0
C2072 C 0.11569 0.85586 0.81709 0.0
C2073 C 0.11868 0.86805 0.95922 0.0
C2074 C 0.11757 0.86384 0.91024 0.0
H2075 H 0.13629 0.86505 0.66998 0.0
H2076 H 0.13786 0.87166 0.74991 0.0
H2077 H 0.11204 0.82595 0.83798 0.0
H2078 H 0.09766 0.85493 0.05809 0.0
H2079 H 0.0959 0.8479 0.9783 0.0
loop_
_geom_bond_atom_site_label_1
_geom_bond_atom_site_label_2
_geom_bond_distance
_geom_bond_site_symmetry_2
_ccdc_geom_bond_type
Pr0 C2 2.880 . S
Pr0 O20 2.562 . S
Pr0 O21 2.490 . S
Pr0 O22 2.695 . S
Pr0 O23 2.512 . S
Pr0 O25 2.437 . S
Pr0 O28 2.436 . S
Pr0 O30 2.438 . S
Pr1 C11 2.880 1_554 S
Pr1 O22 2.436 . S
Pr1 O24 2.438 . S
Pr1 O26 2.562 . S
Pr1 O27 2.490 1_554 S
Pr1 O28 2.695 . S
Pr1 O29 2.512 . S
Pr1 O31 2.437 . S
C2 Pr0 2.880 . S
C2 C3 1.491 . S
C2 O20 1.254 . S
C2 O21 1.225 . S
C3 C2 1.491 . S
C3 C4 1.392 . S
C3 C8 1.356 . S
C4 C3 1.392 . S
C4 C5 1.368 . S
C4 H32 0.929 . S
C5 C4 1.368 . S
C5 C6 1.386 . S
C5 H33 0.929 . S
C6 C5 1.386 . S
C6 C7 1.373 . S
C7 C6 1.373 . S
C7 C8 1.409 . S
C7 H34 0.931 . S
C8 C3 1.356 . S
C8 C7 1.409 . S
C8 H35 0.930 . S
C9 O22 1.270 . S
C9 O23 1.248 . S
C10 O24 1.267 . S
C10 O25 1.278 . S
C11 Pr1 2.880 1_556 S
C11 C12 1.491 . S
C11 O26 1.254 1_556 S
C11 O27 1.225 . S
C12 C11 1.491 . S
C12 C13 1.392 . S
C12 C17 1.356 . S
C13 C12 1.392 . S
C13 C14 1.368 . S
C13 H36 0.929 . S
C14 C13 1.368 . S
C14 C15 1.386 . S
C14 H37 0.929 . S
C15 C14 1.386 . S
C15 C16 1.373 . S
C16 C15 1.373 . S
C16 C17 1.409 . S
C16 H38 0.931 . S
C17 C12 1.356 . S
C17 C16 1.409 . S
C17 H39 0.930 . S
C18 O28 1.270 . S
C18 O29 1.248 . S
C19 O30 1.267 . S
C19 O31 1.278 . S
O20 Pr0 2.562 . S
O20 C2 1.254 . S
O21 Pr0 2.490 . S
O21 C2 1.225 . S
O22 Pr0 2.695 . S
O22 Pr1 2.436 . S
O22 C9 1.270 . S
O23 Pr0 2.512 . S
O23 C9 1.248 . S
O24 Pr1 2.438 . S
O24 C10 1.267 . S
O25 Pr0 2.437 . S
O25 C10 1.278 . S
O26 Pr1 2.562 . S
O26 C11 1.254 1_554 S
O27 Pr1 2.490 1_556 S
O27 C11 1.225 . S
O28 Pr0 2.436 . S
O28 Pr1 2.695 . S
O28 C18 1.270 . S
O29 Pr1 2.512 . S
O29 C18 1.248 . S
O30 Pr0 2.438 . S
O30 C19 1.267 . S
O31 Pr1 2.437 . S
O31 C19 1.278 . S
H32 C4 0.929 . S
H33 C5 0.929 . S
H34 C7 0.931 . S
H35 C8 0.930 . S
H36 C13 0.929 . S
H37 C14 0.929 . S
H38 C16 0.931 . S
H39 C17 0.930 . S
Pr40 C42 2.880 1_556 S
Pr40 O60 2.562 . S
Pr40 O61 2.490 1_556 S
Pr40 O62 2.695 . S
Pr40 O63 2.512 . S
Pr40 O65 2.437 . S
Pr40 O68 2.436 . S
Pr40 O70 2.438 . S
Pr41 C51 2.880 . S
Pr41 O62 2.436 . S
Pr41 O64 2.438 . S
Pr41 O66 2.562 . S
Pr41 O67 2.490 . S
Pr41 O68 2.695 . S
Pr41 O69 2.512 . S
Pr41 O71 2.437 . S
C42 Pr40 2.880 1_554 S
C42 C43 1.491 . S
C42 O60 1.254 1_554 S
C42 O61 1.225 . S
C43 C42 1.491 . S
C43 C44 1.392 . S
C43 C48 1.356 . S
C44 C43 1.392 . S
C44 C45 1.368 . S
C44 H72 0.929 . S
C45 C44 1.368 . S
C45 C46 1.386 . S
C45 H73 0.929 . S
C46 C45 1.386 . S
C46 C47 1.373 . S
C47 C46 1.373 . S
C47 C48 1.409 . S
C47 H74 0.931 . S
C48 C43 1.356 . S
C48 C47 1.409 . S
C48 H75 0.930 . S
C49 O62 1.270 . S
C49 O63 1.248 . S
C50 O64 1.267 . S
C50 O65 1.278 . S
C51 Pr41 2.880 . S
C51 C52 1.491 . S
C51 O66 1.254 . S
C51 O67 1.225 . S
C52 C51 1.491 . S
C52 C53 1.392 . S
C52 C57 1.356 . S
C53 C52 1.392 . S
C53 C54 1.368 . S
C53 H76 0.929 . S
C54 C53 1.368 . S
C54 C55 1.386 . S
C54 H77 0.929 . S
C55 C54 1.386 . S
C55 C56 1.373 . S
C56 C55 1.373 . S
C56 C57 1.409 . S
C56 H78 0.931 . S
C57 C52 1.356 . S
C57 C56 1.409 . S
C57 H79 0.930 . S
C58 O68 1.270 . S
C58 O69 1.248 . S
C59 O70 1.267 . S
C59 O71 1.278 . S
O60 Pr40 2.562 . S
O60 C42 1.254 1_556 S
O61 Pr40 2.490 1_554 S
O61 C42 1.225 . S
O62 Pr40 2.695 . S
O62 Pr41 2.436 . S
O62 C49 1.270 . S
O63 Pr40 2.512 . S
O63 C49 1.248 . S
O64 Pr41 2.438 . S
O64 C50 1.267 . S
O65 Pr40 2.437 . S
O65 C50 1.278 . S
O66 Pr41 2.562 . S
O66 C51 1.254 . S
O67 Pr41 2.490 . S
O67 C51 1.225 . S
O68 Pr40 2.436 . S
O68 Pr41 2.695 . S
O68 C58 1.270 . S
O69 Pr41 2.512 . S
O69 C58 1.248 . S
O70 Pr40 2.438 . S
O70 C59 1.267 . S
O71 Pr41 2.437 . S
O71 C59 1.278 . S
H72 C44 0.929 . S
H73 C45 0.929 . S
H74 C47 0.931 . S
H75 C48 0.930 . S
H76 C53 0.929 . S
H77 C54 0.929 . S
H78 C56 0.931 . S
H79 C57 0.930 . S
Pr80 C82 2.880 . S
Pr80 O100 2.562 . S
Pr80 O101 2.490 . S
Pr80 O102 2.695 . S
Pr80 O103 2.512 . S
Pr80 O105 2.437 . S
Pr80 O108 2.436 . S
Pr80 O110 2.438 . S
Pr81 C91 2.880 1_554 S
Pr81 O102 2.436 . S
Pr81 O104 2.438 . S
Pr81 O106 2.562 . S
Pr81 O107 2.490 1_554 S
Pr81 O108 2.695 . S
Pr81 O109 2.512 . S
Pr81 O111 2.437 . S
C82 Pr80 2.880 . S
C82 C83 1.491 . S
C82 O100 1.254 . S
C82 O101 1.225 . S
C83 C82 1.491 . S
C83 C84 1.392 . S
C83 C88 1.356 . S
C84 C83 1.392 . S
C84 C85 1.368 . S
C84 H112 0.929 . S
C85 C84 1.368 . S
C85 C86 1.386 . S
C85 H113 0.929 . S
C86 C85 1.386 . S
C86 C87 1.373 . S
C87 C86 1.373 . S
C87 C88 1.409 . S
C87 H114 0.931 . S
C88 C83 1.356 . S
C88 C87 1.409 . S
C88 H115 0.930 . S
C89 O102 1.270 . S
C89 O103 1.248 . S
C90 O104 1.267 . S
C90 O105 1.278 . S
C91 Pr81 2.880 1_556 S
C91 C92 1.491 . S
C91 O106 1.254 1_556 S
C91 O107 1.225 . S
C92 C91 1.491 . S
C92 C93 1.392 . S
C92 C97 1.356 . S
C93 C92 1.392 . S
C93 C94 1.368 . S
C93 H116 0.929 . S
C94 C93 1.368 . S
C94 C95 1.386 . S
C94 H117 0.929 . S
C95 C94 1.386 . S
C95 C96 1.373 . S
C96 C95 1.373 . S
C96 C97 1.409 . S
C96 H118 0.931 . S
C97 C92 1.356 . S
C97 C96 1.409 . S
C97 H119 0.930 . S
C98 O108 1.270 . S
C98 O109 1.248 . S
C99 O110 1.267 . S
C99 O111 1.278 . S
O100 Pr80 2.562 . S
O100 C82 1.254 . S
O101 Pr80 2.490 . S
O101 C82 1.225 . S
O102 Pr80 2.695 . S
O102 Pr81 2.436 . S
O102 C89 1.270 . S
O103 Pr80 2.512 . S
O103 C89 1.248 . S
O104 Pr81 2.438 . S
O104 C90 1.267 . S
O105 Pr80 2.437 . S
O105 C90 1.278 . S
O106 Pr81 2.562 . S
O106 C91 1.254 1_554 S
O107 Pr81 2.490 1_556 S
O107 C91 1.225 . S
O108 Pr80 2.436 . S
O108 Pr81 2.695 . S
O108 C98 1.270 . S
O109 Pr81 2.512 . S
O109 C98 1.248 . S
O110 Pr80 2.438 . S
O110 C99 1.267 . S
O111 Pr81 2.437 . S
O111 C99 1.278 . S
H112 C84 0.929 . S
H113 C85 0.929 . S
H114 C87 0.931 . S
H115 C88 0.930 . S
H116 C93 0.929 . S
H117 C94 0.929 . S
H118 C96 0.931 . S
H119 C97 0.930 . S
Pr120 C122 2.880 1_556 S
Pr120 O140 2.562 . S
Pr120 O141 2.490 1_556 S
Pr120 O142 2.695 . S
Pr120 O143 2.512 . S
Pr120 O145 2.437 . S
Pr120 O148 2.436 . S
Pr120 O150 2.438 . S
Pr121 C131 2.880 . S
Pr121 O142 2.436 . S
Pr121 O144 2.438 . S
Pr121 O146 2.562 . S
Pr121 O147 2.490 . S
Pr121 O148 2.695 . S
Pr121 O149 2.512 . S
Pr121 O151 2.437 . S
C122 Pr120 2.880 1_554 S
C122 C123 1.491 . S
C122 O140 1.254 1_554 S
C122 O141 1.225 . S
C123 C122 1.491 . S
C123 C124 1.392 . S
C123 C128 1.356 . S
C124 C123 1.392 . S
C124 C125 1.368 . S
C124 H152 0.929 . S
C125 C124 1.368 . S
C125 C126 1.386 . S
C125 H153 0.929 . S
C126 C125 1.386 . S
C126 C127 1.373 . S
C127 C126 1.373 . S
C127 C128 1.409 . S
C127 H154 0.931 . S
C128 C123 1.356 . S
C128 C127 1.409 . S
C128 H155 0.930 . S
C129 O142 1.270 . S
C129 O143 1.248 . S
C130 O144 1.267 . S
C130 O145 1.278 . S
C131 Pr121 2.880 . S
C131 C132 1.491 . S
C131 O146 1.254 . S
C131 O147 1.225 . S
C132 C131 1.491 . S
C132 C133 1.392 . S
C132 C137 1.356 . S
C133 C132 1.392 . S
C133 C134 1.368 . S
C133 H156 0.929 . S
C134 C133 1.368 . S
C134 C135 1.386 . S
C134 H157 0.929 . S
C135 C134 1.386 . S
C135 C136 1.373 . S
C136 C135 1.373 . S
C136 C137 1.409 . S
C136 H158 0.931 . S
C137 C132 1.356 . S
C137 C136 1.409 . S
C137 H159 0.930 . S
C138 O148 1.270 . S
C138 O149 1.248 . S
C139 O150 1.267 . S
C139 O151 1.278 . S
O140 Pr120 2.562 . S
O140 C122 1.254 1_556 S
O141 Pr120 2.490 1_554 S
O141 C122 1.225 . S
O142 Pr120 2.695 . S
O142 Pr121 2.436 . S
O142 C129 1.270 . S
O143 Pr120 2.512 . S
O143 C129 1.248 . S
O144 Pr121 2.438 . S
O144 C130 1.267 . S
O145 Pr120 2.437 . S
O145 C130 1.278 . S
O146 Pr121 2.562 . S
O146 C131 1.254 . S
O147 Pr121 2.490 . S
O147 C131 1.225 . S
O148 Pr120 2.436 . S
O148 Pr121 2.695 . S
O148 C138 1.270 . S
O149 Pr121 2.512 . S
O149 C138 1.248 . S
O150 Pr120 2.438 . S
O150 C139 1.267 . S
O151 Pr121 2.437 . S
O151 C139 1.278 . S
H152 C124 0.929 . S
H153 C125 0.929 . S
H154 C127 0.931 . S
H155 C128 0.930 . S
H156 C133 0.929 . S
H157 C134 0.929 . S
H158 C136 0.931 . S
H159 C137 0.930 . S
Pr160 C162 2.880 1_554 S
Pr160 O180 2.562 1_554 S
Pr160 O181 2.490 1_554 S
Pr160 O182 2.695 . S
Pr160 O183 2.512 . S
Pr160 O185 2.437 . S
Pr160 O188 2.436 . S
Pr160 O190 2.438 . S
Pr161 C171 2.880 . S
Pr161 O182 2.436 . S
Pr161 O184 2.438 . S
Pr161 O186 2.562 . S
Pr161 O187 2.490 . S
Pr161 O188 2.695 . S
Pr161 O189 2.512 . S
Pr161 O191 2.437 . S
C162 Pr160 2.880 1_556 S
C162 C163 1.491 . S
C162 O180 1.254 . S
C162 O181 1.225 . S
C163 C162 1.491 . S
C163 C164 1.392 . S
C163 C168 1.356 . S
C164 C163 1.392 . S
C164 C165 1.368 . S
C164 H192 0.929 . S
C165 C164 1.368 . S
C165 C166 1.386 . S
C165 H193 0.929 . S
C166 C165 1.386 . S
C166 C167 1.373 . S
C167 C166 1.373 . S
C167 C168 1.409 . S
C167 H194 0.931 . S
C168 C163 1.356 . S
C168 C167 1.409 . S
C168 H195 0.930 . S
C169 O182 1.270 . S
C169 O183 1.248 . S
C170 O184 1.267 . S
C170 O185 1.278 . S
C171 Pr161 2.880 . S
C171 C172 1.491 . S
C171 O186 1.254 . S
C171 O187 1.225 . S
C172 C171 1.491 . S
C172 C173 1.392 . S
C172 C177 1.356 . S
C173 C172 1.392 . S
C173 C174 1.368 . S
C173 H196 0.929 . S
C174 C173 1.368 . S
C174 C175 1.386 . S
C174 H197 0.929 . S
C175 C174 1.386 . S
C175 C176 1.373 . S
C176 C175 1.373 . S
C176 C177 1.409 . S
C176 H198 0.931 . S
C177 C172 1.356 . S
C177 C176 1.409 . S
C177 H199 0.930 . S
C178 O188 1.270 . S
C178 O189 1.248 . S
C179 O190 1.267 . S
C179 O191 1.278 . S
O180 Pr160 2.562 1_556 S
O180 C162 1.254 . S
O181 Pr160 2.490 1_556 S
O181 C162 1.225 . S
O182 Pr160 2.695 . S
O182 Pr161 2.436 . S
O182 C169 1.270 . S
O183 Pr160 2.512 . S
O183 C169 1.248 . S
O184 Pr161 2.438 . S
O184 C170 1.267 . S
O185 Pr160 2.437 . S
O185 C170 1.278 . S
O186 Pr161 2.562 . S
O186 C171 1.254 . S
O187 Pr161 2.490 . S
O187 C171 1.225 . S
O188 Pr160 2.436 . S
O188 Pr161 2.695 . S
O188 C178 1.270 . S
O189 Pr161 2.512 . S
O189 C178 1.248 . S
O190 Pr160 2.438 . S
O190 C179 1.267 . S
O191 Pr161 2.437 . S
O191 C179 1.278 . S
H192 C164 0.929 . S
H193 C165 0.929 . S
H194 C167 0.931 . S
H195 C168 0.930 . S
H196 C173 0.929 . S
H197 C174 0.929 . S
H198 C176 0.931 . S
H199 C177 0.930 . S
Pr200 C202 2.880 . S
Pr200 O220 2.562 . S
Pr200 O221 2.490 . S
Pr200 O222 2.695 . S
Pr200 O223 2.512 . S
Pr200 O225 2.437 . S
Pr200 O228 2.436 . S
Pr200 O230 2.438 . S
Pr201 C211 2.880 1_556 S
Pr201 O222 2.436 . S
Pr201 O224 2.438 . S
Pr201 O226 2.562 1_556 S
Pr201 O227 2.490 1_556 S
Pr201 O228 2.695 . S
Pr201 O229 2.512 . S
Pr201 O231 2.437 . S
C202 Pr200 2.880 . S
C202 C203 1.491 . S
C202 O220 1.254 . S
C202 O221 1.225 . S
C203 C202 1.491 . S
C203 C204 1.392 . S
C203 C208 1.356 . S
C204 C203 1.392 . S
C204 C205 1.368 . S
C204 H232 0.929 . S
C205 C204 1.368 . S
C205 C206 1.386 . S
C205 H233 0.929 . S
C206 C205 1.386 . S
C206 C207 1.373 . S
C207 C206 1.373 . S
C207 C208 1.409 . S
C207 H234 0.931 . S
C208 C203 1.356 . S
C208 C207 1.409 . S
C208 H235 0.930 . S
C209 O222 1.270 . S
C209 O223 1.248 . S
C210 O224 1.267 . S
C210 O225 1.278 . S
C211 Pr201 2.880 1_554 S
C211 C212 1.491 . S
C211 O226 1.254 . S
C211 O227 1.225 . S
C212 C211 1.491 . S
C212 C213 1.392 . S
C212 C217 1.356 . S
C213 C212 1.392 . S
C213 C214 1.368 . S
C213 H236 0.929 . S
C214 C213 1.368 . S
C214 C215 1.386 . S
C214 H237 0.929 . S
C215 C214 1.386 . S
C215 C216 1.373 . S
C216 C215 1.373 . S
C216 C217 1.409 . S
C216 H238 0.931 . S
C217 C212 1.356 . S
C217 C216 1.409 . S
C217 H239 0.930 . S
C218 O228 1.270 . S
C218 O229 1.248 . S
C219 O230 1.267 . S
C219 O231 1.278 . S
O220 Pr200 2.562 . S
O220 C202 1.254 . S
O221 Pr200 2.490 . S
O221 C202 1.225 . S
O222 Pr200 2.695 . S
O222 Pr201 2.436 . S
O222 C209 1.270 . S
O223 Pr200 2.512 . S
O223 C209 1.248 . S
O224 Pr201 2.438 . S
O224 C210 1.267 . S
O225 Pr200 2.437 . S
O225 C210 1.278 . S
O226 Pr201 2.562 1_554 S
O226 C211 1.254 . S
O227 Pr201 2.490 1_554 S
O227 C211 1.225 . S
O228 Pr200 2.436 . S
O228 Pr201 2.695 . S
O228 C218 1.270 . S
O229 Pr201 2.512 . S
O229 C218 1.248 . S
O230 Pr200 2.438 . S
O230 C219 1.267 . S
O231 Pr201 2.437 . S
O231 C219 1.278 . S
H232 C204 0.929 . S
H233 C205 0.929 . S
H234 C207 0.931 . S
H235 C208 0.930 . S
H236 C213 0.929 . S
H237 C214 0.929 . S
H238 C216 0.931 . S
H239 C217 0.930 . S
Pr240 C242 2.880 1_554 S
Pr240 O260 2.562 1_554 S
Pr240 O261 2.490 1_554 S
Pr240 O262 2.695 . S
Pr240 O263 2.512 . S
Pr240 O265 2.437 . S
Pr240 O268 2.436 . S
Pr240 O270 2.438 . S
Pr241 C251 2.880 . S
Pr241 O262 2.436 . S
Pr241 O264 2.438 . S
Pr241 O266 2.562 . S
Pr241 O267 2.490 . S
Pr241 O268 2.695 . S
Pr241 O269 2.512 . S
Pr241 O271 2.437 . S
C242 Pr240 2.880 1_556 S
C242 C243 1.491 . S
C242 O260 1.254 . S
C242 O261 1.225 . S
C243 C242 1.491 . S
C243 C244 1.392 . S
C243 C248 1.356 . S
C244 C243 1.392 . S
C244 C245 1.368 . S
C244 H272 0.929 . S
C245 C244 1.368 . S
C245 C246 1.386 . S
C245 H273 0.929 . S
C246 C245 1.386 . S
C246 C247 1.373 . S
C247 C246 1.373 . S
C247 C248 1.409 . S
C247 H274 0.931 . S
C248 C243 1.356 . S
C248 C247 1.409 . S
C248 H275 0.930 . S
C249 O262 1.270 . S
C249 O263 1.248 . S
C250 O264 1.267 . S
C250 O265 1.278 . S
C251 Pr241 2.880 . S
C251 C252 1.491 . S
C251 O266 1.254 . S
C251 O267 1.225 . S
C252 C251 1.491 . S
C252 C253 1.392 . S
C252 C257 1.356 . S
C253 C252 1.392 . S
C253 C254 1.368 . S
C253 H276 0.929 . S
C254 C253 1.368 . S
C254 C255 1.386 . S
C254 H277 0.929 . S
C255 C254 1.386 . S
C255 C256 1.373 . S
C256 C255 1.373 . S
C256 C257 1.409 . S
C256 H278 0.931 . S
C257 C252 1.356 . S
C257 C256 1.409 . S
C257 H279 0.930 . S
C258 O268 1.270 . S
C258 O269 1.248 . S
C259 O270 1.267 . S
C259 O271 1.278 . S
O260 Pr240 2.562 1_556 S
O260 C242 1.254 . S
O261 Pr240 2.490 1_556 S
O261 C242 1.225 . S
O262 Pr240 2.695 . S
O262 Pr241 2.436 . S
O262 C249 1.270 . S
O263 Pr240 2.512 . S
O263 C249 1.248 . S
O264 Pr241 2.438 . S
O264 C250 1.267 . S
O265 Pr240 2.437 . S
O265 C250 1.278 . S
O266 Pr241 2.562 . S
O266 C251 1.254 . S
O267 Pr241 2.490 . S
O267 C251 1.225 . S
O268 Pr240 2.436 . S
O268 Pr241 2.695 . S
O268 C258 1.270 . S
O269 Pr241 2.512 . S
O269 C258 1.248 . S
O270 Pr240 2.438 . S
O270 C259 1.267 . S
O271 Pr241 2.437 . S
O271 C259 1.278 . S
H272 C244 0.929 . S
H273 C245 0.929 . S
H274 C247 0.931 . S
H275 C248 0.930 . S
H276 C253 0.929 . S
H277 C254 0.929 . S
H278 C256 0.931 . S
H279 C257 0.930 . S
Pr280 C282 2.880 . S
Pr280 O300 2.562 . S
Pr280 O301 2.490 . S
Pr280 O302 2.695 . S
Pr280 O303 2.512 . S
Pr280 O305 2.437 . S
Pr280 O308 2.436 . S
Pr280 O310 2.438 . S
Pr281 C291 2.880 1_556 S
Pr281 O302 2.436 . S
Pr281 O304 2.438 . S
Pr281 O306 2.562 1_556 S
Pr281 O307 2.490 1_556 S
Pr281 O308 2.695 . S
Pr281 O309 2.512 . S
Pr281 O311 2.437 . S
C282 Pr280 2.880 . S
C282 C283 1.491 . S
C282 O300 1.254 . S
C282 O301 1.225 . S
C283 C282 1.491 . S
C283 C284 1.392 . S
C283 C288 1.356 . S
C284 C283 1.392 . S
C284 C285 1.368 . S
C284 H312 0.929 . S
C285 C284 1.368 . S
C285 C286 1.386 . S
C285 H313 0.929 . S
C286 C285 1.386 . S
C286 C287 1.373 . S
C287 C286 1.373 . S
C287 C288 1.409 . S
C287 H314 0.931 . S
C288 C283 1.356 . S
C288 C287 1.409 . S
C288 H315 0.930 . S
C289 O302 1.270 . S
C289 O303 1.248 . S
C290 O304 1.267 . S
C290 O305 1.278 . S
C291 Pr281 2.880 1_554 S
C291 C292 1.491 . S
C291 O306 1.254 . S
C291 O307 1.225 . S
C292 C291 1.491 . S
C292 C293 1.392 . S
C292 C297 1.356 . S
C293 C292 1.392 . S
C293 C294 1.368 . S
C293 H316 0.929 . S
C294 C293 1.368 . S
C294 C295 1.386 . S
C294 H317 0.929 . S
C295 C294 1.386 . S
C295 C296 1.373 . S
C296 C295 1.373 . S
C296 C297 1.409 . S
C296 H318 0.931 . S
C297 C292 1.356 . S
C297 C296 1.409 . S
C297 H319 0.930 . S
C298 O308 1.270 . S
C298 O309 1.248 . S
C299 O310 1.267 . S
C299 O311 1.278 . S
O300 Pr280 2.562 . S
O300 C282 1.254 . S
O301 Pr280 2.490 . S
O301 C282 1.225 . S
O302 Pr280 2.695 . S
O302 Pr281 2.436 . S
O302 C289 1.270 . S
O303 Pr280 2.512 . S
O303 C289 1.248 . S
O304 Pr281 2.438 . S
O304 C290 1.267 . S
O305 Pr280 2.437 . S
O305 C290 1.278 . S
O306 Pr281 2.562 1_554 S
O306 C291 1.254 . S
O307 Pr281 2.490 1_554 S
O307 C291 1.225 . S
O308 Pr280 2.436 . S
O308 Pr281 2.695 . S
O308 C298 1.270 . S
O309 Pr281 2.512 . S
O309 C298 1.248 . S
O310 Pr280 2.438 . S
O310 C299 1.267 . S
O311 Pr281 2.437 . S
O311 C299 1.278 . S
H312 C284 0.929 . S
H313 C285 0.929 . S
H314 C287 0.931 . S
H315 C288 0.930 . S
H316 C293 0.929 . S
H317 C294 0.929 . S
H318 C296 0.931 . S
H319 C297 0.930 . S
Pr320 C322 2.880 . S
Pr320 O340 2.562 . S
Pr320 O341 2.490 . S
Pr320 O342 2.695 . S
Pr320 O343 2.512 . S
Pr320 O345 2.437 . S
Pr320 O348 2.436 . S
Pr320 O350 2.438 . S
Pr321 C331 2.880 . S
Pr321 O342 2.436 . S
Pr321 O344 2.438 . S
Pr321 O346 2.562 . S
Pr321 O347 2.490 . S
Pr321 O348 2.695 . S
Pr321 O349 2.512 . S
Pr321 O351 2.437 . S
C322 Pr320 2.880 . S
C322 C323 1.491 . S
C322 O340 1.254 . S
C322 O341 1.225 . S
C323 C322 1.491 . S
C323 C324 1.392 . S
C323 C328 1.356 . S
C324 C323 1.392 . S
C324 C325 1.368 . S
C324 H352 0.929 . S
C325 C324 1.368 . S
C325 C326 1.386 . S
C325 H353 0.929 . S
C326 C325 1.386 . S
C326 C327 1.373 . S
C327 C326 1.373 . S
C327 C328 1.409 . S
C327 H354 0.931 . S
C328 C323 1.356 . S
C328 C327 1.409 . S
C328 H355 0.930 . S
C329 O342 1.270 . S
C329 O343 1.248 . S
C330 O344 1.267 . S
C330 O345 1.278 . S
C331 Pr321 2.880 . S
C331 C332 1.491 . S
C331 O346 1.254 . S
C331 O347 1.225 . S
C332 C331 1.491 . S
C332 C333 1.392 . S
C332 C337 1.356 . S
C333 C332 1.392 . S
C333 C334 1.368 . S
C333 H356 0.929 . S
C334 C333 1.368 . S
C334 C335 1.386 . S
C334 H357 0.929 . S
C335 C334 1.386 . S
C335 C336 1.373 . S
C336 C335 1.373 . S
C336 C337 1.409 . S
C336 H358 0.931 . S
C337 C332 1.356 . S
C337 C336 1.409 . S
C337 H359 0.930 . S
C338 O348 1.270 . S
C338 O349 1.248 . S
C339 O350 1.267 . S
C339 O351 1.278 . S
O340 Pr320 2.562 . S
O340 C322 1.254 . S
O341 Pr320 2.490 . S
O341 C322 1.225 . S
O342 Pr320 2.695 . S
O342 Pr321 2.436 . S
O342 C329 1.270 . S
O343 Pr320 2.512 . S
O343 C329 1.248 . S
O344 Pr321 2.438 . S
O344 C330 1.267 . S
O345 Pr320 2.437 . S
O345 C330 1.278 . S
O346 Pr321 2.562 . S
O346 C331 1.254 . S
O347 Pr321 2.490 . S
O347 C331 1.225 . S
O348 Pr320 2.436 . S
O348 Pr321 2.695 . S
O348 C338 1.270 . S
O349 Pr321 2.512 . S
O349 C338 1.248 . S
O350 Pr320 2.438 . S
O350 C339 1.267 . S
O351 Pr321 2.437 . S
O351 C339 1.278 . S
H352 C324 0.929 . S
H353 C325 0.929 . S
H354 C327 0.931 . S
H355 C328 0.930 . S
H356 C333 0.929 . S
H357 C334 0.929 . S
H358 C336 0.931 . S
H359 C337 0.930 . S
Pr360 C362 2.880 . S
Pr360 O380 2.562 . S
Pr360 O381 2.490 . S
Pr360 O382 2.695 . S
Pr360 O383 2.512 . S
Pr360 O385 2.437 . S
Pr360 O388 2.436 . S
Pr360 O390 2.438 . S
Pr361 C371 2.880 . S
Pr361 O382 2.436 . S
Pr361 O384 2.438 . S
Pr361 O386 2.562 . S
Pr361 O387 2.490 . S
Pr361 O388 2.695 . S
Pr361 O389 2.512 . S
Pr361 O391 2.437 . S
C362 Pr360 2.880 . S
C362 C363 1.491 . S
C362 O380 1.254 . S
C362 O381 1.225 . S
C363 C362 1.491 . S
C363 C364 1.392 . S
C363 C368 1.356 . S
C364 C363 1.392 . S
C364 C365 1.368 . S
C364 H392 0.929 . S
C365 C364 1.368 . S
C365 C366 1.386 . S
C365 H393 0.929 . S
C366 C365 1.386 . S
C366 C367 1.373 . S
C367 C366 1.373 . S
C367 C368 1.409 . S
C367 H394 0.931 . S
C368 C363 1.356 . S
C368 C367 1.409 . S
C368 H395 0.930 . S
C369 O382 1.270 . S
C369 O383 1.248 . S
C370 O384 1.267 . S
C370 O385 1.278 . S
C371 Pr361 2.880 . S
C371 C372 1.491 . S
C371 O386 1.254 . S
C371 O387 1.225 . S
C372 C371 1.491 . S
C372 C373 1.392 . S
C372 C377 1.356 . S
C373 C372 1.392 . S
C373 C374 1.368 . S
C373 H396 0.929 . S
C374 C373 1.368 . S
C374 C375 1.386 . S
C374 H397 0.929 . S
C375 C374 1.386 . S
C375 C376 1.373 . S
C376 C375 1.373 . S
C376 C377 1.409 . S
C376 H398 0.931 . S
C377 C372 1.356 . S
C377 C376 1.409 . S
C377 H399 0.930 . S
C378 O388 1.270 . S
C378 O389 1.248 . S
C379 O390 1.267 . S
C379 O391 1.278 . S
O380 Pr360 2.562 . S
O380 C362 1.254 . S
O381 Pr360 2.490 . S
O381 C362 1.225 . S
O382 Pr360 2.695 . S
O382 Pr361 2.436 . S
O382 C369 1.270 . S
O383 Pr360 2.512 . S
O383 C369 1.248 . S
O384 Pr361 2.438 . S
O384 C370 1.267 . S
O385 Pr360 2.437 . S
O385 C370 1.278 . S
O386 Pr361 2.562 . S
O386 C371 1.254 . S
O387 Pr361 2.490 . S
O387 C371 1.225 . S
O388 Pr360 2.436 . S
O388 Pr361 2.695 . S
O388 C378 1.270 . S
O389 Pr361 2.512 . S
O389 C378 1.248 . S
O390 Pr360 2.438 . S
O390 C379 1.267 . S
O391 Pr361 2.437 . S
O391 C379 1.278 . S
H392 C364 0.929 . S
H393 C365 0.929 . S
H394 C367 0.931 . S
H395 C368 0.930 . S
H396 C373 0.929 . S
H397 C374 0.929 . S
H398 C376 0.931 . S
H399 C377 0.930 . S
Pr400 C402 2.880 . S
Pr400 O420 2.562 . S
Pr400 O421 2.490 . S
Pr400 O422 2.695 . S
Pr400 O423 2.512 . S
Pr400 O425 2.437 . S
Pr400 O428 2.436 . S
Pr400 O430 2.438 . S
Pr401 C411 2.880 . S
Pr401 O422 2.436 . S
Pr401 O424 2.438 . S
Pr401 O426 2.562 . S
Pr401 O427 2.490 . S
Pr401 O428 2.695 . S
Pr401 O429 2.512 . S
Pr401 O431 2.437 . S
C402 Pr400 2.880 . S
C402 C403 1.491 . S
C402 O420 1.254 . S
C402 O421 1.225 . S
C403 C402 1.491 . S
C403 C404 1.392 . S
C403 C408 1.356 . S
C404 C403 1.392 . S
C404 C405 1.368 . S
C404 H432 0.929 . S
C405 C404 1.368 . S
C405 C406 1.386 . S
C405 H433 0.929 . S
C406 C405 1.386 . S
C406 C407 1.373 . S
C407 C406 1.373 . S
C407 C408 1.409 . S
C407 H434 0.931 . S
C408 C403 1.356 . S
C408 C407 1.409 . S
C408 H435 0.930 . S
C409 O422 1.270 . S
C409 O423 1.248 . S
C410 O424 1.267 . S
C410 O425 1.278 . S
C411 Pr401 2.880 . S
C411 C412 1.491 . S
C411 O426 1.254 . S
C411 O427 1.225 . S
C412 C411 1.491 . S
C412 C413 1.392 . S
C412 C417 1.356 . S
C413 C412 1.392 . S
C413 C414 1.368 . S
C413 H436 0.929 . S
C414 C413 1.368 . S
C414 C415 1.386 . S
C414 H437 0.929 . S
C415 C414 1.386 . S
C415 C416 1.373 . S
C416 C415 1.373 . S
C416 C417 1.409 . S
C416 H438 0.931 . S
C417 C412 1.356 . S
C417 C416 1.409 . S
C417 H439 0.930 . S
C418 O428 1.270 . S
C418 O429 1.248 . S
C419 O430 1.267 . S
C419 O431 1.278 . S
O420 Pr400 2.562 . S
O420 C402 1.254 . S
O421 Pr400 2.490 . S
O421 C402 1.225 . S
O422 Pr400 2.695 . S
O422 Pr401 2.436 . S
O422 C409 1.270 . S
O423 Pr400 2.512 . S
O423 C409 1.248 . S
O424 Pr401 2.438 . S
O424 C410 1.267 . S
O425 Pr400 2.437 . S
O425 C410 1.278 . S
O426 Pr401 2.562 . S
O426 C411 1.254 . S
O427 Pr401 2.490 . S
O427 C411 1.225 . S
O428 Pr400 2.436 . S
O428 Pr401 2.695 . S
O428 C418 1.270 . S
O429 Pr401 2.512 . S
O429 C418 1.248 . S
O430 Pr400 2.438 . S
O430 C419 1.267 . S
O431 Pr401 2.437 . S
O431 C419 1.278 . S
H432 C404 0.929 . S
H433 C405 0.929 . S
H434 C407 0.931 . S
H435 C408 0.930 . S
H436 C413 0.929 . S
H437 C414 0.929 . S
H438 C416 0.931 . S
H439 C417 0.930 . S
Pr440 C442 2.880 . S
Pr440 O460 2.562 . S
Pr440 O461 2.490 . S
Pr440 O462 2.695 . S
Pr440 O463 2.512 . S
Pr440 O465 2.437 . S
Pr440 O468 2.436 . S
Pr440 O470 2.438 . S
Pr441 C451 2.880 . S
Pr441 O462 2.436 . S
Pr441 O464 2.438 . S
Pr441 O466 2.562 . S
Pr441 O467 2.490 . S
Pr441 O468 2.695 . S
Pr441 O469 2.512 . S
Pr441 O471 2.437 . S
C442 Pr440 2.880 . S
C442 C443 1.491 . S
C442 O460 1.254 . S
C442 O461 1.225 . S
C443 C442 1.491 . S
C443 C444 1.392 . S
C443 C448 1.356 . S
C444 C443 1.392 . S
C444 C445 1.368 . S
C444 H472 0.929 . S
C445 C444 1.368 . S
C445 C446 1.386 . S
C445 H473 0.929 . S
C446 C445 1.386 . S
C446 C447 1.373 . S
C447 C446 1.373 . S
C447 C448 1.409 . S
C447 H474 0.931 . S
C448 C443 1.356 . S
C448 C447 1.409 . S
C448 H475 0.930 . S
C449 O462 1.270 . S
C449 O463 1.248 . S
C450 O464 1.267 . S
C450 O465 1.278 . S
C451 Pr441 2.880 . S
C451 C452 1.491 . S
C451 O466 1.254 . S
C451 O467 1.225 . S
C452 C451 1.491 . S
C452 C453 1.392 . S
C452 C457 1.356 . S
C453 C452 1.392 . S
C453 C454 1.368 . S
C453 H476 0.929 . S
C454 C453 1.368 . S
C454 C455 1.386 . S
C454 H477 0.929 . S
C455 C454 1.386 . S
C455 C456 1.373 . S
C456 C455 1.373 . S
C456 C457 1.409 . S
C456 H478 0.931 . S
C457 C452 1.356 . S
C457 C456 1.409 . S
C457 H479 0.930 . S
C458 O468 1.270 . S
C458 O469 1.248 . S
C459 O470 1.267 . S
C459 O471 1.278 . S
O460 Pr440 2.562 . S
O460 C442 1.254 . S
O461 Pr440 2.490 . S
O461 C442 1.225 . S
O462 Pr440 2.695 . S
O462 Pr441 2.436 . S
O462 C449 1.270 . S
O463 Pr440 2.512 . S
O463 C449 1.248 . S
O464 Pr441 2.438 . S
O464 C450 1.267 . S
O465 Pr440 2.437 . S
O465 C450 1.278 . S
O466 Pr441 2.562 . S
O466 C451 1.254 . S
O467 Pr441 2.490 . S
O467 C451 1.225 . S
O468 Pr440 2.436 . S
O468 Pr441 2.695 . S
O468 C458 1.270 . S
O469 Pr441 2.512 . S
O469 C458 1.248 . S
O470 Pr440 2.438 . S
O470 C459 1.267 . S
O471 Pr441 2.437 . S
O471 C459 1.278 . S
H472 C444 0.929 . S
H473 C445 0.929 . S
H474 C447 0.931 . S
H475 C448 0.930 . S
H476 C453 0.929 . S
H477 C454 0.929 . S
H478 C456 0.931 . S
H479 C457 0.930 . S
Pr480 C482 2.880 . S
Pr480 O500 2.562 . S
Pr480 O501 2.490 . S
Pr480 O502 2.695 . S
Pr480 O503 2.512 . S
Pr480 O505 2.437 . S
Pr480 O508 2.436 . S
Pr480 O510 2.438 . S
Pr481 C491 2.880 . S
Pr481 O502 2.436 . S
Pr481 O504 2.438 . S
Pr481 O506 2.562 . S
Pr481 O507 2.490 . S
Pr481 O508 2.695 . S
Pr481 O509 2.512 . S
Pr481 O511 2.437 . S
C482 Pr480 2.880 . S
C482 C483 1.491 . S
C482 O500 1.254 . S
C482 O501 1.225 . S
C483 C482 1.491 . S
C483 C484 1.392 . S
C483 C488 1.356 . S
C484 C483 1.392 . S
C484 C485 1.368 . S
C484 H512 0.929 . S
C485 C484 1.368 . S
C485 C486 1.386 . S
C485 H513 0.929 . S
C486 C485 1.386 . S
C486 C487 1.373 . S
C487 C486 1.373 . S
C487 C488 1.409 . S
C487 H514 0.931 . S
C488 C483 1.356 . S
C488 C487 1.409 . S
C488 H515 0.930 . S
C489 O502 1.270 . S
C489 O503 1.248 . S
C490 O504 1.267 . S
C490 O505 1.278 . S
C491 Pr481 2.880 . S
C491 C492 1.491 . S
C491 O506 1.254 . S
C491 O507 1.225 . S
C492 C491 1.491 . S
C492 C493 1.392 . S
C492 C497 1.356 . S
C493 C492 1.392 . S
C493 C494 1.368 . S
C493 H516 0.929 . S
C494 C493 1.368 . S
C494 C495 1.386 . S
C494 H517 0.929 . S
C495 C494 1.386 . S
C495 C496 1.373 . S
C496 C495 1.373 . S
C496 C497 1.409 . S
C496 H518 0.931 . S
C497 C492 1.356 . S
C497 C496 1.409 . S
C497 H519 0.930 . S
C498 O508 1.270 . S
C498 O509 1.248 . S
C499 O510 1.267 . S
C499 O511 1.278 . S
O500 Pr480 2.562 . S
O500 C482 1.254 . S
O501 Pr480 2.490 . S
O501 C482 1.225 . S
O502 Pr480 2.695 . S
O502 Pr481 2.436 . S
O502 C489 1.270 . S
O503 Pr480 2.512 . S
O503 C489 1.248 . S
O504 Pr481 2.438 . S
O504 C490 1.267 . S
O505 Pr480 2.437 . S
O505 C490 1.278 . S
O506 Pr481 2.562 . S
O506 C491 1.254 . S
O507 Pr481 2.490 . S
O507 C491 1.225 . S
O508 Pr480 2.436 . S
O508 Pr481 2.695 . S
O508 C498 1.270 . S
O509 Pr481 2.512 . S
O509 C498 1.248 . S
O510 Pr480 2.438 . S
O510 C499 1.267 . S
O511 Pr481 2.437 . S
O511 C499 1.278 . S
H512 C484 0.929 . S
H513 C485 0.929 . S
H514 C487 0.931 . S
H515 C488 0.930 . S
H516 C493 0.929 . S
H517 C494 0.929 . S
H518 C496 0.931 . S
H519 C497 0.930 . S
Pr520 C522 2.880 . S
Pr520 O540 2.562 . S
Pr520 O541 2.490 . S
Pr520 O542 2.695 . S
Pr520 O543 2.512 . S
Pr520 O545 2.437 . S
Pr520 O548 2.436 . S
Pr520 O550 2.438 . S
Pr521 C531 2.880 . S
Pr521 O542 2.436 . S
Pr521 O544 2.438 . S
Pr521 O546 2.562 . S
Pr521 O547 2.490 . S
Pr521 O548 2.695 . S
Pr521 O549 2.512 . S
Pr521 O551 2.437 . S
C522 Pr520 2.880 . S
C522 C523 1.491 . S
C522 O540 1.254 . S
C522 O541 1.225 . S
C523 C522 1.491 . S
C523 C524 1.392 . S
C523 C528 1.356 . S
C524 C523 1.392 . S
C524 C525 1.368 . S
C524 H552 0.929 . S
C525 C524 1.368 . S
C525 C526 1.386 . S
C525 H553 0.929 . S
C526 C525 1.386 . S
C526 C527 1.373 . S
C527 C526 1.373 . S
C527 C528 1.409 . S
C527 H554 0.931 . S
C528 C523 1.356 . S
C528 C527 1.409 . S
C528 H555 0.930 . S
C529 O542 1.270 . S
C529 O543 1.248 . S
C530 O544 1.267 . S
C530 O545 1.278 . S
C531 Pr521 2.880 . S
C531 C532 1.491 . S
C531 O546 1.254 . S
C531 O547 1.225 . S
C532 C531 1.491 . S
C532 C533 1.392 . S
C532 C537 1.356 . S
C533 C532 1.392 . S
C533 C534 1.368 . S
C533 H556 0.929 . S
C534 C533 1.368 . S
C534 C535 1.386 . S
C534 H557 0.929 . S
C535 C534 1.386 . S
C535 C536 1.373 . S
C536 C535 1.373 . S
C536 C537 1.409 . S
C536 H558 0.931 . S
C537 C532 1.356 . S
C537 C536 1.409 . S
C537 H559 0.930 . S
C538 O548 1.270 . S
C538 O549 1.248 . S
C539 O550 1.267 . S
C539 O551 1.278 . S
O540 Pr520 2.562 . S
O540 C522 1.254 . S
O541 Pr520 2.490 . S
O541 C522 1.225 . S
O542 Pr520 2.695 . S
O542 Pr521 2.436 . S
O542 C529 1.270 . S
O543 Pr520 2.512 . S
O543 C529 1.248 . S
O544 Pr521 2.438 . S
O544 C530 1.267 . S
O545 Pr520 2.437 . S
O545 C530 1.278 . S
O546 Pr521 2.562 . S
O546 C531 1.254 . S
O547 Pr521 2.490 . S
O547 C531 1.225 . S
O548 Pr520 2.436 . S
O548 Pr521 2.695 . S
O548 C538 1.270 . S
O549 Pr521 2.512 . S
O549 C538 1.248 . S
O550 Pr520 2.438 . S
O550 C539 1.267 . S
O551 Pr521 2.437 . S
O551 C539 1.278 . S
H552 C524 0.929 . S
H553 C525 0.929 . S
H554 C527 0.931 . S
H555 C528 0.930 . S
H556 C533 0.929 . S
H557 C534 0.929 . S
H558 C536 0.931 . S
H559 C537 0.930 . S
Pr560 C562 2.880 . S
Pr560 O580 2.562 . S
Pr560 O581 2.490 . S
Pr560 O582 2.695 . S
Pr560 O583 2.512 . S
Pr560 O585 2.437 . S
Pr560 O588 2.436 . S
Pr560 O590 2.438 . S
Pr561 C571 2.880 . S
Pr561 O582 2.436 . S
Pr561 O584 2.438 . S
Pr561 O586 2.562 . S
Pr561 O587 2.490 . S
Pr561 O588 2.695 . S
Pr561 O589 2.512 . S
Pr561 O591 2.437 . S
C562 Pr560 2.880 . S
C562 C563 1.491 . S
C562 O580 1.254 . S
C562 O581 1.225 . S
C563 C562 1.491 . S
C563 C564 1.392 . S
C563 C568 1.356 . S
C564 C563 1.392 . S
C564 C565 1.368 . S
C564 H592 0.929 . S
C565 C564 1.368 . S
C565 C566 1.386 . S
C565 H593 0.929 . S
C566 C565 1.386 . S
C566 C567 1.373 . S
C567 C566 1.373 . S
C567 C568 1.409 . S
C567 H594 0.931 . S
C568 C563 1.356 . S
C568 C567 1.409 . S
C568 H595 0.930 . S
C569 O582 1.270 . S
C569 O583 1.248 . S
C570 O584 1.267 . S
C570 O585 1.278 . S
C571 Pr561 2.880 . S
C571 C572 1.491 . S
C571 O586 1.254 . S
C571 O587 1.225 . S
C572 C571 1.491 . S
C572 C573 1.392 . S
C572 C577 1.356 . S
C573 C572 1.392 . S
C573 C574 1.368 . S
C573 H596 0.929 . S
C574 C573 1.368 . S
C574 C575 1.386 . S
C574 H597 0.929 . S
C575 C574 1.386 . S
C575 C576 1.373 . S
C576 C575 1.373 . S
C576 C577 1.409 . S
C576 H598 0.931 . S
C577 C572 1.356 . S
C577 C576 1.409 . S
C577 H599 0.930 . S
C578 O588 1.270 . S
C578 O589 1.248 . S
C579 O590 1.267 . S
C579 O591 1.278 . S
O580 Pr560 2.562 . S
O580 C562 1.254 . S
O581 Pr560 2.490 . S
O581 C562 1.225 . S
O582 Pr560 2.695 . S
O582 Pr561 2.436 . S
O582 C569 1.270 . S
O583 Pr560 2.512 . S
O583 C569 1.248 . S
O584 Pr561 2.438 . S
O584 C570 1.267 . S
O585 Pr560 2.437 . S
O585 C570 1.278 . S
O586 Pr561 2.562 . S
O586 C571 1.254 . S
O587 Pr561 2.490 . S
O587 C571 1.225 . S
O588 Pr560 2.436 . S
O588 Pr561 2.695 . S
O588 C578 1.270 . S
O589 Pr561 2.512 . S
O589 C578 1.248 . S
O590 Pr560 2.438 . S
O590 C579 1.267 . S
O591 Pr561 2.437 . S
O591 C579 1.278 . S
H592 C564 0.929 . S
H593 C565 0.929 . S
H594 C567 0.931 . S
H595 C568 0.930 . S
H596 C573 0.929 . S
H597 C574 0.929 . S
H598 C576 0.931 . S
H599 C577 0.930 . S
Pr600 C602 2.880 . S
Pr600 O620 2.562 . S
Pr600 O621 2.490 . S
Pr600 O622 2.695 . S
Pr600 O623 2.512 . S
Pr600 O625 2.437 . S
Pr600 O628 2.436 . S
Pr600 O630 2.438 . S
Pr601 C611 2.880 . S
Pr601 O622 2.436 . S
Pr601 O624 2.438 . S
Pr601 O626 2.562 . S
Pr601 O627 2.490 . S
Pr601 O628 2.695 . S
Pr601 O629 2.512 . S
Pr601 O631 2.437 . S
C602 Pr600 2.880 . S
C602 C603 1.491 . S
C602 O620 1.254 . S
C602 O621 1.225 . S
C603 C602 1.491 . S
C603 C604 1.392 . S
C603 C608 1.356 . S
C604 C603 1.392 . S
C604 C605 1.368 . S
C604 H632 0.929 . S
C605 C604 1.368 . S
C605 C606 1.386 . S
C605 H633 0.929 . S
C606 C605 1.386 . S
C606 C607 1.373 . S
C607 C606 1.373 . S
C607 C608 1.409 . S
C607 H634 0.931 . S
C608 C603 1.356 . S
C608 C607 1.409 . S
C608 H635 0.930 . S
C609 O622 1.270 . S
C609 O623 1.248 . S
C610 O624 1.267 . S
C610 O625 1.278 . S
C611 Pr601 2.880 . S
C611 C612 1.491 . S
C611 O626 1.254 . S
C611 O627 1.225 . S
C612 C611 1.491 . S
C612 C613 1.392 . S
C612 C617 1.356 . S
C613 C612 1.392 . S
C613 C614 1.368 . S
C613 H636 0.929 . S
C614 C613 1.368 . S
C614 C615 1.386 . S
C614 H637 0.929 . S
C615 C614 1.386 . S
C615 C616 1.373 . S
C616 C615 1.373 . S
C616 C617 1.409 . S
C616 H638 0.931 . S
C617 C612 1.356 . S
C617 C616 1.409 . S
C617 H639 0.930 . S
C618 O628 1.270 . S
C618 O629 1.248 . S
C619 O630 1.267 . S
C619 O631 1.278 . S
O620 Pr600 2.562 . S
O620 C602 1.254 . S
O621 Pr600 2.490 . S
O621 C602 1.225 . S
O622 Pr600 2.695 . S
O622 Pr601 2.436 . S
O622 C609 1.270 . S
O623 Pr600 2.512 . S
O623 C609 1.248 . S
O624 Pr601 2.438 . S
O624 C610 1.267 . S
O625 Pr600 2.437 . S
O625 C610 1.278 . S
O626 Pr601 2.562 . S
O626 C611 1.254 . S
O627 Pr601 2.490 . S
O627 C611 1.225 . S
O628 Pr600 2.436 . S
O628 Pr601 2.695 . S
O628 C618 1.270 . S
O629 Pr601 2.512 . S
O629 C618 1.248 . S
O630 Pr600 2.438 . S
O630 C619 1.267 . S
O631 Pr601 2.437 . S
O631 C619 1.278 . S
H632 C604 0.929 . S
H633 C605 0.929 . S
H634 C607 0.931 . S
H635 C608 0.930 . S
H636 C613 0.929 . S
H637 C614 0.929 . S
H638 C616 0.931 . S
H639 C617 0.930 . S
C640 C641 1.349 . S
C640 C642 1.327 . S
C640 H665 0.950 . S
C641 C640 1.349 . S
C641 C657 1.349 . S
C642 C640 1.327 . S
C642 C661 1.429 . S
C642 H666 0.950 . S
C643 C660 1.574 . S
C643 C662 1.368 . S
C643 H667 0.949 . S
H644 C648 0.949 1_545 S
C645 C646 1.349 . S
C645 C647 1.327 . S
C645 H668 0.950 . S
C646 C645 1.349 . S
C646 C658 1.349 . S
C647 C645 1.327 . S
C647 C663 1.429 . S
C647 H669 0.950 . S
C648 H644 0.949 1_565 S
C648 C656 1.574 . S
C648 C664 1.368 . S
H649 C657 0.950 . S
H650 C655 0.950 . S
H651 C656 0.949 . S
H652 C658 0.950 . S
H653 C659 0.950 . S
H654 C660 0.949 . S
C655 H650 0.950 . S
C655 C657 1.327 . S
C655 C661 1.429 . S
C656 C648 1.574 . S
C656 H651 0.949 . S
C656 C662 1.368 . S
C657 C641 1.349 . S
C657 H649 0.950 . S
C657 C655 1.327 . S
C658 C646 1.349 . S
C658 H652 0.950 . S
C658 C659 1.327 . S
C659 H653 0.950 . S
C659 C658 1.327 . S
C659 C663 1.429 . S
C660 C643 1.574 . S
C660 H654 0.949 . S
C660 C664 1.368 . S
C661 C642 1.429 . S
C661 C655 1.429 . S
C661 C662 1.523 . S
C662 C643 1.368 . S
C662 C656 1.368 . S
C662 C661 1.523 . S
C663 C647 1.429 . S
C663 C659 1.429 . S
C663 C664 1.523 1_545 S
C664 C648 1.368 . S
C664 C660 1.368 . S
C664 C663 1.523 1_565 S
H665 C640 0.950 . S
H666 C642 0.950 . S
H667 C643 0.949 . S
H668 C645 0.950 . S
H669 C647 0.950 . S
C670 C671 1.349 . S
C670 C672 1.327 . S
C670 H695 0.950 . S
C671 C670 1.349 . S
C671 C687 1.349 . S
C672 C670 1.327 . S
C672 C691 1.429 . S
C672 H696 0.950 . S
C673 C690 1.574 . S
C673 C692 1.368 . S
C673 H697 0.949 . S
H674 C678 0.949 1_455 S
C675 C676 1.349 . S
C675 C677 1.327 . S
C675 H698 0.950 . S
C676 C675 1.349 . S
C676 C688 1.349 . S
C677 C675 1.327 . S
C677 C693 1.429 . S
C677 H699 0.950 . S
C678 H674 0.949 1_655 S
C678 C686 1.574 . S
C678 C694 1.368 . S
H679 C687 0.950 . S
H680 C685 0.950 . S
H681 C686 0.949 . S
H682 C688 0.950 . S
H683 C689 0.950 . S
H684 C690 0.949 . S
C685 H680 0.950 . S
C685 C687 1.327 . S
C685 C691 1.429 . S
C686 C678 1.574 . S
C686 H681 0.949 . S
C686 C692 1.368 . S
C687 C671 1.349 . S
C687 H679 0.950 . S
C687 C685 1.327 . S
C688 C676 1.349 . S
C688 H682 0.950 . S
C688 C689 1.327 . S
C689 H683 0.950 . S
C689 C688 1.327 . S
C689 C693 1.429 . S
C690 C673 1.574 . S
C690 H684 0.949 . S
C690 C694 1.368 . S
C691 C672 1.429 . S
C691 C685 1.429 . S
C691 C692 1.523 . S
C692 C673 1.368 . S
C692 C686 1.368 . S
C692 C691 1.523 . S
C693 C677 1.429 . S
C693 C689 1.429 . S
C693 C694 1.523 1_455 S
C694 C678 1.368 . S
C694 C690 1.368 . S
C694 C693 1.523 1_655 S
H695 C670 0.950 . S
H696 C672 0.950 . S
H697 C673 0.949 . S
H698 C675 0.950 . S
H699 C677 0.950 . S
C700 C701 1.349 . S
C700 C702 1.327 . S
C700 H725 0.950 . S
C701 C700 1.349 . S
C701 C717 1.349 . S
C702 C700 1.327 . S
C702 C721 1.429 . S
C702 H726 0.950 . S
C703 C720 1.574 . S
C703 C722 1.368 . S
C703 H727 0.949 1_545 S
H704 C708 0.949 . S
C705 C706 1.349 . S
C705 C707 1.327 . S
C705 H728 0.950 . S
C706 C705 1.349 . S
C706 C718 1.349 . S
C707 C705 1.327 . S
C707 C723 1.429 . S
C707 H729 0.950 . S
C708 H704 0.949 . S
C708 C716 1.574 . S
C708 C724 1.368 . S
H709 C717 0.950 . S
H710 C715 0.950 . S
H711 C716 0.949 . S
H712 C718 0.950 . S
H713 C719 0.950 . S
H714 C720 0.949 . S
C715 H710 0.950 . S
C715 C717 1.327 . S
C715 C721 1.429 . S
C716 C708 1.574 . S
C716 H711 0.949 . S
C716 C722 1.368 . S
C717 C701 1.349 . S
C717 H709 0.950 . S
C717 C715 1.327 . S
C718 C706 1.349 . S
C718 H712 0.950 . S
C718 C719 1.327 . S
C719 H713 0.950 . S
C719 C718 1.327 . S
C719 C723 1.429 . S
C720 C703 1.574 . S
C720 H714 0.949 . S
C720 C724 1.368 . S
C721 C702 1.429 . S
C721 C715 1.429 . S
C721 C722 1.523 1_565 S
C722 C703 1.368 . S
C722 C716 1.368 . S
C722 C721 1.523 1_545 S
C723 C707 1.429 . S
C723 C719 1.429 . S
C723 C724 1.523 . S
C724 C708 1.368 . S
C724 C720 1.368 . S
C724 C723 1.523 . S
H725 C700 0.950 . S
H726 C702 0.950 . S
H727 C703 0.949 1_565 S
H728 C705 0.950 . S
H729 C707 0.950 . S
C730 C731 1.349 . S
C730 C732 1.327 . S
C730 H755 0.950 . S
C731 C730 1.349 . S
C731 C747 1.349 . S
C732 C730 1.327 . S
C732 C751 1.429 . S
C732 H756 0.950 . S
C733 C750 1.574 . S
C733 C752 1.368 . S
C733 H757 0.949 1_455 S
H734 C738 0.949 . S
C735 C736 1.349 . S
C735 C737 1.327 . S
C735 H758 0.950 . S
C736 C735 1.349 . S
C736 C748 1.349 . S
C737 C735 1.327 . S
C737 C753 1.429 . S
C737 H759 0.950 . S
C738 H734 0.949 . S
C738 C746 1.574 . S
C738 C754 1.368 . S
H739 C747 0.950 . S
H740 C745 0.950 . S
H741 C746 0.949 . S
H742 C748 0.950 . S
H743 C749 0.950 . S
H744 C750 0.949 . S
C745 H740 0.950 . S
C745 C747 1.327 . S
C745 C751 1.429 . S
C746 C738 1.574 . S
C746 H741 0.949 . S
C746 C752 1.368 . S
C747 C731 1.349 . S
C747 H739 0.950 . S
C747 C745 1.327 . S
C748 C736 1.349 . S
C748 H742 0.950 . S
C748 C749 1.327 . S
C749 H743 0.950 . S
C749 C748 1.327 . S
C749 C753 1.429 . S
C750 C733 1.574 . S
C750 H744 0.949 . S
C750 C754 1.368 . S
C751 C732 1.429 . S
C751 C745 1.429 . S
C751 C752 1.523 1_655 S
C752 C733 1.368 . S
C752 C746 1.368 . S
C752 C751 1.523 1_455 S
C753 C737 1.429 . S
C753 C749 1.429 . S
C753 C754 1.523 . S
C754 C738 1.368 . S
C754 C750 1.368 . S
C754 C753 1.523 . S
H755 C730 0.950 . S
H756 C732 0.950 . S
H757 C733 0.949 1_655 S
H758 C735 0.950 . S
H759 C737 0.950 . S
C760 C761 1.349 . S
C760 C762 1.327 . S
C760 H785 0.950 . S
C761 C760 1.349 . S
C761 C777 1.349 . S
C762 C760 1.327 . S
C762 C781 1.429 . S
C762 H786 0.950 . S
C763 C780 1.574 . S
C763 C782 1.368 . S
C763 H787 0.949 . S
H764 C768 0.949 . S
C765 C766 1.349 . S
C765 C767 1.327 1_556 S
C765 H788 0.950 1_556 S
C766 C765 1.349 . S
C766 C778 1.349 . S
C767 C765 1.327 1_554 S
C767 C783 1.429 1_554 S
C767 H789 0.950 . S
C768 H764 0.949 . S
C768 C776 1.574 1_556 S
C768 C784 1.368 1_556 S
H769 C777 0.950 . S
H770 C775 0.950 . S
H771 C776 0.949 1_556 S
H772 C778 0.950 . S
H773 C779 0.950 . S
H774 C780 0.949 . S
C775 H770 0.950 . S
C775 C777 1.327 . S
C775 C781 1.429 . S
C776 C768 1.574 1_554 S
C776 H771 0.949 1_554 S
C776 C782 1.368 . S
C777 C761 1.349 . S
C777 H769 0.950 . S
C777 C775 1.327 . S
C778 C766 1.349 . S
C778 H772 0.950 . S
C778 C779 1.327 . S
C779 H773 0.950 . S
C779 C778 1.327 . S
C779 C783 1.429 . S
C780 C763 1.574 . S
C780 H774 0.949 . S
C780 C784 1.368 . S
C781 C762 1.429 . S
C781 C775 1.429 . S
C781 C782 1.523 . S
C782 C763 1.368 . S
C782 C776 1.368 . S
C782 C781 1.523 . S
C783 C767 1.429 1_556 S
C783 C779 1.429 . S
C783 C784 1.523 1_556 S
C784 C768 1.368 1_554 S
C784 C780 1.368 . S
C784 C783 1.523 1_554 S
H785 C760 0.950 . S
H786 C762 0.950 . S
H787 C763 0.949 . S
H788 C765 0.950 1_554 S
H789 C767 0.950 . S
C790 C791 1.349 . S
C790 C792 1.327 . S
C790 H815 0.950 . S
C791 C790 1.349 . S
C791 C807 1.349 . S
C792 C790 1.327 . S
C792 C811 1.429 . S
C792 H816 0.950 1_554 S
C793 C810 1.581 . S
C793 C812 1.372 . S
C793 H817 0.939 1_556 S
H794 C798 0.949 . S
C795 C796 1.349 . S
C795 C797 1.327 . S
C795 H818 0.950 . S
C796 C795 1.349 . S
C796 C808 1.349 . S
C797 C795 1.327 . S
C797 C813 1.429 . S
C797 H819 0.950 . S
C798 H794 0.949 . S
C798 C806 1.574 . S
C798 C814 1.368 . S
H799 C807 0.950 . S
H800 C805 0.950 . S
H801 C806 0.949 . S
H802 C808 0.950 . S
H803 C809 0.950 . S
H804 C810 0.949 . S
C805 H800 0.950 . S
C805 C807 1.327 . S
C805 C811 1.429 . S
C806 C798 1.574 . S
C806 H801 0.949 . S
C806 C812 1.368 . S
C807 C791 1.349 . S
C807 H799 0.950 . S
C807 C805 1.327 . S
C808 C796 1.349 . S
C808 H802 0.950 . S
C808 C809 1.327 . S
C809 H803 0.950 . S
C809 C808 1.327 . S
C809 C813 1.429 . S
C810 C793 1.581 . S
C810 H804 0.949 . S
C810 C814 1.368 . S
C811 C792 1.429 . S
C811 C805 1.429 . S
C811 C812 1.523 1_554 S
C812 C793 1.372 . S
C812 C806 1.368 . S
C812 C811 1.523 1_556 S
C813 C797 1.429 . S
C813 C809 1.429 . S
C813 C814 1.523 . S
C814 C798 1.368 . S
C814 C810 1.368 . S
C814 C813 1.523 . S
H815 C790 0.950 . S
H816 C792 0.950 1_556 S
H817 C793 0.939 1_554 S
H818 C795 0.950 . S
H819 C797 0.950 . S
C820 C821 1.349 . S
C820 C822 1.327 . S
C820 H845 0.950 . S
C821 C820 1.349 . S
C821 C837 1.349 . S
C822 C820 1.327 . S
C822 C841 1.429 . S
C822 H846 0.950 . S
C823 C840 1.574 . S
C823 C842 1.368 1_556 S
C823 H847 0.949 . S
H824 C828 0.949 . S
C825 C826 1.349 . S
C825 C827 1.327 . S
C825 H848 0.950 . S
C826 C825 1.349 . S
C826 C838 1.357 . S
C827 C825 1.327 . S
C827 C843 1.429 . S
C827 H849 0.950 . S
C828 H824 0.949 . S
C828 C836 1.574 . S
C828 C844 1.368 . S
H829 C837 0.950 . S
H830 C835 0.950 . S
H831 C836 0.949 . S
H832 C838 0.945 1_554 S
H833 C839 0.950 . S
H834 C840 0.949 . S
C835 H830 0.950 . S
C835 C837 1.327 . S
C835 C841 1.429 . S
C836 C828 1.574 . S
C836 H831 0.949 . S
C836 C842 1.368 . S
C837 C821 1.349 . S
C837 H829 0.950 . S
C837 C835 1.327 . S
C838 C826 1.357 . S
C838 H832 0.945 1_556 S
C838 C839 1.324 1_556 S
C839 H833 0.950 . S
C839 C838 1.324 1_554 S
C839 C843 1.429 1_554 S
C840 C823 1.574 . S
C840 H834 0.949 . S
C840 C844 1.368 1_556 S
C841 C822 1.429 . S
C841 C835 1.429 . S
C841 C842 1.523 . S
C842 C823 1.368 1_554 S
C842 C836 1.368 . S
C842 C841 1.523 . S
C843 C827 1.429 . S
C843 C839 1.429 1_556 S
C843 C844 1.523 1_556 S
C844 C828 1.368 . S
C844 C840 1.368 1_554 S
C844 C843 1.523 1_554 S
H845 C820 0.950 . S
H846 C822 0.950 . S
H847 C823 0.949 . S
H848 C825 0.950 . S
H849 C827 0.950 . S
C850 C851 1.349 . S
C850 C852 1.327 . S
C850 H875 0.950 . S
C851 C850 1.349 . S
C851 C867 1.349 . S
C852 C850 1.327 . S
C852 C871 1.429 . S
C852 H876 0.950 . S
C853 C870 1.574 . S
C853 C872 1.368 . S
C853 H877 0.949 . S
H854 C858 0.949 . S
C855 C856 1.349 . S
C855 C857 1.327 . S
C855 H878 0.950 . S
C856 C855 1.349 . S
C856 C868 1.349 . S
C857 C855 1.327 . S
C857 C873 1.429 . S
C857 H879 0.950 . S
C858 H854 0.949 . S
C858 C866 1.574 . S
C858 C874 1.368 . S
H859 C867 0.950 . S
H860 C865 0.950 1_556 S
H861 C866 0.949 1_554 S
H862 C868 0.950 . S
H863 C869 0.950 . S
H864 C870 0.949 . S
C865 H860 0.950 1_554 S
C865 C867 1.327 . S
C865 C871 1.429 . S
C866 C858 1.574 . S
C866 H861 0.949 1_556 S
C866 C872 1.368 . S
C867 C851 1.349 . S
C867 H859 0.950 . S
C867 C865 1.327 . S
C868 C856 1.349 . S
C868 H862 0.950 . S
C868 C869 1.327 . S
C869 H863 0.950 . S
C869 C868 1.327 . S
C869 C873 1.429 . S
C870 C853 1.574 . S
C870 H864 0.949 . S
C870 C874 1.368 . S
C871 C852 1.429 . S
C871 C865 1.429 . S
C871 C872 1.523 1_554 S
C872 C853 1.368 . S
C872 C866 1.368 . S
C872 C871 1.523 1_556 S
C873 C857 1.429 . S
C873 C869 1.429 . S
C873 C874 1.523 . S
C874 C858 1.368 . S
C874 C870 1.368 . S
C874 C873 1.523 . S
H875 C850 0.950 . S
H876 C852 0.950 . S
H877 C853 0.949 . S
H878 C855 0.950 . S
H879 C857 0.950 . S
C880 C881 1.349 . S
C880 C882 1.327 . S
C880 H905 0.950 . S
C881 C880 1.349 . S
C881 C897 1.349 . S
C882 C880 1.327 . S
C882 C901 1.429 . S
C882 H906 0.950 . S
C883 C900 1.574 . S
C883 C902 1.368 . S
C883 H907 0.949 . S
H884 C888 0.949 . S
C885 C886 1.349 . S
C885 C887 1.327 . S
C885 H908 0.950 . S
C886 C885 1.349 . S
C886 C898 1.349 . S
C887 C885 1.327 . S
C887 C903 1.429 . S
C887 H909 0.950 . S
C888 H884 0.949 . S
C888 C896 1.574 . S
C888 C904 1.368 . S
H889 C897 0.950 . S
H890 C895 0.950 . S
H891 C896 0.949 . S
H892 C898 0.950 . S
H893 C899 0.950 . S
H894 C900 0.949 . S
C895 H890 0.950 . S
C895 C897 1.327 . S
C895 C901 1.429 . S
C896 C888 1.574 . S
C896 H891 0.949 . S
C896 C902 1.368 . S
C897 C881 1.349 . S
C897 H889 0.950 . S
C897 C895 1.327 . S
C898 C886 1.349 . S
C898 H892 0.950 . S
C898 C899 1.327 . S
C899 H893 0.950 . S
C899 C898 1.327 . S
C899 C903 1.429 . S
C900 C883 1.574 . S
C900 H894 0.949 . S
C900 C904 1.368 . S
C901 C882 1.429 . S
C901 C895 1.429 . S
C901 C902 1.523 . S
C902 C883 1.368 . S
C902 C896 1.368 . S
C902 C901 1.523 . S
C903 C887 1.429 . S
C903 C899 1.429 . S
C903 C904 1.523 . S
C904 C888 1.368 . S
C904 C900 1.368 . S
C904 C903 1.523 . S
H905 C880 0.950 . S
H906 C882 0.950 . S
H907 C883 0.949 . S
H908 C885 0.950 . S
H909 C887 0.950 . S
C910 C911 1.349 . S
C910 C912 1.327 . S
C910 H935 0.950 . S
C911 C910 1.349 . S
C911 C927 1.349 . S
C912 C910 1.327 . S
C912 C931 1.429 . S
C912 H936 0.950 . S
C913 C930 1.574 . S
C913 C932 1.368 . S
C913 H937 0.949 . S
H914 C918 0.949 . S
C915 C916 1.349 . S
C915 C917 1.327 . S
C915 H938 0.950 . S
C916 C915 1.349 . S
C916 C928 1.349 . S
C917 C915 1.327 . S
C917 C933 1.429 . S
C917 H939 0.950 . S
C918 H914 0.949 . S
C918 C926 1.574 . S
C918 C934 1.368 . S
H919 C927 0.950 . S
H920 C925 0.950 . S
H921 C926 0.949 . S
H922 C928 0.950 . S
H923 C929 0.950 . S
H924 C930 0.949 . S
C925 H920 0.950 . S
C925 C927 1.327 . S
C925 C931 1.429 . S
C926 C918 1.574 . S
C926 H921 0.949 . S
C926 C932 1.368 . S
C927 C911 1.349 . S
C927 H919 0.950 . S
C927 C925 1.327 . S
C928 C916 1.349 . S
C928 H922 0.950 . S
C928 C929 1.327 . S
C929 H923 0.950 . S
C929 C928 1.327 . S
C929 C933 1.429 . S
C930 C913 1.574 . S
C930 H924 0.949 . S
C930 C934 1.368 . S
C931 C912 1.429 . S
C931 C925 1.429 . S
C931 C932 1.523 . S
C932 C913 1.368 . S
C932 C926 1.368 . S
C932 C931 1.523 . S
C933 C917 1.429 . S
C933 C929 1.429 . S
C933 C934 1.523 . S
C934 C918 1.368 . S
C934 C930 1.368 . S
C934 C933 1.523 . S
H935 C910 0.950 . S
H936 C912 0.950 . S
H937 C913 0.949 . S
H938 C915 0.950 . S
H939 C917 0.950 . S
C940 C941 1.349 . S
C940 C942 1.327 . S
C940 H965 0.950 . S
C941 C940 1.349 . S
C941 C957 1.349 . S
C942 C940 1.327 . S
C942 C961 1.429 . S
C942 H966 0.950 . S
C943 C960 1.574 . S
C943 C962 1.368 . S
C943 H967 0.949 . S
H944 C948 0.949 . S
C945 C946 1.349 . S
C945 C947 1.327 . S
C945 H968 0.950 . S
C946 C945 1.349 . S
C946 C958 1.349 . S
C947 C945 1.327 . S
C947 C963 1.429 . S
C947 H969 0.950 . S
C948 H944 0.949 . S
C948 C956 1.574 . S
C948 C964 1.368 . S
H949 C957 0.950 . S
H950 C955 0.950 . S
H951 C956 0.949 . S
H952 C958 0.950 . S
H953 C959 0.950 . S
H954 C960 0.949 . S
C955 H950 0.950 . S
C955 C957 1.327 . S
C955 C961 1.429 . S
C956 C948 1.574 . S
C956 H951 0.949 . S
C956 C962 1.368 . S
C957 C941 1.349 . S
C957 H949 0.950 . S
C957 C955 1.327 . S
C958 C946 1.349 . S
C958 H952 0.950 . S
C958 C959 1.327 . S
C959 H953 0.950 . S
C959 C958 1.327 . S
C959 C963 1.429 . S
C960 C943 1.574 . S
C960 H954 0.949 . S
C960 C964 1.368 . S
C961 C942 1.429 . S
C961 C955 1.429 . S
C961 C962 1.523 . S
C962 C943 1.368 . S
C962 C956 1.368 . S
C962 C961 1.523 . S
C963 C947 1.429 . S
C963 C959 1.429 . S
C963 C964 1.523 . S
C964 C948 1.368 . S
C964 C960 1.368 . S
C964 C963 1.523 . S
H965 C940 0.950 . S
H966 C942 0.950 . S
H967 C943 0.949 . S
H968 C945 0.950 . S
H969 C947 0.950 . S
C970 C971 1.349 . S
C970 C972 1.327 . S
C970 H995 0.950 . S
C971 C970 1.349 . S
C971 C987 1.349 . S
C972 C970 1.327 . S
C972 C991 1.429 . S
C972 H996 0.950 . S
C973 C990 1.574 . S
C973 C992 1.368 . S
C973 H997 0.949 . S
H974 C978 0.949 . S
C975 C976 1.349 . S
C975 C977 1.327 . S
C975 H998 0.950 . S
C976 C975 1.349 . S
C976 C988 1.349 . S
C977 C975 1.327 . S
C977 C993 1.429 . S
C977 H999 0.950 . S
C978 H974 0.949 . S
C978 C986 1.574 . S
C978 C994 1.368 . S
H979 C987 0.950 . S
H980 C985 0.950 . S
H981 C986 0.949 . S
H982 C988 0.950 . S
H983 C989 0.950 . S
H984 C990 0.949 . S
C985 H980 0.950 . S
C985 C987 1.327 . S
C985 C991 1.429 . S
C986 C978 1.574 . S
C986 H981 0.949 . S
C986 C992 1.368 . S
C987 C971 1.349 . S
C987 H979 0.950 . S
C987 C985 1.327 . S
C988 C976 1.349 . S
C988 H982 0.950 . S
C988 C989 1.327 . S
C989 H983 0.950 . S
C989 C988 1.327 . S
C989 C993 1.429 . S
C990 C973 1.574 . S
C990 H984 0.949 . S
C990 C994 1.368 . S
C991 C972 1.429 . S
C991 C985 1.429 . S
C991 C992 1.523 . S
C992 C973 1.368 . S
C992 C986 1.368 . S
C992 C991 1.523 . S
C993 C977 1.429 . S
C993 C989 1.429 . S
C993 C994 1.523 . S
C994 C978 1.368 . S
C994 C990 1.368 . S
C994 C993 1.523 . S
H995 C970 0.950 . S
H996 C972 0.950 . S
H997 C973 0.949 . S
H998 C975 0.950 . S
H999 C977 0.950 . S
C1000 C1001 1.349 . S
C1000 C1002 1.327 . S
C1000 H1025 0.950 . S
C1001 C1000 1.349 . S
C1001 C1017 1.349 . S
C1002 C1000 1.327 . S
C1002 C1021 1.429 . S
C1002 H1026 0.950 . S
C1003 C1020 1.574 . S
C1003 C1022 1.368 . S
C1003 H1027 0.949 . S
H1004 C1008 0.949 . S
C1005 C1006 1.349 . S
C1005 C1007 1.327 . S
C1005 H1028 0.950 . S
C1006 C1005 1.349 . S
C1006 C1018 1.349 . S
C1007 C1005 1.327 . S
C1007 C1023 1.429 . S
C1007 H1029 0.950 . S
C1008 H1004 0.949 . S
C1008 C1016 1.574 . S
C1008 C1024 1.368 . S
H1009 C1017 0.950 . S
H1010 C1015 0.950 . S
H1011 C1016 0.949 1_565 S
H1012 C1018 0.950 . S
H1013 C1019 0.950 . S
H1014 C1020 0.949 . S
C1015 H1010 0.950 . S
C1015 C1017 1.327 . S
C1015 C1021 1.429 . S
C1016 C1008 1.574 . S
C1016 H1011 0.949 1_545 S
C1016 C1022 1.368 . S
C1017 C1001 1.349 . S
C1017 H1009 0.950 . S
C1017 C1015 1.327 . S
C1018 C1006 1.349 . S
C1018 H1012 0.950 . S
C1018 C1019 1.327 . S
C1019 H1013 0.950 . S
C1019 C1018 1.327 . S
C1019 C1023 1.429 . S
C1020 C1003 1.574 . S
C1020 H1014 0.949 . S
C1020 C1024 1.368 . S
C1021 C1002 1.429 . S
C1021 C1015 1.429 . S
C1021 C1022 1.523 1_565 S
C1022 C1003 1.368 . S
C1022 C1016 1.368 . S
C1022 C1021 1.523 1_545 S
C1023 C1007 1.429 . S
C1023 C1019 1.429 . S
C1023 C1024 1.523 . S
C1024 C1008 1.368 . S
C1024 C1020 1.368 . S
C1024 C1023 1.523 . S
H1025 C1000 0.950 . S
H1026 C1002 0.950 . S
H1027 C1003 0.949 . S
H1028 C1005 0.950 . S
H1029 C1007 0.950 . S
C1030 C1031 1.349 . S
C1030 C1032 1.327 . S
C1030 H1055 0.950 . S
C1031 C1030 1.349 . S
C1031 C1047 1.349 . S
C1032 C1030 1.327 . S
C1032 C1051 1.429 . S
C1032 H1056 0.950 . S
C1033 C1050 1.574 . S
C1033 C1052 1.368 . S
C1033 H1057 0.949 . S
H1034 C1038 0.949 1_655 S
C1035 C1036 1.349 . S
C1035 C1037 1.327 . S
C1035 H1058 0.950 . S
C1036 C1035 1.349 . S
C1036 C1048 1.349 . S
C1037 C1035 1.327 . S
C1037 C1053 1.429 . S
C1037 H1059 0.950 . S
C1038 H1034 0.949 1_455 S
C1038 C1046 1.574 . S
C1038 C1054 1.368 . S
H1039 C1047 0.950 . S
H1040 C1045 0.950 . S
H1041 C1046 0.949 . S
H1042 C1048 0.950 . S
H1043 C1049 0.950 . S
H1044 C1050 0.949 . S
C1045 H1040 0.950 . S
C1045 C1047 1.327 . S
C1045 C1051 1.429 . S
C1046 C1038 1.574 . S
C1046 H1041 0.949 . S
C1046 C1052 1.368 . S
C1047 C1031 1.349 . S
C1047 H1039 0.950 . S
C1047 C1045 1.327 . S
C1048 C1036 1.349 . S
C1048 H1042 0.950 . S
C1048 C1049 1.327 . S
C1049 H1043 0.950 . S
C1049 C1048 1.327 . S
C1049 C1053 1.429 . S
C1050 C1033 1.574 . S
C1050 H1044 0.949 . S
C1050 C1054 1.368 . S
C1051 C1032 1.429 . S
C1051 C1045 1.429 . S
C1051 C1052 1.523 . S
C1052 C1033 1.368 . S
C1052 C1046 1.368 . S
C1052 C1051 1.523 . S
C1053 C1037 1.429 . S
C1053 C1049 1.429 . S
C1053 C1054 1.523 1_655 S
C1054 C1038 1.368 . S
C1054 C1050 1.368 . S
C1054 C1053 1.523 1_455 S
H1055 C1030 0.950 . S
H1056 C1032 0.950 . S
H1057 C1033 0.949 . S
H1058 C1035 0.950 . S
H1059 C1037 0.950 . S
C1060 C1061 1.349 . S
C1060 C1062 1.327 . S
C1060 H1085 0.950 . S
C1061 C1060 1.349 . S
C1061 C1077 1.349 . S
C1062 C1060 1.327 . S
C1062 C1081 1.429 . S
C1062 H1086 0.950 . S
C1063 C1080 1.574 . S
C1063 C1082 1.368 . S
C1063 H1087 0.949 . S
H1064 C1068 0.949 . S
C1065 C1066 1.349 . S
C1065 C1067 1.327 . S
C1065 H1088 0.950 . S
C1066 C1065 1.349 . S
C1066 C1078 1.349 . S
C1067 C1065 1.327 . S
C1067 C1083 1.429 . S
C1067 H1089 0.950 . S
C1068 H1064 0.949 . S
C1068 C1076 1.574 . S
C1068 C1084 1.368 . S
H1069 C1077 0.950 . S
H1070 C1075 0.950 . S
H1071 C1076 0.949 . S
H1072 C1078 0.950 . S
H1073 C1079 0.950 . S
H1074 C1080 0.949 1_545 S
C1075 H1070 0.950 . S
C1075 C1077 1.327 . S
C1075 C1081 1.429 . S
C1076 C1068 1.574 . S
C1076 H1071 0.949 . S
C1076 C1082 1.368 . S
C1077 C1061 1.349 . S
C1077 H1069 0.950 . S
C1077 C1075 1.327 . S
C1078 C1066 1.349 . S
C1078 H1072 0.950 . S
C1078 C1079 1.327 . S
C1079 H1073 0.950 . S
C1079 C1078 1.327 . S
C1079 C1083 1.429 . S
C1080 C1063 1.574 . S
C1080 H1074 0.949 1_565 S
C1080 C1084 1.368 . S
C1081 C1062 1.429 . S
C1081 C1075 1.429 . S
C1081 C1082 1.523 . S
C1082 C1063 1.368 . S
C1082 C1076 1.368 . S
C1082 C1081 1.523 . S
C1083 C1067 1.429 . S
C1083 C1079 1.429 . S
C1083 C1084 1.523 1_545 S
C1084 C1068 1.368 . S
C1084 C1080 1.368 . S
C1084 C1083 1.523 1_565 S
H1085 C1060 0.950 . S
H1086 C1062 0.950 . S
H1087 C1063 0.949 . S
H1088 C1065 0.950 . S
H1089 C1067 0.950 . S
C1090 C1091 1.349 . S
C1090 C1092 1.327 . S
C1090 H1115 0.950 . S
C1091 C1090 1.349 . S
C1091 C1107 1.349 . S
C1092 C1090 1.327 . S
C1092 C1111 1.429 . S
C1092 H1116 0.950 . S
C1093 C1110 1.574 . S
C1093 C1112 1.368 . S
C1093 H1117 0.949 1_655 S
H1094 C1098 0.949 . S
C1095 C1096 1.349 . S
C1095 C1097 1.327 . S
C1095 H1118 0.950 . S
C1096 C1095 1.349 . S
C1096 C1108 1.349 . S
C1097 C1095 1.327 . S
C1097 C1113 1.429 . S
C1097 H1119 0.950 . S
C1098 H1094 0.949 . S
C1098 C1106 1.574 . S
C1098 C1114 1.368 . S
H1099 C1107 0.950 . S
H1100 C1105 0.950 . S
H1101 C1106 0.949 . S
H1102 C1108 0.950 . S
H1103 C1109 0.950 . S
H1104 C1110 0.949 . S
C1105 H1100 0.950 . S
C1105 C1107 1.327 . S
C1105 C1111 1.429 . S
C1106 C1098 1.574 . S
C1106 H1101 0.949 . S
C1106 C1112 1.368 . S
C1107 C1091 1.349 . S
C1107 H1099 0.950 . S
C1107 C1105 1.327 . S
C1108 C1096 1.349 . S
C1108 H1102 0.950 . S
C1108 C1109 1.327 . S
C1109 H1103 0.950 . S
C1109 C1108 1.327 . S
C1109 C1113 1.429 . S
C1110 C1093 1.574 . S
C1110 H1104 0.949 . S
C1110 C1114 1.368 . S
C1111 C1092 1.429 . S
C1111 C1105 1.429 . S
C1111 C1112 1.523 1_455 S
C1112 C1093 1.368 . S
C1112 C1106 1.368 . S
C1112 C1111 1.523 1_655 S
C1113 C1097 1.429 . S
C1113 C1109 1.429 . S
C1113 C1114 1.523 . S
C1114 C1098 1.368 . S
C1114 C1110 1.368 . S
C1114 C1113 1.523 . S
H1115 C1090 0.950 . S
H1116 C1092 0.950 . S
H1117 C1093 0.949 1_455 S
H1118 C1095 0.950 . S
H1119 C1097 0.950 . S
C1120 C1121 1.349 . S
C1120 C1122 1.327 . S
C1120 H1145 0.950 . S
C1121 C1120 1.349 . S
C1121 C1137 1.349 . S
C1122 C1120 1.327 . S
C1122 C1141 1.429 . S
C1122 H1146 0.950 . S
C1123 C1140 1.574 . S
C1123 C1142 1.368 . S
C1123 H1147 0.949 . S
H1124 C1128 0.949 . S
C1125 C1126 1.349 . S
C1125 C1127 1.327 . S
C1125 H1148 0.950 . S
C1126 C1125 1.349 . S
C1126 C1138 1.349 . S
C1127 C1125 1.327 . S
C1127 C1143 1.429 . S
C1127 H1149 0.950 . S
C1128 H1124 0.949 . S
C1128 C1136 1.574 . S
C1128 C1144 1.368 . S
H1129 C1137 0.950 . S
H1130 C1135 0.950 . S
H1131 C1136 0.949 . S
H1132 C1138 0.950 . S
H1133 C1139 0.950 . S
H1134 C1140 0.949 . S
C1135 H1130 0.950 . S
C1135 C1137 1.327 . S
C1135 C1141 1.429 . S
C1136 C1128 1.574 . S
C1136 H1131 0.949 . S
C1136 C1142 1.368 . S
C1137 C1121 1.349 . S
C1137 H1129 0.950 . S
C1137 C1135 1.327 . S
C1138 C1126 1.349 . S
C1138 H1132 0.950 . S
C1138 C1139 1.327 . S
C1139 H1133 0.950 . S
C1139 C1138 1.327 . S
C1139 C1143 1.429 . S
C1140 C1123 1.574 . S
C1140 H1134 0.949 . S
C1140 C1144 1.368 . S
C1141 C1122 1.429 . S
C1141 C1135 1.429 . S
C1141 C1142 1.523 . S
C1142 C1123 1.368 . S
C1142 C1136 1.368 . S
C1142 C1141 1.523 . S
C1143 C1127 1.429 . S
C1143 C1139 1.429 . S
C1143 C1144 1.523 . S
C1144 C1128 1.368 . S
C1144 C1140 1.368 . S
C1144 C1143 1.523 . S
H1145 C1120 0.950 . S
H1146 C1122 0.950 . S
H1147 C1123 0.949 . S
H1148 C1125 0.950 . S
H1149 C1127 0.950 . S
C1150 C1151 1.349 . S
C1150 C1152 1.327 . S
C1150 H1175 0.950 . S
C1151 C1150 1.349 . S
C1151 C1167 1.349 . S
C1152 C1150 1.327 . S
C1152 C1171 1.429 . S
C1152 H1176 0.950 . S
C1153 C1170 1.574 . S
C1153 C1172 1.368 . S
C1153 H1177 0.949 . S
H1154 C1158 0.949 . S
C1155 C1156 1.349 . S
C1155 C1157 1.327 . S
C1155 H1178 0.950 . S
C1156 C1155 1.349 . S
C1156 C1168 1.349 . S
C1157 C1155 1.327 . S
C1157 C1173 1.429 . S
C1157 H1179 0.950 . S
C1158 H1154 0.949 . S
C1158 C1166 1.574 . S
C1158 C1174 1.368 . S
H1159 C1167 0.950 . S
H1160 C1165 0.950 . S
H1161 C1166 0.949 . S
H1162 C1168 0.950 . S
H1163 C1169 0.950 . S
H1164 C1170 0.949 . S
C1165 H1160 0.950 . S
C1165 C1167 1.327 . S
C1165 C1171 1.429 . S
C1166 C1158 1.574 . S
C1166 H1161 0.949 . S
C1166 C1172 1.368 . S
C1167 C1151 1.349 . S
C1167 H1159 0.950 . S
C1167 C1165 1.327 . S
C1168 C1156 1.349 . S
C1168 H1162 0.950 . S
C1168 C1169 1.327 . S
C1169 H1163 0.950 . S
C1169 C1168 1.327 . S
C1169 C1173 1.429 . S
C1170 C1153 1.574 . S
C1170 H1164 0.949 . S
C1170 C1174 1.368 . S
C1171 C1152 1.429 . S
C1171 C1165 1.429 . S
C1171 C1172 1.523 . S
C1172 C1153 1.368 . S
C1172 C1166 1.368 . S
C1172 C1171 1.523 . S
C1173 C1157 1.429 . S
C1173 C1169 1.429 . S
C1173 C1174 1.523 . S
C1174 C1158 1.368 . S
C1174 C1170 1.368 . S
C1174 C1173 1.523 . S
H1175 C1150 0.950 . S
H1176 C1152 0.950 . S
H1177 C1153 0.949 . S
H1178 C1155 0.950 . S
H1179 C1157 0.950 . S
C1180 C1181 1.349 . S
C1180 C1182 1.327 . S
C1180 H1205 0.950 . S
C1181 C1180 1.349 . S
C1181 C1197 1.349 . S
C1182 C1180 1.327 . S
C1182 C1201 1.429 . S
C1182 H1206 0.950 . S
C1183 C1200 1.574 . S
C1183 C1202 1.368 . S
C1183 H1207 0.949 . S
H1184 C1188 0.949 . S
C1185 C1186 1.349 . S
C1185 C1187 1.327 . S
C1185 H1208 0.950 . S
C1186 C1185 1.349 . S
C1186 C1198 1.349 . S
C1187 C1185 1.327 . S
C1187 C1203 1.429 . S
C1187 H1209 0.950 . S
C1188 H1184 0.949 . S
C1188 C1196 1.574 . S
C1188 C1204 1.368 . S
H1189 C1197 0.950 . S
H1190 C1195 0.950 . S
H1191 C1196 0.949 . S
H1192 C1198 0.950 . S
H1193 C1199 0.950 . S
H1194 C1200 0.949 . S
C1195 H1190 0.950 . S
C1195 C1197 1.327 . S
C1195 C1201 1.429 . S
C1196 C1188 1.574 . S
C1196 H1191 0.949 . S
C1196 C1202 1.368 . S
C1197 C1181 1.349 . S
C1197 H1189 0.950 . S
C1197 C1195 1.327 . S
C1198 C1186 1.349 . S
C1198 H1192 0.950 . S
C1198 C1199 1.327 . S
C1199 H1193 0.950 . S
C1199 C1198 1.327 . S
C1199 C1203 1.429 . S
C1200 C1183 1.574 . S
C1200 H1194 0.949 . S
C1200 C1204 1.368 . S
C1201 C1182 1.429 . S
C1201 C1195 1.429 . S
C1201 C1202 1.523 . S
C1202 C1183 1.368 . S
C1202 C1196 1.368 . S
C1202 C1201 1.523 . S
C1203 C1187 1.429 . S
C1203 C1199 1.429 . S
C1203 C1204 1.523 . S
C1204 C1188 1.368 . S
C1204 C1200 1.368 . S
C1204 C1203 1.523 . S
H1205 C1180 0.950 . S
H1206 C1182 0.950 . S
H1207 C1183 0.949 . S
H1208 C1185 0.950 . S
H1209 C1187 0.950 . S
C1210 C1211 1.349 . S
C1210 C1212 1.327 . S
C1210 H1235 0.950 . S
C1211 C1210 1.349 . S
C1211 C1227 1.349 . S
C1212 C1210 1.327 . S
C1212 C1231 1.429 . S
C1212 H1236 0.950 . S
C1213 C1230 1.574 . S
C1213 C1232 1.368 . S
C1213 H1237 0.949 . S
H1214 C1218 0.949 . S
C1215 C1216 1.349 . S
C1215 C1217 1.327 . S
C1215 H1238 0.950 . S
C1216 C1215 1.349 . S
C1216 C1228 1.349 . S
C1217 C1215 1.327 . S
C1217 C1233 1.429 . S
C1217 H1239 0.950 . S
C1218 H1214 0.949 . S
C1218 C1226 1.574 . S
C1218 C1234 1.368 . S
H1219 C1227 0.950 . S
H1220 C1225 0.950 . S
H1221 C1226 0.949 . S
H1222 C1228 0.950 . S
H1223 C1229 0.950 . S
H1224 C1230 0.949 . S
C1225 H1220 0.950 . S
C1225 C1227 1.327 . S
C1225 C1231 1.429 . S
C1226 C1218 1.574 . S
C1226 H1221 0.949 . S
C1226 C1232 1.368 . S
C1227 C1211 1.349 . S
C1227 H1219 0.950 . S
C1227 C1225 1.327 . S
C1228 C1216 1.349 . S
C1228 H1222 0.950 . S
C1228 C1229 1.327 . S
C1229 H1223 0.950 . S
C1229 C1228 1.327 . S
C1229 C1233 1.429 . S
C1230 C1213 1.574 . S
C1230 H1224 0.949 . S
C1230 C1234 1.368 . S
C1231 C1212 1.429 . S
C1231 C1225 1.429 . S
C1231 C1232 1.523 . S
C1232 C1213 1.368 . S
C1232 C1226 1.368 . S
C1232 C1231 1.523 . S
C1233 C1217 1.429 . S
C1233 C1229 1.429 . S
C1233 C1234 1.523 . S
C1234 C1218 1.368 . S
C1234 C1230 1.368 . S
C1234 C1233 1.523 . S
H1235 C1210 0.950 . S
H1236 C1212 0.950 . S
H1237 C1213 0.949 . S
H1238 C1215 0.950 . S
H1239 C1217 0.950 . S
C1240 C1241 1.349 . S
C1240 C1242 1.327 . S
C1240 H1265 0.950 . S
C1241 C1240 1.349 . S
C1241 C1257 1.349 . S
C1242 C1240 1.327 . S
C1242 C1261 1.429 . S
C1242 H1266 0.950 . S
C1243 C1260 1.574 . S
C1243 C1262 1.368 . S
C1243 H1267 0.949 . S
H1244 C1248 0.949 . S
C1245 C1246 1.349 . S
C1245 C1247 1.327 . S
C1245 H1268 0.950 . S
C1246 C1245 1.349 . S
C1246 C1258 1.349 . S
C1247 C1245 1.327 . S
C1247 C1263 1.429 . S
C1247 H1269 0.950 . S
C1248 H1244 0.949 . S
C1248 C1256 1.574 . S
C1248 C1264 1.368 . S
H1249 C1257 0.950 . S
H1250 C1255 0.950 . S
H1251 C1256 0.949 . S
H1252 C1258 0.950 . S
H1253 C1259 0.950 . S
H1254 C1260 0.949 . S
C1255 H1250 0.950 . S
C1255 C1257 1.327 . S
C1255 C1261 1.429 . S
C1256 C1248 1.574 . S
C1256 H1251 0.949 . S
C1256 C1262 1.368 . S
C1257 C1241 1.349 . S
C1257 H1249 0.950 . S
C1257 C1255 1.327 . S
C1258 C1246 1.349 . S
C1258 H1252 0.950 . S
C1258 C1259 1.327 . S
C1259 H1253 0.950 . S
C1259 C1258 1.327 . S
C1259 C1263 1.429 . S
C1260 C1243 1.574 . S
C1260 H1254 0.949 . S
C1260 C1264 1.368 . S
C1261 C1242 1.429 . S
C1261 C1255 1.429 . S
C1261 C1262 1.523 . S
C1262 C1243 1.368 . S
C1262 C1256 1.368 . S
C1262 C1261 1.523 . S
C1263 C1247 1.429 . S
C1263 C1259 1.429 . S
C1263 C1264 1.523 . S
C1264 C1248 1.368 . S
C1264 C1260 1.368 . S
C1264 C1263 1.523 . S
H1265 C1240 0.950 . S
H1266 C1242 0.950 . S
H1267 C1243 0.949 . S
H1268 C1245 0.950 . S
H1269 C1247 0.950 . S
C1270 C1271 1.349 . S
C1270 C1272 1.327 . S
C1270 H1295 0.950 . S
C1271 C1270 1.349 . S
C1271 C1287 1.349 . S
C1272 C1270 1.327 . S
C1272 C1291 1.429 . S
C1272 H1296 0.950 . S
C1273 C1290 1.574 . S
C1273 C1292 1.368 . S
C1273 H1297 0.949 . S
H1274 C1278 0.949 . S
C1275 C1276 1.349 . S
C1275 C1277 1.327 . S
C1275 H1298 0.950 . S
C1276 C1275 1.349 . S
C1276 C1288 1.349 . S
C1277 C1275 1.327 . S
C1277 C1293 1.429 . S
C1277 H1299 0.950 . S
C1278 H1274 0.949 . S
C1278 C1286 1.574 . S
C1278 C1294 1.368 . S
H1279 C1287 0.950 . S
H1280 C1285 0.950 . S
H1281 C1286 0.949 . S
H1282 C1288 0.950 . S
H1283 C1289 0.950 . S
H1284 C1290 0.949 . S
C1285 H1280 0.950 . S
C1285 C1287 1.327 . S
C1285 C1291 1.429 . S
C1286 C1278 1.574 . S
C1286 H1281 0.949 . S
C1286 C1292 1.368 . S
C1287 C1271 1.349 . S
C1287 H1279 0.950 . S
C1287 C1285 1.327 . S
C1288 C1276 1.349 . S
C1288 H1282 0.950 . S
C1288 C1289 1.327 . S
C1289 H1283 0.950 . S
C1289 C1288 1.327 . S
C1289 C1293 1.429 . S
C1290 C1273 1.574 . S
C1290 H1284 0.949 . S
C1290 C1294 1.368 . S
C1291 C1272 1.429 . S
C1291 C1285 1.429 . S
C1291 C1292 1.523 . S
C1292 C1273 1.368 . S
C1292 C1286 1.368 . S
C1292 C1291 1.523 . S
C1293 C1277 1.429 . S
C1293 C1289 1.429 . S
C1293 C1294 1.523 . S
C1294 C1278 1.368 . S
C1294 C1290 1.368 . S
C1294 C1293 1.523 . S
H1295 C1270 0.950 . S
H1296 C1272 0.950 . S
H1297 C1273 0.949 . S
H1298 C1275 0.950 . S
H1299 C1277 0.950 . S
C1300 C1301 1.349 . S
C1300 C1302 1.327 . S
C1300 H1325 0.950 . S
C1301 C1300 1.349 . S
C1301 C1317 1.349 . S
C1302 C1300 1.327 . S
C1302 C1321 1.429 . S
C1302 H1326 0.950 . S
C1303 C1320 1.574 . S
C1303 C1322 1.368 . S
C1303 H1327 0.949 . S
H1304 C1308 0.949 . S
C1305 C1306 1.349 . S
C1305 C1307 1.327 . S
C1305 H1328 0.950 . S
C1306 C1305 1.349 . S
C1306 C1318 1.349 . S
C1307 C1305 1.327 . S
C1307 C1323 1.429 . S
C1307 H1329 0.950 . S
C1308 H1304 0.949 . S
C1308 C1316 1.574 . S
C1308 C1324 1.368 . S
H1309 C1317 0.950 . S
H1310 C1315 0.950 . S
H1311 C1316 0.949 . S
H1312 C1318 0.950 . S
H1313 C1319 0.950 . S
H1314 C1320 0.949 . S
C1315 H1310 0.950 . S
C1315 C1317 1.327 . S
C1315 C1321 1.429 . S
C1316 C1308 1.574 . S
C1316 H1311 0.949 . S
C1316 C1322 1.368 . S
C1317 C1301 1.349 . S
C1317 H1309 0.950 . S
C1317 C1315 1.327 . S
C1318 C1306 1.349 . S
C1318 H1312 0.950 . S
C1318 C1319 1.327 . S
C1319 H1313 0.950 . S
C1319 C1318 1.327 . S
C1319 C1323 1.429 . S
C1320 C1303 1.574 . S
C1320 H1314 0.949 . S
C1320 C1324 1.368 . S
C1321 C1302 1.429 . S
C1321 C1315 1.429 . S
C1321 C1322 1.523 . S
C1322 C1303 1.368 . S
C1322 C1316 1.368 . S
C1322 C1321 1.523 . S
C1323 C1307 1.429 . S
C1323 C1319 1.429 . S
C1323 C1324 1.523 . S
C1324 C1308 1.368 . S
C1324 C1320 1.368 . S
C1324 C1323 1.523 . S
H1325 C1300 0.950 . S
H1326 C1302 0.950 . S
H1327 C1303 0.949 . S
H1328 C1305 0.950 . S
H1329 C1307 0.950 . S
C1330 C1331 1.349 . S
C1330 C1332 1.327 . S
C1330 H1355 0.950 . S
C1331 C1330 1.349 . S
C1331 C1347 1.349 . S
C1332 C1330 1.327 . S
C1332 C1351 1.429 . S
C1332 H1356 0.950 . S
C1333 C1350 1.574 . S
C1333 C1352 1.368 . S
C1333 H1357 0.949 . S
H1334 C1338 0.949 . S
C1335 C1336 1.349 . S
C1335 C1337 1.327 . S
C1335 H1358 0.950 . S
C1336 C1335 1.349 . S
C1336 C1348 1.349 . S
C1337 C1335 1.327 . S
C1337 C1353 1.429 . S
C1337 H1359 0.950 . S
C1338 H1334 0.949 . S
C1338 C1346 1.574 . S
C1338 C1354 1.368 . S
H1339 C1347 0.950 . S
H1340 C1345 0.950 . S
H1341 C1346 0.949 . S
H1342 C1348 0.950 . S
H1343 C1349 0.950 . S
H1344 C1350 0.949 . S
C1345 H1340 0.950 . S
C1345 C1347 1.327 . S
C1345 C1351 1.429 . S
C1346 C1338 1.574 . S
C1346 H1341 0.949 . S
C1346 C1352 1.368 . S
C1347 C1331 1.349 . S
C1347 H1339 0.950 . S
C1347 C1345 1.327 . S
C1348 C1336 1.349 . S
C1348 H1342 0.950 . S
C1348 C1349 1.327 . S
C1349 H1343 0.950 . S
C1349 C1348 1.327 . S
C1349 C1353 1.429 . S
C1350 C1333 1.574 . S
C1350 H1344 0.949 . S
C1350 C1354 1.368 . S
C1351 C1332 1.429 . S
C1351 C1345 1.429 . S
C1351 C1352 1.523 . S
C1352 C1333 1.368 . S
C1352 C1346 1.368 . S
C1352 C1351 1.523 . S
C1353 C1337 1.429 . S
C1353 C1349 1.429 . S
C1353 C1354 1.523 . S
C1354 C1338 1.368 . S
C1354 C1350 1.368 . S
C1354 C1353 1.523 . S
H1355 C1330 0.950 . S
H1356 C1332 0.950 . S
H1357 C1333 0.949 . S
H1358 C1335 0.950 . S
H1359 C1337 0.950 . S
C1360 C1361 1.349 . S
C1360 C1362 1.327 . S
C1360 H1385 0.950 . S
C1361 C1360 1.349 . S
C1361 C1377 1.349 . S
C1362 C1360 1.327 . S
C1362 C1381 1.429 . S
C1362 H1386 0.950 . S
C1363 C1380 1.574 . S
C1363 C1382 1.368 . S
C1363 H1387 0.949 . S
H1364 C1368 0.949 . S
C1365 C1366 1.349 . S
C1365 C1367 1.327 1_554 S
C1365 H1388 0.950 . S
C1366 C1365 1.349 . S
C1366 C1378 1.349 1_554 S
C1367 C1365 1.327 1_556 S
C1367 C1383 1.429 . S
C1367 H1389 0.950 . S
C1368 H1364 0.949 . S
C1368 C1376 1.574 . S
C1368 C1384 1.368 . S
H1369 C1377 0.950 . S
H1370 C1375 0.950 . S
H1371 C1376 0.949 . S
H1372 C1378 0.950 . S
H1373 C1379 0.950 . S
H1374 C1380 0.949 . S
C1375 H1370 0.950 . S
C1375 C1377 1.327 . S
C1375 C1381 1.429 . S
C1376 C1368 1.574 . S
C1376 H1371 0.949 . S
C1376 C1382 1.368 . S
C1377 C1361 1.349 . S
C1377 H1369 0.950 . S
C1377 C1375 1.327 . S
C1378 C1366 1.349 1_556 S
C1378 H1372 0.950 . S
C1378 C1379 1.327 . S
C1379 H1373 0.950 . S
C1379 C1378 1.327 . S
C1379 C1383 1.429 . S
C1380 C1363 1.574 . S
C1380 H1374 0.949 . S
C1380 C1384 1.368 . S
C1381 C1362 1.429 . S
C1381 C1375 1.429 . S
C1381 C1382 1.523 . S
C1382 C1363 1.368 . S
C1382 C1376 1.368 . S
C1382 C1381 1.523 . S
C1383 C1367 1.429 . S
C1383 C1379 1.429 . S
C1383 C1384 1.523 . S
C1384 C1368 1.368 . S
C1384 C1380 1.368 . S
C1384 C1383 1.523 . S
H1385 C1360 0.950 . S
H1386 C1362 0.950 . S
H1387 C1363 0.949 . S
H1388 C1365 0.950 . S
H1389 C1367 0.950 . S
C1390 C1391 1.349 . S
C1390 C1392 1.327 1_556 S
C1390 H1415 0.950 . S
C1391 C1390 1.349 . S
C1391 C1407 1.349 1_556 S
C1392 C1390 1.327 1_554 S
C1392 C1411 1.429 . S
C1392 H1416 0.950 . S
C1393 C1410 1.574 . S
C1393 C1412 1.368 . S
C1393 H1417 0.949 . S
H1394 C1398 0.949 . S
C1395 C1396 1.349 . S
C1395 C1397 1.327 . S
C1395 H1418 0.950 . S
C1396 C1395 1.349 . S
C1396 C1408 1.349 . S
C1397 C1395 1.327 . S
C1397 C1413 1.429 . S
C1397 H1419 0.950 . S
C1398 H1394 0.949 . S
C1398 C1406 1.574 . S
C1398 C1414 1.368 . S
H1399 C1407 0.950 . S
H1400 C1405 0.950 . S
H1401 C1406 0.949 . S
H1402 C1408 0.950 . S
H1403 C1409 0.950 . S
H1404 C1410 0.949 . S
C1405 H1400 0.950 . S
C1405 C1407 1.327 . S
C1405 C1411 1.429 . S
C1406 C1398 1.574 . S
C1406 H1401 0.949 . S
C1406 C1412 1.368 . S
C1407 C1391 1.349 1_554 S
C1407 H1399 0.950 . S
C1407 C1405 1.327 . S
C1408 C1396 1.349 . S
C1408 H1402 0.950 . S
C1408 C1409 1.327 . S
C1409 H1403 0.950 . S
C1409 C1408 1.327 . S
C1409 C1413 1.429 . S
C1410 C1393 1.574 . S
C1410 H1404 0.949 . S
C1410 C1414 1.368 . S
C1411 C1392 1.429 . S
C1411 C1405 1.429 . S
C1411 C1412 1.523 . S
C1412 C1393 1.368 . S
C1412 C1406 1.368 . S
C1412 C1411 1.523 . S
C1413 C1397 1.429 . S
C1413 C1409 1.429 . S
C1413 C1414 1.523 . S
C1414 C1398 1.368 . S
C1414 C1410 1.368 . S
C1414 C1413 1.523 . S
H1415 C1390 0.950 . S
H1416 C1392 0.950 . S
H1417 C1393 0.949 . S
H1418 C1395 0.950 . S
H1419 C1397 0.950 . S
C1420 C1421 1.349 1_556 S
C1420 C1422 1.327 . S
C1420 H1445 0.950 . S
C1421 C1420 1.349 1_554 S
C1421 C1437 1.349 . S
C1422 C1420 1.327 . S
C1422 C1441 1.429 . S
C1422 H1446 0.950 . S
C1423 C1440 1.574 . S
C1423 C1442 1.368 . S
C1423 H1447 0.949 . S
H1424 C1428 0.949 . S
C1425 C1426 1.349 . S
C1425 C1427 1.327 . S
C1425 H1448 0.950 . S
C1426 C1425 1.349 . S
C1426 C1438 1.349 . S
C1427 C1425 1.327 . S
C1427 C1443 1.429 . S
C1427 H1449 0.950 . S
C1428 H1424 0.949 . S
C1428 C1436 1.574 . S
C1428 C1444 1.368 . S
H1429 C1437 0.950 . S
H1430 C1435 0.950 . S
H1431 C1436 0.949 . S
H1432 C1438 0.950 . S
H1433 C1439 0.950 . S
H1434 C1440 0.949 . S
C1435 H1430 0.950 . S
C1435 C1437 1.327 1_556 S
C1435 C1441 1.429 . S
C1436 C1428 1.574 . S
C1436 H1431 0.949 . S
C1436 C1442 1.368 . S
C1437 C1421 1.349 . S
C1437 H1429 0.950 . S
C1437 C1435 1.327 1_554 S
C1438 C1426 1.349 . S
C1438 H1432 0.950 . S
C1438 C1439 1.327 . S
C1439 H1433 0.950 . S
C1439 C1438 1.327 . S
C1439 C1443 1.429 . S
C1440 C1423 1.574 . S
C1440 H1434 0.949 . S
C1440 C1444 1.368 . S
C1441 C1422 1.429 . S
C1441 C1435 1.429 . S
C1441 C1442 1.523 . S
C1442 C1423 1.368 . S
C1442 C1436 1.368 . S
C1442 C1441 1.523 . S
C1443 C1427 1.429 . S
C1443 C1439 1.429 . S
C1443 C1444 1.523 . S
C1444 C1428 1.368 . S
C1444 C1440 1.368 . S
C1444 C1443 1.523 . S
H1445 C1420 0.950 . S
H1446 C1422 0.950 . S
H1447 C1423 0.949 . S
H1448 C1425 0.950 . S
H1449 C1427 0.950 . S
C1450 C1451 1.349 . S
C1450 C1452 1.327 1_556 S
C1450 H1475 0.950 . S
C1451 C1450 1.349 . S
C1451 C1467 1.349 1_556 S
C1452 C1450 1.327 1_554 S
C1452 C1471 1.429 . S
C1452 H1476 0.950 . S
C1453 C1470 1.574 . S
C1453 C1472 1.368 . S
C1453 H1477 0.949 . S
H1454 C1458 0.949 . S
C1455 C1456 1.349 . S
C1455 C1457 1.327 . S
C1455 H1478 0.950 . S
C1456 C1455 1.349 . S
C1456 C1468 1.349 . S
C1457 C1455 1.327 . S
C1457 C1473 1.429 . S
C1457 H1479 0.950 . S
C1458 H1454 0.949 . S
C1458 C1466 1.574 . S
C1458 C1474 1.368 . S
H1459 C1467 0.950 . S
H1460 C1465 0.950 . S
H1461 C1466 0.949 . S
H1462 C1468 0.950 . S
H1463 C1469 0.950 . S
H1464 C1470 0.949 . S
C1465 H1460 0.950 . S
C1465 C1467 1.327 . S
C1465 C1471 1.429 . S
C1466 C1458 1.574 . S
C1466 H1461 0.949 . S
C1466 C1472 1.368 . S
C1467 C1451 1.349 1_554 S
C1467 H1459 0.950 . S
C1467 C1465 1.327 . S
C1468 C1456 1.349 . S
C1468 H1462 0.950 . S
C1468 C1469 1.327 . S
C1469 H1463 0.950 . S
C1469 C1468 1.327 . S
C1469 C1473 1.429 . S
C1470 C1453 1.574 . S
C1470 H1464 0.949 . S
C1470 C1474 1.368 . S
C1471 C1452 1.429 . S
C1471 C1465 1.429 . S
C1471 C1472 1.523 . S
C1472 C1453 1.368 . S
C1472 C1466 1.368 . S
C1472 C1471 1.523 . S
C1473 C1457 1.429 . S
C1473 C1469 1.429 . S
C1473 C1474 1.523 . S
C1474 C1458 1.368 . S
C1474 C1470 1.368 . S
C1474 C1473 1.523 . S
H1475 C1450 0.950 . S
H1476 C1452 0.950 . S
H1477 C1453 0.949 . S
H1478 C1455 0.950 . S
H1479 C1457 0.950 . S
C1480 C1481 1.349 . S
C1480 C1482 1.327 . S
C1480 H1505 0.950 . S
C1481 C1480 1.349 . S
C1481 C1497 1.349 . S
C1482 C1480 1.327 . S
C1482 C1501 1.429 . S
C1482 H1506 0.950 . S
C1483 C1500 1.574 . S
C1483 C1502 1.368 . S
C1483 H1507 0.949 . S
H1484 C1488 0.949 . S
C1485 C1486 1.349 . S
C1485 C1487 1.327 . S
C1485 H1508 0.950 . S
C1486 C1485 1.349 . S
C1486 C1498 1.349 . S
C1487 C1485 1.327 . S
C1487 C1503 1.429 . S
C1487 H1509 0.950 . S
C1488 H1484 0.949 . S
C1488 C1496 1.574 . S
C1488 C1504 1.368 . S
H1489 C1497 0.950 . S
H1490 C1495 0.950 . S
H1491 C1496 0.949 . S
H1492 C1498 0.950 . S
H1493 C1499 0.950 . S
H1494 C1500 0.949 . S
C1495 H1490 0.950 . S
C1495 C1497 1.327 . S
C1495 C1501 1.429 . S
C1496 C1488 1.574 . S
C1496 H1491 0.949 . S
C1496 C1502 1.368 . S
C1497 C1481 1.349 . S
C1497 H1489 0.950 . S
C1497 C1495 1.327 . S
C1498 C1486 1.349 . S
C1498 H1492 0.950 . S
C1498 C1499 1.327 . S
C1499 H1493 0.950 . S
C1499 C1498 1.327 . S
C1499 C1503 1.429 . S
C1500 C1483 1.574 . S
C1500 H1494 0.949 . S
C1500 C1504 1.368 . S
C1501 C1482 1.429 . S
C1501 C1495 1.429 . S
C1501 C1502 1.523 . S
C1502 C1483 1.368 . S
C1502 C1496 1.368 . S
C1502 C1501 1.523 . S
C1503 C1487 1.429 . S
C1503 C1499 1.429 . S
C1503 C1504 1.523 . S
C1504 C1488 1.368 . S
C1504 C1500 1.368 . S
C1504 C1503 1.523 . S
H1505 C1480 0.950 . S
H1506 C1482 0.950 . S
H1507 C1483 0.949 . S
H1508 C1485 0.950 . S
H1509 C1487 0.950 . S
C1510 C1511 1.349 . S
C1510 C1512 1.327 . S
C1510 H1535 0.950 . S
C1511 C1510 1.349 . S
C1511 C1527 1.349 . S
C1512 C1510 1.327 . S
C1512 C1531 1.429 . S
C1512 H1536 0.950 . S
C1513 C1530 1.574 . S
C1513 C1532 1.368 . S
C1513 H1537 0.949 . S
H1514 C1518 0.949 . S
C1515 C1516 1.349 . S
C1515 C1517 1.327 . S
C1515 H1538 0.950 . S
C1516 C1515 1.349 . S
C1516 C1528 1.349 . S
C1517 C1515 1.327 . S
C1517 C1533 1.429 . S
C1517 H1539 0.950 . S
C1518 H1514 0.949 . S
C1518 C1526 1.574 . S
C1518 C1534 1.368 . S
H1519 C1527 0.950 . S
H1520 C1525 0.950 . S
H1521 C1526 0.949 . S
H1522 C1528 0.950 . S
H1523 C1529 0.950 . S
H1524 C1530 0.949 . S
C1525 H1520 0.950 . S
C1525 C1527 1.327 . S
C1525 C1531 1.429 . S
C1526 C1518 1.574 . S
C1526 H1521 0.949 . S
C1526 C1532 1.368 . S
C1527 C1511 1.349 . S
C1527 H1519 0.950 . S
C1527 C1525 1.327 . S
C1528 C1516 1.349 . S
C1528 H1522 0.950 . S
C1528 C1529 1.327 . S
C1529 H1523 0.950 . S
C1529 C1528 1.327 . S
C1529 C1533 1.429 . S
C1530 C1513 1.574 . S
C1530 H1524 0.949 . S
C1530 C1534 1.368 . S
C1531 C1512 1.429 . S
C1531 C1525 1.429 . S
C1531 C1532 1.523 . S
C1532 C1513 1.368 . S
C1532 C1526 1.368 . S
C1532 C1531 1.523 . S
C1533 C1517 1.429 . S
C1533 C1529 1.429 . S
C1533 C1534 1.523 . S
C1534 C1518 1.368 . S
C1534 C1530 1.368 . S
C1534 C1533 1.523 . S
H1535 C1510 0.950 . S
H1536 C1512 0.950 . S
H1537 C1513 0.949 . S
H1538 C1515 0.950 . S
H1539 C1517 0.950 . S
C1540 C1541 1.349 . S
C1540 C1542 1.327 . S
C1540 H1565 0.950 . S
C1541 C1540 1.349 . S
C1541 C1557 1.349 . S
C1542 C1540 1.327 . S
C1542 C1561 1.429 . S
C1542 H1566 0.950 . S
C1543 C1560 1.574 . S
C1543 C1562 1.368 . S
C1543 H1567 0.949 . S
H1544 C1548 0.949 . S
C1545 C1546 1.349 . S
C1545 C1547 1.327 . S
C1545 H1568 0.950 . S
C1546 C1545 1.349 . S
C1546 C1558 1.349 . S
C1547 C1545 1.327 . S
C1547 C1563 1.429 . S
C1547 H1569 0.950 . S
C1548 H1544 0.949 . S
C1548 C1556 1.574 . S
C1548 C1564 1.368 . S
H1549 C1557 0.950 . S
H1550 C1555 0.950 . S
H1551 C1556 0.949 . S
H1552 C1558 0.950 . S
H1553 C1559 0.950 . S
H1554 C1560 0.949 . S
C1555 H1550 0.950 . S
C1555 C1557 1.327 . S
C1555 C1561 1.429 . S
C1556 C1548 1.574 . S
C1556 H1551 0.949 . S
C1556 C1562 1.368 . S
C1557 C1541 1.349 . S
C1557 H1549 0.950 . S
C1557 C1555 1.327 . S
C1558 C1546 1.349 . S
C1558 H1552 0.950 . S
C1558 C1559 1.327 . S
C1559 H1553 0.950 . S
C1559 C1558 1.327 . S
C1559 C1563 1.429 . S
C1560 C1543 1.574 . S
C1560 H1554 0.949 . S
C1560 C1564 1.368 . S
C1561 C1542 1.429 . S
C1561 C1555 1.429 . S
C1561 C1562 1.523 . S
C1562 C1543 1.368 . S
C1562 C1556 1.368 . S
C1562 C1561 1.523 . S
C1563 C1547 1.429 . S
C1563 C1559 1.429 . S
C1563 C1564 1.523 . S
C1564 C1548 1.368 . S
C1564 C1560 1.368 . S
C1564 C1563 1.523 . S
H1565 C1540 0.950 . S
H1566 C1542 0.950 . S
H1567 C1543 0.949 . S
H1568 C1545 0.950 . S
H1569 C1547 0.950 . S
C1570 C1571 1.349 . S
C1570 C1572 1.327 . S
C1570 H1595 0.950 . S
C1571 C1570 1.349 . S
C1571 C1587 1.349 . S
C1572 C1570 1.327 . S
C1572 C1591 1.429 . S
C1572 H1596 0.950 . S
C1573 C1590 1.574 . S
C1573 C1592 1.368 . S
C1573 H1597 0.949 . S
H1574 C1578 0.949 . S
C1575 C1576 1.349 . S
C1575 C1577 1.327 . S
C1575 H1598 0.950 . S
C1576 C1575 1.349 . S
C1576 C1588 1.349 . S
C1577 C1575 1.327 . S
C1577 C1593 1.429 . S
C1577 H1599 0.950 . S
C1578 H1574 0.949 . S
C1578 C1586 1.574 . S
C1578 C1594 1.368 . S
H1579 C1587 0.950 . S
H1580 C1585 0.950 . S
H1581 C1586 0.949 . S
H1582 C1588 0.950 . S
H1583 C1589 0.950 . S
H1584 C1590 0.949 . S
C1585 H1580 0.950 . S
C1585 C1587 1.327 . S
C1585 C1591 1.429 . S
C1586 C1578 1.574 . S
C1586 H1581 0.949 . S
C1586 C1592 1.368 . S
C1587 C1571 1.349 . S
C1587 H1579 0.950 . S
C1587 C1585 1.327 . S
C1588 C1576 1.349 . S
C1588 H1582 0.950 . S
C1588 C1589 1.327 . S
C1589 H1583 0.950 . S
C1589 C1588 1.327 . S
C1589 C1593 1.429 . S
C1590 C1573 1.574 . S
C1590 H1584 0.949 . S
C1590 C1594 1.368 . S
C1591 C1572 1.429 . S
C1591 C1585 1.429 . S
C1591 C1592 1.523 . S
C1592 C1573 1.368 . S
C1592 C1586 1.368 . S
C1592 C1591 1.523 . S
C1593 C1577 1.429 . S
C1593 C1589 1.429 . S
C1593 C1594 1.523 . S
C1594 C1578 1.368 . S
C1594 C1590 1.368 . S
C1594 C1593 1.523 . S
H1595 C1570 0.950 . S
H1596 C1572 0.950 . S
H1597 C1573 0.949 . S
H1598 C1575 0.950 . S
H1599 C1577 0.950 . S
C1600 C1601 1.349 . S
C1600 C1602 1.327 . S
C1600 H1625 0.950 . S
C1601 C1600 1.349 . S
C1601 C1617 1.349 . S
C1602 C1600 1.327 . S
C1602 C1621 1.429 . S
C1602 H1626 0.950 . S
C1603 C1620 1.574 . S
C1603 C1622 1.368 . S
C1603 H1627 0.949 . S
H1604 C1608 0.949 . S
C1605 C1606 1.349 . S
C1605 C1607 1.327 . S
C1605 H1628 0.950 . S
C1606 C1605 1.349 . S
C1606 C1618 1.349 . S
C1607 C1605 1.327 . S
C1607 C1623 1.429 . S
C1607 H1629 0.950 . S
C1608 H1604 0.949 . S
C1608 C1616 1.574 . S
C1608 C1624 1.368 . S
H1609 C1617 0.950 . S
H1610 C1615 0.950 . S
H1611 C1616 0.949 . S
H1612 C1618 0.950 . S
H1613 C1619 0.950 . S
H1614 C1620 0.949 . S
C1615 H1610 0.950 . S
C1615 C1617 1.327 . S
C1615 C1621 1.429 . S
C1616 C1608 1.574 . S
C1616 H1611 0.949 . S
C1616 C1622 1.368 . S
C1617 C1601 1.349 . S
C1617 H1609 0.950 . S
C1617 C1615 1.327 . S
C1618 C1606 1.349 . S
C1618 H1612 0.950 . S
C1618 C1619 1.327 . S
C1619 H1613 0.950 . S
C1619 C1618 1.327 . S
C1619 C1623 1.429 . S
C1620 C1603 1.574 . S
C1620 H1614 0.949 . S
C1620 C1624 1.368 . S
C1621 C1602 1.429 . S
C1621 C1615 1.429 . S
C1621 C1622 1.523 . S
C1622 C1603 1.368 . S
C1622 C1616 1.368 . S
C1622 C1621 1.523 . S
C1623 C1607 1.429 . S
C1623 C1619 1.429 . S
C1623 C1624 1.523 . S
C1624 C1608 1.368 . S
C1624 C1620 1.368 . S
C1624 C1623 1.523 . S
H1625 C1600 0.950 . S
H1626 C1602 0.950 . S
H1627 C1603 0.949 . S
H1628 C1605 0.950 . S
H1629 C1607 0.950 . S
C1630 C1631 1.349 . S
C1630 C1632 1.327 . S
C1630 H1655 0.950 . S
C1631 C1630 1.349 . S
C1631 C1647 1.349 . S
C1632 C1630 1.327 . S
C1632 C1651 1.429 . S
C1632 H1656 0.950 . S
C1633 C1650 1.574 . S
C1633 C1652 1.368 . S
C1633 H1657 0.949 . S
H1634 C1638 0.949 . S
C1635 C1636 1.349 . S
C1635 C1637 1.327 . S
C1635 H1658 0.950 . S
C1636 C1635 1.349 . S
C1636 C1648 1.349 . S
C1637 C1635 1.327 . S
C1637 C1653 1.429 . S
C1637 H1659 0.950 . S
C1638 H1634 0.949 . S
C1638 C1646 1.574 . S
C1638 C1654 1.368 . S
H1639 C1647 0.950 . S
H1640 C1645 0.950 . S
H1641 C1646 0.949 . S
H1642 C1648 0.950 . S
H1643 C1649 0.950 . S
H1644 C1650 0.949 . S
C1645 H1640 0.950 . S
C1645 C1647 1.327 . S
C1645 C1651 1.429 . S
C1646 C1638 1.574 . S
C1646 H1641 0.949 . S
C1646 C1652 1.368 . S
C1647 C1631 1.349 . S
C1647 H1639 0.950 . S
C1647 C1645 1.327 . S
C1648 C1636 1.349 . S
C1648 H1642 0.950 . S
C1648 C1649 1.327 . S
C1649 H1643 0.950 . S
C1649 C1648 1.327 . S
C1649 C1653 1.429 . S
C1650 C1633 1.574 . S
C1650 H1644 0.949 . S
C1650 C1654 1.368 . S
C1651 C1632 1.429 . S
C1651 C1645 1.429 . S
C1651 C1652 1.523 . S
C1652 C1633 1.368 . S
C1652 C1646 1.368 . S
C1652 C1651 1.523 . S
C1653 C1637 1.429 . S
C1653 C1649 1.429 . S
C1653 C1654 1.523 . S
C1654 C1638 1.368 . S
C1654 C1650 1.368 . S
C1654 C1653 1.523 . S
H1655 C1630 0.950 . S
H1656 C1632 0.950 . S
H1657 C1633 0.949 . S
H1658 C1635 0.950 . S
H1659 C1637 0.950 . S
C1660 C1661 1.349 . S
C1660 C1662 1.327 . S
C1660 H1685 0.950 . S
C1661 C1660 1.349 . S
C1661 C1677 1.349 . S
C1662 C1660 1.327 . S
C1662 C1681 1.429 . S
C1662 H1686 0.950 . S
C1663 C1680 1.574 . S
C1663 C1682 1.368 . S
C1663 H1687 0.949 . S
H1664 C1668 0.949 . S
C1665 C1666 1.349 . S
C1665 C1667 1.327 . S
C1665 H1688 0.950 . S
C1666 C1665 1.349 . S
C1666 C1678 1.349 . S
C1667 C1665 1.327 . S
C1667 C1683 1.429 . S
C1667 H1689 0.950 . S
C1668 H1664 0.949 . S
C1668 C1676 1.574 . S
C1668 C1684 1.368 . S
H1669 C1677 0.950 . S
H1670 C1675 0.950 . S
H1671 C1676 0.949 . S
H1672 C1678 0.950 . S
H1673 C1679 0.950 . S
H1674 C1680 0.949 . S
C1675 H1670 0.950 . S
C1675 C1677 1.327 . S
C1675 C1681 1.429 . S
C1676 C1668 1.574 . S
C1676 H1671 0.949 . S
C1676 C1682 1.368 . S
C1677 C1661 1.349 . S
C1677 H1669 0.950 . S
C1677 C1675 1.327 . S
C1678 C1666 1.349 . S
C1678 H1672 0.950 . S
C1678 C1679 1.327 . S
C1679 H1673 0.950 . S
C1679 C1678 1.327 . S
C1679 C1683 1.429 . S
C1680 C1663 1.574 . S
C1680 H1674 0.949 . S
C1680 C1684 1.368 . S
C1681 C1662 1.429 . S
C1681 C1675 1.429 . S
C1681 C1682 1.523 . S
C1682 C1663 1.368 . S
C1682 C1676 1.368 . S
C1682 C1681 1.523 . S
C1683 C1667 1.429 . S
C1683 C1679 1.429 . S
C1683 C1684 1.523 . S
C1684 C1668 1.368 . S
C1684 C1680 1.368 . S
C1684 C1683 1.523 . S
H1685 C1660 0.950 . S
H1686 C1662 0.950 . S
H1687 C1663 0.949 . S
H1688 C1665 0.950 . S
H1689 C1667 0.950 . S
C1690 C1691 1.349 . S
C1690 C1692 1.327 . S
C1690 H1715 0.950 . S
C1691 C1690 1.349 . S
C1691 C1707 1.349 . S
C1692 C1690 1.327 . S
C1692 C1711 1.429 . S
C1692 H1716 0.950 . S
C1693 C1710 1.574 . S
C1693 C1712 1.368 . S
C1693 H1717 0.949 . S
H1694 C1698 0.949 . S
C1695 C1696 1.349 . S
C1695 C1697 1.327 . S
C1695 H1718 0.950 . S
C1696 C1695 1.349 . S
C1696 C1708 1.349 . S
C1697 C1695 1.327 . S
C1697 C1713 1.429 . S
C1697 H1719 0.950 . S
C1698 H1694 0.949 . S
C1698 C1706 1.574 . S
C1698 C1714 1.368 . S
H1699 C1707 0.950 . S
H1700 C1705 0.950 . S
H1701 C1706 0.949 . S
H1702 C1708 0.950 . S
H1703 C1709 0.950 . S
H1704 C1710 0.949 . S
C1705 H1700 0.950 . S
C1705 C1707 1.327 . S
C1705 C1711 1.429 . S
C1706 C1698 1.574 . S
C1706 H1701 0.949 . S
C1706 C1712 1.368 . S
C1707 C1691 1.349 . S
C1707 H1699 0.950 . S
C1707 C1705 1.327 . S
C1708 C1696 1.349 . S
C1708 H1702 0.950 . S
C1708 C1709 1.327 . S
C1709 H1703 0.950 . S
C1709 C1708 1.327 . S
C1709 C1713 1.429 . S
C1710 C1693 1.574 . S
C1710 H1704 0.949 . S
C1710 C1714 1.368 . S
C1711 C1692 1.429 . S
C1711 C1705 1.429 . S
C1711 C1712 1.523 . S
C1712 C1693 1.368 . S
C1712 C1706 1.368 . S
C1712 C1711 1.523 . S
C1713 C1697 1.429 . S
C1713 C1709 1.429 . S
C1713 C1714 1.523 . S
C1714 C1698 1.368 . S
C1714 C1710 1.368 . S
C1714 C1713 1.523 . S
H1715 C1690 0.950 . S
H1716 C1692 0.950 . S
H1717 C1693 0.949 . S
H1718 C1695 0.950 . S
H1719 C1697 0.950 . S
C1720 C1721 1.349 . S
C1720 C1722 1.327 . S
C1720 H1745 0.950 . S
C1721 C1720 1.349 . S
C1721 C1737 1.349 . S
C1722 C1720 1.327 . S
C1722 C1741 1.429 . S
C1722 H1746 0.950 . S
C1723 C1740 1.574 . S
C1723 C1742 1.368 . S
C1723 H1747 0.949 . S
H1724 C1728 0.949 . S
C1725 C1726 1.349 . S
C1725 C1727 1.327 . S
C1725 H1748 0.950 . S
C1726 C1725 1.349 . S
C1726 C1738 1.349 . S
C1727 C1725 1.327 . S
C1727 C1743 1.429 . S
C1727 H1749 0.950 . S
C1728 H1724 0.949 . S
C1728 C1736 1.574 . S
C1728 C1744 1.368 . S
H1729 C1737 0.950 . S
H1730 C1735 0.950 . S
H1731 C1736 0.949 . S
H1732 C1738 0.950 . S
H1733 C1739 0.950 . S
H1734 C1740 0.949 . S
C1735 H1730 0.950 . S
C1735 C1737 1.327 . S
C1735 C1741 1.429 . S
C1736 C1728 1.574 . S
C1736 H1731 0.949 . S
C1736 C1742 1.368 . S
C1737 C1721 1.349 . S
C1737 H1729 0.950 . S
C1737 C1735 1.327 . S
C1738 C1726 1.349 . S
C1738 H1732 0.950 . S
C1738 C1739 1.327 . S
C1739 H1733 0.950 . S
C1739 C1738 1.327 . S
C1739 C1743 1.429 . S
C1740 C1723 1.574 . S
C1740 H1734 0.949 . S
C1740 C1744 1.368 . S
C1741 C1722 1.429 . S
C1741 C1735 1.429 . S
C1741 C1742 1.523 . S
C1742 C1723 1.368 . S
C1742 C1736 1.368 . S
C1742 C1741 1.523 . S
C1743 C1727 1.429 . S
C1743 C1739 1.429 . S
C1743 C1744 1.523 . S
C1744 C1728 1.368 . S
C1744 C1740 1.368 . S
C1744 C1743 1.523 . S
H1745 C1720 0.950 . S
H1746 C1722 0.950 . S
H1747 C1723 0.949 . S
H1748 C1725 0.950 . S
H1749 C1727 0.950 . S
C1750 C1751 1.349 . S
C1750 C1752 1.327 . S
C1750 H1775 0.950 . S
C1751 C1750 1.349 . S
C1751 C1767 1.349 . S
C1752 C1750 1.327 . S
C1752 C1771 1.429 . S
C1752 H1776 0.950 . S
C1753 C1770 1.574 . S
C1753 C1772 1.368 . S
C1753 H1777 0.949 . S
H1754 C1758 0.949 . S
C1755 C1756 1.349 . S
C1755 C1757 1.327 . S
C1755 H1778 0.950 . S
C1756 C1755 1.349 . S
C1756 C1768 1.349 . S
C1757 C1755 1.327 . S
C1757 C1773 1.429 . S
C1757 H1779 0.950 . S
C1758 H1754 0.949 . S
C1758 C1766 1.574 . S
C1758 C1774 1.368 . S
H1759 C1767 0.950 . S
H1760 C1765 0.950 . S
H1761 C1766 0.949 . S
H1762 C1768 0.950 . S
H1763 C1769 0.950 . S
H1764 C1770 0.949 . S
C1765 H1760 0.950 . S
C1765 C1767 1.327 . S
C1765 C1771 1.429 . S
C1766 C1758 1.574 . S
C1766 H1761 0.949 . S
C1766 C1772 1.368 . S
C1767 C1751 1.349 . S
C1767 H1759 0.950 . S
C1767 C1765 1.327 . S
C1768 C1756 1.349 . S
C1768 H1762 0.950 . S
C1768 C1769 1.327 . S
C1769 H1763 0.950 . S
C1769 C1768 1.327 . S
C1769 C1773 1.429 . S
C1770 C1753 1.574 . S
C1770 H1764 0.949 . S
C1770 C1774 1.368 . S
C1771 C1752 1.429 . S
C1771 C1765 1.429 . S
C1771 C1772 1.523 . S
C1772 C1753 1.368 . S
C1772 C1766 1.368 . S
C1772 C1771 1.523 . S
C1773 C1757 1.429 . S
C1773 C1769 1.429 . S
C1773 C1774 1.523 . S
C1774 C1758 1.368 . S
C1774 C1770 1.368 . S
C1774 C1773 1.523 . S
H1775 C1750 0.950 . S
H1776 C1752 0.950 . S
H1777 C1753 0.949 . S
H1778 C1755 0.950 . S
H1779 C1757 0.950 . S
C1780 C1781 1.349 . S
C1780 C1782 1.327 . S
C1780 H1805 0.950 . S
C1781 C1780 1.349 . S
C1781 C1797 1.349 . S
C1782 C1780 1.327 . S
C1782 C1801 1.429 . S
C1782 H1806 0.950 . S
C1783 C1800 1.574 . S
C1783 C1802 1.368 . S
C1783 H1807 0.949 . S
H1784 C1788 0.949 . S
C1785 C1786 1.349 . S
C1785 C1787 1.327 . S
C1785 H1808 0.950 . S
C1786 C1785 1.349 . S
C1786 C1798 1.349 . S
C1787 C1785 1.327 . S
C1787 C1803 1.429 . S
C1787 H1809 0.950 . S
C1788 H1784 0.949 . S
C1788 C1796 1.574 . S
C1788 C1804 1.368 . S
H1789 C1797 0.950 . S
H1790 C1795 0.950 . S
H1791 C1796 0.949 . S
H1792 C1798 0.950 . S
H1793 C1799 0.950 . S
H1794 C1800 0.949 . S
C1795 H1790 0.950 . S
C1795 C1797 1.327 . S
C1795 C1801 1.429 . S
C1796 C1788 1.574 . S
C1796 H1791 0.949 . S
C1796 C1802 1.368 . S
C1797 C1781 1.349 . S
C1797 H1789 0.950 . S
C1797 C1795 1.327 . S
C1798 C1786 1.349 . S
C1798 H1792 0.950 . S
C1798 C1799 1.327 . S
C1799 H1793 0.950 . S
C1799 C1798 1.327 . S
C1799 C1803 1.429 . S
C1800 C1783 1.574 . S
C1800 H1794 0.949 . S
C1800 C1804 1.368 . S
C1801 C1782 1.429 . S
C1801 C1795 1.429 . S
C1801 C1802 1.523 . S
C1802 C1783 1.368 . S
C1802 C1796 1.368 . S
C1802 C1801 1.523 . S
C1803 C1787 1.429 . S
C1803 C1799 1.429 . S
C1803 C1804 1.523 . S
C1804 C1788 1.368 . S
C1804 C1800 1.368 . S
C1804 C1803 1.523 . S
H1805 C1780 0.950 . S
H1806 C1782 0.950 . S
H1807 C1783 0.949 . S
H1808 C1785 0.950 . S
H1809 C1787 0.950 . S
C1810 C1811 1.349 . S
C1810 C1812 1.327 . S
C1810 H1835 0.950 . S
C1811 C1810 1.349 . S
C1811 C1827 1.349 . S
C1812 C1810 1.327 . S
C1812 C1831 1.429 . S
C1812 H1836 0.950 . S
C1813 C1830 1.574 . S
C1813 C1832 1.368 . S
C1813 H1837 0.949 . S
H1814 C1818 0.949 . S
C1815 C1816 1.349 . S
C1815 C1817 1.327 . S
C1815 H1838 0.950 . S
C1816 C1815 1.349 . S
C1816 C1828 1.349 . S
C1817 C1815 1.327 . S
C1817 C1833 1.429 . S
C1817 H1839 0.950 . S
C1818 H1814 0.949 . S
C1818 C1826 1.574 . S
C1818 C1834 1.368 . S
H1819 C1827 0.950 . S
H1820 C1825 0.950 . S
H1821 C1826 0.949 . S
H1822 C1828 0.950 . S
H1823 C1829 0.950 . S
H1824 C1830 0.949 . S
C1825 H1820 0.950 . S
C1825 C1827 1.327 . S
C1825 C1831 1.429 . S
C1826 C1818 1.574 . S
C1826 H1821 0.949 . S
C1826 C1832 1.368 . S
C1827 C1811 1.349 . S
C1827 H1819 0.950 . S
C1827 C1825 1.327 . S
C1828 C1816 1.349 . S
C1828 H1822 0.950 . S
C1828 C1829 1.327 . S
C1829 H1823 0.950 . S
C1829 C1828 1.327 . S
C1829 C1833 1.429 . S
C1830 C1813 1.574 . S
C1830 H1824 0.949 . S
C1830 C1834 1.368 . S
C1831 C1812 1.429 . S
C1831 C1825 1.429 . S
C1831 C1832 1.523 . S
C1832 C1813 1.368 . S
C1832 C1826 1.368 . S
C1832 C1831 1.523 . S
C1833 C1817 1.429 . S
C1833 C1829 1.429 . S
C1833 C1834 1.523 . S
C1834 C1818 1.368 . S
C1834 C1830 1.368 . S
C1834 C1833 1.523 . S
H1835 C1810 0.950 . S
H1836 C1812 0.950 . S
H1837 C1813 0.949 . S
H1838 C1815 0.950 . S
H1839 C1817 0.950 . S
C1840 C1841 1.349 . S
C1840 C1842 1.327 1_556 S
C1840 H1865 0.950 . S
C1841 C1840 1.349 . S
C1841 C1857 1.349 . S
C1842 C1840 1.327 1_554 S
C1842 C1861 1.429 . S
C1842 H1866 0.950 . S
C1843 C1860 1.574 . S
C1843 C1862 1.368 . S
C1843 H1867 0.949 . S
H1844 C1848 0.949 . S
C1845 C1846 1.349 . S
C1845 C1847 1.327 . S
C1845 H1868 0.950 . S
C1846 C1845 1.349 . S
C1846 C1858 1.349 . S
C1847 C1845 1.327 . S
C1847 C1863 1.429 . S
C1847 H1869 0.950 . S
C1848 H1844 0.949 . S
C1848 C1856 1.574 . S
C1848 C1864 1.368 . S
H1849 C1857 0.950 . S
H1850 C1855 0.950 . S
H1851 C1856 0.949 . S
H1852 C1858 0.950 . S
H1853 C1859 0.950 . S
H1854 C1860 0.949 . S
C1855 H1850 0.950 . S
C1855 C1857 1.327 1_554 S
C1855 C1861 1.429 . S
C1856 C1848 1.574 . S
C1856 H1851 0.949 . S
C1856 C1862 1.368 . S
C1857 C1841 1.349 . S
C1857 H1849 0.950 . S
C1857 C1855 1.327 1_556 S
C1858 C1846 1.349 . S
C1858 H1852 0.950 . S
C1858 C1859 1.327 . S
C1859 H1853 0.950 . S
C1859 C1858 1.327 . S
C1859 C1863 1.429 . S
C1860 C1843 1.574 . S
C1860 H1854 0.949 . S
C1860 C1864 1.368 . S
C1861 C1842 1.429 . S
C1861 C1855 1.429 . S
C1861 C1862 1.523 . S
C1862 C1843 1.368 . S
C1862 C1856 1.368 . S
C1862 C1861 1.523 . S
C1863 C1847 1.429 . S
C1863 C1859 1.429 . S
C1863 C1864 1.523 . S
C1864 C1848 1.368 . S
C1864 C1860 1.368 . S
C1864 C1863 1.523 . S
H1865 C1840 0.950 . S
H1866 C1842 0.950 . S
H1867 C1843 0.949 . S
H1868 C1845 0.950 . S
H1869 C1847 0.950 . S
C1870 C1871 1.349 . S
C1870 C1872 1.327 . S
C1870 H1895 0.950 . S
C1871 C1870 1.349 . S
C1871 C1887 1.349 . S
C1872 C1870 1.327 . S
C1872 C1891 1.429 . S
C1872 H1896 0.950 . S
C1873 C1890 1.574 . S
C1873 C1892 1.368 . S
C1873 H1897 0.949 . S
H1874 C1878 0.949 . S
C1875 C1876 1.349 . S
C1875 C1877 1.327 1_554 S
C1875 H1898 0.950 . S
C1876 C1875 1.349 . S
C1876 C1888 1.349 . S
C1877 C1875 1.327 1_556 S
C1877 C1893 1.429 . S
C1877 H1899 0.950 . S
C1878 H1874 0.949 . S
C1878 C1886 1.574 . S
C1878 C1894 1.368 . S
H1879 C1887 0.950 . S
H1880 C1885 0.950 . S
H1881 C1886 0.949 . S
H1882 C1888 0.950 . S
H1883 C1889 0.950 . S
H1884 C1890 0.949 . S
C1885 H1880 0.950 . S
C1885 C1887 1.327 . S
C1885 C1891 1.429 . S
C1886 C1878 1.574 . S
C1886 H1881 0.949 . S
C1886 C1892 1.368 . S
C1887 C1871 1.349 . S
C1887 H1879 0.950 . S
C1887 C1885 1.327 . S
C1888 C1876 1.349 . S
C1888 H1882 0.950 . S
C1888 C1889 1.327 1_554 S
C1889 H1883 0.950 . S
C1889 C1888 1.327 1_556 S
C1889 C1893 1.429 . S
C1890 C1873 1.574 . S
C1890 H1884 0.949 . S
C1890 C1894 1.368 . S
C1891 C1872 1.429 . S
C1891 C1885 1.429 . S
C1891 C1892 1.523 . S
C1892 C1873 1.368 . S
C1892 C1886 1.368 . S
C1892 C1891 1.523 . S
C1893 C1877 1.429 . S
C1893 C1889 1.429 . S
C1893 C1894 1.523 . S
C1894 C1878 1.368 . S
C1894 C1890 1.368 . S
C1894 C1893 1.523 . S
H1895 C1870 0.950 . S
H1896 C1872 0.950 . S
H1897 C1873 0.949 . S
H1898 C1875 0.950 . S
H1899 C1877 0.950 . S
C1900 C1901 1.349 . S
C1900 C1902 1.327 . S
C1900 H1925 0.950 . S
C1901 C1900 1.349 . S
C1901 C1917 1.349 . S
C1902 C1900 1.327 . S
C1902 C1921 1.429 . S
C1902 H1926 0.950 . S
C1903 C1920 1.574 . S
C1903 C1922 1.368 . S
C1903 H1927 0.949 . S
H1904 C1908 0.949 . S
C1905 C1906 1.349 . S
C1905 C1907 1.327 1_556 S
C1905 H1928 0.950 . S
C1906 C1905 1.349 . S
C1906 C1918 1.349 . S
C1907 C1905 1.327 1_554 S
C1907 C1923 1.429 . S
C1907 H1929 0.950 . S
C1908 H1904 0.949 . S
C1908 C1916 1.574 . S
C1908 C1924 1.368 . S
H1909 C1917 0.950 . S
H1910 C1915 0.950 . S
H1911 C1916 0.949 . S
H1912 C1918 0.950 . S
H1913 C1919 0.950 . S
H1914 C1920 0.949 . S
C1915 H1910 0.950 . S
C1915 C1917 1.327 . S
C1915 C1921 1.429 . S
C1916 C1908 1.574 . S
C1916 H1911 0.949 . S
C1916 C1922 1.368 . S
C1917 C1901 1.349 . S
C1917 H1909 0.950 . S
C1917 C1915 1.327 . S
C1918 C1906 1.349 . S
C1918 H1912 0.950 . S
C1918 C1919 1.327 1_556 S
C1919 H1913 0.950 . S
C1919 C1918 1.327 1_554 S
C1919 C1923 1.429 . S
C1920 C1903 1.574 . S
C1920 H1914 0.949 . S
C1920 C1924 1.368 . S
C1921 C1902 1.429 . S
C1921 C1915 1.429 . S
C1921 C1922 1.523 . S
C1922 C1903 1.368 . S
C1922 C1916 1.368 . S
C1922 C1921 1.523 . S
C1923 C1907 1.429 . S
C1923 C1919 1.429 . S
C1923 C1924 1.523 . S
C1924 C1908 1.368 . S
C1924 C1920 1.368 . S
C1924 C1923 1.523 . S
H1925 C1900 0.950 . S
H1926 C1902 0.950 . S
H1927 C1903 0.949 . S
H1928 C1905 0.950 . S
H1929 C1907 0.950 . S
C1930 C1931 1.349 . S
C1930 C1932 1.327 1_554 S
C1930 H1955 0.950 . S
C1931 C1930 1.349 . S
C1931 C1947 1.349 . S
C1932 C1930 1.327 1_556 S
C1932 C1951 1.429 . S
C1932 H1956 0.950 . S
C1933 C1950 1.574 . S
C1933 C1952 1.368 . S
C1933 H1957 0.949 . S
H1934 C1938 0.949 . S
C1935 C1936 1.349 . S
C1935 C1937 1.327 . S
C1935 H1958 0.950 . S
C1936 C1935 1.349 . S
C1936 C1948 1.349 . S
C1937 C1935 1.327 . S
C1937 C1953 1.429 . S
C1937 H1959 0.950 . S
C1938 H1934 0.949 . S
C1938 C1946 1.574 . S
C1938 C1954 1.368 . S
H1939 C1947 0.950 . S
H1940 C1945 0.950 . S
H1941 C1946 0.949 . S
H1942 C1948 0.950 . S
H1943 C1949 0.950 . S
H1944 C1950 0.949 . S
C1945 H1940 0.950 . S
C1945 C1947 1.327 1_556 S
C1945 C1951 1.429 . S
C1946 C1938 1.574 . S
C1946 H1941 0.949 . S
C1946 C1952 1.368 . S
C1947 C1931 1.349 . S
C1947 H1939 0.950 . S
C1947 C1945 1.327 1_554 S
C1948 C1936 1.349 . S
C1948 H1942 0.950 . S
C1948 C1949 1.327 . S
C1949 H1943 0.950 . S
C1949 C1948 1.327 . S
C1949 C1953 1.429 . S
C1950 C1933 1.574 . S
C1950 H1944 0.949 . S
C1950 C1954 1.368 . S
C1951 C1932 1.429 . S
C1951 C1945 1.429 . S
C1951 C1952 1.523 . S
C1952 C1933 1.368 . S
C1952 C1946 1.368 . S
C1952 C1951 1.523 . S
C1953 C1937 1.429 . S
C1953 C1949 1.429 . S
C1953 C1954 1.523 . S
C1954 C1938 1.368 . S
C1954 C1950 1.368 . S
C1954 C1953 1.523 . S
H1955 C1930 0.950 . S
H1956 C1932 0.950 . S
H1957 C1933 0.949 . S
H1958 C1935 0.950 . S
H1959 C1937 0.950 . S
C1960 C1961 1.349 . S
C1960 C1962 1.327 . S
C1960 H1985 0.950 . S
C1961 C1960 1.349 . S
C1961 C1977 1.349 . S
C1962 C1960 1.327 . S
C1962 C1981 1.429 . S
C1962 H1986 0.950 . S
C1963 C1980 1.574 . S
C1963 C1982 1.368 . S
C1963 H1987 0.949 . S
H1964 C1968 0.949 . S
C1965 C1966 1.349 . S
C1965 C1967 1.327 1_556 S
C1965 H1988 0.950 . S
C1966 C1965 1.349 . S
C1966 C1978 1.349 . S
C1967 C1965 1.327 1_554 S
C1967 C1983 1.429 . S
C1967 H1989 0.950 . S
C1968 H1964 0.949 . S
C1968 C1976 1.574 . S
C1968 C1984 1.368 . S
H1969 C1977 0.950 . S
H1970 C1975 0.950 . S
H1971 C1976 0.949 . S
H1972 C1978 0.950 . S
H1973 C1979 0.950 . S
H1974 C1980 0.949 . S
C1975 H1970 0.950 . S
C1975 C1977 1.327 . S
C1975 C1981 1.429 . S
C1976 C1968 1.574 . S
C1976 H1971 0.949 . S
C1976 C1982 1.368 . S
C1977 C1961 1.349 . S
C1977 H1969 0.950 . S
C1977 C1975 1.327 . S
C1978 C1966 1.349 . S
C1978 H1972 0.950 . S
C1978 C1979 1.327 1_556 S
C1979 H1973 0.950 . S
C1979 C1978 1.327 1_554 S
C1979 C1983 1.429 . S
C1980 C1963 1.574 . S
C1980 H1974 0.949 . S
C1980 C1984 1.368 . S
C1981 C1962 1.429 . S
C1981 C1975 1.429 . S
C1981 C1982 1.523 . S
C1982 C1963 1.368 . S
C1982 C1976 1.368 . S
C1982 C1981 1.523 . S
C1983 C1967 1.429 . S
C1983 C1979 1.429 . S
C1983 C1984 1.523 . S
C1984 C1968 1.368 . S
C1984 C1980 1.368 . S
C1984 C1983 1.523 . S
H1985 C1960 0.950 . S
H1986 C1962 0.950 . S
H1987 C1963 0.949 . S
H1988 C1965 0.950 . S
H1989 C1967 0.950 . S
C1990 C1991 1.349 . S
C1990 C1992 1.327 1_554 S
C1990 H2015 0.950 . S
C1991 C1990 1.349 . S
C1991 C2007 1.349 . S
C1992 C1990 1.327 1_556 S
C1992 C2011 1.429 . S
C1992 H2016 0.950 . S
C1993 C2010 1.574 . S
C1993 C2012 1.368 . S
C1993 H2017 0.949 . S
H1994 C1998 0.949 . S
C1995 C1996 1.349 . S
C1995 C1997 1.327 . S
C1995 H2018 0.950 . S
C1996 C1995 1.349 . S
C1996 C2008 1.349 . S
C1997 C1995 1.327 . S
C1997 C2013 1.429 . S
C1997 H2019 0.950 . S
C1998 H1994 0.949 . S
C1998 C2006 1.574 . S
C1998 C2014 1.368 . S
H1999 C2007 0.950 . S
H2000 C2005 0.950 . S
H2001 C2006 0.949 . S
H2002 C2008 0.950 . S
H2003 C2009 0.950 . S
H2004 C2010 0.949 . S
C2005 H2000 0.950 . S
C2005 C2007 1.327 1_556 S
C2005 C2011 1.429 . S
C2006 C1998 1.574 . S
C2006 H2001 0.949 . S
C2006 C2012 1.368 . S
C2007 C1991 1.349 . S
C2007 H1999 0.950 . S
C2007 C2005 1.327 1_554 S
C2008 C1996 1.349 . S
C2008 H2002 0.950 . S
C2008 C2009 1.327 . S
C2009 H2003 0.950 . S
C2009 C2008 1.327 . S
C2009 C2013 1.429 . S
C2010 C1993 1.574 . S
C2010 H2004 0.949 . S
C2010 C2014 1.368 . S
C2011 C1992 1.429 . S
C2011 C2005 1.429 . S
C2011 C2012 1.523 . S
C2012 C1993 1.368 . S
C2012 C2006 1.368 . S
C2012 C2011 1.523 . S
C2013 C1997 1.429 . S
C2013 C2009 1.429 . S
C2013 C2014 1.523 . S
C2014 C1998 1.368 . S
C2014 C2010 1.368 . S
C2014 C2013 1.523 . S
H2015 C1990 0.950 . S
H2016 C1992 0.950 . S
H2017 C1993 0.949 . S
H2018 C1995 0.950 . S
H2019 C1997 0.950 . S
C2020 C2021 1.349 . S
C2020 C2022 1.327 1_556 S
C2020 H2045 0.950 . S
C2021 C2020 1.349 . S
C2021 C2037 1.349 . S
C2022 C2020 1.327 1_554 S
C2022 C2041 1.429 . S
C2022 H2046 0.950 . S
C2023 C2040 1.574 . S
C2023 C2042 1.368 . S
C2023 H2047 0.949 . S
H2024 C2028 0.949 . S
C2025 C2026 1.349 . S
C2025 C2027 1.327 . S
C2025 H2048 0.950 . S
C2026 C2025 1.349 . S
C2026 C2038 1.349 . S
C2027 C2025 1.327 . S
C2027 C2043 1.429 . S
C2027 H2049 0.950 . S
C2028 H2024 0.949 . S
C2028 C2036 1.574 . S
C2028 C2044 1.368 . S
H2029 C2037 0.950 . S
H2030 C2035 0.950 . S
H2031 C2036 0.949 . S
H2032 C2038 0.950 . S
H2033 C2039 0.950 . S
H2034 C2040 0.949 . S
C2035 H2030 0.950 . S
C2035 C2037 1.327 1_554 S
C2035 C2041 1.429 . S
C2036 C2028 1.574 . S
C2036 H2031 0.949 . S
C2036 C2042 1.368 . S
C2037 C2021 1.349 . S
C2037 H2029 0.950 . S
C2037 C2035 1.327 1_556 S
C2038 C2026 1.349 . S
C2038 H2032 0.950 . S
C2038 C2039 1.327 . S
C2039 H2033 0.950 . S
C2039 C2038 1.327 . S
C2039 C2043 1.429 . S
C2040 C2023 1.574 . S
C2040 H2034 0.949 . S
C2040 C2044 1.368 . S
C2041 C2022 1.429 . S
C2041 C2035 1.429 . S
C2041 C2042 1.523 . S
C2042 C2023 1.368 . S
C2042 C2036 1.368 . S
C2042 C2041 1.523 . S
C2043 C2027 1.429 . S
C2043 C2039 1.429 . S
C2043 C2044 1.523 . S
C2044 C2028 1.368 . S
C2044 C2040 1.368 . S
C2044 C2043 1.523 . S
H2045 C2020 0.950 . S
H2046 C2022 0.950 . S
H2047 C2023 0.949 . S
H2048 C2025 0.950 . S
H2049 C2027 0.950 . S
C2050 C2051 1.349 . S
C2050 C2052 1.327 . S
C2050 H2075 0.950 . S
C2051 C2050 1.349 . S
C2051 C2067 1.349 . S
C2052 C2050 1.327 . S
C2052 C2071 1.429 . S
C2052 H2076 0.950 . S
C2053 C2070 1.574 . S
C2053 C2072 1.368 . S
C2053 H2077 0.949 . S
H2054 C2058 0.949 . S
C2055 C2056 1.349 . S
C2055 C2057 1.327 1_554 S
C2055 H2078 0.950 . S
C2056 C2055 1.349 . S
C2056 C2068 1.349 . S
C2057 C2055 1.327 1_556 S
C2057 C2073 1.429 . S
C2057 H2079 0.950 . S
C2058 H2054 0.949 . S
C2058 C2066 1.574 . S
C2058 C2074 1.368 . S
H2059 C2067 0.950 . S
H2060 C2065 0.950 . S
H2061 C2066 0.949 . S
H2062 C2068 0.950 . S
H2063 C2069 0.950 . S
H2064 C2070 0.949 . S
C2065 H2060 0.950 . S
C2065 C2067 1.327 . S
C2065 C2071 1.429 . S
C2066 C2058 1.574 . S
C2066 H2061 0.949 . S
C2066 C2072 1.368 . S
C2067 C2051 1.349 . S
C2067 H2059 0.950 . S
C2067 C2065 1.327 . S
C2068 C2056 1.349 . S
C2068 H2062 0.950 . S
C2068 C2069 1.327 1_554 S
C2069 H2063 0.950 . S
C2069 C2068 1.327 1_556 S
C2069 C2073 1.429 . S
C2070 C2053 1.574 . S
C2070 H2064 0.949 . S
C2070 C2074 1.368 . S
C2071 C2052 1.429 . S
C2071 C2065 1.429 . S
C2071 C2072 1.523 . S
C2072 C2053 1.368 . S
C2072 C2066 1.368 . S
C2072 C2071 1.523 . S
C2073 C2057 1.429 . S
C2073 C2069 1.429 . S
C2073 C2074 1.523 . S
C2074 C2058 1.368 . S
C2074 C2070 1.368 . S
C2074 C2073 1.523 . S
H2075 C2050 0.950 . S
H2076 C2052 0.950 . S
H2077 C2053 0.949 . S
H2078 C2055 0.950 . S
H2079 C2057 0.950 . S
C641 C459 1.709 . S
C646 C18 1.713 . S
C671 C330 1.709 . S
C676 C49 1.713 . S
C701 C98 1.713 . S
C706 C379 1.709 . S
C731 C129 1.713 . S
C736 C410 1.709 . S
C761 C178 1.713 . S
C766 C219 1.709 . S
C791 C250 1.709 . S
C796 C209 1.713 . S
C821 C258 1.713 . S
C826 C299 1.709 . S
C851 C170 1.709 . S
C856 C289 1.713 . S
C881 C139 1.709 . S
C886 C338 1.713 . S
C911 C369 1.713 . S
C916 C10 1.709 . S
C941 C59 1.709 . S
C946 C418 1.713 . S
C971 C90 1.709 . S
C976 C449 1.713 . S
C1001 C498 1.713 . S
C1006 C539 1.709 . S
C1031 C570 1.709 . S
C1036 C529 1.713 . S
C1061 C619 1.709 . S
C1066 C578 1.713 . S
C1091 C609 1.713 . S
C1096 C490 1.709 . S
C1121 C9 1.137 . S
C1126 C169 1.137 . S
C1151 C218 1.137 . S
C1156 C58 1.137 . S
C1181 C89 1.137 . S
C1186 C249 1.137 . S
C1211 C138 1.137 . S
C1216 C298 1.137 . S
C1241 C329 1.137 . S
C1246 C489 1.137 . S
C1271 C538 1.137 . S
C1276 C378 1.137 . S
C1301 C409 1.137 . S
C1306 C569 1.137 . S
C1331 C458 1.137 . S
C1336 C618 1.137 . S
C1361 C579 2.244 . S
C1366 C19 2.244 . S
C1391 C50 2.244 . S
C1396 C610 2.244 . S
C1421 C99 2.244 . S
C1426 C499 2.244 . S
C1451 C130 2.244 . S
C1456 C530 2.244 . S
C1481 C179 2.244 . S
C1486 C419 2.244 . S
C1511 C210 2.244 . S
C1516 C450 2.244 . S
C1541 C259 2.244 . S
C1546 C339 2.244 . S
C1571 C370 2.244 . S
C1576 C290 2.244 . S
C1601 C6 1.088 . S
C1606 C15 1.088 . S
C1631 C55 1.088 . S
C1636 C46 1.088 . S
C1661 C86 1.088 . S
C1666 C95 1.088 . S
C1691 C126 1.088 . S
C1696 C135 1.088 . S
C1721 C175 1.088 . S
C1726 C166 1.088 . S
C1751 C215 1.088 . S
C1756 C206 1.088 . S
C1781 C246 1.088 . S
C1786 C255 1.088 . S
C1811 C286 1.088 . S
C1816 C295 1.088 . S
C1841 C326 1.088 . S
C1846 C335 1.088 . S
C1871 C366 1.088 . S
C1876 C375 1.088 . S
C1901 C415 1.088 . S
C1906 C406 1.088 . S
C1931 C455 1.088 . S
C1936 C446 1.088 . S
C1961 C486 1.088 . S
C1966 C495 1.088 . S
C1991 C526 1.088 . S
C1996 C535 1.088 . S
C2021 C575 1.088 . S
C2026 C566 1.088 . S
C2051 C615 1.088 . S
C2056 C606 1.088 . S
