# Generated by pormake.
# Topology vbb, (4)-cn, num edge types: 1
# Building blocks:
#     Node 0, Type 0, BuildingBlock: QUQFOY_clean_sbu_1, # of connection points: 4
#     Node 1, Type 0, BuildingBlock: QUQFOY_clean_sbu_1, # of connection points: 4
#     Node 2, Type 0, BuildingBlock: QUQFOY_clean_sbu_1, # of connection points: 4
#     Node 3, Type 0, BuildingBlock: QUQFOY_clean_sbu_1, # of connection points: 4
#     Node 4, Type 0, BuildingBlock: QUQFOY_clean_sbu_1, # of connection points: 4
#     Node 5, Type 0, BuildingBlock: QUQFOY_clean_sbu_1, # of connection points: 4
#     Node 6, Type 0, BuildingBlock: QUQFOY_clean_sbu_1, # of connection points: 4
#     Node 7, Type 0, BuildingBlock: QUQFOY_clean_sbu_1, # of connection points: 4
#     Node 8, Type 0, BuildingBlock: QUQFOY_clean_sbu_1, # of connection points: 4
#     Node 9, Type 0, BuildingBlock: QUQFOY_clean_sbu_1, # of connection points: 4
#     Node 10, Type 0, BuildingBlock: QUQFOY_clean_sbu_1, # of connection points: 4
#     Node 11, Type 0, BuildingBlock: QUQFOY_clean_sbu_1, # of connection points: 4
#     Node 12, Type 0, BuildingBlock: QUQFOY_clean_sbu_1, # of connection points: 4
#     Node 13, Type 0, BuildingBlock: QUQFOY_clean_sbu_1, # of connection points: 4
#     Node 14, Type 0, BuildingBlock: QUQFOY_clean_sbu_1, # of connection points: 4
#     Node 15, Type 0, BuildingBlock: QUQFOY_clean_sbu_1, # of connection points: 4
#     Node 16, Type 0, BuildingBlock: QUQFOY_clean_sbu_1, # of connection points: 4
#     Node 17, Type 0, BuildingBlock: QUQFOY_clean_sbu_1, # of connection points: 4
#     Node 18, Type 0, BuildingBlock: QUQFOY_clean_sbu_1, # of connection points: 4
#     Node 19, Type 0, BuildingBlock: QUQFOY_clean_sbu_1, # of connection points: 4
#     Node 20, Type 0, BuildingBlock: QUQFOY_clean_sbu_1, # of connection points: 4
#     Node 21, Type 0, BuildingBlock: QUQFOY_clean_sbu_1, # of connection points: 4
#     Node 22, Type 0, BuildingBlock: QUQFOY_clean_sbu_1, # of connection points: 4
#     Node 23, Type 0, BuildingBlock: QUQFOY_clean_sbu_1, # of connection points: 4
#     Node 24, Type 0, BuildingBlock: QUQFOY_clean_sbu_1, # of connection points: 4
#     Node 25, Type 0, BuildingBlock: QUQFOY_clean_sbu_1, # of connection points: 4
#     Node 26, Type 0, BuildingBlock: QUQFOY_clean_sbu_1, # of connection points: 4
#     Node 27, Type 0, BuildingBlock: QUQFOY_clean_sbu_1, # of connection points: 4
#     Node 28, Type 0, BuildingBlock: QUQFOY_clean_sbu_1, # of connection points: 4
#     Node 29, Type 0, BuildingBlock: QUQFOY_clean_sbu_1, # of connection points: 4
#     Node 30, Type 0, BuildingBlock: QUQFOY_clean_sbu_1, # of connection points: 4
#     Node 31, Type 0, BuildingBlock: QUQFOY_clean_sbu_1, # of connection points: 4
#     Edge 32, Type (0, 0), BuildingBlock: KIFKEQ_clean_linker_1, # of connection points: 2
#     Edge 33, Type (0, 0), BuildingBlock: KIFKEQ_clean_linker_1, # of connection points: 2
#     Edge 34, Type (0, 0), BuildingBlock: KIFKEQ_clean_linker_1, # of connection points: 2
#     Edge 35, Type (0, 0), BuildingBlock: KIFKEQ_clean_linker_1, # of connection points: 2
#     Edge 36, Type (0, 0), BuildingBlock: KIFKEQ_clean_linker_1, # of connection points: 2
#     Edge 37, Type (0, 0), BuildingBlock: KIFKEQ_clean_linker_1, # of connection points: 2
#     Edge 38, Type (0, 0), BuildingBlock: KIFKEQ_clean_linker_1, # of connection points: 2
#     Edge 39, Type (0, 0), BuildingBlock: KIFKEQ_clean_linker_1, # of connection points: 2
#     Edge 40, Type (0, 0), BuildingBlock: KIFKEQ_clean_linker_1, # of connection points: 2
#     Edge 41, Type (0, 0), BuildingBlock: KIFKEQ_clean_linker_1, # of connection points: 2
#     Edge 42, Type (0, 0), BuildingBlock: KIFKEQ_clean_linker_1, # of connection points: 2
#     Edge 43, Type (0, 0), BuildingBlock: KIFKEQ_clean_linker_1, # of connection points: 2
#     Edge 44, Type (0, 0), BuildingBlock: KIFKEQ_clean_linker_1, # of connection points: 2
#     Edge 45, Type (0, 0), BuildingBlock: KIFKEQ_clean_linker_1, # of connection points: 2
#     Edge 46, Type (0, 0), BuildingBlock: KIFKEQ_clean_linker_1, # of connection points: 2
#     Edge 47, Type (0, 0), BuildingBlock: KIFKEQ_clean_linker_1, # of connection points: 2
#     Edge 48, Type (0, 0), BuildingBlock: KIFKEQ_clean_linker_1, # of connection points: 2
#     Edge 49, Type (0, 0), BuildingBlock: KIFKEQ_clean_linker_1, # of connection points: 2
#     Edge 50, Type (0, 0), BuildingBlock: KIFKEQ_clean_linker_1, # of connection points: 2
#     Edge 51, Type (0, 0), BuildingBlock: KIFKEQ_clean_linker_1, # of connection points: 2
#     Edge 52, Type (0, 0), BuildingBlock: KIFKEQ_clean_linker_1, # of connection points: 2
#     Edge 53, Type (0, 0), BuildingBlock: KIFKEQ_clean_linker_1, # of connection points: 2
#     Edge 54, Type (0, 0), BuildingBlock: KIFKEQ_clean_linker_1, # of connection points: 2
#     Edge 55, Type (0, 0), BuildingBlock: KIFKEQ_clean_linker_1, # of connection points: 2
#     Edge 56, Type (0, 0), BuildingBlock: KIFKEQ_clean_linker_1, # of connection points: 2
#     Edge 57, Type (0, 0), BuildingBlock: KIFKEQ_clean_linker_1, # of connection points: 2
#     Edge 58, Type (0, 0), BuildingBlock: KIFKEQ_clean_linker_1, # of connection points: 2
#     Edge 59, Type (0, 0), BuildingBlock: KIFKEQ_clean_linker_1, # of connection points: 2
#     Edge 60, Type (0, 0), BuildingBlock: KIFKEQ_clean_linker_1, # of connection points: 2
#     Edge 61, Type (0, 0), BuildingBlock: KIFKEQ_clean_linker_1, # of connection points: 2
#     Edge 62, Type (0, 0), BuildingBlock: KIFKEQ_clean_linker_1, # of connection points: 2
#     Edge 63, Type (0, 0), BuildingBlock: KIFKEQ_clean_linker_1, # of connection points: 2
#     Edge 64, Type (0, 0), BuildingBlock: KIFKEQ_clean_linker_1, # of connection points: 2
#     Edge 65, Type (0, 0), BuildingBlock: KIFKEQ_clean_linker_1, # of connection points: 2
#     Edge 66, Type (0, 0), BuildingBlock: KIFKEQ_clean_linker_1, # of connection points: 2
#     Edge 67, Type (0, 0), BuildingBlock: KIFKEQ_clean_linker_1, # of connection points: 2
#     Edge 68, Type (0, 0), BuildingBlock: KIFKEQ_clean_linker_1, # of connection points: 2
#     Edge 69, Type (0, 0), BuildingBlock: KIFKEQ_clean_linker_1, # of connection points: 2
#     Edge 70, Type (0, 0), BuildingBlock: KIFKEQ_clean_linker_1, # of connection points: 2
#     Edge 71, Type (0, 0), BuildingBlock: KIFKEQ_clean_linker_1, # of connection points: 2
#     Edge 72, Type (0, 0), BuildingBlock: KIFKEQ_clean_linker_1, # of connection points: 2
#     Edge 73, Type (0, 0), BuildingBlock: KIFKEQ_clean_linker_1, # of connection points: 2
#     Edge 74, Type (0, 0), BuildingBlock: KIFKEQ_clean_linker_1, # of connection points: 2
#     Edge 75, Type (0, 0), BuildingBlock: KIFKEQ_clean_linker_1, # of connection points: 2
#     Edge 76, Type (0, 0), BuildingBlock: KIFKEQ_clean_linker_1, # of connection points: 2
#     Edge 77, Type (0, 0), BuildingBlock: KIFKEQ_clean_linker_1, # of connection points: 2
#     Edge 78, Type (0, 0), BuildingBlock: KIFKEQ_clean_linker_1, # of connection points: 2
#     Edge 79, Type (0, 0), BuildingBlock: KIFKEQ_clean_linker_1, # of connection points: 2
#     Edge 80, Type (0, 0), BuildingBlock: KIFKEQ_clean_linker_1, # of connection points: 2
#     Edge 81, Type (0, 0), BuildingBlock: KIFKEQ_clean_linker_1, # of connection points: 2
#     Edge 82, Type (0, 0), BuildingBlock: KIFKEQ_clean_linker_1, # of connection points: 2
#     Edge 83, Type (0, 0), BuildingBlock: KIFKEQ_clean_linker_1, # of connection points: 2
#     Edge 84, Type (0, 0), BuildingBlock: KIFKEQ_clean_linker_1, # of connection points: 2
#     Edge 85, Type (0, 0), BuildingBlock: KIFKEQ_clean_linker_1, # of connection points: 2
#     Edge 86, Type (0, 0), BuildingBlock: KIFKEQ_clean_linker_1, # of connection points: 2
#     Edge 87, Type (0, 0), BuildingBlock: KIFKEQ_clean_linker_1, # of connection points: 2
#     Edge 88, Type (0, 0), BuildingBlock: KIFKEQ_clean_linker_1, # of connection points: 2
#     Edge 89, Type (0, 0), BuildingBlock: KIFKEQ_clean_linker_1, # of connection points: 2
#     Edge 90, Type (0, 0), BuildingBlock: KIFKEQ_clean_linker_1, # of connection points: 2
#     Edge 91, Type (0, 0), BuildingBlock: KIFKEQ_clean_linker_1, # of connection points: 2
#     Edge 92, Type (0, 0), BuildingBlock: KIFKEQ_clean_linker_1, # of connection points: 2
#     Edge 93, Type (0, 0), BuildingBlock: KIFKEQ_clean_linker_1, # of connection points: 2
#     Edge 94, Type (0, 0), BuildingBlock: KIFKEQ_clean_linker_1, # of connection points: 2
#     Edge 95, Type (0, 0), BuildingBlock: KIFKEQ_clean_linker_1, # of connection points: 2
# Relax obj value: 0.072
# Max RMSD: 0.229
# Mean RMSD: 0.229
data_MOF--net-vbb--node1-QUQFOY_clean_sbu_1--edge1-KIFKEQ_clean_linker_1
_symmetry_space_group_name_H-M    P1
_symmetry_Int_Tables_number       1
_symmetry_cell_setting            triclinic
loop_
_symmetry_equiv_pos_as_xyz
'x, y, z'
_cell_length_a     45.089964
_cell_length_b     38.862814
_cell_length_c     109.20524
_cell_angle_alpha  89.914982
_cell_angle_beta   89.986564
_cell_angle_gamma 89.988883
loop_
_atom_site_label
_atom_site_type_symbol
_atom_site_fract_x
_atom_site_fract_y
_atom_site_fract_z
_atom_type_partial_charge
O0 O 0.49741 0.01389 0.07926 0.0
Cd1 Cd 0.49418 0.01092 0.098 0.0
Cd2 Cd 0.4697 0.07448 0.094 0.0
O3 O 0.46571 0.05637 0.07588 0.0
O4 O 0.48743 0.96101 0.10304 0.0
O5 O 0.45332 1.00154 0.10404 0.0
C6 C 0.46028 0.96969 0.10532 0.0
C7 C 0.43566 0.09449 0.10864 0.0
C8 C 0.48265 0.03249 0.07184 0.0
C9 C 0.5306 0.07114 0.10524 0.0
O10 O 0.51188 0.08788 0.0989 0.0
O11 O 0.52632 0.03928 0.10755 0.0
O12 O 0.44408 0.11437 0.09978 0.0
O13 O 0.44401 0.0629 0.10829 0.0
O14 O 0.76103 0.25215 0.07827 0.0
Cd15 Cd 0.76215 0.25408 0.09706 0.0
Cd16 Cd 0.78557 0.18918 0.09335 0.0
O17 O 0.79079 0.20757 0.07535 0.0
O18 O 0.76723 0.30414 0.1023 0.0
O19 O 0.80233 0.2649 0.10368 0.0
C20 C 0.79442 0.29644 0.1049 0.0
C21 C 0.81818 0.17283 0.10906 0.0
C22 C 0.77561 0.23271 0.07108 0.0
C23 C 0.7246 0.193 0.10386 0.0
O24 O 0.74322 0.17575 0.09765 0.0
O25 O 0.72931 0.22485 0.10613 0.0
O26 O 0.81288 0.15189 0.10011 0.0
O27 O 0.80748 0.20338 0.10824 0.0
O28 O 0.4956 0.25987 0.22262 0.0
Cd29 Cd 0.49488 0.26236 0.20379 0.0
Cd30 Cd 0.47264 0.19634 0.20733 0.0
O31 O 0.46949 0.21229 0.22568 0.0
O32 O 0.48674 0.31182 0.1987 0.0
O33 O 0.45478 0.26931 0.19661 0.0
C34 C 0.46043 0.30161 0.19569 0.0
C35 C 0.43791 0.17501 0.19323 0.0
C36 C 0.48308 0.23869 0.22987 0.0
C37 C 0.5337 0.20409 0.19606 0.0
O38 O 0.51475 0.18556 0.2016 0.0
O39 O 0.52929 0.23636 0.19473 0.0
O40 O 0.4485 0.15517 0.20169 0.0
O41 O 0.44445 0.20716 0.19377 0.0
O42 O 0.75117 0.01254 0.22351 0.0
Cd43 Cd 0.75882 0.01389 0.20518 0.0
Cd44 Cd 0.78313 0.07403 0.21017 0.0
O45 O 0.78737 0.04917 0.22744 0.0
O46 O 0.76628 0.96604 0.19806 0.0
O47 O 0.80174 1.00331 0.20223 0.0
C48 C 0.79427 0.97338 0.19834 0.0
C49 C 0.81384 0.08728 0.19333 0.0
C50 C 0.76811 0.02725 0.23118 0.0
C51 C 0.72507 0.07889 0.19934 0.0
O52 O 0.74197 0.09274 0.20722 0.0
O53 O 0.7305 0.04831 0.19554 0.0
O54 O 0.81464 0.10634 0.20305 0.0
O55 O 0.79753 0.06024 0.19368 0.0
O56 O 0.5011 1.00778 0.97371 0.0
Cd57 Cd 0.50703 1.00766 0.95517 0.0
Cd58 Cd 0.53026 0.94543 0.95932 0.0
O59 O 0.53475 0.96729 0.97696 0.0
O60 O 0.51527 0.05565 0.94835 0.0
O61 O 0.54983 0.01676 0.95187 0.0
C62 C 0.54308 0.04739 0.94844 0.0
C63 C 0.56201 0.93007 0.94312 0.0
C64 C 0.51731 0.99067 0.98105 0.0
C65 C 0.47186 0.94466 0.94823 0.0
O66 O 0.4887 0.92899 0.95569 0.0
O67 O 0.4775 0.97582 0.94518 0.0
O68 O 0.55988 0.91039 0.95266 0.0
O69 O 0.5483 0.95904 0.94341 0.0
O70 O 0.25275 0.75811 0.97139 0.0
Cd71 Cd 0.24748 0.75679 0.95275 0.0
Cd72 Cd 0.2226 0.8196 0.95722 0.0
O73 O 0.21994 0.79919 0.97516 0.0
O74 O 0.23924 0.70815 0.94665 0.0
O75 O 0.20537 0.74876 0.94838 0.0
C76 C 0.21173 0.71736 0.94584 0.0
C77 C 0.18794 0.84035 0.94289 0.0
C78 C 0.23758 0.77562 0.97899 0.0
C79 C 0.2821 0.81847 0.94526 0.0
O80 O 0.26417 0.83443 0.95219 0.0
O81 O 0.2777 0.7868 0.94271 0.0
O82 O 0.19597 0.85939 0.95202 0.0
O83 O 0.1971 0.80906 0.94275 0.0
O84 O 0.50392 0.76672 0.82782 0.0
Cd85 Cd 0.50988 0.76738 0.84631 0.0
Cd86 Cd 0.5334 0.82841 0.84226 0.0
O87 O 0.53881 0.80582 0.82476 0.0
O88 O 0.5178 0.71965 0.85343 0.0
O89 O 0.55283 0.75757 0.84936 0.0
C90 C 0.54574 0.72727 0.85306 0.0
C91 C 0.56354 0.84214 0.85915 0.0
C92 C 0.52091 0.78308 0.82056 0.0
C93 C 0.47464 0.83107 0.85251 0.0
O94 O 0.49192 0.84612 0.84505 0.0
O95 O 0.48022 0.80018 0.85594 0.0
O96 O 0.56355 0.86176 0.84955 0.0
O97 O 0.5485 0.81409 0.85862 0.0
O98 O 0.24216 1.00733 0.82841 0.0
Cd99 Cd 0.24156 0.0098 0.84726 0.0
Cd100 Cd 0.2197 0.94433 0.84383 0.0
O101 O 0.2156 0.96013 0.82549 0.0
O102 O 0.23481 0.0596 0.85214 0.0
O103 O 0.20172 0.01839 0.85459 0.0
C104 C 0.20832 0.05049 0.85532 0.0
C105 C 0.18595 0.92365 0.85844 0.0
C106 C 0.22932 0.98635 0.82121 0.0
C107 C 0.28082 0.9517 0.85474 0.0
O108 O 0.26205 0.93325 0.8491 0.0
O109 O 0.27605 0.98381 0.85629 0.0
O110 O 0.19557 0.90363 0.84986 0.0
O111 O 0.19279 0.95572 0.85776 0.0
O112 O 0.4937 0.51397 0.57728 0.0
Cd113 Cd 0.49302 0.51256 0.59612 0.0
Cd114 Cd 0.46943 0.57745 0.5921 0.0
O115 O 0.46438 0.55887 0.57416 0.0
O116 O 0.48791 0.46266 0.60159 0.0
O117 O 0.45315 0.50226 0.60315 0.0
C118 C 0.46093 0.47068 0.60443 0.0
C119 C 0.43657 0.59504 0.60753 0.0
C120 C 0.47936 0.53345 0.57001 0.0
C121 C 0.53062 0.57374 0.60258 0.0
O122 O 0.51177 0.59087 0.59644 0.0
O123 O 0.52612 0.54187 0.60491 0.0
O124 O 0.44251 0.61552 0.59849 0.0
O125 O 0.44671 0.56418 0.60693 0.0
O126 O 0.7628 0.75335 0.57794 0.0
Cd127 Cd 0.76328 0.75559 0.59674 0.0
Cd128 Cd 0.78678 0.69056 0.59313 0.0
O129 O 0.79218 0.70839 0.57509 0.0
O130 O 0.76734 0.806 0.60166 0.0
O131 O 0.80283 0.76752 0.60383 0.0
C132 C 0.79442 0.79899 0.60467 0.0
C133 C 0.81909 0.67532 0.60905 0.0
C134 C 0.77719 0.73364 0.57079 0.0
C135 C 0.72544 0.69458 0.60336 0.0
O136 O 0.74438 0.6772 0.59737 0.0
O137 O 0.72997 0.72651 0.60556 0.0
O138 O 0.8142 0.65388 0.60021 0.0
O139 O 0.80822 0.70574 0.60799 0.0
O140 O 0.50497 0.75589 0.72228 0.0
Cd141 Cd 0.49611 0.75565 0.70407 0.0
Cd142 Cd 0.47205 0.69624 0.70827 0.0
O143 O 0.46787 0.72005 0.72574 0.0
O144 O 0.48649 0.80289 0.69692 0.0
O145 O 0.45258 0.76504 0.70245 0.0
C146 C 0.45876 0.79507 0.69822 0.0
C147 C 0.44143 0.68367 0.69136 0.0
C148 C 0.48757 0.74102 0.72977 0.0
C149 C 0.5299 0.69158 0.69753 0.0
O150 O 0.51305 0.67708 0.7053 0.0
O151 O 0.52428 0.72233 0.69398 0.0
O152 O 0.44053 0.66442 0.70105 0.0
O153 O 0.4577 0.71079 0.69178 0.0
O154 O 0.75428 0.51038 0.72341 0.0
Cd155 Cd 0.75899 0.50825 0.70479 0.0
Cd156 Cd 0.78198 0.57241 0.70893 0.0
O157 O 0.78641 0.55232 0.72684 0.0
O158 O 0.76557 0.45862 0.69926 0.0
O159 O 0.80055 0.49817 0.69969 0.0
C160 C 0.7931 0.46683 0.69766 0.0
C161 C 0.81493 0.58859 0.69327 0.0
C162 C 0.76923 0.52859 0.73086 0.0
C163 C 0.72237 0.56932 0.69754 0.0
O164 O 0.73983 0.58621 0.70441 0.0
O165 O 0.72784 0.53783 0.69497 0.0
O166 O 0.81028 0.60919 0.70238 0.0
O167 O 0.80323 0.55852 0.69384 0.0
O168 O 0.49873 0.50697 0.47179 0.0
Cd169 Cd 0.50724 0.50651 0.45353 0.0
Cd170 Cd 0.53136 0.44686 0.45792 0.0
O171 O 0.53541 0.47066 0.4754 0.0
O172 O 0.51605 0.55403 0.44647 0.0
O173 O 0.55055 0.51633 0.4515 0.0
C174 C 0.54391 0.54645 0.44747 0.0
C175 C 0.56196 0.4336 0.44106 0.0
C176 C 0.5159 0.49201 0.47934 0.0
C177 C 0.47345 0.44245 0.4471 0.0
O178 O 0.49029 0.42801 0.45488 0.0
O179 O 0.47898 0.47321 0.44353 0.0
O180 O 0.56259 0.41445 0.45078 0.0
O181 O 0.54609 0.46105 0.44145 0.0
O182 O 0.25088 0.25804 0.4738 0.0
Cd183 Cd 0.24544 0.25729 0.45524 0.0
Cd184 Cd 0.22309 0.32062 0.45951 0.0
O185 O 0.2178 0.29891 0.47722 0.0
O186 O 0.23781 0.20851 0.44906 0.0
O187 O 0.20318 0.24823 0.45087 0.0
C188 C 0.2102 0.2172 0.4481 0.0
C189 C 0.19199 0.33677 0.44317 0.0
C190 C 0.23522 0.2754 0.48125 0.0
C191 C 0.28212 0.31889 0.44842 0.0
O192 O 0.2653 0.33514 0.45574 0.0
O193 O 0.27605 0.28785 0.4454 0.0
O194 O 0.19455 0.35671 0.45261 0.0
O195 O 0.20472 0.30725 0.44371 0.0
O196 O 0.5058 0.26064 0.32808 0.0
Cd197 Cd 0.50828 0.25894 0.3468 0.0
Cd198 Cd 0.53246 0.32356 0.3426 0.0
O199 O 0.53606 0.3044 0.32454 0.0
O200 O 0.51403 0.20919 0.35227 0.0
O201 O 0.54872 0.24901 0.35325 0.0
C202 C 0.54118 0.21742 0.35472 0.0
C203 C 0.56641 0.34169 0.35756 0.0
C204 C 0.52002 0.27958 0.32059 0.0
C205 C 0.47193 0.32017 0.35397 0.0
O206 O 0.49063 0.3375 0.34781 0.0
O207 O 0.47585 0.28803 0.35589 0.0
O208 O 0.55976 0.36188 0.34852 0.0
O209 O 0.55657 0.31069 0.35713 0.0
O210 O 0.24479 0.5094 0.32796 0.0
Cd211 Cd 0.24529 0.51251 0.34671 0.0
Cd212 Cd 0.22331 0.44553 0.34398 0.0
O213 O 0.21885 0.46143 0.32559 0.0
O214 O 0.23859 0.56249 0.35153 0.0
O215 O 0.20571 0.52121 0.35421 0.0
C216 C 0.21221 0.55333 0.35485 0.0
C217 C 0.18987 0.42779 0.35919 0.0
C218 C 0.23188 0.48779 0.32103 0.0
C219 C 0.28459 0.45389 0.35448 0.0
O220 O 0.26561 0.4345 0.34936 0.0
O221 O 0.28018 0.48627 0.3554 0.0
O222 O 0.19745 0.40673 0.35057 0.0
O223 O 0.19847 0.4592 0.3582 0.0
O224 O 1.00016 0.01344 0.57885 0.0
Cd225 Cd 0.9936 0.01404 0.59728 0.0
Cd226 Cd 0.96912 0.07451 0.59259 0.0
O227 O 0.96398 0.05042 0.57526 0.0
O228 O 0.987 0.9656 0.60407 0.0
O229 O 0.95103 1.00293 0.60079 0.0
C230 C 0.95895 0.97268 0.60422 0.0
C231 C 0.93892 0.08783 0.60955 0.0
C232 C 0.98296 0.02847 0.57133 0.0
C233 C 0.02787 0.07855 0.60304 0.0
O234 O 0.01056 0.09273 0.59536 0.0
O235 O 0.02259 0.04786 0.60679 0.0
O236 O 0.93827 0.10724 0.59989 0.0
O237 O 0.95469 0.06037 0.60904 0.0
O238 O 0.25855 0.258 0.5793 0.0
Cd239 Cd 0.2593 0.26095 0.59812 0.0
Cd240 Cd 0.28143 0.19556 0.59497 0.0
O241 O 0.28542 0.2109 0.57657 0.0
O242 O 0.26646 0.31081 0.60285 0.0
O243 O 0.29938 0.26939 0.60525 0.0
C244 C 0.29302 0.30158 0.6059 0.0
C245 C 0.31526 0.17475 0.60954 0.0
C246 C 0.27153 0.23689 0.57218 0.0
C247 C 0.22016 0.20293 0.6058 0.0
O248 O 0.23911 0.18442 0.60027 0.0
O249 O 0.22475 0.23512 0.60723 0.0
O250 O 0.3055 0.15479 0.60097 0.0
O251 O 0.30849 0.20685 0.60888 0.0
O252 O 0.99505 0.25429 0.72393 0.0
Cd253 Cd 0.99352 0.2559 0.70513 0.0
Cd254 Cd 0.97009 0.19083 0.70916 0.0
O255 O 0.96567 0.20949 0.72716 0.0
O256 O 0.98811 0.30582 0.69976 0.0
O257 O 0.95325 0.26626 0.69857 0.0
C258 C 0.96096 0.29782 0.69722 0.0
C259 C 0.93683 0.17403 0.69376 0.0
C260 C 0.98082 0.23485 0.73125 0.0
C261 C 0.03064 0.19471 0.69815 0.0
O262 O 0.01223 0.17749 0.70449 0.0
O263 O 0.02601 0.22661 0.69594 0.0
O264 O 0.94269 0.15323 0.70271 0.0
O265 O 0.94729 0.20471 0.69444 0.0
O266 O 0.25221 0.00964 0.72289 0.0
Cd267 Cd 0.25759 1.00853 0.70424 0.0
Cd268 Cd 0.28203 0.07093 0.70882 0.0
O269 O 0.28531 0.05032 0.72669 0.0
O270 O 0.2652 0.95973 0.69813 0.0
O271 O 0.29971 0.99957 0.69988 0.0
C272 C 0.29287 0.9683 0.69734 0.0
C273 C 0.3159 0.09125 0.69411 0.0
C274 C 0.26753 0.0269 0.73051 0.0
C275 C 0.22252 0.0703 0.69712 0.0
O276 O 0.24029 0.08596 0.7042 0.0
O277 O 0.22726 0.03886 0.6943 0.0
O278 O 0.30868 0.11036 0.70334 0.0
O279 O 0.3064 0.06008 0.69405 0.0
O280 O 0.00598 1.00766 0.47346 0.0
Cd281 Cd 0.00719 0.01028 0.45468 0.0
Cd282 Cd 0.02991 0.94433 0.45829 0.0
O283 O 0.03415 0.96168 0.47645 0.0
O284 O 0.01304 0.06038 0.44969 0.0
O285 O 0.04724 0.02022 0.44785 0.0
C286 C 0.03993 0.05201 0.44684 0.0
C287 C 0.06349 0.92765 0.443 0.0
C288 C 0.01959 0.98733 0.48068 0.0
C289 C 0.96925 0.95037 0.44725 0.0
O290 O 0.98769 0.93225 0.45325 0.0
O291 O 0.97402 0.98243 0.44546 0.0
O292 O 0.05686 0.90644 0.45173 0.0
O293 O 0.05365 0.95857 0.44387 0.0
O294 O 0.75474 0.75876 0.47262 0.0
Cd295 Cd 0.74557 0.76026 0.45444 0.0
Cd296 Cd 0.72071 0.81897 0.45918 0.0
O297 O 0.71746 0.79399 0.4765 0.0
O298 O 0.73661 0.71336 0.44692 0.0
O299 O 0.70217 0.75005 0.45286 0.0
C300 C 0.70877 0.72051 0.44834 0.0
C301 C 0.68978 0.83147 0.44234 0.0
C302 C 0.73741 0.77293 0.48028 0.0
C303 C 0.77807 0.82572 0.44829 0.0
O304 O 0.76124 0.83928 0.45626 0.0
O305 O 0.77286 0.79508 0.44452 0.0
O306 O 0.68841 0.85017 0.45214 0.0
O307 O 0.70675 0.80492 0.4426 0.0
O308 O 0.00668 0.76104 0.32805 0.0
Cd309 Cd 0.00893 0.76044 0.34678 0.0
Cd310 Cd 0.03205 0.8251 0.34262 0.0
O311 O 0.03757 0.80449 0.32491 0.0
O312 O 0.01496 0.71107 0.35282 0.0
O313 O 0.05001 0.75053 0.35257 0.0
C314 C 0.04239 0.71929 0.35469 0.0
C315 C 0.06356 0.84063 0.35884 0.0
C316 C 0.02185 0.77962 0.32078 0.0
C317 C 0.9718 0.82268 0.35309 0.0
O318 O 0.9898 0.83932 0.34637 0.0
O319 O 0.97699 0.79121 0.35587 0.0
O320 O 0.06036 0.86123 0.3496 0.0
O321 O 0.05121 0.81094 0.35813 0.0
O322 O 0.74174 1.00324 0.32883 0.0
Cd323 Cd 0.7402 1.00464 0.34764 0.0
Cd324 Cd 0.71712 0.93977 0.34355 0.0
O325 O 0.71282 0.95813 0.32553 0.0
O326 O 0.73474 0.05452 0.35293 0.0
O327 O 0.70002 0.01483 0.35438 0.0
C328 C 0.70765 0.04648 0.35559 0.0
C329 C 0.68382 0.92175 0.35876 0.0
C330 C 0.72786 0.98366 0.32147 0.0
C331 C 0.77788 0.94394 0.35446 0.0
O332 O 0.75931 0.92665 0.34825 0.0
O333 O 0.77322 0.9758 0.35668 0.0
O334 O 0.69032 0.90138 0.34978 0.0
O335 O 0.69359 0.95278 0.35819 0.0
O336 O 0.98992 0.51553 0.07732 0.0
Cd337 Cd 0.99064 0.51235 0.09607 0.0
Cd338 Cd 0.96796 0.57904 0.09315 0.0
O339 O 0.96326 0.56293 0.07483 0.0
O340 O 0.98566 0.46194 0.10082 0.0
O341 O 0.95148 0.50161 0.1037 0.0
C342 C 0.95905 0.46979 0.10425 0.0
C343 C 0.93458 0.59453 0.10865 0.0
C344 C 0.97669 0.53679 0.07034 0.0
C345 C 0.02947 0.57191 0.10346 0.0
O346 O 0.01026 0.59093 0.09827 0.0
O347 O 0.02525 0.53952 0.1046 0.0
O348 O 0.94107 0.61635 0.10009 0.0
O349 O 0.94434 0.56364 0.10746 0.0
O350 O 0.26036 0.75628 0.07678 0.0
Cd351 Cd 0.25971 0.75915 0.09554 0.0
Cd352 Cd 0.28159 0.69217 0.09258 0.0
O353 O 0.28663 0.70862 0.07428 0.0
O354 O 0.26546 0.80936 0.10038 0.0
O355 O 0.29909 0.76894 0.10311 0.0
C356 C 0.29198 0.80089 0.10375 0.0
C357 C 0.31437 0.67574 0.10819 0.0
C358 C 0.27348 0.73499 0.0698 0.0
C359 C 0.22026 0.70002 0.10291 0.0
O360 O 0.23914 0.68082 0.09762 0.0
O361 O 0.22488 0.73231 0.10412 0.0
O362 O 0.30789 0.65425 0.09955 0.0
O363 O 0.30504 0.70682 0.10702 0.0
O364 O 0.99778 0.75815 0.22274 0.0
Cd365 Cd 0.99471 0.76132 0.20407 0.0
Cd366 Cd 0.97076 0.6961 0.20794 0.0
O367 O 0.96783 0.71405 0.22618 0.0
O368 O 0.98937 0.8117 0.19929 0.0
O369 O 0.95433 0.77243 0.19775 0.0
C370 C 0.96216 0.80406 0.19672 0.0
C371 C 0.93621 0.68025 0.19292 0.0
C372 C 0.98403 0.73865 0.23018 0.0
C373 C 0.03101 0.70067 0.19627 0.0
O374 O 0.01245 0.68279 0.20231 0.0
O375 O 0.02702 0.73293 0.19466 0.0
O376 O 0.9428 0.65889 0.20162 0.0
O377 O 0.94654 0.71097 0.19375 0.0
O378 O 0.25131 0.50612 0.2226 0.0
Cd379 Cd 0.25336 0.50352 0.2039 0.0
Cd380 Cd 0.27726 0.56936 0.20755 0.0
O381 O 0.28101 0.55066 0.22572 0.0
O382 O 0.26015 0.45373 0.1986 0.0
O383 O 0.29389 0.4946 0.19748 0.0
C384 C 0.28707 0.4628 0.19608 0.0
C385 C 0.31116 0.58655 0.19238 0.0
C386 C 0.2654 0.52569 0.22989 0.0
C387 C 0.21661 0.56432 0.19631 0.0
O388 O 0.23528 0.58233 0.20221 0.0
O389 O 0.22066 0.53207 0.19472 0.0
O390 O 0.30466 0.60734 0.20123 0.0
O391 O 0.30112 0.55569 0.19309 0.0
O392 O 0.99583 0.5124 0.97198 0.0
Cd393 Cd 0.00478 0.51093 0.95377 0.0
Cd394 Cd 0.02806 0.45106 0.95834 0.0
O395 O 0.03194 0.47541 0.97573 0.0
O396 O 0.01524 0.55743 0.94626 0.0
O397 O 0.04842 0.51912 0.95216 0.0
C398 C 0.0428 0.54897 0.94765 0.0
C399 C 0.05902 0.43677 0.94169 0.0
C400 C 0.01277 0.4973 0.97959 0.0
C401 C 0.97063 0.44704 0.94727 0.0
O402 O 0.98699 0.43248 0.9552 0.0
O403 O 0.97657 0.47769 0.94372 0.0
O404 O 0.05924 0.41806 0.95153 0.0
O405 O 0.04331 0.46436 0.94184 0.0
O406 O 0.7553 0.258 0.97278 0.0
Cd407 Cd 0.74659 0.25843 0.9545 0.0
Cd408 Cd 0.72341 0.31899 0.95902 0.0
O409 O 0.71963 0.29553 0.97655 0.0
O410 O 0.73713 0.21109 0.94749 0.0
O411 O 0.70322 0.24952 0.95245 0.0
C412 C 0.70941 0.21929 0.94845 0.0
C413 C 0.69172 0.33419 0.94276 0.0
C414 C 0.73874 0.27356 0.9804 0.0
C415 C 0.78095 0.32158 0.94756 0.0
O416 O 0.7647 0.33651 0.95543 0.0
O417 O 0.77492 0.29083 0.9442 0.0
O418 O 0.69293 0.35323 0.95248 0.0
O419 O 0.70631 0.30579 0.94288 0.0
O420 O 0.00264 0.26148 0.82939 0.0
Cd421 Cd 0.00697 0.26085 0.84806 0.0
Cd422 Cd 0.03116 0.32365 0.84318 0.0
O423 O 0.03575 0.30207 0.82553 0.0
O424 O 0.01272 0.21147 0.85403 0.0
O425 O 0.04824 0.25039 0.85344 0.0
C426 C 0.04034 0.21927 0.85565 0.0
C427 C 0.06369 0.34167 0.85871 0.0
C428 C 0.01816 0.27847 0.82175 0.0
C429 C 0.97139 0.32323 0.85444 0.0
O430 O 0.98913 0.33878 0.84728 0.0
O431 O 0.97633 0.29197 0.85753 0.0
O432 O 0.05919 0.36116 0.84926 0.0
O433 O 0.05228 0.3114 0.85853 0.0
O434 O 0.74746 0.50836 0.82893 0.0
Cd435 Cd 0.74307 0.5092 0.84758 0.0
Cd436 Cd 0.72014 0.446 0.84375 0.0
O437 O 0.71536 0.46609 0.82589 0.0
O438 O 0.73591 0.55801 0.85376 0.0
O439 O 0.7009 0.51877 0.85196 0.0
C440 C 0.70813 0.54991 0.85452 0.0
C441 C 0.68821 0.42914 0.85966 0.0
C442 C 0.73197 0.49011 0.82168 0.0
C443 C 0.77961 0.4475 0.8546 0.0
O444 O 0.76208 0.43099 0.84767 0.0
O445 O 0.77419 0.47891 0.85732 0.0
O446 O 0.69199 0.40928 0.85027 0.0
O447 O 0.70009 0.45919 0.85926 0.0
H448 H 0.43476 0.16098 0.11685 0.0
H449 H 0.40702 0.05817 0.12648 0.0
H450 H 0.42584 0.17962 0.13779 0.0
H451 H 0.39701 0.07696 0.14735 0.0
H452 H 0.43816 0.10864 0.1849 0.0
H453 H 0.42808 0.08986 0.16409 0.0
H454 H 0.39598 0.19157 0.15503 0.0
H455 H 0.40712 0.21056 0.17578 0.0
C456 C 0.4256 0.14267 0.12331 0.0
C457 C 0.4219 0.10803 0.12001 0.0
C458 C 0.42046 0.15333 0.13539 0.0
C459 C 0.4112 0.12966 0.14443 0.0
C460 C 0.40488 0.09574 0.14078 0.0
C461 C 0.4103 0.08503 0.12875 0.0
C462 C 0.42808 0.1267 0.17859 0.0
C463 C 0.42375 0.16117 0.18199 0.0
C464 C 0.42225 0.11594 0.16658 0.0
C465 C 0.41167 0.13933 0.15771 0.0
C466 C 0.40482 0.17302 0.16147 0.0
C467 C 0.41091 0.18384 0.17344 0.0
H468 H 0.84419 0.14693 0.18751 0.0
H469 H 0.81405 0.05079 0.17216 0.0
H470 H 0.85725 0.16706 0.16699 0.0
H471 H 0.82493 0.0713 0.15185 0.0
H472 H 0.84176 0.10942 0.11497 0.0
H473 H 0.85269 0.08796 0.13549 0.0
H474 H 0.83242 0.18835 0.1504 0.0
H475 H 0.82382 0.20996 0.13001 0.0
C476 C 0.84076 0.12991 0.1798 0.0
C477 C 0.82763 0.0975 0.1815 0.0
C478 C 0.8479 0.14156 0.16797 0.0
C479 C 0.84159 0.12128 0.15755 0.0
C480 C 0.83051 0.08785 0.15946 0.0
C481 C 0.8239 0.07609 0.17123 0.0
C482 C 0.84059 0.12707 0.12262 0.0
C483 C 0.83144 0.16124 0.12083 0.0
C484 C 0.84647 0.1147 0.13446 0.0
C485 C 0.84265 0.136 0.14482 0.0
C486 C 0.83586 0.17091 0.14282 0.0
C487 C 0.83063 0.18337 0.13101 0.0
H488 H 0.5922 0.90271 0.865 0.0
H489 H 0.56347 0.806 0.88048 0.0
H490 H 0.6036 0.92374 0.88554 0.0
H491 H 0.57287 0.82735 0.90082 0.0
H492 H 0.58795 0.86757 0.93769 0.0
H493 H 0.60002 0.84574 0.91732 0.0
H494 H 0.57628 0.94431 0.90168 0.0
H495 H 0.56627 0.96632 0.92189 0.0
C496 C 0.58876 0.88575 0.87275 0.0
C497 C 0.57649 0.85289 0.87107 0.0
C498 C 0.59496 0.89791 0.88459 0.0
C499 C 0.58856 0.87769 0.89502 0.0
C500 C 0.57843 0.84386 0.89317 0.0
C501 C 0.57271 0.8316 0.88139 0.0
C502 C 0.58624 0.88479 0.92991 0.0
C503 C 0.57569 0.91851 0.93144 0.0
C504 C 0.5928 0.87219 0.91817 0.0
C505 C 0.58848 0.89285 0.90766 0.0
C506 C 0.58019 0.92741 0.9094 0.0
C507 C 0.57412 0.94007 0.92109 0.0
H508 H 0.18563 0.85712 0.86667 0.0
H509 H 0.15751 0.95963 0.87645 0.0
H510 H 0.17675 0.83801 0.88755 0.0
H511 H 0.1475 0.94031 0.89729 0.0
H512 H 0.1874 0.90722 0.93502 0.0
H513 H 0.17765 0.92692 0.91424 0.0
H514 H 0.14681 0.82523 0.90454 0.0
H515 H 0.15776 0.80537 0.92522 0.0
C516 C 0.17645 0.87529 0.87316 0.0
C517 C 0.17257 0.90997 0.86989 0.0
C518 C 0.1713 0.86433 0.88521 0.0
C519 C 0.16184 0.88771 0.89428 0.0
C520 C 0.15549 0.92172 0.89069 0.0
C521 C 0.16092 0.93274 0.87868 0.0
C522 C 0.17762 0.88938 0.92857 0.0
C523 C 0.17363 0.85468 0.93176 0.0
C524 C 0.17201 0.90065 0.91658 0.0
C525 C 0.16195 0.87754 0.90753 0.0
C526 C 0.15532 0.84359 0.91111 0.0
C527 C 0.16127 0.83227 0.92303 0.0
H528 H 0.4296 0.55884 0.62867 0.0
H529 H 0.41445 0.65938 0.61301 0.0
H530 H 0.42132 0.58154 0.64892 0.0
H531 H 0.40389 0.68201 0.63339 0.0
H532 H 0.44309 0.71915 0.66993 0.0
H533 H 0.43211 0.69821 0.6497 0.0
H534 H 0.39665 0.60443 0.6653 0.0
H535 H 0.40972 0.62493 0.68575 0.0
C536 C 0.42346 0.58569 0.62951 0.0
C537 C 0.42334 0.60745 0.61919 0.0
C538 C 0.41842 0.59879 0.64123 0.0
C539 C 0.41254 0.63401 0.64301 0.0
C540 C 0.40939 0.65502 0.63252 0.0
C541 C 0.41506 0.64199 0.62077 0.0
C542 C 0.43251 0.69423 0.66912 0.0
C543 C 0.42785 0.67345 0.6795 0.0
C544 C 0.42586 0.68222 0.6574 0.0
C545 C 0.41383 0.64918 0.65565 0.0
C546 C 0.40671 0.62959 0.66616 0.0
C547 C 0.41387 0.64147 0.67794 0.0
H548 H 0.81982 0.55197 0.67221 0.0
H549 H 0.8409 0.65111 0.68772 0.0
H550 H 0.83032 0.57341 0.65201 0.0
H551 H 0.85395 0.67232 0.66736 0.0
H552 H 0.82131 0.71242 0.63009 0.0
H553 H 0.8298 0.69134 0.65053 0.0
H554 H 0.85641 0.59272 0.63577 0.0
H555 H 0.84535 0.61347 0.61517 0.0
C556 C 0.8277 0.5782 0.67136 0.0
C557 C 0.82889 0.60002 0.68161 0.0
C558 C 0.83408 0.59057 0.65964 0.0
C559 C 0.84252 0.62506 0.65779 0.0
C560 C 0.84651 0.64596 0.66825 0.0
C561 C 0.83942 0.63372 0.68 0.0
C562 C 0.82946 0.68635 0.63114 0.0
C563 C 0.83204 0.66442 0.62096 0.0
C564 C 0.83464 0.67419 0.64299 0.0
C565 C 0.84324 0.63984 0.64505 0.0
C566 C 0.84873 0.61893 0.63471 0.0
C567 C 0.8428 0.63093 0.62282 0.0
H568 H 0.55968 0.46814 0.41944 0.0
H569 H 0.5937 0.3747 0.43561 0.0
H570 H 0.57042 0.44649 0.39928 0.0
H571 H 0.60659 0.35352 0.41523 0.0
H572 H 0.57428 0.30627 0.37882 0.0
H573 H 0.5824 0.32978 0.39896 0.0
H574 H 0.59833 0.43003 0.38297 0.0
H575 H 0.58788 0.40655 0.36271 0.0
C576 C 0.57036 0.44325 0.41872 0.0
C577 C 0.5753 0.42291 0.42919 0.0
C578 C 0.57687 0.43082 0.40703 0.0
C579 C 0.58906 0.3978 0.4054 0.0
C580 C 0.5964 0.37864 0.41599 0.0
C581 C 0.58935 0.39092 0.42774 0.0
C582 C 0.58007 0.33325 0.37952 0.0
C583 C 0.57978 0.35465 0.36912 0.0
C584 C 0.585 0.34684 0.39119 0.0
C585 C 0.59039 0.38222 0.39282 0.0
C586 C 0.59318 0.40292 0.38223 0.0
C587 C 0.5876 0.38939 0.37054 0.0
H588 H 0.18474 0.4639 0.38039 0.0
H589 H 0.16631 0.36418 0.3648 0.0
H590 H 0.1763 0.44143 0.40066 0.0
H591 H 0.15526 0.34189 0.38519 0.0
H592 H 0.19093 0.30152 0.42174 0.0
H593 H 0.18129 0.32354 0.40155 0.0
H594 H 0.15231 0.42014 0.41722 0.0
H595 H 0.16443 0.39843 0.43761 0.0
C596 C 0.1778 0.43732 0.38125 0.0
C597 C 0.17678 0.41568 0.37094 0.0
C598 C 0.17268 0.42432 0.393 0.0
C599 C 0.16568 0.38938 0.39482 0.0
C600 C 0.16172 0.3686 0.38433 0.0
C601 C 0.16763 0.38145 0.37255 0.0
C602 C 0.18208 0.32735 0.42095 0.0
C603 C 0.17901 0.34841 0.43134 0.0
C604 C 0.1762 0.34004 0.40924 0.0
C605 C 0.16639 0.37409 0.40749 0.0
C606 C 0.16076 0.39418 0.41803 0.0
C607 C 0.16733 0.38163 0.4298 0.0
H608 H 0.90858 0.14737 0.61548 0.0
H609 H 0.93992 0.05157 0.63081 0.0
H610 H 0.89615 0.1675 0.63604 0.0
H611 H 0.9297 0.07212 0.65115 0.0
H612 H 0.91377 0.11026 0.68808 0.0
H613 H 0.90246 0.08854 0.66765 0.0
H614 H 0.92112 0.18916 0.65247 0.0
H615 H 0.93006 0.21099 0.67278 0.0
C616 C 0.91243 0.13043 0.6232 0.0
C617 C 0.92567 0.09809 0.62147 0.0
C618 C 0.90566 0.14209 0.63506 0.0
C619 C 0.91246 0.12192 0.64547 0.0
C620 C 0.92372 0.08858 0.64354 0.0
C621 C 0.92994 0.07679 0.63175 0.0
C622 C 0.91449 0.12789 0.68039 0.0
C623 C 0.92329 0.16221 0.68208 0.0
C624 C 0.90841 0.11538 0.6686 0.0
C625 C 0.91167 0.13668 0.65818 0.0
C626 C 0.91811 0.1717 0.66009 0.0
C627 C 0.92353 0.1843 0.67186 0.0
H628 H 0.34421 0.21052 0.62746 0.0
H629 H 0.31543 0.10822 0.61776 0.0
H630 H 0.35474 0.19105 0.64824 0.0
H631 H 0.32478 0.08897 0.63859 0.0
H632 H 0.34482 0.05597 0.67615 0.0
H633 H 0.355 0.07581 0.65539 0.0
H634 H 0.32541 0.17779 0.66539 0.0
H635 H 0.31649 0.15811 0.68624 0.0
C636 C 0.34075 0.18365 0.62969 0.0
C637 C 0.32879 0.16098 0.62095 0.0
C638 C 0.34647 0.17254 0.64167 0.0
C639 C 0.3401 0.13854 0.64528 0.0
C640 C 0.33027 0.11527 0.63624 0.0
C641 C 0.32485 0.12631 0.62422 0.0
C642 C 0.34142 0.08292 0.674 0.0
C643 C 0.32968 0.10543 0.68283 0.0
C644 C 0.34692 0.09423 0.66203 0.0
C645 C 0.34041 0.12827 0.65852 0.0
C646 C 0.33094 0.15145 0.66767 0.0
C647 C 0.32581 0.14019 0.67969 0.0
H648 H 0.06531 0.80411 0.38003 0.0
H649 H 0.09082 0.90217 0.36468 0.0
H650 H 0.07479 0.82521 0.40033 0.0
H651 H 0.10285 0.92293 0.38518 0.0
H652 H 0.08808 0.86462 0.4373 0.0
H653 H 0.1001 0.84332 0.41689 0.0
H654 H 0.07833 0.94313 0.4017 0.0
H655 H 0.06895 0.96464 0.42199 0.0
C656 C 0.07393 0.83 0.38096 0.0
C657 C 0.07669 0.85167 0.37069 0.0
C658 C 0.07972 0.84215 0.39274 0.0
C659 C 0.08915 0.87625 0.39466 0.0
C660 C 0.09463 0.89692 0.38423 0.0
C661 C 0.08812 0.88491 0.3724 0.0
C662 C 0.08682 0.88217 0.42961 0.0
C663 C 0.07713 0.91616 0.4313 0.0
C664 C 0.09329 0.86989 0.41782 0.0
C665 C 0.08939 0.89102 0.40739 0.0
C666 C 0.08191 0.92577 0.40931 0.0
C667 C 0.07622 0.93819 0.42107 0.0
H668 H 0.65735 0.8899 0.43691 0.0
H669 H 0.69147 0.79648 0.42085 0.0
H670 H 0.64386 0.91071 0.41652 0.0
H671 H 0.68009 0.81775 0.40068 0.0
H672 H 0.66209 0.85713 0.36411 0.0
H673 H 0.65165 0.83396 0.38444 0.0
H674 H 0.66814 0.93431 0.40014 0.0
H675 H 0.67629 0.95752 0.37993 0.0
C676 C 0.66156 0.87359 0.42906 0.0
C677 C 0.6759 0.84177 0.43053 0.0
C678 C 0.65417 0.88566 0.41731 0.0
C679 C 0.66139 0.8664 0.40675 0.0
C680 C 0.67375 0.83348 0.40842 0.0
C681 C 0.68064 0.82129 0.4201 0.0
C682 C 0.6625 0.87438 0.37189 0.0
C683 C 0.67051 0.90903 0.37037 0.0
C684 C 0.65691 0.86104 0.38362 0.0
C685 C 0.65988 0.88186 0.39415 0.0
C686 C 0.66541 0.91718 0.39242 0.0
C687 C 0.67036 0.93059 0.38072 0.0
H688 H 0.93065 0.71748 0.17198 0.0
H689 H 0.91101 0.6175 0.18722 0.0
H690 H 0.92092 0.6963 0.15171 0.0
H691 H 0.89855 0.59654 0.16681 0.0
H692 H 0.93168 0.5572 0.12966 0.0
H693 H 0.92259 0.57801 0.15005 0.0
H694 H 0.89649 0.67687 0.13521 0.0
H695 H 0.90831 0.65639 0.11468 0.0
C696 C 0.92317 0.69112 0.17105 0.0
C697 C 0.92223 0.66901 0.18126 0.0
C698 C 0.91727 0.67886 0.15929 0.0
C699 C 0.90948 0.64421 0.15733 0.0
C700 C 0.90559 0.62302 0.16775 0.0
C701 C 0.91229 0.63513 0.17955 0.0
C702 C 0.92352 0.58327 0.13069 0.0
C703 C 0.9213 0.60533 0.1205 0.0
C704 C 0.91799 0.59529 0.14252 0.0
C705 C 0.90933 0.62963 0.14457 0.0
C706 C 0.90423 0.65068 0.1342 0.0
C707 C 0.91058 0.63884 0.12234 0.0
H708 H 0.33589 0.64978 0.18688 0.0
H709 H 0.31657 0.55034 0.17125 0.0
H710 H 0.34837 0.67156 0.16655 0.0
H711 H 0.32631 0.57231 0.15106 0.0
H712 H 0.34002 0.61344 0.11419 0.0
H713 H 0.35105 0.5922 0.13471 0.0
H714 H 0.32488 0.69069 0.14973 0.0
H715 H 0.31658 0.71225 0.12936 0.0
C716 C 0.33465 0.63246 0.17913 0.0
C717 C 0.32486 0.59846 0.18072 0.0
C718 C 0.34138 0.64504 0.16738 0.0
C719 C 0.33764 0.62421 0.15688 0.0
C720 C 0.32987 0.58948 0.15871 0.0
C721 C 0.32395 0.57677 0.17042 0.0
C722 C 0.33755 0.63074 0.12189 0.0
C723 C 0.32709 0.66439 0.1201 0.0
C724 C 0.34344 0.61846 0.13375 0.0
C725 C 0.33811 0.63919 0.14415 0.0
C726 C 0.32964 0.67364 0.14217 0.0
C727 C 0.32458 0.6861 0.13035 0.0
H728 H 0.08672 0.40599 0.86362 0.0
H729 H 0.06961 0.30711 0.88024 0.0
H730 H 0.09726 0.43 0.8838 0.0
H731 H 0.0779 0.33119 0.90027 0.0
H732 H 0.08979 0.37692 0.93668 0.0
H733 H 0.10278 0.35466 0.91646 0.0
H734 H 0.06922 0.44813 0.89993 0.0
H735 H 0.05835 0.47079 0.91995 0.0
C736 C 0.08568 0.38924 0.87154 0.0
C737 C 0.07685 0.35478 0.87029 0.0
C738 C 0.09133 0.40307 0.88319 0.0
C739 C 0.08767 0.38296 0.89387 0.0
C740 C 0.08121 0.34777 0.89242 0.0
C741 C 0.07616 0.33387 0.88082 0.0
C742 C 0.08605 0.393 0.92872 0.0
C743 C 0.07263 0.42542 0.92996 0.0
C744 C 0.09316 0.38011 0.91707 0.0
C745 C 0.08651 0.3991 0.90636 0.0
C746 C 0.07507 0.43256 0.90779 0.0
C747 C 0.06849 0.44557 0.91938 0.0
H748 H 0.66305 0.39548 0.9378 0.0
H749 H 0.69008 0.29983 0.92112 0.0
H750 H 0.65039 0.41826 0.91761 0.0
H751 H 0.67958 0.32291 0.90111 0.0
H752 H 0.66299 0.36604 0.86479 0.0
H753 H 0.65205 0.34263 0.88505 0.0
H754 H 0.67598 0.44021 0.90131 0.0
H755 H 0.68471 0.46382 0.88121 0.0
C756 C 0.66586 0.37913 0.92986 0.0
C757 C 0.678 0.34603 0.9311 0.0
C758 C 0.65896 0.39231 0.91822 0.0
C759 C 0.66455 0.37291 0.90753 0.0
C760 C 0.67459 0.33885 0.90896 0.0
C761 C 0.68095 0.32557 0.92055 0.0
C762 C 0.66499 0.3827 0.87269 0.0
C763 C 0.67516 0.41664 0.87136 0.0
C764 C 0.65909 0.36918 0.88438 0.0
C765 C 0.66384 0.38907 0.89502 0.0
C766 C 0.67177 0.42384 0.8935 0.0
C767 C 0.67707 0.43746 0.88186 0.0
H768 H 0.29049 0.87084 0.1003 0.0
H769 H 0.34571 0.7891 0.11438 0.0
H770 H 0.33158 0.91119 0.10259 0.0
H771 H 0.38647 0.82947 0.11701 0.0
H772 H 0.46229 0.89946 0.10273 0.0
H773 H 0.42086 0.85926 0.10427 0.0
H774 H 0.3636 0.94215 0.11595 0.0
H775 H 0.40475 0.98233 0.11406 0.0
C776 C 0.31115 0.86167 0.10417 0.0
C777 C 0.31484 0.82673 0.10708 0.0
C778 C 0.33479 0.88481 0.10551 0.0
C779 C 0.36261 0.8736 0.10988 0.0
C780 C 0.36568 0.83895 0.11337 0.0
C781 C 0.34216 0.81583 0.11196 0.0
C782 C 0.44099 0.90894 0.10584 0.0
C783 C 0.43682 0.94412 0.10819 0.0
C784 C 0.41716 0.88588 0.10675 0.0
C785 C 0.38864 0.89744 0.11012 0.0
C786 C 0.38498 0.93238 0.11307 0.0
C787 C 0.4087 0.9554 0.11208 0.0
H788 H 0.79091 0.36661 0.10221 0.0
H789 H 0.84954 0.28559 0.11433 0.0
H790 H 0.83138 0.40804 0.10405 0.0
H791 H 0.88971 0.32696 0.11649 0.0
H792 H 0.96196 0.39987 0.10094 0.0
H793 H 0.92158 0.3585 0.10311 0.0
H794 H 0.86468 0.43888 0.11707 0.0
H795 H 0.90477 0.48026 0.11459 0.0
C796 C 0.81221 0.35781 0.10556 0.0
C797 C 0.81702 0.32278 0.10803 0.0
C798 C 0.83549 0.38156 0.10663 0.0
C799 C 0.86405 0.37084 0.11029 0.0
C800 C 0.86828 0.33607 0.11339 0.0
C801 C 0.84512 0.31237 0.11224 0.0
C802 C 0.94101 0.40854 0.10468 0.0
C803 C 0.93658 0.44339 0.10751 0.0
C804 C 0.91778 0.38481 0.10595 0.0
C805 C 0.88962 0.39534 0.11015 0.0
C806 C 0.88578 0.42992 0.11356 0.0
C807 C 0.90891 0.45362 0.11224 0.0
H808 H 0.40603 0.28629 0.18624 0.0
H809 H 0.45966 0.37177 0.19834 0.0
H810 H 0.36355 0.32447 0.18396 0.0
H811 H 0.41695 0.40988 0.1964 0.0
H812 H 0.34063 0.47677 0.18577 0.0
H813 H 0.3826 0.43807 0.18327 0.0
H814 H 0.32951 0.35388 0.19703 0.0
H815 H 0.28716 0.39263 0.19917 0.0
C816 C 0.40885 0.31337 0.18829 0.0
C817 C 0.43625 0.32597 0.19252 0.0
C818 C 0.38437 0.33522 0.18708 0.0
C819 C 0.38657 0.37026 0.19012 0.0
C820 C 0.41439 0.38315 0.19383 0.0
C821 C 0.43896 0.36128 0.19498 0.0
C822 C 0.33775 0.44985 0.18807 0.0
C823 C 0.31058 0.4378 0.19274 0.0
C824 C 0.36194 0.42769 0.18673 0.0
C825 C 0.35974 0.39288 0.19012 0.0
C826 C 0.33206 0.38044 0.19422 0.0
C827 C 0.30771 0.40265 0.19547 0.0
H828 H 0.79155 0.9028 0.19858 0.0
H829 H 0.85039 0.98769 0.19093 0.0
H830 H 0.83292 0.86272 0.19633 0.0
H831 H 0.89142 0.94786 0.18813 0.0
H832 H 0.9639 0.87322 0.20154 0.0
H833 H 0.92294 0.91398 0.20012 0.0
H834 H 0.86798 0.83518 0.18384 0.0
H835 H 0.90858 0.79424 0.18578 0.0
C836 C 0.81316 0.91278 0.19611 0.0
C837 C 0.81775 0.94836 0.19504 0.0
C838 C 0.83698 0.88983 0.19478 0.0
C839 C 0.86583 0.90195 0.19218 0.0
C840 C 0.86985 0.93751 0.19045 0.0
C841 C 0.84621 0.96038 0.19195 0.0
C842 C 0.94324 0.86484 0.19745 0.0
C843 C 0.93947 0.83049 0.19384 0.0
C844 C 0.91965 0.88823 0.19661 0.0
C845 C 0.89181 0.87793 0.19197 0.0
C846 C 0.88871 0.84396 0.18774 0.0
C847 C 0.91215 0.82053 0.18873 0.0
H848 H 0.71291 0.1541 0.93866 0.0
H849 H 0.65046 0.22908 0.95231 0.0
H850 H 0.67239 0.11304 0.9359 0.0
H851 H 0.61051 0.188 0.95015 0.0
H852 H 0.53823 0.11448 0.94044 0.0
H853 H 0.57839 0.15612 0.93776 0.0
H854 H 0.64213 0.07813 0.94806 0.0
H855 H 0.60249 0.03663 0.95012 0.0
C856 C 0.69057 0.16185 0.94103 0.0
C857 C 0.68502 0.19477 0.94578 0.0
C858 C 0.66729 0.13826 0.93953 0.0
C859 C 0.63799 0.14694 0.94288 0.0
C860 C 0.63251 0.18034 0.94726 0.0
C861 C 0.65562 0.20392 0.94862 0.0
C862 C 0.56089 0.10621 0.94193 0.0
C863 C 0.56707 0.0723 0.94558 0.0
C864 C 0.58396 0.13012 0.94049 0.0
C865 C 0.61369 0.12074 0.9428 0.0
C866 C 0.61976 0.08641 0.946 0.0
C867 C 0.59683 0.06255 0.9473 0.0
H868 H 0.15243 0.72993 0.94635 0.0
H869 H 0.21587 0.64902 0.93937 0.0
H870 H 0.11218 0.68904 0.9448 0.0
H871 H 0.17518 0.60794 0.93716 0.0
H872 H 0.10129 0.5391 0.9525 0.0
H873 H 0.14189 0.57908 0.94989 0.0
H874 H 0.08198 0.65253 0.93333 0.0
H875 H 0.04074 0.61266 0.93653 0.0
C876 C 0.1578 0.70343 0.94421 0.0
C877 C 0.18748 0.69269 0.94312 0.0
C878 C 0.13453 0.6799 0.94321 0.0
C879 C 0.14019 0.64492 0.94093 0.0
C880 C 0.16989 0.63449 0.93919 0.0
C881 C 0.19328 0.65807 0.94035 0.0
C882 C 0.0967 0.56368 0.94821 0.0
C883 C 0.06763 0.57279 0.94483 0.0
C884 C 0.1202 0.58661 0.9466 0.0
C885 C 0.11546 0.61928 0.94141 0.0
C886 C 0.0865 0.62789 0.93757 0.0
C887 C 0.06282 0.60498 0.93933 0.0
H888 H 0.54033 0.6622 0.86292 0.0
H889 H 0.60502 0.73504 0.84954 0.0
H890 H 0.57975 0.61985 0.866 0.0
H891 H 0.64386 0.69269 0.85195 0.0
H892 H 0.71428 0.61728 0.86194 0.0
H893 H 0.67504 0.66015 0.86426 0.0
H894 H 0.6097 0.58341 0.85457 0.0
H895 H 0.64849 0.54066 0.85295 0.0
C896 C 0.56294 0.6692 0.86067 0.0
C897 C 0.56943 0.70195 0.85593 0.0
C898 C 0.58559 0.64485 0.86234 0.0
C899 C 0.61522 0.65253 0.85915 0.0
C900 C 0.62162 0.68573 0.85475 0.0
C901 C 0.59913 0.71009 0.85324 0.0
C902 C 0.69146 0.60955 0.86052 0.0
C903 C 0.68461 0.57559 0.85719 0.0
C904 C 0.66889 0.63419 0.86174 0.0
C905 C 0.63897 0.62557 0.85948 0.0
C906 C 0.63222 0.5912 0.85658 0.0
C907 C 0.65465 0.56658 0.85554 0.0
H908 H 0.09515 0.23139 0.86504 0.0
H909 H 0.0377 0.149 0.85328 0.0
H910 H 0.13588 0.19089 0.8674 0.0
H911 H 0.07881 0.1084 0.85521 0.0
H912 H 0.15391 0.03782 0.86531 0.0
H913 H 0.11285 0.07795 0.86781 0.0
H914 H 0.16829 0.16046 0.85432 0.0
H915 H 0.20958 0.12045 0.85222 0.0
C916 C 0.09115 0.20447 0.86307 0.0
C917 C 0.06322 0.19341 0.8589 0.0
C918 C 0.11463 0.18126 0.86432 0.0
C919 C 0.11095 0.14635 0.86131 0.0
C920 C 0.08253 0.13499 0.85772 0.0
C921 C 0.05888 0.15825 0.85659 0.0
C922 C 0.15748 0.06468 0.86308 0.0
C923 C 0.18503 0.07593 0.85853 0.0
C924 C 0.13381 0.08766 0.86441 0.0
C925 C 0.13698 0.12249 0.86115 0.0
C926 C 0.16498 0.13397 0.85708 0.0
C927 C 0.18874 0.111 0.85584 0.0
H928 H 0.46316 0.40058 0.60141 0.0
H929 H 0.40712 0.48214 0.61497 0.0
H930 H 0.42228 0.35987 0.60377 0.0
H931 H 0.36662 0.44148 0.6177 0.0
H932 H 0.29147 0.3717 0.60315 0.0
H933 H 0.33289 0.4117 0.60481 0.0
H934 H 0.38963 0.32873 0.61693 0.0
H935 H 0.34839 0.28865 0.61491 0.0
C936 C 0.44237 0.40963 0.60519 0.0
C937 C 0.43835 0.44463 0.60791 0.0
C938 C 0.41886 0.38629 0.60657 0.0
C939 C 0.39087 0.39739 0.61078 0.0
C940 C 0.38753 0.43208 0.61415 0.0
C941 C 0.4109 0.45538 0.61269 0.0
C942 C 0.31264 0.36213 0.60637 0.0
C943 C 0.3166 0.32695 0.60883 0.0
C944 C 0.33648 0.38509 0.60736 0.0
C945 C 0.36485 0.3735 0.61091 0.0
C946 C 0.36835 0.33854 0.61393 0.0
C947 C 0.34458 0.31558 0.61288 0.0
H948 H 0.84777 0.79037 0.61596 0.0
H949 H 0.79143 0.86825 0.60002 0.0
H950 H 0.8875 0.83231 0.61817 0.0
H951 H 0.83151 0.91005 0.60177 0.0
H952 H 0.96292 0.90217 0.60371 0.0
H953 H 0.92227 0.86102 0.60572 0.0
H954 H 0.86211 0.94438 0.61411 0.0
H955 H 0.90245 0.98532 0.61159 0.0
C956 C 0.84377 0.81662 0.61304 0.0
C957 C 0.81643 0.82597 0.60778 0.0
C958 C 0.86671 0.84064 0.61419 0.0
C959 C 0.86308 0.87462 0.61 0.0
C960 C 0.83519 0.88431 0.60524 0.0
C961 C 0.8121 0.86031 0.60421 0.0
C962 C 0.9411 0.91155 0.60618 0.0
C963 C 0.93587 0.94697 0.60739 0.0
C964 C 0.9177 0.88797 0.60737 0.0
C965 C 0.88861 0.89927 0.60995 0.0
C966 C 0.88391 0.93465 0.61181 0.0
C967 C 0.90716 0.95816 0.61047 0.0
H968 H 0.4001 0.78656 0.70309 0.0
H969 H 0.46201 0.85944 0.68764 0.0
H970 H 0.36028 0.8278 0.70085 0.0
H971 H 0.42156 0.90061 0.6848 0.0
H972 H 0.35241 0.97925 0.69806 0.0
H973 H 0.39193 0.93738 0.6964 0.0
H974 H 0.3275 0.85815 0.68838 0.0
H975 H 0.28757 0.9002 0.69068 0.0
C976 C 0.40516 0.81128 0.699 0.0
C977 C 0.43439 0.81977 0.69564 0.0
C978 C 0.3821 0.83495 0.69759 0.0
C979 C 0.38744 0.8678 0.69265 0.0
C980 C 0.41657 0.87585 0.68885 0.0
C981 C 0.4398 0.85219 0.6904 0.0
C982 C 0.34659 0.95296 0.69582 0.0
C983 C 0.31671 0.94304 0.69463 0.0
C984 C 0.36943 0.92886 0.69476 0.0
C985 C 0.36315 0.89409 0.69233 0.0
C986 C 0.33327 0.8845 0.69053 0.0
C987 C 0.31031 0.90864 0.69174 0.0
H988 H 0.79097 0.39646 0.6998 0.0
H989 H 0.8482 0.47986 0.68867 0.0
H990 H 0.83229 0.35626 0.69771 0.0
H991 H 0.88918 0.43976 0.68617 0.0
H992 H 0.96299 0.36768 0.70068 0.0
H993 H 0.92187 0.40819 0.69888 0.0
H994 H 0.86607 0.32702 0.68474 0.0
H995 H 0.90687 0.28648 0.68694 0.0
C996 C 0.81217 0.40605 0.69662 0.0
C997 C 0.81634 0.44134 0.6945 0.0
C998 C 0.83594 0.38302 0.69539 0.0
C999 C 0.86433 0.39474 0.69189 0.0
C1000 C 0.86793 0.42984 0.68916 0.0
C1001 C 0.84431 0.45283 0.6905 0.0
C1002 C 0.94212 0.3587 0.69697 0.0
C1003 C 0.93817 0.32385 0.69404 0.0
C1004 C 0.91845 0.38192 0.69591 0.0
C1005 C 0.89036 0.37088 0.69179 0.0
C1006 C 0.88705 0.33636 0.68822 0.0
C1007 C 0.91059 0.31315 0.68937 0.0
H1008 H 0.60327 0.53666 0.4502 0.0
H1009 H 0.53918 0.61303 0.43896 0.0
H1010 H 0.64272 0.57858 0.44833 0.0
H1011 H 0.57914 0.65506 0.43657 0.0
H1012 H 0.64954 0.72957 0.4517 0.0
H1013 H 0.61011 0.68784 0.44939 0.0
H1014 H 0.67338 0.61327 0.43597 0.0
H1015 H 0.71336 0.65507 0.4388 0.0
C1016 C 0.59762 0.56233 0.4471 0.0
C1017 C 0.56793 0.57156 0.44485 0.0
C1018 C 0.62043 0.58641 0.44592 0.0
C1019 C 0.61431 0.62044 0.44235 0.0
C1020 C 0.58471 0.62929 0.43956 0.0
C1021 C 0.56176 0.60515 0.44085 0.0
C1022 C 0.65513 0.70437 0.44816 0.0
C1023 C 0.68474 0.69558 0.44556 0.0
C1024 C 0.63232 0.68042 0.44671 0.0
C1025 C 0.63836 0.64696 0.44252 0.0
C1026 C 0.66788 0.63858 0.43943 0.0
C1027 C 0.69083 0.66258 0.44097 0.0
H1028 H 0.03911 0.12152 0.45106 0.0
H1029 H 0.09329 0.04042 0.43595 0.0
H1030 H 0.08078 0.16127 0.4494 0.0
H1031 H 0.13463 0.08028 0.43386 0.0
H1032 H 0.21143 0.14663 0.44925 0.0
H1033 H 0.16943 0.1075 0.44689 0.0
H1034 H 0.11339 0.19333 0.43688 0.0
H1035 H 0.15503 0.2323 0.43968 0.0
C1036 C 0.05966 0.11244 0.44707 0.0
C1037 C 0.06294 0.07781 0.44371 0.0
C1038 C 0.08364 0.13523 0.44609 0.0
C1039 C 0.11135 0.12397 0.44162 0.0
C1040 C 0.11395 0.08974 0.43762 0.0
C1041 C 0.09011 0.06694 0.4387 0.0
C1042 C 0.19025 0.15697 0.44635 0.0
C1043 C 0.1865 0.19253 0.44476 0.0
C1044 C 0.16611 0.13456 0.44496 0.0
C1045 C 0.13776 0.14723 0.44183 0.0
C1046 C 0.13459 0.18266 0.43959 0.0
C1047 C 0.15858 0.20501 0.4411 0.0
H1048 H 0.71028 0.11648 0.35245 0.0
H1049 H 0.65299 0.03526 0.36544 0.0
H1050 H 0.66945 0.15738 0.35423 0.0
H1051 H 0.61245 0.07618 0.3676 0.0
H1052 H 0.53865 0.1472 0.35227 0.0
H1053 H 0.57951 0.10647 0.35449 0.0
H1054 H 0.63646 0.18873 0.36695 0.0
H1055 H 0.59592 0.22943 0.36434 0.0
C1056 C 0.6892 0.10754 0.35599 0.0
C1057 C 0.68487 0.07259 0.35872 0.0
C1058 C 0.6657 0.13101 0.35703 0.0
C1059 C 0.63738 0.1201 0.36093 0.0
C1060 C 0.63365 0.08544 0.3643 0.0
C1061 C 0.65703 0.062 0.36316 0.0
C1062 C 0.55974 0.15642 0.35569 0.0
C1063 C 0.56405 0.19157 0.35804 0.0
C1064 C 0.58325 0.13306 0.357 0.0
C1065 C 0.61155 0.14428 0.36078 0.0
C1066 C 0.61528 0.1792 0.36375 0.0
C1067 C 0.5919 0.20253 0.36235 0.0
H1068 H 0.15825 0.54025 0.36513 0.0
H1069 H 0.21272 0.62329 0.35153 0.0
H1070 H 0.11673 0.57975 0.36753 0.0
H1071 H 0.17095 0.66272 0.35359 0.0
H1072 H 0.09678 0.73248 0.3643 0.0
H1073 H 0.13808 0.6928 0.36678 0.0
H1074 H 0.08237 0.60911 0.35458 0.0
H1075 H 0.0407 0.6489 0.35246 0.0
C1076 C 0.16147 0.56708 0.36278 0.0
C1077 C 0.18881 0.5786 0.35809 0.0
C1078 C 0.13753 0.58969 0.36406 0.0
C1079 C 0.14022 0.62442 0.36063 0.0
C1080 C 0.16803 0.63626 0.35646 0.0
C1081 C 0.19206 0.61364 0.35525 0.0
C1082 C 0.09319 0.70548 0.36235 0.0
C1083 C 0.06549 0.69385 0.35811 0.0
C1084 C 0.11699 0.68275 0.36367 0.0
C1085 C 0.11385 0.64776 0.3607 0.0
C1086 C 0.08565 0.6358 0.35706 0.0
C1087 C 0.06169 0.65859 0.35583 0.0
H1088 H 0.5271 0.99639 0.06099 0.0
H1089 H 0.44884 0.0557 0.05235 0.0
H1090 H 0.53638 0.98729 0.03943 0.0
H1091 H 0.45733 0.04515 0.03054 0.0
H1092 H 0.49552 0.04838 0.99201 0.0
H1093 H 0.48708 0.05874 1.01367 0.0
H1094 H 0.52197 0.95775 1.02203 0.0
H1095 H 0.53166 0.94819 1.00032 0.0
C1096 C 0.51154 1.00717 0.05447 0.0
C1097 C 0.48709 0.02674 0.05847 0.0
C1098 C 0.51681 1.0017 0.04202 0.0
C1099 C 0.4976 0.01519 0.03309 0.0
C1100 C 0.47297 0.0347 0.03708 0.0
C1101 C 0.46791 0.04061 0.04961 0.0
C1102 C 0.50164 0.02847 0.99849 0.0
C1103 C 0.51439 0.99746 0.99441 0.0
C1104 C 0.49647 0.03429 1.01095 0.0
C1105 C 0.50353 1.00908 1.01974 0.0
C1106 C 0.51659 0.97813 1.01564 0.0
C1107 C 0.52216 0.97251 1.00315 0.0
H1108 H 0.7569 0.29119 0.05965 0.0
H1109 H 0.78716 0.18797 0.05213 0.0
H1110 H 0.74765 0.30044 0.03799 0.0
H1111 H 0.77689 0.19673 0.03038 0.0
H1112 H 0.78217 0.23473 0.99094 0.0
H1113 H 0.79202 0.22521 1.01247 0.0
H1114 H 0.71516 0.2862 1.02184 0.0
H1115 H 0.70593 0.2969 1.0001 0.0
C1116 C 0.76162 0.27039 0.05336 0.0
C1117 C 0.77285 0.2388 0.05767 0.0
C1118 C 0.75597 0.2756 0.0409 0.0
C1119 C 0.76111 0.24928 0.03233 0.0
C1120 C 0.7729 0.21783 0.03662 0.0
C1121 C 0.77883 0.21272 0.04912 0.0
C1122 C 0.76719 0.2461 0.99755 0.0
C1123 C 0.74319 0.26669 0.99371 0.0
C1124 C 0.77281 0.24039 1.00998 0.0
C1125 C 0.75448 0.25484 1.01902 0.0
C1126 C 0.73014 0.27506 1.01519 0.0
C1127 C 0.72464 0.28103 1.0027 0.0
H1128 H 0.49748 0.29859 0.24141 0.0
H1129 H 0.47689 0.19205 0.24871 0.0
H1130 H 0.50702 0.30806 0.26303 0.0
H1131 H 0.48761 0.20107 0.27038 0.0
H1132 H 0.48058 0.23576 0.30996 0.0
H1133 H 0.47096 0.22628 0.28846 0.0
H1134 H 0.54068 0.29794 0.27909 0.0
H1135 H 0.5495 0.30863 0.30087 0.0
C1136 C 0.49499 0.27709 0.24765 0.0
C1137 C 0.48629 0.24453 0.24329 0.0
C1138 C 0.50082 0.28247 0.26009 0.0
C1139 C 0.49845 0.25535 0.26857 0.0
C1140 C 0.48935 0.22281 0.26422 0.0
C1141 C 0.48317 0.21754 0.25176 0.0
C1142 C 0.49407 0.24951 0.30336 0.0
C1143 C 0.51592 0.27305 0.30723 0.0
C1144 C 0.4886 0.24382 0.29094 0.0
C1145 C 0.50499 0.26117 0.28189 0.0
C1146 C 0.52719 0.28443 0.28574 0.0
C1147 C 0.53249 0.29043 0.29825 0.0
H1148 H 0.80027 0.05037 0.25113 0.0
H1149 H 0.72523 0.98699 0.24138 0.0
H1150 H 0.7905 0.03889 0.2728 0.0
H1151 H 0.71484 0.97673 0.2628 0.0
H1152 H 0.71805 0.93902 0.30233 0.0
H1153 H 0.72956 0.94821 0.28071 0.0
H1154 H 0.7571 0.05226 0.28878 0.0
H1155 H 0.74663 0.04259 0.31033 0.0
C1156 C 0.78175 0.03403 0.25358 0.0
C1157 C 0.76365 0.01964 0.24445 0.0
C1158 C 0.77592 0.02762 0.26603 0.0
C1159 C 0.75173 1.00688 0.26966 0.0
C1160 C 0.73393 0.9923 0.26047 0.0
C1161 C 0.73986 0.99845 0.2481 0.0
C1162 C 0.72627 0.96393 0.29945 0.0
C1163 C 0.73139 0.99 0.30809 0.0
C1164 C 0.73292 0.96929 0.28703 0.0
C1165 C 0.74457 1.00098 0.28291 0.0
C1166 C 0.7489 0.02726 0.29156 0.0
C1167 C 0.74254 0.0218 0.30395 0.0
H1168 H 0.20751 0.80316 0.99876 0.0
H1169 H 0.27817 0.73273 0.98953 0.0
H1170 H 0.21664 0.79239 1.0205 0.0
H1171 H 0.28795 0.72302 1.01106 0.0
H1172 H 0.25983 0.79473 0.05801 0.0
H1173 H 0.25089 0.8039 0.03633 0.0
H1174 H 0.27119 0.69705 0.02929 0.0
H1175 H 0.28114 0.68822 0.05108 0.0
C1176 C 0.22498 0.78547 1.00134 0.0
C1177 C 0.242 0.76887 0.99233 0.0
C1178 C 0.23043 0.77943 1.01383 0.0
C1179 C 0.25319 0.75684 1.01764 0.0
C1180 C 0.26996 0.74012 1.00858 0.0
C1181 C 0.2644 0.74594 0.99616 0.0
C1182 C 0.26267 0.77318 0.05183 0.0
C1183 C 0.27125 0.74068 0.05633 0.0
C1184 C 0.25718 0.77839 0.03936 0.0
C1185 C 0.25984 0.7512 0.03096 0.0
C1186 C 0.26912 0.71879 0.03541 0.0
C1187 C 0.27488 0.71364 0.04793 0.0
H1188 H 0.45135 0.7224 0.74911 0.0
H1189 H 0.53362 0.77421 0.7407 0.0
H1190 H 0.45963 0.73319 0.77091 0.0
H1191 H 0.54251 0.78362 0.76229 0.0
H1192 H 0.53823 0.82425 0.80133 0.0
H1193 H 0.52887 0.81506 0.77956 0.0
H1194 H 0.48852 0.71684 0.78785 0.0
H1195 H 0.49679 0.72679 0.80954 0.0
C1196 C 0.47121 0.73595 0.7519 0.0
C1197 C 0.49168 0.74752 0.74311 0.0
C1198 C 0.47614 0.74197 0.76442 0.0
C1199 C 0.50183 0.75936 0.76848 0.0
C1200 C 0.5222 0.7708 0.75962 0.0
C1201 C 0.51713 0.76515 0.74716 0.0
C1202 C 0.52761 0.80059 0.79847 0.0
C1203 C 0.51827 0.77632 0.8072 0.0
C1204 C 0.52222 0.79522 0.78596 0.0
C1205 C 0.50769 0.76521 0.78183 0.0
C1206 C 0.49908 0.74062 0.7906 0.0
C1207 C 0.50414 0.74618 0.80308 0.0
H1208 H 0.29801 0.05363 0.75032 0.0
H1209 H 0.22621 0.98492 0.741 0.0
H1210 H 0.28862 0.04294 0.77206 0.0
H1211 H 0.21614 0.97536 0.76251 0.0
H1212 H 0.22137 0.94011 0.80238 0.0
H1213 H 0.23207 0.94889 0.78066 0.0
H1214 H 0.25486 0.05491 0.78798 0.0
H1215 H 0.24523 0.04572 0.80961 0.0
C1216 C 0.28023 0.03633 0.75288 0.0
C1217 C 0.26299 0.02016 0.74384 0.0
C1218 C 0.27463 0.03034 0.76537 0.0
C1219 C 0.25147 1.00826 0.76915 0.0
C1220 C 0.23445 0.99201 0.76007 0.0
C1221 C 0.24019 0.99775 0.74765 0.0
C1222 C 0.22838 0.96535 0.79931 0.0
C1223 C 0.23244 0.99214 0.80778 0.0
C1224 C 0.23456 0.97048 0.78683 0.0
C1225 C 0.24466 1.00263 0.78246 0.0
C1226 C 0.24789 0.02958 0.79094 0.0
C1227 C 0.24201 0.02437 0.80339 0.0
H1228 H 0.54933 0.46926 0.499 0.0
H1229 H 0.47227 0.53025 0.48995 0.0
H1230 H 0.54031 0.48002 0.52076 0.0
H1231 H 0.46267 0.53981 0.51147 0.0
H1232 H 0.46751 0.57775 0.55092 0.0
H1233 H 0.47786 0.56883 0.5292 0.0
H1234 H 0.50813 0.46562 0.53709 0.0
H1235 H 0.49878 0.47503 0.55874 0.0
C1236 C 0.5305 0.48489 0.50163 0.0
C1237 C 0.51166 0.49889 0.49266 0.0
C1238 C 0.52512 0.4909 0.51413 0.0
C1239 C 0.50064 0.51082 0.51798 0.0
C1240 C 0.48201 0.52489 0.50896 0.0
C1241 C 0.48749 0.51915 0.49653 0.0
C1242 C 0.47609 0.55307 0.54799 0.0
C1243 C 0.48229 0.52718 0.55661 0.0
C1244 C 0.48207 0.54786 0.5355 0.0
C1245 C 0.49413 0.5165 0.5313 0.0
C1246 C 0.49956 0.49038 0.53993 0.0
C1247 C 0.49385 0.49569 0.55238 0.0
H1248 H 0.75859 0.79196 0.55924 0.0
H1249 H 0.78798 0.68825 0.55195 0.0
H1250 H 0.74842 0.80049 0.53761 0.0
H1251 H 0.77685 0.69634 0.53024 0.0
H1252 H 0.78091 0.73375 0.49062 0.0
H1253 H 0.79144 0.72445 0.51211 0.0
H1254 H 0.71488 0.78549 0.52183 0.0
H1255 H 0.70491 0.79594 0.50012 0.0
C1256 C 0.76296 0.77091 0.553 0.0
C1257 C 0.77418 0.73938 0.55737 0.0
C1258 C 0.75677 0.77571 0.54057 0.0
C1259 C 0.76137 0.74904 0.53209 0.0
C1260 C 0.77323 0.71767 0.53642 0.0
C1261 C 0.77968 0.71296 0.5489 0.0
C1262 C 0.76612 0.74516 0.4973 0.0
C1263 C 0.74201 0.76574 0.49357 0.0
C1264 C 0.77214 0.73957 0.5097 0.0
C1265 C 0.75414 0.75418 0.51882 0.0
C1266 C 0.72961 0.77426 0.5151 0.0
C1267 C 0.72368 0.78006 0.50264 0.0
H1268 H 0.7521 0.54809 0.81032 0.0
H1269 H 0.71979 0.44579 0.80273 0.0
H1270 H 0.76134 0.5573 0.78864 0.0
H1271 H 0.73027 0.45429 0.78101 0.0
H1272 H 0.72572 0.49066 0.74164 0.0
H1273 H 0.7158 0.48216 0.76318 0.0
H1274 H 0.79265 0.54355 0.77224 0.0
H1275 H 0.8018 0.55344 0.75042 0.0
C1276 C 0.74696 0.52748 0.804 0.0
C1277 C 0.73507 0.4962 0.80828 0.0
C1278 C 0.75261 0.53264 0.79153 0.0
C1279 C 0.7469 0.50652 0.78294 0.0
C1280 C 0.73462 0.47531 0.78724 0.0
C1281 C 0.72859 0.47033 0.79973 0.0
C1282 C 0.74069 0.50233 0.74818 0.0
C1283 C 0.76468 0.52275 0.74423 0.0
C1284 C 0.73504 0.49721 0.76063 0.0
C1285 C 0.75339 0.51195 0.7696 0.0
C1286 C 0.77765 0.53215 0.76566 0.0
C1287 C 0.78311 0.53767 0.75313 0.0
H1288 H 0.20436 0.30303 0.50083 0.0
H1289 H 0.2755 0.2328 0.49206 0.0
H1290 H 0.21306 0.29274 0.52265 0.0
H1291 H 0.28493 0.22369 0.51362 0.0
H1292 H 0.27919 0.18997 0.55355 0.0
H1293 H 0.26861 0.19813 0.5318 0.0
H1294 H 0.24648 0.3046 0.53867 0.0
H1295 H 0.25595 0.296 0.56035 0.0
C1296 C 0.22182 0.28546 0.50353 0.0
C1297 C 0.23911 0.26877 0.49462 0.0
C1298 C 0.22704 0.27971 0.51606 0.0
C1299 C 0.24985 0.25736 0.52002 0.0
C1300 C 0.26686 0.24056 0.51105 0.0
C1301 C 0.2615 0.24604 0.4986 0.0
C1302 C 0.27235 0.21517 0.55038 0.0
C1303 C 0.26844 0.24226 0.55873 0.0
C1304 C 0.26624 0.21994 0.53788 0.0
C1305 C 0.25639 0.25206 0.53337 0.0
C1306 C 0.25326 0.27929 0.54173 0.0
C1307 C 0.25905 0.27443 0.55421 0.0
H1308 H 0.22599 0.44007 0.30256 0.0
H1309 H 0.24385 0.54765 0.30899 0.0
H1310 H 0.23579 0.44844 0.28076 0.0
H1311 H 0.25248 0.55641 0.28726 0.0
H1312 H 0.29447 0.5566 0.24933 0.0
H1313 H 0.28624 0.54662 0.27121 0.0
H1314 H 0.21821 0.47222 0.26254 0.0
H1315 H 0.22724 0.48105 0.24095 0.0
C1316 C 0.23144 0.46562 0.2993 0.0
C1317 C 0.23412 0.49312 0.30755 0.0
C1318 C 0.2371 0.47052 0.28676 0.0
C1319 C 0.24525 0.50316 0.28214 0.0
C1320 C 0.24705 0.53076 0.29041 0.0
C1321 C 0.24173 0.52578 0.30291 0.0
C1322 C 0.27795 0.53795 0.25212 0.0
C1323 C 0.26168 0.51963 0.24331 0.0
C1324 C 0.273 0.53236 0.26469 0.0
C1325 C 0.25143 0.50855 0.26876 0.0
C1326 C 0.23536 0.49024 0.25989 0.0
C1327 C 0.24049 0.49555 0.24741 0.0
H1328 H 0.02936 0.94171 0.4996 0.0
H1329 H 0.00168 0.04602 0.49215 0.0
H1330 H 0.01865 0.95026 0.52131 0.0
H1331 H 0.99199 0.05501 0.51378 0.0
H1332 H 0.95021 0.05254 0.55167 0.0
H1333 H 0.95898 0.04152 0.52991 0.0
H1334 H 0.0344 0.97803 0.53923 0.0
H1335 H 0.025 0.98786 0.56074 0.0
C1336 C 0.02149 0.96663 0.50261 0.0
C1337 C 0.0164 0.99311 0.4941 0.0
C1338 C 0.0153 0.97162 0.51509 0.0
C1339 C 0.00414 1.00334 0.51939 0.0
C1340 C 0.99981 0.02999 0.51086 0.0
C1341 C 0.00573 0.02491 0.49842 0.0
C1342 C 0.96846 0.03601 0.54905 0.0
C1343 C 0.98679 0.02114 0.55802 0.0
C1344 C 0.97371 0.02986 0.53655 0.0
C1345 C 0.99755 1.00889 0.53271 0.0
C1346 C 0.01556 0.99381 0.54173 0.0
C1347 C 0.01021 0.99971 0.55416 0.0
H1348 H 0.99859 0.2941 0.74238 0.0
H1349 H 0.97091 0.19017 0.75042 0.0
H1350 H 0.00809 0.30413 0.76398 0.0
H1351 H 0.98155 0.19967 0.77208 0.0
H1352 H 0.97608 0.23757 0.81136 0.0
H1353 H 0.96624 0.22749 0.7899 0.0
H1354 H 0.04073 0.29199 0.7802 0.0
H1355 H 0.04985 0.30335 0.80191 0.0
C1356 C 0.99451 0.2733 0.74878 0.0
C1357 C 0.98388 0.2413 0.74464 0.0
C1358 C 1.00031 0.27897 0.7612 0.0
C1359 C 0.99597 0.2527 0.76989 0.0
C1360 C 0.98487 0.22078 0.76575 0.0
C1361 C 0.97874 0.21523 0.7533 0.0
C1362 C 0.99056 0.2496 0.8047 0.0
C1363 C 0.01385 0.27136 0.80845 0.0
C1364 C 0.98495 0.24356 0.7923 0.0
C1365 C 0.00262 0.25877 0.78318 0.0
C1366 C 0.02625 0.2802 0.78691 0.0
C1367 C 0.0317 0.28656 0.79938 0.0
H1368 H 0.02679 0.77802 0.24073 0.0
H1369 H 0.95307 0.71194 0.24996 0.0
H1370 H 0.03711 0.7869 0.26219 0.0
H1371 H 0.96261 0.72216 0.27172 0.0
H1372 H 0.00405 0.72032 0.30969 0.0
H1373 H 0.99481 0.71019 0.28806 0.0
H1374 H 0.02204 0.81444 0.27996 0.0
H1375 H 0.03251 0.82393 0.30162 0.0
C1376 C 0.01242 0.76567 0.24735 0.0
C1377 C 0.98894 0.74429 0.24354 0.0
C1378 C 0.0183 0.77101 0.25976 0.0
C1379 C 1.00069 0.75553 0.26884 0.0
C1380 C 0.97702 0.73421 0.26505 0.0
C1381 C 0.97134 0.72848 0.25255 0.0
C1382 C 0.00838 0.74101 0.30327 0.0
C1383 C 0.01916 0.77295 0.30741 0.0
C1384 C 0.00272 0.73529 0.29084 0.0
C1385 C 0.00731 0.76149 0.28214 0.0
C1386 C 0.01856 0.79335 0.28628 0.0
C1387 C 0.0246 0.7989 0.29874 0.0
H1388 H 0.97148 0.53922 0.99011 0.0
H1389 H 0.04437 0.47182 0.9993 0.0
H1390 H 0.96184 0.54889 1.01166 0.0
H1391 H 0.03532 0.4825 1.02104 0.0
H1392 H 0.99173 0.4777 0.05849 0.0
H1393 H 1.00103 0.46923 0.03681 0.0
H1394 H 0.97833 0.57552 0.02988 0.0
H1395 H 0.96812 0.58369 0.05168 0.0
C1396 C 0.98577 0.5267 0.99673 0.0
C1397 C 0.00872 0.50457 0.99289 0.0
C1398 C 0.98029 0.53249 1.00916 0.0
C1399 C 0.99766 0.51649 1.0182 0.0
C1400 C 0.02106 0.49486 1.01438 0.0
C1401 C 0.02647 0.48889 1.00189 0.0
C1402 C 0.98846 0.49928 0.05235 0.0
C1403 C 0.97914 0.53143 0.05687 0.0
C1404 C 0.99415 0.49448 0.03988 0.0
C1405 C 0.99091 0.52174 0.03151 0.0
C1406 C 0.98089 0.55377 0.03599 0.0
C1407 C 0.97496 0.55852 0.04851 0.0
H1408 H 0.58157 0.04407 0.11549 0.0
H1409 H 0.54205 0.1397 0.10357 0.0
H1410 H 0.62864 0.07398 0.11883 0.0
H1411 H 0.5888 0.16896 0.10638 0.0
H1412 H 0.67437 0.22067 0.11457 0.0
H1413 H 0.62742 0.19112 0.11865 0.0
H1414 H 0.66559 0.09587 0.10568 0.0
H1415 H 0.71218 0.12473 0.1021 0.0
C1416 C 0.58278 0.07146 0.11373 0.0
C1417 C 0.55812 0.08926 0.10907 0.0
C1418 C 0.60981 0.08863 0.11556 0.0
C1419 C 0.61278 0.12393 0.11272 0.0
C1420 C 0.58752 0.14197 0.1088 0.0
C1421 C 0.56063 0.12494 0.10704 0.0
C1422 C 0.67281 0.19332 0.11281 0.0
C1423 C 0.69696 0.1753 0.10783 0.0
C1424 C 0.64585 0.17634 0.11509 0.0
C1425 C 0.64247 0.14103 0.11239 0.0
C1426 C 0.66722 0.12285 0.10803 0.0
C1427 C 0.69401 0.13967 0.10583 0.0
H1428 H 0.5441 0.13551 0.19393 0.0
H1429 H 0.5867 0.23422 0.18927 0.0
H1430 H 0.59123 0.10673 0.19146 0.0
H1431 H 0.63429 0.20505 0.18629 0.0
H1432 H 0.71207 0.14571 0.20435 0.0
H1433 H 0.66697 0.1769 0.20001 0.0
H1434 H 0.63321 0.08945 0.17996 0.0
H1435 H 0.67855 0.05741 0.18474 0.0
C1436 C 0.5635 0.15113 0.1921 0.0
C1437 C 0.56167 0.1873 0.19207 0.0
C1438 C 0.59064 0.13446 0.19054 0.0
C1439 C 0.61681 0.15344 0.18883 0.0
C1440 C 0.61467 0.18959 0.18785 0.0
C1441 C 0.58737 0.20637 0.18946 0.0
C1442 C 0.69523 0.13305 0.19891 0.0
C1443 C 0.69879 0.0987 0.19509 0.0
C1444 C 0.66935 0.15126 0.19627 0.0
C1445 C 0.64619 0.1358 0.18968 0.0
C1446 C 0.65038 0.10205 0.18524 0.0
C1447 C 0.67641 0.08367 0.18792 0.0
H1448 H 0.42324 0.9706 0.93587 0.0
H1449 H 0.46059 0.87624 0.95007 0.0
H1450 H 0.37741 0.93979 0.93087 0.0
H1451 H 0.4151 0.8461 0.94552 0.0
H1452 H 0.33332 0.79212 0.93507 0.0
H1453 H 0.37992 0.823 0.93163 0.0
H1454 H 0.33799 0.91774 0.94302 0.0
H1455 H 0.29172 0.88743 0.94597 0.0
C1456 C 0.42185 0.94329 0.93778 0.0
C1457 C 0.44539 0.92609 0.94357 0.0
C1458 C 0.39556 0.92562 0.93497 0.0
C1459 C 0.39234 0.89042 0.9379 0.0
C1460 C 0.41668 0.87298 0.94298 0.0
C1461 C 0.44278 0.89052 0.94575 0.0
C1462 C 0.33395 0.81967 0.93653 0.0
C1463 C 0.30896 0.83712 0.94103 0.0
C1464 C 0.36069 0.83738 0.93465 0.0
C1465 C 0.36294 0.87286 0.93724 0.0
C1466 C 0.33724 0.89058 0.94083 0.0
C1467 C 0.31066 0.87299 0.94267 0.0
H1468 H 0.46116 0.89822 0.8483 0.0
H1469 H 0.42717 0.80692 0.86605 0.0
H1470 H 0.41516 0.92793 0.85231 0.0
H1471 H 0.38089 0.83745 0.87051 0.0
H1472 H 0.29247 0.88316 0.85581 0.0
H1473 H 0.33986 0.85518 0.85854 0.0
H1474 H 0.38066 0.9537 0.86581 0.0
H1475 H 0.33283 0.98214 0.86256 0.0
C1476 C 0.44401 0.88456 0.85327 0.0
C1477 C 0.44773 0.84985 0.85665 0.0
C1478 C 0.4176 0.90191 0.85572 0.0
C1479 C 0.39406 0.88518 0.86168 0.0
C1480 C 0.39837 0.85101 0.86571 0.0
C1481 C 0.42493 0.83351 0.86321 0.0
C1482 C 0.31142 0.89899 0.85813 0.0
C1483 C 0.30891 0.93507 0.8587 0.0
C1484 C 0.33869 0.88276 0.85985 0.0
C1485 C 0.36433 0.90208 0.86226 0.0
C1486 C 0.36147 0.93802 0.86372 0.0
C1487 C 0.33403 0.95437 0.86194 0.0
H1488 H 0.67429 0.72266 0.61312 0.0
H1489 H 0.71337 0.62615 0.60194 0.0
H1490 H 0.62695 0.69328 0.61652 0.0
H1491 H 0.66642 0.59744 0.60482 0.0
H1492 H 0.58083 0.54652 0.61346 0.0
H1493 H 0.62783 0.57615 0.61729 0.0
H1494 H 0.58986 0.6708 0.60358 0.0
H1495 H 0.54319 0.64188 0.60026 0.0
C1496 C 0.67292 0.69521 0.61152 0.0
C1497 C 0.69755 0.67698 0.60707 0.0
C1498 C 0.64574 0.67834 0.61339 0.0
C1499 C 0.64262 0.64293 0.61081 0.0
C1500 C 0.66782 0.62452 0.60705 0.0
C1501 C 0.69483 0.64125 0.60525 0.0
C1502 C 0.58244 0.57377 0.61148 0.0
C1503 C 0.55831 0.59158 0.60637 0.0
C1504 C 0.60943 0.59078 0.61361 0.0
C1505 C 0.61288 0.62593 0.61063 0.0
C1506 C 0.58817 0.64395 0.60615 0.0
C1507 C 0.56133 0.62709 0.60409 0.0
H1508 H 0.54177 0.62354 0.7006 0.0
H1509 H 0.57859 0.71643 0.68503 0.0
H1510 H 0.58802 0.59366 0.69701 0.0
H1511 H 0.62514 0.68593 0.68106 0.0
H1512 H 0.71078 0.63792 0.69783 0.0
H1513 H 0.66391 0.66652 0.69429 0.0
H1514 H 0.62461 0.56965 0.68365 0.0
H1515 H 0.67186 0.54054 0.6876 0.0
C1516 C 0.55961 0.63748 0.69617 0.0
C1517 C 0.55662 0.67264 0.69332 0.0
C1518 C 0.58615 0.62011 0.69398 0.0
C1519 C 0.61054 0.63735 0.68884 0.0
C1520 C 0.60695 0.67198 0.68522 0.0
C1521 C 0.58024 0.68945 0.68743 0.0
C1522 C 0.6923 0.62263 0.69458 0.0
C1523 C 0.69496 0.58674 0.69323 0.0
C1524 C 0.66538 0.63923 0.6924 0.0
C1525 C 0.64027 0.62046 0.68878 0.0
C1526 C 0.64339 0.58485 0.68663 0.0
C1527 C 0.6705 0.56815 0.68882 0.0
H1528 H 0.4241 0.46742 0.4351 0.0
H1529 H 0.46245 0.3741 0.44968 0.0
H1530 H 0.37757 0.43666 0.43136 0.0
H1531 H 0.41624 0.34393 0.44631 0.0
H1532 H 0.29364 0.3874 0.44917 0.0
H1533 H 0.34006 0.41642 0.44513 0.0
H1534 H 0.37872 0.3204 0.43319 0.0
H1535 H 0.33189 0.29085 0.4376 0.0
C1536 C 0.42279 0.44029 0.43731 0.0
C1537 C 0.44681 0.42343 0.44289 0.0
C1538 C 0.3961 0.42267 0.43524 0.0
C1539 C 0.39296 0.38785 0.43867 0.0
C1540 C 0.41776 0.37055 0.44344 0.0
C1541 C 0.44427 0.38808 0.44551 0.0
C1542 C 0.31187 0.3724 0.44554 0.0
C1543 C 0.3092 0.3366 0.44394 0.0
C1544 C 0.33851 0.38924 0.44307 0.0
C1545 C 0.36333 0.37081 0.43892 0.0
C1546 C 0.36015 0.33532 0.43655 0.0
C1547 C 0.3333 0.31837 0.43902 0.0
H1548 H 0.46806 0.38556 0.36239 0.0
H1549 H 0.415 0.2959 0.35466 0.0
H1550 H 0.42337 0.4192 0.36596 0.0
H1551 H 0.37003 0.32982 0.35744 0.0
H1552 H 0.29079 0.39235 0.36584 0.0
H1553 H 0.33636 0.36005 0.36914 0.0
H1554 H 0.38681 0.44545 0.3545 0.0
H1555 H 0.34114 0.47829 0.35199 0.0
C1556 C 0.4467 0.37299 0.36158 0.0
C1557 C 0.44494 0.33816 0.35821 0.0
C1558 C 0.42101 0.39238 0.36349 0.0
C1559 C 0.39281 0.37767 0.36178 0.0
C1560 C 0.39118 0.3422 0.35901 0.0
C1561 C 0.41698 0.3226 0.35737 0.0
C1562 C 0.31179 0.40446 0.36365 0.0
C1563 C 0.31251 0.43778 0.35865 0.0
C1564 C 0.33794 0.38578 0.36539 0.0
C1565 C 0.36549 0.39961 0.36186 0.0
C1566 C 0.36622 0.43383 0.35748 0.0
C1567 C 0.34002 0.45282 0.356 0.0
H1568 H 0.07491 0.05666 0.61731 0.0
H1569 H 0.04105 0.14531 0.59791 0.0
H1570 H 0.12052 0.08842 0.62183 0.0
H1571 H 0.08642 0.17622 0.60198 0.0
H1572 H 0.16718 0.23315 0.6126 0.0
H1573 H 0.1195 0.20412 0.61557 0.0
H1574 H 0.16226 0.10573 0.61021 0.0
H1575 H 0.20946 0.13435 0.60774 0.0
C1576 C 0.07703 0.08293 0.61411 0.0
C1577 C 0.05444 0.09814 0.60709 0.0
C1578 C 0.10322 0.10114 0.61665 0.0
C1579 C 0.10739 0.13493 0.61219 0.0
C1580 C 0.08407 0.15055 0.60573 0.0
C1581 C 0.05803 0.1325 0.60325 0.0
C1582 C 0.16642 0.20531 0.61236 0.0
C1583 C 0.19206 0.18619 0.60971 0.0
C1584 C 0.13907 0.18861 0.61396 0.0
C1585 C 0.13682 0.15248 0.61294 0.0
C1586 C 0.16294 0.13344 0.61116 0.0
C1587 C 0.19011 0.15003 0.6096 0.0
H1588 H 0.21179 0.13886 0.69905 0.0
H1589 H 0.17223 0.04465 0.68591 0.0
H1590 H 0.16559 0.169 0.69588 0.0
H1591 H 0.1257 0.07549 0.68222 0.0
H1592 H 0.04206 0.12609 0.69912 0.0
H1593 H 0.08835 0.09679 0.69536 0.0
H1594 H 0.12779 0.1925 0.68341 0.0
H1595 H 0.08113 0.22244 0.68769 0.0
C1596 C 0.19333 0.12464 0.69524 0.0
C1597 C 0.19559 0.08906 0.69299 0.0
C1598 C 0.16677 0.14218 0.69326 0.0
C1599 C 0.14163 0.12475 0.68891 0.0
C1600 C 0.14445 0.08964 0.68582 0.0
C1601 C 0.17116 0.07195 0.68785 0.0
C1602 C 0.06044 0.14103 0.69558 0.0
C1603 C 0.05797 0.17688 0.69395 0.0
C1604 C 0.08706 0.12398 0.69326 0.0
C1605 C 0.11208 0.14216 0.68916 0.0
C1606 C 0.10913 0.17772 0.68677 0.0
C1607 C 0.08235 0.19491 0.68915 0.0
H1608 H 0.95843 0.88172 0.44602 0.0
H1609 H 0.91736 0.98026 0.43903 0.0
H1610 H 0.91151 0.85313 0.44277 0.0
H1611 H 0.87 0.95121 0.43532 0.0
H1612 H 0.82563 0.80359 0.43446 0.0
H1613 H 0.87134 0.83542 0.43018 0.0
H1614 H 0.83528 0.92433 0.44868 0.0
H1615 H 0.78979 0.89325 0.45254 0.0
C1616 C 0.93944 0.89732 0.44354 0.0
C1617 C 0.94156 0.93343 0.44304 0.0
C1618 C 0.91246 0.88075 0.44152 0.0
C1619 C 0.88675 0.89977 0.4389 0.0
C1620 C 0.88926 0.93577 0.43754 0.0
C1621 C 0.91642 0.95245 0.43959 0.0
C1622 C 0.82732 0.83015 0.43737 0.0
C1623 C 0.80424 0.84561 0.44403 0.0
C1624 C 0.85355 0.84838 0.43498 0.0
C1625 C 0.85723 0.88242 0.4392 0.0
C1626 C 0.83332 0.8984 0.44516 0.0
C1627 C 0.80723 0.8803 0.44752 0.0
H1628 H 0.92235 0.79587 0.36468 0.0
H1629 H 0.95914 0.89072 0.35064 0.0
H1630 H 0.87558 0.82569 0.36888 0.0
H1631 H 0.91272 0.9198 0.35434 0.0
H1632 H 0.82904 0.97215 0.36412 0.0
H1633 H 0.87633 0.94272 0.36758 0.0
H1634 H 0.8364 0.84652 0.35654 0.0
H1635 H 0.78949 0.87535 0.3536 0.0
C1636 C 0.92061 0.82305 0.36261 0.0
C1637 C 0.94438 0.84065 0.35713 0.0
C1638 C 0.89376 0.84017 0.36495 0.0
C1639 C 0.89014 0.8752 0.36184 0.0
C1640 C 0.91457 0.89305 0.35702 0.0
C1641 C 0.94124 0.87609 0.35474 0.0
C1642 C 0.83029 0.94462 0.3627 0.0
C1643 C 0.80558 0.92632 0.35837 0.0
C1644 C 0.85743 0.92772 0.3646 0.0
C1645 C 0.86042 0.8922 0.36218 0.0
C1646 C 0.83511 0.87371 0.35863 0.0
C1647 C 0.80813 0.89048 0.35679 0.0
H1648 H 0.21359 0.63672 0.11294 0.0
H1649 H 0.16394 0.72614 0.10166 0.0
H1650 H 0.16767 0.60523 0.11632 0.0
H1651 H 0.11781 0.69422 0.1043 0.0
H1652 H 0.03614 0.63573 0.11305 0.0
H1653 H 0.08206 0.66742 0.11615 0.0
H1654 H 0.13191 0.57792 0.10469 0.0
H1655 H 0.08581 0.54586 0.10232 0.0
C1656 C 0.1927 0.64973 0.11131 0.0
C1657 C 0.19228 0.68383 0.10701 0.0
C1658 C 0.16633 0.63155 0.11311 0.0
C1659 C 0.13878 0.64671 0.11038 0.0
C1660 C 0.13841 0.68157 0.10667 0.0
C1661 C 0.16488 0.70001 0.10512 0.0
C1662 C 0.05702 0.62266 0.11148 0.0
C1663 C 0.05745 0.58836 0.10741 0.0
C1664 C 0.0834 0.64096 0.11312 0.0
C1665 C 0.11094 0.62569 0.11046 0.0
C1666 C 0.11132 0.59067 0.10699 0.0
C1667 C 0.08486 0.57214 0.1056 0.0
H1668 H 0.03497 0.63685 0.18645 0.0
H1669 H 0.08803 0.7244 0.19677 0.0
H1670 H 0.07968 0.6032 0.1829 0.0
H1671 H 0.13292 0.69036 0.19405 0.0
H1672 H 0.21246 0.62786 0.18624 0.0
H1673 H 0.16771 0.66139 0.18264 0.0
H1674 H 0.11463 0.57461 0.19438 0.0
H1675 H 0.15957 0.54065 0.19715 0.0
C1676 C 0.05635 0.64898 0.18781 0.0
C1677 C 0.05811 0.68319 0.1919 0.0
C1678 C 0.08204 0.62956 0.18593 0.0
C1679 C 0.11018 0.64356 0.18841 0.0
C1680 C 0.11185 0.67854 0.19187 0.0
C1681 C 0.08609 0.69822 0.19347 0.0
C1682 C 0.1911 0.61578 0.18773 0.0
C1683 C 0.18941 0.58171 0.19199 0.0
C1684 C 0.16539 0.63514 0.18582 0.0
C1685 C 0.13728 0.62122 0.18844 0.0
C1686 C 0.13566 0.58636 0.19209 0.0
C1687 C 0.16146 0.56673 0.19372 0.0
H1688 H 0.83033 0.29527 0.93599 0.0
H1689 H 0.79154 0.39023 0.94883 0.0
H1690 H 0.87677 0.32575 0.93169 0.0
H1691 H 0.83761 0.42021 0.94488 0.0
H1692 H 0.92143 0.47263 0.93535 0.0
H1693 H 0.87508 0.44189 0.93118 0.0
H1694 H 0.91395 0.34828 0.94533 0.0
H1695 H 0.95995 0.37849 0.94917 0.0
C1696 C 0.83152 0.32268 0.93768 0.0
C1697 C 0.80744 0.34016 0.94296 0.0
C1698 C 0.85813 0.34015 0.93528 0.0
C1699 C 0.86108 0.37542 0.93807 0.0
C1700 C 0.83621 0.39321 0.9425 0.0
C1701 C 0.80979 0.37583 0.94492 0.0
C1702 C 0.9202 0.44533 0.93729 0.0
C1703 C 0.94417 0.42819 0.9428 0.0
C1704 C 0.89363 0.42773 0.93496 0.0
C1705 C 0.89063 0.39264 0.93805 0.0
C1706 C 0.9154 0.37512 0.94272 0.0
C1707 C 0.94177 0.39265 0.94507 0.0
H1708 H 0.92184 0.29785 0.86629 0.0
H1709 H 0.95993 0.39152 0.85186 0.0
H1710 H 0.87546 0.32861 0.87034 0.0
H1711 H 0.91386 0.42161 0.85546 0.0
H1712 H 0.83033 0.47525 0.86478 0.0
H1713 H 0.87723 0.44531 0.86867 0.0
H1714 H 0.83705 0.34946 0.85742 0.0
H1715 H 0.79055 0.37883 0.85399 0.0
C1716 C 0.92048 0.32501 0.86412 0.0
C1717 C 0.94445 0.34198 0.85855 0.0
C1718 C 0.89387 0.34265 0.86638 0.0
C1719 C 0.8907 0.37761 0.86311 0.0
C1720 C 0.91538 0.39491 0.85825 0.0
C1721 C 0.94183 0.3774 0.85603 0.0
C1722 C 0.83143 0.44768 0.86342 0.0
C1723 C 0.80684 0.42961 0.85886 0.0
C1724 C 0.85834 0.4305 0.86557 0.0
C1725 C 0.86113 0.39493 0.86322 0.0
C1726 C 0.83586 0.37669 0.85946 0.0
C1727 C 0.80915 0.39374 0.85734 0.0
loop_
_geom_bond_atom_site_label_1
_geom_bond_atom_site_label_2
_geom_bond_distance
_geom_bond_site_symmetry_2
_ccdc_geom_bond_type
O0 Cd1 2.223 . S
O0 C8 1.315 . S
Cd1 O0 2.223 . S
Cd1 O4 2.297 1_545 S
Cd1 O5 2.439 1_545 S
Cd1 O11 2.240 . S
Cd2 O3 2.240 . S
Cd2 O10 2.223 . S
Cd2 O12 2.297 . S
Cd2 O13 2.439 . S
O3 Cd2 2.240 . S
O3 C8 1.279 . S
O4 Cd1 2.297 1_565 S
O4 C6 1.247 . S
O5 Cd1 2.439 1_565 S
O5 C6 1.208 . S
C6 O4 1.247 . S
C6 O5 1.208 . S
C7 O12 1.247 . S
C7 O13 1.208 . S
C8 O0 1.315 . S
C8 O3 1.279 . S
C9 O10 1.315 . S
C9 O11 1.279 . S
O10 Cd2 2.223 . S
O10 C9 1.315 . S
O11 Cd1 2.240 . S
O11 C9 1.279 . S
O12 Cd2 2.297 . S
O12 C7 1.247 . S
O13 Cd2 2.439 . S
O13 C7 1.208 . S
O14 Cd15 2.223 . S
O14 C22 1.315 . S
Cd15 O14 2.223 . S
Cd15 O18 2.297 . S
Cd15 O19 2.439 . S
Cd15 O25 2.240 . S
Cd16 O17 2.240 . S
Cd16 O24 2.223 . S
Cd16 O26 2.297 . S
Cd16 O27 2.439 . S
O17 Cd16 2.240 . S
O17 C22 1.279 . S
O18 Cd15 2.297 . S
O18 C20 1.247 . S
O19 Cd15 2.439 . S
O19 C20 1.208 . S
C20 O18 1.247 . S
C20 O19 1.208 . S
C21 O26 1.247 . S
C21 O27 1.208 . S
C22 O14 1.315 . S
C22 O17 1.279 . S
C23 O24 1.315 . S
C23 O25 1.279 . S
O24 Cd16 2.223 . S
O24 C23 1.315 . S
O25 Cd15 2.240 . S
O25 C23 1.279 . S
O26 Cd16 2.297 . S
O26 C21 1.247 . S
O27 Cd16 2.439 . S
O27 C21 1.208 . S
O28 Cd29 2.223 . S
O28 C36 1.315 . S
Cd29 O28 2.223 . S
Cd29 O32 2.297 . S
Cd29 O33 2.439 . S
Cd29 O39 2.240 . S
Cd30 O31 2.240 . S
Cd30 O38 2.223 . S
Cd30 O40 2.297 . S
Cd30 O41 2.439 . S
O31 Cd30 2.240 . S
O31 C36 1.279 . S
O32 Cd29 2.297 . S
O32 C34 1.247 . S
O33 Cd29 2.439 . S
O33 C34 1.208 . S
C34 O32 1.247 . S
C34 O33 1.208 . S
C35 O40 1.247 . S
C35 O41 1.208 . S
C36 O28 1.315 . S
C36 O31 1.279 . S
C37 O38 1.315 . S
C37 O39 1.279 . S
O38 Cd30 2.223 . S
O38 C37 1.315 . S
O39 Cd29 2.240 . S
O39 C37 1.279 . S
O40 Cd30 2.297 . S
O40 C35 1.247 . S
O41 Cd30 2.439 . S
O41 C35 1.208 . S
O42 Cd43 2.223 . S
O42 C50 1.315 . S
Cd43 O42 2.223 . S
Cd43 O46 2.297 1_545 S
Cd43 O47 2.439 1_545 S
Cd43 O53 2.240 . S
Cd44 O45 2.240 . S
Cd44 O52 2.223 . S
Cd44 O54 2.297 . S
Cd44 O55 2.439 . S
O45 Cd44 2.240 . S
O45 C50 1.279 . S
O46 Cd43 2.297 1_565 S
O46 C48 1.247 . S
O47 Cd43 2.439 1_565 S
O47 C48 1.208 . S
C48 O46 1.247 . S
C48 O47 1.208 . S
C49 O54 1.247 . S
C49 O55 1.208 . S
C50 O42 1.315 . S
C50 O45 1.279 . S
C51 O52 1.315 . S
C51 O53 1.279 . S
O52 Cd44 2.223 . S
O52 C51 1.315 . S
O53 Cd43 2.240 . S
O53 C51 1.279 . S
O54 Cd44 2.297 . S
O54 C49 1.247 . S
O55 Cd44 2.439 . S
O55 C49 1.208 . S
O56 Cd57 2.223 . S
O56 C64 1.315 . S
Cd57 O56 2.223 . S
Cd57 O60 2.297 1_565 S
Cd57 O61 2.439 1_565 S
Cd57 O67 2.240 . S
Cd58 O59 2.240 . S
Cd58 O66 2.223 . S
Cd58 O68 2.297 . S
Cd58 O69 2.439 . S
O59 Cd58 2.240 . S
O59 C64 1.279 . S
O60 Cd57 2.297 1_545 S
O60 C62 1.247 . S
O61 Cd57 2.439 1_545 S
O61 C62 1.208 . S
C62 O60 1.247 . S
C62 O61 1.208 . S
C63 O68 1.247 . S
C63 O69 1.208 . S
C64 O56 1.315 . S
C64 O59 1.279 . S
C65 O66 1.315 . S
C65 O67 1.279 . S
O66 Cd58 2.223 . S
O66 C65 1.315 . S
O67 Cd57 2.240 . S
O67 C65 1.279 . S
O68 Cd58 2.297 . S
O68 C63 1.247 . S
O69 Cd58 2.439 . S
O69 C63 1.208 . S
O70 Cd71 2.223 . S
O70 C78 1.315 . S
Cd71 O70 2.223 . S
Cd71 O74 2.297 . S
Cd71 O75 2.439 . S
Cd71 O81 2.240 . S
Cd72 O73 2.240 . S
Cd72 O80 2.223 . S
Cd72 O82 2.297 . S
Cd72 O83 2.439 . S
O73 Cd72 2.240 . S
O73 C78 1.279 . S
O74 Cd71 2.297 . S
O74 C76 1.247 . S
O75 Cd71 2.439 . S
O75 C76 1.208 . S
C76 O74 1.247 . S
C76 O75 1.208 . S
C77 O82 1.247 . S
C77 O83 1.208 . S
C78 O70 1.315 . S
C78 O73 1.279 . S
C79 O80 1.315 . S
C79 O81 1.279 . S
O80 Cd72 2.223 . S
O80 C79 1.315 . S
O81 Cd71 2.240 . S
O81 C79 1.279 . S
O82 Cd72 2.297 . S
O82 C77 1.247 . S
O83 Cd72 2.439 . S
O83 C77 1.208 . S
O84 Cd85 2.223 . S
O84 C92 1.315 . S
Cd85 O84 2.223 . S
Cd85 O88 2.297 . S
Cd85 O89 2.439 . S
Cd85 O95 2.240 . S
Cd86 O87 2.240 . S
Cd86 O94 2.223 . S
Cd86 O96 2.297 . S
Cd86 O97 2.439 . S
O87 Cd86 2.240 . S
O87 C92 1.279 . S
O88 Cd85 2.297 . S
O88 C90 1.247 . S
O89 Cd85 2.439 . S
O89 C90 1.208 . S
C90 O88 1.247 . S
C90 O89 1.208 . S
C91 O96 1.247 . S
C91 O97 1.208 . S
C92 O84 1.315 . S
C92 O87 1.279 . S
C93 O94 1.315 . S
C93 O95 1.279 . S
O94 Cd86 2.223 . S
O94 C93 1.315 . S
O95 Cd85 2.240 . S
O95 C93 1.279 . S
O96 Cd86 2.297 . S
O96 C91 1.247 . S
O97 Cd86 2.439 . S
O97 C91 1.208 . S
O98 Cd99 2.223 . S
O98 C106 1.315 . S
Cd99 O98 2.223 . S
Cd99 O102 2.297 1_565 S
Cd99 O103 2.439 1_565 S
Cd99 O109 2.240 . S
Cd100 O101 2.240 . S
Cd100 O108 2.223 . S
Cd100 O110 2.297 . S
Cd100 O111 2.439 . S
O101 Cd100 2.240 . S
O101 C106 1.279 . S
O102 Cd99 2.297 1_545 S
O102 C104 1.247 . S
O103 Cd99 2.439 1_545 S
O103 C104 1.208 . S
C104 O102 1.247 . S
C104 O103 1.208 . S
C105 O110 1.247 . S
C105 O111 1.208 . S
C106 O98 1.315 . S
C106 O101 1.279 . S
C107 O108 1.315 . S
C107 O109 1.279 . S
O108 Cd100 2.223 . S
O108 C107 1.315 . S
O109 Cd99 2.240 . S
O109 C107 1.279 . S
O110 Cd100 2.297 . S
O110 C105 1.247 . S
O111 Cd100 2.439 . S
O111 C105 1.208 . S
O112 Cd113 2.223 . S
O112 C120 1.315 . S
Cd113 O112 2.223 . S
Cd113 O116 2.297 . S
Cd113 O117 2.439 . S
Cd113 O123 2.240 . S
Cd114 O115 2.240 . S
Cd114 O122 2.223 . S
Cd114 O124 2.297 . S
Cd114 O125 2.439 . S
O115 Cd114 2.240 . S
O115 C120 1.279 . S
O116 Cd113 2.297 . S
O116 C118 1.247 . S
O117 Cd113 2.439 . S
O117 C118 1.208 . S
C118 O116 1.247 . S
C118 O117 1.208 . S
C119 O124 1.247 . S
C119 O125 1.208 . S
C120 O112 1.315 . S
C120 O115 1.279 . S
C121 O122 1.315 . S
C121 O123 1.279 . S
O122 Cd114 2.223 . S
O122 C121 1.315 . S
O123 Cd113 2.240 . S
O123 C121 1.279 . S
O124 Cd114 2.297 . S
O124 C119 1.247 . S
O125 Cd114 2.439 . S
O125 C119 1.208 . S
O126 Cd127 2.223 . S
O126 C134 1.315 . S
Cd127 O126 2.223 . S
Cd127 O130 2.297 . S
Cd127 O131 2.439 . S
Cd127 O137 2.240 . S
Cd128 O129 2.240 . S
Cd128 O136 2.223 . S
Cd128 O138 2.297 . S
Cd128 O139 2.439 . S
O129 Cd128 2.240 . S
O129 C134 1.279 . S
O130 Cd127 2.297 . S
O130 C132 1.247 . S
O131 Cd127 2.439 . S
O131 C132 1.208 . S
C132 O130 1.247 . S
C132 O131 1.208 . S
C133 O138 1.247 . S
C133 O139 1.208 . S
C134 O126 1.315 . S
C134 O129 1.279 . S
C135 O136 1.315 . S
C135 O137 1.279 . S
O136 Cd128 2.223 . S
O136 C135 1.315 . S
O137 Cd127 2.240 . S
O137 C135 1.279 . S
O138 Cd128 2.297 . S
O138 C133 1.247 . S
O139 Cd128 2.439 . S
O139 C133 1.208 . S
O140 Cd141 2.223 . S
O140 C148 1.315 . S
Cd141 O140 2.223 . S
Cd141 O144 2.297 . S
Cd141 O145 2.439 . S
Cd141 O151 2.240 . S
Cd142 O143 2.240 . S
Cd142 O150 2.223 . S
Cd142 O152 2.297 . S
Cd142 O153 2.439 . S
O143 Cd142 2.240 . S
O143 C148 1.279 . S
O144 Cd141 2.297 . S
O144 C146 1.247 . S
O145 Cd141 2.439 . S
O145 C146 1.208 . S
C146 O144 1.247 . S
C146 O145 1.208 . S
C147 O152 1.247 . S
C147 O153 1.208 . S
C148 O140 1.315 . S
C148 O143 1.279 . S
C149 O150 1.315 . S
C149 O151 1.279 . S
O150 Cd142 2.223 . S
O150 C149 1.315 . S
O151 Cd141 2.240 . S
O151 C149 1.279 . S
O152 Cd142 2.297 . S
O152 C147 1.247 . S
O153 Cd142 2.439 . S
O153 C147 1.208 . S
O154 Cd155 2.223 . S
O154 C162 1.315 . S
Cd155 O154 2.223 . S
Cd155 O158 2.297 . S
Cd155 O159 2.439 . S
Cd155 O165 2.240 . S
Cd156 O157 2.240 . S
Cd156 O164 2.223 . S
Cd156 O166 2.297 . S
Cd156 O167 2.439 . S
O157 Cd156 2.240 . S
O157 C162 1.279 . S
O158 Cd155 2.297 . S
O158 C160 1.247 . S
O159 Cd155 2.439 . S
O159 C160 1.208 . S
C160 O158 1.247 . S
C160 O159 1.208 . S
C161 O166 1.247 . S
C161 O167 1.208 . S
C162 O154 1.315 . S
C162 O157 1.279 . S
C163 O164 1.315 . S
C163 O165 1.279 . S
O164 Cd156 2.223 . S
O164 C163 1.315 . S
O165 Cd155 2.240 . S
O165 C163 1.279 . S
O166 Cd156 2.297 . S
O166 C161 1.247 . S
O167 Cd156 2.439 . S
O167 C161 1.208 . S
O168 Cd169 2.223 . S
O168 C176 1.315 . S
Cd169 O168 2.223 . S
Cd169 O172 2.297 . S
Cd169 O173 2.439 . S
Cd169 O179 2.240 . S
Cd170 O171 2.240 . S
Cd170 O178 2.223 . S
Cd170 O180 2.297 . S
Cd170 O181 2.439 . S
O171 Cd170 2.240 . S
O171 C176 1.279 . S
O172 Cd169 2.297 . S
O172 C174 1.247 . S
O173 Cd169 2.439 . S
O173 C174 1.208 . S
C174 O172 1.247 . S
C174 O173 1.208 . S
C175 O180 1.247 . S
C175 O181 1.208 . S
C176 O168 1.315 . S
C176 O171 1.279 . S
C177 O178 1.315 . S
C177 O179 1.279 . S
O178 Cd170 2.223 . S
O178 C177 1.315 . S
O179 Cd169 2.240 . S
O179 C177 1.279 . S
O180 Cd170 2.297 . S
O180 C175 1.247 . S
O181 Cd170 2.439 . S
O181 C175 1.208 . S
O182 Cd183 2.223 . S
O182 C190 1.315 . S
Cd183 O182 2.223 . S
Cd183 O186 2.297 . S
Cd183 O187 2.439 . S
Cd183 O193 2.240 . S
Cd184 O185 2.240 . S
Cd184 O192 2.223 . S
Cd184 O194 2.297 . S
Cd184 O195 2.439 . S
O185 Cd184 2.240 . S
O185 C190 1.279 . S
O186 Cd183 2.297 . S
O186 C188 1.247 . S
O187 Cd183 2.439 . S
O187 C188 1.208 . S
C188 O186 1.247 . S
C188 O187 1.208 . S
C189 O194 1.247 . S
C189 O195 1.208 . S
C190 O182 1.315 . S
C190 O185 1.279 . S
C191 O192 1.315 . S
C191 O193 1.279 . S
O192 Cd184 2.223 . S
O192 C191 1.315 . S
O193 Cd183 2.240 . S
O193 C191 1.279 . S
O194 Cd184 2.297 . S
O194 C189 1.247 . S
O195 Cd184 2.439 . S
O195 C189 1.208 . S
O196 Cd197 2.223 . S
O196 C204 1.315 . S
Cd197 O196 2.223 . S
Cd197 O200 2.297 . S
Cd197 O201 2.439 . S
Cd197 O207 2.240 . S
Cd198 O199 2.240 . S
Cd198 O206 2.223 . S
Cd198 O208 2.297 . S
Cd198 O209 2.439 . S
O199 Cd198 2.240 . S
O199 C204 1.279 . S
O200 Cd197 2.297 . S
O200 C202 1.247 . S
O201 Cd197 2.439 . S
O201 C202 1.208 . S
C202 O200 1.247 . S
C202 O201 1.208 . S
C203 O208 1.247 . S
C203 O209 1.208 . S
C204 O196 1.315 . S
C204 O199 1.279 . S
C205 O206 1.315 . S
C205 O207 1.279 . S
O206 Cd198 2.223 . S
O206 C205 1.315 . S
O207 Cd197 2.240 . S
O207 C205 1.279 . S
O208 Cd198 2.297 . S
O208 C203 1.247 . S
O209 Cd198 2.439 . S
O209 C203 1.208 . S
O210 Cd211 2.223 . S
O210 C218 1.315 . S
Cd211 O210 2.223 . S
Cd211 O214 2.297 . S
Cd211 O215 2.439 . S
Cd211 O221 2.240 . S
Cd212 O213 2.240 . S
Cd212 O220 2.223 . S
Cd212 O222 2.297 . S
Cd212 O223 2.439 . S
O213 Cd212 2.240 . S
O213 C218 1.279 . S
O214 Cd211 2.297 . S
O214 C216 1.247 . S
O215 Cd211 2.439 . S
O215 C216 1.208 . S
C216 O214 1.247 . S
C216 O215 1.208 . S
C217 O222 1.247 . S
C217 O223 1.208 . S
C218 O210 1.315 . S
C218 O213 1.279 . S
C219 O220 1.315 . S
C219 O221 1.279 . S
O220 Cd212 2.223 . S
O220 C219 1.315 . S
O221 Cd211 2.240 . S
O221 C219 1.279 . S
O222 Cd212 2.297 . S
O222 C217 1.247 . S
O223 Cd212 2.439 . S
O223 C217 1.208 . S
O224 Cd225 2.223 . S
O224 C232 1.315 . S
Cd225 O224 2.223 . S
Cd225 O228 2.297 1_545 S
Cd225 O229 2.439 1_545 S
Cd225 O235 2.240 1_655 S
Cd226 O227 2.240 . S
Cd226 O234 2.223 1_655 S
Cd226 O236 2.297 . S
Cd226 O237 2.439 . S
O227 Cd226 2.240 . S
O227 C232 1.279 . S
O228 Cd225 2.297 1_565 S
O228 C230 1.247 . S
O229 Cd225 2.439 1_565 S
O229 C230 1.208 . S
C230 O228 1.247 . S
C230 O229 1.208 . S
C231 O236 1.247 . S
C231 O237 1.208 . S
C232 O224 1.315 . S
C232 O227 1.279 . S
C233 O234 1.315 . S
C233 O235 1.279 . S
O234 Cd226 2.223 1_455 S
O234 C233 1.315 . S
O235 Cd225 2.240 1_455 S
O235 C233 1.279 . S
O236 Cd226 2.297 . S
O236 C231 1.247 . S
O237 Cd226 2.439 . S
O237 C231 1.208 . S
O238 Cd239 2.223 . S
O238 C246 1.315 . S
Cd239 O238 2.223 . S
Cd239 O242 2.297 . S
Cd239 O243 2.439 . S
Cd239 O249 2.240 . S
Cd240 O241 2.240 . S
Cd240 O248 2.223 . S
Cd240 O250 2.297 . S
Cd240 O251 2.439 . S
O241 Cd240 2.240 . S
O241 C246 1.279 . S
O242 Cd239 2.297 . S
O242 C244 1.247 . S
O243 Cd239 2.439 . S
O243 C244 1.208 . S
C244 O242 1.247 . S
C244 O243 1.208 . S
C245 O250 1.247 . S
C245 O251 1.208 . S
C246 O238 1.315 . S
C246 O241 1.279 . S
C247 O248 1.315 . S
C247 O249 1.279 . S
O248 Cd240 2.223 . S
O248 C247 1.315 . S
O249 Cd239 2.240 . S
O249 C247 1.279 . S
O250 Cd240 2.297 . S
O250 C245 1.247 . S
O251 Cd240 2.439 . S
O251 C245 1.208 . S
O252 Cd253 2.223 . S
O252 C260 1.315 . S
Cd253 O252 2.223 . S
Cd253 O256 2.297 . S
Cd253 O257 2.439 . S
Cd253 O263 2.240 1_655 S
Cd254 O255 2.240 . S
Cd254 O262 2.223 1_655 S
Cd254 O264 2.297 . S
Cd254 O265 2.439 . S
O255 Cd254 2.240 . S
O255 C260 1.279 . S
O256 Cd253 2.297 . S
O256 C258 1.247 . S
O257 Cd253 2.439 . S
O257 C258 1.208 . S
C258 O256 1.247 . S
C258 O257 1.208 . S
C259 O264 1.247 . S
C259 O265 1.208 . S
C260 O252 1.315 . S
C260 O255 1.279 . S
C261 O262 1.315 . S
C261 O263 1.279 . S
O262 Cd254 2.223 1_455 S
O262 C261 1.315 . S
O263 Cd253 2.240 1_455 S
O263 C261 1.279 . S
O264 Cd254 2.297 . S
O264 C259 1.247 . S
O265 Cd254 2.439 . S
O265 C259 1.208 . S
O266 Cd267 2.223 . S
O266 C274 1.315 . S
Cd267 O266 2.223 . S
Cd267 O270 2.297 1_545 S
Cd267 O271 2.439 1_545 S
Cd267 O277 2.240 . S
Cd268 O269 2.240 . S
Cd268 O276 2.223 . S
Cd268 O278 2.297 . S
Cd268 O279 2.439 . S
O269 Cd268 2.240 . S
O269 C274 1.279 . S
O270 Cd267 2.297 1_565 S
O270 C272 1.247 . S
O271 Cd267 2.439 1_565 S
O271 C272 1.208 . S
C272 O270 1.247 . S
C272 O271 1.208 . S
C273 O278 1.247 . S
C273 O279 1.208 . S
C274 O266 1.315 . S
C274 O269 1.279 . S
C275 O276 1.315 . S
C275 O277 1.279 . S
O276 Cd268 2.223 . S
O276 C275 1.315 . S
O277 Cd267 2.240 . S
O277 C275 1.279 . S
O278 Cd268 2.297 . S
O278 C273 1.247 . S
O279 Cd268 2.439 . S
O279 C273 1.208 . S
O280 Cd281 2.223 . S
O280 C288 1.315 . S
Cd281 O280 2.223 . S
Cd281 O284 2.297 1_565 S
Cd281 O285 2.439 1_565 S
Cd281 O291 2.240 1_455 S
Cd282 O283 2.240 . S
Cd282 O290 2.223 1_455 S
Cd282 O292 2.297 . S
Cd282 O293 2.439 . S
O283 Cd282 2.240 . S
O283 C288 1.279 . S
O284 Cd281 2.297 1_545 S
O284 C286 1.247 . S
O285 Cd281 2.439 1_545 S
O285 C286 1.208 . S
C286 O284 1.247 . S
C286 O285 1.208 . S
C287 O292 1.247 . S
C287 O293 1.208 . S
C288 O280 1.315 . S
C288 O283 1.279 . S
C289 O290 1.315 . S
C289 O291 1.279 . S
O290 Cd282 2.223 1_655 S
O290 C289 1.315 . S
O291 Cd281 2.240 1_655 S
O291 C289 1.279 . S
O292 Cd282 2.297 . S
O292 C287 1.247 . S
O293 Cd282 2.439 . S
O293 C287 1.208 . S
O294 Cd295 2.223 . S
O294 C302 1.315 . S
Cd295 O294 2.223 . S
Cd295 O298 2.297 . S
Cd295 O299 2.439 . S
Cd295 O305 2.240 . S
Cd296 O297 2.240 . S
Cd296 O304 2.223 . S
Cd296 O306 2.297 . S
Cd296 O307 2.439 . S
O297 Cd296 2.240 . S
O297 C302 1.279 . S
O298 Cd295 2.297 . S
O298 C300 1.247 . S
O299 Cd295 2.439 . S
O299 C300 1.208 . S
C300 O298 1.247 . S
C300 O299 1.208 . S
C301 O306 1.247 . S
C301 O307 1.208 . S
C302 O294 1.315 . S
C302 O297 1.279 . S
C303 O304 1.315 . S
C303 O305 1.279 . S
O304 Cd296 2.223 . S
O304 C303 1.315 . S
O305 Cd295 2.240 . S
O305 C303 1.279 . S
O306 Cd296 2.297 . S
O306 C301 1.247 . S
O307 Cd296 2.439 . S
O307 C301 1.208 . S
O308 Cd309 2.223 . S
O308 C316 1.315 . S
Cd309 O308 2.223 . S
Cd309 O312 2.297 . S
Cd309 O313 2.439 . S
Cd309 O319 2.240 1_455 S
Cd310 O311 2.240 . S
Cd310 O318 2.223 1_455 S
Cd310 O320 2.297 . S
Cd310 O321 2.439 . S
O311 Cd310 2.240 . S
O311 C316 1.279 . S
O312 Cd309 2.297 . S
O312 C314 1.247 . S
O313 Cd309 2.439 . S
O313 C314 1.208 . S
C314 O312 1.247 . S
C314 O313 1.208 . S
C315 O320 1.247 . S
C315 O321 1.208 . S
C316 O308 1.315 . S
C316 O311 1.279 . S
C317 O318 1.315 . S
C317 O319 1.279 . S
O318 Cd310 2.223 1_655 S
O318 C317 1.315 . S
O319 Cd309 2.240 1_655 S
O319 C317 1.279 . S
O320 Cd310 2.297 . S
O320 C315 1.247 . S
O321 Cd310 2.439 . S
O321 C315 1.208 . S
O322 Cd323 2.223 . S
O322 C330 1.315 . S
Cd323 O322 2.223 . S
Cd323 O326 2.297 1_565 S
Cd323 O327 2.439 1_565 S
Cd323 O333 2.240 . S
Cd324 O325 2.240 . S
Cd324 O332 2.223 . S
Cd324 O334 2.297 . S
Cd324 O335 2.439 . S
O325 Cd324 2.240 . S
O325 C330 1.279 . S
O326 Cd323 2.297 1_545 S
O326 C328 1.247 . S
O327 Cd323 2.439 1_545 S
O327 C328 1.208 . S
C328 O326 1.247 . S
C328 O327 1.208 . S
C329 O334 1.247 . S
C329 O335 1.208 . S
C330 O322 1.315 . S
C330 O325 1.279 . S
C331 O332 1.315 . S
C331 O333 1.279 . S
O332 Cd324 2.223 . S
O332 C331 1.315 . S
O333 Cd323 2.240 . S
O333 C331 1.279 . S
O334 Cd324 2.297 . S
O334 C329 1.247 . S
O335 Cd324 2.439 . S
O335 C329 1.208 . S
O336 Cd337 2.223 . S
O336 C344 1.315 . S
Cd337 O336 2.223 . S
Cd337 O340 2.297 . S
Cd337 O341 2.439 . S
Cd337 O347 2.240 1_655 S
Cd338 O339 2.240 . S
Cd338 O346 2.223 1_655 S
Cd338 O348 2.297 . S
Cd338 O349 2.439 . S
O339 Cd338 2.240 . S
O339 C344 1.279 . S
O340 Cd337 2.297 . S
O340 C342 1.247 . S
O341 Cd337 2.439 . S
O341 C342 1.208 . S
C342 O340 1.247 . S
C342 O341 1.208 . S
C343 O348 1.247 . S
C343 O349 1.208 . S
C344 O336 1.315 . S
C344 O339 1.279 . S
C345 O346 1.315 . S
C345 O347 1.279 . S
O346 Cd338 2.223 1_455 S
O346 C345 1.315 . S
O347 Cd337 2.240 1_455 S
O347 C345 1.279 . S
O348 Cd338 2.297 . S
O348 C343 1.247 . S
O349 Cd338 2.439 . S
O349 C343 1.208 . S
O350 Cd351 2.223 . S
O350 C358 1.315 . S
Cd351 O350 2.223 . S
Cd351 O354 2.297 . S
Cd351 O355 2.439 . S
Cd351 O361 2.240 . S
Cd352 O353 2.240 . S
Cd352 O360 2.223 . S
Cd352 O362 2.297 . S
Cd352 O363 2.439 . S
O353 Cd352 2.240 . S
O353 C358 1.279 . S
O354 Cd351 2.297 . S
O354 C356 1.247 . S
O355 Cd351 2.439 . S
O355 C356 1.208 . S
C356 O354 1.247 . S
C356 O355 1.208 . S
C357 O362 1.247 . S
C357 O363 1.208 . S
C358 O350 1.315 . S
C358 O353 1.279 . S
C359 O360 1.315 . S
C359 O361 1.279 . S
O360 Cd352 2.223 . S
O360 C359 1.315 . S
O361 Cd351 2.240 . S
O361 C359 1.279 . S
O362 Cd352 2.297 . S
O362 C357 1.247 . S
O363 Cd352 2.439 . S
O363 C357 1.208 . S
O364 Cd365 2.223 . S
O364 C372 1.315 . S
Cd365 O364 2.223 . S
Cd365 O368 2.297 . S
Cd365 O369 2.439 . S
Cd365 O375 2.240 1_655 S
Cd366 O367 2.240 . S
Cd366 O374 2.223 1_655 S
Cd366 O376 2.297 . S
Cd366 O377 2.439 . S
O367 Cd366 2.240 . S
O367 C372 1.279 . S
O368 Cd365 2.297 . S
O368 C370 1.247 . S
O369 Cd365 2.439 . S
O369 C370 1.208 . S
C370 O368 1.247 . S
C370 O369 1.208 . S
C371 O376 1.247 . S
C371 O377 1.208 . S
C372 O364 1.315 . S
C372 O367 1.279 . S
C373 O374 1.315 . S
C373 O375 1.279 . S
O374 Cd366 2.223 1_455 S
O374 C373 1.315 . S
O375 Cd365 2.240 1_455 S
O375 C373 1.279 . S
O376 Cd366 2.297 . S
O376 C371 1.247 . S
O377 Cd366 2.439 . S
O377 C371 1.208 . S
O378 Cd379 2.223 . S
O378 C386 1.315 . S
Cd379 O378 2.223 . S
Cd379 O382 2.297 . S
Cd379 O383 2.439 . S
Cd379 O389 2.240 . S
Cd380 O381 2.240 . S
Cd380 O388 2.223 . S
Cd380 O390 2.297 . S
Cd380 O391 2.439 . S
O381 Cd380 2.240 . S
O381 C386 1.279 . S
O382 Cd379 2.297 . S
O382 C384 1.247 . S
O383 Cd379 2.439 . S
O383 C384 1.208 . S
C384 O382 1.247 . S
C384 O383 1.208 . S
C385 O390 1.247 . S
C385 O391 1.208 . S
C386 O378 1.315 . S
C386 O381 1.279 . S
C387 O388 1.315 . S
C387 O389 1.279 . S
O388 Cd380 2.223 . S
O388 C387 1.315 . S
O389 Cd379 2.240 . S
O389 C387 1.279 . S
O390 Cd380 2.297 . S
O390 C385 1.247 . S
O391 Cd380 2.439 . S
O391 C385 1.208 . S
O392 Cd393 2.223 . S
O392 C400 1.315 . S
Cd393 O392 2.223 . S
Cd393 O396 2.297 . S
Cd393 O397 2.439 . S
Cd393 O403 2.240 1_455 S
Cd394 O395 2.240 . S
Cd394 O402 2.223 1_455 S
Cd394 O404 2.297 . S
Cd394 O405 2.439 . S
O395 Cd394 2.240 . S
O395 C400 1.279 . S
O396 Cd393 2.297 . S
O396 C398 1.247 . S
O397 Cd393 2.439 . S
O397 C398 1.208 . S
C398 O396 1.247 . S
C398 O397 1.208 . S
C399 O404 1.247 . S
C399 O405 1.208 . S
C400 O392 1.315 . S
C400 O395 1.279 . S
C401 O402 1.315 . S
C401 O403 1.279 . S
O402 Cd394 2.223 1_655 S
O402 C401 1.315 . S
O403 Cd393 2.240 1_655 S
O403 C401 1.279 . S
O404 Cd394 2.297 . S
O404 C399 1.247 . S
O405 Cd394 2.439 . S
O405 C399 1.208 . S
O406 Cd407 2.223 . S
O406 C414 1.315 . S
Cd407 O406 2.223 . S
Cd407 O410 2.297 . S
Cd407 O411 2.439 . S
Cd407 O417 2.240 . S
Cd408 O409 2.240 . S
Cd408 O416 2.223 . S
Cd408 O418 2.297 . S
Cd408 O419 2.439 . S
O409 Cd408 2.240 . S
O409 C414 1.279 . S
O410 Cd407 2.297 . S
O410 C412 1.247 . S
O411 Cd407 2.439 . S
O411 C412 1.208 . S
C412 O410 1.247 . S
C412 O411 1.208 . S
C413 O418 1.247 . S
C413 O419 1.208 . S
C414 O406 1.315 . S
C414 O409 1.279 . S
C415 O416 1.315 . S
C415 O417 1.279 . S
O416 Cd408 2.223 . S
O416 C415 1.315 . S
O417 Cd407 2.240 . S
O417 C415 1.279 . S
O418 Cd408 2.297 . S
O418 C413 1.247 . S
O419 Cd408 2.439 . S
O419 C413 1.208 . S
O420 Cd421 2.223 . S
O420 C428 1.315 . S
Cd421 O420 2.223 . S
Cd421 O424 2.297 . S
Cd421 O425 2.439 . S
Cd421 O431 2.240 1_455 S
Cd422 O423 2.240 . S
Cd422 O430 2.223 1_455 S
Cd422 O432 2.297 . S
Cd422 O433 2.439 . S
O423 Cd422 2.240 . S
O423 C428 1.279 . S
O424 Cd421 2.297 . S
O424 C426 1.247 . S
O425 Cd421 2.439 . S
O425 C426 1.208 . S
C426 O424 1.247 . S
C426 O425 1.208 . S
C427 O432 1.247 . S
C427 O433 1.208 . S
C428 O420 1.315 . S
C428 O423 1.279 . S
C429 O430 1.315 . S
C429 O431 1.279 . S
O430 Cd422 2.223 1_655 S
O430 C429 1.315 . S
O431 Cd421 2.240 1_655 S
O431 C429 1.279 . S
O432 Cd422 2.297 . S
O432 C427 1.247 . S
O433 Cd422 2.439 . S
O433 C427 1.208 . S
O434 Cd435 2.223 . S
O434 C442 1.315 . S
Cd435 O434 2.223 . S
Cd435 O438 2.297 . S
Cd435 O439 2.439 . S
Cd435 O445 2.240 . S
Cd436 O437 2.240 . S
Cd436 O444 2.223 . S
Cd436 O446 2.297 . S
Cd436 O447 2.439 . S
O437 Cd436 2.240 . S
O437 C442 1.279 . S
O438 Cd435 2.297 . S
O438 C440 1.247 . S
O439 Cd435 2.439 . S
O439 C440 1.208 . S
C440 O438 1.247 . S
C440 O439 1.208 . S
C441 O446 1.247 . S
C441 O447 1.208 . S
C442 O434 1.315 . S
C442 O437 1.279 . S
C443 O444 1.315 . S
C443 O445 1.279 . S
O444 Cd436 2.223 . S
O444 C443 1.315 . S
O445 Cd435 2.240 . S
O445 C443 1.279 . S
O446 Cd436 2.297 . S
O446 C441 1.247 . S
O447 Cd436 2.439 . S
O447 C441 1.208 . S
H448 C456 0.950 . S
H449 C461 0.950 . S
H450 C458 0.950 . S
H451 C460 0.950 . S
H452 C462 0.950 . S
H453 C464 0.950 . S
H454 C466 0.950 . S
H455 C467 0.950 . S
C456 H448 0.950 . S
C456 C457 1.386 . S
C456 C458 1.391 . S
C457 C456 1.386 . S
C457 C461 1.393 . S
C458 H450 0.950 . S
C458 C456 1.391 . S
C458 C459 1.400 . S
C459 C458 1.400 . S
C459 C460 1.398 . S
C459 C465 1.491 . S
C460 H451 0.950 . S
C460 C459 1.398 . S
C460 C461 1.391 . S
C461 H449 0.950 . S
C461 C457 1.393 . S
C461 C460 1.391 . S
C462 H452 0.950 . S
C462 C463 1.386 . S
C462 C464 1.391 . S
C463 C462 1.386 . S
C463 C467 1.393 . S
C464 H453 0.950 . S
C464 C462 1.391 . S
C464 C465 1.400 . S
C465 C459 1.491 . S
C465 C464 1.400 . S
C465 C466 1.398 . S
C466 H454 0.950 . S
C466 C465 1.398 . S
C466 C467 1.391 . S
C467 H455 0.950 . S
C467 C463 1.393 . S
C467 C466 1.391 . S
H468 C476 0.950 . S
H469 C481 0.950 . S
H470 C478 0.950 . S
H471 C480 0.950 . S
H472 C482 0.950 . S
H473 C484 0.950 . S
H474 C486 0.950 . S
H475 C487 0.950 . S
C476 H468 0.950 . S
C476 C477 1.386 . S
C476 C478 1.391 . S
C477 C476 1.386 . S
C477 C481 1.393 . S
C478 H470 0.950 . S
C478 C476 1.391 . S
C478 C479 1.400 . S
C479 C478 1.400 . S
C479 C480 1.398 . S
C479 C485 1.491 . S
C480 H471 0.950 . S
C480 C479 1.398 . S
C480 C481 1.391 . S
C481 H469 0.950 . S
C481 C477 1.393 . S
C481 C480 1.391 . S
C482 H472 0.950 . S
C482 C483 1.386 . S
C482 C484 1.391 . S
C483 C482 1.386 . S
C483 C487 1.393 . S
C484 H473 0.950 . S
C484 C482 1.391 . S
C484 C485 1.400 . S
C485 C479 1.491 . S
C485 C484 1.400 . S
C485 C486 1.398 . S
C486 H474 0.950 . S
C486 C485 1.398 . S
C486 C487 1.391 . S
C487 H475 0.950 . S
C487 C483 1.393 . S
C487 C486 1.391 . S
H488 C496 0.950 . S
H489 C501 0.950 . S
H490 C498 0.950 . S
H491 C500 0.950 . S
H492 C502 0.950 . S
H493 C504 0.950 . S
H494 C506 0.950 . S
H495 C507 0.950 . S
C496 H488 0.950 . S
C496 C497 1.386 . S
C496 C498 1.391 . S
C497 C496 1.386 . S
C497 C501 1.393 . S
C498 H490 0.950 . S
C498 C496 1.391 . S
C498 C499 1.400 . S
C499 C498 1.400 . S
C499 C500 1.398 . S
C499 C505 1.491 . S
C500 H491 0.950 . S
C500 C499 1.398 . S
C500 C501 1.391 . S
C501 H489 0.950 . S
C501 C497 1.393 . S
C501 C500 1.391 . S
C502 H492 0.950 . S
C502 C503 1.386 . S
C502 C504 1.391 . S
C503 C502 1.386 . S
C503 C507 1.393 . S
C504 H493 0.950 . S
C504 C502 1.391 . S
C504 C505 1.400 . S
C505 C499 1.491 . S
C505 C504 1.400 . S
C505 C506 1.398 . S
C506 H494 0.950 . S
C506 C505 1.398 . S
C506 C507 1.391 . S
C507 H495 0.950 . S
C507 C503 1.393 . S
C507 C506 1.391 . S
H508 C516 0.950 . S
H509 C521 0.950 . S
H510 C518 0.950 . S
H511 C520 0.950 . S
H512 C522 0.950 . S
H513 C524 0.950 . S
H514 C526 0.950 . S
H515 C527 0.950 . S
C516 H508 0.950 . S
C516 C517 1.386 . S
C516 C518 1.391 . S
C517 C516 1.386 . S
C517 C521 1.393 . S
C518 H510 0.950 . S
C518 C516 1.391 . S
C518 C519 1.400 . S
C519 C518 1.400 . S
C519 C520 1.398 . S
C519 C525 1.491 . S
C520 H511 0.950 . S
C520 C519 1.398 . S
C520 C521 1.391 . S
C521 H509 0.950 . S
C521 C517 1.393 . S
C521 C520 1.391 . S
C522 H512 0.950 . S
C522 C523 1.386 . S
C522 C524 1.391 . S
C523 C522 1.386 . S
C523 C527 1.393 . S
C524 H513 0.950 . S
C524 C522 1.391 . S
C524 C525 1.400 . S
C525 C519 1.491 . S
C525 C524 1.400 . S
C525 C526 1.398 . S
C526 H514 0.950 . S
C526 C525 1.398 . S
C526 C527 1.391 . S
C527 H515 0.950 . S
C527 C523 1.393 . S
C527 C526 1.391 . S
H528 C536 0.950 . S
H529 C541 0.950 . S
H530 C538 0.950 . S
H531 C540 0.950 . S
H532 C542 0.950 . S
H533 C544 0.950 . S
H534 C546 0.950 . S
H535 C547 0.950 . S
C536 H528 0.950 . S
C536 C537 1.386 . S
C536 C538 1.391 . S
C537 C536 1.386 . S
C537 C541 1.393 . S
C538 H530 0.950 . S
C538 C536 1.391 . S
C538 C539 1.400 . S
C539 C538 1.400 . S
C539 C540 1.398 . S
C539 C545 1.491 . S
C540 H531 0.950 . S
C540 C539 1.398 . S
C540 C541 1.391 . S
C541 H529 0.950 . S
C541 C537 1.393 . S
C541 C540 1.391 . S
C542 H532 0.950 . S
C542 C543 1.386 . S
C542 C544 1.391 . S
C543 C542 1.386 . S
C543 C547 1.393 . S
C544 H533 0.950 . S
C544 C542 1.391 . S
C544 C545 1.400 . S
C545 C539 1.491 . S
C545 C544 1.400 . S
C545 C546 1.398 . S
C546 H534 0.950 . S
C546 C545 1.398 . S
C546 C547 1.391 . S
C547 H535 0.950 . S
C547 C543 1.393 . S
C547 C546 1.391 . S
H548 C556 0.950 . S
H549 C561 0.950 . S
H550 C558 0.950 . S
H551 C560 0.950 . S
H552 C562 0.950 . S
H553 C564 0.950 . S
H554 C566 0.950 . S
H555 C567 0.950 . S
C556 H548 0.950 . S
C556 C557 1.386 . S
C556 C558 1.391 . S
C557 C556 1.386 . S
C557 C561 1.393 . S
C558 H550 0.950 . S
C558 C556 1.391 . S
C558 C559 1.400 . S
C559 C558 1.400 . S
C559 C560 1.398 . S
C559 C565 1.491 . S
C560 H551 0.950 . S
C560 C559 1.398 . S
C560 C561 1.391 . S
C561 H549 0.950 . S
C561 C557 1.393 . S
C561 C560 1.391 . S
C562 H552 0.950 . S
C562 C563 1.386 . S
C562 C564 1.391 . S
C563 C562 1.386 . S
C563 C567 1.393 . S
C564 H553 0.950 . S
C564 C562 1.391 . S
C564 C565 1.400 . S
C565 C559 1.491 . S
C565 C564 1.400 . S
C565 C566 1.398 . S
C566 H554 0.950 . S
C566 C565 1.398 . S
C566 C567 1.391 . S
C567 H555 0.950 . S
C567 C563 1.393 . S
C567 C566 1.391 . S
H568 C576 0.950 . S
H569 C581 0.950 . S
H570 C578 0.950 . S
H571 C580 0.950 . S
H572 C582 0.950 . S
H573 C584 0.950 . S
H574 C586 0.950 . S
H575 C587 0.950 . S
C576 H568 0.950 . S
C576 C577 1.386 . S
C576 C578 1.391 . S
C577 C576 1.386 . S
C577 C581 1.393 . S
C578 H570 0.950 . S
C578 C576 1.391 . S
C578 C579 1.400 . S
C579 C578 1.400 . S
C579 C580 1.398 . S
C579 C585 1.491 . S
C580 H571 0.950 . S
C580 C579 1.398 . S
C580 C581 1.391 . S
C581 H569 0.950 . S
C581 C577 1.393 . S
C581 C580 1.391 . S
C582 H572 0.950 . S
C582 C583 1.386 . S
C582 C584 1.391 . S
C583 C582 1.386 . S
C583 C587 1.393 . S
C584 H573 0.950 . S
C584 C582 1.391 . S
C584 C585 1.400 . S
C585 C579 1.491 . S
C585 C584 1.400 . S
C585 C586 1.398 . S
C586 H574 0.950 . S
C586 C585 1.398 . S
C586 C587 1.391 . S
C587 H575 0.950 . S
C587 C583 1.393 . S
C587 C586 1.391 . S
H588 C596 0.950 . S
H589 C601 0.950 . S
H590 C598 0.950 . S
H591 C600 0.950 . S
H592 C602 0.950 . S
H593 C604 0.950 . S
H594 C606 0.950 . S
H595 C607 0.950 . S
C596 H588 0.950 . S
C596 C597 1.386 . S
C596 C598 1.391 . S
C597 C596 1.386 . S
C597 C601 1.393 . S
C598 H590 0.950 . S
C598 C596 1.391 . S
C598 C599 1.400 . S
C599 C598 1.400 . S
C599 C600 1.398 . S
C599 C605 1.491 . S
C600 H591 0.950 . S
C600 C599 1.398 . S
C600 C601 1.391 . S
C601 H589 0.950 . S
C601 C597 1.393 . S
C601 C600 1.391 . S
C602 H592 0.950 . S
C602 C603 1.386 . S
C602 C604 1.391 . S
C603 C602 1.386 . S
C603 C607 1.393 . S
C604 H593 0.950 . S
C604 C602 1.391 . S
C604 C605 1.400 . S
C605 C599 1.491 . S
C605 C604 1.400 . S
C605 C606 1.398 . S
C606 H594 0.950 . S
C606 C605 1.398 . S
C606 C607 1.391 . S
C607 H595 0.950 . S
C607 C603 1.393 . S
C607 C606 1.391 . S
H608 C616 0.950 . S
H609 C621 0.950 . S
H610 C618 0.950 . S
H611 C620 0.950 . S
H612 C622 0.950 . S
H613 C624 0.950 . S
H614 C626 0.950 . S
H615 C627 0.950 . S
C616 H608 0.950 . S
C616 C617 1.386 . S
C616 C618 1.391 . S
C617 C616 1.386 . S
C617 C621 1.393 . S
C618 H610 0.950 . S
C618 C616 1.391 . S
C618 C619 1.400 . S
C619 C618 1.400 . S
C619 C620 1.398 . S
C619 C625 1.491 . S
C620 H611 0.950 . S
C620 C619 1.398 . S
C620 C621 1.391 . S
C621 H609 0.950 . S
C621 C617 1.393 . S
C621 C620 1.391 . S
C622 H612 0.950 . S
C622 C623 1.386 . S
C622 C624 1.391 . S
C623 C622 1.386 . S
C623 C627 1.393 . S
C624 H613 0.950 . S
C624 C622 1.391 . S
C624 C625 1.400 . S
C625 C619 1.491 . S
C625 C624 1.400 . S
C625 C626 1.398 . S
C626 H614 0.950 . S
C626 C625 1.398 . S
C626 C627 1.391 . S
C627 H615 0.950 . S
C627 C623 1.393 . S
C627 C626 1.391 . S
H628 C636 0.950 . S
H629 C641 0.950 . S
H630 C638 0.950 . S
H631 C640 0.950 . S
H632 C642 0.950 . S
H633 C644 0.950 . S
H634 C646 0.950 . S
H635 C647 0.950 . S
C636 H628 0.950 . S
C636 C637 1.386 . S
C636 C638 1.391 . S
C637 C636 1.386 . S
C637 C641 1.393 . S
C638 H630 0.950 . S
C638 C636 1.391 . S
C638 C639 1.400 . S
C639 C638 1.400 . S
C639 C640 1.398 . S
C639 C645 1.491 . S
C640 H631 0.950 . S
C640 C639 1.398 . S
C640 C641 1.391 . S
C641 H629 0.950 . S
C641 C637 1.393 . S
C641 C640 1.391 . S
C642 H632 0.950 . S
C642 C643 1.386 . S
C642 C644 1.391 . S
C643 C642 1.386 . S
C643 C647 1.393 . S
C644 H633 0.950 . S
C644 C642 1.391 . S
C644 C645 1.400 . S
C645 C639 1.491 . S
C645 C644 1.400 . S
C645 C646 1.398 . S
C646 H634 0.950 . S
C646 C645 1.398 . S
C646 C647 1.391 . S
C647 H635 0.950 . S
C647 C643 1.393 . S
C647 C646 1.391 . S
H648 C656 0.950 . S
H649 C661 0.950 . S
H650 C658 0.950 . S
H651 C660 0.950 . S
H652 C662 0.950 . S
H653 C664 0.950 . S
H654 C666 0.950 . S
H655 C667 0.950 . S
C656 H648 0.950 . S
C656 C657 1.386 . S
C656 C658 1.391 . S
C657 C656 1.386 . S
C657 C661 1.393 . S
C658 H650 0.950 . S
C658 C656 1.391 . S
C658 C659 1.400 . S
C659 C658 1.400 . S
C659 C660 1.398 . S
C659 C665 1.491 . S
C660 H651 0.950 . S
C660 C659 1.398 . S
C660 C661 1.391 . S
C661 H649 0.950 . S
C661 C657 1.393 . S
C661 C660 1.391 . S
C662 H652 0.950 . S
C662 C663 1.386 . S
C662 C664 1.391 . S
C663 C662 1.386 . S
C663 C667 1.393 . S
C664 H653 0.950 . S
C664 C662 1.391 . S
C664 C665 1.400 . S
C665 C659 1.491 . S
C665 C664 1.400 . S
C665 C666 1.398 . S
C666 H654 0.950 . S
C666 C665 1.398 . S
C666 C667 1.391 . S
C667 H655 0.950 . S
C667 C663 1.393 . S
C667 C666 1.391 . S
H668 C676 0.950 . S
H669 C681 0.950 . S
H670 C678 0.950 . S
H671 C680 0.950 . S
H672 C682 0.950 . S
H673 C684 0.950 . S
H674 C686 0.950 . S
H675 C687 0.950 . S
C676 H668 0.950 . S
C676 C677 1.386 . S
C676 C678 1.391 . S
C677 C676 1.386 . S
C677 C681 1.393 . S
C678 H670 0.950 . S
C678 C676 1.391 . S
C678 C679 1.400 . S
C679 C678 1.400 . S
C679 C680 1.398 . S
C679 C685 1.491 . S
C680 H671 0.950 . S
C680 C679 1.398 . S
C680 C681 1.391 . S
C681 H669 0.950 . S
C681 C677 1.393 . S
C681 C680 1.391 . S
C682 H672 0.950 . S
C682 C683 1.386 . S
C682 C684 1.391 . S
C683 C682 1.386 . S
C683 C687 1.393 . S
C684 H673 0.950 . S
C684 C682 1.391 . S
C684 C685 1.400 . S
C685 C679 1.491 . S
C685 C684 1.400 . S
C685 C686 1.398 . S
C686 H674 0.950 . S
C686 C685 1.398 . S
C686 C687 1.391 . S
C687 H675 0.950 . S
C687 C683 1.393 . S
C687 C686 1.391 . S
H688 C696 0.950 . S
H689 C701 0.950 . S
H690 C698 0.950 . S
H691 C700 0.950 . S
H692 C702 0.950 . S
H693 C704 0.950 . S
H694 C706 0.950 . S
H695 C707 0.950 . S
C696 H688 0.950 . S
C696 C697 1.386 . S
C696 C698 1.391 . S
C697 C696 1.386 . S
C697 C701 1.393 . S
C698 H690 0.950 . S
C698 C696 1.391 . S
C698 C699 1.400 . S
C699 C698 1.400 . S
C699 C700 1.398 . S
C699 C705 1.491 . S
C700 H691 0.950 . S
C700 C699 1.398 . S
C700 C701 1.391 . S
C701 H689 0.950 . S
C701 C697 1.393 . S
C701 C700 1.391 . S
C702 H692 0.950 . S
C702 C703 1.386 . S
C702 C704 1.391 . S
C703 C702 1.386 . S
C703 C707 1.393 . S
C704 H693 0.950 . S
C704 C702 1.391 . S
C704 C705 1.400 . S
C705 C699 1.491 . S
C705 C704 1.400 . S
C705 C706 1.398 . S
C706 H694 0.950 . S
C706 C705 1.398 . S
C706 C707 1.391 . S
C707 H695 0.950 . S
C707 C703 1.393 . S
C707 C706 1.391 . S
H708 C716 0.950 . S
H709 C721 0.950 . S
H710 C718 0.950 . S
H711 C720 0.950 . S
H712 C722 0.950 . S
H713 C724 0.950 . S
H714 C726 0.950 . S
H715 C727 0.950 . S
C716 H708 0.950 . S
C716 C717 1.386 . S
C716 C718 1.391 . S
C717 C716 1.386 . S
C717 C721 1.393 . S
C718 H710 0.950 . S
C718 C716 1.391 . S
C718 C719 1.400 . S
C719 C718 1.400 . S
C719 C720 1.398 . S
C719 C725 1.491 . S
C720 H711 0.950 . S
C720 C719 1.398 . S
C720 C721 1.391 . S
C721 H709 0.950 . S
C721 C717 1.393 . S
C721 C720 1.391 . S
C722 H712 0.950 . S
C722 C723 1.386 . S
C722 C724 1.391 . S
C723 C722 1.386 . S
C723 C727 1.393 . S
C724 H713 0.950 . S
C724 C722 1.391 . S
C724 C725 1.400 . S
C725 C719 1.491 . S
C725 C724 1.400 . S
C725 C726 1.398 . S
C726 H714 0.950 . S
C726 C725 1.398 . S
C726 C727 1.391 . S
C727 H715 0.950 . S
C727 C723 1.393 . S
C727 C726 1.391 . S
H728 C736 0.950 . S
H729 C741 0.950 . S
H730 C738 0.950 . S
H731 C740 0.950 . S
H732 C742 0.950 . S
H733 C744 0.950 . S
H734 C746 0.950 . S
H735 C747 0.950 . S
C736 H728 0.950 . S
C736 C737 1.386 . S
C736 C738 1.391 . S
C737 C736 1.386 . S
C737 C741 1.393 . S
C738 H730 0.950 . S
C738 C736 1.391 . S
C738 C739 1.400 . S
C739 C738 1.400 . S
C739 C740 1.398 . S
C739 C745 1.491 . S
C740 H731 0.950 . S
C740 C739 1.398 . S
C740 C741 1.391 . S
C741 H729 0.950 . S
C741 C737 1.393 . S
C741 C740 1.391 . S
C742 H732 0.950 . S
C742 C743 1.386 . S
C742 C744 1.391 . S
C743 C742 1.386 . S
C743 C747 1.393 . S
C744 H733 0.950 . S
C744 C742 1.391 . S
C744 C745 1.400 . S
C745 C739 1.491 . S
C745 C744 1.400 . S
C745 C746 1.398 . S
C746 H734 0.950 . S
C746 C745 1.398 . S
C746 C747 1.391 . S
C747 H735 0.950 . S
C747 C743 1.393 . S
C747 C746 1.391 . S
H748 C756 0.950 . S
H749 C761 0.950 . S
H750 C758 0.950 . S
H751 C760 0.950 . S
H752 C762 0.950 . S
H753 C764 0.950 . S
H754 C766 0.950 . S
H755 C767 0.950 . S
C756 H748 0.950 . S
C756 C757 1.386 . S
C756 C758 1.391 . S
C757 C756 1.386 . S
C757 C761 1.393 . S
C758 H750 0.950 . S
C758 C756 1.391 . S
C758 C759 1.400 . S
C759 C758 1.400 . S
C759 C760 1.398 . S
C759 C765 1.491 . S
C760 H751 0.950 . S
C760 C759 1.398 . S
C760 C761 1.391 . S
C761 H749 0.950 . S
C761 C757 1.393 . S
C761 C760 1.391 . S
C762 H752 0.950 . S
C762 C763 1.386 . S
C762 C764 1.391 . S
C763 C762 1.386 . S
C763 C767 1.393 . S
C764 H753 0.950 . S
C764 C762 1.391 . S
C764 C765 1.400 . S
C765 C759 1.491 . S
C765 C764 1.400 . S
C765 C766 1.398 . S
C766 H754 0.950 . S
C766 C765 1.398 . S
C766 C767 1.391 . S
C767 H755 0.950 . S
C767 C763 1.393 . S
C767 C766 1.391 . S
H768 C776 0.950 . S
H769 C781 0.950 . S
H770 C778 0.950 . S
H771 C780 0.950 . S
H772 C782 0.950 . S
H773 C784 0.950 . S
H774 C786 0.950 . S
H775 C787 0.950 . S
C776 H768 0.950 . S
C776 C777 1.386 . S
C776 C778 1.391 . S
C777 C776 1.386 . S
C777 C781 1.393 . S
C778 H770 0.950 . S
C778 C776 1.391 . S
C778 C779 1.400 . S
C779 C778 1.400 . S
C779 C780 1.398 . S
C779 C785 1.491 . S
C780 H771 0.950 . S
C780 C779 1.398 . S
C780 C781 1.391 . S
C781 H769 0.950 . S
C781 C777 1.393 . S
C781 C780 1.391 . S
C782 H772 0.950 . S
C782 C783 1.386 . S
C782 C784 1.391 . S
C783 C782 1.386 . S
C783 C787 1.393 . S
C784 H773 0.950 . S
C784 C782 1.391 . S
C784 C785 1.400 . S
C785 C779 1.491 . S
C785 C784 1.400 . S
C785 C786 1.398 . S
C786 H774 0.950 . S
C786 C785 1.398 . S
C786 C787 1.391 . S
C787 H775 0.950 . S
C787 C783 1.393 . S
C787 C786 1.391 . S
H788 C796 0.950 . S
H789 C801 0.950 . S
H790 C798 0.950 . S
H791 C800 0.950 . S
H792 C802 0.950 . S
H793 C804 0.950 . S
H794 C806 0.950 . S
H795 C807 0.950 . S
C796 H788 0.950 . S
C796 C797 1.386 . S
C796 C798 1.391 . S
C797 C796 1.386 . S
C797 C801 1.393 . S
C798 H790 0.950 . S
C798 C796 1.391 . S
C798 C799 1.400 . S
C799 C798 1.400 . S
C799 C800 1.398 . S
C799 C805 1.491 . S
C800 H791 0.950 . S
C800 C799 1.398 . S
C800 C801 1.391 . S
C801 H789 0.950 . S
C801 C797 1.393 . S
C801 C800 1.391 . S
C802 H792 0.950 . S
C802 C803 1.386 . S
C802 C804 1.391 . S
C803 C802 1.386 . S
C803 C807 1.393 . S
C804 H793 0.950 . S
C804 C802 1.391 . S
C804 C805 1.400 . S
C805 C799 1.491 . S
C805 C804 1.400 . S
C805 C806 1.398 . S
C806 H794 0.950 . S
C806 C805 1.398 . S
C806 C807 1.391 . S
C807 H795 0.950 . S
C807 C803 1.393 . S
C807 C806 1.391 . S
H808 C816 0.950 . S
H809 C821 0.950 . S
H810 C818 0.950 . S
H811 C820 0.950 . S
H812 C822 0.950 . S
H813 C824 0.950 . S
H814 C826 0.950 . S
H815 C827 0.950 . S
C816 H808 0.950 . S
C816 C817 1.386 . S
C816 C818 1.391 . S
C817 C816 1.386 . S
C817 C821 1.393 . S
C818 H810 0.950 . S
C818 C816 1.391 . S
C818 C819 1.400 . S
C819 C818 1.400 . S
C819 C820 1.398 . S
C819 C825 1.491 . S
C820 H811 0.950 . S
C820 C819 1.398 . S
C820 C821 1.391 . S
C821 H809 0.950 . S
C821 C817 1.393 . S
C821 C820 1.391 . S
C822 H812 0.950 . S
C822 C823 1.386 . S
C822 C824 1.391 . S
C823 C822 1.386 . S
C823 C827 1.393 . S
C824 H813 0.950 . S
C824 C822 1.391 . S
C824 C825 1.400 . S
C825 C819 1.491 . S
C825 C824 1.400 . S
C825 C826 1.398 . S
C826 H814 0.950 . S
C826 C825 1.398 . S
C826 C827 1.391 . S
C827 H815 0.950 . S
C827 C823 1.393 . S
C827 C826 1.391 . S
H828 C836 0.950 . S
H829 C841 0.950 . S
H830 C838 0.950 . S
H831 C840 0.950 . S
H832 C842 0.950 . S
H833 C844 0.950 . S
H834 C846 0.950 . S
H835 C847 0.950 . S
C836 H828 0.950 . S
C836 C837 1.386 . S
C836 C838 1.391 . S
C837 C836 1.386 . S
C837 C841 1.393 . S
C838 H830 0.950 . S
C838 C836 1.391 . S
C838 C839 1.400 . S
C839 C838 1.400 . S
C839 C840 1.398 . S
C839 C845 1.491 . S
C840 H831 0.950 . S
C840 C839 1.398 . S
C840 C841 1.391 . S
C841 H829 0.950 . S
C841 C837 1.393 . S
C841 C840 1.391 . S
C842 H832 0.950 . S
C842 C843 1.386 . S
C842 C844 1.391 . S
C843 C842 1.386 . S
C843 C847 1.393 . S
C844 H833 0.950 . S
C844 C842 1.391 . S
C844 C845 1.400 . S
C845 C839 1.491 . S
C845 C844 1.400 . S
C845 C846 1.398 . S
C846 H834 0.950 . S
C846 C845 1.398 . S
C846 C847 1.391 . S
C847 H835 0.950 . S
C847 C843 1.393 . S
C847 C846 1.391 . S
H848 C856 0.950 . S
H849 C861 0.950 . S
H850 C858 0.950 . S
H851 C860 0.950 . S
H852 C862 0.950 . S
H853 C864 0.950 . S
H854 C866 0.950 . S
H855 C867 0.950 . S
C856 H848 0.950 . S
C856 C857 1.386 . S
C856 C858 1.391 . S
C857 C856 1.386 . S
C857 C861 1.393 . S
C858 H850 0.950 . S
C858 C856 1.391 . S
C858 C859 1.400 . S
C859 C858 1.400 . S
C859 C860 1.398 . S
C859 C865 1.491 . S
C860 H851 0.950 . S
C860 C859 1.398 . S
C860 C861 1.391 . S
C861 H849 0.950 . S
C861 C857 1.393 . S
C861 C860 1.391 . S
C862 H852 0.950 . S
C862 C863 1.386 . S
C862 C864 1.391 . S
C863 C862 1.386 . S
C863 C867 1.393 . S
C864 H853 0.950 . S
C864 C862 1.391 . S
C864 C865 1.400 . S
C865 C859 1.491 . S
C865 C864 1.400 . S
C865 C866 1.398 . S
C866 H854 0.950 . S
C866 C865 1.398 . S
C866 C867 1.391 . S
C867 H855 0.950 . S
C867 C863 1.393 . S
C867 C866 1.391 . S
H868 C876 0.950 . S
H869 C881 0.950 . S
H870 C878 0.950 . S
H871 C880 0.950 . S
H872 C882 0.950 . S
H873 C884 0.950 . S
H874 C886 0.950 . S
H875 C887 0.950 . S
C876 H868 0.950 . S
C876 C877 1.386 . S
C876 C878 1.391 . S
C877 C876 1.386 . S
C877 C881 1.393 . S
C878 H870 0.950 . S
C878 C876 1.391 . S
C878 C879 1.400 . S
C879 C878 1.400 . S
C879 C880 1.398 . S
C879 C885 1.491 . S
C880 H871 0.950 . S
C880 C879 1.398 . S
C880 C881 1.391 . S
C881 H869 0.950 . S
C881 C877 1.393 . S
C881 C880 1.391 . S
C882 H872 0.950 . S
C882 C883 1.386 . S
C882 C884 1.391 . S
C883 C882 1.386 . S
C883 C887 1.393 . S
C884 H873 0.950 . S
C884 C882 1.391 . S
C884 C885 1.400 . S
C885 C879 1.491 . S
C885 C884 1.400 . S
C885 C886 1.398 . S
C886 H874 0.950 . S
C886 C885 1.398 . S
C886 C887 1.391 . S
C887 H875 0.950 . S
C887 C883 1.393 . S
C887 C886 1.391 . S
H888 C896 0.950 . S
H889 C901 0.950 . S
H890 C898 0.950 . S
H891 C900 0.950 . S
H892 C902 0.950 . S
H893 C904 0.950 . S
H894 C906 0.950 . S
H895 C907 0.950 . S
C896 H888 0.950 . S
C896 C897 1.386 . S
C896 C898 1.391 . S
C897 C896 1.386 . S
C897 C901 1.393 . S
C898 H890 0.950 . S
C898 C896 1.391 . S
C898 C899 1.400 . S
C899 C898 1.400 . S
C899 C900 1.398 . S
C899 C905 1.491 . S
C900 H891 0.950 . S
C900 C899 1.398 . S
C900 C901 1.391 . S
C901 H889 0.950 . S
C901 C897 1.393 . S
C901 C900 1.391 . S
C902 H892 0.950 . S
C902 C903 1.386 . S
C902 C904 1.391 . S
C903 C902 1.386 . S
C903 C907 1.393 . S
C904 H893 0.950 . S
C904 C902 1.391 . S
C904 C905 1.400 . S
C905 C899 1.491 . S
C905 C904 1.400 . S
C905 C906 1.398 . S
C906 H894 0.950 . S
C906 C905 1.398 . S
C906 C907 1.391 . S
C907 H895 0.950 . S
C907 C903 1.393 . S
C907 C906 1.391 . S
H908 C916 0.950 . S
H909 C921 0.950 . S
H910 C918 0.950 . S
H911 C920 0.950 . S
H912 C922 0.950 . S
H913 C924 0.950 . S
H914 C926 0.950 . S
H915 C927 0.950 . S
C916 H908 0.950 . S
C916 C917 1.386 . S
C916 C918 1.391 . S
C917 C916 1.386 . S
C917 C921 1.393 . S
C918 H910 0.950 . S
C918 C916 1.391 . S
C918 C919 1.400 . S
C919 C918 1.400 . S
C919 C920 1.398 . S
C919 C925 1.491 . S
C920 H911 0.950 . S
C920 C919 1.398 . S
C920 C921 1.391 . S
C921 H909 0.950 . S
C921 C917 1.393 . S
C921 C920 1.391 . S
C922 H912 0.950 . S
C922 C923 1.386 . S
C922 C924 1.391 . S
C923 C922 1.386 . S
C923 C927 1.393 . S
C924 H913 0.950 . S
C924 C922 1.391 . S
C924 C925 1.400 . S
C925 C919 1.491 . S
C925 C924 1.400 . S
C925 C926 1.398 . S
C926 H914 0.950 . S
C926 C925 1.398 . S
C926 C927 1.391 . S
C927 H915 0.950 . S
C927 C923 1.393 . S
C927 C926 1.391 . S
H928 C936 0.950 . S
H929 C941 0.950 . S
H930 C938 0.950 . S
H931 C940 0.950 . S
H932 C942 0.950 . S
H933 C944 0.950 . S
H934 C946 0.950 . S
H935 C947 0.950 . S
C936 H928 0.950 . S
C936 C937 1.386 . S
C936 C938 1.391 . S
C937 C936 1.386 . S
C937 C941 1.393 . S
C938 H930 0.950 . S
C938 C936 1.391 . S
C938 C939 1.400 . S
C939 C938 1.400 . S
C939 C940 1.398 . S
C939 C945 1.491 . S
C940 H931 0.950 . S
C940 C939 1.398 . S
C940 C941 1.391 . S
C941 H929 0.950 . S
C941 C937 1.393 . S
C941 C940 1.391 . S
C942 H932 0.950 . S
C942 C943 1.386 . S
C942 C944 1.391 . S
C943 C942 1.386 . S
C943 C947 1.393 . S
C944 H933 0.950 . S
C944 C942 1.391 . S
C944 C945 1.400 . S
C945 C939 1.491 . S
C945 C944 1.400 . S
C945 C946 1.398 . S
C946 H934 0.950 . S
C946 C945 1.398 . S
C946 C947 1.391 . S
C947 H935 0.950 . S
C947 C943 1.393 . S
C947 C946 1.391 . S
H948 C956 0.950 . S
H949 C961 0.950 . S
H950 C958 0.950 . S
H951 C960 0.950 . S
H952 C962 0.950 . S
H953 C964 0.950 . S
H954 C966 0.950 . S
H955 C967 0.950 . S
C956 H948 0.950 . S
C956 C957 1.386 . S
C956 C958 1.391 . S
C957 C956 1.386 . S
C957 C961 1.393 . S
C958 H950 0.950 . S
C958 C956 1.391 . S
C958 C959 1.400 . S
C959 C958 1.400 . S
C959 C960 1.398 . S
C959 C965 1.491 . S
C960 H951 0.950 . S
C960 C959 1.398 . S
C960 C961 1.391 . S
C961 H949 0.950 . S
C961 C957 1.393 . S
C961 C960 1.391 . S
C962 H952 0.950 . S
C962 C963 1.386 . S
C962 C964 1.391 . S
C963 C962 1.386 . S
C963 C967 1.393 . S
C964 H953 0.950 . S
C964 C962 1.391 . S
C964 C965 1.400 . S
C965 C959 1.491 . S
C965 C964 1.400 . S
C965 C966 1.398 . S
C966 H954 0.950 . S
C966 C965 1.398 . S
C966 C967 1.391 . S
C967 H955 0.950 . S
C967 C963 1.393 . S
C967 C966 1.391 . S
H968 C976 0.950 . S
H969 C981 0.950 . S
H970 C978 0.950 . S
H971 C980 0.950 . S
H972 C982 0.950 . S
H973 C984 0.950 . S
H974 C986 0.950 . S
H975 C987 0.950 . S
C976 H968 0.950 . S
C976 C977 1.386 . S
C976 C978 1.391 . S
C977 C976 1.386 . S
C977 C981 1.393 . S
C978 H970 0.950 . S
C978 C976 1.391 . S
C978 C979 1.400 . S
C979 C978 1.400 . S
C979 C980 1.398 . S
C979 C985 1.491 . S
C980 H971 0.950 . S
C980 C979 1.398 . S
C980 C981 1.391 . S
C981 H969 0.950 . S
C981 C977 1.393 . S
C981 C980 1.391 . S
C982 H972 0.950 . S
C982 C983 1.386 . S
C982 C984 1.391 . S
C983 C982 1.386 . S
C983 C987 1.393 . S
C984 H973 0.950 . S
C984 C982 1.391 . S
C984 C985 1.400 . S
C985 C979 1.491 . S
C985 C984 1.400 . S
C985 C986 1.398 . S
C986 H974 0.950 . S
C986 C985 1.398 . S
C986 C987 1.391 . S
C987 H975 0.950 . S
C987 C983 1.393 . S
C987 C986 1.391 . S
H988 C996 0.950 . S
H989 C1001 0.950 . S
H990 C998 0.950 . S
H991 C1000 0.950 . S
H992 C1002 0.950 . S
H993 C1004 0.950 . S
H994 C1006 0.950 . S
H995 C1007 0.950 . S
C996 H988 0.950 . S
C996 C997 1.386 . S
C996 C998 1.391 . S
C997 C996 1.386 . S
C997 C1001 1.393 . S
C998 H990 0.950 . S
C998 C996 1.391 . S
C998 C999 1.400 . S
C999 C998 1.400 . S
C999 C1000 1.398 . S
C999 C1005 1.491 . S
C1000 H991 0.950 . S
C1000 C999 1.398 . S
C1000 C1001 1.391 . S
C1001 H989 0.950 . S
C1001 C997 1.393 . S
C1001 C1000 1.391 . S
C1002 H992 0.950 . S
C1002 C1003 1.386 . S
C1002 C1004 1.391 . S
C1003 C1002 1.386 . S
C1003 C1007 1.393 . S
C1004 H993 0.950 . S
C1004 C1002 1.391 . S
C1004 C1005 1.400 . S
C1005 C999 1.491 . S
C1005 C1004 1.400 . S
C1005 C1006 1.398 . S
C1006 H994 0.950 . S
C1006 C1005 1.398 . S
C1006 C1007 1.391 . S
C1007 H995 0.950 . S
C1007 C1003 1.393 . S
C1007 C1006 1.391 . S
H1008 C1016 0.950 . S
H1009 C1021 0.950 . S
H1010 C1018 0.950 . S
H1011 C1020 0.950 . S
H1012 C1022 0.950 . S
H1013 C1024 0.950 . S
H1014 C1026 0.950 . S
H1015 C1027 0.950 . S
C1016 H1008 0.950 . S
C1016 C1017 1.386 . S
C1016 C1018 1.391 . S
C1017 C1016 1.386 . S
C1017 C1021 1.393 . S
C1018 H1010 0.950 . S
C1018 C1016 1.391 . S
C1018 C1019 1.400 . S
C1019 C1018 1.400 . S
C1019 C1020 1.398 . S
C1019 C1025 1.491 . S
C1020 H1011 0.950 . S
C1020 C1019 1.398 . S
C1020 C1021 1.391 . S
C1021 H1009 0.950 . S
C1021 C1017 1.393 . S
C1021 C1020 1.391 . S
C1022 H1012 0.950 . S
C1022 C1023 1.386 . S
C1022 C1024 1.391 . S
C1023 C1022 1.386 . S
C1023 C1027 1.393 . S
C1024 H1013 0.950 . S
C1024 C1022 1.391 . S
C1024 C1025 1.400 . S
C1025 C1019 1.491 . S
C1025 C1024 1.400 . S
C1025 C1026 1.398 . S
C1026 H1014 0.950 . S
C1026 C1025 1.398 . S
C1026 C1027 1.391 . S
C1027 H1015 0.950 . S
C1027 C1023 1.393 . S
C1027 C1026 1.391 . S
H1028 C1036 0.950 . S
H1029 C1041 0.950 . S
H1030 C1038 0.950 . S
H1031 C1040 0.950 . S
H1032 C1042 0.950 . S
H1033 C1044 0.950 . S
H1034 C1046 0.950 . S
H1035 C1047 0.950 . S
C1036 H1028 0.950 . S
C1036 C1037 1.386 . S
C1036 C1038 1.391 . S
C1037 C1036 1.386 . S
C1037 C1041 1.393 . S
C1038 H1030 0.950 . S
C1038 C1036 1.391 . S
C1038 C1039 1.400 . S
C1039 C1038 1.400 . S
C1039 C1040 1.398 . S
C1039 C1045 1.491 . S
C1040 H1031 0.950 . S
C1040 C1039 1.398 . S
C1040 C1041 1.391 . S
C1041 H1029 0.950 . S
C1041 C1037 1.393 . S
C1041 C1040 1.391 . S
C1042 H1032 0.950 . S
C1042 C1043 1.386 . S
C1042 C1044 1.391 . S
C1043 C1042 1.386 . S
C1043 C1047 1.393 . S
C1044 H1033 0.950 . S
C1044 C1042 1.391 . S
C1044 C1045 1.400 . S
C1045 C1039 1.491 . S
C1045 C1044 1.400 . S
C1045 C1046 1.398 . S
C1046 H1034 0.950 . S
C1046 C1045 1.398 . S
C1046 C1047 1.391 . S
C1047 H1035 0.950 . S
C1047 C1043 1.393 . S
C1047 C1046 1.391 . S
H1048 C1056 0.950 . S
H1049 C1061 0.950 . S
H1050 C1058 0.950 . S
H1051 C1060 0.950 . S
H1052 C1062 0.950 . S
H1053 C1064 0.950 . S
H1054 C1066 0.950 . S
H1055 C1067 0.950 . S
C1056 H1048 0.950 . S
C1056 C1057 1.386 . S
C1056 C1058 1.391 . S
C1057 C1056 1.386 . S
C1057 C1061 1.393 . S
C1058 H1050 0.950 . S
C1058 C1056 1.391 . S
C1058 C1059 1.400 . S
C1059 C1058 1.400 . S
C1059 C1060 1.398 . S
C1059 C1065 1.491 . S
C1060 H1051 0.950 . S
C1060 C1059 1.398 . S
C1060 C1061 1.391 . S
C1061 H1049 0.950 . S
C1061 C1057 1.393 . S
C1061 C1060 1.391 . S
C1062 H1052 0.950 . S
C1062 C1063 1.386 . S
C1062 C1064 1.391 . S
C1063 C1062 1.386 . S
C1063 C1067 1.393 . S
C1064 H1053 0.950 . S
C1064 C1062 1.391 . S
C1064 C1065 1.400 . S
C1065 C1059 1.491 . S
C1065 C1064 1.400 . S
C1065 C1066 1.398 . S
C1066 H1054 0.950 . S
C1066 C1065 1.398 . S
C1066 C1067 1.391 . S
C1067 H1055 0.950 . S
C1067 C1063 1.393 . S
C1067 C1066 1.391 . S
H1068 C1076 0.950 . S
H1069 C1081 0.950 . S
H1070 C1078 0.950 . S
H1071 C1080 0.950 . S
H1072 C1082 0.950 . S
H1073 C1084 0.950 . S
H1074 C1086 0.950 . S
H1075 C1087 0.950 . S
C1076 H1068 0.950 . S
C1076 C1077 1.386 . S
C1076 C1078 1.391 . S
C1077 C1076 1.386 . S
C1077 C1081 1.393 . S
C1078 H1070 0.950 . S
C1078 C1076 1.391 . S
C1078 C1079 1.400 . S
C1079 C1078 1.400 . S
C1079 C1080 1.398 . S
C1079 C1085 1.491 . S
C1080 H1071 0.950 . S
C1080 C1079 1.398 . S
C1080 C1081 1.391 . S
C1081 H1069 0.950 . S
C1081 C1077 1.393 . S
C1081 C1080 1.391 . S
C1082 H1072 0.950 . S
C1082 C1083 1.386 . S
C1082 C1084 1.391 . S
C1083 C1082 1.386 . S
C1083 C1087 1.393 . S
C1084 H1073 0.950 . S
C1084 C1082 1.391 . S
C1084 C1085 1.400 . S
C1085 C1079 1.491 . S
C1085 C1084 1.400 . S
C1085 C1086 1.398 . S
C1086 H1074 0.950 . S
C1086 C1085 1.398 . S
C1086 C1087 1.391 . S
C1087 H1075 0.950 . S
C1087 C1083 1.393 . S
C1087 C1086 1.391 . S
H1088 C1096 0.950 . S
H1089 C1101 0.950 . S
H1090 C1098 0.950 . S
H1091 C1100 0.950 1_556 S
H1092 C1102 0.950 . S
H1093 C1104 0.950 . S
H1094 C1106 0.950 1_554 S
H1095 C1107 0.950 . S
C1096 H1088 0.950 . S
C1096 C1097 1.386 . S
C1096 C1098 1.391 . S
C1097 C1096 1.386 . S
C1097 C1101 1.393 . S
C1098 H1090 0.950 . S
C1098 C1096 1.391 . S
C1098 C1099 1.400 . S
C1099 C1098 1.400 . S
C1099 C1100 1.398 . S
C1099 C1105 1.491 1_544 S
C1100 H1091 0.950 1_554 S
C1100 C1099 1.398 . S
C1100 C1101 1.391 . S
C1101 H1089 0.950 . S
C1101 C1097 1.393 . S
C1101 C1100 1.391 . S
C1102 H1092 0.950 . S
C1102 C1103 1.386 . S
C1102 C1104 1.391 . S
C1103 C1102 1.386 . S
C1103 C1107 1.393 . S
C1104 H1093 0.950 . S
C1104 C1102 1.391 . S
C1104 C1105 1.400 . S
C1105 C1099 1.491 1_566 S
C1105 C1104 1.400 . S
C1105 C1106 1.398 . S
C1106 H1094 0.950 1_556 S
C1106 C1105 1.398 . S
C1106 C1107 1.391 . S
C1107 H1095 0.950 . S
C1107 C1103 1.393 . S
C1107 C1106 1.391 . S
H1108 C1116 0.950 . S
H1109 C1121 0.950 . S
H1110 C1118 0.950 . S
H1111 C1120 0.950 1_556 S
H1112 C1122 0.950 . S
H1113 C1124 0.950 . S
H1114 C1126 0.950 1_554 S
H1115 C1127 0.950 . S
C1116 H1108 0.950 . S
C1116 C1117 1.386 . S
C1116 C1118 1.391 . S
C1117 C1116 1.386 . S
C1117 C1121 1.393 . S
C1118 H1110 0.950 . S
C1118 C1116 1.391 . S
C1118 C1119 1.400 . S
C1119 C1118 1.400 . S
C1119 C1120 1.398 . S
C1119 C1125 1.491 1_554 S
C1120 H1111 0.950 1_554 S
C1120 C1119 1.398 . S
C1120 C1121 1.391 . S
C1121 H1109 0.950 . S
C1121 C1117 1.393 . S
C1121 C1120 1.391 . S
C1122 H1112 0.950 . S
C1122 C1123 1.386 . S
C1122 C1124 1.391 . S
C1123 C1122 1.386 . S
C1123 C1127 1.393 . S
C1124 H1113 0.950 . S
C1124 C1122 1.391 . S
C1124 C1125 1.400 . S
C1125 C1119 1.491 1_556 S
C1125 C1124 1.400 . S
C1125 C1126 1.398 . S
C1126 H1114 0.950 1_556 S
C1126 C1125 1.398 . S
C1126 C1127 1.391 . S
C1127 H1115 0.950 . S
C1127 C1123 1.393 . S
C1127 C1126 1.391 . S
H1128 C1136 0.950 . S
H1129 C1141 0.950 . S
H1130 C1138 0.950 . S
H1131 C1140 0.950 . S
H1132 C1142 0.950 . S
H1133 C1144 0.950 . S
H1134 C1146 0.950 . S
H1135 C1147 0.950 . S
C1136 H1128 0.950 . S
C1136 C1137 1.386 . S
C1136 C1138 1.391 . S
C1137 C1136 1.386 . S
C1137 C1141 1.393 . S
C1138 H1130 0.950 . S
C1138 C1136 1.391 . S
C1138 C1139 1.400 . S
C1139 C1138 1.400 . S
C1139 C1140 1.398 . S
C1139 C1145 1.491 . S
C1140 H1131 0.950 . S
C1140 C1139 1.398 . S
C1140 C1141 1.391 . S
C1141 H1129 0.950 . S
C1141 C1137 1.393 . S
C1141 C1140 1.391 . S
C1142 H1132 0.950 . S
C1142 C1143 1.386 . S
C1142 C1144 1.391 . S
C1143 C1142 1.386 . S
C1143 C1147 1.393 . S
C1144 H1133 0.950 . S
C1144 C1142 1.391 . S
C1144 C1145 1.400 . S
C1145 C1139 1.491 . S
C1145 C1144 1.400 . S
C1145 C1146 1.398 . S
C1146 H1134 0.950 . S
C1146 C1145 1.398 . S
C1146 C1147 1.391 . S
C1147 H1135 0.950 . S
C1147 C1143 1.393 . S
C1147 C1146 1.391 . S
H1148 C1156 0.950 . S
H1149 C1161 0.950 . S
H1150 C1158 0.950 . S
H1151 C1160 0.950 . S
H1152 C1162 0.950 . S
H1153 C1164 0.950 . S
H1154 C1166 0.950 . S
H1155 C1167 0.950 . S
C1156 H1148 0.950 . S
C1156 C1157 1.386 . S
C1156 C1158 1.391 . S
C1157 C1156 1.386 . S
C1157 C1161 1.393 . S
C1158 H1150 0.950 . S
C1158 C1156 1.391 . S
C1158 C1159 1.400 . S
C1159 C1158 1.400 . S
C1159 C1160 1.398 . S
C1159 C1165 1.491 1_545 S
C1160 H1151 0.950 . S
C1160 C1159 1.398 . S
C1160 C1161 1.391 . S
C1161 H1149 0.950 . S
C1161 C1157 1.393 . S
C1161 C1160 1.391 . S
C1162 H1152 0.950 . S
C1162 C1163 1.386 . S
C1162 C1164 1.391 . S
C1163 C1162 1.386 . S
C1163 C1167 1.393 . S
C1164 H1153 0.950 . S
C1164 C1162 1.391 . S
C1164 C1165 1.400 . S
C1165 C1159 1.491 1_565 S
C1165 C1164 1.400 . S
C1165 C1166 1.398 . S
C1166 H1154 0.950 . S
C1166 C1165 1.398 . S
C1166 C1167 1.391 . S
C1167 H1155 0.950 . S
C1167 C1163 1.393 . S
C1167 C1166 1.391 . S
H1168 C1176 0.950 . S
H1169 C1181 0.950 . S
H1170 C1178 0.950 . S
H1171 C1180 0.950 . S
H1172 C1182 0.950 . S
H1173 C1184 0.950 . S
H1174 C1186 0.950 . S
H1175 C1187 0.950 . S
C1176 H1168 0.950 . S
C1176 C1177 1.386 . S
C1176 C1178 1.391 . S
C1177 C1176 1.386 . S
C1177 C1181 1.393 . S
C1178 H1170 0.950 . S
C1178 C1176 1.391 . S
C1178 C1179 1.400 . S
C1179 C1178 1.400 . S
C1179 C1180 1.398 . S
C1179 C1185 1.491 1_556 S
C1180 H1171 0.950 . S
C1180 C1179 1.398 . S
C1180 C1181 1.391 . S
C1181 H1169 0.950 . S
C1181 C1177 1.393 . S
C1181 C1180 1.391 . S
C1182 H1172 0.950 . S
C1182 C1183 1.386 . S
C1182 C1184 1.391 . S
C1183 C1182 1.386 . S
C1183 C1187 1.393 . S
C1184 H1173 0.950 . S
C1184 C1182 1.391 . S
C1184 C1185 1.400 . S
C1185 C1179 1.491 1_554 S
C1185 C1184 1.400 . S
C1185 C1186 1.398 . S
C1186 H1174 0.950 . S
C1186 C1185 1.398 . S
C1186 C1187 1.391 . S
C1187 H1175 0.950 . S
C1187 C1183 1.393 . S
C1187 C1186 1.391 . S
H1188 C1196 0.950 . S
H1189 C1201 0.950 . S
H1190 C1198 0.950 . S
H1191 C1200 0.950 . S
H1192 C1202 0.950 . S
H1193 C1204 0.950 . S
H1194 C1206 0.950 . S
H1195 C1207 0.950 . S
C1196 H1188 0.950 . S
C1196 C1197 1.386 . S
C1196 C1198 1.391 . S
C1197 C1196 1.386 . S
C1197 C1201 1.393 . S
C1198 H1190 0.950 . S
C1198 C1196 1.391 . S
C1198 C1199 1.400 . S
C1199 C1198 1.400 . S
C1199 C1200 1.398 . S
C1199 C1205 1.491 . S
C1200 H1191 0.950 . S
C1200 C1199 1.398 . S
C1200 C1201 1.391 . S
C1201 H1189 0.950 . S
C1201 C1197 1.393 . S
C1201 C1200 1.391 . S
C1202 H1192 0.950 . S
C1202 C1203 1.386 . S
C1202 C1204 1.391 . S
C1203 C1202 1.386 . S
C1203 C1207 1.393 . S
C1204 H1193 0.950 . S
C1204 C1202 1.391 . S
C1204 C1205 1.400 . S
C1205 C1199 1.491 . S
C1205 C1204 1.400 . S
C1205 C1206 1.398 . S
C1206 H1194 0.950 . S
C1206 C1205 1.398 . S
C1206 C1207 1.391 . S
C1207 H1195 0.950 . S
C1207 C1203 1.393 . S
C1207 C1206 1.391 . S
H1208 C1216 0.950 . S
H1209 C1221 0.950 . S
H1210 C1218 0.950 . S
H1211 C1220 0.950 1_565 S
H1212 C1222 0.950 . S
H1213 C1224 0.950 . S
H1214 C1226 0.950 1_545 S
H1215 C1227 0.950 . S
C1216 H1208 0.950 . S
C1216 C1217 1.386 . S
C1216 C1218 1.391 . S
C1217 C1216 1.386 . S
C1217 C1221 1.393 . S
C1218 H1210 0.950 . S
C1218 C1216 1.391 . S
C1218 C1219 1.400 . S
C1219 C1218 1.400 . S
C1219 C1220 1.398 . S
C1219 C1225 1.491 1_545 S
C1220 H1211 0.950 1_545 S
C1220 C1219 1.398 . S
C1220 C1221 1.391 . S
C1221 H1209 0.950 . S
C1221 C1217 1.393 . S
C1221 C1220 1.391 . S
C1222 H1212 0.950 . S
C1222 C1223 1.386 . S
C1222 C1224 1.391 . S
C1223 C1222 1.386 . S
C1223 C1227 1.393 . S
C1224 H1213 0.950 . S
C1224 C1222 1.391 . S
C1224 C1225 1.400 . S
C1225 C1219 1.491 1_565 S
C1225 C1224 1.400 . S
C1225 C1226 1.398 . S
C1226 H1214 0.950 1_565 S
C1226 C1225 1.398 . S
C1226 C1227 1.391 . S
C1227 H1215 0.950 . S
C1227 C1223 1.393 . S
C1227 C1226 1.391 . S
H1228 C1236 0.950 . S
H1229 C1241 0.950 . S
H1230 C1238 0.950 . S
H1231 C1240 0.950 . S
H1232 C1242 0.950 . S
H1233 C1244 0.950 . S
H1234 C1246 0.950 . S
H1235 C1247 0.950 . S
C1236 H1228 0.950 . S
C1236 C1237 1.386 . S
C1236 C1238 1.391 . S
C1237 C1236 1.386 . S
C1237 C1241 1.393 . S
C1238 H1230 0.950 . S
C1238 C1236 1.391 . S
C1238 C1239 1.400 . S
C1239 C1238 1.400 . S
C1239 C1240 1.398 . S
C1239 C1245 1.491 . S
C1240 H1231 0.950 . S
C1240 C1239 1.398 . S
C1240 C1241 1.391 . S
C1241 H1229 0.950 . S
C1241 C1237 1.393 . S
C1241 C1240 1.391 . S
C1242 H1232 0.950 . S
C1242 C1243 1.386 . S
C1242 C1244 1.391 . S
C1243 C1242 1.386 . S
C1243 C1247 1.393 . S
C1244 H1233 0.950 . S
C1244 C1242 1.391 . S
C1244 C1245 1.400 . S
C1245 C1239 1.491 . S
C1245 C1244 1.400 . S
C1245 C1246 1.398 . S
C1246 H1234 0.950 . S
C1246 C1245 1.398 . S
C1246 C1247 1.391 . S
C1247 H1235 0.950 . S
C1247 C1243 1.393 . S
C1247 C1246 1.391 . S
H1248 C1256 0.950 . S
H1249 C1261 0.950 . S
H1250 C1258 0.950 . S
H1251 C1260 0.950 . S
H1252 C1262 0.950 . S
H1253 C1264 0.950 . S
H1254 C1266 0.950 . S
H1255 C1267 0.950 . S
C1256 H1248 0.950 . S
C1256 C1257 1.386 . S
C1256 C1258 1.391 . S
C1257 C1256 1.386 . S
C1257 C1261 1.393 . S
C1258 H1250 0.950 . S
C1258 C1256 1.391 . S
C1258 C1259 1.400 . S
C1259 C1258 1.400 . S
C1259 C1260 1.398 . S
C1259 C1265 1.491 . S
C1260 H1251 0.950 . S
C1260 C1259 1.398 . S
C1260 C1261 1.391 . S
C1261 H1249 0.950 . S
C1261 C1257 1.393 . S
C1261 C1260 1.391 . S
C1262 H1252 0.950 . S
C1262 C1263 1.386 . S
C1262 C1264 1.391 . S
C1263 C1262 1.386 . S
C1263 C1267 1.393 . S
C1264 H1253 0.950 . S
C1264 C1262 1.391 . S
C1264 C1265 1.400 . S
C1265 C1259 1.491 . S
C1265 C1264 1.400 . S
C1265 C1266 1.398 . S
C1266 H1254 0.950 . S
C1266 C1265 1.398 . S
C1266 C1267 1.391 . S
C1267 H1255 0.950 . S
C1267 C1263 1.393 . S
C1267 C1266 1.391 . S
H1268 C1276 0.950 . S
H1269 C1281 0.950 . S
H1270 C1278 0.950 . S
H1271 C1280 0.950 . S
H1272 C1282 0.950 . S
H1273 C1284 0.950 . S
H1274 C1286 0.950 . S
H1275 C1287 0.950 . S
C1276 H1268 0.950 . S
C1276 C1277 1.386 . S
C1276 C1278 1.391 . S
C1277 C1276 1.386 . S
C1277 C1281 1.393 . S
C1278 H1270 0.950 . S
C1278 C1276 1.391 . S
C1278 C1279 1.400 . S
C1279 C1278 1.400 . S
C1279 C1280 1.398 . S
C1279 C1285 1.491 . S
C1280 H1271 0.950 . S
C1280 C1279 1.398 . S
C1280 C1281 1.391 . S
C1281 H1269 0.950 . S
C1281 C1277 1.393 . S
C1281 C1280 1.391 . S
C1282 H1272 0.950 . S
C1282 C1283 1.386 . S
C1282 C1284 1.391 . S
C1283 C1282 1.386 . S
C1283 C1287 1.393 . S
C1284 H1273 0.950 . S
C1284 C1282 1.391 . S
C1284 C1285 1.400 . S
C1285 C1279 1.491 . S
C1285 C1284 1.400 . S
C1285 C1286 1.398 . S
C1286 H1274 0.950 . S
C1286 C1285 1.398 . S
C1286 C1287 1.391 . S
C1287 H1275 0.950 . S
C1287 C1283 1.393 . S
C1287 C1286 1.391 . S
H1288 C1296 0.950 . S
H1289 C1301 0.950 . S
H1290 C1298 0.950 . S
H1291 C1300 0.950 . S
H1292 C1302 0.950 . S
H1293 C1304 0.950 . S
H1294 C1306 0.950 . S
H1295 C1307 0.950 . S
C1296 H1288 0.950 . S
C1296 C1297 1.386 . S
C1296 C1298 1.391 . S
C1297 C1296 1.386 . S
C1297 C1301 1.393 . S
C1298 H1290 0.950 . S
C1298 C1296 1.391 . S
C1298 C1299 1.400 . S
C1299 C1298 1.400 . S
C1299 C1300 1.398 . S
C1299 C1305 1.491 . S
C1300 H1291 0.950 . S
C1300 C1299 1.398 . S
C1300 C1301 1.391 . S
C1301 H1289 0.950 . S
C1301 C1297 1.393 . S
C1301 C1300 1.391 . S
C1302 H1292 0.950 . S
C1302 C1303 1.386 . S
C1302 C1304 1.391 . S
C1303 C1302 1.386 . S
C1303 C1307 1.393 . S
C1304 H1293 0.950 . S
C1304 C1302 1.391 . S
C1304 C1305 1.400 . S
C1305 C1299 1.491 . S
C1305 C1304 1.400 . S
C1305 C1306 1.398 . S
C1306 H1294 0.950 . S
C1306 C1305 1.398 . S
C1306 C1307 1.391 . S
C1307 H1295 0.950 . S
C1307 C1303 1.393 . S
C1307 C1306 1.391 . S
H1308 C1316 0.950 . S
H1309 C1321 0.950 . S
H1310 C1318 0.950 . S
H1311 C1320 0.950 . S
H1312 C1322 0.950 . S
H1313 C1324 0.950 . S
H1314 C1326 0.950 . S
H1315 C1327 0.950 . S
C1316 H1308 0.950 . S
C1316 C1317 1.386 . S
C1316 C1318 1.391 . S
C1317 C1316 1.386 . S
C1317 C1321 1.393 . S
C1318 H1310 0.950 . S
C1318 C1316 1.391 . S
C1318 C1319 1.400 . S
C1319 C1318 1.400 . S
C1319 C1320 1.398 . S
C1319 C1325 1.491 . S
C1320 H1311 0.950 . S
C1320 C1319 1.398 . S
C1320 C1321 1.391 . S
C1321 H1309 0.950 . S
C1321 C1317 1.393 . S
C1321 C1320 1.391 . S
C1322 H1312 0.950 . S
C1322 C1323 1.386 . S
C1322 C1324 1.391 . S
C1323 C1322 1.386 . S
C1323 C1327 1.393 . S
C1324 H1313 0.950 . S
C1324 C1322 1.391 . S
C1324 C1325 1.400 . S
C1325 C1319 1.491 . S
C1325 C1324 1.400 . S
C1325 C1326 1.398 . S
C1326 H1314 0.950 . S
C1326 C1325 1.398 . S
C1326 C1327 1.391 . S
C1327 H1315 0.950 . S
C1327 C1323 1.393 . S
C1327 C1326 1.391 . S
H1328 C1336 0.950 . S
H1329 C1341 0.950 . S
H1330 C1338 0.950 . S
H1331 C1340 0.950 . S
H1332 C1342 0.950 . S
H1333 C1344 0.950 . S
H1334 C1346 0.950 . S
H1335 C1347 0.950 . S
C1336 H1328 0.950 . S
C1336 C1337 1.386 . S
C1336 C1338 1.391 . S
C1337 C1336 1.386 . S
C1337 C1341 1.393 1_455 S
C1338 H1330 0.950 . S
C1338 C1336 1.391 . S
C1338 C1339 1.400 . S
C1339 C1338 1.400 . S
C1339 C1340 1.398 1_455 S
C1339 C1345 1.491 1_465 S
C1340 H1331 0.950 . S
C1340 C1339 1.398 1_655 S
C1340 C1341 1.391 . S
C1341 H1329 0.950 . S
C1341 C1337 1.393 1_655 S
C1341 C1340 1.391 . S
C1342 H1332 0.950 . S
C1342 C1343 1.386 . S
C1342 C1344 1.391 . S
C1343 C1342 1.386 . S
C1343 C1347 1.393 1_655 S
C1344 H1333 0.950 . S
C1344 C1342 1.391 . S
C1344 C1345 1.400 . S
C1345 C1339 1.491 1_645 S
C1345 C1344 1.400 . S
C1345 C1346 1.398 1_655 S
C1346 H1334 0.950 . S
C1346 C1345 1.398 1_455 S
C1346 C1347 1.391 . S
C1347 H1335 0.950 . S
C1347 C1343 1.393 1_455 S
C1347 C1346 1.391 . S
H1348 C1356 0.950 1_455 S
H1349 C1361 0.950 . S
H1350 C1358 0.950 . S
H1351 C1360 0.950 . S
H1352 C1362 0.950 1_655 S
H1353 C1364 0.950 . S
H1354 C1366 0.950 . S
H1355 C1367 0.950 . S
C1356 H1348 0.950 1_655 S
C1356 C1357 1.386 . S
C1356 C1358 1.391 1_655 S
C1357 C1356 1.386 . S
C1357 C1361 1.393 . S
C1358 H1350 0.950 . S
C1358 C1356 1.391 1_455 S
C1358 C1359 1.400 1_455 S
C1359 C1358 1.400 1_655 S
C1359 C1360 1.398 . S
C1359 C1365 1.491 1_655 S
C1360 H1351 0.950 . S
C1360 C1359 1.398 . S
C1360 C1361 1.391 . S
C1361 H1349 0.950 . S
C1361 C1357 1.393 . S
C1361 C1360 1.391 . S
C1362 H1352 0.950 1_455 S
C1362 C1363 1.386 . S
C1362 C1364 1.391 1_455 S
C1363 C1362 1.386 . S
C1363 C1367 1.393 . S
C1364 H1353 0.950 . S
C1364 C1362 1.391 1_655 S
C1364 C1365 1.400 1_655 S
C1365 C1359 1.491 1_455 S
C1365 C1364 1.400 1_455 S
C1365 C1366 1.398 . S
C1366 H1354 0.950 . S
C1366 C1365 1.398 . S
C1366 C1367 1.391 . S
C1367 H1355 0.950 . S
C1367 C1363 1.393 . S
C1367 C1366 1.391 . S
H1368 C1376 0.950 . S
H1369 C1381 0.950 . S
H1370 C1378 0.950 . S
H1371 C1380 0.950 1_455 S
H1372 C1382 0.950 . S
H1373 C1384 0.950 . S
H1374 C1386 0.950 1_655 S
H1375 C1387 0.950 . S
C1376 H1368 0.950 . S
C1376 C1377 1.386 . S
C1376 C1378 1.391 . S
C1377 C1376 1.386 . S
C1377 C1381 1.393 . S
C1378 H1370 0.950 . S
C1378 C1376 1.391 . S
C1378 C1379 1.400 . S
C1379 C1378 1.400 . S
C1379 C1380 1.398 . S
C1379 C1385 1.491 1_655 S
C1380 H1371 0.950 1_655 S
C1380 C1379 1.398 . S
C1380 C1381 1.391 . S
C1381 H1369 0.950 . S
C1381 C1377 1.393 . S
C1381 C1380 1.391 . S
C1382 H1372 0.950 . S
C1382 C1383 1.386 . S
C1382 C1384 1.391 . S
C1383 C1382 1.386 . S
C1383 C1387 1.393 . S
C1384 H1373 0.950 . S
C1384 C1382 1.391 . S
C1384 C1385 1.400 . S
C1385 C1379 1.491 1_455 S
C1385 C1384 1.400 . S
C1385 C1386 1.398 . S
C1386 H1374 0.950 1_455 S
C1386 C1385 1.398 . S
C1386 C1387 1.391 . S
C1387 H1375 0.950 . S
C1387 C1383 1.393 . S
C1387 C1386 1.391 . S
H1388 C1396 0.950 . S
H1389 C1401 0.950 . S
H1390 C1398 0.950 . S
H1391 C1400 0.950 1_554 S
H1392 C1402 0.950 . S
H1393 C1404 0.950 . S
H1394 C1406 0.950 1_556 S
H1395 C1407 0.950 . S
C1396 H1388 0.950 . S
C1396 C1397 1.386 . S
C1396 C1398 1.391 . S
C1397 C1396 1.386 . S
C1397 C1401 1.393 . S
C1398 H1390 0.950 . S
C1398 C1396 1.391 . S
C1398 C1399 1.400 . S
C1399 C1398 1.400 . S
C1399 C1400 1.398 . S
C1399 C1405 1.491 1_456 S
C1400 H1391 0.950 1_556 S
C1400 C1399 1.398 . S
C1400 C1401 1.391 . S
C1401 H1389 0.950 . S
C1401 C1397 1.393 . S
C1401 C1400 1.391 . S
C1402 H1392 0.950 . S
C1402 C1403 1.386 . S
C1402 C1404 1.391 . S
C1403 C1402 1.386 . S
C1403 C1407 1.393 . S
C1404 H1393 0.950 . S
C1404 C1402 1.391 . S
C1404 C1405 1.400 . S
C1405 C1399 1.491 1_654 S
C1405 C1404 1.400 . S
C1405 C1406 1.398 . S
C1406 H1394 0.950 1_554 S
C1406 C1405 1.398 . S
C1406 C1407 1.391 . S
C1407 H1395 0.950 . S
C1407 C1403 1.393 . S
C1407 C1406 1.391 . S
H1408 C1416 0.950 . S
H1409 C1421 0.950 . S
H1410 C1418 0.950 . S
H1411 C1420 0.950 . S
H1412 C1422 0.950 . S
H1413 C1424 0.950 . S
H1414 C1426 0.950 . S
H1415 C1427 0.950 . S
C1416 H1408 0.950 . S
C1416 C1417 1.386 . S
C1416 C1418 1.391 . S
C1417 C1416 1.386 . S
C1417 C1421 1.393 . S
C1418 H1410 0.950 . S
C1418 C1416 1.391 . S
C1418 C1419 1.400 . S
C1419 C1418 1.400 . S
C1419 C1420 1.398 . S
C1419 C1425 1.491 . S
C1420 H1411 0.950 . S
C1420 C1419 1.398 . S
C1420 C1421 1.391 . S
C1421 H1409 0.950 . S
C1421 C1417 1.393 . S
C1421 C1420 1.391 . S
C1422 H1412 0.950 . S
C1422 C1423 1.386 . S
C1422 C1424 1.391 . S
C1423 C1422 1.386 . S
C1423 C1427 1.393 . S
C1424 H1413 0.950 . S
C1424 C1422 1.391 . S
C1424 C1425 1.400 . S
C1425 C1419 1.491 . S
C1425 C1424 1.400 . S
C1425 C1426 1.398 . S
C1426 H1414 0.950 . S
C1426 C1425 1.398 . S
C1426 C1427 1.391 . S
C1427 H1415 0.950 . S
C1427 C1423 1.393 . S
C1427 C1426 1.391 . S
H1428 C1436 0.950 . S
H1429 C1441 0.950 . S
H1430 C1438 0.950 . S
H1431 C1440 0.950 . S
H1432 C1442 0.950 . S
H1433 C1444 0.950 . S
H1434 C1446 0.950 . S
H1435 C1447 0.950 . S
C1436 H1428 0.950 . S
C1436 C1437 1.386 . S
C1436 C1438 1.391 . S
C1437 C1436 1.386 . S
C1437 C1441 1.393 . S
C1438 H1430 0.950 . S
C1438 C1436 1.391 . S
C1438 C1439 1.400 . S
C1439 C1438 1.400 . S
C1439 C1440 1.398 . S
C1439 C1445 1.491 . S
C1440 H1431 0.950 . S
C1440 C1439 1.398 . S
C1440 C1441 1.391 . S
C1441 H1429 0.950 . S
C1441 C1437 1.393 . S
C1441 C1440 1.391 . S
C1442 H1432 0.950 . S
C1442 C1443 1.386 . S
C1442 C1444 1.391 . S
C1443 C1442 1.386 . S
C1443 C1447 1.393 . S
C1444 H1433 0.950 . S
C1444 C1442 1.391 . S
C1444 C1445 1.400 . S
C1445 C1439 1.491 . S
C1445 C1444 1.400 . S
C1445 C1446 1.398 . S
C1446 H1434 0.950 . S
C1446 C1445 1.398 . S
C1446 C1447 1.391 . S
C1447 H1435 0.950 . S
C1447 C1443 1.393 . S
C1447 C1446 1.391 . S
H1448 C1456 0.950 . S
H1449 C1461 0.950 . S
H1450 C1458 0.950 . S
H1451 C1460 0.950 . S
H1452 C1462 0.950 . S
H1453 C1464 0.950 . S
H1454 C1466 0.950 . S
H1455 C1467 0.950 . S
C1456 H1448 0.950 . S
C1456 C1457 1.386 . S
C1456 C1458 1.391 . S
C1457 C1456 1.386 . S
C1457 C1461 1.393 . S
C1458 H1450 0.950 . S
C1458 C1456 1.391 . S
C1458 C1459 1.400 . S
C1459 C1458 1.400 . S
C1459 C1460 1.398 . S
C1459 C1465 1.491 . S
C1460 H1451 0.950 . S
C1460 C1459 1.398 . S
C1460 C1461 1.391 . S
C1461 H1449 0.950 . S
C1461 C1457 1.393 . S
C1461 C1460 1.391 . S
C1462 H1452 0.950 . S
C1462 C1463 1.386 . S
C1462 C1464 1.391 . S
C1463 C1462 1.386 . S
C1463 C1467 1.393 . S
C1464 H1453 0.950 . S
C1464 C1462 1.391 . S
C1464 C1465 1.400 . S
C1465 C1459 1.491 . S
C1465 C1464 1.400 . S
C1465 C1466 1.398 . S
C1466 H1454 0.950 . S
C1466 C1465 1.398 . S
C1466 C1467 1.391 . S
C1467 H1455 0.950 . S
C1467 C1463 1.393 . S
C1467 C1466 1.391 . S
H1468 C1476 0.950 . S
H1469 C1481 0.950 . S
H1470 C1478 0.950 . S
H1471 C1480 0.950 . S
H1472 C1482 0.950 . S
H1473 C1484 0.950 . S
H1474 C1486 0.950 . S
H1475 C1487 0.950 . S
C1476 H1468 0.950 . S
C1476 C1477 1.386 . S
C1476 C1478 1.391 . S
C1477 C1476 1.386 . S
C1477 C1481 1.393 . S
C1478 H1470 0.950 . S
C1478 C1476 1.391 . S
C1478 C1479 1.400 . S
C1479 C1478 1.400 . S
C1479 C1480 1.398 . S
C1479 C1485 1.491 . S
C1480 H1471 0.950 . S
C1480 C1479 1.398 . S
C1480 C1481 1.391 . S
C1481 H1469 0.950 . S
C1481 C1477 1.393 . S
C1481 C1480 1.391 . S
C1482 H1472 0.950 . S
C1482 C1483 1.386 . S
C1482 C1484 1.391 . S
C1483 C1482 1.386 . S
C1483 C1487 1.393 . S
C1484 H1473 0.950 . S
C1484 C1482 1.391 . S
C1484 C1485 1.400 . S
C1485 C1479 1.491 . S
C1485 C1484 1.400 . S
C1485 C1486 1.398 . S
C1486 H1474 0.950 . S
C1486 C1485 1.398 . S
C1486 C1487 1.391 . S
C1487 H1475 0.950 . S
C1487 C1483 1.393 . S
C1487 C1486 1.391 . S
H1488 C1496 0.950 . S
H1489 C1501 0.950 . S
H1490 C1498 0.950 . S
H1491 C1500 0.950 . S
H1492 C1502 0.950 . S
H1493 C1504 0.950 . S
H1494 C1506 0.950 . S
H1495 C1507 0.950 . S
C1496 H1488 0.950 . S
C1496 C1497 1.386 . S
C1496 C1498 1.391 . S
C1497 C1496 1.386 . S
C1497 C1501 1.393 . S
C1498 H1490 0.950 . S
C1498 C1496 1.391 . S
C1498 C1499 1.400 . S
C1499 C1498 1.400 . S
C1499 C1500 1.398 . S
C1499 C1505 1.491 . S
C1500 H1491 0.950 . S
C1500 C1499 1.398 . S
C1500 C1501 1.391 . S
C1501 H1489 0.950 . S
C1501 C1497 1.393 . S
C1501 C1500 1.391 . S
C1502 H1492 0.950 . S
C1502 C1503 1.386 . S
C1502 C1504 1.391 . S
C1503 C1502 1.386 . S
C1503 C1507 1.393 . S
C1504 H1493 0.950 . S
C1504 C1502 1.391 . S
C1504 C1505 1.400 . S
C1505 C1499 1.491 . S
C1505 C1504 1.400 . S
C1505 C1506 1.398 . S
C1506 H1494 0.950 . S
C1506 C1505 1.398 . S
C1506 C1507 1.391 . S
C1507 H1495 0.950 . S
C1507 C1503 1.393 . S
C1507 C1506 1.391 . S
H1508 C1516 0.950 . S
H1509 C1521 0.950 . S
H1510 C1518 0.950 . S
H1511 C1520 0.950 . S
H1512 C1522 0.950 . S
H1513 C1524 0.950 . S
H1514 C1526 0.950 . S
H1515 C1527 0.950 . S
C1516 H1508 0.950 . S
C1516 C1517 1.386 . S
C1516 C1518 1.391 . S
C1517 C1516 1.386 . S
C1517 C1521 1.393 . S
C1518 H1510 0.950 . S
C1518 C1516 1.391 . S
C1518 C1519 1.400 . S
C1519 C1518 1.400 . S
C1519 C1520 1.398 . S
C1519 C1525 1.491 . S
C1520 H1511 0.950 . S
C1520 C1519 1.398 . S
C1520 C1521 1.391 . S
C1521 H1509 0.950 . S
C1521 C1517 1.393 . S
C1521 C1520 1.391 . S
C1522 H1512 0.950 . S
C1522 C1523 1.386 . S
C1522 C1524 1.391 . S
C1523 C1522 1.386 . S
C1523 C1527 1.393 . S
C1524 H1513 0.950 . S
C1524 C1522 1.391 . S
C1524 C1525 1.400 . S
C1525 C1519 1.491 . S
C1525 C1524 1.400 . S
C1525 C1526 1.398 . S
C1526 H1514 0.950 . S
C1526 C1525 1.398 . S
C1526 C1527 1.391 . S
C1527 H1515 0.950 . S
C1527 C1523 1.393 . S
C1527 C1526 1.391 . S
H1528 C1536 0.950 . S
H1529 C1541 0.950 . S
H1530 C1538 0.950 . S
H1531 C1540 0.950 . S
H1532 C1542 0.950 . S
H1533 C1544 0.950 . S
H1534 C1546 0.950 . S
H1535 C1547 0.950 . S
C1536 H1528 0.950 . S
C1536 C1537 1.386 . S
C1536 C1538 1.391 . S
C1537 C1536 1.386 . S
C1537 C1541 1.393 . S
C1538 H1530 0.950 . S
C1538 C1536 1.391 . S
C1538 C1539 1.400 . S
C1539 C1538 1.400 . S
C1539 C1540 1.398 . S
C1539 C1545 1.491 . S
C1540 H1531 0.950 . S
C1540 C1539 1.398 . S
C1540 C1541 1.391 . S
C1541 H1529 0.950 . S
C1541 C1537 1.393 . S
C1541 C1540 1.391 . S
C1542 H1532 0.950 . S
C1542 C1543 1.386 . S
C1542 C1544 1.391 . S
C1543 C1542 1.386 . S
C1543 C1547 1.393 . S
C1544 H1533 0.950 . S
C1544 C1542 1.391 . S
C1544 C1545 1.400 . S
C1545 C1539 1.491 . S
C1545 C1544 1.400 . S
C1545 C1546 1.398 . S
C1546 H1534 0.950 . S
C1546 C1545 1.398 . S
C1546 C1547 1.391 . S
C1547 H1535 0.950 . S
C1547 C1543 1.393 . S
C1547 C1546 1.391 . S
H1548 C1556 0.950 . S
H1549 C1561 0.950 . S
H1550 C1558 0.950 . S
H1551 C1560 0.950 . S
H1552 C1562 0.950 . S
H1553 C1564 0.950 . S
H1554 C1566 0.950 . S
H1555 C1567 0.950 . S
C1556 H1548 0.950 . S
C1556 C1557 1.386 . S
C1556 C1558 1.391 . S
C1557 C1556 1.386 . S
C1557 C1561 1.393 . S
C1558 H1550 0.950 . S
C1558 C1556 1.391 . S
C1558 C1559 1.400 . S
C1559 C1558 1.400 . S
C1559 C1560 1.398 . S
C1559 C1565 1.491 . S
C1560 H1551 0.950 . S
C1560 C1559 1.398 . S
C1560 C1561 1.391 . S
C1561 H1549 0.950 . S
C1561 C1557 1.393 . S
C1561 C1560 1.391 . S
C1562 H1552 0.950 . S
C1562 C1563 1.386 . S
C1562 C1564 1.391 . S
C1563 C1562 1.386 . S
C1563 C1567 1.393 . S
C1564 H1553 0.950 . S
C1564 C1562 1.391 . S
C1564 C1565 1.400 . S
C1565 C1559 1.491 . S
C1565 C1564 1.400 . S
C1565 C1566 1.398 . S
C1566 H1554 0.950 . S
C1566 C1565 1.398 . S
C1566 C1567 1.391 . S
C1567 H1555 0.950 . S
C1567 C1563 1.393 . S
C1567 C1566 1.391 . S
H1568 C1576 0.950 . S
H1569 C1581 0.950 . S
H1570 C1578 0.950 . S
H1571 C1580 0.950 . S
H1572 C1582 0.950 . S
H1573 C1584 0.950 . S
H1574 C1586 0.950 . S
H1575 C1587 0.950 . S
C1576 H1568 0.950 . S
C1576 C1577 1.386 . S
C1576 C1578 1.391 . S
C1577 C1576 1.386 . S
C1577 C1581 1.393 . S
C1578 H1570 0.950 . S
C1578 C1576 1.391 . S
C1578 C1579 1.400 . S
C1579 C1578 1.400 . S
C1579 C1580 1.398 . S
C1579 C1585 1.491 . S
C1580 H1571 0.950 . S
C1580 C1579 1.398 . S
C1580 C1581 1.391 . S
C1581 H1569 0.950 . S
C1581 C1577 1.393 . S
C1581 C1580 1.391 . S
C1582 H1572 0.950 . S
C1582 C1583 1.386 . S
C1582 C1584 1.391 . S
C1583 C1582 1.386 . S
C1583 C1587 1.393 . S
C1584 H1573 0.950 . S
C1584 C1582 1.391 . S
C1584 C1585 1.400 . S
C1585 C1579 1.491 . S
C1585 C1584 1.400 . S
C1585 C1586 1.398 . S
C1586 H1574 0.950 . S
C1586 C1585 1.398 . S
C1586 C1587 1.391 . S
C1587 H1575 0.950 . S
C1587 C1583 1.393 . S
C1587 C1586 1.391 . S
H1588 C1596 0.950 . S
H1589 C1601 0.950 . S
H1590 C1598 0.950 . S
H1591 C1600 0.950 . S
H1592 C1602 0.950 . S
H1593 C1604 0.950 . S
H1594 C1606 0.950 . S
H1595 C1607 0.950 . S
C1596 H1588 0.950 . S
C1596 C1597 1.386 . S
C1596 C1598 1.391 . S
C1597 C1596 1.386 . S
C1597 C1601 1.393 . S
C1598 H1590 0.950 . S
C1598 C1596 1.391 . S
C1598 C1599 1.400 . S
C1599 C1598 1.400 . S
C1599 C1600 1.398 . S
C1599 C1605 1.491 . S
C1600 H1591 0.950 . S
C1600 C1599 1.398 . S
C1600 C1601 1.391 . S
C1601 H1589 0.950 . S
C1601 C1597 1.393 . S
C1601 C1600 1.391 . S
C1602 H1592 0.950 . S
C1602 C1603 1.386 . S
C1602 C1604 1.391 . S
C1603 C1602 1.386 . S
C1603 C1607 1.393 . S
C1604 H1593 0.950 . S
C1604 C1602 1.391 . S
C1604 C1605 1.400 . S
C1605 C1599 1.491 . S
C1605 C1604 1.400 . S
C1605 C1606 1.398 . S
C1606 H1594 0.950 . S
C1606 C1605 1.398 . S
C1606 C1607 1.391 . S
C1607 H1595 0.950 . S
C1607 C1603 1.393 . S
C1607 C1606 1.391 . S
H1608 C1616 0.950 . S
H1609 C1621 0.950 . S
H1610 C1618 0.950 . S
H1611 C1620 0.950 . S
H1612 C1622 0.950 . S
H1613 C1624 0.950 . S
H1614 C1626 0.950 . S
H1615 C1627 0.950 . S
C1616 H1608 0.950 . S
C1616 C1617 1.386 . S
C1616 C1618 1.391 . S
C1617 C1616 1.386 . S
C1617 C1621 1.393 . S
C1618 H1610 0.950 . S
C1618 C1616 1.391 . S
C1618 C1619 1.400 . S
C1619 C1618 1.400 . S
C1619 C1620 1.398 . S
C1619 C1625 1.491 . S
C1620 H1611 0.950 . S
C1620 C1619 1.398 . S
C1620 C1621 1.391 . S
C1621 H1609 0.950 . S
C1621 C1617 1.393 . S
C1621 C1620 1.391 . S
C1622 H1612 0.950 . S
C1622 C1623 1.386 . S
C1622 C1624 1.391 . S
C1623 C1622 1.386 . S
C1623 C1627 1.393 . S
C1624 H1613 0.950 . S
C1624 C1622 1.391 . S
C1624 C1625 1.400 . S
C1625 C1619 1.491 . S
C1625 C1624 1.400 . S
C1625 C1626 1.398 . S
C1626 H1614 0.950 . S
C1626 C1625 1.398 . S
C1626 C1627 1.391 . S
C1627 H1615 0.950 . S
C1627 C1623 1.393 . S
C1627 C1626 1.391 . S
H1628 C1636 0.950 . S
H1629 C1641 0.950 . S
H1630 C1638 0.950 . S
H1631 C1640 0.950 . S
H1632 C1642 0.950 . S
H1633 C1644 0.950 . S
H1634 C1646 0.950 . S
H1635 C1647 0.950 . S
C1636 H1628 0.950 . S
C1636 C1637 1.386 . S
C1636 C1638 1.391 . S
C1637 C1636 1.386 . S
C1637 C1641 1.393 . S
C1638 H1630 0.950 . S
C1638 C1636 1.391 . S
C1638 C1639 1.400 . S
C1639 C1638 1.400 . S
C1639 C1640 1.398 . S
C1639 C1645 1.491 . S
C1640 H1631 0.950 . S
C1640 C1639 1.398 . S
C1640 C1641 1.391 . S
C1641 H1629 0.950 . S
C1641 C1637 1.393 . S
C1641 C1640 1.391 . S
C1642 H1632 0.950 . S
C1642 C1643 1.386 . S
C1642 C1644 1.391 . S
C1643 C1642 1.386 . S
C1643 C1647 1.393 . S
C1644 H1633 0.950 . S
C1644 C1642 1.391 . S
C1644 C1645 1.400 . S
C1645 C1639 1.491 . S
C1645 C1644 1.400 . S
C1645 C1646 1.398 . S
C1646 H1634 0.950 . S
C1646 C1645 1.398 . S
C1646 C1647 1.391 . S
C1647 H1635 0.950 . S
C1647 C1643 1.393 . S
C1647 C1646 1.391 . S
H1648 C1656 0.950 . S
H1649 C1661 0.950 . S
H1650 C1658 0.950 . S
H1651 C1660 0.950 . S
H1652 C1662 0.950 . S
H1653 C1664 0.950 . S
H1654 C1666 0.950 . S
H1655 C1667 0.950 . S
C1656 H1648 0.950 . S
C1656 C1657 1.386 . S
C1656 C1658 1.391 . S
C1657 C1656 1.386 . S
C1657 C1661 1.393 . S
C1658 H1650 0.950 . S
C1658 C1656 1.391 . S
C1658 C1659 1.400 . S
C1659 C1658 1.400 . S
C1659 C1660 1.398 . S
C1659 C1665 1.491 . S
C1660 H1651 0.950 . S
C1660 C1659 1.398 . S
C1660 C1661 1.391 . S
C1661 H1649 0.950 . S
C1661 C1657 1.393 . S
C1661 C1660 1.391 . S
C1662 H1652 0.950 . S
C1662 C1663 1.386 . S
C1662 C1664 1.391 . S
C1663 C1662 1.386 . S
C1663 C1667 1.393 . S
C1664 H1653 0.950 . S
C1664 C1662 1.391 . S
C1664 C1665 1.400 . S
C1665 C1659 1.491 . S
C1665 C1664 1.400 . S
C1665 C1666 1.398 . S
C1666 H1654 0.950 . S
C1666 C1665 1.398 . S
C1666 C1667 1.391 . S
C1667 H1655 0.950 . S
C1667 C1663 1.393 . S
C1667 C1666 1.391 . S
H1668 C1676 0.950 . S
H1669 C1681 0.950 . S
H1670 C1678 0.950 . S
H1671 C1680 0.950 . S
H1672 C1682 0.950 . S
H1673 C1684 0.950 . S
H1674 C1686 0.950 . S
H1675 C1687 0.950 . S
C1676 H1668 0.950 . S
C1676 C1677 1.386 . S
C1676 C1678 1.391 . S
C1677 C1676 1.386 . S
C1677 C1681 1.393 . S
C1678 H1670 0.950 . S
C1678 C1676 1.391 . S
C1678 C1679 1.400 . S
C1679 C1678 1.400 . S
C1679 C1680 1.398 . S
C1679 C1685 1.491 . S
C1680 H1671 0.950 . S
C1680 C1679 1.398 . S
C1680 C1681 1.391 . S
C1681 H1669 0.950 . S
C1681 C1677 1.393 . S
C1681 C1680 1.391 . S
C1682 H1672 0.950 . S
C1682 C1683 1.386 . S
C1682 C1684 1.391 . S
C1683 C1682 1.386 . S
C1683 C1687 1.393 . S
C1684 H1673 0.950 . S
C1684 C1682 1.391 . S
C1684 C1685 1.400 . S
C1685 C1679 1.491 . S
C1685 C1684 1.400 . S
C1685 C1686 1.398 . S
C1686 H1674 0.950 . S
C1686 C1685 1.398 . S
C1686 C1687 1.391 . S
C1687 H1675 0.950 . S
C1687 C1683 1.393 . S
C1687 C1686 1.391 . S
H1688 C1696 0.950 . S
H1689 C1701 0.950 . S
H1690 C1698 0.950 . S
H1691 C1700 0.950 . S
H1692 C1702 0.950 . S
H1693 C1704 0.950 . S
H1694 C1706 0.950 . S
H1695 C1707 0.950 . S
C1696 H1688 0.950 . S
C1696 C1697 1.386 . S
C1696 C1698 1.391 . S
C1697 C1696 1.386 . S
C1697 C1701 1.393 . S
C1698 H1690 0.950 . S
C1698 C1696 1.391 . S
C1698 C1699 1.400 . S
C1699 C1698 1.400 . S
C1699 C1700 1.398 . S
C1699 C1705 1.491 . S
C1700 H1691 0.950 . S
C1700 C1699 1.398 . S
C1700 C1701 1.391 . S
C1701 H1689 0.950 . S
C1701 C1697 1.393 . S
C1701 C1700 1.391 . S
C1702 H1692 0.950 . S
C1702 C1703 1.386 . S
C1702 C1704 1.391 . S
C1703 C1702 1.386 . S
C1703 C1707 1.393 . S
C1704 H1693 0.950 . S
C1704 C1702 1.391 . S
C1704 C1705 1.400 . S
C1705 C1699 1.491 . S
C1705 C1704 1.400 . S
C1705 C1706 1.398 . S
C1706 H1694 0.950 . S
C1706 C1705 1.398 . S
C1706 C1707 1.391 . S
C1707 H1695 0.950 . S
C1707 C1703 1.393 . S
C1707 C1706 1.391 . S
H1708 C1716 0.950 . S
H1709 C1721 0.950 . S
H1710 C1718 0.950 . S
H1711 C1720 0.950 . S
H1712 C1722 0.950 . S
H1713 C1724 0.950 . S
H1714 C1726 0.950 . S
H1715 C1727 0.950 . S
C1716 H1708 0.950 . S
C1716 C1717 1.386 . S
C1716 C1718 1.391 . S
C1717 C1716 1.386 . S
C1717 C1721 1.393 . S
C1718 H1710 0.950 . S
C1718 C1716 1.391 . S
C1718 C1719 1.400 . S
C1719 C1718 1.400 . S
C1719 C1720 1.398 . S
C1719 C1725 1.491 . S
C1720 H1711 0.950 . S
C1720 C1719 1.398 . S
C1720 C1721 1.391 . S
C1721 H1709 0.950 . S
C1721 C1717 1.393 . S
C1721 C1720 1.391 . S
C1722 H1712 0.950 . S
C1722 C1723 1.386 . S
C1722 C1724 1.391 . S
C1723 C1722 1.386 . S
C1723 C1727 1.393 . S
C1724 H1713 0.950 . S
C1724 C1722 1.391 . S
C1724 C1725 1.400 . S
C1725 C1719 1.491 . S
C1725 C1724 1.400 . S
C1725 C1726 1.398 . S
C1726 H1714 0.950 . S
C1726 C1725 1.398 . S
C1726 C1727 1.391 . S
C1727 H1715 0.950 . S
C1727 C1723 1.393 . S
C1727 C1726 1.391 . S
C457 C7 1.653 . S
C463 C35 1.651 . S
C477 C49 1.655 . S
C483 C21 1.650 . S
C497 C91 1.654 . S
C503 C63 1.662 . S
C517 C105 1.652 . S
C523 C77 1.652 . S
C537 C119 1.652 . S
C543 C147 1.662 . S
C557 C161 1.649 . S
C563 C133 1.659 . S
C577 C175 1.660 . S
C583 C203 1.658 . S
C597 C217 1.661 . S
C603 C189 1.657 . S
C617 C231 1.653 . S
C623 C259 1.651 . S
C637 C245 1.651 . S
C643 C273 1.653 . S
C657 C315 1.652 . S
C663 C287 1.652 . S
C677 C301 1.649 . S
C683 C329 1.658 . S
C697 C371 1.654 . S
C703 C343 1.662 . S
C717 C385 1.659 . S
C723 C357 1.650 . S
C737 C427 1.649 . S
C743 C399 1.658 . S
C757 C413 1.656 . S
C763 C441 1.661 . S
C777 C356 1.218 . S
C783 C6 1.212 . S
C797 C20 1.218 . S
C803 C342 1.212 . S
C817 C34 1.200 . S
C823 C384 1.208 . S
C837 C48 1.216 . S
C843 C370 1.208 . S
C857 C412 1.215 . S
C863 C62 1.218 . S
C877 C76 1.218 . S
C883 C398 1.213 . S
C897 C90 1.199 . S
C903 C440 1.203 . S
C917 C426 1.211 . S
C923 C104 1.201 . S
C937 C118 1.218 . S
C943 C244 1.211 . S
C957 C132 1.215 . S
C963 C230 1.218 . S
C977 C146 1.199 . S
C983 C272 1.203 . S
C997 C160 1.217 . S
C1003 C258 1.209 . S
C1017 C174 1.204 . S
C1023 C300 1.199 . S
C1037 C286 1.207 . S
C1043 C188 1.216 . S
C1057 C328 1.212 . S
C1063 C202 1.218 . S
C1077 C216 1.214 . S
C1083 C314 1.204 . S
C1097 C8 1.331 . S
C1103 C64 1.331 . S
C1117 C22 1.346 . S
C1123 C414 1.346 . S
C1137 C36 1.359 . S
C1143 C204 1.359 . S
C1157 C50 1.363 . S
C1163 C330 1.363 . S
C1177 C78 1.322 . S
C1183 C358 1.322 . S
C1197 C148 1.323 . S
C1203 C92 1.323 . S
C1217 C274 1.354 . S
C1223 C106 1.354 . S
C1237 C176 1.337 . S
C1243 C120 1.337 . S
C1257 C134 1.343 . S
C1263 C302 1.343 . S
C1277 C442 1.323 . S
C1283 C162 1.323 . S
C1297 C190 1.370 . S
C1303 C246 1.370 . S
C1317 C218 1.371 . S
C1323 C386 1.371 . S
C1337 C288 1.324 . S
C1343 C232 1.324 . S
C1357 C260 1.338 . S
C1363 C428 1.338 . S
C1377 C372 1.363 . S
C1383 C316 1.363 . S
C1397 C400 1.344 . S
C1403 C344 1.344 . S
C1417 C9 1.572 . S
C1423 C23 1.568 . S
C1437 C37 1.573 . S
C1443 C51 1.576 . S
C1457 C65 1.558 . S
C1463 C79 1.561 . S
C1477 C93 1.576 . S
C1483 C107 1.572 . S
C1497 C135 1.561 . S
C1503 C121 1.558 . S
C1517 C149 1.568 . S
C1523 C163 1.572 . S
C1537 C177 1.557 . S
C1543 C191 1.557 . S
C1557 C205 1.579 . S
C1563 C219 1.578 . S
C1577 C233 1.568 . S
C1583 C247 1.564 . S
C1597 C275 1.570 . S
C1603 C261 1.573 . S
C1617 C289 1.578 . S
C1623 C303 1.579 . S
C1637 C317 1.565 . S
C1643 C331 1.569 . S
C1657 C359 1.575 . S
C1663 C345 1.578 . S
C1677 C373 1.558 . S
C1683 C387 1.560 . S
C1697 C415 1.565 . S
C1703 C401 1.569 . S
C1717 C429 1.562 . S
C1723 C443 1.566 . S
