# Generated by pormake.
# Topology uns, (4)-cn, num edge types: 1
# Building blocks:
#     Node 0, Type 0, BuildingBlock: NAWXER_clean_sbu_0, # of connection points: 4
#     Node 1, Type 0, BuildingBlock: NAWXER_clean_sbu_0, # of connection points: 4
#     Node 2, Type 0, BuildingBlock: NAWXER_clean_sbu_0, # of connection points: 4
#     Node 3, Type 0, BuildingBlock: NAWXER_clean_sbu_0, # of connection points: 4
#     Node 4, Type 0, BuildingBlock: NAWXER_clean_sbu_0, # of connection points: 4
#     Node 5, Type 0, BuildingBlock: NAWXER_clean_sbu_0, # of connection points: 4
#     Node 6, Type 0, BuildingBlock: NAWXER_clean_sbu_0, # of connection points: 4
#     Node 7, Type 0, BuildingBlock: NAWXER_clean_sbu_0, # of connection points: 4
#     Node 8, Type 0, BuildingBlock: NAWXER_clean_sbu_0, # of connection points: 4
#     Node 9, Type 0, BuildingBlock: NAWXER_clean_sbu_0, # of connection points: 4
#     Node 10, Type 0, BuildingBlock: NAWXER_clean_sbu_0, # of connection points: 4
#     Node 11, Type 0, BuildingBlock: NAWXER_clean_sbu_0, # of connection points: 4
#     Node 12, Type 0, BuildingBlock: NAWXER_clean_sbu_0, # of connection points: 4
#     Node 13, Type 0, BuildingBlock: NAWXER_clean_sbu_0, # of connection points: 4
#     Node 14, Type 0, BuildingBlock: NAWXER_clean_sbu_0, # of connection points: 4
#     Node 15, Type 0, BuildingBlock: NAWXER_clean_sbu_0, # of connection points: 4
#     Node 16, Type 0, BuildingBlock: NAWXER_clean_sbu_0, # of connection points: 4
#     Node 17, Type 0, BuildingBlock: NAWXER_clean_sbu_0, # of connection points: 4
#     Node 18, Type 0, BuildingBlock: NAWXER_clean_sbu_0, # of connection points: 4
#     Node 19, Type 0, BuildingBlock: NAWXER_clean_sbu_0, # of connection points: 4
#     Node 20, Type 0, BuildingBlock: NAWXER_clean_sbu_0, # of connection points: 4
#     Node 21, Type 0, BuildingBlock: NAWXER_clean_sbu_0, # of connection points: 4
#     Node 22, Type 0, BuildingBlock: NAWXER_clean_sbu_0, # of connection points: 4
#     Node 23, Type 0, BuildingBlock: NAWXER_clean_sbu_0, # of connection points: 4
#     Node 24, Type 0, BuildingBlock: NAWXER_clean_sbu_0, # of connection points: 4
#     Node 25, Type 0, BuildingBlock: NAWXER_clean_sbu_0, # of connection points: 4
#     Node 26, Type 0, BuildingBlock: NAWXER_clean_sbu_0, # of connection points: 4
#     Node 27, Type 0, BuildingBlock: NAWXER_clean_sbu_0, # of connection points: 4
#     Node 28, Type 0, BuildingBlock: NAWXER_clean_sbu_0, # of connection points: 4
#     Node 29, Type 0, BuildingBlock: NAWXER_clean_sbu_0, # of connection points: 4
#     Node 30, Type 0, BuildingBlock: NAWXER_clean_sbu_0, # of connection points: 4
#     Node 31, Type 0, BuildingBlock: NAWXER_clean_sbu_0, # of connection points: 4
#     Node 32, Type 0, BuildingBlock: NAWXER_clean_sbu_0, # of connection points: 4
#     Node 33, Type 0, BuildingBlock: NAWXER_clean_sbu_0, # of connection points: 4
#     Node 34, Type 0, BuildingBlock: NAWXER_clean_sbu_0, # of connection points: 4
#     Node 35, Type 0, BuildingBlock: NAWXER_clean_sbu_0, # of connection points: 4
#     Edge 36, Type (0, 0), BuildingBlock: UVAHIK_clean_linker_0, # of connection points: 2
#     Edge 37, Type (0, 0), BuildingBlock: UVAHIK_clean_linker_0, # of connection points: 2
#     Edge 38, Type (0, 0), BuildingBlock: UVAHIK_clean_linker_0, # of connection points: 2
#     Edge 39, Type (0, 0), BuildingBlock: UVAHIK_clean_linker_0, # of connection points: 2
#     Edge 40, Type (0, 0), BuildingBlock: UVAHIK_clean_linker_0, # of connection points: 2
#     Edge 41, Type (0, 0), BuildingBlock: UVAHIK_clean_linker_0, # of connection points: 2
#     Edge 42, Type (0, 0), BuildingBlock: UVAHIK_clean_linker_0, # of connection points: 2
#     Edge 43, Type (0, 0), BuildingBlock: UVAHIK_clean_linker_0, # of connection points: 2
#     Edge 44, Type (0, 0), BuildingBlock: UVAHIK_clean_linker_0, # of connection points: 2
#     Edge 45, Type (0, 0), BuildingBlock: UVAHIK_clean_linker_0, # of connection points: 2
#     Edge 46, Type (0, 0), BuildingBlock: UVAHIK_clean_linker_0, # of connection points: 2
#     Edge 47, Type (0, 0), BuildingBlock: UVAHIK_clean_linker_0, # of connection points: 2
#     Edge 48, Type (0, 0), BuildingBlock: UVAHIK_clean_linker_0, # of connection points: 2
#     Edge 49, Type (0, 0), BuildingBlock: UVAHIK_clean_linker_0, # of connection points: 2
#     Edge 50, Type (0, 0), BuildingBlock: UVAHIK_clean_linker_0, # of connection points: 2
#     Edge 51, Type (0, 0), BuildingBlock: UVAHIK_clean_linker_0, # of connection points: 2
#     Edge 52, Type (0, 0), BuildingBlock: UVAHIK_clean_linker_0, # of connection points: 2
#     Edge 53, Type (0, 0), BuildingBlock: UVAHIK_clean_linker_0, # of connection points: 2
#     Edge 54, Type (0, 0), BuildingBlock: UVAHIK_clean_linker_0, # of connection points: 2
#     Edge 55, Type (0, 0), BuildingBlock: UVAHIK_clean_linker_0, # of connection points: 2
#     Edge 56, Type (0, 0), BuildingBlock: UVAHIK_clean_linker_0, # of connection points: 2
#     Edge 57, Type (0, 0), BuildingBlock: UVAHIK_clean_linker_0, # of connection points: 2
#     Edge 58, Type (0, 0), BuildingBlock: UVAHIK_clean_linker_0, # of connection points: 2
#     Edge 59, Type (0, 0), BuildingBlock: UVAHIK_clean_linker_0, # of connection points: 2
#     Edge 60, Type (0, 0), BuildingBlock: UVAHIK_clean_linker_0, # of connection points: 2
#     Edge 61, Type (0, 0), BuildingBlock: UVAHIK_clean_linker_0, # of connection points: 2
#     Edge 62, Type (0, 0), BuildingBlock: UVAHIK_clean_linker_0, # of connection points: 2
#     Edge 63, Type (0, 0), BuildingBlock: UVAHIK_clean_linker_0, # of connection points: 2
#     Edge 64, Type (0, 0), BuildingBlock: UVAHIK_clean_linker_0, # of connection points: 2
#     Edge 65, Type (0, 0), BuildingBlock: UVAHIK_clean_linker_0, # of connection points: 2
#     Edge 66, Type (0, 0), BuildingBlock: UVAHIK_clean_linker_0, # of connection points: 2
#     Edge 67, Type (0, 0), BuildingBlock: UVAHIK_clean_linker_0, # of connection points: 2
#     Edge 68, Type (0, 0), BuildingBlock: UVAHIK_clean_linker_0, # of connection points: 2
#     Edge 69, Type (0, 0), BuildingBlock: UVAHIK_clean_linker_0, # of connection points: 2
#     Edge 70, Type (0, 0), BuildingBlock: UVAHIK_clean_linker_0, # of connection points: 2
#     Edge 71, Type (0, 0), BuildingBlock: UVAHIK_clean_linker_0, # of connection points: 2
#     Edge 72, Type (0, 0), BuildingBlock: UVAHIK_clean_linker_0, # of connection points: 2
#     Edge 73, Type (0, 0), BuildingBlock: UVAHIK_clean_linker_0, # of connection points: 2
#     Edge 74, Type (0, 0), BuildingBlock: UVAHIK_clean_linker_0, # of connection points: 2
#     Edge 75, Type (0, 0), BuildingBlock: UVAHIK_clean_linker_0, # of connection points: 2
#     Edge 76, Type (0, 0), BuildingBlock: UVAHIK_clean_linker_0, # of connection points: 2
#     Edge 77, Type (0, 0), BuildingBlock: UVAHIK_clean_linker_0, # of connection points: 2
#     Edge 78, Type (0, 0), BuildingBlock: UVAHIK_clean_linker_0, # of connection points: 2
#     Edge 79, Type (0, 0), BuildingBlock: UVAHIK_clean_linker_0, # of connection points: 2
#     Edge 80, Type (0, 0), BuildingBlock: UVAHIK_clean_linker_0, # of connection points: 2
#     Edge 81, Type (0, 0), BuildingBlock: UVAHIK_clean_linker_0, # of connection points: 2
#     Edge 82, Type (0, 0), BuildingBlock: UVAHIK_clean_linker_0, # of connection points: 2
#     Edge 83, Type (0, 0), BuildingBlock: UVAHIK_clean_linker_0, # of connection points: 2
#     Edge 84, Type (0, 0), BuildingBlock: UVAHIK_clean_linker_0, # of connection points: 2
#     Edge 85, Type (0, 0), BuildingBlock: UVAHIK_clean_linker_0, # of connection points: 2
#     Edge 86, Type (0, 0), BuildingBlock: UVAHIK_clean_linker_0, # of connection points: 2
#     Edge 87, Type (0, 0), BuildingBlock: UVAHIK_clean_linker_0, # of connection points: 2
#     Edge 88, Type (0, 0), BuildingBlock: UVAHIK_clean_linker_0, # of connection points: 2
#     Edge 89, Type (0, 0), BuildingBlock: UVAHIK_clean_linker_0, # of connection points: 2
#     Edge 90, Type (0, 0), BuildingBlock: UVAHIK_clean_linker_0, # of connection points: 2
#     Edge 91, Type (0, 0), BuildingBlock: UVAHIK_clean_linker_0, # of connection points: 2
#     Edge 92, Type (0, 0), BuildingBlock: UVAHIK_clean_linker_0, # of connection points: 2
#     Edge 93, Type (0, 0), BuildingBlock: UVAHIK_clean_linker_0, # of connection points: 2
#     Edge 94, Type (0, 0), BuildingBlock: UVAHIK_clean_linker_0, # of connection points: 2
#     Edge 95, Type (0, 0), BuildingBlock: UVAHIK_clean_linker_0, # of connection points: 2
#     Edge 96, Type (0, 0), BuildingBlock: UVAHIK_clean_linker_0, # of connection points: 2
#     Edge 97, Type (0, 0), BuildingBlock: UVAHIK_clean_linker_0, # of connection points: 2
#     Edge 98, Type (0, 0), BuildingBlock: UVAHIK_clean_linker_0, # of connection points: 2
#     Edge 99, Type (0, 0), BuildingBlock: UVAHIK_clean_linker_0, # of connection points: 2
#     Edge 100, Type (0, 0), BuildingBlock: UVAHIK_clean_linker_0, # of connection points: 2
#     Edge 101, Type (0, 0), BuildingBlock: UVAHIK_clean_linker_0, # of connection points: 2
#     Edge 102, Type (0, 0), BuildingBlock: UVAHIK_clean_linker_0, # of connection points: 2
#     Edge 103, Type (0, 0), BuildingBlock: UVAHIK_clean_linker_0, # of connection points: 2
#     Edge 104, Type (0, 0), BuildingBlock: UVAHIK_clean_linker_0, # of connection points: 2
#     Edge 105, Type (0, 0), BuildingBlock: UVAHIK_clean_linker_0, # of connection points: 2
#     Edge 106, Type (0, 0), BuildingBlock: UVAHIK_clean_linker_0, # of connection points: 2
#     Edge 107, Type (0, 0), BuildingBlock: UVAHIK_clean_linker_0, # of connection points: 2
# Relax obj value: 0.008
# Max RMSD: 0.156
# Mean RMSD: 0.156
data_MOF--net-uns--node1-NAWXER_clean_sbu_0--edge1-UVAHIK_clean_linker_0
_symmetry_space_group_name_H-M    P1
_symmetry_Int_Tables_number       1
_symmetry_cell_setting            triclinic
loop_
_symmetry_equiv_pos_as_xyz
'x, y, z'
_cell_length_a     77.703518
_cell_length_b     77.785162
_cell_length_c     58.883088
_cell_angle_alpha  89.837375
_cell_angle_beta   89.989788
_cell_angle_gamma 119.92133
loop_
_atom_site_label
_atom_site_type_symbol
_atom_site_fract_x
_atom_site_fract_y
_atom_site_fract_z
_atom_type_partial_charge
C0 C 0.26854 0.18267 0.07319 0.0
C1 C 0.21741 0.18685 0.02971 0.0
O2 O 0.25123 0.17838 0.07965 0.0
Zn3 Zn 0.24335 0.18538 0.05185 0.0
O4 O 0.27438 0.18944 0.05301 0.0
Zn5 Zn 0.26234 0.19642 0.02337 0.0
O6 O 0.27995 0.22461 0.01964 0.0
O7 O 0.26257 0.21702 0.05138 0.0
O8 O 0.23337 0.19279 0.01812 0.0
O9 O 0.21687 0.18148 0.05019 0.0
O10 O 0.2424 0.16325 0.0292 0.0
O11 O 0.26304 0.1788 1.00083 0.0
C12 C 0.27582 0.23006 0.03819 0.0
C13 C 0.25058 0.16269 0.01049 0.0
C14 C 0.81269 0.04252 0.05813 0.0
C15 C 0.81979 0.09848 0.10493 0.0
O16 O 0.81905 0.04341 0.07842 0.0
Zn17 Zn 0.82706 0.06153 0.10797 0.0
O18 O 0.81009 0.05648 0.05067 0.0
Zn19 Zn 0.81716 0.07208 0.07894 0.0
O20 O 0.84812 0.08341 0.08029 0.0
O21 O 0.85603 0.07249 0.11092 0.0
O22 O 0.81504 0.09622 0.08397 0.0
O23 O 0.82434 0.08654 0.11449 0.0
O24 O 0.80695 0.04283 0.1295 0.0
O25 O 0.7943 0.05109 0.10057 0.0
C26 C 0.8613 0.08296 0.09287 0.0
C27 C 0.7919 0.04113 0.11879 0.0
C28 C 0.92035 0.75521 0.02331 0.0
C29 C 0.95579 0.72172 0.05002 0.0
O30 O 0.92224 0.74178 0.01332 0.0
Zn31 Zn 0.93846 0.73862 0.03615 0.0
O32 O 0.92892 0.76183 0.04249 0.0
Zn33 Zn 0.94755 0.75677 0.06535 0.0
O34 O 0.97219 0.78179 0.06524 0.0
O35 O 0.96644 0.76559 0.03296 0.0
O36 O 0.95721 0.73515 0.06375 0.0
O37 O 0.94627 0.71882 0.03154 0.0
O38 O 0.91874 0.72696 0.06519 0.0
O39 O 0.932 0.74901 0.09268 0.0
C40 C 0.97763 0.78071 0.04521 0.0
C41 C 0.91811 0.73244 0.08559 0.0
C42 C 0.1867 0.26144 0.47299 0.0
C43 C 0.25712 0.28858 0.45798 0.0
O44 O 0.20132 0.27543 0.48334 0.0
Zn45 Zn 0.22158 0.2756 0.4646 0.0
O46 O 0.18981 0.25327 0.45576 0.0
Zn47 Zn 0.21517 0.25636 0.43685 0.0
O48 O 0.2118 0.23013 0.44064 0.0
O49 O 0.21794 0.24678 0.47271 0.0
O50 O 0.24641 0.27506 0.4436 0.0
O51 O 0.24872 0.29381 0.47269 0.0
O52 O 0.21643 0.28656 0.43312 0.0
O53 O 0.21088 0.26424 0.40696 0.0
C54 C 0.21417 0.23089 0.46206 0.0
C55 C 0.21224 0.28065 0.41249 0.0
C56 C 0.79226 0.98396 0.43227 0.0
C57 C 0.74115 0.9261 0.39238 0.0
O58 O 0.79228 0.9788 0.41184 0.0
Zn59 Zn 0.76682 0.95457 0.41225 0.0
O60 O 0.77768 0.97271 0.44528 0.0
Zn61 Zn 0.75036 0.94512 0.44274 0.0
O62 O 0.75382 0.9276 0.46327 0.0
O63 O 0.77159 0.93393 0.43201 0.0
O64 O 0.73692 0.92633 0.41343 0.0
O65 O 0.75731 0.94009 0.38435 0.0
O66 O 0.74575 0.96474 0.41736 0.0
O67 O 0.73115 0.95306 0.45046 0.0
C68 C 0.76562 0.92474 0.45103 0.0
C69 C 0.73321 0.96313 0.4326 0.0
C70 C 0.03684 0.80832 0.47135 0.0
C71 C 0.08834 0.80627 0.42511 0.0
O72 O 0.03955 0.81067 0.45002 0.0
Zn73 Zn 0.06227 0.80681 0.44807 0.0
O74 O 0.04866 0.80495 0.48332 0.0
Zn75 Zn 0.07421 0.80135 0.47756 0.0
O76 O 0.09485 0.82305 0.49481 0.0
O77 O 0.08552 0.83294 0.46446 0.0
O78 O 0.08988 0.80332 0.44631 0.0
O79 O 0.07398 0.80847 0.41853 0.0
O80 O 0.04937 0.7759 0.45716 0.0
O81 O 0.0646 0.77434 0.48797 0.0
C82 C 0.09675 0.83706 0.48196 0.0
C83 C 0.05146 0.76556 0.47279 0.0
C84 C 0.76244 0.85334 0.96089 0.0
C85 C 0.73048 0.78331 0.93906 0.0
O86 O 0.76857 0.85102 0.9415 0.0
Zn87 Zn 0.76371 0.8263 0.92024 0.0
O88 O 0.7505 0.83811 0.9723 0.0
Zn89 Zn 0.74737 0.81809 0.95069 0.0
O90 O 0.77508 0.81817 0.95244 0.0
O91 O 0.789 0.8272 0.91868 0.0
O92 O 0.72846 0.79056 0.95752 0.0
O93 O 0.74288 0.7949 0.92408 0.0
O94 O 0.75402 0.83203 0.89294 0.0
O95 O 0.73344 0.82401 0.92203 0.0
C96 C 0.78941 0.82171 0.93889 0.0
C97 C 0.73764 0.82915 0.9011 0.0
C98 C 0.2031 0.96995 0.92818 0.0
C99 C 0.19139 0.90953 0.89068 0.0
O100 O 0.20619 0.95877 0.94166 0.0
Zn101 Zn 0.20509 0.93042 0.93963 0.0
O102 O 0.19754 0.96436 0.90795 0.0
Zn103 Zn 0.19719 0.93959 0.90994 0.0
O104 O 0.17288 0.9223 0.9332 0.0
O105 O 0.18583 0.91479 0.96226 0.0
O106 O 0.18957 0.9238 0.88304 0.0
O107 O 0.19709 0.91009 0.91128 0.0
O108 O 0.23215 0.93773 0.94596 0.0
O109 O 0.22848 0.94927 0.91316 0.0
C110 C 0.17077 0.91376 0.95253 0.0
C111 C 0.23973 0.94764 0.92793 0.0
C112 C 0.0678 0.21809 0.93906 0.0
C113 C 0.03709 0.25853 0.92308 0.0
O114 O 0.05747 0.21649 0.92158 0.0
Zn115 Zn 0.05239 0.23786 0.92983 0.0
O116 O 0.07142 0.23146 0.9539 0.0
Zn117 Zn 0.06543 0.25496 0.96027 0.0
O118 O 0.05097 0.24573 0.98916 0.0
O119 O 0.03507 0.22625 0.96023 0.0
O120 O 0.04723 0.26329 0.94148 0.0
O121 O 0.03621 0.2447 0.91077 0.0
O122 O 0.08121 0.26263 0.9254 0.0
O123 O 0.09228 0.27855 0.95771 0.0
C124 C 0.03593 0.23018 0.98149 0.0
C125 C 0.09501 0.27687 0.93668 0.0
C126 C 0.84924 0.77033 0.55862 0.0
C127 C 0.77919 0.74125 0.5824 0.0
O128 O 0.84331 0.7727 0.5779 0.0
Zn129 Zn 0.81455 0.75627 0.57248 0.0
O130 O 0.83647 0.75923 0.54383 0.0
Zn131 Zn 0.80537 0.74114 0.5398 0.0
O132 O 0.80026 0.7546 0.51459 0.0
O133 O 0.80873 0.77178 0.54649 0.0
O134 O 0.78191 0.73656 0.56242 0.0
O135 O 0.7941 0.75226 0.59485 0.0
O136 O 0.81044 0.72746 0.57201 0.0
O137 O 0.80199 0.71419 0.53792 0.0
C138 C 0.80335 0.76995 0.52566 0.0
C139 C 0.80573 0.71283 0.55871 0.0
C140 C 0.27843 0.09068 0.6024 0.0
C141 C 0.23479 0.03442 0.55284 0.0
O142 O 0.28343 0.0872 0.58308 0.0
Zn143 Zn 0.25779 0.06341 0.57567 0.0
O144 O 0.26077 0.07937 0.6097 0.0
Zn145 Zn 0.23383 0.0541 0.60057 0.0
O146 O 0.23146 0.03531 0.62452 0.0
O147 O 0.25621 0.04305 0.60051 0.0
O148 O 0.22678 0.03605 0.57112 0.0
O149 O 0.25287 0.04705 0.54843 0.0
O150 O 0.23866 0.07524 0.57051 0.0
O151 O 0.21619 0.06524 0.59787 0.0
C152 C 0.24604 0.03344 0.61784 0.0
C153 C 0.2237 0.07517 0.57973 0.0
C154 C 0.93204 0.20516 0.57561 0.0
C155 C 0.98776 0.20718 0.53602 0.0
O156 O 0.93227 0.20992 0.55467 0.0
Zn157 Zn 0.95093 0.21434 0.52546 0.0
O158 O 0.94555 0.202 0.58295 0.0
Zn159 Zn 0.95982 0.20606 0.55516 0.0
O160 O 0.97419 0.2377 0.54895 0.0
O161 O 0.96136 0.24186 0.51745 0.0
O162 O 0.98222 0.20222 0.55645 0.0
O163 O 0.97754 0.21183 0.5228 0.0
O164 O 0.93297 0.19467 0.50434 0.0
O165 O 0.93975 0.18167 0.53392 0.0
C166 C 0.97355 0.24927 0.53379 0.0
C167 C 0.93071 0.17946 0.51499 0.0
C168 C 0.96048 0.53 0.43691 0.0
C169 C 0.91521 0.53899 0.38638 0.0
O170 O 0.94326 0.5245 0.44515 0.0
Zn171 Zn 0.91596 0.52252 0.43642 0.0
O172 O 0.96462 0.53703 0.41681 0.0
Zn173 Zn 0.9388 0.53483 0.41022 0.0
O174 O 0.93845 0.55593 0.43253 0.0
O175 O 0.91508 0.54105 0.4586 0.0
O176 O 0.93307 0.54378 0.38173 0.0
O177 O 0.90761 0.53099 0.40558 0.0
O178 O 0.89817 0.49353 0.43727 0.0
O179 O 0.91984 0.50353 0.40913 0.0
C180 C 0.92917 0.55689 0.44997 0.0
C181 C 0.90534 0.48945 0.41998 0.0
C182 C 0.47941 0.37463 0.36942 0.0
C183 C 0.49437 0.43298 0.41545 0.0
O184 O 0.48732 0.37534 0.38876 0.0
Zn185 Zn 0.49903 0.39438 0.41757 0.0
O186 O 0.47724 0.38906 0.36285 0.0
Zn187 Zn 0.4875 0.40476 0.39046 0.0
O188 O 0.51815 0.41413 0.38783 0.0
O189 O 0.5274 0.40299 0.41723 0.0
O190 O 0.48712 0.42958 0.39549 0.0
O191 O 0.4991 0.42095 0.4245 0.0
O192 O 0.48108 0.37715 0.44135 0.0
O193 O 0.46617 0.38502 0.41455 0.0
C194 C 0.53167 0.41275 0.39872 0.0
C195 C 0.46532 0.37562 0.4328 0.0
C196 C 0.58837 0.09775 0.36263 0.0
C197 C 0.62744 0.06851 0.38947 0.0
O198 O 0.58959 0.08337 0.35425 0.0
Zn199 Zn 0.60797 0.08342 0.37612 0.0
O200 O 0.59824 0.10632 0.38063 0.0
Zn201 Zn 0.61855 0.10332 0.40343 0.0
O202 O 0.64231 0.1289 0.40033 0.0
O203 O 0.6344 0.11143 0.36881 0.0
O204 O 0.6294 0.08254 0.40257 0.0
O205 O 0.61653 0.0643 0.372 0.0
O206 O 0.58977 0.07348 0.40655 0.0
O207 O 0.60442 0.09716 0.43199 0.0
C208 C 0.64586 0.12747 0.37957 0.0
C209 C 0.59012 0.08025 0.42653 0.0
C210 C 0.82541 0.57625 0.77072 0.0
C211 C 0.89279 0.60695 0.7405 0.0
O212 O 0.84104 0.59173 0.77709 0.0
Zn213 Zn 0.85883 0.59147 0.7548 0.0
O214 O 0.8263 0.56646 0.75362 0.0
Zn215 Zn 0.84948 0.56938 0.73022 0.0
O216 O 0.85034 0.54544 0.73506 0.0
O217 O 0.86127 0.56572 0.76435 0.0
O218 O 0.88093 0.59128 0.72935 0.0
O219 O 0.88594 0.61265 0.75655 0.0
O220 O 0.84829 0.59777 0.72345 0.0
O221 O 0.84039 0.57238 0.70084 0.0
C222 C 0.85763 0.54937 0.75492 0.0
C223 C 0.84184 0.58915 0.70423 0.0
C224 C 0.42979 0.30874 0.7427 0.0
C225 C 0.45668 0.27006 0.77929 0.0
O226 O 0.41953 0.29769 0.75921 0.0
Zn227 Zn 0.41958 0.27742 0.78312 0.0
O228 O 0.44564 0.30901 0.73648 0.0
Zn229 Zn 0.44431 0.2897 0.75919 0.0
O230 O 0.4189 0.26331 0.74837 0.0
O231 O 0.39551 0.25268 0.77455 0.0
O232 O 0.46395 0.28091 0.7617 0.0
O233 O 0.44078 0.26809 0.78828 0.0
O234 O 0.42201 0.29216 0.81099 0.0
O235 O 0.44901 0.30634 0.78951 0.0
C236 C 0.40146 0.25054 0.75515 0.0
C237 C 0.43972 0.30615 0.80754 0.0
C238 C 0.76406 0.18122 0.78529 0.0
C239 C 0.72989 0.11302 0.75939 0.0
O240 O 0.7629 0.16599 0.79474 0.0
Zn241 Zn 0.74702 0.14729 0.77205 0.0
O242 O 0.75535 0.17951 0.7662 0.0
Zn243 Zn 0.73706 0.15561 0.74312 0.0
O244 O 0.7121 0.15531 0.74329 0.0
O245 O 0.71913 0.1465 0.77608 0.0
O246 O 0.72782 0.12448 0.74531 0.0
O247 O 0.73998 0.12024 0.77733 0.0
O248 O 0.76668 0.15604 0.74292 0.0
O249 O 0.75226 0.16371 0.71556 0.0
C250 C 0.70748 0.14983 0.76379 0.0
C251 C 0.76679 0.16198 0.72251 0.0
C252 C 0.42315 0.18295 0.28178 0.0
C253 C 0.39215 0.11232 0.26583 0.0
O254 O 0.42981 0.1797 0.26331 0.0
Zn255 Zn 0.42564 0.15408 0.24458 0.0
O256 O 0.41089 0.16836 0.29378 0.0
Zn257 Zn 0.40843 0.14748 0.27432 0.0
O258 O 0.43598 0.14776 0.27857 0.0
O259 O 0.45124 0.15561 0.24547 0.0
O260 O 0.38952 0.1207 0.2829 0.0
O261 O 0.40491 0.1229 0.25056 0.0
O262 O 0.4166 0.15827 0.21584 0.0
O263 O 0.3953 0.15172 0.24388 0.0
C264 C 0.4509 0.15098 0.26622 0.0
C265 C 0.40003 0.15578 0.22285 0.0
C266 C 0.86609 0.30932 0.31359 0.0
C267 C 0.85465 0.25545 0.26045 0.0
O268 O 0.86607 0.29348 0.3193 0.0
Zn269 Zn 0.86011 0.28125 0.28898 0.0
O270 O 0.86222 0.31166 0.29303 0.0
Zn271 Zn 0.85482 0.29671 0.26115 0.0
O272 O 0.82728 0.29065 0.25618 0.0
O273 O 0.83039 0.27449 0.28538 0.0
O274 O 0.85316 0.26979 0.25199 0.0
O275 O 0.85832 0.25557 0.28158 0.0
O276 O 0.8858 0.30193 0.27048 0.0
O277 O 0.8774 0.31518 0.24231 0.0
C278 C 0.81957 0.2786 0.27273 0.0
C279 C 0.8907 0.31371 0.25341 0.0
C280 C 0.77219 0.58846 0.30424 0.0
C281 C 0.72811 0.61365 0.28199 0.0
O282 O 0.76126 0.57916 0.28717 0.0
Zn283 Zn 0.73865 0.58018 0.26686 0.0
O284 O 0.7702 0.60205 0.31367 0.0
Zn285 Zn 0.74939 0.60037 0.29413 0.0
O286 O 0.7241 0.57184 0.30237 0.0
O287 O 0.7158 0.55426 0.27091 0.0
O288 O 0.73945 0.6185 0.29919 0.0
O289 O 0.72657 0.59979 0.26892 0.0
O290 O 0.75109 0.58689 0.23735 0.0
O291 O 0.7653 0.61104 0.2624 0.0
C292 C 0.7127 0.55566 0.29181 0.0
C293 C 0.76448 0.60446 0.24223 0.0
C294 C 0.49949 0.07515 0.93129 0.0
C295 C 0.4901 0.12276 0.88588 0.0
O296 O 0.49366 0.06884 0.91101 0.0
Zn297 Zn 0.48569 0.07953 0.88075 0.0
O298 O 0.50165 0.09182 0.93713 0.0
Zn299 Zn 0.49411 0.09848 0.90866 0.0
O300 O 0.46259 0.07707 0.90676 0.0
O301 O 0.45859 0.06009 0.87539 0.0
O302 O 0.49492 0.12376 0.90664 0.0
O303 O 0.48631 0.10723 0.87448 0.0
O304 O 0.5041 0.08065 0.85864 0.0
O305 O 0.51816 0.10259 0.88609 0.0
C306 C 0.45118 0.0634 0.89287 0.0
C307 C 0.51958 0.09471 0.86754 0.0
C308 C 0.95116 0.42665 0.92001 0.0
C309 C 0.89861 0.37066 0.88002 0.0
O310 O 0.95607 0.42634 0.89923 0.0
Zn311 Zn 0.94237 0.40741 0.86994 0.0
O312 O 0.93438 0.41321 0.92717 0.0
Zn313 Zn 0.92504 0.3988 0.89956 0.0
O314 O 0.94371 0.38577 0.89527 0.0
O315 O 0.95984 0.39713 0.86295 0.0
O316 O 0.89908 0.37578 0.90055 0.0
O317 O 0.91351 0.3811 0.86697 0.0
O318 O 0.94058 0.4249 0.84808 0.0
O319 O 0.92107 0.41901 0.87776 0.0
C320 C 0.95605 0.38624 0.88045 0.0
C321 C 0.92788 0.42764 0.85857 0.0
C322 C 0.58999 0.52711 0.93413 0.0
C323 C 0.64377 0.53278 0.88553 0.0
O324 O 0.58902 0.53233 0.91368 0.0
Zn325 Zn 0.60523 0.53786 0.8822 0.0
O326 O 0.60405 0.52404 0.93969 0.0
Zn327 Zn 0.61674 0.52973 0.91016 0.0
O328 O 0.6273 0.56116 0.90698 0.0
O329 O 0.61356 0.56543 0.8763 0.0
O330 O 0.64055 0.52788 0.90635 0.0
O331 O 0.63175 0.53669 0.87481 0.0
O332 O 0.58515 0.51769 0.8629 0.0
O333 O 0.59457 0.50517 0.89067 0.0
C334 C 0.62493 0.57273 0.89336 0.0
C335 C 0.58354 0.50262 0.87334 0.0
C336 C 0.57695 0.83366 0.6991 0.0
C337 C 0.61299 0.90318 0.72023 0.0
O338 O 0.5899 0.84836 0.68781 0.0
Zn339 Zn 0.59425 0.86864 0.70926 0.0
O340 O 0.57108 0.83654 0.71834 0.0
Zn341 Zn 0.57735 0.86167 0.73934 0.0
O342 O 0.55273 0.8623 0.7396 0.0
O343 O 0.56798 0.87091 0.70653 0.0
O344 O 0.59992 0.89251 0.73519 0.0
O345 O 0.6146 0.89519 0.70218 0.0
O346 O 0.60653 0.86149 0.73845 0.0
O347 O 0.5858 0.85501 0.76709 0.0
C348 C 0.55344 0.86812 0.71928 0.0
C349 C 0.60182 0.85662 0.75935 0.0
C350 C 0.10469 0.70732 0.70176 0.0
C351 C 0.17447 0.75079 0.68287 0.0
O352 O 0.11235 0.71878 0.68481 0.0
Zn353 Zn 0.13976 0.7284 0.69203 0.0
O354 O 0.11611 0.70576 0.71638 0.0
Zn355 Zn 0.14785 0.7186 0.7211 0.0
O356 O 0.15212 0.73155 0.74988 0.0
O357 O 0.14427 0.74585 0.72255 0.0
O358 O 0.17232 0.7411 0.70134 0.0
O359 O 0.15922 0.74768 0.67167 0.0
O360 O 0.14358 0.70302 0.6867 0.0
O361 O 0.15236 0.69648 0.71976 0.0
C362 C 0.14901 0.74533 0.74335 0.0
C363 C 0.14866 0.69255 0.69883 0.0
C364 C 0.29845 0.3854 0.74396 0.0
C365 C 0.25255 0.40979 0.72998 0.0
O366 O 0.28387 0.37902 0.73037 0.0
Zn367 Zn 0.27498 0.39725 0.73827 0.0
O368 O 0.30152 0.3994 0.75782 0.0
Zn369 Zn 0.28783 0.41749 0.76473 0.0
O370 O 0.27727 0.41043 0.79535 0.0
O371 O 0.26043 0.38665 0.77076 0.0
O372 O 0.26431 0.41914 0.74649 0.0
O373 O 0.25385 0.39598 0.72017 0.0
O374 O 0.30065 0.42574 0.72896 0.0
O375 O 0.31005 0.44373 0.76017 0.0
C376 C 0.26277 0.39331 0.79111 0.0
C377 C 0.31258 0.44199 0.73916 0.0
C378 C 0.51086 0.92724 0.14659 0.0
C379 C 0.58178 0.95749 0.13065 0.0
O380 O 0.52566 0.94017 0.15767 0.0
Zn381 Zn 0.54615 0.94302 0.13719 0.0
O382 O 0.51385 0.92096 0.12765 0.0
Zn383 Zn 0.53979 0.92704 0.10724 0.0
O384 O 0.53767 0.90149 0.10519 0.0
O385 O 0.54475 0.91419 0.13964 0.0
O386 O 0.57134 0.94553 0.11475 0.0
O387 O 0.57301 0.96087 0.14673 0.0
O388 O 0.54196 0.95777 0.1079 0.0
O389 O 0.53602 0.93748 0.07928 0.0
C390 C 0.54157 0.90013 0.12583 0.0
C391 C 0.53807 0.95367 0.08673 0.0
C392 C 0.12176 0.64156 0.11742 0.0
C393 C 0.07512 0.58395 0.07389 0.0
O394 O 0.12316 0.637 0.09711 0.0
Zn395 Zn 0.09821 0.61252 0.09579 0.0
O396 O 0.10626 0.63008 0.12911 0.0
Zn397 Zn 0.07895 0.60272 0.12386 0.0
O398 O 0.08028 0.58559 0.14658 0.0
O399 O 0.10185 0.59271 0.11877 0.0
O400 O 0.0686 0.58385 0.09399 0.0
O401 O 0.09197 0.59812 0.06787 0.0
O402 O 0.07655 0.62224 0.09624 0.0
O403 O 0.05914 0.61054 0.12775 0.0
C404 C 0.094 0.58361 0.13747 0.0
C405 C 0.06262 0.62046 0.10948 0.0
C406 C 0.38271 0.43435 0.1091 0.0
C407 C 0.41729 0.50157 0.13956 0.0
O408 O 0.39122 0.44001 0.12824 0.0
Zn409 Zn 0.39954 0.46782 0.12485 0.0
O410 O 0.38214 0.44703 0.09561 0.0
Zn411 Zn 0.39197 0.47821 0.09541 0.0
O412 O 0.40904 0.4872 0.0692 0.0
O413 O 0.42085 0.47726 0.09726 0.0
O414 O 0.40961 0.50068 0.11999 0.0
O415 O 0.41478 0.48574 0.14893 0.0
O416 O 0.37186 0.46765 0.12697 0.0
O417 O 0.36724 0.47855 0.09424 0.0
C418 C 0.42263 0.48434 0.07711 0.0
C419 C 0.36121 0.47196 0.11414 0.0
C420 C 0.07697 0.47675 0.57997 0.0
C421 C 0.11728 0.46329 0.63358 0.0
O422 O 0.07113 0.46808 0.59912 0.0
Zn423 Zn 0.09611 0.46947 0.60786 0.0
O424 O 0.09483 0.48289 0.57349 0.0
Zn425 Zn 0.12122 0.48384 0.58481 0.0
O426 O 0.12447 0.46764 0.56155 0.0
O427 O 0.09852 0.45054 0.58398 0.0
O428 O 0.12665 0.47279 0.61569 0.0
O429 O 0.09905 0.45808 0.63611 0.0
O430 O 0.11492 0.50042 0.61278 0.0
O431 O 0.1392 0.51248 0.58755 0.0
C432 C 0.10951 0.45121 0.56746 0.0
C433 C 0.13048 0.51519 0.60433 0.0
C434 C 0.52772 0.6407 0.6172 0.0
C435 C 0.52316 0.58692 0.57167 0.0
O436 O 0.53193 0.6295 0.62928 0.0
Zn437 Zn 0.53357 0.60263 0.62326 0.0
O438 O 0.52277 0.63634 0.5966 0.0
Zn439 Zn 0.52539 0.61336 0.59552 0.0
O440 O 0.50068 0.59212 0.61648 0.0
O441 O 0.51433 0.58376 0.64394 0.0
O442 O 0.52023 0.60106 0.56646 0.0
O443 O 0.52824 0.58561 0.5921 0.0
O444 O 0.56087 0.61138 0.63034 0.0
O445 O 0.55734 0.62602 0.60007 0.0
C446 C 0.49886 0.58201 0.63454 0.0
C447 C 0.56868 0.62391 0.61434 0.0
C448 C 0.42303 0.93514 0.63391 0.0
C449 C 0.3821 0.96512 0.62009 0.0
O450 O 0.41398 0.92947 0.61477 0.0
Zn451 Zn 0.39459 0.93633 0.59465 0.0
O452 O 0.42136 0.94797 0.64548 0.0
Zn453 Zn 0.40412 0.95143 0.62518 0.0
O454 O 0.37703 0.92223 0.62661 0.0
O455 O 0.37163 0.91075 0.59152 0.0
O456 O 0.3948 0.96879 0.63558 0.0
O457 O 0.38066 0.95361 0.6037 0.0
O458 O 0.40915 0.94783 0.56716 0.0
O459 O 0.42361 0.96679 0.59671 0.0
C460 C 0.36641 0.90857 0.61225 0.0
C461 C 0.42353 0.96342 0.57536 0.0
C462 C 0.14575 0.38669 0.26783 0.0
C463 C 0.13887 0.43857 0.22911 0.0
O464 O 0.14047 0.382 0.24705 0.0
Zn465 Zn 0.13318 0.39522 0.21864 0.0
O466 O 0.14733 0.40262 0.27557 0.0
Zn467 Zn 0.1414 0.41221 0.24825 0.0
O468 O 0.1097 0.39367 0.24363 0.0
O469 O 0.10557 0.37718 0.21189 0.0
O470 O 0.14369 0.43802 0.24961 0.0
O471 O 0.13482 0.4239 0.21594 0.0
O472 O 0.15213 0.39788 0.19601 0.0
O473 O 0.16571 0.41738 0.22562 0.0
C474 C 0.0981 0.38127 0.22875 0.0
C475 C 0.16752 0.41091 0.20622 0.0
C476 C 0.61097 0.75299 0.26186 0.0
C477 C 0.55896 0.69273 0.22697 0.0
O478 O 0.61494 0.75136 0.24106 0.0
Zn479 Zn 0.60099 0.73035 0.21355 0.0
O480 O 0.59499 0.73951 0.27078 0.0
Zn481 Zn 0.58519 0.72301 0.24447 0.0
O482 O 0.60616 0.71269 0.2414 0.0
O483 O 0.61991 0.72152 0.2075 0.0
O484 O 0.56 0.69884 0.24715 0.0
O485 O 0.57304 0.70309 0.21295 0.0
O486 O 0.59736 0.74638 0.19096 0.0
O487 O 0.57964 0.74176 0.22199 0.0
C488 C 0.61837 0.71305 0.22648 0.0
C489 C 0.58532 0.74962 0.20223 0.0
C490 C 0.25376 0.85139 0.27587 0.0
C491 C 0.31453 0.86569 0.2349 0.0
O492 O 0.25379 0.85696 0.25529 0.0
Zn493 Zn 0.27368 0.86582 0.22616 0.0
O494 O 0.26859 0.85026 0.28305 0.0
Zn495 Zn 0.28395 0.85828 0.25533 0.0
O496 O 0.29223 0.88932 0.25248 0.0
O497 O 0.27943 0.89236 0.22029 0.0
O498 O 0.30946 0.8593 0.25507 0.0
O499 O 0.30262 0.86864 0.22261 0.0
O500 O 0.25832 0.84645 0.20363 0.0
O501 O 0.26586 0.83376 0.23294 0.0
C502 C 0.28953 0.90019 0.23807 0.0
C503 C 0.25717 0.83148 0.21372 0.0
C504 C 0.30069 0.18365 0.08104 0.0
C505 C 0.28193 0.17979 0.08864 0.0
C506 C 0.31331 0.18079 0.09547 0.0
C507 C 0.32333 0.17722 0.15591 0.0
H508 H 0.3522 0.15218 0.13285 0.0
C509 C 0.3677 0.15432 0.21482 0.0
C510 C 0.38632 0.15784 0.2071 0.0
C511 C 0.35487 0.15669 0.20023 0.0
C512 C 0.34443 0.1594 0.13948 0.0
H513 H 0.26174 0.16991 0.1174 0.0
H514 H 0.2838 0.16486 0.14256 0.0
H515 H 0.32997 0.15697 0.10774 0.0
H516 H 0.40599 0.16653 0.17793 0.0
H517 H 0.38366 0.17091 0.15252 0.0
H518 H 0.33785 0.17977 0.18761 0.0
C519 C 0.28878 0.17026 0.12548 0.0
C520 C 0.33167 0.16213 0.1251 0.0
C521 C 0.27611 0.17306 0.11103 0.0
C522 C 0.39174 0.16364 0.1844 0.0
C523 C 0.3789 0.16605 0.1698 0.0
C524 C 0.33611 0.17454 0.17027 0.0
C525 C 0.30751 0.17406 0.11785 0.0
C526 C 0.32098 0.17107 0.13316 0.0
C527 C 0.36035 0.16269 0.17758 0.0
C528 C 0.3468 0.16558 0.16224 0.0
H529 H 0.30566 0.18888 0.06391 0.0
H530 H 0.32775 0.18409 0.08917 0.0
H531 H 0.31554 0.18443 0.16253 0.0
H532 H 0.363 0.14973 0.23218 0.0
H533 H 0.34057 0.15367 0.20668 0.0
C534 C 0.82382 0.13263 0.11033 0.0
C535 C 0.82009 0.11431 0.11923 0.0
C536 C 0.82648 0.14802 0.12502 0.0
C537 C 0.81842 0.15799 0.18509 0.0
H538 H 0.86292 0.21052 0.17352 0.0
C539 C 0.84776 0.2205 0.25295 0.0
C540 C 0.85197 0.23925 0.24496 0.0
C541 C 0.84385 0.20518 0.23755 0.0
C542 C 0.85034 0.19596 0.17694 0.0
H543 H 0.81519 0.09745 0.15038 0.0
H544 H 0.81981 0.1239 0.17556 0.0
H545 H 0.85443 0.18424 0.1458 0.0
H546 H 0.85602 0.25671 0.21448 0.0
H547 H 0.84927 0.23031 0.18807 0.0
H548 H 0.81445 0.16968 0.21633 0.0
C549 C 0.82069 0.1266 0.15743 0.0
C550 C 0.84539 0.18092 0.16095 0.0
C551 C 0.81819 0.11143 0.14291 0.0
C552 C 0.85273 0.24245 0.22133 0.0
C553 C 0.849 0.22731 0.20608 0.0
C554 C 0.8234 0.17301 0.2011 0.0
C555 C 0.82519 0.14522 0.1488 0.0
C556 C 0.82944 0.16169 0.16487 0.0
C557 C 0.84431 0.20842 0.21391 0.0
C558 C 0.83945 0.19219 0.19727 0.0
H559 H 0.82541 0.1353 0.09219 0.0
H560 H 0.82974 0.16215 0.1178 0.0
H561 H 0.80587 0.14342 0.18856 0.0
H562 H 0.84704 0.21755 0.27101 0.0
H563 H 0.84046 0.19082 0.24414 0.0
C564 C 0.77882 0.61063 0.20279 0.0
C565 C 0.77922 0.61738 0.22501 0.0
C566 C 0.79298 0.62293 0.18677 0.0
C567 C 0.82935 0.67568 0.17477 0.0
H568 H 0.85381 0.65398 0.1355 0.0
C569 C 0.90036 0.72527 0.12303 0.0
C570 C 0.9014 0.71937 0.10077 0.0
C571 C 0.88475 0.71276 0.13742 0.0
C572 C 0.84695 0.66022 0.14615 0.0
H573 H 0.79483 0.64238 0.24779 0.0
H574 H 0.81951 0.66363 0.22003 0.0
H575 H 0.82767 0.63216 0.16182 0.0
H576 H 0.88672 0.69572 0.07613 0.0
H577 H 0.85945 0.67399 0.10121 0.0
H578 H 0.84876 0.70376 0.15928 0.0
C579 C 0.80812 0.64896 0.21483 0.0
C580 C 0.83195 0.64771 0.16121 0.0
C581 C 0.79402 0.6367 0.23081 0.0
C582 C 0.88641 0.70072 0.0932 0.0
C583 C 0.87082 0.6882 0.10761 0.0
C584 C 0.84435 0.68818 0.15974 0.0
C585 C 0.8078 0.64224 0.19263 0.0
C586 C 0.82309 0.65533 0.17584 0.0
C587 C 0.86983 0.69405 0.12991 0.0
C588 C 0.85343 0.68063 0.14537 0.0
H589 H 0.76759 0.59584 0.19775 0.0
H590 H 0.7922 0.61737 0.16973 0.0
H591 H 0.82259 0.68196 0.18552 0.0
H592 H 0.91168 0.73951 0.12943 0.0
H593 H 0.88455 0.71761 0.1546 0.0
C594 C 0.20071 0.28494 0.37391 0.0
C595 C 0.20726 0.29206 0.39601 0.0
C596 C 0.19413 0.29476 0.3593 0.0
C597 C 0.17383 0.3289 0.36089 0.0
H598 H 0.18629 0.3359 0.2966 0.0
C599 C 0.15742 0.38002 0.30486 0.0
C600 C 0.15109 0.37436 0.28235 0.0
C601 C 0.16361 0.36923 0.31824 0.0
C602 C 0.18242 0.33384 0.31446 0.0
H603 H 0.21262 0.31554 0.41968 0.0
H604 H 0.20142 0.33266 0.39425 0.0
H605 H 0.19901 0.31898 0.32044 0.0
H606 H 0.14611 0.3526 0.25645 0.0
H607 H 0.15667 0.33358 0.27994 0.0
H608 H 0.15723 0.34365 0.35501 0.0
C609 C 0.20102 0.31931 0.3883 0.0
C610 C 0.18977 0.32416 0.32815 0.0
C611 C 0.20762 0.30955 0.40285 0.0
C612 C 0.15087 0.35741 0.2737 0.0
C613 C 0.15709 0.34658 0.28713 0.0
C614 C 0.16646 0.33851 0.34722 0.0
C615 C 0.19388 0.31189 0.36647 0.0
C616 C 0.18573 0.32174 0.3516 0.0
C617 C 0.16365 0.35242 0.30956 0.0
C618 C 0.17079 0.3413 0.32385 0.0
H619 H 0.20016 0.27149 0.36808 0.0
H620 H 0.18865 0.28856 0.34266 0.0
H621 H 0.17003 0.32692 0.37877 0.0
H622 H 0.1579 0.39304 0.3121 0.0
H623 H 0.16883 0.3744 0.33529 0.0
C624 C 0.62045 0.77289 0.29775 0.0
C625 C 0.62477 0.77071 0.27512 0.0
C626 C 0.63328 0.78984 0.31006 0.0
C627 C 0.67289 0.84194 0.30283 0.0
H628 H 0.68412 0.83695 0.3659 0.0
C629 C 0.73245 0.9077 0.35535 0.0
C630 C 0.72756 0.90913 0.37799 0.0
C631 C 0.71998 0.89107 0.34231 0.0
C632 C 0.68096 0.83862 0.34837 0.0
H633 H 0.64606 0.78461 0.24772 0.0
H634 H 0.66852 0.81406 0.2693 0.0
H635 H 0.66238 0.8073 0.34422 0.0
H636 H 0.7055 0.89443 0.40449 0.0
H637 H 0.68375 0.86565 0.38171 0.0
H638 H 0.69149 0.87331 0.30704 0.0
C639 C 0.65508 0.80277 0.27742 0.0
C640 C 0.66851 0.82162 0.33595 0.0
C641 C 0.64226 0.78582 0.26511 0.0
C642 C 0.70978 0.89377 0.38715 0.0
C643 C 0.69736 0.87719 0.37414 0.0
C644 C 0.68536 0.85897 0.31527 0.0
C645 C 0.65072 0.805 0.30002 0.0
C646 C 0.66425 0.82308 0.31307 0.0
C647 C 0.7024 0.87554 0.35165 0.0
C648 C 0.68945 0.8575 0.33822 0.0
H649 H 0.60707 0.76157 0.30594 0.0
H650 H 0.62937 0.79121 0.32735 0.0
H651 H 0.6697 0.84359 0.28531 0.0
H652 H 0.74605 0.91926 0.3478 0.0
H653 H 0.72434 0.89017 0.32508 0.0
C654 C 0.12016 0.80659 0.41647 0.0
C655 C 0.10403 0.80851 0.40889 0.0
C656 C 0.13581 0.81027 0.40178 0.0
C657 C 0.15018 0.81538 0.34081 0.0
H658 H 0.20365 0.84478 0.36485 0.0
C659 C 0.21995 0.84723 0.28302 0.0
C660 C 0.23647 0.84618 0.29099 0.0
C661 C 0.20361 0.8422 0.29718 0.0
C662 C 0.18882 0.83635 0.35789 0.0
H663 H 0.09159 0.81542 0.37964 0.0
H664 H 0.11894 0.82196 0.35406 0.0
H665 H 0.17544 0.83641 0.38963 0.0
H666 H 0.24863 0.83889 0.32022 0.0
H667 H 0.22012 0.82999 0.34481 0.0
H668 H 0.16363 0.81541 0.30902 0.0
C669 C 0.1194 0.81742 0.37135 0.0
C670 C 0.1726 0.83152 0.37214 0.0
C671 C 0.10373 0.81373 0.38606 0.0
C672 C 0.23622 0.83996 0.31351 0.0
C673 C 0.21988 0.83495 0.32767 0.0
C674 C 0.16643 0.82022 0.32654 0.0
C675 C 0.1358 0.816 0.37909 0.0
C676 C 0.15304 0.82096 0.36382 0.0
C677 C 0.20335 0.836 0.31971 0.0
C678 C 0.18598 0.83077 0.33489 0.0
H679 H 0.1209 0.80253 0.4339 0.0
H680 H 0.14798 0.80866 0.40826 0.0
H681 H 0.13535 0.80702 0.33386 0.0
H682 H 0.21962 0.85198 0.26579 0.0
H683 H 0.19129 0.84345 0.29053 0.0
C684 C 0.61038 0.84776 0.79714 0.0
C685 C 0.61516 0.85311 0.77421 0.0
C686 C 0.62318 0.84466 0.81108 0.0
C687 C 0.66451 0.83389 0.80881 0.0
H688 H 0.67476 0.8544 0.87025 0.0
C689 C 0.72756 0.83684 0.86362 0.0
C690 C 0.7234 0.83162 0.88666 0.0
C691 C 0.71405 0.83911 0.85005 0.0
C692 C 0.67188 0.84838 0.85322 0.0
H693 H 0.63719 0.85941 0.74798 0.0
H694 H 0.6595 0.85422 0.77228 0.0
H695 H 0.65155 0.85878 0.8464 0.0
H696 H 0.70172 0.82468 0.9135 0.0
H697 H 0.67814 0.82851 0.88979 0.0
H698 H 0.68491 0.82358 0.81559 0.0
C699 C 0.64575 0.85214 0.77945 0.0
C700 C 0.65857 0.85088 0.83956 0.0
C701 C 0.63298 0.85524 0.76554 0.0
C702 C 0.70543 0.82875 0.89582 0.0
C703 C 0.69195 0.83106 0.88227 0.0
C704 C 0.67783 0.83141 0.82246 0.0
C705 C 0.64102 0.84683 0.80239 0.0
C706 C 0.65478 0.84373 0.81715 0.0
C707 C 0.69609 0.83625 0.85922 0.0
C708 C 0.68174 0.83869 0.8448 0.0
H709 H 0.59675 0.84595 0.80436 0.0
H710 H 0.61899 0.84036 0.82861 0.0
H711 H 0.66169 0.82791 0.79177 0.0
H712 H 0.74127 0.83921 0.85603 0.0
H713 H 0.7178 0.84336 0.83243 0.0
C714 C 0.18875 0.8764 0.88414 0.0
C715 C 0.18681 0.89235 0.87596 0.0
C716 C 0.18428 0.86017 0.87019 0.0
C717 C 0.17884 0.84542 0.8098 0.0
H718 H 0.15009 0.7919 0.834 0.0
C719 C 0.14914 0.77696 0.75181 0.0
C720 C 0.15174 0.76122 0.75927 0.0
C721 C 0.15282 0.79256 0.76642 0.0
C722 C 0.1583 0.80677 0.82704 0.0
H723 H 0.17854 0.90366 0.84671 0.0
H724 H 0.17061 0.87535 0.82253 0.0
H725 H 0.15801 0.81999 0.8588 0.0
H726 H 0.15987 0.74936 0.78811 0.0
H727 H 0.1664 0.77664 0.81354 0.0
H728 H 0.17916 0.83225 0.77808 0.0
C729 C 0.17584 0.87548 0.83962 0.0
C730 C 0.16285 0.82286 0.84126 0.0
C731 C 0.18029 0.89168 0.85354 0.0
C732 C 0.1577 0.76124 0.78182 0.0
C733 C 0.16136 0.77683 0.79644 0.0
C734 C 0.17428 0.82935 0.79561 0.0
C735 C 0.1778 0.85954 0.84774 0.0
C736 C 0.17314 0.84238 0.83278 0.0
C737 C 0.15916 0.79278 0.78884 0.0
C738 C 0.16391 0.80982 0.80403 0.0
H739 H 0.19376 0.87644 0.90132 0.0
H740 H 0.18616 0.84823 0.87689 0.0
H741 H 0.18709 0.86027 0.80281 0.0
H742 H 0.14449 0.7774 0.73458 0.0
H743 H 0.15068 0.80446 0.76014 0.0
C744 C 0.12967 0.30711 0.93526 0.0
C745 C 0.11403 0.29034 0.92479 0.0
C746 C 0.14754 0.3191 0.92345 0.0
C747 C 0.17699 0.31698 0.8751 0.0
H748 H 0.20105 0.37417 0.87216 0.0
C749 C 0.23184 0.36271 0.80408 0.0
C750 C 0.24797 0.38157 0.80905 0.0
C751 C 0.21719 0.35207 0.82039 0.0
C752 C 0.19473 0.35824 0.87307 0.0
H753 H 0.10505 0.27325 0.89354 0.0
H754 H 0.13574 0.29384 0.8734 0.0
H755 H 0.17255 0.355 0.89724 0.0
H756 H 0.26139 0.40388 0.83534 0.0
H757 H 0.23587 0.38518 0.86389 0.0
H758 H 0.19884 0.32002 0.85085 0.0
C759 C 0.13442 0.29773 0.89071 0.0
C760 C 0.17838 0.34726 0.88746 0.0
C761 C 0.11668 0.28597 0.90231 0.0
C762 C 0.24919 0.38939 0.83091 0.0
C763 C 0.23448 0.37872 0.84725 0.0
C764 C 0.19329 0.3279 0.86083 0.0
C765 C 0.15016 0.31436 0.9011 0.0
C766 C 0.16902 0.32644 0.88821 0.0
C767 C 0.21822 0.35994 0.84217 0.0
C768 C 0.20211 0.34864 0.85917 0.0
H769 H 0.12813 0.31092 0.95253 0.0
H770 H 0.15941 0.33184 0.93192 0.0
H771 H 0.1704 0.30099 0.87561 0.0
H772 H 0.23031 0.35624 0.78742 0.0
H773 H 0.20477 0.33781 0.81568 0.0
C774 C 0.80863 0.68182 0.55648 0.0
C775 C 0.80426 0.69465 0.56874 0.0
C776 C 0.80968 0.66637 0.56774 0.0
C777 C 0.79638 0.63838 0.62283 0.0
H778 H 0.84325 0.63392 0.61232 0.0
C779 C 0.83147 0.61348 0.69187 0.0
C780 C 0.83598 0.59862 0.68627 0.0
C781 C 0.82557 0.62218 0.67507 0.0
C782 C 0.82996 0.63482 0.61523 0.0
H783 H 0.79648 0.70069 0.602 0.0
H784 H 0.79839 0.67433 0.6213 0.0
H785 H 0.83544 0.65371 0.5863 0.0
H786 H 0.83817 0.58149 0.65855 0.0
H787 H 0.82835 0.59721 0.62903 0.0
H788 H 0.79157 0.62048 0.65246 0.0
C789 C 0.80092 0.67583 0.60314 0.0
C790 C 0.8254 0.64605 0.60027 0.0
C791 C 0.80002 0.69116 0.59204 0.0
C792 C 0.83471 0.59285 0.66341 0.0
C793 C 0.82917 0.60187 0.64651 0.0
C794 C 0.80109 0.62745 0.63789 0.0
C795 C 0.80607 0.66339 0.59132 0.0
C796 C 0.80889 0.64849 0.60432 0.0
C797 C 0.82437 0.61649 0.65223 0.0
C798 C 0.81821 0.62601 0.63461 0.0
H799 H 0.81203 0.68422 0.53852 0.0
H800 H 0.81359 0.65697 0.55811 0.0
H801 H 0.78327 0.6395 0.62618 0.0
H802 H 0.83226 0.61822 0.70931 0.0
H803 H 0.82213 0.63357 0.67991 0.0
C804 C 0.36952 0.21895 0.74603 0.0
C805 C 0.38877 0.23375 0.73985 0.0
C806 C 0.35797 0.20337 0.73105 0.0
C807 C 0.35363 0.18965 0.66997 0.0
H808 H 0.32209 0.13593 0.69269 0.0
C809 C 0.31178 0.12121 0.61036 0.0
C810 C 0.29238 0.10728 0.61721 0.0
C811 C 0.32437 0.13667 0.62501 0.0
C812 C 0.33072 0.15088 0.68606 0.0
H813 H 0.41095 0.24361 0.71301 0.0
H814 H 0.39105 0.21663 0.68735 0.0
H815 H 0.34156 0.1628 0.71911 0.0
H816 H 0.27111 0.09879 0.64492 0.0
H817 H 0.29273 0.12544 0.66989 0.0
H818 H 0.34268 0.1777 0.63692 0.0
C819 C 0.38468 0.21711 0.70353 0.0
C820 C 0.34182 0.16629 0.70125 0.0
C821 C 0.39616 0.23256 0.71842 0.0
C822 C 0.28595 0.10916 0.63895 0.0
C823 C 0.29844 0.12442 0.65347 0.0
C824 C 0.34251 0.17422 0.65477 0.0
C825 C 0.36542 0.20232 0.70957 0.0
C826 C 0.35336 0.1859 0.69344 0.0
C827 C 0.31782 0.13836 0.6468 0.0
C828 C 0.33078 0.15465 0.66264 0.0
H829 H 0.36336 0.21942 0.76237 0.0
H830 H 0.34311 0.19229 0.73617 0.0
H831 H 0.36218 0.20461 0.66337 0.0
H832 H 0.3172 0.1202 0.59376 0.0
H833 H 0.33928 0.14715 0.61939 0.0
C834 C 0.89991 0.20465 0.58271 0.0
C835 C 0.91574 0.20251 0.5909 0.0
C836 C 0.88401 0.201 0.59694 0.0
C837 C 0.85868 0.17382 0.64916 0.0
H838 H 0.83471 0.20718 0.64812 0.0
C839 C 0.80011 0.16538 0.71511 0.0
C840 C 0.78383 0.16688 0.70729 0.0
C841 C 0.81623 0.17005 0.70083 0.0
C842 C 0.8411 0.1976 0.64842 0.0
H843 H 0.9275 0.19536 0.62064 0.0
H844 H 0.89992 0.18922 0.64541 0.0
H845 H 0.86295 0.21509 0.62339 0.0
H846 H 0.77173 0.1745 0.67825 0.0
H847 H 0.79977 0.18245 0.65325 0.0
H848 H 0.83685 0.15629 0.6741 0.0
C849 C 0.89962 0.1934 0.62791 0.0
C850 C 0.85729 0.20213 0.63427 0.0
C851 C 0.9155 0.19705 0.61373 0.0
C852 C 0.78405 0.17321 0.68484 0.0
C853 C 0.80018 0.17789 0.67054 0.0
C854 C 0.84251 0.16928 0.66328 0.0
C855 C 0.88358 0.19511 0.61963 0.0
C856 C 0.86631 0.19033 0.63454 0.0
C857 C 0.81645 0.17634 0.67836 0.0
C858 C 0.83355 0.18114 0.66314 0.0
H859 H 0.89962 0.2088 0.5652 0.0
H860 H 0.8718 0.2023 0.58998 0.0
H861 H 0.86504 0.1642 0.64948 0.0
H862 H 0.80048 0.16064 0.73234 0.0
H863 H 0.82865 0.16897 0.70749 0.0
C864 C 0.99157 0.52767 0.44186 0.0
C865 C 0.97469 0.52724 0.4511 0.0
C866 C 1.00355 0.52303 0.45549 0.0
C867 C 0.01447 0.51773 0.51595 0.0
H868 H 0.0314 0.48231 0.49159 0.0
C869 C 0.04653 0.47977 0.57315 0.0
C870 C 0.06386 0.48049 0.56497 0.0
C871 C 0.03545 0.48517 0.55901 0.0
C872 C 0.02688 0.49231 0.4986 0.0
H873 H 0.95762 0.52237 0.48207 0.0
H874 H 0.97815 0.51422 0.50541 0.0
H875 H 0.01408 0.4941 0.46709 0.0
H876 H 0.0827 0.48668 0.5353 0.0
H877 H 0.06349 0.49595 0.51088 0.0
H878 H 0.02709 0.51578 0.54751 0.0
C879 C 0.98236 0.51823 0.48782 0.0
C880 C 0.01707 0.49917 0.48451 0.0
C881 C 0.97046 0.52277 0.4743 0.0
C882 C 0.06948 0.48605 0.54222 0.0
C883 C 0.05838 0.49125 0.52811 0.0
C884 C 0.02419 0.51081 0.53004 0.0
C885 C 0.99892 0.51805 0.4786 0.0
C886 C 0.01064 0.51188 0.49305 0.0
C887 C 0.0414 0.49116 0.53639 0.0
C888 C 0.03046 0.49797 0.52157 0.0
H889 H 0.99521 0.53103 0.42405 0.0
H890 H 0.01634 0.52323 0.44791 0.0
H891 H 0.00999 0.52775 0.52301 0.0
H892 H 0.04184 0.47558 0.59058 0.0
H893 H 0.02229 0.48475 0.56579 0.0
C894 C 0.50456 0.4524 0.4513 0.0
C895 C 0.49697 0.4501 0.42912 0.0
C896 C 0.50635 0.46763 0.46519 0.0
C897 C 0.51117 0.51668 0.46598 0.0
H898 H 0.4941 0.50253 0.52855 0.0
C899 C 0.51408 0.57324 0.53223 0.0
C900 C 0.52018 0.57188 0.55435 0.0
C901 C 0.51058 0.55876 0.51602 0.0
C902 C 0.49913 0.50679 0.51121 0.0
H903 H 0.48576 0.46247 0.40401 0.0
H904 H 0.48909 0.48953 0.42858 0.0
H905 H 0.48863 0.47672 0.50146 0.0
H906 H 0.52772 0.55437 0.57661 0.0
H907 H 0.52184 0.52923 0.54826 0.0
H908 H 0.52203 0.54686 0.47592 0.0
C909 C 0.49356 0.47929 0.43502 0.0
C910 C 0.4959 0.49198 0.49566 0.0
C911 C 0.49162 0.46382 0.421 0.0
C912 C 0.52295 0.55583 0.55979 0.0
C913 C 0.51945 0.54135 0.54356 0.0
C914 C 0.51447 0.53157 0.48162 0.0
C915 C 0.50067 0.48111 0.45739 0.0
C916 C 0.50221 0.49678 0.47299 0.0
C917 C 0.51306 0.54255 0.52153 0.0
C918 C 0.50879 0.5268 0.50452 0.0
H919 H 0.509 0.44228 0.45818 0.0
H920 H 0.51227 0.46887 0.48214 0.0
H921 H 0.51631 0.52082 0.44866 0.0
H922 H 0.51178 0.58539 0.52745 0.0
H923 H 0.5055 0.56006 0.49931 0.0
C924 C 0.57413 0.07531 0.46502 0.0
C925 C 0.57367 0.06856 0.44277 0.0
C926 C 0.55836 0.0644 0.48008 0.0
C927 C 0.51486 0.01398 0.48915 0.0
H928 H 0.49681 0.04118 0.52938 0.0
C929 C 0.44076 0.97206 0.53757 0.0
C930 C 0.44051 0.97684 0.56056 0.0
C931 C 0.45722 0.98377 0.52384 0.0
C932 C 0.5018 0.03337 0.51842 0.0
H933 H 0.55614 0.045 0.41895 0.0
H934 H 0.52865 0.02623 0.44495 0.0
H935 H 0.52521 0.06043 0.50437 0.0
H936 H 0.45734 0.99804 0.58692 0.0
H937 H 0.48612 0.01857 0.56282 0.0
H938 H 0.49135 0.98695 0.50298 0.0
C939 C 0.54133 0.03976 0.45098 0.0
C940 C 0.51812 0.0444 0.50409 0.0
C941 C 0.55709 0.05061 0.43598 0.0
C942 C 0.457 0.99394 0.5693 0.0
C943 C 0.47348 0.00574 0.55547 0.0
C944 C 0.49853 1.00299 0.50337 0.0
C945 C 0.54172 0.04648 0.47325 0.0
C946 C 0.52478 0.03485 0.48913 0.0
C947 C 0.47389 1.00063 0.53264 0.0
C948 C 0.49168 0.01252 0.51806 0.0
H949 H 0.58668 0.08904 0.47085 0.0
H950 H 0.55933 0.06993 0.49716 0.0
H951 H 0.51979 0.00608 0.47827 0.0
H952 H 0.42832 0.95906 0.5302 0.0
H953 H 0.45688 0.97959 0.50624 0.0
C954 C 0.50958 0.06967 0.97008 0.0
C955 C 0.50382 0.06317 0.94764 0.0
C956 C 0.51382 0.05846 0.9854 0.0
C957 C 0.52775 0.01929 0.98768 0.0
H958 H 0.50958 0.01296 0.05008 0.0
C959 C 0.53066 0.96222 0.04817 0.0
C960 C 0.53541 0.96727 0.07115 0.0
C961 C 0.52753 0.97455 0.03347 0.0
C962 C 0.51502 0.01479 0.03281 0.0
H963 H 0.49793 0.03964 0.92383 0.0
H964 H 0.50521 0.02009 0.95052 0.0
H965 H 0.50257 0.03303 0.02386 0.0
H966 H 0.54076 0.9895 0.09657 0.0
H967 H 0.53554 0.0112 0.07082 0.0
H968 H 0.5402 1.00107 0.99656 0.0
C969 C 0.50667 0.03398 0.95623 0.0
C970 C 0.51096 0.02629 0.01774 0.0
C971 C 0.50237 0.04515 0.94094 0.0
C972 C 0.5371 0.98512 0.07899 0.0
C973 C 0.53398 0.9975 0.06424 0.0
C974 C 0.53184 0.00783 0.00274 0.0
C975 C 0.51248 0.04049 0.97867 0.0
C976 C 0.51715 0.02859 0.99492 0.0
C977 C 0.5291 0.99236 0.04127 0.0
C978 C 0.52541 0.00528 0.02549 0.0
H979 H 0.51089 0.08348 0.97585 0.0
H980 H 0.51845 0.06405 0.00245 0.0
H981 H 0.53309 0.02102 0.97037 0.0
H982 H 0.52913 0.94856 0.0415 0.0
H983 H 0.5235 0.9699 0.01604 0.0
C984 C 0.98319 0.45805 0.92785 0.0
C985 C 0.9647 0.44271 0.93549 0.0
C986 C 0.99563 0.47343 0.94247 0.0
C987 C 0.99432 0.49849 0.99504 0.0
H988 H 0.05106 0.51834 0.99644 0.0
C989 C 0.04439 0.55197 0.06453 0.0
C990 C 0.06297 0.56776 0.05784 0.0
C991 C 0.03277 0.53682 0.04932 0.0
C992 C 0.03527 0.51311 0.99607 0.0
H993 H 0.94495 0.43134 0.96461 0.0
H994 H 0.96666 0.45798 0.99003 0.0
H995 H 0.03017 0.49174 0.97024 0.0
H996 H 0.08395 0.57992 0.0299 0.0
H997 H 0.06355 0.55356 0.0033 0.0
H998 H 0.99935 0.51981 0.02081 0.0
C999 C 0.97144 0.45831 0.97267 0.0
C1000 C 0.02331 0.49788 0.98106 0.0
C1001 C 0.95904 0.44297 0.95811 0.0
C1002 C 0.06972 0.56796 0.03563 0.0
C1003 C 0.05808 0.55279 0.0204 0.0
C1004 C 1.00626 0.5137 0.01001 0.0
C1005 C 0.98981 0.47379 0.965 0.0
C1006 C 1.00268 0.49031 0.98048 0.0
C1007 C 0.03943 0.53709 0.02705 0.0
C1008 C 0.02685 0.52112 0.01081 0.0
H1009 H 0.98799 0.4583 0.91052 0.0
H1010 H 0.00963 0.48523 0.936 0.0
H1011 H 0.97853 0.49325 0.99472 0.0
H1012 H 0.03878 0.5513 0.08155 0.0
H1013 H 0.01861 0.52479 0.0551 0.0
C1014 C 0.57384 0.51692 0.97267 0.0
C1015 C 0.57434 0.5242 0.95065 0.0
C1016 C 0.55843 0.51346 0.98769 0.0
C1017 C 0.51886 0.52613 0.99755 0.0
H1018 H 0.49379 0.47735 0.03259 0.0
C1019 C 0.44298 0.49752 0.04154 0.0
C1020 C 0.44052 0.48925 0.06337 0.0
C1021 C 0.45997 0.50231 0.02873 0.0
C1022 C 0.50078 0.49116 0.02314 0.0
H1023 H 0.55912 0.53377 0.9273 0.0
H1024 H 0.53238 0.52763 0.95327 0.0
H1025 H 0.52265 0.48516 0.00904 0.0
H1026 H 0.45404 0.47954 0.08885 0.0
H1027 H 0.48367 0.488 0.06657 0.0
H1028 H 0.49688 0.53204 0.01143 0.0
C1029 C 0.54396 0.5248 0.9591 0.0
C1030 C 0.51735 0.49565 0.00967 0.0
C1031 C 0.55927 0.5282 0.94413 0.0
C1032 C 0.45542 0.48584 0.07207 0.0
C1033 C 0.47238 0.4906 0.05925 0.0
C1034 C 0.5023 0.52163 0.01099 0.0
C1035 C 0.54326 0.5173 0.98103 0.0
C1036 C 0.52646 0.5131 0.99652 0.0
C1037 C 0.47488 0.49892 0.03744 0.0
C1038 C 0.49293 0.504 0.02377 0.0
H1039 H 0.58521 0.51369 0.97824 0.0
H1040 H 0.55843 0.50786 0.00455 0.0
H1041 H 0.52573 0.53987 0.98796 0.0
H1042 H 0.43178 0.5003 0.03429 0.0
H1043 H 0.46129 0.50844 0.01187 0.0
C1044 C 0.20988 1.00441 0.92015 0.0
C1045 C 0.20685 0.98958 0.93593 0.0
C1046 C 0.21466 0.02336 0.92748 0.0
C1047 C 0.23383 0.05619 0.97808 0.0
H1048 H 0.21522 0.08722 0.94555 0.0
C1049 C 0.23727 0.12631 0.01478 0.0
C1050 C 0.24581 0.14329 1.00086 0.0
C1051 C 0.23295 0.10792 0.0061 0.0
C1052 C 0.22064 0.07875 0.95465 0.0
H1053 H 0.20574 0.98273 0.97179 0.0
H1054 H 0.21322 0.01543 0.98465 0.0
H1055 H 0.20598 0.05401 0.93222 0.0
H1056 H 0.25627 0.15427 0.96684 0.0
H1057 H 0.24823 0.12181 0.95147 0.0
H1058 H 0.24788 0.08074 1.00095 0.0
C1059 C 0.21264 0.01275 0.96656 0.0
C1060 C 0.21542 0.05975 0.94701 0.0
C1061 C 0.20818 0.99391 0.95921 0.0
C1062 C 0.24975 0.14145 0.97796 0.0
C1063 C 0.24508 0.12291 0.96916 0.0
C1064 C 0.23876 0.07502 0.98589 0.0
C1065 C 0.21623 0.02783 0.9508 0.0
C1066 C 0.22188 0.04817 0.95869 0.0
C1067 C 0.23679 0.10604 0.98323 0.0
C1068 C 0.23216 0.08644 0.9743 0.0
H1069 H 0.20909 1.00156 0.90207 0.0
H1070 H 0.21758 0.03461 0.91481 0.0
H1071 H 0.23954 0.048 0.98722 0.0
H1072 H 0.23412 0.12724 0.03251 0.0
H1073 H 0.22643 0.0951 0.01724 0.0
C1074 C 1.00322 0.19924 0.98701 0.0
C1075 C 0.01973 0.21578 0.99664 0.0
C1076 C 0.98844 0.18468 1.00067 0.0
C1077 C 0.96545 0.17403 0.05751 0.0
H1078 H 0.94359 0.11968 0.03725 0.0
C1079 C 0.89746 0.10665 0.1014 0.0
C1080 C 0.88235 0.09515 0.08583 0.0
C1081 C 0.91653 0.12074 0.09362 0.0
C1082 C 0.94955 0.13476 0.04321 0.0
H1083 H 0.03324 0.23011 0.02846 0.0
H1084 H 1.00712 0.20449 0.05252 0.0
H1085 H 0.97243 0.14613 0.01799 0.0
H1086 H 0.87552 0.0887 0.05014 0.0
H1087 H 0.90859 0.11259 0.03671 0.0
H1088 H 0.9421 0.16248 0.08246 0.0
C1089 C 1.00578 0.20292 0.03424 0.0
C1090 C 0.96605 0.14996 0.0321 0.0
C1091 C 0.02074 0.21759 0.02046 0.0
C1092 C 0.88689 0.09729 0.06254 0.0
C1093 C 0.90588 0.11098 0.05485 0.0
C1094 C 0.94889 0.15872 0.06873 0.0
C1095 C 0.9896 0.1861 0.02447 0.0
C1096 C 0.97383 0.16988 0.03858 0.0
C1097 C 0.92086 0.12318 0.07019 0.0
C1098 C 0.94038 0.13898 0.06121 0.0
H1099 H 1.00175 0.19733 0.96877 0.0
H1100 H 0.97598 0.17225 0.99249 0.0
H1101 H 0.97104 0.18919 0.06294 0.0
H1102 H 0.89427 0.10548 0.11943 0.0
H1103 H 0.92778 0.1299 0.10585 0.0
C1104 C 0.90298 0.76046 0.99021 0.0
C1105 C 0.90815 0.76309 0.01331 0.0
C1106 C 0.8916 0.76817 0.98098 0.0
C1107 C 0.87392 0.80404 0.99365 0.0
H1108 H 0.83543 0.77494 0.94659 0.0
C1109 C 0.80872 0.81664 0.96968 0.0
C1110 C 0.80547 0.81799 0.94641 0.0
C1111 C 0.82277 0.81155 0.97684 0.0
C1112 C 0.84626 0.78332 0.95957 0.0
H1113 H 0.90508 0.77552 0.04494 0.0
H1114 H 0.88468 0.78817 0.02923 0.0
H1115 H 0.85655 0.76246 0.96107 0.0
H1116 H 0.81457 0.81524 0.91243 0.0
H1117 H 0.83885 0.80591 0.92501 0.0
H1118 H 0.86288 0.8244 0.99271 0.0
C1119 C 0.88993 0.78082 0.0179 0.0
C1120 C 0.85846 0.77623 0.96785 0.0
C1121 C 0.90154 0.77341 0.02701 0.0
C1122 C 0.8168 0.81443 0.93047 0.0
C1123 C 0.83059 0.80896 0.93764 0.0
C1124 C 0.86149 0.81092 0.98563 0.0
C1125 C 0.88486 0.77844 0.99472 0.0
C1126 C 0.87239 0.78641 0.98514 0.0
C1127 C 0.83361 0.80734 0.9609 0.0
C1128 C 0.84747 0.80058 0.9686 0.0
H1129 H 0.90795 0.75267 0.97918 0.0
H1130 H 0.8883 0.76625 0.963 0.0
H1131 H 0.88474 0.81261 0.00653 0.0
H1132 H 0.80023 0.81929 0.98238 0.0
H1133 H 0.82471 0.81029 0.99487 0.0
C1134 C 0.01532 0.21939 0.50764 0.0
C1135 C 1.00681 0.2094 0.52811 0.0
C1136 C 0.03438 0.22365 0.50141 0.0
C1137 C 0.07277 0.21015 0.51092 0.0
H1138 H 0.10909 0.26473 0.49349 0.0
C1139 C 0.15038 0.23686 0.4719 0.0
C1140 C 0.16613 0.2546 0.48048 0.0
C1141 C 0.13084 0.23056 0.47841 0.0
C1142 C 0.09914 0.24948 0.49844 0.0
H1143 H 0.01122 0.19522 0.55756 0.0
H1144 H 0.0445 0.2025 0.54647 0.0
H1145 H 0.07464 0.25449 0.50267 0.0
H1146 H 0.17379 0.27955 0.50277 0.0
H1147 H 0.13954 0.2686 0.51394 0.0
H1148 H 0.09734 0.20518 0.50662 0.0
C1149 C 0.03641 0.20708 0.53535 0.0
C1150 C 0.0794 0.24357 0.50346 0.0
C1151 C 0.0174 0.20298 0.54171 0.0
C1152 C 0.16197 0.26582 0.49587 0.0
C1153 C 0.14239 0.25962 0.50218 0.0
C1154 C 0.09249 0.21602 0.50565 0.0
C1155 C 0.04523 0.21784 0.5154 0.0
C1156 C 0.06604 0.22386 0.50974 0.0
C1157 C 0.12665 0.24197 0.49343 0.0
C1158 C 0.10585 0.23575 0.49941 0.0
H1159 H 1.00755 0.22453 0.49677 0.0
H1160 H 0.04076 0.23175 0.48579 0.0
H1161 H 0.06274 0.19487 0.51567 0.0
H1162 H 0.15311 0.22784 0.46007 0.0
H1163 H 0.11897 0.21698 0.47127 0.0
C1164 C 0.79682 0.79795 0.53033 0.0
C1165 C 0.79989 0.7855 0.51566 0.0
C1166 C 0.79403 0.8131 0.52184 0.0
C1167 C 0.78127 0.83158 0.46995 0.0
H1168 H 0.80242 0.87973 0.5057 0.0
C1169 C 0.77898 0.90219 0.44151 0.0
C1170 C 0.77142 0.90994 0.45778 0.0
C1171 C 0.78335 0.88734 0.44741 0.0
C1172 C 0.79636 0.86635 0.49559 0.0
H1173 H 0.80209 0.77905 0.48038 0.0
H1174 H 0.79774 0.80614 0.46533 0.0
H1175 H 0.80888 0.85342 0.51725 0.0
H1176 H 0.76284 0.90836 0.49308 0.0
H1177 H 0.77096 0.88276 0.50351 0.0
H1178 H 0.76912 0.84496 0.44805 0.0
C1179 C 0.79722 0.80389 0.48353 0.0
C1180 C 0.79997 0.85118 0.50223 0.0
C1181 C 0.79979 0.78842 0.49211 0.0
C1182 C 0.76867 0.90274 0.48017 0.0
C1183 C 0.77336 0.88813 0.48615 0.0
C1184 C 0.77791 0.84694 0.46311 0.0
C1185 C 0.79451 0.81658 0.49836 0.0
C1186 C 0.79211 0.83338 0.48982 0.0
C1187 C 0.78058 0.88015 0.46979 0.0
C1188 C 0.78512 0.86432 0.47612 0.0
H1189 H 0.79641 0.79592 0.54858 0.0
H1190 H 0.79133 0.82203 0.53384 0.0
H1191 H 0.77484 0.81808 0.46005 0.0
H1192 H 0.78116 0.90732 0.42406 0.0
H1193 H 0.78902 0.88156 0.43449 0.0
C1194 C 0.20197 0.00823 0.53876 0.0
C1195 C 0.22274 0.01698 0.53827 0.0
C1196 C 0.18987 0.98991 0.52858 0.0
C1197 C 0.16675 0.95407 0.49881 0.0
H1198 H 0.17947 0.91286 0.51225 0.0
C1199 C 0.11534 0.87302 0.47086 0.0
C1200 C 0.1122 0.85797 0.48644 0.0
C1201 C 0.13006 0.89269 0.47466 0.0
C1202 C 0.17566 0.92418 0.50843 0.0
H1203 H 0.2472 0.01372 0.52589 0.0
H1204 H 0.2259 0.98141 0.50786 0.0
H1205 H 0.20311 0.94726 0.52199 0.0
H1206 H 0.12225 0.85191 0.51824 0.0
H1207 H 0.14767 0.88633 0.52514 0.0
H1208 H 0.139 0.93104 0.48618 0.0
C1209 C 0.21903 0.98882 0.5163 0.0
C1210 C 0.18935 0.94396 0.51371 0.0
C1211 C 0.23123 0.00739 0.52638 0.0
C1212 C 0.12424 0.86311 0.5059 0.0
C1213 C 0.13895 0.88285 0.50974 0.0
C1214 C 0.15308 0.93435 0.49356 0.0
C1215 C 0.19818 0.97969 0.51769 0.0
C1216 C 0.1849 0.95911 0.50935 0.0
C1217 C 0.14202 0.89792 0.4942 0.0
C1218 C 0.15719 0.91907 0.49862 0.0
H1219 H 0.19497 0.01525 0.54779 0.0
H1220 H 0.17392 0.98331 0.53025 0.0
H1221 H 0.16291 0.96538 0.495 0.0
H1222 H 0.10649 0.86961 0.45558 0.0
H1223 H 0.13216 0.90379 0.46213 0.0
C1224 C 0.77743 0.8901 0.95465 0.0
C1225 C 0.76833 0.87356 0.96926 0.0
C1226 C 0.78178 0.90895 0.96212 0.0
C1227 C 0.76855 0.9334 0.00807 0.0
H1228 H 0.81605 0.98106 0.98827 0.0
C1229 C 0.80162 0.00652 0.05688 0.0
C1230 C 0.80685 0.02416 0.04495 0.0
C1231 C 0.79609 0.98888 0.04541 0.0
C1232 C 0.80259 0.96789 0.99366 0.0
H1233 H 0.75725 0.86409 0.00346 0.0
H1234 H 0.76541 0.89688 0.01672 0.0
H1235 H 0.80869 0.94878 0.97324 0.0
H1236 H 0.81039 0.03704 0.01142 0.0
H1237 H 0.80113 0.00589 0.99107 0.0
H1238 H 0.76295 0.95246 0.0292 0.0
C1239 C 0.76865 0.89529 0.99922 0.0
C1240 C 0.79833 0.94935 0.98508 0.0
C1241 C 0.76412 0.87644 0.99168 0.0
C1242 C 0.80642 0.02369 0.02106 0.0
C1243 C 0.80122 0.00594 0.00947 0.0
C1244 C 0.77294 0.95183 0.01681 0.0
C1245 C 0.7773 0.91181 0.98448 0.0
C1246 C 0.78141 0.93178 0.99248 0.0
C1247 C 0.79586 0.98833 0.02161 0.0
C1248 C 0.79015 0.96925 0.01 0.0
H1249 H 0.78077 0.88841 0.93721 0.0
H1250 H 0.78823 0.92117 0.95016 0.0
H1251 H 0.75509 0.92038 0.01372 0.0
H1252 H 0.8016 0.00624 0.07528 0.0
H1253 H 0.79222 0.97563 0.05523 0.0
C1254 C 0.14793 0.8904 0.98228 0.0
C1255 C 0.15088 0.90244 0.96317 0.0
C1256 C 0.12903 0.87909 0.9918 0.0
C1257 C 0.07582 0.85744 0.97756 0.0
H1258 H 0.06888 0.84733 0.04237 0.0
C1259 C 0.00885 0.81386 0.0483 0.0
C1260 C 0.99692 0.79637 0.03606 0.0
C1261 C 0.02728 0.8283 0.03968 0.0
C1262 C 0.07048 0.85019 0.02426 0.0
H1263 H 0.13635 0.91248 0.93948 0.0
H1264 H 0.10347 0.89312 0.95639 0.0
H1265 H 0.10167 0.87042 0.02729 0.0
H1266 H 0.99503 0.78037 0.00517 0.0
H1267 H 0.02715 0.80518 0.99048 0.0
H1268 H 0.04459 0.83755 0.97455 0.0
C1269 C 0.11568 0.89204 0.96373 0.0
C1270 C 0.08936 0.86324 0.01557 0.0
C1271 C 0.13457 0.90323 0.95409 0.0
C1272 C 1.00377 0.79371 0.015 0.0
C1273 C 0.02218 0.80804 0.00647 0.0
C1274 C 0.05694 0.84451 0.98626 0.0
C1275 C 0.11262 0.87965 0.98257 0.0
C1276 C 0.09233 0.86682 0.99206 0.0
C1277 C 0.03421 0.82552 0.01869 0.0
C1278 C 0.05406 0.84045 0.00968 0.0
H1279 H 0.16016 0.88938 0.98965 0.0
H1280 H 0.12723 0.8695 0.00605 0.0
H1281 H 0.07751 0.85965 0.95935 0.0
H1282 H 1.00398 0.8164 0.06455 0.0
H1283 H 0.03604 0.84168 0.04942 0.0
C1284 C 0.07261 0.1951 0.96356 0.0
C1285 C 0.07642 0.2053 0.94285 0.0
C1286 C 0.08492 0.18797 0.97106 0.0
C1287 C 0.12778 0.18122 0.95587 0.0
H1288 H 0.14212 0.1965 0.01871 0.0
C1289 C 0.20043 0.19208 0.99639 0.0
C1290 C 0.19973 0.18603 0.01907 0.0
C1291 C 0.18382 0.19142 0.98631 0.0
C1292 C 0.1381 0.19181 0.00128 0.0
H1293 H 0.09523 0.21522 0.91308 0.0
H1294 H 0.11715 0.20307 0.92631 0.0
H1295 H 0.11513 0.19921 0.00181 0.0
H1296 H 0.18085 0.17415 0.04878 0.0
H1297 H 0.15186 0.17291 0.03118 0.0
H1298 H 0.1513 0.17435 0.95536 0.0
C1299 C 0.1044 0.20013 0.93658 0.0
C1300 C 0.12254 0.19331 0.99155 0.0
C1301 C 0.09183 0.20702 0.92891 0.0
C1302 C 0.18195 0.17906 0.03135 0.0
C1303 C 0.16535 0.1784 0.02127 0.0
C1304 C 0.14343 0.17973 0.96565 0.0
C1305 C 0.10161 0.19137 0.95824 0.0
C1306 C 0.11722 0.18814 0.9687 0.0
C1307 C 0.16612 0.18471 0.99868 0.0
C1308 C 0.14886 0.18517 0.98843 0.0
H1309 H 0.06085 0.19376 0.97463 0.0
H1310 H 0.08203 0.18084 0.98754 0.0
H1311 H 0.124 0.17701 0.93828 0.0
H1312 H 0.21387 0.1975 0.98641 0.0
H1313 H 0.18501 0.19664 0.969 0.0
C1314 C 0.87623 0.7826 0.52967 0.0
C1315 C 0.87061 0.77964 0.55268 0.0
C1316 C 0.89584 0.78926 0.52322 0.0
C1317 C 0.94031 0.78845 0.54147 0.0
H1318 H 0.96498 0.82535 0.49147 0.0
C1319 C 0.01737 0.80707 0.50606 0.0
C1320 C 0.01969 0.80854 0.48231 0.0
C1321 C 1.00067 0.80615 0.51636 0.0
C1322 C 0.95827 0.81488 0.50532 0.0
H1323 H 0.88138 0.78186 0.58707 0.0
H1324 H 0.91593 0.79336 0.57573 0.0
H1325 H 0.93343 0.81967 0.50684 0.0
H1326 H 1.00629 0.81046 0.45081 0.0
H1327 H 0.97708 0.80849 0.46863 0.0
H1328 H 0.96474 0.78308 0.53946 0.0
C1329 C 0.90499 0.79052 0.56272 0.0
C1330 C 0.94021 0.81171 0.51422 0.0
C1331 C 0.88528 0.78409 0.56922 0.0
C1332 C 1.00506 0.80942 0.46915 0.0
C1333 C 0.98832 0.80841 0.47943 0.0
C1334 C 0.95834 0.79152 0.53247 0.0
C1335 C 0.91043 0.79296 0.53959 0.0
C1336 C 0.93082 0.79819 0.53213 0.0
C1337 C 0.98579 0.8066 0.50318 0.0
C1338 C 0.9674 0.80452 0.51398 0.0
H1339 H 0.86531 0.77936 0.51648 0.0
H1340 H 0.89941 0.79075 0.50528 0.0
H1341 H 0.93336 0.77776 0.55507 0.0
H1342 H 0.02838 0.80645 0.51677 0.0
H1343 H 0.99945 0.80509 0.53469 0.0
C1344 C 0.21164 0.19738 0.46371 0.0
C1345 C 0.21217 0.21355 0.47494 0.0
C1346 C 0.20982 0.18113 0.47605 0.0
C1347 C 0.21628 0.16639 0.53433 0.0
H1348 H 0.18814 0.11348 0.50885 0.0
C1349 C 0.20932 0.09782 0.58207 0.0
C1350 C 0.21606 0.08726 0.56903 0.0
C1351 C 0.20542 0.11179 0.57168 0.0
C1352 C 0.19599 0.12817 0.51622 0.0
H1353 H 0.21074 0.22509 0.50795 0.0
H1354 H 0.20705 0.19666 0.52934 0.0
H1355 H 0.1884 0.14098 0.48853 0.0
H1356 H 0.22284 0.08206 0.53489 0.0
H1357 H 0.21559 0.10591 0.51682 0.0
H1358 H 0.22387 0.15345 0.56199 0.0
C1359 C 0.20857 0.19667 0.51106 0.0
C1360 C 0.19629 0.14399 0.50449 0.0
C1361 C 0.2106 0.21298 0.49875 0.0
C1362 C 0.2177 0.09004 0.54537 0.0
C1363 C 0.21346 0.10364 0.53499 0.0
C1364 C 0.21579 0.15052 0.54617 0.0
C1365 C 0.20827 0.18054 0.49993 0.0
C1366 C 0.20677 0.16341 0.51316 0.0
C1367 C 0.20778 0.11506 0.54805 0.0
C1368 C 0.20596 0.1313 0.53703 0.0
H1369 H 0.21288 0.19737 0.44539 0.0
H1370 H 0.21001 0.1692 0.46685 0.0
H1371 H 0.22475 0.18111 0.54146 0.0
H1372 H 0.20808 0.09606 0.60035 0.0
H1373 H 0.20096 0.12034 0.58214 0.0
C1374 C 0.80631 0.01024 0.46214 0.0
C1375 C 0.80826 1.00328 0.44083 0.0
C1376 C 0.82067 0.02894 0.46983 0.0
C1377 C 0.85729 0.06488 0.48773 0.0
H1378 H 0.88123 0.10852 0.44479 0.0
C1379 C 0.91819 0.1429 0.51526 0.0
C1380 C 0.9178 0.1593 0.50577 0.0
C1381 C 0.90592 0.12382 0.50679 0.0
C1382 C 0.87457 0.09654 0.45706 0.0
H1383 H 0.82712 0.01037 0.41111 0.0
H1384 H 0.8525 0.04284 0.42481 0.0
H1385 H 0.85773 0.07535 0.43139 0.0
H1386 H 0.90418 0.1685 0.4799 0.0
H1387 H 0.88235 0.13516 0.46555 0.0
H1388 H 0.87338 0.08615 0.51354 0.0
C1389 C 0.83961 0.034 0.43537 0.0
C1390 C 0.8613 0.07742 0.44931 0.0
C1391 C 0.82513 0.01532 0.42758 0.0
C1392 C 0.90491 0.15619 0.48753 0.0
C1393 C 0.89247 0.13706 0.4792 0.0
C1394 C 0.87042 0.084 0.49549 0.0
C1395 C 0.83748 0.04113 0.45653 0.0
C1396 C 0.85237 0.06135 0.46457 0.0
C1397 C 0.89277 0.1206 0.48876 0.0
C1398 C 0.87917 0.10013 0.4803 0.0
H1399 H 0.79344 1.00144 0.47274 0.0
H1400 H 0.81828 0.034 0.48601 0.0
H1401 H 0.85097 0.05285 0.49995 0.0
H1402 H 0.92808 0.14479 0.52919 0.0
H1403 H 0.90687 0.1116 0.51432 0.0
C1404 C 0.88752 0.45227 0.4269 0.0
C1405 C 0.89825 0.46874 0.4125 0.0
C1406 C 0.88345 0.43324 0.42017 0.0
C1407 C 0.90348 0.41025 0.38123 0.0
H1408 H 0.85217 0.36228 0.38541 0.0
C1409 C 0.88064 0.34527 0.32128 0.0
C1410 C 0.87122 0.32577 0.32974 0.0
C1411 C 0.8844 0.36114 0.33534 0.0
C1412 C 0.86668 0.37548 0.38455 0.0
H1413 H 0.91193 0.4778 0.3792 0.0
H1414 H 0.90474 0.44506 0.36761 0.0
H1415 H 0.85693 0.39317 0.4025 0.0
H1416 H 0.8584 0.30759 0.35973 0.0
H1417 H 0.8647 0.33568 0.38456 0.0
H1418 H 0.91308 0.39298 0.36257 0.0
C1419 C 0.8999 0.44676 0.38429 0.0
C1420 C 0.86939 0.39316 0.39428 0.0
C1421 C 0.90392 0.46558 0.39092 0.0
C1422 C 0.86583 0.3225 0.35282 0.0
C1423 C 0.86929 0.3385 0.36694 0.0
C1424 C 0.90077 0.39273 0.37151 0.0
C1425 C 0.89013 0.43043 0.39899 0.0
C1426 C 0.88765 0.4109 0.39199 0.0
C1427 C 0.87863 0.35799 0.35826 0.0
C1428 C 0.88219 0.3753 0.37239 0.0
H1429 H 0.88296 0.45421 0.44363 0.0
H1430 H 0.87578 0.42091 0.43183 0.0
H1431 H 0.91789 0.42351 0.37967 0.0
H1432 H 0.88501 0.3483 0.30359 0.0
H1433 H 0.89143 0.37592 0.32807 0.0
C1434 C 0.55456 0.42361 0.36574 0.0
C1435 C 0.55201 0.42305 0.38936 0.0
C1436 C 0.57309 0.43593 0.35598 0.0
C1437 C 0.62704 0.4692 0.36816 0.0
H1438 H 0.62412 0.49465 0.31269 0.0
C1439 C 0.69367 0.53931 0.32746 0.0
C1440 C 0.69571 0.53902 0.30374 0.0
C1441 C 0.67713 0.52403 0.33854 0.0
C1442 C 0.62521 0.48753 0.32803 0.0
H1443 H 0.56691 0.4343 0.42147 0.0
H1444 H 0.59941 0.45656 0.40438 0.0
H1445 H 0.59375 0.47001 0.33102 0.0
H1446 H 0.68216 0.52219 0.27315 0.0
H1447 H 0.65323 0.49571 0.29244 0.0
H1448 H 0.65872 0.48752 0.36531 0.0
C1449 C 0.58717 0.4471 0.39336 0.0
C1450 C 0.60777 0.47328 0.33854 0.0
C1451 C 0.56858 0.43437 0.4032 0.0
C1452 C 0.68104 0.52292 0.29142 0.0
C1453 C 0.66443 0.50778 0.30245 0.0
C1454 C 0.64456 0.4837 0.35772 0.0
C1455 C 0.5895 0.44848 0.36955 0.0
C1456 C 0.60838 0.46374 0.35864 0.0
C1457 C 0.66218 0.50827 0.32609 0.0
C1458 C 0.6438 0.4929 0.33744 0.0
H1459 H 0.54203 0.41485 0.35471 0.0
H1460 H 0.57439 0.43602 0.33766 0.0
H1461 H 0.62814 0.46211 0.38351 0.0
H1462 H 0.70475 0.55146 0.33747 0.0
H1463 H 0.67574 0.52486 0.35675 0.0
C1464 C 0.57676 0.12243 0.3589 0.0
C1465 C 0.57569 0.10469 0.35182 0.0
C1466 C 0.56468 0.12894 0.34895 0.0
C1467 C 0.53282 0.12169 0.29861 0.0
H1468 H 0.51015 0.14532 0.33768 0.0
C1469 C 0.46504 0.1406 0.29809 0.0
C1470 C 0.46693 0.14819 0.27596 0.0
C1471 C 0.47943 0.13674 0.30698 0.0
C1472 C 0.51624 0.13864 0.32652 0.0
H1473 H 0.56113 0.07989 0.32864 0.0
H1474 H 0.53969 0.09095 0.31168 0.0
H1475 H 0.53249 0.1351 0.35363 0.0
H1476 H 0.48571 0.15811 0.24602 0.0
H1477 H 0.51111 0.15177 0.26175 0.0
H1478 H 0.51586 0.12446 0.2717 0.0
C1479 C 0.55016 0.10009 0.3246 0.0
C1480 C 0.5293 0.13301 0.33563 0.0
C1481 C 0.56236 0.09366 0.33444 0.0
C1482 C 0.48378 0.1522 0.2631 0.0
C1483 C 0.49826 0.14843 0.27207 0.0
C1484 C 0.51965 0.12721 0.28952 0.0
C1485 C 0.5511 0.11778 0.33179 0.0
C1486 C 0.53768 0.12434 0.32184 0.0
C1487 C 0.49618 0.14049 0.29407 0.0
C1488 C 0.51105 0.13561 0.30341 0.0
H1489 H 0.587 0.13138 0.37211 0.0
H1490 H 0.5661 0.14281 0.35465 0.0
H1491 H 0.53919 0.11532 0.2874 0.0
H1492 H 0.4522 0.13721 0.30844 0.0
H1493 H 0.47712 0.13032 0.32382 0.0
C1494 C 0.67472 0.53 0.88493 0.0
C1495 C 0.66156 0.53466 0.87375 0.0
C1496 C 0.69186 0.53255 0.87397 0.0
C1497 C 0.7329 0.55126 0.85229 0.0
H1498 H 0.73264 0.54164 0.78768 0.0
C1499 C 0.80539 0.5814 0.80058 0.0
C1500 C 0.80636 0.56981 0.78287 0.0
C1501 C 0.78752 0.57568 0.81192 0.0
C1502 C 0.73297 0.5442 0.80578 0.0
H1503 H 0.65612 0.54551 0.84212 0.0
H1504 H 0.68601 0.55026 0.82324 0.0
H1505 H 0.70171 0.53354 0.80686 0.0
H1506 H 0.78918 0.54293 0.76339 0.0
H1507 H 0.75799 0.53277 0.78341 0.0
H1508 H 0.76409 0.56163 0.85129 0.0
C1509 C 0.68298 0.54429 0.84034 0.0
C1510 C 0.71524 0.53979 0.81676 0.0
C1511 C 0.66585 0.54169 0.85125 0.0
C1512 C 0.78897 0.55225 0.77689 0.0
C1513 C 0.77105 0.54648 0.7883 0.0
C1514 C 0.75061 0.55563 0.84133 0.0
C1515 C 0.6963 0.53988 0.85156 0.0
C1516 C 0.71498 0.54347 0.84011 0.0
C1517 C 0.77008 0.55815 0.80595 0.0
C1518 C 0.75096 0.55239 0.81786 0.0
H1519 H 0.67186 0.52448 0.90223 0.0
H1520 H 0.7016 0.52873 0.88306 0.0
H1521 H 0.73337 0.55448 0.87023 0.0
H1522 H 0.81845 0.59507 0.80561 0.0
H1523 H 0.78733 0.58525 0.82511 0.0
C1524 C 0.46521 0.25692 0.81333 0.0
C1525 C 0.46569 0.25907 0.78963 0.0
C1526 C 0.47047 0.24399 0.82353 0.0
C1527 C 0.49286 0.21178 0.81287 0.0
H1528 H 0.46066 0.18352 0.86518 0.0
C1529 C 0.48791 0.14022 0.85096 0.0
C1530 C 0.48895 0.13934 0.87477 0.0
C1531 C 0.48669 0.15575 0.84042 0.0
C1532 C 0.46992 0.19141 0.85074 0.0
H1533 H 0.47271 0.24989 0.75797 0.0
H1534 H 0.4813 0.22661 0.77568 0.0
H1535 H 0.45598 0.20891 0.84692 0.0
H1536 H 0.48962 0.15421 0.90613 0.0
H1537 H 0.48712 0.18109 0.88773 0.0
H1538 H 0.5062 0.19348 0.81644 0.0
C1539 C 0.47731 0.23529 0.78653 0.0
C1540 C 0.46734 0.20611 0.84027 0.0
C1541 C 0.4724 0.24863 0.77631 0.0
C1542 C 0.48882 0.15441 0.88777 0.0
C1543 C 0.48732 0.16978 0.87724 0.0
C1544 C 0.49524 0.19682 0.82322 0.0
C1545 C 0.47588 0.23238 0.81029 0.0
C1546 C 0.47886 0.21667 0.82127 0.0
C1547 C 0.48619 0.1706 0.85345 0.0
C1548 C 0.48386 0.18655 0.84235 0.0
H1549 H 0.46026 0.26495 0.82402 0.0
H1550 H 0.46984 0.24278 0.84187 0.0
H1551 H 0.50216 0.21964 0.79847 0.0
H1552 H 0.48806 0.12891 0.84041 0.0
H1553 H 0.48569 0.15589 0.82208 0.0
C1554 C 0.86893 0.33716 0.88655 0.0
C1555 C 0.88159 0.3522 0.87142 0.0
C1556 C 0.85407 0.31892 0.87832 0.0
C1557 C 0.82338 0.29363 0.82899 0.0
H1558 H 0.82577 0.24773 0.85057 0.0
C1559 C 0.78252 0.21826 0.78323 0.0
C1560 C 0.77548 0.20083 0.79614 0.0
C1561 C 0.79393 0.2368 0.79336 0.0
C1562 C 0.82454 0.26026 0.84465 0.0
H1563 H 0.88806 0.36029 0.83588 0.0
H1564 H 0.86177 0.3285 0.82154 0.0
H1565 H 0.84765 0.28014 0.86697 0.0
H1566 H 0.77419 0.18908 0.82991 0.0
H1567 H 0.79336 0.22137 0.84781 0.0
H1568 H 0.80009 0.27384 0.80692 0.0
C1569 C 0.86348 0.33082 0.83972 0.0
C1570 C 0.83716 0.27885 0.85402 0.0
C1571 C 0.87857 0.34894 0.84793 0.0
C1572 C 0.77964 0.20228 0.81948 0.0
C1573 C 0.79073 0.22082 0.8297 0.0
C1574 C 0.81049 0.27497 0.81986 0.0
C1575 C 0.85138 0.31553 0.85484 0.0
C1576 C 0.83687 0.29572 0.84608 0.0
C1577 C 0.79826 0.23834 0.81673 0.0
C1578 C 0.8111 0.25806 0.82735 0.0
H1579 H 0.87094 0.33924 0.90474 0.0
H1580 H 0.84483 0.30734 0.89029 0.0
H1581 H 0.82282 0.30644 0.82272 0.0
H1582 H 0.77963 0.21757 0.76516 0.0
H1583 H 0.79973 0.24989 0.78269 0.0
C1584 C 0.42353 0.20736 0.30972 0.0
C1585 C 0.42885 0.20349 0.28835 0.0
C1586 C 0.42796 0.22654 0.3155 0.0
C1587 C 0.45995 0.27954 0.29979 0.0
H1588 H 0.42261 0.28553 0.33796 0.0
C1589 C 0.47193 0.35582 0.33252 0.0
C1590 C 0.47137 0.35605 0.35636 0.0
C1591 C 0.46537 0.33783 0.32097 0.0
C1592 C 0.43309 0.28408 0.32714 0.0
H1593 H 0.44311 0.21679 0.25628 0.0
H1594 H 0.45052 0.25022 0.26621 0.0
H1595 H 0.41412 0.25275 0.32407 0.0
H1596 H 0.46279 0.33777 0.38674 0.0
H1597 H 0.45097 0.30662 0.36669 0.0
H1598 H 0.47893 0.31103 0.30316 0.0
C1599 C 0.4432 0.23849 0.27867 0.0
C1600 C 0.42834 0.26529 0.31936 0.0
C1601 C 0.43891 0.2193 0.27296 0.0
C1602 C 0.46355 0.33805 0.36835 0.0
C1603 C 0.45664 0.3202 0.35689 0.0
C1604 C 0.4646 0.29842 0.30741 0.0
C1605 C 0.43764 0.24233 0.29996 0.0
C1606 C 0.44195 0.26267 0.30616 0.0
C1607 C 0.45768 0.31988 0.33314 0.0
C1608 C 0.45143 0.30074 0.32167 0.0
H1609 H 0.41589 0.19555 0.32203 0.0
H1610 H 0.42388 0.22899 0.33226 0.0
H1611 H 0.47084 0.2781 0.28977 0.0
H1612 H 0.47794 0.36953 0.32293 0.0
H1613 H 0.46631 0.33791 0.30261 0.0
C1614 C 0.67455 0.16246 0.37874 0.0
C1615 C 0.66263 0.14436 0.36757 0.0
C1616 C 0.69003 0.17849 0.36723 0.0
C1617 C 0.70923 0.19817 0.30935 0.0
H1618 H 0.75885 0.22957 0.34132 0.0
C1619 C 0.78462 0.25227 0.26575 0.0
C1620 C 0.79829 0.26883 0.27822 0.0
C1621 C 0.76611 0.23878 0.2752 0.0
C1622 C 0.745 0.22123 0.3322 0.0
H1623 H 0.65772 0.129 0.33545 0.0
H1624 H 0.68491 0.15682 0.31555 0.0
H1625 H 0.73101 0.20246 0.36088 0.0
H1626 H 0.80314 0.28504 0.30955 0.0
H1627 H 0.77064 0.26212 0.32565 0.0
H1628 H 0.72353 0.21684 0.28048 0.0
C1629 C 0.68209 0.15874 0.33311 0.0
C1630 C 0.72899 0.2056 0.34346 0.0
C1631 C 0.66659 0.14271 0.3446 0.0
C1632 C 0.79267 0.27252 0.29947 0.0
C1633 C 0.77419 0.2592 0.30882 0.0
C1634 C 0.72531 0.21385 0.29804 0.0
C1635 C 0.69404 0.17685 0.34427 0.0
C1636 C 0.7109 0.1938 0.33221 0.0
C1637 C 0.76107 0.24165 0.29731 0.0
C1638 C 0.74343 0.22558 0.30933 0.0
H1639 H 0.67185 0.16432 0.39636 0.0
H1640 H 0.69873 0.19227 0.37632 0.0
H1641 H 0.69543 0.18956 0.30022 0.0
H1642 H 0.78888 0.24886 0.2496 0.0
H1643 H 0.75644 0.22539 0.26589 0.0
C1644 C 0.88314 0.53009 0.36775 0.0
C1645 C 0.90331 0.54394 0.37103 0.0
C1646 C 0.87062 0.53569 0.35708 0.0
C1647 C 0.86183 0.57615 0.35423 0.0
H1648 H 0.82807 0.55021 0.30243 0.0
C1649 C 0.80516 0.59851 0.32213 0.0
C1650 C 0.78759 0.58388 0.31198 0.0
C1651 C 0.82036 0.59454 0.32775 0.0
C1652 C 0.83709 0.55743 0.31717 0.0
H1653 H 0.92636 0.57438 0.36555 0.0
H1654 H 0.90418 0.58443 0.34747 0.0
H1655 H 0.85288 0.54143 0.31386 0.0
H1656 H 0.77183 0.55342 0.30046 0.0
H1657 H 0.7976 0.54604 0.31148 0.0
H1658 H 0.84543 0.59121 0.35873 0.0
C1659 C 0.89826 0.56914 0.3527 0.0
C1660 C 0.85149 0.55253 0.32348 0.0
C1661 C 0.91093 0.56337 0.36282 0.0
C1662 C 0.78529 0.56505 0.30812 0.0
C1663 C 0.80025 0.56091 0.31422 0.0
C1664 C 0.84713 0.58072 0.34829 0.0
C1665 C 0.87793 0.5554 0.35011 0.0
C1666 C 0.86393 0.5618 0.3421 0.0
C1667 C 0.81818 0.57567 0.32383 0.0
C1668 C 0.83439 0.57132 0.32975 0.0
H1669 H 0.8769 0.51508 0.3742 0.0
H1670 H 0.85498 0.52489 0.35541 0.0
H1671 H 0.87108 0.58328 0.36888 0.0
H1672 H 0.80745 0.61325 0.32505 0.0
H1673 H 0.83397 0.60646 0.33471 0.0
C1674 C 0.53998 0.09841 0.83316 0.0
C1675 C 0.53903 0.10205 0.85634 0.0
C1676 C 0.55828 0.10515 0.82245 0.0
C1677 C 0.61269 0.13954 0.8298 0.0
H1678 H 0.61639 0.10647 0.78307 0.0
C1679 C 0.68631 0.14676 0.79719 0.0
C1680 C 0.68865 0.14683 0.77351 0.0
C1681 C 0.66825 0.14298 0.80659 0.0
C1682 C 0.61551 0.11594 0.79592 0.0
H1683 H 0.55648 0.11556 0.88653 0.0
H1684 H 0.58844 0.12661 0.86814 0.0
H1685 H 0.58457 0.09617 0.80128 0.0
H1686 H 0.67401 0.14321 0.7411 0.0
H1687 H 0.64217 0.13607 0.75764 0.0
H1688 H 0.64399 0.1588 0.82497 0.0
C1689 C 0.5751 0.11908 0.85798 0.0
C1690 C 0.59725 0.11012 0.80634 0.0
C1691 C 0.55677 0.11263 0.8686 0.0
C1692 C 0.67264 0.14329 0.7594 0.0
C1693 C 0.65444 0.13914 0.76883 0.0
C1694 C 0.63102 0.14518 0.81963 0.0
C1695 C 0.5761 0.11539 0.83474 0.0
C1696 C 0.59557 0.12182 0.82344 0.0
C1697 C 0.65208 0.13885 0.79251 0.0
C1698 C 0.63257 0.13342 0.80262 0.0
H1699 H 0.52655 0.0905 0.82319 0.0
H1700 H 0.55839 0.10241 0.80445 0.0
H1701 H 0.61196 0.14915 0.84255 0.0
H1702 H 0.69842 0.14952 0.80849 0.0
H1703 H 0.66675 0.14271 0.8249 0.0
C1704 C 0.91169 0.44844 0.86241 0.0
C1705 C 0.92061 0.44034 0.8486 0.0
C1706 C 0.90452 0.46017 0.85294 0.0
C1707 C 0.88447 0.46827 0.80091 0.0
H1708 H 0.90124 0.52085 0.82422 0.0
C1709 C 0.86564 0.52196 0.75395 0.0
C1710 C 0.863 0.53578 0.76653 0.0
C1711 C 0.87198 0.50998 0.76454 0.0
C1712 C 0.89605 0.50607 0.81773 0.0
H1713 H 0.92889 0.43806 0.81404 0.0
H1714 H 0.91585 0.45814 0.79743 0.0
H1715 H 0.91355 0.50064 0.84179 0.0
H1716 H 0.86436 0.54748 0.80024 0.0
H1717 H 0.87451 0.52598 0.81896 0.0
H1718 H 0.86646 0.47319 0.77736 0.0
C1719 C 0.91462 0.45555 0.8156 0.0
C1720 C 0.90325 0.49456 0.82774 0.0
C1721 C 0.92216 0.44416 0.82512 0.0
C1722 C 0.86638 0.53704 0.79006 0.0
C1723 C 0.87238 0.5248 0.80075 0.0
C1724 C 0.87696 0.47959 0.79116 0.0
C1725 C 0.90575 0.46367 0.82942 0.0
C1726 C 0.89769 0.47565 0.81927 0.0
C1727 C 0.87551 0.51124 0.7881 0.0
C1728 C 0.88281 0.49877 0.79924 0.0
H1729 H 0.91033 0.4458 0.88056 0.0
H1730 H 0.89768 0.46622 0.86393 0.0
H1731 H 0.87976 0.45361 0.79426 0.0
H1732 H 0.86336 0.52076 0.73574 0.0
H1733 H 0.87458 0.5001 0.75404 0.0
C1734 C 0.569 0.46572 0.87507 0.0
C1735 C 0.56813 0.48224 0.8668 0.0
C1736 C 0.55376 0.44643 0.87043 0.0
C1737 C 0.50968 0.4175 0.83294 0.0
H1738 H 0.49687 0.37647 0.87815 0.0
C1739 C 0.44378 0.33802 0.82158 0.0
C1740 C 0.44951 0.32354 0.82248 0.0
C1741 C 0.45646 0.35717 0.82981 0.0
C1742 C 0.50027 0.3878 0.86541 0.0
H1743 H 0.55051 0.4914 0.84711 0.0
H1744 H 0.52364 0.45786 0.8396 0.0
H1745 H 0.52275 0.41047 0.88599 0.0
H1746 H 0.47245 0.31731 0.83322 0.0
H1747 H 0.49422 0.35047 0.84862 0.0
H1748 H 0.48688 0.39472 0.81258 0.0
C1749 C 0.53633 0.45969 0.84919 0.0
C1750 C 0.51525 0.4073 0.86976 0.0
C1751 C 0.55174 0.479 0.85354 0.0
C1752 C 0.46752 0.32811 0.83292 0.0
C1753 C 0.48 0.34711 0.84158 0.0
C1754 C 0.49449 0.39807 0.82877 0.0
C1755 C 0.53702 0.44309 0.85771 0.0
C1756 C 0.52041 0.42241 0.85345 0.0
C1757 C 0.47495 0.36205 0.83934 0.0
C1758 C 0.48977 0.38297 0.84484 0.0
H1759 H 0.58147 0.46769 0.88523 0.0
H1760 H 0.55519 0.43415 0.87683 0.0
H1761 H 0.51333 0.42852 0.81975 0.0
H1762 H 0.43022 0.33498 0.81299 0.0
H1763 H 0.45218 0.36839 0.82791 0.0
C1764 C 0.53215 0.6631 0.65004 0.0
C1765 C 0.52995 0.65932 0.62658 0.0
C1766 C 0.53555 0.68135 0.65847 0.0
C1767 C 0.55827 0.73303 0.6423 0.0
H1768 H 0.52694 0.7384 0.69006 0.0
C1769 C 0.57116 0.80981 0.66768 0.0
C1770 C 0.56944 0.81326 0.69072 0.0
C1771 C 0.56503 0.79063 0.65999 0.0
C1772 C 0.53605 0.73719 0.67694 0.0
H1773 H 0.5293 0.67159 0.59362 0.0
H1774 H 0.53565 0.70346 0.60834 0.0
H1775 H 0.51888 0.70537 0.67713 0.0
H1776 H 0.55986 0.79938 0.7238 0.0
H1777 H 0.5499 0.76608 0.71063 0.0
H1778 H 0.57595 0.76459 0.64246 0.0
C1779 C 0.53461 0.69228 0.62016 0.0
C1780 C 0.53134 0.71827 0.66952 0.0
C1781 C 0.53089 0.67399 0.61179 0.0
C1782 C 0.56122 0.79714 0.70588 0.0
C1783 C 0.55542 0.778 0.69828 0.0
C1784 C 0.56321 0.7519 0.64996 0.0
C1785 C 0.53716 0.6962 0.64352 0.0
C1786 C 0.54232 0.71607 0.652 0.0
C1787 C 0.55739 0.7745 0.67525 0.0
C1788 C 0.55207 0.75428 0.66725 0.0
H1789 H 0.53146 0.65207 0.66184 0.0
H1790 H 0.53753 0.6841 0.67657 0.0
H1791 H 0.56713 0.73168 0.62896 0.0
H1792 H 0.57726 0.82193 0.65556 0.0
H1793 H 0.56633 0.78851 0.64204 0.0
C1794 C 0.19783 0.77299 0.65271 0.0
C1795 C 0.19456 0.76587 0.67514 0.0
C1796 C 0.21676 0.78753 0.64562 0.0
C1797 C 0.27027 0.81276 0.6624 0.0
H1798 H 0.27454 0.85238 0.61913 0.0
C1799 C 0.34328 0.88628 0.64261 0.0
C1800 C 0.34761 0.89094 0.61947 0.0
C1801 C 0.32502 0.87021 0.64932 0.0
C1802 C 0.27355 0.84132 0.63111 0.0
H1803 H 0.20855 0.76851 0.70779 0.0
H1804 H 0.24133 0.79435 0.69575 0.0
H1805 H 0.24186 0.82615 0.63107 0.0
H1806 H 0.33625 0.88229 0.58524 0.0
H1807 H 0.30429 0.85452 0.59703 0.0
H1808 H 0.30213 0.82856 0.66289 0.0
C1809 C 0.22949 0.78834 0.68335 0.0
C1810 C 0.25482 0.82619 0.63788 0.0
C1811 C 0.21062 0.77357 0.69033 0.0
C1812 C 0.33341 0.87908 0.6032 0.0
C1813 C 0.31506 0.86324 0.60993 0.0
C1814 C 0.28902 0.8281 0.65587 0.0
C1815 C 0.23284 0.79557 0.66089 0.0
C1816 C 0.25288 0.81163 0.65358 0.0
C1817 C 0.31064 0.85874 0.63304 0.0
C1818 C 0.29083 0.84247 0.6401 0.0
H1819 H 0.18578 0.76722 0.64056 0.0
H1820 H 0.21878 0.79238 0.62808 0.0
H1821 H 0.26945 0.80167 0.67419 0.0
H1822 H 0.35393 0.89512 0.65555 0.0
H1823 H 0.32192 0.86709 0.66727 0.0
C1824 C 0.23979 0.43362 0.72636 0.0
C1825 C 0.23717 0.41462 0.72286 0.0
C1826 C 0.22524 0.43812 0.7194 0.0
C1827 C 0.18013 0.41891 0.68233 0.0
H1828 H 0.17421 0.45976 0.71291 0.0
C1829 C 0.11928 0.43827 0.65862 0.0
C1830 C 0.12788 0.45774 0.6502 0.0
C1831 C 0.13085 0.43216 0.67072 0.0
C1832 C 0.17564 0.44822 0.70436 0.0
H1833 H 0.21697 0.38521 0.71008 0.0
H1834 H 0.1912 0.3926 0.69911 0.0
H1835 H 0.1977 0.4503 0.72761 0.0
H1836 H 0.1548 0.48635 0.64881 0.0
H1837 H 0.17472 0.47591 0.67086 0.0
H1838 H 0.15762 0.41665 0.65944 0.0
C1839 C 0.20479 0.40442 0.70626 0.0
C1840 C 0.18928 0.44292 0.71257 0.0
C1841 C 0.21954 0.40009 0.7127 0.0
C1842 C 0.14783 0.47128 0.65524 0.0
C1843 C 0.1592 0.46534 0.66784 0.0
C1844 C 0.16618 0.42389 0.67449 0.0
C1845 C 0.20746 0.42357 0.70927 0.0
C1846 C 0.19201 0.42842 0.70143 0.0
C1847 C 0.15099 0.44559 0.6751 0.0
C1848 C 0.16403 0.43879 0.68521 0.0
H1849 H 0.25329 0.44515 0.73406 0.0
H1850 H 0.2282 0.45315 0.72164 0.0
H1851 H 0.18195 0.40802 0.67287 0.0
H1852 H 0.104 0.42751 0.65467 0.0
H1853 H 0.12423 0.41683 0.67614 0.0
C1854 C 0.34079 0.88001 0.20463 0.0
C1855 C 0.33419 0.87025 0.22566 0.0
C1856 C 0.35949 0.8849 0.19607 0.0
C1857 C 0.39556 0.88536 0.17571 0.0
H1858 H 0.43972 0.90282 0.21738 0.0
C1859 C 0.47396 0.90358 0.14518 0.0
C1860 C 0.49041 0.91966 0.15551 0.0
C1861 C 0.45474 0.89651 0.15377 0.0
C1862 C 0.42762 0.89815 0.20543 0.0
H1863 H 0.34207 0.85768 0.25398 0.0
H1864 H 0.3745 0.86577 0.23882 0.0
H1865 H 0.40679 0.89284 0.23206 0.0
H1866 H 0.49942 0.94102 0.18289 0.0
H1867 H 0.46608 0.92911 0.19743 0.0
H1868 H 0.41655 0.89145 0.149 0.0
C1869 C 0.36539 0.87005 0.22913 0.0
C1870 C 0.4086 0.89211 0.21392 0.0
C1871 C 0.3467 0.86528 0.23779 0.0
C1872 C 0.48714 0.92852 0.17457 0.0
C1873 C 0.46796 0.92157 0.18304 0.0
C1874 C 0.41462 0.89152 0.1672 0.0
C1875 C 0.37211 0.88004 0.20818 0.0
C1876 C 0.39229 0.88574 0.19918 0.0
C1877 C 0.45146 0.90542 0.17283 0.0
C1878 C 0.43097 0.89815 0.18192 0.0
H1879 H 0.33163 0.88418 0.19487 0.0
H1880 H 0.3642 0.89288 0.18011 0.0
H1881 H 0.38338 0.88028 0.1638 0.0
H1882 H 0.47593 0.89633 0.13054 0.0
H1883 H 0.44249 0.88389 0.1456 0.0
C1884 C 0.13423 0.46785 0.23581 0.0
C1885 C 0.13698 0.45551 0.22063 0.0
C1886 C 0.13095 0.48291 0.22767 0.0
C1887 C 0.13863 0.51521 0.17892 0.0
H1888 H 0.09155 0.51555 0.20003 0.0
C1889 C 0.11045 0.56298 0.13492 0.0
C1890 C 0.1005 0.57045 0.14795 0.0
C1891 C 0.11586 0.54988 0.14449 0.0
C1892 C 0.10499 0.51601 0.19422 0.0
H1893 H 0.1391 0.44968 0.18504 0.0
H1894 H 0.1339 0.47633 0.17088 0.0
H1895 H 0.0999 0.49165 0.21579 0.0
H1896 H 0.08896 0.5705 0.18143 0.0
H1897 H 0.09913 0.54839 0.19842 0.0
H1898 H 0.14412 0.53981 0.15776 0.0
C1899 C 0.1341 0.47421 0.18905 0.0
C1900 C 0.10969 0.5022 0.20322 0.0
C1901 C 0.13699 0.45892 0.19716 0.0
C1902 C 0.09646 0.56486 0.17089 0.0
C1903 C 0.10218 0.55203 0.18058 0.0
C1904 C 0.13414 0.52927 0.17019 0.0
C1905 C 0.13077 0.48617 0.20421 0.0
C1906 C 0.12643 0.50153 0.19549 0.0
C1907 C 0.11178 0.54415 0.16747 0.0
C1908 C 0.11711 0.52975 0.17752 0.0
H1909 H 0.13406 0.46555 0.25397 0.0
H1910 H 0.12852 0.49199 0.23971 0.0
H1911 H 0.15174 0.51512 0.17282 0.0
H1912 H 0.11364 0.56687 0.11713 0.0
H1913 H 0.12284 0.54391 0.13364 0.0
C1914 C 0.53038 0.6589 0.23583 0.0
C1915 C 0.54205 0.67351 0.21974 0.0
C1916 C 0.51523 0.64026 0.22881 0.0
C1917 C 0.48159 0.6141 0.18182 0.0
H1918 H 0.48293 0.56763 0.20334 0.0
C1919 C 0.43693 0.53858 0.13767 0.0
C1920 C 0.42961 0.52107 0.15053 0.0
C1921 C 0.44924 0.55703 0.14756 0.0
C1922 C 0.48201 0.58035 0.19747 0.0
H1923 H 0.5466 0.68027 0.18374 0.0
H1924 H 0.51983 0.64791 0.17154 0.0
H1925 H 0.50653 0.60024 0.21831 0.0
H1926 H 0.42909 0.50922 0.18404 0.0
H1927 H 0.45001 0.54149 0.20158 0.0
H1928 H 0.45695 0.59441 0.16126 0.0
C1929 C 0.52253 0.65083 0.18955 0.0
C1930 C 0.49562 0.59905 0.20601 0.0
C1931 C 0.5379 0.6693 0.19654 0.0
C1932 C 0.4346 0.52245 0.17365 0.0
C1933 C 0.44671 0.54097 0.18365 0.0
C1934 C 0.46777 0.59539 0.17354 0.0
C1935 C 0.51122 0.63605 0.2056 0.0
C1936 C 0.49575 0.61612 0.19797 0.0
C1937 C 0.45434 0.55852 0.17069 0.0
C1938 C 0.46802 0.57827 0.18092 0.0
H1939 H 0.53328 0.66168 0.25383 0.0
H1940 H 0.50665 0.62913 0.24151 0.0
H1941 H 0.48124 0.62703 0.17555 0.0
H1942 H 0.43352 0.53803 0.11976 0.0
H1943 H 0.45512 0.57008 0.13683 0.0
C1944 C 0.14219 0.66866 0.66706 0.0
C1945 C 0.15054 0.67624 0.68842 0.0
C1946 C 0.1437 0.65303 0.65745 0.0
C1947 C 0.15284 0.61218 0.67382 0.0
H1948 H 0.15412 0.60604 0.60861 0.0
C1949 C 0.12802 0.53676 0.6338 0.0
C1950 C 0.13733 0.53513 0.61409 0.0
C1951 C 0.133 0.55523 0.64265 0.0
C1952 C 0.1541 0.60767 0.62687 0.0
H1953 H 0.16768 0.67389 0.71608 0.0
H1954 H 0.17085 0.64712 0.69911 0.0
H1955 H 0.15699 0.63645 0.62404 0.0
H1956 H 0.15958 0.55182 0.58848 0.0
H1957 H 0.16855 0.58445 0.60424 0.0
H1958 H 0.15027 0.58362 0.67673 0.0
C1959 C 0.16259 0.65277 0.69 0.0
C1960 C 0.15543 0.62499 0.63573 0.0
C1961 C 0.16084 0.66819 0.69973 0.0
C1962 C 0.15215 0.55257 0.6037 0.0
C1963 C 0.15718 0.57123 0.61264 0.0
C1964 C 0.15171 0.59501 0.665 0.0
C1965 C 0.15383 0.64477 0.66886 0.0
C1966 C 0.15435 0.62727 0.65933 0.0
C1967 C 0.14754 0.57274 0.63218 0.0
C1968 C 0.15175 0.59227 0.6414 0.0
H1969 H 0.13413 0.67453 0.65793 0.0
H1970 H 0.13646 0.64709 0.64135 0.0
H1971 H 0.15177 0.61321 0.69205 0.0
H1972 H 0.11652 0.5237 0.64231 0.0
H1973 H 0.12495 0.55574 0.65741 0.0
C1974 C 0.33511 0.45473 0.70513 0.0
C1975 C 0.32994 0.45802 0.72693 0.0
C1976 C 0.35247 0.46917 0.69444 0.0
C1977 C 0.38606 0.50532 0.67094 0.0
H1978 H 0.4324 0.53412 0.70911 0.0
C1979 C 0.46172 0.5675 0.63562 0.0
C1980 C 0.47898 0.56843 0.64444 0.0
C1981 C 0.44308 0.55476 0.64527 0.0
C1982 C 0.41967 0.52612 0.69813 0.0
H1983 H 0.33862 0.47947 0.75416 0.0
H1984 H 0.36858 0.50478 0.73536 0.0
H1985 H 0.4008 0.51065 0.72624 0.0
H1986 H 0.49006 0.55639 0.67017 0.0
H1987 H 0.45774 0.53405 0.68661 0.0
H1988 H 0.40521 0.5203 0.64272 0.0
C1989 C 0.3595 0.49085 0.7267 0.0
C1990 C 0.4014 0.51284 0.70803 0.0
C1991 C 0.34221 0.47636 0.73744 0.0
C1992 C 0.47712 0.55621 0.66301 0.0
C1993 C 0.45854 0.54344 0.67257 0.0
C1994 C 0.40439 0.51858 0.66101 0.0
C1995 C 0.36507 0.48733 0.70522 0.0
C1996 C 0.38434 0.50214 0.69459 0.0
C1997 C 0.44125 0.5426 0.66394 0.0
C1998 C 0.42149 0.52904 0.67446 0.0
H1999 H 0.32606 0.44075 0.69655 0.0
H2000 H 0.35634 0.46579 0.67804 0.0
H2001 H 0.37323 0.49755 0.66004 0.0
H2002 H 0.4626 0.57674 0.62136 0.0
H2003 H 0.43014 0.55467 0.6383 0.0
C2004 C 0.52097 0.86772 0.72297 0.0
C2005 C 0.53815 0.87246 0.71039 0.0
C2006 C 0.50701 0.87255 0.71466 0.0
C2007 C 0.48659 0.89548 0.70011 0.0
H2008 H 0.47705 0.89464 0.63539 0.0
C2009 C 0.44769 0.93526 0.66139 0.0
C2010 C 0.43516 0.9267 0.64259 0.0
C2011 C 0.4591 0.92733 0.66974 0.0
C2012 C 0.4793 0.89474 0.65354 0.0
H2013 H 0.5541 0.88597 0.67916 0.0
H2014 H 0.5302 0.8948 0.66504 0.0
H2015 H 0.4981 0.88216 0.64969 0.0
H2016 H 0.42461 0.90291 0.61797 0.0
H2017 H 0.44414 0.88875 0.63285 0.0
H2018 H 0.46735 0.90755 0.70402 0.0
C2019 C 0.52715 0.88693 0.68106 0.0
C2020 C 0.49164 0.88783 0.66175 0.0
C2021 C 0.54097 0.88197 0.68925 0.0
C2022 C 0.43422 0.90994 0.63238 0.0
C2023 C 0.4455 0.90188 0.64088 0.0
C2024 C 0.47411 0.90223 0.69192 0.0
C2025 C 0.51 0.88236 0.69365 0.0
C2026 C 0.4957 0.88838 0.68511 0.0
C2027 C 0.45813 0.91049 0.65966 0.0
C2028 C 0.47052 0.90223 0.66849 0.0
H2029 H 0.51831 0.86032 0.73927 0.0
H2030 H 0.49385 0.86853 0.72469 0.0
H2031 H 0.48948 0.89631 0.71818 0.0
H2032 H 0.44886 0.94825 0.66958 0.0
H2033 H 0.46892 0.93463 0.68391 0.0
C2034 C 0.18937 0.41625 0.17251 0.0
C2035 C 0.1874 0.4186 0.19584 0.0
C2036 C 0.20815 0.42353 0.1627 0.0
C2037 C 0.26221 0.45757 0.17396 0.0
H2038 H 0.2687 0.42783 0.12523 0.0
C2039 C 0.33781 0.46703 0.1459 0.0
C2040 C 0.34176 0.46853 0.12246 0.0
C2041 C 0.31912 0.46263 0.15393 0.0
C2042 C 0.26705 0.4364 0.13866 0.0
H2043 H 0.20358 0.43024 0.22725 0.0
H2044 H 0.23623 0.44219 0.21045 0.0
H2045 H 0.23583 0.41639 0.14131 0.0
H2046 H 0.32928 0.46677 0.08905 0.0
H2047 H 0.29635 0.45857 0.10315 0.0
H2048 H 0.29371 0.47704 0.17184 0.0
C2049 C 0.22338 0.43532 0.19946 0.0
C2050 C 0.24819 0.42991 0.14786 0.0
C2051 C 0.20461 0.42833 0.20918 0.0
C2052 C 0.32669 0.46578 0.1072 0.0
C2053 C 0.30785 0.46099 0.11524 0.0
C2054 C 0.2811 0.46386 0.165 0.0
C2055 C 0.22544 0.43307 0.17606 0.0
C2056 C 0.24549 0.44034 0.16574 0.0
C2057 C 0.30387 0.45928 0.13868 0.0
C2058 C 0.28372 0.45328 0.14733 0.0
H2059 H 0.17639 0.40897 0.16173 0.0
H2060 H 0.20906 0.42182 0.14458 0.0
H2061 H 0.26075 0.4663 0.18732 0.0
H2062 H 0.34913 0.46912 0.15808 0.0
H2063 H 0.31642 0.46126 0.17207 0.0
C2064 C 0.54446 0.87928 0.1567 0.0
C2065 C 0.54365 0.88305 0.13346 0.0
C2066 C 0.54748 0.86376 0.16371 0.0
C2067 C 0.5701 0.83473 0.1452 0.0
H2068 H 0.5375 0.79709 0.19163 0.0
C2069 C 0.58133 0.76906 0.17046 0.0
C2070 C 0.57873 0.7633 0.19341 0.0
C2071 C 0.57586 0.78267 0.16255 0.0
C2072 C 0.54697 0.80762 0.17888 0.0
H2073 H 0.54527 0.87335 0.0994 0.0
H2074 H 0.55088 0.84655 0.11169 0.0
H2075 H 0.53045 0.82297 0.17957 0.0
H2076 H 0.56839 0.76739 0.22607 0.0
H2077 H 0.55959 0.79152 0.2126 0.0
H2078 H 0.58712 0.82003 0.14495 0.0
C2079 C 0.54908 0.85555 0.12445 0.0
C2080 C 0.54283 0.82241 0.17192 0.0
C2081 C 0.54575 0.87084 0.11744 0.0
C2082 C 0.57043 0.77135 0.20822 0.0
C2083 C 0.56525 0.78516 0.20042 0.0
C2084 C 0.57445 0.82016 0.1524 0.0
C2085 C 0.55009 0.85191 0.14764 0.0
C2086 C 0.55434 0.8361 0.15499 0.0
C2087 C 0.56794 0.79111 0.17748 0.0
C2088 C 0.56296 0.80637 0.16937 0.0
H2089 H 0.5429 0.88841 0.16947 0.0
H2090 H 0.54829 0.86135 0.18171 0.0
H2091 H 0.57937 0.84524 0.1323 0.0
H2092 H 0.58758 0.76304 0.15857 0.0
H2093 H 0.57783 0.78652 0.14469 0.0
C2094 C 0.24044 0.80923 0.18057 0.0
C2095 C 0.24535 0.81149 0.20376 0.0
C2096 C 0.22858 0.79035 0.17135 0.0
C2097 C 0.18918 0.74114 0.18633 0.0
H2098 H 0.20371 0.72384 0.13154 0.0
C2099 C 0.13917 0.66256 0.15112 0.0
C2100 C 0.13752 0.66021 0.12744 0.0
C2101 C 0.15349 0.68046 0.16067 0.0
C2102 C 0.19925 0.7285 0.14666 0.0
H2103 H 0.2418 0.79576 0.23545 0.0
H2104 H 0.22063 0.76277 0.21938 0.0
H2105 H 0.22652 0.75635 0.14749 0.0
H2106 H 0.14959 0.67472 0.09518 0.0
H2107 H 0.17399 0.70623 0.11172 0.0
H2108 H 0.16162 0.71392 0.18517 0.0
C2109 C 0.22614 0.77563 0.20836 0.0
C2110 C 0.21241 0.74708 0.15584 0.0
C2111 C 0.23831 0.79448 0.2175 0.0
C2112 C 0.15061 0.67606 0.1135 0.0
C2113 C 0.1647 0.69411 0.12304 0.0
C2114 C 0.17588 0.72273 0.17696 0.0
C2115 C 0.22111 0.77341 0.18523 0.0
C2116 C 0.20748 0.75355 0.17576 0.0
C2117 C 0.16626 0.69662 0.14677 0.0
C2118 C 0.18071 0.71612 0.15698 0.0
H2119 H 0.2457 0.82205 0.16954 0.0
H2120 H 0.2248 0.78902 0.15349 0.0
H2121 H 0.18493 0.74592 0.20154 0.0
H2122 H 0.12942 0.65053 0.16231 0.0
H2123 H 0.1545 0.68158 0.17899 0.0
C2124 C 0.29778 0.26628 0.02949 0.0
C2125 C 0.28679 0.2511 0.04525 0.0
C2126 C 0.30846 0.28608 0.0365 0.0
C2127 C 0.31327 0.31916 0.08494 0.0
H2128 H 0.36329 0.35516 0.05566 0.0
C2129 C 0.36741 0.39814 0.11852 0.0
C2130 C 0.37321 0.41329 0.10224 0.0
C2131 C 0.35742 0.37821 0.11189 0.0
C2132 C 0.34932 0.34525 0.06394 0.0
H2133 H 0.27862 0.24474 0.08077 0.0
H2134 H 0.29772 0.27898 0.09311 0.0
H2135 H 0.34466 0.32066 0.04344 0.0
H2136 H 0.37363 0.4195 0.06623 0.0
H2137 H 0.35662 0.38476 0.05469 0.0
H2138 H 0.31834 0.34379 0.10581 0.0
C2139 C 0.29766 0.27583 0.07521 0.0
C2140 C 0.33853 0.3255 0.05684 0.0
C2141 C 0.28675 0.25612 0.06814 0.0
C2142 C 0.36928 0.40815 0.07919 0.0
C2143 C 0.35964 0.38829 0.07255 0.0
C2144 C 0.32423 0.33881 0.09226 0.0
C2145 C 0.30864 0.29113 0.0595 0.0
C2146 C 0.32027 0.31218 0.06715 0.0
C2147 C 0.35341 0.37312 0.08884 0.0
C2148 C 0.34228 0.35207 0.08174 0.0
H2149 H 0.29802 0.26288 0.01171 0.0
H2150 H 0.31641 0.29743 0.0238 0.0
H2151 H 0.29912 0.30954 0.09302 0.0
H2152 H 0.37019 0.40165 0.13641 0.0
H2153 H 0.35285 0.36677 0.12476 0.0
C2154 C 0.61347 0.96178 0.11385 0.0
C2155 C 0.6037 0.96604 0.13117 0.0
C2156 C 0.63386 0.96858 0.11522 0.0
C2157 C 0.68027 0.00549 0.14405 0.0
H2158 H 0.69962 0.97106 0.12282 0.0
C2159 C 0.764 0.02981 0.1469 0.0
C2160 C 0.77129 0.02746 0.12603 0.0
C2161 C 0.74342 0.02027 0.15085 0.0
C2162 C 0.69447 0.98087 0.12883 0.0
H2163 H 0.60794 0.98109 0.16339 0.0
H2164 H 0.6434 0.99279 0.16583 0.0
H2165 H 0.6641 0.95935 0.12235 0.0
H2166 H 0.76315 0.01277 0.09343 0.0
H2167 H 0.72754 0.99583 0.10042 0.0
H2168 H 0.71074 0.0271 0.15022 0.0
C2169 C 0.63535 0.98436 0.15105 0.0
C2170 C 0.67409 0.9742 0.12843 0.0
C2171 C 0.61495 0.97759 0.14968 0.0
C2172 C 0.75786 0.01457 0.1098 0.0
C2173 C 0.73744 0.00488 0.11382 0.0
C2174 C 0.70068 0.01214 0.14451 0.0
C2175 C 0.64506 0.97978 0.13396 0.0
C2176 C 0.66672 0.98654 0.13563 0.0
C2177 C 0.72989 0.00807 0.13408 0.0
C2178 C 0.70807 1.00005 0.13651 0.0
H2179 H 0.60531 0.95297 0.09933 0.0
H2180 H 0.64086 0.96507 0.10149 0.0
H2181 H 0.67521 0.0155 0.14956 0.0
H2182 H 0.77407 0.03998 0.15948 0.0
H2183 H 0.73807 0.02292 0.1667 0.0
C2184 C 0.97044 0.70051 0.03899 0.0
C2185 C 0.96537 0.70993 0.05588 0.0
C2186 C 0.98039 0.69024 0.04467 0.0
C2187 C 0.00985 0.68504 0.09178 0.0
H2188 H 1.00146 0.63902 0.05749 0.0
C2189 C 0.03993 0.6335 0.11996 0.0
C2190 C 0.05074 0.6299 0.10335 0.0
C2191 C 0.02911 0.64283 0.11416 0.0
C2192 C 1.00398 0.6519 0.06715 0.0
H2193 H 0.96605 0.71531 0.09205 0.0
H2194 H 0.98247 0.69675 0.10209 0.0
H2195 H 0.9829 0.65567 0.04758 0.0
H2196 H 0.05832 0.63289 0.06755 0.0
H2197 H 0.03901 0.64878 0.05737 0.0
H2198 H 0.03051 0.68078 0.11174 0.0
C2199 C 0.97957 0.69787 0.08432 0.0
C2200 C 0.99344 0.66156 0.06141 0.0
C2201 C 0.96998 0.70842 0.07859 0.0
C2202 C 0.05021 0.63553 0.08076 0.0
C2203 C 0.03909 0.64452 0.07489 0.0
C2204 C 0.02009 0.67517 0.09775 0.0
C2205 C 0.9852 0.68885 0.06744 0.0
C2206 C 0.99626 0.67833 0.0736 0.0
C2207 C 0.02856 0.6484 0.09156 0.0
C2208 C 0.01733 0.65856 0.08545 0.0
H2209 H 0.96718 0.70152 0.02131 0.0
H2210 H 0.98469 0.68379 0.0311 0.0
H2211 H 0.01287 0.69815 0.10128 0.0
H2212 H 0.04007 0.62936 0.13752 0.0
H2213 H 0.02103 0.64558 0.12731 0.0
C2214 C 0.28833 0.29152 0.44177 0.0
C2215 C 0.27898 0.29708 0.45827 0.0
C2216 C 0.30876 0.29859 0.44275 0.0
C2217 C 0.3556 0.33847 0.46723 0.0
H2218 H 0.37542 0.30353 0.44943 0.0
C2219 C 0.43978 0.36572 0.46349 0.0
C2220 C 0.44555 0.36217 0.44226 0.0
C2221 C 0.41965 0.35575 0.46971 0.0
C2222 C 0.37011 0.31344 0.45454 0.0
H2223 H 0.28388 0.31459 0.4887 0.0
H2224 H 0.31948 0.32679 0.49051 0.0
H2225 H 0.3397 0.29072 0.4514 0.0
H2226 H 0.43537 0.34503 0.41134 0.0
H2227 H 0.40049 0.3273 0.42231 0.0
H2228 H 0.38609 0.36127 0.46995 0.0
C2229 C 0.31105 0.31712 0.47665 0.0
C2230 C 0.34964 0.30615 0.45551 0.0
C2231 C 0.29061 0.31009 0.47564 0.0
C2232 C 0.43122 0.34777 0.42795 0.0
C2233 C 0.41126 0.33763 0.43426 0.0
C2234 C 0.3761 0.34574 0.46636 0.0
C2235 C 0.32037 0.31134 0.46031 0.0
C2236 C 0.34212 0.31869 0.46132 0.0
C2237 C 0.40514 0.34194 0.45487 0.0
C2238 C 0.38357 0.33343 0.45946 0.0
H2239 H 0.27986 0.28158 0.42812 0.0
H2240 H 0.31547 0.29415 0.42959 0.0
H2241 H 0.35037 0.34859 0.47161 0.0
H2242 H 0.4506 0.37704 0.47458 0.0
H2243 H 0.41535 0.35931 0.48574 0.0
C2244 C 0.64082 0.0465 0.37764 0.0
C2245 C 0.63778 0.0573 0.39468 0.0
C2246 C 0.65064 0.03597 0.38248 0.0
C2247 C 0.68302 0.03106 0.42605 0.0
H2248 H 0.66865 0.9827 0.393 0.0
C2249 C 0.7128 0.97748 0.44768 0.0
C2250 C 0.7213 0.973 0.42917 0.0
C2251 C 0.7021 0.98738 0.44428 0.0
C2252 C 0.67282 0.99621 0.40232 0.0
H2253 H 0.64238 0.06528 0.43029 0.0
H2254 H 0.65872 0.04627 0.43902 0.0
H2255 H 0.65068 1.0004 0.38591 0.0
H2256 H 0.72489 0.97503 0.39255 0.0
H2257 H 0.70576 0.99181 0.38661 0.0
H2258 H 0.70482 0.02633 0.44288 0.0
C2259 C 0.65415 0.04639 0.42169 0.0
C2260 C 0.66264 0.00649 0.39816 0.0
C2261 C 0.64464 0.05722 0.41673 0.0
C2262 C 0.71859 0.97833 0.40718 0.0
C2263 C 0.70756 0.98784 0.40374 0.0
C2264 C 0.69295 0.02055 0.43049 0.0
C2265 C 0.65736 0.03564 0.40461 0.0
C2266 C 0.66773 0.02423 0.40975 0.0
C2267 C 0.69933 0.99259 0.42225 0.0
C2268 C 0.6881 1.00316 0.41848 0.0
H2269 H 0.63587 0.04641 0.36042 0.0
H2270 H 0.65318 0.02832 0.36869 0.0
H2271 H 0.68768 0.04479 0.43508 0.0
H2272 H 0.71469 0.97362 0.46483 0.0
H2273 H 0.69582 0.99082 0.45882 0.0
C2274 C 0.02384 0.73421 0.45626 0.0
C2275 C 0.03793 0.74369 0.47354 0.0
C2276 C 0.01037 0.71383 0.4573 0.0
C2277 C 1.00156 0.66691 0.48413 0.0
H2278 H 0.94808 0.64767 0.46182 0.0
C2279 C 0.94381 0.58279 0.48034 0.0
C2280 C 0.93511 0.57679 0.45882 0.0
C2281 C 0.95416 0.60303 0.48603 0.0
C2282 C 0.96295 0.65279 0.46815 0.0
H2283 H 0.04894 0.739 0.50544 0.0
H2284 H 0.0253 0.70339 0.50733 0.0
H2285 H 0.97113 0.68325 0.46384 0.0
H2286 H 0.92963 0.58685 0.42676 0.0
H2287 H 0.94703 0.62186 0.43679 0.0
H2288 H 0.99336 0.63633 0.48807 0.0
C2289 C 0.0248 0.71173 0.49284 0.0
C2290 C 0.97623 0.67321 0.46919 0.0
C2291 C 0.03835 0.73218 0.49179 0.0
C2292 C 0.93593 0.59111 0.44363 0.0
C2293 C 0.94594 0.61118 0.44939 0.0
C2294 C 0.98821 0.64644 0.48317 0.0
C2295 C 0.01051 0.70231 0.47569 0.0
C2296 C 0.99588 0.68057 0.47666 0.0
C2297 C 0.95574 0.61749 0.47036 0.0
C2298 C 0.96888 0.63912 0.47467 0.0
H2299 H 0.0231 0.74254 0.44189 0.0
H2300 H 0.99991 0.70708 0.4435 0.0
H2301 H 0.01658 0.67198 0.48983 0.0
H2302 H 0.94373 0.57204 0.49213 0.0
H2303 H 0.96147 0.60742 0.50236 0.0
C2304 C 0.63798 0.60797 0.88051 0.0
C2305 C 0.63521 0.59437 0.89787 0.0
C2306 C 0.64795 0.62839 0.88489 0.0
C2307 C 0.66015 0.66483 0.93004 0.0
H2308 H 0.70429 0.70031 0.89163 0.0
C2309 C 0.71028 0.74795 0.95245 0.0
C2310 C 0.71874 0.76169 0.93459 0.0
C2311 C 0.69982 0.72753 0.94804 0.0
C2312 C 0.69178 0.69075 0.90233 0.0
H2313 H 0.64041 0.59154 0.93353 0.0
H2314 H 0.65736 0.62713 0.94122 0.0
H2315 H 0.68614 0.66493 0.88341 0.0
H2316 H 0.72229 0.7648 0.89804 0.0
H2317 H 0.7034 0.72948 0.89024 0.0
H2318 H 0.66523 0.69053 0.9486 0.0
C2319 C 0.65198 0.62198 0.92421 0.0
C2320 C 0.68145 0.67042 0.89764 0.0
C2321 C 0.64237 0.60162 0.91975 0.0
C2322 C 0.71616 0.75459 0.91222 0.0
C2323 C 0.70541 0.73424 0.90777 0.0
C2324 C 0.67024 0.68522 0.93452 0.0
C2325 C 0.65498 0.63559 0.90681 0.0
C2326 C 0.6656 0.65724 0.9115 0.0
C2327 C 0.69725 0.72034 0.92561 0.0
C2328 C 0.68628 0.69852 0.92078 0.0
H2329 H 0.63267 0.60286 0.86348 0.0
H2330 H 0.64998 0.63856 0.87118 0.0
H2331 H 0.64786 0.655 0.9409 0.0
H2332 H 0.71212 0.75295 0.96989 0.0
H2333 H 0.69411 0.71741 0.96232 0.0
C2334 C 0.26955 0.96445 0.90263 0.0
C2335 C 0.26148 0.95812 0.92443 0.0
C2336 C 0.29011 0.97531 0.89946 0.0
C2337 C 0.33836 0.99011 0.92842 0.0
H2338 H 0.35895 0.03084 0.88175 0.0
C2339 C 0.42167 0.05018 0.91888 0.0
C2340 C 0.42955 0.05159 0.89701 0.0
C2341 C 0.4012 0.03864 0.92269 0.0
C2342 C 0.35338 0.01946 0.89479 0.0
H2343 H 0.26861 0.95815 0.96001 0.0
H2344 H 0.3044 0.97773 0.95469 0.0
H2345 H 0.32323 0.0109 0.8876 0.0
H2346 H 0.42216 0.04232 0.86195 0.0
H2347 H 0.38641 0.02264 0.86855 0.0
H2348 H 0.36877 0.99934 0.93597 0.0
C2349 C 0.29496 0.97386 0.93987 0.0
C2350 C 0.33289 0.00789 0.89806 0.0
C2351 C 0.2744 0.96268 0.94297 0.0
C2352 C 0.41654 0.04147 0.87901 0.0
C2353 C 0.39609 0.03028 0.88273 0.0
C2354 C 0.35888 1.00195 0.92539 0.0
C2355 C 0.30312 0.98045 0.91807 0.0
C2356 C 0.32505 0.99292 0.9148 0.0
C2357 C 0.38824 0.02868 0.90461 0.0
C2358 C 0.36655 0.01661 0.90843 0.0
H2359 H 0.25996 0.96101 0.88798 0.0
H2360 H 0.29575 0.97964 0.88235 0.0
H2361 H 0.33297 0.97855 0.94122 0.0
H2362 H 0.43134 0.05777 0.93309 0.0
H2363 H 0.39546 0.0377 0.93969 0.0
C2364 C 0.02255 0.27128 0.89378 0.0
C2365 C 0.02671 0.26941 0.9166 0.0
C2366 C 0.01401 0.28289 0.88797 0.0
C2367 C 0.98368 0.30279 0.91076 0.0
H2368 H 0.01087 0.34606 0.86785 0.0
C2369 C 0.96431 0.36488 0.90468 0.0
C2370 C 0.96493 0.37336 0.88339 0.0
C2371 C 0.97154 0.35177 0.90736 0.0
C2372 C 1.00284 0.33386 0.87958 0.0
H2373 H 0.0246 0.27764 0.95123 0.0
H2374 H 0.00926 0.29733 0.94114 0.0
H2375 H 0.02294 0.32283 0.87421 0.0
H2376 H 0.97376 0.37481 0.8482 0.0
H2377 H 0.98586 0.35145 0.85268 0.0
H2378 H 0.9634 0.3134 0.91603 0.0
C2379 C 0.01278 0.29006 0.92774 0.0
C2380 C 0.00981 0.32058 0.88322 0.0
C2381 C 0.02165 0.27885 0.93349 0.0
C2382 C 0.9732 0.36863 0.86487 0.0
C2383 C 0.9802 0.35526 0.86748 0.0
C2384 C 0.97654 0.31585 0.9069 0.0
C2385 C 0.00906 0.29238 0.90494 0.0
C2386 C 1.00051 0.30515 0.89917 0.0
C2387 C 0.9793 0.34649 0.88874 0.0
C2388 C 0.98625 0.33184 0.89162 0.0
H2389 H 0.02639 0.26424 0.88042 0.0
H2390 H 0.01123 0.28442 0.87027 0.0
H2391 H 0.97609 0.29087 0.92296 0.0
H2392 H 0.9582 0.36836 0.91935 0.0
H2393 H 0.97107 0.34581 0.92413 0.0
C2394 C 0.74411 0.73112 0.574 0.0
C2395 C 0.75849 0.73354 0.5901 0.0
C2396 C 0.72401 0.72141 0.5797 0.0
C2397 C 0.68819 0.68263 0.61677 0.0
H2398 H 0.65269 0.7006 0.59502 0.0
C2399 C 0.60285 0.63669 0.63054 0.0
C2400 C 0.59062 0.63666 0.61289 0.0
C2401 C 0.62344 0.64942 0.62978 0.0
C2402 C 0.66233 0.69522 0.60099 0.0
H2403 H 0.76317 0.7281 0.625 0.0
H2404 H 0.72764 0.71062 0.63502 0.0
H2405 H 0.68848 0.7221 0.59114 0.0
H2406 H 0.59059 0.64979 0.58039 0.0
H2407 H 0.62646 0.67153 0.57871 0.0
H2408 H 0.6621 0.65545 0.62585 0.0
C2409 C 0.7321 0.71645 0.61798 0.0
C2410 C 0.68287 0.70764 0.59893 0.0
C2411 C 0.75239 0.72658 0.61234 0.0
C2412 C 0.59953 0.64947 0.59432 0.0
C2413 C 0.62014 0.6621 0.59347 0.0
C2414 C 0.6676 0.67011 0.61867 0.0
C2415 C 0.71768 0.71356 0.60159 0.0
C2416 C 0.69604 0.70138 0.60646 0.0
C2417 C 0.63239 0.66238 0.61128 0.0
C2418 C 0.65436 0.6761 0.61046 0.0
H2419 H 0.74839 0.73635 0.55671 0.0
H2420 H 0.71332 0.71928 0.56663 0.0
H2421 H 0.69793 0.67728 0.62247 0.0
H2422 H 0.59649 0.62711 0.64519 0.0
H2423 H 0.63228 0.64934 0.64394 0.0
C2424 C 0.24908 1.00349 0.6165 0.0
C2425 C 0.25173 0.02005 0.6288 0.0
C2426 C 0.26095 0.99506 0.62085 0.0
C2427 C 0.31163 0.01184 0.64081 0.0
H2428 H 0.29758 0.95751 0.62812 0.0
C2429 C 0.36936 0.98511 0.63997 0.0
C2430 C 0.36768 0.97228 0.62223 0.0
C2431 C 0.35465 0.99022 0.64342 0.0
C2432 C 0.30174 0.97276 0.63158 0.0
H2433 H 0.26797 0.04015 0.65611 0.0
H2434 H 0.28836 0.02498 0.66444 0.0
H2435 H 0.27143 0.96597 0.63234 0.0
H2436 H 0.34933 0.9551 0.59394 0.0
H2437 H 0.3238 0.96414 0.59986 0.0
H2438 H 0.34194 0.01866 0.63972 0.0
C2439 C 0.27724 0.0186 0.65122 0.0
C2440 C 0.28675 0.97761 0.63408 0.0
C2441 C 0.26531 0.02704 0.64681 0.0
C2442 C 0.35115 0.96505 0.60773 0.0
C2443 C 0.33638 0.97005 0.61128 0.0
C2444 C 0.3266 0.00696 0.63844 0.0
C2445 C 0.2759 1.00315 0.63751 0.0
C2446 C 0.2915 0.9973 0.63828 0.0
C2447 C 0.33784 0.98252 0.62932 0.0
C2448 C 0.32186 0.98745 0.63334 0.0
H2449 H 0.23909 0.99824 0.60209 0.0
H2450 H 0.25955 0.98334 0.60977 0.0
H2451 H 0.31594 0.02722 0.64359 0.0
H2452 H 0.38185 0.99091 0.65152 0.0
H2453 H 0.35618 0.9998 0.65752 0.0
C2454 C 0.09482 0.42843 0.5346 0.0
C2455 C 0.10399 0.43245 0.55595 0.0
C2456 C 0.08347 0.40878 0.5271 0.0
C2457 C 0.07002 0.35651 0.54011 0.0
H2458 H 0.01708 0.34428 0.5222 0.0
C2459 C 1.00262 0.27856 0.5516 0.0
C2460 C 0.98829 0.27079 0.53429 0.0
C2461 C 0.01776 0.29837 0.55105 0.0
C2462 C 0.03186 0.34742 0.52683 0.0
H2463 H 0.10951 0.41957 0.5857 0.0
H2464 H 0.09026 0.38549 0.57256 0.0
H2465 H 0.04346 0.37879 0.52494 0.0
H2466 H 0.97845 0.278 0.50304 0.0
H2467 H 1.00491 0.31269 0.50216 0.0
H2468 H 0.05828 0.32516 0.54266 0.0
C2469 C 0.09181 0.39727 0.56139 0.0
C2470 C 0.04703 0.36723 0.5283 0.0
C2471 C 0.10292 0.41681 0.56892 0.0
C2472 C 0.98919 0.2835 0.5167 0.0
C2473 C 1.00436 0.30339 0.51619 0.0
C2474 C 0.05487 0.33673 0.53865 0.0
C2475 C 0.08124 0.39293 0.54084 0.0
C2476 C 0.06618 0.37202 0.53551 0.0
C2477 C 0.01899 0.31098 0.5332 0.0
C2478 C 0.03548 0.33195 0.53256 0.0
H2479 H 0.09508 0.44026 0.52459 0.0
H2480 H 0.07565 0.40593 0.5111 0.0
H2481 H 0.08467 0.35968 0.5454 0.0
H2482 H 1.00239 0.26924 0.56544 0.0
H2483 H 0.02852 0.30383 0.5647 0.0
C2484 C 0.92229 0.61053 0.71888 0.0
C2485 C 0.91437 0.61776 0.73532 0.0
C2486 C 0.94275 0.62018 0.71478 0.0
C2487 C 0.99102 0.65496 0.74136 0.0
H2488 H 0.01134 0.6595 0.68018 0.0
C2489 C 0.07037 0.69889 0.68968 0.0
C2490 C 0.08281 0.6963 0.70495 0.0
C2491 C 0.04981 0.68905 0.69308 0.0
C2492 C 1.00594 0.65849 0.69737 0.0
H2493 H 0.92183 0.64107 0.76002 0.0
H2494 H 0.95743 0.65804 0.75261 0.0
H2495 H 0.97563 0.64364 0.68646 0.0
H2496 H 0.08328 0.68103 0.73563 0.0
H2497 H 0.04742 0.66365 0.74137 0.0
H2498 H 0.02133 0.67021 0.75222 0.0
C2499 C 0.94786 0.64471 0.74316 0.0
C2500 C 0.98542 0.64918 0.701 0.0
C2501 C 0.9274 0.63504 0.7473 0.0
C2502 C 0.07416 0.68344 0.72357 0.0
C2503 C 0.05359 0.67356 0.72695 0.0
C2504 C 0.01153 0.66427 0.73773 0.0
C2505 C 0.95583 0.63732 0.72697 0.0
C2506 C 0.97769 0.64731 0.72304 0.0
C2507 C 0.04115 0.67632 0.71181 0.0
C2508 C 0.01927 0.66618 0.71568 0.0
H2509 H 0.91271 0.59721 0.7094 0.0
H2510 H 0.94836 0.61393 0.70238 0.0
H2511 H 0.98561 0.65357 0.7586 0.0
H2512 H 0.07651 0.70874 0.6752 0.0
H2513 H 0.04075 0.69174 0.68124 0.0
C2514 C 0.30904 0.3624 0.7274 0.0
C2515 C 0.31262 0.37786 0.74245 0.0
C2516 C 0.32303 0.35624 0.72459 0.0
C2517 C 0.37643 0.37284 0.73242 0.0
H2518 H 0.35862 0.31672 0.72807 0.0
C2519 C 0.42804 0.33955 0.74371 0.0
C2520 C 0.42308 0.32171 0.73269 0.0
C2521 C 0.41626 0.34838 0.74095 0.0
C2522 C 0.3639 0.33249 0.72875 0.0
H2523 H 0.33375 0.39879 0.76653 0.0
H2524 H 0.35805 0.38786 0.76182 0.0
H2525 H 0.33436 0.32751 0.73241 0.0
H2526 H 0.40257 0.2995 0.70942 0.0
H2527 H 0.38246 0.3153 0.70367 0.0
H2528 H 0.40603 0.37776 0.72905 0.0
C2529 C 0.34449 0.38067 0.75197 0.0
C2530 C 0.34993 0.33868 0.73138 0.0
C2531 C 0.33046 0.3868 0.75485 0.0
C2532 C 0.407 0.31356 0.7176 0.0
C2533 C 0.39526 0.32242 0.71472 0.0
C2534 C 0.39043 0.36664 0.72974 0.0
C2535 C 0.34101 0.36539 0.7367 0.0
C2536 C 0.35599 0.35892 0.73343 0.0
C2537 C 0.39917 0.33941 0.72721 0.0
C2538 C 0.38437 0.34635 0.72803 0.0
H2539 H 0.29553 0.35522 0.71747 0.0
H2540 H 0.31991 0.34456 0.71253 0.0
H2541 H 0.38161 0.38857 0.73358 0.0
H2542 H 0.43996 0.34572 0.75605 0.0
H2543 H 0.41968 0.36132 0.75102 0.0
C2544 C 0.63571 0.93762 0.70598 0.0
C2545 C 0.6261 0.92461 0.72418 0.0
C2546 C 0.64777 0.95796 0.70978 0.0
C2547 C 0.65842 0.99668 0.75332 0.0
H2548 H 0.70481 0.02817 0.71576 0.0
C2549 C 0.71628 0.07813 0.77308 0.0
C2550 C 0.71993 0.09147 0.75512 0.0
C2551 C 0.7057 0.05769 0.76931 0.0
C2552 C 0.69186 0.01951 0.72631 0.0
H2553 H 0.622 0.92254 0.7607 0.0
H2554 H 0.64362 0.95779 0.76749 0.0
H2555 H 0.68481 0.99248 0.70947 0.0
H2556 H 0.71597 0.09391 0.71901 0.0
H2557 H 0.69786 0.05811 0.71237 0.0
H2558 H 0.66591 0.02376 0.77051 0.0
C2559 C 0.64136 0.95252 0.75015 0.0
C2560 C 0.6803 0.9991 0.72265 0.0
C2561 C 0.62904 0.93226 0.74629 0.0
C2562 C 0.71331 0.08398 0.73319 0.0
C2563 C 0.70305 0.06354 0.72936 0.0
C2564 C 0.67017 0.01701 0.75721 0.0
C2565 C 0.65075 0.9657 0.73193 0.0
C2566 C 0.66335 0.98741 0.73603 0.0
C2567 C 0.69891 0.05023 0.74745 0.0
C2568 C 0.68691 0.02861 0.74367 0.0
H2569 H 0.63362 0.93214 0.68872 0.0
H2570 H 0.65443 0.96763 0.69526 0.0
H2571 H 0.64527 0.98834 0.76366 0.0
H2572 H 0.72115 0.08347 0.79016 0.0
H2573 H 0.70276 0.04769 0.78349 0.0
C2574 C 0.3017 0.93454 0.22331 0.0
C2575 C 0.29877 0.92181 0.24171 0.0
C2576 C 0.31134 0.95506 0.22643 0.0
C2577 C 0.32261 0.99382 0.26772 0.0
H2578 H 0.3681 0.02648 0.22946 0.0
C2579 C 0.37209 0.07824 0.28252 0.0
C2580 C 0.38073 0.0905 0.26348 0.0
C2581 C 0.36186 0.05759 0.28027 0.0
C2582 C 0.35522 0.01769 0.24004 0.0
H2583 H 0.30318 0.92055 0.27792 0.0
H2584 H 0.31962 0.95652 0.28344 0.0
H2585 H 0.35014 0.99064 0.22461 0.0
H2586 H 0.38492 0.09082 0.22707 0.0
H2587 H 0.36639 0.05497 0.22292 0.0
H2588 H 0.32713 0.02077 0.28268 0.0
C2589 C 0.31459 0.95053 0.2666 0.0
C2590 C 0.34503 0.99713 0.23733 0.0
C2591 C 0.30527 0.93 0.26341 0.0
C2592 C 0.37861 0.08173 0.2421 0.0
C2593 C 0.36808 0.06113 0.23977 0.0
C2594 C 0.33258 0.01445 0.27018 0.0
C2595 C 0.31792 0.96323 0.24808 0.0
C2596 C 0.32866 0.98501 0.25113 0.0
C2597 C 0.35973 0.04872 0.25885 0.0
C2598 C 0.34905 0.0267 0.25637 0.0
H2599 H 0.29691 0.92869 0.20638 0.0
H2600 H 0.31364 0.96457 0.21192 0.0
H2601 H 0.30991 0.98476 0.27846 0.0
H2602 H 0.37361 0.08459 0.29925 0.0
H2603 H 0.35596 0.04861 0.29543 0.0
C2604 C 0.91855 0.32655 0.22491 0.0
C2605 C 0.91196 0.32525 0.24739 0.0
C2606 C 0.93886 0.33439 0.2203 0.0
C2607 C 0.98906 0.36527 0.24438 0.0
H2608 H 1.00318 0.33104 0.2113 0.0
C2609 C 0.06792 0.37653 0.24971 0.0
C2610 C 0.07636 0.37348 0.23011 0.0
C2611 C 0.04784 0.37111 0.2502 0.0
C2612 C 0.99959 0.34098 0.22026 0.0
H2613 H 0.92129 0.33197 0.28246 0.0
H2614 H 0.95656 0.34616 0.2744 0.0
H2615 H 0.96844 0.32258 0.21359 0.0
H2616 H 0.07014 0.36197 0.19577 0.0
H2617 H 0.03524 0.35287 0.19646 0.0
H2618 H 0.02004 0.38371 0.2511 0.0
C2619 C 0.94621 0.34103 0.26034 0.0
C2620 C 0.97965 0.33612 0.22153 0.0
C2621 C 0.92601 0.33286 0.26496 0.0
C2622 C 0.0641 0.36441 0.21121 0.0
C2623 C 0.04403 0.35915 0.21163 0.0
C2624 C 0.00898 0.37024 0.24293 0.0
C2625 C 0.95285 0.34144 0.23806 0.0
C2626 C 0.97414 0.34801 0.23399 0.0
C2627 C 0.03568 0.3627 0.23103 0.0
C2628 C 0.01451 0.35794 0.23128 0.0
H2629 H 0.90796 0.32055 0.21112 0.0
H2630 H 0.9436 0.3346 0.20295 0.0
H2631 H 0.98528 0.37482 0.25391 0.0
H2632 H 0.07689 0.38338 0.26462 0.0
H2633 H 0.04189 0.37362 0.26567 0.0
C2634 C 0.71 0.62339 0.25433 0.0
C2635 C 0.71714 0.62419 0.27645 0.0
C2636 C 0.69991 0.63349 0.24874 0.0
C2637 C 0.68989 0.67307 0.26965 0.0
H2638 H 0.64804 0.65057 0.22455 0.0
C2639 C 0.63346 0.70006 0.25436 0.0
C2640 C 0.63053 0.70371 0.23168 0.0
C2641 C 0.6447 0.69105 0.25952 0.0
C2642 C 0.65981 0.6571 0.23703 0.0
H2643 H 0.71907 0.63608 0.31016 0.0
H2644 H 0.7007 0.65302 0.30077 0.0
H2645 H 0.66565 0.63309 0.23474 0.0
H2646 H 0.63708 0.70071 0.19661 0.0
H2647 H 0.65635 0.68444 0.20565 0.0
H2648 H 0.68333 0.6967 0.27245 0.0
C2649 C 0.70342 0.6451 0.28745 0.0
C2650 C 0.67001 0.64714 0.24285 0.0
C2651 C 0.71384 0.63526 0.29293 0.0
C2652 C 0.6391 0.69813 0.21424 0.0
C2653 C 0.65004 0.68875 0.2194 0.0
C2654 C 0.67943 0.68284 0.2641 0.0
C2655 C 0.69633 0.64442 0.26522 0.0
C2656 C 0.68528 0.655 0.2592 0.0
C2657 C 0.65297 0.68515 0.2421 0.0
C2658 C 0.66433 0.67498 0.24769 0.0
H2659 H 0.7125 0.61518 0.24114 0.0
H2660 H 0.69518 0.63291 0.23133 0.0
H2661 H 0.70177 0.67987 0.28196 0.0
H2662 H 0.62713 0.70425 0.2682 0.0
H2663 H 0.64661 0.68834 0.27714 0.0
loop_
_geom_bond_atom_site_label_1
_geom_bond_atom_site_label_2
_geom_bond_distance
_geom_bond_site_symmetry_2
_ccdc_geom_bond_type
C0 O2 1.247 . S
C0 O4 1.258 . S
C1 O8 1.247 . S
C1 O9 1.258 . S
O2 C0 1.247 . S
O2 Zn3 2.028 . S
Zn3 O2 2.028 . S
Zn3 O7 2.035 . S
Zn3 O9 2.035 . S
Zn3 O10 2.028 . S
O4 C0 1.258 . S
O4 Zn5 2.035 . S
Zn5 O4 2.035 . S
Zn5 O6 2.028 . S
Zn5 O8 2.028 . S
Zn5 O11 2.035 . S
O6 Zn5 2.028 . S
O6 C12 1.247 . S
O7 Zn3 2.035 . S
O7 C12 1.258 . S
O8 C1 1.247 . S
O8 Zn5 2.028 . S
O9 C1 1.258 . S
O9 Zn3 2.035 . S
O10 Zn3 2.028 . S
O10 C13 1.247 . S
O11 Zn5 2.035 . S
O11 C13 1.258 . S
C12 O6 1.247 . S
C12 O7 1.258 . S
C13 O10 1.247 . S
C13 O11 1.258 . S
C14 O16 1.247 . S
C14 O18 1.258 . S
C15 O22 1.247 . S
C15 O23 1.258 . S
O16 C14 1.247 . S
O16 Zn17 2.028 . S
Zn17 O16 2.028 . S
Zn17 O21 2.035 . S
Zn17 O23 2.035 . S
Zn17 O24 2.028 . S
O18 C14 1.258 . S
O18 Zn19 2.035 . S
Zn19 O18 2.035 . S
Zn19 O20 2.028 . S
Zn19 O22 2.028 . S
Zn19 O25 2.035 . S
O20 Zn19 2.028 . S
O20 C26 1.247 . S
O21 Zn17 2.035 . S
O21 C26 1.258 . S
O22 C15 1.247 . S
O22 Zn19 2.028 . S
O23 C15 1.258 . S
O23 Zn17 2.035 . S
O24 Zn17 2.028 . S
O24 C27 1.247 . S
O25 Zn19 2.035 . S
O25 C27 1.258 . S
C26 O20 1.247 . S
C26 O21 1.258 . S
C27 O24 1.247 . S
C27 O25 1.258 . S
C28 O30 1.247 . S
C28 O32 1.258 . S
C29 O36 1.247 . S
C29 O37 1.258 . S
O30 C28 1.247 . S
O30 Zn31 2.028 . S
Zn31 O30 2.028 . S
Zn31 O35 2.035 . S
Zn31 O37 2.035 . S
Zn31 O38 2.028 . S
O32 C28 1.258 . S
O32 Zn33 2.035 . S
Zn33 O32 2.035 . S
Zn33 O34 2.028 . S
Zn33 O36 2.028 . S
Zn33 O39 2.035 . S
O34 Zn33 2.028 . S
O34 C40 1.247 . S
O35 Zn31 2.035 . S
O35 C40 1.258 . S
O36 C29 1.247 . S
O36 Zn33 2.028 . S
O37 C29 1.258 . S
O37 Zn31 2.035 . S
O38 Zn31 2.028 . S
O38 C41 1.247 . S
O39 Zn33 2.035 . S
O39 C41 1.258 . S
C40 O34 1.247 . S
C40 O35 1.258 . S
C41 O38 1.247 . S
C41 O39 1.258 . S
C42 O44 1.247 . S
C42 O46 1.258 . S
C43 O50 1.247 . S
C43 O51 1.258 . S
O44 C42 1.247 . S
O44 Zn45 2.028 . S
Zn45 O44 2.028 . S
Zn45 O49 2.035 . S
Zn45 O51 2.035 . S
Zn45 O52 2.028 . S
O46 C42 1.258 . S
O46 Zn47 2.035 . S
Zn47 O46 2.035 . S
Zn47 O48 2.028 . S
Zn47 O50 2.028 . S
Zn47 O53 2.035 . S
O48 Zn47 2.028 . S
O48 C54 1.247 . S
O49 Zn45 2.035 . S
O49 C54 1.258 . S
O50 C43 1.247 . S
O50 Zn47 2.028 . S
O51 C43 1.258 . S
O51 Zn45 2.035 . S
O52 Zn45 2.028 . S
O52 C55 1.247 . S
O53 Zn47 2.035 . S
O53 C55 1.258 . S
C54 O48 1.247 . S
C54 O49 1.258 . S
C55 O52 1.247 . S
C55 O53 1.258 . S
C56 O58 1.247 . S
C56 O60 1.258 . S
C57 O64 1.247 . S
C57 O65 1.258 . S
O58 C56 1.247 . S
O58 Zn59 2.028 . S
Zn59 O58 2.028 . S
Zn59 O63 2.035 . S
Zn59 O65 2.035 . S
Zn59 O66 2.028 . S
O60 C56 1.258 . S
O60 Zn61 2.035 . S
Zn61 O60 2.035 . S
Zn61 O62 2.028 . S
Zn61 O64 2.028 . S
Zn61 O67 2.035 . S
O62 Zn61 2.028 . S
O62 C68 1.247 . S
O63 Zn59 2.035 . S
O63 C68 1.258 . S
O64 C57 1.247 . S
O64 Zn61 2.028 . S
O65 C57 1.258 . S
O65 Zn59 2.035 . S
O66 Zn59 2.028 . S
O66 C69 1.247 . S
O67 Zn61 2.035 . S
O67 C69 1.258 . S
C68 O62 1.247 . S
C68 O63 1.258 . S
C69 O66 1.247 . S
C69 O67 1.258 . S
C70 O72 1.247 . S
C70 O74 1.258 . S
C71 O78 1.247 . S
C71 O79 1.258 . S
O72 C70 1.247 . S
O72 Zn73 2.028 . S
Zn73 O72 2.028 . S
Zn73 O77 2.035 . S
Zn73 O79 2.035 . S
Zn73 O80 2.028 . S
O74 C70 1.258 . S
O74 Zn75 2.035 . S
Zn75 O74 2.035 . S
Zn75 O76 2.028 . S
Zn75 O78 2.028 . S
Zn75 O81 2.035 . S
O76 Zn75 2.028 . S
O76 C82 1.247 . S
O77 Zn73 2.035 . S
O77 C82 1.258 . S
O78 C71 1.247 . S
O78 Zn75 2.028 . S
O79 C71 1.258 . S
O79 Zn73 2.035 . S
O80 Zn73 2.028 . S
O80 C83 1.247 . S
O81 Zn75 2.035 . S
O81 C83 1.258 . S
C82 O76 1.247 . S
C82 O77 1.258 . S
C83 O80 1.247 . S
C83 O81 1.258 . S
C84 O86 1.247 . S
C84 O88 1.258 . S
C85 O92 1.247 . S
C85 O93 1.258 . S
O86 C84 1.247 . S
O86 Zn87 2.028 . S
Zn87 O86 2.028 . S
Zn87 O91 2.035 . S
Zn87 O93 2.035 . S
Zn87 O94 2.028 . S
O88 C84 1.258 . S
O88 Zn89 2.035 . S
Zn89 O88 2.035 . S
Zn89 O90 2.028 . S
Zn89 O92 2.028 . S
Zn89 O95 2.035 . S
O90 Zn89 2.028 . S
O90 C96 1.247 . S
O91 Zn87 2.035 . S
O91 C96 1.258 . S
O92 C85 1.247 . S
O92 Zn89 2.028 . S
O93 C85 1.258 . S
O93 Zn87 2.035 . S
O94 Zn87 2.028 . S
O94 C97 1.247 . S
O95 Zn89 2.035 . S
O95 C97 1.258 . S
C96 O90 1.247 . S
C96 O91 1.258 . S
C97 O94 1.247 . S
C97 O95 1.258 . S
C98 O100 1.247 . S
C98 O102 1.258 . S
C99 O106 1.247 . S
C99 O107 1.258 . S
O100 C98 1.247 . S
O100 Zn101 2.028 . S
Zn101 O100 2.028 . S
Zn101 O105 2.035 . S
Zn101 O107 2.035 . S
Zn101 O108 2.028 . S
O102 C98 1.258 . S
O102 Zn103 2.035 . S
Zn103 O102 2.035 . S
Zn103 O104 2.028 . S
Zn103 O106 2.028 . S
Zn103 O109 2.035 . S
O104 Zn103 2.028 . S
O104 C110 1.247 . S
O105 Zn101 2.035 . S
O105 C110 1.258 . S
O106 C99 1.247 . S
O106 Zn103 2.028 . S
O107 C99 1.258 . S
O107 Zn101 2.035 . S
O108 Zn101 2.028 . S
O108 C111 1.247 . S
O109 Zn103 2.035 . S
O109 C111 1.258 . S
C110 O104 1.247 . S
C110 O105 1.258 . S
C111 O108 1.247 . S
C111 O109 1.258 . S
C112 O114 1.247 . S
C112 O116 1.258 . S
C113 O120 1.247 . S
C113 O121 1.258 . S
O114 C112 1.247 . S
O114 Zn115 2.028 . S
Zn115 O114 2.028 . S
Zn115 O119 2.035 . S
Zn115 O121 2.035 . S
Zn115 O122 2.028 . S
O116 C112 1.258 . S
O116 Zn117 2.035 . S
Zn117 O116 2.035 . S
Zn117 O118 2.028 . S
Zn117 O120 2.028 . S
Zn117 O123 2.035 . S
O118 Zn117 2.028 . S
O118 C124 1.247 . S
O119 Zn115 2.035 . S
O119 C124 1.258 . S
O120 C113 1.247 . S
O120 Zn117 2.028 . S
O121 C113 1.258 . S
O121 Zn115 2.035 . S
O122 Zn115 2.028 . S
O122 C125 1.247 . S
O123 Zn117 2.035 . S
O123 C125 1.258 . S
C124 O118 1.247 . S
C124 O119 1.258 . S
C125 O122 1.247 . S
C125 O123 1.258 . S
C126 O128 1.247 . S
C126 O130 1.258 . S
C127 O134 1.247 . S
C127 O135 1.258 . S
O128 C126 1.247 . S
O128 Zn129 2.028 . S
Zn129 O128 2.028 . S
Zn129 O133 2.035 . S
Zn129 O135 2.035 . S
Zn129 O136 2.028 . S
O130 C126 1.258 . S
O130 Zn131 2.035 . S
Zn131 O130 2.035 . S
Zn131 O132 2.028 . S
Zn131 O134 2.028 . S
Zn131 O137 2.035 . S
O132 Zn131 2.028 . S
O132 C138 1.247 . S
O133 Zn129 2.035 . S
O133 C138 1.258 . S
O134 C127 1.247 . S
O134 Zn131 2.028 . S
O135 C127 1.258 . S
O135 Zn129 2.035 . S
O136 Zn129 2.028 . S
O136 C139 1.247 . S
O137 Zn131 2.035 . S
O137 C139 1.258 . S
C138 O132 1.247 . S
C138 O133 1.258 . S
C139 O136 1.247 . S
C139 O137 1.258 . S
C140 O142 1.247 . S
C140 O144 1.258 . S
C141 O148 1.247 . S
C141 O149 1.258 . S
O142 C140 1.247 . S
O142 Zn143 2.028 . S
Zn143 O142 2.028 . S
Zn143 O147 2.035 . S
Zn143 O149 2.035 . S
Zn143 O150 2.028 . S
O144 C140 1.258 . S
O144 Zn145 2.035 . S
Zn145 O144 2.035 . S
Zn145 O146 2.028 . S
Zn145 O148 2.028 . S
Zn145 O151 2.035 . S
O146 Zn145 2.028 . S
O146 C152 1.247 . S
O147 Zn143 2.035 . S
O147 C152 1.258 . S
O148 C141 1.247 . S
O148 Zn145 2.028 . S
O149 C141 1.258 . S
O149 Zn143 2.035 . S
O150 Zn143 2.028 . S
O150 C153 1.247 . S
O151 Zn145 2.035 . S
O151 C153 1.258 . S
C152 O146 1.247 . S
C152 O147 1.258 . S
C153 O150 1.247 . S
C153 O151 1.258 . S
C154 O156 1.247 . S
C154 O158 1.258 . S
C155 O162 1.247 . S
C155 O163 1.258 . S
O156 C154 1.247 . S
O156 Zn157 2.028 . S
Zn157 O156 2.028 . S
Zn157 O161 2.035 . S
Zn157 O163 2.035 . S
Zn157 O164 2.028 . S
O158 C154 1.258 . S
O158 Zn159 2.035 . S
Zn159 O158 2.035 . S
Zn159 O160 2.028 . S
Zn159 O162 2.028 . S
Zn159 O165 2.035 . S
O160 Zn159 2.028 . S
O160 C166 1.247 . S
O161 Zn157 2.035 . S
O161 C166 1.258 . S
O162 C155 1.247 . S
O162 Zn159 2.028 . S
O163 C155 1.258 . S
O163 Zn157 2.035 . S
O164 Zn157 2.028 . S
O164 C167 1.247 . S
O165 Zn159 2.035 . S
O165 C167 1.258 . S
C166 O160 1.247 . S
C166 O161 1.258 . S
C167 O164 1.247 . S
C167 O165 1.258 . S
C168 O170 1.247 . S
C168 O172 1.258 . S
C169 O176 1.247 . S
C169 O177 1.258 . S
O170 C168 1.247 . S
O170 Zn171 2.028 . S
Zn171 O170 2.028 . S
Zn171 O175 2.035 . S
Zn171 O177 2.035 . S
Zn171 O178 2.028 . S
O172 C168 1.258 . S
O172 Zn173 2.035 . S
Zn173 O172 2.035 . S
Zn173 O174 2.028 . S
Zn173 O176 2.028 . S
Zn173 O179 2.035 . S
O174 Zn173 2.028 . S
O174 C180 1.247 . S
O175 Zn171 2.035 . S
O175 C180 1.258 . S
O176 C169 1.247 . S
O176 Zn173 2.028 . S
O177 C169 1.258 . S
O177 Zn171 2.035 . S
O178 Zn171 2.028 . S
O178 C181 1.247 . S
O179 Zn173 2.035 . S
O179 C181 1.258 . S
C180 O174 1.247 . S
C180 O175 1.258 . S
C181 O178 1.247 . S
C181 O179 1.258 . S
C182 O184 1.247 . S
C182 O186 1.258 . S
C183 O190 1.247 . S
C183 O191 1.258 . S
O184 C182 1.247 . S
O184 Zn185 2.028 . S
Zn185 O184 2.028 . S
Zn185 O189 2.035 . S
Zn185 O191 2.035 . S
Zn185 O192 2.028 . S
O186 C182 1.258 . S
O186 Zn187 2.035 . S
Zn187 O186 2.035 . S
Zn187 O188 2.028 . S
Zn187 O190 2.028 . S
Zn187 O193 2.035 . S
O188 Zn187 2.028 . S
O188 C194 1.247 . S
O189 Zn185 2.035 . S
O189 C194 1.258 . S
O190 C183 1.247 . S
O190 Zn187 2.028 . S
O191 C183 1.258 . S
O191 Zn185 2.035 . S
O192 Zn185 2.028 . S
O192 C195 1.247 . S
O193 Zn187 2.035 . S
O193 C195 1.258 . S
C194 O188 1.247 . S
C194 O189 1.258 . S
C195 O192 1.247 . S
C195 O193 1.258 . S
C196 O198 1.247 . S
C196 O200 1.258 . S
C197 O204 1.247 . S
C197 O205 1.258 . S
O198 C196 1.247 . S
O198 Zn199 2.028 . S
Zn199 O198 2.028 . S
Zn199 O203 2.035 . S
Zn199 O205 2.035 . S
Zn199 O206 2.028 . S
O200 C196 1.258 . S
O200 Zn201 2.035 . S
Zn201 O200 2.035 . S
Zn201 O202 2.028 . S
Zn201 O204 2.028 . S
Zn201 O207 2.035 . S
O202 Zn201 2.028 . S
O202 C208 1.247 . S
O203 Zn199 2.035 . S
O203 C208 1.258 . S
O204 C197 1.247 . S
O204 Zn201 2.028 . S
O205 C197 1.258 . S
O205 Zn199 2.035 . S
O206 Zn199 2.028 . S
O206 C209 1.247 . S
O207 Zn201 2.035 . S
O207 C209 1.258 . S
C208 O202 1.247 . S
C208 O203 1.258 . S
C209 O206 1.247 . S
C209 O207 1.258 . S
C210 O212 1.247 . S
C210 O214 1.258 . S
C211 O218 1.247 . S
C211 O219 1.258 . S
O212 C210 1.247 . S
O212 Zn213 2.028 . S
Zn213 O212 2.028 . S
Zn213 O217 2.035 . S
Zn213 O219 2.035 . S
Zn213 O220 2.028 . S
O214 C210 1.258 . S
O214 Zn215 2.035 . S
Zn215 O214 2.035 . S
Zn215 O216 2.028 . S
Zn215 O218 2.028 . S
Zn215 O221 2.035 . S
O216 Zn215 2.028 . S
O216 C222 1.247 . S
O217 Zn213 2.035 . S
O217 C222 1.258 . S
O218 C211 1.247 . S
O218 Zn215 2.028 . S
O219 C211 1.258 . S
O219 Zn213 2.035 . S
O220 Zn213 2.028 . S
O220 C223 1.247 . S
O221 Zn215 2.035 . S
O221 C223 1.258 . S
C222 O216 1.247 . S
C222 O217 1.258 . S
C223 O220 1.247 . S
C223 O221 1.258 . S
C224 O226 1.247 . S
C224 O228 1.258 . S
C225 O232 1.247 . S
C225 O233 1.258 . S
O226 C224 1.247 . S
O226 Zn227 2.028 . S
Zn227 O226 2.028 . S
Zn227 O231 2.035 . S
Zn227 O233 2.035 . S
Zn227 O234 2.028 . S
O228 C224 1.258 . S
O228 Zn229 2.035 . S
Zn229 O228 2.035 . S
Zn229 O230 2.028 . S
Zn229 O232 2.028 . S
Zn229 O235 2.035 . S
O230 Zn229 2.028 . S
O230 C236 1.247 . S
O231 Zn227 2.035 . S
O231 C236 1.258 . S
O232 C225 1.247 . S
O232 Zn229 2.028 . S
O233 C225 1.258 . S
O233 Zn227 2.035 . S
O234 Zn227 2.028 . S
O234 C237 1.247 . S
O235 Zn229 2.035 . S
O235 C237 1.258 . S
C236 O230 1.247 . S
C236 O231 1.258 . S
C237 O234 1.247 . S
C237 O235 1.258 . S
C238 O240 1.247 . S
C238 O242 1.258 . S
C239 O246 1.247 . S
C239 O247 1.258 . S
O240 C238 1.247 . S
O240 Zn241 2.028 . S
Zn241 O240 2.028 . S
Zn241 O245 2.035 . S
Zn241 O247 2.035 . S
Zn241 O248 2.028 . S
O242 C238 1.258 . S
O242 Zn243 2.035 . S
Zn243 O242 2.035 . S
Zn243 O244 2.028 . S
Zn243 O246 2.028 . S
Zn243 O249 2.035 . S
O244 Zn243 2.028 . S
O244 C250 1.247 . S
O245 Zn241 2.035 . S
O245 C250 1.258 . S
O246 C239 1.247 . S
O246 Zn243 2.028 . S
O247 C239 1.258 . S
O247 Zn241 2.035 . S
O248 Zn241 2.028 . S
O248 C251 1.247 . S
O249 Zn243 2.035 . S
O249 C251 1.258 . S
C250 O244 1.247 . S
C250 O245 1.258 . S
C251 O248 1.247 . S
C251 O249 1.258 . S
C252 O254 1.247 . S
C252 O256 1.258 . S
C253 O260 1.247 . S
C253 O261 1.258 . S
O254 C252 1.247 . S
O254 Zn255 2.028 . S
Zn255 O254 2.028 . S
Zn255 O259 2.035 . S
Zn255 O261 2.035 . S
Zn255 O262 2.028 . S
O256 C252 1.258 . S
O256 Zn257 2.035 . S
Zn257 O256 2.035 . S
Zn257 O258 2.028 . S
Zn257 O260 2.028 . S
Zn257 O263 2.035 . S
O258 Zn257 2.028 . S
O258 C264 1.247 . S
O259 Zn255 2.035 . S
O259 C264 1.258 . S
O260 C253 1.247 . S
O260 Zn257 2.028 . S
O261 C253 1.258 . S
O261 Zn255 2.035 . S
O262 Zn255 2.028 . S
O262 C265 1.247 . S
O263 Zn257 2.035 . S
O263 C265 1.258 . S
C264 O258 1.247 . S
C264 O259 1.258 . S
C265 O262 1.247 . S
C265 O263 1.258 . S
C266 O268 1.247 . S
C266 O270 1.258 . S
C267 O274 1.247 . S
C267 O275 1.258 . S
O268 C266 1.247 . S
O268 Zn269 2.028 . S
Zn269 O268 2.028 . S
Zn269 O273 2.035 . S
Zn269 O275 2.035 . S
Zn269 O276 2.028 . S
O270 C266 1.258 . S
O270 Zn271 2.035 . S
Zn271 O270 2.035 . S
Zn271 O272 2.028 . S
Zn271 O274 2.028 . S
Zn271 O277 2.035 . S
O272 Zn271 2.028 . S
O272 C278 1.247 . S
O273 Zn269 2.035 . S
O273 C278 1.258 . S
O274 C267 1.247 . S
O274 Zn271 2.028 . S
O275 C267 1.258 . S
O275 Zn269 2.035 . S
O276 Zn269 2.028 . S
O276 C279 1.247 . S
O277 Zn271 2.035 . S
O277 C279 1.258 . S
C278 O272 1.247 . S
C278 O273 1.258 . S
C279 O276 1.247 . S
C279 O277 1.258 . S
C280 O282 1.247 . S
C280 O284 1.258 . S
C281 O288 1.247 . S
C281 O289 1.258 . S
O282 C280 1.247 . S
O282 Zn283 2.028 . S
Zn283 O282 2.028 . S
Zn283 O287 2.035 . S
Zn283 O289 2.035 . S
Zn283 O290 2.028 . S
O284 C280 1.258 . S
O284 Zn285 2.035 . S
Zn285 O284 2.035 . S
Zn285 O286 2.028 . S
Zn285 O288 2.028 . S
Zn285 O291 2.035 . S
O286 Zn285 2.028 . S
O286 C292 1.247 . S
O287 Zn283 2.035 . S
O287 C292 1.258 . S
O288 C281 1.247 . S
O288 Zn285 2.028 . S
O289 C281 1.258 . S
O289 Zn283 2.035 . S
O290 Zn283 2.028 . S
O290 C293 1.247 . S
O291 Zn285 2.035 . S
O291 C293 1.258 . S
C292 O286 1.247 . S
C292 O287 1.258 . S
C293 O290 1.247 . S
C293 O291 1.258 . S
C294 O296 1.247 . S
C294 O298 1.258 . S
C295 O302 1.247 . S
C295 O303 1.258 . S
O296 C294 1.247 . S
O296 Zn297 2.028 . S
Zn297 O296 2.028 . S
Zn297 O301 2.035 . S
Zn297 O303 2.035 . S
Zn297 O304 2.028 . S
O298 C294 1.258 . S
O298 Zn299 2.035 . S
Zn299 O298 2.035 . S
Zn299 O300 2.028 . S
Zn299 O302 2.028 . S
Zn299 O305 2.035 . S
O300 Zn299 2.028 . S
O300 C306 1.247 . S
O301 Zn297 2.035 . S
O301 C306 1.258 . S
O302 C295 1.247 . S
O302 Zn299 2.028 . S
O303 C295 1.258 . S
O303 Zn297 2.035 . S
O304 Zn297 2.028 . S
O304 C307 1.247 . S
O305 Zn299 2.035 . S
O305 C307 1.258 . S
C306 O300 1.247 . S
C306 O301 1.258 . S
C307 O304 1.247 . S
C307 O305 1.258 . S
C308 O310 1.247 . S
C308 O312 1.258 . S
C309 O316 1.247 . S
C309 O317 1.258 . S
O310 C308 1.247 . S
O310 Zn311 2.028 . S
Zn311 O310 2.028 . S
Zn311 O315 2.035 . S
Zn311 O317 2.035 . S
Zn311 O318 2.028 . S
O312 C308 1.258 . S
O312 Zn313 2.035 . S
Zn313 O312 2.035 . S
Zn313 O314 2.028 . S
Zn313 O316 2.028 . S
Zn313 O319 2.035 . S
O314 Zn313 2.028 . S
O314 C320 1.247 . S
O315 Zn311 2.035 . S
O315 C320 1.258 . S
O316 C309 1.247 . S
O316 Zn313 2.028 . S
O317 C309 1.258 . S
O317 Zn311 2.035 . S
O318 Zn311 2.028 . S
O318 C321 1.247 . S
O319 Zn313 2.035 . S
O319 C321 1.258 . S
C320 O314 1.247 . S
C320 O315 1.258 . S
C321 O318 1.247 . S
C321 O319 1.258 . S
C322 O324 1.247 . S
C322 O326 1.258 . S
C323 O330 1.247 . S
C323 O331 1.258 . S
O324 C322 1.247 . S
O324 Zn325 2.028 . S
Zn325 O324 2.028 . S
Zn325 O329 2.035 . S
Zn325 O331 2.035 . S
Zn325 O332 2.028 . S
O326 C322 1.258 . S
O326 Zn327 2.035 . S
Zn327 O326 2.035 . S
Zn327 O328 2.028 . S
Zn327 O330 2.028 . S
Zn327 O333 2.035 . S
O328 Zn327 2.028 . S
O328 C334 1.247 . S
O329 Zn325 2.035 . S
O329 C334 1.258 . S
O330 C323 1.247 . S
O330 Zn327 2.028 . S
O331 C323 1.258 . S
O331 Zn325 2.035 . S
O332 Zn325 2.028 . S
O332 C335 1.247 . S
O333 Zn327 2.035 . S
O333 C335 1.258 . S
C334 O328 1.247 . S
C334 O329 1.258 . S
C335 O332 1.247 . S
C335 O333 1.258 . S
C336 O338 1.247 . S
C336 O340 1.258 . S
C337 O344 1.247 . S
C337 O345 1.258 . S
O338 C336 1.247 . S
O338 Zn339 2.028 . S
Zn339 O338 2.028 . S
Zn339 O343 2.035 . S
Zn339 O345 2.035 . S
Zn339 O346 2.028 . S
O340 C336 1.258 . S
O340 Zn341 2.035 . S
Zn341 O340 2.035 . S
Zn341 O342 2.028 . S
Zn341 O344 2.028 . S
Zn341 O347 2.035 . S
O342 Zn341 2.028 . S
O342 C348 1.247 . S
O343 Zn339 2.035 . S
O343 C348 1.258 . S
O344 C337 1.247 . S
O344 Zn341 2.028 . S
O345 C337 1.258 . S
O345 Zn339 2.035 . S
O346 Zn339 2.028 . S
O346 C349 1.247 . S
O347 Zn341 2.035 . S
O347 C349 1.258 . S
C348 O342 1.247 . S
C348 O343 1.258 . S
C349 O346 1.247 . S
C349 O347 1.258 . S
C350 O352 1.247 . S
C350 O354 1.258 . S
C351 O358 1.247 . S
C351 O359 1.258 . S
O352 C350 1.247 . S
O352 Zn353 2.028 . S
Zn353 O352 2.028 . S
Zn353 O357 2.035 . S
Zn353 O359 2.035 . S
Zn353 O360 2.028 . S
O354 C350 1.258 . S
O354 Zn355 2.035 . S
Zn355 O354 2.035 . S
Zn355 O356 2.028 . S
Zn355 O358 2.028 . S
Zn355 O361 2.035 . S
O356 Zn355 2.028 . S
O356 C362 1.247 . S
O357 Zn353 2.035 . S
O357 C362 1.258 . S
O358 C351 1.247 . S
O358 Zn355 2.028 . S
O359 C351 1.258 . S
O359 Zn353 2.035 . S
O360 Zn353 2.028 . S
O360 C363 1.247 . S
O361 Zn355 2.035 . S
O361 C363 1.258 . S
C362 O356 1.247 . S
C362 O357 1.258 . S
C363 O360 1.247 . S
C363 O361 1.258 . S
C364 O366 1.247 . S
C364 O368 1.258 . S
C365 O372 1.247 . S
C365 O373 1.258 . S
O366 C364 1.247 . S
O366 Zn367 2.028 . S
Zn367 O366 2.028 . S
Zn367 O371 2.035 . S
Zn367 O373 2.035 . S
Zn367 O374 2.028 . S
O368 C364 1.258 . S
O368 Zn369 2.035 . S
Zn369 O368 2.035 . S
Zn369 O370 2.028 . S
Zn369 O372 2.028 . S
Zn369 O375 2.035 . S
O370 Zn369 2.028 . S
O370 C376 1.247 . S
O371 Zn367 2.035 . S
O371 C376 1.258 . S
O372 C365 1.247 . S
O372 Zn369 2.028 . S
O373 C365 1.258 . S
O373 Zn367 2.035 . S
O374 Zn367 2.028 . S
O374 C377 1.247 . S
O375 Zn369 2.035 . S
O375 C377 1.258 . S
C376 O370 1.247 . S
C376 O371 1.258 . S
C377 O374 1.247 . S
C377 O375 1.258 . S
C378 O380 1.247 . S
C378 O382 1.258 . S
C379 O386 1.247 . S
C379 O387 1.258 . S
O380 C378 1.247 . S
O380 Zn381 2.028 . S
Zn381 O380 2.028 . S
Zn381 O385 2.035 . S
Zn381 O387 2.035 . S
Zn381 O388 2.028 . S
O382 C378 1.258 . S
O382 Zn383 2.035 . S
Zn383 O382 2.035 . S
Zn383 O384 2.028 . S
Zn383 O386 2.028 . S
Zn383 O389 2.035 . S
O384 Zn383 2.028 . S
O384 C390 1.247 . S
O385 Zn381 2.035 . S
O385 C390 1.258 . S
O386 C379 1.247 . S
O386 Zn383 2.028 . S
O387 C379 1.258 . S
O387 Zn381 2.035 . S
O388 Zn381 2.028 . S
O388 C391 1.247 . S
O389 Zn383 2.035 . S
O389 C391 1.258 . S
C390 O384 1.247 . S
C390 O385 1.258 . S
C391 O388 1.247 . S
C391 O389 1.258 . S
C392 O394 1.247 . S
C392 O396 1.258 . S
C393 O400 1.247 . S
C393 O401 1.258 . S
O394 C392 1.247 . S
O394 Zn395 2.028 . S
Zn395 O394 2.028 . S
Zn395 O399 2.035 . S
Zn395 O401 2.035 . S
Zn395 O402 2.028 . S
O396 C392 1.258 . S
O396 Zn397 2.035 . S
Zn397 O396 2.035 . S
Zn397 O398 2.028 . S
Zn397 O400 2.028 . S
Zn397 O403 2.035 . S
O398 Zn397 2.028 . S
O398 C404 1.247 . S
O399 Zn395 2.035 . S
O399 C404 1.258 . S
O400 C393 1.247 . S
O400 Zn397 2.028 . S
O401 C393 1.258 . S
O401 Zn395 2.035 . S
O402 Zn395 2.028 . S
O402 C405 1.247 . S
O403 Zn397 2.035 . S
O403 C405 1.258 . S
C404 O398 1.247 . S
C404 O399 1.258 . S
C405 O402 1.247 . S
C405 O403 1.258 . S
C406 O408 1.247 . S
C406 O410 1.258 . S
C407 O414 1.247 . S
C407 O415 1.258 . S
O408 C406 1.247 . S
O408 Zn409 2.028 . S
Zn409 O408 2.028 . S
Zn409 O413 2.035 . S
Zn409 O415 2.035 . S
Zn409 O416 2.028 . S
O410 C406 1.258 . S
O410 Zn411 2.035 . S
Zn411 O410 2.035 . S
Zn411 O412 2.028 . S
Zn411 O414 2.028 . S
Zn411 O417 2.035 . S
O412 Zn411 2.028 . S
O412 C418 1.247 . S
O413 Zn409 2.035 . S
O413 C418 1.258 . S
O414 C407 1.247 . S
O414 Zn411 2.028 . S
O415 C407 1.258 . S
O415 Zn409 2.035 . S
O416 Zn409 2.028 . S
O416 C419 1.247 . S
O417 Zn411 2.035 . S
O417 C419 1.258 . S
C418 O412 1.247 . S
C418 O413 1.258 . S
C419 O416 1.247 . S
C419 O417 1.258 . S
C420 O422 1.247 . S
C420 O424 1.258 . S
C421 O428 1.247 . S
C421 O429 1.258 . S
O422 C420 1.247 . S
O422 Zn423 2.028 . S
Zn423 O422 2.028 . S
Zn423 O427 2.035 . S
Zn423 O429 2.035 . S
Zn423 O430 2.028 . S
O424 C420 1.258 . S
O424 Zn425 2.035 . S
Zn425 O424 2.035 . S
Zn425 O426 2.028 . S
Zn425 O428 2.028 . S
Zn425 O431 2.035 . S
O426 Zn425 2.028 . S
O426 C432 1.247 . S
O427 Zn423 2.035 . S
O427 C432 1.258 . S
O428 C421 1.247 . S
O428 Zn425 2.028 . S
O429 C421 1.258 . S
O429 Zn423 2.035 . S
O430 Zn423 2.028 . S
O430 C433 1.247 . S
O431 Zn425 2.035 . S
O431 C433 1.258 . S
C432 O426 1.247 . S
C432 O427 1.258 . S
C433 O430 1.247 . S
C433 O431 1.258 . S
C434 O436 1.247 . S
C434 O438 1.258 . S
C435 O442 1.247 . S
C435 O443 1.258 . S
O436 C434 1.247 . S
O436 Zn437 2.028 . S
Zn437 O436 2.028 . S
Zn437 O441 2.035 . S
Zn437 O443 2.035 . S
Zn437 O444 2.028 . S
O438 C434 1.258 . S
O438 Zn439 2.035 . S
Zn439 O438 2.035 . S
Zn439 O440 2.028 . S
Zn439 O442 2.028 . S
Zn439 O445 2.035 . S
O440 Zn439 2.028 . S
O440 C446 1.247 . S
O441 Zn437 2.035 . S
O441 C446 1.258 . S
O442 C435 1.247 . S
O442 Zn439 2.028 . S
O443 C435 1.258 . S
O443 Zn437 2.035 . S
O444 Zn437 2.028 . S
O444 C447 1.247 . S
O445 Zn439 2.035 . S
O445 C447 1.258 . S
C446 O440 1.247 . S
C446 O441 1.258 . S
C447 O444 1.247 . S
C447 O445 1.258 . S
C448 O450 1.247 . S
C448 O452 1.258 . S
C449 O456 1.247 . S
C449 O457 1.258 . S
O450 C448 1.247 . S
O450 Zn451 2.028 . S
Zn451 O450 2.028 . S
Zn451 O455 2.035 . S
Zn451 O457 2.035 . S
Zn451 O458 2.028 . S
O452 C448 1.258 . S
O452 Zn453 2.035 . S
Zn453 O452 2.035 . S
Zn453 O454 2.028 . S
Zn453 O456 2.028 . S
Zn453 O459 2.035 . S
O454 Zn453 2.028 . S
O454 C460 1.247 . S
O455 Zn451 2.035 . S
O455 C460 1.258 . S
O456 C449 1.247 . S
O456 Zn453 2.028 . S
O457 C449 1.258 . S
O457 Zn451 2.035 . S
O458 Zn451 2.028 . S
O458 C461 1.247 . S
O459 Zn453 2.035 . S
O459 C461 1.258 . S
C460 O454 1.247 . S
C460 O455 1.258 . S
C461 O458 1.247 . S
C461 O459 1.258 . S
C462 O464 1.247 . S
C462 O466 1.258 . S
C463 O470 1.247 . S
C463 O471 1.258 . S
O464 C462 1.247 . S
O464 Zn465 2.028 . S
Zn465 O464 2.028 . S
Zn465 O469 2.035 . S
Zn465 O471 2.035 . S
Zn465 O472 2.028 . S
O466 C462 1.258 . S
O466 Zn467 2.035 . S
Zn467 O466 2.035 . S
Zn467 O468 2.028 . S
Zn467 O470 2.028 . S
Zn467 O473 2.035 . S
O468 Zn467 2.028 . S
O468 C474 1.247 . S
O469 Zn465 2.035 . S
O469 C474 1.258 . S
O470 C463 1.247 . S
O470 Zn467 2.028 . S
O471 C463 1.258 . S
O471 Zn465 2.035 . S
O472 Zn465 2.028 . S
O472 C475 1.247 . S
O473 Zn467 2.035 . S
O473 C475 1.258 . S
C474 O468 1.247 . S
C474 O469 1.258 . S
C475 O472 1.247 . S
C475 O473 1.258 . S
C476 O478 1.247 . S
C476 O480 1.258 . S
C477 O484 1.247 . S
C477 O485 1.258 . S
O478 C476 1.247 . S
O478 Zn479 2.028 . S
Zn479 O478 2.028 . S
Zn479 O483 2.035 . S
Zn479 O485 2.035 . S
Zn479 O486 2.028 . S
O480 C476 1.258 . S
O480 Zn481 2.035 . S
Zn481 O480 2.035 . S
Zn481 O482 2.028 . S
Zn481 O484 2.028 . S
Zn481 O487 2.035 . S
O482 Zn481 2.028 . S
O482 C488 1.247 . S
O483 Zn479 2.035 . S
O483 C488 1.258 . S
O484 C477 1.247 . S
O484 Zn481 2.028 . S
O485 C477 1.258 . S
O485 Zn479 2.035 . S
O486 Zn479 2.028 . S
O486 C489 1.247 . S
O487 Zn481 2.035 . S
O487 C489 1.258 . S
C488 O482 1.247 . S
C488 O483 1.258 . S
C489 O486 1.247 . S
C489 O487 1.258 . S
C490 O492 1.247 . S
C490 O494 1.258 . S
C491 O498 1.247 . S
C491 O499 1.258 . S
O492 C490 1.247 . S
O492 Zn493 2.028 . S
Zn493 O492 2.028 . S
Zn493 O497 2.035 . S
Zn493 O499 2.035 . S
Zn493 O500 2.028 . S
O494 C490 1.258 . S
O494 Zn495 2.035 . S
Zn495 O494 2.035 . S
Zn495 O496 2.028 . S
Zn495 O498 2.028 . S
Zn495 O501 2.035 . S
O496 Zn495 2.028 . S
O496 C502 1.247 . S
O497 Zn493 2.035 . S
O497 C502 1.258 . S
O498 C491 1.247 . S
O498 Zn495 2.028 . S
O499 C491 1.258 . S
O499 Zn493 2.035 . S
O500 Zn493 2.028 . S
O500 C503 1.247 . S
O501 Zn495 2.035 . S
O501 C503 1.258 . S
C502 O496 1.247 . S
C502 O497 1.258 . S
C503 O500 1.247 . S
C503 O501 1.258 . S
C504 C505 1.349 . S
C504 C506 1.327 . S
C504 H529 0.950 . S
C505 C504 1.349 . S
C505 C521 1.349 . S
C506 C504 1.327 . S
C506 C525 1.429 . S
C506 H530 0.950 . S
C507 C524 1.574 . S
C507 C526 1.368 . S
C507 H531 0.949 . S
H508 C512 0.949 . S
C509 C510 1.349 . S
C509 C511 1.327 . S
C509 H532 0.950 . S
C510 C509 1.349 . S
C510 C522 1.349 . S
C511 C509 1.327 . S
C511 C527 1.429 . S
C511 H533 0.950 . S
C512 H508 0.949 . S
C512 C520 1.574 . S
C512 C528 1.368 . S
H513 C521 0.950 . S
H514 C519 0.950 . S
H515 C520 0.949 . S
H516 C522 0.950 . S
H517 C523 0.950 . S
H518 C524 0.949 . S
C519 H514 0.950 . S
C519 C521 1.327 . S
C519 C525 1.429 . S
C520 C512 1.574 . S
C520 H515 0.949 . S
C520 C526 1.368 . S
C521 C505 1.349 . S
C521 H513 0.950 . S
C521 C519 1.327 . S
C522 C510 1.349 . S
C522 H516 0.950 . S
C522 C523 1.327 . S
C523 H517 0.950 . S
C523 C522 1.327 . S
C523 C527 1.429 . S
C524 C507 1.574 . S
C524 H518 0.949 . S
C524 C528 1.368 . S
C525 C506 1.429 . S
C525 C519 1.429 . S
C525 C526 1.523 . S
C526 C507 1.368 . S
C526 C520 1.368 . S
C526 C525 1.523 . S
C527 C511 1.429 . S
C527 C523 1.429 . S
C527 C528 1.523 . S
C528 C512 1.368 . S
C528 C524 1.368 . S
C528 C527 1.523 . S
H529 C504 0.950 . S
H530 C506 0.950 . S
H531 C507 0.949 . S
H532 C509 0.950 . S
H533 C511 0.950 . S
C534 C535 1.349 . S
C534 C536 1.327 . S
C534 H559 0.950 . S
C535 C534 1.349 . S
C535 C551 1.349 . S
C536 C534 1.327 . S
C536 C555 1.429 . S
C536 H560 0.950 . S
C537 C554 1.574 . S
C537 C556 1.368 . S
C537 H561 0.949 . S
H538 C542 0.949 . S
C539 C540 1.349 . S
C539 C541 1.327 . S
C539 H562 0.950 . S
C540 C539 1.349 . S
C540 C552 1.349 . S
C541 C539 1.327 . S
C541 C557 1.429 . S
C541 H563 0.950 . S
C542 H538 0.949 . S
C542 C550 1.574 . S
C542 C558 1.368 . S
H543 C551 0.950 . S
H544 C549 0.950 . S
H545 C550 0.949 . S
H546 C552 0.950 . S
H547 C553 0.950 . S
H548 C554 0.949 . S
C549 H544 0.950 . S
C549 C551 1.327 . S
C549 C555 1.429 . S
C550 C542 1.574 . S
C550 H545 0.949 . S
C550 C556 1.368 . S
C551 C535 1.349 . S
C551 H543 0.950 . S
C551 C549 1.327 . S
C552 C540 1.349 . S
C552 H546 0.950 . S
C552 C553 1.327 . S
C553 H547 0.950 . S
C553 C552 1.327 . S
C553 C557 1.429 . S
C554 C537 1.574 . S
C554 H548 0.949 . S
C554 C558 1.368 . S
C555 C536 1.429 . S
C555 C549 1.429 . S
C555 C556 1.523 . S
C556 C537 1.368 . S
C556 C550 1.368 . S
C556 C555 1.523 . S
C557 C541 1.429 . S
C557 C553 1.429 . S
C557 C558 1.523 . S
C558 C542 1.368 . S
C558 C554 1.368 . S
C558 C557 1.523 . S
H559 C534 0.950 . S
H560 C536 0.950 . S
H561 C537 0.949 . S
H562 C539 0.950 . S
H563 C541 0.950 . S
C564 C565 1.349 . S
C564 C566 1.327 . S
C564 H589 0.950 . S
C565 C564 1.349 . S
C565 C581 1.349 . S
C566 C564 1.327 . S
C566 C585 1.429 . S
C566 H590 0.950 . S
C567 C584 1.574 . S
C567 C586 1.368 . S
C567 H591 0.949 . S
H568 C572 0.949 . S
C569 C570 1.349 . S
C569 C571 1.327 . S
C569 H592 0.950 . S
C570 C569 1.349 . S
C570 C582 1.349 . S
C571 C569 1.327 . S
C571 C587 1.429 . S
C571 H593 0.950 . S
C572 H568 0.949 . S
C572 C580 1.574 . S
C572 C588 1.368 . S
H573 C581 0.950 . S
H574 C579 0.950 . S
H575 C580 0.949 . S
H576 C582 0.950 . S
H577 C583 0.950 . S
H578 C584 0.949 . S
C579 H574 0.950 . S
C579 C581 1.327 . S
C579 C585 1.429 . S
C580 C572 1.574 . S
C580 H575 0.949 . S
C580 C586 1.368 . S
C581 C565 1.349 . S
C581 H573 0.950 . S
C581 C579 1.327 . S
C582 C570 1.349 . S
C582 H576 0.950 . S
C582 C583 1.327 . S
C583 H577 0.950 . S
C583 C582 1.327 . S
C583 C587 1.429 . S
C584 C567 1.574 . S
C584 H578 0.949 . S
C584 C588 1.368 . S
C585 C566 1.429 . S
C585 C579 1.429 . S
C585 C586 1.523 . S
C586 C567 1.368 . S
C586 C580 1.368 . S
C586 C585 1.523 . S
C587 C571 1.429 . S
C587 C583 1.429 . S
C587 C588 1.523 . S
C588 C572 1.368 . S
C588 C584 1.368 . S
C588 C587 1.523 . S
H589 C564 0.950 . S
H590 C566 0.950 . S
H591 C567 0.949 . S
H592 C569 0.950 . S
H593 C571 0.950 . S
C594 C595 1.349 . S
C594 C596 1.327 . S
C594 H619 0.950 . S
C595 C594 1.349 . S
C595 C611 1.349 . S
C596 C594 1.327 . S
C596 C615 1.429 . S
C596 H620 0.950 . S
C597 C614 1.574 . S
C597 C616 1.368 . S
C597 H621 0.949 . S
H598 C602 0.949 . S
C599 C600 1.349 . S
C599 C601 1.327 . S
C599 H622 0.950 . S
C600 C599 1.349 . S
C600 C612 1.349 . S
C601 C599 1.327 . S
C601 C617 1.429 . S
C601 H623 0.950 . S
C602 H598 0.949 . S
C602 C610 1.574 . S
C602 C618 1.368 . S
H603 C611 0.950 . S
H604 C609 0.950 . S
H605 C610 0.949 . S
H606 C612 0.950 . S
H607 C613 0.950 . S
H608 C614 0.949 . S
C609 H604 0.950 . S
C609 C611 1.327 . S
C609 C615 1.429 . S
C610 C602 1.574 . S
C610 H605 0.949 . S
C610 C616 1.368 . S
C611 C595 1.349 . S
C611 H603 0.950 . S
C611 C609 1.327 . S
C612 C600 1.349 . S
C612 H606 0.950 . S
C612 C613 1.327 . S
C613 H607 0.950 . S
C613 C612 1.327 . S
C613 C617 1.429 . S
C614 C597 1.574 . S
C614 H608 0.949 . S
C614 C618 1.368 . S
C615 C596 1.429 . S
C615 C609 1.429 . S
C615 C616 1.523 . S
C616 C597 1.368 . S
C616 C610 1.368 . S
C616 C615 1.523 . S
C617 C601 1.429 . S
C617 C613 1.429 . S
C617 C618 1.523 . S
C618 C602 1.368 . S
C618 C614 1.368 . S
C618 C617 1.523 . S
H619 C594 0.950 . S
H620 C596 0.950 . S
H621 C597 0.949 . S
H622 C599 0.950 . S
H623 C601 0.950 . S
C624 C625 1.349 . S
C624 C626 1.327 . S
C624 H649 0.950 . S
C625 C624 1.349 . S
C625 C641 1.349 . S
C626 C624 1.327 . S
C626 C645 1.429 . S
C626 H650 0.950 . S
C627 C644 1.574 . S
C627 C646 1.368 . S
C627 H651 0.949 . S
H628 C632 0.949 . S
C629 C630 1.349 . S
C629 C631 1.327 . S
C629 H652 0.950 . S
C630 C629 1.349 . S
C630 C642 1.349 . S
C631 C629 1.327 . S
C631 C647 1.429 . S
C631 H653 0.950 . S
C632 H628 0.949 . S
C632 C640 1.574 . S
C632 C648 1.368 . S
H633 C641 0.950 . S
H634 C639 0.950 . S
H635 C640 0.949 . S
H636 C642 0.950 . S
H637 C643 0.950 . S
H638 C644 0.949 . S
C639 H634 0.950 . S
C639 C641 1.327 . S
C639 C645 1.429 . S
C640 C632 1.574 . S
C640 H635 0.949 . S
C640 C646 1.368 . S
C641 C625 1.349 . S
C641 H633 0.950 . S
C641 C639 1.327 . S
C642 C630 1.349 . S
C642 H636 0.950 . S
C642 C643 1.327 . S
C643 H637 0.950 . S
C643 C642 1.327 . S
C643 C647 1.429 . S
C644 C627 1.574 . S
C644 H638 0.949 . S
C644 C648 1.368 . S
C645 C626 1.429 . S
C645 C639 1.429 . S
C645 C646 1.523 . S
C646 C627 1.368 . S
C646 C640 1.368 . S
C646 C645 1.523 . S
C647 C631 1.429 . S
C647 C643 1.429 . S
C647 C648 1.523 . S
C648 C632 1.368 . S
C648 C644 1.368 . S
C648 C647 1.523 . S
H649 C624 0.950 . S
H650 C626 0.950 . S
H651 C627 0.949 . S
H652 C629 0.950 . S
H653 C631 0.950 . S
C654 C655 1.349 . S
C654 C656 1.327 . S
C654 H679 0.950 . S
C655 C654 1.349 . S
C655 C671 1.349 . S
C656 C654 1.327 . S
C656 C675 1.429 . S
C656 H680 0.950 . S
C657 C674 1.574 . S
C657 C676 1.368 . S
C657 H681 0.949 . S
H658 C662 0.949 . S
C659 C660 1.349 . S
C659 C661 1.327 . S
C659 H682 0.950 . S
C660 C659 1.349 . S
C660 C672 1.349 . S
C661 C659 1.327 . S
C661 C677 1.429 . S
C661 H683 0.950 . S
C662 H658 0.949 . S
C662 C670 1.574 . S
C662 C678 1.368 . S
H663 C671 0.950 . S
H664 C669 0.950 . S
H665 C670 0.949 . S
H666 C672 0.950 . S
H667 C673 0.950 . S
H668 C674 0.949 . S
C669 H664 0.950 . S
C669 C671 1.327 . S
C669 C675 1.429 . S
C670 C662 1.574 . S
C670 H665 0.949 . S
C670 C676 1.368 . S
C671 C655 1.349 . S
C671 H663 0.950 . S
C671 C669 1.327 . S
C672 C660 1.349 . S
C672 H666 0.950 . S
C672 C673 1.327 . S
C673 H667 0.950 . S
C673 C672 1.327 . S
C673 C677 1.429 . S
C674 C657 1.574 . S
C674 H668 0.949 . S
C674 C678 1.368 . S
C675 C656 1.429 . S
C675 C669 1.429 . S
C675 C676 1.523 . S
C676 C657 1.368 . S
C676 C670 1.368 . S
C676 C675 1.523 . S
C677 C661 1.429 . S
C677 C673 1.429 . S
C677 C678 1.523 . S
C678 C662 1.368 . S
C678 C674 1.368 . S
C678 C677 1.523 . S
H679 C654 0.950 . S
H680 C656 0.950 . S
H681 C657 0.949 . S
H682 C659 0.950 . S
H683 C661 0.950 . S
C684 C685 1.349 . S
C684 C686 1.327 . S
C684 H709 0.950 . S
C685 C684 1.349 . S
C685 C701 1.349 . S
C686 C684 1.327 . S
C686 C705 1.429 . S
C686 H710 0.950 . S
C687 C704 1.574 . S
C687 C706 1.368 . S
C687 H711 0.949 . S
H688 C692 0.949 . S
C689 C690 1.349 . S
C689 C691 1.327 . S
C689 H712 0.950 . S
C690 C689 1.349 . S
C690 C702 1.349 . S
C691 C689 1.327 . S
C691 C707 1.429 . S
C691 H713 0.950 . S
C692 H688 0.949 . S
C692 C700 1.574 . S
C692 C708 1.368 . S
H693 C701 0.950 . S
H694 C699 0.950 . S
H695 C700 0.949 . S
H696 C702 0.950 . S
H697 C703 0.950 . S
H698 C704 0.949 . S
C699 H694 0.950 . S
C699 C701 1.327 . S
C699 C705 1.429 . S
C700 C692 1.574 . S
C700 H695 0.949 . S
C700 C706 1.368 . S
C701 C685 1.349 . S
C701 H693 0.950 . S
C701 C699 1.327 . S
C702 C690 1.349 . S
C702 H696 0.950 . S
C702 C703 1.327 . S
C703 H697 0.950 . S
C703 C702 1.327 . S
C703 C707 1.429 . S
C704 C687 1.574 . S
C704 H698 0.949 . S
C704 C708 1.368 . S
C705 C686 1.429 . S
C705 C699 1.429 . S
C705 C706 1.523 . S
C706 C687 1.368 . S
C706 C700 1.368 . S
C706 C705 1.523 . S
C707 C691 1.429 . S
C707 C703 1.429 . S
C707 C708 1.523 . S
C708 C692 1.368 . S
C708 C704 1.368 . S
C708 C707 1.523 . S
H709 C684 0.950 . S
H710 C686 0.950 . S
H711 C687 0.949 . S
H712 C689 0.950 . S
H713 C691 0.950 . S
C714 C715 1.349 . S
C714 C716 1.327 . S
C714 H739 0.950 . S
C715 C714 1.349 . S
C715 C731 1.349 . S
C716 C714 1.327 . S
C716 C735 1.429 . S
C716 H740 0.950 . S
C717 C734 1.574 . S
C717 C736 1.368 . S
C717 H741 0.949 . S
H718 C722 0.949 . S
C719 C720 1.349 . S
C719 C721 1.327 . S
C719 H742 0.950 . S
C720 C719 1.349 . S
C720 C732 1.349 . S
C721 C719 1.327 . S
C721 C737 1.429 . S
C721 H743 0.950 . S
C722 H718 0.949 . S
C722 C730 1.574 . S
C722 C738 1.368 . S
H723 C731 0.950 . S
H724 C729 0.950 . S
H725 C730 0.949 . S
H726 C732 0.950 . S
H727 C733 0.950 . S
H728 C734 0.949 . S
C729 H724 0.950 . S
C729 C731 1.327 . S
C729 C735 1.429 . S
C730 C722 1.574 . S
C730 H725 0.949 . S
C730 C736 1.368 . S
C731 C715 1.349 . S
C731 H723 0.950 . S
C731 C729 1.327 . S
C732 C720 1.349 . S
C732 H726 0.950 . S
C732 C733 1.327 . S
C733 H727 0.950 . S
C733 C732 1.327 . S
C733 C737 1.429 . S
C734 C717 1.574 . S
C734 H728 0.949 . S
C734 C738 1.368 . S
C735 C716 1.429 . S
C735 C729 1.429 . S
C735 C736 1.523 . S
C736 C717 1.368 . S
C736 C730 1.368 . S
C736 C735 1.523 . S
C737 C721 1.429 . S
C737 C733 1.429 . S
C737 C738 1.523 . S
C738 C722 1.368 . S
C738 C734 1.368 . S
C738 C737 1.523 . S
H739 C714 0.950 . S
H740 C716 0.950 . S
H741 C717 0.949 . S
H742 C719 0.950 . S
H743 C721 0.950 . S
C744 C745 1.349 . S
C744 C746 1.327 . S
C744 H769 0.950 . S
C745 C744 1.349 . S
C745 C761 1.349 . S
C746 C744 1.327 . S
C746 C765 1.429 . S
C746 H770 0.950 . S
C747 C764 1.574 . S
C747 C766 1.368 . S
C747 H771 0.949 . S
H748 C752 0.949 . S
C749 C750 1.349 . S
C749 C751 1.327 . S
C749 H772 0.950 . S
C750 C749 1.349 . S
C750 C762 1.349 . S
C751 C749 1.327 . S
C751 C767 1.429 . S
C751 H773 0.950 . S
C752 H748 0.949 . S
C752 C760 1.574 . S
C752 C768 1.368 . S
H753 C761 0.950 . S
H754 C759 0.950 . S
H755 C760 0.949 . S
H756 C762 0.950 . S
H757 C763 0.950 . S
H758 C764 0.949 . S
C759 H754 0.950 . S
C759 C761 1.327 . S
C759 C765 1.429 . S
C760 C752 1.574 . S
C760 H755 0.949 . S
C760 C766 1.368 . S
C761 C745 1.349 . S
C761 H753 0.950 . S
C761 C759 1.327 . S
C762 C750 1.349 . S
C762 H756 0.950 . S
C762 C763 1.327 . S
C763 H757 0.950 . S
C763 C762 1.327 . S
C763 C767 1.429 . S
C764 C747 1.574 . S
C764 H758 0.949 . S
C764 C768 1.368 . S
C765 C746 1.429 . S
C765 C759 1.429 . S
C765 C766 1.523 . S
C766 C747 1.368 . S
C766 C760 1.368 . S
C766 C765 1.523 . S
C767 C751 1.429 . S
C767 C763 1.429 . S
C767 C768 1.523 . S
C768 C752 1.368 . S
C768 C764 1.368 . S
C768 C767 1.523 . S
H769 C744 0.950 . S
H770 C746 0.950 . S
H771 C747 0.949 . S
H772 C749 0.950 . S
H773 C751 0.950 . S
C774 C775 1.349 . S
C774 C776 1.327 . S
C774 H799 0.950 . S
C775 C774 1.349 . S
C775 C791 1.349 . S
C776 C774 1.327 . S
C776 C795 1.429 . S
C776 H800 0.950 . S
C777 C794 1.574 . S
C777 C796 1.368 . S
C777 H801 0.949 . S
H778 C782 0.949 . S
C779 C780 1.349 . S
C779 C781 1.327 . S
C779 H802 0.950 . S
C780 C779 1.349 . S
C780 C792 1.349 . S
C781 C779 1.327 . S
C781 C797 1.429 . S
C781 H803 0.950 . S
C782 H778 0.949 . S
C782 C790 1.574 . S
C782 C798 1.368 . S
H783 C791 0.950 . S
H784 C789 0.950 . S
H785 C790 0.949 . S
H786 C792 0.950 . S
H787 C793 0.950 . S
H788 C794 0.949 . S
C789 H784 0.950 . S
C789 C791 1.327 . S
C789 C795 1.429 . S
C790 C782 1.574 . S
C790 H785 0.949 . S
C790 C796 1.368 . S
C791 C775 1.349 . S
C791 H783 0.950 . S
C791 C789 1.327 . S
C792 C780 1.349 . S
C792 H786 0.950 . S
C792 C793 1.327 . S
C793 H787 0.950 . S
C793 C792 1.327 . S
C793 C797 1.429 . S
C794 C777 1.574 . S
C794 H788 0.949 . S
C794 C798 1.368 . S
C795 C776 1.429 . S
C795 C789 1.429 . S
C795 C796 1.523 . S
C796 C777 1.368 . S
C796 C790 1.368 . S
C796 C795 1.523 . S
C797 C781 1.429 . S
C797 C793 1.429 . S
C797 C798 1.523 . S
C798 C782 1.368 . S
C798 C794 1.368 . S
C798 C797 1.523 . S
H799 C774 0.950 . S
H800 C776 0.950 . S
H801 C777 0.949 . S
H802 C779 0.950 . S
H803 C781 0.950 . S
C804 C805 1.349 . S
C804 C806 1.327 . S
C804 H829 0.950 . S
C805 C804 1.349 . S
C805 C821 1.349 . S
C806 C804 1.327 . S
C806 C825 1.429 . S
C806 H830 0.950 . S
C807 C824 1.574 . S
C807 C826 1.368 . S
C807 H831 0.949 . S
H808 C812 0.949 . S
C809 C810 1.349 . S
C809 C811 1.327 . S
C809 H832 0.950 . S
C810 C809 1.349 . S
C810 C822 1.349 . S
C811 C809 1.327 . S
C811 C827 1.429 . S
C811 H833 0.950 . S
C812 H808 0.949 . S
C812 C820 1.574 . S
C812 C828 1.368 . S
H813 C821 0.950 . S
H814 C819 0.950 . S
H815 C820 0.949 . S
H816 C822 0.950 . S
H817 C823 0.950 . S
H818 C824 0.949 . S
C819 H814 0.950 . S
C819 C821 1.327 . S
C819 C825 1.429 . S
C820 C812 1.574 . S
C820 H815 0.949 . S
C820 C826 1.368 . S
C821 C805 1.349 . S
C821 H813 0.950 . S
C821 C819 1.327 . S
C822 C810 1.349 . S
C822 H816 0.950 . S
C822 C823 1.327 . S
C823 H817 0.950 . S
C823 C822 1.327 . S
C823 C827 1.429 . S
C824 C807 1.574 . S
C824 H818 0.949 . S
C824 C828 1.368 . S
C825 C806 1.429 . S
C825 C819 1.429 . S
C825 C826 1.523 . S
C826 C807 1.368 . S
C826 C820 1.368 . S
C826 C825 1.523 . S
C827 C811 1.429 . S
C827 C823 1.429 . S
C827 C828 1.523 . S
C828 C812 1.368 . S
C828 C824 1.368 . S
C828 C827 1.523 . S
H829 C804 0.950 . S
H830 C806 0.950 . S
H831 C807 0.949 . S
H832 C809 0.950 . S
H833 C811 0.950 . S
C834 C835 1.349 . S
C834 C836 1.327 . S
C834 H859 0.950 . S
C835 C834 1.349 . S
C835 C851 1.349 . S
C836 C834 1.327 . S
C836 C855 1.429 . S
C836 H860 0.950 . S
C837 C854 1.574 . S
C837 C856 1.368 . S
C837 H861 0.949 . S
H838 C842 0.949 . S
C839 C840 1.349 . S
C839 C841 1.327 . S
C839 H862 0.950 . S
C840 C839 1.349 . S
C840 C852 1.349 . S
C841 C839 1.327 . S
C841 C857 1.429 . S
C841 H863 0.950 . S
C842 H838 0.949 . S
C842 C850 1.574 . S
C842 C858 1.368 . S
H843 C851 0.950 . S
H844 C849 0.950 . S
H845 C850 0.949 . S
H846 C852 0.950 . S
H847 C853 0.950 . S
H848 C854 0.949 . S
C849 H844 0.950 . S
C849 C851 1.327 . S
C849 C855 1.429 . S
C850 C842 1.574 . S
C850 H845 0.949 . S
C850 C856 1.368 . S
C851 C835 1.349 . S
C851 H843 0.950 . S
C851 C849 1.327 . S
C852 C840 1.349 . S
C852 H846 0.950 . S
C852 C853 1.327 . S
C853 H847 0.950 . S
C853 C852 1.327 . S
C853 C857 1.429 . S
C854 C837 1.574 . S
C854 H848 0.949 . S
C854 C858 1.368 . S
C855 C836 1.429 . S
C855 C849 1.429 . S
C855 C856 1.523 . S
C856 C837 1.368 . S
C856 C850 1.368 . S
C856 C855 1.523 . S
C857 C841 1.429 . S
C857 C853 1.429 . S
C857 C858 1.523 . S
C858 C842 1.368 . S
C858 C854 1.368 . S
C858 C857 1.523 . S
H859 C834 0.950 . S
H860 C836 0.950 . S
H861 C837 0.949 . S
H862 C839 0.950 . S
H863 C841 0.950 . S
C864 C865 1.349 . S
C864 C866 1.327 . S
C864 H889 0.950 . S
C865 C864 1.349 . S
C865 C881 1.349 . S
C866 C864 1.327 . S
C866 C885 1.429 . S
C866 H890 0.950 . S
C867 C884 1.574 1_655 S
C867 C886 1.368 . S
C867 H891 0.949 . S
H868 C872 0.949 . S
C869 C870 1.349 . S
C869 C871 1.327 . S
C869 H892 0.950 . S
C870 C869 1.349 . S
C870 C882 1.349 . S
C871 C869 1.327 . S
C871 C887 1.429 . S
C871 H893 0.950 . S
C872 H868 0.949 . S
C872 C880 1.574 1_455 S
C872 C888 1.368 . S
H873 C881 0.950 . S
H874 C879 0.950 . S
H875 C880 0.949 . S
H876 C882 0.950 . S
H877 C883 0.950 . S
H878 C884 0.949 . S
C879 H874 0.950 . S
C879 C881 1.327 . S
C879 C885 1.429 . S
C880 C872 1.574 1_655 S
C880 H875 0.949 . S
C880 C886 1.368 . S
C881 C865 1.349 . S
C881 H873 0.950 . S
C881 C879 1.327 . S
C882 C870 1.349 . S
C882 H876 0.950 . S
C882 C883 1.327 . S
C883 H877 0.950 . S
C883 C882 1.327 . S
C883 C887 1.429 . S
C884 C867 1.574 1_455 S
C884 H878 0.949 . S
C884 C888 1.368 . S
C885 C866 1.429 . S
C885 C879 1.429 . S
C885 C886 1.523 . S
C886 C867 1.368 . S
C886 C880 1.368 . S
C886 C885 1.523 . S
C887 C871 1.429 . S
C887 C883 1.429 . S
C887 C888 1.523 . S
C888 C872 1.368 . S
C888 C884 1.368 . S
C888 C887 1.523 . S
H889 C864 0.950 . S
H890 C866 0.950 . S
H891 C867 0.949 . S
H892 C869 0.950 . S
H893 C871 0.950 . S
C894 C895 1.349 . S
C894 C896 1.327 . S
C894 H919 0.950 . S
C895 C894 1.349 . S
C895 C911 1.349 . S
C896 C894 1.327 . S
C896 C915 1.429 . S
C896 H920 0.950 . S
C897 C914 1.574 . S
C897 C916 1.368 . S
C897 H921 0.949 . S
H898 C902 0.949 . S
C899 C900 1.349 . S
C899 C901 1.327 . S
C899 H922 0.950 . S
C900 C899 1.349 . S
C900 C912 1.349 . S
C901 C899 1.327 . S
C901 C917 1.429 . S
C901 H923 0.950 . S
C902 H898 0.949 . S
C902 C910 1.574 . S
C902 C918 1.368 . S
H903 C911 0.950 . S
H904 C909 0.950 . S
H905 C910 0.949 . S
H906 C912 0.950 . S
H907 C913 0.950 . S
H908 C914 0.949 . S
C909 H904 0.950 . S
C909 C911 1.327 . S
C909 C915 1.429 . S
C910 C902 1.574 . S
C910 H905 0.949 . S
C910 C916 1.368 . S
C911 C895 1.349 . S
C911 H903 0.950 . S
C911 C909 1.327 . S
C912 C900 1.349 . S
C912 H906 0.950 . S
C912 C913 1.327 . S
C913 H907 0.950 . S
C913 C912 1.327 . S
C913 C917 1.429 . S
C914 C897 1.574 . S
C914 H908 0.949 . S
C914 C918 1.368 . S
C915 C896 1.429 . S
C915 C909 1.429 . S
C915 C916 1.523 . S
C916 C897 1.368 . S
C916 C910 1.368 . S
C916 C915 1.523 . S
C917 C901 1.429 . S
C917 C913 1.429 . S
C917 C918 1.523 . S
C918 C902 1.368 . S
C918 C914 1.368 . S
C918 C917 1.523 . S
H919 C894 0.950 . S
H920 C896 0.950 . S
H921 C897 0.949 . S
H922 C899 0.950 . S
H923 C901 0.950 . S
C924 C925 1.349 . S
C924 C926 1.327 . S
C924 H949 0.950 . S
C925 C924 1.349 . S
C925 C941 1.349 . S
C926 C924 1.327 . S
C926 C945 1.429 . S
C926 H950 0.950 . S
C927 C944 1.574 . S
C927 C946 1.368 1_565 S
C927 H951 0.949 . S
H928 C932 0.949 . S
C929 C930 1.349 . S
C929 C931 1.327 . S
C929 H952 0.950 . S
C930 C929 1.349 . S
C930 C942 1.349 . S
C931 C929 1.327 . S
C931 C947 1.429 . S
C931 H953 0.950 . S
C932 H928 0.949 . S
C932 C940 1.574 . S
C932 C948 1.368 1_545 S
H933 C941 0.950 . S
H934 C939 0.950 . S
H935 C940 0.949 . S
H936 C942 0.950 . S
H937 C943 0.950 . S
H938 C944 0.949 . S
C939 H934 0.950 . S
C939 C941 1.327 . S
C939 C945 1.429 . S
C940 C932 1.574 . S
C940 H935 0.949 . S
C940 C946 1.368 . S
C941 C925 1.349 . S
C941 H933 0.950 . S
C941 C939 1.327 . S
C942 C930 1.349 . S
C942 H936 0.950 . S
C942 C943 1.327 . S
C943 H937 0.950 . S
C943 C942 1.327 . S
C943 C947 1.429 . S
C944 C927 1.574 . S
C944 H938 0.949 . S
C944 C948 1.368 . S
C945 C926 1.429 . S
C945 C939 1.429 . S
C945 C946 1.523 . S
C946 C927 1.368 1_545 S
C946 C940 1.368 . S
C946 C945 1.523 . S
C947 C931 1.429 . S
C947 C943 1.429 . S
C947 C948 1.523 . S
C948 C932 1.368 1_565 S
C948 C944 1.368 . S
C948 C947 1.523 . S
H949 C924 0.950 . S
H950 C926 0.950 . S
H951 C927 0.949 . S
H952 C929 0.950 . S
H953 C931 0.950 . S
C954 C955 1.349 . S
C954 C956 1.327 . S
C954 H979 0.950 . S
C955 C954 1.349 . S
C955 C971 1.349 . S
C956 C954 1.327 . S
C956 C975 1.429 . S
C956 H980 0.950 . S
C957 C974 1.574 1_545 S
C957 C976 1.368 . S
C957 H981 0.949 . S
H958 C962 0.949 . S
C959 C960 1.349 . S
C959 C961 1.327 . S
C959 H982 0.950 . S
C960 C959 1.349 . S
C960 C972 1.349 . S
C961 C959 1.327 . S
C961 C977 1.429 . S
C961 H983 0.950 . S
C962 H958 0.949 . S
C962 C970 1.574 1_565 S
C962 C978 1.368 . S
H963 C971 0.950 . S
H964 C969 0.950 . S
H965 C970 0.949 . S
H966 C972 0.950 . S
H967 C973 0.950 . S
H968 C974 0.949 . S
C969 H964 0.950 . S
C969 C971 1.327 . S
C969 C975 1.429 . S
C970 C962 1.574 1_545 S
C970 H965 0.949 . S
C970 C976 1.368 1_554 S
C971 C955 1.349 . S
C971 H963 0.950 . S
C971 C969 1.327 . S
C972 C960 1.349 . S
C972 H966 0.950 . S
C972 C973 1.327 . S
C973 H967 0.950 . S
C973 C972 1.327 . S
C973 C977 1.429 . S
C974 C957 1.574 1_565 S
C974 H968 0.949 . S
C974 C978 1.368 1_556 S
C975 C956 1.429 . S
C975 C969 1.429 . S
C975 C976 1.523 . S
C976 C957 1.368 . S
C976 C970 1.368 1_556 S
C976 C975 1.523 . S
C977 C961 1.429 . S
C977 C973 1.429 . S
C977 C978 1.523 . S
C978 C962 1.368 . S
C978 C974 1.368 1_554 S
C978 C977 1.523 . S
H979 C954 0.950 . S
H980 C956 0.950 . S
H981 C957 0.949 . S
H982 C959 0.950 . S
H983 C961 0.950 . S
C984 C985 1.349 . S
C984 C986 1.327 . S
C984 H1009 0.950 . S
C985 C984 1.349 . S
C985 C1001 1.349 . S
C986 C984 1.327 . S
C986 C1005 1.429 . S
C986 H1010 0.950 . S
C987 C1004 1.569 1_556 S
C987 C1006 1.368 . S
C987 H1011 0.949 . S
H988 C992 0.949 . S
C989 C990 1.349 . S
C989 C991 1.327 . S
C989 H1012 0.950 . S
C990 C989 1.349 . S
C990 C1002 1.349 . S
C991 C989 1.327 . S
C991 C1007 1.429 . S
C991 H1013 0.950 . S
C992 H988 0.949 . S
C992 C1000 1.569 1_554 S
C992 C1008 1.368 . S
H993 C1001 0.950 . S
H994 C999 0.950 . S
H995 C1000 0.950 . S
H996 C1002 0.950 . S
H997 C1003 0.950 . S
H998 C1004 0.950 . S
C999 H994 0.950 . S
C999 C1001 1.327 . S
C999 C1005 1.429 . S
C1000 C992 1.569 1_556 S
C1000 H995 0.950 . S
C1000 C1006 1.361 1_455 S
C1001 C985 1.349 . S
C1001 H993 0.950 . S
C1001 C999 1.327 . S
C1002 C990 1.349 . S
C1002 H996 0.950 . S
C1002 C1003 1.327 . S
C1003 H997 0.950 . S
C1003 C1002 1.327 . S
C1003 C1007 1.429 . S
C1004 C987 1.569 1_554 S
C1004 H998 0.950 . S
C1004 C1008 1.361 1_655 S
C1005 C986 1.429 . S
C1005 C999 1.429 . S
C1005 C1006 1.523 . S
C1006 C987 1.368 . S
C1006 C1000 1.361 1_655 S
C1006 C1005 1.523 . S
C1007 C991 1.429 . S
C1007 C1003 1.429 . S
C1007 C1008 1.523 . S
C1008 C992 1.368 . S
C1008 C1004 1.361 1_455 S
C1008 C1007 1.523 . S
H1009 C984 0.950 . S
H1010 C986 0.950 . S
H1011 C987 0.949 . S
H1012 C989 0.950 . S
H1013 C991 0.950 . S
C1014 C1015 1.349 . S
C1014 C1016 1.327 . S
C1014 H1039 0.950 . S
C1015 C1014 1.349 . S
C1015 C1031 1.349 . S
C1016 C1014 1.327 . S
C1016 C1035 1.429 . S
C1016 H1040 0.950 . S
C1017 C1034 1.574 1_556 S
C1017 C1036 1.368 . S
C1017 H1041 0.949 . S
H1018 C1022 0.949 . S
C1019 C1020 1.349 . S
C1019 C1021 1.327 . S
C1019 H1042 0.950 . S
C1020 C1019 1.349 . S
C1020 C1032 1.349 . S
C1021 C1019 1.327 . S
C1021 C1037 1.429 . S
C1021 H1043 0.950 . S
C1022 H1018 0.949 . S
C1022 C1030 1.574 1_554 S
C1022 C1038 1.368 . S
H1023 C1031 0.950 . S
H1024 C1029 0.950 . S
H1025 C1030 0.949 . S
H1026 C1032 0.950 . S
H1027 C1033 0.950 . S
H1028 C1034 0.949 . S
C1029 H1024 0.950 . S
C1029 C1031 1.327 . S
C1029 C1035 1.429 . S
C1030 C1022 1.574 1_556 S
C1030 H1025 0.949 . S
C1030 C1036 1.368 . S
C1031 C1015 1.349 . S
C1031 H1023 0.950 . S
C1031 C1029 1.327 . S
C1032 C1020 1.349 . S
C1032 H1026 0.950 . S
C1032 C1033 1.327 . S
C1033 H1027 0.950 . S
C1033 C1032 1.327 . S
C1033 C1037 1.429 . S
C1034 C1017 1.574 1_554 S
C1034 H1028 0.949 . S
C1034 C1038 1.368 . S
C1035 C1016 1.429 . S
C1035 C1029 1.429 . S
C1035 C1036 1.523 . S
C1036 C1017 1.368 . S
C1036 C1030 1.368 . S
C1036 C1035 1.523 . S
C1037 C1021 1.429 . S
C1037 C1033 1.429 . S
C1037 C1038 1.523 . S
C1038 C1022 1.368 . S
C1038 C1034 1.368 . S
C1038 C1037 1.523 . S
H1039 C1014 0.950 . S
H1040 C1016 0.950 . S
H1041 C1017 0.949 . S
H1042 C1019 0.950 . S
H1043 C1021 0.950 . S
C1044 C1045 1.349 1_545 S
C1044 C1046 1.327 . S
C1044 H1069 0.949 1_545 S
C1045 C1044 1.349 1_565 S
C1045 C1061 1.349 1_565 S
C1046 C1044 1.327 . S
C1046 C1065 1.429 . S
C1046 H1070 0.950 . S
C1047 C1064 1.574 . S
C1047 C1066 1.368 1_554 S
C1047 H1071 0.949 . S
H1048 C1052 0.950 1_556 S
C1049 C1050 1.349 . S
C1049 C1051 1.327 . S
C1049 H1072 0.950 . S
C1050 C1049 1.349 . S
C1050 C1062 1.349 . S
C1051 C1049 1.327 . S
C1051 C1067 1.429 . S
C1051 H1073 0.950 . S
C1052 H1048 0.950 1_554 S
C1052 C1060 1.576 1_554 S
C1052 C1068 1.365 . S
H1053 C1061 0.950 1_565 S
H1054 C1059 0.950 1_554 S
H1055 C1060 0.949 . S
H1056 C1062 0.950 . S
H1057 C1063 0.950 . S
H1058 C1064 0.949 . S
C1059 H1054 0.950 1_556 S
C1059 C1061 1.327 . S
C1059 C1065 1.429 . S
C1060 C1052 1.576 1_556 S
C1060 H1055 0.949 . S
C1060 C1066 1.368 . S
C1061 C1045 1.349 1_545 S
C1061 H1053 0.950 1_545 S
C1061 C1059 1.327 . S
C1062 C1050 1.349 . S
C1062 H1056 0.950 . S
C1062 C1063 1.327 . S
C1063 H1057 0.950 . S
C1063 C1062 1.327 . S
C1063 C1067 1.429 . S
C1064 C1047 1.574 . S
C1064 H1058 0.949 . S
C1064 C1068 1.368 . S
C1065 C1046 1.429 . S
C1065 C1059 1.429 . S
C1065 C1066 1.523 . S
C1066 C1047 1.368 1_556 S
C1066 C1060 1.368 . S
C1066 C1065 1.523 . S
C1067 C1051 1.429 . S
C1067 C1063 1.429 . S
C1067 C1068 1.523 . S
C1068 C1052 1.365 . S
C1068 C1064 1.368 . S
C1068 C1067 1.523 . S
H1069 C1044 0.949 1_565 S
H1070 C1046 0.950 . S
H1071 C1047 0.949 . S
H1072 C1049 0.950 . S
H1073 C1051 0.950 . S
C1074 C1075 1.349 1_655 S
C1074 C1076 1.327 . S
C1074 H1099 0.911 1_655 S
C1075 C1074 1.349 1_455 S
C1075 C1091 1.349 1_455 S
C1076 C1074 1.327 . S
C1076 C1095 1.429 . S
C1076 H1100 0.950 . S
C1077 C1094 1.574 . S
C1077 C1096 1.368 1_554 S
C1077 H1101 0.949 . S
H1078 C1082 0.944 1_556 S
C1079 C1080 1.349 . S
C1079 C1081 1.327 . S
C1079 H1102 0.950 . S
C1080 C1079 1.349 . S
C1080 C1092 1.349 . S
C1081 C1079 1.327 . S
C1081 C1097 1.429 . S
C1081 H1103 0.950 . S
C1082 H1078 0.944 1_554 S
C1082 C1090 1.564 1_554 S
C1082 C1098 1.384 . S
H1083 C1091 0.950 1_455 S
H1084 C1089 0.950 1_554 S
H1085 C1090 0.949 . S
H1086 C1092 0.950 . S
H1087 C1093 0.950 . S
H1088 C1094 0.949 . S
C1089 H1084 0.950 1_556 S
C1089 C1091 1.327 . S
C1089 C1095 1.429 . S
C1090 C1082 1.564 1_556 S
C1090 H1085 0.949 . S
C1090 C1096 1.368 . S
C1091 C1075 1.349 1_655 S
C1091 H1083 0.950 1_655 S
C1091 C1089 1.327 . S
C1092 C1080 1.349 . S
C1092 H1086 0.950 . S
C1092 C1093 1.327 . S
C1093 H1087 0.950 . S
C1093 C1092 1.327 . S
C1093 C1097 1.429 . S
C1094 C1077 1.574 . S
C1094 H1088 0.949 . S
C1094 C1098 1.368 . S
C1095 C1076 1.429 . S
C1095 C1089 1.429 . S
C1095 C1096 1.523 . S
C1096 C1077 1.368 1_556 S
C1096 C1090 1.368 . S
C1096 C1095 1.523 . S
C1097 C1081 1.429 . S
C1097 C1093 1.429 . S
C1097 C1098 1.523 . S
C1098 C1082 1.384 . S
C1098 C1094 1.368 . S
C1098 C1097 1.523 . S
H1099 C1074 0.911 1_455 S
H1100 C1076 0.950 . S
H1101 C1077 0.949 . S
H1102 C1079 0.950 . S
H1103 C1081 0.950 . S
C1104 C1105 1.349 . S
C1104 C1106 1.327 . S
C1104 H1129 0.950 . S
C1105 C1104 1.349 . S
C1105 C1121 1.349 . S
C1106 C1104 1.327 . S
C1106 C1125 1.429 . S
C1106 H1130 0.950 . S
C1107 C1124 1.574 . S
C1107 C1126 1.368 . S
C1107 H1131 0.949 . S
H1108 C1112 0.949 . S
C1109 C1110 1.349 . S
C1109 C1111 1.327 . S
C1109 H1132 0.950 . S
C1110 C1109 1.349 . S
C1110 C1122 1.349 . S
C1111 C1109 1.327 . S
C1111 C1127 1.429 . S
C1111 H1133 0.950 1_556 S
C1112 H1108 0.949 . S
C1112 C1120 1.574 . S
C1112 C1128 1.368 . S
H1113 C1121 0.950 . S
H1114 C1119 0.950 . S
H1115 C1120 0.949 . S
H1116 C1122 0.950 . S
H1117 C1123 0.950 . S
H1118 C1124 0.949 . S
C1119 H1114 0.950 . S
C1119 C1121 1.327 . S
C1119 C1125 1.429 . S
C1120 C1112 1.574 . S
C1120 H1115 0.949 . S
C1120 C1126 1.368 1_556 S
C1121 C1105 1.349 . S
C1121 H1113 0.950 . S
C1121 C1119 1.327 . S
C1122 C1110 1.349 . S
C1122 H1116 0.950 . S
C1122 C1123 1.327 . S
C1123 H1117 0.950 . S
C1123 C1122 1.327 . S
C1123 C1127 1.429 . S
C1124 C1107 1.574 . S
C1124 H1118 0.949 . S
C1124 C1128 1.368 1_554 S
C1125 C1106 1.429 . S
C1125 C1119 1.429 . S
C1125 C1126 1.523 . S
C1126 C1107 1.368 . S
C1126 C1120 1.368 1_554 S
C1126 C1125 1.523 . S
C1127 C1111 1.429 . S
C1127 C1123 1.429 . S
C1127 C1128 1.523 . S
C1128 C1112 1.368 . S
C1128 C1124 1.368 1_556 S
C1128 C1127 1.523 . S
H1129 C1104 0.950 . S
H1130 C1106 0.950 . S
H1131 C1107 0.949 . S
H1132 C1109 0.950 . S
H1133 C1111 0.950 1_554 S
C1134 C1135 1.349 1_455 S
C1134 C1136 1.327 . S
C1134 H1159 0.959 . S
C1135 C1134 1.349 1_655 S
C1135 C1151 1.349 1_655 S
C1136 C1134 1.327 . S
C1136 C1155 1.429 . S
C1136 H1160 0.950 . S
C1137 C1154 1.574 . S
C1137 C1156 1.368 . S
C1137 H1161 0.949 . S
H1138 C1142 0.949 . S
C1139 C1140 1.349 . S
C1139 C1141 1.327 . S
C1139 H1162 0.950 . S
C1140 C1139 1.349 . S
C1140 C1152 1.349 . S
C1141 C1139 1.327 . S
C1141 C1157 1.429 . S
C1141 H1163 0.950 . S
C1142 H1138 0.949 . S
C1142 C1150 1.574 . S
C1142 C1158 1.368 . S
H1143 C1151 0.950 1_655 S
H1144 C1149 0.950 . S
H1145 C1150 0.949 . S
H1146 C1152 0.950 . S
H1147 C1153 0.950 . S
H1148 C1154 0.949 . S
C1149 H1144 0.950 . S
C1149 C1151 1.327 . S
C1149 C1155 1.429 . S
C1150 C1142 1.574 . S
C1150 H1145 0.949 . S
C1150 C1156 1.368 . S
C1151 C1135 1.349 1_455 S
C1151 H1143 0.950 1_455 S
C1151 C1149 1.327 . S
C1152 C1140 1.349 . S
C1152 H1146 0.950 . S
C1152 C1153 1.327 . S
C1153 H1147 0.950 . S
C1153 C1152 1.327 . S
C1153 C1157 1.429 . S
C1154 C1137 1.574 . S
C1154 H1148 0.949 . S
C1154 C1158 1.368 . S
C1155 C1136 1.429 . S
C1155 C1149 1.429 . S
C1155 C1156 1.523 . S
C1156 C1137 1.368 . S
C1156 C1150 1.368 . S
C1156 C1155 1.523 . S
C1157 C1141 1.429 . S
C1157 C1153 1.429 . S
C1157 C1158 1.523 . S
C1158 C1142 1.368 . S
C1158 C1154 1.368 . S
C1158 C1157 1.523 . S
H1159 C1134 0.959 . S
H1160 C1136 0.950 . S
H1161 C1137 0.949 . S
H1162 C1139 0.950 . S
H1163 C1141 0.950 . S
C1164 C1165 1.349 . S
C1164 C1166 1.327 . S
C1164 H1189 0.950 . S
C1165 C1164 1.349 . S
C1165 C1181 1.349 . S
C1166 C1164 1.327 . S
C1166 C1185 1.429 . S
C1166 H1190 0.950 . S
C1167 C1184 1.574 . S
C1167 C1186 1.368 . S
C1167 H1191 0.949 . S
H1168 C1172 0.949 . S
C1169 C1170 1.349 . S
C1169 C1171 1.327 . S
C1169 H1192 0.950 . S
C1170 C1169 1.349 . S
C1170 C1182 1.349 . S
C1171 C1169 1.327 . S
C1171 C1187 1.429 . S
C1171 H1193 0.950 . S
C1172 H1168 0.949 . S
C1172 C1180 1.574 . S
C1172 C1188 1.368 . S
H1173 C1181 0.950 . S
H1174 C1179 0.950 . S
H1175 C1180 0.949 . S
H1176 C1182 0.950 . S
H1177 C1183 0.950 . S
H1178 C1184 0.949 . S
C1179 H1174 0.950 . S
C1179 C1181 1.327 . S
C1179 C1185 1.429 . S
C1180 C1172 1.574 . S
C1180 H1175 0.949 . S
C1180 C1186 1.368 . S
C1181 C1165 1.349 . S
C1181 H1173 0.950 . S
C1181 C1179 1.327 . S
C1182 C1170 1.349 . S
C1182 H1176 0.950 . S
C1182 C1183 1.327 . S
C1183 H1177 0.950 . S
C1183 C1182 1.327 . S
C1183 C1187 1.429 . S
C1184 C1167 1.574 . S
C1184 H1178 0.949 . S
C1184 C1188 1.368 . S
C1185 C1166 1.429 . S
C1185 C1179 1.429 . S
C1185 C1186 1.523 . S
C1186 C1167 1.368 . S
C1186 C1180 1.368 . S
C1186 C1185 1.523 . S
C1187 C1171 1.429 . S
C1187 C1183 1.429 . S
C1187 C1188 1.523 . S
C1188 C1172 1.368 . S
C1188 C1184 1.368 . S
C1188 C1187 1.523 . S
H1189 C1164 0.950 . S
H1190 C1166 0.950 . S
H1191 C1167 0.949 . S
H1192 C1169 0.950 . S
H1193 C1171 0.950 . S
C1194 C1195 1.349 1_565 S
C1194 C1196 1.327 . S
C1194 H1219 0.950 . S
C1195 C1194 1.349 1_545 S
C1195 C1211 1.349 . S
C1196 C1194 1.327 . S
C1196 C1215 1.429 . S
C1196 H1220 0.950 . S
C1197 C1214 1.574 . S
C1197 C1216 1.368 . S
C1197 H1221 0.949 . S
H1198 C1202 0.949 . S
C1199 C1200 1.349 . S
C1199 C1201 1.327 . S
C1199 H1222 0.950 . S
C1200 C1199 1.349 . S
C1200 C1212 1.349 . S
C1201 C1199 1.327 . S
C1201 C1217 1.429 . S
C1201 H1223 0.950 . S
C1202 H1198 0.949 . S
C1202 C1210 1.574 . S
C1202 C1218 1.368 . S
H1203 C1211 0.950 . S
H1204 C1209 0.950 . S
H1205 C1210 0.949 . S
H1206 C1212 0.950 . S
H1207 C1213 0.950 . S
H1208 C1214 0.949 . S
C1209 H1204 0.950 . S
C1209 C1211 1.327 1_565 S
C1209 C1215 1.429 . S
C1210 C1202 1.574 . S
C1210 H1205 0.949 . S
C1210 C1216 1.368 . S
C1211 C1195 1.349 . S
C1211 H1203 0.950 . S
C1211 C1209 1.327 1_545 S
C1212 C1200 1.349 . S
C1212 H1206 0.950 . S
C1212 C1213 1.327 . S
C1213 H1207 0.950 . S
C1213 C1212 1.327 . S
C1213 C1217 1.429 . S
C1214 C1197 1.574 . S
C1214 H1208 0.949 . S
C1214 C1218 1.368 . S
C1215 C1196 1.429 . S
C1215 C1209 1.429 . S
C1215 C1216 1.523 . S
C1216 C1197 1.368 . S
C1216 C1210 1.368 . S
C1216 C1215 1.523 . S
C1217 C1201 1.429 . S
C1217 C1213 1.429 . S
C1217 C1218 1.523 . S
C1218 C1202 1.368 . S
C1218 C1214 1.368 . S
C1218 C1217 1.523 . S
H1219 C1194 0.950 . S
H1220 C1196 0.950 . S
H1221 C1197 0.949 . S
H1222 C1199 0.950 . S
H1223 C1201 0.950 . S
C1224 C1225 1.349 . S
C1224 C1226 1.327 . S
C1224 H1249 0.950 . S
C1225 C1224 1.349 . S
C1225 C1241 1.349 . S
C1226 C1224 1.327 . S
C1226 C1245 1.429 . S
C1226 H1250 0.950 . S
C1227 C1244 1.574 . S
C1227 C1246 1.368 1_554 S
C1227 H1251 0.949 . S
H1228 C1232 0.949 . S
C1229 C1230 1.349 1_565 S
C1229 C1231 1.327 . S
C1229 H1252 0.950 . S
C1230 C1229 1.349 1_545 S
C1230 C1242 1.349 . S
C1231 C1229 1.327 . S
C1231 C1247 1.429 . S
C1231 H1253 0.950 . S
C1232 H1228 0.949 . S
C1232 C1240 1.574 . S
C1232 C1248 1.368 1_556 S
H1233 C1241 0.950 . S
H1234 C1239 0.950 . S
H1235 C1240 0.949 . S
H1236 C1242 0.950 . S
H1237 C1243 0.950 1_556 S
H1238 C1244 0.949 . S
C1239 H1234 0.950 . S
C1239 C1241 1.327 . S
C1239 C1245 1.429 . S
C1240 C1232 1.574 . S
C1240 H1235 0.949 . S
C1240 C1246 1.368 . S
C1241 C1225 1.349 . S
C1241 H1233 0.950 . S
C1241 C1239 1.327 . S
C1242 C1230 1.349 . S
C1242 H1236 0.950 . S
C1242 C1243 1.327 1_545 S
C1243 H1237 0.950 1_554 S
C1243 C1242 1.327 1_565 S
C1243 C1247 1.429 . S
C1244 C1227 1.574 . S
C1244 H1238 0.949 . S
C1244 C1248 1.368 . S
C1245 C1226 1.429 . S
C1245 C1239 1.429 . S
C1245 C1246 1.523 . S
C1246 C1227 1.368 1_556 S
C1246 C1240 1.368 . S
C1246 C1245 1.523 . S
C1247 C1231 1.429 . S
C1247 C1243 1.429 . S
C1247 C1248 1.523 . S
C1248 C1232 1.368 1_554 S
C1248 C1244 1.368 . S
C1248 C1247 1.523 . S
H1249 C1224 0.950 . S
H1250 C1226 0.950 . S
H1251 C1227 0.949 . S
H1252 C1229 0.950 . S
H1253 C1231 0.950 . S
C1254 C1255 1.349 . S
C1254 C1256 1.327 . S
C1254 H1279 0.950 . S
C1255 C1254 1.349 . S
C1255 C1271 1.349 . S
C1256 C1254 1.327 . S
C1256 C1275 1.429 . S
C1256 H1280 0.950 . S
C1257 C1274 1.574 1_556 S
C1257 C1276 1.368 . S
C1257 H1281 0.949 . S
H1258 C1262 0.949 . S
C1259 C1260 1.343 . S
C1259 C1261 1.316 1_655 S
C1259 H1282 0.968 . S
C1260 C1259 1.343 . S
C1260 C1272 1.349 1_655 S
C1261 C1259 1.316 1_455 S
C1261 C1277 1.429 . S
C1261 H1283 0.950 . S
C1262 H1258 0.949 . S
C1262 C1270 1.574 . S
C1262 C1278 1.368 1_556 S
H1263 C1271 0.950 . S
H1264 C1269 0.950 . S
H1265 C1270 0.949 . S
H1266 C1272 0.950 . S
H1267 C1273 0.950 . S
H1268 C1274 0.949 . S
C1269 H1264 0.950 . S
C1269 C1271 1.327 . S
C1269 C1275 1.429 . S
C1270 C1262 1.574 . S
C1270 H1265 0.949 . S
C1270 C1276 1.368 . S
C1271 C1255 1.349 . S
C1271 H1263 0.950 . S
C1271 C1269 1.327 . S
C1272 C1260 1.349 1_455 S
C1272 H1266 0.950 . S
C1272 C1273 1.327 . S
C1273 H1267 0.950 . S
C1273 C1272 1.327 . S
C1273 C1277 1.429 . S
C1274 C1257 1.574 1_554 S
C1274 H1268 0.949 . S
C1274 C1278 1.368 . S
C1275 C1256 1.429 . S
C1275 C1269 1.429 . S
C1275 C1276 1.523 . S
C1276 C1257 1.368 . S
C1276 C1270 1.368 . S
C1276 C1275 1.523 . S
C1277 C1261 1.429 . S
C1277 C1273 1.429 . S
C1277 C1278 1.523 . S
C1278 C1262 1.368 1_554 S
C1278 C1274 1.368 . S
C1278 C1277 1.523 . S
H1279 C1254 0.950 . S
H1280 C1256 0.950 . S
H1281 C1257 0.949 . S
H1282 C1259 0.968 . S
H1283 C1261 0.950 . S
C1284 C1285 1.349 . S
C1284 C1286 1.327 . S
C1284 H1309 0.950 . S
C1285 C1284 1.349 . S
C1285 C1301 1.349 . S
C1286 C1284 1.327 . S
C1286 C1305 1.429 . S
C1286 H1310 0.950 . S
C1287 C1304 1.574 . S
C1287 C1306 1.368 . S
C1287 H1311 0.949 . S
H1288 C1292 0.949 . S
C1289 C1290 1.349 . S
C1289 C1291 1.327 . S
C1289 H1312 0.950 . S
C1290 C1289 1.349 . S
C1290 C1302 1.349 . S
C1291 C1289 1.327 . S
C1291 C1307 1.429 . S
C1291 H1313 0.950 1_554 S
C1292 H1288 0.949 . S
C1292 C1300 1.569 1_554 S
C1292 C1308 1.368 . S
H1293 C1301 0.950 . S
H1294 C1299 0.950 . S
H1295 C1300 0.947 1_554 S
H1296 C1302 0.950 . S
H1297 C1303 0.950 . S
H1298 C1304 0.949 . S
C1299 H1294 0.950 . S
C1299 C1301 1.327 . S
C1299 C1305 1.429 . S
C1300 C1292 1.569 1_556 S
C1300 H1295 0.947 1_556 S
C1300 C1306 1.376 . S
C1301 C1285 1.349 . S
C1301 H1293 0.950 . S
C1301 C1299 1.327 . S
C1302 C1290 1.349 . S
C1302 H1296 0.950 . S
C1302 C1303 1.327 . S
C1303 H1297 0.950 . S
C1303 C1302 1.327 . S
C1303 C1307 1.429 . S
C1304 C1287 1.574 . S
C1304 H1298 0.949 . S
C1304 C1308 1.368 1_556 S
C1305 C1286 1.429 . S
C1305 C1299 1.429 . S
C1305 C1306 1.523 . S
C1306 C1287 1.368 . S
C1306 C1300 1.376 . S
C1306 C1305 1.523 . S
C1307 C1291 1.429 . S
C1307 C1303 1.429 . S
C1307 C1308 1.523 . S
C1308 C1292 1.368 . S
C1308 C1304 1.368 1_554 S
C1308 C1307 1.523 . S
H1309 C1284 0.950 . S
H1310 C1286 0.950 . S
H1311 C1287 0.949 . S
H1312 C1289 0.950 . S
H1313 C1291 0.950 1_556 S
C1314 C1315 1.349 . S
C1314 C1316 1.327 . S
C1314 H1339 0.950 . S
C1315 C1314 1.349 . S
C1315 C1331 1.349 . S
C1316 C1314 1.327 . S
C1316 C1335 1.429 . S
C1316 H1340 0.950 . S
C1317 C1334 1.574 . S
C1317 C1336 1.368 . S
C1317 H1341 0.949 . S
H1318 C1322 0.949 . S
C1319 C1320 1.349 . S
C1319 C1321 1.327 1_455 S
C1319 H1342 0.950 . S
C1320 C1319 1.349 . S
C1320 C1332 1.349 1_455 S
C1321 C1319 1.327 1_655 S
C1321 C1337 1.429 . S
C1321 H1343 0.950 . S
C1322 H1318 0.949 . S
C1322 C1330 1.574 . S
C1322 C1338 1.368 . S
H1323 C1331 0.950 . S
H1324 C1329 0.950 . S
H1325 C1330 0.949 . S
H1326 C1332 0.950 . S
H1327 C1333 0.950 . S
H1328 C1334 0.949 . S
C1329 H1324 0.950 . S
C1329 C1331 1.327 . S
C1329 C1335 1.429 . S
C1330 C1322 1.574 . S
C1330 H1325 0.949 . S
C1330 C1336 1.368 . S
C1331 C1315 1.349 . S
C1331 H1323 0.950 . S
C1331 C1329 1.327 . S
C1332 C1320 1.349 1_655 S
C1332 H1326 0.950 . S
C1332 C1333 1.327 . S
C1333 H1327 0.950 . S
C1333 C1332 1.327 . S
C1333 C1337 1.429 . S
C1334 C1317 1.574 . S
C1334 H1328 0.949 . S
C1334 C1338 1.368 . S
C1335 C1316 1.429 . S
C1335 C1329 1.429 . S
C1335 C1336 1.523 . S
C1336 C1317 1.368 . S
C1336 C1330 1.368 . S
C1336 C1335 1.523 . S
C1337 C1321 1.429 . S
C1337 C1333 1.429 . S
C1337 C1338 1.523 . S
C1338 C1322 1.368 . S
C1338 C1334 1.368 . S
C1338 C1337 1.523 . S
H1339 C1314 0.950 . S
H1340 C1316 0.950 . S
H1341 C1317 0.949 . S
H1342 C1319 0.950 . S
H1343 C1321 0.950 . S
C1344 C1345 1.349 . S
C1344 C1346 1.327 . S
C1344 H1369 0.950 . S
C1345 C1344 1.349 . S
C1345 C1361 1.349 . S
C1346 C1344 1.327 . S
C1346 C1365 1.429 . S
C1346 H1370 0.950 . S
C1347 C1364 1.574 . S
C1347 C1366 1.368 . S
C1347 H1371 0.949 . S
H1348 C1352 0.949 . S
C1349 C1350 1.349 . S
C1349 C1351 1.327 . S
C1349 H1372 0.950 . S
C1350 C1349 1.349 . S
C1350 C1362 1.349 . S
C1351 C1349 1.327 . S
C1351 C1367 1.429 . S
C1351 H1373 0.950 . S
C1352 H1348 0.949 . S
C1352 C1360 1.574 . S
C1352 C1368 1.368 . S
H1353 C1361 0.950 . S
H1354 C1359 0.950 . S
H1355 C1360 0.949 . S
H1356 C1362 0.950 . S
H1357 C1363 0.950 . S
H1358 C1364 0.949 . S
C1359 H1354 0.950 . S
C1359 C1361 1.327 . S
C1359 C1365 1.429 . S
C1360 C1352 1.574 . S
C1360 H1355 0.949 . S
C1360 C1366 1.368 . S
C1361 C1345 1.349 . S
C1361 H1353 0.950 . S
C1361 C1359 1.327 . S
C1362 C1350 1.349 . S
C1362 H1356 0.950 . S
C1362 C1363 1.327 . S
C1363 H1357 0.950 . S
C1363 C1362 1.327 . S
C1363 C1367 1.429 . S
C1364 C1347 1.574 . S
C1364 H1358 0.949 . S
C1364 C1368 1.368 . S
C1365 C1346 1.429 . S
C1365 C1359 1.429 . S
C1365 C1366 1.523 . S
C1366 C1347 1.368 . S
C1366 C1360 1.368 . S
C1366 C1365 1.523 . S
C1367 C1351 1.429 . S
C1367 C1363 1.429 . S
C1367 C1368 1.523 . S
C1368 C1352 1.368 . S
C1368 C1364 1.368 . S
C1368 C1367 1.523 . S
H1369 C1344 0.950 . S
H1370 C1346 0.950 . S
H1371 C1347 0.949 . S
H1372 C1349 0.950 . S
H1373 C1351 0.950 . S
C1374 C1375 1.349 1_545 S
C1374 C1376 1.327 . S
C1374 H1399 0.950 . S
C1375 C1374 1.349 1_565 S
C1375 C1391 1.349 . S
C1376 C1374 1.327 . S
C1376 C1395 1.429 . S
C1376 H1400 0.950 . S
C1377 C1394 1.574 . S
C1377 C1396 1.368 . S
C1377 H1401 0.949 . S
H1378 C1382 0.949 . S
C1379 C1380 1.349 . S
C1379 C1381 1.327 . S
C1379 H1402 0.950 . S
C1380 C1379 1.349 . S
C1380 C1392 1.349 . S
C1381 C1379 1.327 . S
C1381 C1397 1.429 . S
C1381 H1403 0.950 . S
C1382 H1378 0.949 . S
C1382 C1390 1.574 . S
C1382 C1398 1.368 . S
H1383 C1391 0.950 . S
H1384 C1389 0.950 . S
H1385 C1390 0.949 . S
H1386 C1392 0.950 . S
H1387 C1393 0.950 . S
H1388 C1394 0.949 . S
C1389 H1384 0.950 . S
C1389 C1391 1.327 1_545 S
C1389 C1395 1.429 . S
C1390 C1382 1.574 . S
C1390 H1385 0.949 . S
C1390 C1396 1.368 . S
C1391 C1375 1.349 . S
C1391 H1383 0.950 . S
C1391 C1389 1.327 1_565 S
C1392 C1380 1.349 . S
C1392 H1386 0.950 . S
C1392 C1393 1.327 . S
C1393 H1387 0.950 . S
C1393 C1392 1.327 . S
C1393 C1397 1.429 . S
C1394 C1377 1.574 . S
C1394 H1388 0.949 . S
C1394 C1398 1.368 . S
C1395 C1376 1.429 . S
C1395 C1389 1.429 . S
C1395 C1396 1.523 . S
C1396 C1377 1.368 . S
C1396 C1390 1.368 . S
C1396 C1395 1.523 . S
C1397 C1381 1.429 . S
C1397 C1393 1.429 . S
C1397 C1398 1.523 . S
C1398 C1382 1.368 . S
C1398 C1394 1.368 . S
C1398 C1397 1.523 . S
H1399 C1374 0.950 . S
H1400 C1376 0.950 . S
H1401 C1377 0.949 . S
H1402 C1379 0.950 . S
H1403 C1381 0.950 . S
C1404 C1405 1.349 . S
C1404 C1406 1.327 . S
C1404 H1429 0.950 . S
C1405 C1404 1.349 . S
C1405 C1421 1.349 . S
C1406 C1404 1.327 . S
C1406 C1425 1.429 . S
C1406 H1430 0.950 . S
C1407 C1424 1.574 . S
C1407 C1426 1.368 . S
C1407 H1431 0.949 . S
H1408 C1412 0.949 . S
C1409 C1410 1.349 . S
C1409 C1411 1.327 . S
C1409 H1432 0.950 . S
C1410 C1409 1.349 . S
C1410 C1422 1.349 . S
C1411 C1409 1.327 . S
C1411 C1427 1.429 . S
C1411 H1433 0.950 . S
C1412 H1408 0.949 . S
C1412 C1420 1.574 . S
C1412 C1428 1.368 . S
H1413 C1421 0.950 . S
H1414 C1419 0.950 . S
H1415 C1420 0.949 . S
H1416 C1422 0.950 . S
H1417 C1423 0.950 . S
H1418 C1424 0.949 . S
C1419 H1414 0.950 . S
C1419 C1421 1.327 . S
C1419 C1425 1.429 . S
C1420 C1412 1.574 . S
C1420 H1415 0.949 . S
C1420 C1426 1.368 . S
C1421 C1405 1.349 . S
C1421 H1413 0.950 . S
C1421 C1419 1.327 . S
C1422 C1410 1.349 . S
C1422 H1416 0.950 . S
C1422 C1423 1.327 . S
C1423 H1417 0.950 . S
C1423 C1422 1.327 . S
C1423 C1427 1.429 . S
C1424 C1407 1.574 . S
C1424 H1418 0.949 . S
C1424 C1428 1.368 . S
C1425 C1406 1.429 . S
C1425 C1419 1.429 . S
C1425 C1426 1.523 . S
C1426 C1407 1.368 . S
C1426 C1420 1.368 . S
C1426 C1425 1.523 . S
C1427 C1411 1.429 . S
C1427 C1423 1.429 . S
C1427 C1428 1.523 . S
C1428 C1412 1.368 . S
C1428 C1424 1.368 . S
C1428 C1427 1.523 . S
H1429 C1404 0.950 . S
H1430 C1406 0.950 . S
H1431 C1407 0.949 . S
H1432 C1409 0.950 . S
H1433 C1411 0.950 . S
C1434 C1435 1.349 . S
C1434 C1436 1.327 . S
C1434 H1459 0.950 . S
C1435 C1434 1.349 . S
C1435 C1451 1.349 . S
C1436 C1434 1.327 . S
C1436 C1455 1.429 . S
C1436 H1460 0.950 . S
C1437 C1454 1.574 . S
C1437 C1456 1.368 . S
C1437 H1461 0.949 . S
H1438 C1442 0.949 . S
C1439 C1440 1.349 . S
C1439 C1441 1.327 . S
C1439 H1462 0.950 . S
C1440 C1439 1.349 . S
C1440 C1452 1.349 . S
C1441 C1439 1.327 . S
C1441 C1457 1.429 . S
C1441 H1463 0.950 . S
C1442 H1438 0.949 . S
C1442 C1450 1.574 . S
C1442 C1458 1.368 . S
H1443 C1451 0.950 . S
H1444 C1449 0.950 . S
H1445 C1450 0.949 . S
H1446 C1452 0.950 . S
H1447 C1453 0.950 . S
H1448 C1454 0.949 . S
C1449 H1444 0.950 . S
C1449 C1451 1.327 . S
C1449 C1455 1.429 . S
C1450 C1442 1.574 . S
C1450 H1445 0.949 . S
C1450 C1456 1.368 . S
C1451 C1435 1.349 . S
C1451 H1443 0.950 . S
C1451 C1449 1.327 . S
C1452 C1440 1.349 . S
C1452 H1446 0.950 . S
C1452 C1453 1.327 . S
C1453 H1447 0.950 . S
C1453 C1452 1.327 . S
C1453 C1457 1.429 . S
C1454 C1437 1.574 . S
C1454 H1448 0.949 . S
C1454 C1458 1.368 . S
C1455 C1436 1.429 . S
C1455 C1449 1.429 . S
C1455 C1456 1.523 . S
C1456 C1437 1.368 . S
C1456 C1450 1.368 . S
C1456 C1455 1.523 . S
C1457 C1441 1.429 . S
C1457 C1453 1.429 . S
C1457 C1458 1.523 . S
C1458 C1442 1.368 . S
C1458 C1454 1.368 . S
C1458 C1457 1.523 . S
H1459 C1434 0.950 . S
H1460 C1436 0.950 . S
H1461 C1437 0.949 . S
H1462 C1439 0.950 . S
H1463 C1441 0.950 . S
C1464 C1465 1.349 . S
C1464 C1466 1.327 . S
C1464 H1489 0.950 . S
C1465 C1464 1.349 . S
C1465 C1481 1.349 . S
C1466 C1464 1.327 . S
C1466 C1485 1.429 . S
C1466 H1490 0.950 . S
C1467 C1484 1.574 . S
C1467 C1486 1.368 . S
C1467 H1491 0.949 . S
H1468 C1472 0.949 . S
C1469 C1470 1.349 . S
C1469 C1471 1.327 . S
C1469 H1492 0.950 . S
C1470 C1469 1.349 . S
C1470 C1482 1.349 . S
C1471 C1469 1.327 . S
C1471 C1487 1.429 . S
C1471 H1493 0.950 . S
C1472 H1468 0.949 . S
C1472 C1480 1.574 . S
C1472 C1488 1.368 . S
H1473 C1481 0.950 . S
H1474 C1479 0.950 . S
H1475 C1480 0.949 . S
H1476 C1482 0.950 . S
H1477 C1483 0.950 . S
H1478 C1484 0.949 . S
C1479 H1474 0.950 . S
C1479 C1481 1.327 . S
C1479 C1485 1.429 . S
C1480 C1472 1.574 . S
C1480 H1475 0.949 . S
C1480 C1486 1.368 . S
C1481 C1465 1.349 . S
C1481 H1473 0.950 . S
C1481 C1479 1.327 . S
C1482 C1470 1.349 . S
C1482 H1476 0.950 . S
C1482 C1483 1.327 . S
C1483 H1477 0.950 . S
C1483 C1482 1.327 . S
C1483 C1487 1.429 . S
C1484 C1467 1.574 . S
C1484 H1478 0.949 . S
C1484 C1488 1.368 . S
C1485 C1466 1.429 . S
C1485 C1479 1.429 . S
C1485 C1486 1.523 . S
C1486 C1467 1.368 . S
C1486 C1480 1.368 . S
C1486 C1485 1.523 . S
C1487 C1471 1.429 . S
C1487 C1483 1.429 . S
C1487 C1488 1.523 . S
C1488 C1472 1.368 . S
C1488 C1484 1.368 . S
C1488 C1487 1.523 . S
H1489 C1464 0.950 . S
H1490 C1466 0.950 . S
H1491 C1467 0.949 . S
H1492 C1469 0.950 . S
H1493 C1471 0.950 . S
C1494 C1495 1.349 . S
C1494 C1496 1.327 . S
C1494 H1519 0.950 . S
C1495 C1494 1.349 . S
C1495 C1511 1.349 . S
C1496 C1494 1.327 . S
C1496 C1515 1.429 . S
C1496 H1520 0.950 . S
C1497 C1514 1.574 . S
C1497 C1516 1.368 . S
C1497 H1521 0.949 . S
H1498 C1502 0.949 . S
C1499 C1500 1.349 . S
C1499 C1501 1.327 . S
C1499 H1522 0.950 . S
C1500 C1499 1.349 . S
C1500 C1512 1.349 . S
C1501 C1499 1.327 . S
C1501 C1517 1.429 . S
C1501 H1523 0.950 . S
C1502 H1498 0.949 . S
C1502 C1510 1.574 . S
C1502 C1518 1.368 . S
H1503 C1511 0.950 . S
H1504 C1509 0.950 . S
H1505 C1510 0.949 . S
H1506 C1512 0.950 . S
H1507 C1513 0.950 . S
H1508 C1514 0.949 . S
C1509 H1504 0.950 . S
C1509 C1511 1.327 . S
C1509 C1515 1.429 . S
C1510 C1502 1.574 . S
C1510 H1505 0.949 . S
C1510 C1516 1.368 . S
C1511 C1495 1.349 . S
C1511 H1503 0.950 . S
C1511 C1509 1.327 . S
C1512 C1500 1.349 . S
C1512 H1506 0.950 . S
C1512 C1513 1.327 . S
C1513 H1507 0.950 . S
C1513 C1512 1.327 . S
C1513 C1517 1.429 . S
C1514 C1497 1.574 . S
C1514 H1508 0.949 . S
C1514 C1518 1.368 . S
C1515 C1496 1.429 . S
C1515 C1509 1.429 . S
C1515 C1516 1.523 . S
C1516 C1497 1.368 . S
C1516 C1510 1.368 . S
C1516 C1515 1.523 . S
C1517 C1501 1.429 . S
C1517 C1513 1.429 . S
C1517 C1518 1.523 . S
C1518 C1502 1.368 . S
C1518 C1514 1.368 . S
C1518 C1517 1.523 . S
H1519 C1494 0.950 . S
H1520 C1496 0.950 . S
H1521 C1497 0.949 . S
H1522 C1499 0.950 . S
H1523 C1501 0.950 . S
C1524 C1525 1.349 . S
C1524 C1526 1.327 . S
C1524 H1549 0.950 . S
C1525 C1524 1.349 . S
C1525 C1541 1.349 . S
C1526 C1524 1.327 . S
C1526 C1545 1.429 . S
C1526 H1550 0.950 . S
C1527 C1544 1.574 . S
C1527 C1546 1.368 . S
C1527 H1551 0.949 . S
H1528 C1532 0.949 . S
C1529 C1530 1.349 . S
C1529 C1531 1.327 . S
C1529 H1552 0.950 . S
C1530 C1529 1.349 . S
C1530 C1542 1.349 . S
C1531 C1529 1.327 . S
C1531 C1547 1.429 . S
C1531 H1553 0.950 . S
C1532 H1528 0.949 . S
C1532 C1540 1.574 . S
C1532 C1548 1.368 . S
H1533 C1541 0.950 . S
H1534 C1539 0.950 . S
H1535 C1540 0.949 . S
H1536 C1542 0.950 . S
H1537 C1543 0.950 . S
H1538 C1544 0.949 . S
C1539 H1534 0.950 . S
C1539 C1541 1.327 . S
C1539 C1545 1.429 . S
C1540 C1532 1.574 . S
C1540 H1535 0.949 . S
C1540 C1546 1.368 . S
C1541 C1525 1.349 . S
C1541 H1533 0.950 . S
C1541 C1539 1.327 . S
C1542 C1530 1.349 . S
C1542 H1536 0.950 . S
C1542 C1543 1.327 . S
C1543 H1537 0.950 . S
C1543 C1542 1.327 . S
C1543 C1547 1.429 . S
C1544 C1527 1.574 . S
C1544 H1538 0.949 . S
C1544 C1548 1.368 . S
C1545 C1526 1.429 . S
C1545 C1539 1.429 . S
C1545 C1546 1.523 . S
C1546 C1527 1.368 . S
C1546 C1540 1.368 . S
C1546 C1545 1.523 . S
C1547 C1531 1.429 . S
C1547 C1543 1.429 . S
C1547 C1548 1.523 . S
C1548 C1532 1.368 . S
C1548 C1544 1.368 . S
C1548 C1547 1.523 . S
H1549 C1524 0.950 . S
H1550 C1526 0.950 . S
H1551 C1527 0.949 . S
H1552 C1529 0.950 . S
H1553 C1531 0.950 . S
C1554 C1555 1.349 . S
C1554 C1556 1.327 . S
C1554 H1579 0.950 . S
C1555 C1554 1.349 . S
C1555 C1571 1.349 . S
C1556 C1554 1.327 . S
C1556 C1575 1.429 . S
C1556 H1580 0.950 . S
C1557 C1574 1.574 . S
C1557 C1576 1.368 . S
C1557 H1581 0.949 . S
H1558 C1562 0.949 . S
C1559 C1560 1.349 . S
C1559 C1561 1.327 . S
C1559 H1582 0.950 . S
C1560 C1559 1.349 . S
C1560 C1572 1.349 . S
C1561 C1559 1.327 . S
C1561 C1577 1.429 . S
C1561 H1583 0.950 . S
C1562 H1558 0.949 . S
C1562 C1570 1.574 . S
C1562 C1578 1.368 . S
H1563 C1571 0.950 . S
H1564 C1569 0.950 . S
H1565 C1570 0.949 . S
H1566 C1572 0.950 . S
H1567 C1573 0.950 . S
H1568 C1574 0.949 . S
C1569 H1564 0.950 . S
C1569 C1571 1.327 . S
C1569 C1575 1.429 . S
C1570 C1562 1.574 . S
C1570 H1565 0.949 . S
C1570 C1576 1.368 . S
C1571 C1555 1.349 . S
C1571 H1563 0.950 . S
C1571 C1569 1.327 . S
C1572 C1560 1.349 . S
C1572 H1566 0.950 . S
C1572 C1573 1.327 . S
C1573 H1567 0.950 . S
C1573 C1572 1.327 . S
C1573 C1577 1.429 . S
C1574 C1557 1.574 . S
C1574 H1568 0.949 . S
C1574 C1578 1.368 . S
C1575 C1556 1.429 . S
C1575 C1569 1.429 . S
C1575 C1576 1.523 . S
C1576 C1557 1.368 . S
C1576 C1570 1.368 . S
C1576 C1575 1.523 . S
C1577 C1561 1.429 . S
C1577 C1573 1.429 . S
C1577 C1578 1.523 . S
C1578 C1562 1.368 . S
C1578 C1574 1.368 . S
C1578 C1577 1.523 . S
H1579 C1554 0.950 . S
H1580 C1556 0.950 . S
H1581 C1557 0.949 . S
H1582 C1559 0.950 . S
H1583 C1561 0.950 . S
C1584 C1585 1.349 . S
C1584 C1586 1.327 . S
C1584 H1609 0.950 . S
C1585 C1584 1.349 . S
C1585 C1601 1.349 . S
C1586 C1584 1.327 . S
C1586 C1605 1.429 . S
C1586 H1610 0.950 . S
C1587 C1604 1.574 . S
C1587 C1606 1.368 . S
C1587 H1611 0.949 . S
H1588 C1592 0.949 . S
C1589 C1590 1.349 . S
C1589 C1591 1.327 . S
C1589 H1612 0.950 . S
C1590 C1589 1.349 . S
C1590 C1602 1.349 . S
C1591 C1589 1.327 . S
C1591 C1607 1.429 . S
C1591 H1613 0.950 . S
C1592 H1588 0.949 . S
C1592 C1600 1.574 . S
C1592 C1608 1.368 . S
H1593 C1601 0.950 . S
H1594 C1599 0.950 . S
H1595 C1600 0.949 . S
H1596 C1602 0.950 . S
H1597 C1603 0.950 . S
H1598 C1604 0.949 . S
C1599 H1594 0.950 . S
C1599 C1601 1.327 . S
C1599 C1605 1.429 . S
C1600 C1592 1.574 . S
C1600 H1595 0.949 . S
C1600 C1606 1.368 . S
C1601 C1585 1.349 . S
C1601 H1593 0.950 . S
C1601 C1599 1.327 . S
C1602 C1590 1.349 . S
C1602 H1596 0.950 . S
C1602 C1603 1.327 . S
C1603 H1597 0.950 . S
C1603 C1602 1.327 . S
C1603 C1607 1.429 . S
C1604 C1587 1.574 . S
C1604 H1598 0.949 . S
C1604 C1608 1.368 . S
C1605 C1586 1.429 . S
C1605 C1599 1.429 . S
C1605 C1606 1.523 . S
C1606 C1587 1.368 . S
C1606 C1600 1.368 . S
C1606 C1605 1.523 . S
C1607 C1591 1.429 . S
C1607 C1603 1.429 . S
C1607 C1608 1.523 . S
C1608 C1592 1.368 . S
C1608 C1604 1.368 . S
C1608 C1607 1.523 . S
H1609 C1584 0.950 . S
H1610 C1586 0.950 . S
H1611 C1587 0.949 . S
H1612 C1589 0.950 . S
H1613 C1591 0.950 . S
C1614 C1615 1.349 . S
C1614 C1616 1.327 . S
C1614 H1639 0.950 . S
C1615 C1614 1.349 . S
C1615 C1631 1.349 . S
C1616 C1614 1.327 . S
C1616 C1635 1.429 . S
C1616 H1640 0.950 . S
C1617 C1634 1.574 . S
C1617 C1636 1.368 . S
C1617 H1641 0.949 . S
H1618 C1622 0.949 . S
C1619 C1620 1.349 . S
C1619 C1621 1.327 . S
C1619 H1642 0.950 . S
C1620 C1619 1.349 . S
C1620 C1632 1.349 . S
C1621 C1619 1.327 . S
C1621 C1637 1.429 . S
C1621 H1643 0.950 . S
C1622 H1618 0.949 . S
C1622 C1630 1.574 . S
C1622 C1638 1.368 . S
H1623 C1631 0.950 . S
H1624 C1629 0.950 . S
H1625 C1630 0.949 . S
H1626 C1632 0.950 . S
H1627 C1633 0.950 . S
H1628 C1634 0.949 . S
C1629 H1624 0.950 . S
C1629 C1631 1.327 . S
C1629 C1635 1.429 . S
C1630 C1622 1.574 . S
C1630 H1625 0.949 . S
C1630 C1636 1.368 . S
C1631 C1615 1.349 . S
C1631 H1623 0.950 . S
C1631 C1629 1.327 . S
C1632 C1620 1.349 . S
C1632 H1626 0.950 . S
C1632 C1633 1.327 . S
C1633 H1627 0.950 . S
C1633 C1632 1.327 . S
C1633 C1637 1.429 . S
C1634 C1617 1.574 . S
C1634 H1628 0.949 . S
C1634 C1638 1.368 . S
C1635 C1616 1.429 . S
C1635 C1629 1.429 . S
C1635 C1636 1.523 . S
C1636 C1617 1.368 . S
C1636 C1630 1.368 . S
C1636 C1635 1.523 . S
C1637 C1621 1.429 . S
C1637 C1633 1.429 . S
C1637 C1638 1.523 . S
C1638 C1622 1.368 . S
C1638 C1634 1.368 . S
C1638 C1637 1.523 . S
H1639 C1614 0.950 . S
H1640 C1616 0.950 . S
H1641 C1617 0.949 . S
H1642 C1619 0.950 . S
H1643 C1621 0.950 . S
C1644 C1645 1.349 . S
C1644 C1646 1.327 . S
C1644 H1669 0.950 . S
C1645 C1644 1.349 . S
C1645 C1661 1.349 . S
C1646 C1644 1.327 . S
C1646 C1665 1.429 . S
C1646 H1670 0.950 . S
C1647 C1664 1.574 . S
C1647 C1666 1.368 . S
C1647 H1671 0.949 . S
H1648 C1652 0.949 . S
C1649 C1650 1.349 . S
C1649 C1651 1.327 . S
C1649 H1672 0.950 . S
C1650 C1649 1.349 . S
C1650 C1662 1.349 . S
C1651 C1649 1.327 . S
C1651 C1667 1.429 . S
C1651 H1673 0.950 . S
C1652 H1648 0.949 . S
C1652 C1660 1.574 . S
C1652 C1668 1.368 . S
H1653 C1661 0.950 . S
H1654 C1659 0.950 . S
H1655 C1660 0.949 . S
H1656 C1662 0.950 . S
H1657 C1663 0.950 . S
H1658 C1664 0.949 . S
C1659 H1654 0.950 . S
C1659 C1661 1.327 . S
C1659 C1665 1.429 . S
C1660 C1652 1.574 . S
C1660 H1655 0.949 . S
C1660 C1666 1.368 . S
C1661 C1645 1.349 . S
C1661 H1653 0.950 . S
C1661 C1659 1.327 . S
C1662 C1650 1.349 . S
C1662 H1656 0.950 . S
C1662 C1663 1.327 . S
C1663 H1657 0.950 . S
C1663 C1662 1.327 . S
C1663 C1667 1.429 . S
C1664 C1647 1.574 . S
C1664 H1658 0.949 . S
C1664 C1668 1.368 . S
C1665 C1646 1.429 . S
C1665 C1659 1.429 . S
C1665 C1666 1.523 . S
C1666 C1647 1.368 . S
C1666 C1660 1.368 . S
C1666 C1665 1.523 . S
C1667 C1651 1.429 . S
C1667 C1663 1.429 . S
C1667 C1668 1.523 . S
C1668 C1652 1.368 . S
C1668 C1664 1.368 . S
C1668 C1667 1.523 . S
H1669 C1644 0.950 . S
H1670 C1646 0.950 . S
H1671 C1647 0.949 . S
H1672 C1649 0.950 . S
H1673 C1651 0.950 . S
C1674 C1675 1.349 . S
C1674 C1676 1.327 . S
C1674 H1699 0.950 . S
C1675 C1674 1.349 . S
C1675 C1691 1.349 . S
C1676 C1674 1.327 . S
C1676 C1695 1.429 . S
C1676 H1700 0.950 . S
C1677 C1694 1.574 . S
C1677 C1696 1.368 . S
C1677 H1701 0.949 . S
H1678 C1682 0.949 . S
C1679 C1680 1.349 . S
C1679 C1681 1.327 . S
C1679 H1702 0.950 . S
C1680 C1679 1.349 . S
C1680 C1692 1.349 . S
C1681 C1679 1.327 . S
C1681 C1697 1.429 . S
C1681 H1703 0.950 . S
C1682 H1678 0.949 . S
C1682 C1690 1.574 . S
C1682 C1698 1.368 . S
H1683 C1691 0.950 . S
H1684 C1689 0.950 . S
H1685 C1690 0.949 . S
H1686 C1692 0.950 . S
H1687 C1693 0.950 . S
H1688 C1694 0.949 . S
C1689 H1684 0.950 . S
C1689 C1691 1.327 . S
C1689 C1695 1.429 . S
C1690 C1682 1.574 . S
C1690 H1685 0.949 . S
C1690 C1696 1.368 . S
C1691 C1675 1.349 . S
C1691 H1683 0.950 . S
C1691 C1689 1.327 . S
C1692 C1680 1.349 . S
C1692 H1686 0.950 . S
C1692 C1693 1.327 . S
C1693 H1687 0.950 . S
C1693 C1692 1.327 . S
C1693 C1697 1.429 . S
C1694 C1677 1.574 . S
C1694 H1688 0.949 . S
C1694 C1698 1.368 . S
C1695 C1676 1.429 . S
C1695 C1689 1.429 . S
C1695 C1696 1.523 . S
C1696 C1677 1.368 . S
C1696 C1690 1.368 . S
C1696 C1695 1.523 . S
C1697 C1681 1.429 . S
C1697 C1693 1.429 . S
C1697 C1698 1.523 . S
C1698 C1682 1.368 . S
C1698 C1694 1.368 . S
C1698 C1697 1.523 . S
H1699 C1674 0.950 . S
H1700 C1676 0.950 . S
H1701 C1677 0.949 . S
H1702 C1679 0.950 . S
H1703 C1681 0.950 . S
C1704 C1705 1.349 . S
C1704 C1706 1.327 . S
C1704 H1729 0.950 . S
C1705 C1704 1.349 . S
C1705 C1721 1.349 . S
C1706 C1704 1.327 . S
C1706 C1725 1.429 . S
C1706 H1730 0.950 . S
C1707 C1724 1.574 . S
C1707 C1726 1.368 . S
C1707 H1731 0.949 . S
H1708 C1712 0.949 . S
C1709 C1710 1.349 . S
C1709 C1711 1.327 . S
C1709 H1732 0.950 . S
C1710 C1709 1.349 . S
C1710 C1722 1.349 . S
C1711 C1709 1.327 . S
C1711 C1727 1.429 . S
C1711 H1733 0.950 . S
C1712 H1708 0.949 . S
C1712 C1720 1.574 . S
C1712 C1728 1.368 . S
H1713 C1721 0.950 . S
H1714 C1719 0.950 . S
H1715 C1720 0.949 . S
H1716 C1722 0.950 . S
H1717 C1723 0.950 . S
H1718 C1724 0.949 . S
C1719 H1714 0.950 . S
C1719 C1721 1.327 . S
C1719 C1725 1.429 . S
C1720 C1712 1.574 . S
C1720 H1715 0.949 . S
C1720 C1726 1.368 . S
C1721 C1705 1.349 . S
C1721 H1713 0.950 . S
C1721 C1719 1.327 . S
C1722 C1710 1.349 . S
C1722 H1716 0.950 . S
C1722 C1723 1.327 . S
C1723 H1717 0.950 . S
C1723 C1722 1.327 . S
C1723 C1727 1.429 . S
C1724 C1707 1.574 . S
C1724 H1718 0.949 . S
C1724 C1728 1.368 . S
C1725 C1706 1.429 . S
C1725 C1719 1.429 . S
C1725 C1726 1.523 . S
C1726 C1707 1.368 . S
C1726 C1720 1.368 . S
C1726 C1725 1.523 . S
C1727 C1711 1.429 . S
C1727 C1723 1.429 . S
C1727 C1728 1.523 . S
C1728 C1712 1.368 . S
C1728 C1724 1.368 . S
C1728 C1727 1.523 . S
H1729 C1704 0.950 . S
H1730 C1706 0.950 . S
H1731 C1707 0.949 . S
H1732 C1709 0.950 . S
H1733 C1711 0.950 . S
C1734 C1735 1.349 . S
C1734 C1736 1.327 . S
C1734 H1759 0.950 . S
C1735 C1734 1.349 . S
C1735 C1751 1.349 . S
C1736 C1734 1.327 . S
C1736 C1755 1.429 . S
C1736 H1760 0.950 . S
C1737 C1754 1.574 . S
C1737 C1756 1.368 . S
C1737 H1761 0.949 . S
H1738 C1742 0.949 . S
C1739 C1740 1.349 . S
C1739 C1741 1.327 . S
C1739 H1762 0.950 . S
C1740 C1739 1.349 . S
C1740 C1752 1.349 . S
C1741 C1739 1.327 . S
C1741 C1757 1.429 . S
C1741 H1763 0.950 . S
C1742 H1738 0.949 . S
C1742 C1750 1.574 . S
C1742 C1758 1.368 . S
H1743 C1751 0.950 . S
H1744 C1749 0.950 . S
H1745 C1750 0.949 . S
H1746 C1752 0.950 . S
H1747 C1753 0.950 . S
H1748 C1754 0.949 . S
C1749 H1744 0.950 . S
C1749 C1751 1.327 . S
C1749 C1755 1.429 . S
C1750 C1742 1.574 . S
C1750 H1745 0.949 . S
C1750 C1756 1.368 . S
C1751 C1735 1.349 . S
C1751 H1743 0.950 . S
C1751 C1749 1.327 . S
C1752 C1740 1.349 . S
C1752 H1746 0.950 . S
C1752 C1753 1.327 . S
C1753 H1747 0.950 . S
C1753 C1752 1.327 . S
C1753 C1757 1.429 . S
C1754 C1737 1.574 . S
C1754 H1748 0.949 . S
C1754 C1758 1.368 . S
C1755 C1736 1.429 . S
C1755 C1749 1.429 . S
C1755 C1756 1.523 . S
C1756 C1737 1.368 . S
C1756 C1750 1.368 . S
C1756 C1755 1.523 . S
C1757 C1741 1.429 . S
C1757 C1753 1.429 . S
C1757 C1758 1.523 . S
C1758 C1742 1.368 . S
C1758 C1754 1.368 . S
C1758 C1757 1.523 . S
H1759 C1734 0.950 . S
H1760 C1736 0.950 . S
H1761 C1737 0.949 . S
H1762 C1739 0.950 . S
H1763 C1741 0.950 . S
C1764 C1765 1.349 . S
C1764 C1766 1.327 . S
C1764 H1789 0.950 . S
C1765 C1764 1.349 . S
C1765 C1781 1.349 . S
C1766 C1764 1.327 . S
C1766 C1785 1.429 . S
C1766 H1790 0.950 . S
C1767 C1784 1.574 . S
C1767 C1786 1.368 . S
C1767 H1791 0.949 . S
H1768 C1772 0.949 . S
C1769 C1770 1.349 . S
C1769 C1771 1.327 . S
C1769 H1792 0.950 . S
C1770 C1769 1.349 . S
C1770 C1782 1.349 . S
C1771 C1769 1.327 . S
C1771 C1787 1.429 . S
C1771 H1793 0.950 . S
C1772 H1768 0.949 . S
C1772 C1780 1.574 . S
C1772 C1788 1.368 . S
H1773 C1781 0.950 . S
H1774 C1779 0.950 . S
H1775 C1780 0.949 . S
H1776 C1782 0.950 . S
H1777 C1783 0.950 . S
H1778 C1784 0.949 . S
C1779 H1774 0.950 . S
C1779 C1781 1.327 . S
C1779 C1785 1.429 . S
C1780 C1772 1.574 . S
C1780 H1775 0.949 . S
C1780 C1786 1.368 . S
C1781 C1765 1.349 . S
C1781 H1773 0.950 . S
C1781 C1779 1.327 . S
C1782 C1770 1.349 . S
C1782 H1776 0.950 . S
C1782 C1783 1.327 . S
C1783 H1777 0.950 . S
C1783 C1782 1.327 . S
C1783 C1787 1.429 . S
C1784 C1767 1.574 . S
C1784 H1778 0.949 . S
C1784 C1788 1.368 . S
C1785 C1766 1.429 . S
C1785 C1779 1.429 . S
C1785 C1786 1.523 . S
C1786 C1767 1.368 . S
C1786 C1780 1.368 . S
C1786 C1785 1.523 . S
C1787 C1771 1.429 . S
C1787 C1783 1.429 . S
C1787 C1788 1.523 . S
C1788 C1772 1.368 . S
C1788 C1784 1.368 . S
C1788 C1787 1.523 . S
H1789 C1764 0.950 . S
H1790 C1766 0.950 . S
H1791 C1767 0.949 . S
H1792 C1769 0.950 . S
H1793 C1771 0.950 . S
C1794 C1795 1.349 . S
C1794 C1796 1.327 . S
C1794 H1819 0.950 . S
C1795 C1794 1.349 . S
C1795 C1811 1.349 . S
C1796 C1794 1.327 . S
C1796 C1815 1.429 . S
C1796 H1820 0.950 . S
C1797 C1814 1.574 . S
C1797 C1816 1.368 . S
C1797 H1821 0.949 . S
H1798 C1802 0.949 . S
C1799 C1800 1.349 . S
C1799 C1801 1.327 . S
C1799 H1822 0.950 . S
C1800 C1799 1.349 . S
C1800 C1812 1.349 . S
C1801 C1799 1.327 . S
C1801 C1817 1.429 . S
C1801 H1823 0.950 . S
C1802 H1798 0.949 . S
C1802 C1810 1.574 . S
C1802 C1818 1.368 . S
H1803 C1811 0.950 . S
H1804 C1809 0.950 . S
H1805 C1810 0.949 . S
H1806 C1812 0.950 . S
H1807 C1813 0.950 . S
H1808 C1814 0.949 . S
C1809 H1804 0.950 . S
C1809 C1811 1.327 . S
C1809 C1815 1.429 . S
C1810 C1802 1.574 . S
C1810 H1805 0.949 . S
C1810 C1816 1.368 . S
C1811 C1795 1.349 . S
C1811 H1803 0.950 . S
C1811 C1809 1.327 . S
C1812 C1800 1.349 . S
C1812 H1806 0.950 . S
C1812 C1813 1.327 . S
C1813 H1807 0.950 . S
C1813 C1812 1.327 . S
C1813 C1817 1.429 . S
C1814 C1797 1.574 . S
C1814 H1808 0.949 . S
C1814 C1818 1.368 . S
C1815 C1796 1.429 . S
C1815 C1809 1.429 . S
C1815 C1816 1.523 . S
C1816 C1797 1.368 . S
C1816 C1810 1.368 . S
C1816 C1815 1.523 . S
C1817 C1801 1.429 . S
C1817 C1813 1.429 . S
C1817 C1818 1.523 . S
C1818 C1802 1.368 . S
C1818 C1814 1.368 . S
C1818 C1817 1.523 . S
H1819 C1794 0.950 . S
H1820 C1796 0.950 . S
H1821 C1797 0.949 . S
H1822 C1799 0.950 . S
H1823 C1801 0.950 . S
C1824 C1825 1.349 . S
C1824 C1826 1.327 . S
C1824 H1849 0.950 . S
C1825 C1824 1.349 . S
C1825 C1841 1.349 . S
C1826 C1824 1.327 . S
C1826 C1845 1.429 . S
C1826 H1850 0.950 . S
C1827 C1844 1.574 . S
C1827 C1846 1.368 . S
C1827 H1851 0.949 . S
H1828 C1832 0.949 . S
C1829 C1830 1.349 . S
C1829 C1831 1.327 . S
C1829 H1852 0.950 . S
C1830 C1829 1.349 . S
C1830 C1842 1.349 . S
C1831 C1829 1.327 . S
C1831 C1847 1.429 . S
C1831 H1853 0.950 . S
C1832 H1828 0.949 . S
C1832 C1840 1.574 . S
C1832 C1848 1.368 . S
H1833 C1841 0.950 . S
H1834 C1839 0.950 . S
H1835 C1840 0.949 . S
H1836 C1842 0.950 . S
H1837 C1843 0.950 . S
H1838 C1844 0.949 . S
C1839 H1834 0.950 . S
C1839 C1841 1.327 . S
C1839 C1845 1.429 . S
C1840 C1832 1.574 . S
C1840 H1835 0.949 . S
C1840 C1846 1.368 . S
C1841 C1825 1.349 . S
C1841 H1833 0.950 . S
C1841 C1839 1.327 . S
C1842 C1830 1.349 . S
C1842 H1836 0.950 . S
C1842 C1843 1.327 . S
C1843 H1837 0.950 . S
C1843 C1842 1.327 . S
C1843 C1847 1.429 . S
C1844 C1827 1.574 . S
C1844 H1838 0.949 . S
C1844 C1848 1.368 . S
C1845 C1826 1.429 . S
C1845 C1839 1.429 . S
C1845 C1846 1.523 . S
C1846 C1827 1.368 . S
C1846 C1840 1.368 . S
C1846 C1845 1.523 . S
C1847 C1831 1.429 . S
C1847 C1843 1.429 . S
C1847 C1848 1.523 . S
C1848 C1832 1.368 . S
C1848 C1844 1.368 . S
C1848 C1847 1.523 . S
H1849 C1824 0.950 . S
H1850 C1826 0.950 . S
H1851 C1827 0.949 . S
H1852 C1829 0.950 . S
H1853 C1831 0.950 . S
C1854 C1855 1.349 . S
C1854 C1856 1.327 . S
C1854 H1879 0.950 . S
C1855 C1854 1.349 . S
C1855 C1871 1.349 . S
C1856 C1854 1.327 . S
C1856 C1875 1.429 . S
C1856 H1880 0.950 . S
C1857 C1874 1.574 . S
C1857 C1876 1.368 . S
C1857 H1881 0.949 . S
H1858 C1862 0.949 . S
C1859 C1860 1.349 . S
C1859 C1861 1.327 . S
C1859 H1882 0.950 . S
C1860 C1859 1.349 . S
C1860 C1872 1.349 . S
C1861 C1859 1.327 . S
C1861 C1877 1.429 . S
C1861 H1883 0.950 . S
C1862 H1858 0.949 . S
C1862 C1870 1.574 . S
C1862 C1878 1.368 . S
H1863 C1871 0.950 . S
H1864 C1869 0.950 . S
H1865 C1870 0.949 . S
H1866 C1872 0.950 . S
H1867 C1873 0.950 . S
H1868 C1874 0.949 . S
C1869 H1864 0.950 . S
C1869 C1871 1.327 . S
C1869 C1875 1.429 . S
C1870 C1862 1.574 . S
C1870 H1865 0.949 . S
C1870 C1876 1.368 . S
C1871 C1855 1.349 . S
C1871 H1863 0.950 . S
C1871 C1869 1.327 . S
C1872 C1860 1.349 . S
C1872 H1866 0.950 . S
C1872 C1873 1.327 . S
C1873 H1867 0.950 . S
C1873 C1872 1.327 . S
C1873 C1877 1.429 . S
C1874 C1857 1.574 . S
C1874 H1868 0.949 . S
C1874 C1878 1.368 . S
C1875 C1856 1.429 . S
C1875 C1869 1.429 . S
C1875 C1876 1.523 . S
C1876 C1857 1.368 . S
C1876 C1870 1.368 . S
C1876 C1875 1.523 . S
C1877 C1861 1.429 . S
C1877 C1873 1.429 . S
C1877 C1878 1.523 . S
C1878 C1862 1.368 . S
C1878 C1874 1.368 . S
C1878 C1877 1.523 . S
H1879 C1854 0.950 . S
H1880 C1856 0.950 . S
H1881 C1857 0.949 . S
H1882 C1859 0.950 . S
H1883 C1861 0.950 . S
C1884 C1885 1.349 . S
C1884 C1886 1.327 . S
C1884 H1909 0.950 . S
C1885 C1884 1.349 . S
C1885 C1901 1.349 . S
C1886 C1884 1.327 . S
C1886 C1905 1.429 . S
C1886 H1910 0.950 . S
C1887 C1904 1.574 . S
C1887 C1906 1.368 . S
C1887 H1911 0.949 . S
H1888 C1892 0.949 . S
C1889 C1890 1.349 . S
C1889 C1891 1.327 . S
C1889 H1912 0.950 . S
C1890 C1889 1.349 . S
C1890 C1902 1.349 . S
C1891 C1889 1.327 . S
C1891 C1907 1.429 . S
C1891 H1913 0.950 . S
C1892 H1888 0.949 . S
C1892 C1900 1.574 . S
C1892 C1908 1.368 . S
H1893 C1901 0.950 . S
H1894 C1899 0.950 . S
H1895 C1900 0.949 . S
H1896 C1902 0.950 . S
H1897 C1903 0.950 . S
H1898 C1904 0.949 . S
C1899 H1894 0.950 . S
C1899 C1901 1.327 . S
C1899 C1905 1.429 . S
C1900 C1892 1.574 . S
C1900 H1895 0.949 . S
C1900 C1906 1.368 . S
C1901 C1885 1.349 . S
C1901 H1893 0.950 . S
C1901 C1899 1.327 . S
C1902 C1890 1.349 . S
C1902 H1896 0.950 . S
C1902 C1903 1.327 . S
C1903 H1897 0.950 . S
C1903 C1902 1.327 . S
C1903 C1907 1.429 . S
C1904 C1887 1.574 . S
C1904 H1898 0.949 . S
C1904 C1908 1.368 . S
C1905 C1886 1.429 . S
C1905 C1899 1.429 . S
C1905 C1906 1.523 . S
C1906 C1887 1.368 . S
C1906 C1900 1.368 . S
C1906 C1905 1.523 . S
C1907 C1891 1.429 . S
C1907 C1903 1.429 . S
C1907 C1908 1.523 . S
C1908 C1892 1.368 . S
C1908 C1904 1.368 . S
C1908 C1907 1.523 . S
H1909 C1884 0.950 . S
H1910 C1886 0.950 . S
H1911 C1887 0.949 . S
H1912 C1889 0.950 . S
H1913 C1891 0.950 . S
C1914 C1915 1.349 . S
C1914 C1916 1.327 . S
C1914 H1939 0.950 . S
C1915 C1914 1.349 . S
C1915 C1931 1.349 . S
C1916 C1914 1.327 . S
C1916 C1935 1.429 . S
C1916 H1940 0.950 . S
C1917 C1934 1.574 . S
C1917 C1936 1.368 . S
C1917 H1941 0.949 . S
H1918 C1922 0.949 . S
C1919 C1920 1.349 . S
C1919 C1921 1.327 . S
C1919 H1942 0.950 . S
C1920 C1919 1.349 . S
C1920 C1932 1.349 . S
C1921 C1919 1.327 . S
C1921 C1937 1.429 . S
C1921 H1943 0.950 . S
C1922 H1918 0.949 . S
C1922 C1930 1.574 . S
C1922 C1938 1.368 . S
H1923 C1931 0.950 . S
H1924 C1929 0.950 . S
H1925 C1930 0.949 . S
H1926 C1932 0.950 . S
H1927 C1933 0.950 . S
H1928 C1934 0.949 . S
C1929 H1924 0.950 . S
C1929 C1931 1.327 . S
C1929 C1935 1.429 . S
C1930 C1922 1.574 . S
C1930 H1925 0.949 . S
C1930 C1936 1.368 . S
C1931 C1915 1.349 . S
C1931 H1923 0.950 . S
C1931 C1929 1.327 . S
C1932 C1920 1.349 . S
C1932 H1926 0.950 . S
C1932 C1933 1.327 . S
C1933 H1927 0.950 . S
C1933 C1932 1.327 . S
C1933 C1937 1.429 . S
C1934 C1917 1.574 . S
C1934 H1928 0.949 . S
C1934 C1938 1.368 . S
C1935 C1916 1.429 . S
C1935 C1929 1.429 . S
C1935 C1936 1.523 . S
C1936 C1917 1.368 . S
C1936 C1930 1.368 . S
C1936 C1935 1.523 . S
C1937 C1921 1.429 . S
C1937 C1933 1.429 . S
C1937 C1938 1.523 . S
C1938 C1922 1.368 . S
C1938 C1934 1.368 . S
C1938 C1937 1.523 . S
H1939 C1914 0.950 . S
H1940 C1916 0.950 . S
H1941 C1917 0.949 . S
H1942 C1919 0.950 . S
H1943 C1921 0.950 . S
C1944 C1945 1.349 . S
C1944 C1946 1.327 . S
C1944 H1969 0.950 . S
C1945 C1944 1.349 . S
C1945 C1961 1.349 . S
C1946 C1944 1.327 . S
C1946 C1965 1.429 . S
C1946 H1970 0.950 . S
C1947 C1964 1.574 . S
C1947 C1966 1.368 . S
C1947 H1971 0.949 . S
H1948 C1952 0.949 . S
C1949 C1950 1.349 . S
C1949 C1951 1.327 . S
C1949 H1972 0.950 . S
C1950 C1949 1.349 . S
C1950 C1962 1.349 . S
C1951 C1949 1.327 . S
C1951 C1967 1.429 . S
C1951 H1973 0.950 . S
C1952 H1948 0.949 . S
C1952 C1960 1.574 . S
C1952 C1968 1.368 . S
H1953 C1961 0.950 . S
H1954 C1959 0.950 . S
H1955 C1960 0.949 . S
H1956 C1962 0.950 . S
H1957 C1963 0.950 . S
H1958 C1964 0.949 . S
C1959 H1954 0.950 . S
C1959 C1961 1.327 . S
C1959 C1965 1.429 . S
C1960 C1952 1.574 . S
C1960 H1955 0.949 . S
C1960 C1966 1.368 . S
C1961 C1945 1.349 . S
C1961 H1953 0.950 . S
C1961 C1959 1.327 . S
C1962 C1950 1.349 . S
C1962 H1956 0.950 . S
C1962 C1963 1.327 . S
C1963 H1957 0.950 . S
C1963 C1962 1.327 . S
C1963 C1967 1.429 . S
C1964 C1947 1.574 . S
C1964 H1958 0.949 . S
C1964 C1968 1.368 . S
C1965 C1946 1.429 . S
C1965 C1959 1.429 . S
C1965 C1966 1.523 . S
C1966 C1947 1.368 . S
C1966 C1960 1.368 . S
C1966 C1965 1.523 . S
C1967 C1951 1.429 . S
C1967 C1963 1.429 . S
C1967 C1968 1.523 . S
C1968 C1952 1.368 . S
C1968 C1964 1.368 . S
C1968 C1967 1.523 . S
H1969 C1944 0.950 . S
H1970 C1946 0.950 . S
H1971 C1947 0.949 . S
H1972 C1949 0.950 . S
H1973 C1951 0.950 . S
C1974 C1975 1.349 . S
C1974 C1976 1.327 . S
C1974 H1999 0.950 . S
C1975 C1974 1.349 . S
C1975 C1991 1.349 . S
C1976 C1974 1.327 . S
C1976 C1995 1.429 . S
C1976 H2000 0.950 . S
C1977 C1994 1.574 . S
C1977 C1996 1.368 . S
C1977 H2001 0.949 . S
H1978 C1982 0.949 . S
C1979 C1980 1.349 . S
C1979 C1981 1.327 . S
C1979 H2002 0.950 . S
C1980 C1979 1.349 . S
C1980 C1992 1.349 . S
C1981 C1979 1.327 . S
C1981 C1997 1.429 . S
C1981 H2003 0.950 . S
C1982 H1978 0.949 . S
C1982 C1990 1.574 . S
C1982 C1998 1.368 . S
H1983 C1991 0.950 . S
H1984 C1989 0.950 . S
H1985 C1990 0.949 . S
H1986 C1992 0.950 . S
H1987 C1993 0.950 . S
H1988 C1994 0.949 . S
C1989 H1984 0.950 . S
C1989 C1991 1.327 . S
C1989 C1995 1.429 . S
C1990 C1982 1.574 . S
C1990 H1985 0.949 . S
C1990 C1996 1.368 . S
C1991 C1975 1.349 . S
C1991 H1983 0.950 . S
C1991 C1989 1.327 . S
C1992 C1980 1.349 . S
C1992 H1986 0.950 . S
C1992 C1993 1.327 . S
C1993 H1987 0.950 . S
C1993 C1992 1.327 . S
C1993 C1997 1.429 . S
C1994 C1977 1.574 . S
C1994 H1988 0.949 . S
C1994 C1998 1.368 . S
C1995 C1976 1.429 . S
C1995 C1989 1.429 . S
C1995 C1996 1.523 . S
C1996 C1977 1.368 . S
C1996 C1990 1.368 . S
C1996 C1995 1.523 . S
C1997 C1981 1.429 . S
C1997 C1993 1.429 . S
C1997 C1998 1.523 . S
C1998 C1982 1.368 . S
C1998 C1994 1.368 . S
C1998 C1997 1.523 . S
H1999 C1974 0.950 . S
H2000 C1976 0.950 . S
H2001 C1977 0.949 . S
H2002 C1979 0.950 . S
H2003 C1981 0.950 . S
C2004 C2005 1.349 . S
C2004 C2006 1.327 . S
C2004 H2029 0.950 . S
C2005 C2004 1.349 . S
C2005 C2021 1.349 . S
C2006 C2004 1.327 . S
C2006 C2025 1.429 . S
C2006 H2030 0.950 . S
C2007 C2024 1.574 . S
C2007 C2026 1.368 . S
C2007 H2031 0.949 . S
H2008 C2012 0.949 . S
C2009 C2010 1.349 . S
C2009 C2011 1.327 . S
C2009 H2032 0.950 . S
C2010 C2009 1.349 . S
C2010 C2022 1.349 . S
C2011 C2009 1.327 . S
C2011 C2027 1.429 . S
C2011 H2033 0.950 . S
C2012 H2008 0.949 . S
C2012 C2020 1.574 . S
C2012 C2028 1.368 . S
H2013 C2021 0.950 . S
H2014 C2019 0.950 . S
H2015 C2020 0.949 . S
H2016 C2022 0.950 . S
H2017 C2023 0.950 . S
H2018 C2024 0.949 . S
C2019 H2014 0.950 . S
C2019 C2021 1.327 . S
C2019 C2025 1.429 . S
C2020 C2012 1.574 . S
C2020 H2015 0.949 . S
C2020 C2026 1.368 . S
C2021 C2005 1.349 . S
C2021 H2013 0.950 . S
C2021 C2019 1.327 . S
C2022 C2010 1.349 . S
C2022 H2016 0.950 . S
C2022 C2023 1.327 . S
C2023 H2017 0.950 . S
C2023 C2022 1.327 . S
C2023 C2027 1.429 . S
C2024 C2007 1.574 . S
C2024 H2018 0.949 . S
C2024 C2028 1.368 . S
C2025 C2006 1.429 . S
C2025 C2019 1.429 . S
C2025 C2026 1.523 . S
C2026 C2007 1.368 . S
C2026 C2020 1.368 . S
C2026 C2025 1.523 . S
C2027 C2011 1.429 . S
C2027 C2023 1.429 . S
C2027 C2028 1.523 . S
C2028 C2012 1.368 . S
C2028 C2024 1.368 . S
C2028 C2027 1.523 . S
H2029 C2004 0.950 . S
H2030 C2006 0.950 . S
H2031 C2007 0.949 . S
H2032 C2009 0.950 . S
H2033 C2011 0.950 . S
C2034 C2035 1.349 . S
C2034 C2036 1.327 . S
C2034 H2059 0.950 . S
C2035 C2034 1.349 . S
C2035 C2051 1.349 . S
C2036 C2034 1.327 . S
C2036 C2055 1.429 . S
C2036 H2060 0.950 . S
C2037 C2054 1.574 . S
C2037 C2056 1.368 . S
C2037 H2061 0.949 . S
H2038 C2042 0.949 . S
C2039 C2040 1.349 . S
C2039 C2041 1.327 . S
C2039 H2062 0.950 . S
C2040 C2039 1.349 . S
C2040 C2052 1.349 . S
C2041 C2039 1.327 . S
C2041 C2057 1.429 . S
C2041 H2063 0.950 . S
C2042 H2038 0.949 . S
C2042 C2050 1.574 . S
C2042 C2058 1.368 . S
H2043 C2051 0.950 . S
H2044 C2049 0.950 . S
H2045 C2050 0.949 . S
H2046 C2052 0.950 . S
H2047 C2053 0.950 . S
H2048 C2054 0.949 . S
C2049 H2044 0.950 . S
C2049 C2051 1.327 . S
C2049 C2055 1.429 . S
C2050 C2042 1.574 . S
C2050 H2045 0.949 . S
C2050 C2056 1.368 . S
C2051 C2035 1.349 . S
C2051 H2043 0.950 . S
C2051 C2049 1.327 . S
C2052 C2040 1.349 . S
C2052 H2046 0.950 . S
C2052 C2053 1.327 . S
C2053 H2047 0.950 . S
C2053 C2052 1.327 . S
C2053 C2057 1.429 . S
C2054 C2037 1.574 . S
C2054 H2048 0.949 . S
C2054 C2058 1.368 . S
C2055 C2036 1.429 . S
C2055 C2049 1.429 . S
C2055 C2056 1.523 . S
C2056 C2037 1.368 . S
C2056 C2050 1.368 . S
C2056 C2055 1.523 . S
C2057 C2041 1.429 . S
C2057 C2053 1.429 . S
C2057 C2058 1.523 . S
C2058 C2042 1.368 . S
C2058 C2054 1.368 . S
C2058 C2057 1.523 . S
H2059 C2034 0.950 . S
H2060 C2036 0.950 . S
H2061 C2037 0.949 . S
H2062 C2039 0.950 . S
H2063 C2041 0.950 . S
C2064 C2065 1.349 . S
C2064 C2066 1.327 . S
C2064 H2089 0.950 . S
C2065 C2064 1.349 . S
C2065 C2081 1.349 . S
C2066 C2064 1.327 . S
C2066 C2085 1.429 . S
C2066 H2090 0.950 . S
C2067 C2084 1.574 . S
C2067 C2086 1.368 . S
C2067 H2091 0.949 . S
H2068 C2072 0.949 . S
C2069 C2070 1.349 . S
C2069 C2071 1.327 . S
C2069 H2092 0.950 . S
C2070 C2069 1.349 . S
C2070 C2082 1.349 . S
C2071 C2069 1.327 . S
C2071 C2087 1.429 . S
C2071 H2093 0.950 . S
C2072 H2068 0.949 . S
C2072 C2080 1.574 . S
C2072 C2088 1.368 . S
H2073 C2081 0.950 . S
H2074 C2079 0.950 . S
H2075 C2080 0.949 . S
H2076 C2082 0.950 . S
H2077 C2083 0.950 . S
H2078 C2084 0.949 . S
C2079 H2074 0.950 . S
C2079 C2081 1.327 . S
C2079 C2085 1.429 . S
C2080 C2072 1.574 . S
C2080 H2075 0.949 . S
C2080 C2086 1.368 . S
C2081 C2065 1.349 . S
C2081 H2073 0.950 . S
C2081 C2079 1.327 . S
C2082 C2070 1.349 . S
C2082 H2076 0.950 . S
C2082 C2083 1.327 . S
C2083 H2077 0.950 . S
C2083 C2082 1.327 . S
C2083 C2087 1.429 . S
C2084 C2067 1.574 . S
C2084 H2078 0.949 . S
C2084 C2088 1.368 . S
C2085 C2066 1.429 . S
C2085 C2079 1.429 . S
C2085 C2086 1.523 . S
C2086 C2067 1.368 . S
C2086 C2080 1.368 . S
C2086 C2085 1.523 . S
C2087 C2071 1.429 . S
C2087 C2083 1.429 . S
C2087 C2088 1.523 . S
C2088 C2072 1.368 . S
C2088 C2084 1.368 . S
C2088 C2087 1.523 . S
H2089 C2064 0.950 . S
H2090 C2066 0.950 . S
H2091 C2067 0.949 . S
H2092 C2069 0.950 . S
H2093 C2071 0.950 . S
C2094 C2095 1.349 . S
C2094 C2096 1.327 . S
C2094 H2119 0.950 . S
C2095 C2094 1.349 . S
C2095 C2111 1.349 . S
C2096 C2094 1.327 . S
C2096 C2115 1.429 . S
C2096 H2120 0.950 . S
C2097 C2114 1.574 . S
C2097 C2116 1.368 . S
C2097 H2121 0.949 . S
H2098 C2102 0.949 . S
C2099 C2100 1.349 . S
C2099 C2101 1.327 . S
C2099 H2122 0.950 . S
C2100 C2099 1.349 . S
C2100 C2112 1.349 . S
C2101 C2099 1.327 . S
C2101 C2117 1.429 . S
C2101 H2123 0.950 . S
C2102 H2098 0.949 . S
C2102 C2110 1.574 . S
C2102 C2118 1.368 . S
H2103 C2111 0.950 . S
H2104 C2109 0.950 . S
H2105 C2110 0.949 . S
H2106 C2112 0.950 . S
H2107 C2113 0.950 . S
H2108 C2114 0.949 . S
C2109 H2104 0.950 . S
C2109 C2111 1.327 . S
C2109 C2115 1.429 . S
C2110 C2102 1.574 . S
C2110 H2105 0.949 . S
C2110 C2116 1.368 . S
C2111 C2095 1.349 . S
C2111 H2103 0.950 . S
C2111 C2109 1.327 . S
C2112 C2100 1.349 . S
C2112 H2106 0.950 . S
C2112 C2113 1.327 . S
C2113 H2107 0.950 . S
C2113 C2112 1.327 . S
C2113 C2117 1.429 . S
C2114 C2097 1.574 . S
C2114 H2108 0.949 . S
C2114 C2118 1.368 . S
C2115 C2096 1.429 . S
C2115 C2109 1.429 . S
C2115 C2116 1.523 . S
C2116 C2097 1.368 . S
C2116 C2110 1.368 . S
C2116 C2115 1.523 . S
C2117 C2101 1.429 . S
C2117 C2113 1.429 . S
C2117 C2118 1.523 . S
C2118 C2102 1.368 . S
C2118 C2114 1.368 . S
C2118 C2117 1.523 . S
H2119 C2094 0.950 . S
H2120 C2096 0.950 . S
H2121 C2097 0.949 . S
H2122 C2099 0.950 . S
H2123 C2101 0.950 . S
C2124 C2125 1.349 . S
C2124 C2126 1.327 . S
C2124 H2149 0.950 . S
C2125 C2124 1.349 . S
C2125 C2141 1.349 . S
C2126 C2124 1.327 . S
C2126 C2145 1.429 . S
C2126 H2150 0.950 . S
C2127 C2144 1.574 . S
C2127 C2146 1.368 . S
C2127 H2151 0.949 . S
H2128 C2132 0.949 . S
C2129 C2130 1.349 . S
C2129 C2131 1.327 . S
C2129 H2152 0.950 . S
C2130 C2129 1.349 . S
C2130 C2142 1.349 . S
C2131 C2129 1.327 . S
C2131 C2147 1.429 . S
C2131 H2153 0.950 . S
C2132 H2128 0.949 . S
C2132 C2140 1.574 . S
C2132 C2148 1.368 . S
H2133 C2141 0.950 . S
H2134 C2139 0.950 . S
H2135 C2140 0.949 . S
H2136 C2142 0.950 . S
H2137 C2143 0.950 . S
H2138 C2144 0.949 . S
C2139 H2134 0.950 . S
C2139 C2141 1.327 . S
C2139 C2145 1.429 . S
C2140 C2132 1.574 . S
C2140 H2135 0.949 . S
C2140 C2146 1.368 . S
C2141 C2125 1.349 . S
C2141 H2133 0.950 . S
C2141 C2139 1.327 . S
C2142 C2130 1.349 . S
C2142 H2136 0.950 . S
C2142 C2143 1.327 . S
C2143 H2137 0.950 . S
C2143 C2142 1.327 . S
C2143 C2147 1.429 . S
C2144 C2127 1.574 . S
C2144 H2138 0.949 . S
C2144 C2148 1.368 . S
C2145 C2126 1.429 . S
C2145 C2139 1.429 . S
C2145 C2146 1.523 . S
C2146 C2127 1.368 . S
C2146 C2140 1.368 . S
C2146 C2145 1.523 . S
C2147 C2131 1.429 . S
C2147 C2143 1.429 . S
C2147 C2148 1.523 . S
C2148 C2132 1.368 . S
C2148 C2144 1.368 . S
C2148 C2147 1.523 . S
H2149 C2124 0.950 . S
H2150 C2126 0.950 . S
H2151 C2127 0.949 . S
H2152 C2129 0.950 . S
H2153 C2131 0.950 . S
C2154 C2155 1.349 . S
C2154 C2156 1.327 . S
C2154 H2179 0.950 . S
C2155 C2154 1.349 . S
C2155 C2171 1.349 . S
C2156 C2154 1.327 . S
C2156 C2175 1.429 . S
C2156 H2180 0.950 . S
C2157 C2174 1.574 . S
C2157 C2176 1.368 . S
C2157 H2181 0.949 . S
H2158 C2162 0.949 1_545 S
C2159 C2160 1.349 . S
C2159 C2161 1.327 1_545 S
C2159 H2182 0.978 . S
C2160 C2159 1.349 . S
C2160 C2172 1.349 . S
C2161 C2159 1.327 1_565 S
C2161 C2177 1.429 . S
C2161 H2183 0.950 . S
C2162 H2158 0.949 1_565 S
C2162 C2170 1.574 . S
C2162 C2178 1.368 . S
H2163 C2171 0.950 . S
H2164 C2169 0.950 . S
H2165 C2170 0.949 . S
H2166 C2172 0.950 . S
H2167 C2173 0.950 . S
H2168 C2174 0.949 . S
C2169 H2164 0.950 . S
C2169 C2171 1.327 . S
C2169 C2175 1.429 . S
C2170 C2162 1.574 . S
C2170 H2165 0.949 . S
C2170 C2176 1.368 . S
C2171 C2155 1.349 . S
C2171 H2163 0.950 . S
C2171 C2169 1.327 . S
C2172 C2160 1.349 . S
C2172 H2166 0.950 . S
C2172 C2173 1.327 . S
C2173 H2167 0.950 . S
C2173 C2172 1.327 . S
C2173 C2177 1.429 1_545 S
C2174 C2157 1.574 . S
C2174 H2168 0.949 . S
C2174 C2178 1.368 . S
C2175 C2156 1.429 . S
C2175 C2169 1.429 . S
C2175 C2176 1.523 . S
C2176 C2157 1.368 . S
C2176 C2170 1.368 . S
C2176 C2175 1.523 . S
C2177 C2161 1.429 . S
C2177 C2173 1.429 1_565 S
C2177 C2178 1.523 . S
C2178 C2162 1.368 . S
C2178 C2174 1.368 . S
C2178 C2177 1.523 . S
H2179 C2154 0.950 . S
H2180 C2156 0.950 . S
H2181 C2157 0.949 . S
H2182 C2159 0.978 . S
H2183 C2161 0.950 . S
C2184 C2185 1.349 . S
C2184 C2186 1.327 1_655 S
C2184 H2209 0.950 1_655 S
C2185 C2184 1.349 . S
C2185 C2201 1.349 . S
C2186 C2184 1.327 1_455 S
C2186 C2205 1.429 . S
C2186 H2210 0.950 . S
C2187 C2204 1.574 . S
C2187 C2206 1.368 . S
C2187 H2211 0.949 1_455 S
H2188 C2192 0.949 . S
C2189 C2190 1.349 . S
C2189 C2191 1.327 . S
C2189 H2212 0.950 . S
C2190 C2189 1.349 . S
C2190 C2202 1.349 . S
C2191 C2189 1.327 . S
C2191 C2207 1.429 . S
C2191 H2213 0.950 . S
C2192 H2188 0.949 . S
C2192 C2200 1.574 . S
C2192 C2208 1.368 . S
H2193 C2201 0.950 . S
H2194 C2199 0.950 . S
H2195 C2200 0.949 . S
H2196 C2202 0.950 . S
H2197 C2203 0.950 . S
H2198 C2204 0.949 . S
C2199 H2194 0.950 . S
C2199 C2201 1.327 . S
C2199 C2205 1.429 1_655 S
C2200 C2192 1.574 . S
C2200 H2195 0.949 . S
C2200 C2206 1.368 . S
C2201 C2185 1.349 . S
C2201 H2193 0.950 . S
C2201 C2199 1.327 . S
C2202 C2190 1.349 . S
C2202 H2196 0.950 . S
C2202 C2203 1.327 . S
C2203 H2197 0.950 . S
C2203 C2202 1.327 . S
C2203 C2207 1.429 . S
C2204 C2187 1.574 . S
C2204 H2198 0.949 . S
C2204 C2208 1.368 . S
C2205 C2186 1.429 . S
C2205 C2199 1.429 1_455 S
C2205 C2206 1.523 . S
C2206 C2187 1.368 . S
C2206 C2200 1.368 . S
C2206 C2205 1.523 . S
C2207 C2191 1.429 . S
C2207 C2203 1.429 . S
C2207 C2208 1.523 . S
C2208 C2192 1.368 . S
C2208 C2204 1.368 . S
C2208 C2207 1.523 . S
H2209 C2184 0.950 1_455 S
H2210 C2186 0.950 . S
H2211 C2187 0.949 1_655 S
H2212 C2189 0.950 . S
H2213 C2191 0.950 . S
C2214 C2215 1.349 . S
C2214 C2216 1.327 . S
C2214 H2239 0.950 . S
C2215 C2214 1.349 . S
C2215 C2231 1.349 . S
C2216 C2214 1.327 . S
C2216 C2235 1.429 . S
C2216 H2240 0.950 . S
C2217 C2234 1.574 . S
C2217 C2236 1.368 . S
C2217 H2241 0.949 . S
H2218 C2222 0.949 . S
C2219 C2220 1.349 . S
C2219 C2221 1.327 . S
C2219 H2242 0.950 . S
C2220 C2219 1.349 . S
C2220 C2232 1.349 . S
C2221 C2219 1.327 . S
C2221 C2237 1.429 . S
C2221 H2243 0.950 . S
C2222 H2218 0.949 . S
C2222 C2230 1.574 . S
C2222 C2238 1.368 . S
H2223 C2231 0.950 . S
H2224 C2229 0.950 . S
H2225 C2230 0.949 . S
H2226 C2232 0.950 . S
H2227 C2233 0.950 . S
H2228 C2234 0.949 . S
C2229 H2224 0.950 . S
C2229 C2231 1.327 . S
C2229 C2235 1.429 . S
C2230 C2222 1.574 . S
C2230 H2225 0.949 . S
C2230 C2236 1.368 . S
C2231 C2215 1.349 . S
C2231 H2223 0.950 . S
C2231 C2229 1.327 . S
C2232 C2220 1.349 . S
C2232 H2226 0.950 . S
C2232 C2233 1.327 . S
C2233 H2227 0.950 . S
C2233 C2232 1.327 . S
C2233 C2237 1.429 . S
C2234 C2217 1.574 . S
C2234 H2228 0.949 . S
C2234 C2238 1.368 . S
C2235 C2216 1.429 . S
C2235 C2229 1.429 . S
C2235 C2236 1.523 . S
C2236 C2217 1.368 . S
C2236 C2230 1.368 . S
C2236 C2235 1.523 . S
C2237 C2221 1.429 . S
C2237 C2233 1.429 . S
C2237 C2238 1.523 . S
C2238 C2222 1.368 . S
C2238 C2234 1.368 . S
C2238 C2237 1.523 . S
H2239 C2214 0.950 . S
H2240 C2216 0.950 . S
H2241 C2217 0.949 . S
H2242 C2219 0.950 . S
H2243 C2221 0.950 . S
C2244 C2245 1.349 . S
C2244 C2246 1.327 . S
C2244 H2269 0.950 . S
C2245 C2244 1.349 . S
C2245 C2261 1.349 . S
C2246 C2244 1.327 . S
C2246 C2265 1.429 . S
C2246 H2270 0.950 . S
C2247 C2264 1.574 . S
C2247 C2266 1.368 . S
C2247 H2271 0.949 . S
H2248 C2252 0.949 . S
C2249 C2250 1.349 . S
C2249 C2251 1.327 . S
C2249 H2272 0.950 . S
C2250 C2249 1.349 . S
C2250 C2262 1.349 . S
C2251 C2249 1.327 . S
C2251 C2267 1.429 1_565 S
C2251 H2273 0.950 . S
C2252 H2248 0.949 . S
C2252 C2260 1.574 . S
C2252 C2268 1.368 . S
H2253 C2261 0.950 . S
H2254 C2259 0.950 . S
H2255 C2260 0.949 . S
H2256 C2262 0.950 . S
H2257 C2263 0.950 . S
H2258 C2264 0.949 . S
C2259 H2254 0.950 . S
C2259 C2261 1.327 . S
C2259 C2265 1.429 . S
C2260 C2252 1.574 . S
C2260 H2255 0.949 . S
C2260 C2266 1.368 . S
C2261 C2245 1.349 . S
C2261 H2253 0.950 . S
C2261 C2259 1.327 . S
C2262 C2250 1.349 . S
C2262 H2256 0.950 . S
C2262 C2263 1.327 1_565 S
C2263 H2257 0.950 . S
C2263 C2262 1.327 1_545 S
C2263 C2267 1.429 . S
C2264 C2247 1.574 . S
C2264 H2258 0.949 . S
C2264 C2268 1.368 . S
C2265 C2246 1.429 . S
C2265 C2259 1.429 . S
C2265 C2266 1.523 . S
C2266 C2247 1.368 . S
C2266 C2260 1.368 . S
C2266 C2265 1.523 . S
C2267 C2251 1.429 1_545 S
C2267 C2263 1.429 . S
C2267 C2268 1.523 . S
C2268 C2252 1.368 . S
C2268 C2264 1.368 . S
C2268 C2267 1.523 . S
H2269 C2244 0.950 . S
H2270 C2246 0.950 . S
H2271 C2247 0.949 . S
H2272 C2249 0.950 . S
H2273 C2251 0.950 . S
C2274 C2275 1.349 . S
C2274 C2276 1.327 . S
C2274 H2299 0.950 . S
C2275 C2274 1.349 . S
C2275 C2291 1.349 . S
C2276 C2274 1.327 . S
C2276 C2295 1.429 1_455 S
C2276 H2300 0.950 . S
C2277 C2294 1.574 . S
C2277 C2296 1.368 . S
C2277 H2301 0.949 . S
H2278 C2282 0.949 . S
C2279 C2280 1.349 . S
C2279 C2281 1.327 . S
C2279 H2302 0.950 . S
C2280 C2279 1.349 . S
C2280 C2292 1.349 . S
C2281 C2279 1.327 . S
C2281 C2297 1.429 . S
C2281 H2303 0.950 . S
C2282 H2278 0.949 . S
C2282 C2290 1.574 . S
C2282 C2298 1.368 . S
H2283 C2291 0.950 . S
H2284 C2289 0.950 . S
H2285 C2290 0.949 1_455 S
H2286 C2292 0.950 . S
H2287 C2293 0.950 . S
H2288 C2294 0.949 . S
C2289 H2284 0.950 . S
C2289 C2291 1.327 1_655 S
C2289 C2295 1.429 . S
C2290 C2282 1.574 . S
C2290 H2285 0.949 1_655 S
C2290 C2296 1.368 . S
C2291 C2275 1.349 . S
C2291 H2283 0.950 . S
C2291 C2289 1.327 1_455 S
C2292 C2280 1.349 . S
C2292 H2286 0.950 . S
C2292 C2293 1.327 . S
C2293 H2287 0.950 . S
C2293 C2292 1.327 . S
C2293 C2297 1.429 . S
C2294 C2277 1.574 . S
C2294 H2288 0.949 . S
C2294 C2298 1.368 . S
C2295 C2276 1.429 1_655 S
C2295 C2289 1.429 . S
C2295 C2296 1.523 . S
C2296 C2277 1.368 . S
C2296 C2290 1.368 . S
C2296 C2295 1.523 . S
C2297 C2281 1.429 . S
C2297 C2293 1.429 . S
C2297 C2298 1.523 . S
C2298 C2282 1.368 . S
C2298 C2294 1.368 . S
C2298 C2297 1.523 . S
H2299 C2274 0.950 . S
H2300 C2276 0.950 . S
H2301 C2277 0.949 . S
H2302 C2279 0.950 . S
H2303 C2281 0.950 . S
C2304 C2305 1.349 . S
C2304 C2306 1.327 . S
C2304 H2329 0.950 . S
C2305 C2304 1.349 . S
C2305 C2321 1.349 . S
C2306 C2304 1.327 . S
C2306 C2325 1.429 . S
C2306 H2330 0.950 . S
C2307 C2324 1.574 . S
C2307 C2326 1.368 . S
C2307 H2331 0.949 . S
H2308 C2312 0.949 . S
C2309 C2310 1.349 . S
C2309 C2311 1.327 . S
C2309 H2332 0.950 . S
C2310 C2309 1.349 . S
C2310 C2322 1.349 . S
C2311 C2309 1.327 . S
C2311 C2327 1.429 . S
C2311 H2333 0.950 . S
C2312 H2308 0.949 . S
C2312 C2320 1.574 . S
C2312 C2328 1.368 . S
H2313 C2321 0.950 . S
H2314 C2319 0.950 . S
H2315 C2320 0.949 . S
H2316 C2322 0.950 . S
H2317 C2323 0.950 . S
H2318 C2324 0.949 . S
C2319 H2314 0.950 . S
C2319 C2321 1.327 . S
C2319 C2325 1.429 . S
C2320 C2312 1.574 . S
C2320 H2315 0.949 . S
C2320 C2326 1.368 . S
C2321 C2305 1.349 . S
C2321 H2313 0.950 . S
C2321 C2319 1.327 . S
C2322 C2310 1.349 . S
C2322 H2316 0.950 . S
C2322 C2323 1.327 . S
C2323 H2317 0.950 . S
C2323 C2322 1.327 . S
C2323 C2327 1.429 . S
C2324 C2307 1.574 . S
C2324 H2318 0.949 . S
C2324 C2328 1.368 . S
C2325 C2306 1.429 . S
C2325 C2319 1.429 . S
C2325 C2326 1.523 . S
C2326 C2307 1.368 . S
C2326 C2320 1.368 . S
C2326 C2325 1.523 . S
C2327 C2311 1.429 . S
C2327 C2323 1.429 . S
C2327 C2328 1.523 . S
C2328 C2312 1.368 . S
C2328 C2324 1.368 . S
C2328 C2327 1.523 . S
H2329 C2304 0.950 . S
H2330 C2306 0.950 . S
H2331 C2307 0.949 . S
H2332 C2309 0.950 . S
H2333 C2311 0.950 . S
C2334 C2335 1.349 . S
C2334 C2336 1.328 1_565 S
C2334 H2359 0.950 . S
C2335 C2334 1.349 . S
C2335 C2351 1.349 . S
C2336 C2334 1.328 1_545 S
C2336 C2355 1.415 . S
C2336 H2360 0.967 . S
C2337 C2354 1.574 . S
C2337 C2356 1.368 . S
C2337 H2361 0.949 . S
H2338 C2342 0.949 . S
C2339 C2340 1.349 . S
C2339 C2341 1.327 . S
C2339 H2362 0.950 . S
C2340 C2339 1.349 . S
C2340 C2352 1.349 . S
C2341 C2339 1.327 . S
C2341 C2357 1.429 . S
C2341 H2363 0.950 . S
C2342 H2338 0.949 . S
C2342 C2350 1.574 . S
C2342 C2358 1.368 . S
H2343 C2351 0.950 . S
H2344 C2349 0.950 . S
H2345 C2350 0.949 . S
H2346 C2352 0.950 . S
H2347 C2353 0.950 . S
H2348 C2354 0.949 . S
C2349 H2344 0.950 . S
C2349 C2351 1.327 . S
C2349 C2355 1.429 1_565 S
C2350 C2342 1.574 . S
C2350 H2345 0.949 . S
C2350 C2356 1.368 . S
C2351 C2335 1.349 . S
C2351 H2343 0.950 . S
C2351 C2349 1.327 . S
C2352 C2340 1.349 . S
C2352 H2346 0.950 . S
C2352 C2353 1.327 . S
C2353 H2347 0.950 . S
C2353 C2352 1.327 . S
C2353 C2357 1.429 . S
C2354 C2337 1.574 . S
C2354 H2348 0.949 . S
C2354 C2358 1.368 . S
C2355 C2336 1.415 . S
C2355 C2349 1.429 1_545 S
C2355 C2356 1.523 . S
C2356 C2337 1.368 . S
C2356 C2350 1.368 . S
C2356 C2355 1.523 . S
C2357 C2341 1.429 . S
C2357 C2353 1.429 . S
C2357 C2358 1.523 . S
C2358 C2342 1.368 . S
C2358 C2354 1.368 . S
C2358 C2357 1.523 . S
H2359 C2334 0.950 . S
H2360 C2336 0.967 . S
H2361 C2337 0.949 . S
H2362 C2339 0.950 . S
H2363 C2341 0.950 . S
C2364 C2365 1.349 . S
C2364 C2366 1.327 1_455 S
C2364 H2389 0.950 . S
C2365 C2364 1.349 . S
C2365 C2381 1.349 . S
C2366 C2364 1.327 1_655 S
C2366 C2385 1.429 . S
C2366 H2390 0.950 . S
C2367 C2384 1.574 . S
C2367 C2386 1.368 . S
C2367 H2391 0.949 1_655 S
H2368 C2372 0.949 . S
C2369 C2370 1.349 . S
C2369 C2371 1.327 . S
C2369 H2392 0.950 . S
C2370 C2369 1.349 . S
C2370 C2382 1.349 . S
C2371 C2369 1.327 . S
C2371 C2387 1.429 . S
C2371 H2393 0.950 . S
C2372 H2368 0.949 . S
C2372 C2380 1.574 . S
C2372 C2388 1.368 . S
H2373 C2381 0.950 . S
H2374 C2379 0.950 . S
H2375 C2380 0.949 . S
H2376 C2382 0.950 . S
H2377 C2383 0.950 . S
H2378 C2384 0.949 . S
C2379 H2374 0.950 . S
C2379 C2381 1.327 . S
C2379 C2385 1.429 1_455 S
C2380 C2372 1.574 . S
C2380 H2375 0.949 . S
C2380 C2386 1.368 . S
C2381 C2365 1.349 . S
C2381 H2373 0.950 . S
C2381 C2379 1.327 . S
C2382 C2370 1.349 . S
C2382 H2376 0.950 . S
C2382 C2383 1.327 . S
C2383 H2377 0.950 . S
C2383 C2382 1.327 . S
C2383 C2387 1.429 . S
C2384 C2367 1.574 . S
C2384 H2378 0.949 . S
C2384 C2388 1.368 . S
C2385 C2366 1.429 . S
C2385 C2379 1.429 1_655 S
C2385 C2386 1.523 . S
C2386 C2367 1.368 . S
C2386 C2380 1.368 . S
C2386 C2385 1.523 . S
C2387 C2371 1.429 . S
C2387 C2383 1.429 . S
C2387 C2388 1.523 . S
C2388 C2372 1.368 . S
C2388 C2384 1.368 . S
C2388 C2387 1.523 . S
H2389 C2364 0.950 . S
H2390 C2366 0.950 . S
H2391 C2367 0.949 1_455 S
H2392 C2369 0.950 . S
H2393 C2371 0.950 . S
C2394 C2395 1.349 . S
C2394 C2396 1.327 . S
C2394 H2419 0.950 . S
C2395 C2394 1.349 . S
C2395 C2411 1.349 . S
C2396 C2394 1.327 . S
C2396 C2415 1.429 . S
C2396 H2420 0.950 . S
C2397 C2414 1.574 . S
C2397 C2416 1.368 . S
C2397 H2421 0.949 . S
H2398 C2402 0.949 . S
C2399 C2400 1.349 . S
C2399 C2401 1.327 . S
C2399 H2422 0.950 . S
C2400 C2399 1.349 . S
C2400 C2412 1.349 . S
C2401 C2399 1.327 . S
C2401 C2417 1.429 . S
C2401 H2423 0.950 . S
C2402 H2398 0.949 . S
C2402 C2410 1.574 . S
C2402 C2418 1.368 . S
H2403 C2411 0.950 . S
H2404 C2409 0.950 . S
H2405 C2410 0.949 . S
H2406 C2412 0.950 . S
H2407 C2413 0.950 . S
H2408 C2414 0.949 . S
C2409 H2404 0.950 . S
C2409 C2411 1.327 . S
C2409 C2415 1.429 . S
C2410 C2402 1.574 . S
C2410 H2405 0.949 . S
C2410 C2416 1.368 . S
C2411 C2395 1.349 . S
C2411 H2403 0.950 . S
C2411 C2409 1.327 . S
C2412 C2400 1.349 . S
C2412 H2406 0.950 . S
C2412 C2413 1.327 . S
C2413 H2407 0.950 . S
C2413 C2412 1.327 . S
C2413 C2417 1.429 . S
C2414 C2397 1.574 . S
C2414 H2408 0.949 . S
C2414 C2418 1.368 . S
C2415 C2396 1.429 . S
C2415 C2409 1.429 . S
C2415 C2416 1.523 . S
C2416 C2397 1.368 . S
C2416 C2410 1.368 . S
C2416 C2415 1.523 . S
C2417 C2401 1.429 . S
C2417 C2413 1.429 . S
C2417 C2418 1.523 . S
C2418 C2402 1.368 . S
C2418 C2414 1.368 . S
C2418 C2417 1.523 . S
H2419 C2394 0.950 . S
H2420 C2396 0.950 . S
H2421 C2397 0.949 . S
H2422 C2399 0.950 . S
H2423 C2401 0.950 . S
C2424 C2425 1.349 . S
C2424 C2426 1.327 . S
C2424 H2449 0.950 . S
C2425 C2424 1.349 . S
C2425 C2441 1.349 . S
C2426 C2424 1.327 . S
C2426 C2445 1.429 1_545 S
C2426 H2450 0.950 . S
C2427 C2444 1.574 . S
C2427 C2446 1.368 . S
C2427 H2451 0.949 . S
H2428 C2432 0.949 . S
C2429 C2430 1.349 . S
C2429 C2431 1.327 . S
C2429 H2452 0.950 . S
C2430 C2429 1.349 . S
C2430 C2442 1.349 . S
C2431 C2429 1.327 . S
C2431 C2447 1.429 . S
C2431 H2453 0.950 . S
C2432 H2428 0.949 . S
C2432 C2440 1.574 . S
C2432 C2448 1.368 . S
H2433 C2441 0.949 . S
H2434 C2439 0.950 . S
H2435 C2440 0.949 1_545 S
H2436 C2442 0.950 . S
H2437 C2443 0.950 . S
H2438 C2444 0.949 . S
C2439 H2434 0.950 . S
C2439 C2441 1.327 1_565 S
C2439 C2445 1.429 . S
C2440 C2432 1.574 . S
C2440 H2435 0.949 1_565 S
C2440 C2446 1.368 . S
C2441 C2425 1.349 . S
C2441 H2433 0.949 . S
C2441 C2439 1.327 1_545 S
C2442 C2430 1.349 . S
C2442 H2436 0.950 . S
C2442 C2443 1.327 . S
C2443 H2437 0.950 . S
C2443 C2442 1.327 . S
C2443 C2447 1.429 . S
C2444 C2427 1.574 . S
C2444 H2438 0.949 . S
C2444 C2448 1.368 . S
C2445 C2426 1.429 1_565 S
C2445 C2439 1.429 . S
C2445 C2446 1.523 . S
C2446 C2427 1.368 . S
C2446 C2440 1.368 . S
C2446 C2445 1.523 . S
C2447 C2431 1.429 . S
C2447 C2443 1.429 . S
C2447 C2448 1.523 . S
C2448 C2432 1.368 . S
C2448 C2444 1.368 . S
C2448 C2447 1.523 . S
H2449 C2424 0.950 . S
H2450 C2426 0.950 . S
H2451 C2427 0.949 . S
H2452 C2429 0.950 . S
H2453 C2431 0.950 . S
C2454 C2455 1.349 . S
C2454 C2456 1.327 . S
C2454 H2479 0.950 . S
C2455 C2454 1.349 . S
C2455 C2471 1.349 . S
C2456 C2454 1.327 . S
C2456 C2475 1.429 . S
C2456 H2480 0.950 . S
C2457 C2474 1.574 . S
C2457 C2476 1.368 . S
C2457 H2481 0.949 . S
H2458 C2462 0.949 . S
C2459 C2460 1.349 . S
C2459 C2461 1.327 . S
C2459 H2482 0.950 . S
C2460 C2459 1.349 . S
C2460 C2472 1.349 . S
C2461 C2459 1.327 . S
C2461 C2477 1.429 1_655 S
C2461 H2483 0.950 . S
C2462 H2458 0.949 . S
C2462 C2470 1.574 . S
C2462 C2478 1.368 . S
H2463 C2471 0.950 . S
H2464 C2469 0.950 . S
H2465 C2470 0.949 . S
H2466 C2472 0.950 . S
H2467 C2473 0.950 . S
H2468 C2474 0.949 1_655 S
C2469 H2464 0.950 . S
C2469 C2471 1.327 . S
C2469 C2475 1.429 . S
C2470 C2462 1.574 . S
C2470 H2465 0.949 . S
C2470 C2476 1.368 . S
C2471 C2455 1.349 . S
C2471 H2463 0.950 . S
C2471 C2469 1.327 . S
C2472 C2460 1.349 . S
C2472 H2466 0.950 . S
C2472 C2473 1.327 1_655 S
C2473 H2467 0.950 . S
C2473 C2472 1.327 1_455 S
C2473 C2477 1.429 . S
C2474 C2457 1.574 . S
C2474 H2468 0.949 1_455 S
C2474 C2478 1.368 . S
C2475 C2456 1.429 . S
C2475 C2469 1.429 . S
C2475 C2476 1.523 . S
C2476 C2457 1.368 . S
C2476 C2470 1.368 . S
C2476 C2475 1.523 . S
C2477 C2461 1.429 1_455 S
C2477 C2473 1.429 . S
C2477 C2478 1.523 . S
C2478 C2462 1.368 . S
C2478 C2474 1.368 . S
C2478 C2477 1.523 . S
H2479 C2454 0.950 . S
H2480 C2456 0.950 . S
H2481 C2457 0.949 . S
H2482 C2459 0.950 . S
H2483 C2461 0.950 . S
C2484 C2485 1.349 . S
C2484 C2486 1.327 . S
C2484 H2509 0.950 . S
C2485 C2484 1.349 . S
C2485 C2501 1.349 . S
C2486 C2484 1.327 . S
C2486 C2505 1.429 . S
C2486 H2510 0.950 . S
C2487 C2504 1.574 1_655 S
C2487 C2506 1.368 . S
C2487 H2511 0.949 . S
H2488 C2492 0.949 . S
C2489 C2490 1.349 . S
C2489 C2491 1.327 . S
C2489 H2512 0.950 . S
C2490 C2489 1.349 . S
C2490 C2502 1.349 . S
C2491 C2489 1.327 . S
C2491 C2507 1.429 . S
C2491 H2513 0.950 . S
C2492 H2488 0.949 . S
C2492 C2500 1.574 1_455 S
C2492 C2508 1.368 . S
H2493 C2501 0.950 . S
H2494 C2499 0.950 . S
H2495 C2500 0.949 . S
H2496 C2502 0.950 . S
H2497 C2503 0.950 . S
H2498 C2504 0.949 . S
C2499 H2494 0.950 . S
C2499 C2501 1.327 . S
C2499 C2505 1.429 . S
C2500 C2492 1.574 1_655 S
C2500 H2495 0.949 . S
C2500 C2506 1.368 . S
C2501 C2485 1.349 . S
C2501 H2493 0.950 . S
C2501 C2499 1.327 . S
C2502 C2490 1.349 . S
C2502 H2496 0.950 . S
C2502 C2503 1.327 . S
C2503 H2497 0.950 . S
C2503 C2502 1.327 . S
C2503 C2507 1.429 . S
C2504 C2487 1.574 1_455 S
C2504 H2498 0.949 . S
C2504 C2508 1.368 . S
C2505 C2486 1.429 . S
C2505 C2499 1.429 . S
C2505 C2506 1.523 . S
C2506 C2487 1.368 . S
C2506 C2500 1.368 . S
C2506 C2505 1.523 . S
C2507 C2491 1.429 . S
C2507 C2503 1.429 . S
C2507 C2508 1.523 . S
C2508 C2492 1.368 . S
C2508 C2504 1.368 . S
C2508 C2507 1.523 . S
H2509 C2484 0.950 . S
H2510 C2486 0.950 . S
H2511 C2487 0.949 . S
H2512 C2489 0.950 . S
H2513 C2491 0.950 . S
C2514 C2515 1.349 . S
C2514 C2516 1.327 . S
C2514 H2539 0.950 . S
C2515 C2514 1.349 . S
C2515 C2531 1.349 . S
C2516 C2514 1.327 . S
C2516 C2535 1.429 . S
C2516 H2540 0.950 . S
C2517 C2534 1.574 . S
C2517 C2536 1.368 . S
C2517 H2541 0.949 . S
H2518 C2522 0.949 . S
C2519 C2520 1.349 . S
C2519 C2521 1.327 . S
C2519 H2542 0.950 . S
C2520 C2519 1.349 . S
C2520 C2532 1.349 . S
C2521 C2519 1.327 . S
C2521 C2537 1.429 . S
C2521 H2543 0.950 . S
C2522 H2518 0.949 . S
C2522 C2530 1.574 . S
C2522 C2538 1.368 . S
H2523 C2531 0.950 . S
H2524 C2529 0.950 . S
H2525 C2530 0.949 . S
H2526 C2532 0.950 . S
H2527 C2533 0.950 . S
H2528 C2534 0.949 . S
C2529 H2524 0.950 . S
C2529 C2531 1.327 . S
C2529 C2535 1.429 . S
C2530 C2522 1.574 . S
C2530 H2525 0.949 . S
C2530 C2536 1.368 . S
C2531 C2515 1.349 . S
C2531 H2523 0.950 . S
C2531 C2529 1.327 . S
C2532 C2520 1.349 . S
C2532 H2526 0.950 . S
C2532 C2533 1.327 . S
C2533 H2527 0.950 . S
C2533 C2532 1.327 . S
C2533 C2537 1.429 . S
C2534 C2517 1.574 . S
C2534 H2528 0.949 . S
C2534 C2538 1.368 . S
C2535 C2516 1.429 . S
C2535 C2529 1.429 . S
C2535 C2536 1.523 . S
C2536 C2517 1.368 . S
C2536 C2530 1.368 . S
C2536 C2535 1.523 . S
C2537 C2521 1.429 . S
C2537 C2533 1.429 . S
C2537 C2538 1.523 . S
C2538 C2522 1.368 . S
C2538 C2534 1.368 . S
C2538 C2537 1.523 . S
H2539 C2514 0.950 . S
H2540 C2516 0.950 . S
H2541 C2517 0.949 . S
H2542 C2519 0.950 . S
H2543 C2521 0.950 . S
C2544 C2545 1.349 . S
C2544 C2546 1.327 . S
C2544 H2569 0.950 . S
C2545 C2544 1.349 . S
C2545 C2561 1.349 . S
C2546 C2544 1.327 . S
C2546 C2565 1.429 . S
C2546 H2570 0.950 . S
C2547 C2564 1.574 1_565 S
C2547 C2566 1.368 . S
C2547 H2571 0.949 . S
H2548 C2552 0.949 . S
C2549 C2550 1.349 . S
C2549 C2551 1.327 . S
C2549 H2572 0.950 . S
C2550 C2549 1.349 . S
C2550 C2562 1.349 . S
C2551 C2549 1.327 . S
C2551 C2567 1.429 . S
C2551 H2573 0.950 . S
C2552 H2548 0.949 . S
C2552 C2560 1.574 1_545 S
C2552 C2568 1.368 . S
H2553 C2561 0.950 . S
H2554 C2559 0.950 . S
H2555 C2560 0.949 . S
H2556 C2562 0.950 . S
H2557 C2563 0.950 . S
H2558 C2564 0.949 . S
C2559 H2554 0.950 . S
C2559 C2561 1.327 . S
C2559 C2565 1.429 . S
C2560 C2552 1.574 1_565 S
C2560 H2555 0.949 . S
C2560 C2566 1.368 . S
C2561 C2545 1.349 . S
C2561 H2553 0.950 . S
C2561 C2559 1.327 . S
C2562 C2550 1.349 . S
C2562 H2556 0.950 . S
C2562 C2563 1.327 . S
C2563 H2557 0.950 . S
C2563 C2562 1.327 . S
C2563 C2567 1.429 . S
C2564 C2547 1.574 1_545 S
C2564 H2558 0.949 . S
C2564 C2568 1.368 . S
C2565 C2546 1.429 . S
C2565 C2559 1.429 . S
C2565 C2566 1.523 . S
C2566 C2547 1.368 . S
C2566 C2560 1.368 . S
C2566 C2565 1.523 . S
C2567 C2551 1.429 . S
C2567 C2563 1.429 . S
C2567 C2568 1.523 . S
C2568 C2552 1.368 . S
C2568 C2564 1.368 . S
C2568 C2567 1.523 . S
H2569 C2544 0.950 . S
H2570 C2546 0.950 . S
H2571 C2547 0.949 . S
H2572 C2549 0.950 . S
H2573 C2551 0.950 . S
C2574 C2575 1.349 . S
C2574 C2576 1.327 . S
C2574 H2599 0.950 . S
C2575 C2574 1.349 . S
C2575 C2591 1.349 . S
C2576 C2574 1.327 . S
C2576 C2595 1.429 . S
C2576 H2600 0.950 . S
C2577 C2594 1.574 1_565 S
C2577 C2596 1.368 . S
C2577 H2601 0.949 . S
H2578 C2582 0.949 . S
C2579 C2580 1.349 . S
C2579 C2581 1.327 . S
C2579 H2602 0.950 . S
C2580 C2579 1.349 . S
C2580 C2592 1.349 . S
C2581 C2579 1.327 . S
C2581 C2597 1.429 . S
C2581 H2603 0.950 . S
C2582 H2578 0.949 . S
C2582 C2590 1.574 1_545 S
C2582 C2598 1.368 . S
H2583 C2591 0.950 . S
H2584 C2589 0.950 . S
H2585 C2590 0.949 . S
H2586 C2592 0.950 . S
H2587 C2593 0.950 . S
H2588 C2594 0.949 . S
C2589 H2584 0.950 . S
C2589 C2591 1.327 . S
C2589 C2595 1.429 . S
C2590 C2582 1.574 1_565 S
C2590 H2585 0.949 . S
C2590 C2596 1.368 . S
C2591 C2575 1.349 . S
C2591 H2583 0.950 . S
C2591 C2589 1.327 . S
C2592 C2580 1.349 . S
C2592 H2586 0.950 . S
C2592 C2593 1.327 . S
C2593 H2587 0.950 . S
C2593 C2592 1.327 . S
C2593 C2597 1.429 . S
C2594 C2577 1.574 1_545 S
C2594 H2588 0.949 . S
C2594 C2598 1.368 . S
C2595 C2576 1.429 . S
C2595 C2589 1.429 . S
C2595 C2596 1.523 . S
C2596 C2577 1.368 . S
C2596 C2590 1.368 . S
C2596 C2595 1.523 . S
C2597 C2581 1.429 . S
C2597 C2593 1.429 . S
C2597 C2598 1.523 . S
C2598 C2582 1.368 . S
C2598 C2594 1.368 . S
C2598 C2597 1.523 . S
H2599 C2574 0.950 . S
H2600 C2576 0.950 . S
H2601 C2577 0.949 . S
H2602 C2579 0.950 . S
H2603 C2581 0.950 . S
C2604 C2605 1.349 . S
C2604 C2606 1.327 . S
C2604 H2629 0.950 . S
C2605 C2604 1.349 . S
C2605 C2621 1.349 . S
C2606 C2604 1.327 . S
C2606 C2625 1.429 . S
C2606 H2630 0.950 . S
C2607 C2624 1.574 1_655 S
C2607 C2626 1.368 . S
C2607 H2631 0.949 . S
H2608 C2612 0.949 . S
C2609 C2610 1.349 . S
C2609 C2611 1.327 . S
C2609 H2632 0.950 . S
C2610 C2609 1.349 . S
C2610 C2622 1.349 . S
C2611 C2609 1.327 . S
C2611 C2627 1.429 . S
C2611 H2633 0.950 . S
C2612 H2608 0.949 . S
C2612 C2620 1.574 1_455 S
C2612 C2628 1.368 . S
H2613 C2621 0.950 . S
H2614 C2619 0.950 . S
H2615 C2620 0.949 . S
H2616 C2622 0.950 . S
H2617 C2623 0.950 . S
H2618 C2624 0.949 . S
C2619 H2614 0.950 . S
C2619 C2621 1.327 . S
C2619 C2625 1.429 . S
C2620 C2612 1.574 1_655 S
C2620 H2615 0.949 . S
C2620 C2626 1.368 . S
C2621 C2605 1.349 . S
C2621 H2613 0.950 . S
C2621 C2619 1.327 . S
C2622 C2610 1.349 . S
C2622 H2616 0.950 . S
C2622 C2623 1.327 . S
C2623 H2617 0.950 . S
C2623 C2622 1.327 . S
C2623 C2627 1.429 . S
C2624 C2607 1.574 1_455 S
C2624 H2618 0.949 . S
C2624 C2628 1.368 . S
C2625 C2606 1.429 . S
C2625 C2619 1.429 . S
C2625 C2626 1.523 . S
C2626 C2607 1.368 . S
C2626 C2620 1.368 . S
C2626 C2625 1.523 . S
C2627 C2611 1.429 . S
C2627 C2623 1.429 . S
C2627 C2628 1.523 . S
C2628 C2612 1.368 . S
C2628 C2624 1.368 . S
C2628 C2627 1.523 . S
H2629 C2604 0.950 . S
H2630 C2606 0.950 . S
H2631 C2607 0.949 . S
H2632 C2609 0.950 . S
H2633 C2611 0.950 . S
C2634 C2635 1.349 . S
C2634 C2636 1.327 . S
C2634 H2659 0.950 . S
C2635 C2634 1.349 . S
C2635 C2651 1.349 . S
C2636 C2634 1.327 . S
C2636 C2655 1.429 . S
C2636 H2660 0.950 . S
C2637 C2654 1.574 . S
C2637 C2656 1.368 . S
C2637 H2661 0.949 . S
H2638 C2642 0.949 . S
C2639 C2640 1.349 . S
C2639 C2641 1.327 . S
C2639 H2662 0.950 . S
C2640 C2639 1.349 . S
C2640 C2652 1.349 . S
C2641 C2639 1.327 . S
C2641 C2657 1.429 . S
C2641 H2663 0.950 . S
C2642 H2638 0.949 . S
C2642 C2650 1.574 . S
C2642 C2658 1.368 . S
H2643 C2651 0.950 . S
H2644 C2649 0.950 . S
H2645 C2650 0.949 . S
H2646 C2652 0.950 . S
H2647 C2653 0.950 . S
H2648 C2654 0.949 . S
C2649 H2644 0.950 . S
C2649 C2651 1.327 . S
C2649 C2655 1.429 . S
C2650 C2642 1.574 . S
C2650 H2645 0.949 . S
C2650 C2656 1.368 . S
C2651 C2635 1.349 . S
C2651 H2643 0.950 . S
C2651 C2649 1.327 . S
C2652 C2640 1.349 . S
C2652 H2646 0.950 . S
C2652 C2653 1.327 . S
C2653 H2647 0.950 . S
C2653 C2652 1.327 . S
C2653 C2657 1.429 . S
C2654 C2637 1.574 . S
C2654 H2648 0.949 . S
C2654 C2658 1.368 . S
C2655 C2636 1.429 . S
C2655 C2649 1.429 . S
C2655 C2656 1.523 . S
C2656 C2637 1.368 . S
C2656 C2650 1.368 . S
C2656 C2655 1.523 . S
C2657 C2641 1.429 . S
C2657 C2653 1.429 . S
C2657 C2658 1.523 . S
C2658 C2642 1.368 . S
C2658 C2654 1.368 . S
C2658 C2657 1.523 . S
H2659 C2634 0.950 . S
H2660 C2636 0.950 . S
H2661 C2637 0.949 . S
H2662 C2639 0.950 . S
H2663 C2641 0.950 . S
C505 C0 1.564 . S
C510 C265 1.564 . S
C535 C15 1.564 . S
C540 C267 1.563 . S
C565 C293 1.563 . S
C570 C41 1.564 . S
C595 C55 1.564 . S
C600 C462 1.564 . S
C625 C476 1.564 . S
C630 C57 1.564 . S
C655 C71 1.564 . S
C660 C490 1.564 . S
C685 C349 1.564 . S
C690 C97 1.564 . S
C715 C99 1.563 . S
C720 C362 1.563 . S
C745 C125 1.563 . S
C750 C376 1.563 . S
C775 C139 1.564 . S
C780 C223 1.564 . S
C805 C236 1.563 . S
C810 C140 1.564 . S
C835 C154 1.564 . S
C840 C251 1.564 . S
C865 C168 1.564 . S
C870 C420 1.564 . S
C895 C183 1.564 . S
C900 C435 1.563 . S
C925 C209 1.564 . S
C930 C461 1.563 . S
C955 C294 1.564 . S
C960 C391 1.564 . S
C985 C308 1.564 . S
C990 C393 1.564 . S
C1015 C322 1.564 . S
C1020 C418 1.563 . S
C1045 C98 1.635 . S
C1050 C13 1.619 . S
C1075 C124 1.635 . S
C1080 C26 1.617 . S
C1105 C28 1.618 . S
C1110 C96 1.635 . S
C1135 C155 1.635 . S
C1140 C42 1.617 . S
C1165 C138 1.636 . S
C1170 C68 1.618 . S
C1195 C141 1.635 . S
C1200 C82 1.617 . S
C1225 C84 1.619 . S
C1230 C14 1.635 . S
C1255 C110 1.619 . S
C1260 C40 1.635 . S
C1285 C112 1.619 . S
C1290 C1 1.635 . S
C1315 C126 1.619 . S
C1320 C70 1.635 . S
C1345 C54 1.635 . S
C1350 C153 1.618 . S
C1375 C56 1.635 . S
C1380 C167 1.617 . S
C1405 C181 1.619 . S
C1410 C266 1.635 . S
C1435 C194 1.617 . S
C1440 C292 1.635 . S
C1465 C196 1.617 . S
C1470 C264 1.635 . S
C1495 C323 1.634 . S
C1500 C210 1.617 . S
C1525 C225 1.619 . S
C1530 C295 1.635 . S
C1555 C309 1.635 . S
C1560 C238 1.617 . S
C1585 C252 1.619 . S
C1590 C182 1.634 . S
C1615 C208 1.635 . S
C1620 C278 1.619 . S
C1645 C169 1.635 . S
C1650 C280 1.619 . S
C1675 C307 1.617 . S
C1680 C250 1.635 . S
C1705 C321 1.617 . S
C1710 C222 1.635 . S
C1735 C335 1.617 . S
C1740 C237 1.635 . S
C1765 C434 1.635 . S
C1770 C336 1.617 . S
C1795 C351 1.619 . S
C1800 C460 1.635 . S
C1825 C365 1.619 . S
C1830 C421 1.635 . S
C1855 C491 1.635 . S
C1860 C378 1.617 . S
C1885 C463 1.635 . S
C1890 C404 1.617 . S
C1915 C477 1.635 . S
C1920 C407 1.619 . S
C1945 C363 1.635 . S
C1950 C433 1.617 . S
C1975 C377 1.635 . S
C1980 C446 1.619 . S
C2005 C348 1.635 . S
C2010 C448 1.619 . S
C2035 C475 1.617 . S
C2040 C419 1.635 . S
C2065 C390 1.635 . S
C2070 C489 1.618 . S
C2095 C503 1.617 . S
C2100 C392 1.635 . S
C2125 C12 1.746 . S
C2130 C406 1.746 . S
C2155 C379 1.748 . S
C2160 C27 1.748 . S
C2185 C29 1.748 . S
C2190 C405 1.748 . S
C2215 C43 1.748 . S
C2220 C195 1.748 . S
C2245 C197 1.748 . S
C2250 C69 1.748 . S
C2275 C83 1.748 . S
C2280 C180 1.746 . S
C2305 C334 1.748 . S
C2310 C85 1.746 . S
C2335 C111 1.746 . S
C2340 C306 1.748 . S
C2365 C113 1.746 . S
C2370 C320 1.748 . S
C2395 C127 1.746 . S
C2400 C447 1.746 . S
C2425 C152 1.748 . S
C2430 C449 1.746 . S
C2455 C432 1.748 . S
C2460 C166 1.748 . S
C2485 C211 1.748 . S
C2490 C350 1.746 . S
C2515 C364 1.746 . S
C2520 C224 1.746 . S
C2545 C337 1.748 . S
C2550 C239 1.748 . S
C2575 C502 1.748 . S
C2580 C253 1.746 . S
C2605 C279 1.746 . S
C2610 C474 1.748 . S
C2635 C281 1.746 . S
C2640 C488 1.748 . S
