# Generated by pormake.
# Topology vmg, (6)-cn, num edge types: 1
# Building blocks:
#     Node 0, Type 0, BuildingBlock: OJICUG_clean_sbu_0, # of connection points: 6
#     Node 1, Type 0, BuildingBlock: OJICUG_clean_sbu_0, # of connection points: 6
#     Node 2, Type 0, BuildingBlock: OJICUG_clean_sbu_0, # of connection points: 6
#     Node 3, Type 0, BuildingBlock: OJICUG_clean_sbu_0, # of connection points: 6
#     Node 4, Type 0, BuildingBlock: OJICUG_clean_sbu_0, # of connection points: 6
#     Node 5, Type 0, BuildingBlock: OJICUG_clean_sbu_0, # of connection points: 6
#     Node 6, Type 0, BuildingBlock: OJICUG_clean_sbu_0, # of connection points: 6
#     Node 7, Type 0, BuildingBlock: OJICUG_clean_sbu_0, # of connection points: 6
#     Edge 8, Type (0, 0), BuildingBlock: OJICUG_clean_linker_0, # of connection points: 2
#     Edge 9, Type (0, 0), BuildingBlock: OJICUG_clean_linker_0, # of connection points: 2
#     Edge 10, Type (0, 0), BuildingBlock: OJICUG_clean_linker_0, # of connection points: 2
#     Edge 11, Type (0, 0), BuildingBlock: OJICUG_clean_linker_0, # of connection points: 2
#     Edge 12, Type (0, 0), BuildingBlock: OJICUG_clean_linker_0, # of connection points: 2
#     Edge 13, Type (0, 0), BuildingBlock: OJICUG_clean_linker_0, # of connection points: 2
#     Edge 14, Type (0, 0), BuildingBlock: OJICUG_clean_linker_0, # of connection points: 2
#     Edge 15, Type (0, 0), BuildingBlock: OJICUG_clean_linker_0, # of connection points: 2
#     Edge 16, Type (0, 0), BuildingBlock: OJICUG_clean_linker_0, # of connection points: 2
#     Edge 17, Type (0, 0), BuildingBlock: OJICUG_clean_linker_0, # of connection points: 2
#     Edge 18, Type (0, 0), BuildingBlock: OJICUG_clean_linker_0, # of connection points: 2
#     Edge 19, Type (0, 0), BuildingBlock: OJICUG_clean_linker_0, # of connection points: 2
#     Edge 20, Type (0, 0), BuildingBlock: OJICUG_clean_linker_0, # of connection points: 2
#     Edge 21, Type (0, 0), BuildingBlock: OJICUG_clean_linker_0, # of connection points: 2
#     Edge 22, Type (0, 0), BuildingBlock: OJICUG_clean_linker_0, # of connection points: 2
#     Edge 23, Type (0, 0), BuildingBlock: OJICUG_clean_linker_0, # of connection points: 2
#     Edge 24, Type (0, 0), BuildingBlock: OJICUG_clean_linker_0, # of connection points: 2
#     Edge 25, Type (0, 0), BuildingBlock: OJICUG_clean_linker_0, # of connection points: 2
#     Edge 26, Type (0, 0), BuildingBlock: OJICUG_clean_linker_0, # of connection points: 2
#     Edge 27, Type (0, 0), BuildingBlock: OJICUG_clean_linker_0, # of connection points: 2
#     Edge 28, Type (0, 0), BuildingBlock: OJICUG_clean_linker_0, # of connection points: 2
#     Edge 29, Type (0, 0), BuildingBlock: OJICUG_clean_linker_0, # of connection points: 2
#     Edge 30, Type (0, 0), BuildingBlock: OJICUG_clean_linker_0, # of connection points: 2
#     Edge 31, Type (0, 0), BuildingBlock: OJICUG_clean_linker_0, # of connection points: 2
# Relax obj value: 0.217
# Max RMSD: 0.229
# Mean RMSD: 0.229
data_MOF--net-vmg--node1-OJICUG_clean_sbu_0--edge1-OJICUG_clean_linker_0
_symmetry_space_group_name_H-M    P1
_symmetry_Int_Tables_number       1
_symmetry_cell_setting            triclinic
loop_
_symmetry_equiv_pos_as_xyz
'x, y, z'
_cell_length_a     22.307277
_cell_length_b     33.092213
_cell_length_c     21.010386
_cell_angle_alpha  89.715975
_cell_angle_beta   106.18712
_cell_angle_gamma 90.681074
loop_
_atom_site_label
_atom_site_type_symbol
_atom_site_fract_x
_atom_site_fract_y
_atom_site_fract_z
_atom_type_partial_charge
Sc0 Sc 0.13959 0.38558 0.05821 0.0
Sc1 Sc 0.24854 0.45703 0.13084 0.0
Sc2 Sc 0.2564 0.36062 0.19846 0.0
O3 O 0.21694 0.39999 0.12825 0.0
C4 C 0.11484 0.339 0.18094 0.0
C5 C 0.10266 0.46798 0.07653 0.0
C6 C 0.2415 0.44296 0.27344 0.0
C7 C 0.21842 0.44515 -0.01399 0.0
C8 C 0.22413 0.3117 0.05843 0.0
C9 C 0.37451 0.40811 0.19243 0.0
O10 O 0.09952 0.34597 0.11891 0.0
O11 O 0.15713 0.48136 0.07977 0.0
O12 O 0.26319 0.40693 0.27624 0.0
O13 O 0.16837 0.42605 -0.01234 0.0
O14 O 0.2494 0.31389 0.12151 0.0
O15 O 0.3448 0.44123 0.18096 0.0
O16 O 0.18497 0.3372 0.0263 0.0
O17 O 0.26458 0.44896 0.03717 0.0
O18 O 0.34714 0.37414 0.189 0.0
O19 O 0.09522 0.43252 0.0947 0.0
O20 O 0.16997 0.34456 0.21701 0.0
O21 O 0.22866 0.46464 0.22171 0.0
Sc22 Sc 0.77129 0.3702 0.2677 0.0
Sc23 Sc 0.75291 0.46919 0.31028 0.0
Sc24 Sc 0.88124 0.40505 0.41485 0.0
O25 O 0.80349 0.41529 0.33289 0.0
C26 C 0.79398 0.32642 0.40954 0.0
C27 C 0.6439 0.41036 0.28212 0.0
C28 C 0.80403 0.4732 0.46725 0.0
C29 C 0.7519 0.44322 0.17132 0.0
C30 C 0.91789 0.35179 0.30533 0.0
C31 C 0.87507 0.47597 0.32733 0.0
O32 O 0.76596 0.32868 0.34739 0.0
O33 O 0.67089 0.43918 0.31917 0.0
O34 O 0.83921 0.44225 0.47617 0.0
O35 O 0.7806 0.4102 0.18788 0.0
O36 O 0.93228 0.3697 0.3611 0.0
O37 O 0.8348 0.50176 0.30125 0.0
O38 O 0.86223 0.3495 0.26863 0.0
O39 O 0.72099 0.45881 0.20641 0.0
O40 O 0.85174 0.44089 0.32929 0.0
O41 O 0.67351 0.38607 0.25495 0.0
O42 O 0.83549 0.35188 0.43942 0.0
O43 O 0.77464 0.48638 0.41077 0.0
Sc44 Sc 0.74034 0.6397 0.76031 0.0
Sc45 Sc 0.74508 0.54421 0.8306 0.0
Sc46 Sc 0.85607 0.61422 0.90219 0.0
O47 O 0.7787 0.60049 0.83123 0.0
C48 C 0.88362 0.65999 0.78005 0.0
C49 C 0.75436 0.55579 0.68777 0.0
C50 C 0.89072 0.531 0.88364 0.0
C51 C 0.61956 0.59228 0.76593 0.0
C52 C 0.77324 0.68974 0.90002 0.0
C53 C 0.7746 0.55791 0.97421 0.0
O54 O 0.82835 0.6554 0.74341 0.0
O55 O 0.76329 0.53426 0.73959 0.0
O56 O 0.89987 0.56652 0.86686 0.0
O57 O 0.64694 0.62619 0.76576 0.0
O58 O 0.81139 0.66369 0.9324 0.0
O59 O 0.72881 0.55644 0.92264 0.0
O60 O 0.74706 0.68711 0.83701 0.0
O61 O 0.64958 0.55963 0.78107 0.0
O62 O 0.8269 0.57418 0.97347 0.0
O63 O 0.73615 0.59275 0.68442 0.0
O64 O 0.89796 0.65281 0.84195 0.0
O65 O 0.83589 0.51888 0.88174 0.0
Sc66 Sc 0.11786 0.60207 0.53998 0.0
Sc67 Sc 0.22461 0.53321 0.62062 0.0
Sc68 Sc 0.22768 0.62963 0.68452 0.0
O69 O 0.1919 0.58956 0.61444 0.0
C70 C 0.20003 0.67912 0.54445 0.0
C71 C 0.20758 0.54615 0.47835 0.0
C72 C 0.34844 0.58487 0.68572 0.0
C73 C 0.08027 0.51938 0.55238 0.0
C74 C 0.08464 0.64904 0.65829 0.0
C75 C 0.21332 0.54605 0.76055 0.0
O76 O 0.16354 0.65244 0.51045 0.0
O77 O 0.24965 0.54425 0.53292 0.0
O78 O 0.31976 0.61813 0.67845 0.0
O79 O 0.07383 0.55347 0.5752 0.0
O80 O 0.13861 0.64427 0.6977 0.0
O81 O 0.19793 0.52476 0.70828 0.0
O82 O 0.07224 0.64022 0.59691 0.0
O83 O 0.13536 0.50634 0.56003 0.0
O84 O 0.23448 0.58258 0.76218 0.0
O85 O 0.15448 0.56262 0.47379 0.0
O86 O 0.22226 0.67693 0.60799 0.0
O87 O 0.31943 0.55096 0.6774 0.0
Sc88 Sc 0.63431 0.89838 0.05069 0.0
Sc89 Sc 0.74313 0.9665 0.14602 0.0
Sc90 Sc 0.73973 0.86707 0.19775 0.0
O91 O 0.70656 0.90999 0.12971 0.0
C92 C 0.59397 0.84867 0.1639 0.0
C93 C 0.5999 0.98044 0.11032 0.0
C94 C 0.7453 0.94375 0.28461 0.0
C95 C 0.69853 0.96656 -0.01036 0.0
C96 C 0.71782 0.82025 0.05894 0.0
C97 C 0.86187 0.91527 0.17959 0.0
O98 O 0.58136 0.86782 0.1092 0.0
O99 O 0.6533 0.98971 0.14949 0.0
O100 O 0.72591 0.90742 0.27488 0.0
O101 O 0.67666 0.93059 -0.01675 0.0
O102 O 0.7482 0.82467 0.12025 0.0
O103 O 0.83258 0.94405 0.14373 0.0
O104 O 0.67432 0.84375 0.02907 0.0
O105 O 0.71905 0.98345 0.0452 0.0
O106 O 0.83468 0.88849 0.20643 0.0
O107 O 0.59088 0.95169 0.06876 0.0
O108 O 0.64969 0.84294 0.1986 0.0
O109 O 0.77655 0.95918 0.24951 0.0
Sc110 Sc 0.25001 0.86698 0.26489 0.0
Sc111 Sc 0.25818 0.96001 0.34215 0.0
Sc112 Sc 0.36246 0.88652 0.41198 0.0
O113 O 0.28846 0.90332 0.34013 0.0
C114 C 0.27529 0.81071 0.39764 0.0
C115 C 0.13196 0.91348 0.26767 0.0
C116 C 0.27692 0.94008 0.48315 0.0
C117 C 0.27032 0.95407 0.20103 0.0
C118 C 0.39268 0.84629 0.28663 0.0
C119 C 0.4023 0.96912 0.41474 0.0
O120 O 0.25136 0.81593 0.3348 0.0
O121 O 0.16305 0.94635 0.28218 0.0
O122 O 0.3278 0.92182 0.48397 0.0
O123 O 0.24752 0.9178 0.19426 0.0
O124 O 0.40656 0.85233 0.34894 0.0
O125 O 0.34758 0.98284 0.40597 0.0
O126 O 0.33807 0.85195 0.24923 0.0
O127 O 0.28541 0.97284 0.25587 0.0
O128 O 0.40931 0.93694 0.3866 0.0
O129 O 0.15836 0.87951 0.27177 0.0
O130 O 0.31478 0.83508 0.43343 0.0
O131 O 0.23382 0.9452 0.42973 0.0
Sc132 Sc 0.2633 0.13216 0.76764 0.0
Sc133 Sc 0.26421 0.03818 0.84183 0.0
Sc134 Sc 0.37484 0.10893 0.91275 0.0
O135 O 0.29873 0.09456 0.84153 0.0
C136 C 0.4072 0.15135 0.78913 0.0
C137 C 0.27666 0.04536 0.70104 0.0
C138 C 0.40661 0.02698 0.91453 0.0
C139 C 0.14187 0.08755 0.76965 0.0
C140 C 0.2952 0.18639 0.90257 0.0
C141 C 0.28392 0.0573 -0.01696 0.0
O142 O 0.35209 0.14688 0.75178 0.0
O143 O 0.29081 0.02593 0.75539 0.0
O144 O 0.41343 0.05752 0.88195 0.0
O145 O 0.17109 0.12095 0.77498 0.0
O146 O 0.3336 0.16132 0.93704 0.0
O147 O 0.24071 0.05286 0.92942 0.0
O148 O 0.26921 0.18195 0.8399 0.0
O149 O 0.17022 0.05395 0.782 0.0
O150 O 0.33656 0.07426 -0.01574 0.0
O151 O 0.25657 0.08202 0.69535 0.0
O152 O 0.42136 0.14294 0.85073 0.0
O153 O 0.35155 0.01321 0.90617 0.0
Sc154 Sc 0.64588 0.11485 0.55004 0.0
Sc155 Sc 0.74808 0.04352 0.64353 0.0
Sc156 Sc 0.75242 0.14255 0.6997 0.0
O157 O 0.71646 0.10089 0.6296 0.0
C158 C 0.73462 0.19268 0.56422 0.0
C159 C 0.70648 0.04747 0.48668 0.0
C160 C 0.87169 0.09253 0.68297 0.0
C161 C 0.60366 0.03144 0.60133 0.0
C162 C 0.60752 0.16159 0.66579 0.0
C163 C 0.74988 0.06448 0.78439 0.0
O164 O 0.69012 0.16979 0.53287 0.0
O165 O 0.72655 0.03 0.54179 0.0
O166 O 0.84618 0.12014 0.70879 0.0
O167 O 0.59735 0.0616 0.5626 0.0
O168 O 0.66341 0.16698 0.70088 0.0
O169 O 0.77675 0.04645 0.74789 0.0
O170 O 0.59438 0.14391 0.60994 0.0
O171 O 0.65573 0.02093 0.64107 0.0
O172 O 0.73581 0.10158 0.77515 0.0
O173 O 0.68632 0.08357 0.48105 0.0
O174 O 0.76455 0.1867 0.62518 0.0
O175 O 0.84051 0.0643 0.64678 0.0
C176 C 0.54084 0.44333 0.26876 0.0
C177 C 0.5749 0.40877 0.26236 0.0
H178 H 0.45101 0.47053 0.25032 0.0
C179 C 0.54246 0.37415 0.23217 0.0
H180 H 0.56443 0.47071 0.29109 0.0
C181 C 0.47735 0.37406 0.20905 0.0
C182 C 0.44344 0.40883 0.21461 0.0
H183 H 0.56737 0.34716 0.22621 0.0
H184 H 0.45358 0.34683 0.18624 0.0
C185 C 0.47586 0.44346 0.24464 0.0
C186 C 0.51485 0.62569 0.73135 0.0
C187 C 0.55017 0.59029 0.74628 0.0
H188 H 0.42423 0.65176 0.70058 0.0
C189 C 0.51844 0.55282 0.741 0.0
H190 H 0.53748 0.65506 0.73473 0.0
C191 C 0.45309 0.55084 0.72108 0.0
C192 C 0.41785 0.5863 0.70618 0.0
H193 H 0.54404 0.52485 0.75192 0.0
H194 H 0.43027 0.52153 0.71755 0.0
C195 C 0.44966 0.62373 0.71166 0.0
C196 C 0.03108 0.95016 0.21923 0.0
C197 C 0.06284 0.91434 0.24341 0.0
H198 H 0.94252 0.97842 0.17847 0.0
C199 C 0.02792 0.8786 0.24278 0.0
H200 H 0.05663 0.9781 0.21843 0.0
C201 C 0.96287 0.8788 0.22015 0.0
C202 C 0.93095 0.91461 0.1967 0.0
H203 H 0.05077 0.85042 0.26082 0.0
H204 H 0.9375 0.85085 0.22167 0.0
C205 C 0.96577 0.95023 0.19563 0.0
C206 C 0.03758 0.05373 0.72021 0.0
C207 C 0.0727 0.08837 0.74643 0.0
H208 H 0.94652 0.02803 0.67811 0.0
C209 C 0.04114 0.12466 0.74879 0.0
H210 H 0.06048 0.02541 0.71716 0.0
C211 C 0.9761 0.12615 0.72671 0.0
C212 C 0.94084 0.09154 0.70085 0.0
H213 H 0.06666 0.15197 0.7686 0.0
H214 H 0.95342 0.15448 0.73034 0.0
C215 C 0.97233 0.05537 0.69719 0.0
C216 C 0.2939 0.25513 0.04613 0.0
C217 C 0.24208 0.27938 0.01879 0.0
H218 H 0.3522 0.20793 0.03067 0.0
C219 C 0.20908 0.27409 0.95131 0.0
H220 H 0.32088 0.25869 0.09738 0.0
C221 C 0.22707 0.2449 0.91246 0.0
C222 C 0.27855 0.22036 0.94012 0.0
H223 H 0.16889 0.29239 0.92829 0.0
H224 H 0.19997 0.24109 0.86132 0.0
C225 C 0.31201 0.22616 0.00733 0.0
C226 C 0.73248 0.26384 0.42064 0.0
C227 C 0.77876 0.29246 0.44963 0.0
H228 H 0.68263 0.21054 0.43335 0.0
C229 C 0.81096 0.28808 0.51748 0.0
H230 H 0.70669 0.26605 0.36881 0.0
C231 C 0.79723 0.25587 0.55512 0.0
C232 C 0.75085 0.22727 0.52593 0.0
H233 H 0.84709 0.30949 0.54175 0.0
H234 H 0.82288 0.25346 0.60696 0.0
C235 C 0.71874 0.23184 0.45811 0.0
C236 C 0.70053 0.7835 0.95049 0.0
C237 C 0.7329 0.787 0.01854 0.0
H238 H 0.68761 0.75062 0.85975 0.0
C239 C 0.77918 0.75876 0.0463 0.0
H240 H 0.66456 0.80476 0.92691 0.0
C241 C 0.79231 0.72772 0.00739 0.0
C242 C 0.7596 0.72399 0.93948 0.0
H243 H 0.80518 0.76048 0.09813 0.0
H244 H 0.82828 0.70648 0.03107 0.0
C245 C 0.71374 0.75246 0.91152 0.0
C246 C 0.19015 0.71771 0.43817 0.0
C247 C 0.21834 0.71321 0.507 0.0
H248 H 0.18573 0.75155 0.3494 0.0
C249 C 0.26564 0.74049 0.53842 0.0
H250 H 0.15346 0.69718 0.41201 0.0
C251 C 0.28434 0.77133 0.50227 0.0
C252 C 0.25614 0.77606 0.43349 0.0
H253 H 0.28876 0.73789 0.59092 0.0
H254 H 0.3211 0.79166 0.52889 0.0
C255 C 0.20875 0.74878 0.4019 0.0
C256 C 0.00534 0.52527 0.93029 0.0
C257 C 0.94501 0.51095 0.9275 0.0
H258 H 0.10248 0.52418 0.98135 0.0
C259 C 0.93703 0.48318 0.9751 0.0
H260 H 0.01284 0.54677 0.89412 0.0
C261 C 0.98816 0.47118 0.02612 0.0
C262 C 0.04831 0.48613 0.02969 0.0
H263 H 0.8911 0.47191 0.97454 0.0
H264 H 0.98066 0.44977 0.06242 0.0
C265 C 0.0565 0.51312 0.9811 0.0
C266 C 0.03391 0.47412 0.4537 0.0
C267 C 0.02737 0.505 0.49697 0.0
H268 H 0.99048 0.44113 0.36442 0.0
C269 C 0.97114 0.52673 0.48183 0.0
H270 H 0.07682 0.45724 0.46326 0.0
C271 C 0.92375 0.51891 0.42435 0.0
C272 C 0.92989 0.48802 0.38148 0.0
H273 H 0.96394 0.55075 0.5137 0.0
H274 H 0.88124 0.53626 0.41472 0.0
C275 C 0.98506 0.46536 0.39674 0.0
C276 C 0.48872 0.98992 0.08756 0.0
C277 C 0.54782 0.00829 0.09683 0.0
H278 H 0.39911 0.97835 0.019 0.0
C279 C 0.55367 0.04049 0.05559 0.0
H280 H 0.48276 0.96544 0.11983 0.0
C281 C 0.50726 0.04661 -0.00352 0.0
C282 C 0.45273 0.02229 0.98008 0.0
H283 H 0.59832 0.0557 0.06229 0.0
H284 H 0.51607 0.06878 0.96196 0.0
C285 C 0.44191 0.99597 0.02839 0.0
C286 C 0.50862 0.95888 0.49168 0.0
C287 C 0.45188 0.98008 0.47512 0.0
H288 H 0.60258 0.95669 0.55308 0.0
C289 C 0.44225 0.00953 0.51898 0.0
H290 H 0.51693 0.9349 0.46038 0.0
C291 C 0.4912 0.02101 0.57354 0.0
C292 C 0.55051 0.00376 0.58391 0.0
H293 H 0.39825 0.0252 0.50929 0.0
H294 H 0.48524 0.04718 0.60193 0.0
C295 C 0.55721 0.97021 0.54642 0.0
C296 C 0.00263 0.32657 0.17777 0.0
C297 C 0.06526 0.33156 0.21459 0.0
H298 H 0.90697 0.32807 0.17777 0.0
C299 C 0.07898 0.33627 0.28389 0.0
H300 H 0.99029 0.32267 0.12451 0.0
C301 C 0.03112 0.34001 0.31452 0.0
C302 C 0.96837 0.33852 0.27678 0.0
H303 H 0.12669 0.34005 0.31416 0.0
H304 H 0.04339 0.34638 0.36713 0.0
C305 C 0.95477 0.32973 0.20856 0.0
C306 C 0.04577 0.66695 0.75603 0.0
C307 C 0.03328 0.6607 0.68718 0.0
H308 H 0.00876 0.67225 0.83932 0.0
C309 C 0.97075 0.66094 0.64837 0.0
H310 H 0.09328 0.66734 0.78773 0.0
C311 C 0.92203 0.66416 0.67819 0.0
C312 C 0.93453 0.66696 0.74767 0.0
H313 H 0.95916 0.65642 0.59529 0.0
H314 H 0.87447 0.66182 0.64691 0.0
C315 C 0.99712 0.66991 0.78585 0.0
C316 C 0.43087 0.8403 0.18515 0.0
C317 C 0.44326 0.8379 0.25467 0.0
H318 H 0.4683 0.84528 0.10192 0.0
C319 C 0.50546 0.83278 0.29269 0.0
H320 H 0.38366 0.84413 0.1539 0.0
C321 C 0.55419 0.83291 0.26244 0.0
C322 C 0.54205 0.83867 0.19346 0.0
H323 H 0.51694 0.83072 0.3462 0.0
H324 H 0.6017 0.83116 0.29383 0.0
C325 C 0.47956 0.84096 0.15507 0.0
C326 C 0.56826 0.1713 0.7659 0.0
C327 C 0.55586 0.16895 0.69643 0.0
H328 H 0.53147 0.16747 0.84984 0.0
C329 C 0.49329 0.16642 0.65802 0.0
H330 H 0.61584 0.17301 0.79729 0.0
C331 C 0.44484 0.16346 0.68826 0.0
C332 C 0.45759 0.16244 0.75784 0.0
H333 H 0.48185 0.16457 0.6045 0.0
H334 H 0.39759 0.15963 0.6568 0.0
C335 C 0.51978 0.16785 0.79623 0.0
C336 C 0.16705 0.46905 0.87075 0.0
C337 C 0.21755 0.47106 0.92808 0.0
H338 H 0.12553 0.49228 0.77356 0.0
C339 C 0.26413 0.50099 0.93208 0.0
H340 H 0.12985 0.44699 0.86635 0.0
C341 C 0.2608 0.52769 0.87936 0.0
C342 C 0.21127 0.52462 0.82149 0.0
H343 H 0.30322 0.50394 0.97604 0.0
H344 H 0.29824 0.54944 0.88274 0.0
C345 C 0.16415 0.49538 0.818 0.0
C346 C 0.81345 0.47887 0.58805 0.0
C347 C 0.79475 0.49541 0.52438 0.0
H348 H 0.81525 0.48488 0.68909 0.0
C349 C 0.76447 0.53315 0.51478 0.0
H350 H 0.83703 0.4501 0.59716 0.0
C351 C 0.75156 0.55332 0.56756 0.0
C352 C 0.76843 0.53604 0.63083 0.0
H353 H 0.75007 0.54707 0.4662 0.0
H354 H 0.72769 0.58199 0.55861 0.0
C355 C 0.80035 0.49888 0.6406 0.0
C356 C 0.81777 0.47917 0.11033 0.0
C357 C 0.75844 0.46771 0.1153 0.0
H358 H 0.87004 0.51878 0.06397 0.0
C359 C 0.70561 0.4877 0.07669 0.0
H360 H 0.85933 0.46517 0.14164 0.0
C361 C 0.71161 0.51847 0.03356 0.0
C362 C 0.77074 0.53033 0.02836 0.0
H363 H 0.65955 0.48013 0.08121 0.0
H364 H 0.66968 0.53288 0.00382 0.0
C365 C 0.82394 0.51055 0.06742 0.0
C366 C 0.17286 0.48094 0.3248 0.0
C367 C 0.23102 0.46277 0.33146 0.0
H368 H 0.11978 0.52213 0.3651 0.0
C369 C 0.28141 0.47251 0.38574 0.0
H370 H 0.13367 0.47438 0.28213 0.0
C371 C 0.2741 0.50082 0.43202 0.0
C372 C 0.21607 0.5197 0.42502 0.0
H373 H 0.32708 0.45993 0.39047 0.0
H374 H 0.31423 0.50805 0.47323 0.0
C375 C 0.16529 0.50898 0.37127 0.0
C376 C 0.69976 0.03328 0.93531 0.0
C377 C 0.70327 0.99078 0.93245 0.0
H378 H 0.71188 0.09021 0.8909 0.0
C379 C 0.71845 0.97294 0.87905 0.0
H380 H 0.68736 0.04774 0.97598 0.0
C381 C 0.7334 0.99728 0.83122 0.0
C382 C 0.73275 0.03991 0.83554 0.0
H383 H 0.72159 0.9404 0.87588 0.0
H384 H 0.74611 0.98251 0.79103 0.0
C385 C 0.71402 0.05766 0.88702 0.0
C386 C 0.23095 0.02325 0.5837 0.0
C387 C 0.27931 0.02169 0.64268 0.0
H388 H 0.19064 0.99752 0.48813 0.0
C389 C 0.32595 0.99236 0.64975 0.0
H390 H 0.1938 0.04497 0.57761 0.0
C391 C 0.32418 0.9649 0.59904 0.0
C392 C 0.27524 0.9658 0.54024 0.0
H393 H 0.36363 0.99035 0.69516 0.0
H394 H 0.36138 0.94317 0.60582 0.0
C395 C 0.22866 0.99541 0.53316 0.0
C396 C 0.3238 0.00719 0.15187 0.0
C397 C 0.27588 0.97787 0.14337 0.0
H398 H 0.36366 0.05564 0.10862 0.0
C399 C 0.22977 0.97572 0.08271 0.0
H400 H 0.35993 0.0096 0.1985 0.0
C401 C 0.23093 0.00289 0.03187 0.0
C402 C 0.27889 0.03236 0.04024 0.0
H403 H 0.19178 0.95396 0.07531 0.0
H404 H 0.19456 1.00024 -0.01447 0.0
C405 C 0.32554 0.03395 0.10079 0.0
C406 C 0.72737 0.0386 0.37708 0.0
C407 C 0.70672 0.02278 0.42895 0.0
H408 H 0.75663 0.02563 0.29128 0.0
C409 C 0.69416 0.98094 0.4308 0.0
H410 H 0.73752 0.07059 0.37484 0.0
C411 C 0.70534 0.95491 0.38343 0.0
C412 C 0.72992 0.97032 0.33387 0.0
H413 H 0.67748 0.96813 0.47038 0.0
H414 H 0.69659 0.92281 0.38682 0.0
C415 C 0.73916 0.01256 0.33009 0.0
loop_
_geom_bond_atom_site_label_1
_geom_bond_atom_site_label_2
_geom_bond_distance
_geom_bond_site_symmetry_2
_ccdc_geom_bond_type
Sc0 O3 2.025 . S
Sc0 O10 2.105 . S
Sc0 O13 2.105 1_554 S
Sc0 O16 2.105 . S
Sc0 O19 2.105 . S
Sc1 O3 2.025 . S
Sc1 O11 2.105 . S
Sc1 O15 2.105 . S
Sc1 O17 2.105 . S
Sc1 O21 2.105 . S
Sc2 O3 2.025 . S
Sc2 O12 2.105 . S
Sc2 O14 2.105 . S
Sc2 O18 2.105 . S
Sc2 O20 2.105 . S
O3 Sc0 2.025 . S
O3 Sc1 2.025 . S
O3 Sc2 2.025 . S
C4 O10 1.268 . S
C4 O20 1.268 . S
C5 O11 1.268 . S
C5 O19 1.268 . S
C6 O12 1.268 . S
C6 O21 1.268 . S
C7 O13 1.268 . S
C7 O17 1.268 1_556 S
C8 O14 1.268 . S
C8 O16 1.268 . S
C9 O15 1.268 . S
C9 O18 1.268 . S
O10 Sc0 2.105 . S
O10 C4 1.268 . S
O11 Sc1 2.105 . S
O11 C5 1.268 . S
O12 Sc2 2.105 . S
O12 C6 1.268 . S
O13 Sc0 2.105 1_556 S
O13 C7 1.268 . S
O14 Sc2 2.105 . S
O14 C8 1.268 . S
O15 Sc1 2.105 . S
O15 C9 1.268 . S
O16 Sc0 2.105 . S
O16 C8 1.268 . S
O17 Sc1 2.105 . S
O17 C7 1.268 1_554 S
O18 Sc2 2.105 . S
O18 C9 1.268 . S
O19 Sc0 2.105 . S
O19 C5 1.268 . S
O20 Sc2 2.105 . S
O20 C4 1.268 . S
O21 Sc1 2.105 . S
O21 C6 1.268 . S
Sc22 O25 2.025 . S
Sc22 O32 2.105 . S
Sc22 O35 2.105 . S
Sc22 O38 2.105 . S
Sc22 O41 2.105 . S
Sc23 O25 2.025 . S
Sc23 O33 2.105 . S
Sc23 O37 2.105 . S
Sc23 O39 2.105 . S
Sc23 O43 2.105 . S
Sc24 O25 2.025 . S
Sc24 O34 2.105 . S
Sc24 O36 2.105 . S
Sc24 O40 2.105 . S
Sc24 O42 2.105 . S
O25 Sc22 2.025 . S
O25 Sc23 2.025 . S
O25 Sc24 2.025 . S
C26 O32 1.268 . S
C26 O42 1.268 . S
C27 O33 1.268 . S
C27 O41 1.268 . S
C28 O34 1.268 . S
C28 O43 1.268 . S
C29 O35 1.268 . S
C29 O39 1.268 . S
C30 O36 1.268 . S
C30 O38 1.268 . S
C31 O37 1.268 . S
C31 O40 1.268 . S
O32 Sc22 2.105 . S
O32 C26 1.268 . S
O33 Sc23 2.105 . S
O33 C27 1.268 . S
O34 Sc24 2.105 . S
O34 C28 1.268 . S
O35 Sc22 2.105 . S
O35 C29 1.268 . S
O36 Sc24 2.105 . S
O36 C30 1.268 . S
O37 Sc23 2.105 . S
O37 C31 1.268 . S
O38 Sc22 2.105 . S
O38 C30 1.268 . S
O39 Sc23 2.105 . S
O39 C29 1.268 . S
O40 Sc24 2.105 . S
O40 C31 1.268 . S
O41 Sc22 2.105 . S
O41 C27 1.268 . S
O42 Sc24 2.105 . S
O42 C26 1.268 . S
O43 Sc23 2.105 . S
O43 C28 1.268 . S
Sc44 O47 2.025 . S
Sc44 O54 2.105 . S
Sc44 O57 2.105 . S
Sc44 O60 2.105 . S
Sc44 O63 2.105 . S
Sc45 O47 2.025 . S
Sc45 O55 2.105 . S
Sc45 O59 2.105 . S
Sc45 O61 2.105 . S
Sc45 O65 2.105 . S
Sc46 O47 2.025 . S
Sc46 O56 2.105 . S
Sc46 O58 2.105 . S
Sc46 O62 2.105 1_556 S
Sc46 O64 2.105 . S
O47 Sc44 2.025 . S
O47 Sc45 2.025 . S
O47 Sc46 2.025 . S
C48 O54 1.268 . S
C48 O64 1.268 . S
C49 O55 1.268 . S
C49 O63 1.268 . S
C50 O56 1.268 . S
C50 O65 1.268 . S
C51 O57 1.268 . S
C51 O61 1.268 . S
C52 O58 1.268 . S
C52 O60 1.268 . S
C53 O59 1.268 1_554 S
C53 O62 1.268 . S
O54 Sc44 2.105 . S
O54 C48 1.268 . S
O55 Sc45 2.105 . S
O55 C49 1.268 . S
O56 Sc46 2.105 . S
O56 C50 1.268 . S
O57 Sc44 2.105 . S
O57 C51 1.268 . S
O58 Sc46 2.105 . S
O58 C52 1.268 . S
O59 Sc45 2.105 . S
O59 C53 1.268 1_556 S
O60 Sc44 2.105 . S
O60 C52 1.268 . S
O61 Sc45 2.105 . S
O61 C51 1.268 . S
O62 Sc46 2.105 1_554 S
O62 C53 1.268 . S
O63 Sc44 2.105 . S
O63 C49 1.268 . S
O64 Sc46 2.105 . S
O64 C48 1.268 . S
O65 Sc45 2.105 . S
O65 C50 1.268 . S
Sc66 O69 2.025 . S
Sc66 O76 2.105 . S
Sc66 O79 2.105 . S
Sc66 O82 2.105 . S
Sc66 O85 2.105 . S
Sc67 O69 2.025 . S
Sc67 O77 2.105 . S
Sc67 O81 2.105 . S
Sc67 O83 2.105 . S
Sc67 O87 2.105 . S
Sc68 O69 2.025 . S
Sc68 O78 2.105 . S
Sc68 O80 2.105 . S
Sc68 O84 2.105 . S
Sc68 O86 2.105 . S
O69 Sc66 2.025 . S
O69 Sc67 2.025 . S
O69 Sc68 2.025 . S
C70 O76 1.268 . S
C70 O86 1.268 . S
C71 O77 1.268 . S
C71 O85 1.268 . S
C72 O78 1.268 . S
C72 O87 1.268 . S
C73 O79 1.268 . S
C73 O83 1.268 . S
C74 O80 1.268 . S
C74 O82 1.268 . S
C75 O81 1.268 . S
C75 O84 1.268 . S
O76 Sc66 2.105 . S
O76 C70 1.268 . S
O77 Sc67 2.105 . S
O77 C71 1.268 . S
O78 Sc68 2.105 . S
O78 C72 1.268 . S
O79 Sc66 2.105 . S
O79 C73 1.268 . S
O80 Sc68 2.105 . S
O80 C74 1.268 . S
O81 Sc67 2.105 . S
O81 C75 1.268 . S
O82 Sc66 2.105 . S
O82 C74 1.268 . S
O83 Sc67 2.105 . S
O83 C73 1.268 . S
O84 Sc68 2.105 . S
O84 C75 1.268 . S
O85 Sc66 2.105 . S
O85 C71 1.268 . S
O86 Sc68 2.105 . S
O86 C70 1.268 . S
O87 Sc67 2.105 . S
O87 C72 1.268 . S
Sc88 O91 2.025 . S
Sc88 O98 2.105 . S
Sc88 O101 2.105 1_554 S
Sc88 O104 2.105 . S
Sc88 O107 2.105 . S
Sc89 O91 2.025 . S
Sc89 O99 2.105 . S
Sc89 O103 2.105 . S
Sc89 O105 2.105 . S
Sc89 O109 2.105 . S
Sc90 O91 2.025 . S
Sc90 O100 2.105 . S
Sc90 O102 2.105 . S
Sc90 O106 2.105 . S
Sc90 O108 2.105 . S
O91 Sc88 2.025 . S
O91 Sc89 2.025 . S
O91 Sc90 2.025 . S
C92 O98 1.268 . S
C92 O108 1.268 . S
C93 O99 1.268 . S
C93 O107 1.268 . S
C94 O100 1.268 . S
C94 O109 1.268 . S
C95 O101 1.268 . S
C95 O105 1.268 1_556 S
C96 O102 1.268 . S
C96 O104 1.268 . S
C97 O103 1.268 . S
C97 O106 1.268 . S
O98 Sc88 2.105 . S
O98 C92 1.268 . S
O99 Sc89 2.105 . S
O99 C93 1.268 . S
O100 Sc90 2.105 . S
O100 C94 1.268 . S
O101 Sc88 2.105 1_556 S
O101 C95 1.268 . S
O102 Sc90 2.105 . S
O102 C96 1.268 . S
O103 Sc89 2.105 . S
O103 C97 1.268 . S
O104 Sc88 2.105 . S
O104 C96 1.268 . S
O105 Sc89 2.105 . S
O105 C95 1.268 1_554 S
O106 Sc90 2.105 . S
O106 C97 1.268 . S
O107 Sc88 2.105 . S
O107 C93 1.268 . S
O108 Sc90 2.105 . S
O108 C92 1.268 . S
O109 Sc89 2.105 . S
O109 C94 1.268 . S
Sc110 O113 2.025 . S
Sc110 O120 2.105 . S
Sc110 O123 2.105 . S
Sc110 O126 2.105 . S
Sc110 O129 2.105 . S
Sc111 O113 2.025 . S
Sc111 O121 2.105 . S
Sc111 O125 2.105 . S
Sc111 O127 2.105 . S
Sc111 O131 2.105 . S
Sc112 O113 2.025 . S
Sc112 O122 2.105 . S
Sc112 O124 2.105 . S
Sc112 O128 2.105 . S
Sc112 O130 2.105 . S
O113 Sc110 2.025 . S
O113 Sc111 2.025 . S
O113 Sc112 2.025 . S
C114 O120 1.268 . S
C114 O130 1.268 . S
C115 O121 1.268 . S
C115 O129 1.268 . S
C116 O122 1.268 . S
C116 O131 1.268 . S
C117 O123 1.268 . S
C117 O127 1.268 . S
C118 O124 1.268 . S
C118 O126 1.268 . S
C119 O125 1.268 . S
C119 O128 1.268 . S
O120 Sc110 2.105 . S
O120 C114 1.268 . S
O121 Sc111 2.105 . S
O121 C115 1.268 . S
O122 Sc112 2.105 . S
O122 C116 1.268 . S
O123 Sc110 2.105 . S
O123 C117 1.268 . S
O124 Sc112 2.105 . S
O124 C118 1.268 . S
O125 Sc111 2.105 . S
O125 C119 1.268 . S
O126 Sc110 2.105 . S
O126 C118 1.268 . S
O127 Sc111 2.105 . S
O127 C117 1.268 . S
O128 Sc112 2.105 . S
O128 C119 1.268 . S
O129 Sc110 2.105 . S
O129 C115 1.268 . S
O130 Sc112 2.105 . S
O130 C114 1.268 . S
O131 Sc111 2.105 . S
O131 C116 1.268 . S
Sc132 O135 2.025 . S
Sc132 O142 2.105 . S
Sc132 O145 2.105 . S
Sc132 O148 2.105 . S
Sc132 O151 2.105 . S
Sc133 O135 2.025 . S
Sc133 O143 2.105 . S
Sc133 O147 2.105 . S
Sc133 O149 2.105 . S
Sc133 O153 2.105 . S
Sc134 O135 2.025 . S
Sc134 O144 2.105 . S
Sc134 O146 2.105 . S
Sc134 O150 2.105 1_556 S
Sc134 O152 2.105 . S
O135 Sc132 2.025 . S
O135 Sc133 2.025 . S
O135 Sc134 2.025 . S
C136 O142 1.268 . S
C136 O152 1.268 . S
C137 O143 1.268 . S
C137 O151 1.268 . S
C138 O144 1.268 . S
C138 O153 1.268 . S
C139 O145 1.268 . S
C139 O149 1.268 . S
C140 O146 1.268 . S
C140 O148 1.268 . S
C141 O147 1.268 1_554 S
C141 O150 1.268 . S
O142 Sc132 2.105 . S
O142 C136 1.268 . S
O143 Sc133 2.105 . S
O143 C137 1.268 . S
O144 Sc134 2.105 . S
O144 C138 1.268 . S
O145 Sc132 2.105 . S
O145 C139 1.268 . S
O146 Sc134 2.105 . S
O146 C140 1.268 . S
O147 Sc133 2.105 . S
O147 C141 1.268 1_556 S
O148 Sc132 2.105 . S
O148 C140 1.268 . S
O149 Sc133 2.105 . S
O149 C139 1.268 . S
O150 Sc134 2.105 1_554 S
O150 C141 1.268 . S
O151 Sc132 2.105 . S
O151 C137 1.268 . S
O152 Sc134 2.105 . S
O152 C136 1.268 . S
O153 Sc133 2.105 . S
O153 C138 1.268 . S
Sc154 O157 2.025 . S
Sc154 O164 2.105 . S
Sc154 O167 2.105 . S
Sc154 O170 2.105 . S
Sc154 O173 2.105 . S
Sc155 O157 2.025 . S
Sc155 O165 2.105 . S
Sc155 O169 2.105 . S
Sc155 O171 2.105 . S
Sc155 O175 2.105 . S
Sc156 O157 2.025 . S
Sc156 O166 2.105 . S
Sc156 O168 2.105 . S
Sc156 O172 2.105 . S
Sc156 O174 2.105 . S
O157 Sc154 2.025 . S
O157 Sc155 2.025 . S
O157 Sc156 2.025 . S
C158 O164 1.268 . S
C158 O174 1.268 . S
C159 O165 1.268 . S
C159 O173 1.268 . S
C160 O166 1.268 . S
C160 O175 1.268 . S
C161 O167 1.268 . S
C161 O171 1.268 . S
C162 O168 1.268 . S
C162 O170 1.268 . S
C163 O169 1.268 . S
C163 O172 1.268 . S
O164 Sc154 2.105 . S
O164 C158 1.268 . S
O165 Sc155 2.105 . S
O165 C159 1.268 . S
O166 Sc156 2.105 . S
O166 C160 1.268 . S
O167 Sc154 2.105 . S
O167 C161 1.268 . S
O168 Sc156 2.105 . S
O168 C162 1.268 . S
O169 Sc155 2.105 . S
O169 C163 1.268 . S
O170 Sc154 2.105 . S
O170 C162 1.268 . S
O171 Sc155 2.105 . S
O171 C161 1.268 . S
O172 Sc156 2.105 . S
O172 C163 1.268 . S
O173 Sc154 2.105 . S
O173 C159 1.268 . S
O174 Sc156 2.105 . S
O174 C158 1.268 . S
O175 Sc155 2.105 . S
O175 C160 1.268 . S
C176 C177 1.387 . S
C176 H180 0.950 . S
C176 C185 1.390 . S
C177 C176 1.387 . S
C177 C179 1.387 . S
H178 C185 0.950 . S
C179 C177 1.387 . S
C179 C181 1.390 . S
C179 H183 0.950 . S
H180 C176 0.950 . S
C181 C179 1.390 . S
C181 C182 1.387 . S
C181 H184 0.950 . S
C182 C181 1.387 . S
C182 C185 1.387 . S
H183 C179 0.950 . S
H184 C181 0.950 . S
C185 C176 1.390 . S
C185 H178 0.950 . S
C185 C182 1.387 . S
C186 C187 1.387 . S
C186 H190 0.950 . S
C186 C195 1.390 . S
C187 C186 1.387 . S
C187 C189 1.387 . S
H188 C195 0.950 . S
C189 C187 1.387 . S
C189 C191 1.390 . S
C189 H193 0.950 . S
H190 C186 0.950 . S
C191 C189 1.390 . S
C191 C192 1.387 . S
C191 H194 0.950 . S
C192 C191 1.387 . S
C192 C195 1.387 . S
H193 C189 0.950 . S
H194 C191 0.950 . S
C195 C186 1.390 . S
C195 H188 0.950 . S
C195 C192 1.387 . S
C196 C197 1.387 . S
C196 H200 0.950 . S
C196 C205 1.390 1_455 S
C197 C196 1.387 . S
C197 C199 1.387 . S
H198 C205 0.950 . S
C199 C197 1.387 . S
C199 C201 1.390 1_455 S
C199 H203 0.950 . S
H200 C196 0.950 . S
C201 C199 1.390 1_655 S
C201 C202 1.387 . S
C201 H204 0.950 . S
C202 C201 1.387 . S
C202 C205 1.387 . S
H203 C199 0.950 . S
H204 C201 0.950 . S
C205 C196 1.390 1_655 S
C205 H198 0.950 . S
C205 C202 1.387 . S
C206 C207 1.387 . S
C206 H210 0.950 . S
C206 C215 1.390 1_455 S
C207 C206 1.387 . S
C207 C209 1.387 . S
H208 C215 0.950 . S
C209 C207 1.387 . S
C209 C211 1.390 1_455 S
C209 H213 0.950 . S
H210 C206 0.950 . S
C211 C209 1.390 1_655 S
C211 C212 1.387 . S
C211 H214 0.950 . S
C212 C211 1.387 . S
C212 C215 1.387 . S
H213 C209 0.950 . S
H214 C211 0.950 . S
C215 C206 1.390 1_655 S
C215 H208 0.950 . S
C215 C212 1.387 . S
C216 C217 1.387 . S
C216 H220 0.950 . S
C216 C225 1.390 1_554 S
C217 C216 1.387 . S
C217 C219 1.387 . S
H218 C225 0.950 . S
C219 C217 1.387 . S
C219 C221 1.390 1_554 S
C219 H223 0.950 . S
H220 C216 0.950 . S
C221 C219 1.390 1_556 S
C221 C222 1.387 . S
C221 H224 0.950 . S
C222 C221 1.387 . S
C222 C225 1.387 . S
H223 C219 0.950 . S
H224 C221 0.950 . S
C225 C216 1.390 1_556 S
C225 H218 0.950 . S
C225 C222 1.387 . S
C226 C227 1.387 . S
C226 H230 0.950 . S
C226 C235 1.390 . S
C227 C226 1.387 . S
C227 C229 1.387 . S
H228 C235 0.950 . S
C229 C227 1.387 . S
C229 C231 1.390 . S
C229 H233 0.950 . S
H230 C226 0.950 . S
C231 C229 1.390 . S
C231 C232 1.387 . S
C231 H234 0.950 . S
C232 C231 1.387 . S
C232 C235 1.387 . S
H233 C229 0.950 . S
H234 C231 0.950 . S
C235 C226 1.390 . S
C235 H228 0.950 . S
C235 C232 1.387 . S
C236 C237 1.387 1_556 S
C236 H240 0.950 . S
C236 C245 1.390 . S
C237 C236 1.387 1_554 S
C237 C239 1.387 . S
H238 C245 0.950 . S
C239 C237 1.387 . S
C239 C241 1.390 . S
C239 H243 0.950 . S
H240 C236 0.950 . S
C241 C239 1.390 . S
C241 C242 1.387 1_554 S
C241 H244 0.950 . S
C242 C241 1.387 1_556 S
C242 C245 1.387 . S
H243 C239 0.950 . S
H244 C241 0.950 . S
C245 C236 1.390 . S
C245 H238 0.950 . S
C245 C242 1.387 . S
C246 C247 1.387 . S
C246 H250 0.950 . S
C246 C255 1.390 . S
C247 C246 1.387 . S
C247 C249 1.387 . S
H248 C255 0.950 . S
C249 C247 1.387 . S
C249 C251 1.390 . S
C249 H253 0.950 . S
H250 C246 0.950 . S
C251 C249 1.390 . S
C251 C252 1.387 . S
C251 H254 0.950 . S
C252 C251 1.387 . S
C252 C255 1.387 . S
H253 C249 0.950 . S
H254 C251 0.950 . S
C255 C246 1.390 . S
C255 H248 0.950 . S
C255 C252 1.387 . S
C256 C257 1.387 . S
C256 H260 0.950 . S
C256 C265 1.390 1_656 S
C257 C256 1.387 . S
C257 C259 1.387 . S
H258 C265 0.950 . S
C259 C257 1.387 . S
C259 C261 1.390 1_656 S
C259 H263 0.950 . S
H260 C256 0.950 . S
C261 C259 1.390 1_454 S
C261 C262 1.387 . S
C261 H264 0.950 . S
C262 C261 1.387 . S
C262 C265 1.387 . S
H263 C259 0.950 . S
H264 C261 0.950 . S
C265 C256 1.390 1_454 S
C265 H258 0.950 . S
C265 C262 1.387 . S
C266 C267 1.387 . S
C266 H270 0.950 . S
C266 C275 1.390 1_455 S
C267 C266 1.387 . S
C267 C269 1.387 . S
H268 C275 0.950 . S
C269 C267 1.387 . S
C269 C271 1.390 1_455 S
C269 H273 0.950 . S
H270 C266 0.950 . S
C271 C269 1.390 1_655 S
C271 C272 1.387 . S
C271 H274 0.950 . S
C272 C271 1.387 . S
C272 C275 1.387 . S
H273 C269 0.950 . S
H274 C271 0.950 . S
C275 C266 1.390 1_655 S
C275 H268 0.950 . S
C275 C272 1.387 . S
C276 C277 1.387 . S
C276 H280 0.950 . S
C276 C285 1.390 1_554 S
C277 C276 1.387 . S
C277 C279 1.387 1_565 S
H278 C285 0.950 . S
C279 C277 1.387 1_545 S
C279 C281 1.390 1_554 S
C279 H283 0.950 . S
H280 C276 0.950 . S
C281 C279 1.390 1_556 S
C281 C282 1.387 . S
C281 H284 0.950 . S
C282 C281 1.387 . S
C282 C285 1.387 1_545 S
H283 C279 0.950 . S
H284 C281 0.950 . S
C285 C276 1.390 1_556 S
C285 H278 0.950 . S
C285 C282 1.387 1_565 S
C286 C287 1.387 . S
C286 H290 0.950 . S
C286 C295 1.390 . S
C287 C286 1.387 . S
C287 C289 1.387 1_565 S
H288 C295 0.950 . S
C289 C287 1.387 1_545 S
C289 C291 1.390 . S
C289 H293 0.950 . S
H290 C286 0.950 . S
C291 C289 1.390 . S
C291 C292 1.387 . S
C291 H294 0.950 . S
C292 C291 1.387 . S
C292 C295 1.387 1_545 S
H293 C289 0.950 . S
H294 C291 0.950 . S
C295 C286 1.390 . S
C295 H288 0.950 . S
C295 C292 1.387 1_565 S
C296 C297 1.387 . S
C296 H300 0.950 . S
C296 C305 1.390 1_455 S
C297 C296 1.387 . S
C297 C299 1.387 . S
H298 C305 0.950 . S
C299 C297 1.387 . S
C299 C301 1.390 1_455 S
C299 H303 0.950 . S
H300 C296 0.950 . S
C301 C299 1.390 1_655 S
C301 C302 1.387 . S
C301 H304 0.950 . S
C302 C301 1.387 . S
C302 C305 1.387 . S
H303 C299 0.950 . S
H304 C301 0.950 . S
C305 C296 1.390 1_655 S
C305 H298 0.950 . S
C305 C302 1.387 . S
C306 C307 1.387 . S
C306 H310 0.950 . S
C306 C315 1.390 1_455 S
C307 C306 1.387 . S
C307 C309 1.387 . S
H308 C315 0.950 . S
C309 C307 1.387 . S
C309 C311 1.390 1_455 S
C309 H313 0.950 . S
H310 C306 0.950 . S
C311 C309 1.390 1_655 S
C311 C312 1.387 . S
C311 H314 0.950 . S
C312 C311 1.387 . S
C312 C315 1.387 . S
H313 C309 0.950 . S
H314 C311 0.950 . S
C315 C306 1.390 1_655 S
C315 H308 0.950 . S
C315 C312 1.387 . S
C316 C317 1.387 . S
C316 H320 0.950 . S
C316 C325 1.390 . S
C317 C316 1.387 . S
C317 C319 1.387 . S
H318 C325 0.950 . S
C319 C317 1.387 . S
C319 C321 1.390 . S
C319 H323 0.950 . S
H320 C316 0.950 . S
C321 C319 1.390 . S
C321 C322 1.387 . S
C321 H324 0.950 . S
C322 C321 1.387 . S
C322 C325 1.387 . S
H323 C319 0.950 . S
H324 C321 0.950 . S
C325 C316 1.390 . S
C325 H318 0.950 . S
C325 C322 1.387 . S
C326 C327 1.387 . S
C326 H330 0.950 . S
C326 C335 1.390 . S
C327 C326 1.387 . S
C327 C329 1.387 . S
H328 C335 0.950 . S
C329 C327 1.387 . S
C329 C331 1.390 . S
C329 H333 0.950 . S
H330 C326 0.950 . S
C331 C329 1.390 . S
C331 C332 1.387 . S
C331 H334 0.950 . S
C332 C331 1.387 . S
C332 C335 1.387 . S
H333 C329 0.950 . S
H334 C331 0.950 . S
C335 C326 1.390 . S
C335 H328 0.950 . S
C335 C332 1.387 . S
C336 C337 1.387 . S
C336 H340 0.950 . S
C336 C345 1.390 . S
C337 C336 1.387 . S
C337 C339 1.387 . S
H338 C345 0.950 . S
C339 C337 1.387 . S
C339 C341 1.390 . S
C339 H343 0.950 . S
H340 C336 0.950 . S
C341 C339 1.390 . S
C341 C342 1.387 . S
C341 H344 0.950 . S
C342 C341 1.387 . S
C342 C345 1.387 . S
H343 C339 0.950 . S
H344 C341 0.950 . S
C345 C336 1.390 . S
C345 H338 0.950 . S
C345 C342 1.387 . S
C346 C347 1.387 . S
C346 H350 0.950 . S
C346 C355 1.390 . S
C347 C346 1.387 . S
C347 C349 1.387 . S
H348 C355 0.950 . S
C349 C347 1.387 . S
C349 C351 1.390 . S
C349 H353 0.950 . S
H350 C346 0.950 . S
C351 C349 1.390 . S
C351 C352 1.387 . S
C351 H354 0.950 . S
C352 C351 1.387 . S
C352 C355 1.387 . S
H353 C349 0.950 . S
H354 C351 0.950 . S
C355 C346 1.390 . S
C355 H348 0.950 . S
C355 C352 1.387 . S
C356 C357 1.387 . S
C356 H360 0.950 . S
C356 C365 1.390 . S
C357 C356 1.387 . S
C357 C359 1.387 . S
H358 C365 0.950 . S
C359 C357 1.387 . S
C359 C361 1.390 . S
C359 H363 0.950 . S
H360 C356 0.950 . S
C361 C359 1.390 . S
C361 C362 1.387 . S
C361 H364 0.950 . S
C362 C361 1.387 . S
C362 C365 1.387 . S
H363 C359 0.950 . S
H364 C361 0.950 . S
C365 C356 1.390 . S
C365 H358 0.950 . S
C365 C362 1.387 . S
C366 C367 1.387 . S
C366 H370 0.950 . S
C366 C375 1.390 . S
C367 C366 1.387 . S
C367 C369 1.387 . S
H368 C375 0.950 . S
C369 C367 1.387 . S
C369 C371 1.390 . S
C369 H373 0.950 . S
H370 C366 0.950 . S
C371 C369 1.390 . S
C371 C372 1.387 . S
C371 H374 0.950 . S
C372 C371 1.387 . S
C372 C375 1.387 . S
H373 C369 0.950 . S
H374 C371 0.950 . S
C375 C366 1.390 . S
C375 H368 0.950 . S
C375 C372 1.387 . S
C376 C377 1.387 . S
C376 H380 0.950 . S
C376 C385 1.390 1_565 S
C377 C376 1.387 . S
C377 C379 1.387 . S
H378 C385 0.950 . S
C379 C377 1.387 . S
C379 C381 1.390 . S
C379 H383 0.950 . S
H380 C376 0.950 . S
C381 C379 1.390 . S
C381 C382 1.387 1_565 S
C381 H384 0.950 . S
C382 C381 1.387 1_545 S
C382 C385 1.387 . S
H383 C379 0.950 . S
H384 C381 0.950 . S
C385 C376 1.390 1_545 S
C385 H378 0.950 . S
C385 C382 1.387 . S
C386 C387 1.387 1_565 S
C386 H390 0.950 1_565 S
C386 C395 1.390 . S
C387 C386 1.387 1_545 S
C387 C389 1.387 . S
H388 C395 0.950 . S
C389 C387 1.387 . S
C389 C391 1.390 1_545 S
C389 H393 0.950 . S
H390 C386 0.950 1_545 S
C391 C389 1.390 1_565 S
C391 C392 1.387 . S
C391 H394 0.950 . S
C392 C391 1.387 . S
C392 C395 1.387 . S
H393 C389 0.950 . S
H394 C391 0.950 . S
C395 C386 1.390 . S
C395 H388 0.950 . S
C395 C392 1.387 . S
C396 C397 1.387 1_545 S
C396 H400 0.950 . S
C396 C405 1.390 . S
C397 C396 1.387 1_565 S
C397 C399 1.387 . S
H398 C405 0.950 . S
C399 C397 1.387 . S
C399 C401 1.390 1_565 S
C399 H403 0.950 . S
H400 C396 0.950 . S
C401 C399 1.390 1_545 S
C401 C402 1.387 . S
C401 H404 0.954 . S
C402 C401 1.387 . S
C402 C405 1.387 . S
H403 C399 0.950 . S
H404 C401 0.954 . S
C405 C396 1.390 . S
C405 H398 0.950 . S
C405 C402 1.387 . S
C406 C407 1.387 . S
C406 H410 0.950 . S
C406 C415 1.376 1_545 S
C407 C406 1.387 . S
C407 C409 1.387 . S
H408 C415 0.958 . S
C409 C407 1.387 . S
C409 C411 1.390 . S
C409 H413 0.950 . S
H410 C406 0.950 . S
C411 C409 1.390 . S
C411 C412 1.387 1_545 S
C411 H414 0.950 1_545 S
C412 C411 1.387 1_565 S
C412 C415 1.394 . S
H413 C409 0.950 . S
H414 C411 0.950 1_565 S
C415 C406 1.376 1_565 S
C415 H408 0.958 . S
C415 C412 1.394 . S
C177 C27 1.425 . S
C182 C9 1.425 . S
C187 C51 1.425 . S
C192 C72 1.425 . S
C197 C115 1.425 . S
C202 C97 1.425 . S
C207 C139 1.422 . S
C212 C160 1.422 . S
C217 C8 1.619 . S
C222 C140 1.619 . S
C227 C26 1.619 . S
C232 C158 1.619 . S
C237 C96 1.619 . S
C242 C52 1.619 . S
C247 C70 1.620 . S
C252 C114 1.620 . S
C257 C50 1.066 . S
C262 C5 1.066 . S
C267 C73 1.062 . S
C272 C31 1.062 . S
C277 C93 1.061 . S
C282 C138 1.061 . S
C287 C119 1.062 . S
C292 C161 1.062 . S
C297 C4 1.858 . S
C302 C30 1.858 . S
C307 C74 1.858 . S
C312 C48 1.858 . S
C317 C118 1.858 . S
C322 C92 1.858 . S
C327 C162 1.858 . S
C332 C136 1.858 . S
C337 C7 1.312 . S
C342 C75 1.432 . S
C347 C28 1.312 . S
C352 C49 1.432 . S
C357 C29 1.430 . S
C362 C53 1.308 . S
C367 C6 1.430 . S
C372 C71 1.308 . S
C377 C95 1.312 . S
C382 C163 1.432 . S
C387 C137 1.431 . S
C392 C116 1.308 . S
C397 C117 1.431 . S
C402 C141 1.309 . S
C407 C159 1.313 . S
C412 C94 1.432 . S
