# Generated by pormake.
# Topology afi, (4)-cn, num edge types: 1
# Building blocks:
#     Node 0, Type 0, BuildingBlock: KUFVIS_clean_sbu_0, # of connection points: 4
#     Node 1, Type 0, BuildingBlock: KUFVIS_clean_sbu_0, # of connection points: 4
#     Node 2, Type 0, BuildingBlock: KUFVIS_clean_sbu_0, # of connection points: 4
#     Node 3, Type 0, BuildingBlock: KUFVIS_clean_sbu_0, # of connection points: 4
#     Node 4, Type 0, BuildingBlock: KUFVIS_clean_sbu_0, # of connection points: 4
#     Node 5, Type 0, BuildingBlock: KUFVIS_clean_sbu_0, # of connection points: 4
#     Node 6, Type 0, BuildingBlock: KUFVIS_clean_sbu_0, # of connection points: 4
#     Node 7, Type 0, BuildingBlock: KUFVIS_clean_sbu_0, # of connection points: 4
#     Node 8, Type 0, BuildingBlock: KUFVIS_clean_sbu_0, # of connection points: 4
#     Node 9, Type 0, BuildingBlock: KUFVIS_clean_sbu_0, # of connection points: 4
#     Node 10, Type 0, BuildingBlock: KUFVIS_clean_sbu_0, # of connection points: 4
#     Node 11, Type 0, BuildingBlock: KUFVIS_clean_sbu_0, # of connection points: 4
#     Node 12, Type 0, BuildingBlock: KUFVIS_clean_sbu_0, # of connection points: 4
#     Node 13, Type 0, BuildingBlock: KUFVIS_clean_sbu_0, # of connection points: 4
#     Node 14, Type 0, BuildingBlock: KUFVIS_clean_sbu_0, # of connection points: 4
#     Node 15, Type 0, BuildingBlock: KUFVIS_clean_sbu_0, # of connection points: 4
#     Node 16, Type 0, BuildingBlock: KUFVIS_clean_sbu_0, # of connection points: 4
#     Node 17, Type 0, BuildingBlock: KUFVIS_clean_sbu_0, # of connection points: 4
#     Node 18, Type 0, BuildingBlock: KUFVIS_clean_sbu_0, # of connection points: 4
#     Node 19, Type 0, BuildingBlock: KUFVIS_clean_sbu_0, # of connection points: 4
#     Node 20, Type 0, BuildingBlock: KUFVIS_clean_sbu_0, # of connection points: 4
#     Node 21, Type 0, BuildingBlock: KUFVIS_clean_sbu_0, # of connection points: 4
#     Node 22, Type 0, BuildingBlock: KUFVIS_clean_sbu_0, # of connection points: 4
#     Node 23, Type 0, BuildingBlock: KUFVIS_clean_sbu_0, # of connection points: 4
#     Edge 24, Type (0, 0), BuildingBlock: OJICUG_clean_linker_0, # of connection points: 2
#     Edge 25, Type (0, 0), BuildingBlock: OJICUG_clean_linker_0, # of connection points: 2
#     Edge 26, Type (0, 0), BuildingBlock: OJICUG_clean_linker_0, # of connection points: 2
#     Edge 27, Type (0, 0), BuildingBlock: OJICUG_clean_linker_0, # of connection points: 2
#     Edge 28, Type (0, 0), BuildingBlock: OJICUG_clean_linker_0, # of connection points: 2
#     Edge 29, Type (0, 0), BuildingBlock: OJICUG_clean_linker_0, # of connection points: 2
#     Edge 30, Type (0, 0), BuildingBlock: OJICUG_clean_linker_0, # of connection points: 2
#     Edge 31, Type (0, 0), BuildingBlock: OJICUG_clean_linker_0, # of connection points: 2
#     Edge 32, Type (0, 0), BuildingBlock: OJICUG_clean_linker_0, # of connection points: 2
#     Edge 33, Type (0, 0), BuildingBlock: OJICUG_clean_linker_0, # of connection points: 2
#     Edge 34, Type (0, 0), BuildingBlock: OJICUG_clean_linker_0, # of connection points: 2
#     Edge 35, Type (0, 0), BuildingBlock: OJICUG_clean_linker_0, # of connection points: 2
#     Edge 36, Type (0, 0), BuildingBlock: OJICUG_clean_linker_0, # of connection points: 2
#     Edge 37, Type (0, 0), BuildingBlock: OJICUG_clean_linker_0, # of connection points: 2
#     Edge 38, Type (0, 0), BuildingBlock: OJICUG_clean_linker_0, # of connection points: 2
#     Edge 39, Type (0, 0), BuildingBlock: OJICUG_clean_linker_0, # of connection points: 2
#     Edge 40, Type (0, 0), BuildingBlock: OJICUG_clean_linker_0, # of connection points: 2
#     Edge 41, Type (0, 0), BuildingBlock: OJICUG_clean_linker_0, # of connection points: 2
#     Edge 42, Type (0, 0), BuildingBlock: OJICUG_clean_linker_0, # of connection points: 2
#     Edge 43, Type (0, 0), BuildingBlock: OJICUG_clean_linker_0, # of connection points: 2
#     Edge 44, Type (0, 0), BuildingBlock: OJICUG_clean_linker_0, # of connection points: 2
#     Edge 45, Type (0, 0), BuildingBlock: OJICUG_clean_linker_0, # of connection points: 2
#     Edge 46, Type (0, 0), BuildingBlock: OJICUG_clean_linker_0, # of connection points: 2
#     Edge 47, Type (0, 0), BuildingBlock: OJICUG_clean_linker_0, # of connection points: 2
#     Edge 48, Type (0, 0), BuildingBlock: OJICUG_clean_linker_0, # of connection points: 2
#     Edge 49, Type (0, 0), BuildingBlock: OJICUG_clean_linker_0, # of connection points: 2
#     Edge 50, Type (0, 0), BuildingBlock: OJICUG_clean_linker_0, # of connection points: 2
#     Edge 51, Type (0, 0), BuildingBlock: OJICUG_clean_linker_0, # of connection points: 2
#     Edge 52, Type (0, 0), BuildingBlock: OJICUG_clean_linker_0, # of connection points: 2
#     Edge 53, Type (0, 0), BuildingBlock: OJICUG_clean_linker_0, # of connection points: 2
#     Edge 54, Type (0, 0), BuildingBlock: OJICUG_clean_linker_0, # of connection points: 2
#     Edge 55, Type (0, 0), BuildingBlock: OJICUG_clean_linker_0, # of connection points: 2
#     Edge 56, Type (0, 0), BuildingBlock: OJICUG_clean_linker_0, # of connection points: 2
#     Edge 57, Type (0, 0), BuildingBlock: OJICUG_clean_linker_0, # of connection points: 2
#     Edge 58, Type (0, 0), BuildingBlock: OJICUG_clean_linker_0, # of connection points: 2
#     Edge 59, Type (0, 0), BuildingBlock: OJICUG_clean_linker_0, # of connection points: 2
#     Edge 60, Type (0, 0), BuildingBlock: OJICUG_clean_linker_0, # of connection points: 2
#     Edge 61, Type (0, 0), BuildingBlock: OJICUG_clean_linker_0, # of connection points: 2
#     Edge 62, Type (0, 0), BuildingBlock: OJICUG_clean_linker_0, # of connection points: 2
#     Edge 63, Type (0, 0), BuildingBlock: OJICUG_clean_linker_0, # of connection points: 2
#     Edge 64, Type (0, 0), BuildingBlock: OJICUG_clean_linker_0, # of connection points: 2
#     Edge 65, Type (0, 0), BuildingBlock: OJICUG_clean_linker_0, # of connection points: 2
#     Edge 66, Type (0, 0), BuildingBlock: OJICUG_clean_linker_0, # of connection points: 2
#     Edge 67, Type (0, 0), BuildingBlock: OJICUG_clean_linker_0, # of connection points: 2
#     Edge 68, Type (0, 0), BuildingBlock: OJICUG_clean_linker_0, # of connection points: 2
#     Edge 69, Type (0, 0), BuildingBlock: OJICUG_clean_linker_0, # of connection points: 2
#     Edge 70, Type (0, 0), BuildingBlock: OJICUG_clean_linker_0, # of connection points: 2
#     Edge 71, Type (0, 0), BuildingBlock: OJICUG_clean_linker_0, # of connection points: 2
# Relax obj value: 0.071
# Max RMSD: 0.078
# Mean RMSD: 0.078
data_MOF--net-afi--node1-KUFVIS_clean_sbu_0--edge1-OJICUG_clean_linker_0
_symmetry_space_group_name_H-M    P1
_symmetry_Int_Tables_number       1
_symmetry_cell_setting            triclinic
loop_
_symmetry_equiv_pos_as_xyz
'x, y, z'
_cell_length_a     48.993265
_cell_length_b     49.047831
_cell_length_c     28.222609
_cell_angle_alpha  90.00578
_cell_angle_beta   89.991365
_cell_angle_gamma 119.95527
loop_
_atom_site_label
_atom_site_type_symbol
_atom_site_fract_x
_atom_site_fract_y
_atom_site_fract_z
_atom_type_partial_charge
Mn0 Mn 0.48274 0.13115 0.21266 0.0
Mn1 Mn 0.53846 0.19157 0.1486 0.0
C2 C 0.53492 0.15755 0.24002 0.0
C3 C 0.45336 0.07747 0.23078 0.0
C4 C 0.49133 0.19753 0.21111 0.0
O5 O 0.46169 0.12447 0.14724 0.0
O6 O 0.50221 0.16383 0.1082 0.0
C7 C 0.55572 0.15173 0.09181 0.0
N8 N 0.56448 0.17764 0.11923 0.0
C9 C 0.61899 0.19158 0.11554 0.0
C10 C 0.61065 0.16535 0.08657 0.0
C11 C 0.5788 0.14505 0.07539 0.0
C12 C 0.59482 0.19645 0.1321 0.0
H13 H 0.53125 0.13601 0.08326 0.0
C14 C 0.47445 0.14007 0.10955 0.0
O15 O 0.44301 0.09654 0.24067 0.0
O16 O 0.48015 0.08931 0.20881 0.0
N17 N 0.57582 0.22156 0.1808 0.0
C18 C 0.57985 0.24589 0.20902 0.0
C19 C 0.6104 0.2689 0.22256 0.0
C20 C 0.63651 0.26702 0.20637 0.0
C21 C 0.63188 0.2422 0.1766 0.0
C22 C 0.60094 0.22035 0.16341 0.0
H23 H 0.55999 0.24792 0.22086 0.0
O24 O 0.51141 0.14165 0.26845 0.0
O25 O 0.52698 0.15797 0.1961 0.0
O26 O 0.47769 0.16939 0.22685 0.0
O27 O 0.51313 0.20784 0.17982 0.0
C28 C 0.65672 0.23831 0.1594 0.0
C29 C 0.65024 0.21276 0.12938 0.0
H30 H 0.6284 0.16026 0.07343 0.0
H31 H 0.57203 0.12413 0.05457 0.0
H32 H 0.61382 0.2881 0.2453 0.0
H33 H 0.66003 0.28486 0.21676 0.0
H34 H 0.68085 0.25463 0.16945 0.0
H35 H 0.66945 0.20967 0.11703 0.0
Mn36 Mn 0.36428 0.47524 0.21118 0.0
Mn37 Mn 0.3564 0.52977 0.14869 0.0
C38 C 0.39041 0.52756 0.23656 0.0
C39 C 0.38912 0.44624 0.22904 0.0
C40 C 0.30575 0.4827 0.21398 0.0
O41 O 0.34874 0.45377 0.14629 0.0
O42 O 0.34694 0.49324 0.10822 0.0
C43 C 0.41203 0.54773 0.08844 0.0
N44 N 0.39414 0.55616 0.11467 0.0
C45 C 0.43181 0.6112 0.10525 0.0
C46 C 0.45036 0.60315 0.07724 0.0
C47 C 0.44094 0.57126 0.07034 0.0
C48 C 0.40405 0.58667 0.12455 0.0
H49 H 0.4049 0.52323 0.08334 0.0
C50 C 0.34399 0.46585 0.10927 0.0
O51 O 0.35985 0.43602 0.23972 0.0
O52 O 0.40366 0.47265 0.20601 0.0
N53 N 0.36477 0.56704 0.18202 0.0
C54 C 0.34746 0.57038 0.21693 0.0
C55 C 0.35403 0.60065 0.23006 0.0
C56 C 0.37851 0.62714 0.20752 0.0
C57 C 0.39667 0.62315 0.17287 0.0
C58 C 0.38808 0.5924 0.15975 0.0
H59 H 0.32823 0.55012 0.23374 0.0
O60 O 0.38342 0.50455 0.26581 0.0
O61 O 0.38099 0.51919 0.19308 0.0
O62 O 0.32098 0.46949 0.22826 0.0
O63 O 0.31632 0.50454 0.18304 0.0
C64 C 0.42303 0.64842 0.15101 0.0
C65 C 0.44098 0.64243 0.11787 0.0
H66 H 0.47265 0.62119 0.06293 0.0
H67 H 0.4563 0.5648 0.05227 0.0
H68 H 0.34008 0.60354 0.25717 0.0
H69 H 0.38321 0.65045 0.21713 0.0
H70 H 0.43034 0.67249 0.16068 0.0
H71 H 0.46217 0.66194 0.10317 0.0
Mn72 Mn 0.90148 0.35747 0.21136 0.0
Mn73 Mn 0.83837 0.34936 0.1505 0.0
C74 C 0.87571 0.38398 0.23721 0.0
C75 C 0.9555 0.38222 0.22784 0.0
C76 C 0.83543 0.29933 0.21653 0.0
O77 O 0.90655 0.34132 0.14636 0.0
O78 O 0.86484 0.33936 0.10938 0.0
C79 C 0.87549 0.40442 0.08915 0.0
N80 N 0.84939 0.38679 0.1159 0.0
C81 C 0.83202 0.42451 0.10657 0.0
C82 C 0.85837 0.44277 0.07797 0.0
C83 C 0.88075 0.43323 0.07081 0.0
C84 C 0.82893 0.39687 0.12611 0.0
H85 H 0.89282 0.39721 0.08387 0.0
C86 C 0.88927 0.33634 0.10977 0.0
O87 O 0.93653 0.35309 0.23914 0.0
O88 O 0.94343 0.39663 0.20488 0.0
N89 N 0.81 0.35822 0.18446 0.0
C90 C 0.78991 0.34145 0.22021 0.0
C91 C 0.7665 0.34834 0.23396 0.0
C92 C 0.76419 0.37257 0.21115 0.0
C93 C 0.78579 0.39021 0.17563 0.0
C94 C 0.80768 0.38132 0.16197 0.0
H95 H 0.79117 0.32241 0.23728 0.0
O96 O 0.89209 0.3772 0.26609 0.0
O97 O 0.87411 0.3742 0.19382 0.0
O98 O 0.86405 0.3145 0.22993 0.0
O99 O 0.82386 0.30964 0.18562 0.0
C100 C 0.78665 0.41638 0.1535 0.0
C101 C 0.81018 0.43392 0.11962 0.0
H102 H 0.86253 0.46498 0.06348 0.0
H103 H 0.90246 0.44844 0.05244 0.0
H104 H 0.75013 0.33482 0.26178 0.0
H105 H 0.74578 0.3775 0.22123 0.0
H106 H 0.77009 0.42391 0.16355 0.0
H107 H 0.81175 0.45501 0.10474 0.0
Mn108 Mn 0.55705 0.89422 0.21258 0.0
Mn109 Mn 0.50124 0.83385 0.14857 0.0
C110 C 0.50487 0.86789 0.23999 0.0
C111 C 0.58648 0.9479 0.23069 0.0
C112 C 0.54833 0.82779 0.21101 0.0
O113 O 0.57807 0.90086 0.14714 0.0
O114 O 0.53751 0.86151 0.10814 0.0
C115 C 0.48411 0.87377 0.09177 0.0
N116 N 0.47529 0.84787 0.11923 0.0
C117 C 0.42083 0.8341 0.11566 0.0
C118 C 0.42923 0.86033 0.08666 0.0
C119 C 0.46108 0.88054 0.07539 0.0
C120 C 0.44495 0.82915 0.13217 0.0
H121 H 0.50858 0.88942 0.08316 0.0
C122 C 0.56528 0.88525 0.10946 0.0
O123 O 0.59681 0.92881 0.24056 0.0
O124 O 0.55969 0.93608 0.20874 0.0
N125 N 0.46386 0.80393 0.18082 0.0
C126 C 0.45976 0.77956 0.209 0.0
C127 C 0.4292 0.75664 0.22262 0.0
C128 C 0.40313 0.75863 0.2065 0.0
C129 C 0.40782 0.78347 0.17674 0.0
C130 C 0.43877 0.80524 0.1635 0.0
H131 H 0.47958 0.77746 0.22079 0.0
O132 O 0.52839 0.88377 0.2684 0.0
O133 O 0.5128 0.86745 0.19606 0.0
O134 O 0.56203 0.85593 0.22674 0.0
O135 O 0.5265 0.8175 0.17978 0.0
C136 C 0.38303 0.78745 0.15959 0.0
C137 C 0.38957 0.81301 0.12956 0.0
H138 H 0.41152 0.86549 0.07354 0.0
H139 H 0.4679 0.90145 0.05454 0.0
H140 H 0.42572 0.73744 0.24538 0.0
H141 H 0.3796 0.74084 0.21693 0.0
H142 H 0.35889 0.7712 0.16969 0.0
H143 H 0.3704 0.81618 0.11725 0.0
Mn144 Mn 0.67501 0.54972 0.2115 0.0
Mn145 Mn 0.68309 0.49521 0.14927 0.0
C146 C 0.64895 0.49744 0.23705 0.0
C147 C 0.65009 0.57867 0.22918 0.0
C148 C 0.73372 0.54259 0.2143 0.0
O149 O 0.69054 0.57108 0.14654 0.0
O150 O 0.69221 0.53152 0.10848 0.0
C151 C 0.62731 0.47651 0.08898 0.0
N152 N 0.64536 0.46843 0.1155 0.0
C153 C 0.60806 0.41323 0.10658 0.0
C154 C 0.58934 0.42092 0.07832 0.0
C155 C 0.59849 0.45271 0.07102 0.0
C156 C 0.63571 0.43802 0.12572 0.0
H157 H 0.63424 0.50093 0.08355 0.0
C158 C 0.69517 0.55891 0.1095 0.0
O159 O 0.67937 0.58895 0.23986 0.0
O160 O 0.63558 0.55222 0.20622 0.0
N161 N 0.67506 0.4582 0.18305 0.0
C162 C 0.69247 0.4552 0.21814 0.0
C163 C 0.68613 0.42508 0.23169 0.0
C164 C 0.6618 0.39838 0.20935 0.0
C165 C 0.64351 0.40201 0.17453 0.0
C166 C 0.65184 0.43263 0.16104 0.0
H167 H 0.71159 0.47563 0.23481 0.0
O168 O 0.6559 0.52048 0.26621 0.0
O169 O 0.6584 0.50576 0.19356 0.0
O170 O 0.71834 0.55562 0.22872 0.0
O171 O 0.72322 0.52079 0.18331 0.0
C172 C 0.61726 0.3765 0.15288 0.0
C173 C 0.59916 0.38214 0.11956 0.0
H174 H 0.56713 0.40268 0.06411 0.0
H175 H 0.58297 0.45887 0.05278 0.0
H176 H 0.70013 0.42246 0.259 0.0
H177 H 0.6573 0.37519 0.21928 0.0
H178 H 0.61015 0.35253 0.16284 0.0
H179 H 0.57806 0.36245 0.105 0.0
Mn180 Mn 0.13814 0.66803 0.21147 0.0
Mn181 Mn 0.20127 0.67616 0.15062 0.0
C182 C 0.1639 0.64152 0.23731 0.0
C183 C 0.08412 0.64328 0.22793 0.0
C184 C 0.20418 0.72618 0.21664 0.0
O185 O 0.1331 0.6842 0.14647 0.0
O186 O 0.17479 0.68611 0.10945 0.0
C187 C 0.16425 0.62108 0.08924 0.0
N188 N 0.19032 0.63873 0.11605 0.0
C189 C 0.20776 0.60106 0.1068 0.0
C190 C 0.18145 0.58277 0.07814 0.0
C191 C 0.15905 0.59229 0.07092 0.0
C192 C 0.21079 0.62868 0.12631 0.0
H193 H 0.14691 0.62827 0.0839 0.0
C194 C 0.15036 0.68914 0.10986 0.0
O195 O 0.10308 0.67241 0.23924 0.0
O196 O 0.09619 0.62888 0.20496 0.0
N197 N 0.22964 0.66733 0.18466 0.0
C198 C 0.24965 0.68409 0.22049 0.0
C199 C 0.27304 0.6772 0.23436 0.0
C200 C 0.27541 0.653 0.21157 0.0
C201 C 0.25388 0.63537 0.17596 0.0
C202 C 0.23201 0.64424 0.1622 0.0
H203 H 0.24833 0.7031 0.23755 0.0
O204 O 0.14751 0.6483 0.26619 0.0
O205 O 0.16552 0.65131 0.19392 0.0
O206 O 0.17557 0.711 0.23008 0.0
O207 O 0.21574 0.71589 0.18569 0.0
C208 C 0.25307 0.60921 0.15387 0.0
C209 C 0.2296 0.59167 0.11993 0.0
H210 H 0.17733 0.56057 0.06368 0.0
H211 H 0.13736 0.57705 0.05252 0.0
H212 H 0.28934 0.69069 0.26226 0.0
H213 H 0.29381 0.64807 0.22174 0.0
H214 H 0.26963 0.6017 0.16399 0.0
H215 H 0.22807 0.57059 0.10507 0.0
Mn216 Mn 0.90188 0.54995 0.31506 0.0
Mn217 Mn 0.83949 0.49546 0.37763 0.0
C218 C 0.87565 0.49763 0.28968 0.0
C219 C 0.95569 0.57895 0.29713 0.0
C220 C 0.83594 0.54263 0.3125 0.0
O221 O 0.90783 0.57141 0.37996 0.0
O222 O 0.86665 0.53192 0.41817 0.0
C223 C 0.877 0.47721 0.43772 0.0
N224 N 0.85072 0.46891 0.41148 0.0
C225 C 0.83315 0.41381 0.42071 0.0
C226 C 0.85972 0.42172 0.44871 0.0
C227 C 0.88226 0.45356 0.4557 0.0
C228 C 0.83004 0.43844 0.40152 0.0
H229 H 0.89443 0.50168 0.44291 0.0
C230 C 0.89107 0.55931 0.41705 0.0
O231 O 0.93663 0.58917 0.2865 0.0
O232 O 0.94384 0.55253 0.32014 0.0
N233 N 0.81053 0.45829 0.34418 0.0
C234 C 0.78997 0.45508 0.3092 0.0
C235 C 0.76625 0.42486 0.29591 0.0
C236 C 0.7641 0.3983 0.31839 0.0
C237 C 0.78616 0.40214 0.35309 0.0
C238 C 0.80837 0.43284 0.36634 0.0
H239 H 0.79112 0.4754 0.29243 0.0
O240 O 0.89166 0.52063 0.26042 0.0
O241 O 0.87462 0.50601 0.33317 0.0
O242 O 0.86434 0.55574 0.29806 0.0
O243 O 0.82471 0.52082 0.34349 0.0
C244 C 0.78713 0.37678 0.37484 0.0
C245 C 0.81103 0.38263 0.40798 0.0
H246 H 0.86387 0.40359 0.46292 0.0
H247 H 0.90405 0.4599 0.47375 0.0
H248 H 0.74952 0.42208 0.2687 0.0
H249 H 0.74545 0.37503 0.30868 0.0
H250 H 0.77033 0.35275 0.36507 0.0
H251 H 0.81262 0.36306 0.4226 0.0
Mn252 Mn 0.36431 0.89452 0.31379 0.0
Mn253 Mn 0.35961 0.83415 0.37796 0.0
C254 C 0.39005 0.86806 0.28647 0.0
C255 C 0.38865 0.9482 0.29558 0.0
C256 C 0.30651 0.82816 0.31547 0.0
O257 O 0.34997 0.90128 0.37919 0.0
O258 O 0.35109 0.86191 0.41829 0.0
C259 C 0.4167 0.87404 0.43469 0.0
N260 N 0.39956 0.8481 0.4073 0.0
C261 C 0.44015 0.83419 0.41098 0.0
C262 C 0.45804 0.86045 0.43991 0.0
C263 C 0.44648 0.88075 0.45108 0.0
C264 C 0.41111 0.8293 0.39445 0.0
H265 H 0.40794 0.88974 0.44322 0.0
C266 C 0.34712 0.88569 0.4169 0.0
O267 O 0.35923 0.92914 0.28571 0.0
O268 O 0.40359 0.93635 0.31756 0.0
N269 N 0.36698 0.80413 0.34582 0.0
C270 C 0.34667 0.77976 0.31768 0.0
C271 C 0.35423 0.75676 0.30415 0.0
C272 C 0.38225 0.75868 0.32031 0.0
C273 C 0.40243 0.78353 0.35002 0.0
C274 C 0.39333 0.80537 0.36317 0.0
H275 H 0.32477 0.7777 0.30586 0.0
O276 O 0.38246 0.88396 0.25801 0.0
O277 O 0.3817 0.86769 0.33039 0.0
O278 O 0.32101 0.85629 0.29968 0.0
O279 O 0.31801 0.81786 0.34674 0.0
C280 C 0.43118 0.78745 0.3672 0.0
C281 C 0.45024 0.81302 0.39717 0.0
H282 H 0.48089 0.86556 0.45304 0.0
H283 H 0.46061 0.90168 0.47186 0.0
H284 H 0.33847 0.73755 0.28143 0.0
H285 H 0.38793 0.74083 0.30994 0.0
H286 H 0.439 0.77113 0.35717 0.0
H287 H 0.47256 0.81614 0.40951 0.0
Mn288 Mn 0.48272 0.35746 0.3151 0.0
Mn289 Mn 0.5377 0.34951 0.37633 0.0
C290 C 0.53504 0.38402 0.28946 0.0
C291 C 0.45339 0.38211 0.29837 0.0
C292 C 0.49088 0.29944 0.31011 0.0
O293 O 0.46139 0.34131 0.38004 0.0
O294 O 0.50109 0.33935 0.41717 0.0
C295 C 0.55518 0.40453 0.43752 0.0
N296 N 0.56386 0.38696 0.41102 0.0
C297 C 0.61885 0.42489 0.42067 0.0
C298 C 0.61055 0.44309 0.44903 0.0
C299 C 0.57856 0.4334 0.4559 0.0
C300 C 0.59446 0.39718 0.40106 0.0
H301 H 0.5306 0.39721 0.44256 0.0
C302 C 0.47363 0.3363 0.41668 0.0
O303 O 0.44331 0.35299 0.28711 0.0
O304 O 0.47983 0.39658 0.32142 0.0
N305 N 0.5751 0.35854 0.34269 0.0
C306 C 0.57863 0.34181 0.30708 0.0
C307 C 0.60902 0.34883 0.29362 0.0
C308 C 0.63542 0.37315 0.31655 0.0
C309 C 0.63123 0.39073 0.35194 0.0
C310 C 0.60039 0.38171 0.36534 0.0
H311 H 0.55844 0.32271 0.28992 0.0
O312 O 0.51193 0.37721 0.26047 0.0
O313 O 0.5268 0.37426 0.33284 0.0
O314 O 0.47733 0.31452 0.29668 0.0
O315 O 0.51272 0.3098 0.34107 0.0
C316 C 0.65639 0.41698 0.37418 0.0
C317 C 0.65017 0.43445 0.40788 0.0
H318 H 0.62847 0.46536 0.46354 0.0
H319 H 0.57189 0.44855 0.4741 0.0
H320 H 0.61205 0.33534 0.26593 0.0
H321 H 0.65883 0.37819 0.30671 0.0
H322 H 0.68053 0.42461 0.36432 0.0
H323 H 0.66958 0.4556 0.42283 0.0
Mn324 Mn 0.13772 0.47554 0.31501 0.0
Mn325 Mn 0.20009 0.53 0.37765 0.0
C326 C 0.16397 0.52787 0.28968 0.0
C327 C 0.08391 0.44656 0.29704 0.0
C328 C 0.20367 0.48288 0.31243 0.0
O329 O 0.13172 0.45404 0.37989 0.0
O330 O 0.17292 0.49349 0.41811 0.0
C331 C 0.16247 0.54812 0.43775 0.0
N332 N 0.18879 0.55648 0.41156 0.0
C333 C 0.20628 0.61156 0.42089 0.0
C334 C 0.17967 0.60359 0.44884 0.0
C335 C 0.15715 0.57172 0.45575 0.0
C336 C 0.20945 0.58697 0.40167 0.0
H337 H 0.14506 0.52364 0.44287 0.0
C338 C 0.14849 0.46611 0.41697 0.0
O339 O 0.10298 0.43634 0.28641 0.0
O340 O 0.09576 0.47297 0.32008 0.0
N341 N 0.22907 0.56722 0.34431 0.0
C342 C 0.24973 0.5705 0.30946 0.0
C343 C 0.27348 0.60074 0.29633 0.0
C344 C 0.27554 0.62726 0.3188 0.0
C345 C 0.25339 0.62335 0.35339 0.0
C346 C 0.23116 0.59263 0.36652 0.0
H347 H 0.24866 0.5502 0.29269 0.0
O348 O 0.14797 0.50488 0.2604 0.0
O349 O 0.16498 0.51948 0.33317 0.0
O350 O 0.17526 0.46975 0.29802 0.0
O351 O 0.2149 0.50468 0.34343 0.0
C352 C 0.25235 0.64867 0.37517 0.0
C353 C 0.22839 0.64276 0.40825 0.0
H354 H 0.17547 0.62168 0.46308 0.0
H355 H 0.13533 0.56534 0.47377 0.0
H356 H 0.29032 0.60357 0.26925 0.0
H357 H 0.29419 0.65055 0.30919 0.0
H358 H 0.26915 0.67272 0.3655 0.0
H359 H 0.22676 0.6623 0.4229 0.0
Mn360 Mn 0.67547 0.13084 0.3137 0.0
Mn361 Mn 0.68007 0.19119 0.37786 0.0
C362 C 0.64968 0.15726 0.2864 0.0
C363 C 0.65117 0.07716 0.29552 0.0
C364 C 0.73321 0.19723 0.31537 0.0
O365 O 0.68983 0.12413 0.37911 0.0
O366 O 0.68862 0.16345 0.41822 0.0
C367 C 0.62297 0.15126 0.43457 0.0
N368 N 0.64009 0.17718 0.40716 0.0
C369 C 0.59943 0.191 0.41071 0.0
C370 C 0.58156 0.16475 0.43966 0.0
C371 C 0.59317 0.1445 0.45091 0.0
C372 C 0.6285 0.19594 0.39424 0.0
H373 H 0.63177 0.13559 0.44317 0.0
C374 C 0.69263 0.1397 0.41683 0.0
O375 O 0.68059 0.09623 0.28564 0.0
O376 O 0.63622 0.089 0.31752 0.0
N377 N 0.67267 0.22116 0.34567 0.0
C378 C 0.69298 0.24555 0.31756 0.0
C379 C 0.68538 0.26851 0.30398 0.0
C380 C 0.65732 0.26654 0.32007 0.0
C381 C 0.63713 0.24167 0.34975 0.0
C382 C 0.64627 0.21986 0.36296 0.0
H383 H 0.71491 0.24765 0.3058 0.0
O384 O 0.65728 0.14135 0.25793 0.0
O385 O 0.65804 0.15763 0.33031 0.0
O386 O 0.71874 0.1691 0.29957 0.0
O387 O 0.72169 0.20751 0.34668 0.0
C388 C 0.60835 0.2377 0.36687 0.0
C389 C 0.5893 0.21212 0.39684 0.0
H390 H 0.55869 0.1596 0.45275 0.0
H391 H 0.57905 0.12358 0.47172 0.0
H392 H 0.70114 0.28774 0.28128 0.0
H393 H 0.65161 0.28436 0.30968 0.0
H394 H 0.6005 0.25398 0.35679 0.0
H395 H 0.56695 0.20897 0.40912 0.0
Mn396 Mn 0.55649 0.66757 0.31478 0.0
Mn397 Mn 0.50152 0.6757 0.37574 0.0
C398 C 0.50422 0.64108 0.28898 0.0
C399 C 0.58579 0.64285 0.29825 0.0
C400 C 0.54864 0.72575 0.30977 0.0
O401 O 0.57771 0.68373 0.37978 0.0
O402 O 0.53791 0.68553 0.41693 0.0
C403 C 0.4833 0.62051 0.43697 0.0
N404 N 0.47497 0.63824 0.41019 0.0
C405 C 0.41983 0.60066 0.41933 0.0
C406 C 0.42777 0.58229 0.44794 0.0
C407 C 0.45966 0.59172 0.45521 0.0
C408 C 0.44447 0.62827 0.39989 0.0
H409 H 0.50781 0.62764 0.44235 0.0
C410 C 0.56539 0.6886 0.41645 0.0
O411 O 0.59592 0.67197 0.28697 0.0
O412 O 0.55931 0.62842 0.32123 0.0
N413 N 0.46437 0.667 0.34167 0.0
C414 C 0.46119 0.68384 0.30589 0.0
C415 C 0.43095 0.67705 0.29203 0.0
C416 C 0.40433 0.65286 0.31475 0.0
C417 C 0.40816 0.63515 0.35028 0.0
C418 C 0.43888 0.64392 0.36405 0.0
H419 H 0.48155 0.70284 0.28889 0.0
O420 O 0.52737 0.64784 0.26008 0.0
O421 O 0.51241 0.65086 0.33237 0.0
O422 O 0.56202 0.71053 0.2962 0.0
O423 O 0.52685 0.71547 0.34081 0.0
C424 C 0.38277 0.60899 0.3723 0.0
C425 C 0.38862 0.59137 0.40618 0.0
H426 H 0.40965 0.56009 0.46234 0.0
H427 H 0.46603 0.57641 0.47357 0.0
H428 H 0.42819 0.69061 0.26417 0.0
H429 H 0.38104 0.64802 0.30459 0.0
H430 H 0.35872 0.60156 0.36217 0.0
H431 H 0.36904 0.57029 0.42098 0.0
Mn432 Mn 0.55695 0.89414 0.81369 0.0
Mn433 Mn 0.50118 0.83376 0.87774 0.0
C434 C 0.50476 0.86779 0.78633 0.0
C435 C 0.58637 0.94782 0.79558 0.0
C436 C 0.54827 0.82773 0.81524 0.0
O437 O 0.57799 0.90079 0.8791 0.0
O438 O 0.53745 0.86145 0.91815 0.0
C439 C 0.48399 0.87365 0.93454 0.0
N440 N 0.4752 0.84775 0.90709 0.0
C441 C 0.42072 0.83391 0.91071 0.0
C442 C 0.4291 0.86015 0.93969 0.0
C443 C 0.46095 0.88039 0.95093 0.0
C444 C 0.44486 0.82899 0.89418 0.0
H445 H 0.50846 0.88932 0.94313 0.0
C446 C 0.56521 0.8852 0.9168 0.0
O447 O 0.5967 0.92873 0.78568 0.0
O448 O 0.55958 0.936 0.81755 0.0
N449 N 0.46381 0.80381 0.84552 0.0
C450 C 0.45973 0.77944 0.81735 0.0
C451 C 0.42918 0.75648 0.80377 0.0
C452 C 0.40309 0.75843 0.81991 0.0
C453 C 0.40776 0.78328 0.84966 0.0
C454 C 0.43871 0.80508 0.86287 0.0
H455 H 0.47957 0.77736 0.80555 0.0
O456 O 0.52828 0.88368 0.7579 0.0
O457 O 0.51271 0.86736 0.83025 0.0
O458 O 0.56194 0.85587 0.7995 0.0
O459 O 0.52646 0.81744 0.84652 0.0
C460 C 0.38295 0.78723 0.86682 0.0
C461 C 0.38947 0.81279 0.89683 0.0
H462 H 0.41137 0.86528 0.95282 0.0
H463 H 0.46775 0.90131 0.97177 0.0
H464 H 0.42573 0.73726 0.78105 0.0
H465 H 0.37957 0.74062 0.8095 0.0
H466 H 0.35882 0.77095 0.85674 0.0
H467 H 0.37028 0.81593 0.90915 0.0
Mn468 Mn 0.67503 0.54982 0.81507 0.0
Mn469 Mn 0.68298 0.49528 0.87745 0.0
C470 C 0.64894 0.49752 0.78961 0.0
C471 C 0.65016 0.5788 0.79725 0.0
C472 C 0.73363 0.54247 0.81228 0.0
O473 O 0.69054 0.57124 0.88 0.0
O474 O 0.69233 0.53174 0.91802 0.0
C475 C 0.62731 0.4771 0.93774 0.0
N476 N 0.64524 0.46877 0.91139 0.0
C477 C 0.60768 0.41369 0.92067 0.0
C478 C 0.58909 0.42163 0.94879 0.0
C479 C 0.59843 0.45349 0.95581 0.0
C480 C 0.63541 0.43829 0.90141 0.0
H481 H 0.63438 0.50158 0.94295 0.0
C482 C 0.69527 0.55912 0.91701 0.0
O483 O 0.67944 0.58904 0.7866 0.0
O484 O 0.63563 0.55237 0.82024 0.0
N485 N 0.67471 0.45809 0.84397 0.0
C486 C 0.69206 0.45485 0.80902 0.0
C487 C 0.68555 0.42463 0.79577 0.0
C488 C 0.66112 0.39808 0.81823 0.0
C489 C 0.64291 0.40196 0.85294 0.0
C490 C 0.65142 0.43267 0.86617 0.0
H491 H 0.71126 0.47517 0.79225 0.0
O492 O 0.65593 0.52054 0.7604 0.0
O493 O 0.65836 0.50586 0.8331 0.0
O494 O 0.71836 0.55563 0.79797 0.0
O495 O 0.72307 0.52062 0.8432 0.0
C496 C 0.61658 0.37661 0.87473 0.0
C497 C 0.59859 0.3825 0.90794 0.0
H498 H 0.56683 0.40352 0.96308 0.0
H499 H 0.58303 0.45986 0.97397 0.0
H500 H 0.69953 0.42183 0.7686 0.0
H501 H 0.65648 0.37481 0.80853 0.0
H502 H 0.60933 0.35257 0.86498 0.0
H503 H 0.57743 0.36294 0.92261 0.0
Mn504 Mn 0.13806 0.66798 0.81504 0.0
Mn505 Mn 0.20116 0.67608 0.8759 0.0
C506 C 0.16381 0.64146 0.7892 0.0
C507 C 0.08404 0.64324 0.79857 0.0
C508 C 0.20413 0.7261 0.80984 0.0
O509 O 0.13301 0.68415 0.88004 0.0
O510 O 0.17471 0.6861 0.91701 0.0
C511 C 0.16403 0.62103 0.93726 0.0
N512 N 0.19014 0.63866 0.91051 0.0
C513 C 0.20749 0.60092 0.91986 0.0
C514 C 0.18114 0.58266 0.94846 0.0
C515 C 0.15876 0.59223 0.95562 0.0
C516 C 0.21058 0.62856 0.90031 0.0
H517 H 0.14672 0.62826 0.94254 0.0
C518 C 0.15029 0.68913 0.91663 0.0
O519 O 0.10301 0.67237 0.78727 0.0
O520 O 0.0961 0.62883 0.82154 0.0
N521 N 0.22952 0.66719 0.84193 0.0
C522 C 0.24961 0.68395 0.80617 0.0
C523 C 0.273 0.67704 0.79242 0.0
C524 C 0.27531 0.65281 0.81523 0.0
C525 C 0.25371 0.63519 0.85077 0.0
C526 C 0.23184 0.64409 0.86444 0.0
H527 H 0.24834 0.70299 0.78909 0.0
O528 O 0.14743 0.64824 0.76032 0.0
O529 O 0.16542 0.65125 0.83259 0.0
O530 O 0.1755 0.71094 0.79645 0.0
O531 O 0.21568 0.71579 0.84076 0.0
C532 C 0.25284 0.60901 0.87291 0.0
C533 C 0.22931 0.59149 0.9068 0.0
H534 H 0.17697 0.56046 0.96295 0.0
H535 H 0.13705 0.57702 0.97399 0.0
H536 H 0.28937 0.69054 0.76458 0.0
H537 H 0.2937 0.64786 0.80515 0.0
H538 H 0.26939 0.60147 0.86286 0.0
H539 H 0.22773 0.5704 0.9217 0.0
Mn540 Mn 0.48264 0.13108 0.81377 0.0
Mn541 Mn 0.5384 0.1915 0.87777 0.0
C542 C 0.53482 0.15746 0.78635 0.0
C543 C 0.45325 0.0774 0.79566 0.0
C544 C 0.49127 0.19747 0.81532 0.0
O545 O 0.46161 0.12441 0.87921 0.0
O546 O 0.50214 0.1638 0.91819 0.0
C547 C 0.5556 0.15163 0.93458 0.0
N548 N 0.56439 0.17753 0.90713 0.0
C549 C 0.61888 0.19141 0.91079 0.0
C550 C 0.61051 0.16518 0.93978 0.0
C551 C 0.57866 0.14491 0.95099 0.0
C552 C 0.59473 0.19631 0.89424 0.0
H553 H 0.53113 0.13594 0.94315 0.0
C554 C 0.47439 0.14004 0.91688 0.0
O555 O 0.4429 0.09648 0.78579 0.0
O556 O 0.48005 0.08924 0.81759 0.0
N557 N 0.57577 0.22145 0.84555 0.0
C558 C 0.57984 0.24579 0.81733 0.0
C559 C 0.61039 0.26876 0.80375 0.0
C560 C 0.63648 0.26684 0.81993 0.0
C561 C 0.63182 0.24202 0.84971 0.0
C562 C 0.60088 0.22021 0.86292 0.0
H563 H 0.55999 0.24785 0.8055 0.0
O564 O 0.51129 0.14156 0.75794 0.0
O565 O 0.52689 0.15789 0.83028 0.0
O566 O 0.4776 0.16933 0.79961 0.0
O567 O 0.5131 0.2078 0.84655 0.0
C568 C 0.65664 0.23809 0.8669 0.0
C569 C 0.65013 0.21255 0.89693 0.0
H570 H 0.62824 0.16006 0.95292 0.0
H571 H 0.57186 0.124 0.97182 0.0
H572 H 0.61383 0.28795 0.78098 0.0
H573 H 0.66001 0.28466 0.80951 0.0
H574 H 0.68078 0.25439 0.85683 0.0
H575 H 0.66933 0.20943 0.90927 0.0
Mn576 Mn 0.36434 0.47537 0.81483 0.0
Mn577 Mn 0.35635 0.5299 0.87719 0.0
C578 C 0.39044 0.52767 0.78935 0.0
C579 C 0.38922 0.44639 0.79712 0.0
C580 C 0.3057 0.48261 0.81211 0.0
O581 O 0.34877 0.45397 0.87976 0.0
O582 O 0.34718 0.49354 0.91792 0.0
C583 C 0.41215 0.54847 0.93737 0.0
N584 N 0.39411 0.55661 0.91096 0.0
C585 C 0.43149 0.61178 0.91992 0.0
C586 C 0.45021 0.60403 0.94807 0.0
C587 C 0.44102 0.57223 0.95528 0.0
C588 C 0.4038 0.58704 0.9008 0.0
H589 H 0.40519 0.52403 0.94273 0.0
C590 C 0.34418 0.46613 0.91684 0.0
O591 O 0.35995 0.43614 0.78642 0.0
O592 O 0.40374 0.47282 0.82011 0.0
N593 N 0.36443 0.56695 0.8435 0.0
C594 C 0.34702 0.57001 0.80846 0.0
C595 C 0.3534 0.60016 0.79499 0.0
C596 C 0.37777 0.62682 0.81734 0.0
C597 C 0.39605 0.62313 0.8521 0.0
C598 C 0.38768 0.59249 0.86553 0.0
H599 H 0.32787 0.54961 0.79178 0.0
O600 O 0.38349 0.50464 0.76017 0.0
O601 O 0.38099 0.51933 0.83284 0.0
O602 O 0.32104 0.46956 0.79764 0.0
O603 O 0.31621 0.50438 0.84314 0.0
C604 C 0.42234 0.6486 0.87375 0.0
C605 C 0.44044 0.6429 0.907 0.0
H606 H 0.47245 0.62224 0.96224 0.0
H607 H 0.45653 0.56602 0.97343 0.0
H608 H 0.3394 0.60282 0.76773 0.0
H609 H 0.3823 0.65003 0.80747 0.0
H610 H 0.42949 0.67259 0.86385 0.0
H611 H 0.46157 0.66255 0.92155 0.0
Mn612 Mn 0.90138 0.35738 0.81493 0.0
Mn613 Mn 0.83824 0.34922 0.87578 0.0
C614 C 0.87561 0.38387 0.78909 0.0
C615 C 0.9554 0.38215 0.79847 0.0
C616 C 0.83536 0.29921 0.80976 0.0
O617 O 0.90643 0.34123 0.87994 0.0
O618 O 0.86473 0.33929 0.91694 0.0
C619 C 0.87523 0.4043 0.93717 0.0
N620 N 0.84917 0.38664 0.91035 0.0
C621 C 0.8317 0.4243 0.91961 0.0
C622 C 0.85801 0.44259 0.94827 0.0
C623 C 0.88042 0.43308 0.9555 0.0
C624 C 0.82869 0.39668 0.90009 0.0
H625 H 0.89257 0.39712 0.94251 0.0
C626 C 0.88916 0.33627 0.91654 0.0
O627 O 0.93645 0.35302 0.78717 0.0
O628 O 0.94332 0.39655 0.82143 0.0
N629 N 0.80985 0.35803 0.84174 0.0
C630 C 0.78983 0.34126 0.80592 0.0
C631 C 0.76643 0.34813 0.79207 0.0
C632 C 0.76405 0.37233 0.81485 0.0
C633 C 0.78558 0.38997 0.85045 0.0
C634 C 0.80748 0.38112 0.86419 0.0
H635 H 0.79116 0.32225 0.78887 0.0
O636 O 0.892 0.3771 0.76021 0.0
O637 O 0.87399 0.37409 0.83248 0.0
O638 O 0.86398 0.31441 0.79633 0.0
O639 O 0.82379 0.3095 0.8407 0.0
C640 C 0.78638 0.41612 0.87255 0.0
C641 C 0.80985 0.43367 0.90649 0.0
H642 H 0.86212 0.46478 0.96275 0.0
H643 H 0.9021 0.44833 0.97391 0.0
H644 H 0.75012 0.33463 0.76418 0.0
H645 H 0.74564 0.37724 0.80469 0.0
H646 H 0.76981 0.42362 0.86243 0.0
H647 H 0.81137 0.45474 0.92135 0.0
Mn648 Mn 0.13765 0.47549 0.71135 0.0
Mn649 Mn 0.20005 0.52998 0.64878 0.0
C650 C 0.16388 0.52781 0.73674 0.0
C651 C 0.08383 0.44651 0.72928 0.0
C652 C 0.20357 0.4828 0.7139 0.0
O653 O 0.13169 0.45403 0.64644 0.0
O654 O 0.17288 0.49352 0.60824 0.0
C655 C 0.16253 0.54824 0.58869 0.0
N656 N 0.18882 0.55653 0.61493 0.0
C657 C 0.20639 0.61163 0.60571 0.0
C658 C 0.17982 0.60373 0.57772 0.0
C659 C 0.15728 0.57188 0.57072 0.0
C660 C 0.2095 0.587 0.6249 0.0
H661 H 0.1451 0.52377 0.5835 0.0
C662 C 0.14845 0.46613 0.60936 0.0
O663 O 0.10289 0.43628 0.7399 0.0
O664 O 0.09569 0.47293 0.70627 0.0
N665 N 0.22902 0.56715 0.68223 0.0
C666 C 0.24959 0.57036 0.71718 0.0
C667 C 0.27332 0.60057 0.73044 0.0
C668 C 0.27547 0.62714 0.70798 0.0
C669 C 0.25339 0.62329 0.67331 0.0
C670 C 0.23117 0.5926 0.66007 0.0
H671 H 0.24845 0.55003 0.73394 0.0
O672 O 0.14787 0.50481 0.76599 0.0
O673 O 0.16491 0.51944 0.69324 0.0
O674 O 0.17517 0.46969 0.72834 0.0
O675 O 0.21481 0.50461 0.68292 0.0
C676 C 0.25242 0.64866 0.65157 0.0
C677 C 0.22852 0.64281 0.61843 0.0
H678 H 0.17567 0.62185 0.56351 0.0
H679 H 0.13548 0.56555 0.55267 0.0
H680 H 0.29007 0.60335 0.75763 0.0
H681 H 0.29412 0.6504 0.71768 0.0
H682 H 0.26923 0.67269 0.66132 0.0
H683 H 0.22693 0.66239 0.60382 0.0
Mn684 Mn 0.67537 0.13076 0.71256 0.0
Mn685 Mn 0.68 0.19112 0.64841 0.0
C686 C 0.64958 0.15718 0.73987 0.0
C687 C 0.65106 0.07708 0.73074 0.0
C688 C 0.73312 0.19715 0.71091 0.0
O689 O 0.68974 0.12405 0.64716 0.0
O690 O 0.68857 0.16339 0.60806 0.0
C691 C 0.62293 0.1512 0.59166 0.0
N692 N 0.64004 0.17712 0.61908 0.0
C693 C 0.59938 0.19094 0.61548 0.0
C694 C 0.58153 0.16469 0.58652 0.0
C695 C 0.59314 0.14444 0.57529 0.0
C696 C 0.62845 0.19587 0.63199 0.0
H697 H 0.63174 0.13553 0.58309 0.0
C698 C 0.69258 0.13963 0.60945 0.0
O699 O 0.68048 0.09615 0.74062 0.0
O700 O 0.63612 0.08892 0.70875 0.0
N701 N 0.67259 0.22109 0.68059 0.0
C702 C 0.69289 0.24549 0.7087 0.0
C703 C 0.68529 0.26845 0.72226 0.0
C704 C 0.65724 0.26648 0.70615 0.0
C705 C 0.63706 0.24161 0.67645 0.0
C706 C 0.64621 0.2198 0.66328 0.0
H707 H 0.71482 0.24759 0.72048 0.0
O708 O 0.65717 0.14128 0.76834 0.0
O709 O 0.65795 0.15756 0.69596 0.0
O710 O 0.71864 0.16902 0.72669 0.0
O711 O 0.72161 0.20744 0.67963 0.0
C712 C 0.60829 0.23765 0.65931 0.0
C713 C 0.58925 0.21207 0.62933 0.0
H714 H 0.55866 0.15955 0.57341 0.0
H715 H 0.57903 0.12352 0.55448 0.0
H716 H 0.70104 0.28768 0.74496 0.0
H717 H 0.65153 0.2843 0.71652 0.0
H718 H 0.60044 0.25394 0.66937 0.0
H719 H 0.56692 0.20892 0.61702 0.0
Mn720 Mn 0.55662 0.66765 0.71122 0.0
Mn721 Mn 0.50164 0.67568 0.65012 0.0
C722 C 0.50432 0.64113 0.73693 0.0
C723 C 0.58592 0.64295 0.72791 0.0
C724 C 0.54855 0.72572 0.71628 0.0
O725 O 0.5779 0.68377 0.64625 0.0
O726 O 0.53821 0.68579 0.6092 0.0
C727 C 0.48403 0.62067 0.58882 0.0
N728 N 0.47541 0.63825 0.61543 0.0
C729 C 0.42039 0.60039 0.60583 0.0
C730 C 0.42864 0.58218 0.57736 0.0
C731 C 0.46061 0.59184 0.57041 0.0
C732 C 0.44483 0.62807 0.62545 0.0
H733 H 0.5086 0.62796 0.58371 0.0
C734 C 0.56565 0.6888 0.60964 0.0
O735 O 0.59603 0.67208 0.73914 0.0
O736 O 0.55947 0.62851 0.70489 0.0
N737 N 0.46429 0.66669 0.68385 0.0
C738 C 0.46081 0.68343 0.7195 0.0
C739 C 0.43045 0.67645 0.73304 0.0
C740 C 0.40401 0.65216 0.71013 0.0
C741 C 0.40814 0.63457 0.6747 0.0
C742 C 0.43896 0.64355 0.66123 0.0
H743 H 0.48104 0.70251 0.73664 0.0
O744 O 0.52744 0.64793 0.76589 0.0
O745 O 0.51254 0.65089 0.69354 0.0
O746 O 0.56208 0.71061 0.72966 0.0
O747 O 0.52668 0.71538 0.68536 0.0
C748 C 0.38294 0.60835 0.65247 0.0
C749 C 0.38909 0.59088 0.61869 0.0
H750 H 0.41068 0.55995 0.56283 0.0
H751 H 0.46723 0.57669 0.55212 0.0
H752 H 0.42747 0.68995 0.76076 0.0
H753 H 0.38062 0.64716 0.72004 0.0
H754 H 0.35881 0.60075 0.66237 0.0
H755 H 0.36965 0.56975 0.60374 0.0
Mn756 Mn 0.90181 0.54989 0.7114 0.0
Mn757 Mn 0.83947 0.49541 0.64874 0.0
C758 C 0.87559 0.49755 0.73672 0.0
C759 C 0.95562 0.57889 0.72937 0.0
C760 C 0.83585 0.54251 0.71395 0.0
O761 O 0.9078 0.57139 0.64652 0.0
O762 O 0.86663 0.53191 0.60829 0.0
C763 C 0.8771 0.47729 0.58866 0.0
N764 N 0.85078 0.46894 0.61485 0.0
C765 C 0.8333 0.41386 0.60552 0.0
C766 C 0.85991 0.42183 0.57758 0.0
C767 C 0.88243 0.4537 0.57066 0.0
C768 C 0.83012 0.43844 0.62474 0.0
H769 H 0.89451 0.50178 0.58354 0.0
C770 C 0.89104 0.55931 0.60943 0.0
O771 O 0.93655 0.58909 0.74001 0.0
O772 O 0.94379 0.55248 0.70633 0.0
N773 N 0.81049 0.45818 0.68209 0.0
C774 C 0.78985 0.4549 0.71697 0.0
C775 C 0.76612 0.42466 0.73013 0.0
C776 C 0.76406 0.39814 0.70764 0.0
C777 C 0.7862 0.40206 0.67303 0.0
C778 C 0.80841 0.43278 0.65988 0.0
H779 H 0.79092 0.4752 0.73374 0.0
O780 O 0.89158 0.52054 0.76601 0.0
O781 O 0.87458 0.50595 0.69324 0.0
O782 O 0.86425 0.55564 0.72839 0.0
O783 O 0.82463 0.52071 0.68295 0.0
C784 C 0.78724 0.37673 0.65125 0.0
C785 C 0.81119 0.38266 0.61816 0.0
H786 H 0.86412 0.40375 0.56334 0.0
H787 H 0.90425 0.46009 0.55265 0.0
H788 H 0.74929 0.42183 0.75723 0.0
H789 H 0.74541 0.37486 0.71726 0.0
H790 H 0.77045 0.35268 0.66093 0.0
H791 H 0.81284 0.36311 0.60352 0.0
Mn792 Mn 0.36422 0.89446 0.71264 0.0
Mn793 Mn 0.35954 0.83408 0.64846 0.0
C794 C 0.38996 0.868 0.73995 0.0
C795 C 0.38855 0.94813 0.73085 0.0
C796 C 0.30643 0.82809 0.71096 0.0
O797 O 0.34989 0.90121 0.64724 0.0
O798 O 0.35103 0.86185 0.60812 0.0
C799 C 0.41665 0.87399 0.59175 0.0
N800 N 0.39951 0.84805 0.61914 0.0
C801 C 0.44012 0.83417 0.6155 0.0
C802 C 0.45801 0.86043 0.58658 0.0
C803 C 0.44644 0.88071 0.57539 0.0
C804 C 0.41107 0.82926 0.63201 0.0
H805 H 0.40788 0.88969 0.58321 0.0
C806 C 0.34705 0.88563 0.60952 0.0
O807 O 0.35913 0.92907 0.74072 0.0
O808 O 0.40349 0.93628 0.70886 0.0
N809 N 0.36691 0.80408 0.68062 0.0
C810 C 0.3466 0.7797 0.70875 0.0
C811 C 0.35417 0.75671 0.72229 0.0
C812 C 0.3822 0.75865 0.70616 0.0
C813 C 0.40239 0.7835 0.67645 0.0
C814 C 0.39328 0.80533 0.66328 0.0
H815 H 0.32469 0.77763 0.72054 0.0
O816 O 0.38237 0.8839 0.76841 0.0
O817 O 0.38162 0.86763 0.69603 0.0
O818 O 0.32092 0.85622 0.72674 0.0
O819 O 0.31794 0.81779 0.67967 0.0
C820 C 0.43116 0.78744 0.6593 0.0
C821 C 0.45022 0.81301 0.62934 0.0
H822 H 0.48087 0.86556 0.57347 0.0
H823 H 0.46058 0.90165 0.55461 0.0
H824 H 0.3384 0.7375 0.745 0.0
H825 H 0.38789 0.74081 0.71654 0.0
H826 H 0.43898 0.77113 0.66935 0.0
H827 H 0.47255 0.81614 0.61702 0.0
Mn828 Mn 0.48281 0.3575 0.71146 0.0
Mn829 Mn 0.53778 0.34945 0.65037 0.0
C830 C 0.5351 0.38403 0.73718 0.0
C831 C 0.4535 0.3822 0.72803 0.0
C832 C 0.49077 0.29939 0.71644 0.0
O833 O 0.46154 0.34132 0.64649 0.0
O834 O 0.50132 0.33952 0.6093 0.0
C835 C 0.55578 0.40461 0.5892 0.0
N836 N 0.56422 0.38691 0.61587 0.0
C837 C 0.61932 0.4246 0.60659 0.0
C838 C 0.61127 0.44294 0.57809 0.0
C839 C 0.57935 0.43343 0.57096 0.0
C840 C 0.59475 0.39695 0.62606 0.0
H841 H 0.53125 0.39742 0.58394 0.0
C842 C 0.47384 0.33643 0.60981 0.0
O843 O 0.44338 0.35308 0.73933 0.0
O844 O 0.47995 0.39663 0.70502 0.0
N845 N 0.575 0.35824 0.68432 0.0
C846 C 0.57829 0.34143 0.72004 0.0
C847 C 0.60858 0.3483 0.73379 0.0
C848 C 0.63513 0.37252 0.71101 0.0
C849 C 0.63119 0.3902 0.67552 0.0
C850 C 0.60043 0.38135 0.66186 0.0
H851 H 0.55798 0.3224 0.73709 0.0
O852 O 0.51196 0.37726 0.76612 0.0
O853 O 0.52689 0.37425 0.6938 0.0
O854 O 0.47735 0.31456 0.73 0.0
O855 O 0.51256 0.30969 0.6854 0.0
C856 C 0.65652 0.41638 0.65344 0.0
C857 C 0.65055 0.43397 0.61963 0.0
H858 H 0.62933 0.46516 0.56369 0.0
H859 H 0.5729 0.44871 0.55269 0.0
H860 H 0.61141 0.33476 0.7616 0.0
H861 H 0.65846 0.37743 0.72108 0.0
H862 H 0.68059 0.42388 0.6635 0.0
H863 H 0.67009 0.45508 0.6048 0.0
C864 C 0.40385 0.02849 0.25524 0.0
C865 C 0.43645 0.04422 0.2465 0.0
H866 H 0.363 0.98548 0.27695 0.0
C867 C 0.45315 0.02827 0.25463 0.0
H868 H 0.39041 0.04025 0.24936 0.0
C869 C 0.43768 0.99735 0.27168 0.0
C870 C 0.40502 0.98144 0.27982 0.0
H871 H 0.47834 0.03989 0.24862 0.0
H872 H 0.45122 0.98571 0.2777 0.0
C873 C 0.3882 0.99721 0.27107 0.0
C874 C 0.4535 0.43119 0.27337 0.0
C875 C 0.43672 0.39863 0.28214 0.0
H876 H 0.45174 0.47157 0.24825 0.0
C877 C 0.40425 0.38175 0.27248 0.0
H878 H 0.47861 0.44474 0.27998 0.0
C879 C 0.38878 0.3972 0.2551 0.0
C880 C 0.40565 0.42966 0.24563 0.0
H881 H 0.39076 0.35662 0.2787 0.0
H882 H 0.36365 0.38368 0.24863 0.0
C883 C 0.43819 0.44647 0.2547 0.0
C884 C 1.00442 0.43136 0.25274 0.0
C885 C 0.9887 0.39881 0.24398 0.0
H886 H 0.04654 0.4718 0.27785 0.0
C887 C 1.00435 0.38198 0.25362 0.0
H888 H 0.99281 0.44488 0.24616 0.0
C889 C 0.03527 0.39748 0.27097 0.0
C890 C 0.05081 0.42993 0.28044 0.0
H891 H 0.99275 0.35685 0.24741 0.0
H892 H 0.04692 0.38399 0.27743 0.0
C893 C 0.03502 0.4467 0.27138 0.0
C894 C 0.63599 0.99688 0.25515 0.0
C895 C 0.60339 0.98114 0.24643 0.0
H896 H 0.67684 0.03989 0.27686 0.0
C897 C 0.58668 0.99709 0.25458 0.0
H898 H 0.64943 0.98512 0.24926 0.0
C899 C 0.60216 0.02801 0.27164 0.0
C900 C 0.63481 0.04392 0.27976 0.0
H901 H 0.5615 0.98548 0.24858 0.0
H902 H 0.58861 0.03965 0.27767 0.0
C903 C 0.65164 0.02816 0.27099 0.0
C904 C 0.58567 0.59374 0.27337 0.0
C905 C 0.60245 0.62629 0.28211 0.0
H906 H 0.58745 0.55334 0.24831 0.0
C907 C 0.63492 0.64317 0.27246 0.0
H908 H 0.56055 0.58019 0.27996 0.0
C909 C 0.6504 0.62771 0.25512 0.0
C910 C 0.63354 0.59525 0.24568 0.0
H911 H 0.64842 0.6683 0.27865 0.0
H912 H 0.67553 0.64123 0.24867 0.0
C913 C 0.60098 0.57844 0.25474 0.0
C914 C 0.03527 0.64353 0.25373 0.0
C915 C 0.05091 0.6267 0.24407 0.0
H916 H 0.99269 0.64152 0.27756 0.0
C917 C 0.03519 0.59414 0.25282 0.0
H918 H 0.04686 0.66866 0.24753 0.0
C919 C 1.00459 0.57881 0.27146 0.0
C920 C 0.9888 0.59557 0.28054 0.0
H921 H 0.0468 0.58063 0.24622 0.0
H922 H 0.99307 0.5537 0.27791 0.0
C923 C 1.00434 0.62803 0.27108 0.0
C924 C 0.58657 0.99701 0.7717 0.0
C925 C 0.60328 0.98106 0.77984 0.0
H926 H 0.5885 0.03957 0.74862 0.0
C927 C 0.63587 0.9968 0.7711 0.0
H928 H 0.56139 0.9854 0.77771 0.0
C929 C 0.65153 0.02808 0.75526 0.0
C930 C 0.6347 0.04385 0.74651 0.0
H931 H 0.64932 0.98504 0.77698 0.0
H932 H 0.67673 0.03981 0.74938 0.0
C933 C 0.60204 0.02793 0.75464 0.0
C934 C 0.65051 0.62784 0.7712 0.0
C935 C 0.63364 0.59538 0.78067 0.0
H936 H 0.64854 0.66843 0.74759 0.0
C937 C 0.60109 0.57858 0.77158 0.0
H938 H 0.67564 0.64136 0.77767 0.0
C939 C 0.58579 0.59387 0.7529 0.0
C940 C 0.60258 0.62642 0.74413 0.0
H941 H 0.58754 0.55347 0.77804 0.0
H942 H 0.56068 0.58032 0.74629 0.0
C943 C 0.63504 0.64329 0.75381 0.0
C944 C 1.00426 0.62798 0.75544 0.0
C945 C 0.98872 0.59552 0.74598 0.0
H946 H 0.04677 0.66861 0.779 0.0
C947 C 1.00452 0.57876 0.75504 0.0
H948 H 0.9926 0.64146 0.74898 0.0
C949 C 0.03512 0.5941 0.77368 0.0
C950 C 0.05083 0.62665 0.78243 0.0
H951 H 0.993 0.55366 0.74858 0.0
H952 H 0.04673 0.58059 0.78026 0.0
C953 C 0.03518 0.64348 0.77279 0.0
C954 C 0.45305 0.0282 0.77178 0.0
C955 C 0.43634 0.04415 0.77993 0.0
H956 H 0.45112 0.98564 0.7487 0.0
C957 C 0.40374 0.02842 0.77121 0.0
H958 H 0.47824 0.03982 0.77778 0.0
C959 C 0.38809 0.99714 0.75537 0.0
C960 C 0.40492 0.98137 0.74661 0.0
H961 H 0.3903 0.04018 0.7771 0.0
H962 H 0.36289 0.98541 0.74951 0.0
C963 C 0.43758 0.99728 0.75473 0.0
C964 C 0.38888 0.39733 0.77117 0.0
C965 C 0.40575 0.4298 0.78061 0.0
H966 H 0.39086 0.35674 0.74765 0.0
C967 C 0.43831 0.4466 0.77155 0.0
H968 H 0.36375 0.38382 0.77763 0.0
C969 C 0.45362 0.4313 0.75293 0.0
C970 C 0.43683 0.39874 0.74419 0.0
H971 H 0.45185 0.47171 0.77799 0.0
H972 H 0.47873 0.44485 0.74634 0.0
C973 C 0.40436 0.38187 0.75384 0.0
C974 C 0.03493 0.44664 0.75494 0.0
C975 C 0.05072 0.42988 0.74587 0.0
H976 H 0.99272 0.44481 0.78018 0.0
C977 C 0.03519 0.39742 0.75533 0.0
H978 H 0.04645 0.47174 0.74849 0.0
C979 C 1.00426 0.38192 0.77268 0.0
C980 C 0.98861 0.39875 0.78233 0.0
H981 H 0.04684 0.38394 0.74886 0.0
H982 H 0.99267 0.35679 0.77888 0.0
C983 C 1.00433 0.4313 0.77359 0.0
C984 C 0.48125 0.21947 0.28462 0.0
C985 C 0.48497 0.22067 0.23509 0.0
H986 H 0.48067 0.24389 0.34744 0.0
C987 C 0.48681 0.24635 0.21023 0.0
H988 H 0.48027 0.20022 0.30482 0.0
C989 C 0.48598 0.27084 0.2346 0.0
C990 C 0.48438 0.27057 0.28435 0.0
H991 H 0.48994 0.248 0.17213 0.0
H992 H 0.48878 0.291 0.21479 0.0
C993 C 0.48154 0.24445 0.30908 0.0
C994 C 0.22609 0.47462 0.23798 0.0
C995 C 0.22613 0.47592 0.28773 0.0
H996 H 0.25173 0.47618 0.17534 0.0
C997 C 0.25064 0.47541 0.3128 0.0
H998 H 0.20775 0.47551 0.21777 0.0
C999 C 0.27527 0.47481 0.28853 0.0
C1000 C 0.27638 0.47581 0.23876 0.0
H1001 H 0.25136 0.4767 0.35114 0.0
H1002 H 0.29458 0.47586 0.30872 0.0
C1003 C 0.25127 0.47511 0.2137 0.0
C1004 C 0.76529 0.21924 0.24192 0.0
C1005 C 0.76271 0.22041 0.29145 0.0
H1006 H 0.79028 0.24371 0.17913 0.0
C1007 C 0.78649 0.24613 0.31634 0.0
H1008 H 0.74707 0.19996 0.22169 0.0
C1009 C 0.81178 0.27067 0.292 0.0
C1010 C 0.81314 0.27041 0.24225 0.0
H1011 H 0.78496 0.24776 0.35443 0.0
H1012 H 0.82908 0.29086 0.31183 0.0
C1013 C 0.78994 0.24426 0.2175 0.0
C1014 C 0.55277 0.77892 0.21001 0.0
C1015 C 0.55468 0.80462 0.23492 0.0
H1016 H 0.5507 0.73422 0.21447 0.0
C1017 C 0.55847 0.80581 0.28443 0.0
H1018 H 0.54958 0.77728 0.17192 0.0
C1019 C 0.55817 0.78081 0.30883 0.0
C1020 C 0.55523 0.75467 0.28406 0.0
H1021 H 0.55952 0.82508 0.30467 0.0
H1022 H 0.55908 0.78137 0.3472 0.0
C1023 C 0.55358 0.7544 0.23432 0.0
C1024 C 0.78826 0.55035 0.21389 0.0
C1025 C 0.76314 0.54961 0.23901 0.0
H1026 H 0.83181 0.55001 0.21785 0.0
C1027 C 0.7643 0.55065 0.28878 0.0
H1028 H 0.78777 0.54926 0.17553 0.0
C1029 C 0.78897 0.5501 0.31299 0.0
C1030 C 0.81348 0.5496 0.28786 0.0
H1031 H 0.74499 0.54958 0.30901 0.0
H1032 H 0.78828 0.54882 0.35133 0.0
C1033 C 0.81348 0.55089 0.23811 0.0
C1034 C 0.24968 0.78124 0.21764 0.0
C1035 C 0.22648 0.75509 0.24238 0.0
H1036 H 0.29259 0.82552 0.22182 0.0
C1037 C 0.22788 0.7548 0.29213 0.0
H1038 H 0.24932 0.78182 0.17927 0.0
C1039 C 0.2532 0.7793 0.31645 0.0
C1040 C 0.27698 0.80502 0.29156 0.0
H1041 H 0.21058 0.7346 0.31195 0.0
H1042 H 0.25475 0.77764 0.35453 0.0
C1043 C 0.27437 0.80624 0.24205 0.0
C1044 C 0.558 0.78075 0.7173 0.0
C1045 C 0.5551 0.75461 0.74203 0.0
H1046 H 0.55936 0.82502 0.72154 0.0
C1047 C 0.55349 0.75434 0.79178 0.0
H1048 H 0.55889 0.78131 0.67893 0.0
C1049 C 0.5527 0.77885 0.81614 0.0
C1050 C 0.5546 0.80456 0.79127 0.0
H1051 H 0.55065 0.73416 0.81159 0.0
H1052 H 0.54955 0.77721 0.85423 0.0
C1053 C 0.55834 0.80575 0.74175 0.0
C1054 C 0.78813 0.55014 0.81264 0.0
C1055 C 0.76303 0.54944 0.78754 0.0
H1056 H 0.83168 0.54979 0.80863 0.0
C1057 C 0.7642 0.55051 0.73778 0.0
H1058 H 0.78764 0.54902 0.85099 0.0
C1059 C 0.78887 0.54996 0.71354 0.0
C1060 C 0.81336 0.54944 0.73864 0.0
H1061 H 0.74489 0.54946 0.71756 0.0
H1062 H 0.78819 0.54871 0.67519 0.0
C1063 C 0.81335 0.55069 0.7884 0.0
C1064 C 0.27431 0.80616 0.78439 0.0
C1065 C 0.27691 0.80494 0.73488 0.0
H1066 H 0.24927 0.78175 0.84718 0.0
C1067 C 0.25313 0.77921 0.71 0.0
H1068 H 0.29252 0.82545 0.80461 0.0
C1069 C 0.22782 0.7547 0.73434 0.0
C1070 C 0.22643 0.755 0.78409 0.0
H1071 H 0.25468 0.77754 0.67192 0.0
H1072 H 0.21052 0.7345 0.71453 0.0
C1073 C 0.24962 0.78116 0.80882 0.0
C1074 C 0.48591 0.27079 0.79193 0.0
C1075 C 0.48424 0.2705 0.74218 0.0
H1076 H 0.48996 0.24797 0.85435 0.0
C1077 C 0.48134 0.24436 0.71744 0.0
H1078 H 0.48875 0.29097 0.81175 0.0
C1079 C 0.48108 0.21939 0.74187 0.0
C1080 C 0.48488 0.22061 0.79139 0.0
H1081 H 0.48042 0.24379 0.67908 0.0
H1082 H 0.48006 0.20012 0.72165 0.0
C1083 C 0.48676 0.24631 0.81627 0.0
C1084 C 0.25052 0.47529 0.71341 0.0
C1085 C 0.22602 0.4758 0.73854 0.0
H1086 H 0.29447 0.47575 0.71737 0.0
C1087 C 0.226 0.47445 0.78829 0.0
H1088 H 0.25123 0.4766 0.67507 0.0
C1089 C 0.25119 0.47494 0.81251 0.0
C1090 C 0.2763 0.47566 0.78738 0.0
H1091 H 0.20766 0.47534 0.80854 0.0
H1092 H 0.25166 0.47599 0.85086 0.0
C1093 C 0.27516 0.47467 0.73761 0.0
C1094 C 0.78988 0.24414 0.80877 0.0
C1095 C 0.81308 0.27029 0.78403 0.0
H1096 H 0.747 0.19984 0.80458 0.0
C1097 C 0.8117 0.27057 0.73428 0.0
H1098 H 0.79023 0.24357 0.84714 0.0
C1099 C 0.78641 0.24604 0.70994 0.0
C1100 C 0.76263 0.22032 0.73484 0.0
H1101 H 0.829 0.29076 0.71445 0.0
H1102 H 0.78487 0.24769 0.67186 0.0
C1103 C 0.76522 0.21912 0.78435 0.0
C1104 C 0.45357 0.1522 0.03802 0.0
C1105 C 0.45846 0.13033 0.06323 0.0
H1106 H 0.4536 0.1716 0.97004 0.0
C1107 C 0.45924 0.10597 0.03812 0.0
H1108 H 0.45363 0.17161 0.05646 0.0
C1109 C 0.45922 0.10596 0.98831 0.0
C1110 C 0.45842 0.13031 0.96322 0.0
H1111 H 0.46393 0.08939 0.05663 0.0
H1112 H 0.46389 0.08937 0.96978 0.0
C1113 C 0.45355 0.15219 0.98846 0.0
C1114 C 0.31094 0.44596 0.98823 0.0
C1115 C 0.33743 0.45002 0.96308 0.0
H1116 H 0.29183 0.4466 0.05616 0.0
C1117 C 0.36203 0.44963 0.98815 0.0
H1118 H 0.29196 0.44679 0.96979 0.0
C1119 C 0.36195 0.44951 0.03795 0.0
C1120 C 0.33729 0.44979 0.06299 0.0
H1121 H 0.38307 0.45356 0.96965 0.0
H1122 H 0.38295 0.45337 0.0565 0.0
C1123 C 0.31086 0.44584 0.03776 0.0
C1124 C 0.92337 0.35351 0.98819 0.0
C1125 C 0.89803 0.32933 0.96314 0.0
H1126 H 0.94097 0.37427 0.05652 0.0
C1127 C 0.87509 0.30327 0.98842 0.0
H1128 H 0.9409 0.37424 0.96963 0.0
C1129 C 0.87513 0.30328 0.03796 0.0
C1130 C 0.89811 0.32936 0.06317 0.0
H1131 H 0.85502 0.28461 0.97004 0.0
H1132 H 0.85509 0.28464 0.05641 0.0
C1133 C 0.92341 0.35352 0.03803 0.0
C1134 C 0.58609 0.87305 0.0379 0.0
C1135 C 0.58126 0.89496 0.06312 0.0
H1136 H 0.58597 0.85359 0.96993 0.0
C1137 C 0.5805 0.91932 0.03801 0.0
H1138 H 0.58601 0.85363 0.05635 0.0
C1139 C 0.58047 0.9193 0.98821 0.0
C1140 C 0.58121 0.89492 0.96311 0.0
H1141 H 0.57585 0.93594 0.05653 0.0
H1142 H 0.57581 0.9359 0.96969 0.0
C1143 C 0.58607 0.87303 0.98834 0.0
C1144 C 0.67725 0.57533 0.03818 0.0
C1145 C 0.70187 0.57498 0.06322 0.0
H1146 H 0.65627 0.57154 0.96987 0.0
C1147 C 0.72836 0.57904 0.03803 0.0
H1148 H 0.65622 0.5714 0.05672 0.0
C1149 C 0.7284 0.57914 0.9885 0.0
C1150 C 0.70195 0.57517 0.96331 0.0
H1151 H 0.74736 0.57824 0.05644 0.0
H1152 H 0.74743 0.57839 0.97007 0.0
C1153 C 0.67729 0.57543 0.98838 0.0
C1154 C 0.11614 0.67195 0.98835 0.0
C1155 C 0.14146 0.69612 0.96323 0.0
H1156 H 0.09862 0.6512 0.05671 0.0
C1157 C 0.16444 0.72217 0.98847 0.0
H1158 H 0.09859 0.65121 0.96982 0.0
C1159 C 0.16446 0.72217 0.03801 0.0
C1160 C 0.1415 0.6961 0.06327 0.0
H1161 H 0.18449 0.74082 0.97004 0.0
H1162 H 0.18453 0.74081 0.05641 0.0
C1163 C 0.11617 0.67194 0.03819 0.0
C1164 C 0.92539 0.57568 0.53816 0.0
C1165 C 0.90046 0.57543 0.5632 0.0
H1166 H 0.94248 0.57171 0.46985 0.0
C1167 C 0.87806 0.57952 0.538 0.0
H1168 H 0.94247 0.57171 0.55669 0.0
C1169 C 0.87807 0.57951 0.48848 0.0
C1170 C 0.90048 0.57542 0.46329 0.0
H1171 H 0.85829 0.57878 0.55642 0.0
H1172 H 0.8583 0.57878 0.47005 0.0
C1173 C 0.9254 0.57568 0.48836 0.0
C1174 C 0.36602 0.91974 0.53814 0.0
C1175 C 0.34084 0.89542 0.56322 0.0
H1176 H 0.38734 0.93632 0.46985 0.0
C1177 C 0.31407 0.87361 0.53797 0.0
H1178 H 0.3873 0.93627 0.55669 0.0
C1179 C 0.31409 0.87364 0.4884 0.0
C1180 C 0.34088 0.89547 0.46321 0.0
H1181 H 0.29468 0.85422 0.55638 0.0
H1182 H 0.29471 0.85426 0.46995 0.0
C1183 C 0.36604 0.91977 0.48834 0.0
C1184 C 0.4568 0.35361 0.53818 0.0
C1185 C 0.45795 0.32944 0.56327 0.0
H1186 H 0.45991 0.37431 0.46982 0.0
C1187 C 0.45475 0.30333 0.53804 0.0
H1188 H 0.46006 0.37438 0.5567 0.0
C1189 C 0.45466 0.30327 0.4885 0.0
C1190 C 0.45777 0.32934 0.46324 0.0
H1191 H 0.45616 0.28468 0.55646 0.0
H1192 H 0.45601 0.28459 0.47009 0.0
C1193 C 0.4567 0.35356 0.48834 0.0
C1194 C 0.11414 0.44977 0.53806 0.0
C1195 C 0.13905 0.45002 0.56312 0.0
H1196 H 0.09706 0.45372 0.46974 0.0
C1197 C 0.16146 0.44592 0.53793 0.0
H1198 H 0.09706 0.45374 0.55658 0.0
C1199 C 0.16146 0.44591 0.48841 0.0
C1200 C 0.13906 0.44999 0.46321 0.0
H1201 H 0.18123 0.44666 0.55637 0.0
H1202 H 0.18123 0.44664 0.46999 0.0
C1203 C 0.11414 0.44975 0.48826 0.0
C1204 C 0.67371 0.10558 0.48821 0.0
C1205 C 0.69887 0.12992 0.46313 0.0
H1206 H 0.6524 0.08898 0.5565 0.0
C1207 C 0.72562 0.15176 0.48838 0.0
H1208 H 0.65244 0.08903 0.46966 0.0
C1209 C 0.72561 0.15173 0.53794 0.0
C1210 C 0.69883 0.12987 0.56314 0.0
H1211 H 0.745 0.17116 0.46997 0.0
H1212 H 0.74497 0.17112 0.55639 0.0
C1213 C 0.67369 0.10555 0.53801 0.0
C1214 C 0.58446 0.7217 0.48821 0.0
C1215 C 0.58126 0.69557 0.46301 0.0
H1216 H 0.58324 0.74048 0.55614 0.0
C1217 C 0.5824 0.67141 0.48813 0.0
H1218 H 0.58306 0.74034 0.46977 0.0
C1219 C 0.58251 0.67149 0.53796 0.0
C1220 C 0.58147 0.69573 0.56304 0.0
H1221 H 0.57913 0.65063 0.46963 0.0
H1222 H 0.57931 0.65075 0.55652 0.0
C1223 C 0.58458 0.72178 0.53775 0.0
C1224 C 0.56474 0.13008 0.2573 0.0
C1225 C 0.56482 0.15858 0.2518 0.0
H1226 H 0.59149 0.10769 0.2746 0.0
C1227 C 0.59295 0.18677 0.25936 0.0
H1228 H 0.54318 0.1078 0.25264 0.0
C1229 C 0.62116 0.18668 0.26663 0.0
C1230 C 0.6209 0.15843 0.27463 0.0
H1231 H 0.59328 0.20882 0.2598 0.0
H1232 H 0.64296 0.20865 0.26595 0.0
C1233 C 0.59236 0.13001 0.2696 0.0
C1234 C 0.46455 0.60766 0.22803 0.0
C1235 C 0.47227 0.61531 0.27594 0.0
H1236 H 0.43599 0.5715 0.17933 0.0
C1237 C 0.45228 0.59387 0.31012 0.0
H1238 H 0.48056 0.62218 0.20038 0.0
C1239 C 0.42377 0.56736 0.29741 0.0
C1240 C 0.41627 0.55948 0.2495 0.0
H1241 H 0.45986 0.59594 0.34625 0.0
H1242 H 0.40906 0.55153 0.32509 0.0
C1243 C 0.43794 0.57923 0.21535 0.0
C1244 C 0.8691 0.45778 0.22882 0.0
C1245 C 0.86955 0.46569 0.27673 0.0
H1246 H 0.8765 0.42914 0.17993 0.0
C1247 C 0.87145 0.44593 0.31086 0.0
H1248 H 0.87023 0.47362 0.20114 0.0
C1249 C 0.86957 0.41747 0.29817 0.0
C1250 C 0.86959 0.40979 0.25026 0.0
H1251 H 0.87727 0.45367 0.34687 0.0
H1252 H 0.87106 0.40294 0.32582 0.0
C1253 C 0.87103 0.43123 0.21608 0.0
C1254 C 0.47497 0.89531 0.25701 0.0
C1255 C 0.47496 0.86683 0.2518 0.0
H1256 H 0.44816 0.91767 0.27412 0.0
C1257 C 0.4469 0.83863 0.25967 0.0
H1258 H 0.49649 0.9176 0.25211 0.0
C1259 C 0.41867 0.83867 0.26696 0.0
C1260 C 0.41886 0.86691 0.27469 0.0
H1261 H 0.44663 0.81661 0.26027 0.0
H1262 H 0.3969 0.81668 0.26645 0.0
C1263 C 0.44735 0.89535 0.26934 0.0
C1264 C 0.61546 0.45776 0.29795 0.0
C1265 C 0.62307 0.46554 0.25004 0.0
H1266 H 0.57925 0.42929 0.34672 0.0
C1267 C 0.60149 0.44571 0.21587 0.0
H1268 H 0.6301 0.47366 0.32562 0.0
C1269 C 0.57485 0.41731 0.22857 0.0
C1270 C 0.56701 0.40977 0.27647 0.0
H1271 H 0.60351 0.45335 0.1798 0.0
H1272 H 0.55889 0.40273 0.2009 0.0
C1273 C 0.58692 0.43128 0.31065 0.0
C1274 C 0.16859 0.59428 0.21615 0.0
C1275 C 0.17002 0.6157 0.25035 0.0
H1276 H 0.16942 0.55191 0.20116 0.0
C1277 C 0.17002 0.60801 0.29825 0.0
H1278 H 0.16313 0.59639 0.18001 0.0
C1279 C 0.16815 0.57955 0.31091 0.0
C1280 C 0.17007 0.55981 0.27675 0.0
H1281 H 0.16852 0.62253 0.32591 0.0
H1282 H 0.16231 0.5718 0.34691 0.0
C1283 C 0.17053 0.56774 0.22885 0.0
C1284 C 0.47489 0.89522 0.76925 0.0
C1285 C 0.47486 0.86673 0.77456 0.0
H1286 H 0.4481 0.91759 0.7521 0.0
C1287 C 0.44677 0.83854 0.7668 0.0
H1288 H 0.49642 0.91751 0.77406 0.0
C1289 C 0.41855 0.83859 0.75953 0.0
C1290 C 0.41876 0.86684 0.75172 0.0
H1291 H 0.44648 0.81651 0.76625 0.0
H1292 H 0.39677 0.81661 0.7601 0.0
C1293 C 0.44727 0.89527 0.75695 0.0
C1294 C 0.61554 0.45776 0.72873 0.0
C1295 C 0.62307 0.46561 0.77664 0.0
H1296 H 0.57941 0.42922 0.67991 0.0
C1297 C 0.60143 0.44582 0.8108 0.0
H1298 H 0.63023 0.47362 0.70106 0.0
C1299 C 0.57481 0.41741 0.79811 0.0
C1300 C 0.56705 0.4098 0.7502 0.0
H1301 H 0.6034 0.45352 0.84683 0.0
H1302 H 0.55882 0.40286 0.82577 0.0
C1303 C 0.58702 0.43126 0.71602 0.0
C1304 C 0.16849 0.59421 0.81033 0.0
C1305 C 0.16993 0.61564 0.77614 0.0
H1306 H 0.16929 0.55182 0.82528 0.0
C1307 C 0.16996 0.60797 0.72824 0.0
H1308 H 0.16301 0.59631 0.84647 0.0
C1309 C 0.16808 0.57951 0.71555 0.0
C1310 C 0.16998 0.55975 0.74969 0.0
H1311 H 0.16847 0.6225 0.70059 0.0
H1312 H 0.16227 0.57178 0.67955 0.0
C1313 C 0.17042 0.56766 0.7976 0.0
C1314 C 0.59226 0.12993 0.75678 0.0
C1315 C 0.6208 0.15835 0.75165 0.0
H1316 H 0.5431 0.10772 0.77384 0.0
C1317 C 0.62104 0.1866 0.75959 0.0
H1318 H 0.59141 0.1076 0.75183 0.0
C1319 C 0.59283 0.18668 0.76688 0.0
C1320 C 0.56472 0.15849 0.77454 0.0
H1321 H 0.64283 0.20858 0.76022 0.0
H1322 H 0.59315 0.20872 0.7664 0.0
C1323 C 0.56465 0.12999 0.76911 0.0
C1324 C 0.42389 0.5674 0.72848 0.0
C1325 C 0.41632 0.55958 0.77638 0.0
H1326 H 0.46004 0.59591 0.67967 0.0
C1327 C 0.43794 0.57938 0.81054 0.0
H1328 H 0.40921 0.55153 0.7008 0.0
C1329 C 0.46456 0.60779 0.79785 0.0
C1330 C 0.47236 0.61537 0.74995 0.0
H1331 H 0.43594 0.5717 0.84659 0.0
H1332 H 0.48054 0.62234 0.82551 0.0
C1333 C 0.45241 0.59389 0.71577 0.0
C1334 C 0.8709 0.43111 0.81025 0.0
C1335 C 0.8695 0.4097 0.77605 0.0
H1336 H 0.87008 0.47349 0.82524 0.0
C1337 C 0.86952 0.41741 0.72815 0.0
H1338 H 0.87634 0.42899 0.8464 0.0
C1339 C 0.87142 0.44587 0.71549 0.0
C1340 C 0.86947 0.46561 0.74964 0.0
H1341 H 0.87104 0.4029 0.70049 0.0
H1342 H 0.87728 0.45364 0.6795 0.0
C1343 C 0.86898 0.45767 0.79754 0.0
loop_
_geom_bond_atom_site_label_1
_geom_bond_atom_site_label_2
_geom_bond_distance
_geom_bond_site_symmetry_2
_ccdc_geom_bond_type
Mn0 O5 2.095 . S
Mn0 O15 2.162 . S
Mn0 O16 2.297 . S
Mn0 O24 2.385 . S
Mn0 O25 2.209 . S
Mn0 O26 2.094 . S
Mn1 O6 2.121 . S
Mn1 N8 2.257 . S
Mn1 N17 2.282 . S
Mn1 O25 2.215 . S
Mn1 O27 2.117 . S
C2 O24 1.234 . S
C2 O25 1.283 . S
C3 O15 1.281 . S
C3 O16 1.236 . S
C4 O26 1.240 . S
C4 O27 1.264 . S
O5 Mn0 2.095 . S
O5 C14 1.250 . S
O6 Mn1 2.121 . S
O6 C14 1.258 . S
C7 N8 1.326 . S
C7 C11 1.460 . S
C7 H13 0.929 . S
N8 Mn1 2.257 . S
N8 C7 1.326 . S
N8 C12 1.362 . S
C9 C10 1.258 . S
C9 C12 1.431 . S
C9 C29 1.449 . S
C10 C9 1.258 . S
C10 C11 1.477 . S
C10 H30 0.931 . S
C11 C7 1.460 . S
C11 C10 1.477 . S
C11 H31 0.930 . S
C12 N8 1.362 . S
C12 C9 1.431 . S
C12 C22 1.476 . S
H13 C7 0.929 . S
C14 O5 1.250 . S
C14 O6 1.258 . S
O15 Mn0 2.162 . S
O15 C3 1.281 . S
O16 Mn0 2.297 . S
O16 C3 1.236 . S
N17 Mn1 2.282 . S
N17 C18 1.328 . S
N17 C22 1.318 . S
C18 N17 1.328 . S
C18 C19 1.457 . S
C18 H23 0.929 . S
C19 C18 1.457 . S
C19 C20 1.291 . S
C19 H32 0.931 . S
C20 C19 1.291 . S
C20 C21 1.373 . S
C20 H33 0.929 . S
C21 C20 1.373 . S
C21 C22 1.396 . S
C21 C28 1.403 . S
C22 C12 1.476 . S
C22 N17 1.318 . S
C22 C21 1.396 . S
H23 C18 0.929 . S
O24 Mn0 2.385 . S
O24 C2 1.234 . S
O25 Mn0 2.209 . S
O25 Mn1 2.215 . S
O25 C2 1.283 . S
O26 Mn0 2.094 . S
O26 C4 1.240 . S
O27 Mn1 2.117 . S
O27 C4 1.264 . S
C28 C21 1.403 . S
C28 C29 1.399 . S
C28 H34 0.929 . S
C29 C9 1.449 . S
C29 C28 1.399 . S
C29 H35 0.930 . S
H30 C10 0.931 . S
H31 C11 0.930 . S
H32 C19 0.931 . S
H33 C20 0.929 . S
H34 C28 0.929 . S
H35 C29 0.930 . S
Mn36 O41 2.095 . S
Mn36 O51 2.162 . S
Mn36 O52 2.297 . S
Mn36 O60 2.385 . S
Mn36 O61 2.209 . S
Mn36 O62 2.094 . S
Mn37 O42 2.121 . S
Mn37 N44 2.257 . S
Mn37 N53 2.282 . S
Mn37 O61 2.215 . S
Mn37 O63 2.117 . S
C38 O60 1.234 . S
C38 O61 1.283 . S
C39 O51 1.281 . S
C39 O52 1.236 . S
C40 O62 1.240 . S
C40 O63 1.264 . S
O41 Mn36 2.095 . S
O41 C50 1.250 . S
O42 Mn37 2.121 . S
O42 C50 1.258 . S
C43 N44 1.326 . S
C43 C47 1.460 . S
C43 H49 0.929 . S
N44 Mn37 2.257 . S
N44 C43 1.326 . S
N44 C48 1.362 . S
C45 C46 1.258 . S
C45 C48 1.431 . S
C45 C65 1.449 . S
C46 C45 1.258 . S
C46 C47 1.477 . S
C46 H66 0.931 . S
C47 C43 1.460 . S
C47 C46 1.477 . S
C47 H67 0.930 . S
C48 N44 1.362 . S
C48 C45 1.431 . S
C48 C58 1.476 . S
H49 C43 0.929 . S
C50 O41 1.250 . S
C50 O42 1.258 . S
O51 Mn36 2.162 . S
O51 C39 1.281 . S
O52 Mn36 2.297 . S
O52 C39 1.236 . S
N53 Mn37 2.282 . S
N53 C54 1.328 . S
N53 C58 1.318 . S
C54 N53 1.328 . S
C54 C55 1.457 . S
C54 H59 0.929 . S
C55 C54 1.457 . S
C55 C56 1.291 . S
C55 H68 0.931 . S
C56 C55 1.291 . S
C56 C57 1.373 . S
C56 H69 0.929 . S
C57 C56 1.373 . S
C57 C58 1.396 . S
C57 C64 1.403 . S
C58 C48 1.476 . S
C58 N53 1.318 . S
C58 C57 1.396 . S
H59 C54 0.929 . S
O60 Mn36 2.385 . S
O60 C38 1.234 . S
O61 Mn36 2.209 . S
O61 Mn37 2.215 . S
O61 C38 1.283 . S
O62 Mn36 2.094 . S
O62 C40 1.240 . S
O63 Mn37 2.117 . S
O63 C40 1.264 . S
C64 C57 1.403 . S
C64 C65 1.399 . S
C64 H70 0.929 . S
C65 C45 1.449 . S
C65 C64 1.399 . S
C65 H71 0.930 . S
H66 C46 0.931 . S
H67 C47 0.930 . S
H68 C55 0.931 . S
H69 C56 0.929 . S
H70 C64 0.929 . S
H71 C65 0.930 . S
Mn72 O77 2.095 . S
Mn72 O87 2.162 . S
Mn72 O88 2.297 . S
Mn72 O96 2.385 . S
Mn72 O97 2.209 . S
Mn72 O98 2.094 . S
Mn73 O78 2.121 . S
Mn73 N80 2.257 . S
Mn73 N89 2.282 . S
Mn73 O97 2.215 . S
Mn73 O99 2.117 . S
C74 O96 1.234 . S
C74 O97 1.283 . S
C75 O87 1.281 . S
C75 O88 1.236 . S
C76 O98 1.240 . S
C76 O99 1.264 . S
O77 Mn72 2.095 . S
O77 C86 1.250 . S
O78 Mn73 2.121 . S
O78 C86 1.258 . S
C79 N80 1.326 . S
C79 C83 1.460 . S
C79 H85 0.929 . S
N80 Mn73 2.257 . S
N80 C79 1.326 . S
N80 C84 1.362 . S
C81 C82 1.258 . S
C81 C84 1.431 . S
C81 C101 1.449 . S
C82 C81 1.258 . S
C82 C83 1.477 . S
C82 H102 0.931 . S
C83 C79 1.460 . S
C83 C82 1.477 . S
C83 H103 0.930 . S
C84 N80 1.362 . S
C84 C81 1.431 . S
C84 C94 1.476 . S
H85 C79 0.929 . S
C86 O77 1.250 . S
C86 O78 1.258 . S
O87 Mn72 2.162 . S
O87 C75 1.281 . S
O88 Mn72 2.297 . S
O88 C75 1.236 . S
N89 Mn73 2.282 . S
N89 C90 1.328 . S
N89 C94 1.318 . S
C90 N89 1.328 . S
C90 C91 1.457 . S
C90 H95 0.929 . S
C91 C90 1.457 . S
C91 C92 1.291 . S
C91 H104 0.931 . S
C92 C91 1.291 . S
C92 C93 1.373 . S
C92 H105 0.929 . S
C93 C92 1.373 . S
C93 C94 1.396 . S
C93 C100 1.403 . S
C94 C84 1.476 . S
C94 N89 1.318 . S
C94 C93 1.396 . S
H95 C90 0.929 . S
O96 Mn72 2.385 . S
O96 C74 1.234 . S
O97 Mn72 2.209 . S
O97 Mn73 2.215 . S
O97 C74 1.283 . S
O98 Mn72 2.094 . S
O98 C76 1.240 . S
O99 Mn73 2.117 . S
O99 C76 1.264 . S
C100 C93 1.403 . S
C100 C101 1.399 . S
C100 H106 0.929 . S
C101 C81 1.449 . S
C101 C100 1.399 . S
C101 H107 0.930 . S
H102 C82 0.931 . S
H103 C83 0.930 . S
H104 C91 0.931 . S
H105 C92 0.929 . S
H106 C100 0.929 . S
H107 C101 0.930 . S
Mn108 O113 2.095 . S
Mn108 O123 2.162 . S
Mn108 O124 2.297 . S
Mn108 O132 2.385 . S
Mn108 O133 2.209 . S
Mn108 O134 2.094 . S
Mn109 O114 2.121 . S
Mn109 N116 2.257 . S
Mn109 N125 2.282 . S
Mn109 O133 2.215 . S
Mn109 O135 2.117 . S
C110 O132 1.234 . S
C110 O133 1.283 . S
C111 O123 1.281 . S
C111 O124 1.236 . S
C112 O134 1.240 . S
C112 O135 1.264 . S
O113 Mn108 2.095 . S
O113 C122 1.250 . S
O114 Mn109 2.121 . S
O114 C122 1.258 . S
C115 N116 1.326 . S
C115 C119 1.460 . S
C115 H121 0.929 . S
N116 Mn109 2.257 . S
N116 C115 1.326 . S
N116 C120 1.362 . S
C117 C118 1.258 . S
C117 C120 1.431 . S
C117 C137 1.449 . S
C118 C117 1.258 . S
C118 C119 1.477 . S
C118 H138 0.931 . S
C119 C115 1.460 . S
C119 C118 1.477 . S
C119 H139 0.930 . S
C120 N116 1.362 . S
C120 C117 1.431 . S
C120 C130 1.476 . S
H121 C115 0.929 . S
C122 O113 1.250 . S
C122 O114 1.258 . S
O123 Mn108 2.162 . S
O123 C111 1.281 . S
O124 Mn108 2.297 . S
O124 C111 1.236 . S
N125 Mn109 2.282 . S
N125 C126 1.328 . S
N125 C130 1.318 . S
C126 N125 1.328 . S
C126 C127 1.457 . S
C126 H131 0.929 . S
C127 C126 1.457 . S
C127 C128 1.291 . S
C127 H140 0.931 . S
C128 C127 1.291 . S
C128 C129 1.373 . S
C128 H141 0.929 . S
C129 C128 1.373 . S
C129 C130 1.396 . S
C129 C136 1.403 . S
C130 C120 1.476 . S
C130 N125 1.318 . S
C130 C129 1.396 . S
H131 C126 0.929 . S
O132 Mn108 2.385 . S
O132 C110 1.234 . S
O133 Mn108 2.209 . S
O133 Mn109 2.215 . S
O133 C110 1.283 . S
O134 Mn108 2.094 . S
O134 C112 1.240 . S
O135 Mn109 2.117 . S
O135 C112 1.264 . S
C136 C129 1.403 . S
C136 C137 1.399 . S
C136 H142 0.929 . S
C137 C117 1.449 . S
C137 C136 1.399 . S
C137 H143 0.930 . S
H138 C118 0.931 . S
H139 C119 0.930 . S
H140 C127 0.931 . S
H141 C128 0.929 . S
H142 C136 0.929 . S
H143 C137 0.930 . S
Mn144 O149 2.095 . S
Mn144 O159 2.162 . S
Mn144 O160 2.297 . S
Mn144 O168 2.385 . S
Mn144 O169 2.209 . S
Mn144 O170 2.094 . S
Mn145 O150 2.121 . S
Mn145 N152 2.257 . S
Mn145 N161 2.282 . S
Mn145 O169 2.215 . S
Mn145 O171 2.117 . S
C146 O168 1.234 . S
C146 O169 1.283 . S
C147 O159 1.281 . S
C147 O160 1.236 . S
C148 O170 1.240 . S
C148 O171 1.264 . S
O149 Mn144 2.095 . S
O149 C158 1.250 . S
O150 Mn145 2.121 . S
O150 C158 1.258 . S
C151 N152 1.326 . S
C151 C155 1.460 . S
C151 H157 0.929 . S
N152 Mn145 2.257 . S
N152 C151 1.326 . S
N152 C156 1.362 . S
C153 C154 1.258 . S
C153 C156 1.431 . S
C153 C173 1.449 . S
C154 C153 1.258 . S
C154 C155 1.477 . S
C154 H174 0.931 . S
C155 C151 1.460 . S
C155 C154 1.477 . S
C155 H175 0.930 . S
C156 N152 1.362 . S
C156 C153 1.431 . S
C156 C166 1.476 . S
H157 C151 0.929 . S
C158 O149 1.250 . S
C158 O150 1.258 . S
O159 Mn144 2.162 . S
O159 C147 1.281 . S
O160 Mn144 2.297 . S
O160 C147 1.236 . S
N161 Mn145 2.282 . S
N161 C162 1.328 . S
N161 C166 1.318 . S
C162 N161 1.328 . S
C162 C163 1.457 . S
C162 H167 0.929 . S
C163 C162 1.457 . S
C163 C164 1.291 . S
C163 H176 0.931 . S
C164 C163 1.291 . S
C164 C165 1.373 . S
C164 H177 0.929 . S
C165 C164 1.373 . S
C165 C166 1.396 . S
C165 C172 1.403 . S
C166 C156 1.476 . S
C166 N161 1.318 . S
C166 C165 1.396 . S
H167 C162 0.929 . S
O168 Mn144 2.385 . S
O168 C146 1.234 . S
O169 Mn144 2.209 . S
O169 Mn145 2.215 . S
O169 C146 1.283 . S
O170 Mn144 2.094 . S
O170 C148 1.240 . S
O171 Mn145 2.117 . S
O171 C148 1.264 . S
C172 C165 1.403 . S
C172 C173 1.399 . S
C172 H178 0.929 . S
C173 C153 1.449 . S
C173 C172 1.399 . S
C173 H179 0.930 . S
H174 C154 0.931 . S
H175 C155 0.930 . S
H176 C163 0.931 . S
H177 C164 0.929 . S
H178 C172 0.929 . S
H179 C173 0.930 . S
Mn180 O185 2.095 . S
Mn180 O195 2.162 . S
Mn180 O196 2.297 . S
Mn180 O204 2.385 . S
Mn180 O205 2.209 . S
Mn180 O206 2.094 . S
Mn181 O186 2.121 . S
Mn181 N188 2.257 . S
Mn181 N197 2.282 . S
Mn181 O205 2.215 . S
Mn181 O207 2.117 . S
C182 O204 1.234 . S
C182 O205 1.283 . S
C183 O195 1.281 . S
C183 O196 1.236 . S
C184 O206 1.240 . S
C184 O207 1.264 . S
O185 Mn180 2.095 . S
O185 C194 1.250 . S
O186 Mn181 2.121 . S
O186 C194 1.258 . S
C187 N188 1.326 . S
C187 C191 1.460 . S
C187 H193 0.929 . S
N188 Mn181 2.257 . S
N188 C187 1.326 . S
N188 C192 1.362 . S
C189 C190 1.258 . S
C189 C192 1.431 . S
C189 C209 1.449 . S
C190 C189 1.258 . S
C190 C191 1.477 . S
C190 H210 0.931 . S
C191 C187 1.460 . S
C191 C190 1.477 . S
C191 H211 0.930 . S
C192 N188 1.362 . S
C192 C189 1.431 . S
C192 C202 1.476 . S
H193 C187 0.929 . S
C194 O185 1.250 . S
C194 O186 1.258 . S
O195 Mn180 2.162 . S
O195 C183 1.281 . S
O196 Mn180 2.297 . S
O196 C183 1.236 . S
N197 Mn181 2.282 . S
N197 C198 1.328 . S
N197 C202 1.318 . S
C198 N197 1.328 . S
C198 C199 1.457 . S
C198 H203 0.929 . S
C199 C198 1.457 . S
C199 C200 1.291 . S
C199 H212 0.931 . S
C200 C199 1.291 . S
C200 C201 1.373 . S
C200 H213 0.929 . S
C201 C200 1.373 . S
C201 C202 1.396 . S
C201 C208 1.403 . S
C202 C192 1.476 . S
C202 N197 1.318 . S
C202 C201 1.396 . S
H203 C198 0.929 . S
O204 Mn180 2.385 . S
O204 C182 1.234 . S
O205 Mn180 2.209 . S
O205 Mn181 2.215 . S
O205 C182 1.283 . S
O206 Mn180 2.094 . S
O206 C184 1.240 . S
O207 Mn181 2.117 . S
O207 C184 1.264 . S
C208 C201 1.403 . S
C208 C209 1.399 . S
C208 H214 0.929 . S
C209 C189 1.449 . S
C209 C208 1.399 . S
C209 H215 0.930 . S
H210 C190 0.931 . S
H211 C191 0.930 . S
H212 C199 0.931 . S
H213 C200 0.929 . S
H214 C208 0.929 . S
H215 C209 0.930 . S
Mn216 O221 2.095 . S
Mn216 O231 2.162 . S
Mn216 O232 2.297 . S
Mn216 O240 2.385 . S
Mn216 O241 2.209 . S
Mn216 O242 2.094 . S
Mn217 O222 2.121 . S
Mn217 N224 2.257 . S
Mn217 N233 2.282 . S
Mn217 O241 2.215 . S
Mn217 O243 2.117 . S
C218 O240 1.234 . S
C218 O241 1.283 . S
C219 O231 1.281 . S
C219 O232 1.236 . S
C220 O242 1.240 . S
C220 O243 1.264 . S
O221 Mn216 2.095 . S
O221 C230 1.250 . S
O222 Mn217 2.121 . S
O222 C230 1.258 . S
C223 N224 1.326 . S
C223 C227 1.460 . S
C223 H229 0.929 . S
N224 Mn217 2.257 . S
N224 C223 1.326 . S
N224 C228 1.362 . S
C225 C226 1.258 . S
C225 C228 1.431 . S
C225 C245 1.449 . S
C226 C225 1.258 . S
C226 C227 1.477 . S
C226 H246 0.931 . S
C227 C223 1.460 . S
C227 C226 1.477 . S
C227 H247 0.930 . S
C228 N224 1.362 . S
C228 C225 1.431 . S
C228 C238 1.476 . S
H229 C223 0.929 . S
C230 O221 1.250 . S
C230 O222 1.258 . S
O231 Mn216 2.162 . S
O231 C219 1.281 . S
O232 Mn216 2.297 . S
O232 C219 1.236 . S
N233 Mn217 2.282 . S
N233 C234 1.328 . S
N233 C238 1.318 . S
C234 N233 1.328 . S
C234 C235 1.457 . S
C234 H239 0.929 . S
C235 C234 1.457 . S
C235 C236 1.291 . S
C235 H248 0.931 . S
C236 C235 1.291 . S
C236 C237 1.373 . S
C236 H249 0.929 . S
C237 C236 1.373 . S
C237 C238 1.396 . S
C237 C244 1.403 . S
C238 C228 1.476 . S
C238 N233 1.318 . S
C238 C237 1.396 . S
H239 C234 0.929 . S
O240 Mn216 2.385 . S
O240 C218 1.234 . S
O241 Mn216 2.209 . S
O241 Mn217 2.215 . S
O241 C218 1.283 . S
O242 Mn216 2.094 . S
O242 C220 1.240 . S
O243 Mn217 2.117 . S
O243 C220 1.264 . S
C244 C237 1.403 . S
C244 C245 1.399 . S
C244 H250 0.929 . S
C245 C225 1.449 . S
C245 C244 1.399 . S
C245 H251 0.930 . S
H246 C226 0.931 . S
H247 C227 0.930 . S
H248 C235 0.931 . S
H249 C236 0.929 . S
H250 C244 0.929 . S
H251 C245 0.930 . S
Mn252 O257 2.095 . S
Mn252 O267 2.162 . S
Mn252 O268 2.297 . S
Mn252 O276 2.385 . S
Mn252 O277 2.209 . S
Mn252 O278 2.094 . S
Mn253 O258 2.121 . S
Mn253 N260 2.257 . S
Mn253 N269 2.282 . S
Mn253 O277 2.215 . S
Mn253 O279 2.117 . S
C254 O276 1.234 . S
C254 O277 1.283 . S
C255 O267 1.281 . S
C255 O268 1.236 . S
C256 O278 1.240 . S
C256 O279 1.264 . S
O257 Mn252 2.095 . S
O257 C266 1.250 . S
O258 Mn253 2.121 . S
O258 C266 1.258 . S
C259 N260 1.326 . S
C259 C263 1.460 . S
C259 H265 0.929 . S
N260 Mn253 2.257 . S
N260 C259 1.326 . S
N260 C264 1.362 . S
C261 C262 1.258 . S
C261 C264 1.431 . S
C261 C281 1.449 . S
C262 C261 1.258 . S
C262 C263 1.477 . S
C262 H282 0.931 . S
C263 C259 1.460 . S
C263 C262 1.477 . S
C263 H283 0.930 . S
C264 N260 1.362 . S
C264 C261 1.431 . S
C264 C274 1.476 . S
H265 C259 0.929 . S
C266 O257 1.250 . S
C266 O258 1.258 . S
O267 Mn252 2.162 . S
O267 C255 1.281 . S
O268 Mn252 2.297 . S
O268 C255 1.236 . S
N269 Mn253 2.282 . S
N269 C270 1.328 . S
N269 C274 1.318 . S
C270 N269 1.328 . S
C270 C271 1.457 . S
C270 H275 0.929 . S
C271 C270 1.457 . S
C271 C272 1.291 . S
C271 H284 0.931 . S
C272 C271 1.291 . S
C272 C273 1.373 . S
C272 H285 0.929 . S
C273 C272 1.373 . S
C273 C274 1.396 . S
C273 C280 1.403 . S
C274 C264 1.476 . S
C274 N269 1.318 . S
C274 C273 1.396 . S
H275 C270 0.929 . S
O276 Mn252 2.385 . S
O276 C254 1.234 . S
O277 Mn252 2.209 . S
O277 Mn253 2.215 . S
O277 C254 1.283 . S
O278 Mn252 2.094 . S
O278 C256 1.240 . S
O279 Mn253 2.117 . S
O279 C256 1.264 . S
C280 C273 1.403 . S
C280 C281 1.399 . S
C280 H286 0.929 . S
C281 C261 1.449 . S
C281 C280 1.399 . S
C281 H287 0.930 . S
H282 C262 0.931 . S
H283 C263 0.930 . S
H284 C271 0.931 . S
H285 C272 0.929 . S
H286 C280 0.929 . S
H287 C281 0.930 . S
Mn288 O293 2.095 . S
Mn288 O303 2.162 . S
Mn288 O304 2.297 . S
Mn288 O312 2.385 . S
Mn288 O313 2.209 . S
Mn288 O314 2.094 . S
Mn289 O294 2.121 . S
Mn289 N296 2.257 . S
Mn289 N305 2.282 . S
Mn289 O313 2.215 . S
Mn289 O315 2.117 . S
C290 O312 1.234 . S
C290 O313 1.283 . S
C291 O303 1.281 . S
C291 O304 1.236 . S
C292 O314 1.240 . S
C292 O315 1.264 . S
O293 Mn288 2.095 . S
O293 C302 1.250 . S
O294 Mn289 2.121 . S
O294 C302 1.258 . S
C295 N296 1.326 . S
C295 C299 1.460 . S
C295 H301 0.929 . S
N296 Mn289 2.257 . S
N296 C295 1.326 . S
N296 C300 1.362 . S
C297 C298 1.258 . S
C297 C300 1.431 . S
C297 C317 1.449 . S
C298 C297 1.258 . S
C298 C299 1.477 . S
C298 H318 0.931 . S
C299 C295 1.460 . S
C299 C298 1.477 . S
C299 H319 0.930 . S
C300 N296 1.362 . S
C300 C297 1.431 . S
C300 C310 1.476 . S
H301 C295 0.929 . S
C302 O293 1.250 . S
C302 O294 1.258 . S
O303 Mn288 2.162 . S
O303 C291 1.281 . S
O304 Mn288 2.297 . S
O304 C291 1.236 . S
N305 Mn289 2.282 . S
N305 C306 1.328 . S
N305 C310 1.318 . S
C306 N305 1.328 . S
C306 C307 1.457 . S
C306 H311 0.929 . S
C307 C306 1.457 . S
C307 C308 1.291 . S
C307 H320 0.931 . S
C308 C307 1.291 . S
C308 C309 1.373 . S
C308 H321 0.929 . S
C309 C308 1.373 . S
C309 C310 1.396 . S
C309 C316 1.403 . S
C310 C300 1.476 . S
C310 N305 1.318 . S
C310 C309 1.396 . S
H311 C306 0.929 . S
O312 Mn288 2.385 . S
O312 C290 1.234 . S
O313 Mn288 2.209 . S
O313 Mn289 2.215 . S
O313 C290 1.283 . S
O314 Mn288 2.094 . S
O314 C292 1.240 . S
O315 Mn289 2.117 . S
O315 C292 1.264 . S
C316 C309 1.403 . S
C316 C317 1.399 . S
C316 H322 0.929 . S
C317 C297 1.449 . S
C317 C316 1.399 . S
C317 H323 0.930 . S
H318 C298 0.931 . S
H319 C299 0.930 . S
H320 C307 0.931 . S
H321 C308 0.929 . S
H322 C316 0.929 . S
H323 C317 0.930 . S
Mn324 O329 2.095 . S
Mn324 O339 2.162 . S
Mn324 O340 2.297 . S
Mn324 O348 2.385 . S
Mn324 O349 2.209 . S
Mn324 O350 2.094 . S
Mn325 O330 2.121 . S
Mn325 N332 2.257 . S
Mn325 N341 2.282 . S
Mn325 O349 2.215 . S
Mn325 O351 2.117 . S
C326 O348 1.234 . S
C326 O349 1.283 . S
C327 O339 1.281 . S
C327 O340 1.236 . S
C328 O350 1.240 . S
C328 O351 1.264 . S
O329 Mn324 2.095 . S
O329 C338 1.250 . S
O330 Mn325 2.121 . S
O330 C338 1.258 . S
C331 N332 1.326 . S
C331 C335 1.460 . S
C331 H337 0.929 . S
N332 Mn325 2.257 . S
N332 C331 1.326 . S
N332 C336 1.362 . S
C333 C334 1.258 . S
C333 C336 1.431 . S
C333 C353 1.449 . S
C334 C333 1.258 . S
C334 C335 1.477 . S
C334 H354 0.931 . S
C335 C331 1.460 . S
C335 C334 1.477 . S
C335 H355 0.930 . S
C336 N332 1.362 . S
C336 C333 1.431 . S
C336 C346 1.476 . S
H337 C331 0.929 . S
C338 O329 1.250 . S
C338 O330 1.258 . S
O339 Mn324 2.162 . S
O339 C327 1.281 . S
O340 Mn324 2.297 . S
O340 C327 1.236 . S
N341 Mn325 2.282 . S
N341 C342 1.328 . S
N341 C346 1.318 . S
C342 N341 1.328 . S
C342 C343 1.457 . S
C342 H347 0.929 . S
C343 C342 1.457 . S
C343 C344 1.291 . S
C343 H356 0.931 . S
C344 C343 1.291 . S
C344 C345 1.373 . S
C344 H357 0.929 . S
C345 C344 1.373 . S
C345 C346 1.396 . S
C345 C352 1.403 . S
C346 C336 1.476 . S
C346 N341 1.318 . S
C346 C345 1.396 . S
H347 C342 0.929 . S
O348 Mn324 2.385 . S
O348 C326 1.234 . S
O349 Mn324 2.209 . S
O349 Mn325 2.215 . S
O349 C326 1.283 . S
O350 Mn324 2.094 . S
O350 C328 1.240 . S
O351 Mn325 2.117 . S
O351 C328 1.264 . S
C352 C345 1.403 . S
C352 C353 1.399 . S
C352 H358 0.929 . S
C353 C333 1.449 . S
C353 C352 1.399 . S
C353 H359 0.930 . S
H354 C334 0.931 . S
H355 C335 0.930 . S
H356 C343 0.931 . S
H357 C344 0.929 . S
H358 C352 0.929 . S
H359 C353 0.930 . S
Mn360 O365 2.095 . S
Mn360 O375 2.162 . S
Mn360 O376 2.297 . S
Mn360 O384 2.385 . S
Mn360 O385 2.209 . S
Mn360 O386 2.094 . S
Mn361 O366 2.121 . S
Mn361 N368 2.257 . S
Mn361 N377 2.282 . S
Mn361 O385 2.215 . S
Mn361 O387 2.117 . S
C362 O384 1.234 . S
C362 O385 1.283 . S
C363 O375 1.281 . S
C363 O376 1.236 . S
C364 O386 1.240 . S
C364 O387 1.264 . S
O365 Mn360 2.095 . S
O365 C374 1.250 . S
O366 Mn361 2.121 . S
O366 C374 1.258 . S
C367 N368 1.326 . S
C367 C371 1.460 . S
C367 H373 0.929 . S
N368 Mn361 2.257 . S
N368 C367 1.326 . S
N368 C372 1.362 . S
C369 C370 1.258 . S
C369 C372 1.431 . S
C369 C389 1.449 . S
C370 C369 1.258 . S
C370 C371 1.477 . S
C370 H390 0.931 . S
C371 C367 1.460 . S
C371 C370 1.477 . S
C371 H391 0.930 . S
C372 N368 1.362 . S
C372 C369 1.431 . S
C372 C382 1.476 . S
H373 C367 0.929 . S
C374 O365 1.250 . S
C374 O366 1.258 . S
O375 Mn360 2.162 . S
O375 C363 1.281 . S
O376 Mn360 2.297 . S
O376 C363 1.236 . S
N377 Mn361 2.282 . S
N377 C378 1.328 . S
N377 C382 1.318 . S
C378 N377 1.328 . S
C378 C379 1.457 . S
C378 H383 0.929 . S
C379 C378 1.457 . S
C379 C380 1.291 . S
C379 H392 0.931 . S
C380 C379 1.291 . S
C380 C381 1.373 . S
C380 H393 0.929 . S
C381 C380 1.373 . S
C381 C382 1.396 . S
C381 C388 1.403 . S
C382 C372 1.476 . S
C382 N377 1.318 . S
C382 C381 1.396 . S
H383 C378 0.929 . S
O384 Mn360 2.385 . S
O384 C362 1.234 . S
O385 Mn360 2.209 . S
O385 Mn361 2.215 . S
O385 C362 1.283 . S
O386 Mn360 2.094 . S
O386 C364 1.240 . S
O387 Mn361 2.117 . S
O387 C364 1.264 . S
C388 C381 1.403 . S
C388 C389 1.399 . S
C388 H394 0.929 . S
C389 C369 1.449 . S
C389 C388 1.399 . S
C389 H395 0.930 . S
H390 C370 0.931 . S
H391 C371 0.930 . S
H392 C379 0.931 . S
H393 C380 0.929 . S
H394 C388 0.929 . S
H395 C389 0.930 . S
Mn396 O401 2.095 . S
Mn396 O411 2.162 . S
Mn396 O412 2.297 . S
Mn396 O420 2.385 . S
Mn396 O421 2.209 . S
Mn396 O422 2.094 . S
Mn397 O402 2.121 . S
Mn397 N404 2.257 . S
Mn397 N413 2.282 . S
Mn397 O421 2.215 . S
Mn397 O423 2.117 . S
C398 O420 1.234 . S
C398 O421 1.283 . S
C399 O411 1.281 . S
C399 O412 1.236 . S
C400 O422 1.240 . S
C400 O423 1.264 . S
O401 Mn396 2.095 . S
O401 C410 1.250 . S
O402 Mn397 2.121 . S
O402 C410 1.258 . S
C403 N404 1.326 . S
C403 C407 1.460 . S
C403 H409 0.929 . S
N404 Mn397 2.257 . S
N404 C403 1.326 . S
N404 C408 1.362 . S
C405 C406 1.258 . S
C405 C408 1.431 . S
C405 C425 1.449 . S
C406 C405 1.258 . S
C406 C407 1.477 . S
C406 H426 0.931 . S
C407 C403 1.460 . S
C407 C406 1.477 . S
C407 H427 0.930 . S
C408 N404 1.362 . S
C408 C405 1.431 . S
C408 C418 1.476 . S
H409 C403 0.929 . S
C410 O401 1.250 . S
C410 O402 1.258 . S
O411 Mn396 2.162 . S
O411 C399 1.281 . S
O412 Mn396 2.297 . S
O412 C399 1.236 . S
N413 Mn397 2.282 . S
N413 C414 1.328 . S
N413 C418 1.318 . S
C414 N413 1.328 . S
C414 C415 1.457 . S
C414 H419 0.929 . S
C415 C414 1.457 . S
C415 C416 1.291 . S
C415 H428 0.931 . S
C416 C415 1.291 . S
C416 C417 1.373 . S
C416 H429 0.929 . S
C417 C416 1.373 . S
C417 C418 1.396 . S
C417 C424 1.403 . S
C418 C408 1.476 . S
C418 N413 1.318 . S
C418 C417 1.396 . S
H419 C414 0.929 . S
O420 Mn396 2.385 . S
O420 C398 1.234 . S
O421 Mn396 2.209 . S
O421 Mn397 2.215 . S
O421 C398 1.283 . S
O422 Mn396 2.094 . S
O422 C400 1.240 . S
O423 Mn397 2.117 . S
O423 C400 1.264 . S
C424 C417 1.403 . S
C424 C425 1.399 . S
C424 H430 0.929 . S
C425 C405 1.449 . S
C425 C424 1.399 . S
C425 H431 0.930 . S
H426 C406 0.931 . S
H427 C407 0.930 . S
H428 C415 0.931 . S
H429 C416 0.929 . S
H430 C424 0.929 . S
H431 C425 0.930 . S
Mn432 O437 2.095 . S
Mn432 O447 2.162 . S
Mn432 O448 2.297 . S
Mn432 O456 2.385 . S
Mn432 O457 2.209 . S
Mn432 O458 2.094 . S
Mn433 O438 2.121 . S
Mn433 N440 2.257 . S
Mn433 N449 2.282 . S
Mn433 O457 2.215 . S
Mn433 O459 2.117 . S
C434 O456 1.234 . S
C434 O457 1.283 . S
C435 O447 1.281 . S
C435 O448 1.236 . S
C436 O458 1.240 . S
C436 O459 1.264 . S
O437 Mn432 2.095 . S
O437 C446 1.250 . S
O438 Mn433 2.121 . S
O438 C446 1.258 . S
C439 N440 1.326 . S
C439 C443 1.460 . S
C439 H445 0.929 . S
N440 Mn433 2.257 . S
N440 C439 1.326 . S
N440 C444 1.362 . S
C441 C442 1.258 . S
C441 C444 1.431 . S
C441 C461 1.449 . S
C442 C441 1.258 . S
C442 C443 1.477 . S
C442 H462 0.931 . S
C443 C439 1.460 . S
C443 C442 1.477 . S
C443 H463 0.930 . S
C444 N440 1.362 . S
C444 C441 1.431 . S
C444 C454 1.476 . S
H445 C439 0.929 . S
C446 O437 1.250 . S
C446 O438 1.258 . S
O447 Mn432 2.162 . S
O447 C435 1.281 . S
O448 Mn432 2.297 . S
O448 C435 1.236 . S
N449 Mn433 2.282 . S
N449 C450 1.328 . S
N449 C454 1.318 . S
C450 N449 1.328 . S
C450 C451 1.457 . S
C450 H455 0.929 . S
C451 C450 1.457 . S
C451 C452 1.291 . S
C451 H464 0.931 . S
C452 C451 1.291 . S
C452 C453 1.373 . S
C452 H465 0.929 . S
C453 C452 1.373 . S
C453 C454 1.396 . S
C453 C460 1.403 . S
C454 C444 1.476 . S
C454 N449 1.318 . S
C454 C453 1.396 . S
H455 C450 0.929 . S
O456 Mn432 2.385 . S
O456 C434 1.234 . S
O457 Mn432 2.209 . S
O457 Mn433 2.215 . S
O457 C434 1.283 . S
O458 Mn432 2.094 . S
O458 C436 1.240 . S
O459 Mn433 2.117 . S
O459 C436 1.264 . S
C460 C453 1.403 . S
C460 C461 1.399 . S
C460 H466 0.929 . S
C461 C441 1.449 . S
C461 C460 1.399 . S
C461 H467 0.930 . S
H462 C442 0.931 . S
H463 C443 0.930 . S
H464 C451 0.931 . S
H465 C452 0.929 . S
H466 C460 0.929 . S
H467 C461 0.930 . S
Mn468 O473 2.095 . S
Mn468 O483 2.162 . S
Mn468 O484 2.297 . S
Mn468 O492 2.385 . S
Mn468 O493 2.209 . S
Mn468 O494 2.094 . S
Mn469 O474 2.121 . S
Mn469 N476 2.257 . S
Mn469 N485 2.282 . S
Mn469 O493 2.215 . S
Mn469 O495 2.117 . S
C470 O492 1.234 . S
C470 O493 1.283 . S
C471 O483 1.281 . S
C471 O484 1.236 . S
C472 O494 1.240 . S
C472 O495 1.264 . S
O473 Mn468 2.095 . S
O473 C482 1.250 . S
O474 Mn469 2.121 . S
O474 C482 1.258 . S
C475 N476 1.326 . S
C475 C479 1.460 . S
C475 H481 0.929 . S
N476 Mn469 2.257 . S
N476 C475 1.326 . S
N476 C480 1.362 . S
C477 C478 1.258 . S
C477 C480 1.431 . S
C477 C497 1.449 . S
C478 C477 1.258 . S
C478 C479 1.477 . S
C478 H498 0.931 . S
C479 C475 1.460 . S
C479 C478 1.477 . S
C479 H499 0.930 . S
C480 N476 1.362 . S
C480 C477 1.431 . S
C480 C490 1.476 . S
H481 C475 0.929 . S
C482 O473 1.250 . S
C482 O474 1.258 . S
O483 Mn468 2.162 . S
O483 C471 1.281 . S
O484 Mn468 2.297 . S
O484 C471 1.236 . S
N485 Mn469 2.282 . S
N485 C486 1.328 . S
N485 C490 1.318 . S
C486 N485 1.328 . S
C486 C487 1.457 . S
C486 H491 0.929 . S
C487 C486 1.457 . S
C487 C488 1.291 . S
C487 H500 0.931 . S
C488 C487 1.291 . S
C488 C489 1.373 . S
C488 H501 0.929 . S
C489 C488 1.373 . S
C489 C490 1.396 . S
C489 C496 1.403 . S
C490 C480 1.476 . S
C490 N485 1.318 . S
C490 C489 1.396 . S
H491 C486 0.929 . S
O492 Mn468 2.385 . S
O492 C470 1.234 . S
O493 Mn468 2.209 . S
O493 Mn469 2.215 . S
O493 C470 1.283 . S
O494 Mn468 2.094 . S
O494 C472 1.240 . S
O495 Mn469 2.117 . S
O495 C472 1.264 . S
C496 C489 1.403 . S
C496 C497 1.399 . S
C496 H502 0.929 . S
C497 C477 1.449 . S
C497 C496 1.399 . S
C497 H503 0.930 . S
H498 C478 0.931 . S
H499 C479 0.930 . S
H500 C487 0.931 . S
H501 C488 0.929 . S
H502 C496 0.929 . S
H503 C497 0.930 . S
Mn504 O509 2.095 . S
Mn504 O519 2.162 . S
Mn504 O520 2.297 . S
Mn504 O528 2.385 . S
Mn504 O529 2.209 . S
Mn504 O530 2.094 . S
Mn505 O510 2.121 . S
Mn505 N512 2.257 . S
Mn505 N521 2.282 . S
Mn505 O529 2.215 . S
Mn505 O531 2.117 . S
C506 O528 1.234 . S
C506 O529 1.283 . S
C507 O519 1.281 . S
C507 O520 1.236 . S
C508 O530 1.240 . S
C508 O531 1.264 . S
O509 Mn504 2.095 . S
O509 C518 1.250 . S
O510 Mn505 2.121 . S
O510 C518 1.258 . S
C511 N512 1.326 . S
C511 C515 1.460 . S
C511 H517 0.929 . S
N512 Mn505 2.257 . S
N512 C511 1.326 . S
N512 C516 1.362 . S
C513 C514 1.258 . S
C513 C516 1.431 . S
C513 C533 1.449 . S
C514 C513 1.258 . S
C514 C515 1.477 . S
C514 H534 0.931 . S
C515 C511 1.460 . S
C515 C514 1.477 . S
C515 H535 0.930 . S
C516 N512 1.362 . S
C516 C513 1.431 . S
C516 C526 1.476 . S
H517 C511 0.929 . S
C518 O509 1.250 . S
C518 O510 1.258 . S
O519 Mn504 2.162 . S
O519 C507 1.281 . S
O520 Mn504 2.297 . S
O520 C507 1.236 . S
N521 Mn505 2.282 . S
N521 C522 1.328 . S
N521 C526 1.318 . S
C522 N521 1.328 . S
C522 C523 1.457 . S
C522 H527 0.929 . S
C523 C522 1.457 . S
C523 C524 1.291 . S
C523 H536 0.931 . S
C524 C523 1.291 . S
C524 C525 1.373 . S
C524 H537 0.929 . S
C525 C524 1.373 . S
C525 C526 1.396 . S
C525 C532 1.403 . S
C526 C516 1.476 . S
C526 N521 1.318 . S
C526 C525 1.396 . S
H527 C522 0.929 . S
O528 Mn504 2.385 . S
O528 C506 1.234 . S
O529 Mn504 2.209 . S
O529 Mn505 2.215 . S
O529 C506 1.283 . S
O530 Mn504 2.094 . S
O530 C508 1.240 . S
O531 Mn505 2.117 . S
O531 C508 1.264 . S
C532 C525 1.403 . S
C532 C533 1.399 . S
C532 H538 0.929 . S
C533 C513 1.449 . S
C533 C532 1.399 . S
C533 H539 0.930 . S
H534 C514 0.931 . S
H535 C515 0.930 . S
H536 C523 0.931 . S
H537 C524 0.929 . S
H538 C532 0.929 . S
H539 C533 0.930 . S
Mn540 O545 2.095 . S
Mn540 O555 2.162 . S
Mn540 O556 2.297 . S
Mn540 O564 2.385 . S
Mn540 O565 2.209 . S
Mn540 O566 2.094 . S
Mn541 O546 2.121 . S
Mn541 N548 2.257 . S
Mn541 N557 2.282 . S
Mn541 O565 2.215 . S
Mn541 O567 2.117 . S
C542 O564 1.234 . S
C542 O565 1.283 . S
C543 O555 1.281 . S
C543 O556 1.236 . S
C544 O566 1.240 . S
C544 O567 1.264 . S
O545 Mn540 2.095 . S
O545 C554 1.250 . S
O546 Mn541 2.121 . S
O546 C554 1.258 . S
C547 N548 1.326 . S
C547 C551 1.460 . S
C547 H553 0.929 . S
N548 Mn541 2.257 . S
N548 C547 1.326 . S
N548 C552 1.362 . S
C549 C550 1.258 . S
C549 C552 1.431 . S
C549 C569 1.449 . S
C550 C549 1.258 . S
C550 C551 1.477 . S
C550 H570 0.931 . S
C551 C547 1.460 . S
C551 C550 1.477 . S
C551 H571 0.930 . S
C552 N548 1.362 . S
C552 C549 1.431 . S
C552 C562 1.476 . S
H553 C547 0.929 . S
C554 O545 1.250 . S
C554 O546 1.258 . S
O555 Mn540 2.162 . S
O555 C543 1.281 . S
O556 Mn540 2.297 . S
O556 C543 1.236 . S
N557 Mn541 2.282 . S
N557 C558 1.328 . S
N557 C562 1.318 . S
C558 N557 1.328 . S
C558 C559 1.457 . S
C558 H563 0.929 . S
C559 C558 1.457 . S
C559 C560 1.291 . S
C559 H572 0.931 . S
C560 C559 1.291 . S
C560 C561 1.373 . S
C560 H573 0.929 . S
C561 C560 1.373 . S
C561 C562 1.396 . S
C561 C568 1.403 . S
C562 C552 1.476 . S
C562 N557 1.318 . S
C562 C561 1.396 . S
H563 C558 0.929 . S
O564 Mn540 2.385 . S
O564 C542 1.234 . S
O565 Mn540 2.209 . S
O565 Mn541 2.215 . S
O565 C542 1.283 . S
O566 Mn540 2.094 . S
O566 C544 1.240 . S
O567 Mn541 2.117 . S
O567 C544 1.264 . S
C568 C561 1.403 . S
C568 C569 1.399 . S
C568 H574 0.929 . S
C569 C549 1.449 . S
C569 C568 1.399 . S
C569 H575 0.930 . S
H570 C550 0.931 . S
H571 C551 0.930 . S
H572 C559 0.931 . S
H573 C560 0.929 . S
H574 C568 0.929 . S
H575 C569 0.930 . S
Mn576 O581 2.095 . S
Mn576 O591 2.162 . S
Mn576 O592 2.297 . S
Mn576 O600 2.385 . S
Mn576 O601 2.209 . S
Mn576 O602 2.094 . S
Mn577 O582 2.121 . S
Mn577 N584 2.257 . S
Mn577 N593 2.282 . S
Mn577 O601 2.215 . S
Mn577 O603 2.117 . S
C578 O600 1.234 . S
C578 O601 1.283 . S
C579 O591 1.281 . S
C579 O592 1.236 . S
C580 O602 1.240 . S
C580 O603 1.264 . S
O581 Mn576 2.095 . S
O581 C590 1.250 . S
O582 Mn577 2.121 . S
O582 C590 1.258 . S
C583 N584 1.326 . S
C583 C587 1.460 . S
C583 H589 0.929 . S
N584 Mn577 2.257 . S
N584 C583 1.326 . S
N584 C588 1.362 . S
C585 C586 1.258 . S
C585 C588 1.431 . S
C585 C605 1.449 . S
C586 C585 1.258 . S
C586 C587 1.477 . S
C586 H606 0.931 . S
C587 C583 1.460 . S
C587 C586 1.477 . S
C587 H607 0.930 . S
C588 N584 1.362 . S
C588 C585 1.431 . S
C588 C598 1.476 . S
H589 C583 0.929 . S
C590 O581 1.250 . S
C590 O582 1.258 . S
O591 Mn576 2.162 . S
O591 C579 1.281 . S
O592 Mn576 2.297 . S
O592 C579 1.236 . S
N593 Mn577 2.282 . S
N593 C594 1.328 . S
N593 C598 1.318 . S
C594 N593 1.328 . S
C594 C595 1.457 . S
C594 H599 0.929 . S
C595 C594 1.457 . S
C595 C596 1.291 . S
C595 H608 0.931 . S
C596 C595 1.291 . S
C596 C597 1.373 . S
C596 H609 0.929 . S
C597 C596 1.373 . S
C597 C598 1.396 . S
C597 C604 1.403 . S
C598 C588 1.476 . S
C598 N593 1.318 . S
C598 C597 1.396 . S
H599 C594 0.929 . S
O600 Mn576 2.385 . S
O600 C578 1.234 . S
O601 Mn576 2.209 . S
O601 Mn577 2.215 . S
O601 C578 1.283 . S
O602 Mn576 2.094 . S
O602 C580 1.240 . S
O603 Mn577 2.117 . S
O603 C580 1.264 . S
C604 C597 1.403 . S
C604 C605 1.399 . S
C604 H610 0.929 . S
C605 C585 1.449 . S
C605 C604 1.399 . S
C605 H611 0.930 . S
H606 C586 0.931 . S
H607 C587 0.930 . S
H608 C595 0.931 . S
H609 C596 0.929 . S
H610 C604 0.929 . S
H611 C605 0.930 . S
Mn612 O617 2.095 . S
Mn612 O627 2.162 . S
Mn612 O628 2.297 . S
Mn612 O636 2.385 . S
Mn612 O637 2.209 . S
Mn612 O638 2.094 . S
Mn613 O618 2.121 . S
Mn613 N620 2.257 . S
Mn613 N629 2.282 . S
Mn613 O637 2.215 . S
Mn613 O639 2.117 . S
C614 O636 1.234 . S
C614 O637 1.283 . S
C615 O627 1.281 . S
C615 O628 1.236 . S
C616 O638 1.240 . S
C616 O639 1.264 . S
O617 Mn612 2.095 . S
O617 C626 1.250 . S
O618 Mn613 2.121 . S
O618 C626 1.258 . S
C619 N620 1.326 . S
C619 C623 1.460 . S
C619 H625 0.929 . S
N620 Mn613 2.257 . S
N620 C619 1.326 . S
N620 C624 1.362 . S
C621 C622 1.258 . S
C621 C624 1.431 . S
C621 C641 1.449 . S
C622 C621 1.258 . S
C622 C623 1.477 . S
C622 H642 0.931 . S
C623 C619 1.460 . S
C623 C622 1.477 . S
C623 H643 0.930 . S
C624 N620 1.362 . S
C624 C621 1.431 . S
C624 C634 1.476 . S
H625 C619 0.929 . S
C626 O617 1.250 . S
C626 O618 1.258 . S
O627 Mn612 2.162 . S
O627 C615 1.281 . S
O628 Mn612 2.297 . S
O628 C615 1.236 . S
N629 Mn613 2.282 . S
N629 C630 1.328 . S
N629 C634 1.318 . S
C630 N629 1.328 . S
C630 C631 1.457 . S
C630 H635 0.929 . S
C631 C630 1.457 . S
C631 C632 1.291 . S
C631 H644 0.931 . S
C632 C631 1.291 . S
C632 C633 1.373 . S
C632 H645 0.929 . S
C633 C632 1.373 . S
C633 C634 1.396 . S
C633 C640 1.403 . S
C634 C624 1.476 . S
C634 N629 1.318 . S
C634 C633 1.396 . S
H635 C630 0.929 . S
O636 Mn612 2.385 . S
O636 C614 1.234 . S
O637 Mn612 2.209 . S
O637 Mn613 2.215 . S
O637 C614 1.283 . S
O638 Mn612 2.094 . S
O638 C616 1.240 . S
O639 Mn613 2.117 . S
O639 C616 1.264 . S
C640 C633 1.403 . S
C640 C641 1.399 . S
C640 H646 0.929 . S
C641 C621 1.449 . S
C641 C640 1.399 . S
C641 H647 0.930 . S
H642 C622 0.931 . S
H643 C623 0.930 . S
H644 C631 0.931 . S
H645 C632 0.929 . S
H646 C640 0.929 . S
H647 C641 0.930 . S
Mn648 O653 2.095 . S
Mn648 O663 2.162 . S
Mn648 O664 2.297 . S
Mn648 O672 2.385 . S
Mn648 O673 2.209 . S
Mn648 O674 2.094 . S
Mn649 O654 2.121 . S
Mn649 N656 2.257 . S
Mn649 N665 2.282 . S
Mn649 O673 2.215 . S
Mn649 O675 2.117 . S
C650 O672 1.234 . S
C650 O673 1.283 . S
C651 O663 1.281 . S
C651 O664 1.236 . S
C652 O674 1.240 . S
C652 O675 1.264 . S
O653 Mn648 2.095 . S
O653 C662 1.250 . S
O654 Mn649 2.121 . S
O654 C662 1.258 . S
C655 N656 1.326 . S
C655 C659 1.460 . S
C655 H661 0.929 . S
N656 Mn649 2.257 . S
N656 C655 1.326 . S
N656 C660 1.362 . S
C657 C658 1.258 . S
C657 C660 1.431 . S
C657 C677 1.449 . S
C658 C657 1.258 . S
C658 C659 1.477 . S
C658 H678 0.931 . S
C659 C655 1.460 . S
C659 C658 1.477 . S
C659 H679 0.930 . S
C660 N656 1.362 . S
C660 C657 1.431 . S
C660 C670 1.476 . S
H661 C655 0.929 . S
C662 O653 1.250 . S
C662 O654 1.258 . S
O663 Mn648 2.162 . S
O663 C651 1.281 . S
O664 Mn648 2.297 . S
O664 C651 1.236 . S
N665 Mn649 2.282 . S
N665 C666 1.328 . S
N665 C670 1.318 . S
C666 N665 1.328 . S
C666 C667 1.457 . S
C666 H671 0.929 . S
C667 C666 1.457 . S
C667 C668 1.291 . S
C667 H680 0.931 . S
C668 C667 1.291 . S
C668 C669 1.373 . S
C668 H681 0.929 . S
C669 C668 1.373 . S
C669 C670 1.396 . S
C669 C676 1.403 . S
C670 C660 1.476 . S
C670 N665 1.318 . S
C670 C669 1.396 . S
H671 C666 0.929 . S
O672 Mn648 2.385 . S
O672 C650 1.234 . S
O673 Mn648 2.209 . S
O673 Mn649 2.215 . S
O673 C650 1.283 . S
O674 Mn648 2.094 . S
O674 C652 1.240 . S
O675 Mn649 2.117 . S
O675 C652 1.264 . S
C676 C669 1.403 . S
C676 C677 1.399 . S
C676 H682 0.929 . S
C677 C657 1.449 . S
C677 C676 1.399 . S
C677 H683 0.930 . S
H678 C658 0.931 . S
H679 C659 0.930 . S
H680 C667 0.931 . S
H681 C668 0.929 . S
H682 C676 0.929 . S
H683 C677 0.930 . S
Mn684 O689 2.095 . S
Mn684 O699 2.162 . S
Mn684 O700 2.297 . S
Mn684 O708 2.385 . S
Mn684 O709 2.209 . S
Mn684 O710 2.094 . S
Mn685 O690 2.121 . S
Mn685 N692 2.257 . S
Mn685 N701 2.282 . S
Mn685 O709 2.215 . S
Mn685 O711 2.117 . S
C686 O708 1.234 . S
C686 O709 1.283 . S
C687 O699 1.281 . S
C687 O700 1.236 . S
C688 O710 1.240 . S
C688 O711 1.264 . S
O689 Mn684 2.095 . S
O689 C698 1.250 . S
O690 Mn685 2.121 . S
O690 C698 1.258 . S
C691 N692 1.326 . S
C691 C695 1.460 . S
C691 H697 0.929 . S
N692 Mn685 2.257 . S
N692 C691 1.326 . S
N692 C696 1.362 . S
C693 C694 1.258 . S
C693 C696 1.431 . S
C693 C713 1.449 . S
C694 C693 1.258 . S
C694 C695 1.477 . S
C694 H714 0.931 . S
C695 C691 1.460 . S
C695 C694 1.477 . S
C695 H715 0.930 . S
C696 N692 1.362 . S
C696 C693 1.431 . S
C696 C706 1.476 . S
H697 C691 0.929 . S
C698 O689 1.250 . S
C698 O690 1.258 . S
O699 Mn684 2.162 . S
O699 C687 1.281 . S
O700 Mn684 2.297 . S
O700 C687 1.236 . S
N701 Mn685 2.282 . S
N701 C702 1.328 . S
N701 C706 1.318 . S
C702 N701 1.328 . S
C702 C703 1.457 . S
C702 H707 0.929 . S
C703 C702 1.457 . S
C703 C704 1.291 . S
C703 H716 0.931 . S
C704 C703 1.291 . S
C704 C705 1.373 . S
C704 H717 0.929 . S
C705 C704 1.373 . S
C705 C706 1.396 . S
C705 C712 1.403 . S
C706 C696 1.476 . S
C706 N701 1.318 . S
C706 C705 1.396 . S
H707 C702 0.929 . S
O708 Mn684 2.385 . S
O708 C686 1.234 . S
O709 Mn684 2.209 . S
O709 Mn685 2.215 . S
O709 C686 1.283 . S
O710 Mn684 2.094 . S
O710 C688 1.240 . S
O711 Mn685 2.117 . S
O711 C688 1.264 . S
C712 C705 1.403 . S
C712 C713 1.399 . S
C712 H718 0.929 . S
C713 C693 1.449 . S
C713 C712 1.399 . S
C713 H719 0.930 . S
H714 C694 0.931 . S
H715 C695 0.930 . S
H716 C703 0.931 . S
H717 C704 0.929 . S
H718 C712 0.929 . S
H719 C713 0.930 . S
Mn720 O725 2.095 . S
Mn720 O735 2.162 . S
Mn720 O736 2.297 . S
Mn720 O744 2.385 . S
Mn720 O745 2.209 . S
Mn720 O746 2.094 . S
Mn721 O726 2.121 . S
Mn721 N728 2.257 . S
Mn721 N737 2.282 . S
Mn721 O745 2.215 . S
Mn721 O747 2.117 . S
C722 O744 1.234 . S
C722 O745 1.283 . S
C723 O735 1.281 . S
C723 O736 1.236 . S
C724 O746 1.240 . S
C724 O747 1.264 . S
O725 Mn720 2.095 . S
O725 C734 1.250 . S
O726 Mn721 2.121 . S
O726 C734 1.258 . S
C727 N728 1.326 . S
C727 C731 1.460 . S
C727 H733 0.929 . S
N728 Mn721 2.257 . S
N728 C727 1.326 . S
N728 C732 1.362 . S
C729 C730 1.258 . S
C729 C732 1.431 . S
C729 C749 1.449 . S
C730 C729 1.258 . S
C730 C731 1.477 . S
C730 H750 0.931 . S
C731 C727 1.460 . S
C731 C730 1.477 . S
C731 H751 0.930 . S
C732 N728 1.362 . S
C732 C729 1.431 . S
C732 C742 1.476 . S
H733 C727 0.929 . S
C734 O725 1.250 . S
C734 O726 1.258 . S
O735 Mn720 2.162 . S
O735 C723 1.281 . S
O736 Mn720 2.297 . S
O736 C723 1.236 . S
N737 Mn721 2.282 . S
N737 C738 1.328 . S
N737 C742 1.318 . S
C738 N737 1.328 . S
C738 C739 1.457 . S
C738 H743 0.929 . S
C739 C738 1.457 . S
C739 C740 1.291 . S
C739 H752 0.931 . S
C740 C739 1.291 . S
C740 C741 1.373 . S
C740 H753 0.929 . S
C741 C740 1.373 . S
C741 C742 1.396 . S
C741 C748 1.403 . S
C742 C732 1.476 . S
C742 N737 1.318 . S
C742 C741 1.396 . S
H743 C738 0.929 . S
O744 Mn720 2.385 . S
O744 C722 1.234 . S
O745 Mn720 2.209 . S
O745 Mn721 2.215 . S
O745 C722 1.283 . S
O746 Mn720 2.094 . S
O746 C724 1.240 . S
O747 Mn721 2.117 . S
O747 C724 1.264 . S
C748 C741 1.403 . S
C748 C749 1.399 . S
C748 H754 0.929 . S
C749 C729 1.449 . S
C749 C748 1.399 . S
C749 H755 0.930 . S
H750 C730 0.931 . S
H751 C731 0.930 . S
H752 C739 0.931 . S
H753 C740 0.929 . S
H754 C748 0.929 . S
H755 C749 0.930 . S
Mn756 O761 2.095 . S
Mn756 O771 2.162 . S
Mn756 O772 2.297 . S
Mn756 O780 2.385 . S
Mn756 O781 2.209 . S
Mn756 O782 2.094 . S
Mn757 O762 2.121 . S
Mn757 N764 2.257 . S
Mn757 N773 2.282 . S
Mn757 O781 2.215 . S
Mn757 O783 2.117 . S
C758 O780 1.234 . S
C758 O781 1.283 . S
C759 O771 1.281 . S
C759 O772 1.236 . S
C760 O782 1.240 . S
C760 O783 1.264 . S
O761 Mn756 2.095 . S
O761 C770 1.250 . S
O762 Mn757 2.121 . S
O762 C770 1.258 . S
C763 N764 1.326 . S
C763 C767 1.460 . S
C763 H769 0.929 . S
N764 Mn757 2.257 . S
N764 C763 1.326 . S
N764 C768 1.362 . S
C765 C766 1.258 . S
C765 C768 1.431 . S
C765 C785 1.449 . S
C766 C765 1.258 . S
C766 C767 1.477 . S
C766 H786 0.931 . S
C767 C763 1.460 . S
C767 C766 1.477 . S
C767 H787 0.930 . S
C768 N764 1.362 . S
C768 C765 1.431 . S
C768 C778 1.476 . S
H769 C763 0.929 . S
C770 O761 1.250 . S
C770 O762 1.258 . S
O771 Mn756 2.162 . S
O771 C759 1.281 . S
O772 Mn756 2.297 . S
O772 C759 1.236 . S
N773 Mn757 2.282 . S
N773 C774 1.328 . S
N773 C778 1.318 . S
C774 N773 1.328 . S
C774 C775 1.457 . S
C774 H779 0.929 . S
C775 C774 1.457 . S
C775 C776 1.291 . S
C775 H788 0.931 . S
C776 C775 1.291 . S
C776 C777 1.373 . S
C776 H789 0.929 . S
C777 C776 1.373 . S
C777 C778 1.396 . S
C777 C784 1.403 . S
C778 C768 1.476 . S
C778 N773 1.318 . S
C778 C777 1.396 . S
H779 C774 0.929 . S
O780 Mn756 2.385 . S
O780 C758 1.234 . S
O781 Mn756 2.209 . S
O781 Mn757 2.215 . S
O781 C758 1.283 . S
O782 Mn756 2.094 . S
O782 C760 1.240 . S
O783 Mn757 2.117 . S
O783 C760 1.264 . S
C784 C777 1.403 . S
C784 C785 1.399 . S
C784 H790 0.929 . S
C785 C765 1.449 . S
C785 C784 1.399 . S
C785 H791 0.930 . S
H786 C766 0.931 . S
H787 C767 0.930 . S
H788 C775 0.931 . S
H789 C776 0.929 . S
H790 C784 0.929 . S
H791 C785 0.930 . S
Mn792 O797 2.095 . S
Mn792 O807 2.162 . S
Mn792 O808 2.297 . S
Mn792 O816 2.385 . S
Mn792 O817 2.209 . S
Mn792 O818 2.094 . S
Mn793 O798 2.121 . S
Mn793 N800 2.257 . S
Mn793 N809 2.282 . S
Mn793 O817 2.215 . S
Mn793 O819 2.117 . S
C794 O816 1.234 . S
C794 O817 1.283 . S
C795 O807 1.281 . S
C795 O808 1.236 . S
C796 O818 1.240 . S
C796 O819 1.264 . S
O797 Mn792 2.095 . S
O797 C806 1.250 . S
O798 Mn793 2.121 . S
O798 C806 1.258 . S
C799 N800 1.326 . S
C799 C803 1.460 . S
C799 H805 0.929 . S
N800 Mn793 2.257 . S
N800 C799 1.326 . S
N800 C804 1.362 . S
C801 C802 1.258 . S
C801 C804 1.431 . S
C801 C821 1.449 . S
C802 C801 1.258 . S
C802 C803 1.477 . S
C802 H822 0.931 . S
C803 C799 1.460 . S
C803 C802 1.477 . S
C803 H823 0.930 . S
C804 N800 1.362 . S
C804 C801 1.431 . S
C804 C814 1.476 . S
H805 C799 0.929 . S
C806 O797 1.250 . S
C806 O798 1.258 . S
O807 Mn792 2.162 . S
O807 C795 1.281 . S
O808 Mn792 2.297 . S
O808 C795 1.236 . S
N809 Mn793 2.282 . S
N809 C810 1.328 . S
N809 C814 1.318 . S
C810 N809 1.328 . S
C810 C811 1.457 . S
C810 H815 0.929 . S
C811 C810 1.457 . S
C811 C812 1.291 . S
C811 H824 0.931 . S
C812 C811 1.291 . S
C812 C813 1.373 . S
C812 H825 0.929 . S
C813 C812 1.373 . S
C813 C814 1.396 . S
C813 C820 1.403 . S
C814 C804 1.476 . S
C814 N809 1.318 . S
C814 C813 1.396 . S
H815 C810 0.929 . S
O816 Mn792 2.385 . S
O816 C794 1.234 . S
O817 Mn792 2.209 . S
O817 Mn793 2.215 . S
O817 C794 1.283 . S
O818 Mn792 2.094 . S
O818 C796 1.240 . S
O819 Mn793 2.117 . S
O819 C796 1.264 . S
C820 C813 1.403 . S
C820 C821 1.399 . S
C820 H826 0.929 . S
C821 C801 1.449 . S
C821 C820 1.399 . S
C821 H827 0.930 . S
H822 C802 0.931 . S
H823 C803 0.930 . S
H824 C811 0.931 . S
H825 C812 0.929 . S
H826 C820 0.929 . S
H827 C821 0.930 . S
Mn828 O833 2.095 . S
Mn828 O843 2.162 . S
Mn828 O844 2.297 . S
Mn828 O852 2.385 . S
Mn828 O853 2.209 . S
Mn828 O854 2.094 . S
Mn829 O834 2.121 . S
Mn829 N836 2.257 . S
Mn829 N845 2.282 . S
Mn829 O853 2.215 . S
Mn829 O855 2.117 . S
C830 O852 1.234 . S
C830 O853 1.283 . S
C831 O843 1.281 . S
C831 O844 1.236 . S
C832 O854 1.240 . S
C832 O855 1.264 . S
O833 Mn828 2.095 . S
O833 C842 1.250 . S
O834 Mn829 2.121 . S
O834 C842 1.258 . S
C835 N836 1.326 . S
C835 C839 1.460 . S
C835 H841 0.929 . S
N836 Mn829 2.257 . S
N836 C835 1.326 . S
N836 C840 1.362 . S
C837 C838 1.258 . S
C837 C840 1.431 . S
C837 C857 1.449 . S
C838 C837 1.258 . S
C838 C839 1.477 . S
C838 H858 0.931 . S
C839 C835 1.460 . S
C839 C838 1.477 . S
C839 H859 0.930 . S
C840 N836 1.362 . S
C840 C837 1.431 . S
C840 C850 1.476 . S
H841 C835 0.929 . S
C842 O833 1.250 . S
C842 O834 1.258 . S
O843 Mn828 2.162 . S
O843 C831 1.281 . S
O844 Mn828 2.297 . S
O844 C831 1.236 . S
N845 Mn829 2.282 . S
N845 C846 1.328 . S
N845 C850 1.318 . S
C846 N845 1.328 . S
C846 C847 1.457 . S
C846 H851 0.929 . S
C847 C846 1.457 . S
C847 C848 1.291 . S
C847 H860 0.931 . S
C848 C847 1.291 . S
C848 C849 1.373 . S
C848 H861 0.929 . S
C849 C848 1.373 . S
C849 C850 1.396 . S
C849 C856 1.403 . S
C850 C840 1.476 . S
C850 N845 1.318 . S
C850 C849 1.396 . S
H851 C846 0.929 . S
O852 Mn828 2.385 . S
O852 C830 1.234 . S
O853 Mn828 2.209 . S
O853 Mn829 2.215 . S
O853 C830 1.283 . S
O854 Mn828 2.094 . S
O854 C832 1.240 . S
O855 Mn829 2.117 . S
O855 C832 1.264 . S
C856 C849 1.403 . S
C856 C857 1.399 . S
C856 H862 0.929 . S
C857 C837 1.449 . S
C857 C856 1.399 . S
C857 H863 0.930 . S
H858 C838 0.931 . S
H859 C839 0.930 . S
H860 C847 0.931 . S
H861 C848 0.929 . S
H862 C856 0.929 . S
H863 C857 0.930 . S
C864 C865 1.387 . S
C864 H868 0.950 . S
C864 C873 1.390 1_545 S
C865 C864 1.387 . S
C865 C867 1.387 . S
H866 C873 0.950 . S
C867 C865 1.387 . S
C867 C869 1.390 1_545 S
C867 H871 0.950 . S
H868 C864 0.950 . S
C869 C867 1.390 1_565 S
C869 C870 1.387 . S
C869 H872 0.950 . S
C870 C869 1.387 . S
C870 C873 1.387 . S
H871 C867 0.950 . S
H872 C869 0.950 . S
C873 C864 1.390 1_565 S
C873 H866 0.950 . S
C873 C870 1.387 . S
C874 C875 1.387 . S
C874 H878 0.950 . S
C874 C883 1.390 . S
C875 C874 1.387 . S
C875 C877 1.387 . S
H876 C883 0.950 . S
C877 C875 1.387 . S
C877 C879 1.390 . S
C877 H881 0.950 . S
H878 C874 0.950 . S
C879 C877 1.390 . S
C879 C880 1.387 . S
C879 H882 0.950 . S
C880 C879 1.387 . S
C880 C883 1.387 . S
H881 C877 0.950 . S
H882 C879 0.950 . S
C883 C874 1.390 . S
C883 H876 0.950 . S
C883 C880 1.387 . S
C884 C885 1.387 . S
C884 H888 0.950 . S
C884 C893 1.390 1_655 S
C885 C884 1.387 . S
C885 C887 1.387 . S
H886 C893 0.950 . S
C887 C885 1.387 . S
C887 C889 1.390 1_655 S
C887 H891 0.950 . S
H888 C884 0.950 . S
C889 C887 1.390 1_455 S
C889 C890 1.387 . S
C889 H892 0.950 . S
C890 C889 1.387 . S
C890 C893 1.387 . S
H891 C887 0.950 . S
H892 C889 0.950 . S
C893 C884 1.390 1_455 S
C893 H886 0.950 . S
C893 C890 1.387 . S
C894 C895 1.387 . S
C894 H898 0.950 . S
C894 C903 1.390 1_565 S
C895 C894 1.387 . S
C895 C897 1.387 . S
H896 C903 0.950 . S
C897 C895 1.387 . S
C897 C899 1.390 1_565 S
C897 H901 0.950 . S
H898 C894 0.950 . S
C899 C897 1.390 1_545 S
C899 C900 1.387 . S
C899 H902 0.950 . S
C900 C899 1.387 . S
C900 C903 1.387 . S
H901 C897 0.950 . S
H902 C899 0.950 . S
C903 C894 1.390 1_545 S
C903 H896 0.950 . S
C903 C900 1.387 . S
C904 C905 1.387 . S
C904 H908 0.950 . S
C904 C913 1.390 . S
C905 C904 1.387 . S
C905 C907 1.387 . S
H906 C913 0.950 . S
C907 C905 1.387 . S
C907 C909 1.390 . S
C907 H911 0.950 . S
H908 C904 0.950 . S
C909 C907 1.390 . S
C909 C910 1.387 . S
C909 H912 0.950 . S
C910 C909 1.387 . S
C910 C913 1.387 . S
H911 C907 0.950 . S
H912 C909 0.950 . S
C913 C904 1.390 . S
C913 H906 0.950 . S
C913 C910 1.387 . S
C914 C915 1.387 . S
C914 H918 0.950 . S
C914 C923 1.390 1_455 S
C915 C914 1.387 . S
C915 C917 1.387 . S
H916 C923 0.950 . S
C917 C915 1.387 . S
C917 C919 1.390 1_455 S
C917 H921 0.950 . S
H918 C914 0.950 . S
C919 C917 1.390 1_655 S
C919 C920 1.387 . S
C919 H922 0.950 . S
C920 C919 1.387 . S
C920 C923 1.387 . S
H921 C917 0.950 . S
H922 C919 0.950 . S
C923 C914 1.390 1_655 S
C923 H916 0.950 . S
C923 C920 1.387 . S
C924 C925 1.387 . S
C924 H928 0.950 . S
C924 C933 1.390 1_565 S
C925 C924 1.387 . S
C925 C927 1.387 . S
H926 C933 0.950 . S
C927 C925 1.387 . S
C927 C929 1.390 1_565 S
C927 H931 0.950 . S
H928 C924 0.950 . S
C929 C927 1.390 1_545 S
C929 C930 1.387 . S
C929 H932 0.950 . S
C930 C929 1.387 . S
C930 C933 1.387 . S
H931 C927 0.950 . S
H932 C929 0.950 . S
C933 C924 1.390 1_545 S
C933 H926 0.950 . S
C933 C930 1.387 . S
C934 C935 1.387 . S
C934 H938 0.950 . S
C934 C943 1.390 . S
C935 C934 1.387 . S
C935 C937 1.387 . S
H936 C943 0.950 . S
C937 C935 1.387 . S
C937 C939 1.390 . S
C937 H941 0.950 . S
H938 C934 0.950 . S
C939 C937 1.390 . S
C939 C940 1.387 . S
C939 H942 0.950 . S
C940 C939 1.387 . S
C940 C943 1.387 . S
H941 C937 0.950 . S
H942 C939 0.950 . S
C943 C934 1.390 . S
C943 H936 0.950 . S
C943 C940 1.387 . S
C944 C945 1.387 . S
C944 H948 0.950 . S
C944 C953 1.390 1_655 S
C945 C944 1.387 . S
C945 C947 1.387 . S
H946 C953 0.950 . S
C947 C945 1.387 . S
C947 C949 1.390 1_655 S
C947 H951 0.950 . S
H948 C944 0.950 . S
C949 C947 1.390 1_455 S
C949 C950 1.387 . S
C949 H952 0.950 . S
C950 C949 1.387 . S
C950 C953 1.387 . S
H951 C947 0.950 . S
H952 C949 0.950 . S
C953 C944 1.390 1_455 S
C953 H946 0.950 . S
C953 C950 1.387 . S
C954 C955 1.387 . S
C954 H958 0.950 . S
C954 C963 1.390 1_545 S
C955 C954 1.387 . S
C955 C957 1.387 . S
H956 C963 0.950 . S
C957 C955 1.387 . S
C957 C959 1.390 1_545 S
C957 H961 0.950 . S
H958 C954 0.950 . S
C959 C957 1.390 1_565 S
C959 C960 1.387 . S
C959 H962 0.950 . S
C960 C959 1.387 . S
C960 C963 1.387 . S
H961 C957 0.950 . S
H962 C959 0.950 . S
C963 C954 1.390 1_565 S
C963 H956 0.950 . S
C963 C960 1.387 . S
C964 C965 1.387 . S
C964 H968 0.950 . S
C964 C973 1.390 . S
C965 C964 1.387 . S
C965 C967 1.387 . S
H966 C973 0.950 . S
C967 C965 1.387 . S
C967 C969 1.390 . S
C967 H971 0.950 . S
H968 C964 0.950 . S
C969 C967 1.390 . S
C969 C970 1.387 . S
C969 H972 0.950 . S
C970 C969 1.387 . S
C970 C973 1.387 . S
H971 C967 0.950 . S
H972 C969 0.950 . S
C973 C964 1.390 . S
C973 H966 0.950 . S
C973 C970 1.387 . S
C974 C975 1.387 . S
C974 H978 0.950 . S
C974 C983 1.390 1_455 S
C975 C974 1.387 . S
C975 C977 1.387 . S
H976 C983 0.950 . S
C977 C975 1.387 . S
C977 C979 1.390 1_455 S
C977 H981 0.950 . S
H978 C974 0.950 . S
C979 C977 1.390 1_655 S
C979 C980 1.387 . S
C979 H982 0.950 . S
C980 C979 1.387 . S
C980 C983 1.387 . S
H981 C977 0.950 . S
H982 C979 0.950 . S
C983 C974 1.390 1_655 S
C983 H976 0.950 . S
C983 C980 1.387 . S
C984 C985 1.387 . S
C984 H988 0.950 . S
C984 C993 1.390 . S
C985 C984 1.387 . S
C985 C987 1.387 . S
H986 C993 0.950 . S
C987 C985 1.387 . S
C987 C989 1.390 . S
C987 H991 0.950 . S
H988 C984 0.950 . S
C989 C987 1.390 . S
C989 C990 1.387 . S
C989 H992 0.950 . S
C990 C989 1.387 . S
C990 C993 1.387 . S
H991 C987 0.950 . S
H992 C989 0.950 . S
C993 C984 1.390 . S
C993 H986 0.950 . S
C993 C990 1.387 . S
C994 C995 1.387 . S
C994 H998 0.950 . S
C994 C1003 1.390 . S
C995 C994 1.387 . S
C995 C997 1.387 . S
H996 C1003 0.950 . S
C997 C995 1.387 . S
C997 C999 1.390 . S
C997 H1001 0.950 . S
H998 C994 0.950 . S
C999 C997 1.390 . S
C999 C1000 1.387 . S
C999 H1002 0.950 . S
C1000 C999 1.387 . S
C1000 C1003 1.387 . S
H1001 C997 0.950 . S
H1002 C999 0.950 . S
C1003 C994 1.390 . S
C1003 H996 0.950 . S
C1003 C1000 1.387 . S
C1004 C1005 1.387 . S
C1004 H1008 0.950 . S
C1004 C1013 1.390 . S
C1005 C1004 1.387 . S
C1005 C1007 1.387 . S
H1006 C1013 0.950 . S
C1007 C1005 1.387 . S
C1007 C1009 1.390 . S
C1007 H1011 0.950 . S
H1008 C1004 0.950 . S
C1009 C1007 1.390 . S
C1009 C1010 1.387 . S
C1009 H1012 0.950 . S
C1010 C1009 1.387 . S
C1010 C1013 1.387 . S
H1011 C1007 0.950 . S
H1012 C1009 0.950 . S
C1013 C1004 1.390 . S
C1013 H1006 0.950 . S
C1013 C1010 1.387 . S
C1014 C1015 1.387 . S
C1014 H1018 0.950 . S
C1014 C1023 1.390 . S
C1015 C1014 1.387 . S
C1015 C1017 1.387 . S
H1016 C1023 0.950 . S
C1017 C1015 1.387 . S
C1017 C1019 1.390 . S
C1017 H1021 0.950 . S
H1018 C1014 0.950 . S
C1019 C1017 1.390 . S
C1019 C1020 1.387 . S
C1019 H1022 0.950 . S
C1020 C1019 1.387 . S
C1020 C1023 1.387 . S
H1021 C1017 0.950 . S
H1022 C1019 0.950 . S
C1023 C1014 1.390 . S
C1023 H1016 0.950 . S
C1023 C1020 1.387 . S
C1024 C1025 1.387 . S
C1024 H1028 0.950 . S
C1024 C1033 1.390 . S
C1025 C1024 1.387 . S
C1025 C1027 1.387 . S
H1026 C1033 0.950 . S
C1027 C1025 1.387 . S
C1027 C1029 1.390 . S
C1027 H1031 0.950 . S
H1028 C1024 0.950 . S
C1029 C1027 1.390 . S
C1029 C1030 1.387 . S
C1029 H1032 0.950 . S
C1030 C1029 1.387 . S
C1030 C1033 1.387 . S
H1031 C1027 0.950 . S
H1032 C1029 0.950 . S
C1033 C1024 1.390 . S
C1033 H1026 0.950 . S
C1033 C1030 1.387 . S
C1034 C1035 1.387 . S
C1034 H1038 0.950 . S
C1034 C1043 1.390 . S
C1035 C1034 1.387 . S
C1035 C1037 1.387 . S
H1036 C1043 0.950 . S
C1037 C1035 1.387 . S
C1037 C1039 1.390 . S
C1037 H1041 0.950 . S
H1038 C1034 0.950 . S
C1039 C1037 1.390 . S
C1039 C1040 1.387 . S
C1039 H1042 0.950 . S
C1040 C1039 1.387 . S
C1040 C1043 1.387 . S
H1041 C1037 0.950 . S
H1042 C1039 0.950 . S
C1043 C1034 1.390 . S
C1043 H1036 0.950 . S
C1043 C1040 1.387 . S
C1044 C1045 1.387 . S
C1044 H1048 0.950 . S
C1044 C1053 1.390 . S
C1045 C1044 1.387 . S
C1045 C1047 1.387 . S
H1046 C1053 0.950 . S
C1047 C1045 1.387 . S
C1047 C1049 1.390 . S
C1047 H1051 0.950 . S
H1048 C1044 0.950 . S
C1049 C1047 1.390 . S
C1049 C1050 1.387 . S
C1049 H1052 0.950 . S
C1050 C1049 1.387 . S
C1050 C1053 1.387 . S
H1051 C1047 0.950 . S
H1052 C1049 0.950 . S
C1053 C1044 1.390 . S
C1053 H1046 0.950 . S
C1053 C1050 1.387 . S
C1054 C1055 1.387 . S
C1054 H1058 0.950 . S
C1054 C1063 1.390 . S
C1055 C1054 1.387 . S
C1055 C1057 1.387 . S
H1056 C1063 0.950 . S
C1057 C1055 1.387 . S
C1057 C1059 1.390 . S
C1057 H1061 0.950 . S
H1058 C1054 0.950 . S
C1059 C1057 1.390 . S
C1059 C1060 1.387 . S
C1059 H1062 0.950 . S
C1060 C1059 1.387 . S
C1060 C1063 1.387 . S
H1061 C1057 0.950 . S
H1062 C1059 0.950 . S
C1063 C1054 1.390 . S
C1063 H1056 0.950 . S
C1063 C1060 1.387 . S
C1064 C1065 1.387 . S
C1064 H1068 0.950 . S
C1064 C1073 1.390 . S
C1065 C1064 1.387 . S
C1065 C1067 1.387 . S
H1066 C1073 0.950 . S
C1067 C1065 1.387 . S
C1067 C1069 1.390 . S
C1067 H1071 0.950 . S
H1068 C1064 0.950 . S
C1069 C1067 1.390 . S
C1069 C1070 1.387 . S
C1069 H1072 0.950 . S
C1070 C1069 1.387 . S
C1070 C1073 1.387 . S
H1071 C1067 0.950 . S
H1072 C1069 0.950 . S
C1073 C1064 1.390 . S
C1073 H1066 0.950 . S
C1073 C1070 1.387 . S
C1074 C1075 1.387 . S
C1074 H1078 0.950 . S
C1074 C1083 1.390 . S
C1075 C1074 1.387 . S
C1075 C1077 1.387 . S
H1076 C1083 0.950 . S
C1077 C1075 1.387 . S
C1077 C1079 1.390 . S
C1077 H1081 0.950 . S
H1078 C1074 0.950 . S
C1079 C1077 1.390 . S
C1079 C1080 1.387 . S
C1079 H1082 0.950 . S
C1080 C1079 1.387 . S
C1080 C1083 1.387 . S
H1081 C1077 0.950 . S
H1082 C1079 0.950 . S
C1083 C1074 1.390 . S
C1083 H1076 0.950 . S
C1083 C1080 1.387 . S
C1084 C1085 1.387 . S
C1084 H1088 0.950 . S
C1084 C1093 1.390 . S
C1085 C1084 1.387 . S
C1085 C1087 1.387 . S
H1086 C1093 0.950 . S
C1087 C1085 1.387 . S
C1087 C1089 1.390 . S
C1087 H1091 0.950 . S
H1088 C1084 0.950 . S
C1089 C1087 1.390 . S
C1089 C1090 1.387 . S
C1089 H1092 0.950 . S
C1090 C1089 1.387 . S
C1090 C1093 1.387 . S
H1091 C1087 0.950 . S
H1092 C1089 0.950 . S
C1093 C1084 1.390 . S
C1093 H1086 0.950 . S
C1093 C1090 1.387 . S
C1094 C1095 1.387 . S
C1094 H1098 0.950 . S
C1094 C1103 1.390 . S
C1095 C1094 1.387 . S
C1095 C1097 1.387 . S
H1096 C1103 0.950 . S
C1097 C1095 1.387 . S
C1097 C1099 1.390 . S
C1097 H1101 0.950 . S
H1098 C1094 0.950 . S
C1099 C1097 1.390 . S
C1099 C1100 1.387 . S
C1099 H1102 0.950 . S
C1100 C1099 1.387 . S
C1100 C1103 1.387 . S
H1101 C1097 0.950 . S
H1102 C1099 0.950 . S
C1103 C1094 1.390 . S
C1103 H1096 0.950 . S
C1103 C1100 1.387 . S
C1104 C1105 1.387 . S
C1104 H1108 0.950 . S
C1104 C1113 1.390 1_554 S
C1105 C1104 1.387 . S
C1105 C1107 1.387 . S
H1106 C1113 0.950 . S
C1107 C1105 1.387 . S
C1107 C1109 1.390 1_554 S
C1107 H1111 0.950 . S
H1108 C1104 0.950 . S
C1109 C1107 1.390 1_556 S
C1109 C1110 1.387 . S
C1109 H1112 0.950 . S
C1110 C1109 1.387 . S
C1110 C1113 1.387 . S
H1111 C1107 0.950 . S
H1112 C1109 0.950 . S
C1113 C1104 1.390 1_556 S
C1113 H1106 0.950 . S
C1113 C1110 1.387 . S
C1114 C1115 1.387 . S
C1114 H1118 0.950 . S
C1114 C1123 1.390 1_556 S
C1115 C1114 1.387 . S
C1115 C1117 1.387 . S
H1116 C1123 0.950 . S
C1117 C1115 1.387 . S
C1117 C1119 1.390 1_556 S
C1117 H1121 0.950 . S
H1118 C1114 0.950 . S
C1119 C1117 1.390 1_554 S
C1119 C1120 1.387 . S
C1119 H1122 0.950 . S
C1120 C1119 1.387 . S
C1120 C1123 1.387 . S
H1121 C1117 0.950 . S
H1122 C1119 0.950 . S
C1123 C1114 1.390 1_554 S
C1123 H1116 0.950 . S
C1123 C1120 1.387 . S
C1124 C1125 1.387 . S
C1124 H1128 0.950 . S
C1124 C1133 1.390 1_556 S
C1125 C1124 1.387 . S
C1125 C1127 1.387 . S
H1126 C1133 0.950 . S
C1127 C1125 1.387 . S
C1127 C1129 1.390 1_556 S
C1127 H1131 0.950 . S
H1128 C1124 0.950 . S
C1129 C1127 1.390 1_554 S
C1129 C1130 1.387 . S
C1129 H1132 0.950 . S
C1130 C1129 1.387 . S
C1130 C1133 1.387 . S
H1131 C1127 0.950 . S
H1132 C1129 0.950 . S
C1133 C1124 1.390 1_554 S
C1133 H1126 0.950 . S
C1133 C1130 1.387 . S
C1134 C1135 1.387 . S
C1134 H1138 0.950 . S
C1134 C1143 1.390 1_554 S
C1135 C1134 1.387 . S
C1135 C1137 1.387 . S
H1136 C1143 0.950 . S
C1137 C1135 1.387 . S
C1137 C1139 1.390 1_554 S
C1137 H1141 0.950 . S
H1138 C1134 0.950 . S
C1139 C1137 1.390 1_556 S
C1139 C1140 1.387 . S
C1139 H1142 0.950 . S
C1140 C1139 1.387 . S
C1140 C1143 1.387 . S
H1141 C1137 0.950 . S
H1142 C1139 0.950 . S
C1143 C1134 1.390 1_556 S
C1143 H1136 0.950 . S
C1143 C1140 1.387 . S
C1144 C1145 1.387 . S
C1144 H1148 0.950 . S
C1144 C1153 1.390 1_554 S
C1145 C1144 1.387 . S
C1145 C1147 1.387 . S
H1146 C1153 0.950 . S
C1147 C1145 1.387 . S
C1147 C1149 1.390 1_554 S
C1147 H1151 0.950 . S
H1148 C1144 0.950 . S
C1149 C1147 1.390 1_556 S
C1149 C1150 1.387 . S
C1149 H1152 0.950 . S
C1150 C1149 1.387 . S
C1150 C1153 1.387 . S
H1151 C1147 0.950 . S
H1152 C1149 0.950 . S
C1153 C1144 1.390 1_556 S
C1153 H1146 0.950 . S
C1153 C1150 1.387 . S
C1154 C1155 1.387 . S
C1154 H1158 0.950 . S
C1154 C1163 1.390 1_556 S
C1155 C1154 1.387 . S
C1155 C1157 1.387 . S
H1156 C1163 0.950 . S
C1157 C1155 1.387 . S
C1157 C1159 1.390 1_556 S
C1157 H1161 0.950 . S
H1158 C1154 0.950 . S
C1159 C1157 1.390 1_554 S
C1159 C1160 1.387 . S
C1159 H1162 0.950 . S
C1160 C1159 1.387 . S
C1160 C1163 1.387 . S
H1161 C1157 0.950 . S
H1162 C1159 0.950 . S
C1163 C1154 1.390 1_554 S
C1163 H1156 0.950 . S
C1163 C1160 1.387 . S
C1164 C1165 1.387 . S
C1164 H1168 0.950 . S
C1164 C1173 1.390 . S
C1165 C1164 1.387 . S
C1165 C1167 1.387 . S
H1166 C1173 0.950 . S
C1167 C1165 1.387 . S
C1167 C1169 1.390 . S
C1167 H1171 0.950 . S
H1168 C1164 0.950 . S
C1169 C1167 1.390 . S
C1169 C1170 1.387 . S
C1169 H1172 0.950 . S
C1170 C1169 1.387 . S
C1170 C1173 1.387 . S
H1171 C1167 0.950 . S
H1172 C1169 0.950 . S
C1173 C1164 1.390 . S
C1173 H1166 0.950 . S
C1173 C1170 1.387 . S
C1174 C1175 1.387 . S
C1174 H1178 0.950 . S
C1174 C1183 1.390 . S
C1175 C1174 1.387 . S
C1175 C1177 1.387 . S
H1176 C1183 0.950 . S
C1177 C1175 1.387 . S
C1177 C1179 1.390 . S
C1177 H1181 0.950 . S
H1178 C1174 0.950 . S
C1179 C1177 1.390 . S
C1179 C1180 1.387 . S
C1179 H1182 0.950 . S
C1180 C1179 1.387 . S
C1180 C1183 1.387 . S
H1181 C1177 0.950 . S
H1182 C1179 0.950 . S
C1183 C1174 1.390 . S
C1183 H1176 0.950 . S
C1183 C1180 1.387 . S
C1184 C1185 1.387 . S
C1184 H1188 0.950 . S
C1184 C1193 1.390 . S
C1185 C1184 1.387 . S
C1185 C1187 1.387 . S
H1186 C1193 0.950 . S
C1187 C1185 1.387 . S
C1187 C1189 1.390 . S
C1187 H1191 0.950 . S
H1188 C1184 0.950 . S
C1189 C1187 1.390 . S
C1189 C1190 1.387 . S
C1189 H1192 0.950 . S
C1190 C1189 1.387 . S
C1190 C1193 1.387 . S
H1191 C1187 0.950 . S
H1192 C1189 0.950 . S
C1193 C1184 1.390 . S
C1193 H1186 0.950 . S
C1193 C1190 1.387 . S
C1194 C1195 1.387 . S
C1194 H1198 0.950 . S
C1194 C1203 1.390 . S
C1195 C1194 1.387 . S
C1195 C1197 1.387 . S
H1196 C1203 0.950 . S
C1197 C1195 1.387 . S
C1197 C1199 1.390 . S
C1197 H1201 0.950 . S
H1198 C1194 0.950 . S
C1199 C1197 1.390 . S
C1199 C1200 1.387 . S
C1199 H1202 0.950 . S
C1200 C1199 1.387 . S
C1200 C1203 1.387 . S
H1201 C1197 0.950 . S
H1202 C1199 0.950 . S
C1203 C1194 1.390 . S
C1203 H1196 0.950 . S
C1203 C1200 1.387 . S
C1204 C1205 1.387 . S
C1204 H1208 0.950 . S
C1204 C1213 1.390 . S
C1205 C1204 1.387 . S
C1205 C1207 1.387 . S
H1206 C1213 0.950 . S
C1207 C1205 1.387 . S
C1207 C1209 1.390 . S
C1207 H1211 0.950 . S
H1208 C1204 0.950 . S
C1209 C1207 1.390 . S
C1209 C1210 1.387 . S
C1209 H1212 0.950 . S
C1210 C1209 1.387 . S
C1210 C1213 1.387 . S
H1211 C1207 0.950 . S
H1212 C1209 0.950 . S
C1213 C1204 1.390 . S
C1213 H1206 0.950 . S
C1213 C1210 1.387 . S
C1214 C1215 1.387 . S
C1214 H1218 0.950 . S
C1214 C1223 1.390 . S
C1215 C1214 1.387 . S
C1215 C1217 1.387 . S
H1216 C1223 0.950 . S
C1217 C1215 1.387 . S
C1217 C1219 1.390 . S
C1217 H1221 0.950 . S
H1218 C1214 0.950 . S
C1219 C1217 1.390 . S
C1219 C1220 1.387 . S
C1219 H1222 0.950 . S
C1220 C1219 1.387 . S
C1220 C1223 1.387 . S
H1221 C1217 0.950 . S
H1222 C1219 0.950 . S
C1223 C1214 1.390 . S
C1223 H1216 0.950 . S
C1223 C1220 1.387 . S
C1224 C1225 1.387 . S
C1224 H1228 0.950 . S
C1224 C1233 1.390 . S
C1225 C1224 1.387 . S
C1225 C1227 1.387 . S
H1226 C1233 0.950 . S
C1227 C1225 1.387 . S
C1227 C1229 1.390 . S
C1227 H1231 0.950 . S
H1228 C1224 0.950 . S
C1229 C1227 1.390 . S
C1229 C1230 1.387 . S
C1229 H1232 0.950 . S
C1230 C1229 1.387 . S
C1230 C1233 1.387 . S
H1231 C1227 0.950 . S
H1232 C1229 0.950 . S
C1233 C1224 1.390 . S
C1233 H1226 0.950 . S
C1233 C1230 1.387 . S
C1234 C1235 1.387 . S
C1234 H1238 0.950 . S
C1234 C1243 1.390 . S
C1235 C1234 1.387 . S
C1235 C1237 1.387 . S
H1236 C1243 0.950 . S
C1237 C1235 1.387 . S
C1237 C1239 1.390 . S
C1237 H1241 0.950 . S
H1238 C1234 0.950 . S
C1239 C1237 1.390 . S
C1239 C1240 1.387 . S
C1239 H1242 0.950 . S
C1240 C1239 1.387 . S
C1240 C1243 1.387 . S
H1241 C1237 0.950 . S
H1242 C1239 0.950 . S
C1243 C1234 1.390 . S
C1243 H1236 0.950 . S
C1243 C1240 1.387 . S
C1244 C1245 1.387 . S
C1244 H1248 0.950 . S
C1244 C1253 1.390 . S
C1245 C1244 1.387 . S
C1245 C1247 1.387 . S
H1246 C1253 0.950 . S
C1247 C1245 1.387 . S
C1247 C1249 1.390 . S
C1247 H1251 0.950 . S
H1248 C1244 0.950 . S
C1249 C1247 1.390 . S
C1249 C1250 1.387 . S
C1249 H1252 0.950 . S
C1250 C1249 1.387 . S
C1250 C1253 1.387 . S
H1251 C1247 0.950 . S
H1252 C1249 0.950 . S
C1253 C1244 1.390 . S
C1253 H1246 0.950 . S
C1253 C1250 1.387 . S
C1254 C1255 1.387 . S
C1254 H1258 0.950 . S
C1254 C1263 1.390 . S
C1255 C1254 1.387 . S
C1255 C1257 1.387 . S
H1256 C1263 0.950 . S
C1257 C1255 1.387 . S
C1257 C1259 1.390 . S
C1257 H1261 0.950 . S
H1258 C1254 0.950 . S
C1259 C1257 1.390 . S
C1259 C1260 1.387 . S
C1259 H1262 0.950 . S
C1260 C1259 1.387 . S
C1260 C1263 1.387 . S
H1261 C1257 0.950 . S
H1262 C1259 0.950 . S
C1263 C1254 1.390 . S
C1263 H1256 0.950 . S
C1263 C1260 1.387 . S
C1264 C1265 1.387 . S
C1264 H1268 0.950 . S
C1264 C1273 1.390 . S
C1265 C1264 1.387 . S
C1265 C1267 1.387 . S
H1266 C1273 0.950 . S
C1267 C1265 1.387 . S
C1267 C1269 1.390 . S
C1267 H1271 0.950 . S
H1268 C1264 0.950 . S
C1269 C1267 1.390 . S
C1269 C1270 1.387 . S
C1269 H1272 0.950 . S
C1270 C1269 1.387 . S
C1270 C1273 1.387 . S
H1271 C1267 0.950 . S
H1272 C1269 0.950 . S
C1273 C1264 1.390 . S
C1273 H1266 0.950 . S
C1273 C1270 1.387 . S
C1274 C1275 1.387 . S
C1274 H1278 0.950 . S
C1274 C1283 1.390 . S
C1275 C1274 1.387 . S
C1275 C1277 1.387 . S
H1276 C1283 0.950 . S
C1277 C1275 1.387 . S
C1277 C1279 1.390 . S
C1277 H1281 0.950 . S
H1278 C1274 0.950 . S
C1279 C1277 1.390 . S
C1279 C1280 1.387 . S
C1279 H1282 0.950 . S
C1280 C1279 1.387 . S
C1280 C1283 1.387 . S
H1281 C1277 0.950 . S
H1282 C1279 0.950 . S
C1283 C1274 1.390 . S
C1283 H1276 0.950 . S
C1283 C1280 1.387 . S
C1284 C1285 1.387 . S
C1284 H1288 0.950 . S
C1284 C1293 1.390 . S
C1285 C1284 1.387 . S
C1285 C1287 1.387 . S
H1286 C1293 0.950 . S
C1287 C1285 1.387 . S
C1287 C1289 1.390 . S
C1287 H1291 0.950 . S
H1288 C1284 0.950 . S
C1289 C1287 1.390 . S
C1289 C1290 1.387 . S
C1289 H1292 0.950 . S
C1290 C1289 1.387 . S
C1290 C1293 1.387 . S
H1291 C1287 0.950 . S
H1292 C1289 0.950 . S
C1293 C1284 1.390 . S
C1293 H1286 0.950 . S
C1293 C1290 1.387 . S
C1294 C1295 1.387 . S
C1294 H1298 0.950 . S
C1294 C1303 1.390 . S
C1295 C1294 1.387 . S
C1295 C1297 1.387 . S
H1296 C1303 0.950 . S
C1297 C1295 1.387 . S
C1297 C1299 1.390 . S
C1297 H1301 0.950 . S
H1298 C1294 0.950 . S
C1299 C1297 1.390 . S
C1299 C1300 1.387 . S
C1299 H1302 0.950 . S
C1300 C1299 1.387 . S
C1300 C1303 1.387 . S
H1301 C1297 0.950 . S
H1302 C1299 0.950 . S
C1303 C1294 1.390 . S
C1303 H1296 0.950 . S
C1303 C1300 1.387 . S
C1304 C1305 1.387 . S
C1304 H1308 0.950 . S
C1304 C1313 1.390 . S
C1305 C1304 1.387 . S
C1305 C1307 1.387 . S
H1306 C1313 0.950 . S
C1307 C1305 1.387 . S
C1307 C1309 1.390 . S
C1307 H1311 0.950 . S
H1308 C1304 0.950 . S
C1309 C1307 1.390 . S
C1309 C1310 1.387 . S
C1309 H1312 0.950 . S
C1310 C1309 1.387 . S
C1310 C1313 1.387 . S
H1311 C1307 0.950 . S
H1312 C1309 0.950 . S
C1313 C1304 1.390 . S
C1313 H1306 0.950 . S
C1313 C1310 1.387 . S
C1314 C1315 1.387 . S
C1314 H1318 0.950 . S
C1314 C1323 1.390 . S
C1315 C1314 1.387 . S
C1315 C1317 1.387 . S
H1316 C1323 0.950 . S
C1317 C1315 1.387 . S
C1317 C1319 1.390 . S
C1317 H1321 0.950 . S
H1318 C1314 0.950 . S
C1319 C1317 1.390 . S
C1319 C1320 1.387 . S
C1319 H1322 0.950 . S
C1320 C1319 1.387 . S
C1320 C1323 1.387 . S
H1321 C1317 0.950 . S
H1322 C1319 0.950 . S
C1323 C1314 1.390 . S
C1323 H1316 0.950 . S
C1323 C1320 1.387 . S
C1324 C1325 1.387 . S
C1324 H1328 0.950 . S
C1324 C1333 1.390 . S
C1325 C1324 1.387 . S
C1325 C1327 1.387 . S
H1326 C1333 0.950 . S
C1327 C1325 1.387 . S
C1327 C1329 1.390 . S
C1327 H1331 0.950 . S
H1328 C1324 0.950 . S
C1329 C1327 1.390 . S
C1329 C1330 1.387 . S
C1329 H1332 0.950 . S
C1330 C1329 1.387 . S
C1330 C1333 1.387 . S
H1331 C1327 0.950 . S
H1332 C1329 0.950 . S
C1333 C1324 1.390 . S
C1333 H1326 0.950 . S
C1333 C1330 1.387 . S
C1334 C1335 1.387 . S
C1334 H1338 0.950 . S
C1334 C1343 1.390 . S
C1335 C1334 1.387 . S
C1335 C1337 1.387 . S
H1336 C1343 0.950 . S
C1337 C1335 1.387 . S
C1337 C1339 1.390 . S
C1337 H1341 0.950 . S
H1338 C1334 0.950 . S
C1339 C1337 1.390 . S
C1339 C1340 1.387 . S
C1339 H1342 0.950 . S
C1340 C1339 1.387 . S
C1340 C1343 1.387 . S
H1341 C1337 0.950 . S
H1342 C1339 0.950 . S
C1343 C1334 1.390 . S
C1343 H1336 0.950 . S
C1343 C1340 1.387 . S
C865 C3 1.516 . S
C870 C255 1.516 . S
C875 C291 1.517 . S
C880 C39 1.516 . S
C885 C75 1.517 . S
C890 C327 1.517 . S
C895 C111 1.516 . S
C900 C363 1.516 . S
C905 C399 1.516 . S
C910 C147 1.517 . S
C915 C183 1.516 . S
C920 C219 1.517 . S
C925 C435 1.516 . S
C930 C687 1.516 . S
C935 C471 1.516 . S
C940 C723 1.517 . S
C945 C759 1.516 . S
C950 C507 1.517 . S
C955 C543 1.516 . S
C960 C795 1.516 . S
C965 C579 1.516 . S
C970 C831 1.517 . S
C975 C651 1.516 . S
C980 C615 1.516 . S
C985 C4 1.387 . S
C990 C292 1.386 . S
C995 C328 1.387 . S
C1000 C40 1.387 . S
C1005 C364 1.387 . S
C1010 C76 1.386 . S
C1015 C112 1.386 . S
C1020 C400 1.387 . S
C1025 C148 1.387 . S
C1030 C220 1.387 . S
C1035 C184 1.386 . S
C1040 C256 1.387 . S
C1045 C724 1.387 . S
C1050 C436 1.386 . S
C1055 C472 1.387 . S
C1060 C760 1.387 . S
C1065 C796 1.386 . S
C1070 C508 1.387 . S
C1075 C832 1.386 . S
C1080 C544 1.387 . S
C1085 C652 1.387 . S
C1090 C580 1.387 . S
C1095 C616 1.387 . S
C1100 C688 1.386 . S
C1105 C14 1.490 . S
C1110 C554 1.488 . S
C1115 C590 1.489 . S
C1120 C50 1.488 . S
C1125 C626 1.490 . S
C1130 C86 1.487 . S
C1135 C122 1.490 . S
C1140 C446 1.488 . S
C1145 C158 1.489 . S
C1150 C482 1.489 . S
C1155 C518 1.490 . S
C1160 C194 1.487 . S
C1165 C770 1.490 . S
C1170 C230 1.487 . S
C1175 C806 1.490 . S
C1180 C266 1.487 . S
C1185 C842 1.490 . S
C1190 C302 1.487 . S
C1195 C662 1.490 . S
C1200 C338 1.488 . S
C1205 C374 1.488 . S
C1210 C698 1.489 . S
C1215 C410 1.490 . S
C1220 C734 1.487 . S
C1225 C2 1.460 . S
C1230 C362 1.460 . S
C1235 C398 1.460 . S
C1240 C38 1.459 . S
C1245 C218 1.460 . S
C1250 C74 1.459 . S
C1255 C110 1.460 . S
C1260 C254 1.460 . S
C1265 C146 1.460 . S
C1270 C290 1.459 . S
C1275 C182 1.459 . S
C1280 C326 1.460 . S
C1285 C434 1.460 . S
C1290 C794 1.460 . S
C1295 C470 1.459 . S
C1300 C830 1.460 . S
C1305 C506 1.460 . S
C1310 C650 1.459 . S
C1315 C686 1.460 . S
C1320 C542 1.460 . S
C1325 C578 1.459 . S
C1330 C722 1.460 . S
C1335 C614 1.460 . S
C1340 C758 1.459 . S
