# Generated by pormake.
# Topology utn, (3)-cn, num edge types: 1
# Building blocks:
#     Node 0, Type 0, BuildingBlock: OLANEW_clean_sbu_2, # of connection points: 3
#     Node 1, Type 0, BuildingBlock: OLANEW_clean_sbu_2, # of connection points: 3
#     Node 2, Type 0, BuildingBlock: OLANEW_clean_sbu_2, # of connection points: 3
#     Node 3, Type 0, BuildingBlock: OLANEW_clean_sbu_2, # of connection points: 3
#     Node 4, Type 0, BuildingBlock: OLANEW_clean_sbu_2, # of connection points: 3
#     Node 5, Type 0, BuildingBlock: OLANEW_clean_sbu_2, # of connection points: 3
#     Node 6, Type 0, BuildingBlock: OLANEW_clean_sbu_2, # of connection points: 3
#     Node 7, Type 0, BuildingBlock: OLANEW_clean_sbu_2, # of connection points: 3
#     Node 8, Type 0, BuildingBlock: OLANEW_clean_sbu_2, # of connection points: 3
#     Node 9, Type 0, BuildingBlock: OLANEW_clean_sbu_2, # of connection points: 3
#     Node 10, Type 0, BuildingBlock: OLANEW_clean_sbu_2, # of connection points: 3
#     Node 11, Type 0, BuildingBlock: OLANEW_clean_sbu_2, # of connection points: 3
#     Node 12, Type 0, BuildingBlock: OLANEW_clean_sbu_2, # of connection points: 3
#     Node 13, Type 0, BuildingBlock: OLANEW_clean_sbu_2, # of connection points: 3
#     Node 14, Type 0, BuildingBlock: OLANEW_clean_sbu_2, # of connection points: 3
#     Node 15, Type 0, BuildingBlock: OLANEW_clean_sbu_2, # of connection points: 3
#     Node 16, Type 0, BuildingBlock: OLANEW_clean_sbu_2, # of connection points: 3
#     Node 17, Type 0, BuildingBlock: OLANEW_clean_sbu_2, # of connection points: 3
#     Node 18, Type 0, BuildingBlock: OLANEW_clean_sbu_2, # of connection points: 3
#     Node 19, Type 0, BuildingBlock: OLANEW_clean_sbu_2, # of connection points: 3
#     Node 20, Type 0, BuildingBlock: OLANEW_clean_sbu_2, # of connection points: 3
#     Node 21, Type 0, BuildingBlock: OLANEW_clean_sbu_2, # of connection points: 3
#     Node 22, Type 0, BuildingBlock: OLANEW_clean_sbu_2, # of connection points: 3
#     Node 23, Type 0, BuildingBlock: OLANEW_clean_sbu_2, # of connection points: 3
#     Node 24, Type 0, BuildingBlock: OLANEW_clean_sbu_2, # of connection points: 3
#     Node 25, Type 0, BuildingBlock: OLANEW_clean_sbu_2, # of connection points: 3
#     Node 26, Type 0, BuildingBlock: OLANEW_clean_sbu_2, # of connection points: 3
#     Node 27, Type 0, BuildingBlock: OLANEW_clean_sbu_2, # of connection points: 3
#     Node 28, Type 0, BuildingBlock: OLANEW_clean_sbu_2, # of connection points: 3
#     Node 29, Type 0, BuildingBlock: OLANEW_clean_sbu_2, # of connection points: 3
#     Node 30, Type 0, BuildingBlock: OLANEW_clean_sbu_2, # of connection points: 3
#     Node 31, Type 0, BuildingBlock: OLANEW_clean_sbu_2, # of connection points: 3
#     Edge 32, Type (0, 0), BuildingBlock: OJICUG_clean_linker_0, # of connection points: 2
#     Edge 33, Type (0, 0), BuildingBlock: OJICUG_clean_linker_0, # of connection points: 2
#     Edge 34, Type (0, 0), BuildingBlock: OJICUG_clean_linker_0, # of connection points: 2
#     Edge 35, Type (0, 0), BuildingBlock: OJICUG_clean_linker_0, # of connection points: 2
#     Edge 36, Type (0, 0), BuildingBlock: OJICUG_clean_linker_0, # of connection points: 2
#     Edge 37, Type (0, 0), BuildingBlock: OJICUG_clean_linker_0, # of connection points: 2
#     Edge 38, Type (0, 0), BuildingBlock: OJICUG_clean_linker_0, # of connection points: 2
#     Edge 39, Type (0, 0), BuildingBlock: OJICUG_clean_linker_0, # of connection points: 2
#     Edge 40, Type (0, 0), BuildingBlock: OJICUG_clean_linker_0, # of connection points: 2
#     Edge 41, Type (0, 0), BuildingBlock: OJICUG_clean_linker_0, # of connection points: 2
#     Edge 42, Type (0, 0), BuildingBlock: OJICUG_clean_linker_0, # of connection points: 2
#     Edge 43, Type (0, 0), BuildingBlock: OJICUG_clean_linker_0, # of connection points: 2
#     Edge 44, Type (0, 0), BuildingBlock: OJICUG_clean_linker_0, # of connection points: 2
#     Edge 45, Type (0, 0), BuildingBlock: OJICUG_clean_linker_0, # of connection points: 2
#     Edge 46, Type (0, 0), BuildingBlock: OJICUG_clean_linker_0, # of connection points: 2
#     Edge 47, Type (0, 0), BuildingBlock: OJICUG_clean_linker_0, # of connection points: 2
#     Edge 48, Type (0, 0), BuildingBlock: OJICUG_clean_linker_0, # of connection points: 2
#     Edge 49, Type (0, 0), BuildingBlock: OJICUG_clean_linker_0, # of connection points: 2
#     Edge 50, Type (0, 0), BuildingBlock: OJICUG_clean_linker_0, # of connection points: 2
#     Edge 51, Type (0, 0), BuildingBlock: OJICUG_clean_linker_0, # of connection points: 2
#     Edge 52, Type (0, 0), BuildingBlock: OJICUG_clean_linker_0, # of connection points: 2
#     Edge 53, Type (0, 0), BuildingBlock: OJICUG_clean_linker_0, # of connection points: 2
#     Edge 54, Type (0, 0), BuildingBlock: OJICUG_clean_linker_0, # of connection points: 2
#     Edge 55, Type (0, 0), BuildingBlock: OJICUG_clean_linker_0, # of connection points: 2
#     Edge 56, Type (0, 0), BuildingBlock: OJICUG_clean_linker_0, # of connection points: 2
#     Edge 57, Type (0, 0), BuildingBlock: OJICUG_clean_linker_0, # of connection points: 2
#     Edge 58, Type (0, 0), BuildingBlock: OJICUG_clean_linker_0, # of connection points: 2
#     Edge 59, Type (0, 0), BuildingBlock: OJICUG_clean_linker_0, # of connection points: 2
#     Edge 60, Type (0, 0), BuildingBlock: OJICUG_clean_linker_0, # of connection points: 2
#     Edge 61, Type (0, 0), BuildingBlock: OJICUG_clean_linker_0, # of connection points: 2
#     Edge 62, Type (0, 0), BuildingBlock: OJICUG_clean_linker_0, # of connection points: 2
#     Edge 63, Type (0, 0), BuildingBlock: OJICUG_clean_linker_0, # of connection points: 2
#     Edge 64, Type (0, 0), BuildingBlock: OJICUG_clean_linker_0, # of connection points: 2
#     Edge 65, Type (0, 0), BuildingBlock: OJICUG_clean_linker_0, # of connection points: 2
#     Edge 66, Type (0, 0), BuildingBlock: OJICUG_clean_linker_0, # of connection points: 2
#     Edge 67, Type (0, 0), BuildingBlock: OJICUG_clean_linker_0, # of connection points: 2
#     Edge 68, Type (0, 0), BuildingBlock: OJICUG_clean_linker_0, # of connection points: 2
#     Edge 69, Type (0, 0), BuildingBlock: OJICUG_clean_linker_0, # of connection points: 2
#     Edge 70, Type (0, 0), BuildingBlock: OJICUG_clean_linker_0, # of connection points: 2
#     Edge 71, Type (0, 0), BuildingBlock: OJICUG_clean_linker_0, # of connection points: 2
#     Edge 72, Type (0, 0), BuildingBlock: OJICUG_clean_linker_0, # of connection points: 2
#     Edge 73, Type (0, 0), BuildingBlock: OJICUG_clean_linker_0, # of connection points: 2
#     Edge 74, Type (0, 0), BuildingBlock: OJICUG_clean_linker_0, # of connection points: 2
#     Edge 75, Type (0, 0), BuildingBlock: OJICUG_clean_linker_0, # of connection points: 2
#     Edge 76, Type (0, 0), BuildingBlock: OJICUG_clean_linker_0, # of connection points: 2
#     Edge 77, Type (0, 0), BuildingBlock: OJICUG_clean_linker_0, # of connection points: 2
#     Edge 78, Type (0, 0), BuildingBlock: OJICUG_clean_linker_0, # of connection points: 2
#     Edge 79, Type (0, 0), BuildingBlock: OJICUG_clean_linker_0, # of connection points: 2
# Relax obj value: 0.007
# Max RMSD: 0.023
# Mean RMSD: 0.023
data_MOF--net-utn--node1-OLANEW_clean_sbu_2--edge1-OJICUG_clean_linker_0
_symmetry_space_group_name_H-M    P1
_symmetry_Int_Tables_number       1
_symmetry_cell_setting            triclinic
loop_
_symmetry_equiv_pos_as_xyz
'x, y, z'
_cell_length_a     63.063082
_cell_length_b     63.06423
_cell_length_c     20.645307
_cell_angle_alpha  90.015797
_cell_angle_beta   90.011962
_cell_angle_gamma 89.999986
loop_
_atom_site_label
_atom_site_type_symbol
_atom_site_fract_x
_atom_site_fract_y
_atom_site_fract_z
_atom_type_partial_charge
O0 O 0.24182 0.11136 0.34252 0.0
Cd1 Cd 0.23858 0.11041 0.22478 0.0
O2 O 0.24031 0.14604 0.33973 0.0
Cd3 Cd 0.24174 0.17846 0.37789 0.0
O4 O 0.24038 0.21267 0.39366 0.0
C5 C 0.256 0.22321 0.41558 0.0
O6 O 0.27344 0.21315 0.43196 0.0
C7 C 0.24178 0.12899 0.37236 0.0
C8 C 0.21393 0.07621 0.1842 0.0
O9 O 0.23406 0.0744 0.1906 0.0
O10 O 0.20548 0.09422 0.1969 0.0
O11 O 0.1392 0.01068 0.59419 0.0
Cd12 Cd 0.14165 0.01554 0.47719 0.0
O13 O 0.10692 0.99866 0.58208 0.0
Cd14 Cd 0.07625 0.9844 0.60657 0.0
O15 O 0.04288 0.97533 0.61127 0.0
C16 C 0.02925 0.98694 0.63963 0.0
O17 O 0.03561 0.00423 0.66938 0.0
C18 C 0.12242 0.0031 0.6192 0.0
C19 C 0.16892 0.98522 0.42511 0.0
O20 O 0.17584 0.00345 0.4427 0.0
O21 O 0.14905 0.98148 0.4313 0.0
O22 O 0.24638 0.88757 0.82901 0.0
Cd23 Cd 0.2456 0.88908 0.71101 0.0
O24 O 0.24584 0.85283 0.82616 0.0
Cd25 Cd 0.24404 0.82089 0.86766 0.0
O26 O 0.24342 0.78692 0.88822 0.0
C27 C 0.26004 0.77731 0.90692 0.0
O28 O 0.27746 0.7883 0.91674 0.0
C29 C 0.24664 0.86993 0.85873 0.0
C30 C 0.27413 0.91957 0.66691 0.0
O31 O 0.25473 0.92435 0.67827 0.0
O32 O 0.27995 0.90031 0.67573 0.0
O33 O 0.36517 0.98159 0.08373 0.0
Cd34 Cd 0.36284 0.97886 0.96605 0.0
O35 O 0.39615 0.99689 0.07408 0.0
Cd36 Cd 0.42504 0.01358 0.10376 0.0
O37 O 0.45739 0.02505 0.11719 0.0
C38 C 0.47106 0.0142 0.14802 0.0
O39 O 0.46525 0.99621 0.17477 0.0
C40 C 0.3812 0.9902 0.11014 0.0
C41 C 0.33611 0.0105 0.91889 0.0
O42 O 0.32885 0.99218 0.93411 0.0
O43 O 0.35607 0.01373 0.92509 0.0
O44 O 0.25292 0.88794 0.16716 0.0
Cd45 Cd 0.2537 0.88932 0.28522 0.0
O46 O 0.25103 0.85324 0.17039 0.0
Cd47 Cd 0.24638 0.82167 0.12834 0.0
O48 O 0.24099 0.78815 0.10755 0.0
C49 C 0.25553 0.77628 0.08504 0.0
O50 O 0.27408 0.78461 0.07125 0.0
C51 C 0.25167 0.87031 0.13765 0.0
C52 C 0.2262 0.92057 0.33069 0.0
O53 O 0.24574 0.92476 0.31928 0.0
O54 O 0.21974 0.90155 0.32107 0.0
O55 O 0.36455 0.00976 0.41445 0.0
Cd56 Cd 0.36237 0.01298 0.53198 0.0
O57 O 0.39685 0.99755 0.42384 0.0
Cd58 Cd 0.42744 0.98371 0.39632 0.0
O59 O 0.46097 0.97545 0.38934 0.0
C60 C 0.47412 0.9876 0.36099 0.0
O61 O 0.46712 0.00488 0.33261 0.0
C62 C 0.38122 0.00253 0.38789 0.0
C63 C 0.33388 0.98305 0.57975 0.0
O64 O 0.3277 0.00177 0.56469 0.0
O65 O 0.3536 0.97861 0.57313 0.0
O66 O 0.24906 0.11149 0.68095 0.0
Cd67 Cd 0.25284 0.11046 0.79853 0.0
O68 O 0.25222 0.14611 0.68253 0.0
Cd69 Cd 0.25599 0.17745 0.63812 0.0
O70 O 0.26148 0.21109 0.61916 0.0
C71 C 0.24846 0.22271 0.58831 0.0
O72 O 0.23122 0.21412 0.56405 0.0
C73 C 0.24962 0.12903 0.65077 0.0
C74 C 0.27994 0.07782 0.83642 0.0
O75 O 0.25993 0.07469 0.83095 0.0
O76 O 0.28709 0.09642 0.82423 0.0
O77 O 0.13727 0.97783 0.92092 0.0
Cd78 Cd 0.1389 0.97349 0.03827 0.0
O79 O 0.10619 0.99286 0.93132 0.0
Cd80 Cd 0.07733 0.00983 0.90288 0.0
O81 O 0.04497 0.02132 0.88964 0.0
C82 C 0.03152 0.0109 0.85657 0.0
O83 O 0.03756 0.99339 0.82744 0.0
C84 C 0.12132 0.98676 0.895 0.0
C85 C 0.16302 0.00614 0.09174 0.0
O86 O 0.17164 0.98859 0.07476 0.0
O87 O 0.14293 0.0081 0.08435 0.0
O88 O 0.76791 0.85664 0.66519 0.0
Cd89 Cd 0.77438 0.8526 0.78123 0.0
O90 O 0.73321 0.85617 0.67557 0.0
Cd91 Cd 0.73511 0.84542 0.77599 0.0
O92 O 0.7367 0.81768 0.83918 0.0
C93 C 0.72085 0.80524 0.83764 0.0
O94 O 0.70418 0.81079 0.80341 0.0
C95 C 0.74956 0.85828 0.64007 0.0
C96 C 0.80365 0.8826 0.82415 0.0
O97 O 0.80965 0.86407 0.80642 0.0
O98 O 0.78378 0.88685 0.82206 0.0
O99 O 0.89496 0.02505 0.39719 0.0
Cd100 Cd 0.90121 0.03058 0.51279 0.0
O101 O 0.8902 0.99065 0.40684 0.0
Cd102 Cd 0.90177 0.99098 0.50658 0.0
O103 O 0.92926 0.99168 0.571 0.0
C104 C 0.94185 0.97599 0.56739 0.0
O105 O 0.93666 0.95994 0.52999 0.0
C106 C 0.89029 0.00726 0.37187 0.0
C107 C 0.87048 0.05748 0.56418 0.0
O108 O 0.8882 0.0648 0.54357 0.0
O109 O 0.86741 0.03741 0.56107 0.0
O110 O 0.72814 0.13785 0.15963 0.0
Cd111 Cd 0.72362 0.14349 0.27568 0.0
O112 O 0.76294 0.13858 0.16567 0.0
Cd113 Cd 0.76275 0.15095 0.26479 0.0
O114 O 0.76458 0.17985 0.32317 0.0
C115 C 0.7498 0.18654 0.35975 0.0
O116 O 0.73284 0.17476 0.36815 0.0
C117 C 0.74614 0.13589 0.13254 0.0
C118 C 0.69248 0.11687 0.32597 0.0
O119 O 0.71179 0.11072 0.32134 0.0
O120 O 0.68791 0.13568 0.30708 0.0
O121 O 0.61469 0.98757 0.92977 0.0
Cd122 Cd 0.61091 0.98145 0.04606 0.0
O123 O 0.611 0.02213 0.93839 0.0
Cd124 Cd 0.60033 0.01991 0.03881 0.0
O125 O 0.57222 0.01685 0.09989 0.0
C126 C 0.55882 0.03185 0.09616 0.0
O127 O 0.56364 0.04861 0.06135 0.0
C128 C 0.61466 0.00585 0.90375 0.0
C129 C 0.63685 0.94828 0.087 0.0
O130 O 0.64383 0.96734 0.08427 0.0
O131 O 0.61753 0.94491 0.07064 0.0
O132 O 0.7695 0.13603 0.82634 0.0
Cd133 Cd 0.774 0.14046 0.70977 0.0
O134 O 0.7347 0.1369 0.82039 0.0
Cd135 Cd 0.73486 0.14829 0.72024 0.0
O136 O 0.7326 0.17662 0.65948 0.0
C137 C 0.74744 0.18333 0.62317 0.0
O138 O 0.76472 0.17189 0.6167 0.0
C139 C 0.7515 0.13445 0.85368 0.0
C140 C 0.80542 0.1136 0.66226 0.0
O141 O 0.8098 0.13263 0.67946 0.0
O142 O 0.78615 0.10734 0.66725 0.0
O143 O 0.60486 0.02964 0.60027 0.0
Cd144 Cd 0.59772 0.03462 0.48494 0.0
O145 O 0.61325 0.99595 0.59018 0.0
Cd146 Cd 0.60166 0.99536 0.49047 0.0
O147 O 0.5741 0.99517 0.42635 0.0
C148 C 0.56206 0.97905 0.4297 0.0
O149 O 0.56784 0.96309 0.46659 0.0
C150 C 0.61144 0.01243 0.62534 0.0
C151 C 0.62807 0.06125 0.43029 0.0
O152 O 0.61049 0.06867 0.45165 0.0
O153 O 0.63117 0.0412 0.4342 0.0
O154 O 0.72301 0.85282 0.33713 0.0
Cd155 Cd 0.71675 0.84758 0.22142 0.0
O156 O 0.75751 0.85642 0.32614 0.0
Cd157 Cd 0.7564 0.84492 0.22635 0.0
O158 O 0.75537 0.81687 0.1643 0.0
C159 C 0.77122 0.80448 0.16766 0.0
O160 O 0.78757 0.81021 0.20302 0.0
C161 C 0.74107 0.85677 0.36183 0.0
C162 C 0.69086 0.87982 0.1738 0.0
O163 O 0.68293 0.86223 0.19331 0.0
O164 O 0.71105 0.88203 0.17608 0.0
O165 O 0.88935 0.98195 0.06753 0.0
Cd166 Cd 0.89335 0.97588 0.95126 0.0
O167 O 0.89046 0.01668 0.05863 0.0
Cd168 Cd 0.90146 0.01494 0.95847 0.0
O169 O 0.93001 0.01262 0.89899 0.0
C170 C 0.94338 0.02753 0.90584 0.0
O171 O 0.93829 0.04375 0.94265 0.0
C172 C 0.88801 0.00021 0.09341 0.0
C173 C 0.86441 0.94557 0.90836 0.0
O174 O 0.8832 0.94025 0.92557 0.0
O175 O 0.85939 0.96524 0.91096 0.0
O176 O 0.75843 0.60887 0.83507 0.0
Cd177 Cd 0.76052 0.60746 0.71715 0.0
O178 O 0.74503 0.64077 0.82807 0.0
Cd179 Cd 0.73047 0.67073 0.85849 0.0
O180 O 0.72116 0.70387 0.86957 0.0
C181 C 0.73314 0.71715 0.89804 0.0
O182 O 0.75096 0.71049 0.92398 0.0
C183 C 0.75098 0.62522 0.86294 0.0
C184 C 0.73209 0.5775 0.669 0.0
O185 O 0.75129 0.57243 0.68222 0.0
O186 O 0.72642 0.5968 0.67798 0.0
O187 O 0.63978 0.51937 0.07665 0.0
Cd188 Cd 0.64118 0.52284 0.95901 0.0
O189 O 0.60797 0.50581 0.06844 0.0
Cd190 Cd 0.57832 0.49056 0.09843 0.0
O191 O 0.54537 0.48088 0.11149 0.0
C192 C 0.53234 0.49236 0.14284 0.0
O193 O 0.53918 0.50985 0.17043 0.0
C194 C 0.62354 0.51143 0.10378 0.0
C195 C 0.6652 0.48985 0.90712 0.0
O196 O 0.67386 0.50748 0.92311 0.0
O197 O 0.64512 0.48796 0.91481 0.0
O198 O 0.75155 0.38837 0.31882 0.0
Cd199 Cd 0.75523 0.39046 0.20134 0.0
O200 O 0.75287 0.35368 0.3132 0.0
Cd201 Cd 0.75508 0.32172 0.35412 0.0
O202 O 0.75935 0.28786 0.37196 0.0
C203 C 0.74558 0.27653 0.40067 0.0
O204 O 0.72827 0.28555 0.423 0.0
C205 C 0.75121 0.37046 0.34696 0.0
C206 C 0.78177 0.4238 0.16557 0.0
O207 O 0.76173 0.42657 0.17154 0.0
O208 O 0.78923 0.40523 0.17634 0.0
O209 O 0.86263 0.49698 0.58915 0.0
Cd210 Cd 0.86038 0.49393 0.47153 0.0
O211 O 0.89547 0.50772 0.58019 0.0
Cd212 Cd 0.92663 0.52008 0.60833 0.0
O213 O 0.96043 0.52708 0.61647 0.0
C214 C 0.97307 0.51439 0.64477 0.0
O215 O 0.9654 0.49725 0.67236 0.0
C216 C 0.87962 0.50334 0.61596 0.0
C217 C 0.82913 0.52106 0.42411 0.0
O218 O 0.82478 0.50182 0.43902 0.0
O219 O 0.84833 0.52737 0.43096 0.0
O220 O 0.74407 0.38511 0.65661 0.0
Cd221 Cd 0.74035 0.38526 0.77425 0.0
O222 O 0.74022 0.35061 0.65627 0.0
Cd223 Cd 0.73951 0.31841 0.61629 0.0
O224 O 0.73597 0.28432 0.60116 0.0
C225 C 0.75009 0.27295 0.57421 0.0
O226 O 0.76736 0.28204 0.55197 0.0
C227 C 0.74299 0.36782 0.6252 0.0
C228 C 0.71585 0.41947 0.81562 0.0
O229 O 0.73602 0.42112 0.81005 0.0
O230 O 0.70728 0.40159 0.80181 0.0
O231 O 0.86461 0.52291 0.92157 0.0
Cd232 Cd 0.86269 0.52484 0.03948 0.0
O233 O 0.89503 0.50646 0.9299 0.0
Cd234 Cd 0.92338 0.48901 0.89944 0.0
O235 O 0.95548 0.47681 0.88631 0.0
C236 C 0.96948 0.48749 0.85632 0.0
O237 O 0.96415 0.50572 0.83018 0.0
C238 C 0.8803 0.51391 0.89441 0.0
C239 C 0.83664 0.49251 0.08575 0.0
O240 O 0.82904 0.5108 0.07184 0.0
O241 O 0.85663 0.48963 0.07865 0.0
O242 O 0.73461 0.60784 0.16892 0.0
Cd243 Cd 0.73277 0.60575 0.28678 0.0
O244 O 0.74809 0.63966 0.17765 0.0
Cd245 Cd 0.76266 0.66975 0.14853 0.0
O246 O 0.77177 0.70297 0.13793 0.0
C247 C 0.7599 0.71612 0.10853 0.0
O248 O 0.74233 0.7093 0.08139 0.0
C249 C 0.74205 0.62435 0.14193 0.0
C250 C 0.76387 0.57828 0.33326 0.0
O251 O 0.7452 0.57154 0.31994 0.0
O252 O 0.76774 0.59806 0.32521 0.0
O253 O 0.64153 0.48956 0.4061 0.0
Cd254 Cd 0.64399 0.48559 0.52341 0.0
O255 O 0.60991 0.50325 0.418 0.0
Cd256 Cd 0.57995 0.51875 0.39228 0.0
O257 O 0.54699 0.52903 0.38493 0.0
C258 C 0.53315 0.51771 0.35641 0.0
O259 O 0.53909 0.5 0.32822 0.0
C260 C 0.62504 0.49769 0.38088 0.0
C261 C 0.6725 0.51512 0.57354 0.0
O262 O 0.67866 0.49652 0.5571 0.0
O263 O 0.6528 0.51965 0.56697 0.0
O264 O 0.27536 0.36448 0.16856 0.0
Cd265 Cd 0.27993 0.36077 0.28547 0.0
O266 O 0.24083 0.36007 0.17425 0.0
Cd267 Cd 0.24186 0.34865 0.27428 0.0
O268 O 0.24027 0.3207 0.33683 0.0
C269 C 0.2566 0.31263 0.36325 0.0
O270 O 0.2749 0.3224 0.35762 0.0
C271 C 0.25732 0.36421 0.14107 0.0
C272 C 0.30942 0.38979 0.33297 0.0
O273 O 0.31507 0.37103 0.31633 0.0
O274 O 0.2898 0.39476 0.32738 0.0
O275 O 0.39603 0.52871 0.92306 0.0
Cd276 Cd 0.40112 0.53452 0.03906 0.0
O277 O 0.39188 0.49423 0.93273 0.0
Cd278 Cd 0.403 0.49491 0.03292 0.0
O279 O 0.43124 0.49593 0.09412 0.0
C280 C 0.44374 0.48019 0.08965 0.0
O281 O 0.43796 0.46393 0.05396 0.0
C282 C 0.3919 0.51081 0.8976 0.0
C283 C 0.36877 0.56006 0.08762 0.0
O284 O 0.3863 0.56815 0.06824 0.0
O285 O 0.36666 0.53987 0.08471 0.0
O286 O 0.21694 0.64665 0.66254 0.0
Cd287 Cd 0.21092 0.65267 0.77803 0.0
O288 O 0.25091 0.63967 0.67387 0.0
Cd289 Cd 0.25031 0.65112 0.77382 0.0
O290 O 0.24749 0.67884 0.8368 0.0
C291 C 0.26386 0.68772 0.86034 0.0
O292 O 0.28246 0.67881 0.85141 0.0
C293 C 0.23455 0.64094 0.63799 0.0
C294 C 0.18612 0.62014 0.82895 0.0
O295 O 0.17764 0.63735 0.80842 0.0
O296 O 0.20635 0.61845 0.82612 0.0
O297 O 0.10436 0.46859 0.40854 0.0
Cd298 Cd 0.09815 0.46343 0.52428 0.0
O299 O 0.11203 0.50246 0.41833 0.0
Cd300 Cd 0.10059 0.50291 0.51821 0.0
O301 O 0.07291 0.50372 0.5818 0.0
C302 C 0.06145 0.52026 0.57896 0.0
O303 O 0.06787 0.53621 0.54298 0.0
C304 C 0.11044 0.48595 0.38323 0.0
C305 C 0.12944 0.43727 0.57612 0.0
O306 O 0.11183 0.42956 0.55592 0.0
O307 O 0.13212 0.45738 0.57252 0.0
O308 O 0.26088 0.63616 0.3338 0.0
Cd309 Cd 0.26674 0.63915 0.21731 0.0
O310 O 0.22678 0.64284 0.32477 0.0
Cd311 Cd 0.22927 0.65322 0.22391 0.0
O312 O 0.23022 0.68096 0.16047 0.0
C313 C 0.24699 0.68708 0.13186 0.0
O314 O 0.26411 0.67527 0.13543 0.0
C315 C 0.24266 0.63784 0.35964 0.0
C316 C 0.30007 0.61344 0.17638 0.0
O317 O 0.30326 0.63287 0.19185 0.0
O318 O 0.28111 0.60622 0.18017 0.0
O319 O 0.11305 0.51105 0.0787 0.0
Cd320 Cd 0.10904 0.51713 0.96245 0.0
O321 O 0.10896 0.47653 0.07013 0.0
Cd322 Cd 0.0982 0.47886 0.9698 0.0
O323 O 0.07035 0.48261 0.90793 0.0
C324 C 0.05665 0.46786 0.91061 0.0
O325 O 0.06101 0.45087 0.94498 0.0
C326 C 0.11287 0.49276 0.10472 0.0
C327 C 0.13414 0.55082 0.9207 0.0
O328 O 0.14158 0.53193 0.92364 0.0
O329 O 0.11479 0.55376 0.93739 0.0
O330 O 0.233 0.36124 0.83533 0.0
Cd331 Cd 0.22807 0.3563 0.71908 0.0
O332 O 0.26778 0.3598 0.8289 0.0
Cd333 Cd 0.26717 0.34748 0.72972 0.0
O334 O 0.26878 0.31873 0.67046 0.0
C335 C 0.25401 0.31238 0.63325 0.0
O336 O 0.2372 0.32439 0.625 0.0
C337 C 0.25107 0.36275 0.86227 0.0
C338 C 0.19593 0.38253 0.67257 0.0
O339 O 0.19197 0.36346 0.69026 0.0
O340 O 0.21511 0.38913 0.67652 0.0
O341 O 0.39446 0.48539 0.59346 0.0
Cd342 Cd 0.39992 0.47948 0.47765 0.0
O343 O 0.39404 0.52013 0.5843 0.0
Cd344 Cd 0.40527 0.51879 0.4843 0.0
O345 O 0.43282 0.51678 0.42044 0.0
C346 C 0.44583 0.53215 0.42307 0.0
O347 O 0.44099 0.54866 0.45899 0.0
C348 C 0.39212 0.50359 0.61908 0.0
C349 C 0.37069 0.45035 0.42935 0.0
O350 O 0.38897 0.44431 0.44932 0.0
O351 O 0.36631 0.47018 0.4319 0.0
C352 C 0.23485 0.14567 0.48067 0.0
C353 C 0.2439 0.12932 0.44361 0.0
H354 H 0.22935 0.15826 0.57552 0.0
C355 C 0.25445 0.11269 0.47545 0.0
H356 H 0.22557 0.15802 0.45806 0.0
C357 C 0.2563 0.11264 0.54285 0.0
C358 C 0.24777 0.1293 0.57964 0.0
H359 H 0.26138 0.09974 0.44821 0.0
H360 H 0.2646 0.09968 0.56616 0.0
C361 C 0.23689 0.14573 0.54806 0.0
C362 C 0.10244 0.9975 0.72345 0.0
C363 C 0.12173 0.99889 0.68973 0.0
H364 H 0.08703 0.99104 0.81326 0.0
C365 C 0.14077 0.99628 0.72423 0.0
H366 H 0.08752 0.00025 0.69936 0.0
C367 C 0.14051 0.99224 0.7907 0.0
C368 C 0.12121 0.99071 0.82435 0.0
H369 H 0.15594 0.99726 0.69982 0.0
H370 H 0.15549 0.99048 0.81585 0.0
C371 C 0.10218 0.99303 0.78975 0.0
C372 C 0.25835 0.85335 0.96301 0.0
C373 C 0.24764 0.86964 0.93012 0.0
H374 H 0.2685 0.84106 0.05452 0.0
C375 C 0.23869 0.88632 0.96593 0.0
H376 H 0.26641 0.84091 0.93662 0.0
C377 C 0.24001 0.88648 0.03343 0.0
C378 C 0.25027 0.86993 0.06638 0.0
H379 H 0.23055 0.89922 0.94174 0.0
H380 H 0.23283 0.89946 0.05991 0.0
C381 C 0.25962 0.85347 0.03057 0.0
C382 C 0.36246 0.99413 0.2158 0.0
C383 C 0.38162 0.99313 0.18125 0.0
H384 H 0.3474 0.9978 0.30786 0.0
C385 C 0.40079 0.99497 0.21538 0.0
H386 H 0.34738 0.99271 0.19102 0.0
C387 C 0.4008 0.99847 0.28225 0.0
C388 C 0.38164 0.99933 0.31685 0.0
H389 H 0.41584 0.99336 0.19103 0.0
H390 H 0.41581 0.00089 0.30613 0.0
C391 C 0.36247 0.99719 0.28275 0.0
C392 C 0.76321 0.86177 0.46165 0.0
C393 C 0.7431 0.86 0.43268 0.0
H394 H 0.78103 0.86276 0.54979 0.0
C395 C 0.72504 0.85974 0.4726 0.0
H396 H 0.77745 0.86212 0.43236 0.0
C397 C 0.72709 0.86014 0.54001 0.0
C398 C 0.74725 0.86078 0.56903 0.0
H399 H 0.7093 0.85852 0.45192 0.0
H400 H 0.71288 0.8592 0.56929 0.0
C401 C 0.76526 0.86213 0.52907 0.0
C402 C 0.88677 0.02222 0.1945 0.0
C403 C 0.88559 0.00223 0.16456 0.0
H404 H 0.88905 0.03952 0.28337 0.0
C405 C 0.88384 0.98407 0.2037 0.0
H406 H 0.88803 0.03656 0.16585 0.0
C407 C 0.88439 0.98577 0.2712 0.0
C408 C 0.88676 0.00567 0.30105 0.0
H409 H 0.88277 0.96843 0.18225 0.0
H410 H 0.88375 0.9714 0.29982 0.0
C411 C 0.88737 0.02392 0.26197 0.0
C412 C 0.76863 0.13131 0.96293 0.0
C413 C 0.75013 0.13173 0.92489 0.0
H414 H 0.78191 0.13213 0.05827 0.0
C415 C 0.73031 0.13132 0.95605 0.0
H416 H 0.78416 0.1315 0.94056 0.0
C417 C 0.72902 0.13165 0.02364 0.0
C418 C 0.74752 0.13244 0.06162 0.0
H419 H 0.71574 0.1315 0.92827 0.0
H420 H 0.71348 0.1321 0.04597 0.0
C421 C 0.76734 0.13167 0.03052 0.0
C422 C 0.6193 0.99158 0.72601 0.0
C423 C 0.61523 0.01119 0.69609 0.0
H424 H 0.62246 0.97451 0.81506 0.0
C425 C 0.61315 0.02936 0.73506 0.0
H426 H 0.62108 0.97728 0.69745 0.0
C427 C 0.61401 0.02778 0.80253 0.0
C428 C 0.61688 0.00798 0.83258 0.0
H429 H 0.61016 0.04474 0.71361 0.0
H430 H 0.61159 0.04199 0.83109 0.0
C431 C 0.62008 0.98999 0.79352 0.0
C432 C 0.74539 0.60589 0.03551 0.0
C433 C 0.74423 0.62496 0.07056 0.0
H434 H 0.74833 0.5911 0.94276 0.0
C435 C 0.7451 0.64423 0.03661 0.0
H436 H 0.74473 0.59074 0.06011 0.0
C437 C 0.74776 0.64444 0.96941 0.0
C438 C 0.74871 0.62539 0.93432 0.0
H439 H 0.74334 0.65919 0.06133 0.0
H440 H 0.74947 0.65956 0.94559 0.0
C441 C 0.7476 0.6061 0.96824 0.0
C442 C 0.60456 0.50677 0.2101 0.0
C443 C 0.62353 0.50809 0.17475 0.0
H444 H 0.58999 0.50092 0.30153 0.0
C445 C 0.64289 0.50619 0.20795 0.0
H446 H 0.5894 0.50906 0.18691 0.0
C447 C 0.64325 0.5028 0.27475 0.0
C448 C 0.62426 0.50122 0.31003 0.0
H449 H 0.65783 0.50718 0.18223 0.0
H450 H 0.65847 0.50152 0.29882 0.0
C451 C 0.60491 0.50293 0.27676 0.0
C452 C 0.75681 0.38443 0.52398 0.0
C453 C 0.74533 0.36804 0.55398 0.0
H454 H 0.76773 0.39791 0.43478 0.0
C455 C 0.73552 0.3526 0.51515 0.0
H456 H 0.76436 0.39669 0.5526 0.0
C457 C 0.73764 0.3532 0.44779 0.0
C458 C 0.74937 0.3694 0.41804 0.0
H459 H 0.72558 0.3405 0.53634 0.0
H460 H 0.72947 0.3414 0.41897 0.0
C461 C 0.75874 0.38514 0.45665 0.0
C462 C 0.8994 0.50594 0.72168 0.0
C463 C 0.88021 0.50617 0.68714 0.0
H464 H 0.91471 0.50976 0.81306 0.0
C465 C 0.86117 0.50898 0.72147 0.0
H466 H 0.91427 0.50297 0.6976 0.0
C467 C 0.86133 0.51161 0.7886 0.0
C468 C 0.88054 0.51148 0.82311 0.0
H469 H 0.84608 0.50922 0.69642 0.0
H470 H 0.84635 0.51354 0.81356 0.0
C471 C 0.89959 0.509 0.78874 0.0
C472 C 0.23423 0.36628 0.97175 0.0
C473 C 0.25261 0.36608 0.93322 0.0
H474 H 0.22127 0.36596 0.0675 0.0
C475 C 0.27251 0.3674 0.96374 0.0
H476 H 0.21864 0.36538 0.94989 0.0
C477 C 0.27401 0.36782 0.03132 0.0
C478 C 0.25566 0.36681 0.06988 0.0
H479 H 0.28699 0.36742 0.93554 0.0
H480 H 0.28961 0.3681 0.05325 0.0
C481 C 0.23573 0.36659 0.0393 0.0
C482 C 0.38931 0.52732 0.78743 0.0
C483 C 0.38899 0.50907 0.82655 0.0
H484 H 0.39033 0.53993 0.69132 0.0
C485 C 0.38755 0.48909 0.79664 0.0
H486 H 0.39027 0.54297 0.80885 0.0
C487 C 0.38763 0.48735 0.72913 0.0
C488 C 0.38908 0.50555 0.69003 0.0
H489 H 0.38717 0.47471 0.8253 0.0
H490 H 0.38728 0.47167 0.7077 0.0
C491 C 0.38932 0.52558 0.71993 0.0
C492 C 0.25599 0.63327 0.5382 0.0
C493 C 0.23624 0.63742 0.56716 0.0
H494 H 0.27351 0.62997 0.44998 0.0
C495 C 0.21832 0.6397 0.52724 0.0
H496 H 0.2701 0.63133 0.56751 0.0
C497 C 0.22026 0.63891 0.45987 0.0
C498 C 0.24018 0.63583 0.43079 0.0
H499 H 0.20283 0.64278 0.54789 0.0
H500 H 0.20623 0.64143 0.43062 0.0
C501 C 0.25794 0.63248 0.47075 0.0
C502 C 0.11181 0.46913 0.27329 0.0
C503 C 0.11395 0.48727 0.31236 0.0
H504 H 0.11002 0.45657 0.17722 0.0
C505 C 0.11786 0.50692 0.28247 0.0
H506 H 0.10893 0.45372 0.2947 0.0
C507 C 0.11847 0.50856 0.21496 0.0
C508 C 0.11522 0.49059 0.17585 0.0
H509 H 0.11969 0.5212 0.3111 0.0
H510 H 0.12075 0.52406 0.19348 0.0
C511 C 0.11247 0.47077 0.20582 0.0
C512 C 0.2103 0.03852 0.14717 0.0
C513 C 0.20084 0.05809 0.16225 0.0
H514 H 0.2058 0.00676 0.11329 0.0
C515 C 0.17876 0.06026 0.1555 0.0
H516 H 0.22726 0.03632 0.15196 0.0
C517 C 0.16645 0.0433 0.13343 0.0
C518 C 0.17595 0.02382 0.11756 0.0
H519 H 0.17097 0.0751 0.16685 0.0
H520 H 0.14951 0.04555 0.12823 0.0
C521 C 0.19799 0.02157 0.12504 0.0
C522 C 0.21899 0.9577 0.36802 0.0
C523 C 0.21152 0.93719 0.35415 0.0
H524 H 0.21141 0.98895 0.40125 0.0
C525 C 0.18988 0.93272 0.36285 0.0
H526 H 0.23557 0.96167 0.36176 0.0
C527 C 0.17601 0.94838 0.38523 0.0
C528 C 0.1835 0.96883 0.39963 0.0
H529 H 0.1836 0.9171 0.35245 0.0
H530 H 0.15944 0.94438 0.3917 0.0
C531 C 0.20513 0.97334 0.39063 0.0
C532 C 0.32536 0.94605 0.61532 0.0
C533 C 0.31864 0.96691 0.60299 0.0
H534 H 0.31658 0.91474 0.64489 0.0
C535 C 0.29717 0.97209 0.61201 0.0
H536 H 0.34179 0.94152 0.60875 0.0
C537 C 0.28271 0.95673 0.63279 0.0
C538 C 0.28941 0.93584 0.6448 0.0
H539 H 0.29148 0.98802 0.60291 0.0
H540 H 0.26627 0.96124 0.63924 0.0
C541 C 0.31089 0.93067 0.63591 0.0
C542 C 0.28632 0.0402 0.8704 0.0
C543 C 0.29435 0.06049 0.85641 0.0
H544 H 0.2932 0.00851 0.90091 0.0
C545 C 0.31627 0.06407 0.86198 0.0
H546 H 0.26952 0.0369 0.86649 0.0
C547 C 0.32985 0.04778 0.88162 0.0
C548 C 0.32181 0.02755 0.89616 0.0
H549 H 0.32297 0.07951 0.85144 0.0
H550 H 0.34664 0.05112 0.88583 0.0
C551 C 0.29991 0.02391 0.89008 0.0
C552 C 0.82757 0.935 0.87646 0.0
C553 C 0.8489 0.92946 0.8866 0.0
H554 H 0.79653 0.92453 0.84928 0.0
C555 C 0.85522 0.90836 0.87618 0.0
H556 H 0.82218 0.95111 0.88422 0.0
C557 C 0.84054 0.89315 0.85577 0.0
C558 C 0.81919 0.89867 0.84591 0.0
H559 H 0.87155 0.90359 0.88351 0.0
H560 H 0.84592 0.87703 0.848 0.0
C561 C 0.81285 0.91975 0.8566 0.0
C562 C 0.83353 0.06406 0.60384 0.0
C563 C 0.85393 0.0718 0.59004 0.0
H564 H 0.80218 0.0712 0.63702 0.0
C565 C 0.85828 0.09339 0.60044 0.0
H566 H 0.82965 0.04751 0.59621 0.0
C567 C 0.84256 0.10695 0.62421 0.0
C568 C 0.82211 0.09924 0.63752 0.0
H569 H 0.87385 0.09984 0.59035 0.0
H570 H 0.84641 0.12351 0.63171 0.0
C571 C 0.81776 0.07765 0.62706 0.0
C572 C 0.68043 0.08115 0.36403 0.0
C573 C 0.67594 0.10263 0.35224 0.0
H574 H 0.6688 0.0512 0.3974 0.0
C575 C 0.65551 0.11035 0.36573 0.0
H576 H 0.696 0.07469 0.35397 0.0
C577 C 0.63995 0.09692 0.39103 0.0
C578 C 0.64444 0.07543 0.40277 0.0
H579 H 0.65155 0.12683 0.35722 0.0
H580 H 0.62439 0.10337 0.40125 0.0
C581 C 0.66482 0.06767 0.38875 0.0
C582 C 0.68559 0.91743 0.13836 0.0
C583 C 0.6771 0.8972 0.15038 0.0
H584 H 0.67952 0.94944 0.10936 0.0
C585 C 0.65528 0.89386 0.14085 0.0
H586 H 0.70232 0.92053 0.14537 0.0
C587 C 0.64223 0.9104 0.11982 0.0
C588 C 0.65069 0.93068 0.10845 0.0
H589 H 0.64826 0.87845 0.14961 0.0
H590 H 0.62548 0.90732 0.11302 0.0
C591 C 0.67251 0.93401 0.1179 0.0
C592 C 0.68106 0.55182 0.61195 0.0
C593 C 0.68771 0.53101 0.59856 0.0
H594 H 0.68985 0.58283 0.64437 0.0
C595 C 0.70909 0.5256 0.60855 0.0
H596 H 0.66471 0.55651 0.60467 0.0
C597 C 0.7235 0.54069 0.63143 0.0
C598 C 0.71686 0.56153 0.64457 0.0
H599 H 0.71472 0.5097 0.5987 0.0
H600 H 0.73986 0.53602 0.63864 0.0
C601 C 0.69549 0.56693 0.63458 0.0
C602 C 0.71239 0.45713 0.85294 0.0
C603 C 0.70284 0.43762 0.8377 0.0
H604 H 0.70802 0.48893 0.88658 0.0
C605 C 0.68074 0.43557 0.84418 0.0
H606 H 0.72937 0.45924 0.84836 0.0
C607 C 0.6685 0.45261 0.86604 0.0
C608 C 0.67808 0.47205 0.8819 0.0
H609 H 0.67288 0.42077 0.83273 0.0
H610 H 0.65153 0.45046 0.87096 0.0
C611 C 0.70014 0.47416 0.8748 0.0
C612 C 0.81782 0.43828 0.14008 0.0
C613 C 0.79586 0.4415 0.14646 0.0
H614 H 0.84792 0.45186 0.11613 0.0
C615 C 0.78749 0.46175 0.13401 0.0
H616 H 0.82478 0.42289 0.14943 0.0
C617 C 0.80076 0.47837 0.11495 0.0
C618 C 0.82269 0.4751 0.10797 0.0
H619 H 0.77065 0.46476 0.13859 0.0
H620 H 0.79378 0.49374 0.10527 0.0
C621 C 0.83109 0.45491 0.12105 0.0
C622 C 0.80133 0.57093 0.36689 0.0
C623 C 0.78054 0.56364 0.35666 0.0
H624 H 0.83298 0.56322 0.39587 0.0
C625 C 0.77588 0.54219 0.36849 0.0
H626 H 0.80546 0.58735 0.35811 0.0
C627 C 0.79166 0.52835 0.39025 0.0
C628 C 0.81246 0.53564 0.40042 0.0
H629 H 0.76002 0.53606 0.36106 0.0
H630 H 0.78754 0.51193 0.39906 0.0
C631 C 0.81713 0.55708 0.38842 0.0
C632 C 0.33417 0.44121 0.39055 0.0
C633 C 0.35505 0.43486 0.40447 0.0
H634 H 0.30337 0.43193 0.35747 0.0
C635 C 0.36079 0.41357 0.39472 0.0
H636 H 0.32923 0.45749 0.39767 0.0
C637 C 0.346 0.39894 0.37131 0.0
C638 C 0.3251 0.40527 0.35767 0.0
H639 H 0.37675 0.40818 0.40493 0.0
H640 H 0.35093 0.38266 0.36422 0.0
C641 C 0.31933 0.42655 0.36765 0.0
C642 C 0.3379 0.6084 0.14252 0.0
C643 C 0.31774 0.59975 0.15458 0.0
H644 H 0.3698 0.60268 0.11171 0.0
C645 C 0.3146 0.5779 0.14534 0.0
H646 H 0.34083 0.62519 0.14915 0.0
C647 C 0.33123 0.56497 0.12433 0.0
C648 C 0.35133 0.57366 0.11161 0.0
H649 H 0.29927 0.57073 0.15437 0.0
H650 H 0.32827 0.54821 0.11746 0.0
C651 C 0.35449 0.5955 0.12101 0.0
C652 C 0.1385 0.58868 0.88639 0.0
C653 C 0.1475 0.56867 0.89839 0.0
H654 H 0.14362 0.6206 0.8548 0.0
C655 C 0.16936 0.56584 0.88848 0.0
H656 H 0.1217 0.59137 0.89354 0.0
C657 C 0.18195 0.58264 0.86679 0.0
C658 C 0.17291 0.60257 0.85398 0.0
H659 H 0.17679 0.55064 0.89749 0.0
H660 H 0.19873 0.57992 0.85935 0.0
C661 C 0.15106 0.60543 0.86412 0.0
C662 C 0.14243 0.40167 0.61262 0.0
C663 C 0.14633 0.42333 0.60185 0.0
H664 H 0.155 0.37182 0.6437 0.0
C665 C 0.16662 0.43148 0.61494 0.0
H666 H 0.12696 0.39491 0.60307 0.0
C667 C 0.18274 0.41822 0.63771 0.0
C668 C 0.17885 0.39656 0.64844 0.0
H669 H 0.17015 0.44809 0.60702 0.0
H670 H 0.19823 0.42498 0.64707 0.0
C671 C 0.1585 0.38844 0.63594 0.0
C672 C 0.27405 0.25859 0.42272 0.0
C673 C 0.25543 0.24668 0.41387 0.0
H674 H 0.28902 0.28894 0.41415 0.0
C675 C 0.23658 0.2573 0.39764 0.0
H676 H 0.28878 0.25093 0.43608 0.0
C677 C 0.23667 0.27908 0.38554 0.0
C678 C 0.25566 0.2907 0.38896 0.0
H679 H 0.22187 0.24865 0.39165 0.0
H680 H 0.22205 0.28656 0.37024 0.0
C681 C 0.27418 0.2804 0.41022 0.0
C682 C 0.99968 0.96415 0.59865 0.0
C683 C 0.00634 0.98259 0.63099 0.0
H684 H 0.97405 0.94747 0.55411 0.0
C685 C 0.99105 0.99763 0.64962 0.0
H686 H 0.01101 0.95212 0.5843 0.0
C687 C 0.96978 0.995 0.63197 0.0
C688 C 0.9634 0.97722 0.59574 0.0
H689 H 0.99562 0.01191 0.67521 0.0
H690 H 0.95853 0.00733 0.64441 0.0
C691 C 0.97844 0.96147 0.58139 0.0
C692 C 0.28091 0.72111 0.90071 0.0
C693 C 0.26242 0.70969 0.88551 0.0
H694 H 0.29466 0.7515 0.91994 0.0
C695 C 0.2428 0.72026 0.88705 0.0
H696 H 0.29626 0.71341 0.90077 0.0
C697 C 0.24189 0.74211 0.8979 0.0
C698 C 0.26057 0.75384 0.9076 0.0
H699 H 0.22821 0.71189 0.87646 0.0
H700 H 0.22662 0.74995 0.89566 0.0
C701 C 0.27999 0.74298 0.91163 0.0
C702 C 0.49981 0.03951 0.11663 0.0
C703 C 0.49373 0.02025 0.14537 0.0
H704 H 0.52515 0.05842 0.07957 0.0
C705 C 0.50959 0.00608 0.1659 0.0
H706 H 0.48802 0.05091 0.10104 0.0
C707 C 0.53097 0.01035 0.15327 0.0
C708 C 0.53689 0.02894 0.12028 0.0
H709 H 0.50545 0.9912 0.1889 0.0
H710 H 0.54274 0.99866 0.16683 0.0
C711 C 0.52114 0.04383 0.10441 0.0
C712 C 0.23051 0.72247 0.10995 0.0
C713 C 0.24827 0.70903 0.10655 0.0
H714 H 0.21884 0.75425 0.10514 0.0
C715 C 0.26778 0.71754 0.0863 0.0
H716 H 0.21517 0.7164 0.12449 0.0
C717 C 0.2699 0.73933 0.07537 0.0
C718 C 0.25253 0.75299 0.08428 0.0
H719 H 0.28172 0.70759 0.08236 0.0
H720 H 0.2854 0.74556 0.06325 0.0
C721 C 0.23263 0.74421 0.09898 0.0
C722 C 0.51194 0.99944 0.34982 0.0
C723 C 0.49718 0.98387 0.3684 0.0
H724 H 0.54416 0.01012 0.35429 0.0
C725 C 0.50454 0.9655 0.39968 0.0
H726 H 0.50683 0.01369 0.32502 0.0
C727 C 0.52591 0.9634 0.41608 0.0
C728 C 0.54041 0.97968 0.4019 0.0
H729 H 0.49364 0.95307 0.41394 0.0
H730 H 0.53084 0.94944 0.44265 0.0
C731 C 0.53335 0.9974 0.3666 0.0
C732 C 0.23618 0.28143 0.57939 0.0
C733 C 0.25414 0.29017 0.60973 0.0
H734 H 0.22031 0.25316 0.54833 0.0
C735 C 0.27136 0.27682 0.62412 0.0
H736 H 0.22274 0.2913 0.56688 0.0
C737 C 0.26995 0.255 0.61357 0.0
C738 C 0.25132 0.24602 0.58828 0.0
H739 H 0.28557 0.28305 0.64662 0.0
H740 H 0.28315 0.24508 0.62802 0.0
C741 C 0.23478 0.25955 0.56881 0.0
C742 C 0.0025 0.03559 0.89016 0.0
C743 C 0.00881 0.01682 0.85894 0.0
H744 H 0.97687 0.05384 0.92846 0.0
C745 C 0.99313 0.00294 0.83546 0.0
H746 H 0.01415 0.04676 0.90808 0.0
C747 C 0.97166 0.00695 0.84747 0.0
C748 C 0.96548 0.025 0.88277 0.0
H749 H 0.99746 0.98846 0.81053 0.0
H750 H 0.96001 0.99546 0.83151 0.0
C751 C 0.98107 0.03966 0.90176 0.0
C752 C 0.74091 0.7767 0.89641 0.0
C753 C 0.72251 0.78344 0.86389 0.0
H754 H 0.7586 0.7504 0.93372 0.0
C755 C 0.70651 0.76854 0.85064 0.0
H756 H 0.75344 0.78782 0.90798 0.0
C757 C 0.70952 0.74712 0.86499 0.0
C758 C 0.72854 0.74013 0.89326 0.0
H759 H 0.69204 0.77321 0.82624 0.0
H760 H 0.69727 0.73594 0.85138 0.0
C761 C 0.74387 0.75524 0.91116 0.0
C762 C 0.76656 0.24373 0.37781 0.0
C763 C 0.74788 0.25316 0.40111 0.0
H764 H 0.78197 0.21523 0.34756 0.0
C765 C 0.7309 0.24005 0.41962 0.0
H766 H 0.78008 0.25333 0.36417 0.0
C767 C 0.73201 0.21809 0.41028 0.0
C768 C 0.7501 0.20887 0.38207 0.0
H769 H 0.71639 0.24679 0.43865 0.0
H770 H 0.71829 0.20852 0.4221 0.0
C771 C 0.76767 0.22184 0.36845 0.0
C772 C 0.72968 0.24002 0.60009 0.0
C773 C 0.74819 0.24955 0.57587 0.0
H774 H 0.71478 0.21158 0.63297 0.0
C775 C 0.76538 0.23655 0.55838 0.0
H776 H 0.716 0.24952 0.61296 0.0
C777 C 0.76466 0.21468 0.56976 0.0
C778 C 0.74676 0.20543 0.5989 0.0
H779 H 0.77976 0.24336 0.53862 0.0
H780 H 0.77855 0.20525 0.55872 0.0
C781 C 0.72896 0.21822 0.61141 0.0
C782 C 0.74906 0.75412 0.0938 0.0
C783 C 0.7643 0.73914 0.11328 0.0
H784 H 0.7393 0.78666 0.09534 0.0
C785 C 0.78303 0.74632 0.14294 0.0
H786 H 0.73455 0.74914 0.07015 0.0
C787 C 0.78581 0.76779 0.15697 0.0
C788 C 0.76986 0.78257 0.14202 0.0
H789 H 0.79522 0.73524 0.1578 0.0
H790 H 0.80004 0.77261 0.1824 0.0
C791 C 0.75178 0.77563 0.10822 0.0
C792 C 0.49436 0.50264 0.16096 0.0
C793 C 0.50936 0.48766 0.13981 0.0
H794 H 0.4617 0.51201 0.16206 0.0
C795 C 0.50218 0.46894 0.11009 0.0
H796 H 0.49935 0.51712 0.18471 0.0
C797 C 0.48063 0.46596 0.09753 0.0
C798 C 0.46579 0.48167 0.11404 0.0
H799 H 0.51329 0.45695 0.09399 0.0
H800 H 0.47579 0.45176 0.07194 0.0
C801 C 0.47277 0.49971 0.14799 0.0
C802 C 0.01043 0.50121 0.65651 0.0
C803 C 0.99626 0.51736 0.63819 0.0
H804 H 0.04228 0.48948 0.6525 0.0
C805 C 0.00433 0.53562 0.60796 0.0
H806 H 0.00476 0.48704 0.68053 0.0
C807 C 0.02581 0.53707 0.59228 0.0
C808 C 0.03971 0.52024 0.60614 0.0
H809 H 0.9939 0.54847 0.59394 0.0
H810 H 0.03129 0.55098 0.56649 0.0
C811 C 0.03194 0.50261 0.64046 0.0
C812 C 0.02946 0.49011 0.8532 0.0
C813 C 0.03488 0.47129 0.88578 0.0
H814 H 0.00448 0.5099 0.81733 0.0
C815 C 0.01878 0.45666 0.90057 0.0
H816 H 0.04152 0.50161 0.84046 0.0
C817 C 0.99758 0.46146 0.88774 0.0
C818 C 0.99201 0.48094 0.85946 0.0
H819 H 0.02239 0.44191 0.92505 0.0
H820 H 0.9855 0.45025 0.90253 0.0
C821 C 0.00822 0.49486 0.83995 0.0
C822 C 0.49467 0.50826 0.3449 0.0
C823 C 0.51036 0.52293 0.36327 0.0
H824 H 0.46182 0.49969 0.34907 0.0
C825 C 0.50415 0.54185 0.39378 0.0
H826 H 0.4989 0.49362 0.32067 0.0
C827 C 0.48292 0.54538 0.40965 0.0
C828 C 0.46744 0.53001 0.39572 0.0
H829 H 0.5158 0.55361 0.40783 0.0
H830 H 0.47886 0.55974 0.43563 0.0
C831 C 0.47341 0.51174 0.36117 0.0
loop_
_geom_bond_atom_site_label_1
_geom_bond_atom_site_label_2
_geom_bond_distance
_geom_bond_site_symmetry_2
_ccdc_geom_bond_type
O0 Cd1 2.300 . S
O0 C7 1.275 . S
Cd1 O0 2.300 . S
Cd1 O9 2.381 . S
Cd1 O10 2.378 . S
O2 Cd3 2.385 . S
O2 C7 1.255 . S
Cd3 O2 2.385 . S
Cd3 O4 2.317 . S
O4 Cd3 2.317 . S
O4 C5 1.232 . S
C5 O4 1.232 . S
C5 O6 1.218 . S
O6 C5 1.218 . S
C7 O0 1.275 . S
C7 O2 1.255 . S
C8 O9 1.258 . S
C8 O10 1.256 . S
O9 Cd1 2.381 . S
O9 C8 1.258 . S
O10 Cd1 2.378 . S
O10 C8 1.256 . S
O11 Cd12 2.300 . S
O11 C18 1.275 . S
Cd12 O11 2.300 . S
Cd12 O20 2.381 . S
Cd12 O21 2.378 . S
O13 Cd14 2.385 . S
O13 C18 1.255 . S
Cd14 O13 2.385 . S
Cd14 O15 2.317 . S
O15 Cd14 2.317 . S
O15 C16 1.232 . S
C16 O15 1.232 . S
C16 O17 1.218 . S
O17 C16 1.218 . S
C18 O11 1.275 . S
C18 O13 1.255 . S
C19 O20 1.258 . S
C19 O21 1.256 . S
O20 Cd12 2.381 . S
O20 C19 1.258 . S
O21 Cd12 2.378 . S
O21 C19 1.256 . S
O22 Cd23 2.300 . S
O22 C29 1.275 . S
Cd23 O22 2.300 . S
Cd23 O31 2.381 . S
Cd23 O32 2.378 . S
O24 Cd25 2.385 . S
O24 C29 1.255 . S
Cd25 O24 2.385 . S
Cd25 O26 2.317 . S
O26 Cd25 2.317 . S
O26 C27 1.232 . S
C27 O26 1.232 . S
C27 O28 1.218 . S
O28 C27 1.218 . S
C29 O22 1.275 . S
C29 O24 1.255 . S
C30 O31 1.258 . S
C30 O32 1.256 . S
O31 Cd23 2.381 . S
O31 C30 1.258 . S
O32 Cd23 2.378 . S
O32 C30 1.256 . S
O33 Cd34 2.300 . S
O33 C40 1.275 . S
Cd34 O33 2.300 . S
Cd34 O42 2.381 1_554 S
Cd34 O43 2.378 1_554 S
O35 Cd36 2.385 . S
O35 C40 1.255 . S
Cd36 O35 2.385 . S
Cd36 O37 2.317 1_554 S
O37 Cd36 2.317 1_556 S
O37 C38 1.232 1_556 S
C38 O37 1.232 1_554 S
C38 O39 1.218 . S
O39 C38 1.218 . S
C40 O33 1.275 . S
C40 O35 1.255 . S
C41 O42 1.258 . S
C41 O43 1.256 . S
O42 Cd34 2.381 1_556 S
O42 C41 1.258 . S
O43 Cd34 2.378 1_556 S
O43 C41 1.256 . S
O44 Cd45 2.300 . S
O44 C51 1.275 . S
Cd45 O44 2.300 . S
Cd45 O53 2.381 . S
Cd45 O54 2.378 . S
O46 Cd47 2.385 . S
O46 C51 1.255 . S
Cd47 O46 2.385 . S
Cd47 O48 2.317 . S
O48 Cd47 2.317 . S
O48 C49 1.232 . S
C49 O48 1.232 . S
C49 O50 1.218 . S
O50 C49 1.218 . S
C51 O44 1.275 . S
C51 O46 1.255 . S
C52 O53 1.258 . S
C52 O54 1.256 . S
O53 Cd45 2.381 . S
O53 C52 1.258 . S
O54 Cd45 2.378 . S
O54 C52 1.256 . S
O55 Cd56 2.300 . S
O55 C62 1.275 . S
Cd56 O55 2.300 . S
Cd56 O64 2.381 . S
Cd56 O65 2.378 . S
O57 Cd58 2.385 . S
O57 C62 1.255 . S
Cd58 O57 2.385 . S
Cd58 O59 2.317 . S
O59 Cd58 2.317 . S
O59 C60 1.232 . S
C60 O59 1.232 . S
C60 O61 1.218 . S
O61 C60 1.218 . S
C62 O55 1.275 . S
C62 O57 1.255 . S
C63 O64 1.258 . S
C63 O65 1.256 . S
O64 Cd56 2.381 . S
O64 C63 1.258 . S
O65 Cd56 2.378 . S
O65 C63 1.256 . S
O66 Cd67 2.300 . S
O66 C73 1.275 . S
Cd67 O66 2.300 . S
Cd67 O75 2.381 . S
Cd67 O76 2.378 . S
O68 Cd69 2.385 . S
O68 C73 1.255 . S
Cd69 O68 2.385 . S
Cd69 O70 2.317 . S
O70 Cd69 2.317 . S
O70 C71 1.232 . S
C71 O70 1.232 . S
C71 O72 1.218 . S
O72 C71 1.218 . S
C73 O66 1.275 . S
C73 O68 1.255 . S
C74 O75 1.258 . S
C74 O76 1.256 . S
O75 Cd67 2.381 . S
O75 C74 1.258 . S
O76 Cd67 2.378 . S
O76 C74 1.256 . S
O77 Cd78 2.300 . S
O77 C84 1.275 . S
Cd78 O77 2.300 . S
Cd78 O86 2.381 1_556 S
Cd78 O87 2.378 1_556 S
O79 Cd80 2.385 . S
O79 C84 1.255 . S
Cd80 O79 2.385 . S
Cd80 O81 2.317 1_556 S
O81 Cd80 2.317 1_554 S
O81 C82 1.232 1_554 S
C82 O81 1.232 1_556 S
C82 O83 1.218 . S
O83 C82 1.218 . S
C84 O77 1.275 . S
C84 O79 1.255 . S
C85 O86 1.258 . S
C85 O87 1.256 . S
O86 Cd78 2.381 1_554 S
O86 C85 1.258 . S
O87 Cd78 2.378 1_554 S
O87 C85 1.256 . S
O88 Cd89 2.300 . S
O88 C95 1.275 . S
Cd89 O88 2.300 . S
Cd89 O97 2.381 . S
Cd89 O98 2.378 . S
O90 Cd91 2.385 . S
O90 C95 1.255 . S
Cd91 O90 2.385 . S
Cd91 O92 2.317 . S
O92 Cd91 2.317 . S
O92 C93 1.232 . S
C93 O92 1.232 . S
C93 O94 1.218 . S
O94 C93 1.218 . S
C95 O88 1.275 . S
C95 O90 1.255 . S
C96 O97 1.258 . S
C96 O98 1.256 . S
O97 Cd89 2.381 . S
O97 C96 1.258 . S
O98 Cd89 2.378 . S
O98 C96 1.256 . S
O99 Cd100 2.300 . S
O99 C106 1.273 1_545 S
Cd100 O99 2.300 . S
Cd100 O108 2.381 . S
Cd100 O109 2.378 . S
O101 Cd102 2.385 . S
O101 C106 1.257 . S
Cd102 O101 2.385 . S
Cd102 O103 2.317 . S
O103 Cd102 2.317 . S
O103 C104 1.232 . S
C104 O103 1.232 . S
C104 O105 1.218 . S
O105 C104 1.218 . S
C106 O99 1.273 1_565 S
C106 O101 1.257 . S
C107 O108 1.258 . S
C107 O109 1.256 . S
O108 Cd100 2.381 . S
O108 C107 1.258 . S
O109 Cd100 2.378 . S
O109 C107 1.256 . S
O110 Cd111 2.300 . S
O110 C117 1.275 . S
Cd111 O110 2.300 . S
Cd111 O119 2.381 . S
Cd111 O120 2.378 . S
O112 Cd113 2.385 . S
O112 C117 1.255 . S
Cd113 O112 2.385 . S
Cd113 O114 2.317 . S
O114 Cd113 2.317 . S
O114 C115 1.232 . S
C115 O114 1.232 . S
C115 O116 1.218 . S
O116 C115 1.218 . S
C117 O110 1.275 . S
C117 O112 1.255 . S
C118 O119 1.258 . S
C118 O120 1.256 . S
O119 Cd111 2.381 . S
O119 C118 1.258 . S
O120 Cd111 2.378 . S
O120 C118 1.256 . S
O121 Cd122 2.300 1_556 S
O121 C128 1.272 1_565 S
Cd122 O121 2.300 1_554 S
Cd122 O130 2.381 . S
Cd122 O131 2.378 . S
O123 Cd124 2.385 1_556 S
O123 C128 1.258 . S
Cd124 O123 2.385 1_554 S
Cd124 O125 2.317 . S
O125 Cd124 2.317 . S
O125 C126 1.232 . S
C126 O125 1.232 . S
C126 O127 1.218 1_554 S
O127 C126 1.218 1_556 S
C128 O121 1.272 1_545 S
C128 O123 1.258 . S
C129 O130 1.258 . S
C129 O131 1.256 . S
O130 Cd122 2.381 . S
O130 C129 1.258 . S
O131 Cd122 2.378 . S
O131 C129 1.256 . S
O132 Cd133 2.300 . S
O132 C139 1.275 . S
Cd133 O132 2.300 . S
Cd133 O141 2.381 . S
Cd133 O142 2.378 . S
O134 Cd135 2.385 . S
O134 C139 1.255 . S
Cd135 O134 2.385 . S
Cd135 O136 2.317 . S
O136 Cd135 2.317 . S
O136 C137 1.232 . S
C137 O136 1.232 . S
C137 O138 1.218 . S
O138 C137 1.218 . S
C139 O132 1.275 . S
C139 O134 1.255 . S
C140 O141 1.258 . S
C140 O142 1.256 . S
O141 Cd133 2.381 . S
O141 C140 1.258 . S
O142 Cd133 2.378 . S
O142 C140 1.256 . S
O143 Cd144 2.300 . S
O143 C150 1.271 1_545 S
Cd144 O143 2.300 . S
Cd144 O152 2.381 . S
Cd144 O153 2.378 . S
O145 Cd146 2.385 . S
O145 C150 1.258 . S
Cd146 O145 2.385 . S
Cd146 O147 2.317 . S
O147 Cd146 2.317 . S
O147 C148 1.232 . S
C148 O147 1.232 . S
C148 O149 1.218 . S
O149 C148 1.218 . S
C150 O143 1.271 1_565 S
C150 O145 1.258 . S
C151 O152 1.258 . S
C151 O153 1.256 . S
O152 Cd144 2.381 . S
O152 C151 1.258 . S
O153 Cd144 2.378 . S
O153 C151 1.256 . S
O154 Cd155 2.300 . S
O154 C161 1.275 . S
Cd155 O154 2.300 . S
Cd155 O163 2.381 . S
Cd155 O164 2.378 . S
O156 Cd157 2.385 . S
O156 C161 1.255 . S
Cd157 O156 2.385 . S
Cd157 O158 2.317 . S
O158 Cd157 2.317 . S
O158 C159 1.232 . S
C159 O158 1.232 . S
C159 O160 1.218 . S
O160 C159 1.218 . S
C161 O154 1.275 . S
C161 O156 1.255 . S
C162 O163 1.258 . S
C162 O164 1.256 . S
O163 Cd155 2.381 . S
O163 C162 1.258 . S
O164 Cd155 2.378 . S
O164 C162 1.256 . S
O165 Cd166 2.300 1_554 S
O165 C172 1.271 1_565 S
Cd166 O165 2.300 1_556 S
Cd166 O174 2.381 . S
Cd166 O175 2.378 . S
O167 Cd168 2.385 1_554 S
O167 C172 1.259 . S
Cd168 O167 2.385 1_556 S
Cd168 O169 2.317 . S
O169 Cd168 2.317 . S
O169 C170 1.232 . S
C170 O169 1.232 . S
C170 O171 1.218 1_556 S
O171 C170 1.218 1_554 S
C172 O165 1.271 1_545 S
C172 O167 1.259 . S
C173 O174 1.258 . S
C173 O175 1.256 . S
O174 Cd166 2.381 . S
O174 C173 1.258 . S
O175 Cd166 2.378 . S
O175 C173 1.256 . S
O176 Cd177 2.300 . S
O176 C183 1.275 . S
Cd177 O176 2.300 . S
Cd177 O185 2.381 . S
Cd177 O186 2.378 . S
O178 Cd179 2.385 . S
O178 C183 1.255 . S
Cd179 O178 2.385 . S
Cd179 O180 2.317 . S
O180 Cd179 2.317 . S
O180 C181 1.232 . S
C181 O180 1.232 . S
C181 O182 1.218 . S
O182 C181 1.218 . S
C183 O176 1.275 . S
C183 O178 1.255 . S
C184 O185 1.258 . S
C184 O186 1.256 . S
O185 Cd177 2.381 . S
O185 C184 1.258 . S
O186 Cd177 2.378 . S
O186 C184 1.256 . S
O187 Cd188 2.300 . S
O187 C194 1.275 . S
Cd188 O187 2.300 . S
Cd188 O196 2.381 1_554 S
Cd188 O197 2.378 1_554 S
O189 Cd190 2.385 . S
O189 C194 1.255 . S
Cd190 O189 2.385 . S
Cd190 O191 2.317 1_554 S
O191 Cd190 2.317 1_556 S
O191 C192 1.232 1_556 S
C192 O191 1.232 1_554 S
C192 O193 1.218 . S
O193 C192 1.218 . S
C194 O187 1.275 . S
C194 O189 1.255 . S
C195 O196 1.258 . S
C195 O197 1.256 . S
O196 Cd188 2.381 1_556 S
O196 C195 1.258 . S
O197 Cd188 2.378 1_556 S
O197 C195 1.256 . S
O198 Cd199 2.300 . S
O198 C205 1.275 . S
Cd199 O198 2.300 . S
Cd199 O207 2.381 . S
Cd199 O208 2.378 . S
O200 Cd201 2.385 . S
O200 C205 1.255 . S
Cd201 O200 2.385 . S
Cd201 O202 2.317 . S
O202 Cd201 2.317 . S
O202 C203 1.232 . S
C203 O202 1.232 . S
C203 O204 1.218 . S
O204 C203 1.218 . S
C205 O198 1.275 . S
C205 O200 1.255 . S
C206 O207 1.258 . S
C206 O208 1.256 . S
O207 Cd199 2.381 . S
O207 C206 1.258 . S
O208 Cd199 2.378 . S
O208 C206 1.256 . S
O209 Cd210 2.300 . S
O209 C216 1.275 . S
Cd210 O209 2.300 . S
Cd210 O218 2.381 . S
Cd210 O219 2.378 . S
O211 Cd212 2.385 . S
O211 C216 1.255 . S
Cd212 O211 2.385 . S
Cd212 O213 2.317 . S
O213 Cd212 2.317 . S
O213 C214 1.232 . S
C214 O213 1.232 . S
C214 O215 1.218 . S
O215 C214 1.218 . S
C216 O209 1.275 . S
C216 O211 1.255 . S
C217 O218 1.258 . S
C217 O219 1.256 . S
O218 Cd210 2.381 . S
O218 C217 1.258 . S
O219 Cd210 2.378 . S
O219 C217 1.256 . S
O220 Cd221 2.300 . S
O220 C227 1.275 . S
Cd221 O220 2.300 . S
Cd221 O229 2.381 . S
Cd221 O230 2.378 . S
O222 Cd223 2.385 . S
O222 C227 1.255 . S
Cd223 O222 2.385 . S
Cd223 O224 2.317 . S
O224 Cd223 2.317 . S
O224 C225 1.232 . S
C225 O224 1.232 . S
C225 O226 1.218 . S
O226 C225 1.218 . S
C227 O220 1.275 . S
C227 O222 1.255 . S
C228 O229 1.258 . S
C228 O230 1.256 . S
O229 Cd221 2.381 . S
O229 C228 1.258 . S
O230 Cd221 2.378 . S
O230 C228 1.256 . S
O231 Cd232 2.300 . S
O231 C238 1.275 . S
Cd232 O231 2.300 . S
Cd232 O240 2.381 1_556 S
Cd232 O241 2.378 1_556 S
O233 Cd234 2.385 . S
O233 C238 1.255 . S
Cd234 O233 2.385 . S
Cd234 O235 2.317 1_556 S
O235 Cd234 2.317 1_554 S
O235 C236 1.232 1_554 S
C236 O235 1.232 1_556 S
C236 O237 1.218 . S
O237 C236 1.218 . S
C238 O231 1.275 . S
C238 O233 1.255 . S
C239 O240 1.258 . S
C239 O241 1.256 . S
O240 Cd232 2.381 1_554 S
O240 C239 1.258 . S
O241 Cd232 2.378 1_554 S
O241 C239 1.256 . S
O242 Cd243 2.300 . S
O242 C249 1.275 . S
Cd243 O242 2.300 . S
Cd243 O251 2.381 . S
Cd243 O252 2.378 . S
O244 Cd245 2.385 . S
O244 C249 1.255 . S
Cd245 O244 2.385 . S
Cd245 O246 2.317 . S
O246 Cd245 2.317 . S
O246 C247 1.232 . S
C247 O246 1.232 . S
C247 O248 1.218 . S
O248 C247 1.218 . S
C249 O242 1.275 . S
C249 O244 1.255 . S
C250 O251 1.258 . S
C250 O252 1.256 . S
O251 Cd243 2.381 . S
O251 C250 1.258 . S
O252 Cd243 2.378 . S
O252 C250 1.256 . S
O253 Cd254 2.300 . S
O253 C260 1.275 . S
Cd254 O253 2.300 . S
Cd254 O262 2.381 . S
Cd254 O263 2.378 . S
O255 Cd256 2.385 . S
O255 C260 1.255 . S
Cd256 O255 2.385 . S
Cd256 O257 2.317 . S
O257 Cd256 2.317 . S
O257 C258 1.232 . S
C258 O257 1.232 . S
C258 O259 1.218 . S
O259 C258 1.218 . S
C260 O253 1.275 . S
C260 O255 1.255 . S
C261 O262 1.258 . S
C261 O263 1.256 . S
O262 Cd254 2.381 . S
O262 C261 1.258 . S
O263 Cd254 2.378 . S
O263 C261 1.256 . S
O264 Cd265 2.300 . S
O264 C271 1.275 . S
Cd265 O264 2.300 . S
Cd265 O273 2.381 . S
Cd265 O274 2.378 . S
O266 Cd267 2.385 . S
O266 C271 1.255 . S
Cd267 O266 2.385 . S
Cd267 O268 2.317 . S
O268 Cd267 2.317 . S
O268 C269 1.232 . S
C269 O268 1.232 . S
C269 O270 1.218 . S
O270 C269 1.218 . S
C271 O264 1.275 . S
C271 O266 1.255 . S
C272 O273 1.258 . S
C272 O274 1.256 . S
O273 Cd265 2.381 . S
O273 C272 1.258 . S
O274 Cd265 2.378 . S
O274 C272 1.256 . S
O275 Cd276 2.300 1_556 S
O275 C282 1.275 . S
Cd276 O275 2.300 1_554 S
Cd276 O284 2.381 . S
Cd276 O285 2.378 . S
O277 Cd278 2.385 1_556 S
O277 C282 1.255 . S
Cd278 O277 2.385 1_554 S
Cd278 O279 2.317 . S
O279 Cd278 2.317 . S
O279 C280 1.232 . S
C280 O279 1.232 . S
C280 O281 1.218 1_554 S
O281 C280 1.218 1_556 S
C282 O275 1.275 . S
C282 O277 1.255 . S
C283 O284 1.258 . S
C283 O285 1.256 . S
O284 Cd276 2.381 . S
O284 C283 1.258 . S
O285 Cd276 2.378 . S
O285 C283 1.256 . S
O286 Cd287 2.300 . S
O286 C293 1.275 . S
Cd287 O286 2.300 . S
Cd287 O295 2.381 . S
Cd287 O296 2.378 . S
O288 Cd289 2.385 . S
O288 C293 1.255 . S
Cd289 O288 2.385 . S
Cd289 O290 2.317 . S
O290 Cd289 2.317 . S
O290 C291 1.232 . S
C291 O290 1.232 . S
C291 O292 1.218 . S
O292 C291 1.218 . S
C293 O286 1.275 . S
C293 O288 1.255 . S
C294 O295 1.258 . S
C294 O296 1.256 . S
O295 Cd287 2.381 . S
O295 C294 1.258 . S
O296 Cd287 2.378 . S
O296 C294 1.256 . S
O297 Cd298 2.300 . S
O297 C304 1.275 . S
Cd298 O297 2.300 . S
Cd298 O306 2.381 . S
Cd298 O307 2.378 . S
O299 Cd300 2.385 . S
O299 C304 1.255 . S
Cd300 O299 2.385 . S
Cd300 O301 2.317 . S
O301 Cd300 2.317 . S
O301 C302 1.232 . S
C302 O301 1.232 . S
C302 O303 1.218 . S
O303 C302 1.218 . S
C304 O297 1.275 . S
C304 O299 1.255 . S
C305 O306 1.258 . S
C305 O307 1.256 . S
O306 Cd298 2.381 . S
O306 C305 1.258 . S
O307 Cd298 2.378 . S
O307 C305 1.256 . S
O308 Cd309 2.300 . S
O308 C315 1.275 . S
Cd309 O308 2.300 . S
Cd309 O317 2.381 . S
Cd309 O318 2.378 . S
O310 Cd311 2.385 . S
O310 C315 1.255 . S
Cd311 O310 2.385 . S
Cd311 O312 2.317 . S
O312 Cd311 2.317 . S
O312 C313 1.232 . S
C313 O312 1.232 . S
C313 O314 1.218 . S
O314 C313 1.218 . S
C315 O308 1.275 . S
C315 O310 1.255 . S
C316 O317 1.258 . S
C316 O318 1.256 . S
O317 Cd309 2.381 . S
O317 C316 1.258 . S
O318 Cd309 2.378 . S
O318 C316 1.256 . S
O319 Cd320 2.300 1_554 S
O319 C326 1.275 . S
Cd320 O319 2.300 1_556 S
Cd320 O328 2.381 . S
Cd320 O329 2.378 . S
O321 Cd322 2.385 1_554 S
O321 C326 1.255 . S
Cd322 O321 2.385 1_556 S
Cd322 O323 2.317 . S
O323 Cd322 2.317 . S
O323 C324 1.232 . S
C324 O323 1.232 . S
C324 O325 1.218 1_556 S
O325 C324 1.218 1_554 S
C326 O319 1.275 . S
C326 O321 1.255 . S
C327 O328 1.258 . S
C327 O329 1.256 . S
O328 Cd320 2.381 . S
O328 C327 1.258 . S
O329 Cd320 2.378 . S
O329 C327 1.256 . S
O330 Cd331 2.300 . S
O330 C337 1.275 . S
Cd331 O330 2.300 . S
Cd331 O339 2.381 . S
Cd331 O340 2.378 . S
O332 Cd333 2.385 . S
O332 C337 1.255 . S
Cd333 O332 2.385 . S
Cd333 O334 2.317 . S
O334 Cd333 2.317 . S
O334 C335 1.232 . S
C335 O334 1.232 . S
C335 O336 1.218 . S
O336 C335 1.218 . S
C337 O330 1.275 . S
C337 O332 1.255 . S
C338 O339 1.258 . S
C338 O340 1.256 . S
O339 Cd331 2.381 . S
O339 C338 1.258 . S
O340 Cd331 2.378 . S
O340 C338 1.256 . S
O341 Cd342 2.300 . S
O341 C348 1.275 . S
Cd342 O341 2.300 . S
Cd342 O350 2.381 . S
Cd342 O351 2.378 . S
O343 Cd344 2.385 . S
O343 C348 1.255 . S
Cd344 O343 2.385 . S
Cd344 O345 2.317 . S
O345 Cd344 2.317 . S
O345 C346 1.232 . S
C346 O345 1.232 . S
C346 O347 1.218 . S
O347 C346 1.218 . S
C348 O341 1.275 . S
C348 O343 1.255 . S
C349 O350 1.258 . S
C349 O351 1.256 . S
O350 Cd342 2.381 . S
O350 C349 1.258 . S
O351 Cd342 2.378 . S
O351 C349 1.256 . S
C352 C353 1.387 . S
C352 H356 0.950 . S
C352 C361 1.390 . S
C353 C352 1.387 . S
C353 C355 1.387 . S
H354 C361 0.950 . S
C355 C353 1.387 . S
C355 C357 1.390 . S
C355 H359 0.950 . S
H356 C352 0.950 . S
C357 C355 1.390 . S
C357 C358 1.387 . S
C357 H360 0.950 . S
C358 C357 1.387 . S
C358 C361 1.387 . S
H359 C355 0.950 . S
H360 C357 0.950 . S
C361 C352 1.390 . S
C361 H354 0.950 . S
C361 C358 1.387 . S
C362 C363 1.389 . S
C362 H366 0.951 . S
C362 C371 1.387 1_545 S
C363 C362 1.389 . S
C363 C365 1.389 . S
H364 C371 0.953 . S
C365 C363 1.389 . S
C365 C367 1.387 1_545 S
C365 H369 0.953 . S
H366 C362 0.951 . S
C367 C365 1.387 1_565 S
C367 C368 1.389 . S
C367 H370 0.952 . S
C368 C367 1.389 . S
C368 C371 1.390 . S
H369 C365 0.953 . S
H370 C367 0.952 . S
C371 C362 1.387 1_565 S
C371 H364 0.953 . S
C371 C368 1.390 . S
C372 C373 1.387 . S
C372 H376 0.950 . S
C372 C381 1.390 1_556 S
C373 C372 1.387 . S
C373 C375 1.387 . S
H374 C381 0.950 . S
C375 C373 1.387 . S
C375 C377 1.390 1_556 S
C375 H379 0.950 . S
H376 C372 0.950 . S
C377 C375 1.390 1_554 S
C377 C378 1.387 . S
C377 H380 0.950 . S
C378 C377 1.387 . S
C378 C381 1.387 . S
H379 C375 0.950 . S
H380 C377 0.950 . S
C381 C372 1.390 1_554 S
C381 H374 0.950 . S
C381 C378 1.387 . S
C382 C383 1.389 . S
C382 H386 0.949 . S
C382 C391 1.388 1_565 S
C383 C382 1.389 . S
C383 C385 1.389 . S
H384 C391 0.949 . S
C385 C383 1.389 . S
C385 C387 1.388 1_565 S
C385 H389 0.949 . S
H386 C382 0.949 . S
C387 C385 1.388 1_545 S
C387 C388 1.389 . S
C387 H390 0.949 . S
C388 C387 1.389 . S
C388 C391 1.389 . S
H389 C385 0.949 . S
H390 C387 0.949 . S
C391 C382 1.388 1_545 S
C391 H384 0.949 . S
C391 C388 1.389 . S
C392 C393 1.387 . S
C392 H396 0.950 . S
C392 C401 1.390 . S
C393 C392 1.387 . S
C393 C395 1.387 . S
H394 C401 0.950 . S
C395 C393 1.387 . S
C395 C397 1.390 . S
C395 H399 0.950 . S
H396 C392 0.950 . S
C397 C395 1.390 . S
C397 C398 1.387 . S
C397 H400 0.950 . S
C398 C397 1.387 . S
C398 C401 1.387 . S
H399 C395 0.950 . S
H400 C397 0.950 . S
C401 C392 1.390 . S
C401 H394 0.950 . S
C401 C398 1.387 . S
C402 C403 1.389 . S
C402 H406 0.951 . S
C402 C411 1.388 1_545 S
C403 C402 1.389 . S
C403 C405 1.389 . S
H404 C411 0.949 . S
C405 C403 1.389 . S
C405 C407 1.388 1_545 S
C405 H409 0.949 . S
H406 C402 0.951 . S
C407 C405 1.388 1_565 S
C407 C408 1.389 . S
C407 H410 0.951 . S
C408 C407 1.389 . S
C408 C411 1.389 . S
H409 C405 0.949 . S
H410 C407 0.951 . S
C411 C402 1.388 1_565 S
C411 H404 0.949 . S
C411 C408 1.389 . S
C412 C413 1.387 . S
C412 H416 0.950 . S
C412 C421 1.390 1_556 S
C413 C412 1.387 . S
C413 C415 1.387 . S
H414 C421 0.950 . S
C415 C413 1.387 . S
C415 C417 1.390 1_556 S
C415 H419 0.950 . S
H416 C412 0.950 . S
C417 C415 1.390 1_554 S
C417 C418 1.387 . S
C417 H420 0.950 . S
C418 C417 1.387 . S
C418 C421 1.387 . S
H419 C415 0.950 . S
H420 C417 0.950 . S
C421 C412 1.390 1_554 S
C421 H414 0.950 . S
C421 C418 1.387 . S
C422 C423 1.390 . S
C422 H426 0.953 . S
C422 C431 1.387 1_565 S
C423 C422 1.390 . S
C423 C425 1.389 . S
H424 C431 0.952 . S
C425 C423 1.389 . S
C425 C427 1.387 1_565 S
C425 H429 0.952 . S
H426 C422 0.953 . S
C427 C425 1.387 1_545 S
C427 C428 1.389 . S
C427 H430 0.953 . S
C428 C427 1.389 . S
C428 C431 1.389 . S
H429 C425 0.952 . S
H430 C427 0.953 . S
C431 C422 1.387 1_545 S
C431 H424 0.952 . S
C431 C428 1.389 . S
C432 C433 1.387 . S
C432 H436 0.950 . S
C432 C441 1.390 1_554 S
C433 C432 1.387 . S
C433 C435 1.387 . S
H434 C441 0.950 . S
C435 C433 1.387 . S
C435 C437 1.390 1_554 S
C435 H439 0.950 . S
H436 C432 0.950 . S
C437 C435 1.390 1_556 S
C437 C438 1.387 . S
C437 H440 0.950 . S
C438 C437 1.387 . S
C438 C441 1.387 . S
H439 C435 0.950 . S
H440 C437 0.950 . S
C441 C432 1.390 1_556 S
C441 H434 0.950 . S
C441 C438 1.387 . S
C442 C443 1.387 . S
C442 H446 0.950 . S
C442 C451 1.390 . S
C443 C442 1.387 . S
C443 C445 1.387 . S
H444 C451 0.950 . S
C445 C443 1.387 . S
C445 C447 1.390 . S
C445 H449 0.950 . S
H446 C442 0.950 . S
C447 C445 1.390 . S
C447 C448 1.387 . S
C447 H450 0.950 . S
C448 C447 1.387 . S
C448 C451 1.387 . S
H449 C445 0.950 . S
H450 C447 0.950 . S
C451 C442 1.390 . S
C451 H444 0.950 . S
C451 C448 1.387 . S
C452 C453 1.387 . S
C452 H456 0.950 . S
C452 C461 1.390 . S
C453 C452 1.387 . S
C453 C455 1.387 . S
H454 C461 0.950 . S
C455 C453 1.387 . S
C455 C457 1.390 . S
C455 H459 0.950 . S
H456 C452 0.950 . S
C457 C455 1.390 . S
C457 C458 1.387 . S
C457 H460 0.950 . S
C458 C457 1.387 . S
C458 C461 1.387 . S
H459 C455 0.950 . S
H460 C457 0.950 . S
C461 C452 1.390 . S
C461 H454 0.950 . S
C461 C458 1.387 . S
C462 C463 1.387 . S
C462 H466 0.950 . S
C462 C471 1.390 . S
C463 C462 1.387 . S
C463 C465 1.387 . S
H464 C471 0.950 . S
C465 C463 1.387 . S
C465 C467 1.390 . S
C465 H469 0.950 . S
H466 C462 0.950 . S
C467 C465 1.390 . S
C467 C468 1.387 . S
C467 H470 0.950 . S
C468 C467 1.387 . S
C468 C471 1.387 . S
H469 C465 0.950 . S
H470 C467 0.950 . S
C471 C462 1.390 . S
C471 H464 0.950 . S
C471 C468 1.387 . S
C472 C473 1.387 . S
C472 H476 0.950 . S
C472 C481 1.390 1_556 S
C473 C472 1.387 . S
C473 C475 1.387 . S
H474 C481 0.950 . S
C475 C473 1.387 . S
C475 C477 1.390 1_556 S
C475 H479 0.950 . S
H476 C472 0.950 . S
C477 C475 1.390 1_554 S
C477 C478 1.387 . S
C477 H480 0.950 . S
C478 C477 1.387 . S
C478 C481 1.387 . S
H479 C475 0.950 . S
H480 C477 0.950 . S
C481 C472 1.390 1_554 S
C481 H474 0.950 . S
C481 C478 1.387 . S
C482 C483 1.387 . S
C482 H486 0.950 . S
C482 C491 1.390 . S
C483 C482 1.387 . S
C483 C485 1.387 . S
H484 C491 0.950 . S
C485 C483 1.387 . S
C485 C487 1.390 . S
C485 H489 0.950 . S
H486 C482 0.950 . S
C487 C485 1.390 . S
C487 C488 1.387 . S
C487 H490 0.950 . S
C488 C487 1.387 . S
C488 C491 1.387 . S
H489 C485 0.950 . S
H490 C487 0.950 . S
C491 C482 1.390 . S
C491 H484 0.950 . S
C491 C488 1.387 . S
C492 C493 1.387 . S
C492 H496 0.950 . S
C492 C501 1.390 . S
C493 C492 1.387 . S
C493 C495 1.387 . S
H494 C501 0.950 . S
C495 C493 1.387 . S
C495 C497 1.390 . S
C495 H499 0.950 . S
H496 C492 0.950 . S
C497 C495 1.390 . S
C497 C498 1.387 . S
C497 H500 0.950 . S
C498 C497 1.387 . S
C498 C501 1.387 . S
H499 C495 0.950 . S
H500 C497 0.950 . S
C501 C492 1.390 . S
C501 H494 0.950 . S
C501 C498 1.387 . S
C502 C503 1.387 . S
C502 H506 0.950 . S
C502 C511 1.390 . S
C503 C502 1.387 . S
C503 C505 1.387 . S
H504 C511 0.950 . S
C505 C503 1.387 . S
C505 C507 1.390 . S
C505 H509 0.950 . S
H506 C502 0.950 . S
C507 C505 1.390 . S
C507 C508 1.387 . S
C507 H510 0.950 . S
C508 C507 1.387 . S
C508 C511 1.387 . S
H509 C505 0.950 . S
H510 C507 0.950 . S
C511 C502 1.390 . S
C511 H504 0.950 . S
C511 C508 1.387 . S
C512 C513 1.387 . S
C512 H516 0.950 . S
C512 C521 1.390 . S
C513 C512 1.387 . S
C513 C515 1.387 . S
H514 C521 0.950 . S
C515 C513 1.387 . S
C515 C517 1.390 . S
C515 H519 0.950 . S
H516 C512 0.950 . S
C517 C515 1.390 . S
C517 C518 1.387 . S
C517 H520 0.950 . S
C518 C517 1.387 . S
C518 C521 1.387 . S
H519 C515 0.950 . S
H520 C517 0.950 . S
C521 C512 1.390 . S
C521 H514 0.950 . S
C521 C518 1.387 . S
C522 C523 1.387 . S
C522 H526 0.950 . S
C522 C531 1.390 . S
C523 C522 1.387 . S
C523 C525 1.387 . S
H524 C531 0.950 . S
C525 C523 1.387 . S
C525 C527 1.390 . S
C525 H529 0.950 . S
H526 C522 0.950 . S
C527 C525 1.390 . S
C527 C528 1.387 . S
C527 H530 0.950 . S
C528 C527 1.387 . S
C528 C531 1.387 . S
H529 C525 0.950 . S
H530 C527 0.950 . S
C531 C522 1.390 . S
C531 H524 0.950 . S
C531 C528 1.387 . S
C532 C533 1.387 . S
C532 H536 0.950 . S
C532 C541 1.390 . S
C533 C532 1.387 . S
C533 C535 1.387 . S
H534 C541 0.950 . S
C535 C533 1.387 . S
C535 C537 1.390 . S
C535 H539 0.950 . S
H536 C532 0.950 . S
C537 C535 1.390 . S
C537 C538 1.387 . S
C537 H540 0.950 . S
C538 C537 1.387 . S
C538 C541 1.387 . S
H539 C535 0.950 . S
H540 C537 0.950 . S
C541 C532 1.390 . S
C541 H534 0.950 . S
C541 C538 1.387 . S
C542 C543 1.387 . S
C542 H546 0.950 . S
C542 C551 1.390 . S
C543 C542 1.387 . S
C543 C545 1.387 . S
H544 C551 0.950 . S
C545 C543 1.387 . S
C545 C547 1.390 . S
C545 H549 0.950 . S
H546 C542 0.950 . S
C547 C545 1.390 . S
C547 C548 1.387 . S
C547 H550 0.950 . S
C548 C547 1.387 . S
C548 C551 1.387 . S
H549 C545 0.950 . S
H550 C547 0.950 . S
C551 C542 1.390 . S
C551 H544 0.950 . S
C551 C548 1.387 . S
C552 C553 1.387 . S
C552 H556 0.950 . S
C552 C561 1.390 . S
C553 C552 1.387 . S
C553 C555 1.387 . S
H554 C561 0.950 . S
C555 C553 1.387 . S
C555 C557 1.390 . S
C555 H559 0.950 . S
H556 C552 0.950 . S
C557 C555 1.390 . S
C557 C558 1.387 . S
C557 H560 0.950 . S
C558 C557 1.387 . S
C558 C561 1.387 . S
H559 C555 0.950 . S
H560 C557 0.950 . S
C561 C552 1.390 . S
C561 H554 0.950 . S
C561 C558 1.387 . S
C562 C563 1.387 . S
C562 H566 0.950 . S
C562 C571 1.390 . S
C563 C562 1.387 . S
C563 C565 1.387 . S
H564 C571 0.950 . S
C565 C563 1.387 . S
C565 C567 1.390 . S
C565 H569 0.950 . S
H566 C562 0.950 . S
C567 C565 1.390 . S
C567 C568 1.387 . S
C567 H570 0.950 . S
C568 C567 1.387 . S
C568 C571 1.387 . S
H569 C565 0.950 . S
H570 C567 0.950 . S
C571 C562 1.390 . S
C571 H564 0.950 . S
C571 C568 1.387 . S
C572 C573 1.387 . S
C572 H576 0.950 . S
C572 C581 1.390 . S
C573 C572 1.387 . S
C573 C575 1.387 . S
H574 C581 0.950 . S
C575 C573 1.387 . S
C575 C577 1.390 . S
C575 H579 0.950 . S
H576 C572 0.950 . S
C577 C575 1.390 . S
C577 C578 1.387 . S
C577 H580 0.950 . S
C578 C577 1.387 . S
C578 C581 1.387 . S
H579 C575 0.950 . S
H580 C577 0.950 . S
C581 C572 1.390 . S
C581 H574 0.950 . S
C581 C578 1.387 . S
C582 C583 1.387 . S
C582 H586 0.950 . S
C582 C591 1.390 . S
C583 C582 1.387 . S
C583 C585 1.387 . S
H584 C591 0.950 . S
C585 C583 1.387 . S
C585 C587 1.390 . S
C585 H589 0.950 . S
H586 C582 0.950 . S
C587 C585 1.390 . S
C587 C588 1.387 . S
C587 H590 0.950 . S
C588 C587 1.387 . S
C588 C591 1.387 . S
H589 C585 0.950 . S
H590 C587 0.950 . S
C591 C582 1.390 . S
C591 H584 0.950 . S
C591 C588 1.387 . S
C592 C593 1.387 . S
C592 H596 0.950 . S
C592 C601 1.390 . S
C593 C592 1.387 . S
C593 C595 1.387 . S
H594 C601 0.950 . S
C595 C593 1.387 . S
C595 C597 1.390 . S
C595 H599 0.950 . S
H596 C592 0.950 . S
C597 C595 1.390 . S
C597 C598 1.387 . S
C597 H600 0.950 . S
C598 C597 1.387 . S
C598 C601 1.387 . S
H599 C595 0.950 . S
H600 C597 0.950 . S
C601 C592 1.390 . S
C601 H594 0.950 . S
C601 C598 1.387 . S
C602 C603 1.387 . S
C602 H606 0.950 . S
C602 C611 1.390 . S
C603 C602 1.387 . S
C603 C605 1.387 . S
H604 C611 0.950 . S
C605 C603 1.387 . S
C605 C607 1.390 . S
C605 H609 0.950 . S
H606 C602 0.950 . S
C607 C605 1.390 . S
C607 C608 1.387 . S
C607 H610 0.950 . S
C608 C607 1.387 . S
C608 C611 1.387 . S
H609 C605 0.950 . S
H610 C607 0.950 . S
C611 C602 1.390 . S
C611 H604 0.950 . S
C611 C608 1.387 . S
C612 C613 1.387 . S
C612 H616 0.950 . S
C612 C621 1.390 . S
C613 C612 1.387 . S
C613 C615 1.387 . S
H614 C621 0.950 . S
C615 C613 1.387 . S
C615 C617 1.390 . S
C615 H619 0.950 . S
H616 C612 0.950 . S
C617 C615 1.390 . S
C617 C618 1.387 . S
C617 H620 0.950 . S
C618 C617 1.387 . S
C618 C621 1.387 . S
H619 C615 0.950 . S
H620 C617 0.950 . S
C621 C612 1.390 . S
C621 H614 0.950 . S
C621 C618 1.387 . S
C622 C623 1.387 . S
C622 H626 0.950 . S
C622 C631 1.390 . S
C623 C622 1.387 . S
C623 C625 1.387 . S
H624 C631 0.950 . S
C625 C623 1.387 . S
C625 C627 1.390 . S
C625 H629 0.950 . S
H626 C622 0.950 . S
C627 C625 1.390 . S
C627 C628 1.387 . S
C627 H630 0.950 . S
C628 C627 1.387 . S
C628 C631 1.387 . S
H629 C625 0.950 . S
H630 C627 0.950 . S
C631 C622 1.390 . S
C631 H624 0.950 . S
C631 C628 1.387 . S
C632 C633 1.387 . S
C632 H636 0.950 . S
C632 C641 1.390 . S
C633 C632 1.387 . S
C633 C635 1.387 . S
H634 C641 0.950 . S
C635 C633 1.387 . S
C635 C637 1.390 . S
C635 H639 0.950 . S
H636 C632 0.950 . S
C637 C635 1.390 . S
C637 C638 1.387 . S
C637 H640 0.950 . S
C638 C637 1.387 . S
C638 C641 1.387 . S
H639 C635 0.950 . S
H640 C637 0.950 . S
C641 C632 1.390 . S
C641 H634 0.950 . S
C641 C638 1.387 . S
C642 C643 1.387 . S
C642 H646 0.950 . S
C642 C651 1.390 . S
C643 C642 1.387 . S
C643 C645 1.387 . S
H644 C651 0.950 . S
C645 C643 1.387 . S
C645 C647 1.390 . S
C645 H649 0.950 . S
H646 C642 0.950 . S
C647 C645 1.390 . S
C647 C648 1.387 . S
C647 H650 0.950 . S
C648 C647 1.387 . S
C648 C651 1.387 . S
H649 C645 0.950 . S
H650 C647 0.950 . S
C651 C642 1.390 . S
C651 H644 0.950 . S
C651 C648 1.387 . S
C652 C653 1.387 . S
C652 H656 0.950 . S
C652 C661 1.390 . S
C653 C652 1.387 . S
C653 C655 1.387 . S
H654 C661 0.950 . S
C655 C653 1.387 . S
C655 C657 1.390 . S
C655 H659 0.950 . S
H656 C652 0.950 . S
C657 C655 1.390 . S
C657 C658 1.387 . S
C657 H660 0.950 . S
C658 C657 1.387 . S
C658 C661 1.387 . S
H659 C655 0.950 . S
H660 C657 0.950 . S
C661 C652 1.390 . S
C661 H654 0.950 . S
C661 C658 1.387 . S
C662 C663 1.387 . S
C662 H666 0.950 . S
C662 C671 1.390 . S
C663 C662 1.387 . S
C663 C665 1.387 . S
H664 C671 0.950 . S
C665 C663 1.387 . S
C665 C667 1.390 . S
C665 H669 0.950 . S
H666 C662 0.950 . S
C667 C665 1.390 . S
C667 C668 1.387 . S
C667 H670 0.950 . S
C668 C667 1.387 . S
C668 C671 1.387 . S
H669 C665 0.950 . S
H670 C667 0.950 . S
C671 C662 1.390 . S
C671 H664 0.950 . S
C671 C668 1.387 . S
C672 C673 1.387 . S
C672 H676 0.950 . S
C672 C681 1.390 . S
C673 C672 1.387 . S
C673 C675 1.387 . S
H674 C681 0.950 . S
C675 C673 1.387 . S
C675 C677 1.390 . S
C675 H679 0.950 . S
H676 C672 0.950 . S
C677 C675 1.390 . S
C677 C678 1.387 . S
C677 H680 0.950 . S
C678 C677 1.387 . S
C678 C681 1.387 . S
H679 C675 0.950 . S
H680 C677 0.950 . S
C681 C672 1.390 . S
C681 H674 0.950 . S
C681 C678 1.387 . S
C682 C683 1.387 1_565 S
C682 H686 0.950 . S
C682 C691 1.390 1_455 S
C683 C682 1.387 1_545 S
C683 C685 1.387 . S
H684 C691 0.950 . S
C685 C683 1.387 . S
C685 C687 1.390 1_455 S
C685 H689 0.950 . S
H686 C682 0.950 . S
C687 C685 1.390 1_655 S
C687 C688 1.387 1_545 S
C687 H690 0.950 . S
C688 C687 1.387 1_565 S
C688 C691 1.387 . S
H689 C685 0.950 . S
H690 C687 0.950 . S
C691 C682 1.390 1_655 S
C691 H684 0.950 . S
C691 C688 1.387 . S
C692 C693 1.387 . S
C692 H696 0.950 . S
C692 C701 1.390 . S
C693 C692 1.387 . S
C693 C695 1.387 . S
H694 C701 0.950 . S
C695 C693 1.387 . S
C695 C697 1.390 . S
C695 H699 0.950 . S
H696 C692 0.950 . S
C697 C695 1.390 . S
C697 C698 1.387 . S
C697 H700 0.950 . S
C698 C697 1.387 . S
C698 C701 1.387 . S
H699 C695 0.950 . S
H700 C697 0.950 . S
C701 C692 1.390 . S
C701 H694 0.950 . S
C701 C698 1.387 . S
C702 C703 1.387 1_545 S
C702 H706 0.950 . S
C702 C711 1.390 . S
C703 C702 1.387 1_565 S
C703 C705 1.387 1_556 S
H704 C711 0.950 . S
C705 C703 1.387 1_554 S
C705 C707 1.390 . S
C705 H709 0.950 . S
H706 C702 0.950 . S
C707 C705 1.390 . S
C707 C708 1.387 1_565 S
C707 H710 0.950 . S
C708 C707 1.387 1_545 S
C708 C711 1.387 1_554 S
H709 C705 0.950 . S
H710 C707 0.950 . S
C711 C702 1.390 . S
C711 H704 0.950 . S
C711 C708 1.387 1_556 S
C712 C713 1.387 . S
C712 H716 0.950 . S
C712 C721 1.390 . S
C713 C712 1.387 . S
C713 C715 1.387 . S
H714 C721 0.950 . S
C715 C713 1.387 . S
C715 C717 1.390 . S
C715 H719 0.950 . S
H716 C712 0.950 . S
C717 C715 1.390 . S
C717 C718 1.387 . S
C717 H720 0.950 . S
C718 C717 1.387 . S
C718 C721 1.387 . S
H719 C715 0.950 . S
H720 C717 0.950 . S
C721 C712 1.390 . S
C721 H714 0.950 . S
C721 C718 1.387 . S
C722 C723 1.387 . S
C722 H726 0.950 . S
C722 C731 1.390 . S
C723 C722 1.387 . S
C723 C725 1.387 1_545 S
H724 C731 0.950 . S
C725 C723 1.387 1_565 S
C725 C727 1.390 . S
C725 H729 0.950 . S
H726 C722 0.950 . S
C727 C725 1.390 . S
C727 C728 1.387 . S
C727 H730 0.950 . S
C728 C727 1.387 . S
C728 C731 1.387 1_565 S
H729 C725 0.950 . S
H730 C727 0.950 . S
C731 C722 1.390 . S
C731 H724 0.950 . S
C731 C728 1.387 1_545 S
C732 C733 1.387 . S
C732 H736 0.950 . S
C732 C741 1.390 . S
C733 C732 1.387 . S
C733 C735 1.387 . S
H734 C741 0.950 . S
C735 C733 1.387 . S
C735 C737 1.390 . S
C735 H739 0.950 . S
H736 C732 0.950 . S
C737 C735 1.390 . S
C737 C738 1.387 . S
C737 H740 0.950 . S
C738 C737 1.387 . S
C738 C741 1.387 . S
H739 C735 0.950 . S
H740 C737 0.950 . S
C741 C732 1.390 . S
C741 H734 0.950 . S
C741 C738 1.387 . S
C742 C743 1.387 1_545 S
C742 H746 0.950 . S
C742 C751 1.390 1_455 S
C743 C742 1.387 1_565 S
C743 C745 1.387 1_554 S
H744 C751 0.950 . S
C745 C743 1.387 1_556 S
C745 C747 1.390 1_455 S
C745 H749 0.950 . S
H746 C742 0.950 . S
C747 C745 1.390 1_655 S
C747 C748 1.387 1_565 S
C747 H750 0.950 . S
C748 C747 1.387 1_545 S
C748 C751 1.387 1_556 S
H749 C745 0.950 . S
H750 C747 0.950 . S
C751 C742 1.390 1_655 S
C751 H744 0.950 . S
C751 C748 1.387 1_554 S
C752 C753 1.387 . S
C752 H756 0.950 . S
C752 C761 1.390 . S
C753 C752 1.387 . S
C753 C755 1.387 . S
H754 C761 0.950 . S
C755 C753 1.387 . S
C755 C757 1.390 . S
C755 H759 0.950 . S
H756 C752 0.950 . S
C757 C755 1.390 . S
C757 C758 1.387 . S
C757 H760 0.950 . S
C758 C757 1.387 . S
C758 C761 1.387 . S
H759 C755 0.950 . S
H760 C757 0.950 . S
C761 C752 1.390 . S
C761 H754 0.950 . S
C761 C758 1.387 . S
C762 C763 1.387 . S
C762 H766 0.950 . S
C762 C771 1.390 . S
C763 C762 1.387 . S
C763 C765 1.387 . S
H764 C771 0.950 . S
C765 C763 1.387 . S
C765 C767 1.390 . S
C765 H769 0.950 . S
H766 C762 0.950 . S
C767 C765 1.390 . S
C767 C768 1.387 . S
C767 H770 0.950 . S
C768 C767 1.387 . S
C768 C771 1.387 . S
H769 C765 0.950 . S
H770 C767 0.950 . S
C771 C762 1.390 . S
C771 H764 0.950 . S
C771 C768 1.387 . S
C772 C773 1.387 . S
C772 H776 0.950 . S
C772 C781 1.390 . S
C773 C772 1.387 . S
C773 C775 1.387 . S
H774 C781 0.950 . S
C775 C773 1.387 . S
C775 C777 1.390 . S
C775 H779 0.950 . S
H776 C772 0.950 . S
C777 C775 1.390 . S
C777 C778 1.387 . S
C777 H780 0.950 . S
C778 C777 1.387 . S
C778 C781 1.387 . S
H779 C775 0.950 . S
H780 C777 0.950 . S
C781 C772 1.390 . S
C781 H774 0.950 . S
C781 C778 1.387 . S
C782 C783 1.387 . S
C782 H786 0.950 . S
C782 C791 1.390 . S
C783 C782 1.387 . S
C783 C785 1.387 . S
H784 C791 0.950 . S
C785 C783 1.387 . S
C785 C787 1.390 . S
C785 H789 0.950 . S
H786 C782 0.950 . S
C787 C785 1.390 . S
C787 C788 1.387 . S
C787 H790 0.950 . S
C788 C787 1.387 . S
C788 C791 1.387 . S
H789 C785 0.950 . S
H790 C787 0.950 . S
C791 C782 1.390 . S
C791 H784 0.950 . S
C791 C788 1.387 . S
C792 C793 1.387 1_554 S
C792 H796 0.950 . S
C792 C801 1.390 . S
C793 C792 1.387 1_556 S
C793 C795 1.387 . S
H794 C801 0.950 . S
C795 C793 1.387 . S
C795 C797 1.390 . S
C795 H799 0.950 . S
H796 C792 0.950 . S
C797 C795 1.390 . S
C797 C798 1.387 1_556 S
C797 H800 0.950 . S
C798 C797 1.387 1_554 S
C798 C801 1.387 . S
H799 C795 0.950 . S
H800 C797 0.950 . S
C801 C792 1.390 . S
C801 H794 0.950 . S
C801 C798 1.387 . S
C802 C803 1.387 . S
C802 H806 0.950 . S
C802 C811 1.390 1_655 S
C803 C802 1.387 . S
C803 C805 1.387 . S
H804 C811 0.950 . S
C805 C803 1.387 . S
C805 C807 1.390 1_655 S
C805 H809 0.950 . S
H806 C802 0.950 . S
C807 C805 1.390 1_455 S
C807 C808 1.387 . S
C807 H810 0.950 . S
C808 C807 1.387 . S
C808 C811 1.387 . S
H809 C805 0.950 . S
H810 C807 0.950 . S
C811 C802 1.390 1_455 S
C811 H804 0.950 . S
C811 C808 1.387 . S
C812 C813 1.387 . S
C812 H816 0.950 . S
C812 C821 1.390 1_455 S
C813 C812 1.387 . S
C813 C815 1.387 1_556 S
H814 C821 0.950 . S
C815 C813 1.387 1_554 S
C815 C817 1.390 1_455 S
C815 H819 0.950 . S
H816 C812 0.950 . S
C817 C815 1.390 1_655 S
C817 C818 1.387 . S
C817 H820 0.950 . S
C818 C817 1.387 . S
C818 C821 1.387 1_554 S
H819 C815 0.950 . S
H820 C817 0.950 . S
C821 C812 1.390 1_655 S
C821 H814 0.950 . S
C821 C818 1.387 1_556 S
C822 C823 1.387 . S
C822 H826 0.950 . S
C822 C831 1.390 . S
C823 C822 1.387 . S
C823 C825 1.387 . S
H824 C831 0.950 . S
C825 C823 1.387 . S
C825 C827 1.390 . S
C825 H829 0.950 . S
H826 C822 0.950 . S
C827 C825 1.390 . S
C827 C828 1.387 . S
C827 H830 0.950 . S
C828 C827 1.387 . S
C828 C831 1.387 . S
H829 C825 0.950 . S
H830 C827 0.950 . S
C831 C822 1.390 . S
C831 H824 0.950 . S
C831 C828 1.387 . S
C353 C7 1.462 . S
C358 C73 1.462 . S
C363 C18 1.462 1_545 S
C368 C84 1.462 1_565 S
C373 C29 1.462 . S
C378 C51 1.462 . S
C383 C40 1.457 1_565 S
C388 C62 1.457 1_545 S
C393 C161 1.584 . S
C398 C95 1.584 . S
C403 C172 1.583 . S
C408 C106 1.583 . S
C413 C139 1.584 . S
C418 C117 1.584 . S
C423 C150 1.585 . S
C428 C128 1.584 . S
C433 C249 1.457 . S
C438 C183 1.457 . S
C443 C194 1.462 . S
C448 C260 1.462 . S
C453 C227 1.457 . S
C458 C205 1.457 . S
C463 C216 1.462 . S
C468 C238 1.462 . S
C473 C337 1.584 . S
C478 C271 1.584 . S
C483 C282 1.583 . S
C488 C348 1.583 . S
C493 C293 1.584 . S
C498 C315 1.584 . S
C503 C304 1.583 . S
C508 C326 1.583 . S
C513 C8 1.602 . S
C518 C85 1.600 . S
C523 C52 1.601 . S
C528 C19 1.600 . S
C533 C63 1.601 . S
C538 C30 1.600 . S
C543 C74 1.601 . S
C548 C41 1.600 . S
C553 C173 1.640 . S
C558 C96 1.641 . S
C563 C107 1.640 . S
C568 C140 1.641 . S
C573 C118 1.641 . S
C578 C151 1.640 . S
C583 C162 1.640 . S
C588 C129 1.640 . S
C593 C261 1.599 . S
C598 C184 1.601 . S
C603 C228 1.600 . S
C608 C195 1.602 . S
C613 C206 1.600 . S
C618 C239 1.601 . S
C623 C250 1.599 . S
C628 C217 1.601 . S
C633 C349 1.641 . S
C638 C272 1.640 . S
C643 C316 1.641 . S
C648 C283 1.641 . S
C653 C327 1.641 . S
C658 C294 1.641 . S
C663 C305 1.641 . S
C668 C338 1.641 . S
C673 C5 1.272 . S
C678 C269 1.663 . S
C683 C16 1.272 1_545 S
C688 C104 1.665 . S
C693 C291 1.663 . S
C698 C27 1.273 . S
C703 C38 1.274 1_566 S
C708 C126 1.664 . S
C713 C313 1.666 . S
C718 C49 1.267 . S
C723 C60 1.267 1_545 S
C728 C148 1.666 . S
C733 C335 1.663 . S
C738 C71 1.272 . S
C743 C82 1.274 1_564 S
C748 C170 1.664 . S
C753 C93 1.665 . S
C758 C181 1.267 . S
C763 C203 1.270 . S
C768 C115 1.666 . S
C773 C225 1.268 . S
C778 C137 1.666 . S
C783 C247 1.267 . S
C788 C159 1.666 . S
C793 C192 1.267 1_556 S
C798 C280 1.666 . S
C803 C214 1.267 . S
C808 C302 1.666 . S
C813 C324 1.665 . S
C818 C236 1.267 1_554 S
C823 C258 1.267 . S
C828 C346 1.666 . S
