# Generated by pormake.
# Topology sml, (6)-cn, num edge types: 1
# Building blocks:
#     Node 0, Type 0, BuildingBlock: KUMBOL_clean_sbu_0, # of connection points: 6
#     Node 1, Type 0, BuildingBlock: KUMBOL_clean_sbu_0, # of connection points: 6
#     Node 2, Type 0, BuildingBlock: KUMBOL_clean_sbu_0, # of connection points: 6
#     Node 3, Type 0, BuildingBlock: KUMBOL_clean_sbu_0, # of connection points: 6
#     Node 4, Type 0, BuildingBlock: KUMBOL_clean_sbu_0, # of connection points: 6
#     Node 5, Type 0, BuildingBlock: KUMBOL_clean_sbu_0, # of connection points: 6
#     Edge 6, Type (0, 0), BuildingBlock: KIFKEQ_clean_linker_1, # of connection points: 2
#     Edge 7, Type (0, 0), BuildingBlock: KIFKEQ_clean_linker_1, # of connection points: 2
#     Edge 8, Type (0, 0), BuildingBlock: KIFKEQ_clean_linker_1, # of connection points: 2
#     Edge 9, Type (0, 0), BuildingBlock: KIFKEQ_clean_linker_1, # of connection points: 2
#     Edge 10, Type (0, 0), BuildingBlock: KIFKEQ_clean_linker_1, # of connection points: 2
#     Edge 11, Type (0, 0), BuildingBlock: KIFKEQ_clean_linker_1, # of connection points: 2
#     Edge 12, Type (0, 0), BuildingBlock: KIFKEQ_clean_linker_1, # of connection points: 2
#     Edge 13, Type (0, 0), BuildingBlock: KIFKEQ_clean_linker_1, # of connection points: 2
#     Edge 14, Type (0, 0), BuildingBlock: KIFKEQ_clean_linker_1, # of connection points: 2
#     Edge 15, Type (0, 0), BuildingBlock: KIFKEQ_clean_linker_1, # of connection points: 2
#     Edge 16, Type (0, 0), BuildingBlock: KIFKEQ_clean_linker_1, # of connection points: 2
#     Edge 17, Type (0, 0), BuildingBlock: KIFKEQ_clean_linker_1, # of connection points: 2
#     Edge 18, Type (0, 0), BuildingBlock: KIFKEQ_clean_linker_1, # of connection points: 2
#     Edge 19, Type (0, 0), BuildingBlock: KIFKEQ_clean_linker_1, # of connection points: 2
#     Edge 20, Type (0, 0), BuildingBlock: KIFKEQ_clean_linker_1, # of connection points: 2
#     Edge 21, Type (0, 0), BuildingBlock: KIFKEQ_clean_linker_1, # of connection points: 2
#     Edge 22, Type (0, 0), BuildingBlock: KIFKEQ_clean_linker_1, # of connection points: 2
#     Edge 23, Type (0, 0), BuildingBlock: KIFKEQ_clean_linker_1, # of connection points: 2
# Relax obj value: 0.027
# Max RMSD: 0.149
# Mean RMSD: 0.149
data_MOF--net-sml--node1-KUMBOL_clean_sbu_0--edge1-KIFKEQ_clean_linker_1
_symmetry_space_group_name_H-M    P1
_symmetry_Int_Tables_number       1
_symmetry_cell_setting            triclinic
loop_
_symmetry_equiv_pos_as_xyz
'x, y, z'
_cell_length_a     33.69618
_cell_length_b     33.705749
_cell_length_c     24.212804
_cell_angle_alpha  90.100622
_cell_angle_beta   89.942015
_cell_angle_gamma 120.00487
loop_
_atom_site_label
_atom_site_type_symbol
_atom_site_fract_x
_atom_site_fract_y
_atom_site_fract_z
_atom_type_partial_charge
Gd0 Gd 0.25635 0.4237 0.08321 0.0
Gd1 Gd 0.18243 0.42721 0.97354 0.0
C2 C 0.10156 0.50219 0.9888 0.0
C3 C 0.02283 0.43926 0.98821 0.0
C4 C 0.086 0.42412 0.98018 0.0
C5 C 0.11707 0.47046 0.98405 0.0
C6 C 0.03849 0.40796 0.98155 0.0
C7 C 0.05435 0.4863 0.99184 0.0
C8 C 0.13391 0.54899 0.98889 0.0
C9 C 0.18025 0.56308 0.98244 0.0
N10 N 0.1624 0.48465 0.9805 0.0
C11 C 0.19387 0.53026 0.97743 0.0
H12 H 0.22974 0.54168 0.97226 0.0
C13 C 0.073 0.34912 0.96581 0.0
N14 N 0.10233 0.3949 0.9737 0.0
C15 C 0.02557 0.33141 0.96709 0.0
C16 C 0.00821 0.3609 0.9754 0.0
H17 H 0.08618 0.3261 0.9597 0.0
H18 H 0.04199 0.51024 0.99596 0.0
H19 H 0.1976 0.30839 0.08336 0.0
H20 H 0.1234 0.57447 0.99252 0.0
H21 H 0.20553 0.5992 0.98129 0.0
H22 H 0.98647 0.42751 0.98971 0.0
H23 H 0.35858 0.51737 0.09986 0.0
H24 H 0.29218 0.26029 0.05993 0.0
H25 H 0.21275 0.24459 0.07263 0.0
H26 H 0.4384 0.39828 0.06206 0.0
H27 H 1.00245 0.29503 0.96173 0.0
H28 H 0.97146 0.34709 0.97628 0.0
H29 H 0.37637 0.31794 0.05558 0.0
H30 H 0.44055 0.53975 0.09633 0.0
N31 N 0.26766 0.36027 0.07561 0.0
C32 C 0.28574 0.28855 0.06467 0.0
C33 C 0.2409 0.27956 0.07194 0.0
C34 C 0.32186 0.33389 0.06504 0.0
C35 C 0.31156 0.36941 0.07108 0.0
C36 C 0.23247 0.31598 0.07811 0.0
N37 N 0.33488 0.44723 0.08215 0.0
C38 C 0.34631 0.4144 0.07432 0.0
C39 C 0.41439 0.50439 0.08977 0.0
C40 C 0.42675 0.47124 0.07927 0.0
C41 C 0.36801 0.49162 0.09185 0.0
C42 C 0.39255 0.42547 0.07215 0.0
H43 H 0.46266 0.48113 0.07792 0.0
O44 O 0.27645 0.4602 0.16125 0.0
O45 O 0.21232 0.45204 0.05703 0.0
O46 O 0.25554 0.48601 0.96613 0.0
O47 O 0.30278 0.46391 1.01126 0.0
O48 O 0.27374 0.49694 0.09451 0.0
O49 O 0.23276 0.38637 0.16057 0.0
O50 O 0.1633 0.3947 0.89282 0.0
O51 O 0.2278 0.40106 0.99991 0.0
O52 O 0.18025 0.36922 0.09521 0.0
O53 O 0.13807 0.39596 0.04799 0.0
O54 O 0.17071 0.35538 0.95785 0.0
O55 O 0.20914 0.46823 0.89954 0.0
C56 C 0.23656 0.49282 0.07401 0.0
C57 C 0.40309 0.39045 0.06429 0.0
C58 C 0.36778 0.34472 0.06066 0.0
C59 C 0.25458 0.42316 0.19077 0.0
C60 C 0.27841 0.42022 0.23991 0.0
C61 C 0.3191 0.41869 0.23555 0.0
C62 C 0.26094 0.42111 0.29226 0.0
C63 C 0.28443 0.42153 0.34041 0.0
C64 C 0.34243 0.41869 0.28326 0.0
C65 C 0.32546 0.42046 0.33543 0.0
C66 C 0.29599 0.48944 0.97493 0.0
C67 C 0.20814 0.36137 0.9797 0.0
C68 C 0.18714 0.4333 0.86646 0.0
C69 C 0.16611 0.44061 0.81738 0.0
C70 C 0.13308 0.45408 0.82181 0.0
C71 C 0.18087 0.43545 0.76504 0.0
C72 C 0.16384 0.44479 0.71659 0.0
C73 C 0.1154 0.4628 0.77414 0.0
C74 C 0.13077 0.45852 0.72194 0.0
C75 C 0.14175 0.37027 0.08656 0.0
H76 H 0.33299 0.41798 0.19547 0.0
H77 H 0.2297 0.42279 0.2955 0.0
H78 H 0.37394 0.41768 0.27981 0.0
H79 H 0.34418 0.42065 0.37188 0.0
H80 H 0.12136 0.45821 0.86191 0.0
H81 H 0.20576 0.42411 0.76237 0.0
H82 H 0.09011 0.47352 0.77764 0.0
H83 H 0.11731 0.46682 0.68596 0.0
Gd84 Gd 0.83809 0.25517 0.41689 0.0
Gd85 Gd 0.76208 0.1801 0.30622 0.0
C86 C 0.60646 0.1071 0.32078 0.0
C87 C 0.5864 0.02712 0.32464 0.0
C88 C 0.66602 0.08701 0.31499 0.0
C89 C 0.6531 0.12002 0.31632 0.0
C90 C 0.63278 0.04012 0.31806 0.0
C91 C 0.57334 0.06061 0.32614 0.0
C92 C 0.59436 0.14117 0.31822 0.0
C93 C 0.62827 0.18657 0.30926 0.0
N94 N 0.68593 0.16462 0.31061 0.0
C95 C 0.67406 0.19766 0.30464 0.0
H96 H 0.69987 0.23293 0.29788 0.0
C97 C 0.72516 0.06944 0.30188 0.0
N98 N 0.71111 0.10076 0.30886 0.0
C99 C 0.69347 0.02252 0.30471 0.0
C100 C 0.64712 0.00778 0.31342 0.0
H101 H 0.761 0.08078 0.29549 0.0
H102 H 0.53751 0.05034 0.33026 0.0
H103 H 0.89009 0.19168 0.42238 0.0
H104 H 0.55889 0.13264 0.32167 0.0
H105 H 0.61922 0.21309 0.30606 0.0
H106 H 0.56032 0.99129 0.32762 0.0
H107 H 0.85233 0.35976 0.43063 0.0
H108 H 0.03414 0.28042 0.40206 0.0
H109 H 0.96758 0.20269 0.41493 0.0
H110 H 0.05048 0.43008 0.39884 0.0
H111 H 0.70479 0.99777 0.30028 0.0
H112 H 0.62265 0.97142 0.31557 0.0
H113 H 0.06477 0.36525 0.39561 0.0
H114 H 0.91485 0.44054 0.4269 0.0
N115 N 0.9116 0.26249 0.41264 0.0
C116 C 1.00003 0.27584 0.40535 0.0
C117 C 0.96256 0.23196 0.41273 0.0
C118 C 0.99312 0.31342 0.40378 0.0
C119 C 0.94796 0.30551 0.408 0.0
C120 C 0.91847 0.22592 0.41707 0.0
N121 N 0.89632 0.33263 0.41571 0.0
C122 C 0.94001 0.3418 0.40942 0.0
C123 C 0.92242 0.41311 0.42166 0.0
C124 C 0.96744 0.42313 0.41264 0.0
C125 C 0.88717 0.36741 0.42387 0.0
C126 C 0.97683 0.38727 0.40721 0.0
H127 H 0.99475 0.45855 0.41116 0.0
O128 O 0.82775 0.28261 0.4935 0.0
O129 O 0.76647 0.21217 0.38807 0.0
O130 O 0.77984 0.25349 0.29254 0.0
O131 O 0.84513 0.30169 0.34458 0.0
O132 O 0.78283 0.27385 0.4245 0.0
O133 O 0.84134 0.22627 0.49549 0.0
O134 O 0.78007 0.16048 0.22896 0.0
O135 O 0.83316 0.22569 0.33426 0.0
O136 O 0.81442 0.17889 0.432 0.0
O137 O 0.7474 0.13613 0.38108 0.0
O138 O 0.82183 0.1671 0.29541 0.0
O139 O 0.74507 0.19989 0.22836 0.0
C140 C 0.74999 0.23682 0.40341 0.0
C141 C 0.02175 0.39541 0.40109 0.0
C142 C 0.02988 0.35852 0.3993 0.0
C143 C 0.83447 0.25492 0.52438 0.0
C144 C 0.8637 0.27467 0.57314 0.0
C145 C 0.91043 0.30692 0.56799 0.0
C146 C 0.84464 0.25935 0.62572 0.0
C147 C 0.87213 0.27553 0.67332 0.0
C148 C 0.93789 0.32346 0.61512 0.0
C149 C 0.919 0.30773 0.66749 0.0
C150 C 0.81613 0.29398 0.30327 0.0
C151 C 0.85317 0.20525 0.31628 0.0
C152 C 0.76234 0.17976 0.19887 0.0
C153 C 0.73672 0.15444 0.14974 0.0
C154 C 0.69649 0.1119 0.15388 0.0
C155 C 0.75439 0.1728 0.09756 0.0
C156 C 0.73292 0.14847 0.04895 0.0
C157 C 0.67444 0.08772 0.10602 0.0
C158 C 0.69256 0.10561 0.05394 0.0
C159 C 0.77537 0.14022 0.42167 0.0
H160 H 0.92565 0.31891 0.5277 0.0
H161 H 0.80861 0.23389 0.62945 0.0
H162 H 0.97398 0.34831 0.61103 0.0
H163 H 0.94094 0.32095 0.70345 0.0
H164 H 0.68247 0.09728 0.19387 0.0
H165 H 0.78509 0.20616 0.09511 0.0
H166 H 0.64353 0.05467 0.10928 0.0
H167 H 0.67536 0.08539 1.01775 0.0
Gd168 Gd 0.58602 0.83119 0.74476 0.0
Gd169 Gd 0.58386 0.75526 0.6337 0.0
C170 C 0.50822 0.59932 0.64432 0.0
C171 C 0.57098 0.58327 0.64408 0.0
C172 C 0.58655 0.6618 0.63877 0.0
C173 C 0.54014 0.64659 0.64149 0.0
C174 C 0.60254 0.63032 0.63952 0.0
C175 C 0.52391 0.56786 0.64638 0.0
C176 C 0.46144 0.58498 0.64344 0.0
C177 C 0.44758 0.61745 0.63792 0.0
N178 N 0.52612 0.67788 0.63858 0.0
C179 C 0.48058 0.66393 0.63463 0.0
H180 H 0.46931 0.68854 0.63011 0.0
C181 C 0.66196 0.72392 0.62742 0.0
N182 N 0.61605 0.70744 0.63397 0.0
C183 C 0.6795 0.69407 0.62831 0.0
C184 C 0.64971 0.64707 0.63474 0.0
H185 H 0.68517 0.76022 0.62265 0.0
H186 H 0.49974 0.53155 0.64861 0.0
H187 H 0.70127 0.88758 0.74771 0.0
H188 H 0.43583 0.54895 0.64565 0.0
H189 H 0.4115 0.60673 0.63608 0.0
H190 H 0.58256 0.55852 0.64488 0.0
H191 H 0.49214 0.83968 0.7598 0.0
H192 H 0.74994 0.03056 0.72673 0.0
H193 H 0.76533 0.96664 0.73909 0.0
H194 H 0.61199 0.03892 0.72595 0.0
H195 H 0.71597 0.70732 0.62401 0.0
H196 H 0.66337 0.62401 0.63522 0.0
H197 H 0.69242 0.05721 0.72137 0.0
H198 H 0.46987 0.89931 0.75619 0.0
N199 N 0.6496 0.90596 0.73923 0.0
C200 C 0.72157 0.99583 0.73061 0.0
C201 C 0.73038 0.95986 0.73767 0.0
C202 C 0.67624 0.98666 0.72999 0.0
C203 C 0.64059 0.9408 0.73492 0.0
C204 C 0.69383 0.91497 0.74265 0.0
N205 N 0.56257 0.88625 0.74385 0.0
C206 C 0.59555 0.93057 0.73709 0.0
C207 C 0.50533 0.90857 0.75046 0.0
C208 C 0.53867 0.95417 0.74096 0.0
C209 C 0.51804 0.87494 0.7526 0.0
C210 C 0.58456 0.96579 0.73493 0.0
H211 H 0.52879 0.9802 0.73954 0.0
O212 O 0.54864 0.81465 0.82211 0.0
O213 O 0.55803 0.7593 0.71686 0.0
O214 O 0.52517 0.76968 0.62534 0.0
O215 O 0.54668 0.83811 0.67253 0.0
O216 O 0.51267 0.77504 0.75458 0.0
O217 O 0.62236 0.84353 0.82266 0.0
O218 O 0.61726 0.7684 0.55361 0.0
O219 O 0.60974 0.82637 0.66168 0.0
O220 O 0.6401 0.80911 0.75718 0.0
O221 O 0.61354 0.74074 0.7086 0.0
O222 O 0.65584 0.8157 0.61946 0.0
O223 O 0.54389 0.74237 0.55905 0.0
C224 C 0.51709 0.74239 0.73322 0.0
C225 C 0.61975 0.0114 0.72817 0.0
C226 C 0.66552 0.02181 0.72562 0.0
C227 C 0.58532 0.82911 0.85223 0.0
C228 C 0.5884 0.85608 0.90127 0.0
C229 C 0.58999 0.89832 0.89686 0.0
C230 C 0.58779 0.838 0.9536 0.0
C231 C 0.5877 0.86134 1.00169 0.0
C232 C 0.59029 0.92191 0.94455 0.0
C233 C 0.58879 0.90343 0.99673 0.0
C234 C 0.52163 0.80652 0.63512 0.0
C235 C 0.64962 0.84677 0.6421 0.0
C236 C 0.57904 0.75448 0.5266 0.0
C237 C 0.57142 0.72576 0.47774 0.0
C238 C 0.5578 0.67926 0.48242 0.0
C239 C 0.57623 0.74529 0.42533 0.0
C240 C 0.56631 0.71851 0.37708 0.0
C241 C 0.54858 0.65247 0.43492 0.0
C242 C 0.55247 0.67173 0.38264 0.0
C243 C 0.63873 0.76945 0.74808 0.0
H244 H 0.59054 0.91274 0.85678 0.0
H245 H 0.5861 0.80509 0.95686 0.0
H246 H 0.59134 0.95443 0.94107 0.0
H247 H 0.58883 0.92213 0.03318 0.0
H248 H 0.55389 0.66369 0.52258 0.0
H249 H 0.58768 0.78152 0.42246 0.0
H250 H 0.53775 0.61646 0.43864 0.0
H251 H 0.54377 0.6497 0.34678 0.0
Gd252 Gd 0.75066 0.58136 0.08361 0.0
Gd253 Gd 0.82326 0.57528 0.9731 0.0
C254 C 0.9041 0.50037 0.98952 0.0
C255 C 0.98285 0.56313 0.98652 0.0
C256 C 0.91969 0.57825 0.97839 0.0
C257 C 0.88861 0.53203 0.9837 0.0
C258 C 0.96719 0.59432 0.97893 0.0
C259 C 0.95132 0.51624 0.99189 0.0
C260 C 0.87169 0.45362 0.99148 0.0
C261 C 0.82529 0.43944 0.98568 0.0
N262 N 0.84324 0.51784 0.98082 0.0
C263 C 0.81167 0.47216 0.97947 0.0
H264 H 0.77571 0.46063 0.97499 0.0
C265 C 0.93266 0.65294 0.96177 0.0
N266 N 0.90336 0.60744 0.97139 0.0
C267 C 0.98008 0.67053 0.96205 0.0
C268 C 0.99746 0.64117 0.97113 0.0
H269 H 0.91955 0.67591 0.95498 0.0
H270 H 0.96367 0.49236 0.99683 0.0
H271 H 0.81614 0.69675 0.08537 0.0
H272 H 0.88219 0.42822 0.99611 0.0
H273 H 0.79995 0.40333 0.98605 0.0
H274 H 0.01922 0.57483 0.98748 0.0
H275 H 0.64516 0.49222 0.09691 0.0
H276 H 0.72945 0.75401 0.06164 0.0
H277 H 0.80664 0.76397 0.07535 0.0
H278 H 0.57855 0.62242 0.05981 0.0
H279 H 1.00318 0.70672 0.95533 0.0
H280 H 0.0342 0.65489 0.9713 0.0
H281 H 0.64438 0.70091 0.05544 0.0
H282 H 0.56483 0.47545 0.09169 0.0
N283 N 0.74498 0.64826 0.07649 0.0
C284 C 0.73336 0.72416 0.06613 0.0
C285 C 0.77694 0.72991 0.07397 0.0
C286 C 0.69522 0.67998 0.06548 0.0
C287 C 0.70225 0.64229 0.07125 0.0
C288 C 0.78212 0.69145 0.07977 0.0
N289 N 0.6736 0.56331 0.08081 0.0
C290 C 0.66536 0.59833 0.07332 0.0
C291 C 0.59278 0.51016 0.08617 0.0
C292 C 0.58372 0.54565 0.07602 0.0
C293 C 0.63819 0.51975 0.08923 0.0
C294 C 0.62021 0.59052 0.07021 0.0
H295 H 0.54855 0.53823 0.07388 0.0
O296 O 0.72239 0.54608 0.16127 0.0
O297 O 0.79314 0.55178 0.05673 0.0
O298 O 0.75035 0.51634 0.9676 0.0
O299 O 0.70401 0.53993 1.01209 0.0
O300 O 0.73301 0.50817 0.09744 0.0
O301 O 0.7798 0.61567 0.1612 0.0
O302 O 0.83614 0.6075 0.89265 0.0
O303 O 0.77835 0.60219 0.99973 0.0
O304 O 0.82745 0.63312 0.09697 0.0
O305 O 0.86916 0.60743 0.046 0.0
O306 O 0.83604 0.64743 0.95794 0.0
O307 O 0.80061 0.53337 0.89879 0.0
C308 C 0.76962 0.51171 0.07581 0.0
C309 C 0.61297 0.62774 0.06272 0.0
C310 C 0.65044 0.67241 0.06028 0.0
C311 C 0.75078 0.5811 0.19109 0.0
C312 C 0.73195 0.59215 0.23954 0.0
C313 C 0.70239 0.60989 0.23398 0.0
C314 C 0.74543 0.58638 0.29234 0.0
C315 C 0.7301 0.59884 0.33982 0.0
C316 C 0.68674 0.62205 0.28097 0.0
C317 C 0.70065 0.61684 0.3336 0.0
C318 C 0.71022 0.51352 0.9764 0.0
C319 C 0.79869 0.6419 0.97971 0.0
C320 C 0.81729 0.56874 0.86594 0.0
C321 C 0.84148 0.56724 0.81627 0.0
C322 C 0.88262 0.56659 0.81979 0.0
C323 C 0.82387 0.56882 0.76433 0.0
C324 C 0.84754 0.57077 0.71544 0.0
C325 C 0.90613 0.56791 0.77165 0.0
C326 C 0.88898 0.57025 0.71988 0.0
C327 C 0.86579 0.63214 0.08624 0.0
H328 H 0.69181 0.61466 0.1935 0.0
H329 H 0.76882 0.57324 0.29637 0.0
H330 H 0.66396 0.63582 0.2766 0.0
H331 H 0.68813 0.62653 0.36942 0.0
H332 H 0.8967 0.56555 0.85956 0.0
H333 H 0.79163 0.56859 0.76229 0.0
H334 H 0.93811 0.56775 0.77448 0.0
H335 H 0.90873 0.57253 0.68351 0.0
Gd336 Gd 0.17132 0.75756 0.41797 0.0
Gd337 Gd 0.24978 0.82402 0.30334 0.0
C338 C 0.40479 0.91818 0.32202 0.0
C339 C 0.41339 0.99383 0.31271 0.0
C340 C 0.33811 0.92564 0.30525 0.0
C341 C 0.35707 0.89837 0.31469 0.0
C342 C 0.36608 0.97373 0.3032 0.0
C343 C 0.43266 0.96602 0.32216 0.0
C344 C 0.42325 0.88931 0.32725 0.0
C345 C 0.39446 0.84205 0.32281 0.0
N346 N 0.32915 0.85232 0.31362 0.0
C347 C 0.34741 0.82414 0.31505 0.0
H348 H 0.32586 0.7876 0.31098 0.0
C349 C 0.27262 0.93045 0.2819 0.0
N350 N 0.29226 0.90492 0.29651 0.0
C351 C 0.29889 0.97826 0.27956 0.0
C352 C 0.34576 1.00006 0.29081 0.0
H353 H 0.23647 0.91425 0.27325 0.0
H354 H 0.46922 0.98163 0.32828 0.0
H355 H 0.1227 0.82736 0.42303 0.0
H356 H 0.45973 0.90317 0.333 0.0
H357 H 0.40845 0.81936 0.32526 0.0
H358 H 0.43544 0.03071 0.31181 0.0
H359 H 0.14929 0.64785 0.42713 0.0
H360 H 0.98095 0.74422 0.3881 0.0
H361 H 0.04809 0.81966 0.40867 0.0
H362 H 0.95729 0.5927 0.37684 0.0
H363 H 0.28294 0.99827 0.26908 0.0
H364 H 0.36602 0.0371 0.28889 0.0
H365 H 0.94775 0.66023 0.3756 0.0
H366 H 0.08365 0.56994 0.4151 0.0
N367 N 0.10045 0.75622 0.40983 0.0
C368 C 0.01411 0.74707 0.3945 0.0
C369 C 0.05191 0.78968 0.40609 0.0
C370 C 0.01926 0.70849 0.39236 0.0
C371 C 0.06328 0.71393 0.40073 0.0
C372 C 0.09482 0.7937 0.41411 0.0
N373 N 0.11101 0.6811 0.40905 0.0
C374 C 0.06872 0.67558 0.40033 0.0
C375 C 0.07903 0.59929 0.41029 0.0
C376 C 0.03606 0.59317 0.39728 0.0
C377 C 0.11608 0.64356 0.41715 0.0
C378 C 0.03025 0.63135 0.39307 0.0
H379 H 0.00734 0.55876 0.39205 0.0
O380 O 0.18389 0.7212 0.48344 0.0
O381 O 0.24233 0.78711 0.3824 0.0
O382 O 0.24407 0.75469 0.31347 0.0
O383 O 0.17272 0.70881 0.35232 0.0
O384 O 0.23733 0.79738 0.4652 0.0
O385 O 0.14965 0.76071 0.50132 0.0
O386 O 0.22624 0.82435 0.21956 0.0
O387 O 0.1781 0.7796 0.33169 0.0
O388 O 0.19233 0.83314 0.42537 0.0
O389 O 0.25846 0.87379 0.37119 0.0
O390 O 0.18875 0.83263 0.28189 0.0
O391 O 0.273 0.79961 0.23425 0.0
C392 C 0.2654 0.8048 0.42572 0.0
C393 C 0.98698 0.62633 0.38315 0.0
C394 C 0.98154 0.66477 0.38261 0.0
C395 C 0.16636 0.73592 0.52116 0.0
C396 C 0.14363 0.7069 0.5694 0.0
C397 C 0.10604 0.66252 0.56428 0.0
C398 C 0.16082 0.7246 0.62215 0.0
C399 C 0.14141 0.69796 0.66977 0.0
C400 C 0.0866 0.63576 0.61141 0.0
C401 C 0.10431 0.65315 0.66384 0.0
C402 C 0.20654 0.71443 0.31925 0.0
C403 C 0.15787 0.79761 0.30807 0.0
C404 C 0.25069 0.80864 0.1974 0.0
C405 C 0.27546 0.83104 0.1464 0.0
C406 C 0.3194 0.86971 0.14827 0.0
C407 C 0.25494 0.81274 0.09505 0.0
C408 C 0.27837 0.83221 0.04521 0.0
C409 C 0.34285 0.88943 0.0993 0.0
C410 C 0.32278 0.87079 0.04822 0.0
C411 C 0.2302 0.87152 0.41089 0.0
H412 H 0.09172 0.6486 0.52422 0.0
H413 H 0.18991 0.75899 0.62605 0.0
H414 H 0.05767 0.60141 0.60732 0.0
H415 H 0.08856 0.63189 0.69978 0.0
H416 H 0.33562 0.88434 0.18749 0.0
H417 H 0.22055 0.78345 0.09424 0.0
H418 H 0.37696 0.91906 0.10091 0.0
H419 H 0.34248 0.88629 1.01118 0.0
Gd420 Gd 0.42435 0.17463 0.74122 0.0
Gd421 Gd 0.42477 0.25091 0.6318 0.0
C422 C 0.50673 0.40606 0.65126 0.0
C423 C 0.44648 0.42561 0.65697 0.0
C424 C 0.42723 0.34652 0.64335 0.0
C425 C 0.47319 0.35955 0.64491 0.0
C426 C 0.41335 0.37948 0.64817 0.0
C427 C 0.49309 0.43881 0.65871 0.0
C428 C 0.55298 0.41839 0.64857 0.0
C429 C 0.56471 0.38485 0.63775 0.0
N430 N 0.48518 0.32702 0.63768 0.0
C431 C 0.53015 0.33915 0.63162 0.0
H432 H 0.53972 0.31355 0.62361 0.0
C433 C 0.35074 0.28753 0.62852 0.0
N434 N 0.3961 0.30159 0.63562 0.0
C435 C 0.33529 0.31899 0.63282 0.0
C436 C 0.36666 0.3651 0.64332 0.0
H437 H 0.32638 0.25184 0.62094 0.0
H438 H 0.51849 0.47447 0.66479 0.0
H439 H 0.30877 0.12226 0.74744 0.0
H440 H 0.5798 0.45377 0.65333 0.0
H441 H 0.60036 0.39412 0.63439 0.0
H442 H 0.43644 0.45135 0.66163 0.0
H443 H 0.51474 0.16054 0.75506 0.0
H444 H 0.25386 0.97852 0.72462 0.0
H445 H 0.24244 0.04479 0.73907 0.0
H446 H 0.38749 0.96264 0.72049 0.0
H447 H 0.29922 0.30764 0.62826 0.0
H448 H 0.3546 0.38938 0.64676 0.0
H449 H 0.3083 0.94818 0.71718 0.0
H450 H 0.53322 0.0982 0.75066 0.0
N451 N 0.35825 0.10106 0.7366 0.0
C452 C 0.28334 0.01264 0.7283 0.0
C453 C 0.27677 0.04993 0.73658 0.0
C454 C 0.32788 0.01969 0.72646 0.0
C455 C 0.36504 0.06483 0.73122 0.0
C456 C 0.31475 0.09401 0.74145 0.0
N457 N 0.44371 0.11653 0.73963 0.0
C458 C 0.40931 0.07288 0.73268 0.0
C459 C 0.49822 0.09058 0.74528 0.0
C460 C 0.46335 0.04561 0.7356 0.0
C461 C 0.48763 0.12573 0.7479 0.0
C462 C 0.41811 0.03617 0.72997 0.0
H463 H 0.47157 0.01839 0.73378 0.0
O464 O 0.46242 0.1851 0.81755 0.0
O465 O 0.45275 0.24636 0.71315 0.0
O466 O 0.48026 0.23295 0.61668 0.0
O467 O 0.46363 0.16774 0.66845 0.0
O468 O 0.49842 0.22979 0.74745 0.0
O469 O 0.39253 0.17154 0.82015 0.0
O470 O 0.38714 0.23293 0.55463 0.0
O471 O 0.39944 0.17972 0.65894 0.0
O472 O 0.37155 0.19786 0.75744 0.0
O473 O 0.39545 0.26508 0.70735 0.0
O474 O 0.35188 0.19159 0.62188 0.0
O475 O 0.46157 0.26903 0.55377 0.0
C476 C 0.49405 0.26285 0.72757 0.0
C477 C 0.38144 0.99128 0.72317 0.0
C478 C 0.33637 0.98306 0.72132 0.0
C479 C 0.42819 0.17862 0.84875 0.0
C480 C 0.41897 0.14982 0.89783 0.0
C481 C 0.40519 0.10324 0.89311 0.0
C482 C 0.42216 0.16908 0.95025 0.0
C483 C 0.41104 0.14194 0.99809 0.0
C484 C 0.39446 0.07613 0.94046 0.0
C485 C 0.3971 0.0952 0.99265 0.0
C486 C 0.4848 0.19682 0.62718 0.0
C487 C 0.35879 0.16006 0.6417 0.0
C488 C 0.42412 0.25126 0.52439 0.0
C489 C 0.42382 0.2766 0.47535 0.0
C490 C 0.42069 0.31637 0.47973 0.0
C491 C 0.42463 0.25906 0.42303 0.0
C492 C 0.42116 0.28023 0.37454 0.0
C493 C 0.41789 0.33809 0.43201 0.0
C494 C 0.41783 0.32012 0.37982 0.0
C495 C 0.37189 0.23695 0.74796 0.0
H496 H 0.40235 0.08785 0.85296 0.0
H497 H 0.43217 0.20499 0.95363 0.0
H498 H 0.38378 0.04015 0.93671 0.0
H499 H 0.38858 0.07352 0.02876 0.0
H500 H 0.41995 0.33026 0.51982 0.0
H501 H 0.42788 0.22871 0.42038 0.0
H502 H 0.4151 0.36863 0.43546 0.0
H503 H 0.41428 0.33705 0.34378 0.0
H504 H 0.30848 0.18738 0.82957 0.0
H505 H 0.37834 0.32075 0.75251 0.0
H506 H 0.26916 0.21441 0.89167 0.0
H507 H 0.33881 0.34686 0.81263 0.0
H508 H 0.29995 0.39989 0.95785 0.0
H509 H 0.33882 0.36664 0.90837 0.0
H510 H 0.21062 0.23979 0.89101 0.0
H511 H 0.17173 0.27318 0.94294 0.0
C512 C 0.31532 0.22224 0.82556 0.0
C513 C 0.34643 0.25164 0.78551 0.0
C514 C 0.29266 0.23768 0.86102 0.0
C515 C 0.30104 0.28299 0.85758 0.0
C516 C 0.33199 0.31205 0.81735 0.0
C517 C 0.35433 0.29672 0.78212 0.0
C518 C 0.28006 0.36464 0.94488 0.0
C519 C 0.23274 0.33912 0.95517 0.0
C520 C 0.30235 0.34559 0.91572 0.0
C521 C 0.27784 0.30062 0.89489 0.0
C522 C 0.23068 0.27441 0.90667 0.0
C523 C 0.20834 0.29358 0.93617 0.0
H524 H 0.1284 0.30676 0.16772 0.0
H525 H 0.06273 0.37381 0.0888 0.0
H526 H 0.06173 0.26641 0.22912 0.0
H527 H 0.99699 0.33342 0.14837 0.0
H528 H 0.90701 0.29681 0.29472 0.0
H529 H 0.97896 0.33519 0.24515 0.0
H530 H 0.97696 0.20671 0.22792 0.0
H531 H 0.90466 0.16816 0.27994 0.0
C532 C 0.09983 0.31271 0.16309 0.0
C533 C 0.10113 0.34354 0.12293 0.0
C534 C 0.06159 0.2895 0.19817 0.0
C535 C 0.02415 0.29703 0.19416 0.0
C536 C 0.02545 0.32736 0.15352 0.0
C537 C 0.06323 0.35024 0.11867 0.0
C538 C 0.92214 0.27671 0.28173 0.0
C539 C 0.90008 0.22939 0.29199 0.0
C540 C 0.96339 0.29873 0.25257 0.0
C541 C 0.98356 0.27399 0.23169 0.0
C542 C 0.96252 0.22687 0.24358 0.0
C543 C 0.92103 0.20476 0.27313 0.0
H544 H 0.82452 0.12489 0.5025 0.0
H545 H 0.6917 0.06272 0.42385 0.0
H546 H 0.79722 0.05699 0.56186 0.0
H547 H 0.66548 0.99563 0.48091 0.0
H548 H 0.61092 0.8999 0.62127 0.0
H549 H 0.64461 0.97326 0.57513 0.0
H550 H 0.77221 0.97327 0.5584 0.0
H551 H 0.73837 0.89971 0.60744 0.0
C552 C 0.78974 0.09686 0.49757 0.0
C553 C 0.76056 0.0994 0.45788 0.0
C554 C 0.77416 0.05788 0.53142 0.0
C555 C 0.72896 0.02087 0.52661 0.0
C556 C 0.70017 0.02362 0.48673 0.0
C557 C 0.71559 0.06217 0.45321 0.0
C558 C 0.64642 0.91578 0.60921 0.0
C559 C 0.67203 0.89403 0.61899 0.0
C560 C 0.66573 0.95785 0.58192 0.0
C561 C 0.71106 0.97912 0.5622 0.0
C562 C 0.73732 0.95811 0.57328 0.0
C563 C 0.71788 0.91586 0.60108 0.0
H564 H 0.63323 0.686 0.75025 0.0
H565 H 0.70136 0.81825 0.83071 0.0
H566 H 0.67177 0.65917 0.81078 0.0
H567 H 0.73989 0.79053 0.89286 0.0
H568 H 0.8364 0.73033 0.94383 0.0
H569 H 0.79861 0.76465 0.89174 0.0
H570 H 0.66943 0.63866 0.90747 0.0
H571 H 0.70718 0.60449 0.95746 0.0
C572 C 0.65665 0.70964 0.78069 0.0
C573 C 0.66425 0.75458 0.78507 0.0
C574 C 0.67844 0.6939 0.81606 0.0
C575 C 0.7086 0.72242 0.85726 0.0
C576 C 0.71692 0.76767 0.86148 0.0
C577 C 0.69477 0.78352 0.82595 0.0
C578 C 0.7998 0.71034 0.93672 0.0
C579 C 0.77478 0.66478 0.95536 0.0
C580 C 0.77811 0.73003 0.90713 0.0
C581 C 0.73103 0.7043 0.89484 0.0
C582 C 0.70587 0.65931 0.91532 0.0
C583 C 0.72749 0.63976 0.94469 0.0
H584 H 0.10706 0.70608 0.28595 0.0
H585 H 0.10323 0.83186 0.27742 0.0
H586 H 0.03336 0.66565 0.23894 0.0
H587 H 0.02975 0.79174 0.22848 0.0
H588 H 0.88008 0.69366 0.17047 0.0
H589 H 0.94714 0.73225 0.23136 0.0
H590 H 0.01055 0.66625 0.14469 0.0
H591 H 0.94423 0.62742 0.08564 0.0
C592 C 0.08997 0.7249 0.27499 0.0
C593 C 0.11044 0.77194 0.28636 0.0
C594 C 0.04793 0.70187 0.24736 0.0
C595 C 0.0257 0.72549 0.22932 0.0
C596 C 0.04561 0.77236 0.24216 0.0
C597 C 0.08775 0.79539 0.26995 0.0
C598 C 0.90839 0.6875 0.16447 0.0
C599 C 0.90663 0.65759 0.12263 0.0
C600 C 0.94687 0.70967 0.1993 0.0
C601 C 0.98417 0.70208 0.19334 0.0
C602 C 0.98224 0.67234 0.15137 0.0
C603 C 0.94418 0.65045 0.11675 0.0
H604 H 0.39603 0.10624 0.61675 0.0
H605 H 0.26997 0.10959 0.6068 0.0
H606 H 0.36166 0.03526 0.56458 0.0
H607 H 0.23537 0.03828 0.55285 0.0
H608 H 0.18218 0.88679 0.49288 0.0
H609 H 0.2102 0.95381 0.55359 0.0
H610 H 0.33962 0.01779 0.46725 0.0
H611 H 0.31237 0.95143 0.40781 0.0
C612 C 0.3607 0.0915 0.60427 0.0
C613 C 0.33569 0.11353 0.61649 0.0
C614 C 0.34105 0.05089 0.57367 0.0
C615 C 0.29593 0.03134 0.55372 0.0
C616 C 0.27016 0.05232 0.5677 0.0
C617 C 0.28998 0.09319 0.59844 0.0
C618 C 0.21645 0.91534 0.48652 0.0
C619 C 0.24479 0.91353 0.44493 0.0
C620 C 0.23248 0.95377 0.52134 0.0
C621 C 0.27736 0.99099 0.51576 0.0
C622 C 0.30517 0.98946 0.47347 0.0
C623 C 0.28918 0.95142 0.43868 0.0
H624 H 0.25079 0.46398 0.68841 0.0
H625 H 0.1167 0.41738 0.61799 0.0
H626 H 0.27859 0.4558 0.5994 0.0
H627 H 0.14578 0.41338 0.52761 0.0
H628 H 0.19795 0.36812 0.38107 0.0
H629 H 0.16871 0.37262 0.47166 0.0
H630 H 0.30142 0.48801 0.5131 0.0
H631 H 0.3308 0.48151 0.42366 0.0
C632 C 0.22706 0.45195 0.65405 0.0
C633 C 0.18121 0.44105 0.66103 0.0
C634 C 0.24339 0.4481 0.60238 0.0
C635 C 0.21469 0.43412 0.55566 0.0
C636 C 0.16892 0.4236 0.56249 0.0
C637 C 0.15235 0.42668 0.61444 0.0
C638 C 0.22075 0.39429 0.40982 0.0
C639 C 0.26668 0.42428 0.39556 0.0
C640 C 0.20397 0.39717 0.46169 0.0
C641 C 0.23254 0.43072 0.50026 0.0
C642 C 0.27848 0.461 0.4854 0.0
C643 C 0.29541 0.45752 0.43394 0.0
H644 H 0.82401 0.19898 0.02078 0.0
H645 H 0.68813 0.14094 0.95097 0.0
H646 H 0.85715 0.23161 0.93187 0.0
H647 H 0.72148 0.17039 0.86075 0.0
H648 H 0.79315 0.26662 0.71669 0.0
H649 H 0.75978 0.23705 0.80727 0.0
H650 H 0.87162 0.21307 0.84423 0.0
H651 H 0.9056 0.24437 0.75458 0.0
C652 C 0.80105 0.19313 0.98658 0.0
C653 C 0.75319 0.16743 0.99361 0.0
C654 C 0.82021 0.21126 0.93505 0.0
C655 C 0.79217 0.20362 0.88865 0.0
C656 C 0.74431 0.17764 0.89551 0.0
C657 C 0.7251 0.16003 0.94729 0.0
C658 C 0.8105 0.25501 0.74434 0.0
C659 C 0.85204 0.25794 0.72869 0.0
C660 C 0.79128 0.23779 0.79621 0.0
C661 C 0.81283 0.22247 0.83344 0.0
C662 C 0.85438 0.22532 0.8174 0.0
C663 C 0.87387 0.24312 0.76586 0.0
H664 H 0.59278 0.69814 0.27818 0.0
H665 H 0.54678 0.78597 0.34932 0.0
H666 H 0.59626 0.73095 0.18786 0.0
H667 H 0.5545 0.8217 0.26042 0.0
H668 H 0.52798 0.84784 0.08513 0.0
H669 H 0.52171 0.81194 0.17436 0.0
H670 H 0.63716 0.79485 0.13226 0.0
H671 H 0.64144 0.82862 0.04188 0.0
C672 C 0.58351 0.7245 0.27479 0.0
C673 C 0.56953 0.73925 0.32155 0.0
C674 C 0.58628 0.74399 0.2229 0.0
C675 C 0.57583 0.77929 0.21636 0.0
C676 C 0.56215 0.79417 0.26322 0.0
C677 C 0.55858 0.77415 0.31481 0.0
C678 C 0.55205 0.8365 0.09524 0.0
C679 C 0.58523 0.84107 0.05677 0.0
C680 C 0.54869 0.81607 0.14654 0.0
C681 C 0.57905 0.80048 0.16112 0.0
C682 C 0.61256 0.80553 0.12247 0.0
C683 C 0.61532 0.82521 0.07075 0.0
H684 H 0.85234 0.53308 0.61639 0.0
H685 H 0.80178 0.61664 0.68888 0.0
H686 H 0.82486 0.54068 0.52653 0.0
H687 H 0.77101 0.62102 0.6001 0.0
H688 H 0.76335 0.66191 0.42322 0.0
H689 H 0.79182 0.65519 0.51315 0.0
H690 H 0.75917 0.51709 0.47254 0.0
H691 H 0.73242 0.52481 0.38183 0.0
C692 C 0.8353 0.553 0.61338 0.0
C693 C 0.82948 0.57425 0.66034 0.0
C694 C 0.81879 0.55675 0.56176 0.0
C695 C 0.79546 0.58139 0.55566 0.0
C696 C 0.78932 0.6023 0.60271 0.0
C697 C 0.80637 0.59909 0.65413 0.0
C698 C 0.76206 0.63006 0.43376 0.0
C699 C 0.74571 0.59392 0.39549 0.0
C700 C 0.77824 0.62606 0.48546 0.0
C701 C 0.77792 0.58554 0.50052 0.0
C702 C 0.76091 0.54917 0.46226 0.0
C703 C 0.7453 0.55344 0.41029 0.0
H704 H 0.15955 0.78031 0.71272 0.0
H705 H 0.16534 0.65859 0.75215 0.0
H706 H 0.19025 0.81191 0.80355 0.0
H707 H 0.19823 0.69079 0.8421 0.0
H708 H 0.22042 0.74152 1.0183 0.0
H709 H 0.18515 0.70936 0.92985 0.0
H710 H 0.25557 0.8447 0.85757 0.0
H711 H 0.28749 0.87725 0.94706 0.0
C712 C 0.16787 0.76053 0.74078 0.0
C713 C 0.16003 0.71699 0.72537 0.0
C714 C 0.18578 0.77872 0.79287 0.0
C715 C 0.19713 0.75419 0.83068 0.0
C716 C 0.18923 0.71053 0.81493 0.0
C717 C 0.17057 0.69204 0.76315 0.0
C718 C 0.22774 0.76466 0.98393 0.0
C719 C 0.25695 0.81221 0.99044 0.0
C720 C 0.20803 0.746 0.93261 0.0
C721 C 0.21744 0.77418 0.88589 0.0
C722 C 0.24674 0.82171 0.89241 0.0
C723 C 0.26586 0.84044 0.94389 0.0
H724 H 0.3821 0.18926 0.34604 0.0
H725 H 0.45741 0.32533 0.27642 0.0
H726 H 0.38189 0.15655 0.2568 0.0
H727 H 0.45381 0.29233 0.18595 0.0
H728 H 0.47991 0.222 0.04106 0.0
H729 H 0.48313 0.25521 0.13167 0.0
H730 H 0.34857 0.14145 0.16937 0.0
H731 H 0.34647 0.10769 0.07965 0.0
C732 C 0.39872 0.21236 0.31182 0.0
C733 C 0.42007 0.26015 0.31901 0.0
C734 C 0.39786 0.19343 0.2601 0.0
C735 C 0.41765 0.22161 0.21366 0.0
C736 C 0.43873 0.2694 0.2207 0.0
C737 C 0.44015 0.28839 0.27266 0.0
C738 C 0.45108 0.2042 0.06884 0.0
C739 C 0.41303 0.16217 0.05335 0.0
C740 C 0.45274 0.22333 0.12075 0.0
C741 C 0.4161 0.20118 0.15826 0.0
C742 C 0.37791 0.15918 0.14235 0.0
C743 C 0.37655 0.13981 0.09075 0.0
H744 H 0.28061 0.5845 0.07 0.0
H745 H 0.15674 0.46837 0.13069 0.0
H746 H 0.26679 0.63548 0.12768 0.0
H747 H 0.14379 0.5193 0.19148 0.0
H748 H 0.13022 0.63878 0.27655 0.0
H749 H 0.12965 0.58346 0.20951 0.0
H750 H 0.27685 0.64781 0.2241 0.0
H751 H 0.27735 0.70295 0.28866 0.0
C752 C 0.24974 0.5701 0.09487 0.0
C753 C 0.2197 0.52267 0.09573 0.0
C754 C 0.24211 0.59916 0.12871 0.0
C755 C 0.20507 0.58143 0.16598 0.0
C756 C 0.17281 0.53418 0.16363 0.0
C757 C 0.18003 0.50499 0.12858 0.0
C758 C 0.16224 0.64043 0.26584 0.0
C759 C 0.2039 0.67553 0.2874 0.0
C760 C 0.16197 0.60892 0.22726 0.0
C761 C 0.20336 0.61195 0.20987 0.0
C762 C 0.24444 0.64537 0.23454 0.0
C763 C 0.24473 0.6768 0.27225 0.0
H764 H 0.68807 0.15203 0.44595 0.0
H765 H 0.70724 0.28566 0.40933 0.0
H766 H 0.61712 0.13262 0.49628 0.0
H767 H 0.6371 0.26665 0.45878 0.0
H768 H 0.49695 0.21673 0.51826 0.0
H769 H 0.55362 0.21656 0.4565 0.0
H770 H 0.59898 0.16098 0.58641 0.0
H771 H 0.54121 0.16071 0.64877 0.0
C772 C 0.6764 0.17667 0.4473 0.0
C773 C 0.70275 0.2202 0.42322 0.0
C774 C 0.63616 0.1658 0.47663 0.0
C775 C 0.62144 0.1981 0.48169 0.0
C776 C 0.64697 0.24071 0.45525 0.0
C777 C 0.68722 0.25169 0.42687 0.0
C778 C 0.51869 0.20411 0.53379 0.0
C779 C 0.51521 0.1897 0.58895 0.0
C780 C 0.55116 0.20391 0.49819 0.0
C781 C 0.58143 0.18955 0.51669 0.0
C782 C 0.57606 0.17215 0.5708 0.0
C783 C 0.54308 0.1721 0.60663 0.0
H784 H 0.30946 0.57264 0.94718 0.0
H785 H 0.36965 0.48656 0.92887 0.0
H786 H 0.36436 0.62716 0.88258 0.0
H787 H 0.42502 0.54147 0.86189 0.0
H788 H 0.54161 0.68604 0.78717 0.0
H789 H 0.49068 0.62093 0.8462 0.0
H790 H 0.37444 0.62881 0.7849 0.0
H791 H 0.42538 0.69472 0.72887 0.0
C792 C 0.33462 0.56541 0.92924 0.0
C793 C 0.3348 0.52502 0.94255 0.0
C794 C 0.36596 0.59653 0.89163 0.0
C795 C 0.39824 0.58807 0.86533 0.0
C796 C 0.40033 0.54885 0.88092 0.0
C797 C 0.36884 0.51754 0.9194 0.0
C798 C 0.50498 0.6727 0.78515 0.0
C799 C 0.48726 0.69531 0.75363 0.0
C800 C 0.47581 0.63557 0.81915 0.0
C801 C 0.42858 0.62054 0.82174 0.0
C802 C 0.41078 0.64044 0.78557 0.0
C803 C 0.43981 0.67781 0.75277 0.0
H804 H 0.80012 0.28613 0.19359 0.0
H805 H 0.84902 0.38599 0.3252 0.0
H806 H 0.79873 0.34166 0.13109 0.0
H807 H 0.84759 0.44231 0.26183 0.0
H808 H 0.72233 0.42023 0.08483 0.0
H809 H 0.74385 0.37145 0.13536 0.0
H810 H 0.87717 0.48837 0.16862 0.0
H811 H 0.85544 0.53742 0.11683 0.0
C812 C 0.81099 0.32019 0.20913 0.0
C813 C 0.82364 0.33131 0.26479 0.0
C814 C 0.81036 0.35208 0.17312 0.0
C815 C 0.82229 0.39611 0.19168 0.0
C816 C 0.8383 0.40861 0.2463 0.0
C817 C 0.83905 0.3764 0.28263 0.0
C818 C 0.75666 0.43527 0.10165 0.0
C819 C 0.78736 0.48234 0.09631 0.0
C820 C 0.76905 0.4074 0.13065 0.0
C821 C 0.81221 0.42606 0.15618 0.0
C822 C 0.84363 0.4731 0.1496 0.0
C823 C 0.83142 0.50101 0.11945 0.0
H824 H 0.30225 0.75056 0.40544 0.0
H825 H 0.33045 0.8777 0.48125 0.0
H826 H 0.36976 0.75613 0.44975 0.0
H827 H 0.39586 0.88188 0.5296 0.0
H828 H 0.52318 0.8851 0.60054 0.0
H829 H 0.46846 0.89039 0.5387 0.0
H830 H 0.38603 0.74248 0.53695 0.0
H831 H 0.44149 0.73766 0.59538 0.0
C832 C 0.32391 0.7805 0.43024 0.0
C833 C 0.31212 0.81447 0.4385 0.0
C834 C 0.36204 0.78325 0.45696 0.0
C835 C 0.38803 0.8189 0.49479 0.0
C836 C 0.37732 0.85409 0.50069 0.0
C837 C 0.33979 0.85181 0.47288 0.0
C838 C 0.49321 0.85388 0.58682 0.0
C839 C 0.48684 0.81097 0.6025 0.0
C840 C 0.46176 0.8568 0.55129 0.0
C841 C 0.42284 0.81683 0.53149 0.0
C842 C 0.41615 0.77412 0.54908 0.0
C843 C 0.44782 0.77127 0.58346 0.0
H844 H 0.69413 0.42858 0.95345 0.0
H845 H 0.63911 0.51817 0.92609 0.0
H846 H 0.64029 0.37413 0.8876 0.0
H847 H 0.58483 0.4633 0.85807 0.0
H848 H 0.46864 0.31928 0.78035 0.0
H849 H 0.51787 0.38348 0.84165 0.0
H850 H 0.63518 0.37392 0.7883 0.0
H851 H 0.58591 0.30916 0.72949 0.0
C852 C 0.67018 0.43648 0.93343 0.0
C853 C 0.67121 0.47784 0.94442 0.0
C854 C 0.63952 0.40543 0.89516 0.0
C855 C 0.6092 0.41497 0.86598 0.0
C856 C 0.60805 0.45512 0.87942 0.0
C857 C 0.63886 0.48637 0.9185 0.0
C858 C 0.50518 0.33199 0.78061 0.0
C859 C 0.5236 0.30923 0.75045 0.0
C860 C 0.53336 0.36861 0.81589 0.0
C861 C 0.58026 0.38291 0.82127 0.0
C862 C 0.59898 0.36282 0.78669 0.0
C863 C 0.57093 0.32608 0.7524 0.0
loop_
_geom_bond_atom_site_label_1
_geom_bond_atom_site_label_2
_geom_bond_distance
_geom_bond_site_symmetry_2
_ccdc_geom_bond_type
Gd0 N31 2.661 . S
Gd0 N37 2.601 . S
Gd0 O44 2.545 . S
Gd0 O45 2.606 . S
Gd0 O47 2.429 . S
Gd0 O48 2.545 . S
Gd0 O49 2.412 . S
Gd0 O51 2.362 1_554 S
Gd0 O52 2.324 . S
Gd0 C59 2.828 . S
Gd1 N10 2.661 . S
Gd1 N14 2.601 . S
Gd1 O45 2.362 1_556 S
Gd1 O46 2.324 . S
Gd1 O50 2.545 . S
Gd1 O51 2.606 . S
Gd1 O53 2.429 1_556 S
Gd1 O54 2.545 . S
Gd1 O55 2.412 . S
Gd1 C68 2.828 . S
C2 C5 1.417 . S
C2 C7 1.431 . S
C2 C8 1.412 . S
C3 C6 1.437 . S
C3 C7 1.317 . S
C3 H22 0.929 . S
C4 C5 1.426 . S
C4 C6 1.413 . S
C4 N14 1.359 . S
C5 C2 1.417 . S
C5 C4 1.426 . S
C5 N10 1.350 . S
C6 C3 1.437 . S
C6 C4 1.413 . S
C6 C16 1.391 . S
C7 C2 1.431 . S
C7 C3 1.317 . S
C7 H18 0.930 . S
C8 C2 1.412 . S
C8 C9 1.355 . S
C8 H20 0.930 . S
C9 C8 1.355 . S
C9 C11 1.402 . S
C9 H21 0.930 . S
N10 Gd1 2.661 . S
N10 C5 1.350 . S
N10 C11 1.307 . S
C11 C9 1.402 . S
C11 N10 1.307 . S
C11 H12 0.930 . S
H12 C11 0.930 . S
C13 N14 1.334 . S
C13 C15 1.394 . S
C13 H17 0.930 . S
N14 Gd1 2.601 . S
N14 C4 1.359 . S
N14 C13 1.334 . S
C15 C13 1.394 . S
C15 C16 1.359 . S
C15 H27 0.930 1_455 S
C16 C6 1.391 . S
C16 C15 1.359 . S
C16 H28 0.929 1_455 S
H17 C13 0.930 . S
H18 C7 0.930 . S
H19 C36 0.930 . S
H20 C8 0.930 . S
H21 C9 0.930 . S
H22 C3 0.929 . S
H23 C41 0.930 . S
H24 C32 0.930 . S
H25 C33 0.930 . S
H26 C57 0.929 . S
H27 C15 0.930 1_655 S
H28 C16 0.929 1_655 S
H29 C58 0.930 . S
H30 C39 0.930 . S
N31 Gd0 2.661 . S
N31 C35 1.350 . S
N31 C36 1.307 . S
C32 H24 0.930 . S
C32 C33 1.355 . S
C32 C34 1.412 . S
C33 H25 0.930 . S
C33 C32 1.355 . S
C33 C36 1.402 . S
C34 C32 1.412 . S
C34 C35 1.417 . S
C34 C58 1.431 . S
C35 N31 1.350 . S
C35 C34 1.417 . S
C35 C38 1.426 . S
C36 H19 0.930 . S
C36 N31 1.307 . S
C36 C33 1.402 . S
N37 Gd0 2.601 . S
N37 C38 1.359 . S
N37 C41 1.334 . S
C38 C35 1.426 . S
C38 N37 1.359 . S
C38 C42 1.413 . S
C39 H30 0.930 . S
C39 C40 1.359 . S
C39 C41 1.394 . S
C40 C39 1.359 . S
C40 C42 1.391 . S
C40 H43 0.929 . S
C41 H23 0.930 . S
C41 N37 1.334 . S
C41 C39 1.394 . S
C42 C38 1.413 . S
C42 C40 1.391 . S
C42 C57 1.437 . S
H43 C40 0.929 . S
O44 Gd0 2.545 . S
O44 C59 1.258 . S
O45 Gd0 2.606 . S
O45 Gd1 2.362 1_554 S
O45 C56 1.284 . S
O46 Gd1 2.324 . S
O46 C66 1.254 . S
O47 Gd0 2.429 . S
O47 C66 1.268 1_554 S
O48 Gd0 2.545 . S
O48 C56 1.250 . S
O49 Gd0 2.412 . S
O49 C59 1.252 . S
O50 Gd1 2.545 . S
O50 C68 1.258 . S
O51 Gd0 2.362 1_556 S
O51 Gd1 2.606 . S
O51 C67 1.284 . S
O52 Gd0 2.324 . S
O52 C75 1.254 . S
O53 Gd1 2.429 1_554 S
O53 C75 1.268 . S
O54 Gd1 2.545 . S
O54 C67 1.250 . S
O55 Gd1 2.412 . S
O55 C68 1.252 . S
C56 O45 1.284 . S
C56 O48 1.250 . S
C57 H26 0.929 . S
C57 C42 1.437 . S
C57 C58 1.317 . S
C58 H29 0.930 . S
C58 C34 1.431 . S
C58 C57 1.317 . S
C59 Gd0 2.828 . S
C59 O44 1.258 . S
C59 O49 1.252 . S
C59 C60 1.497 . S
C60 C59 1.497 . S
C60 C61 1.395 . S
C60 C62 1.380 . S
C61 C60 1.395 . S
C61 C64 1.398 . S
C61 H76 0.930 . S
C62 C60 1.380 . S
C62 C63 1.391 . S
C62 H77 0.930 . S
C63 C62 1.391 . S
C63 C65 1.387 . S
C64 C61 1.398 . S
C64 C65 1.380 . S
C64 H78 0.930 . S
C65 C63 1.387 . S
C65 C64 1.380 . S
C65 H79 0.930 . S
C66 O46 1.254 . S
C66 O47 1.268 1_556 S
C67 O51 1.284 . S
C67 O54 1.250 . S
C68 Gd1 2.828 . S
C68 O50 1.258 . S
C68 O55 1.252 . S
C68 C69 1.497 . S
C69 C68 1.497 . S
C69 C70 1.395 . S
C69 C71 1.380 . S
C70 C69 1.395 . S
C70 C73 1.398 . S
C70 H80 0.930 . S
C71 C69 1.380 . S
C71 C72 1.391 . S
C71 H81 0.930 . S
C72 C71 1.391 . S
C72 C74 1.387 . S
C73 C70 1.398 . S
C73 C74 1.380 . S
C73 H82 0.930 . S
C74 C72 1.387 . S
C74 C73 1.380 . S
C74 H83 0.930 . S
C75 O52 1.254 . S
C75 O53 1.268 . S
H76 C61 0.930 . S
H77 C62 0.930 . S
H78 C64 0.930 . S
H79 C65 0.930 . S
H80 C70 0.930 . S
H81 C71 0.930 . S
H82 C73 0.930 . S
H83 C74 0.930 . S
Gd84 N115 2.661 . S
Gd84 N121 2.601 . S
Gd84 O128 2.545 . S
Gd84 O129 2.606 . S
Gd84 O131 2.429 . S
Gd84 O132 2.545 . S
Gd84 O133 2.412 . S
Gd84 O135 2.362 . S
Gd84 O136 2.324 . S
Gd84 C143 2.828 . S
Gd85 N94 2.661 . S
Gd85 N98 2.601 . S
Gd85 O129 2.362 . S
Gd85 O130 2.324 . S
Gd85 O134 2.545 . S
Gd85 O135 2.606 . S
Gd85 O137 2.429 . S
Gd85 O138 2.545 . S
Gd85 O139 2.412 . S
Gd85 C152 2.828 . S
C86 C89 1.417 . S
C86 C91 1.431 . S
C86 C92 1.412 . S
C87 C90 1.437 . S
C87 C91 1.317 . S
C87 H106 0.929 . S
C88 C89 1.426 . S
C88 C90 1.413 . S
C88 N98 1.359 . S
C89 C86 1.417 . S
C89 C88 1.426 . S
C89 N94 1.350 . S
C90 C87 1.437 . S
C90 C88 1.413 . S
C90 C100 1.391 . S
C91 C86 1.431 . S
C91 C87 1.317 . S
C91 H102 0.930 . S
C92 C86 1.412 . S
C92 C93 1.355 . S
C92 H104 0.930 . S
C93 C92 1.355 . S
C93 C95 1.402 . S
C93 H105 0.930 . S
N94 Gd85 2.661 . S
N94 C89 1.350 . S
N94 C95 1.307 . S
C95 C93 1.402 . S
C95 N94 1.307 . S
C95 H96 0.930 . S
H96 C95 0.930 . S
C97 N98 1.334 . S
C97 C99 1.394 . S
C97 H101 0.930 . S
N98 Gd85 2.601 . S
N98 C88 1.359 . S
N98 C97 1.334 . S
C99 C97 1.394 . S
C99 C100 1.359 . S
C99 H111 0.930 1_545 S
C100 C90 1.391 . S
C100 C99 1.359 . S
C100 H112 0.929 1_545 S
H101 C97 0.930 . S
H102 C91 0.930 . S
H103 C120 0.930 . S
H104 C92 0.930 . S
H105 C93 0.930 . S
H106 C87 0.929 . S
H107 C125 0.930 . S
H108 C116 0.930 1_455 S
H109 C117 0.930 . S
H110 C141 0.929 . S
H111 C99 0.930 1_565 S
H112 C100 0.929 1_565 S
H113 C142 0.930 . S
H114 C123 0.930 . S
N115 Gd84 2.661 . S
N115 C119 1.350 . S
N115 C120 1.307 . S
C116 H108 0.930 1_655 S
C116 C117 1.355 . S
C116 C118 1.412 . S
C117 H109 0.930 . S
C117 C116 1.355 . S
C117 C120 1.402 . S
C118 C116 1.412 . S
C118 C119 1.417 . S
C118 C142 1.431 1_655 S
C119 N115 1.350 . S
C119 C118 1.417 . S
C119 C122 1.426 . S
C120 H103 0.930 . S
C120 N115 1.307 . S
C120 C117 1.402 . S
N121 Gd84 2.601 . S
N121 C122 1.359 . S
N121 C125 1.334 . S
C122 C119 1.426 . S
C122 N121 1.359 . S
C122 C126 1.413 . S
C123 H114 0.930 . S
C123 C124 1.359 . S
C123 C125 1.394 . S
C124 C123 1.359 . S
C124 C126 1.391 . S
C124 H127 0.929 1_655 S
C125 H107 0.930 . S
C125 N121 1.334 . S
C125 C123 1.394 . S
C126 C122 1.413 . S
C126 C124 1.391 . S
C126 C141 1.437 1_655 S
H127 C124 0.929 1_455 S
O128 Gd84 2.545 . S
O128 C143 1.258 . S
O129 Gd84 2.606 . S
O129 Gd85 2.362 . S
O129 C140 1.284 . S
O130 Gd85 2.324 . S
O130 C150 1.254 . S
O131 Gd84 2.429 . S
O131 C150 1.268 . S
O132 Gd84 2.545 . S
O132 C140 1.250 . S
O133 Gd84 2.412 . S
O133 C143 1.252 . S
O134 Gd85 2.545 . S
O134 C152 1.258 . S
O135 Gd84 2.362 . S
O135 Gd85 2.606 . S
O135 C151 1.284 . S
O136 Gd84 2.324 . S
O136 C159 1.254 . S
O137 Gd85 2.429 . S
O137 C159 1.268 . S
O138 Gd85 2.545 . S
O138 C151 1.250 . S
O139 Gd85 2.412 . S
O139 C152 1.252 . S
C140 O129 1.284 . S
C140 O132 1.250 . S
C141 H110 0.929 . S
C141 C126 1.437 1_455 S
C141 C142 1.317 . S
C142 H113 0.930 . S
C142 C118 1.431 1_455 S
C142 C141 1.317 . S
C143 Gd84 2.828 . S
C143 O128 1.258 . S
C143 O133 1.252 . S
C143 C144 1.497 . S
C144 C143 1.497 . S
C144 C145 1.395 . S
C144 C146 1.380 . S
C145 C144 1.395 . S
C145 C148 1.398 . S
C145 H160 0.930 . S
C146 C144 1.380 . S
C146 C147 1.391 . S
C146 H161 0.930 . S
C147 C146 1.391 . S
C147 C149 1.387 . S
C148 C145 1.398 . S
C148 C149 1.380 . S
C148 H162 0.930 . S
C149 C147 1.387 . S
C149 C148 1.380 . S
C149 H163 0.930 . S
C150 O130 1.254 . S
C150 O131 1.268 . S
C151 O135 1.284 . S
C151 O138 1.250 . S
C152 Gd85 2.828 . S
C152 O134 1.258 . S
C152 O139 1.252 . S
C152 C153 1.497 . S
C153 C152 1.497 . S
C153 C154 1.395 . S
C153 C155 1.380 . S
C154 C153 1.395 . S
C154 C157 1.398 . S
C154 H164 0.930 . S
C155 C153 1.380 . S
C155 C156 1.391 . S
C155 H165 0.930 . S
C156 C155 1.391 . S
C156 C158 1.387 . S
C157 C154 1.398 . S
C157 C158 1.380 . S
C157 H166 0.930 . S
C158 C156 1.387 . S
C158 C157 1.380 . S
C158 H167 0.930 1_554 S
C159 O136 1.254 . S
C159 O137 1.268 . S
H160 C145 0.930 . S
H161 C146 0.930 . S
H162 C148 0.930 . S
H163 C149 0.930 . S
H164 C154 0.930 . S
H165 C155 0.930 . S
H166 C157 0.930 . S
H167 C158 0.930 1_556 S
Gd168 N199 2.661 . S
Gd168 N205 2.601 . S
Gd168 O212 2.545 . S
Gd168 O213 2.606 . S
Gd168 O215 2.429 . S
Gd168 O216 2.545 . S
Gd168 O217 2.412 . S
Gd168 O219 2.362 . S
Gd168 O220 2.324 . S
Gd168 C227 2.828 . S
Gd169 N178 2.661 . S
Gd169 N182 2.601 . S
Gd169 O213 2.362 . S
Gd169 O214 2.324 . S
Gd169 O218 2.545 . S
Gd169 O219 2.606 . S
Gd169 O221 2.429 . S
Gd169 O222 2.545 . S
Gd169 O223 2.412 . S
Gd169 C236 2.828 . S
C170 C173 1.417 . S
C170 C175 1.431 . S
C170 C176 1.412 . S
C171 C174 1.437 . S
C171 C175 1.317 . S
C171 H190 0.929 . S
C172 C173 1.426 . S
C172 C174 1.413 . S
C172 N182 1.359 . S
C173 C170 1.417 . S
C173 C172 1.426 . S
C173 N178 1.350 . S
C174 C171 1.437 . S
C174 C172 1.413 . S
C174 C184 1.391 . S
C175 C170 1.431 . S
C175 C171 1.317 . S
C175 H186 0.930 . S
C176 C170 1.412 . S
C176 C177 1.355 . S
C176 H188 0.930 . S
C177 C176 1.355 . S
C177 C179 1.402 . S
C177 H189 0.930 . S
N178 Gd169 2.661 . S
N178 C173 1.350 . S
N178 C179 1.307 . S
C179 C177 1.402 . S
C179 N178 1.307 . S
C179 H180 0.930 . S
H180 C179 0.930 . S
C181 N182 1.334 . S
C181 C183 1.394 . S
C181 H185 0.930 . S
N182 Gd169 2.601 . S
N182 C172 1.359 . S
N182 C181 1.334 . S
C183 C181 1.394 . S
C183 C184 1.359 . S
C183 H195 0.930 . S
C184 C174 1.391 . S
C184 C183 1.359 . S
C184 H196 0.929 . S
H185 C181 0.930 . S
H186 C175 0.930 . S
H187 C204 0.930 . S
H188 C176 0.930 . S
H189 C177 0.930 . S
H190 C171 0.929 . S
H191 C209 0.930 . S
H192 C200 0.930 1_545 S
H193 C201 0.930 . S
H194 C225 0.929 . S
H195 C183 0.930 . S
H196 C184 0.929 . S
H197 C226 0.930 . S
H198 C207 0.930 . S
N199 Gd168 2.661 . S
N199 C203 1.350 . S
N199 C204 1.307 . S
C200 H192 0.930 1_565 S
C200 C201 1.355 . S
C200 C202 1.412 . S
C201 H193 0.930 . S
C201 C200 1.355 . S
C201 C204 1.402 . S
C202 C200 1.412 . S
C202 C203 1.417 . S
C202 C226 1.431 1_565 S
C203 N199 1.350 . S
C203 C202 1.417 . S
C203 C206 1.426 . S
C204 H187 0.930 . S
C204 N199 1.307 . S
C204 C201 1.402 . S
N205 Gd168 2.601 . S
N205 C206 1.359 . S
N205 C209 1.334 . S
C206 C203 1.426 . S
C206 N205 1.359 . S
C206 C210 1.413 . S
C207 H198 0.930 . S
C207 C208 1.359 . S
C207 C209 1.394 . S
C208 C207 1.359 . S
C208 C210 1.391 . S
C208 H211 0.929 1_565 S
C209 H191 0.930 . S
C209 N205 1.334 . S
C209 C207 1.394 . S
C210 C206 1.413 . S
C210 C208 1.391 . S
C210 C225 1.437 1_565 S
H211 C208 0.929 1_545 S
O212 Gd168 2.545 . S
O212 C227 1.258 . S
O213 Gd168 2.606 . S
O213 Gd169 2.362 . S
O213 C224 1.284 . S
O214 Gd169 2.324 . S
O214 C234 1.254 . S
O215 Gd168 2.429 . S
O215 C234 1.268 . S
O216 Gd168 2.545 . S
O216 C224 1.250 . S
O217 Gd168 2.412 . S
O217 C227 1.252 . S
O218 Gd169 2.545 . S
O218 C236 1.258 . S
O219 Gd168 2.362 . S
O219 Gd169 2.606 . S
O219 C235 1.284 . S
O220 Gd168 2.324 . S
O220 C243 1.254 . S
O221 Gd169 2.429 . S
O221 C243 1.268 . S
O222 Gd169 2.545 . S
O222 C235 1.250 . S
O223 Gd169 2.412 . S
O223 C236 1.252 . S
C224 O213 1.284 . S
C224 O216 1.250 . S
C225 H194 0.929 . S
C225 C210 1.437 1_545 S
C225 C226 1.317 . S
C226 H197 0.930 . S
C226 C202 1.431 1_545 S
C226 C225 1.317 . S
C227 Gd168 2.828 . S
C227 O212 1.258 . S
C227 O217 1.252 . S
C227 C228 1.497 . S
C228 C227 1.497 . S
C228 C229 1.395 . S
C228 C230 1.380 . S
C229 C228 1.395 . S
C229 C232 1.398 . S
C229 H244 0.930 . S
C230 C228 1.380 . S
C230 C231 1.391 . S
C230 H245 0.930 . S
C231 C230 1.391 . S
C231 C233 1.387 1_556 S
C232 C229 1.398 . S
C232 C233 1.380 1_556 S
C232 H246 0.930 . S
C233 C231 1.387 1_554 S
C233 C232 1.380 1_554 S
C233 H247 0.930 . S
C234 O214 1.254 . S
C234 O215 1.268 . S
C235 O219 1.284 . S
C235 O222 1.250 . S
C236 Gd169 2.828 . S
C236 O218 1.258 . S
C236 O223 1.252 . S
C236 C237 1.497 . S
C237 C236 1.497 . S
C237 C238 1.395 . S
C237 C239 1.380 . S
C238 C237 1.395 . S
C238 C241 1.398 . S
C238 H248 0.930 . S
C239 C237 1.380 . S
C239 C240 1.391 . S
C239 H249 0.930 . S
C240 C239 1.391 . S
C240 C242 1.387 . S
C241 C238 1.398 . S
C241 C242 1.380 . S
C241 H250 0.930 . S
C242 C240 1.387 . S
C242 C241 1.380 . S
C242 H251 0.930 . S
C243 O220 1.254 . S
C243 O221 1.268 . S
H244 C229 0.930 . S
H245 C230 0.930 . S
H246 C232 0.930 . S
H247 C233 0.930 . S
H248 C238 0.930 . S
H249 C239 0.930 . S
H250 C241 0.930 . S
H251 C242 0.930 . S
Gd252 N283 2.661 . S
Gd252 N289 2.601 . S
Gd252 O296 2.545 . S
Gd252 O297 2.606 . S
Gd252 O299 2.429 . S
Gd252 O300 2.545 . S
Gd252 O301 2.412 . S
Gd252 O303 2.362 1_554 S
Gd252 O304 2.324 . S
Gd252 C311 2.828 . S
Gd253 N262 2.661 . S
Gd253 N266 2.601 . S
Gd253 O297 2.362 1_556 S
Gd253 O298 2.324 . S
Gd253 O302 2.545 . S
Gd253 O303 2.606 . S
Gd253 O305 2.429 1_556 S
Gd253 O306 2.545 . S
Gd253 O307 2.412 . S
Gd253 C320 2.828 . S
C254 C257 1.417 . S
C254 C259 1.431 . S
C254 C260 1.412 . S
C255 C258 1.437 . S
C255 C259 1.317 . S
C255 H274 0.929 . S
C256 C257 1.426 . S
C256 C258 1.413 . S
C256 N266 1.359 . S
C257 C254 1.417 . S
C257 C256 1.426 . S
C257 N262 1.350 . S
C258 C255 1.437 . S
C258 C256 1.413 . S
C258 C268 1.391 . S
C259 C254 1.431 . S
C259 C255 1.317 . S
C259 H270 0.930 . S
C260 C254 1.412 . S
C260 C261 1.355 . S
C260 H272 0.930 . S
C261 C260 1.355 . S
C261 C263 1.402 . S
C261 H273 0.930 . S
N262 Gd253 2.661 . S
N262 C257 1.350 . S
N262 C263 1.307 . S
C263 C261 1.402 . S
C263 N262 1.307 . S
C263 H264 0.930 . S
H264 C263 0.930 . S
C265 N266 1.334 . S
C265 C267 1.394 . S
C265 H269 0.930 . S
N266 Gd253 2.601 . S
N266 C256 1.359 . S
N266 C265 1.334 . S
C267 C265 1.394 . S
C267 C268 1.359 . S
C267 H279 0.930 1_655 S
C268 C258 1.391 . S
C268 C267 1.359 . S
C268 H280 0.929 1_655 S
H269 C265 0.930 . S
H270 C259 0.930 . S
H271 C288 0.930 . S
H272 C260 0.930 . S
H273 C261 0.930 . S
H274 C255 0.929 . S
H275 C293 0.930 . S
H276 C284 0.930 . S
H277 C285 0.930 . S
H278 C309 0.929 . S
H279 C267 0.930 1_455 S
H280 C268 0.929 1_455 S
H281 C310 0.930 . S
H282 C291 0.930 . S
N283 Gd252 2.661 . S
N283 C287 1.350 . S
N283 C288 1.307 . S
C284 H276 0.930 . S
C284 C285 1.355 . S
C284 C286 1.412 . S
C285 H277 0.930 . S
C285 C284 1.355 . S
C285 C288 1.402 . S
C286 C284 1.412 . S
C286 C287 1.417 . S
C286 C310 1.431 . S
C287 N283 1.350 . S
C287 C286 1.417 . S
C287 C290 1.426 . S
C288 H271 0.930 . S
C288 N283 1.307 . S
C288 C285 1.402 . S
N289 Gd252 2.601 . S
N289 C290 1.359 . S
N289 C293 1.334 . S
C290 C287 1.426 . S
C290 N289 1.359 . S
C290 C294 1.413 . S
C291 H282 0.930 . S
C291 C292 1.359 . S
C291 C293 1.394 . S
C292 C291 1.359 . S
C292 C294 1.391 . S
C292 H295 0.929 . S
C293 H275 0.930 . S
C293 N289 1.334 . S
C293 C291 1.394 . S
C294 C290 1.413 . S
C294 C292 1.391 . S
C294 C309 1.437 . S
H295 C292 0.929 . S
O296 Gd252 2.545 . S
O296 C311 1.258 . S
O297 Gd252 2.606 . S
O297 Gd253 2.362 1_554 S
O297 C308 1.284 . S
O298 Gd253 2.324 . S
O298 C318 1.254 . S
O299 Gd252 2.429 . S
O299 C318 1.268 1_554 S
O300 Gd252 2.545 . S
O300 C308 1.250 . S
O301 Gd252 2.412 . S
O301 C311 1.252 . S
O302 Gd253 2.545 . S
O302 C320 1.258 . S
O303 Gd252 2.362 1_556 S
O303 Gd253 2.606 . S
O303 C319 1.284 . S
O304 Gd252 2.324 . S
O304 C327 1.254 . S
O305 Gd253 2.429 1_554 S
O305 C327 1.268 . S
O306 Gd253 2.545 . S
O306 C319 1.250 . S
O307 Gd253 2.412 . S
O307 C320 1.252 . S
C308 O297 1.284 . S
C308 O300 1.250 . S
C309 H278 0.929 . S
C309 C294 1.437 . S
C309 C310 1.317 . S
C310 H281 0.930 . S
C310 C286 1.431 . S
C310 C309 1.317 . S
C311 Gd252 2.828 . S
C311 O296 1.258 . S
C311 O301 1.252 . S
C311 C312 1.497 . S
C312 C311 1.497 . S
C312 C313 1.395 . S
C312 C314 1.380 . S
C313 C312 1.395 . S
C313 C316 1.398 . S
C313 H328 0.930 . S
C314 C312 1.380 . S
C314 C315 1.391 . S
C314 H329 0.930 . S
C315 C314 1.391 . S
C315 C317 1.387 . S
C316 C313 1.398 . S
C316 C317 1.380 . S
C316 H330 0.930 . S
C317 C315 1.387 . S
C317 C316 1.380 . S
C317 H331 0.930 . S
C318 O298 1.254 . S
C318 O299 1.268 1_556 S
C319 O303 1.284 . S
C319 O306 1.250 . S
C320 Gd253 2.828 . S
C320 O302 1.258 . S
C320 O307 1.252 . S
C320 C321 1.497 . S
C321 C320 1.497 . S
C321 C322 1.395 . S
C321 C323 1.380 . S
C322 C321 1.395 . S
C322 C325 1.398 . S
C322 H332 0.930 . S
C323 C321 1.380 . S
C323 C324 1.391 . S
C323 H333 0.930 . S
C324 C323 1.391 . S
C324 C326 1.387 . S
C325 C322 1.398 . S
C325 C326 1.380 . S
C325 H334 0.930 . S
C326 C324 1.387 . S
C326 C325 1.380 . S
C326 H335 0.930 . S
C327 O304 1.254 . S
C327 O305 1.268 . S
H328 C313 0.930 . S
H329 C314 0.930 . S
H330 C316 0.930 . S
H331 C317 0.930 . S
H332 C322 0.930 . S
H333 C323 0.930 . S
H334 C325 0.930 . S
H335 C326 0.930 . S
Gd336 N367 2.661 . S
Gd336 N373 2.601 . S
Gd336 O380 2.545 . S
Gd336 O381 2.606 . S
Gd336 O383 2.429 . S
Gd336 O384 2.545 . S
Gd336 O385 2.412 . S
Gd336 O387 2.362 . S
Gd336 O388 2.324 . S
Gd336 C395 2.828 . S
Gd337 N346 2.661 . S
Gd337 N350 2.601 . S
Gd337 O381 2.362 . S
Gd337 O382 2.324 . S
Gd337 O386 2.545 . S
Gd337 O387 2.606 . S
Gd337 O389 2.429 . S
Gd337 O390 2.545 . S
Gd337 O391 2.412 . S
Gd337 C404 2.828 . S
C338 C341 1.417 . S
C338 C343 1.431 . S
C338 C344 1.412 . S
C339 C342 1.437 . S
C339 C343 1.317 . S
C339 H358 0.929 . S
C340 C341 1.426 . S
C340 C342 1.413 . S
C340 N350 1.359 . S
C341 C338 1.417 . S
C341 C340 1.426 . S
C341 N346 1.350 . S
C342 C339 1.437 . S
C342 C340 1.413 . S
C342 C352 1.391 . S
C343 C338 1.431 . S
C343 C339 1.317 . S
C343 H354 0.930 . S
C344 C338 1.412 . S
C344 C345 1.355 . S
C344 H356 0.930 . S
C345 C344 1.355 . S
C345 C347 1.402 . S
C345 H357 0.930 . S
N346 Gd337 2.661 . S
N346 C341 1.350 . S
N346 C347 1.307 . S
C347 C345 1.402 . S
C347 N346 1.307 . S
C347 H348 0.930 . S
H348 C347 0.930 . S
C349 N350 1.334 . S
C349 C351 1.394 . S
C349 H353 0.930 . S
N350 Gd337 2.601 . S
N350 C340 1.359 . S
N350 C349 1.334 . S
C351 C349 1.394 . S
C351 C352 1.359 . S
C351 H363 0.930 1_565 S
C352 C342 1.391 . S
C352 C351 1.359 . S
C352 H364 0.929 1_565 S
H353 C349 0.930 . S
H354 C343 0.930 . S
H355 C372 0.930 . S
H356 C344 0.930 . S
H357 C345 0.930 . S
H358 C339 0.929 . S
H359 C377 0.930 . S
H360 C368 0.930 1_655 S
H361 C369 0.930 . S
H362 C393 0.929 . S
H363 C351 0.930 1_545 S
H364 C352 0.929 1_545 S
H365 C394 0.930 . S
H366 C375 0.930 . S
N367 Gd336 2.661 . S
N367 C371 1.350 . S
N367 C372 1.307 . S
C368 H360 0.930 1_455 S
C368 C369 1.355 . S
C368 C370 1.412 . S
C369 H361 0.930 . S
C369 C368 1.355 . S
C369 C372 1.402 . S
C370 C368 1.412 . S
C370 C371 1.417 . S
C370 C394 1.431 1_455 S
C371 N367 1.350 . S
C371 C370 1.417 . S
C371 C374 1.426 . S
C372 H355 0.930 . S
C372 N367 1.307 . S
C372 C369 1.402 . S
N373 Gd336 2.601 . S
N373 C374 1.359 . S
N373 C377 1.334 . S
C374 C371 1.426 . S
C374 N373 1.359 . S
C374 C378 1.413 . S
C375 H366 0.930 . S
C375 C376 1.359 . S
C375 C377 1.394 . S
C376 C375 1.359 . S
C376 C378 1.391 . S
C376 H379 0.929 1_455 S
C377 H359 0.930 . S
C377 N373 1.334 . S
C377 C375 1.394 . S
C378 C374 1.413 . S
C378 C376 1.391 . S
C378 C393 1.437 1_455 S
H379 C376 0.929 1_655 S
O380 Gd336 2.545 . S
O380 C395 1.258 . S
O381 Gd336 2.606 . S
O381 Gd337 2.362 . S
O381 C392 1.284 . S
O382 Gd337 2.324 . S
O382 C402 1.254 . S
O383 Gd336 2.429 . S
O383 C402 1.268 . S
O384 Gd336 2.545 . S
O384 C392 1.250 . S
O385 Gd336 2.412 . S
O385 C395 1.252 . S
O386 Gd337 2.545 . S
O386 C404 1.258 . S
O387 Gd336 2.362 . S
O387 Gd337 2.606 . S
O387 C403 1.284 . S
O388 Gd336 2.324 . S
O388 C411 1.254 . S
O389 Gd337 2.429 . S
O389 C411 1.268 . S
O390 Gd337 2.545 . S
O390 C403 1.250 . S
O391 Gd337 2.412 . S
O391 C404 1.252 . S
C392 O381 1.284 . S
C392 O384 1.250 . S
C393 H362 0.929 . S
C393 C378 1.437 1_655 S
C393 C394 1.317 . S
C394 H365 0.930 . S
C394 C370 1.431 1_655 S
C394 C393 1.317 . S
C395 Gd336 2.828 . S
C395 O380 1.258 . S
C395 O385 1.252 . S
C395 C396 1.497 . S
C396 C395 1.497 . S
C396 C397 1.395 . S
C396 C398 1.380 . S
C397 C396 1.395 . S
C397 C400 1.398 . S
C397 H412 0.930 . S
C398 C396 1.380 . S
C398 C399 1.391 . S
C398 H413 0.930 . S
C399 C398 1.391 . S
C399 C401 1.387 . S
C400 C397 1.398 . S
C400 C401 1.380 . S
C400 H414 0.930 . S
C401 C399 1.387 . S
C401 C400 1.380 . S
C401 H415 0.930 . S
C402 O382 1.254 . S
C402 O383 1.268 . S
C403 O387 1.284 . S
C403 O390 1.250 . S
C404 Gd337 2.828 . S
C404 O386 1.258 . S
C404 O391 1.252 . S
C404 C405 1.497 . S
C405 C404 1.497 . S
C405 C406 1.395 . S
C405 C407 1.380 . S
C406 C405 1.395 . S
C406 C409 1.398 . S
C406 H416 0.930 . S
C407 C405 1.380 . S
C407 C408 1.391 . S
C407 H417 0.930 . S
C408 C407 1.391 . S
C408 C410 1.387 . S
C409 C406 1.398 . S
C409 C410 1.380 . S
C409 H418 0.930 . S
C410 C408 1.387 . S
C410 C409 1.380 . S
C410 H419 0.930 1_554 S
C411 O388 1.254 . S
C411 O389 1.268 . S
H412 C397 0.930 . S
H413 C398 0.930 . S
H414 C400 0.930 . S
H415 C401 0.930 . S
H416 C406 0.930 . S
H417 C407 0.930 . S
H418 C409 0.930 . S
H419 C410 0.930 1_556 S
Gd420 N451 2.661 . S
Gd420 N457 2.601 . S
Gd420 O464 2.545 . S
Gd420 O465 2.606 . S
Gd420 O467 2.429 . S
Gd420 O468 2.545 . S
Gd420 O469 2.412 . S
Gd420 O471 2.362 . S
Gd420 O472 2.324 . S
Gd420 C479 2.828 . S
Gd421 N430 2.661 . S
Gd421 N434 2.601 . S
Gd421 O465 2.362 . S
Gd421 O466 2.324 . S
Gd421 O470 2.545 . S
Gd421 O471 2.606 . S
Gd421 O473 2.429 . S
Gd421 O474 2.545 . S
Gd421 O475 2.412 . S
Gd421 C488 2.828 . S
C422 C425 1.417 . S
C422 C427 1.431 . S
C422 C428 1.412 . S
C423 C426 1.437 . S
C423 C427 1.317 . S
C423 H442 0.929 . S
C424 C425 1.426 . S
C424 C426 1.413 . S
C424 N434 1.359 . S
C425 C422 1.417 . S
C425 C424 1.426 . S
C425 N430 1.350 . S
C426 C423 1.437 . S
C426 C424 1.413 . S
C426 C436 1.391 . S
C427 C422 1.431 . S
C427 C423 1.317 . S
C427 H438 0.930 . S
C428 C422 1.412 . S
C428 C429 1.355 . S
C428 H440 0.930 . S
C429 C428 1.355 . S
C429 C431 1.402 . S
C429 H441 0.930 . S
N430 Gd421 2.661 . S
N430 C425 1.350 . S
N430 C431 1.307 . S
C431 C429 1.402 . S
C431 N430 1.307 . S
C431 H432 0.930 . S
H432 C431 0.930 . S
C433 N434 1.334 . S
C433 C435 1.394 . S
C433 H437 0.930 . S
N434 Gd421 2.601 . S
N434 C424 1.359 . S
N434 C433 1.334 . S
C435 C433 1.394 . S
C435 C436 1.359 . S
C435 H447 0.930 . S
C436 C426 1.391 . S
C436 C435 1.359 . S
C436 H448 0.929 . S
H437 C433 0.930 . S
H438 C427 0.930 . S
H439 C456 0.930 . S
H440 C428 0.930 . S
H441 C429 0.930 . S
H442 C423 0.929 . S
H443 C461 0.930 . S
H444 C452 0.930 1_565 S
H445 C453 0.930 . S
H446 C477 0.929 . S
H447 C435 0.930 . S
H448 C436 0.929 . S
H449 C478 0.930 . S
H450 C459 0.930 . S
N451 Gd420 2.661 . S
N451 C455 1.350 . S
N451 C456 1.307 . S
C452 H444 0.930 1_545 S
C452 C453 1.355 . S
C452 C454 1.412 . S
C453 H445 0.930 . S
C453 C452 1.355 . S
C453 C456 1.402 . S
C454 C452 1.412 . S
C454 C455 1.417 . S
C454 C478 1.431 1_545 S
C455 N451 1.350 . S
C455 C454 1.417 . S
C455 C458 1.426 . S
C456 H439 0.930 . S
C456 N451 1.307 . S
C456 C453 1.402 . S
N457 Gd420 2.601 . S
N457 C458 1.359 . S
N457 C461 1.334 . S
C458 C455 1.426 . S
C458 N457 1.359 . S
C458 C462 1.413 . S
C459 H450 0.930 . S
C459 C460 1.359 . S
C459 C461 1.394 . S
C460 C459 1.359 . S
C460 C462 1.391 . S
C460 H463 0.929 1_545 S
C461 H443 0.930 . S
C461 N457 1.334 . S
C461 C459 1.394 . S
C462 C458 1.413 . S
C462 C460 1.391 . S
C462 C477 1.437 1_545 S
H463 C460 0.929 1_565 S
O464 Gd420 2.545 . S
O464 C479 1.258 . S
O465 Gd420 2.606 . S
O465 Gd421 2.362 . S
O465 C476 1.284 . S
O466 Gd421 2.324 . S
O466 C486 1.254 . S
O467 Gd420 2.429 . S
O467 C486 1.268 . S
O468 Gd420 2.545 . S
O468 C476 1.250 . S
O469 Gd420 2.412 . S
O469 C479 1.252 . S
O470 Gd421 2.545 . S
O470 C488 1.258 . S
O471 Gd420 2.362 . S
O471 Gd421 2.606 . S
O471 C487 1.284 . S
O472 Gd420 2.324 . S
O472 C495 1.254 . S
O473 Gd421 2.429 . S
O473 C495 1.268 . S
O474 Gd421 2.545 . S
O474 C487 1.250 . S
O475 Gd421 2.412 . S
O475 C488 1.252 . S
C476 O465 1.284 . S
C476 O468 1.250 . S
C477 H446 0.929 . S
C477 C462 1.437 1_565 S
C477 C478 1.317 . S
C478 H449 0.930 . S
C478 C454 1.431 1_565 S
C478 C477 1.317 . S
C479 Gd420 2.828 . S
C479 O464 1.258 . S
C479 O469 1.252 . S
C479 C480 1.497 . S
C480 C479 1.497 . S
C480 C481 1.395 . S
C480 C482 1.380 . S
C481 C480 1.395 . S
C481 C484 1.398 . S
C481 H496 0.930 . S
C482 C480 1.380 . S
C482 C483 1.391 . S
C482 H497 0.930 . S
C483 C482 1.391 . S
C483 C485 1.387 1_556 S
C484 C481 1.398 . S
C484 C485 1.380 1_556 S
C484 H498 0.930 . S
C485 C483 1.387 1_554 S
C485 C484 1.380 1_554 S
C485 H499 0.930 . S
C486 O466 1.254 . S
C486 O467 1.268 . S
C487 O471 1.284 . S
C487 O474 1.250 . S
C488 Gd421 2.828 . S
C488 O470 1.258 . S
C488 O475 1.252 . S
C488 C489 1.497 . S
C489 C488 1.497 . S
C489 C490 1.395 . S
C489 C491 1.380 . S
C490 C489 1.395 . S
C490 C493 1.398 . S
C490 H500 0.930 . S
C491 C489 1.380 . S
C491 C492 1.391 . S
C491 H501 0.930 . S
C492 C491 1.391 . S
C492 C494 1.387 . S
C493 C490 1.398 . S
C493 C494 1.380 . S
C493 H502 0.930 . S
C494 C492 1.387 . S
C494 C493 1.380 . S
C494 H503 0.930 . S
C495 O472 1.254 . S
C495 O473 1.268 . S
H496 C481 0.930 . S
H497 C482 0.930 . S
H498 C484 0.930 . S
H499 C485 0.930 . S
H500 C490 0.930 . S
H501 C491 0.930 . S
H502 C493 0.930 . S
H503 C494 0.930 . S
H504 C512 0.950 . S
H505 C517 0.950 . S
H506 C514 0.950 . S
H507 C516 0.950 . S
H508 C518 0.950 . S
H509 C520 0.950 . S
H510 C522 0.950 . S
H511 C523 0.950 . S
C512 H504 0.950 . S
C512 C513 1.386 . S
C512 C514 1.391 . S
C513 C512 1.386 . S
C513 C517 1.393 . S
C514 H506 0.950 . S
C514 C512 1.391 . S
C514 C515 1.400 . S
C515 C514 1.400 . S
C515 C516 1.398 . S
C515 C521 1.491 . S
C516 H507 0.950 . S
C516 C515 1.398 . S
C516 C517 1.391 . S
C517 H505 0.950 . S
C517 C513 1.393 . S
C517 C516 1.391 . S
C518 H508 0.950 . S
C518 C519 1.386 . S
C518 C520 1.391 . S
C519 C518 1.386 . S
C519 C523 1.393 . S
C520 H509 0.950 . S
C520 C518 1.391 . S
C520 C521 1.400 . S
C521 C515 1.491 . S
C521 C520 1.400 . S
C521 C522 1.398 . S
C522 H510 0.950 . S
C522 C521 1.398 . S
C522 C523 1.391 . S
C523 H511 0.950 . S
C523 C519 1.393 . S
C523 C522 1.391 . S
H524 C532 0.950 . S
H525 C537 0.950 . S
H526 C534 0.950 . S
H527 C536 0.950 1_655 S
H528 C538 0.950 . S
H529 C540 0.950 . S
H530 C542 0.950 1_455 S
H531 C543 0.950 . S
C532 H524 0.950 . S
C532 C533 1.386 . S
C532 C534 1.391 . S
C533 C532 1.386 . S
C533 C537 1.393 . S
C534 H526 0.950 . S
C534 C532 1.391 . S
C534 C535 1.400 . S
C535 C534 1.400 . S
C535 C536 1.398 . S
C535 C541 1.491 1_455 S
C536 H527 0.950 1_455 S
C536 C535 1.398 . S
C536 C537 1.391 . S
C537 H525 0.950 . S
C537 C533 1.393 . S
C537 C536 1.391 . S
C538 H528 0.950 . S
C538 C539 1.386 . S
C538 C540 1.391 . S
C539 C538 1.386 . S
C539 C543 1.393 . S
C540 H529 0.950 . S
C540 C538 1.391 . S
C540 C541 1.400 . S
C541 C535 1.491 1_655 S
C541 C540 1.400 . S
C541 C542 1.398 . S
C542 H530 0.950 1_655 S
C542 C541 1.398 . S
C542 C543 1.391 . S
C543 H531 0.950 . S
C543 C539 1.393 . S
C543 C542 1.391 . S
H544 C552 0.950 . S
H545 C557 0.950 . S
H546 C554 0.950 . S
H547 C556 0.950 . S
H548 C558 0.950 . S
H549 C560 0.950 . S
H550 C562 0.950 . S
H551 C563 0.950 . S
C552 H544 0.950 . S
C552 C553 1.386 . S
C552 C554 1.391 . S
C553 C552 1.386 . S
C553 C557 1.393 . S
C554 H546 0.950 . S
C554 C552 1.391 . S
C554 C555 1.400 . S
C555 C554 1.400 . S
C555 C556 1.398 . S
C555 C561 1.491 1_545 S
C556 H547 0.950 . S
C556 C555 1.398 . S
C556 C557 1.391 . S
C557 H545 0.950 . S
C557 C553 1.393 . S
C557 C556 1.391 . S
C558 H548 0.950 . S
C558 C559 1.386 . S
C558 C560 1.391 . S
C559 C558 1.386 . S
C559 C563 1.393 . S
C560 H549 0.950 . S
C560 C558 1.391 . S
C560 C561 1.400 . S
C561 C555 1.491 1_565 S
C561 C560 1.400 . S
C561 C562 1.398 . S
C562 H550 0.950 . S
C562 C561 1.398 . S
C562 C563 1.391 . S
C563 H551 0.950 . S
C563 C559 1.393 . S
C563 C562 1.391 . S
H564 C572 0.950 . S
H565 C577 0.950 . S
H566 C574 0.950 . S
H567 C576 0.950 . S
H568 C578 0.950 . S
H569 C580 0.950 . S
H570 C582 0.950 . S
H571 C583 0.950 . S
C572 H564 0.950 . S
C572 C573 1.386 . S
C572 C574 1.391 . S
C573 C572 1.386 . S
C573 C577 1.393 . S
C574 H566 0.950 . S
C574 C572 1.391 . S
C574 C575 1.400 . S
C575 C574 1.400 . S
C575 C576 1.398 . S
C575 C581 1.491 . S
C576 H567 0.950 . S
C576 C575 1.398 . S
C576 C577 1.391 . S
C577 H565 0.950 . S
C577 C573 1.393 . S
C577 C576 1.391 . S
C578 H568 0.950 . S
C578 C579 1.386 . S
C578 C580 1.391 . S
C579 C578 1.386 . S
C579 C583 1.393 . S
C580 H569 0.950 . S
C580 C578 1.391 . S
C580 C581 1.400 . S
C581 C575 1.491 . S
C581 C580 1.400 . S
C581 C582 1.398 . S
C582 H570 0.950 . S
C582 C581 1.398 . S
C582 C583 1.391 . S
C583 H571 0.950 . S
C583 C579 1.393 . S
C583 C582 1.391 . S
H584 C592 0.950 . S
H585 C597 0.950 . S
H586 C594 0.950 . S
H587 C596 0.950 . S
H588 C598 0.950 . S
H589 C600 0.950 . S
H590 C602 0.950 . S
H591 C603 0.950 . S
C592 H584 0.950 . S
C592 C593 1.386 . S
C592 C594 1.391 . S
C593 C592 1.386 . S
C593 C597 1.393 . S
C594 H586 0.950 . S
C594 C592 1.391 . S
C594 C595 1.400 . S
C595 C594 1.400 . S
C595 C596 1.398 . S
C595 C601 1.491 1_455 S
C596 H587 0.950 . S
C596 C595 1.398 . S
C596 C597 1.391 . S
C597 H585 0.950 . S
C597 C593 1.393 . S
C597 C596 1.391 . S
C598 H588 0.950 . S
C598 C599 1.386 . S
C598 C600 1.391 . S
C599 C598 1.386 . S
C599 C603 1.393 . S
C600 H589 0.950 . S
C600 C598 1.391 . S
C600 C601 1.400 . S
C601 C595 1.491 1_655 S
C601 C600 1.400 . S
C601 C602 1.398 . S
C602 H590 0.950 . S
C602 C601 1.398 . S
C602 C603 1.391 . S
C603 H591 0.950 . S
C603 C599 1.393 . S
C603 C602 1.391 . S
H604 C612 0.950 . S
H605 C617 0.950 . S
H606 C614 0.950 . S
H607 C616 0.950 1_565 S
H608 C618 0.950 . S
H609 C620 0.950 . S
H610 C622 0.950 1_545 S
H611 C623 0.950 . S
C612 H604 0.950 . S
C612 C613 1.386 . S
C612 C614 1.391 . S
C613 C612 1.386 . S
C613 C617 1.393 . S
C614 H606 0.950 . S
C614 C612 1.391 . S
C614 C615 1.400 . S
C615 C614 1.400 . S
C615 C616 1.398 . S
C615 C621 1.491 1_545 S
C616 H607 0.950 1_545 S
C616 C615 1.398 . S
C616 C617 1.391 . S
C617 H605 0.950 . S
C617 C613 1.393 . S
C617 C616 1.391 . S
C618 H608 0.950 . S
C618 C619 1.386 . S
C618 C620 1.391 . S
C619 C618 1.386 . S
C619 C623 1.393 . S
C620 H609 0.950 . S
C620 C618 1.391 . S
C620 C621 1.400 . S
C621 C615 1.491 1_565 S
C621 C620 1.400 . S
C621 C622 1.398 . S
C622 H610 0.950 1_565 S
C622 C621 1.398 . S
C622 C623 1.391 . S
C623 H611 0.950 . S
C623 C619 1.393 . S
C623 C622 1.391 . S
H624 C632 0.950 . S
H625 C637 0.950 . S
H626 C634 0.950 . S
H627 C636 0.950 . S
H628 C638 0.950 . S
H629 C640 0.950 . S
H630 C642 0.950 . S
H631 C643 0.950 . S
C632 H624 0.950 . S
C632 C633 1.386 . S
C632 C634 1.391 . S
C633 C632 1.386 . S
C633 C637 1.393 . S
C634 H626 0.950 . S
C634 C632 1.391 . S
C634 C635 1.400 . S
C635 C634 1.400 . S
C635 C636 1.398 . S
C635 C641 1.491 . S
C636 H627 0.950 . S
C636 C635 1.398 . S
C636 C637 1.391 . S
C637 H625 0.950 . S
C637 C633 1.393 . S
C637 C636 1.391 . S
C638 H628 0.950 . S
C638 C639 1.386 . S
C638 C640 1.391 . S
C639 C638 1.386 . S
C639 C643 1.393 . S
C640 H629 0.950 . S
C640 C638 1.391 . S
C640 C641 1.400 . S
C641 C635 1.491 . S
C641 C640 1.400 . S
C641 C642 1.398 . S
C642 H630 0.950 . S
C642 C641 1.398 . S
C642 C643 1.391 . S
C643 H631 0.950 . S
C643 C639 1.393 . S
C643 C642 1.391 . S
H644 C652 0.950 . S
H645 C657 0.950 . S
H646 C654 0.950 . S
H647 C656 0.950 . S
H648 C658 0.950 . S
H649 C660 0.950 . S
H650 C662 0.950 . S
H651 C663 0.950 . S
C652 H644 0.950 . S
C652 C653 1.386 . S
C652 C654 1.391 . S
C653 C652 1.386 . S
C653 C657 1.393 . S
C654 H646 0.950 . S
C654 C652 1.391 . S
C654 C655 1.400 . S
C655 C654 1.400 . S
C655 C656 1.398 . S
C655 C661 1.491 . S
C656 H647 0.950 . S
C656 C655 1.398 . S
C656 C657 1.391 . S
C657 H645 0.950 . S
C657 C653 1.393 . S
C657 C656 1.391 . S
C658 H648 0.950 . S
C658 C659 1.386 . S
C658 C660 1.391 . S
C659 C658 1.386 . S
C659 C663 1.393 . S
C660 H649 0.950 . S
C660 C658 1.391 . S
C660 C661 1.400 . S
C661 C655 1.491 . S
C661 C660 1.400 . S
C661 C662 1.398 . S
C662 H650 0.950 . S
C662 C661 1.398 . S
C662 C663 1.391 . S
C663 H651 0.950 . S
C663 C659 1.393 . S
C663 C662 1.391 . S
H664 C672 0.950 . S
H665 C677 0.950 . S
H666 C674 0.950 . S
H667 C676 0.950 . S
H668 C678 0.950 . S
H669 C680 0.950 . S
H670 C682 0.950 . S
H671 C683 0.950 . S
C672 H664 0.950 . S
C672 C673 1.386 . S
C672 C674 1.391 . S
C673 C672 1.386 . S
C673 C677 1.393 . S
C674 H666 0.950 . S
C674 C672 1.391 . S
C674 C675 1.400 . S
C675 C674 1.400 . S
C675 C676 1.398 . S
C675 C681 1.491 . S
C676 H667 0.950 . S
C676 C675 1.398 . S
C676 C677 1.391 . S
C677 H665 0.950 . S
C677 C673 1.393 . S
C677 C676 1.391 . S
C678 H668 0.950 . S
C678 C679 1.386 . S
C678 C680 1.391 . S
C679 C678 1.386 . S
C679 C683 1.393 . S
C680 H669 0.950 . S
C680 C678 1.391 . S
C680 C681 1.400 . S
C681 C675 1.491 . S
C681 C680 1.400 . S
C681 C682 1.398 . S
C682 H670 0.950 . S
C682 C681 1.398 . S
C682 C683 1.391 . S
C683 H671 0.950 . S
C683 C679 1.393 . S
C683 C682 1.391 . S
H684 C692 0.950 . S
H685 C697 0.950 . S
H686 C694 0.950 . S
H687 C696 0.950 . S
H688 C698 0.950 . S
H689 C700 0.950 . S
H690 C702 0.950 . S
H691 C703 0.950 . S
C692 H684 0.950 . S
C692 C693 1.386 . S
C692 C694 1.391 . S
C693 C692 1.386 . S
C693 C697 1.393 . S
C694 H686 0.950 . S
C694 C692 1.391 . S
C694 C695 1.400 . S
C695 C694 1.400 . S
C695 C696 1.398 . S
C695 C701 1.491 . S
C696 H687 0.950 . S
C696 C695 1.398 . S
C696 C697 1.391 . S
C697 H685 0.950 . S
C697 C693 1.393 . S
C697 C696 1.391 . S
C698 H688 0.950 . S
C698 C699 1.386 . S
C698 C700 1.391 . S
C699 C698 1.386 . S
C699 C703 1.393 . S
C700 H689 0.950 . S
C700 C698 1.391 . S
C700 C701 1.400 . S
C701 C695 1.491 . S
C701 C700 1.400 . S
C701 C702 1.398 . S
C702 H690 0.950 . S
C702 C701 1.398 . S
C702 C703 1.391 . S
C703 H691 0.950 . S
C703 C699 1.393 . S
C703 C702 1.391 . S
H704 C712 0.950 . S
H705 C717 0.950 . S
H706 C714 0.950 . S
H707 C716 0.950 . S
H708 C718 0.950 . S
H709 C720 0.950 . S
H710 C722 0.950 . S
H711 C723 0.950 . S
C712 H704 0.950 . S
C712 C713 1.386 . S
C712 C714 1.391 . S
C713 C712 1.386 . S
C713 C717 1.393 . S
C714 H706 0.950 . S
C714 C712 1.391 . S
C714 C715 1.400 . S
C715 C714 1.400 . S
C715 C716 1.398 . S
C715 C721 1.491 . S
C716 H707 0.950 . S
C716 C715 1.398 . S
C716 C717 1.391 . S
C717 H705 0.950 . S
C717 C713 1.393 . S
C717 C716 1.391 . S
C718 H708 0.950 . S
C718 C719 1.386 . S
C718 C720 1.391 . S
C719 C718 1.386 . S
C719 C723 1.393 . S
C720 H709 0.950 . S
C720 C718 1.391 . S
C720 C721 1.400 . S
C721 C715 1.491 . S
C721 C720 1.400 . S
C721 C722 1.398 . S
C722 H710 0.950 . S
C722 C721 1.398 . S
C722 C723 1.391 . S
C723 H711 0.950 . S
C723 C719 1.393 . S
C723 C722 1.391 . S
H724 C732 0.950 . S
H725 C737 0.950 . S
H726 C734 0.950 . S
H727 C736 0.950 . S
H728 C738 0.950 . S
H729 C740 0.950 . S
H730 C742 0.950 . S
H731 C743 0.950 . S
C732 H724 0.950 . S
C732 C733 1.386 . S
C732 C734 1.391 . S
C733 C732 1.386 . S
C733 C737 1.393 . S
C734 H726 0.950 . S
C734 C732 1.391 . S
C734 C735 1.400 . S
C735 C734 1.400 . S
C735 C736 1.398 . S
C735 C741 1.491 . S
C736 H727 0.950 . S
C736 C735 1.398 . S
C736 C737 1.391 . S
C737 H725 0.950 . S
C737 C733 1.393 . S
C737 C736 1.391 . S
C738 H728 0.950 . S
C738 C739 1.386 . S
C738 C740 1.391 . S
C739 C738 1.386 . S
C739 C743 1.393 . S
C740 H729 0.950 . S
C740 C738 1.391 . S
C740 C741 1.400 . S
C741 C735 1.491 . S
C741 C740 1.400 . S
C741 C742 1.398 . S
C742 H730 0.950 . S
C742 C741 1.398 . S
C742 C743 1.391 . S
C743 H731 0.950 . S
C743 C739 1.393 . S
C743 C742 1.391 . S
H744 C752 0.950 . S
H745 C757 0.950 . S
H746 C754 0.950 . S
H747 C756 0.950 . S
H748 C758 0.950 . S
H749 C760 0.950 . S
H750 C762 0.950 . S
H751 C763 0.950 . S
C752 H744 0.950 . S
C752 C753 1.386 . S
C752 C754 1.391 . S
C753 C752 1.386 . S
C753 C757 1.393 . S
C754 H746 0.950 . S
C754 C752 1.391 . S
C754 C755 1.400 . S
C755 C754 1.400 . S
C755 C756 1.398 . S
C755 C761 1.491 . S
C756 H747 0.950 . S
C756 C755 1.398 . S
C756 C757 1.391 . S
C757 H745 0.950 . S
C757 C753 1.393 . S
C757 C756 1.391 . S
C758 H748 0.950 . S
C758 C759 1.386 . S
C758 C760 1.391 . S
C759 C758 1.386 . S
C759 C763 1.393 . S
C760 H749 0.950 . S
C760 C758 1.391 . S
C760 C761 1.400 . S
C761 C755 1.491 . S
C761 C760 1.400 . S
C761 C762 1.398 . S
C762 H750 0.950 . S
C762 C761 1.398 . S
C762 C763 1.391 . S
C763 H751 0.950 . S
C763 C759 1.393 . S
C763 C762 1.391 . S
H764 C772 0.950 . S
H765 C777 0.950 . S
H766 C774 0.950 . S
H767 C776 0.950 . S
H768 C778 0.950 . S
H769 C780 0.950 . S
H770 C782 0.950 . S
H771 C783 0.950 . S
C772 H764 0.950 . S
C772 C773 1.386 . S
C772 C774 1.391 . S
C773 C772 1.386 . S
C773 C777 1.393 . S
C774 H766 0.950 . S
C774 C772 1.391 . S
C774 C775 1.400 . S
C775 C774 1.400 . S
C775 C776 1.398 . S
C775 C781 1.491 . S
C776 H767 0.950 . S
C776 C775 1.398 . S
C776 C777 1.391 . S
C777 H765 0.950 . S
C777 C773 1.393 . S
C777 C776 1.391 . S
C778 H768 0.950 . S
C778 C779 1.386 . S
C778 C780 1.391 . S
C779 C778 1.386 . S
C779 C783 1.393 . S
C780 H769 0.950 . S
C780 C778 1.391 . S
C780 C781 1.400 . S
C781 C775 1.491 . S
C781 C780 1.400 . S
C781 C782 1.398 . S
C782 H770 0.950 . S
C782 C781 1.398 . S
C782 C783 1.391 . S
C783 H771 0.950 . S
C783 C779 1.393 . S
C783 C782 1.391 . S
H784 C792 0.950 . S
H785 C797 0.950 . S
H786 C794 0.950 . S
H787 C796 0.950 . S
H788 C798 0.950 . S
H789 C800 0.950 . S
H790 C802 0.950 . S
H791 C803 0.950 . S
C792 H784 0.950 . S
C792 C793 1.386 . S
C792 C794 1.391 . S
C793 C792 1.386 . S
C793 C797 1.393 . S
C794 H786 0.950 . S
C794 C792 1.391 . S
C794 C795 1.400 . S
C795 C794 1.400 . S
C795 C796 1.398 . S
C795 C801 1.491 . S
C796 H787 0.950 . S
C796 C795 1.398 . S
C796 C797 1.391 . S
C797 H785 0.950 . S
C797 C793 1.393 . S
C797 C796 1.391 . S
C798 H788 0.950 . S
C798 C799 1.386 . S
C798 C800 1.391 . S
C799 C798 1.386 . S
C799 C803 1.393 . S
C800 H789 0.950 . S
C800 C798 1.391 . S
C800 C801 1.400 . S
C801 C795 1.491 . S
C801 C800 1.400 . S
C801 C802 1.398 . S
C802 H790 0.950 . S
C802 C801 1.398 . S
C802 C803 1.391 . S
C803 H791 0.950 . S
C803 C799 1.393 . S
C803 C802 1.391 . S
H804 C812 0.950 . S
H805 C817 0.950 . S
H806 C814 0.950 . S
H807 C816 0.950 . S
H808 C818 0.950 . S
H809 C820 0.950 . S
H810 C822 0.950 . S
H811 C823 0.950 . S
C812 H804 0.950 . S
C812 C813 1.386 . S
C812 C814 1.391 . S
C813 C812 1.386 . S
C813 C817 1.393 . S
C814 H806 0.950 . S
C814 C812 1.391 . S
C814 C815 1.400 . S
C815 C814 1.400 . S
C815 C816 1.398 . S
C815 C821 1.491 . S
C816 H807 0.950 . S
C816 C815 1.398 . S
C816 C817 1.391 . S
C817 H805 0.950 . S
C817 C813 1.393 . S
C817 C816 1.391 . S
C818 H808 0.950 . S
C818 C819 1.386 . S
C818 C820 1.391 . S
C819 C818 1.386 . S
C819 C823 1.393 . S
C820 H809 0.950 . S
C820 C818 1.391 . S
C820 C821 1.400 . S
C821 C815 1.491 . S
C821 C820 1.400 . S
C821 C822 1.398 . S
C822 H810 0.950 . S
C822 C821 1.398 . S
C822 C823 1.391 . S
C823 H811 0.950 . S
C823 C819 1.393 . S
C823 C822 1.391 . S
H824 C832 0.950 . S
H825 C837 0.950 . S
H826 C834 0.950 . S
H827 C836 0.950 . S
H828 C838 0.950 . S
H829 C840 0.950 . S
H830 C842 0.950 . S
H831 C843 0.950 . S
C832 H824 0.950 . S
C832 C833 1.386 . S
C832 C834 1.391 . S
C833 C832 1.386 . S
C833 C837 1.393 . S
C834 H826 0.950 . S
C834 C832 1.391 . S
C834 C835 1.400 . S
C835 C834 1.400 . S
C835 C836 1.398 . S
C835 C841 1.491 . S
C836 H827 0.950 . S
C836 C835 1.398 . S
C836 C837 1.391 . S
C837 H825 0.950 . S
C837 C833 1.393 . S
C837 C836 1.391 . S
C838 H828 0.950 . S
C838 C839 1.386 . S
C838 C840 1.391 . S
C839 C838 1.386 . S
C839 C843 1.393 . S
C840 H829 0.950 . S
C840 C838 1.391 . S
C840 C841 1.400 . S
C841 C835 1.491 . S
C841 C840 1.400 . S
C841 C842 1.398 . S
C842 H830 0.950 . S
C842 C841 1.398 . S
C842 C843 1.391 . S
C843 H831 0.950 . S
C843 C839 1.393 . S
C843 C842 1.391 . S
H844 C852 0.950 . S
H845 C857 0.950 . S
H846 C854 0.950 . S
H847 C856 0.950 . S
H848 C858 0.950 . S
H849 C860 0.950 . S
H850 C862 0.950 . S
H851 C863 0.950 . S
C852 H844 0.950 . S
C852 C853 1.386 . S
C852 C854 1.391 . S
C853 C852 1.386 . S
C853 C857 1.393 . S
C854 H846 0.950 . S
C854 C852 1.391 . S
C854 C855 1.400 . S
C855 C854 1.400 . S
C855 C856 1.398 . S
C855 C861 1.491 . S
C856 H847 0.950 . S
C856 C855 1.398 . S
C856 C857 1.391 . S
C857 H845 0.950 . S
C857 C853 1.393 . S
C857 C856 1.391 . S
C858 H848 0.950 . S
C858 C859 1.386 . S
C858 C860 1.391 . S
C859 C858 1.386 . S
C859 C863 1.393 . S
C860 H849 0.950 . S
C860 C858 1.391 . S
C860 C861 1.400 . S
C861 C855 1.491 . S
C861 C860 1.400 . S
C861 C862 1.398 . S
C862 H850 0.950 . S
C862 C861 1.398 . S
C862 C863 1.391 . S
C863 H851 0.950 . S
C863 C859 1.393 . S
C863 C862 1.391 . S
C513 C495 1.445 . S
C519 C67 1.382 . S
C533 C75 1.445 . S
C539 C151 1.385 . S
C553 C159 1.445 . S
C559 C235 1.380 . S
C573 C243 1.437 . S
C579 C319 1.401 . S
C593 C403 1.406 . S
C599 C327 1.438 . S
C613 C487 1.395 . S
C619 C411 1.438 . S
C633 C72 1.324 . S
C639 C63 1.324 . S
C653 C156 1.304 1_556 S
C659 C147 1.304 . S
C673 C240 1.312 . S
C679 C231 1.312 1_554 S
C693 C324 1.330 . S
C699 C315 1.330 . S
C713 C399 1.302 . S
C719 C408 1.302 1_556 S
C733 C492 1.296 . S
C739 C483 1.296 1_554 S
C753 C56 1.388 . S
C759 C402 1.414 . S
C773 C140 1.353 . S
C779 C486 1.439 . S
C793 C66 1.419 . S
C799 C224 1.384 . S
C813 C150 1.414 . S
C819 C308 1.384 . S
C833 C392 1.379 . S
C839 C234 1.423 . S
C853 C318 1.419 . S
C859 C476 1.383 . S
