# Generated by pormake.
# Topology reo, (8)-cn, num edge types: 1
# Building blocks:
#     Node 0, Type 0, BuildingBlock: TAGTUT_clean_sbu_3, # of connection points: 8
#     Node 1, Type 0, BuildingBlock: TAGTUT_clean_sbu_3, # of connection points: 8
#     Node 2, Type 0, BuildingBlock: TAGTUT_clean_sbu_3, # of connection points: 8
#     Edge 3, Type (0, 0), BuildingBlock: UVAHIK_clean_linker_0, # of connection points: 2
#     Edge 4, Type (0, 0), BuildingBlock: UVAHIK_clean_linker_0, # of connection points: 2
#     Edge 5, Type (0, 0), BuildingBlock: UVAHIK_clean_linker_0, # of connection points: 2
#     Edge 6, Type (0, 0), BuildingBlock: UVAHIK_clean_linker_0, # of connection points: 2
#     Edge 7, Type (0, 0), BuildingBlock: UVAHIK_clean_linker_0, # of connection points: 2
#     Edge 8, Type (0, 0), BuildingBlock: UVAHIK_clean_linker_0, # of connection points: 2
#     Edge 9, Type (0, 0), BuildingBlock: UVAHIK_clean_linker_0, # of connection points: 2
#     Edge 10, Type (0, 0), BuildingBlock: UVAHIK_clean_linker_0, # of connection points: 2
#     Edge 11, Type (0, 0), BuildingBlock: UVAHIK_clean_linker_0, # of connection points: 2
#     Edge 12, Type (0, 0), BuildingBlock: UVAHIK_clean_linker_0, # of connection points: 2
#     Edge 13, Type (0, 0), BuildingBlock: UVAHIK_clean_linker_0, # of connection points: 2
#     Edge 14, Type (0, 0), BuildingBlock: UVAHIK_clean_linker_0, # of connection points: 2
# Relax obj value: 0.169
# Max RMSD: 0.190
# Mean RMSD: 0.190
data_MOF--net-reo--node1-TAGTUT_clean_sbu_3--edge1-UVAHIK_clean_linker_0
_symmetry_space_group_name_H-M    P1
_symmetry_Int_Tables_number       1
_symmetry_cell_setting            triclinic
loop_
_symmetry_equiv_pos_as_xyz
'x, y, z'
_cell_length_a     29.587914
_cell_length_b     29.56399
_cell_length_c     29.504232
_cell_angle_alpha  90.923329
_cell_angle_beta   90.864462
_cell_angle_gamma 90.808516
loop_
_atom_site_label
_atom_site_type_symbol
_atom_site_fract_x
_atom_site_fract_y
_atom_site_fract_z
_atom_type_partial_charge
C0 C 0.95026 0.9074 0.53811 0.0
C1 C 0.81134 0.01927 0.5309 0.0
C2 C 0.88311 0.07118 0.41487 0.0
Mg3 Mg 0.05395 0.92685 0.50698 0.0
Mg4 Mg 0.09543 0.03165 0.50928 0.0
O5 O 0.05068 0.99124 0.48617 0.0
Mg6 Mg 0.98688 0.00397 0.50187 0.0
O7 O 0.92209 0.01334 0.51634 0.0
Mg8 Mg 0.8938 0.97158 0.46933 0.0
Mg9 Mg 0.90089 0.0732 0.51622 0.0
C10 C 0.02704 0.1005 0.46455 0.0
O11 O 0.00489 0.047 0.56588 0.0
O12 O 0.12471 0.92688 0.47232 0.0
O13 O 0.95191 0.10124 0.56317 0.0
O14 O 0.08736 0.94652 0.57548 0.0
O15 O 0.15012 -0.00074 0.47538 0.0
O16 O 0.10446 0.02004 0.5806 0.0
O17 O 0.96495 0.96352 0.43895 0.0
O18 O 0.0166 0.90892 0.44075 0.0
C19 C 0.98184 0.9272 0.42268 0.0
C20 C 0.15472 0.95755 0.46399 0.0
O21 O 0.99502 0.0707 0.4647 0.0
O22 O 0.82613 0.98603 0.50681 0.0
O23 O 0.066 0.09409 0.48318 0.0
O24 O 0.88001 0.02839 0.41936 0.0
O25 O 0.83457 0.05562 0.5385 0.0
O26 O 0.89433 0.09729 0.44805 0.0
O27 O 0.98301 0.93632 0.53762 0.0
O28 O 0.91256 0.91513 0.51785 0.0
C29 C 0.10197 0.98096 0.59822 0.0
C30 C 0.98817 0.08449 0.58021 0.0
C31 C 0.42519 0.9797 0.93104 0.0
C32 C 0.45572 0.15566 0.96238 0.0
C33 C 0.58812 0.10849 -0.00214 0.0
Mg34 Mg 0.47492 0.89502 0.97857 0.0
Mg35 Mg 0.51884 0.90528 0.08203 0.0
O36 O 0.51921 0.92582 0.02167 0.0
Mg37 Mg 0.49991 0.98913 0.01178 0.0
O38 O 0.47936 0.05157 -0.00163 0.0
Mg39 Mg 0.5047 0.05662 0.93562 0.0
Mg40 Mg 0.4955 0.09776 0.04034 0.0
C41 C 0.57559 -0.00304 0.09424 0.0
O42 O 0.46056 0.9936 0.07775 0.0
O43 O 0.51489 0.82936 0.9954 0.0
O44 O 0.46564 0.06694 0.1002 0.0
O45 O 0.42361 0.8809 0.03416 0.0
O46 O 0.54469 0.83981 0.06566 0.0
O47 O 0.45029 0.89657 0.10384 0.0
O48 O 0.53818 0.9876 0.94601 0.0
O49 O 0.52454 0.91609 0.92333 0.0
C50 C 0.54214 0.95535 0.91676 0.0
C51 C 0.53883 0.81589 0.02933 0.0
O52 O 0.56065 0.01191 0.05628 0.0
O53 O 0.46739 0.12583 0.93267 0.0
O54 O 0.56141 0.95968 0.11133 0.0
O55 O 0.56962 0.09319 0.96121 0.0
O56 O 0.46311 0.15132 0.00499 0.0
O57 O 0.56683 0.10983 0.03514 0.0
O58 O 0.44059 0.96388 0.96834 0.0
O59 O 0.44195 0.01557 0.91355 0.0
C60 C 0.41815 0.88487 0.07684 0.0
C61 C 0.45344 0.02563 0.10651 0.0
C62 C 0.91351 0.53098 0.96086 0.0
C63 C 0.01371 0.5268 0.81091 0.0
C64 C 0.07714 0.41599 0.88226 0.0
Mg65 Mg 0.945 0.50141 0.0629 0.0
Mg66 Mg 0.05245 0.51013 0.09538 0.0
O67 O 0.00993 0.48509 0.05369 0.0
Mg68 Mg 0.01513 0.50128 0.98837 0.0
O69 O 0.01704 0.51555 0.9226 0.0
Mg70 Mg 0.97593 0.46562 0.89862 0.0
Mg71 Mg 0.07502 0.51753 0.89684 0.0
C72 C 0.11686 0.46943 0.02008 0.0
O73 O 0.05456 0.56797 0.00183 0.0
O74 O 0.95321 0.46923 0.1344 0.0
O75 O 0.10398 0.56778 0.9442 0.0
O76 O 0.96322 0.5715 0.09264 0.0
O77 O 0.02705 0.47623 0.15364 0.0
O78 O 0.03747 0.58086 0.10381 0.0
O79 O 0.97665 0.43649 0.97062 0.0
O80 O 0.92929 0.43289 0.02893 0.0
C81 C 0.94486 0.41667 0.9919 0.0
C82 C 0.98657 0.46326 0.16209 0.0
O83 O 0.08502 0.46978 0.99006 0.0
O84 O 0.98276 0.50196 0.82878 0.0
O85 O 0.1125 0.48515 0.06069 0.0
O86 O 0.03411 0.4182 0.88172 0.0
O87 O 0.05124 0.53646 0.83131 0.0
O88 O 0.10222 0.45056 0.89042 0.0
O89 O 0.94547 0.53135 0.99072 0.0
O90 O 0.91839 0.51168 0.92196 0.0
C91 C -0.00262 0.59634 0.10373 0.0
C92 C 0.08907 0.58458 0.98152 0.0
C93 C 0.00934 0.4438 0.24089 0.0
C94 C 0.9796 0.43729 0.20375 0.0
C95 C 0.00866 0.41409 0.2771 0.0
C96 C 0.94628 0.31694 0.32722 0.0
H97 H 0.06727 0.28026 0.36152 0.0
C98 C 0.9855 0.14501 0.40657 0.0
C99 C 0.01861 0.14342 0.44112 0.0
C100 C 0.9772 0.18516 0.38396 0.0
C101 C 0.03325 0.2906 0.35302 0.0
H102 H 0.92388 0.39642 0.17658 0.0
H103 H 0.92348 0.34355 0.23926 0.0
H104 H 0.05743 0.34383 0.31152 0.0
H105 H 0.06922 0.18266 0.47902 0.0
H106 H 0.05512 0.25306 0.43899 0.0
H107 H 0.9224 0.26214 0.36754 0.0
C108 C 0.94685 0.37206 0.24089 0.0
C109 C 0.02752 0.32719 0.32437 0.0
C110 C 0.9471 0.40228 0.20487 0.0
C111 C 0.04355 0.18285 0.45245 0.0
C112 C 0.03543 0.2231 0.42961 0.0
C113 C 0.95205 0.28008 0.35575 0.0
C114 C 0.97875 0.37673 0.27663 0.0
C115 C 0.98401 0.34051 0.31063 0.0
C116 C 0.00225 0.22459 0.39501 0.0
C117 C 0.99565 0.26617 0.36841 0.0
H118 H 0.0343 0.47097 0.24122 0.0
H119 H 0.03281 0.41945 0.30469 0.0
H120 H 0.9123 0.32665 0.31776 0.0
H121 H 0.96685 0.11483 0.39604 0.0
H122 H 0.95217 0.1849 0.35677 0.0
C123 C 0.84803 0.13176 0.36811 0.0
C124 C 0.86971 0.08991 0.37073 0.0
C125 C 0.8244 0.14319 0.32851 0.0
C126 C 0.79537 0.10216 0.21043 0.0
H127 H 0.67235 0.12024 0.24951 0.0
C128 C 0.61241 0.02185 0.16714 0.0
C129 C 0.61002 0.02401 0.11972 0.0
C130 C 0.64535 0.04662 0.19146 0.0
C131 C 0.70656 0.11566 0.23787 0.0
H132 H 0.8893 0.03029 0.33254 0.0
H133 H 0.84839 0.04983 0.26413 0.0
H134 H 0.73482 0.13719 0.30169 0.0
H135 H 0.64043 0.05328 0.06045 0.0
H136 H 0.69831 0.09689 0.10312 0.0
H137 H 0.76662 0.07683 0.14788 0.0
C138 C 0.84899 0.07394 0.29216 0.0
C139 C 0.7425 0.126 0.26758 0.0
C140 C 0.87213 0.06241 0.33165 0.0
C141 C 0.64104 0.05173 0.09707 0.0
C142 C 0.67432 0.07637 0.12142 0.0
C143 C 0.75935 0.09172 0.18071 0.0
C144 C 0.82264 0.11312 0.29099 0.0
C145 C 0.78718 0.11687 0.25511 0.0
C146 C 0.67691 0.0739 0.16892 0.0
C147 C 0.71454 0.09596 0.19514 0.0
H148 H 0.84607 0.15378 0.39769 0.0
H149 H 0.80499 0.17397 0.32835 0.0
H150 H 0.82949 0.09549 0.19958 0.0
H151 H 0.58887 0.00085 0.18549 0.0
H152 H 0.64702 0.04317 0.22794 0.0
C153 C 0.95489 0.85818 0.382 0.0
C154 C 0.96179 0.90515 0.38222 0.0
C155 C 0.94506 0.83496 0.34157 0.0
C156 C 0.91232 0.79534 0.25123 0.0
H157 H 0.01436 0.80882 0.17122 0.0
C158 C 0.94558 0.66148 0.11505 0.0
C159 C 0.98919 0.6434 0.11899 0.0
C160 C 0.93571 0.70312 0.13517 0.0
C161 C 0.98533 0.80508 0.19285 0.0
H162 H 0.96182 0.96539 0.34146 0.0
H163 H 0.94612 0.92416 0.26964 0.0
H164 H 0.00234 0.86514 0.23138 0.0
H165 H 0.05746 0.65657 0.14408 0.0
H166 H 0.04011 0.72921 0.17956 0.0
H167 H 0.89682 0.73391 0.2149 0.0
C168 C 0.94748 0.90562 0.30099 0.0
C169 C 0.97817 0.83751 0.2269 0.0
C170 C 0.95621 0.9291 0.34188 0.0
C171 C 0.0235 0.66941 0.14067 0.0
C172 C 0.0136 0.7112 0.16072 0.0
C173 C 0.91918 0.76322 0.21698 0.0
C174 C 0.94301 0.85821 0.30048 0.0
C175 C 0.94276 0.83177 0.25757 0.0
C176 C 0.96922 0.72768 0.15954 0.0
C177 C 0.95687 0.76674 0.1887 0.0
H178 H 0.95921 0.83918 0.41285 0.0
H179 H 0.94228 0.79839 0.34206 0.0
H180 H 0.88483 0.79024 0.27453 0.0
H181 H 0.91847 0.6427 0.0979 0.0
H182 H 0.90138 0.7153 0.13317 0.0
C183 C 0.44238 0.97685 0.17345 0.0
C184 C 0.42904 0.01406 0.1478 0.0
C185 C 0.41649 0.96262 0.20992 0.0
C186 C 0.30104 0.96372 0.25127 0.0
H187 H 0.35393 0.94435 0.37038 0.0
C188 C 0.23378 0.97258 0.44028 0.0
C189 C 0.19401 0.94624 0.43601 0.0
C190 C 0.26726 0.96961 0.40765 0.0
C191 C 0.33884 0.94912 0.33715 0.0
H192 H 0.37937 0.06653 0.14035 0.0
H193 H 0.33369 0.04158 0.20419 0.0
H194 H 0.40276 0.96444 0.30721 0.0
H195 H 0.15939 0.89382 0.39614 0.0
H196 H 0.21792 0.88906 0.33843 0.0
H197 H 0.23708 0.94968 0.2812 0.0
C198 C 0.36399 0.02323 0.19592 0.0
C199 C 0.36671 0.96053 0.30109 0.0
C200 C 0.39025 0.03779 0.15984 0.0
C201 C 0.18981 0.91439 0.40032 0.0
C202 C 0.22308 0.91191 0.36718 0.0
C203 C 0.27328 0.95176 0.28711 0.0
C204 C 0.3766 0.98519 0.22093 0.0
C205 C 0.34787 0.9691 0.25815 0.0
C206 C 0.26134 0.94067 0.36976 0.0
C207 C 0.29177 0.94541 0.33065 0.0
H208 H 0.47272 0.95863 0.16507 0.0
H209 H 0.42699 0.93333 0.22875 0.0
H210 H 0.2858 0.96958 0.2183 0.0
H211 H 0.23794 -0.00271 0.46761 0.0
H212 H 0.29622 0.99238 0.41042 0.0
C213 C 0.91795 0.8343 0.56473 0.0
C214 C 0.95578 0.86315 0.56006 0.0
C215 C 0.92235 0.79212 0.58455 0.0
C216 C 0.00341 0.70355 0.61088 0.0
H217 H 0.91984 0.6731 0.70606 0.0
C218 C 0.04051 0.57166 0.74558 0.0
C219 C 0.00469 0.54985 0.76764 0.0
C220 C 0.03197 0.60227 0.71122 0.0
C221 C 0.94277 0.68035 0.67877 0.0
H222 H 0.02801 0.87004 0.57246 0.0
H223 H 0.03568 0.79586 0.60725 0.0
H224 H 0.91099 0.7434 0.66551 0.0
H225 H 0.93201 0.53949 0.76767 0.0
H226 H 0.91703 0.59236 0.70659 0.0
H227 H 0.03542 0.64062 0.62428 0.0
C228 C 0.00269 0.80613 0.59516 0.0
C229 C 0.93789 0.7209 0.6558 0.0
C230 C -0.00176 0.84869 0.57558 0.0
C231 C 0.96031 0.55603 0.7516 0.0
C232 C 0.95174 0.58667 0.71692 0.0
C233 C 0.00804 0.66269 0.63354 0.0
C234 C 0.96469 0.77758 0.59996 0.0
C235 C 0.96866 0.7333 0.62227 0.0
C236 C 0.98738 0.61163 0.69779 0.0
C237 C 0.97836 0.65106 0.6685 0.0
H238 H 0.88469 0.84426 0.55316 0.0
H239 H 0.89258 0.77068 0.58756 0.0
H240 H 0.02712 0.71201 0.5846 0.0
H241 H 0.07521 0.56721 0.75668 0.0
H242 H 0.06032 0.62087 0.69758 0.0
C243 C 0.34563 0.95078 0.93094 0.0
C244 C 0.38614 0.95818 0.90784 0.0
C245 C 0.30561 0.94102 0.9065 0.0
C246 C 0.23169 0.96991 0.83745 0.0
H247 H 0.22304 0.88791 0.73369 0.0
C248 C 0.14097 0.00955 0.66948 0.0
C249 C 0.1193 0.97412 0.64494 0.0
C250 C 0.16288 0.00117 0.71075 0.0
C251 C 0.22433 0.91045 0.76301 0.0
H252 H 0.41798 0.95785 0.84231 0.0
H253 H 0.34873 0.93901 0.79983 0.0
H254 H 0.28337 0.87875 0.78994 0.0
H255 H 0.10081 0.90273 0.64629 0.0
H256 H 0.13959 0.88824 0.71785 0.0
H257 H 0.17443 0.00353 0.80884 0.0
C258 C 0.34748 0.9412 0.83649 0.0
C259 C 0.25893 0.90522 0.79507 0.0
C260 C 0.38703 0.95207 0.86068 0.0
C261 C 0.11766 0.93076 0.66395 0.0
C262 C 0.13984 0.92235 0.70498 0.0
C263 C 0.19736 0.97552 0.80502 0.0
C264 C 0.30614 0.93734 0.85895 0.0
C265 C 0.26379 0.9358 0.83174 0.0
C266 C 0.16381 0.95715 0.72809 0.0
C267 C 0.19427 0.9467 0.76674 0.0
H268 H 0.34429 0.95583 0.96735 0.0
H269 H 0.27406 0.93823 0.92446 0.0
H270 H 0.23503 0.99421 0.86522 0.0
H271 H 0.14279 0.04334 0.65591 0.0
H272 H 0.18139 0.02862 0.72766 0.0
C273 C 0.12259 0.36798 0.83099 0.0
C274 C 0.09688 0.37228 0.87028 0.0
C275 C 0.12701 0.32554 0.80995 0.0
C276 C 0.12755 0.23068 0.7673 0.0
H277 H 0.00384 0.18527 0.76305 0.0
C278 C 0.0428 0.08891 0.64648 0.0
C279 C 0.01121 0.10983 0.61779 0.0
C280 C 0.06318 0.11308 0.68276 0.0
C281 C 0.03874 0.19694 0.76453 0.0
H282 H 0.06121 0.33601 0.92217 0.0
H283 H 0.07083 0.26167 0.88688 0.0
H284 H 0.02674 0.23993 0.82139 0.0
H285 H 0.97662 0.17268 0.60452 0.0
H286 H 0.01114 0.2141 0.66842 0.0
H287 H 0.1379 0.18902 0.70796 0.0
C288 C 0.08617 0.29087 0.8712 0.0
C289 C 0.05213 0.22802 0.79818 0.0
C290 C 0.08094 0.33329 0.89161 0.0
C291 C 0.00062 0.15539 0.62598 0.0
C292 C 0.02046 0.17922 0.66238 0.0
C293 C 0.11407 0.19908 0.73363 0.0
C294 C 0.10612 0.28701 0.82837 0.0
C295 C 0.09624 0.24657 0.79909 0.0
C296 C 0.0516 0.15821 0.69113 0.0
C297 C 0.06912 0.18337 0.73125 0.0
H298 H 0.13491 0.3978 0.81393 0.0
H299 H 0.14262 0.32387 0.77701 0.0
H300 H 0.16177 0.24416 0.76722 0.0
H301 H 0.05067 0.05359 0.64181 0.0
H302 H 0.08673 0.09622 0.70506 0.0
C303 C 0.57223 0.92796 0.84262 0.0
C304 C 0.5643 0.96396 0.87306 0.0
C305 C 0.59224 0.93582 0.80091 0.0
C306 C 0.66259 0.01999 0.74223 0.0
H307 H 0.62845 0.9486 0.63526 0.0
C308 C 0.74836 0.05253 0.57483 0.0
C309 C 0.76866 0.0141 0.55578 0.0
C310 C 0.71505 0.04798 0.60738 0.0
C311 C 0.63821 0.96877 0.66488 0.0
H312 H 0.57098 0.03659 0.88324 0.0
H313 H 0.60485 0.05049 0.81008 0.0
H314 H 0.58725 0.93841 0.70571 0.0
H315 H 0.76684 0.94075 0.55266 0.0
H316 H 0.70846 0.93281 0.60985 0.0
H317 H 0.71359 0.05015 0.70164 0.0
C318 C 0.59636 0.01599 0.8188 0.0
C319 C 0.61485 0.96283 0.70528 0.0
C320 C 0.57673 0.00806 0.86075 0.0
C321 C 0.75188 0.97099 0.56677 0.0
C322 C 0.71846 0.96644 0.59952 0.0
C323 C 0.68555 0.02619 0.70186 0.0
C324 C 0.6045 0.97993 0.78841 0.0
C325 C 0.62717 0.98801 0.7446 0.0
C326 C 0.70133 0.00493 0.62159 0.0
C327 C 0.67392 0.00039 0.6629 0.0
H328 H 0.56328 0.89349 0.85109 0.0
H329 H 0.59882 0.90713 0.77882 0.0
H330 H 0.67366 0.03931 0.77195 0.0
H331 H 0.76001 0.08626 0.5665 0.0
H332 H 0.70166 0.07821 0.62314 0.0
C333 C 0.1793 0.45504 0.96634 0.0
C334 C 0.15871 0.44649 0.00796 0.0
C335 C 0.21487 0.42822 0.95153 0.0
C336 C 0.2546 0.31435 0.95841 0.0
H337 H 0.37516 0.35924 0.93259 0.0
C338 C 0.43647 0.23657 0.9724 0.0
C339 C 0.43036 0.1956 0.94821 0.0
C340 C 0.40658 0.27199 0.96614 0.0
C341 C 0.34141 0.34643 0.93894 0.0
H342 H 0.15956 0.40478 0.06756 0.0
H343 H 0.22152 0.35732 0.04141 0.0
H344 H 0.3153 0.41283 0.9514 0.0
H345 H 0.39031 0.16034 0.89637 0.0
H346 H 0.33689 0.22227 0.8862 0.0
H347 H 0.28057 0.24803 0.94738 0.0
C348 C 0.21019 0.38476 0.02036 0.0
C349 C 0.30736 0.37695 0.9497 0.0
C350 C 0.17522 0.41205 0.03547 0.0
C351 C 0.39575 0.19172 0.91527 0.0
C352 C 0.36518 0.22696 0.90962 0.0
C353 C 0.28832 0.28395 0.94693 0.0
C354 C 0.22966 0.39213 0.97793 0.0
C355 C 0.26417 0.36093 0.96094 0.0
C356 C 0.36955 0.26679 0.93614 0.0
C357 C 0.33237 0.2996 0.93845 0.0
H358 H 0.16729 0.48193 0.94497 0.0
H359 H 0.22963 0.43454 0.91882 0.0
H360 H 0.2213 0.3014 0.96657 0.0
H361 H 0.46311 0.24039 -0.00216 0.0
H362 H 0.41053 0.30213 0.9873 0.0
C363 C 0.09286 0.65128 0.03548 0.0
C364 C 0.11292 0.62457 0.0016 0.0
C365 C 0.11584 0.68895 0.0543 0.0
C366 C 0.19549 0.74468 0.10298 0.0
H367 H 0.2443 0.82927 0.01674 0.0
C368 C 0.36595 0.83617 0.12007 0.0
C369 C 0.37308 0.87474 0.09405 0.0
C370 C 0.32259 0.81698 0.12251 0.0
C371 C 0.23012 0.80693 0.04173 0.0
H372 H 0.17264 0.61698 0.96042 0.0
H373 H 0.21196 0.68327 0.99227 0.0
H374 H 0.19038 0.77157 0.99109 0.0
H375 H 0.34096 0.92733 0.05556 0.0
H376 H 0.26493 0.89511 0.06139 0.0
H377 H 0.23755 0.77855 0.15321 0.0
C378 C 0.17865 0.67467 0.00459 0.0
C379 C 0.19956 0.77357 0.02678 0.0
C380 C 0.15609 0.63676 0.98639 0.0
C381 C 0.33596 0.8973 0.07558 0.0
C382 C 0.2926 0.87869 0.07872 0.0
C383 C 0.22659 0.77802 0.11802 0.0
C384 C 0.15875 0.70104 0.03864 0.0
C385 C 0.18336 0.7412 0.05685 0.0
C386 C 0.28605 0.83651 0.09915 0.0
C387 C 0.24544 0.8085 0.08714 0.0
H388 H 0.05909 0.64368 0.04672 0.0
H389 H 0.09978 0.70921 0.08022 0.0
H390 H 0.18326 0.71992 0.1267 0.0
H391 H 0.39437 0.81823 0.13431 0.0
H392 H 0.3188 0.78447 0.1385 0.0
C393 C 0.66063 0.12144 0.95715 0.0
C394 C 0.63405 0.12848 0.99573 0.0
C395 C 0.70096 0.14576 0.95188 0.0
C396 C 0.74593 0.25598 0.97939 0.0
H397 H 0.8641 0.2111 0.94755 0.0
C398 C 0.9304 0.33437 0.99363 0.0
C399 C 0.92289 0.37598 0.97293 0.0
C400 C 0.90041 0.29814 0.98575 0.0
C401 C 0.83109 0.22391 0.95594 0.0
H402 H 0.63053 0.16407 0.06046 0.0
H403 H 0.70066 0.20706 0.05076 0.0
H404 H 0.80142 0.15735 0.96015 0.0
H405 H 0.88063 0.41239 0.92601 0.0
H406 H 0.82759 0.34899 0.91237 0.0
H407 H 0.77502 0.32227 0.97558 0.0
C408 C 0.69003 0.18284 0.02465 0.0
C409 C 0.79547 0.19333 0.96324 0.0
C410 C 0.65002 0.15816 0.0302 0.0
C411 C 0.88718 0.38018 0.94169 0.0
C412 C 0.85685 0.34414 0.93419 0.0
C413 C 0.7811 0.2864 0.97135 0.0
C414 C 0.71505 0.1778 0.98486 0.0
C415 C 0.75289 0.20925 0.97587 0.0
C416 C 0.8621 0.30356 0.9578 0.0
C417 C 0.82414 0.27072 0.9601 0.0
H418 H 0.64944 0.0984 0.9302 0.0
H419 H 0.71978 0.14137 0.92094 0.0
H420 H 0.71319 0.26901 0.98851 0.0
H421 H 0.95752 0.33095 0.01838 0.0
H422 H 0.90497 0.26738 0.00465 0.0
C423 C 0.86043 0.56771 0.01528 0.0
C424 C 0.86999 0.5526 0.97113 0.0
C425 C 0.81965 0.58901 0.02445 0.0
C426 C 0.70473 0.6101 0.97621 0.0
H427 H 0.71129 0.71496 0.05671 0.0
C428 C 0.57306 0.75381 0.9826 0.0
C429 C 0.56469 0.77358 0.02527 0.0
C430 C 0.60479 0.71938 0.97837 0.0
C431 C 0.70868 0.68532 0.03471 0.0
H432 H 0.84395 0.54766 0.90201 0.0
H433 H 0.77366 0.58594 0.91768 0.0
H434 H 0.77829 0.6701 0.04507 0.0
H435 H 0.57969 0.76967 0.09738 0.0
H436 H 0.63461 0.70972 0.08987 0.0
H437 H 0.63521 0.6269 0.96466 0.0
C438 C 0.79707 0.58041 0.94553 0.0
C439 C 0.74713 0.65949 0.02808 0.0
C440 C 0.83763 0.55875 0.93647 0.0
C441 C 0.58591 0.75575 0.06389 0.0
C442 C 0.61748 0.72148 0.05965 0.0
C443 C 0.66625 0.63629 0.98256 0.0
C444 C 0.78768 0.59611 0.98956 0.0
C445 C 0.74579 0.62174 -0.00149 0.0
C446 C 0.62855 0.7042 0.01672 0.0
C447 C 0.66797 0.67428 0.01173 0.0
H448 H 0.88439 0.56316 0.04284 0.0
H449 H 0.81325 0.6 0.05892 0.0
H450 H 0.70232 0.58085 0.9537 0.0
H451 H 0.55723 0.76671 0.9522 0.0
H452 H 0.61273 0.70668 0.94482 0.0
loop_
_geom_bond_atom_site_label_1
_geom_bond_atom_site_label_2
_geom_bond_distance
_geom_bond_site_symmetry_2
_ccdc_geom_bond_type
C0 O27 1.312 1_655 S
C0 O28 1.208 . S
C1 O22 1.331 . S
C1 O25 1.244 1_565 S
C2 O24 1.264 1_545 S
C2 O26 1.273 . S
Mg3 O5 1.936 1_565 S
Mg3 O12 2.081 . S
Mg3 O14 2.023 . S
Mg3 O18 2.031 . S
Mg3 O27 2.291 . S
Mg4 O5 1.963 . S
Mg4 O15 1.942 . S
Mg4 O16 1.955 . S
Mg4 O23 1.986 . S
O5 Mg3 1.936 1_545 S
O5 Mg4 1.963 . S
O5 Mg6 1.915 . S
Mg6 O5 1.915 . S
Mg6 O7 1.915 1_455 S
Mg6 O11 2.013 . S
Mg6 O17 2.114 1_445 S
Mg6 O21 2.013 1_455 S
Mg6 O27 2.114 1_545 S
O7 Mg6 1.915 1_655 S
O7 Mg8 1.936 1_545 S
O7 Mg9 1.963 . S
Mg8 O7 1.936 1_565 S
Mg8 O17 2.291 . S
Mg8 O22 2.081 . S
Mg8 O24 2.023 . S
Mg8 O28 2.031 . S
Mg9 O7 1.963 . S
Mg9 O13 1.986 . S
Mg9 O25 1.942 . S
Mg9 O26 1.955 . S
C10 O21 1.191 1_455 S
C10 O23 1.307 . S
O11 Mg6 2.013 . S
O11 C30 1.191 1_455 S
O12 Mg3 2.081 . S
O12 C20 1.331 . S
O13 Mg9 1.986 . S
O13 C30 1.307 . S
O14 Mg3 2.023 . S
O14 C29 1.264 1_565 S
O15 Mg4 1.942 . S
O15 C20 1.244 1_545 S
O16 Mg4 1.955 . S
O16 C29 1.273 . S
O17 Mg6 2.114 1_665 S
O17 Mg8 2.291 . S
O17 C19 1.312 1_655 S
O18 Mg3 2.031 . S
O18 C19 1.208 . S
C19 O17 1.312 1_455 S
C19 O18 1.208 . S
C20 O12 1.331 . S
C20 O15 1.244 1_565 S
O21 Mg6 2.013 1_655 S
O21 C10 1.191 1_655 S
O22 C1 1.331 . S
O22 Mg8 2.081 . S
O23 Mg4 1.986 . S
O23 C10 1.307 . S
O24 C2 1.264 1_565 S
O24 Mg8 2.023 . S
O25 C1 1.244 1_545 S
O25 Mg9 1.942 . S
O26 C2 1.273 . S
O26 Mg9 1.955 . S
O27 C0 1.312 1_455 S
O27 Mg3 2.291 . S
O27 Mg6 2.114 1_565 S
O28 C0 1.208 . S
O28 Mg8 2.031 . S
C29 O14 1.264 1_545 S
C29 O16 1.273 . S
C30 O11 1.191 1_655 S
C30 O13 1.307 . S
C31 O58 1.312 1_545 S
C31 O59 1.208 . S
C32 O53 1.331 . S
C32 O56 1.244 1_556 S
C33 O55 1.264 1_554 S
C33 O57 1.273 . S
Mg34 O36 1.936 1_556 S
Mg34 O43 2.081 . S
Mg34 O45 2.023 . S
Mg34 O49 2.031 . S
Mg34 O58 2.291 . S
Mg35 O36 1.963 . S
Mg35 O46 1.942 . S
Mg35 O47 1.955 . S
Mg35 O54 1.986 . S
O36 Mg34 1.936 1_554 S
O36 Mg35 1.963 . S
O36 Mg37 1.915 1_565 S
Mg37 O36 1.915 1_545 S
Mg37 O38 1.915 . S
Mg37 O42 2.013 1_545 S
Mg37 O48 2.114 1_554 S
Mg37 O52 2.013 . S
Mg37 O58 2.114 1_544 S
O38 Mg37 1.915 . S
O38 Mg39 1.936 1_554 S
O38 Mg40 1.963 . S
Mg39 O38 1.936 1_556 S
Mg39 O48 2.291 . S
Mg39 O53 2.081 . S
Mg39 O55 2.023 . S
Mg39 O59 2.031 . S
Mg40 O38 1.963 . S
Mg40 O44 1.986 . S
Mg40 O56 1.942 . S
Mg40 O57 1.955 . S
C41 O52 1.191 1_565 S
C41 O54 1.307 . S
O42 Mg37 2.013 1_565 S
O42 C61 1.191 1_565 S
O43 Mg34 2.081 . S
O43 C51 1.331 . S
O44 Mg40 1.986 . S
O44 C61 1.307 . S
O45 Mg34 2.023 . S
O45 C60 1.264 1_556 S
O46 Mg35 1.942 . S
O46 C51 1.244 1_554 S
O47 Mg35 1.955 . S
O47 C60 1.273 . S
O48 Mg37 2.114 1_556 S
O48 Mg39 2.291 . S
O48 C50 1.312 1_545 S
O49 Mg34 2.031 . S
O49 C50 1.208 . S
C50 O48 1.312 1_565 S
C50 O49 1.208 . S
C51 O43 1.331 . S
C51 O46 1.244 1_556 S
O52 Mg37 2.013 . S
O52 C41 1.191 1_545 S
O53 C32 1.331 . S
O53 Mg39 2.081 . S
O54 Mg35 1.986 . S
O54 C41 1.307 . S
O55 C33 1.264 1_556 S
O55 Mg39 2.023 . S
O56 C32 1.244 1_554 S
O56 Mg40 1.942 . S
O57 C33 1.273 . S
O57 Mg40 1.955 . S
O58 C31 1.312 1_565 S
O58 Mg34 2.291 . S
O58 Mg37 2.114 1_566 S
O59 C31 1.208 . S
O59 Mg39 2.031 . S
C60 O45 1.264 1_554 S
C60 O47 1.273 . S
C61 O42 1.191 1_545 S
C61 O44 1.307 . S
C62 O89 1.312 1_556 S
C62 O90 1.208 . S
C63 O84 1.331 . S
C63 O87 1.244 1_655 S
C64 O86 1.264 1_455 S
C64 O88 1.273 . S
Mg65 O67 1.936 1_655 S
Mg65 O74 2.081 . S
Mg65 O76 2.023 . S
Mg65 O80 2.031 . S
Mg65 O89 2.291 . S
Mg66 O67 1.963 . S
Mg66 O77 1.942 . S
Mg66 O78 1.955 . S
Mg66 O85 1.986 . S
O67 Mg65 1.936 1_455 S
O67 Mg66 1.963 . S
O67 Mg68 1.915 . S
Mg68 O67 1.915 . S
Mg68 O69 1.915 1_554 S
Mg68 O73 2.013 . S
Mg68 O79 2.114 1_454 S
Mg68 O83 2.013 1_554 S
Mg68 O89 2.114 1_455 S
O69 Mg68 1.915 1_556 S
O69 Mg70 1.936 1_455 S
O69 Mg71 1.963 . S
Mg70 O69 1.936 1_655 S
Mg70 O79 2.291 . S
Mg70 O84 2.081 . S
Mg70 O86 2.023 . S
Mg70 O90 2.031 . S
Mg71 O69 1.963 . S
Mg71 O75 1.986 . S
Mg71 O87 1.942 . S
Mg71 O88 1.955 . S
C72 O83 1.191 1_554 S
C72 O85 1.307 . S
O73 Mg68 2.013 . S
O73 C92 1.191 1_554 S
O74 Mg65 2.081 . S
O74 C82 1.331 . S
O75 Mg71 1.986 . S
O75 C92 1.307 . S
O76 Mg65 2.023 . S
O76 C91 1.264 1_655 S
O77 Mg66 1.942 . S
O77 C82 1.244 1_455 S
O78 Mg66 1.955 . S
O78 C91 1.273 . S
O79 Mg68 2.114 1_656 S
O79 Mg70 2.291 . S
O79 C81 1.312 1_556 S
O80 Mg65 2.031 . S
O80 C81 1.208 . S
C81 O79 1.312 1_554 S
C81 O80 1.208 . S
C82 O74 1.331 . S
C82 O77 1.244 1_655 S
O83 Mg68 2.013 1_556 S
O83 C72 1.191 1_556 S
O84 C63 1.331 . S
O84 Mg70 2.081 . S
O85 Mg66 1.986 . S
O85 C72 1.307 . S
O86 C64 1.264 1_655 S
O86 Mg70 2.023 . S
O87 C63 1.244 1_455 S
O87 Mg71 1.942 . S
O88 C64 1.273 . S
O88 Mg71 1.955 . S
O89 C62 1.312 1_554 S
O89 Mg65 2.291 . S
O89 Mg68 2.114 1_655 S
O90 C62 1.208 . S
O90 Mg70 2.031 . S
C91 O76 1.264 1_455 S
C91 O78 1.273 . S
C92 O73 1.191 1_556 S
C92 O75 1.307 . S
C93 C94 1.349 1_455 S
C93 C95 1.327 . S
C93 H118 0.950 . S
C94 C93 1.349 1_655 S
C94 C110 1.349 . S
C95 C93 1.327 . S
C95 C114 1.429 1_455 S
C95 H119 0.950 . S
C96 C113 1.574 . S
C96 C115 1.368 . S
C96 H120 0.949 . S
H97 C101 0.949 . S
C98 C99 1.349 1_655 S
C98 C100 1.327 . S
C98 H121 0.950 . S
C99 C98 1.349 1_455 S
C99 C111 1.349 . S
C100 C98 1.327 . S
C100 C116 1.429 1_655 S
C100 H122 0.950 . S
C101 H97 0.949 . S
C101 C109 1.574 . S
C101 C117 1.367 1_455 S
H102 C110 0.950 . S
H103 C108 0.950 . S
H104 C109 0.949 . S
H105 C111 0.950 . S
H106 C112 0.950 . S
H107 C113 0.949 . S
C108 H103 0.950 . S
C108 C110 1.327 . S
C108 C114 1.429 . S
C109 C101 1.574 . S
C109 H104 0.949 . S
C109 C115 1.368 1_455 S
C110 C94 1.349 . S
C110 H102 0.950 . S
C110 C108 1.327 . S
C111 C99 1.349 . S
C111 H105 0.950 . S
C111 C112 1.327 . S
C112 H106 0.950 . S
C112 C111 1.327 . S
C112 C116 1.429 . S
C113 C96 1.574 . S
C113 H107 0.949 . S
C113 C117 1.369 . S
C114 C95 1.429 1_655 S
C114 C108 1.429 . S
C114 C115 1.523 . S
C115 C96 1.368 . S
C115 C109 1.368 1_655 S
C115 C114 1.523 . S
C116 C100 1.429 1_455 S
C116 C112 1.429 . S
C116 C117 1.523 1_455 S
C117 C101 1.367 1_655 S
C117 C113 1.369 . S
C117 C116 1.523 1_655 S
H118 C93 0.950 . S
H119 C95 0.950 . S
H120 C96 0.949 . S
H121 C98 0.950 . S
H122 C100 0.950 . S
C123 C124 1.349 . S
C123 C125 1.327 . S
C123 H148 0.950 . S
C124 C123 1.349 . S
C124 C140 1.349 1_545 S
C125 C123 1.327 . S
C125 C144 1.429 . S
C125 H149 0.950 . S
C126 C143 1.574 . S
C126 C145 1.368 1_565 S
C126 H150 0.949 . S
H127 C131 0.949 . S
C128 C129 1.349 1_565 S
C128 C130 1.327 . S
C128 H151 0.950 . S
C129 C128 1.349 1_545 S
C129 C141 1.349 . S
C130 C128 1.327 . S
C130 C146 1.429 1_565 S
C130 H152 0.950 . S
C131 H127 0.949 . S
C131 C139 1.574 . S
C131 C147 1.368 . S
H132 C140 0.950 . S
H133 C138 0.950 . S
H134 C139 0.949 . S
H135 C141 0.950 . S
H136 C142 0.950 . S
H137 C143 0.949 . S
C138 H133 0.950 . S
C138 C140 1.327 . S
C138 C144 1.429 1_565 S
C139 C131 1.574 . S
C139 H134 0.949 . S
C139 C145 1.368 . S
C140 C124 1.349 1_565 S
C140 H132 0.950 . S
C140 C138 1.327 . S
C141 C129 1.349 . S
C141 H135 0.950 . S
C141 C142 1.327 . S
C142 H136 0.950 . S
C142 C141 1.327 . S
C142 C146 1.429 . S
C143 C126 1.574 . S
C143 H137 0.949 . S
C143 C147 1.368 1_565 S
C144 C125 1.429 . S
C144 C138 1.429 1_545 S
C144 C145 1.523 . S
C145 C126 1.368 1_545 S
C145 C139 1.368 . S
C145 C144 1.523 . S
C146 C130 1.429 1_545 S
C146 C142 1.429 . S
C146 C147 1.523 . S
C147 C131 1.368 . S
C147 C143 1.368 1_545 S
C147 C146 1.523 . S
H148 C123 0.950 . S
H149 C125 0.950 . S
H150 C126 0.949 . S
H151 C128 0.950 . S
H152 C130 0.950 . S
C153 C154 1.350 . S
C153 C155 1.327 . S
C153 H178 0.950 . S
C154 C153 1.350 . S
C154 C170 1.348 1_655 S
C155 C153 1.327 . S
C155 C174 1.429 1_655 S
C155 H179 0.950 . S
C156 C173 1.574 . S
C156 C175 1.368 . S
C156 H180 0.949 . S
H157 C161 0.949 . S
C158 C159 1.349 . S
C158 C160 1.327 . S
C158 H181 0.950 . S
C159 C158 1.349 . S
C159 C171 1.349 1_455 S
C160 C158 1.327 . S
C160 C176 1.429 . S
C160 H182 0.950 . S
C161 H157 0.949 . S
C161 C169 1.574 . S
C161 C177 1.368 1_655 S
H162 C170 0.950 . S
H163 C168 0.950 . S
H164 C169 0.949 . S
H165 C171 0.950 . S
H166 C172 0.950 . S
H167 C173 0.949 . S
C168 H163 0.950 . S
C168 C170 1.327 . S
C168 C174 1.429 . S
C169 C161 1.574 . S
C169 H164 0.949 . S
C169 C175 1.368 1_655 S
C170 C154 1.348 1_455 S
C170 H162 0.950 . S
C170 C168 1.327 . S
C171 C159 1.349 1_655 S
C171 H165 0.950 . S
C171 C172 1.327 . S
C172 H166 0.950 . S
C172 C171 1.327 . S
C172 C176 1.429 1_655 S
C173 C156 1.574 . S
C173 H167 0.949 . S
C173 C177 1.368 . S
C174 C155 1.429 1_455 S
C174 C168 1.429 . S
C174 C175 1.523 . S
C175 C156 1.368 . S
C175 C169 1.368 1_455 S
C175 C174 1.523 . S
C176 C160 1.429 . S
C176 C172 1.429 1_455 S
C176 C177 1.523 . S
C177 C161 1.368 1_455 S
C177 C173 1.368 . S
C177 C176 1.523 . S
H178 C153 0.950 . S
H179 C155 0.950 . S
H180 C156 0.949 . S
H181 C158 0.950 . S
H182 C160 0.950 . S
C183 C184 1.349 1_565 S
C183 C185 1.327 . S
C183 H208 0.950 . S
C184 C183 1.349 1_545 S
C184 C200 1.349 . S
C185 C183 1.327 . S
C185 C204 1.429 1_565 S
C185 H209 0.950 . S
C186 C203 1.574 . S
C186 C205 1.366 1_545 S
C186 H210 0.949 . S
H187 C191 0.949 . S
C188 C189 1.349 1_545 S
C188 C190 1.327 . S
C188 H211 0.950 . S
C189 C188 1.349 1_565 S
C189 C201 1.349 . S
C190 C188 1.327 . S
C190 C206 1.429 1_545 S
C190 H212 0.950 . S
C191 H187 0.949 . S
C191 C199 1.574 . S
C191 C207 1.368 . S
H192 C200 0.950 . S
H193 C198 0.950 . S
H194 C199 0.949 . S
H195 C201 0.950 . S
H196 C202 0.950 . S
H197 C203 0.949 . S
C198 H193 0.950 . S
C198 C200 1.327 . S
C198 C204 1.429 . S
C199 C191 1.574 . S
C199 H194 0.949 . S
C199 C205 1.371 . S
C200 C184 1.349 . S
C200 H192 0.950 . S
C200 C198 1.327 . S
C201 C189 1.349 . S
C201 H195 0.950 . S
C201 C202 1.327 . S
C202 H196 0.950 . S
C202 C201 1.327 . S
C202 C206 1.429 . S
C203 C186 1.574 . S
C203 H197 0.949 . S
C203 C207 1.368 1_545 S
C204 C185 1.429 1_545 S
C204 C198 1.429 . S
C204 C205 1.523 1_545 S
C205 C186 1.366 1_565 S
C205 C199 1.371 . S
C205 C204 1.523 1_565 S
C206 C190 1.429 1_565 S
C206 C202 1.429 . S
C206 C207 1.523 . S
C207 C191 1.368 . S
C207 C203 1.368 1_565 S
C207 C206 1.523 . S
H208 C183 0.950 . S
H209 C185 0.950 . S
H210 C186 0.949 . S
H211 C188 0.950 . S
H212 C190 0.950 . S
C213 C214 1.349 1_655 S
C213 C215 1.327 . S
C213 H238 0.950 . S
C214 C213 1.349 1_455 S
C214 C230 1.349 . S
C215 C213 1.327 . S
C215 C234 1.423 1_655 S
C215 H239 0.950 . S
C216 C233 1.574 . S
C216 C235 1.368 1_455 S
C216 H240 0.949 . S
H217 C221 0.949 . S
C218 C219 1.349 1_455 S
C218 C220 1.327 . S
C218 H241 0.950 . S
C219 C218 1.349 1_655 S
C219 C231 1.349 . S
C220 C218 1.327 . S
C220 C236 1.429 1_455 S
C220 H242 0.950 . S
C221 H217 0.949 . S
C221 C229 1.574 . S
C221 C237 1.368 . S
H222 C230 0.950 . S
H223 C228 0.950 . S
H224 C229 0.949 . S
H225 C231 0.950 . S
H226 C232 0.950 . S
H227 C233 0.949 . S
C228 H223 0.950 . S
C228 C230 1.327 . S
C228 C234 1.435 . S
C229 C221 1.574 . S
C229 H224 0.949 . S
C229 C235 1.368 . S
C230 C214 1.349 . S
C230 H222 0.950 . S
C230 C228 1.327 . S
C231 C219 1.349 . S
C231 H225 0.950 . S
C231 C232 1.327 . S
C232 H226 0.950 . S
C232 C231 1.327 . S
C232 C236 1.429 . S
C233 C216 1.574 . S
C233 H227 0.949 . S
C233 C237 1.368 1_455 S
C234 C215 1.423 1_455 S
C234 C228 1.435 . S
C234 C235 1.523 1_455 S
C235 C216 1.368 1_655 S
C235 C229 1.368 . S
C235 C234 1.523 1_655 S
C236 C220 1.429 1_655 S
C236 C232 1.429 . S
C236 C237 1.523 . S
C237 C221 1.368 . S
C237 C233 1.368 1_655 S
C237 C236 1.523 . S
H238 C213 0.950 . S
H239 C215 0.950 . S
H240 C216 0.949 . S
H241 C218 0.950 . S
H242 C220 0.950 . S
C243 C244 1.351 . S
C243 C245 1.327 . S
C243 H268 0.950 . S
C244 C243 1.351 . S
C244 C260 1.347 1_565 S
C245 C243 1.327 . S
C245 C264 1.429 1_565 S
C245 H269 0.950 . S
C246 C263 1.574 . S
C246 C265 1.368 . S
C246 H270 0.949 . S
H247 C251 0.949 . S
C248 C249 1.349 . S
C248 C250 1.327 . S
C248 H271 0.950 . S
C249 C248 1.349 . S
C249 C261 1.349 1_545 S
C250 C248 1.327 . S
C250 C266 1.429 . S
C250 H272 0.950 . S
C251 H247 0.949 . S
C251 C259 1.574 . S
C251 C267 1.368 1_565 S
H252 C260 0.950 . S
H253 C258 0.950 . S
H254 C259 0.949 . S
H255 C261 0.950 . S
H256 C262 0.950 . S
H257 C263 0.949 . S
C258 H253 0.950 . S
C258 C260 1.327 . S
C258 C264 1.429 . S
C259 C251 1.574 . S
C259 H254 0.949 . S
C259 C265 1.368 1_565 S
C260 C244 1.347 1_545 S
C260 H252 0.950 . S
C260 C258 1.327 . S
C261 C249 1.349 1_565 S
C261 H255 0.950 . S
C261 C262 1.327 . S
C262 H256 0.950 . S
C262 C261 1.327 . S
C262 C266 1.429 1_565 S
C263 C246 1.574 . S
C263 H257 0.949 . S
C263 C267 1.368 . S
C264 C245 1.429 1_545 S
C264 C258 1.429 . S
C264 C265 1.523 . S
C265 C246 1.368 . S
C265 C259 1.368 1_545 S
C265 C264 1.523 . S
C266 C250 1.429 . S
C266 C262 1.429 1_545 S
C266 C267 1.523 . S
C267 C251 1.368 1_545 S
C267 C263 1.368 . S
C267 C266 1.523 . S
H268 C243 0.950 . S
H269 C245 0.950 . S
H270 C246 0.949 . S
H271 C248 0.950 . S
H272 C250 0.950 . S
C273 C274 1.349 1_655 S
C273 C275 1.327 . S
C273 H298 0.950 . S
C274 C273 1.349 1_455 S
C274 C290 1.349 . S
C275 C273 1.327 . S
C275 C294 1.429 1_655 S
C275 H299 0.950 . S
C276 C293 1.574 . S
C276 C295 1.368 . S
C276 H300 0.949 . S
H277 C281 0.949 . S
C278 C279 1.349 . S
C278 C280 1.327 . S
C278 H301 0.950 . S
C279 C278 1.349 . S
C279 C291 1.349 1_455 S
C280 C278 1.327 . S
C280 C296 1.429 . S
C280 H302 0.950 . S
C281 H277 0.949 . S
C281 C289 1.574 . S
C281 C297 1.368 1_655 S
H282 C290 0.950 . S
H283 C288 0.950 . S
H284 C289 0.949 . S
H285 C291 0.950 . S
H286 C292 0.950 . S
H287 C293 0.949 . S
C288 H283 0.950 . S
C288 C290 1.327 . S
C288 C294 1.429 . S
C289 C281 1.574 . S
C289 H284 0.949 . S
C289 C295 1.368 1_655 S
C290 C274 1.349 . S
C290 H282 0.950 . S
C290 C288 1.327 . S
C291 C279 1.349 1_655 S
C291 H285 0.950 . S
C291 C292 1.327 . S
C292 H286 0.950 . S
C292 C291 1.327 . S
C292 C296 1.429 1_655 S
C293 C276 1.574 . S
C293 H287 0.949 . S
C293 C297 1.368 . S
C294 C275 1.429 1_455 S
C294 C288 1.429 . S
C294 C295 1.523 . S
C295 C276 1.368 . S
C295 C289 1.368 1_455 S
C295 C294 1.523 . S
C296 C280 1.429 . S
C296 C292 1.429 1_455 S
C296 C297 1.523 . S
C297 C281 1.368 1_455 S
C297 C293 1.368 . S
C297 C296 1.523 . S
H298 C273 0.950 . S
H299 C275 0.950 . S
H300 C276 0.949 . S
H301 C278 0.950 . S
H302 C280 0.950 . S
C303 C304 1.349 1_565 S
C303 C305 1.327 . S
C303 H328 0.950 . S
C304 C303 1.349 1_545 S
C304 C320 1.349 . S
C305 C303 1.327 . S
C305 C324 1.420 1_565 S
C305 H329 0.950 . S
C306 C323 1.574 . S
C306 C325 1.368 1_545 S
C306 H330 0.949 . S
H307 C311 0.949 . S
C308 C309 1.349 1_545 S
C308 C310 1.327 . S
C308 H331 0.950 . S
C309 C308 1.349 1_565 S
C309 C321 1.349 . S
C310 C308 1.327 . S
C310 C326 1.429 1_545 S
C310 H332 0.950 . S
C311 H307 0.949 . S
C311 C319 1.574 . S
C311 C327 1.368 . S
H312 C320 0.950 . S
H313 C318 0.950 . S
H314 C319 0.949 . S
H315 C321 0.950 . S
H316 C322 0.950 . S
H317 C323 0.949 . S
C318 H313 0.950 . S
C318 C320 1.327 . S
C318 C324 1.437 . S
C319 C311 1.574 . S
C319 H314 0.949 . S
C319 C325 1.368 . S
C320 C304 1.349 . S
C320 H312 0.950 . S
C320 C318 1.327 . S
C321 C309 1.349 . S
C321 H315 0.950 . S
C321 C322 1.327 . S
C322 H316 0.950 . S
C322 C321 1.327 . S
C322 C326 1.429 . S
C323 C306 1.574 . S
C323 H317 0.949 . S
C323 C327 1.368 1_545 S
C324 C305 1.420 1_545 S
C324 C318 1.437 . S
C324 C325 1.523 1_545 S
C325 C306 1.368 1_565 S
C325 C319 1.368 . S
C325 C324 1.523 1_565 S
C326 C310 1.429 1_565 S
C326 C322 1.429 . S
C326 C327 1.523 . S
C327 C311 1.368 . S
C327 C323 1.368 1_565 S
C327 C326 1.523 . S
H328 C303 0.950 . S
H329 C305 0.950 . S
H330 C306 0.949 . S
H331 C308 0.950 . S
H332 C310 0.950 . S
C333 C334 1.349 1_556 S
C333 C335 1.327 . S
C333 H358 0.950 . S
C334 C333 1.349 1_554 S
C334 C350 1.349 . S
C335 C333 1.327 . S
C335 C354 1.429 1_556 S
C335 H359 0.950 . S
C336 C353 1.574 . S
C336 C355 1.366 1_554 S
C336 H360 0.949 . S
H337 C341 0.949 . S
C338 C339 1.349 1_554 S
C338 C340 1.327 . S
C338 H361 0.950 . S
C339 C338 1.349 1_556 S
C339 C351 1.349 . S
C340 C338 1.327 . S
C340 C356 1.429 1_554 S
C340 H362 0.950 . S
C341 H337 0.949 . S
C341 C349 1.574 . S
C341 C357 1.368 . S
H342 C350 0.950 . S
H343 C348 0.950 . S
H344 C349 0.949 . S
H345 C351 0.950 . S
H346 C352 0.950 . S
H347 C353 0.949 . S
C348 H343 0.950 . S
C348 C350 1.327 . S
C348 C354 1.429 . S
C349 C341 1.574 . S
C349 H344 0.949 . S
C349 C355 1.371 . S
C350 C334 1.349 . S
C350 H342 0.950 . S
C350 C348 1.327 . S
C351 C339 1.349 . S
C351 H345 0.950 . S
C351 C352 1.327 . S
C352 H346 0.950 . S
C352 C351 1.327 . S
C352 C356 1.429 . S
C353 C336 1.574 . S
C353 H347 0.949 . S
C353 C357 1.368 1_554 S
C354 C335 1.429 1_554 S
C354 C348 1.429 . S
C354 C355 1.523 1_554 S
C355 C336 1.366 1_556 S
C355 C349 1.371 . S
C355 C354 1.523 1_556 S
C356 C340 1.429 1_556 S
C356 C352 1.429 . S
C356 C357 1.523 . S
C357 C341 1.368 . S
C357 C353 1.368 1_556 S
C357 C356 1.523 . S
H358 C333 0.950 . S
H359 C335 0.950 . S
H360 C336 0.949 . S
H361 C338 0.950 . S
H362 C340 0.950 . S
C363 C364 1.349 1_556 S
C363 C365 1.327 . S
C363 H388 0.950 . S
C364 C363 1.349 1_554 S
C364 C380 1.349 . S
C365 C363 1.327 . S
C365 C384 1.429 1_556 S
C365 H389 0.950 . S
C366 C383 1.574 . S
C366 C385 1.368 . S
C366 H390 0.949 . S
H367 C371 0.949 . S
C368 C369 1.349 . S
C368 C370 1.327 . S
C368 H391 0.950 . S
C369 C368 1.349 . S
C369 C381 1.349 1_554 S
C370 C368 1.327 . S
C370 C386 1.429 . S
C370 H392 0.950 . S
C371 H367 0.949 . S
C371 C379 1.574 . S
C371 C387 1.368 1_556 S
H372 C380 0.950 . S
H373 C378 0.950 . S
H374 C379 0.949 . S
H375 C381 0.950 . S
H376 C382 0.950 . S
H377 C383 0.949 . S
C378 H373 0.950 . S
C378 C380 1.327 . S
C378 C384 1.429 . S
C379 C371 1.574 . S
C379 H374 0.949 . S
C379 C385 1.368 1_556 S
C380 C364 1.349 . S
C380 H372 0.950 . S
C380 C378 1.327 . S
C381 C369 1.349 1_556 S
C381 H375 0.950 . S
C381 C382 1.327 . S
C382 H376 0.950 . S
C382 C381 1.327 . S
C382 C386 1.429 1_556 S
C383 C366 1.574 . S
C383 H377 0.949 . S
C383 C387 1.368 . S
C384 C365 1.429 1_554 S
C384 C378 1.429 . S
C384 C385 1.523 . S
C385 C366 1.368 . S
C385 C379 1.368 1_554 S
C385 C384 1.523 . S
C386 C370 1.429 . S
C386 C382 1.429 1_554 S
C386 C387 1.523 . S
C387 C371 1.368 1_554 S
C387 C383 1.368 . S
C387 C386 1.523 . S
H388 C363 0.950 . S
H389 C365 0.950 . S
H390 C366 0.949 . S
H391 C368 0.950 . S
H392 C370 0.950 . S
C393 C394 1.349 1_556 S
C393 C395 1.327 . S
C393 H418 0.950 . S
C394 C393 1.349 1_554 S
C394 C410 1.349 . S
C395 C393 1.327 . S
C395 C414 1.429 1_556 S
C395 H419 0.950 . S
C396 C413 1.574 . S
C396 C415 1.368 . S
C396 H420 0.949 . S
H397 C401 0.949 . S
C398 C399 1.347 1_554 S
C398 C400 1.327 . S
C398 H421 0.950 . S
C399 C398 1.347 1_556 S
C399 C411 1.351 . S
C400 C398 1.327 . S
C400 C416 1.429 . S
C400 H422 0.950 . S
C401 H397 0.949 . S
C401 C409 1.574 . S
C401 C417 1.368 1_556 S
H402 C410 0.950 . S
H403 C408 0.950 . S
H404 C409 0.949 . S
H405 C411 0.950 . S
H406 C412 0.950 . S
H407 C413 0.949 . S
C408 H403 0.950 . S
C408 C410 1.327 . S
C408 C414 1.429 . S
C409 C401 1.574 . S
C409 H404 0.949 . S
C409 C415 1.368 1_556 S
C410 C394 1.349 . S
C410 H402 0.950 . S
C410 C408 1.327 . S
C411 C399 1.351 . S
C411 H405 0.950 . S
C411 C412 1.327 . S
C412 H406 0.950 . S
C412 C411 1.327 . S
C412 C416 1.429 1_556 S
C413 C396 1.574 . S
C413 H407 0.949 . S
C413 C417 1.368 . S
C414 C395 1.429 1_554 S
C414 C408 1.429 . S
C414 C415 1.523 . S
C415 C396 1.368 . S
C415 C409 1.368 1_554 S
C415 C414 1.523 . S
C416 C400 1.429 . S
C416 C412 1.429 1_554 S
C416 C417 1.523 . S
C417 C401 1.368 1_554 S
C417 C413 1.368 . S
C417 C416 1.523 . S
H418 C393 0.950 . S
H419 C395 0.950 . S
H420 C396 0.949 . S
H421 C398 0.950 . S
H422 C400 0.950 . S
C423 C424 1.349 . S
C423 C425 1.327 . S
C423 H448 0.950 . S
C424 C423 1.349 . S
C424 C440 1.349 1_554 S
C425 C423 1.327 . S
C425 C444 1.439 . S
C425 H449 0.950 . S
C426 C443 1.574 . S
C426 C445 1.368 . S
C426 H450 0.949 . S
H427 C431 0.949 . S
C428 C429 1.349 . S
C428 C430 1.327 . S
C428 H451 0.950 . S
C429 C428 1.349 . S
C429 C441 1.349 1_556 S
C430 C428 1.327 . S
C430 C446 1.429 . S
C430 H452 0.950 . S
C431 H427 0.949 . S
C431 C439 1.574 . S
C431 C447 1.368 1_554 S
H432 C440 0.950 . S
H433 C438 0.950 . S
H434 C439 0.949 . S
H435 C441 0.950 . S
H436 C442 0.950 . S
H437 C443 0.949 . S
C438 H433 0.950 . S
C438 C440 1.327 . S
C438 C444 1.419 1_556 S
C439 C431 1.574 . S
C439 H434 0.949 . S
C439 C445 1.368 1_554 S
C440 C424 1.349 1_556 S
C440 H432 0.950 . S
C440 C438 1.327 . S
C441 C429 1.349 1_554 S
C441 H435 0.950 . S
C441 C442 1.327 . S
C442 H436 0.950 . S
C442 C441 1.327 . S
C442 C446 1.429 1_554 S
C443 C426 1.574 . S
C443 H437 0.949 . S
C443 C447 1.368 . S
C444 C425 1.439 . S
C444 C438 1.419 1_554 S
C444 C445 1.523 1_554 S
C445 C426 1.368 . S
C445 C439 1.368 1_556 S
C445 C444 1.523 1_556 S
C446 C430 1.429 . S
C446 C442 1.429 1_556 S
C446 C447 1.523 . S
C447 C431 1.368 1_556 S
C447 C443 1.368 . S
C447 C446 1.523 . S
H448 C423 0.950 . S
H449 C425 0.950 . S
H450 C426 0.949 . S
H451 C428 0.950 . S
H452 C430 0.950 . S
C94 C82 1.170 . S
C99 C10 1.149 . S
C124 C2 1.222 . S
C129 C41 1.195 1_545 S
C154 C19 1.240 1_655 S
C159 C91 1.294 . S
C184 C61 1.149 . S
C189 C20 1.170 . S
C214 C0 1.149 1_455 S
C219 C63 1.195 . S
C244 C31 1.240 1_565 S
C249 C29 1.294 . S
C274 C64 1.222 . S
C279 C30 1.195 1_455 S
C304 C50 1.149 1_545 S
C309 C1 1.195 . S
C334 C72 1.149 . S
C339 C32 1.170 . S
C364 C92 1.195 1_554 S
C369 C60 1.222 . S
C394 C33 1.294 . S
C399 C81 1.240 1_556 S
C424 C62 1.149 1_554 S
C429 C51 1.195 . S
