# Generated by pormake.
# Topology unm, (4)-cn, num edge types: 1
# Building blocks:
#     Node 0, Type 0, BuildingBlock: CEKHIL_clean_sbu_0, # of connection points: 4
#     Node 1, Type 0, BuildingBlock: CEKHIL_clean_sbu_0, # of connection points: 4
#     Node 2, Type 0, BuildingBlock: CEKHIL_clean_sbu_0, # of connection points: 4
#     Node 3, Type 0, BuildingBlock: CEKHIL_clean_sbu_0, # of connection points: 4
#     Node 4, Type 0, BuildingBlock: CEKHIL_clean_sbu_0, # of connection points: 4
#     Node 5, Type 0, BuildingBlock: CEKHIL_clean_sbu_0, # of connection points: 4
#     Node 6, Type 0, BuildingBlock: CEKHIL_clean_sbu_0, # of connection points: 4
#     Node 7, Type 0, BuildingBlock: CEKHIL_clean_sbu_0, # of connection points: 4
#     Edge 8, Type (0, 0), BuildingBlock: TEMPAE_clean_linker_10, # of connection points: 2
#     Edge 9, Type (0, 0), BuildingBlock: TEMPAE_clean_linker_10, # of connection points: 2
#     Edge 10, Type (0, 0), BuildingBlock: TEMPAE_clean_linker_10, # of connection points: 2
#     Edge 11, Type (0, 0), BuildingBlock: TEMPAE_clean_linker_10, # of connection points: 2
#     Edge 12, Type (0, 0), BuildingBlock: TEMPAE_clean_linker_10, # of connection points: 2
#     Edge 13, Type (0, 0), BuildingBlock: TEMPAE_clean_linker_10, # of connection points: 2
#     Edge 14, Type (0, 0), BuildingBlock: TEMPAE_clean_linker_10, # of connection points: 2
#     Edge 15, Type (0, 0), BuildingBlock: TEMPAE_clean_linker_10, # of connection points: 2
#     Edge 16, Type (0, 0), BuildingBlock: TEMPAE_clean_linker_10, # of connection points: 2
#     Edge 17, Type (0, 0), BuildingBlock: TEMPAE_clean_linker_10, # of connection points: 2
#     Edge 18, Type (0, 0), BuildingBlock: TEMPAE_clean_linker_10, # of connection points: 2
#     Edge 19, Type (0, 0), BuildingBlock: TEMPAE_clean_linker_10, # of connection points: 2
#     Edge 20, Type (0, 0), BuildingBlock: TEMPAE_clean_linker_10, # of connection points: 2
#     Edge 21, Type (0, 0), BuildingBlock: TEMPAE_clean_linker_10, # of connection points: 2
#     Edge 22, Type (0, 0), BuildingBlock: TEMPAE_clean_linker_10, # of connection points: 2
#     Edge 23, Type (0, 0), BuildingBlock: TEMPAE_clean_linker_10, # of connection points: 2
# Relax obj value: 0.188
# Max RMSD: 0.152
# Mean RMSD: 0.152
data_MOF--net-unm--node1-CEKHIL_clean_sbu_0--edge1-TEMPAE_clean_linker_10
_symmetry_space_group_name_H-M    P1
_symmetry_Int_Tables_number       1
_symmetry_cell_setting            triclinic
loop_
_symmetry_equiv_pos_as_xyz
'x, y, z'
_cell_length_a     25.382245
_cell_length_b     25.376319
_cell_length_c     44.1683
_cell_angle_alpha  89.993315
_cell_angle_beta   89.991439
_cell_angle_gamma 90.006709
loop_
_atom_site_label
_atom_site_type_symbol
_atom_site_fract_x
_atom_site_fract_y
_atom_site_fract_z
_atom_type_partial_charge
Co0 Co 0.183 0.26008 0.1782 0.0
O1 O 0.24216 0.21554 0.18855 0.0
O2 O 0.24661 0.30159 0.18081 0.0
C3 C 0.12488 0.23001 0.21311 0.0
O4 O 0.13157 0.31963 0.16952 0.0
Co5 Co 0.07765 0.21383 0.15357 0.0
O6 O 0.05109 0.28633 0.15966 0.0
C7 C 0.16623 0.23085 0.11143 0.0
C8 C 0.27054 0.2582 0.1882 0.0
C9 C 0.08192 0.32502 0.16449 0.0
O10 O 0.19511 0.24888 0.1331 0.0
O11 O 0.1195 0.21322 0.11522 0.0
O12 O 0.16178 0.26291 0.22069 0.0
O13 O 0.1289 0.2109 0.18604 0.0
Co14 Co 0.24213 0.68246 0.67612 0.0
O15 O 0.28584 0.74146 0.68777 0.0
O16 O 0.19998 0.74552 0.67938 0.0
C17 C 0.27135 0.62269 0.71024 0.0
O18 O 0.18371 0.63087 0.66613 0.0
Co19 Co 0.29149 0.58033 0.64932 0.0
O20 O 0.21836 0.55283 0.65196 0.0
C21 C 0.28226 0.67386 0.61078 0.0
C22 C 0.24295 0.76947 0.68752 0.0
C23 C 0.17926 0.5822 0.65849 0.0
O24 O 0.25448 0.69675 0.63137 0.0
O25 O 0.30552 0.62971 0.61484 0.0
O26 O 0.23823 0.65915 0.7182 0.0
O27 O 0.29137 0.62839 0.68347 0.0
Co28 Co 0.80875 0.74271 0.1769 0.0
O29 O 0.74747 0.78421 0.18725 0.0
O30 O 0.74737 0.69798 0.17986 0.0
C31 C 0.86525 0.77585 0.21167 0.0
O32 O 0.86326 0.68596 0.16834 0.0
Co33 Co 0.91142 0.79437 0.15203 0.0
O34 O 0.94196 0.72355 0.15889 0.0
C35 C 0.82288 0.77491 0.11039 0.0
C36 C 0.72139 0.74011 0.18737 0.0
C37 C 0.91327 0.68322 0.16375 0.0
O38 O 0.79614 0.75298 0.13178 0.0
O39 O 0.86804 0.79618 0.11426 0.0
O40 O 0.83002 0.74124 0.21935 0.0
O41 O 0.86022 0.79462 0.18457 0.0
Co42 Co 0.75538 0.31828 0.67653 0.0
O43 O 0.71252 0.25883 0.68821 0.0
O44 O 0.79693 0.25443 0.67594 0.0
C45 C 0.7311 0.37396 0.71401 0.0
O46 O 0.81313 0.37033 0.66556 0.0
Co47 Co 0.70551 0.42524 0.65716 0.0
O48 O 0.7785 0.4517 0.66193 0.0
C49 C 0.71373 0.33882 0.61238 0.0
C50 C 0.75485 0.23042 0.68551 0.0
C51 C 0.81791 0.42064 0.66293 0.0
O52 O 0.73679 0.30906 0.63205 0.0
O53 O 0.69561 0.38455 0.61878 0.0
O54 O 0.76547 0.33708 0.719 0.0
O55 O 0.7076 0.37138 0.68808 0.0
Co56 Co 0.68235 0.23844 0.32515 0.0
O57 O 0.74203 0.28252 0.31504 0.0
O58 O 0.74607 0.19682 0.32384 0.0
C59 C 0.62613 0.26753 0.28891 0.0
O60 O 0.63055 0.17918 0.33381 0.0
Co61 Co 0.57497 0.28528 0.34668 0.0
O62 O 0.54928 0.21221 0.3416 0.0
C63 C 0.66123 0.27083 0.39096 0.0
C64 C 0.77027 0.2398 0.31594 0.0
C65 C 0.58071 0.17357 0.33807 0.0
O66 O 0.69186 0.25159 0.37038 0.0
O67 O 0.61509 0.28871 0.38546 0.0
O68 O 0.66306 0.23404 0.28232 0.0
O69 O 0.62891 0.28737 0.31582 0.0
Co70 Co 0.25926 0.18202 0.82605 0.0
O71 O 0.2165 0.2413 0.8136 0.0
O72 O 0.3014 0.24538 0.82455 0.0
C73 C 0.23281 0.12385 0.79022 0.0
O74 O 0.31729 0.13043 0.83729 0.0
Co75 Co 0.20981 0.07689 0.84885 0.0
O76 O 0.28293 0.05002 0.84597 0.0
C77 C 0.21557 0.16789 0.89036 0.0
C78 C 0.2593 0.26936 0.81504 0.0
C79 C 0.32215 0.08078 0.84256 0.0
O80 O 0.24207 0.19444 0.87058 0.0
O81 O 0.19571 0.12256 0.88478 0.0
O82 O 0.26707 0.16018 0.78381 0.0
O83 O 0.21086 0.12828 0.81652 0.0
Co84 Co 0.30808 0.75736 0.32316 0.0
O85 O 0.24715 0.7165 0.31149 0.0
O86 O 0.24685 0.8023 0.32045 0.0
C87 C 0.3658 0.7262 0.28848 0.0
O88 O 0.3624 0.81326 0.33331 0.0
Co89 Co 0.40861 0.70315 0.34879 0.0
O90 O 0.4398 0.77459 0.34468 0.0
C91 C 0.3164 0.71568 0.38815 0.0
C92 C 0.22105 0.76057 0.31202 0.0
C93 C 0.41193 0.81535 0.33937 0.0
O94 O 0.29404 0.74461 0.36789 0.0
O95 O 0.35961 0.69094 0.38368 0.0
O96 O 0.3308 0.76116 0.28098 0.0
O97 O 0.35967 0.70591 0.31514 0.0
Co98 Co 0.74627 0.81773 0.82389 0.0
O99 O 0.7898 0.7595 0.81101 0.0
O100 O 0.7052 0.7536 0.82293 0.0
C101 C 0.77101 0.87639 0.788 0.0
O102 O 0.68791 0.86854 0.83558 0.0
Co103 Co 0.7957 0.9226 0.84697 0.0
O104 O 0.7222 0.94883 0.84492 0.0
C105 C 0.79045 0.83143 0.88817 0.0
C106 C 0.74768 0.73064 0.81315 0.0
C107 C 0.68305 0.918 0.84135 0.0
O108 O 0.7641 0.80527 0.86821 0.0
O109 O 0.81035 0.87688 0.88292 0.0
O110 O 0.73717 0.83956 0.78179 0.0
O111 O 0.79374 0.87212 0.8141 0.0
C112 C 0.22746 0.20486 0.06948 0.0
C113 C 0.18482 0.23472 0.07988 0.0
C114 C 0.23812 0.20101 0.03823 0.0
C115 C 0.20579 0.22834 0.0172 0.0
C116 C 0.16546 0.26193 0.02804 0.0
C117 C 0.15504 0.2641 0.0592 0.0
C118 C 0.28122 0.16446 0.02766 0.0
C119 C 0.13062 0.29253 0.00662 0.0
C120 C 0.24149 0.22933 0.93299 0.0
C121 C 0.21051 0.18758 0.92203 0.0
C122 C 0.24045 0.24348 0.96389 0.0
C123 C 0.2079 0.21508 0.98427 0.0
C124 C 0.17577 0.17383 0.97315 0.0
C125 C 0.17727 0.16088 0.94234 0.0
C126 C 0.27473 0.28815 0.97483 0.0
C127 C 0.14014 0.14262 0.99393 0.0
H128 H 0.25025 0.18197 0.08554 0.0
H129 H 0.12216 0.28741 0.06738 0.0
H130 H 0.26329 0.12873 0.01746 0.0
H131 H 0.30551 0.18363 0.00993 0.0
H132 H 0.3073 0.15199 0.04654 0.0
H133 H 0.10724 0.32311 0.0186 0.0
H134 H 0.15448 0.31185 0.98874 0.0
H135 H 0.1029 0.26512 0.99526 0.0
H136 H 0.26749 0.2501 0.91761 0.0
H137 H 0.1528 0.12881 0.93429 0.0
H138 H 0.30449 0.27289 0.991 0.0
H139 H 0.25057 0.31759 0.98716 0.0
H140 H 0.29553 0.30823 0.95595 0.0
H141 H 0.16368 0.12418 0.01226 0.0
H142 H 0.11833 0.11108 0.98179 0.0
H143 H 0.11106 0.16921 0.00479 0.0
C144 C 0.32962 0.69618 0.56307 0.0
C145 C 0.28265 0.69533 0.57968 0.0
C146 C 0.32947 0.70658 0.53184 0.0
C147 C 0.28091 0.7142 0.51659 0.0
C148 C 0.23349 0.71555 0.53353 0.0
C149 C 0.23503 0.70682 0.56501 0.0
C150 C 0.38116 0.70663 0.51492 0.0
C151 C 0.1808 0.72223 0.51818 0.0
C152 C 0.29074 0.76326 0.43522 0.0
C153 C 0.29577 0.71563 0.41941 0.0
C154 C 0.2836 0.76372 0.46683 0.0
C155 C 0.27995 0.71536 0.48276 0.0
C156 C 0.28089 0.66728 0.4664 0.0
C157 C 0.28994 0.66799 0.43502 0.0
C158 C 0.28416 0.81576 0.48335 0.0
C159 C 0.2753 0.61487 0.48225 0.0
H160 H 0.36642 0.68716 0.57442 0.0
H161 H 0.19856 0.70525 0.57776 0.0
H162 H 0.38382 0.67088 0.50055 0.0
H163 H 0.38362 0.74139 0.49973 0.0
H164 H 0.41554 0.70711 0.53048 0.0
H165 H 0.14857 0.72927 0.53471 0.0
H166 H 0.18186 0.75543 0.50187 0.0
H167 H 0.17147 0.68601 0.50516 0.0
H168 H 0.29626 0.80011 0.42319 0.0
H169 H 0.2941 0.63118 0.42278 0.0
H170 H 0.32187 0.81978 0.49586 0.0
H171 H 0.25191 0.81761 0.50026 0.0
H172 H 0.28027 0.8497 0.46762 0.0
H173 H 0.31123 0.60679 0.49577 0.0
H174 H 0.26962 0.58193 0.46601 0.0
H175 H 0.2414 0.61569 0.49811 0.0
C176 C 0.82967 0.734 0.0598 0.0
C177 C 0.80474 0.7704 0.07884 0.0
C178 C 0.82276 0.73594 0.02829 0.0
C179 C 0.79062 0.77576 0.01552 0.0
C180 C 0.76265 0.81051 0.03492 0.0
C181 C 0.77023 0.80753 0.06646 0.0
C182 C 0.85315 0.69797 0.00861 0.0
C183 C 0.72781 0.85336 0.02228 0.0
C184 C 0.83137 0.83312 0.93963 0.0
C185 C 0.7942 0.81127 0.91973 0.0
C186 C 0.83109 0.82093 0.9706 0.0
C187 C 0.79255 0.786 0.98223 0.0
C188 C 0.75612 0.7621 0.96216 0.0
C189 C 0.75745 0.7749 0.9311 0.0
C190 C 0.87126 0.84675 0.99103 0.0
C191 C 0.71461 0.72453 0.97365 0.0
H192 H 0.85683 0.70564 0.06951 0.0
H193 H 0.75158 0.83607 0.08126 0.0
H194 H 0.82759 0.68169 0.99052 0.0
H195 H 0.88606 0.71916 0.99741 0.0
H196 H 0.86987 0.66478 0.02191 0.0
H197 H 0.70353 0.87236 0.04013 0.0
H198 H 0.75264 0.88403 0.01144 0.0
H199 H 0.70128 0.83723 0.0046 0.0
H200 H 0.86019 0.86094 0.9311 0.0
H201 H 0.72831 0.75807 0.91599 0.0
H202 H 0.89375 0.8163 0.00359 0.0
H203 H 0.85095 0.87173 0.00803 0.0
H204 H 0.89957 0.87172 0.97829 0.0
H205 H 0.73294 0.69303 0.98752 0.0
H206 H 0.69202 0.70598 0.95493 0.0
H207 H 0.68668 0.74604 0.9885 0.0
C208 C 0.7284 0.28044 0.43279 0.0
C209 C 0.67694 0.26933 0.42326 0.0
C210 C 0.7402 0.28534 0.46389 0.0
C211 C 0.69976 0.27804 0.48573 0.0
C212 C 0.64881 0.26299 0.47608 0.0
C213 C 0.63802 0.25923 0.44508 0.0
C214 C 0.79499 0.30153 0.47327 0.0
C215 C 0.60459 0.25411 0.49842 0.0
C216 C 0.72463 0.27069 0.57097 0.0
C217 C 0.71094 0.3219 0.5801 0.0
C218 C 0.72296 0.25595 0.54018 0.0
C219 C 0.70775 0.29344 0.51803 0.0
C220 C 0.69508 0.34537 0.52709 0.0
C221 C 0.69655 0.3588 0.55783 0.0
C222 C 0.73629 0.20006 0.53142 0.0
C223 C 0.67872 0.38675 0.50433 0.0
H224 H 0.75862 0.28797 0.41599 0.0
H225 H 0.59838 0.24946 0.43784 0.0
H226 H 0.79439 0.34315 0.48097 0.0
H227 H 0.80889 0.27719 0.49254 0.0
H228 H 0.82361 0.298 0.45434 0.0
H229 H 0.56936 0.23622 0.48759 0.0
H230 H 0.61773 0.2281 0.51713 0.0
H231 H 0.59281 0.29234 0.50857 0.0
H232 H 0.73617 0.24194 0.58788 0.0
H233 H 0.68656 0.39872 0.56434 0.0
H234 H 0.76626 0.19981 0.51313 0.0
H235 H 0.70063 0.18022 0.52242 0.0
H236 H 0.75143 0.17683 0.55088 0.0
H237 H 0.7085 0.38978 0.48602 0.0
H238 H 0.67375 0.42625 0.51478 0.0
H239 H 0.64084 0.37525 0.49368 0.0
C240 C 0.3456 0.21737 0.21643 0.0
C241 C 0.32629 0.25831 0.19822 0.0
C242 C 0.39637 0.21981 0.22906 0.0
C243 C 0.42911 0.26371 0.22277 0.0
C244 C 0.41069 0.30396 0.20322 0.0
C245 C 0.35927 0.30109 0.19149 0.0
C246 C 0.4141 0.17647 0.25019 0.0
C247 C 0.44479 0.35075 0.19536 0.0
C248 C 0.53293 0.29726 0.28176 0.0
C249 C 0.5777 0.27183 0.27023 0.0
C250 C 0.48461 0.29557 0.26631 0.0
C251 C 0.48117 0.26895 0.23819 0.0
C252 C 0.5269 0.24556 0.22565 0.0
C253 C 0.57451 0.24684 0.24195 0.0
C254 C 0.43673 0.3205 0.2807 0.0
C255 C 0.52521 0.21791 0.19541 0.0
H256 H 0.32019 0.18436 0.22188 0.0
H257 H 0.34465 0.33272 0.17729 0.0
H258 H 0.45198 0.15955 0.24231 0.0
H259 H 0.42095 0.19295 0.27313 0.0
H260 H 0.38469 0.14419 0.25197 0.0
H261 H 0.42668 0.37594 0.17762 0.0
H262 H 0.45137 0.37512 0.21585 0.0
H263 H 0.48397 0.33733 0.18731 0.0
H264 H 0.53502 0.31703 0.30346 0.0
H265 H 0.60899 0.22735 0.23278 0.0
H266 H 0.40659 0.2898 0.28523 0.0
H267 H 0.41886 0.34959 0.26504 0.0
H268 H 0.44623 0.34067 0.30235 0.0
H269 H 0.50037 0.18207 0.19713 0.0
H270 H 0.56504 0.2061 0.1875 0.0
H271 H 0.50703 0.24386 0.17809 0.0
C272 C 0.28393 0.84443 0.71581 0.0
C273 C 0.24217 0.82478 0.69835 0.0
C274 C 0.28134 0.89478 0.72898 0.0
C275 C 0.23634 0.92671 0.72409 0.0
C276 C 0.19502 0.9079 0.70544 0.0
C277 C 0.19818 0.85695 0.69306 0.0
C278 C 0.32592 0.91299 0.74909 0.0
C279 C 0.14689 0.9411 0.69916 0.0
C280 C 0.20526 0.0297 0.78405 0.0
C281 C 0.22877 0.07502 0.77189 0.0
C282 C 0.20699 0.98138 0.76858 0.0
C283 C 0.23146 0.97854 0.7398 0.0
C284 C 0.25296 0.02475 0.72673 0.0
C285 C 0.2519 0.07231 0.74308 0.0
C286 C 0.18433 0.93292 0.78358 0.0
C287 C 0.27817 0.0237 0.69578 0.0
H288 H 0.3179 0.81968 0.72015 0.0
H289 H 0.16588 0.84208 0.67947 0.0
H290 H 0.34162 0.95122 0.74094 0.0
H291 H 0.31108 0.91935 0.77245 0.0
H292 H 0.35876 0.88409 0.74996 0.0
H293 H 0.1204 0.92262 0.68219 0.0
H294 H 0.12439 0.94711 0.72041 0.0
H295 H 0.15879 0.98059 0.6908 0.0
H296 H 0.18705 0.0314 0.80619 0.0
H297 H 0.26985 0.10725 0.73344 0.0
H298 H 0.21596 0.90336 0.78714 0.0
H299 H 0.15426 0.91454 0.76874 0.0
H300 H 0.1659 0.9419 0.80581 0.0
H301 H 0.31426 0.99908 0.69641 0.0
H302 H 0.28905 0.06373 0.68775 0.0
H303 H 0.25096 0.00558 0.6791 0.0
C304 C 0.46033 0.69848 0.28396 0.0
C305 C 0.41508 0.72024 0.27073 0.0
C306 C 0.50913 0.69983 0.26892 0.0
C307 C 0.51249 0.72215 0.23957 0.0
C308 C 0.46631 0.74145 0.22542 0.0
C309 C 0.41831 0.74079 0.24129 0.0
C310 C 0.55752 0.67953 0.28501 0.0
C311 C 0.46789 0.76436 0.19389 0.0
C312 C 0.64469 0.77882 0.21515 0.0
C313 C 0.66621 0.73718 0.19833 0.0
C314 C 0.59459 0.77455 0.22849 0.0
C315 C 0.56476 0.72788 0.22441 0.0
C316 C 0.58553 0.68642 0.20655 0.0
C317 C 0.63621 0.69136 0.19398 0.0
C318 C 0.57426 0.81941 0.24771 0.0
C319 C 0.55456 0.63651 0.20115 0.0
H320 H 0.45821 0.68233 0.30662 0.0
H321 H 0.38342 0.75734 0.23081 0.0
H322 H 0.57786 0.64969 0.27088 0.0
H323 H 0.58562 0.71242 0.2887 0.0
H324 H 0.54799 0.66157 0.30729 0.0
H325 H 0.42788 0.77309 0.18502 0.0
H326 H 0.49107 0.80142 0.19399 0.0
H327 H 0.48779 0.73669 0.17815 0.0
H328 H 0.66778 0.81419 0.21882 0.0
H329 H 0.65256 0.65907 0.18095 0.0
H330 H 0.56728 0.80542 0.27118 0.0
H331 H 0.53597 0.8336 0.23878 0.0
H332 H 0.60211 0.85315 0.2485 0.0
H333 H 0.54841 0.61554 0.2229 0.0
H334 H 0.57481 0.60941 0.18518 0.0
H335 H 0.51506 0.64613 0.19193 0.0
C336 C 0.71731 0.15598 0.7156 0.0
C337 C 0.75644 0.17493 0.69599 0.0
C338 C 0.72122 0.10574 0.72876 0.0
C339 C 0.7648 0.07313 0.72166 0.0
C340 C 0.80329 0.09117 0.70087 0.0
C341 C 0.79897 0.14211 0.68853 0.0
C342 C 0.67969 0.08838 0.75116 0.0
C343 C 0.84967 0.05714 0.69219 0.0
C344 C 0.8007 0.96963 0.78047 0.0
C345 C 0.77444 0.92498 0.76943 0.0
C346 C 0.79893 0.01776 0.76478 0.0
C347 C 0.77096 0.02116 0.73708 0.0
C348 C 0.74642 0.97557 0.72513 0.0
C349 C 0.74814 0.92814 0.74155 0.0
C350 C 0.82521 0.06553 0.77848 0.0
C351 C 0.71698 0.97728 0.69545 0.0
H352 H 0.68453 0.18125 0.72165 0.0
H353 H 0.82926 0.15649 0.67333 0.0
H354 H 0.662 0.05049 0.74388 0.0
H355 H 0.69805 0.08167 0.77364 0.0
H356 H 0.6477 0.11791 0.75375 0.0
H357 H 0.87384 0.07522 0.67397 0.0
H358 H 0.87515 0.05061 0.71225 0.0
H359 H 0.83584 0.01791 0.68444 0.0
H360 H 0.82125 0.96753 0.80193 0.0
H361 H 0.72796 0.89373 0.73278 0.0
H362 H 0.79501 0.0957 0.78392 0.0
H363 H 0.85293 0.08343 0.76202 0.0
H364 H 0.8472 0.05587 0.79951 0.0
H365 H 0.68154 0.00253 0.6978 0.0
H366 H 0.70424 0.9375 0.68792 0.0
H367 H 0.74204 0.99499 0.67756 0.0
C368 C 0.84573 0.28066 0.28794 0.0
C369 C 0.82582 0.23896 0.30539 0.0
C370 C 0.89595 0.27773 0.2746 0.0
C371 C 0.92754 0.23239 0.27927 0.0
C372 C 0.90853 0.19115 0.29793 0.0
C373 C 0.85772 0.19469 0.31052 0.0
C374 C 0.91439 0.32233 0.25458 0.0
C375 C 0.94135 0.14269 0.304 0.0
C376 C 0.03055 0.20229 0.21898 0.0
C377 C 0.07597 0.22519 0.23138 0.0
C378 C 0.98224 0.20359 0.23454 0.0
C379 C 0.97941 0.22738 0.26353 0.0
C380 C 0.0257 0.24834 0.27677 0.0
C381 C 0.07328 0.24738 0.26046 0.0
C382 C 0.93377 0.18127 0.21943 0.0
C383 C 0.02468 0.27308 0.30785 0.0
H384 H 0.82122 0.31484 0.28369 0.0
H385 H 0.84267 0.16238 0.32404 0.0
H386 H 0.95277 0.33768 0.26271 0.0
H387 H 0.92054 0.30765 0.23117 0.0
H388 H 0.88574 0.35541 0.25384 0.0
H389 H 0.92268 0.11609 0.32086 0.0
H390 H 0.9472 0.12044 0.28265 0.0
H391 H 0.98092 0.15417 0.3124 0.0
H392 H 0.03222 0.1849 0.19661 0.0
H393 H 0.10825 0.26493 0.27029 0.0
H394 H 0.90451 0.21315 0.21577 0.0
H395 H 0.91501 0.15138 0.23425 0.0
H396 H 0.94282 0.16275 0.19724 0.0
H397 H 0.00035 0.30938 0.30735 0.0
H398 H 0.06474 0.28356 0.31599 0.0
H399 H 0.00628 0.24578 0.32438 0.0
C400 C 0.29477 0.52688 0.7144 0.0
C401 C 0.27621 0.57325 0.72798 0.0
C402 C 0.29316 0.47846 0.72989 0.0
C403 C 0.27379 0.47655 0.75997 0.0
C404 C 0.25728 0.52369 0.77425 0.0
C405 C 0.25816 0.57132 0.75799 0.0
C406 C 0.31043 0.42904 0.71365 0.0
C407 C 0.23745 0.52363 0.80648 0.0
C408 C 0.21832 0.3457 0.78778 0.0
C409 C 0.26131 0.32435 0.80354 0.0
C410 C 0.22164 0.39544 0.77386 0.0
C411 C 0.26891 0.42492 0.77601 0.0
C412 C 0.31183 0.40435 0.79275 0.0
C413 C 0.30762 0.35424 0.80617 0.0
C414 C 0.17504 0.41574 0.75607 0.0
C415 C 0.36264 0.43479 0.79594 0.0
H416 H 0.30877 0.52795 0.69126 0.0
H417 H 0.244 0.60705 0.7687 0.0
H418 H 0.34158 0.40869 0.72681 0.0
H419 H 0.27667 0.40145 0.71171 0.0
H420 H 0.32572 0.43734 0.69056 0.0
H421 H 0.22982 0.56407 0.81506 0.0
H422 H 0.20035 0.50066 0.80792 0.0
H423 H 0.26652 0.50424 0.82157 0.0
H424 H 0.18247 0.32283 0.78549 0.0
H425 H 0.34102 0.33811 0.81832 0.0
H426 H 0.18638 0.42122 0.732 0.0
H427 H 0.16267 0.45478 0.76484 0.0
H428 H 0.14077 0.38855 0.75707 0.0
H429 H 0.38127 0.43973 0.7734 0.0
H430 H 0.39113 0.4148 0.81119 0.0
H431 H 0.35457 0.47481 0.80494 0.0
C432 C 0.13562 0.80919 0.3064 0.0
C433 C 0.16594 0.76392 0.30105 0.0
C434 C 0.0848 0.81445 0.29408 0.0
C435 C 0.06425 0.77394 0.27545 0.0
C436 C 0.09445 0.72784 0.2703 0.0
C437 C 0.14467 0.72318 0.2834 0.0
C438 C 0.05342 0.86369 0.30061 0.0
C439 C 0.07434 0.68401 0.25022 0.0
C440 C 0.91789 0.76023 0.25871 0.0
C441 C 0.91428 0.7821 0.2296 0.0
C442 C 0.96597 0.7594 0.27448 0.0
C443 C 0.0118 0.78007 0.2606 0.0
C444 C 0.00799 0.80396 0.23168 0.0
C445 C 0.95914 0.80531 0.21672 0.0
C446 C 0.96806 0.73469 0.30555 0.0
C447 C 0.056 0.82588 0.21589 0.0
H448 H 0.15178 0.84076 0.32008 0.0
H449 H 0.16802 0.68826 0.27897 0.0
H450 H 0.04671 0.88586 0.27931 0.0
H451 H 0.01416 0.8531 0.30984 0.0
H452 H 0.07364 0.89004 0.31699 0.0
H453 H 0.10252 0.65063 0.24862 0.0
H454 H 0.0363 0.66886 0.25901 0.0
H455 H 0.06693 0.69939 0.22709 0.0
H456 H 0.88331 0.74257 0.26894 0.0
H457 H 0.95672 0.8226 0.19435 0.0
H458 H 0.98799 0.76154 0.32174 0.0
H459 H 0.99144 0.69779 0.30463 0.0
H460 H 0.9282 0.7252 0.31441 0.0
H461 H 0.07623 0.8549 0.23063 0.0
H462 H 0.04604 0.84528 0.19408 0.0
H463 H 0.08435 0.79354 0.21134 0.0
C464 C 0.76843 0.43166 0.75466 0.0
C465 C 0.72934 0.42226 0.73285 0.0
C466 C 0.77122 0.48006 0.77003 0.0
C467 C 0.73379 0.5199 0.76362 0.0
C468 C 0.69297 0.5098 0.74251 0.0
C469 C 0.69137 0.46118 0.72731 0.0
C470 C 0.8154 0.48925 0.7923 0.0
C471 C 0.65219 0.55113 0.73508 0.0
C472 C 0.71562 0.63752 0.81626 0.0
C473 C 0.74677 0.67577 0.80203 0.0
C474 C 0.71241 0.586 0.80463 0.0
C475 C 0.73925 0.57325 0.77745 0.0
C476 C 0.77065 0.61198 0.763 0.0
C477 C 0.77477 0.66247 0.77578 0.0
C478 C 0.68001 0.54536 0.82124 0.0
C479 C 0.79875 0.60052 0.73356 0.0
H480 H 0.79812 0.40189 0.75896 0.0
H481 H 0.66103 0.45411 0.71052 0.0
H482 H 0.79947 0.50403 0.81409 0.0
H483 H 0.83856 0.4529 0.79669 0.0
H484 H 0.84246 0.51986 0.78335 0.0
H485 H 0.62123 0.53601 0.71957 0.0
H486 H 0.63305 0.56551 0.75608 0.0
H487 H 0.6716 0.58547 0.72422 0.0
H488 H 0.69407 0.64785 0.83661 0.0
H489 H 0.7983 0.6923 0.76454 0.0
H490 H 0.70438 0.51006 0.8261 0.0
H491 H 0.64668 0.53236 0.80681 0.0
H492 H 0.66396 0.56072 0.84291 0.0
H493 H 0.82633 0.56702 0.73651 0.0
H494 H 0.8213 0.63505 0.72511 0.0
H495 H 0.76972 0.58883 0.71601 0.0
C496 C 0.91774 0.59001 0.18144 0.0
C497 C 0.93881 0.63108 0.16404 0.0
C498 C 0.9423 0.54055 0.18232 0.0
C499 C 0.98818 0.53183 0.1648 0.0
C500 C 0.0094 0.57308 0.14704 0.0
C501 C 0.98478 0.62248 0.14716 0.0
C502 C 0.91925 0.49768 0.20202 0.0
C503 C 0.05759 0.5648 0.12754 0.0
C504 C 0.0778 0.41703 0.18404 0.0
C505 C 0.0593 0.37835 0.1641 0.0
C506 C 0.05465 0.46721 0.18476 0.0
C507 C 0.01318 0.47907 0.16442 0.0
C508 C 0.99527 0.44043 0.14375 0.0
C509 C 0.01808 0.3902 0.14416 0.0
C510 C 0.07383 0.50715 0.20758 0.0
C511 C 0.95209 0.45214 0.1212 0.0
H512 H 0.88253 0.5968 0.19478 0.0
H513 H 0.00096 0.65415 0.13356 0.0
H514 H 0.90662 0.46396 0.18778 0.0
H515 H 0.9496 0.48274 0.21793 0.0
H516 H 0.8848 0.51162 0.21531 0.0
H517 H 0.06888 0.60094 0.1149 0.0
H518 H 0.09141 0.55242 0.14175 0.0
H519 H 0.05013 0.53271 0.11102 0.0
H520 H 0.10939 0.40756 0.19965 0.0
H521 H 0.00411 0.36029 0.12856 0.0
H522 H 0.04074 0.51948 0.2224 0.0
H523 H 0.08828 0.54296 0.19582 0.0
H524 H 0.10605 0.49145 0.22201 0.0
H525 H 0.9151 0.46199 0.1333 0.0
H526 H 0.94432 0.41836 0.10583 0.0
H527 H 0.96293 0.48692 0.10729 0.0
C528 C 0.91538 0.41418 0.67012 0.0
C529 C 0.87133 0.44356 0.66107 0.0
C530 C 0.96605 0.43615 0.66939 0.0
C531 C 0.97277 0.48843 0.65892 0.0
C532 C 0.92861 0.51801 0.64929 0.0
C533 C 0.87834 0.49536 0.65071 0.0
C534 C 0.01223 0.40381 0.68033 0.0
C535 C 0.93445 0.57365 0.63759 0.0
C536 C 0.09315 0.56587 0.68317 0.0
C537 C 0.12648 0.55879 0.65828 0.0
C538 C 0.04325 0.54231 0.68391 0.0
C539 C 0.0259 0.51265 0.65866 0.0
C540 C 0.05921 0.50628 0.6332 0.0
C541 C 0.1097 0.5287 0.63356 0.0
C542 C 0.00939 0.54863 0.7118 0.0
C543 C 0.04135 0.47623 0.60553 0.0
H544 H 0.91021 0.37426 0.67836 0.0
H545 H 0.84452 0.51823 0.64352 0.0
H546 H 0.04191 0.39984 0.66204 0.0
H547 H 0.03176 0.42412 0.69954 0.0
H548 H 0.00028 0.36375 0.6878 0.0
H549 H 0.89643 0.5904 0.62967 0.0
H550 H 0.95034 0.59943 0.65569 0.0
H551 H 0.96297 0.57455 0.61855 0.0
H552 H 0.10674 0.58875 0.70238 0.0
H553 H 0.13572 0.52363 0.61431 0.0
H554 H 0.99892 0.50932 0.72103 0.0
H555 H 0.97202 0.56878 0.70586 0.0
H556 H 0.02944 0.57166 0.72982 0.0
H557 H 0.03245 0.4348 0.61167 0.0
H558 H 0.07147 0.47632 0.58728 0.0
H559 H 0.00448 0.49379 0.59655 0.0
C560 C 0.51613 0.10895 0.35836 0.0
C561 C 0.55862 0.12 0.33914 0.0
C562 C 0.49376 0.05853 0.35928 0.0
C563 C 0.51343 0.01881 0.33985 0.0
C564 C 0.55635 0.02978 0.32035 0.0
C565 C 0.57899 0.08022 0.32055 0.0
C566 C 0.4489 0.04787 0.38091 0.0
C567 C 0.57745 0.98868 0.2988 0.0
C568 C 0.48236 0.87602 0.35776 0.0
C569 C 0.43791 0.86729 0.33962 0.0
C570 C 0.50731 0.92532 0.35817 0.0
C571 C 0.48804 0.96621 0.3394 0.0
C572 C 0.44374 0.95729 0.32064 0.0
C573 C 0.41878 0.90805 0.32126 0.0
C574 C 0.55373 0.93388 0.37898 0.0
C575 C 0.42282 0.99969 0.29985 0.0
H576 H 0.50073 0.13969 0.37294 0.0
H577 H 0.6116 0.08901 0.30551 0.0
H578 H 0.41272 0.03801 0.36802 0.0
H579 H 0.45835 0.01342 0.3954 0.0
H580 H 0.44035 0.08219 0.39573 0.0
H581 H 0.61118 0.00351 0.28522 0.0
H582 H 0.59038 0.95329 0.31152 0.0
H583 H 0.54577 0.97595 0.2831 0.0
H584 H 0.49705 0.84457 0.37206 0.0
H585 H 0.38481 0.90112 0.30692 0.0
H586 H 0.54509 0.9666 0.39489 0.0
H587 H 0.58889 0.94551 0.36565 0.0
H588 H 0.56352 0.89809 0.39233 0.0
H589 H 0.40931 0.03399 0.31334 0.0
H590 H 0.38943 0.98561 0.28575 0.0
H591 H 0.45465 0.01381 0.28465 0.0
C592 C 0.41666 0.08017 0.82723 0.0
C593 C 0.37552 0.05807 0.84415 0.0
C594 C 0.46691 0.05721 0.82721 0.0
C595 C 0.47635 0.01194 0.84514 0.0
C596 C 0.43527 0.99028 0.86287 0.0
C597 C 0.38508 0.01323 0.86185 0.0
C598 C 0.50953 0.08068 0.8075 0.0
C599 C 0.4443 0.9428 0.88282 0.0
C600 C 0.58987 0.92209 0.82405 0.0
C601 C 0.62974 0.94051 0.84323 0.0
C602 C 0.53973 0.94525 0.82431 0.0
C603 C 0.52902 0.98668 0.84489 0.0
C604 C 0.56882 0.00444 0.86487 0.0
C605 C 0.61907 0.98165 0.86346 0.0
C606 C 0.4986 0.9262 0.80214 0.0
C607 C 0.55836 0.04754 0.88767 0.0
H608 H 0.40917 0.11454 0.8133 0.0
H609 H 0.35336 0.99633 0.87512 0.0
H610 H 0.54377 0.09237 0.82156 0.0
H611 H 0.52366 0.05077 0.79106 0.0
H612 H 0.49561 0.11576 0.79475 0.0
H613 H 0.4089 0.9325 0.89639 0.0
H614 H 0.45515 0.90829 0.86874 0.0
H615 H 0.47763 0.95033 0.8985 0.0
H616 H 0.5984 0.89064 0.80817 0.0
H617 H 0.64992 0.99562 0.87842 0.0
H618 H 0.48559 0.95937 0.78757 0.0
H619 H 0.46341 0.91174 0.81449 0.0
H620 H 0.51349 0.894 0.78741 0.0
H621 H 0.54833 0.08471 0.87578 0.0
H622 H 0.5928 0.05492 0.90259 0.0
H623 H 0.52404 0.0369 0.90199 0.0
loop_
_geom_bond_atom_site_label_1
_geom_bond_atom_site_label_2
_geom_bond_distance
_geom_bond_site_symmetry_2
_ccdc_geom_bond_type
Co0 O1 2.216 . S
Co0 O2 2.091 . S
Co0 O4 2.004 . S
Co0 O10 2.021 . S
Co0 O12 2.137 . S
Co0 O13 2.244 . S
O1 Co0 2.216 . S
O1 C8 1.247 . S
O2 Co0 2.091 . S
O2 C8 1.261 . S
C3 O12 1.247 . S
C3 O13 1.272 . S
O4 Co0 2.004 . S
O4 C9 1.259 . S
Co5 O6 2.061 . S
Co5 O11 2.052 . S
Co5 O13 2.135 . S
O6 Co5 2.061 . S
O6 C9 1.235 . S
C7 O10 1.238 . S
C7 O11 1.241 . S
C8 O1 1.247 . S
C8 O2 1.261 . S
C9 O4 1.259 . S
C9 O6 1.235 . S
O10 Co0 2.021 . S
O10 C7 1.238 . S
O11 Co5 2.052 . S
O11 C7 1.241 . S
O12 Co0 2.137 . S
O12 C3 1.247 . S
O13 Co0 2.244 . S
O13 C3 1.272 . S
O13 Co5 2.135 . S
Co14 O15 2.216 . S
Co14 O16 2.091 . S
Co14 O18 2.004 . S
Co14 O24 2.021 . S
Co14 O26 2.137 . S
Co14 O27 2.244 . S
O15 Co14 2.216 . S
O15 C22 1.247 . S
O16 Co14 2.091 . S
O16 C22 1.261 . S
C17 O26 1.247 . S
C17 O27 1.272 . S
O18 Co14 2.004 . S
O18 C23 1.259 . S
Co19 O20 2.061 . S
Co19 O25 2.052 . S
Co19 O27 2.135 . S
O20 Co19 2.061 . S
O20 C23 1.235 . S
C21 O24 1.238 . S
C21 O25 1.241 . S
C22 O15 1.247 . S
C22 O16 1.261 . S
C23 O18 1.259 . S
C23 O20 1.235 . S
O24 Co14 2.021 . S
O24 C21 1.238 . S
O25 Co19 2.052 . S
O25 C21 1.241 . S
O26 Co14 2.137 . S
O26 C17 1.247 . S
O27 Co14 2.244 . S
O27 C17 1.272 . S
O27 Co19 2.135 . S
Co28 O29 2.216 . S
Co28 O30 2.091 . S
Co28 O32 2.004 . S
Co28 O38 2.021 . S
Co28 O40 2.137 . S
Co28 O41 2.244 . S
O29 Co28 2.216 . S
O29 C36 1.247 . S
O30 Co28 2.091 . S
O30 C36 1.261 . S
C31 O40 1.247 . S
C31 O41 1.272 . S
O32 Co28 2.004 . S
O32 C37 1.259 . S
Co33 O34 2.061 . S
Co33 O39 2.052 . S
Co33 O41 2.135 . S
O34 Co33 2.061 . S
O34 C37 1.235 . S
C35 O38 1.238 . S
C35 O39 1.241 . S
C36 O29 1.247 . S
C36 O30 1.261 . S
C37 O32 1.259 . S
C37 O34 1.235 . S
O38 Co28 2.021 . S
O38 C35 1.238 . S
O39 Co33 2.052 . S
O39 C35 1.241 . S
O40 Co28 2.137 . S
O40 C31 1.247 . S
O41 Co28 2.244 . S
O41 C31 1.272 . S
O41 Co33 2.135 . S
Co42 O43 2.216 . S
Co42 O44 2.091 . S
Co42 O46 2.004 . S
Co42 O52 2.021 . S
Co42 O54 2.137 . S
Co42 O55 2.244 . S
O43 Co42 2.216 . S
O43 C50 1.247 . S
O44 Co42 2.091 . S
O44 C50 1.261 . S
C45 O54 1.247 . S
C45 O55 1.272 . S
O46 Co42 2.004 . S
O46 C51 1.259 . S
Co47 O48 2.061 . S
Co47 O53 2.052 . S
Co47 O55 2.135 . S
O48 Co47 2.061 . S
O48 C51 1.235 . S
C49 O52 1.238 . S
C49 O53 1.241 . S
C50 O43 1.247 . S
C50 O44 1.261 . S
C51 O46 1.259 . S
C51 O48 1.235 . S
O52 Co42 2.021 . S
O52 C49 1.238 . S
O53 Co47 2.052 . S
O53 C49 1.241 . S
O54 Co42 2.137 . S
O54 C45 1.247 . S
O55 Co42 2.244 . S
O55 C45 1.272 . S
O55 Co47 2.135 . S
Co56 O57 2.216 . S
Co56 O58 2.091 . S
Co56 O60 2.004 . S
Co56 O66 2.021 . S
Co56 O68 2.137 . S
Co56 O69 2.244 . S
O57 Co56 2.216 . S
O57 C64 1.247 . S
O58 Co56 2.091 . S
O58 C64 1.261 . S
C59 O68 1.247 . S
C59 O69 1.272 . S
O60 Co56 2.004 . S
O60 C65 1.259 . S
Co61 O62 2.061 . S
Co61 O67 2.052 . S
Co61 O69 2.135 . S
O62 Co61 2.061 . S
O62 C65 1.235 . S
C63 O66 1.238 . S
C63 O67 1.241 . S
C64 O57 1.247 . S
C64 O58 1.261 . S
C65 O60 1.259 . S
C65 O62 1.235 . S
O66 Co56 2.021 . S
O66 C63 1.238 . S
O67 Co61 2.052 . S
O67 C63 1.241 . S
O68 Co56 2.137 . S
O68 C59 1.247 . S
O69 Co56 2.244 . S
O69 C59 1.272 . S
O69 Co61 2.135 . S
Co70 O71 2.216 . S
Co70 O72 2.091 . S
Co70 O74 2.004 . S
Co70 O80 2.021 . S
Co70 O82 2.137 . S
Co70 O83 2.244 . S
O71 Co70 2.216 . S
O71 C78 1.247 . S
O72 Co70 2.091 . S
O72 C78 1.261 . S
C73 O82 1.247 . S
C73 O83 1.272 . S
O74 Co70 2.004 . S
O74 C79 1.259 . S
Co75 O76 2.061 . S
Co75 O81 2.052 . S
Co75 O83 2.135 . S
O76 Co75 2.061 . S
O76 C79 1.235 . S
C77 O80 1.238 . S
C77 O81 1.241 . S
C78 O71 1.247 . S
C78 O72 1.261 . S
C79 O74 1.259 . S
C79 O76 1.235 . S
O80 Co70 2.021 . S
O80 C77 1.238 . S
O81 Co75 2.052 . S
O81 C77 1.241 . S
O82 Co70 2.137 . S
O82 C73 1.247 . S
O83 Co70 2.244 . S
O83 C73 1.272 . S
O83 Co75 2.135 . S
Co84 O85 2.216 . S
Co84 O86 2.091 . S
Co84 O88 2.004 . S
Co84 O94 2.021 . S
Co84 O96 2.137 . S
Co84 O97 2.244 . S
O85 Co84 2.216 . S
O85 C92 1.247 . S
O86 Co84 2.091 . S
O86 C92 1.261 . S
C87 O96 1.247 . S
C87 O97 1.272 . S
O88 Co84 2.004 . S
O88 C93 1.259 . S
Co89 O90 2.061 . S
Co89 O95 2.052 . S
Co89 O97 2.135 . S
O90 Co89 2.061 . S
O90 C93 1.235 . S
C91 O94 1.238 . S
C91 O95 1.241 . S
C92 O85 1.247 . S
C92 O86 1.261 . S
C93 O88 1.259 . S
C93 O90 1.235 . S
O94 Co84 2.021 . S
O94 C91 1.238 . S
O95 Co89 2.052 . S
O95 C91 1.241 . S
O96 Co84 2.137 . S
O96 C87 1.247 . S
O97 Co84 2.244 . S
O97 C87 1.272 . S
O97 Co89 2.135 . S
Co98 O99 2.216 . S
Co98 O100 2.091 . S
Co98 O102 2.004 . S
Co98 O108 2.021 . S
Co98 O110 2.137 . S
Co98 O111 2.244 . S
O99 Co98 2.216 . S
O99 C106 1.247 . S
O100 Co98 2.091 . S
O100 C106 1.261 . S
C101 O110 1.247 . S
C101 O111 1.272 . S
O102 Co98 2.004 . S
O102 C107 1.259 . S
Co103 O104 2.061 . S
Co103 O109 2.052 . S
Co103 O111 2.135 . S
O104 Co103 2.061 . S
O104 C107 1.235 . S
C105 O108 1.238 . S
C105 O109 1.241 . S
C106 O99 1.247 . S
C106 O100 1.261 . S
C107 O102 1.259 . S
C107 O104 1.235 . S
O108 Co98 2.021 . S
O108 C105 1.238 . S
O109 Co103 2.052 . S
O109 C105 1.241 . S
O110 Co98 2.137 . S
O110 C101 1.247 . S
O111 Co98 2.244 . S
O111 C101 1.272 . S
O111 Co103 2.135 . S
C112 C113 1.391 . S
C112 C114 1.394 . S
C112 H128 0.931 . S
C113 C112 1.391 . S
C113 C117 1.376 . S
C114 C112 1.394 . S
C114 C115 1.369 . S
C114 C118 1.531 . S
C115 C114 1.369 . S
C115 C116 1.410 . S
C115 C123 1.503 1_554 S
C116 C115 1.410 . S
C116 C117 1.392 . S
C116 C119 1.485 1_554 S
C117 C113 1.376 . S
C117 C116 1.392 . S
C117 H129 0.929 . S
C118 C114 1.531 . S
C118 H130 0.960 . S
C118 H131 0.962 . S
C118 H132 0.960 . S
C119 C116 1.485 1_556 S
C119 H133 0.951 1_556 S
C119 H134 0.993 . S
C119 H135 0.966 . S
C120 C121 1.370 . S
C120 C122 1.363 . S
C120 H136 0.931 . S
C121 C120 1.370 . S
C121 C125 1.408 . S
C122 C120 1.363 . S
C122 C123 1.370 . S
C122 C126 1.524 . S
C123 C115 1.503 1_556 S
C123 C122 1.370 . S
C123 C124 1.403 . S
C124 C123 1.403 . S
C124 C125 1.404 . S
C124 C127 1.539 . S
C125 C121 1.408 . S
C125 C124 1.404 . S
C125 H137 0.930 . S
C126 C122 1.524 . S
C126 H138 0.950 1_556 S
C126 H139 0.961 . S
C126 H140 0.961 . S
C127 C124 1.539 . S
C127 H141 0.958 . S
C127 H142 0.961 . S
C127 H143 0.938 1_556 S
H128 C112 0.931 . S
H129 C117 0.929 . S
H130 C118 0.960 . S
H131 C118 0.962 . S
H132 C118 0.960 . S
H133 C119 0.951 1_554 S
H134 C119 0.993 . S
H135 C119 0.966 . S
H136 C120 0.931 . S
H137 C125 0.930 . S
H138 C126 0.950 1_554 S
H139 C126 0.961 . S
H140 C126 0.961 . S
H141 C127 0.958 . S
H142 C127 0.961 . S
H143 C127 0.938 1_554 S
C144 C145 1.391 . S
C144 C146 1.394 . S
C144 H160 0.931 . S
C145 C144 1.391 . S
C145 C149 1.376 . S
C146 C144 1.394 . S
C146 C147 1.369 . S
C146 C150 1.531 . S
C147 C146 1.369 . S
C147 C148 1.410 . S
C147 C155 1.503 . S
C148 C147 1.410 . S
C148 C149 1.392 . S
C148 C151 1.511 . S
C149 C145 1.376 . S
C149 C148 1.392 . S
C149 H161 0.929 . S
C150 C146 1.531 . S
C150 H162 0.960 . S
C150 H163 0.962 . S
C150 H164 0.960 . S
C151 C148 1.511 . S
C151 H165 0.961 . S
C151 H166 0.961 . S
C151 H167 0.961 . S
C152 C153 1.370 . S
C152 C154 1.363 . S
C152 H168 0.931 . S
C153 C152 1.370 . S
C153 C157 1.408 . S
C154 C152 1.363 . S
C154 C155 1.370 . S
C154 C158 1.524 . S
C155 C147 1.503 . S
C155 C154 1.370 . S
C155 C156 1.403 . S
C156 C155 1.403 . S
C156 C157 1.404 . S
C156 C159 1.539 . S
C157 C153 1.408 . S
C157 C156 1.404 . S
C157 H169 0.930 . S
C158 C154 1.524 . S
C158 H170 0.956 . S
C158 H171 0.961 . S
C158 H172 0.961 . S
C159 C156 1.539 . S
C159 H173 0.958 . S
C159 H174 0.961 . S
C159 H175 0.960 . S
H160 C144 0.931 . S
H161 C149 0.929 . S
H162 C150 0.960 . S
H163 C150 0.962 . S
H164 C150 0.960 . S
H165 C151 0.961 . S
H166 C151 0.961 . S
H167 C151 0.961 . S
H168 C152 0.931 . S
H169 C157 0.930 . S
H170 C158 0.956 . S
H171 C158 0.961 . S
H172 C158 0.961 . S
H173 C159 0.958 . S
H174 C159 0.961 . S
H175 C159 0.960 . S
C176 C177 1.391 . S
C176 C178 1.394 . S
C176 H192 0.931 . S
C177 C176 1.391 . S
C177 C181 1.376 . S
C178 C176 1.394 . S
C178 C179 1.369 . S
C178 C182 1.531 1_554 S
C179 C178 1.369 . S
C179 C180 1.410 . S
C179 C187 1.503 1_554 S
C180 C179 1.410 . S
C180 C181 1.392 . S
C180 C183 1.511 . S
C181 C177 1.376 . S
C181 C180 1.392 . S
C181 H193 0.929 . S
C182 C178 1.531 1_556 S
C182 H194 0.960 . S
C182 H195 0.962 . S
C182 H196 0.960 1_556 S
C183 C180 1.511 . S
C183 H197 0.961 . S
C183 H198 0.961 . S
C183 H199 0.961 . S
C184 C185 1.370 . S
C184 C186 1.363 . S
C184 H200 0.931 . S
C185 C184 1.370 . S
C185 C189 1.408 . S
C186 C184 1.363 . S
C186 C187 1.370 . S
C186 C190 1.524 . S
C187 C179 1.503 1_556 S
C187 C186 1.370 . S
C187 C188 1.403 . S
C188 C187 1.403 . S
C188 C189 1.404 . S
C188 C191 1.539 . S
C189 C185 1.408 . S
C189 C188 1.404 . S
C189 H201 0.930 . S
C190 C186 1.524 . S
C190 H202 0.956 . S
C190 H203 0.961 1_556 S
C190 H204 0.961 . S
C191 C188 1.539 . S
C191 H205 0.958 . S
C191 H206 0.961 . S
C191 H207 0.973 . S
H192 C176 0.931 . S
H193 C181 0.929 . S
H194 C182 0.960 . S
H195 C182 0.962 . S
H196 C182 0.960 1_554 S
H197 C183 0.961 . S
H198 C183 0.961 . S
H199 C183 0.961 . S
H200 C184 0.931 . S
H201 C189 0.930 . S
H202 C190 0.956 . S
H203 C190 0.961 1_554 S
H204 C190 0.961 . S
H205 C191 0.958 . S
H206 C191 0.961 . S
H207 C191 0.973 . S
C208 C209 1.391 . S
C208 C210 1.394 . S
C208 H224 0.931 . S
C209 C208 1.391 . S
C209 C213 1.376 . S
C210 C208 1.394 . S
C210 C211 1.369 . S
C210 C214 1.531 . S
C211 C210 1.369 . S
C211 C212 1.410 . S
C211 C219 1.503 . S
C212 C211 1.410 . S
C212 C213 1.392 . S
C212 C215 1.511 . S
C213 C209 1.376 . S
C213 C212 1.392 . S
C213 H225 0.929 . S
C214 C210 1.531 . S
C214 H226 0.960 . S
C214 H227 0.962 . S
C214 H228 0.960 . S
C215 C212 1.511 . S
C215 H229 0.961 . S
C215 H230 0.961 . S
C215 H231 0.961 . S
C216 C217 1.370 . S
C216 C218 1.363 . S
C216 H232 0.931 . S
C217 C216 1.370 . S
C217 C221 1.408 . S
C218 C216 1.363 . S
C218 C219 1.370 . S
C218 C222 1.524 . S
C219 C211 1.503 . S
C219 C218 1.370 . S
C219 C220 1.403 . S
C220 C219 1.403 . S
C220 C221 1.404 . S
C220 C223 1.539 . S
C221 C217 1.408 . S
C221 C220 1.404 . S
C221 H233 0.930 . S
C222 C218 1.524 . S
C222 H234 0.956 . S
C222 H235 0.961 . S
C222 H236 0.961 . S
C223 C220 1.539 . S
C223 H237 0.958 . S
C223 H238 0.961 . S
C223 H239 0.960 . S
H224 C208 0.931 . S
H225 C213 0.929 . S
H226 C214 0.960 . S
H227 C214 0.962 . S
H228 C214 0.960 . S
H229 C215 0.961 . S
H230 C215 0.961 . S
H231 C215 0.961 . S
H232 C216 0.931 . S
H233 C221 0.930 . S
H234 C222 0.956 . S
H235 C222 0.961 . S
H236 C222 0.961 . S
H237 C223 0.958 . S
H238 C223 0.961 . S
H239 C223 0.960 . S
C240 C241 1.391 . S
C240 C242 1.394 . S
C240 H256 0.931 . S
C241 C240 1.391 . S
C241 C245 1.376 . S
C242 C240 1.394 . S
C242 C243 1.369 . S
C242 C246 1.531 . S
C243 C242 1.369 . S
C243 C244 1.410 . S
C243 C251 1.503 . S
C244 C243 1.410 . S
C244 C245 1.392 . S
C244 C247 1.511 . S
C245 C241 1.376 . S
C245 C244 1.392 . S
C245 H257 0.929 . S
C246 C242 1.531 . S
C246 H258 0.960 . S
C246 H259 0.962 . S
C246 H260 0.960 . S
C247 C244 1.511 . S
C247 H261 0.961 . S
C247 H262 0.961 . S
C247 H263 0.961 . S
C248 C249 1.370 . S
C248 C250 1.363 . S
C248 H264 0.931 . S
C249 C248 1.370 . S
C249 C253 1.408 . S
C250 C248 1.363 . S
C250 C251 1.370 . S
C250 C254 1.524 . S
C251 C243 1.503 . S
C251 C250 1.370 . S
C251 C252 1.403 . S
C252 C251 1.403 . S
C252 C253 1.404 . S
C252 C255 1.539 . S
C253 C249 1.408 . S
C253 C252 1.404 . S
C253 H265 0.930 . S
C254 C250 1.524 . S
C254 H266 0.956 . S
C254 H267 0.961 . S
C254 H268 0.961 . S
C255 C252 1.539 . S
C255 H269 0.958 . S
C255 H270 0.961 . S
C255 H271 0.960 . S
H256 C240 0.931 . S
H257 C245 0.929 . S
H258 C246 0.960 . S
H259 C246 0.962 . S
H260 C246 0.960 . S
H261 C247 0.961 . S
H262 C247 0.961 . S
H263 C247 0.961 . S
H264 C248 0.931 . S
H265 C253 0.930 . S
H266 C254 0.956 . S
H267 C254 0.961 . S
H268 C254 0.961 . S
H269 C255 0.958 . S
H270 C255 0.961 . S
H271 C255 0.960 . S
C272 C273 1.391 . S
C272 C274 1.394 . S
C272 H288 0.931 . S
C273 C272 1.391 . S
C273 C277 1.376 . S
C274 C272 1.394 . S
C274 C275 1.369 . S
C274 C278 1.531 . S
C275 C274 1.369 . S
C275 C276 1.410 . S
C275 C283 1.503 . S
C276 C275 1.410 . S
C276 C277 1.392 . S
C276 C279 1.511 . S
C277 C273 1.376 . S
C277 C276 1.392 . S
C277 H289 0.929 . S
C278 C274 1.531 . S
C278 H290 0.960 . S
C278 H291 0.962 . S
C278 H292 0.960 . S
C279 C276 1.511 . S
C279 H293 0.961 . S
C279 H294 0.961 . S
C279 H295 0.961 . S
C280 C281 1.356 1_565 S
C280 C282 1.376 . S
C280 H296 0.932 . S
C281 C280 1.356 1_545 S
C281 C285 1.408 . S
C282 C280 1.376 . S
C282 C283 1.370 . S
C282 C286 1.524 . S
C283 C275 1.503 . S
C283 C282 1.370 . S
C283 C284 1.403 1_565 S
C284 C283 1.403 1_545 S
C284 C285 1.404 . S
C284 C287 1.539 . S
C285 C281 1.408 . S
C285 C284 1.404 . S
C285 H297 0.930 . S
C286 C282 1.524 . S
C286 H298 0.956 . S
C286 H299 0.961 . S
C286 H300 0.961 . S
C287 C284 1.539 . S
C287 H301 0.958 . S
C287 H302 0.961 . S
C287 H303 0.960 1_545 S
H288 C272 0.931 . S
H289 C277 0.929 . S
H290 C278 0.960 . S
H291 C278 0.962 . S
H292 C278 0.960 . S
H293 C279 0.961 . S
H294 C279 0.961 . S
H295 C279 0.961 . S
H296 C280 0.932 . S
H297 C285 0.930 . S
H298 C286 0.956 . S
H299 C286 0.961 . S
H300 C286 0.961 . S
H301 C287 0.958 . S
H302 C287 0.961 . S
H303 C287 0.960 1_565 S
C304 C305 1.391 . S
C304 C306 1.394 . S
C304 H320 0.931 . S
C305 C304 1.391 . S
C305 C309 1.376 . S
C306 C304 1.394 . S
C306 C307 1.369 . S
C306 C310 1.531 . S
C307 C306 1.369 . S
C307 C308 1.410 . S
C307 C315 1.503 . S
C308 C307 1.410 . S
C308 C309 1.392 . S
C308 C311 1.511 . S
C309 C305 1.376 . S
C309 C308 1.392 . S
C309 H321 0.929 . S
C310 C306 1.531 . S
C310 H322 0.960 . S
C310 H323 0.962 . S
C310 H324 0.960 . S
C311 C308 1.511 . S
C311 H325 0.961 . S
C311 H326 0.961 . S
C311 H327 0.961 . S
C312 C313 1.370 . S
C312 C314 1.363 . S
C312 H328 0.931 . S
C313 C312 1.370 . S
C313 C317 1.408 . S
C314 C312 1.363 . S
C314 C315 1.370 . S
C314 C318 1.524 . S
C315 C307 1.503 . S
C315 C314 1.370 . S
C315 C316 1.403 . S
C316 C315 1.403 . S
C316 C317 1.404 . S
C316 C319 1.539 . S
C317 C313 1.408 . S
C317 C316 1.404 . S
C317 H329 0.930 . S
C318 C314 1.524 . S
C318 H330 0.956 . S
C318 H331 0.961 . S
C318 H332 0.961 . S
C319 C316 1.539 . S
C319 H333 0.958 . S
C319 H334 0.961 . S
C319 H335 0.960 . S
H320 C304 0.931 . S
H321 C309 0.929 . S
H322 C310 0.960 . S
H323 C310 0.962 . S
H324 C310 0.960 . S
H325 C311 0.961 . S
H326 C311 0.961 . S
H327 C311 0.961 . S
H328 C312 0.931 . S
H329 C317 0.930 . S
H330 C318 0.956 . S
H331 C318 0.961 . S
H332 C318 0.961 . S
H333 C319 0.958 . S
H334 C319 0.961 . S
H335 C319 0.960 . S
C336 C337 1.391 . S
C336 C338 1.394 . S
C336 H352 0.931 . S
C337 C336 1.391 . S
C337 C341 1.376 . S
C338 C336 1.394 . S
C338 C339 1.369 . S
C338 C342 1.531 . S
C339 C338 1.369 . S
C339 C340 1.410 . S
C339 C347 1.503 . S
C340 C339 1.410 . S
C340 C341 1.392 . S
C340 C343 1.511 . S
C341 C337 1.376 . S
C341 C340 1.392 . S
C341 H353 0.929 . S
C342 C338 1.531 . S
C342 H354 0.960 . S
C342 H355 0.962 . S
C342 H356 0.960 . S
C343 C340 1.511 . S
C343 H357 0.961 . S
C343 H358 0.961 . S
C343 H359 0.961 . S
C344 C345 1.370 . S
C344 C346 1.363 1_565 S
C344 H360 0.931 . S
C345 C344 1.370 . S
C345 C349 1.408 . S
C346 C344 1.363 1_545 S
C346 C347 1.370 . S
C346 C350 1.524 . S
C347 C339 1.503 . S
C347 C346 1.370 . S
C347 C348 1.403 . S
C348 C347 1.403 . S
C348 C349 1.404 1_545 S
C348 C351 1.539 . S
C349 C345 1.408 . S
C349 C348 1.404 1_565 S
C349 H361 0.930 . S
C350 C346 1.524 . S
C350 H362 0.956 . S
C350 H363 0.961 . S
C350 H364 0.961 . S
C351 C348 1.539 . S
C351 H365 0.958 . S
C351 H366 0.961 . S
C351 H367 0.960 . S
H352 C336 0.931 . S
H353 C341 0.929 . S
H354 C342 0.960 . S
H355 C342 0.962 . S
H356 C342 0.960 . S
H357 C343 0.961 . S
H358 C343 0.961 . S
H359 C343 0.961 . S
H360 C344 0.931 . S
H361 C349 0.930 . S
H362 C350 0.956 . S
H363 C350 0.961 . S
H364 C350 0.961 . S
H365 C351 0.958 . S
H366 C351 0.961 . S
H367 C351 0.960 . S
C368 C369 1.391 . S
C368 C370 1.394 . S
C368 H384 0.931 . S
C369 C368 1.391 . S
C369 C373 1.376 . S
C370 C368 1.394 . S
C370 C371 1.369 . S
C370 C374 1.531 . S
C371 C370 1.369 . S
C371 C372 1.410 . S
C371 C379 1.503 . S
C372 C371 1.410 . S
C372 C373 1.392 . S
C372 C375 1.511 . S
C373 C369 1.376 . S
C373 C372 1.392 . S
C373 H385 0.929 . S
C374 C370 1.531 . S
C374 H386 0.960 . S
C374 H387 0.962 . S
C374 H388 0.960 . S
C375 C372 1.511 . S
C375 H389 0.961 . S
C375 H390 0.961 . S
C375 H391 0.961 . S
C376 C377 1.370 . S
C376 C378 1.363 1_455 S
C376 H392 0.931 . S
C377 C376 1.370 . S
C377 C381 1.408 . S
C378 C376 1.363 1_655 S
C378 C379 1.370 . S
C378 C382 1.524 . S
C379 C371 1.503 . S
C379 C378 1.370 . S
C379 C380 1.403 . S
C380 C379 1.403 . S
C380 C381 1.404 1_655 S
C380 C383 1.539 . S
C381 C377 1.408 . S
C381 C380 1.404 1_455 S
C381 H393 0.930 . S
C382 C378 1.524 . S
C382 H394 0.956 . S
C382 H395 0.961 . S
C382 H396 0.961 . S
C383 C380 1.539 . S
C383 H397 0.958 . S
C383 H398 0.961 1_655 S
C383 H399 0.960 . S
H384 C368 0.931 . S
H385 C373 0.929 . S
H386 C374 0.960 . S
H387 C374 0.962 . S
H388 C374 0.960 . S
H389 C375 0.961 . S
H390 C375 0.961 . S
H391 C375 0.961 . S
H392 C376 0.931 . S
H393 C381 0.930 . S
H394 C382 0.956 . S
H395 C382 0.961 . S
H396 C382 0.961 . S
H397 C383 0.958 . S
H398 C383 0.961 1_455 S
H399 C383 0.960 . S
C400 C401 1.391 . S
C400 C402 1.394 . S
C400 H416 0.931 . S
C401 C400 1.391 . S
C401 C405 1.376 . S
C402 C400 1.394 . S
C402 C403 1.369 . S
C402 C406 1.531 . S
C403 C402 1.369 . S
C403 C404 1.410 . S
C403 C411 1.503 . S
C404 C403 1.410 . S
C404 C405 1.392 . S
C404 C407 1.511 . S
C405 C401 1.376 . S
C405 C404 1.392 . S
C405 H417 0.929 . S
C406 C402 1.531 . S
C406 H418 0.960 . S
C406 H419 0.962 . S
C406 H420 0.960 . S
C407 C404 1.511 . S
C407 H421 0.961 . S
C407 H422 0.961 . S
C407 H423 0.961 . S
C408 C409 1.370 . S
C408 C410 1.363 . S
C408 H424 0.931 . S
C409 C408 1.370 . S
C409 C413 1.408 . S
C410 C408 1.363 . S
C410 C411 1.370 . S
C410 C414 1.524 . S
C411 C403 1.503 . S
C411 C410 1.370 . S
C411 C412 1.403 . S
C412 C411 1.403 . S
C412 C413 1.404 . S
C412 C415 1.539 . S
C413 C409 1.408 . S
C413 C412 1.404 . S
C413 H425 0.930 . S
C414 C410 1.524 . S
C414 H426 0.956 . S
C414 H427 0.961 . S
C414 H428 0.961 . S
C415 C412 1.539 . S
C415 H429 0.958 . S
C415 H430 0.961 . S
C415 H431 0.960 . S
H416 C400 0.931 . S
H417 C405 0.929 . S
H418 C406 0.960 . S
H419 C406 0.962 . S
H420 C406 0.960 . S
H421 C407 0.961 . S
H422 C407 0.961 . S
H423 C407 0.961 . S
H424 C408 0.931 . S
H425 C413 0.930 . S
H426 C414 0.956 . S
H427 C414 0.961 . S
H428 C414 0.961 . S
H429 C415 0.958 . S
H430 C415 0.961 . S
H431 C415 0.960 . S
C432 C433 1.391 . S
C432 C434 1.394 . S
C432 H448 0.931 . S
C433 C432 1.391 . S
C433 C437 1.376 . S
C434 C432 1.394 . S
C434 C435 1.369 . S
C434 C438 1.531 . S
C435 C434 1.369 . S
C435 C436 1.410 . S
C435 C443 1.503 . S
C436 C435 1.410 . S
C436 C437 1.392 . S
C436 C439 1.511 . S
C437 C433 1.376 . S
C437 C436 1.392 . S
C437 H449 0.929 . S
C438 C434 1.531 . S
C438 H450 0.960 . S
C438 H451 0.962 . S
C438 H452 0.960 . S
C439 C436 1.511 . S
C439 H453 0.961 . S
C439 H454 0.961 . S
C439 H455 0.961 . S
C440 C441 1.370 . S
C440 C442 1.363 1_655 S
C440 H456 0.931 . S
C441 C440 1.370 . S
C441 C445 1.408 . S
C442 C440 1.363 1_455 S
C442 C443 1.370 . S
C442 C446 1.524 . S
C443 C435 1.503 . S
C443 C442 1.370 . S
C443 C444 1.403 . S
C444 C443 1.403 . S
C444 C445 1.404 1_455 S
C444 C447 1.539 . S
C445 C441 1.408 . S
C445 C444 1.404 1_655 S
C445 H457 0.930 . S
C446 C442 1.524 . S
C446 H458 0.956 . S
C446 H459 0.961 . S
C446 H460 0.961 1_455 S
C447 C444 1.539 . S
C447 H461 0.958 . S
C447 H462 0.961 . S
C447 H463 0.960 . S
H448 C432 0.931 . S
H449 C437 0.929 . S
H450 C438 0.960 . S
H451 C438 0.962 . S
H452 C438 0.960 . S
H453 C439 0.961 . S
H454 C439 0.961 . S
H455 C439 0.961 . S
H456 C440 0.931 . S
H457 C445 0.930 . S
H458 C446 0.956 . S
H459 C446 0.961 . S
H460 C446 0.961 1_655 S
H461 C447 0.958 . S
H462 C447 0.961 . S
H463 C447 0.960 . S
C464 C465 1.391 . S
C464 C466 1.394 . S
C464 H480 0.931 . S
C465 C464 1.391 . S
C465 C469 1.376 . S
C466 C464 1.394 . S
C466 C467 1.369 . S
C466 C470 1.531 . S
C467 C466 1.369 . S
C467 C468 1.410 . S
C467 C475 1.503 . S
C468 C467 1.410 . S
C468 C469 1.392 . S
C468 C471 1.511 . S
C469 C465 1.376 . S
C469 C468 1.392 . S
C469 H481 0.929 . S
C470 C466 1.531 . S
C470 H482 0.960 . S
C470 H483 0.962 . S
C470 H484 0.960 . S
C471 C468 1.511 . S
C471 H485 0.961 . S
C471 H486 0.961 . S
C471 H487 0.961 . S
C472 C473 1.370 . S
C472 C474 1.363 . S
C472 H488 0.931 . S
C473 C472 1.370 . S
C473 C477 1.408 . S
C474 C472 1.363 . S
C474 C475 1.370 . S
C474 C478 1.524 . S
C475 C467 1.503 . S
C475 C474 1.370 . S
C475 C476 1.403 . S
C476 C475 1.403 . S
C476 C477 1.404 . S
C476 C479 1.539 . S
C477 C473 1.408 . S
C477 C476 1.404 . S
C477 H489 0.930 . S
C478 C474 1.524 . S
C478 H490 0.956 . S
C478 H491 0.961 . S
C478 H492 0.961 . S
C479 C476 1.539 . S
C479 H493 0.958 . S
C479 H494 0.961 . S
C479 H495 0.960 . S
H480 C464 0.931 . S
H481 C469 0.929 . S
H482 C470 0.960 . S
H483 C470 0.962 . S
H484 C470 0.960 . S
H485 C471 0.961 . S
H486 C471 0.961 . S
H487 C471 0.961 . S
H488 C472 0.931 . S
H489 C477 0.930 . S
H490 C478 0.956 . S
H491 C478 0.961 . S
H492 C478 0.961 . S
H493 C479 0.958 . S
H494 C479 0.961 . S
H495 C479 0.960 . S
C496 C497 1.391 . S
C496 C498 1.394 . S
C496 H512 0.931 . S
C497 C496 1.391 . S
C497 C501 1.376 . S
C498 C496 1.394 . S
C498 C499 1.369 . S
C498 C502 1.531 . S
C499 C498 1.369 . S
C499 C500 1.410 . S
C499 C507 1.503 1_655 S
C500 C499 1.410 . S
C500 C501 1.392 . S
C500 C503 1.511 1_655 S
C501 C497 1.376 . S
C501 C500 1.392 . S
C501 H513 0.929 . S
C502 C498 1.531 . S
C502 H514 0.960 . S
C502 H515 0.962 . S
C502 H516 0.960 . S
C503 C500 1.511 1_455 S
C503 H517 0.961 . S
C503 H518 0.961 . S
C503 H519 0.961 . S
C504 C505 1.370 . S
C504 C506 1.363 . S
C504 H520 0.931 . S
C505 C504 1.370 . S
C505 C509 1.408 . S
C506 C504 1.363 . S
C506 C507 1.370 . S
C506 C510 1.524 . S
C507 C499 1.503 1_455 S
C507 C506 1.370 . S
C507 C508 1.403 . S
C508 C507 1.403 . S
C508 C509 1.404 . S
C508 C511 1.539 . S
C509 C505 1.408 . S
C509 C508 1.404 . S
C509 H521 0.930 . S
C510 C506 1.524 . S
C510 H522 0.958 1_455 S
C510 H523 0.961 . S
C510 H524 0.961 . S
C511 C508 1.539 . S
C511 H525 0.958 1_455 S
C511 H526 0.961 . S
C511 H527 0.960 1_455 S
H512 C496 0.931 . S
H513 C501 0.929 . S
H514 C502 0.960 . S
H515 C502 0.962 . S
H516 C502 0.960 . S
H517 C503 0.961 . S
H518 C503 0.961 . S
H519 C503 0.961 . S
H520 C504 0.931 . S
H521 C509 0.930 . S
H522 C510 0.958 1_655 S
H523 C510 0.961 . S
H524 C510 0.961 . S
H525 C511 0.958 1_655 S
H526 C511 0.961 . S
H527 C511 0.960 1_655 S
C528 C529 1.391 . S
C528 C530 1.394 . S
C528 H544 0.931 . S
C529 C528 1.391 . S
C529 C533 1.376 . S
C530 C528 1.394 . S
C530 C531 1.369 . S
C530 C534 1.531 1_655 S
C531 C530 1.369 . S
C531 C532 1.410 . S
C531 C539 1.503 1_655 S
C532 C531 1.410 . S
C532 C533 1.392 . S
C532 C535 1.511 . S
C533 C529 1.376 . S
C533 C532 1.392 . S
C533 H545 0.929 . S
C534 C530 1.531 1_455 S
C534 H546 0.960 . S
C534 H547 0.962 . S
C534 H548 0.960 . S
C535 C532 1.511 . S
C535 H549 0.961 . S
C535 H550 0.961 . S
C535 H551 0.961 . S
C536 C537 1.370 . S
C536 C538 1.363 . S
C536 H552 0.931 . S
C537 C536 1.370 . S
C537 C541 1.408 . S
C538 C536 1.363 . S
C538 C539 1.370 . S
C538 C542 1.524 . S
C539 C531 1.503 1_455 S
C539 C538 1.370 . S
C539 C540 1.403 . S
C540 C539 1.403 . S
C540 C541 1.404 . S
C540 C543 1.539 1_455 S
C541 C537 1.408 . S
C541 C540 1.404 . S
C541 H553 0.930 . S
C542 C538 1.524 . S
C542 H554 0.956 . S
C542 H555 0.961 . S
C542 H556 0.961 . S
C543 C540 1.539 1_655 S
C543 H557 0.958 1_655 S
C543 H558 0.961 . S
C543 H559 0.960 . S
H544 C528 0.931 . S
H545 C533 0.929 . S
H546 C534 0.960 . S
H547 C534 0.962 . S
H548 C534 0.960 . S
H549 C535 0.961 . S
H550 C535 0.961 . S
H551 C535 0.961 . S
H552 C536 0.931 . S
H553 C541 0.930 . S
H554 C542 0.956 . S
H555 C542 0.961 . S
H556 C542 0.961 . S
H557 C543 0.958 1_455 S
H558 C543 0.961 . S
H559 C543 0.960 . S
C560 C561 1.391 . S
C560 C562 1.394 . S
C560 H576 0.931 . S
C561 C560 1.391 . S
C561 C565 1.376 . S
C562 C560 1.394 . S
C562 C563 1.369 . S
C562 C566 1.531 . S
C563 C562 1.369 . S
C563 C564 1.410 . S
C563 C571 1.503 1_545 S
C564 C563 1.410 . S
C564 C565 1.392 . S
C564 C567 1.511 1_545 S
C565 C561 1.376 . S
C565 C564 1.392 . S
C565 H577 0.929 . S
C566 C562 1.531 . S
C566 H578 0.960 . S
C566 H579 0.962 . S
C566 H580 0.960 . S
C567 C564 1.511 1_565 S
C567 H581 0.961 . S
C567 H582 0.961 . S
C567 H583 0.961 1_565 S
C568 C569 1.370 . S
C568 C570 1.363 . S
C568 H584 0.931 . S
C569 C568 1.370 . S
C569 C573 1.408 . S
C570 C568 1.363 . S
C570 C571 1.370 . S
C570 C574 1.524 . S
C571 C563 1.503 1_565 S
C571 C570 1.370 . S
C571 C572 1.403 1_565 S
C572 C571 1.403 1_545 S
C572 C573 1.404 1_545 S
C572 C575 1.539 . S
C573 C569 1.408 . S
C573 C572 1.404 1_565 S
C573 H585 0.930 . S
C574 C570 1.524 . S
C574 H586 0.956 . S
C574 H587 0.961 . S
C574 H588 0.961 . S
C575 C572 1.539 . S
C575 H589 0.958 . S
C575 H590 0.961 . S
C575 H591 0.960 . S
H576 C560 0.931 . S
H577 C565 0.929 . S
H578 C566 0.960 . S
H579 C566 0.962 . S
H580 C566 0.960 . S
H581 C567 0.961 . S
H582 C567 0.961 . S
H583 C567 0.961 1_545 S
H584 C568 0.931 . S
H585 C573 0.930 . S
H586 C574 0.956 . S
H587 C574 0.961 . S
H588 C574 0.961 . S
H589 C575 0.958 . S
H590 C575 0.961 . S
H591 C575 0.960 . S
C592 C593 1.391 . S
C592 C594 1.394 . S
C592 H608 0.931 . S
C593 C592 1.391 . S
C593 C597 1.376 . S
C594 C592 1.394 . S
C594 C595 1.369 . S
C594 C598 1.531 . S
C595 C594 1.369 . S
C595 C596 1.410 . S
C595 C603 1.503 1_545 S
C596 C595 1.410 . S
C596 C597 1.392 . S
C596 C599 1.511 1_545 S
C597 C593 1.376 . S
C597 C596 1.392 . S
C597 H609 0.929 . S
C598 C594 1.531 . S
C598 H610 0.960 . S
C598 H611 0.962 . S
C598 H612 0.960 . S
C599 C596 1.511 1_565 S
C599 H613 0.961 . S
C599 H614 0.961 . S
C599 H615 0.961 . S
C600 C601 1.370 . S
C600 C602 1.363 . S
C600 H616 0.931 . S
C601 C600 1.370 . S
C601 C605 1.408 . S
C602 C600 1.363 . S
C602 C603 1.370 . S
C602 C606 1.524 . S
C603 C595 1.503 1_565 S
C603 C602 1.370 . S
C603 C604 1.403 . S
C604 C603 1.403 . S
C604 C605 1.404 . S
C604 C607 1.539 . S
C605 C601 1.408 . S
C605 C604 1.404 . S
C605 H617 0.930 . S
C606 C602 1.524 . S
C606 H618 0.956 1_565 S
C606 H619 0.961 . S
C606 H620 0.961 . S
C607 C604 1.539 . S
C607 H621 0.958 1_565 S
C607 H622 0.961 . S
C607 H623 0.960 1_565 S
H608 C592 0.931 . S
H609 C597 0.929 . S
H610 C598 0.960 . S
H611 C598 0.962 . S
H612 C598 0.960 . S
H613 C599 0.961 . S
H614 C599 0.961 . S
H615 C599 0.961 . S
H616 C600 0.931 . S
H617 C605 0.930 . S
H618 C606 0.956 1_545 S
H619 C606 0.961 . S
H620 C606 0.961 . S
H621 C607 0.958 1_545 S
H622 C607 0.961 . S
H623 C607 0.960 1_545 S
C113 C7 1.293 . S
C121 C77 1.300 . S
C145 C21 1.276 . S
C153 C91 1.316 . S
C177 C35 1.319 . S
C185 C105 1.316 . S
C209 C63 1.306 . S
C217 C49 1.297 . S
C241 C8 1.649 . S
C249 C59 1.610 . S
C273 C22 1.635 . S
C281 C73 1.622 . S
C305 C87 1.634 . S
C313 C36 1.636 . S
C337 C50 1.647 . S
C345 C101 1.607 . S
C369 C64 1.649 . S
C377 C3 1.610 . S
C401 C17 1.626 . S
C409 C78 1.635 . S
C433 C92 1.625 . S
C441 C31 1.620 . S
C465 C45 1.623 . S
C473 C106 1.635 . S
C497 C37 0.625 . S
C505 C9 0.581 . S
C529 C51 0.561 . S
C537 C23 0.606 . S
C561 C65 0.485 . S
C569 C93 0.611 . S
C593 C79 0.620 . S
C601 C107 0.583 . S
