# Generated by pormake.
# Topology xbj, (5)-cn, num edge types: 1
# Building blocks:
#     Node 0, Type 0, BuildingBlock: XOMCOT_clean_sbu_1, # of connection points: 5
#     Node 1, Type 0, BuildingBlock: XOMCOT_clean_sbu_1, # of connection points: 5
#     Node 2, Type 0, BuildingBlock: XOMCOT_clean_sbu_1, # of connection points: 5
#     Node 3, Type 0, BuildingBlock: XOMCOT_clean_sbu_1, # of connection points: 5
#     Node 4, Type 0, BuildingBlock: XOMCOT_clean_sbu_1, # of connection points: 5
#     Node 5, Type 0, BuildingBlock: XOMCOT_clean_sbu_1, # of connection points: 5
#     Node 6, Type 0, BuildingBlock: XOMCOT_clean_sbu_1, # of connection points: 5
#     Node 7, Type 0, BuildingBlock: XOMCOT_clean_sbu_1, # of connection points: 5
#     Edge 8, Type (0, 0), BuildingBlock: XIVTED_clean_linker_0, # of connection points: 2
#     Edge 9, Type (0, 0), BuildingBlock: XIVTED_clean_linker_0, # of connection points: 2
#     Edge 10, Type (0, 0), BuildingBlock: XIVTED_clean_linker_0, # of connection points: 2
#     Edge 11, Type (0, 0), BuildingBlock: XIVTED_clean_linker_0, # of connection points: 2
#     Edge 12, Type (0, 0), BuildingBlock: XIVTED_clean_linker_0, # of connection points: 2
#     Edge 13, Type (0, 0), BuildingBlock: XIVTED_clean_linker_0, # of connection points: 2
#     Edge 14, Type (0, 0), BuildingBlock: XIVTED_clean_linker_0, # of connection points: 2
#     Edge 15, Type (0, 0), BuildingBlock: XIVTED_clean_linker_0, # of connection points: 2
#     Edge 16, Type (0, 0), BuildingBlock: XIVTED_clean_linker_0, # of connection points: 2
#     Edge 17, Type (0, 0), BuildingBlock: XIVTED_clean_linker_0, # of connection points: 2
#     Edge 18, Type (0, 0), BuildingBlock: XIVTED_clean_linker_0, # of connection points: 2
#     Edge 19, Type (0, 0), BuildingBlock: XIVTED_clean_linker_0, # of connection points: 2
#     Edge 20, Type (0, 0), BuildingBlock: XIVTED_clean_linker_0, # of connection points: 2
#     Edge 21, Type (0, 0), BuildingBlock: XIVTED_clean_linker_0, # of connection points: 2
#     Edge 22, Type (0, 0), BuildingBlock: XIVTED_clean_linker_0, # of connection points: 2
#     Edge 23, Type (0, 0), BuildingBlock: XIVTED_clean_linker_0, # of connection points: 2
#     Edge 24, Type (0, 0), BuildingBlock: XIVTED_clean_linker_0, # of connection points: 2
#     Edge 25, Type (0, 0), BuildingBlock: XIVTED_clean_linker_0, # of connection points: 2
#     Edge 26, Type (0, 0), BuildingBlock: XIVTED_clean_linker_0, # of connection points: 2
#     Edge 27, Type (0, 0), BuildingBlock: XIVTED_clean_linker_0, # of connection points: 2
# Relax obj value: 0.189
# Max RMSD: 0.169
# Mean RMSD: 0.162
data_MOF--net-xbj--node1-XOMCOT_clean_sbu_1--edge1-XIVTED_clean_linker_0
_symmetry_space_group_name_H-M    P1
_symmetry_Int_Tables_number       1
_symmetry_cell_setting            triclinic
loop_
_symmetry_equiv_pos_as_xyz
'x, y, z'
_cell_length_a     17.684447
_cell_length_b     17.723167
_cell_length_c     107.92066
_cell_angle_alpha  95.22012
_cell_angle_beta   95.737422
_cell_angle_gamma 89.446985
loop_
_atom_site_label
_atom_site_type_symbol
_atom_site_fract_x
_atom_site_fract_y
_atom_site_fract_z
_atom_type_partial_charge
C0 C 1.0146 1.01939 0.05602 0.0
C1 C 0.0914 0.03044 0.05584 0.0
N2 N 0.12066 0.96827 0.04991 0.0
N3 N 0.99557 0.95072 0.05025 0.0
C4 C 0.06116 0.92097 0.04662 0.0
H5 H 0.975 0.05858 0.06017 0.0
Co6 Co 0.89795 0.91247 0.04842 0.0
C7 C 0.90054 0.76559 0.03293 0.0
O8 O 0.83205 0.78078 0.02785 0.0
N9 N 0.79769 0.87559 0.04722 0.0
C10 C 0.70121 0.80262 0.05048 0.0
C11 C 0.77865 0.80947 0.05145 0.0
C12 C 0.73016 0.9089 0.04407 0.0
N13 N 0.67062 0.86524 0.04586 0.0
O14 O 0.91563 0.87782 0.0647 0.0
H15 H 0.81885 0.76923 0.05528 0.0
H16 H 0.72426 0.96476 0.04087 0.0
O17 O 0.93348 0.81301 0.0414 0.0
C18 C 0.88036 0.89936 0.07411 0.0
O19 O 0.826 0.95012 0.07307 0.0
N20 N 0.88416 0.94972 0.03235 0.0
C21 C 0.88497 1.0222 0.01039 0.0
C22 C 0.9223 0.9533 0.01165 0.0
C23 C 0.92368 0.91975 0.02278 0.0
C24 C 0.84812 1.01777 0.03137 0.0
C25 C 0.8478 0.05523 0.02043 0.0
H26 H 0.96213 0.87301 0.02381 0.0
H27 H 0.82337 0.04541 0.03936 0.0
H28 H 0.06507 0.8662 0.04149 0.0
H29 H 0.12321 0.0798 0.06 0.0
H30 H 0.6699 0.75663 0.05352 0.0
H31 H 0.95567 0.92836 0.00443 0.0
H32 H 0.82109 0.11028 0.01997 0.0
C33 C 0.48044 0.90847 0.28576 0.0
C34 C 0.47599 0.98605 0.28754 0.0
N35 N 0.54222 1.01547 0.28503 0.0
N36 N 0.54913 0.88854 0.28219 0.0
C37 C 0.58579 0.95485 0.28184 0.0
H38 H 0.43539 0.86895 0.28658 0.0
Co39 Co 0.574 0.78849 0.27767 0.0
C40 C 0.73927 0.78289 0.27888 0.0
O41 O 0.74017 0.73724 0.28784 0.0
N42 N 0.59738 0.68631 0.273 0.0
C43 C 0.64105 0.58414 0.26244 0.0
C44 C 0.63291 0.66132 0.26289 0.0
C45 C 0.5837 0.62268 0.27846 0.0
N46 N 0.61028 0.55958 0.27227 0.0
O47 O 0.60417 0.77555 0.29479 0.0
H48 H 0.65203 0.69706 0.25622 0.0
H49 H 0.55553 0.62259 0.28689 0.0
O50 O 0.67721 0.81517 0.27526 0.0
C51 C 0.55802 0.75722 0.30232 0.0
O52 O 0.48653 0.74419 0.29816 0.0
N53 N 0.54221 0.80235 0.26094 0.0
C54 C 0.50404 0.79751 0.23532 0.0
C55 C 0.56335 0.84383 0.24102 0.0
C56 C 0.58059 0.84678 0.25395 0.0
C57 C 0.48067 0.76133 0.25564 0.0
C58 C 0.46048 0.75805 0.24276 0.0
H59 H 0.62683 0.88255 0.25817 0.0
H60 H 0.44995 0.72765 0.26135 0.0
H61 H 0.64256 0.95863 0.27904 0.0
H62 H 0.42633 1.01817 0.28993 0.0
H63 H 0.66664 0.5489 0.25527 0.0
H64 H 0.5974 0.87557 0.2355 0.0
H65 H 0.41417 0.72169 0.23857 0.0
C66 C 0.66749 0.55149 0.55326 0.0
C67 C 0.74512 0.56239 0.55484 0.0
N68 N 0.77892 0.49661 0.55134 0.0
N69 N 0.65145 0.48006 0.54828 0.0
C70 C 0.72109 0.44736 0.54799 0.0
H71 H 0.62535 0.59315 0.55581 0.0
Co72 Co 0.55207 0.43612 0.54515 0.0
C73 C 0.6361 0.34411 0.52706 0.0
O74 O 0.65907 0.40825 0.52345 0.0
N75 N 0.45475 0.39428 0.54316 0.0
C76 C 0.3582 0.31379 0.5416 0.0
C77 C 0.43573 0.32029 0.54175 0.0
C78 C 0.38822 0.43165 0.54408 0.0
N79 N 0.32819 0.38389 0.54309 0.0
O80 O 0.5684 0.39316 0.56087 0.0
H81 H 0.4757 0.27385 0.54118 0.0
H82 H 0.38421 0.49272 0.54553 0.0
O83 O 0.59304 0.34485 0.53597 0.0
C84 C 0.60918 0.34034 0.56527 0.0
O85 O 0.65614 0.30206 0.55838 0.0
N86 N 0.53077 0.48042 0.52959 0.0
C87 C 0.51877 0.53297 0.50584 0.0
C88 C 0.54406 0.58098 0.51647 0.0
C89 C 0.54787 0.55407 0.52831 0.0
C90 C 0.49757 0.43623 0.51944 0.0
C91 C 0.49184 0.46109 0.5075 0.0
H92 H 0.56636 0.59223 0.53631 0.0
H93 H 0.48046 0.37879 0.52031 0.0
H94 H 0.73005 0.38769 0.54573 0.0
H95 H 0.77404 0.61486 0.55824 0.0
H96 H 0.32672 0.26125 0.54088 0.0
H97 H 0.56254 0.63821 0.51561 0.0
H98 H 0.47115 0.42234 0.49957 0.0
C99 C 0.93938 0.23613 0.80988 0.0
C100 C 0.93023 0.31357 0.81112 0.0
N101 N 0.97852 0.34442 0.80411 0.0
N102 N 0.99355 0.21772 0.80219 0.0
C103 C 1.01557 0.28498 0.79871 0.0
H104 H 0.90837 0.19569 0.81433 0.0
Co105 Co 1.02363 0.11752 0.79807 0.0
C106 C 0.17412 0.19244 0.796 0.0
O107 O 0.17751 0.23733 0.80641 0.0
N108 N 0.05184 1.01699 0.79398 0.0
C109 C 0.09996 0.91464 0.78417 0.0
C110 C 0.09385 0.99208 0.78465 0.0
C111 C 0.03189 0.95336 0.79889 0.0
N112 N 0.06101 0.89013 0.79313 0.0
O113 O 0.07357 0.11498 0.8145 0.0
H114 H 0.11681 0.02763 0.77832 0.0
H115 H 0.9963 0.9533 0.80647 0.0
O116 O 0.11749 0.14898 0.79274 0.0
C117 C 0.04264 0.09514 0.82384 0.0
O118 O 0.97221 0.0705 0.82225 0.0
N119 N 0.9745 0.12076 0.78185 0.0
C120 C 0.89923 0.1194 0.75785 0.0
C121 C 0.9646 0.16323 0.76129 0.0
C122 C 1.00109 0.16347 0.77329 0.0
C123 C 0.91086 0.07759 0.77873 0.0
C124 C 0.87238 0.07568 0.7667 0.0
H125 H 0.05081 0.19851 0.77553 0.0
H126 H 0.89016 0.04425 0.7856 0.0
H127 H 0.05719 0.29061 0.7922 0.0
H128 H 0.89178 0.34457 0.81692 0.0
H129 H 0.12883 0.87897 0.77744 0.0
H130 H 0.98795 0.19704 0.75471 0.0
H131 H 0.82161 0.04149 0.76444 0.0
C132 C 0.09802 0.39983 0.91895 0.0
C133 C 1.02072 0.41163 0.91851 0.0
N134 N 0.99653 0.39245 0.92926 0.0
N135 N 0.12302 0.3729 0.92991 0.0
C136 C 0.06005 0.3705 0.93608 0.0
H137 H 0.13336 0.40791 0.91157 0.0
Co138 Co 0.22319 0.33945 0.93421 0.0
C139 C 0.13207 0.21247 0.94075 0.0
O140 O 0.10484 0.19717 0.92902 0.0
N141 N 0.32296 0.30613 0.93818 0.0
C142 C 0.424 0.23478 0.9428 0.0
C143 C 0.34583 0.23731 0.94146 0.0
C144 C 0.38819 0.34422 0.93747 0.0
N145 N 0.45095 0.30205 0.94026 0.0
O146 O 0.21537 0.27161 0.9194 0.0
H147 H 0.30828 0.19104 0.94251 0.0
H148 H 0.38932 0.40159 0.93481 0.0
O149 O 0.18228 0.26396 0.94362 0.0
C150 C 0.24758 0.28669 0.9099 0.0
O151 O 0.29061 0.34732 0.9107 0.0
N152 N 0.23103 0.40718 0.94863 0.0
C153 C 0.20123 0.49931 0.96975 0.0
C154 C 0.23397 0.42777 0.97093 0.0
C155 C 0.24889 0.38246 0.96019 0.0
C156 C 0.20962 0.48042 0.94746 0.0
C157 C 0.19324 0.5274 0.95794 0.0
H158 H 0.26931 0.3254 0.96113 0.0
H159 H 0.19869 0.50037 0.93827 0.0
H160 H 0.06058 0.35165 0.94534 0.0
H161 H 0.98476 0.42952 0.91059 0.0
H162 H 0.45819 0.18595 0.94502 0.0
H163 H 0.24161 0.40436 0.9799 0.0
H164 H 0.16955 0.58315 0.95672 0.0
C165 C 0.09892 0.45726 0.15049 0.0
C166 C 0.09355 0.37963 0.14926 0.0
N167 N 0.09826 0.35504 0.16076 0.0
N168 N 0.10579 0.48274 0.16272 0.0
C169 C 0.10591 0.41875 0.16874 0.0
H170 H 0.10193 0.49249 0.14288 0.0
Co171 Co 0.12857 0.58396 0.16907 0.0
C172 C 0.27282 0.5524 0.16213 0.0
O173 O 0.26916 0.48567 0.16644 0.0
N174 N 0.15266 0.68372 0.17537 0.0
C175 C 0.20133 0.78182 0.1878 0.0
C176 C 0.19617 0.70393 0.1861 0.0
C177 C 0.13178 0.75013 0.17074 0.0
N178 N 0.16067 0.81109 0.1781 0.0
O179 O 0.06436 0.62128 0.15545 0.0
H180 H 0.22305 0.66436 0.19222 0.0
H181 H 0.0952 0.75384 0.16218 0.0
O182 O 0.21076 0.58545 0.15891 0.0
C183 C 1.00042 0.60978 0.14903 0.0
O184 O 0.95395 0.55768 0.15176 0.0
N185 N 0.05224 0.58562 0.17989 0.0
C186 C 0.97889 0.62146 0.20144 0.0
C187 C 0.04194 0.57287 0.20161 0.0
C188 C 0.07812 0.55652 0.19078 0.0
C189 C 0.98964 0.63148 0.17942 0.0
C190 C 0.95128 0.64879 0.19003 0.0
H191 H 0.13181 0.5268 0.19143 0.0
H192 H 0.97273 0.66107 0.17131 0.0
H193 H 0.11448 0.41835 0.17877 0.0
H194 H 0.09088 0.34402 0.14054 0.0
H195 H 0.23375 0.81395 0.19551 0.0
H196 H 0.06709 0.55246 0.21024 0.0
H197 H 0.90304 0.68684 0.18946 0.0
C198 C 0.56884 0.91282 0.40733 0.0
C199 C 0.49221 0.92611 0.40762 0.0
N200 N 0.46779 0.88998 0.41695 0.0
N201 N 0.59313 0.86811 0.41636 0.0
C202 C 0.53055 0.85632 0.42223 0.0
H203 H 0.60425 0.93267 0.40069 0.0
Co204 Co 0.69252 0.82984 0.41862 0.0
C205 C 0.60467 0.69068 0.42242 0.0
O206 O 0.55728 0.69138 0.41225 0.0
N207 N 0.79204 0.79225 0.4207 0.0
C208 C 0.89141 0.71465 0.42159 0.0
C209 C 0.81341 0.71889 0.42026 0.0
C210 C 0.8581 0.83157 0.42219 0.0
N211 N 0.91978 0.78556 0.42279 0.0
O212 O 0.68017 0.78235 0.40197 0.0
H213 H 0.77492 0.67118 0.41873 0.0
H214 H 0.86063 0.89277 0.4227 0.0
O215 O 0.65567 0.74134 0.42501 0.0
C216 C 0.71493 0.81297 0.39396 0.0
O217 O 0.75935 0.87131 0.39772 0.0
N218 N 0.70505 0.87879 0.43474 0.0
C219 C 0.71241 0.96074 0.45805 0.0
C220 C 0.71898 0.88172 0.45712 0.0
C221 C 0.71648 0.84172 0.44534 0.0
C222 C 0.7015 0.95579 0.43548 0.0
C223 C 0.70507 0.99804 0.44707 0.0
H224 H 0.72346 0.78103 0.4448 0.0
H225 H 0.69426 0.98437 0.427 0.0
H226 H 0.53075 0.82267 0.4301 0.0
H227 H 0.45674 0.95717 0.40108 0.0
H228 H 0.92456 0.66299 0.42123 0.0
H229 H 0.72643 0.85126 0.46542 0.0
H230 H 0.70004 0.05915 0.44744 0.0
C231 C 0.36653 0.11037 0.65771 0.0
C232 C 0.35777 0.03277 0.6563 0.0
N233 N 0.40049 1.00327 0.66573 0.0
N234 N 0.41469 0.12996 0.66796 0.0
C235 C 0.43358 0.06349 0.67271 0.0
H236 H 0.34026 0.15011 0.65156 0.0
Co237 Co 0.44394 0.22982 0.67331 0.0
C238 C 0.59544 0.15015 0.6761 0.0
O239 O 0.58417 0.10216 0.66608 0.0
N240 N 0.47066 0.33004 0.67857 0.0
C241 C 0.52131 0.4325 0.6895 0.0
C242 C 0.51713 0.35487 0.68876 0.0
C243 C 0.44654 0.39355 0.67332 0.0
N244 N 0.47704 0.45701 0.67976 0.0
O245 O 0.47608 0.2415 0.65692 0.0
H246 H 0.54553 0.31889 0.69535 0.0
H247 H 0.40813 0.39289 0.66485 0.0
O248 O 0.54482 0.19844 0.67895 0.0
C249 C 0.53829 0.2686 0.65416 0.0
O250 O 0.59007 0.29436 0.66308 0.0
N251 N 0.4112 0.2194 0.68921 0.0
C252 C 0.36133 0.22 0.71298 0.0
C253 C 0.42792 0.18192 0.71012 0.0
C254 C 0.45191 0.18231 0.69826 0.0
C255 C 0.3455 0.25599 0.69172 0.0
C256 C 0.31964 0.25746 0.7036 0.0
H257 H 0.50412 0.15317 0.69663 0.0
H258 H 0.31394 0.28557 0.68453 0.0
H259 H 0.47166 0.05891 0.68106 0.0
H260 H 0.32417 1.00063 0.64872 0.0
H261 H 0.55343 0.46812 0.69681 0.0
H262 H 0.46254 0.15322 0.71711 0.0
H263 H 0.26756 0.28723 0.70542 0.0
H264 H 0.78491 0.88146 0.09214 0.0
H265 H 0.09756 0.68863 0.13709 0.0
H266 H 1.0118 0.83088 0.08237 0.0
H267 H 0.85971 0.6344 0.13662 0.0
H268 H 0.06711 0.76257 0.11929 0.0
H269 H 0.8118 0.81178 0.11079 0.0
C270 C 0.84052 0.85636 0.09399 0.0
C271 C 0.89633 0.86184 0.08574 0.0
C272 C 1.02159 0.73449 0.12308 0.0
C273 C 0.92725 0.78313 0.10695 0.0
C274 C 0.03876 0.69246 0.13327 0.0
C275 C 0.98101 0.65496 0.13831 0.0
C276 C 0.94596 0.74029 0.11798 0.0
C277 C 0.90592 0.66198 0.13294 0.0
C278 C 0.85551 0.81627 0.10455 0.0
C279 C 0.96715 0.82774 0.08848 0.0
N280 N 0.89036 0.70427 0.12307 0.0
N281 N 0.98076 0.79024 0.09889 0.0
H282 H 0.79789 0.84695 0.37528 0.0
H283 H 0.47768 0.71181 0.32079 0.0
H284 H 0.5957 0.72853 0.38189 0.0
H285 H 0.69835 0.79323 0.3143 0.0
H286 H 0.52054 0.71316 0.34308 0.0
H287 H 0.76394 0.82282 0.35283 0.0
C288 C 0.74664 0.81517 0.372 0.0
C289 C 0.69927 0.79013 0.38045 0.0
C290 C 0.55974 0.7301 0.33676 0.0
C291 C 0.65945 0.76303 0.35472 0.0
C292 C 0.53526 0.72955 0.32403 0.0
C293 C 0.5843 0.75304 0.31568 0.0
C294 C 0.63357 0.7549 0.34116 0.0
C295 C 0.65842 0.77502 0.3204 0.0
C296 C 0.72728 0.80135 0.35916 0.0
C297 C 0.63382 0.74882 0.37568 0.0
N298 N 0.68053 0.77599 0.33283 0.0
N299 N 0.6153 0.73733 0.3631 0.0
H300 H 0.71063 0.26491 0.58067 0.0
H301 H 0.67449 0.28501 0.64484 0.0
H302 H 0.49082 0.37359 0.57918 0.0
H303 H 0.43433 0.26026 0.63348 0.0
H304 H 0.69671 0.29534 0.62306 0.0
H305 H 0.69791 0.23956 0.60234 0.0
C306 C 0.6598 0.2834 0.5849 0.0
C307 C 0.60213 0.32221 0.57819 0.0
C308 C 0.63936 0.28632 0.6253 0.0
C309 C 0.5874 0.2939 0.60289 0.0
C310 C 0.62648 0.28122 0.63774 0.0
C311 C 0.55241 0.27176 0.64096 0.0
C312 C 0.57756 0.28285 0.61603 0.0
C313 C 0.49235 0.26719 0.63139 0.0
C314 C 0.65287 0.26951 0.59728 0.0
C315 C 0.53716 0.34448 0.58409 0.0
N316 N 0.50614 0.27379 0.61936 0.0
N317 N 0.53141 0.32968 0.59608 0.0
H318 H 0.14126 0.17423 0.90392 0.0
H319 H 0.18274 0.15904 0.8306 0.0
H320 H 0.30866 0.3008 0.88791 0.0
H321 H 0.99368 0.06239 0.84607 0.0
H322 H 0.24164 0.19334 0.85177 0.0
H323 H 0.09914 0.11495 0.88307 0.0
C324 C 0.16985 0.18888 0.89605 0.0
C325 C 0.22808 0.24323 0.89765 0.0
C326 C 0.18757 0.16407 0.85053 0.0
C327 C 0.17985 0.17575 0.87375 0.0
C328 C 0.15391 0.14428 0.83844 0.0
C329 C 0.08268 0.10847 0.83655 0.0
C330 C 0.14989 0.14789 0.86083 0.0
C331 C 0.04831 0.0905 0.84708 0.0
C332 C 0.14556 0.15516 0.88414 0.0
C333 C 0.2631 0.25976 0.88711 0.0
N334 N 0.08198 0.11089 0.85877 0.0
N335 N 0.23808 0.22658 0.8756 0.0
H336 H 0.84953 0.66378 0.0136 0.0
H337 H 0.25692 0.52909 -0.00548 0.0
H338 H 0.0545 0.73496 0.0367 0.0
H339 H 0.05724 0.55236 0.9687 0.0
H340 H 0.18478 0.58192 0.01173 0.0
H341 H 0.92617 0.59242 -0.00084 0.0
C342 C 0.91069 0.6637 0.01576 0.0
C343 C 0.94573 0.70774 0.02617 0.0
C344 C 0.1573 0.57561 0.00227 0.0
C345 C 0.03391 0.62644 0.00953 0.0
C346 C 0.19828 0.54593 -0.00752 0.0
C347 C 0.16318 0.53764 0.98017 0.0
C348 C 0.08052 0.59495 -0.00033 0.0
C349 C 0.08696 0.55937 0.978 0.0
C350 C 0.95443 0.62329 0.00743 0.0
C351 C 1.02523 0.7037 0.02858 0.0
N352 N 0.04818 0.58655 -0.01235 0.0
N353 N 0.06701 0.66467 0.02019 0.0
H354 H 0.84191 0.6674 0.2764 0.0
H355 H 0.92961 0.76512 0.20841 0.0
H356 H 0.7649 0.87212 0.26027 0.0
H357 H 0.9601 0.5435 0.22183 0.0
H358 H 0.88536 0.81227 0.22838 0.0
H359 H 0.90785 0.63147 0.25796 0.0
C360 C 0.84053 0.70595 0.26915 0.0
C361 C 0.79673 0.77244 0.26981 0.0
C362 C 0.90178 0.75334 0.22694 0.0
C363 C 0.87086 0.7306 0.24853 0.0
C364 C 0.92619 0.726 0.21547 0.0
C365 C 0.948 0.64981 0.21333 0.0
C366 C 0.89961 0.70445 0.23642 0.0
C367 C 0.94443 0.60269 0.22305 0.0
C368 C 0.8774 0.68478 0.25853 0.0
C369 C 0.79693 0.81977 0.26006 0.0
N370 N 0.9207 0.63075 0.23415 0.0
N371 N 0.83254 0.79749 0.24974 0.0
H372 H 0.46724 0.63996 0.42832 0.0
H373 H 0.64243 0.59653 0.49793 0.0
H374 H 0.70764 0.6405 0.44007 0.0
H375 H 0.41703 0.51486 0.48472 0.0
H376 H 0.6625 0.62133 0.47667 0.0
H377 H 0.44332 0.59514 0.44849 0.0
C378 C 0.51499 0.62863 0.43499 0.0
C379 C 0.58945 0.64486 0.43264 0.0
C380 C 0.60856 0.59794 0.47839 0.0
C381 C 0.56257 0.596 0.45568 0.0
C382 C 0.59672 0.5848 0.49056 0.0
C383 C 0.52777 0.55418 0.4931 0.0
C384 C 0.55083 0.58107 0.46863 0.0
C385 C 0.47108 0.53848 0.48313 0.0
C386 C 0.5013 0.60382 0.44652 0.0
C387 C 0.64927 0.62987 0.44161 0.0
N388 N 0.48366 0.55251 0.47131 0.0
N389 N 0.63448 0.60746 0.4528 0.0
H390 H 0.8698 0.24348 0.74502 0.0
H391 H 0.65515 1.01808 0.68421 0.0
H392 H 0.83818 1.00106 0.74171 0.0
H393 H 0.67539 0.26112 0.69024 0.0
H394 H 0.73687 1.00704 0.70379 0.0
H395 H 0.81053 0.24771 0.72382 0.0
C396 C 0.85063 0.19093 0.73979 0.0
C397 C 0.85931 0.12174 0.74513 0.0
C398 C 0.72449 0.06265 0.70069 0.0
C399 C 0.79032 0.1262 0.72074 0.0
C400 C 0.67885 0.06886 0.68946 0.0
C401 C 0.65888 0.14062 0.68568 0.0
C402 C 0.75009 0.12875 0.70806 0.0
C403 C 0.68946 0.20481 0.69289 0.0
C404 C 0.81657 0.19338 0.72766 0.0
C405 C 0.832 0.05567 0.73797 0.0
N406 N 0.733 0.19738 0.70377 0.0
N407 N 0.79863 0.05949 0.72611 0.0
H408 H 0.24999 0.08302 0.78338 0.0
H409 H 0.30727 0.33915 0.7278 0.0
H410 H 0.20691 0.32325 0.78609 0.0
H411 H 0.36126 0.101 0.72731 0.0
H412 H 0.27553 0.3378 0.74942 0.0
H413 H 0.30235 0.09252 0.76353 0.0
C414 C 0.25375 0.13821 0.77991 0.0
C415 C 0.225 0.20252 0.78635 0.0
C416 C 0.29466 0.28602 0.74458 0.0
C417 C 0.28181 0.21379 0.76339 0.0
C418 C 0.31193 0.28656 0.7322 0.0
C419 C 0.33709 0.22012 0.72576 0.0
C420 C 0.30228 0.21844 0.75048 0.0
C421 C 0.34303 0.15378 0.73196 0.0
C422 C 0.28288 0.14365 0.76852 0.0
C423 C 0.2299 0.27266 0.78144 0.0
N424 N 0.32573 0.15467 0.74393 0.0
N425 N 0.25672 0.27636 0.77012 0.0
H426 H 0.28656 0.70672 0.16177 0.0
H427 H 0.59746 0.71955 0.22041 0.0
H428 H 0.40986 0.51037 0.17375 0.0
H429 H 0.38483 0.84067 0.21945 0.0
H430 H 0.56759 0.67457 0.19824 0.0
H431 H 0.36635 0.78671 0.17739 0.0
C432 C 0.33208 0.68049 0.16735 0.0
C433 C 0.33863 0.60121 0.167 0.0
C434 C 0.52878 0.71292 0.2028 0.0
C435 C 0.43099 0.69262 0.18449 0.0
C436 C 0.54559 0.73837 0.21538 0.0
C437 C 0.49297 0.78305 0.22164 0.0
C438 C 0.45955 0.73349 0.1965 0.0
C439 C 0.42633 0.80581 0.21488 0.0
C440 C 0.37744 0.72637 0.17626 0.0
C441 C 0.40064 0.57097 0.17409 0.0
N442 N 0.4111 0.78021 0.20264 0.0
N443 N 0.44339 0.61663 0.18281 0.0
H444 H 0.62667 0.93545 0.47703 0.0
H445 H 0.76724 0.3199 0.51654 0.0
H446 H 0.7966 0.08531 0.46697 0.0
H447 H 0.55929 0.20853 0.5222 0.0
H448 H 0.79683 0.21436 0.50179 0.0
H449 H 0.618 1.01685 0.49654 0.0
C450 C 0.66292 0.98487 0.47904 0.0
C451 C 0.71187 1.00443 0.47037 0.0
C452 C 0.74512 0.21228 0.50635 0.0
C453 C 0.7026 0.09686 0.49254 0.0
C454 C 0.7283 0.27241 0.5148 0.0
C455 C 0.66015 0.27323 0.52041 0.0
C456 C 0.69294 0.15278 0.50332 0.0
C457 C 0.61228 0.2099 0.518 0.0
C458 C 0.65775 0.03125 0.49012 0.0
C459 C 0.75739 0.06898 0.47334 0.0
N460 N 0.62894 0.15247 0.50942 0.0
N461 N 0.75142 0.113 0.48415 0.0
H462 H 0.85518 0.97112 -0.0142 0.0
H463 H 0.15233 0.25789 0.96578 0.0
H464 H 0.9475 0.16174 0.01004 0.0
H465 H 1.01796 0.10644 0.9388 0.0
H466 H 0.07772 0.22195 0.98204 0.0
H467 H 0.90906 1.02147 0.9682 0.0
C468 C 0.88489 1.02486 -0.0127 0.0
C469 C 0.89688 0.06257 -0.00066 0.0
C470 C 0.06437 0.19658 0.97256 0.0
C471 C 0.96093 0.11899 0.97942 0.0
C472 C 0.10763 0.21646 0.96326 0.0
C473 C 0.09194 0.18475 0.95087 0.0
C474 C 1.00527 0.14383 0.96955 0.0
C475 C 0.0325 0.13195 0.94823 0.0
C476 C 0.91616 0.05323 0.9773 0.0
C477 C 0.93642 0.13143 0.00087 0.0
N478 N 0.99154 0.11285 0.95751 0.0
N479 N 0.96822 0.1568 -0.00894 0.0
H480 H 0.60539 1.00509 0.04782 0.0
H481 H 0.18854 0.83144 0.04539 0.0
H482 H 0.55346 0.76681 0.04069 0.0
H483 H 0.23336 0.07204 0.04983 0.0
H484 H 0.32151 0.80814 0.0426 0.0
H485 H 0.4692 0.03244 0.04738 0.0
C486 C 0.56539 0.95864 0.04599 0.0
C487 C 0.59087 0.88344 0.04442 0.0
C488 C 0.30229 0.86614 0.04412 0.0
C489 C 0.43526 0.91415 0.04407 0.0
C490 C 0.22593 0.8796 0.04566 0.0
C491 C 0.19918 0.95397 0.04789 0.0
C492 C 0.35288 0.92733 0.04488 0.0
C493 C 0.25135 1.01375 0.04833 0.0
C494 C 0.48767 0.97422 0.04582 0.0
C495 C 0.53644 0.82544 0.0422 0.0
N496 N 0.32575 0.99911 0.0469 0.0
N497 N 0.46139 0.84196 0.04218 0.0
H498 H 0.7017 0.44244 0.26519 0.0
H499 H 0.47728 0.13583 0.29744 0.0
H500 H 0.51056 0.49807 0.28627 0.0
H501 H 0.64458 0.07792 0.27163 0.0
H502 H 0.49756 0.26971 0.29524 0.0
H503 H 0.69001 0.3103 0.26921 0.0
C504 C 0.657 0.42707 0.27063 0.0
C505 C 0.60641 0.48189 0.27525 0.0
C506 C 0.53005 0.22771 0.2901 0.0
C507 C 0.5935 0.3298 0.28007 0.0
C508 C 0.51832 0.15103 0.29131 0.0
C509 C 0.55868 0.09494 0.28462 0.0
C510 C 0.58278 0.24895 0.28216 0.0
C511 C 0.61241 0.1187 0.27704 0.0
C512 C 0.65068 0.35139 0.27298 0.0
C513 C 0.55104 0.45824 0.28254 0.0
N514 N 0.62255 0.19376 0.27598 0.0
N515 N 0.54586 0.38399 0.28467 0.0
H516 H 0.20586 0.30198 0.53256 0.0
H517 H 0.89999 0.57778 0.56334 0.0
H518 H 0.26868 0.50794 0.55557 0.0
H519 H 0.84281 0.38243 0.53728 0.0
H520 H 0.03481 0.55307 0.56117 0.0
H521 H 0.07252 0.33012 0.53478 0.0
C522 C 0.19168 0.3531 0.53812 0.0
C523 C 0.24891 0.40238 0.54394 0.0
C524 C 0.99257 0.51562 0.55596 0.0
C525 C 0.09526 0.43548 0.54649 0.0
C526 C 0.91539 0.52977 0.55717 0.0
C527 C 0.85918 0.48195 0.55056 0.0
C528 C 1.01398 0.45318 0.54808 0.0
C529 C 0.88336 0.42024 0.54278 0.0
C530 C 0.11528 0.3694 0.53934 0.0
C531 C 0.22662 0.46858 0.55084 0.0
N532 N 0.95853 0.40778 0.54178 0.0
N533 N 0.15161 0.48302 0.55198 0.0
H534 H 0.15798 0.77335 0.78899 0.0
H535 H 0.8792 0.46047 0.80833 0.0
H536 H 0.94163 0.82825 0.80278 0.0
H537 H 0.10351 0.41174 0.79714 0.0
H538 H 0.90008 0.59481 0.80641 0.0
H539 H 0.13802 0.64057 0.79192 0.0
C540 C 0.10609 0.75748 0.79261 0.0
C541 C 0.05116 0.81219 0.79555 0.0
C542 C 0.94471 0.55466 0.80438 0.0
C543 C 0.02795 0.65948 0.79902 0.0
C544 C 0.93296 0.47776 0.80552 0.0
C545 C 0.98955 0.42407 0.80287 0.0
C546 C 1.01353 0.57838 0.80055 0.0
C547 C 0.05765 0.45036 0.7991 0.0
C548 C 0.09486 0.68152 0.79434 0.0
C549 C 0.98571 0.78822 0.80046 0.0
N550 N 0.0676 0.5254 0.79805 0.0
N551 N 0.97571 0.71359 0.80197 0.0
H552 H 0.87464 0.47146 0.91975 0.0
H553 H 0.57472 0.24179 0.95287 0.0
H554 H 0.93821 0.30148 0.94507 0.0
H555 H 0.50939 0.4071 0.92681 0.0
H556 H 0.70804 0.26869 0.95108 0.0
H557 H 0.74154 0.45462 0.92319 0.0
C558 C 0.86084 0.43069 0.92606 0.0
C559 C 0.9183 0.3876 0.93206 0.0
C560 C 0.66465 0.29936 0.94578 0.0
C561 C 0.76506 0.3682 0.9361 0.0
C562 C 0.5882 0.28374 0.94674 0.0
C563 C 0.5301 0.32163 0.93989 0.0
C564 C 0.68391 0.35336 0.93787 0.0
C565 C 0.55176 0.37665 0.93233 0.0
C566 C 0.78462 0.42129 0.92805 0.0
C567 C 0.89648 0.33654 0.9403 0.0
N568 N 0.62672 0.39045 0.93147 0.0
N569 N 0.82182 0.32801 0.942 0.0
H570 H 0.18743 0.93479 0.19504 0.0
H571 H 0.04507 0.23082 0.14588 0.0
H572 H 0.10981 0.87093 0.1563 0.0
H573 H 0.15994 0.29868 0.18234 0.0
H574 H 0.05909 0.09875 0.15027 0.0
H575 H 0.1698 0.06774 0.1912 0.0
C576 C 0.16699 0.94819 0.18572 0.0
C577 C 0.1502 0.89044 0.17601 0.0
C578 C 0.08121 0.14249 0.15733 0.0
C579 C 0.12878 0.04374 0.1716 0.0
C580 C 0.07346 0.21825 0.15481 0.0
C581 C 0.10197 0.27673 0.16368 0.0
C582 C 0.11747 0.12429 0.16885 0.0
C583 C 0.13658 0.25614 0.17521 0.0
C584 C 0.15659 1.02448 0.18355 0.0
C585 C 0.12273 0.91246 0.16417 0.0
N586 N 0.14354 0.18177 0.17744 0.0
N587 N 0.11291 0.987 0.16233 0.0
H588 H 0.04059 0.70503 0.4321 0.0
H589 H 0.34945 0.98545 0.41184 0.0
H590 H 0.98189 0.91264 0.41544 0.0
H591 H 0.4061 0.77545 0.4279 0.0
H592 H 0.21576 0.96461 0.41442 0.0
H593 H 0.17491 0.7346 0.43195 0.0
C594 C 0.05581 0.75692 0.4284 0.0
C595 C 0.99937 0.80597 0.42365 0.0
C596 C 0.25747 0.92329 0.41745 0.0
C597 C 0.15415 0.84063 0.42354 0.0
C598 C 0.334 0.93501 0.41594 0.0
C599 C 0.38961 0.88186 0.41955 0.0
C600 C 0.2358 0.85776 0.4226 0.0
C601 C 0.36581 0.81829 0.42503 0.0
C602 C 0.13278 0.77397 0.42838 0.0
C603 C 1.02307 0.87324 0.41924 0.0
N604 N 0.29085 0.80782 0.4263 0.0
N605 N 0.09852 0.88827 0.41921 0.0
H606 H 0.52265 0.93911 0.67811 0.0
H607 H 0.35516 0.51695 0.66645 0.0
H608 H 0.30495 0.88539 0.65756 0.0
H609 H 0.57241 0.57583 0.68674 0.0
H610 H 0.33586 0.65031 0.66262 0.0
H611 H 0.54109 0.8056 0.68119 0.0
C612 C 0.47832 0.89948 0.67432 0.0
C613 C 0.41183 0.92406 0.66762 0.0
C614 C 0.38774 0.63389 0.66791 0.0
C615 C 0.43325 0.76981 0.67098 0.0
C616 C 0.399 0.55762 0.67004 0.0
C617 C 0.46534 0.53486 0.67702 0.0
C618 C 0.44329 0.68785 0.67276 0.0
C619 C 0.51978 0.59055 0.68152 0.0
C620 C 0.48918 0.82285 0.67601 0.0
C621 C 0.35732 0.8692 0.6627 0.0
N622 N 0.50749 0.66414 0.67933 0.0
N623 N 0.36915 0.79476 0.6645 0.0
loop_
_geom_bond_atom_site_label_1
_geom_bond_atom_site_label_2
_geom_bond_distance
_geom_bond_site_symmetry_2
_ccdc_geom_bond_type
C0 C1 1.351 . S
C0 N3 1.368 . S
C0 H5 0.931 . S
C1 C0 1.351 . S
C1 N2 1.373 . S
C1 H29 0.930 . S
N2 C1 1.373 . S
N2 C4 1.340 . S
N3 C0 1.368 . S
N3 C4 1.321 . S
N3 Co6 2.135 . S
C4 N2 1.340 . S
C4 N3 1.321 . S
C4 H28 0.930 . S
H5 C0 0.931 . S
Co6 N3 2.135 . S
Co6 N9 2.121 1_455 S
Co6 O14 2.055 . S
Co6 O17 2.039 . S
Co6 N20 2.140 . S
C7 O8 1.227 . S
C7 O17 1.265 . S
O8 C7 1.227 . S
N9 Co6 2.121 1_655 S
N9 C11 1.375 . S
N9 C12 1.313 . S
C10 C11 1.338 . S
C10 N13 1.377 . S
C10 H30 0.930 . S
C11 N9 1.375 . S
C11 C10 1.338 . S
C11 H15 0.931 . S
C12 N9 1.313 . S
C12 N13 1.344 . S
C12 H16 0.930 . S
N13 C10 1.377 . S
N13 C12 1.344 . S
O14 Co6 2.055 . S
O14 C18 1.253 . S
H15 C11 0.931 . S
H16 C12 0.930 . S
O17 Co6 2.039 . S
O17 C7 1.265 . S
C18 O14 1.253 . S
C18 O19 1.227 . S
O19 C18 1.227 . S
N20 Co6 2.140 . S
N20 C23 1.346 . S
N20 C24 1.345 1_455 S
C21 C22 1.387 . S
C21 C25 1.391 1_455 S
C22 C21 1.387 . S
C22 C23 1.369 . S
C22 H31 0.929 . S
C23 N20 1.346 . S
C23 C22 1.369 . S
C23 H26 0.928 . S
C24 N20 1.345 1_655 S
C24 C25 1.371 . S
C24 H27 0.931 . S
C25 C21 1.391 1_655 S
C25 C24 1.371 . S
C25 H32 0.930 . S
H26 C23 0.928 . S
H27 C24 0.931 . S
H28 C4 0.930 . S
H29 C1 0.930 . S
H30 C10 0.930 . S
H31 C22 0.929 . S
H32 C25 0.930 . S
C33 C34 1.351 . S
C33 N36 1.368 . S
C33 H38 0.931 . S
C34 C33 1.351 . S
C34 N35 1.373 . S
C34 H62 0.930 . S
N35 C34 1.373 . S
N35 C37 1.340 . S
N36 C33 1.368 . S
N36 C37 1.321 . S
N36 Co39 2.135 . S
C37 N35 1.340 . S
C37 N36 1.321 . S
C37 H61 0.930 . S
H38 C33 0.931 . S
Co39 N36 2.135 . S
Co39 N42 2.121 . S
Co39 O47 2.055 . S
Co39 O50 2.039 . S
Co39 N53 2.140 . S
C40 O41 1.227 . S
C40 O50 1.265 . S
O41 C40 1.227 . S
N42 Co39 2.121 . S
N42 C44 1.375 . S
N42 C45 1.313 . S
C43 C44 1.338 . S
C43 N46 1.377 . S
C43 H63 0.930 . S
C44 N42 1.375 . S
C44 C43 1.338 . S
C44 H48 0.931 . S
C45 N42 1.313 . S
C45 N46 1.344 . S
C45 H49 0.930 . S
N46 C43 1.377 . S
N46 C45 1.344 . S
O47 Co39 2.055 . S
O47 C51 1.253 . S
H48 C44 0.931 . S
H49 C45 0.930 . S
O50 Co39 2.039 . S
O50 C40 1.265 . S
C51 O47 1.253 . S
C51 O52 1.227 . S
O52 C51 1.227 . S
N53 Co39 2.140 . S
N53 C56 1.346 . S
N53 C57 1.345 . S
C54 C55 1.387 . S
C54 C58 1.391 . S
C55 C54 1.387 . S
C55 C56 1.369 . S
C55 H64 0.929 . S
C56 N53 1.346 . S
C56 C55 1.369 . S
C56 H59 0.928 . S
C57 N53 1.345 . S
C57 C58 1.371 . S
C57 H60 0.931 . S
C58 C54 1.391 . S
C58 C57 1.371 . S
C58 H65 0.930 . S
H59 C56 0.928 . S
H60 C57 0.931 . S
H61 C37 0.930 . S
H62 C34 0.930 . S
H63 C43 0.930 . S
H64 C55 0.929 . S
H65 C58 0.930 . S
C66 C67 1.351 . S
C66 N69 1.368 . S
C66 H71 0.931 . S
C67 C66 1.351 . S
C67 N68 1.373 . S
C67 H95 0.930 . S
N68 C67 1.373 . S
N68 C70 1.340 . S
N69 C66 1.368 . S
N69 C70 1.321 . S
N69 Co72 2.135 . S
C70 N68 1.340 . S
C70 N69 1.321 . S
C70 H94 0.930 . S
H71 C66 0.931 . S
Co72 N69 2.135 . S
Co72 N75 2.121 . S
Co72 O80 2.055 . S
Co72 O83 2.039 . S
Co72 N86 2.140 . S
C73 O74 1.227 . S
C73 O83 1.265 . S
O74 C73 1.227 . S
N75 Co72 2.121 . S
N75 C77 1.375 . S
N75 C78 1.313 . S
C76 C77 1.338 . S
C76 N79 1.377 . S
C76 H96 0.930 . S
C77 N75 1.375 . S
C77 C76 1.338 . S
C77 H81 0.931 . S
C78 N75 1.313 . S
C78 N79 1.344 . S
C78 H82 0.930 . S
N79 C76 1.377 . S
N79 C78 1.344 . S
O80 Co72 2.055 . S
O80 C84 1.253 . S
H81 C77 0.931 . S
H82 C78 0.930 . S
O83 Co72 2.039 . S
O83 C73 1.265 . S
C84 O80 1.253 . S
C84 O85 1.227 . S
O85 C84 1.227 . S
N86 Co72 2.140 . S
N86 C89 1.346 . S
N86 C90 1.345 . S
C87 C88 1.387 . S
C87 C91 1.391 . S
C88 C87 1.387 . S
C88 C89 1.369 . S
C88 H97 0.929 . S
C89 N86 1.346 . S
C89 C88 1.369 . S
C89 H92 0.928 . S
C90 N86 1.345 . S
C90 C91 1.371 . S
C90 H93 0.931 . S
C91 C87 1.391 . S
C91 C90 1.371 . S
C91 H98 0.930 . S
H92 C89 0.928 . S
H93 C90 0.931 . S
H94 C70 0.930 . S
H95 C67 0.930 . S
H96 C76 0.930 . S
H97 C88 0.929 . S
H98 C91 0.930 . S
C99 C100 1.351 . S
C99 N102 1.368 . S
C99 H104 0.931 . S
C100 C99 1.351 . S
C100 N101 1.373 . S
C100 H128 0.930 . S
N101 C100 1.373 . S
N101 C103 1.340 . S
N102 C99 1.368 . S
N102 C103 1.321 . S
N102 Co105 2.135 . S
C103 N101 1.340 . S
C103 N102 1.321 . S
C103 H127 0.930 . S
H104 C99 0.931 . S
Co105 N102 2.135 . S
Co105 N108 2.121 . S
Co105 O113 2.055 . S
Co105 O116 2.039 . S
Co105 N119 2.140 . S
C106 O107 1.227 . S
C106 O116 1.265 . S
O107 C106 1.227 . S
N108 Co105 2.121 . S
N108 C110 1.375 . S
N108 C111 1.313 . S
C109 C110 1.338 . S
C109 N112 1.377 . S
C109 H129 0.930 1_545 S
C110 N108 1.375 . S
C110 C109 1.338 . S
C110 H114 0.931 . S
C111 N108 1.313 . S
C111 N112 1.344 . S
C111 H115 0.930 . S
N112 C109 1.377 . S
N112 C111 1.344 . S
O113 Co105 2.055 . S
O113 C117 1.253 . S
H114 C110 0.931 . S
H115 C111 0.930 . S
O116 Co105 2.039 . S
O116 C106 1.265 . S
C117 O113 1.253 . S
C117 O118 1.227 . S
O118 C117 1.227 . S
N119 Co105 2.140 . S
N119 C122 1.346 . S
N119 C123 1.345 1_455 S
C120 C121 1.387 . S
C120 C124 1.391 . S
C121 C120 1.387 . S
C121 C122 1.370 1_655 S
C121 H130 0.929 . S
C122 N119 1.346 . S
C122 C121 1.370 1_455 S
C122 H125 0.928 . S
C123 N119 1.345 1_655 S
C123 C124 1.371 . S
C123 H126 0.931 . S
C124 C120 1.391 . S
C124 C123 1.371 . S
C124 H131 0.930 . S
H125 C122 0.928 . S
H126 C123 0.931 . S
H127 C103 0.930 . S
H128 C100 0.930 . S
H129 C109 0.930 1_565 S
H130 C121 0.929 . S
H131 C124 0.930 . S
C132 C133 1.351 . S
C132 N135 1.368 . S
C132 H137 0.931 . S
C133 C132 1.351 . S
C133 N134 1.373 . S
C133 H161 0.930 . S
N134 C133 1.373 . S
N134 C136 1.340 . S
N135 C132 1.368 . S
N135 C136 1.321 . S
N135 Co138 2.135 1_655 S
C136 N134 1.340 . S
C136 N135 1.321 . S
C136 H160 0.930 . S
H137 C132 0.931 . S
Co138 N135 2.135 1_455 S
Co138 N141 2.121 . S
Co138 O146 2.055 . S
Co138 O149 2.039 . S
Co138 N152 2.140 . S
C139 O140 1.227 . S
C139 O149 1.265 . S
O140 C139 1.227 . S
N141 Co138 2.121 . S
N141 C143 1.375 . S
N141 C144 1.313 . S
C142 C143 1.338 . S
C142 N145 1.377 . S
C142 H162 0.930 . S
C143 N141 1.375 . S
C143 C142 1.338 . S
C143 H147 0.931 . S
C144 N141 1.313 . S
C144 N145 1.344 . S
C144 H148 0.930 . S
N145 C142 1.377 . S
N145 C144 1.344 . S
O146 Co138 2.055 . S
O146 C150 1.253 . S
H147 C143 0.931 . S
H148 C144 0.930 . S
O149 Co138 2.039 . S
O149 C139 1.265 . S
C150 O146 1.253 . S
C150 O151 1.227 . S
O151 C150 1.227 . S
N152 Co138 2.140 . S
N152 C155 1.346 . S
N152 C156 1.345 . S
C153 C154 1.387 . S
C153 C157 1.391 . S
C154 C153 1.387 . S
C154 C155 1.369 . S
C154 H163 0.929 1_455 S
C155 N152 1.346 . S
C155 C154 1.369 . S
C155 H158 0.928 1_455 S
C156 N152 1.345 . S
C156 C157 1.371 . S
C156 H159 0.931 . S
C157 C153 1.391 . S
C157 C156 1.371 . S
C157 H164 0.930 . S
H158 C155 0.928 1_655 S
H159 C156 0.931 . S
H160 C136 0.930 . S
H161 C133 0.930 . S
H162 C142 0.930 . S
H163 C154 0.929 1_655 S
H164 C157 0.930 . S
C165 C166 1.351 . S
C165 N168 1.368 1_655 S
C165 H170 0.931 . S
C166 C165 1.351 . S
C166 N167 1.373 1_655 S
C166 H194 0.930 . S
N167 C166 1.373 1_455 S
N167 C169 1.340 . S
N168 C165 1.368 1_455 S
N168 C169 1.321 . S
N168 Co171 2.135 . S
C169 N167 1.340 . S
C169 N168 1.321 . S
C169 H193 0.930 . S
H170 C165 0.931 . S
Co171 N168 2.135 . S
Co171 N174 2.121 . S
Co171 O179 2.055 . S
Co171 O182 2.039 . S
Co171 N185 2.140 1_455 S
C172 O173 1.227 . S
C172 O182 1.265 . S
O173 C172 1.227 . S
N174 Co171 2.121 . S
N174 C176 1.375 . S
N174 C177 1.313 . S
C175 C176 1.338 . S
C175 N178 1.377 . S
C175 H195 0.930 1_565 S
C176 N174 1.375 . S
C176 C175 1.338 . S
C176 H180 0.931 . S
C177 N174 1.313 . S
C177 N178 1.344 . S
C177 H181 0.930 . S
N178 C175 1.377 . S
N178 C177 1.344 . S
O179 Co171 2.055 . S
O179 C183 1.253 . S
H180 C176 0.931 . S
H181 C177 0.930 . S
O182 Co171 2.039 . S
O182 C172 1.265 . S
C183 O179 1.253 . S
C183 O184 1.227 1_455 S
O184 C183 1.227 1_655 S
N185 Co171 2.140 1_655 S
N185 C188 1.346 . S
N185 C189 1.345 . S
C186 C187 1.387 . S
C186 C190 1.391 . S
C187 C186 1.387 . S
C187 C188 1.369 . S
C187 H196 0.929 . S
C188 N185 1.346 . S
C188 C187 1.369 . S
C188 H191 0.928 . S
C189 N185 1.345 . S
C189 C190 1.371 . S
C189 H192 0.931 . S
C190 C186 1.391 . S
C190 C189 1.371 . S
C190 H197 0.930 . S
H191 C188 0.928 . S
H192 C189 0.931 . S
H193 C169 0.930 . S
H194 C166 0.930 . S
H195 C175 0.930 1_545 S
H196 C187 0.929 . S
H197 C190 0.930 . S
C198 C199 1.351 . S
C198 N201 1.368 . S
C198 H203 0.931 . S
C199 C198 1.351 . S
C199 N200 1.373 . S
C199 H227 0.930 . S
N200 C199 1.373 . S
N200 C202 1.340 . S
N201 C198 1.368 . S
N201 C202 1.321 . S
N201 Co204 2.135 . S
C202 N200 1.340 . S
C202 N201 1.321 . S
C202 H226 0.930 . S
H203 C198 0.931 . S
Co204 N201 2.135 . S
Co204 N207 2.121 . S
Co204 O212 2.055 . S
Co204 O215 2.039 . S
Co204 N218 2.140 . S
C205 O206 1.227 . S
C205 O215 1.265 . S
O206 C205 1.227 . S
N207 Co204 2.121 . S
N207 C209 1.375 . S
N207 C210 1.313 . S
C208 C209 1.338 . S
C208 N211 1.377 . S
C208 H228 0.930 . S
C209 N207 1.375 . S
C209 C208 1.338 . S
C209 H213 0.931 . S
C210 N207 1.313 . S
C210 N211 1.344 . S
C210 H214 0.930 . S
N211 C208 1.377 . S
N211 C210 1.344 . S
O212 Co204 2.055 . S
O212 C216 1.253 . S
H213 C209 0.931 . S
H214 C210 0.930 . S
O215 Co204 2.039 . S
O215 C205 1.265 . S
C216 O212 1.253 . S
C216 O217 1.227 . S
O217 C216 1.227 . S
N218 Co204 2.140 . S
N218 C221 1.346 . S
N218 C222 1.345 . S
C219 C220 1.387 . S
C219 C223 1.391 . S
C220 C219 1.387 . S
C220 C221 1.369 . S
C220 H229 0.929 . S
C221 N218 1.346 . S
C221 C220 1.369 . S
C221 H224 0.928 . S
C222 N218 1.345 . S
C222 C223 1.371 . S
C222 H225 0.931 . S
C223 C219 1.391 . S
C223 C222 1.371 . S
C223 H230 0.930 . S
H224 C221 0.928 . S
H225 C222 0.931 . S
H226 C202 0.930 . S
H227 C199 0.930 . S
H228 C208 0.930 . S
H229 C220 0.929 . S
H230 C223 0.930 . S
C231 C232 1.351 . S
C231 N234 1.368 . S
C231 H236 0.931 . S
C232 C231 1.351 . S
C232 N233 1.373 . S
C232 H260 0.930 . S
N233 C232 1.373 . S
N233 C235 1.340 . S
N234 C231 1.368 . S
N234 C235 1.321 . S
N234 Co237 2.135 . S
C235 N233 1.340 . S
C235 N234 1.321 . S
C235 H259 0.930 . S
H236 C231 0.931 . S
Co237 N234 2.135 . S
Co237 N240 2.121 . S
Co237 O245 2.055 . S
Co237 O248 2.039 . S
Co237 N251 2.140 . S
C238 O239 1.227 . S
C238 O248 1.265 . S
O239 C238 1.227 . S
N240 Co237 2.121 . S
N240 C242 1.375 . S
N240 C243 1.313 . S
C241 C242 1.338 . S
C241 N244 1.377 . S
C241 H261 0.930 . S
C242 N240 1.375 . S
C242 C241 1.338 . S
C242 H246 0.931 . S
C243 N240 1.313 . S
C243 N244 1.344 . S
C243 H247 0.930 . S
N244 C241 1.377 . S
N244 C243 1.344 . S
O245 Co237 2.055 . S
O245 C249 1.253 . S
H246 C242 0.931 . S
H247 C243 0.930 . S
O248 Co237 2.039 . S
O248 C238 1.265 . S
C249 O245 1.253 . S
C249 O250 1.227 . S
O250 C249 1.227 . S
N251 Co237 2.140 . S
N251 C254 1.346 . S
N251 C255 1.345 . S
C252 C253 1.387 . S
C252 C256 1.391 . S
C253 C252 1.387 . S
C253 C254 1.369 . S
C253 H262 0.929 . S
C254 N251 1.346 . S
C254 C253 1.369 . S
C254 H257 0.928 . S
C255 N251 1.345 . S
C255 C256 1.371 . S
C255 H258 0.931 . S
C256 C252 1.391 . S
C256 C255 1.371 . S
C256 H263 0.930 . S
H257 C254 0.928 . S
H258 C255 0.931 . S
H259 C235 0.930 . S
H260 C232 0.930 . S
H261 C241 0.930 . S
H262 C253 0.929 . S
H263 C256 0.930 . S
H264 C270 0.930 . S
H265 C274 0.930 . S
H266 C279 0.929 . S
H267 C277 0.929 . S
H268 C272 0.929 . S
H269 C278 0.929 . S
C270 H264 0.930 . S
C270 C271 1.367 1_655 S
C270 C278 1.378 . S
C271 C270 1.367 1_455 S
C271 C279 1.433 . S
C272 H268 0.929 . S
C272 C274 1.378 . S
C272 C276 1.350 . S
C273 C276 1.463 . S
C273 C278 1.350 1_455 S
C273 N281 1.427 . S
C274 H265 0.930 . S
C274 C272 1.378 . S
C274 C275 1.367 . S
C275 C274 1.367 . S
C275 C277 1.433 1_455 S
C276 C272 1.350 . S
C276 C273 1.463 . S
C276 N280 1.427 1_455 S
C277 H267 0.929 . S
C277 C275 1.433 1_655 S
C277 N280 1.384 . S
C278 H269 0.929 . S
C278 C270 1.378 . S
C278 C273 1.350 1_655 S
C279 H266 0.929 . S
C279 C271 1.433 . S
C279 N281 1.384 . S
N280 C276 1.427 1_655 S
N280 C277 1.384 . S
N281 C273 1.427 . S
N281 C279 1.384 . S
H282 C288 0.930 . S
H283 C292 0.930 . S
H284 C297 0.929 . S
H285 C295 0.929 . S
H286 C290 0.929 . S
H287 C296 0.929 . S
C288 H282 0.930 . S
C288 C289 1.367 . S
C288 C296 1.378 . S
C289 C288 1.367 . S
C289 C297 1.433 . S
C290 H286 0.929 . S
C290 C292 1.378 . S
C290 C294 1.350 . S
C291 C294 1.463 . S
C291 C296 1.350 . S
C291 N299 1.427 . S
C292 H283 0.930 . S
C292 C290 1.378 . S
C292 C293 1.367 . S
C293 C292 1.367 . S
C293 C295 1.433 . S
C294 C290 1.350 . S
C294 C291 1.463 . S
C294 N298 1.427 . S
C295 H285 0.929 . S
C295 C293 1.433 . S
C295 N298 1.384 . S
C296 H287 0.929 . S
C296 C288 1.378 . S
C296 C291 1.350 . S
C297 H284 0.929 . S
C297 C289 1.433 . S
C297 N299 1.384 . S
N298 C294 1.427 . S
N298 C295 1.384 . S
N299 C291 1.427 . S
N299 C297 1.384 . S
H300 C306 0.930 . S
H301 C310 0.930 . S
H302 C315 0.929 . S
H303 C313 0.929 . S
H304 C308 0.929 . S
H305 C314 0.929 . S
C306 H300 0.930 . S
C306 C307 1.367 . S
C306 C314 1.378 . S
C307 C306 1.367 . S
C307 C315 1.433 . S
C308 H304 0.929 . S
C308 C310 1.378 . S
C308 C312 1.350 . S
C309 C312 1.463 . S
C309 C314 1.350 . S
C309 N317 1.427 . S
C310 H301 0.930 . S
C310 C308 1.378 . S
C310 C311 1.367 . S
C311 C310 1.367 . S
C311 C313 1.433 . S
C312 C308 1.350 . S
C312 C309 1.463 . S
C312 N316 1.427 . S
C313 H303 0.929 . S
C313 C311 1.433 . S
C313 N316 1.384 . S
C314 H305 0.929 . S
C314 C306 1.378 . S
C314 C309 1.350 . S
C315 H302 0.929 . S
C315 C307 1.433 . S
C315 N317 1.384 . S
N316 C312 1.427 . S
N316 C313 1.384 . S
N317 C309 1.427 . S
N317 C315 1.384 . S
H318 C324 0.930 . S
H319 C328 0.930 . S
H320 C333 0.929 . S
H321 C331 0.929 . S
H322 C326 0.929 . S
H323 C332 0.929 . S
C324 H318 0.930 . S
C324 C325 1.367 . S
C324 C332 1.378 . S
C325 C324 1.367 . S
C325 C333 1.433 . S
C326 H322 0.929 . S
C326 C328 1.378 . S
C326 C330 1.350 . S
C327 C330 1.463 . S
C327 C332 1.350 . S
C327 N335 1.427 . S
C328 H319 0.930 . S
C328 C326 1.378 . S
C328 C329 1.367 . S
C329 C328 1.367 . S
C329 C331 1.433 . S
C330 C326 1.350 . S
C330 C327 1.463 . S
C330 N334 1.427 . S
C331 H321 0.929 . S
C331 C329 1.433 . S
C331 N334 1.384 . S
C332 H323 0.929 . S
C332 C324 1.378 . S
C332 C327 1.350 . S
C333 H320 0.929 . S
C333 C325 1.433 . S
C333 N335 1.384 . S
N334 C330 1.427 . S
N334 C331 1.384 . S
N335 C327 1.427 . S
N335 C333 1.384 . S
H336 C342 0.930 . S
H337 C346 0.930 1_655 S
H338 C351 0.929 1_655 S
H339 C349 0.929 . S
H340 C344 0.963 1_655 S
H341 C350 0.929 . S
C342 H336 0.930 . S
C342 C343 1.367 . S
C342 C350 1.378 . S
C343 C342 1.367 . S
C343 C351 1.433 . S
C344 H340 0.963 1_455 S
C344 C346 1.378 . S
C344 C348 1.350 . S
C345 C348 1.463 1_554 S
C345 C350 1.350 . S
C345 N353 1.427 . S
C346 H337 0.930 1_455 S
C346 C344 1.378 . S
C346 C347 1.367 . S
C347 C346 1.367 . S
C347 C349 1.433 . S
C348 C344 1.350 . S
C348 C345 1.463 1_556 S
C348 N352 1.427 . S
C349 H339 0.929 . S
C349 C347 1.433 . S
C349 N352 1.384 . S
C350 H341 0.929 . S
C350 C342 1.378 . S
C350 C345 1.350 . S
C351 H338 0.929 1_455 S
C351 C343 1.433 . S
C351 N353 1.384 . S
N352 C348 1.427 . S
N352 C349 1.384 . S
N353 C345 1.427 . S
N353 C351 1.384 . S
H354 C360 0.930 . S
H355 C364 0.930 . S
H356 C369 0.929 . S
H357 C367 0.929 . S
H358 C362 0.929 . S
H359 C368 0.929 . S
C360 H354 0.930 . S
C360 C361 1.367 . S
C360 C368 1.378 . S
C361 C360 1.367 . S
C361 C369 1.433 . S
C362 H358 0.929 . S
C362 C364 1.378 . S
C362 C366 1.350 . S
C363 C366 1.463 . S
C363 C368 1.350 . S
C363 N371 1.427 . S
C364 H355 0.930 . S
C364 C362 1.378 . S
C364 C365 1.367 . S
C365 C364 1.367 . S
C365 C367 1.433 . S
C366 C362 1.350 . S
C366 C363 1.463 . S
C366 N370 1.427 . S
C367 H357 0.929 . S
C367 C365 1.433 . S
C367 N370 1.384 . S
C368 H359 0.929 . S
C368 C360 1.378 . S
C368 C363 1.350 . S
C369 H356 0.929 . S
C369 C361 1.433 . S
C369 N371 1.384 . S
N370 C366 1.427 . S
N370 C367 1.384 . S
N371 C363 1.427 . S
N371 C369 1.384 . S
H372 C378 0.930 . S
H373 C382 0.930 . S
H374 C387 0.929 . S
H375 C385 0.929 . S
H376 C380 0.929 . S
H377 C386 0.929 . S
C378 H372 0.930 . S
C378 C379 1.367 . S
C378 C386 1.378 . S
C379 C378 1.367 . S
C379 C387 1.433 . S
C380 H376 0.929 . S
C380 C382 1.378 . S
C380 C384 1.350 . S
C381 C384 1.463 . S
C381 C386 1.350 . S
C381 N389 1.427 . S
C382 H373 0.930 . S
C382 C380 1.378 . S
C382 C383 1.367 . S
C383 C382 1.367 . S
C383 C385 1.433 . S
C384 C380 1.350 . S
C384 C381 1.463 . S
C384 N388 1.427 . S
C385 H375 0.929 . S
C385 C383 1.433 . S
C385 N388 1.384 . S
C386 H377 0.929 . S
C386 C378 1.378 . S
C386 C381 1.350 . S
C387 H374 0.929 . S
C387 C379 1.433 . S
C387 N389 1.384 . S
N388 C384 1.427 . S
N388 C385 1.384 . S
N389 C381 1.427 . S
N389 C387 1.384 . S
H390 C396 0.930 . S
H391 C400 0.930 . S
H392 C405 0.929 . S
H393 C403 0.929 . S
H394 C398 0.929 . S
H395 C404 0.929 . S
C396 H390 0.930 . S
C396 C397 1.367 . S
C396 C404 1.378 . S
C397 C396 1.367 . S
C397 C405 1.433 . S
C398 H394 0.929 . S
C398 C400 1.378 . S
C398 C402 1.350 . S
C399 C402 1.463 . S
C399 C404 1.350 . S
C399 N407 1.427 . S
C400 H391 0.930 . S
C400 C398 1.378 . S
C400 C401 1.367 . S
C401 C400 1.367 . S
C401 C403 1.433 . S
C402 C398 1.350 . S
C402 C399 1.463 . S
C402 N406 1.427 . S
C403 H393 0.929 . S
C403 C401 1.433 . S
C403 N406 1.384 . S
C404 H395 0.929 . S
C404 C396 1.378 . S
C404 C399 1.350 . S
C405 H392 0.929 . S
C405 C397 1.433 . S
C405 N407 1.384 . S
N406 C402 1.427 . S
N406 C403 1.384 . S
N407 C399 1.427 . S
N407 C405 1.384 . S
H408 C414 0.930 . S
H409 C418 0.930 . S
H410 C423 0.929 . S
H411 C421 0.929 . S
H412 C416 0.929 . S
H413 C422 0.929 . S
C414 H408 0.930 . S
C414 C415 1.367 . S
C414 C422 1.378 . S
C415 C414 1.367 . S
C415 C423 1.433 . S
C416 H412 0.929 . S
C416 C418 1.378 . S
C416 C420 1.350 . S
C417 C420 1.463 . S
C417 C422 1.350 . S
C417 N425 1.427 . S
C418 H409 0.930 . S
C418 C416 1.378 . S
C418 C419 1.367 . S
C419 C418 1.367 . S
C419 C421 1.433 . S
C420 C416 1.350 . S
C420 C417 1.463 . S
C420 N424 1.427 . S
C421 H411 0.929 . S
C421 C419 1.433 . S
C421 N424 1.384 . S
C422 H413 0.929 . S
C422 C414 1.378 . S
C422 C417 1.350 . S
C423 H410 0.929 . S
C423 C415 1.433 . S
C423 N425 1.384 . S
N424 C420 1.427 . S
N424 C421 1.384 . S
N425 C417 1.427 . S
N425 C423 1.384 . S
H426 C432 0.930 . S
H427 C436 0.930 . S
H428 C441 0.929 . S
H429 C439 0.929 . S
H430 C434 0.929 . S
H431 C440 0.929 . S
C432 H426 0.930 . S
C432 C433 1.367 . S
C432 C440 1.378 . S
C433 C432 1.367 . S
C433 C441 1.433 . S
C434 H430 0.929 . S
C434 C436 1.378 . S
C434 C438 1.350 . S
C435 C438 1.463 . S
C435 C440 1.350 . S
C435 N443 1.427 . S
C436 H427 0.930 . S
C436 C434 1.378 . S
C436 C437 1.367 . S
C437 C436 1.367 . S
C437 C439 1.433 . S
C438 C434 1.350 . S
C438 C435 1.463 . S
C438 N442 1.427 . S
C439 H429 0.929 . S
C439 C437 1.433 . S
C439 N442 1.384 . S
C440 H431 0.929 . S
C440 C432 1.378 . S
C440 C435 1.350 . S
C441 H428 0.929 . S
C441 C433 1.433 . S
C441 N443 1.384 . S
N442 C438 1.427 . S
N442 C439 1.384 . S
N443 C435 1.427 . S
N443 C441 1.384 . S
H444 C450 0.930 . S
H445 C454 0.930 . S
H446 C459 0.929 . S
H447 C457 0.929 . S
H448 C452 0.929 . S
H449 C458 0.929 . S
C450 H444 0.930 . S
C450 C451 1.367 . S
C450 C458 1.378 . S
C451 C450 1.367 . S
C451 C459 1.433 . S
C452 H448 0.929 . S
C452 C454 1.378 . S
C452 C456 1.350 . S
C453 C456 1.463 . S
C453 C458 1.350 1_545 S
C453 N461 1.427 . S
C454 H445 0.930 . S
C454 C452 1.378 . S
C454 C455 1.367 . S
C455 C454 1.367 . S
C455 C457 1.433 . S
C456 C452 1.350 . S
C456 C453 1.463 . S
C456 N460 1.427 . S
C457 H447 0.929 . S
C457 C455 1.433 . S
C457 N460 1.384 . S
C458 H449 0.929 . S
C458 C450 1.378 . S
C458 C453 1.350 1_565 S
C459 H446 0.929 . S
C459 C451 1.433 . S
C459 N461 1.384 1_565 S
N460 C456 1.427 . S
N460 C457 1.384 . S
N461 C453 1.427 . S
N461 C459 1.384 1_545 S
H462 C468 0.931 1_655 S
H463 C472 0.930 . S
H464 C477 0.929 . S
H465 C475 0.929 1_655 S
H466 C470 0.929 . S
H467 C476 0.901 1_656 S
C468 H462 0.931 1_455 S
C468 C469 1.367 . S
C468 C476 1.378 . S
C469 C468 1.367 . S
C469 C477 1.433 1_565 S
C470 H466 0.929 . S
C470 C472 1.378 . S
C470 C474 1.350 . S
C471 C474 1.463 1_554 S
C471 C476 1.350 1_545 S
C471 N479 1.427 . S
C472 H463 0.930 . S
C472 C470 1.378 . S
C472 C473 1.367 . S
C473 C472 1.367 . S
C473 C475 1.433 1_545 S
C474 C470 1.350 . S
C474 C471 1.463 1_556 S
C474 N478 1.427 1_545 S
C475 H465 0.929 1_455 S
C475 C473 1.433 1_565 S
C475 N478 1.384 . S
C476 H467 0.901 1_454 S
C476 C468 1.378 . S
C476 C471 1.350 1_565 S
C477 H464 0.929 . S
C477 C469 1.433 1_545 S
C477 N479 1.384 . S
N478 C474 1.427 1_565 S
N478 C475 1.384 . S
N479 C471 1.427 . S
N479 C477 1.384 . S
H480 C486 0.930 . S
H481 C490 0.930 . S
H482 C495 0.929 . S
H483 C493 0.929 . S
H484 C488 0.929 . S
H485 C494 0.929 . S
C486 H480 0.930 . S
C486 C487 1.367 . S
C486 C494 1.378 . S
C487 C486 1.367 . S
C487 C495 1.433 . S
C488 H484 0.929 . S
C488 C490 1.378 . S
C488 C492 1.350 . S
C489 C492 1.463 . S
C489 C494 1.350 . S
C489 N497 1.427 . S
C490 H481 0.930 . S
C490 C488 1.378 . S
C490 C491 1.367 . S
C491 C490 1.367 . S
C491 C493 1.433 . S
C492 C488 1.350 . S
C492 C489 1.463 . S
C492 N496 1.427 . S
C493 H483 0.929 . S
C493 C491 1.433 . S
C493 N496 1.384 . S
C494 H485 0.929 . S
C494 C486 1.378 . S
C494 C489 1.350 . S
C495 H482 0.929 . S
C495 C487 1.433 . S
C495 N497 1.384 . S
N496 C492 1.427 . S
N496 C493 1.384 . S
N497 C489 1.427 . S
N497 C495 1.384 . S
H498 C504 0.930 . S
H499 C508 0.930 . S
H500 C513 0.929 . S
H501 C511 0.929 . S
H502 C506 0.929 . S
H503 C512 0.929 . S
C504 H498 0.930 . S
C504 C505 1.367 . S
C504 C512 1.378 . S
C505 C504 1.367 . S
C505 C513 1.433 . S
C506 H502 0.929 . S
C506 C508 1.378 . S
C506 C510 1.350 . S
C507 C510 1.463 . S
C507 C512 1.350 . S
C507 N515 1.427 . S
C508 H499 0.930 . S
C508 C506 1.378 . S
C508 C509 1.367 . S
C509 C508 1.367 . S
C509 C511 1.433 . S
C510 C506 1.350 . S
C510 C507 1.463 . S
C510 N514 1.427 . S
C511 H501 0.929 . S
C511 C509 1.433 . S
C511 N514 1.384 . S
C512 H503 0.929 . S
C512 C504 1.378 . S
C512 C507 1.350 . S
C513 H500 0.929 . S
C513 C505 1.433 . S
C513 N515 1.384 . S
N514 C510 1.427 . S
N514 C511 1.384 . S
N515 C507 1.427 . S
N515 C513 1.384 . S
H516 C522 0.930 . S
H517 C526 0.930 . S
H518 C531 0.929 . S
H519 C529 0.929 . S
H520 C524 0.926 1_455 S
H521 C530 0.929 . S
C522 H516 0.930 . S
C522 C523 1.367 . S
C522 C530 1.378 . S
C523 C522 1.367 . S
C523 C531 1.433 . S
C524 H520 0.926 1_655 S
C524 C526 1.378 . S
C524 C528 1.350 1_655 S
C525 C528 1.463 . S
C525 C530 1.350 . S
C525 N533 1.427 . S
C526 H517 0.930 . S
C526 C524 1.378 . S
C526 C527 1.367 . S
C527 C526 1.367 . S
C527 C529 1.433 . S
C528 C524 1.350 1_455 S
C528 C525 1.463 . S
C528 N532 1.427 1_455 S
C529 H519 0.929 . S
C529 C527 1.433 . S
C529 N532 1.384 . S
C530 H521 0.929 . S
C530 C522 1.378 . S
C530 C525 1.350 . S
C531 H518 0.929 . S
C531 C523 1.433 . S
C531 N533 1.384 . S
N532 C528 1.427 1_655 S
N532 C529 1.384 . S
N533 C525 1.427 . S
N533 C531 1.384 . S
H534 C540 0.930 . S
H535 C544 0.930 . S
H536 C549 0.929 . S
H537 C547 0.929 . S
H538 C542 0.929 . S
H539 C548 0.929 . S
C540 H534 0.930 . S
C540 C541 1.367 . S
C540 C548 1.378 . S
C541 C540 1.367 . S
C541 C549 1.433 . S
C542 H538 0.929 . S
C542 C544 1.378 . S
C542 C546 1.350 . S
C543 C546 1.463 . S
C543 C548 1.350 . S
C543 N551 1.427 . S
C544 H535 0.930 . S
C544 C542 1.378 . S
C544 C545 1.367 . S
C545 C544 1.367 . S
C545 C547 1.433 . S
C546 C542 1.350 . S
C546 C543 1.463 . S
C546 N550 1.427 . S
C547 H537 0.929 . S
C547 C545 1.433 . S
C547 N550 1.384 . S
C548 H539 0.929 . S
C548 C540 1.378 . S
C548 C543 1.350 . S
C549 H536 0.929 . S
C549 C541 1.433 . S
C549 N551 1.384 . S
N550 C546 1.427 . S
N550 C547 1.384 . S
N551 C543 1.427 . S
N551 C549 1.384 . S
H552 C558 0.930 . S
H553 C562 0.930 . S
H554 C567 0.929 . S
H555 C565 0.929 . S
H556 C560 0.929 . S
H557 C566 0.929 . S
C558 H552 0.930 . S
C558 C559 1.367 . S
C558 C566 1.378 . S
C559 C558 1.367 . S
C559 C567 1.433 . S
C560 H556 0.929 . S
C560 C562 1.378 . S
C560 C564 1.350 . S
C561 C564 1.463 . S
C561 C566 1.350 . S
C561 N569 1.427 . S
C562 H553 0.930 . S
C562 C560 1.378 . S
C562 C563 1.367 . S
C563 C562 1.367 . S
C563 C565 1.433 . S
C564 C560 1.350 . S
C564 C561 1.463 . S
C564 N568 1.427 . S
C565 H555 0.929 . S
C565 C563 1.433 . S
C565 N568 1.384 . S
C566 H557 0.929 . S
C566 C558 1.378 . S
C566 C561 1.350 . S
C567 H554 0.929 . S
C567 C559 1.433 . S
C567 N569 1.384 . S
N568 C564 1.427 . S
N568 C565 1.384 . S
N569 C561 1.427 . S
N569 C567 1.384 . S
H570 C576 0.930 . S
H571 C580 0.930 . S
H572 C585 0.929 . S
H573 C583 0.929 . S
H574 C578 0.929 . S
H575 C584 0.929 . S
C576 H570 0.930 . S
C576 C577 1.367 1_655 S
C576 C584 1.378 . S
C577 C576 1.367 1_455 S
C577 C585 1.433 . S
C578 H574 0.929 . S
C578 C580 1.378 . S
C578 C582 1.350 . S
C579 C582 1.463 . S
C579 C584 1.350 1_455 S
C579 N587 1.427 . S
C580 H571 0.930 . S
C580 C578 1.378 . S
C580 C581 1.367 . S
C581 C580 1.367 . S
C581 C583 1.433 1_455 S
C582 C578 1.350 . S
C582 C579 1.463 . S
C582 N586 1.427 1_455 S
C583 H573 0.929 . S
C583 C581 1.433 1_655 S
C583 N586 1.384 . S
C584 H575 0.929 . S
C584 C576 1.378 . S
C584 C579 1.350 1_655 S
C585 H572 0.929 . S
C585 C577 1.433 . S
C585 N587 1.384 . S
N586 C582 1.427 1_655 S
N586 C583 1.384 . S
N587 C579 1.427 . S
N587 C585 1.384 . S
H588 C594 0.930 . S
H589 C598 0.930 . S
H590 C603 0.929 . S
H591 C601 0.929 . S
H592 C596 0.929 . S
H593 C602 0.926 1_455 S
C594 H588 0.930 . S
C594 C595 1.367 . S
C594 C602 1.378 . S
C595 C594 1.367 . S
C595 C603 1.433 . S
C596 H592 0.929 . S
C596 C598 1.378 . S
C596 C600 1.350 . S
C597 C600 1.463 . S
C597 C602 1.350 1_455 S
C597 N605 1.427 1_455 S
C598 H589 0.930 . S
C598 C596 1.378 . S
C598 C599 1.367 . S
C599 C598 1.367 . S
C599 C601 1.433 . S
C600 C596 1.350 . S
C600 C597 1.463 . S
C600 N604 1.427 . S
C601 H591 0.929 . S
C601 C599 1.433 . S
C601 N604 1.384 . S
C602 H593 0.926 1_655 S
C602 C594 1.378 . S
C602 C597 1.350 1_655 S
C603 H590 0.929 . S
C603 C595 1.433 . S
C603 N605 1.384 . S
N604 C600 1.427 . S
N604 C601 1.384 . S
N605 C597 1.427 1_655 S
N605 C603 1.384 . S
H606 C612 0.930 . S
H607 C616 0.930 . S
H608 C621 0.929 . S
H609 C619 0.929 . S
H610 C614 0.929 . S
H611 C620 0.929 . S
C612 H606 0.930 . S
C612 C613 1.367 . S
C612 C620 1.378 . S
C613 C612 1.367 . S
C613 C621 1.433 . S
C614 H610 0.929 . S
C614 C616 1.378 . S
C614 C618 1.350 . S
C615 C618 1.463 . S
C615 C620 1.350 . S
C615 N623 1.427 . S
C616 H607 0.930 . S
C616 C614 1.378 . S
C616 C617 1.367 . S
C617 C616 1.367 . S
C617 C619 1.433 . S
C618 C614 1.350 . S
C618 C615 1.463 . S
C618 N622 1.427 . S
C619 H609 0.929 . S
C619 C617 1.433 . S
C619 N622 1.384 . S
C620 H611 0.929 . S
C620 C612 1.378 . S
C620 C615 1.350 . S
C621 H608 0.929 . S
C621 C613 1.433 . S
C621 N623 1.384 . S
N622 C618 1.427 . S
N622 C619 1.384 . S
N623 C615 1.427 . S
N623 C621 1.384 . S
C271 C18 1.320 . S
C275 C183 1.318 . S
C289 C216 1.314 . S
C293 C51 1.314 . S
C307 C84 1.318 . S
C311 C249 1.319 . S
C325 C150 1.318 . S
C329 C117 1.318 . S
C343 C7 0.501 . S
C347 C153 0.478 . S
C361 C40 0.665 . S
C365 C186 0.653 . S
C379 C205 0.646 . S
C383 C87 0.639 . S
C397 C120 0.479 . S
C401 C238 0.502 . S
C415 C106 0.647 . S
C419 C252 0.636 . S
C433 C172 0.496 . S
C437 C54 0.473 . S
C451 C219 0.483 . S
C455 C73 0.505 . S
C469 C21 0.638 . S
C473 C139 0.649 . S
C487 N13 1.808 . S
C491 N2 1.805 . S
C505 N46 1.800 . S
C509 N35 1.797 1_545 S
C523 N79 1.801 . S
C527 N68 1.798 . S
C541 N112 1.800 1_565 S
C545 N101 1.797 . S
C559 N134 1.797 . S
C563 N145 1.800 . S
C577 N178 1.804 1_545 S
C581 N167 1.800 . S
C595 N211 1.802 . S
C599 N200 1.798 . S
C613 N233 1.805 1_565 S
C617 N244 1.808 . S
