# Generated by pormake.
# Topology ukf, (4)-cn, num edge types: 1
# Building blocks:
#     Node 0, Type 0, BuildingBlock: ESEHIV_clean_sbu_0, # of connection points: 4
#     Node 1, Type 0, BuildingBlock: ESEHIV_clean_sbu_0, # of connection points: 4
#     Node 2, Type 0, BuildingBlock: ESEHIV_clean_sbu_0, # of connection points: 4
#     Node 3, Type 0, BuildingBlock: ESEHIV_clean_sbu_0, # of connection points: 4
#     Node 4, Type 0, BuildingBlock: ESEHIV_clean_sbu_0, # of connection points: 4
#     Node 5, Type 0, BuildingBlock: ESEHIV_clean_sbu_0, # of connection points: 4
#     Node 6, Type 0, BuildingBlock: ESEHIV_clean_sbu_0, # of connection points: 4
#     Node 7, Type 0, BuildingBlock: ESEHIV_clean_sbu_0, # of connection points: 4
#     Node 8, Type 0, BuildingBlock: ESEHIV_clean_sbu_0, # of connection points: 4
#     Node 9, Type 0, BuildingBlock: ESEHIV_clean_sbu_0, # of connection points: 4
#     Node 10, Type 0, BuildingBlock: ESEHIV_clean_sbu_0, # of connection points: 4
#     Node 11, Type 0, BuildingBlock: ESEHIV_clean_sbu_0, # of connection points: 4
#     Edge 12, Type (0, 0), BuildingBlock: AJUNOK_clean_linker_0, # of connection points: 2
#     Edge 13, Type (0, 0), BuildingBlock: AJUNOK_clean_linker_0, # of connection points: 2
#     Edge 14, Type (0, 0), BuildingBlock: AJUNOK_clean_linker_0, # of connection points: 2
#     Edge 15, Type (0, 0), BuildingBlock: AJUNOK_clean_linker_0, # of connection points: 2
#     Edge 16, Type (0, 0), BuildingBlock: AJUNOK_clean_linker_0, # of connection points: 2
#     Edge 17, Type (0, 0), BuildingBlock: AJUNOK_clean_linker_0, # of connection points: 2
#     Edge 18, Type (0, 0), BuildingBlock: AJUNOK_clean_linker_0, # of connection points: 2
#     Edge 19, Type (0, 0), BuildingBlock: AJUNOK_clean_linker_0, # of connection points: 2
#     Edge 20, Type (0, 0), BuildingBlock: AJUNOK_clean_linker_0, # of connection points: 2
#     Edge 21, Type (0, 0), BuildingBlock: AJUNOK_clean_linker_0, # of connection points: 2
#     Edge 22, Type (0, 0), BuildingBlock: AJUNOK_clean_linker_0, # of connection points: 2
#     Edge 23, Type (0, 0), BuildingBlock: AJUNOK_clean_linker_0, # of connection points: 2
#     Edge 24, Type (0, 0), BuildingBlock: AJUNOK_clean_linker_0, # of connection points: 2
#     Edge 25, Type (0, 0), BuildingBlock: AJUNOK_clean_linker_0, # of connection points: 2
#     Edge 26, Type (0, 0), BuildingBlock: AJUNOK_clean_linker_0, # of connection points: 2
#     Edge 27, Type (0, 0), BuildingBlock: AJUNOK_clean_linker_0, # of connection points: 2
#     Edge 28, Type (0, 0), BuildingBlock: AJUNOK_clean_linker_0, # of connection points: 2
#     Edge 29, Type (0, 0), BuildingBlock: AJUNOK_clean_linker_0, # of connection points: 2
#     Edge 30, Type (0, 0), BuildingBlock: AJUNOK_clean_linker_0, # of connection points: 2
#     Edge 31, Type (0, 0), BuildingBlock: AJUNOK_clean_linker_0, # of connection points: 2
#     Edge 32, Type (0, 0), BuildingBlock: AJUNOK_clean_linker_0, # of connection points: 2
#     Edge 33, Type (0, 0), BuildingBlock: AJUNOK_clean_linker_0, # of connection points: 2
#     Edge 34, Type (0, 0), BuildingBlock: AJUNOK_clean_linker_0, # of connection points: 2
#     Edge 35, Type (0, 0), BuildingBlock: AJUNOK_clean_linker_0, # of connection points: 2
# Relax obj value: 0.082
# Max RMSD: 0.295
# Mean RMSD: 0.294
data_MOF--net-ukf--node1-ESEHIV_clean_sbu_0--edge1-AJUNOK_clean_linker_0
_symmetry_space_group_name_H-M    P1
_symmetry_Int_Tables_number       1
_symmetry_cell_setting            triclinic
loop_
_symmetry_equiv_pos_as_xyz
'x, y, z'
_cell_length_a     27.965246
_cell_length_b     28.115004
_cell_length_c     51.756585
_cell_angle_alpha  89.859408
_cell_angle_beta   90.174231
_cell_angle_gamma 119.88857
loop_
_atom_site_label
_atom_site_type_symbol
_atom_site_fract_x
_atom_site_fract_y
_atom_site_fract_z
_atom_type_partial_charge
Cu0 Cu 0.49422 0.25961 0.08726 0.0
N1 N 0.4336 0.19363 0.07645 0.0
N2 N 0.37979 0.11239 0.05777 0.0
C3 C 0.4287 0.1597 0.05694 0.0
C4 C 0.35274 0.11718 0.07822 0.0
C5 C 0.38609 0.16709 0.08973 0.0
O6 O 0.55971 0.27653 0.06759 0.0
C7 C 0.5263 0.28571 0.14073 0.0
O8 O 0.5486 0.33754 0.13404 0.0
H9 H 0.46093 0.16849 0.04303 0.0
H10 H 0.37701 0.1826 0.10703 0.0
N11 N 0.47859 0.31652 0.08316 0.0
N12 N 0.48915 0.40018 0.07762 0.0
C13 C 0.51485 0.37064 0.08105 0.0
C14 C 0.42839 0.31159 0.08107 0.0
C15 C 0.43474 0.36304 0.07773 0.0
C16 C 0.57767 0.24313 0.06562 0.0
O17 O 0.55109 0.19536 0.07732 0.0
H18 H 0.55902 0.3878 0.08246 0.0
H19 H 0.38983 0.27322 0.08173 0.0
O20 O 0.50385 0.24881 0.12351 0.0
H21 H 0.31184 0.08669 0.08446 0.0
H22 H 0.4018 0.37231 0.07516 0.0
Cu23 Cu 0.26697 0.49605 0.41783 0.0
N24 N 0.19952 0.48805 0.40701 0.0
N25 N 0.12834 0.50191 0.40072 0.0
C26 C 0.17381 0.51518 0.41502 0.0
C27 C 0.12544 0.46524 0.38314 0.0
C28 C 0.1692 0.45659 0.38715 0.0
O29 O 0.28188 0.51585 0.45403 0.0
C30 C 0.32492 0.58671 0.38305 0.0
O31 O 0.27995 0.59043 0.38285 0.0
H32 H 0.18957 0.54591 0.4301 0.0
H33 H 0.17938 0.43056 0.37583 0.0
N34 N 0.26706 0.43068 0.41228 0.0
N35 N 0.28677 0.37068 0.39396 0.0
C36 C 0.29002 0.42006 0.39191 0.0
C37 C 0.24877 0.38667 0.42787 0.0
C38 C 0.2611 0.34959 0.41663 0.0
C39 C 0.24557 0.49286 0.47152 0.0
O40 O 0.19517 0.45592 0.46477 0.0
H41 H 0.31058 0.44901 0.37637 0.0
H42 H 0.22898 0.38237 0.44632 0.0
O43 O 0.32697 0.55061 0.3971 0.0
H44 H 0.09446 0.44693 0.36813 0.0
H45 H 0.25225 0.31037 0.42456 0.0
Cu46 Cu 0.79287 0.24932 0.75639 0.0
N47 N 0.86258 0.25749 0.7505 0.0
N48 N 0.94399 0.28151 0.73233 0.0
C49 C 0.89444 0.27836 0.72936 0.0
C50 C 0.94316 0.26191 0.75624 0.0
C51 C 0.89294 0.24705 0.76735 0.0
O52 O 0.78479 0.30144 0.73473 0.0
C53 C 0.77967 0.22552 0.80923 0.0
O54 O 0.77207 0.17834 0.80062 0.0
H55 H 0.88224 0.29285 0.71258 0.0
H56 H 0.87995 0.23075 0.78659 0.0
N57 N 0.73861 0.178 0.74765 0.0
N58 N 0.65718 0.10121 0.74309 0.0
C59 C 0.68364 0.15401 0.75109 0.0
C60 C 0.74717 0.13934 0.73693 0.0
C61 C 0.69706 0.09202 0.73401 0.0
C62 C 0.82295 0.35137 0.73414 0.0
O63 O 0.86577 0.36729 0.74949 0.0
H64 H 0.66352 0.17469 0.75948 0.0
H65 H 0.78712 0.14533 0.7315 0.0
O66 O 0.78788 0.26276 0.7929 0.0
H67 H 0.97659 0.25874 0.76508 0.0
H68 H 0.69045 0.05432 0.72523 0.0
Cu69 Cu 0.58861 0.77681 0.0822 0.0
N70 N 0.65681 0.83995 0.07785 0.0
N71 N 0.72131 0.92181 0.06316 0.0
C72 C 0.66955 0.87937 0.06 0.0
C73 C 0.74165 0.90861 0.08395 0.0
C74 C 0.70175 0.85803 0.09295 0.0
O75 O 0.53492 0.78895 0.06412 0.0
C76 C 0.57561 0.80162 0.13354 0.0
O77 O 0.58658 0.84888 0.12338 0.0
H78 H 0.64117 0.87718 0.04515 0.0
H79 H 0.7046 0.83663 0.10976 0.0
N80 N 0.59037 0.71671 0.06815 0.0
N81 N 0.57688 0.63192 0.0631 0.0
C82 C 0.57068 0.66671 0.07888 0.0
C83 C 0.60946 0.71358 0.04479 0.0
C84 C 0.60105 0.66127 0.04156 0.0
C85 C 0.48855 0.75107 0.05601 0.0
O86 O 0.47333 0.69977 0.0614 0.0
H87 H 0.5517 0.65595 0.09777 0.0
H88 H 0.62707 0.74669 0.03087 0.0
O89 O 0.57282 0.76427 0.11877 0.0
H90 H 0.78162 0.93445 0.09268 0.0
H91 H 0.61002 0.6456 1.02427 0.0
Cu92 Cu 0.84101 0.58809 0.41661 0.0
N93 N 0.91183 0.60324 0.40755 0.0
N94 N 0.98631 0.59455 0.40216 0.0
C95 C 0.93669 0.57415 0.41373 0.0
C96 C 0.99269 0.63773 0.38806 0.0
C97 C 0.94679 0.64316 0.39153 0.0
O98 O 0.82612 0.5666 0.45279 0.0
C99 C 0.74436 0.49033 0.39961 0.0
O100 O 0.73108 0.48034 0.42414 0.0
H101 H 0.91784 0.53757 0.42561 0.0
H102 H 0.93869 0.67314 0.38246 0.0
N103 N 0.83383 0.64972 0.41076 0.0
N104 N 0.80757 0.70474 0.39197 0.0
C105 C 0.80544 0.65572 0.3912 0.0
C106 C 0.85433 0.69628 0.42459 0.0
C107 C 0.838 0.73029 0.41308 0.0
C108 C 0.86442 0.59046 0.46943 0.0
O109 O 0.91338 0.62867 0.46164 0.0
H110 H 0.78282 0.62417 0.37697 0.0
H111 H 0.87935 0.70485 0.4418 0.0
O112 O 0.78968 0.53217 0.39329 0.0
H113 H 1.02767 0.66294 0.3758 0.0
H114 H 0.84832 0.77092 0.41951 0.0
Cu115 Cu 0.27554 0.81677 0.74708 0.0
N116 N 0.2132 0.82044 0.73762 0.0
N117 N 0.13222 0.79889 0.71975 0.0
C118 C 0.17602 0.79101 0.71922 0.0
C119 C 0.14245 0.83502 0.73899 0.0
C120 C 0.19249 0.84819 0.75001 0.0
O121 O 0.27003 0.75296 0.72981 0.0
C122 C 0.30027 0.79695 0.79921 0.0
O123 O 0.33981 0.79012 0.78955 0.0
H124 H 0.17989 0.76273 0.70639 0.0
H125 H 0.21178 0.87491 0.76639 0.0
N126 N 0.33829 0.88152 0.73678 0.0
N127 N 0.42422 0.95256 0.73385 0.0
C128 C 0.3896 0.90626 0.7469 0.0
C129 C 0.34046 0.91334 0.71687 0.0
C130 C 0.39325 0.95718 0.71505 0.0
C131 C 0.31026 0.74896 0.72096 0.0
O132 O 0.36081 0.7894 0.72461 0.0
H133 H 0.40105 0.89088 0.76359 0.0
H134 H 0.30595 0.90494 0.70444 0.0
O135 O 0.27129 0.80847 0.78428 0.0
H136 H 0.11555 0.85048 0.74474 0.0
H137 H 0.40803 0.98947 0.70068 0.0
Cu138 Cu 0.79666 0.57118 0.62896 0.0
N139 N 0.73864 0.58406 0.63585 0.0
N140 N 0.65431 0.57375 0.63868 0.0
C141 C 0.68408 0.5492 0.63318 0.0
C142 C 0.69146 0.62572 0.64531 0.0
C143 C 0.74342 0.63195 0.64351 0.0
O144 O 0.79504 0.55485 0.59224 0.0
C145 C 0.83064 0.50485 0.65605 0.0
O146 O 0.87834 0.53698 0.64501 0.0
H147 H 0.66665 0.50713 0.62679 0.0
H148 H 0.78209 0.66897 0.64733 0.0
N149 N 0.86285 0.63592 0.63572 0.0
N150 N 0.94267 0.69772 0.65358 0.0
C151 C 0.89562 0.64934 0.65673 0.0
C152 C 0.88965 0.67766 0.61898 0.0
C153 C 0.93909 0.71562 0.62985 0.0
C154 C 0.83776 0.56024 0.58086 0.0
O155 O 0.88178 0.57225 0.5947 0.0
H156 H 0.88637 0.62303 0.67348 0.0
H157 H 0.87492 0.67941 0.59985 0.0
O158 O 0.78988 0.51173 0.65106 0.0
H159 H 0.68174 0.65682 0.65122 0.0
H160 H 0.97045 0.75303 0.62089 0.0
Cu161 Cu 0.25343 0.77798 0.96258 0.0
N162 N 0.26249 0.84714 0.97002 0.0
N163 N 0.2903 0.92849 0.9887 0.0
C164 C 0.28755 0.87922 0.99068 0.0
C165 C 0.26613 0.92728 0.96593 0.0
C166 C 0.24897 0.87713 0.95451 0.0
O167 O 0.29979 0.76344 0.98539 0.0
C168 C 0.24195 0.77286 0.90859 0.0
O169 O 0.19315 0.76568 0.91452 0.0
H170 H 0.30514 0.86737 1.00637 0.0
H171 H 0.22893 0.86389 0.93593 0.0
N172 N 0.1798 0.72348 0.96717 0.0
N173 N 0.10443 0.64083 0.97024 0.0
C174 C 0.16008 0.6691 0.96959 0.0
C175 C 0.1351 0.72975 0.96664 0.0
C176 C 0.08845 0.67872 0.96843 0.0
C177 C 0.35133 0.797 0.98674 0.0
O178 O 0.37274 0.84076 0.97191 0.0
H179 H 0.1859 0.65048 0.97007 0.0
H180 H 0.13637 0.76863 0.96445 0.0
O181 O 0.27492 0.77813 0.92679 0.0
H182 H 0.26131 0.96039 0.9581 0.0
H183 H 0.04615 0.67006 0.96839 0.0
Cu184 Cu 0.50007 0.24731 0.30346 0.0
N185 N 0.43731 0.25311 0.30888 0.0
N186 N 0.37914 0.2775 0.32553 0.0
C187 C 0.42792 0.27907 0.32836 0.0
C188 C 0.35679 0.24899 0.30362 0.0
C189 C 0.39283 0.23408 0.29337 0.0
O190 O 0.55767 0.29736 0.32653 0.0
C191 C 0.49729 0.2277 0.25015 0.0
O192 O 0.45874 0.17852 0.2573 0.0
H193 H 0.45675 0.2997 0.34399 0.0
H194 H 0.38717 0.21126 0.27576 0.0
N195 N 0.48504 0.17657 0.3115 0.0
N196 N 0.49467 0.10271 0.3159 0.0
C197 C 0.51665 0.15409 0.30628 0.0
C198 C 0.44186 0.13849 0.32502 0.0
C199 C 0.44775 0.09293 0.32784 0.0
C200 C 0.58731 0.34823 0.32168 0.0
O201 O 0.57938 0.36768 0.29998 0.0
H202 H 0.5551 0.17515 0.29576 0.0
H203 H 0.40914 0.14408 0.3328 0.0
O204 O 0.52173 0.26422 0.26741 0.0
H205 H 0.31704 0.23916 0.29571 0.0
H206 H 0.42062 0.05639 0.33872 0.0
Cu207 Cu 0.27473 0.47709 0.63288 0.0
N208 N 0.33274 0.46215 0.63426 0.0
N209 N 0.41837 0.47498 0.63524 0.0
C210 C 0.38673 0.4987 0.63742 0.0
C211 C 0.38266 0.42132 0.63097 0.0
C212 C 0.33 0.41359 0.63026 0.0
O213 O 0.26232 0.4889 0.59714 0.0
C214 C 0.26056 0.56023 0.65596 0.0
O215 O 0.21325 0.53602 0.64353 0.0
H216 H 0.40228 0.54184 0.64109 0.0
H217 H 0.29248 0.37544 0.62648 0.0
N218 N 0.20945 0.41608 0.64405 0.0
N219 N 0.12824 0.36272 0.6631 0.0
C220 C 0.17533 0.41181 0.66341 0.0
C221 C 0.18324 0.36802 0.63134 0.0
C222 C 0.13337 0.33492 0.64312 0.0
C223 C 0.30066 0.51804 0.58134 0.0
O224 O 0.35177 0.54492 0.58974 0.0
H225 H 0.18373 0.44466 0.67677 0.0
H226 H 0.19868 0.35843 0.61416 0.0
O227 O 0.29305 0.54108 0.65386 0.0
H228 H 0.39397 0.39016 0.62775 0.0
H229 H 0.10309 0.29373 0.63732 0.0
Cu230 Cu 0.83169 0.25583 0.97175 0.0
N231 N 0.83769 0.19543 0.98208 0.0
N232 N 0.82232 0.11809 1.00159 0.0
C233 C 0.8093 0.15837 1.00066 0.0
C234 C 0.85976 0.13006 0.98267 0.0
C235 C 0.86912 0.17772 0.9707 0.0
O236 O 0.77039 0.25298 0.99084 0.0
C237 C 0.8085 0.27645 0.91956 0.0
O238 O 0.81238 0.32215 0.92819 0.0
H239 H 0.77925 0.1605 1.01301 0.0
H240 H 0.89592 0.19748 0.95438 0.0
N241 N 0.89973 0.31951 0.97769 0.0
N242 N 0.96964 0.40641 0.97852 0.0
C243 C 0.91598 0.37243 0.97229 0.0
C244 C 0.94451 0.32007 0.98759 0.0
C245 C 0.98744 0.37325 0.98814 0.0
C246 C 0.77059 0.29181 1.00352 0.0
O247 O 0.81523 0.3403 1.00391 0.0
H248 H 0.88856 0.38557 0.96448 0.0
H249 H 0.94603 0.2841 0.9938 0.0
O250 O 0.81547 0.24529 0.93508 0.0
H251 H 0.87748 0.10504 0.97715 0.0
H252 H 1.02889 0.38631 0.99479 0.0
Cu253 Cu 0.59533 0.82772 0.2965 0.0
N254 N 0.65598 0.81881 0.3037 0.0
N255 N 0.71249 0.79321 0.32159 0.0
C256 C 0.66581 0.79578 0.32446 0.0
C257 C 0.73329 0.81651 0.29847 0.0
C258 C 0.69835 0.83216 0.28751 0.0
O259 O 0.52925 0.77412 0.31418 0.0
C260 C 0.57667 0.78346 0.24589 0.0
O261 O 0.57716 0.74202 0.25738 0.0
H262 H 0.63852 0.77971 0.34094 0.0
H263 H 0.70296 0.85123 0.26881 0.0
N264 N 0.60863 0.89608 0.30757 0.0
N265 N 0.59305 0.96544 0.31488 0.0
C266 C 0.57631 0.91771 0.30226 0.0
C267 C 0.6476 0.93137 0.3239 0.0
C268 C 0.63827 0.97447 0.32834 0.0
C269 C 0.51568 0.72457 0.3188 0.0
O270 O 0.54774 0.70573 0.31097 0.0
H271 H 0.54114 0.89846 0.28942 0.0
H272 H 0.67958 0.92542 0.33246 0.0
O273 O 0.58314 0.8239 0.25947 0.0
H274 H 0.77111 0.82195 0.2901 0.0
H275 H 0.66185 1.00888 0.34111 0.0
C276 C 0.34414 1.02828 0.99705 0.0
C277 C 0.31527 0.97404 1.00645 0.0
C278 C 0.36669 0.07334 1.01393 0.0
C279 C 0.36036 0.06579 0.0408 0.0
H280 H 0.34926 0.0359 0.97645 0.0
H281 H 0.3878 0.11439 1.00592 0.0
S282 S 0.29059 0.93245 0.07536 0.0
N283 N 0.28311 0.91559 0.04448 0.0
N284 N 0.3257 1.00016 0.07615 0.0
C285 C 0.33268 1.01186 0.05049 0.0
C286 C 0.31016 0.96602 0.03334 0.0
C287 C 0.33564 0.3192 0.3861 0.0
C288 C 0.30923 0.34707 0.37646 0.0
C289 C 0.35898 0.29713 0.36936 0.0
C290 C 0.35587 0.30131 0.3424 0.0
H291 H 0.33903 0.3152 0.40674 0.0
H292 H 0.37896 0.276 0.37752 0.0
S293 S 0.2912 0.37015 0.30739 0.0
N294 N 0.28117 0.37735 0.33822 0.0
N295 N 0.32521 0.33613 0.30683 0.0
C296 C 0.3295 0.32893 0.33252 0.0
C297 C 0.30621 0.35182 0.34953 0.0
C298 C 1.04419 0.33366 0.72366 0.0
C299 C 0.98958 0.3034 0.71446 0.0
C300 C 0.08928 0.35407 0.70673 0.0
C301 C 0.08145 0.34424 0.68002 0.0
H302 H 0.0521 0.34178 0.74412 0.0
H303 H 0.13061 0.37657 0.71461 0.0
S304 S 0.94701 0.26917 0.64598 0.0
N305 N 0.93042 0.26569 0.67679 0.0
N306 N 1.01505 0.30452 0.64499 0.0
C307 C 1.02713 0.31489 0.67052 0.0
C308 C 0.98123 0.29444 0.68771 0.0
C309 C 0.71677 0.99499 0.03855 0.0
C310 C 0.74775 0.97181 0.0482 0.0
C311 C 0.74155 0.04334 1.0238 0.0
C312 C 0.79814 0.07002 1.01788 0.0
H313 H 0.67307 0.9758 0.04257 0.0
H314 H 0.71601 0.05932 1.0165 0.0
S315 S 0.89771 1.02667 0.03875 0.0
N316 N 0.83809 0.97938 0.05075 0.0
N317 N 0.88476 0.07066 1.02348 0.0
C318 C 0.82967 0.04759 0.02761 0.0
C319 C 0.80449 0.99848 0.04268 0.0
C320 C 0.73629 0.77863 0.36583 0.0
C321 C 0.73484 0.76924 0.33909 0.0
C322 C 0.76025 0.75761 0.38299 0.0
C323 C 0.78276 0.72565 0.37407 0.0
H324 H 0.7198 0.80334 0.37343 0.0
H325 H 0.7608 0.76605 0.40342 0.0
S326 S 0.78702 0.68741 0.30587 0.0
N327 N 0.75606 0.72432 0.30459 0.0
N328 N 0.80157 0.68544 0.33665 0.0
C329 C 0.78069 0.71528 0.34739 0.0
C330 C 0.75668 0.73696 0.32996 0.0
C331 C 1.04328 0.74506 0.66055 0.0
C332 C 0.98962 0.72255 0.67062 0.0
C333 C 0.08966 0.7693 0.67676 0.0
C334 C 0.08404 0.77289 0.70354 0.0
H335 H 0.04935 0.74327 0.64 0.0
H336 H 0.13029 0.78615 0.66831 0.0
S337 S 0.95274 0.71961 0.73955 0.0
N338 N 0.93355 0.70477 0.70905 0.0
N339 N 1.02082 0.75084 0.73953 0.0
C340 C 1.03069 0.75049 0.71387 0.0
C341 C 0.98343 0.72508 0.69741 0.0
C342 C 0.68262 0.22675 0.02592 0.0
C343 C 0.72147 0.28098 1.01896 0.0
C344 C 0.63664 0.21511 0.04112 0.0
C345 C 0.62707 0.25708 0.04971 0.0
H346 H 0.68807 0.19289 1.01989 0.0
H347 H 0.60815 0.17269 0.046 0.0
S348 S 0.71561 0.40601 0.03641 0.0
N349 N 0.74699 0.37716 1.02167 0.0
N350 N 0.66021 0.35523 0.04994 0.0
C351 C 0.66525 0.3115 0.04268 0.0
C352 C 0.71252 0.32344 0.02743 0.0
C353 C 0.41416 0.60914 0.36198 0.0
C354 C 0.37251 0.6225 0.36628 0.0
C355 C 0.45961 0.64175 0.34622 0.0
C356 C 0.46569 0.68944 0.33431 0.0
H357 H 0.41169 0.57298 0.37078 0.0
H358 H 0.49065 0.62983 0.34374 0.0
S359 S 0.36774 0.74219 0.33876 0.0
N360 N 0.33985 0.68635 0.35683 0.0
N361 N 0.42544 0.74786 0.32738 0.0
C362 C 0.42417 0.70316 0.33824 0.0
C363 C 0.37757 0.66964 0.35414 0.0
C364 C 0.87274 0.4359 0.70723 0.0
C365 C 0.82257 0.3899 0.71459 0.0
C366 C 0.87469 0.47217 0.68813 0.0
C367 C 0.82645 0.46458 0.67581 0.0
H368 H 0.9112 0.44367 0.71599 0.0
H369 H 0.91449 0.50685 0.68321 0.0
S370 S 0.68423 0.35103 0.68826 0.0
N371 N 0.7232 0.33871 0.70809 0.0
N372 N 0.72675 0.40766 0.67248 0.0
C373 C 0.77579 0.41908 0.68314 0.0
C374 C 0.7739 0.38154 0.7024 0.0
C375 C 0.36732 0.73424 1.01543 0.0
C376 C 0.38658 0.78688 1.00489 0.0
C377 C 0.40026 0.72323 0.03213 0.0
C378 C 0.45364 0.76454 0.03922 0.0
H379 H 0.32671 0.70089 1.01046 0.0
H380 H 0.38371 0.68183 0.03941 0.0
S381 S 0.52256 0.91025 1.01796 0.0
N382 N 0.46191 0.88134 1.00344 0.0
N383 N 0.52359 0.86094 0.03486 0.0
C384 C 0.47299 0.81774 0.02921 0.0
C385 C 0.43959 0.82881 1.01204 0.0
C386 C 0.62661 0.36681 0.36648 0.0
C387 C 0.62868 0.38508 0.34091 0.0
C388 C 0.66412 0.40102 0.3853 0.0
C389 C 0.70577 0.45461 0.37924 0.0
H390 H 0.59525 0.32592 0.37218 0.0
H391 H 0.66052 0.38516 0.40473 0.0
S392 S 0.72955 0.52239 0.31509 0.0
N393 N 0.67609 0.46051 0.31054 0.0
N394 N 0.74688 0.52451 0.34575 0.0
C395 C 0.70872 0.4733 0.35367 0.0
C396 C 0.67011 0.43866 0.33458 0.0
C397 C 0.23322 0.61921 0.68073 0.0
C398 C 0.27485 0.60827 0.6728 0.0
C399 C 0.24507 0.66409 0.6966 0.0
C400 C 0.29922 0.70046 0.70506 0.0
H401 H 0.19086 0.59273 0.67474 0.0
H402 H 0.21135 0.6706 0.70197 0.0
S403 S 0.4235 0.69031 0.6897 0.0
N404 N 0.37264 0.6375 0.67469 0.0
N405 N 0.39502 0.72214 0.70434 0.0
C406 C 0.34136 0.69001 0.69733 0.0
C407 C 0.32916 0.64389 0.68129 0.0
C408 C 0.54453 0.31047 0.18778 0.0
C409 C 0.52279 0.26985 0.16845 0.0
C410 C 0.53771 0.29653 0.21413 0.0
C411 C 0.50858 0.2414 0.22225 0.0
H412 H 0.56605 0.35353 0.18261 0.0
H413 H 0.55408 0.32939 0.2282 0.0
S414 S 0.44754 0.11907 0.17949 0.0
N415 N 0.4739 0.17175 0.15946 0.0
N416 N 0.46104 0.14582 0.20875 0.0
C417 C 0.48835 0.20033 0.20314 0.0
C418 C 0.49547 0.21446 0.17634 0.0
C419 C 0.21969 0.47826 0.51833 0.0
C420 C 0.26064 0.50419 0.49934 0.0
C421 C 0.23291 0.48445 0.5447 0.0
C422 C 0.28773 0.5168 0.55333 0.0
H423 H 0.17696 0.45198 0.51285 0.0
H424 H 0.19976 0.46255 0.55839 0.0
S425 S 0.41029 0.59651 0.51158 0.0
N426 N 0.35831 0.56591 0.49112 0.0
N427 N 0.3831 0.57744 0.54063 0.0
C428 C 0.32897 0.54452 0.5346 0.0
C429 C 0.31547 0.53826 0.50766 0.0
C430 C 0.80179 0.30051 0.87334 0.0
C431 C 0.79791 0.26168 0.89169 0.0
C432 C 0.79479 0.28823 0.84681 0.0
C433 C 0.78332 0.2365 0.83753 0.0
H434 H 0.81142 0.34118 0.8794 0.0
H435 H 0.79925 0.31993 0.83347 0.0
S436 S 0.7653 0.11892 0.87776 0.0
N437 N 0.77923 0.16829 0.89871 0.0
N438 N 0.76593 0.14524 0.84916 0.0
C439 C 0.77782 0.19678 0.85578 0.0
C440 C 0.78516 0.20935 0.88273 0.0
C441 C 0.57868 0.83731 0.17818 0.0
C442 C 0.57143 0.79392 0.16207 0.0
C443 C 0.57908 0.833 0.20515 0.0
C444 C 0.57234 0.78513 0.21727 0.0
H445 H 0.58516 0.87553 0.16995 0.0
H446 H 0.58582 0.86809 0.21655 0.0
S447 S 0.54805 0.65799 0.18399 0.0
N448 N 0.55447 0.70021 0.16033 0.0
N449 N 0.5553 0.69217 0.21096 0.0
C450 C 0.56341 0.74074 0.20143 0.0
C451 C 0.56291 0.7451 0.1739 0.0
C452 C 0.89363 0.58346 0.54046 0.0
C453 C 0.84148 0.56168 0.55217 0.0
C454 C 0.90012 0.59131 0.51371 0.0
C455 C 0.85471 0.5771 0.49737 0.0
H456 H 0.93033 0.59632 0.55207 0.0
H457 H 0.9414 0.6094 0.50584 0.0
S458 S 0.70856 0.5147 0.51786 0.0
N459 N 0.74295 0.52332 0.54507 0.0
N460 N 0.75518 0.53743 0.49463 0.0
C461 C 0.80193 0.55311 0.50858 0.0
C462 C 0.79532 0.54564 0.53599 0.0
C463 C 0.22329 0.77933 0.86194 0.0
C464 C 0.25843 0.77767 0.88099 0.0
C465 C 0.23742 0.78546 0.83578 0.0
C466 C 0.28725 0.78984 0.82729 0.0
H467 H 0.18445 0.7764 0.86719 0.0
H468 H 0.20863 0.78662 0.82209 0.0
S469 S 0.39389 0.78718 0.8692 0.0
N470 N 0.34548 0.78052 0.88951 0.0
N471 N 0.37193 0.79169 0.84013 0.0
C472 C 0.32274 0.78769 0.84603 0.0
C473 C 0.30842 0.78176 0.87288 0.0
C474 C 0.50761 0.54215 0.08097 0.0
C475 C 0.55712 0.57431 0.06746 0.0
C476 C 0.48619 0.48564 0.08442 0.0
C477 C 0.51352 0.45888 0.07465 0.0
H478 H 0.48448 0.56055 0.08844 0.0
H479 H 0.44783 0.46268 0.09486 0.0
S480 S 0.64592 0.52488 0.03874 0.0
N481 N 0.63427 0.57569 0.04524 0.0
N482 N 0.59331 0.46927 0.05108 0.0
C483 C 0.56362 0.4907 0.06148 0.0
C484 C 0.58548 0.54837 0.05798 0.0
C485 C 0.04464 0.56574 0.37913 0.0
C486 C 1.02242 0.57178 0.4024 0.0
C487 C 0.07907 0.54276 0.37877 0.0
C488 C 0.09351 0.52608 0.40172 0.0
H489 H 1.03449 0.57802 0.36102 0.0
H490 H 0.095 0.53844 0.36042 0.0
S491 S 0.04743 0.53443 0.46776 0.0
N492 N 1.01764 0.55983 0.44898 0.0
N493 N 0.08339 0.51751 0.44835 0.0
C494 C 0.07228 0.53263 0.42517 0.0
C495 C 1.03635 0.55513 0.42548 0.0
C496 C 0.56185 0.0826 0.73645 0.0
C497 C 0.59844 0.06363 0.7427 0.0
C498 C 0.50498 0.04619 0.7341 0.0
C499 C 0.48232 0.98945 0.73819 0.0
H500 H 0.57749 0.12572 0.73259 0.0
H501 H 0.47847 0.06254 0.72884 0.0
S502 S 0.56008 0.91932 0.75648 0.0
N503 N 0.60767 0.98473 0.75429 0.0
N504 N 0.50097 0.91627 0.74947 0.0
C505 C 0.51827 0.97012 0.74518 0.0
C506 C 0.57625 1.00719 0.74746 0.0
C507 C 0.56077 0.49632 0.64703 0.0
C508 C 0.59522 0.54965 0.6376 0.0
C509 C 0.50315 0.4725 0.64643 0.0
C510 C 0.47779 0.50096 0.6362 0.0
H511 H 0.5786 0.47323 0.65529 0.0
H512 H 0.47823 0.43162 0.65426 0.0
S513 S 0.54998 0.63959 0.60646 0.0
N514 N 0.60013 0.62896 0.61626 0.0
N515 N 0.49201 0.58402 0.61466 0.0
C516 C 0.51192 0.55399 0.62622 0.0
C517 C 0.57057 0.57833 0.62702 0.0
C518 C 0.08 0.55281 0.99108 0.0
C519 C 0.06951 0.58229 0.97218 0.0
C520 C 0.04663 0.49574 0.99325 0.0
C521 C 1.00196 0.46559 0.97627 0.0
H522 H 0.1139 0.57428 1.00449 0.0
H523 H 0.05586 0.47518 1.00852 0.0
S524 S 0.96057 0.52417 0.92196 0.0
N525 N 1.01303 0.57794 0.93564 0.0
N526 N 0.95141 0.47038 0.93886 0.0
C527 C 0.99161 0.49488 0.95699 0.0
C528 C 1.02516 0.55324 0.95514 0.0
C529 C 0.60001 0.05651 0.3163 0.0
C530 C 0.56739 0.99906 0.31476 0.0
C531 C 0.57605 0.09005 0.31634 0.0
C532 C 0.51846 0.06745 0.31506 0.0
H533 H 0.64449 0.07572 0.31728 0.0
H534 H 0.60283 0.134 0.31785 0.0
S535 S 0.4145 0.91934 0.31081 0.0
N536 N 0.47425 0.92096 0.31238 0.0
N537 N 0.42947 0.98401 0.31158 0.0
C538 C 0.48534 1.01007 0.31338 0.0
C539 C 0.50973 0.9759 0.3134 0.0
loop_
_geom_bond_atom_site_label_1
_geom_bond_atom_site_label_2
_geom_bond_distance
_geom_bond_site_symmetry_2
_ccdc_geom_bond_type
Cu0 N1 1.999 . S
Cu0 O6 1.974 . S
Cu0 N11 1.985 . S
Cu0 O20 1.959 . S
N1 Cu0 1.999 . S
N1 C3 1.263 . S
N1 C5 1.389 . S
N2 C3 1.358 . S
N2 C4 1.400 . S
C3 N1 1.263 . S
C3 N2 1.358 . S
C3 H9 0.930 . S
C4 N2 1.400 . S
C4 C5 1.351 . S
C4 H21 0.930 . S
C5 N1 1.389 . S
C5 C4 1.351 . S
C5 H10 0.930 . S
O6 Cu0 1.974 . S
O6 C16 1.282 . S
C7 O8 1.261 . S
C7 O20 1.251 . S
O8 C7 1.261 . S
H9 C3 0.930 . S
H10 C5 0.930 . S
N11 Cu0 1.985 . S
N11 C13 1.335 . S
N11 C14 1.390 . S
N12 C13 1.345 . S
N12 C15 1.336 . S
C13 N11 1.335 . S
C13 N12 1.345 . S
C13 H18 0.930 . S
C14 N11 1.390 . S
C14 C15 1.346 . S
C14 H19 0.930 . S
C15 N12 1.336 . S
C15 C14 1.346 . S
C15 H22 0.929 . S
C16 O6 1.282 . S
C16 O17 1.216 . S
O17 C16 1.216 . S
H18 C13 0.930 . S
H19 C14 0.930 . S
O20 Cu0 1.959 . S
O20 C7 1.251 . S
H21 C4 0.930 . S
H22 C15 0.929 . S
Cu23 N24 1.999 . S
Cu23 O29 1.974 . S
Cu23 N34 1.985 . S
Cu23 O43 1.959 . S
N24 Cu23 1.999 . S
N24 C26 1.263 . S
N24 C28 1.389 . S
N25 C26 1.358 . S
N25 C27 1.400 . S
C26 N24 1.263 . S
C26 N25 1.358 . S
C26 H32 0.930 . S
C27 N25 1.400 . S
C27 C28 1.351 . S
C27 H44 0.930 . S
C28 N24 1.389 . S
C28 C27 1.351 . S
C28 H33 0.930 . S
O29 Cu23 1.974 . S
O29 C39 1.282 . S
C30 O31 1.261 . S
C30 O43 1.251 . S
O31 C30 1.261 . S
H32 C26 0.930 . S
H33 C28 0.930 . S
N34 Cu23 1.985 . S
N34 C36 1.335 . S
N34 C37 1.390 . S
N35 C36 1.345 . S
N35 C38 1.336 . S
C36 N34 1.335 . S
C36 N35 1.345 . S
C36 H41 0.930 . S
C37 N34 1.390 . S
C37 C38 1.346 . S
C37 H42 0.930 . S
C38 N35 1.336 . S
C38 C37 1.346 . S
C38 H45 0.929 . S
C39 O29 1.282 . S
C39 O40 1.216 . S
O40 C39 1.216 . S
H41 C36 0.930 . S
H42 C37 0.930 . S
O43 Cu23 1.959 . S
O43 C30 1.251 . S
H44 C27 0.930 . S
H45 C38 0.929 . S
Cu46 N47 1.999 . S
Cu46 O52 1.974 . S
Cu46 N57 1.985 . S
Cu46 O66 1.959 . S
N47 Cu46 1.999 . S
N47 C49 1.263 . S
N47 C51 1.389 . S
N48 C49 1.358 . S
N48 C50 1.400 . S
C49 N47 1.263 . S
C49 N48 1.358 . S
C49 H55 0.930 . S
C50 N48 1.400 . S
C50 C51 1.351 . S
C50 H67 0.930 . S
C51 N47 1.389 . S
C51 C50 1.351 . S
C51 H56 0.930 . S
O52 Cu46 1.974 . S
O52 C62 1.282 . S
C53 O54 1.261 . S
C53 O66 1.251 . S
O54 C53 1.261 . S
H55 C49 0.930 . S
H56 C51 0.930 . S
N57 Cu46 1.985 . S
N57 C59 1.335 . S
N57 C60 1.390 . S
N58 C59 1.345 . S
N58 C61 1.336 . S
C59 N57 1.335 . S
C59 N58 1.345 . S
C59 H64 0.930 . S
C60 N57 1.390 . S
C60 C61 1.346 . S
C60 H65 0.930 . S
C61 N58 1.336 . S
C61 C60 1.346 . S
C61 H68 0.929 . S
C62 O52 1.282 . S
C62 O63 1.216 . S
O63 C62 1.216 . S
H64 C59 0.930 . S
H65 C60 0.930 . S
O66 Cu46 1.959 . S
O66 C53 1.251 . S
H67 C50 0.930 . S
H68 C61 0.929 . S
Cu69 N70 1.999 . S
Cu69 O75 1.974 . S
Cu69 N80 1.985 . S
Cu69 O89 1.959 . S
N70 Cu69 1.999 . S
N70 C72 1.263 . S
N70 C74 1.389 . S
N71 C72 1.358 . S
N71 C73 1.400 . S
C72 N70 1.263 . S
C72 N71 1.358 . S
C72 H78 0.930 . S
C73 N71 1.400 . S
C73 C74 1.351 . S
C73 H90 0.930 . S
C74 N70 1.389 . S
C74 C73 1.351 . S
C74 H79 0.930 . S
O75 Cu69 1.974 . S
O75 C85 1.282 . S
C76 O77 1.261 . S
C76 O89 1.251 . S
O77 C76 1.261 . S
H78 C72 0.930 . S
H79 C74 0.930 . S
N80 Cu69 1.985 . S
N80 C82 1.335 . S
N80 C83 1.390 . S
N81 C82 1.345 . S
N81 C84 1.336 . S
C82 N80 1.335 . S
C82 N81 1.345 . S
C82 H87 0.930 . S
C83 N80 1.390 . S
C83 C84 1.346 . S
C83 H88 0.930 . S
C84 N81 1.336 . S
C84 C83 1.346 . S
C84 H91 0.929 . S
C85 O75 1.282 . S
C85 O86 1.216 . S
O86 C85 1.216 . S
H87 C82 0.930 . S
H88 C83 0.930 . S
O89 Cu69 1.959 . S
O89 C76 1.251 . S
H90 C73 0.930 . S
H91 C84 0.929 . S
Cu92 N93 1.999 . S
Cu92 O98 1.974 . S
Cu92 N103 1.985 . S
Cu92 O112 1.959 . S
N93 Cu92 1.999 . S
N93 C95 1.263 . S
N93 C97 1.389 . S
N94 C95 1.358 . S
N94 C96 1.400 . S
C95 N93 1.263 . S
C95 N94 1.358 . S
C95 H101 0.930 . S
C96 N94 1.400 . S
C96 C97 1.351 . S
C96 H113 0.930 . S
C97 N93 1.389 . S
C97 C96 1.351 . S
C97 H102 0.930 . S
O98 Cu92 1.974 . S
O98 C108 1.282 . S
C99 O100 1.261 . S
C99 O112 1.251 . S
O100 C99 1.261 . S
H101 C95 0.930 . S
H102 C97 0.930 . S
N103 Cu92 1.985 . S
N103 C105 1.335 . S
N103 C106 1.390 . S
N104 C105 1.345 . S
N104 C107 1.336 . S
C105 N103 1.335 . S
C105 N104 1.345 . S
C105 H110 0.930 . S
C106 N103 1.390 . S
C106 C107 1.346 . S
C106 H111 0.930 . S
C107 N104 1.336 . S
C107 C106 1.346 . S
C107 H114 0.929 . S
C108 O98 1.282 . S
C108 O109 1.216 . S
O109 C108 1.216 . S
H110 C105 0.930 . S
H111 C106 0.930 . S
O112 Cu92 1.959 . S
O112 C99 1.251 . S
H113 C96 0.930 . S
H114 C107 0.929 . S
Cu115 N116 1.999 . S
Cu115 O121 1.974 . S
Cu115 N126 1.985 . S
Cu115 O135 1.959 . S
N116 Cu115 1.999 . S
N116 C118 1.263 . S
N116 C120 1.389 . S
N117 C118 1.358 . S
N117 C119 1.400 . S
C118 N116 1.263 . S
C118 N117 1.358 . S
C118 H124 0.930 . S
C119 N117 1.400 . S
C119 C120 1.351 . S
C119 H136 0.930 . S
C120 N116 1.389 . S
C120 C119 1.351 . S
C120 H125 0.930 . S
O121 Cu115 1.974 . S
O121 C131 1.282 . S
C122 O123 1.261 . S
C122 O135 1.251 . S
O123 C122 1.261 . S
H124 C118 0.930 . S
H125 C120 0.930 . S
N126 Cu115 1.985 . S
N126 C128 1.335 . S
N126 C129 1.390 . S
N127 C128 1.345 . S
N127 C130 1.336 . S
C128 N126 1.335 . S
C128 N127 1.345 . S
C128 H133 0.930 . S
C129 N126 1.390 . S
C129 C130 1.346 . S
C129 H134 0.930 . S
C130 N127 1.336 . S
C130 C129 1.346 . S
C130 H137 0.929 . S
C131 O121 1.282 . S
C131 O132 1.216 . S
O132 C131 1.216 . S
H133 C128 0.930 . S
H134 C129 0.930 . S
O135 Cu115 1.959 . S
O135 C122 1.251 . S
H136 C119 0.930 . S
H137 C130 0.929 . S
Cu138 N139 1.999 . S
Cu138 O144 1.974 . S
Cu138 N149 1.985 . S
Cu138 O158 1.959 . S
N139 Cu138 1.999 . S
N139 C141 1.263 . S
N139 C143 1.389 . S
N140 C141 1.358 . S
N140 C142 1.400 . S
C141 N139 1.263 . S
C141 N140 1.358 . S
C141 H147 0.930 . S
C142 N140 1.400 . S
C142 C143 1.351 . S
C142 H159 0.930 . S
C143 N139 1.389 . S
C143 C142 1.351 . S
C143 H148 0.930 . S
O144 Cu138 1.974 . S
O144 C154 1.282 . S
C145 O146 1.261 . S
C145 O158 1.251 . S
O146 C145 1.261 . S
H147 C141 0.930 . S
H148 C143 0.930 . S
N149 Cu138 1.985 . S
N149 C151 1.335 . S
N149 C152 1.390 . S
N150 C151 1.345 . S
N150 C153 1.336 . S
C151 N149 1.335 . S
C151 N150 1.345 . S
C151 H156 0.930 . S
C152 N149 1.390 . S
C152 C153 1.346 . S
C152 H157 0.930 . S
C153 N150 1.336 . S
C153 C152 1.346 . S
C153 H160 0.929 . S
C154 O144 1.282 . S
C154 O155 1.216 . S
O155 C154 1.216 . S
H156 C151 0.930 . S
H157 C152 0.930 . S
O158 Cu138 1.959 . S
O158 C145 1.251 . S
H159 C142 0.930 . S
H160 C153 0.929 . S
Cu161 N162 1.999 . S
Cu161 O167 1.974 . S
Cu161 N172 1.985 . S
Cu161 O181 1.959 . S
N162 Cu161 1.999 . S
N162 C164 1.263 . S
N162 C166 1.389 . S
N163 C164 1.358 . S
N163 C165 1.400 . S
C164 N162 1.263 . S
C164 N163 1.358 . S
C164 H170 0.930 . S
C165 N163 1.400 . S
C165 C166 1.351 . S
C165 H182 0.930 . S
C166 N162 1.389 . S
C166 C165 1.351 . S
C166 H171 0.930 . S
O167 Cu161 1.974 . S
O167 C177 1.282 . S
C168 O169 1.261 . S
C168 O181 1.251 . S
O169 C168 1.261 . S
H170 C164 0.930 . S
H171 C166 0.930 . S
N172 Cu161 1.985 . S
N172 C174 1.335 . S
N172 C175 1.390 . S
N173 C174 1.345 . S
N173 C176 1.336 . S
C174 N172 1.335 . S
C174 N173 1.345 . S
C174 H179 0.930 . S
C175 N172 1.390 . S
C175 C176 1.346 . S
C175 H180 0.930 . S
C176 N173 1.336 . S
C176 C175 1.346 . S
C176 H183 0.929 . S
C177 O167 1.282 . S
C177 O178 1.216 . S
O178 C177 1.216 . S
H179 C174 0.930 . S
H180 C175 0.930 . S
O181 Cu161 1.959 . S
O181 C168 1.251 . S
H182 C165 0.930 . S
H183 C176 0.929 . S
Cu184 N185 1.999 . S
Cu184 O190 1.974 . S
Cu184 N195 1.985 . S
Cu184 O204 1.959 . S
N185 Cu184 1.999 . S
N185 C187 1.263 . S
N185 C189 1.389 . S
N186 C187 1.358 . S
N186 C188 1.400 . S
C187 N185 1.263 . S
C187 N186 1.358 . S
C187 H193 0.930 . S
C188 N186 1.400 . S
C188 C189 1.351 . S
C188 H205 0.930 . S
C189 N185 1.389 . S
C189 C188 1.351 . S
C189 H194 0.930 . S
O190 Cu184 1.974 . S
O190 C200 1.282 . S
C191 O192 1.261 . S
C191 O204 1.251 . S
O192 C191 1.261 . S
H193 C187 0.930 . S
H194 C189 0.930 . S
N195 Cu184 1.985 . S
N195 C197 1.335 . S
N195 C198 1.390 . S
N196 C197 1.345 . S
N196 C199 1.336 . S
C197 N195 1.335 . S
C197 N196 1.345 . S
C197 H202 0.930 . S
C198 N195 1.390 . S
C198 C199 1.346 . S
C198 H203 0.930 . S
C199 N196 1.336 . S
C199 C198 1.346 . S
C199 H206 0.929 . S
C200 O190 1.282 . S
C200 O201 1.216 . S
O201 C200 1.216 . S
H202 C197 0.930 . S
H203 C198 0.930 . S
O204 Cu184 1.959 . S
O204 C191 1.251 . S
H205 C188 0.930 . S
H206 C199 0.929 . S
Cu207 N208 1.999 . S
Cu207 O213 1.974 . S
Cu207 N218 1.985 . S
Cu207 O227 1.959 . S
N208 Cu207 1.999 . S
N208 C210 1.263 . S
N208 C212 1.389 . S
N209 C210 1.358 . S
N209 C211 1.400 . S
C210 N208 1.263 . S
C210 N209 1.358 . S
C210 H216 0.930 . S
C211 N209 1.400 . S
C211 C212 1.351 . S
C211 H228 0.930 . S
C212 N208 1.389 . S
C212 C211 1.351 . S
C212 H217 0.930 . S
O213 Cu207 1.974 . S
O213 C223 1.282 . S
C214 O215 1.261 . S
C214 O227 1.251 . S
O215 C214 1.261 . S
H216 C210 0.930 . S
H217 C212 0.930 . S
N218 Cu207 1.985 . S
N218 C220 1.335 . S
N218 C221 1.390 . S
N219 C220 1.345 . S
N219 C222 1.336 . S
C220 N218 1.335 . S
C220 N219 1.345 . S
C220 H225 0.930 . S
C221 N218 1.390 . S
C221 C222 1.346 . S
C221 H226 0.930 . S
C222 N219 1.336 . S
C222 C221 1.346 . S
C222 H229 0.929 . S
C223 O213 1.282 . S
C223 O224 1.216 . S
O224 C223 1.216 . S
H225 C220 0.930 . S
H226 C221 0.930 . S
O227 Cu207 1.959 . S
O227 C214 1.251 . S
H228 C211 0.930 . S
H229 C222 0.929 . S
Cu230 N231 1.999 . S
Cu230 O236 1.974 . S
Cu230 N241 1.985 . S
Cu230 O250 1.959 . S
N231 Cu230 1.999 . S
N231 C233 1.263 . S
N231 C235 1.389 . S
N232 C233 1.358 . S
N232 C234 1.400 . S
C233 N231 1.263 . S
C233 N232 1.358 . S
C233 H239 0.930 . S
C234 N232 1.400 . S
C234 C235 1.351 . S
C234 H251 0.930 . S
C235 N231 1.389 . S
C235 C234 1.351 . S
C235 H240 0.930 . S
O236 Cu230 1.974 . S
O236 C246 1.282 . S
C237 O238 1.261 . S
C237 O250 1.251 . S
O238 C237 1.261 . S
H239 C233 0.930 . S
H240 C235 0.930 . S
N241 Cu230 1.985 . S
N241 C243 1.335 . S
N241 C244 1.390 . S
N242 C243 1.345 . S
N242 C245 1.336 . S
C243 N241 1.335 . S
C243 N242 1.345 . S
C243 H248 0.930 . S
C244 N241 1.390 . S
C244 C245 1.346 . S
C244 H249 0.930 . S
C245 N242 1.336 . S
C245 C244 1.346 . S
C245 H252 0.929 . S
C246 O236 1.282 . S
C246 O247 1.216 . S
O247 C246 1.216 . S
H248 C243 0.930 . S
H249 C244 0.930 . S
O250 Cu230 1.959 . S
O250 C237 1.251 . S
H251 C234 0.930 . S
H252 C245 0.929 . S
Cu253 N254 1.999 . S
Cu253 O259 1.974 . S
Cu253 N264 1.985 . S
Cu253 O273 1.959 . S
N254 Cu253 1.999 . S
N254 C256 1.263 . S
N254 C258 1.389 . S
N255 C256 1.358 . S
N255 C257 1.400 . S
C256 N254 1.263 . S
C256 N255 1.358 . S
C256 H262 0.930 . S
C257 N255 1.400 . S
C257 C258 1.351 . S
C257 H274 0.930 . S
C258 N254 1.389 . S
C258 C257 1.351 . S
C258 H263 0.930 . S
O259 Cu253 1.974 . S
O259 C269 1.282 . S
C260 O261 1.261 . S
C260 O273 1.251 . S
O261 C260 1.261 . S
H262 C256 0.930 . S
H263 C258 0.930 . S
N264 Cu253 1.985 . S
N264 C266 1.335 . S
N264 C267 1.390 . S
N265 C266 1.345 . S
N265 C268 1.336 . S
C266 N264 1.335 . S
C266 N265 1.345 . S
C266 H271 0.930 . S
C267 N264 1.390 . S
C267 C268 1.346 . S
C267 H272 0.930 . S
C268 N265 1.336 . S
C268 C267 1.346 . S
C268 H275 0.929 . S
C269 O259 1.282 . S
C269 O270 1.216 . S
O270 C269 1.216 . S
H271 C266 0.930 . S
H272 C267 0.930 . S
O273 Cu253 1.959 . S
O273 C260 1.251 . S
H274 C257 0.930 . S
H275 C268 0.929 . S
C276 C277 1.369 1_545 S
C276 C278 1.446 . S
C276 H280 0.930 . S
C277 C276 1.369 1_565 S
C277 C286 1.429 1_556 S
C278 C276 1.446 . S
C278 C279 1.333 1_556 S
C278 H281 0.933 . S
C279 C278 1.333 1_554 S
C279 C285 1.428 1_545 S
H280 C276 0.930 . S
H281 C278 0.933 . S
S282 N283 1.613 . S
S282 N284 1.610 . S
N283 S282 1.613 . S
N283 C286 1.350 . S
N284 S282 1.610 . S
N284 C285 1.351 . S
C285 C279 1.428 1_565 S
C285 N284 1.351 . S
C285 C286 1.434 . S
C286 C277 1.429 1_554 S
C286 N283 1.350 . S
C286 C285 1.434 . S
C287 C288 1.369 . S
C287 C289 1.419 . S
C287 H291 0.930 . S
C288 C287 1.369 . S
C288 C297 1.429 . S
C289 C287 1.419 . S
C289 C290 1.363 . S
C289 H292 0.929 . S
C290 C289 1.363 . S
C290 C296 1.428 . S
H291 C287 0.930 . S
H292 C289 0.929 . S
S293 N294 1.613 . S
S293 N295 1.610 . S
N294 S293 1.613 . S
N294 C297 1.350 . S
N295 S293 1.610 . S
N295 C296 1.351 . S
C296 C290 1.428 . S
C296 N295 1.351 . S
C296 C297 1.434 . S
C297 C288 1.429 . S
C297 N294 1.350 . S
C297 C296 1.434 . S
C298 C299 1.369 1_455 S
C298 C300 1.419 . S
C298 H302 0.930 . S
C299 C298 1.369 1_655 S
C299 C308 1.429 . S
C300 C298 1.419 . S
C300 C301 1.363 . S
C300 H303 0.929 . S
C301 C300 1.363 . S
C301 C307 1.428 1_455 S
H302 C298 0.930 . S
H303 C300 0.929 . S
S304 N305 1.613 . S
S304 N306 1.610 . S
N305 S304 1.613 . S
N305 C308 1.350 . S
N306 S304 1.610 . S
N306 C307 1.351 . S
C307 C301 1.428 1_655 S
C307 N306 1.351 . S
C307 C308 1.434 . S
C308 C299 1.429 . S
C308 N305 1.350 . S
C308 C307 1.434 . S
C309 C310 1.369 . S
C309 C311 1.419 1_564 S
C309 H313 0.930 . S
C310 C309 1.369 . S
C310 C319 1.429 . S
C311 C309 1.419 1_546 S
C311 C312 1.363 . S
C311 H314 0.929 . S
C312 C311 1.363 . S
C312 C318 1.428 . S
H313 C309 0.930 . S
H314 C311 0.929 . S
S315 N316 1.613 1_556 S
S315 N317 1.610 1_565 S
N316 S315 1.613 1_554 S
N316 C319 1.350 . S
N317 S315 1.610 1_545 S
N317 C318 1.351 . S
C318 C312 1.428 . S
C318 N317 1.351 . S
C318 C319 1.434 1_546 S
C319 C310 1.429 . S
C319 N316 1.350 . S
C319 C318 1.434 1_564 S
C320 C321 1.369 . S
C320 C322 1.419 . S
C320 H324 0.930 . S
C321 C320 1.369 . S
C321 C330 1.429 . S
C322 C320 1.419 . S
C322 C323 1.363 . S
C322 H325 0.929 . S
C323 C322 1.363 . S
C323 C329 1.428 . S
H324 C320 0.930 . S
H325 C322 0.929 . S
S326 N327 1.613 . S
S326 N328 1.610 . S
N327 S326 1.613 . S
N327 C330 1.350 . S
N328 S326 1.610 . S
N328 C329 1.351 . S
C329 C323 1.428 . S
C329 N328 1.351 . S
C329 C330 1.434 . S
C330 C321 1.429 . S
C330 N327 1.350 . S
C330 C329 1.434 . S
C331 C332 1.369 1_455 S
C331 C333 1.419 . S
C331 H335 0.930 . S
C332 C331 1.369 1_655 S
C332 C341 1.429 . S
C333 C331 1.419 . S
C333 C334 1.363 . S
C333 H336 0.929 . S
C334 C333 1.363 . S
C334 C340 1.428 1_455 S
H335 C331 0.930 . S
H336 C333 0.929 . S
S337 N338 1.613 . S
S337 N339 1.610 . S
N338 S337 1.613 . S
N338 C341 1.350 . S
N339 S337 1.610 . S
N339 C340 1.351 . S
C340 C334 1.428 1_655 S
C340 N339 1.351 . S
C340 C341 1.434 . S
C341 C332 1.429 . S
C341 N338 1.350 . S
C341 C340 1.434 . S
C342 C343 1.369 1_554 S
C342 C344 1.419 . S
C342 H346 0.930 . S
C343 C342 1.369 1_556 S
C343 C352 1.429 . S
C344 C342 1.419 . S
C344 C345 1.363 . S
C344 H347 0.929 . S
C345 C344 1.363 . S
C345 C351 1.428 1_554 S
H346 C342 0.930 . S
H347 C344 0.929 . S
S348 N349 1.613 . S
S348 N350 1.610 . S
N349 S348 1.613 . S
N349 C352 1.350 . S
N350 S348 1.610 . S
N350 C351 1.351 . S
C351 C345 1.428 1_556 S
C351 N350 1.351 . S
C351 C352 1.434 . S
C352 C343 1.429 . S
C352 N349 1.350 . S
C352 C351 1.434 . S
C353 C354 1.369 . S
C353 C355 1.419 . S
C353 H357 0.930 . S
C354 C353 1.369 . S
C354 C363 1.429 . S
C355 C353 1.419 . S
C355 C356 1.363 . S
C355 H358 0.929 . S
C356 C355 1.363 . S
C356 C362 1.428 . S
H357 C353 0.930 . S
H358 C355 0.929 . S
S359 N360 1.613 . S
S359 N361 1.610 . S
N360 S359 1.613 . S
N360 C363 1.350 . S
N361 S359 1.610 . S
N361 C362 1.351 . S
C362 C356 1.428 . S
C362 N361 1.351 . S
C362 C363 1.434 . S
C363 C354 1.429 . S
C363 N360 1.350 . S
C363 C362 1.434 . S
C364 C365 1.369 . S
C364 C366 1.419 . S
C364 H368 0.930 . S
C365 C364 1.369 . S
C365 C374 1.429 . S
C366 C364 1.419 . S
C366 C367 1.363 . S
C366 H369 0.929 . S
C367 C366 1.363 . S
C367 C373 1.428 . S
H368 C364 0.930 . S
H369 C366 0.929 . S
S370 N371 1.613 . S
S370 N372 1.610 . S
N371 S370 1.613 . S
N371 C374 1.350 . S
N372 S370 1.610 . S
N372 C373 1.351 . S
C373 C367 1.428 . S
C373 N372 1.351 . S
C373 C374 1.434 . S
C374 C365 1.429 . S
C374 N371 1.350 . S
C374 C373 1.434 . S
C375 C376 1.369 1_554 S
C375 C377 1.419 . S
C375 H379 0.930 . S
C376 C375 1.369 1_556 S
C376 C385 1.429 . S
C377 C375 1.419 . S
C377 C378 1.363 . S
C377 H380 0.929 . S
C378 C377 1.363 . S
C378 C384 1.428 1_554 S
H379 C375 0.930 . S
H380 C377 0.929 . S
S381 N382 1.613 . S
S381 N383 1.610 . S
N382 S381 1.613 . S
N382 C385 1.350 . S
N383 S381 1.610 . S
N383 C384 1.351 . S
C384 C378 1.428 1_556 S
C384 N383 1.351 . S
C384 C385 1.434 . S
C385 C376 1.429 . S
C385 N382 1.350 . S
C385 C384 1.434 . S
C386 C387 1.369 . S
C386 C388 1.419 . S
C386 H390 0.930 . S
C387 C386 1.369 . S
C387 C396 1.429 . S
C388 C386 1.419 . S
C388 C389 1.363 . S
C388 H391 0.929 . S
C389 C388 1.363 . S
C389 C395 1.428 . S
H390 C386 0.930 . S
H391 C388 0.929 . S
S392 N393 1.613 . S
S392 N394 1.610 . S
N393 S392 1.613 . S
N393 C396 1.350 . S
N394 S392 1.610 . S
N394 C395 1.351 . S
C395 C389 1.428 . S
C395 N394 1.351 . S
C395 C396 1.434 . S
C396 C387 1.429 . S
C396 N393 1.350 . S
C396 C395 1.434 . S
C397 C398 1.369 . S
C397 C399 1.419 . S
C397 H401 0.930 . S
C398 C397 1.369 . S
C398 C407 1.429 . S
C399 C397 1.419 . S
C399 C400 1.363 . S
C399 H402 0.929 . S
C400 C399 1.363 . S
C400 C406 1.428 . S
H401 C397 0.930 . S
H402 C399 0.929 . S
S403 N404 1.613 . S
S403 N405 1.610 . S
N404 S403 1.613 . S
N404 C407 1.350 . S
N405 S403 1.610 . S
N405 C406 1.351 . S
C406 C400 1.428 . S
C406 N405 1.351 . S
C406 C407 1.434 . S
C407 C398 1.429 . S
C407 N404 1.350 . S
C407 C406 1.434 . S
C408 C409 1.369 . S
C408 C410 1.419 . S
C408 H412 0.930 . S
C409 C408 1.369 . S
C409 C418 1.429 . S
C410 C408 1.419 . S
C410 C411 1.363 . S
C410 H413 0.929 . S
C411 C410 1.363 . S
C411 C417 1.428 . S
H412 C408 0.930 . S
H413 C410 0.929 . S
S414 N415 1.613 . S
S414 N416 1.610 . S
N415 S414 1.613 . S
N415 C418 1.350 . S
N416 S414 1.610 . S
N416 C417 1.351 . S
C417 C411 1.428 . S
C417 N416 1.351 . S
C417 C418 1.434 . S
C418 C409 1.429 . S
C418 N415 1.350 . S
C418 C417 1.434 . S
C419 C420 1.369 . S
C419 C421 1.419 . S
C419 H423 0.930 . S
C420 C419 1.369 . S
C420 C429 1.429 . S
C421 C419 1.419 . S
C421 C422 1.363 . S
C421 H424 0.929 . S
C422 C421 1.363 . S
C422 C428 1.428 . S
H423 C419 0.930 . S
H424 C421 0.929 . S
S425 N426 1.613 . S
S425 N427 1.610 . S
N426 S425 1.613 . S
N426 C429 1.350 . S
N427 S425 1.610 . S
N427 C428 1.351 . S
C428 C422 1.428 . S
C428 N427 1.351 . S
C428 C429 1.434 . S
C429 C420 1.429 . S
C429 N426 1.350 . S
C429 C428 1.434 . S
C430 C431 1.369 . S
C430 C432 1.419 . S
C430 H434 0.930 . S
C431 C430 1.369 . S
C431 C440 1.429 . S
C432 C430 1.419 . S
C432 C433 1.363 . S
C432 H435 0.929 . S
C433 C432 1.363 . S
C433 C439 1.428 . S
H434 C430 0.930 . S
H435 C432 0.929 . S
S436 N437 1.613 . S
S436 N438 1.610 . S
N437 S436 1.613 . S
N437 C440 1.350 . S
N438 S436 1.610 . S
N438 C439 1.351 . S
C439 C433 1.428 . S
C439 N438 1.351 . S
C439 C440 1.434 . S
C440 C431 1.429 . S
C440 N437 1.350 . S
C440 C439 1.434 . S
C441 C442 1.369 . S
C441 C443 1.419 . S
C441 H445 0.930 . S
C442 C441 1.369 . S
C442 C451 1.429 . S
C443 C441 1.419 . S
C443 C444 1.363 . S
C443 H446 0.929 . S
C444 C443 1.363 . S
C444 C450 1.428 . S
H445 C441 0.930 . S
H446 C443 0.929 . S
S447 N448 1.613 . S
S447 N449 1.610 . S
N448 S447 1.613 . S
N448 C451 1.350 . S
N449 S447 1.610 . S
N449 C450 1.351 . S
C450 C444 1.428 . S
C450 N449 1.351 . S
C450 C451 1.434 . S
C451 C442 1.429 . S
C451 N448 1.350 . S
C451 C450 1.434 . S
C452 C453 1.369 . S
C452 C454 1.419 . S
C452 H456 0.930 . S
C453 C452 1.369 . S
C453 C462 1.429 . S
C454 C452 1.419 . S
C454 C455 1.363 . S
C454 H457 0.929 . S
C455 C454 1.363 . S
C455 C461 1.428 . S
H456 C452 0.930 . S
H457 C454 0.929 . S
S458 N459 1.613 . S
S458 N460 1.610 . S
N459 S458 1.613 . S
N459 C462 1.350 . S
N460 S458 1.610 . S
N460 C461 1.351 . S
C461 C455 1.428 . S
C461 N460 1.351 . S
C461 C462 1.434 . S
C462 C453 1.429 . S
C462 N459 1.350 . S
C462 C461 1.434 . S
C463 C464 1.369 . S
C463 C465 1.419 . S
C463 H467 0.930 . S
C464 C463 1.369 . S
C464 C473 1.429 . S
C465 C463 1.419 . S
C465 C466 1.363 . S
C465 H468 0.929 . S
C466 C465 1.363 . S
C466 C472 1.428 . S
H467 C463 0.930 . S
H468 C465 0.929 . S
S469 N470 1.613 . S
S469 N471 1.610 . S
N470 S469 1.613 . S
N470 C473 1.350 . S
N471 S469 1.610 . S
N471 C472 1.351 . S
C472 C466 1.428 . S
C472 N471 1.351 . S
C472 C473 1.434 . S
C473 C464 1.429 . S
C473 N470 1.350 . S
C473 C472 1.434 . S
C474 C475 1.369 . S
C474 C476 1.419 . S
C474 H478 0.930 . S
C475 C474 1.369 . S
C475 C484 1.429 . S
C476 C474 1.419 . S
C476 C477 1.363 . S
C476 H479 0.929 . S
C477 C476 1.363 . S
C477 C483 1.428 . S
H478 C474 0.930 . S
H479 C476 0.929 . S
S480 N481 1.613 . S
S480 N482 1.610 . S
N481 S480 1.613 . S
N481 C484 1.350 . S
N482 S480 1.610 . S
N482 C483 1.351 . S
C483 C477 1.428 . S
C483 N482 1.351 . S
C483 C484 1.434 . S
C484 C475 1.429 . S
C484 N481 1.350 . S
C484 C483 1.434 . S
C485 C486 1.369 . S
C485 C487 1.419 1_655 S
C485 H489 0.930 . S
C486 C485 1.369 . S
C486 C495 1.429 . S
C487 C485 1.419 1_455 S
C487 C488 1.363 . S
C487 H490 0.929 . S
C488 C487 1.363 . S
C488 C494 1.428 . S
H489 C485 0.930 . S
H490 C487 0.929 . S
S491 N492 1.613 1_455 S
S491 N493 1.610 . S
N492 S491 1.613 1_655 S
N492 C495 1.350 . S
N493 S491 1.610 . S
N493 C494 1.351 . S
C494 C488 1.428 . S
C494 N493 1.351 . S
C494 C495 1.434 1_455 S
C495 C486 1.429 . S
C495 N492 1.350 . S
C495 C494 1.434 1_655 S
C496 C497 1.369 . S
C496 C498 1.419 1_545 S
C496 H500 0.930 . S
C497 C496 1.369 . S
C497 C506 1.429 . S
C498 C496 1.419 1_565 S
C498 C499 1.363 . S
C498 H501 0.929 . S
C499 C498 1.363 . S
C499 C505 1.428 . S
H500 C496 0.930 . S
H501 C498 0.929 . S
S502 N503 1.613 1_565 S
S502 N504 1.610 . S
N503 S502 1.613 1_545 S
N503 C506 1.350 . S
N504 S502 1.610 . S
N504 C505 1.351 . S
C505 C499 1.428 . S
C505 N504 1.351 . S
C505 C506 1.434 1_565 S
C506 C497 1.429 . S
C506 N503 1.350 . S
C506 C505 1.434 1_545 S
C507 C508 1.369 . S
C507 C509 1.419 . S
C507 H511 0.930 . S
C508 C507 1.369 . S
C508 C517 1.429 . S
C509 C507 1.419 . S
C509 C510 1.363 . S
C509 H512 0.929 . S
C510 C509 1.363 . S
C510 C516 1.428 . S
H511 C507 0.930 . S
H512 C509 0.929 . S
S513 N514 1.613 . S
S513 N515 1.610 . S
N514 S513 1.613 . S
N514 C517 1.350 . S
N515 S513 1.610 . S
N515 C516 1.351 . S
C516 C510 1.428 . S
C516 N515 1.351 . S
C516 C517 1.434 . S
C517 C508 1.429 . S
C517 N514 1.350 . S
C517 C516 1.434 . S
C518 C519 1.369 . S
C518 C520 1.419 1_455 S
C518 H522 0.930 . S
C519 C518 1.369 . S
C519 C528 1.429 . S
C520 C518 1.419 1_655 S
C520 C521 1.363 . S
C520 H523 0.929 . S
C521 C520 1.363 . S
C521 C527 1.428 . S
H522 C518 0.930 . S
H523 C520 0.929 . S
S524 N525 1.613 . S
S524 N526 1.610 1_455 S
N525 S524 1.613 . S
N525 C528 1.350 . S
N526 S524 1.610 1_655 S
N526 C527 1.351 . S
C527 C521 1.428 . S
C527 N526 1.351 . S
C527 C528 1.434 1_655 S
C528 C519 1.429 . S
C528 N525 1.350 . S
C528 C527 1.434 1_455 S
C529 C530 1.369 . S
C529 C531 1.419 1_565 S
C529 H533 0.930 . S
C530 C529 1.369 . S
C530 C539 1.429 . S
C531 C529 1.419 1_545 S
C531 C532 1.363 . S
C531 H534 0.929 . S
C532 C531 1.363 . S
C532 C538 1.428 . S
H533 C529 0.930 . S
H534 C531 0.929 . S
S535 N536 1.613 . S
S535 N537 1.610 1_565 S
N536 S535 1.613 . S
N536 C539 1.350 . S
N537 S535 1.610 1_545 S
N537 C538 1.351 . S
C538 C532 1.428 . S
C538 N537 1.351 . S
C538 C539 1.434 1_545 S
C539 C530 1.429 . S
C539 N536 1.350 . S
C539 C538 1.434 1_565 S
C277 N163 1.835 . S
C279 N2 1.840 . S
C288 N35 1.917 . S
C290 N186 1.801 . S
C299 N48 1.799 . S
C301 N219 1.920 . S
C310 N71 1.835 . S
C312 N232 1.834 . S
C321 N255 1.806 . S
C323 N104 1.919 . S
C332 N150 1.916 . S
C334 N117 1.801 . S
C343 C246 1.649 . S
C345 C16 1.661 . S
C354 C30 1.749 . S
C356 C269 1.670 . S
C365 C62 1.674 . S
C367 C145 1.744 . S
C376 C177 1.649 . S
C378 C85 1.661 . S
C387 C200 1.667 . S
C389 C99 1.749 . S
C398 C214 1.751 . S
C400 C131 1.669 . S
C409 C7 1.807 . S
C411 C191 1.808 . S
C420 C39 1.774 . S
C422 C223 1.781 . S
C431 C237 1.807 . S
C433 C53 1.808 . S
C442 C76 1.805 . S
C444 C260 1.807 . S
C453 C154 1.776 . S
C455 C108 1.774 . S
C464 C168 1.800 . S
C466 C122 1.812 . S
C475 N81 1.950 . S
C477 N12 1.952 . S
C486 N94 1.867 . S
C488 N25 1.869 . S
C497 N58 1.961 . S
C499 N127 1.963 . S
C508 N140 1.863 . S
C510 N209 1.869 . S
C519 N173 1.951 . S
C521 N242 1.951 . S
C530 N265 1.965 . S
C532 N196 1.964 . S
