# Generated by pormake.
# Topology wkj, (6)-cn, num edge types: 1
# Building blocks:
#     Node 0, Type 0, BuildingBlock: NUHQIS_clean_sbu_0, # of connection points: 6
#     Node 1, Type 0, BuildingBlock: NUHQIS_clean_sbu_0, # of connection points: 6
#     Node 2, Type 0, BuildingBlock: NUHQIS_clean_sbu_0, # of connection points: 6
#     Node 3, Type 0, BuildingBlock: NUHQIS_clean_sbu_0, # of connection points: 6
#     Node 4, Type 0, BuildingBlock: NUHQIS_clean_sbu_0, # of connection points: 6
#     Node 5, Type 0, BuildingBlock: NUHQIS_clean_sbu_0, # of connection points: 6
#     Node 6, Type 0, BuildingBlock: NUHQIS_clean_sbu_0, # of connection points: 6
#     Node 7, Type 0, BuildingBlock: NUHQIS_clean_sbu_0, # of connection points: 6
#     Node 8, Type 0, BuildingBlock: NUHQIS_clean_sbu_0, # of connection points: 6
#     Node 9, Type 0, BuildingBlock: NUHQIS_clean_sbu_0, # of connection points: 6
#     Node 10, Type 0, BuildingBlock: NUHQIS_clean_sbu_0, # of connection points: 6
#     Node 11, Type 0, BuildingBlock: NUHQIS_clean_sbu_0, # of connection points: 6
#     Edge 12, Type (0, 0), BuildingBlock: OJICUG_clean_linker_0, # of connection points: 2
#     Edge 13, Type (0, 0), BuildingBlock: OJICUG_clean_linker_0, # of connection points: 2
#     Edge 14, Type (0, 0), BuildingBlock: OJICUG_clean_linker_0, # of connection points: 2
#     Edge 15, Type (0, 0), BuildingBlock: OJICUG_clean_linker_0, # of connection points: 2
#     Edge 16, Type (0, 0), BuildingBlock: OJICUG_clean_linker_0, # of connection points: 2
#     Edge 17, Type (0, 0), BuildingBlock: OJICUG_clean_linker_0, # of connection points: 2
#     Edge 18, Type (0, 0), BuildingBlock: OJICUG_clean_linker_0, # of connection points: 2
#     Edge 19, Type (0, 0), BuildingBlock: OJICUG_clean_linker_0, # of connection points: 2
#     Edge 20, Type (0, 0), BuildingBlock: OJICUG_clean_linker_0, # of connection points: 2
#     Edge 21, Type (0, 0), BuildingBlock: OJICUG_clean_linker_0, # of connection points: 2
#     Edge 22, Type (0, 0), BuildingBlock: OJICUG_clean_linker_0, # of connection points: 2
#     Edge 23, Type (0, 0), BuildingBlock: OJICUG_clean_linker_0, # of connection points: 2
#     Edge 24, Type (0, 0), BuildingBlock: OJICUG_clean_linker_0, # of connection points: 2
#     Edge 25, Type (0, 0), BuildingBlock: OJICUG_clean_linker_0, # of connection points: 2
#     Edge 26, Type (0, 0), BuildingBlock: OJICUG_clean_linker_0, # of connection points: 2
#     Edge 27, Type (0, 0), BuildingBlock: OJICUG_clean_linker_0, # of connection points: 2
#     Edge 28, Type (0, 0), BuildingBlock: OJICUG_clean_linker_0, # of connection points: 2
#     Edge 29, Type (0, 0), BuildingBlock: OJICUG_clean_linker_0, # of connection points: 2
#     Edge 30, Type (0, 0), BuildingBlock: OJICUG_clean_linker_0, # of connection points: 2
#     Edge 31, Type (0, 0), BuildingBlock: OJICUG_clean_linker_0, # of connection points: 2
#     Edge 32, Type (0, 0), BuildingBlock: OJICUG_clean_linker_0, # of connection points: 2
#     Edge 33, Type (0, 0), BuildingBlock: OJICUG_clean_linker_0, # of connection points: 2
#     Edge 34, Type (0, 0), BuildingBlock: OJICUG_clean_linker_0, # of connection points: 2
#     Edge 35, Type (0, 0), BuildingBlock: OJICUG_clean_linker_0, # of connection points: 2
#     Edge 36, Type (0, 0), BuildingBlock: OJICUG_clean_linker_0, # of connection points: 2
#     Edge 37, Type (0, 0), BuildingBlock: OJICUG_clean_linker_0, # of connection points: 2
#     Edge 38, Type (0, 0), BuildingBlock: OJICUG_clean_linker_0, # of connection points: 2
#     Edge 39, Type (0, 0), BuildingBlock: OJICUG_clean_linker_0, # of connection points: 2
#     Edge 40, Type (0, 0), BuildingBlock: OJICUG_clean_linker_0, # of connection points: 2
#     Edge 41, Type (0, 0), BuildingBlock: OJICUG_clean_linker_0, # of connection points: 2
#     Edge 42, Type (0, 0), BuildingBlock: OJICUG_clean_linker_0, # of connection points: 2
#     Edge 43, Type (0, 0), BuildingBlock: OJICUG_clean_linker_0, # of connection points: 2
#     Edge 44, Type (0, 0), BuildingBlock: OJICUG_clean_linker_0, # of connection points: 2
#     Edge 45, Type (0, 0), BuildingBlock: OJICUG_clean_linker_0, # of connection points: 2
#     Edge 46, Type (0, 0), BuildingBlock: OJICUG_clean_linker_0, # of connection points: 2
#     Edge 47, Type (0, 0), BuildingBlock: OJICUG_clean_linker_0, # of connection points: 2
# Relax obj value: 1.095
# Max RMSD: 0.177
# Mean RMSD: 0.177
data_MOF--net-wkj--node1-NUHQIS_clean_sbu_0--edge1-OJICUG_clean_linker_0
_symmetry_space_group_name_H-M    P1
_symmetry_Int_Tables_number       1
_symmetry_cell_setting            triclinic
loop_
_symmetry_equiv_pos_as_xyz
'x, y, z'
_cell_length_a     37.697494
_cell_length_b     38.009898
_cell_length_c     22.879044
_cell_angle_alpha  89.718446
_cell_angle_beta   90.083624
_cell_angle_gamma 119.55551
loop_
_atom_site_label
_atom_site_type_symbol
_atom_site_fract_x
_atom_site_fract_y
_atom_site_fract_z
_atom_type_partial_charge
Tb0 Tb 0.44189 0.06822 0.42252 0.0
Eu1 Eu 0.53181 0.0972 0.38862 0.0
C2 C 0.49077 0.15609 0.36284 0.0
C3 C 0.45938 0.04013 0.2863 0.0
C4 C 0.33373 0.0164 0.48034 0.0
C5 C 0.26302 -0.00998 0.50826 0.0
C6 C 0.29464 0.01038 0.46817 0.0
C7 C 0.34091 0.00049 0.53124 0.0
C8 C 0.30931 -0.02025 0.57083 0.0
C9 C 0.27045 0.97505 0.55997 0.0
C10 C 0.36679 0.04042 0.44019 0.0
O11 O 0.46336 0.03217 0.46258 0.0
O12 O 0.50227 0.03002 0.3926 0.0
O13 O 0.53499 0.09278 0.49407 0.0
O14 O 0.47135 0.08126 0.51785 0.0
C15 C 0.47132 0.01084 0.42751 0.0
O16 O 0.58363 0.09992 0.34137 0.0
O17 O 0.59433 0.14006 0.41387 0.0
O18 O 0.52255 0.15056 0.3574 0.0
O19 O 0.458 0.12845 0.38938 0.0
O20 O 0.43397 0.03797 0.32995 0.0
O21 O 0.49942 0.06437 0.2979 0.0
C22 C 0.50875 0.08828 0.53724 0.0
O23 O 0.395 0.07561 0.45896 0.0
O24 O 0.38198 0.02113 0.41219 0.0
C25 C 0.62728 0.16963 0.32773 0.0
C26 C 0.64791 0.24347 0.27217 0.0
C27 C 0.6109 0.20837 0.26015 0.0
C28 C 0.60134 0.17191 0.28598 0.0
C29 C 0.66439 0.2046 0.34097 0.0
C30 C 0.67525 0.24131 0.31192 0.0
C31 C 0.60929 0.13407 0.36614 0.0
H32 H 0.23339 -0.01294 0.4999 0.0
H33 H 0.28893 0.02253 0.42854 0.0
H34 H 0.37107 0.00516 0.54103 0.0
H35 H 0.31565 0.96906 0.61138 0.0
H36 H 0.58881 0.20902 0.2306 0.0
H37 H 0.57205 0.1459 0.27585 0.0
H38 H 0.68414 0.20375 0.3747 0.0
H39 H 0.70414 0.26795 0.3214 0.0
Tb40 Tb 0.34831 0.43199 0.77173 0.0
Eu41 Eu 0.39548 0.5192 0.73142 0.0
C42 C 0.29395 0.46815 0.73569 0.0
C43 C 0.38638 0.44413 0.63441 0.0
C44 C 0.2979 0.3252 0.83598 0.0
C45 C 0.25934 0.2525 0.84734 0.0
C46 C 0.27952 0.28641 0.81152 0.0
C47 C 0.29846 0.33044 0.8962 0.0
C48 C 0.2782 0.29677 0.93181 0.0
C49 C 0.25725 0.25776 0.9073 0.0
C50 C 0.30989 0.35905 0.7973 0.0
O51 O 0.40637 0.46351 0.81045 0.0
O52 O 0.441 0.49696 0.73423 0.0
O53 O 0.41187 0.53357 0.83414 0.0
O54 O 0.36633 0.4684 0.86296 0.0
C55 C 0.43584 0.4716 0.77599 0.0
O56 O 0.43759 0.56642 0.67019 0.0
O57 O 0.39193 0.5744 0.71351 0.0
O58 O 0.32732 0.50269 0.74654 0.0
O59 O 0.29795 0.43631 0.7323 0.0
O60 O 0.36712 0.41948 0.67989 0.0
O61 O 0.39749 0.48288 0.64533 0.0
C62 C 0.3938 0.50769 0.87957 0.0
O63 O 0.29736 0.38465 0.81048 0.0
O64 O 0.34635 0.37593 0.77437 0.0
C65 C 0.38733 0.56956 0.61169 0.0
C66 C 0.29487 0.49215 0.53131 0.0
C67 C 0.34816 0.49412 0.52186 0.0
C68 C 0.39162 0.53232 0.56437 0.0
C69 C 0.3393 0.5712 0.61711 0.0
C70 C 0.29262 0.53493 0.57857 0.0
C71 C 0.41273 0.58085 0.6655 0.0
H72 H 0.24456 0.22256 0.82838 0.0
H73 H 0.27923 0.28248 0.76459 0.0
H74 H 0.31284 0.36042 0.91521 0.0
H75 H 0.27827 0.3012 0.97857 0.0
H76 H 0.35043 0.4702 0.49974 0.0
H77 H 0.4198 0.53149 0.56481 0.0
H78 H 0.33725 0.59131 0.6485 0.0
H79 H 0.26401 0.53407 0.58687 0.0
Tb80 Tb 0.89834 0.35901 1.08615 0.0
Eu81 Eu 0.84492 0.39083 1.05434 0.0
C82 C 0.80844 0.29941 1.04978 0.0
C83 C 0.9237 0.40088 0.95462 0.0
C84 C 0.94246 0.30088 1.16107 0.0
C85 C 0.93515 0.23796 0.20032 0.0
C86 C 0.93445 0.26093 1.15285 0.0
C87 C 0.95299 0.31832 0.21657 0.0
C88 C 0.95411 0.29565 0.26356 0.0
C89 C 0.94442 0.25519 0.25596 0.0
C90 C 0.9372 0.32268 1.11197 0.0
O91 O 0.92951 0.42466 1.08078 0.0
O92 O 0.88479 0.44471 1.10511 0.0
O93 O 0.84487 0.4026 1.15814 0.0
O94 O 0.87644 0.36655 0.18165 0.0
C95 C 0.91987 0.44702 1.11348 0.0
O96 O 0.81629 0.41732 1.0 0.0
O97 O 0.77898 0.36529 1.05482 0.0
O98 O 0.8056 0.32579 1.08145 0.0
O99 O 0.84601 0.31105 1.03363 0.0
O100 O 0.93369 0.38485 0.99971 0.0
O101 O 0.88934 0.40361 0.96563 0.0
C102 C 0.85873 0.38838 0.2015 0.0
O103 O 0.90074 0.30527 1.08963 0.0
O104 O 0.95231 0.36166 1.11657 0.0
C105 C 0.76112 0.36002 0.95724 0.0
C106 C 0.75002 0.36669 0.84202 0.0
C107 C 0.7774 0.35307 0.85888 0.0
C108 C 0.78636 0.35453 0.91799 0.0
C109 C 0.72114 0.34817 0.93884 0.0
C110 C 0.71462 0.34878 0.87793 0.0
C111 C 0.7801 0.38554 1.00854 0.0
H112 H 0.92765 0.20683 0.19393 0.0
H113 H 0.92644 0.24717 1.10999 0.0
H114 H 0.95925 0.34898 0.22409 0.0
H115 H 0.96128 0.30929 0.30657 0.0
H116 H 0.79685 0.34907 0.82815 0.0
H117 H 0.81445 0.35587 0.93186 0.0
H118 H 0.69875 0.34735 0.96925 0.0
H119 H 0.68752 0.34944 0.86387 0.0
Tb120 Tb 0.51353 0.9053 0.4289 0.0
Eu121 Eu 0.43275 0.84349 0.39568 0.0
C122 C 0.49948 0.81527 0.38608 0.0
C123 C 0.49883 0.92356 0.29412 0.0
C124 C 0.61318 0.969 0.49495 0.0
C125 C 0.67575 0.96778 0.5166 0.0
C126 C 0.65079 0.97332 0.47668 0.0
C127 C 0.60235 0.96245 0.55405 0.0
C128 C 0.62692 0.95675 0.59333 0.0
C129 C 0.66281 0.95764 0.57454 0.0
C130 C 0.58257 0.96368 0.45152 0.0
O131 O 0.46097 0.91117 0.39951 0.0
O132 O 0.41375 0.87247 0.4645 0.0
O133 O 0.43055 0.84235 0.50384 0.0
O134 O 0.49169 0.89585 0.5252 0.0
C135 C 0.42184 0.88886 0.41391 0.0
O136 O 0.37769 0.82092 0.34066 0.0
O137 O 0.3804 0.7854 0.41309 0.0
O138 O 0.46129 0.80502 0.38002 0.0
O139 O 0.52491 0.85215 0.40768 0.0
O140 O 0.52159 0.93738 0.34176 0.0
O141 O 0.46403 0.88669 0.30321 0.0
C142 C 0.45561 0.86727 0.54607 0.0
O143 O 0.5761 0.9361 0.41261 0.0
O144 O 0.54852 0.96067 0.47123 0.0
C145 C 0.34151 0.7495 0.33585 0.0
C146 C 0.31189 0.67371 0.28304 0.0
C147 C 0.28684 0.68075 0.32109 0.0
C148 C 0.30175 0.71846 0.34778 0.0
C149 C 0.36688 0.74237 0.29947 0.0
C150 C 0.35236 0.70494 0.27345 0.0
C151 C 0.3591 0.7866 0.36931 0.0
H152 H 0.70402 0.96982 0.50201 0.0
H153 H 0.65965 -0.02135 0.43105 0.0
H154 H 0.57381 0.95934 0.56964 0.0
H155 H 0.61713 0.95032 0.6384 0.0
H156 H 0.25551 0.65757 0.32868 0.0
H157 H 0.28239 0.72338 0.37773 0.0
H158 H 0.39805 0.7658 0.29138 0.0
H159 H 0.37253 0.70147 0.24332 0.0
Tb160 Tb 0.58313 0.50081 0.75945 0.0
Eu161 Eu 0.58737 0.44864 0.74266 0.0
C162 C 0.66619 0.50822 0.71664 0.0
C163 C 0.55502 0.49966 0.63445 0.0
C164 C 0.62168 0.60263 0.83902 0.0
C165 C 0.6566 0.67526 0.8524 0.0
C166 C 0.6346 0.64161 0.81716 0.0
C167 C 0.63055 0.59708 0.89639 0.0
C168 C 0.65245 0.63072 0.9318 0.0
C169 C 0.66615 0.67013 0.90977 0.0
C170 C 0.60486 0.56969 0.79765 0.0
O171 O 0.52026 0.44982 0.74698 0.0
O172 O 0.53095 0.39915 0.7738 0.0
O173 O 0.58085 0.4646 0.84525 0.0
O174 O 0.58091 0.46465 0.84506 0.0
C175 C 0.50597 0.41062 0.75845 0.0
O176 O 0.56788 0.38356 0.73784 0.0
O177 O 0.63013 0.42716 0.72039 0.0
O178 O 0.65429 0.48638 0.76335 0.0
O179 O 0.63532 0.51166 0.6959 0.0
O180 O 0.55465 0.51597 0.68435 0.0
O181 O 0.56826 0.47216 0.64513 0.0
C182 C 0.54711 0.44353 0.87908 0.0
O183 O 0.63013 0.5584 0.77774 0.0
O184 O 0.56719 0.54005 0.80268 0.0
C185 C 0.59432 0.38334 0.64685 0.0
C186 C 0.57685 0.3773 0.52776 0.0
C187 C 0.57024 0.40335 0.56364 0.0
C188 C 0.57085 0.39844 0.62247 0.0
C189 C 0.61574 0.37104 0.60944 0.0
C190 C 0.60649 0.36746 0.54892 0.0
C191 C 0.60086 0.39109 0.70918 0.0
H192 H 0.66606 0.70517 0.83505 0.0
H193 H 0.6284 0.64607 0.77225 0.0
H194 H 0.62107 0.56704 0.91331 0.0
H195 H 0.65798 0.62585 0.97682 0.0
H196 H 0.55518 0.41983 0.55096 0.0
H197 H 0.55273 0.40668 0.64939 0.0
H198 H 0.63658 0.36177 0.62686 0.0
H199 H 0.61621 0.35055 0.52172 0.0
Tb200 Tb 0.05403 0.60492 1.08975 0.0
Eu201 Eu 0.10042 0.56513 1.05243 0.0
C202 C 0.14915 0.66469 1.06417 0.0
C203 C 0.02561 0.56267 0.95829 0.0
C204 C 0.01388 0.66681 1.15345 0.0
C205 C -0.00119 0.72008 1.17639 0.0
C206 C -0.0045 0.68988 1.13872 0.0
C207 C 0.03792 0.6757 0.20352 0.0
C208 C 0.04103 0.70546 0.24119 0.0
C209 C 0.02033 0.72712 0.2292 0.0
C210 C 0.00932 0.63459 1.11531 0.0
O211 O 0.02001 0.5389 1.09271 0.0
O212 O 0.06315 0.51629 1.11396 0.0
O213 O 0.10835 0.56001 1.15588 0.0
O214 O 0.07802 0.59725 0.18221 0.0
C215 C 0.03009 0.5171 1.12685 0.0
O216 O 0.10566 0.52623 0.98608 0.0
O217 O 0.15967 0.57037 1.03111 0.0
O218 O 0.15133 0.63129 1.0656 0.0
O219 O 0.11279 0.66121 1.06932 0.0
O220 O 0.02781 0.59077 0.9953 0.0
O221 O 0.048 0.546 0.97658 0.0
C222 C 0.09621 0.57542 0.19969 0.0
O223 O 0.03465 0.64675 1.07177 0.0
O224 O 0.00685 0.60275 1.14061 0.0
C225 C 0.15473 0.58148 0.93214 0.0
C226 C 0.16139 0.67334 0.85964 0.0
C227 C 0.1133 0.61912 0.84639 0.0
C228 C 0.11183 0.57583 0.885 0.0
C229 C 0.20152 0.63091 0.94108 0.0
C230 C 0.20769 0.67729 0.90616 0.0
C231 C 0.14435 0.55279 0.98131 0.0
H232 H -0.01759 0.73605 1.16623 0.0
H233 H -0.02236 0.6837 1.0991 0.0
H234 H 0.05301 0.65857 0.21468 0.0
H235 H 0.05704 0.70898 0.28197 0.0
H236 H 0.08657 0.61589 0.82417 0.0
H237 H 0.0839 0.54708 0.88356 0.0
H238 H 0.22465 0.63332 0.97141 0.0
H239 H 0.23386 0.70631 0.91535 0.0
Tb240 Tb 0.89134 0.52056 0.57945 0.0
Eu241 Eu 0.84726 0.4337 0.62212 0.0
C242 C 0.80196 0.49014 0.6177 0.0
C243 C 0.91612 0.50759 0.71847 0.0
C244 C 0.95233 0.62565 0.50996 0.0
C245 C -0.01515 0.69787 0.49336 0.0
C246 C -0.02803 0.66525 0.53165 0.0
C247 C 0.94832 0.61852 0.44999 0.0
C248 C 0.96101 0.65099 0.41182 0.0
C249 C -0.0224 0.69062 0.43356 0.0
C250 C 0.92947 0.59315 0.55061 0.0
O251 O 0.91258 0.4834 0.54305 0.0
O252 O 0.91361 0.4501 0.61893 0.0
O253 O 0.8477 0.41785 0.51869 0.0
O254 O 0.87051 0.48352 0.4884 0.0
C255 C 0.93389 0.47437 0.57634 0.0
O256 O 0.83833 0.38652 0.68655 0.0
O257 O 0.78657 0.38178 0.64149 0.0
O258 O 0.79798 0.45418 0.60808 0.0
O259 O 0.83879 0.52043 0.61884 0.0
O260 O 0.92122 0.53234 0.67286 0.0
O261 O 0.88891 0.46873 0.7074 0.0
C262 C 0.85669 0.44362 0.47235 0.0
O263 O 0.89088 0.56914 0.53853 0.0
O264 O 0.94722 0.57476 0.57493 0.0
C265 C 0.78832 0.39147 0.74302 0.0
C266 C 0.79329 0.48149 0.81792 0.0
C267 C 0.83471 0.46496 0.83453 0.0
C268 C 0.83063 0.42123 0.79487 0.0
C269 C 0.74672 0.40333 0.7312 0.0
C270 C 0.74643 0.44656 0.76689 0.0
C271 C 0.79982 0.37573 0.69096 0.0
H272 H -0.00135 0.72834 0.51039 0.0
H273 H -0.02494 0.67076 0.57833 0.0
H274 H 0.93329 0.58795 0.43307 0.0
H275 H 0.95677 0.6451 0.3653 0.0
H276 H 0.86188 0.48438 0.8592 0.0
H277 H 0.85553 0.41489 0.79759 0.0
H278 H 0.72444 0.38746 0.69741 0.0
H279 H 0.72452 0.45563 0.7539 0.0
Tb280 Tb 0.36882 0.90138 0.92529 0.0
Eu281 Eu 0.39645 0.84491 0.95943 0.0
C282 C 0.30124 0.80985 0.97316 0.0
C283 C 0.40432 0.92364 1.05746 0.0
C284 C 0.3224 0.95546 0.85569 0.0
C285 C 0.26093 0.95768 0.83005 0.0
C286 C 0.29014 0.9621 0.8715 0.0
C287 C 0.32578 0.94535 0.79809 0.0
C288 C 0.29677 0.94074 0.75723 0.0
C289 C 0.26362 0.94593 0.77302 0.0
C290 C 0.3489 0.95359 0.90064 0.0
O291 O 0.42908 0.91181 0.9523 0.0
O292 O 0.44328 0.87655 0.88874 0.0
O293 O 0.39791 0.8432 0.85154 0.0
O294 O 0.38069 0.89077 0.82903 0.0
C295 C 0.44634 0.88923 0.94149 0.0
O296 O 0.42946 0.82528 1.0193 0.0
O297 O 0.39482 0.78786 0.94669 0.0
O298 O 0.33035 0.80135 0.96734 0.0
O299 O 0.30921 0.8472 0.9588 0.0
O300 O 0.39511 0.93673 1.00901 0.0
O301 O 0.40328 0.88714 1.05016 0.0
C302 C 0.39289 0.86528 0.80884 0.0
O303 O 0.32963 0.92468 0.93887 0.0
O304 O 0.38293 0.95568 0.88276 0.0
C305 C 0.39103 0.75432 1.03156 0.0
C306 C 0.33434 0.68202 1.08685 0.0
C307 C 0.36258 0.68204 1.04686 0.0
C308 C 0.39055 0.71799 1.01893 0.0
C309 C 0.36312 0.75441 1.07161 0.0
C310 C 0.3352 0.71876 1.09907 0.0
C311 C 0.41411 0.78981 0.99459 0.0
H312 H 0.23628 0.96305 0.8424 0.0
H313 H 0.28709 0.96973 0.91609 0.0
H314 H 0.3503 0.94006 0.78468 0.0
H315 H 0.30057 0.93347 0.71276 0.0
H316 H 0.3631 0.65439 1.03756 0.0
H317 H 0.41119 0.71732 0.98662 0.0
H318 H 0.36214 0.78191 1.08054 0.0
H319 H 0.31488 0.72034 1.13107 0.0
Tb320 Tb 0.43364 0.34888 0.26284 0.0
Eu321 Eu 0.51926 0.40189 0.29815 0.0
C322 C 0.48193 0.30245 0.2852 0.0
C323 C 0.44409 0.39051 0.39677 0.0
C324 C 0.32828 0.29261 0.19828 0.0
C325 C 0.26193 0.23896 1.1693 0.0
C326 C 0.28894 0.26203 0.21308 0.0
C327 C 0.33958 0.30303 1.14006 0.0
C328 C 0.31276 0.27997 1.09644 0.0
C329 C 0.27475 0.2465 1.11115 0.0
C330 C 0.35916 0.30604 0.24266 0.0
O331 O 0.45349 0.40274 0.21366 0.0
O332 O 0.49821 0.44639 0.27694 0.0
O333 O 0.53416 0.41749 0.19654 0.0
O334 O 0.46934 0.36826 1.17079 0.0
C335 C 0.46745 0.43624 0.24141 0.0
O336 O 0.55993 0.44134 0.36775 0.0
O337 O 0.57666 0.40293 0.32153 0.0
O338 O 0.51402 0.33874 0.28103 0.0
O339 O 0.44632 0.30023 0.28609 0.0
O340 O 0.41998 0.36304 0.35737 0.0
O341 O 0.48304 0.41024 0.37946 0.0
C342 C 0.50796 0.39729 1.15269 0.0
O343 O 0.38586 0.29397 0.23544 0.0
O344 O 0.37559 0.34364 0.25929 0.0
C345 C 0.55828 0.38683 0.42081 0.0
C346 C 0.47383 0.29006 0.48336 0.0
C347 C 0.47665 0.3425 0.5008 0.0
C348 C 0.51838 0.38837 0.46671 0.0
C349 C 0.55872 0.33909 0.40837 0.0
C350 C 0.51903 0.29036 0.43809 0.0
C351 C 0.57543 0.41747 0.37256 0.0
H352 H 0.23222 0.21402 0.1808 0.0
H353 H 0.28025 0.25406 0.25842 0.0
H354 H 0.37002 0.32675 1.12858 0.0
H355 H 0.3224 0.28704 1.05126 0.0
H356 H 0.45187 0.34361 0.52273 0.0
H357 H 0.51805 0.41653 0.47095 0.0
H358 H 0.58068 0.33901 0.37808 0.0
H359 H 0.51774 0.26239 0.42564 0.0
Tb360 Tb 0.06589 0.46377 0.5862 0.0
Eu361 Eu 0.11858 0.52129 0.6114 0.0
C362 C 0.14645 0.46435 0.63125 0.0
C363 C 0.03588 0.45978 0.71375 0.0
C364 C 0.00029 0.36204 0.51179 0.0
C365 C -0.00516 0.29571 0.50693 0.0
C366 C 0.0143 0.33535 0.52826 0.0
C367 C 0.96442 0.34757 0.4792 0.0
C368 C 0.9451 0.30825 0.45794 0.0
C369 C 0.96147 0.28255 0.46864 0.0
C370 C 0.02532 0.40604 0.51822 0.0
O371 O 0.04786 0.51042 0.59988 0.0
O372 O 0.10635 0.56794 0.58221 0.0
O373 O 0.10223 0.51721 0.50806 0.0
O374 O 0.09795 0.51187 0.51083 0.0
C375 C 0.06849 0.55053 0.59296 0.0
O376 O 0.15549 0.58561 0.635 0.0
O377 O 0.18417 0.54955 0.62265 0.0
O378 O 0.15677 0.49241 0.59264 0.0
O379 O 0.10745 0.44962 0.64555 0.0
O380 O 0.02259 0.44006 0.66409 0.0
O381 O 0.0742 0.49173 0.70411 0.0
C382 C 0.08226 0.50221 0.45636 0.0
O383 O 0.06458 0.42145 0.52679 0.0
O384 O 0.00967 0.42458 0.54736 0.0
C385 C 0.19103 0.57939 0.71247 0.0
C386 C 0.18628 0.58876 0.83026 0.0
C387 C 0.1548 0.5553 0.80242 0.0
C388 C 0.15474 0.55809 0.74315 0.0
C389 C 0.22781 0.59737 0.74395 0.0
C390 C 0.22537 0.60196 0.80502 0.0
C391 C 0.18608 0.58034 0.64963 0.0
H392 H 0.00802 0.27659 0.5161 0.0
H393 H 0.04185 0.34588 0.55388 0.0
H394 H 0.95325 0.36776 0.46581 0.0
H395 H 0.92003 0.29983 0.4278 0.0
H396 H 0.12596 0.53491 0.8222 0.0
H397 H 0.12654 0.54954 0.72239 0.0
H398 H 0.25694 0.61193 0.72172 0.0
H399 H 0.25256 0.62323 0.82815 0.0
Tb400 Tb 0.60516 0.06462 0.92403 0.0
Eu401 Eu 0.55146 0.10173 0.95891 0.0
C402 C 0.65256 0.15415 0.97505 0.0
C403 C 0.56166 0.04088 1.06251 0.0
C404 C 0.65393 0.00444 0.8694 0.0
C405 C 0.69717 -0.02306 0.84077 0.0
C406 C 0.68617 -0.00295 0.88148 0.0
C407 C 0.63075 -0.01072 0.81878 0.0
C408 C 0.64113 0.96846 0.77885 0.0
C409 C 0.67522 0.96338 0.7887 0.0
C410 C 0.6474 0.03089 0.90777 0.0
O411 O 0.54623 0.03339 0.88676 0.0
O412 O 0.50784 0.03533 0.95718 0.0
O413 O 0.54361 0.09856 0.85294 0.0
O414 O 0.58741 0.07567 0.82836 0.0
C415 C 0.51698 0.01386 0.92284 0.0
O416 O 0.50484 0.10969 1.00452 0.0
O417 O 0.54169 0.15238 0.93776 0.0
O418 O 0.61658 0.15007 0.98819 0.0
O419 O 0.65412 0.12545 0.94595 0.0
O420 O 0.58368 0.03692 1.01863 0.0
O421 O 0.54814 0.06717 1.05038 0.0
C422 C 0.56108 0.08848 0.80935 0.0
O423 O 0.6566 0.06632 0.88656 0.0
O424 O 0.61335 0.01451 0.937 0.0
C425 C 0.53757 0.17929 1.02619 0.0
C426 C 0.59333 0.24612 1.09231 0.0
C427 C 0.58652 0.20708 1.10461 0.0
C428 C 0.55854 0.17414 1.07302 0.0
C429 C 0.54385 0.21828 1.01345 0.0
C430 C 0.5712 0.25163 1.04724 0.0
C431 C 0.51897 0.14626 0.98363 0.0
H432 H 0.72385 0.97382 0.84844 0.0
H433 H 0.70414 0.00872 0.92089 0.0
H434 H 0.6061 -0.00473 0.80885 0.0
H435 H 0.62434 0.95895 0.73827 0.0
H436 H 0.60404 0.20202 1.13768 0.0
H437 H 0.55568 0.14492 1.0828 0.0
H438 H 0.52912 0.22315 0.97605 0.0
H439 H 0.57622 0.28157 1.03686 0.0
Tb440 Tb 0.5062 0.58823 0.26901 0.0
Eu441 Eu 0.45714 0.59739 0.28698 0.0
C442 C 0.51955 0.67785 0.28698 0.0
C443 C 0.50477 0.56157 0.39424 0.0
C444 C 0.59784 0.63068 0.18042 0.0
C445 C 0.66102 0.69344 1.16355 0.0
C446 C 0.63621 0.66096 0.19991 0.0
C447 C 0.58448 0.63324 1.12431 0.0
C448 C 0.60915 0.66545 1.08815 0.0
C449 C 0.64775 0.69594 1.10724 0.0
C450 C 0.57044 0.59925 0.22104 0.0
O451 O 0.45466 0.52815 0.29306 0.0
O452 O 0.4049 0.54003 0.26477 0.0
O453 O 0.46808 0.58581 0.18393 0.0
O454 O 0.46807 0.58562 0.18473 0.0
C455 C 0.41523 0.51492 0.28372 0.0
O456 O 0.39375 0.58444 0.29805 0.0
O457 O 0.44278 0.64425 0.31393 0.0
O458 O 0.49406 0.65911 0.24552 0.0
O459 O 0.52506 0.65019 0.3153 0.0
O460 O 0.5144 0.5537 0.34307 0.0
O461 O 0.48475 0.58314 0.38404 0.0
C462 C 0.44529 0.55159 1.15242 0.0
O463 O 0.56921 0.61286 0.27272 0.0
O464 O 0.53415 0.57321 0.20176 0.0
C465 C 0.39898 0.61423 0.38802 0.0
C466 C 0.38819 0.59542 0.50578 0.0
C467 C 0.41645 0.58977 0.47308 0.0
C468 C 0.41327 0.59056 0.41386 0.0
C469 C 0.38707 0.63655 0.4239 0.0
C470 C 0.38117 0.62667 0.48422 0.0
C471 C 0.40536 0.6185 0.3256 0.0
H472 H 0.69102 0.71584 0.17853 0.0
H473 H 0.6469 0.65955 0.24339 0.0
H474 H 0.55504 0.61042 1.10808 0.0
H475 H 0.59859 0.66525 1.04403 0.0
H476 H 0.43246 0.57471 0.48825 0.0
H477 H 0.4206 0.57151 0.38799 0.0
H478 H 0.3788 0.65775 0.40525 0.0
H479 H 0.36391 0.63678 0.51005 0.0
C480 C 0.45276 0.19404 0.3358 0.0
C481 C 0.49006 0.19363 0.33856 0.0
H482 H 0.42082 0.22632 0.31608 0.0
C483 C 0.52504 0.22927 0.31885 0.0
H484 H 0.42474 0.16767 0.3495 0.0
C485 C 0.52272 0.26405 0.2998 0.0
C486 C 0.48533 0.2645 0.29889 0.0
H487 H 0.55445 0.23079 0.31995 0.0
H488 H 0.55042 0.2911 0.28726 0.0
C489 C 0.45042 0.22818 0.31606 0.0
C490 C 0.25087 0.50083 0.70965 0.0
C491 C 0.25331 0.46569 0.7188 0.0
H492 H 0.21822 0.52818 0.67874 0.0
C493 C 0.21737 0.42856 0.70581 0.0
H494 H 0.27701 0.53011 0.71894 0.0
C495 C 0.18174 0.42724 0.68111 0.0
C496 C 0.18048 0.46302 0.66807 0.0
H497 H 0.21728 0.40032 0.71258 0.0
H498 H 0.15599 0.39825 0.66976 0.0
C499 C 0.21584 0.49944 0.68509 0.0
C500 C 0.76843 0.22706 1.00552 0.0
C501 C 0.76947 0.26201 1.02822 0.0
H502 H 0.73198 0.16651 0.97193 0.0
C503 C 0.73148 0.26107 1.03151 0.0
H504 H 0.7965 0.22597 1.00172 0.0
C505 C 0.69414 0.22683 1.01473 0.0
C506 C 0.6928 0.19153 0.99315 0.0
H507 H 0.73073 0.28748 1.04677 0.0
H508 H 0.6662 0.22818 1.01824 0.0
C509 C 0.73097 0.19264 0.98844 0.0
C510 C 0.54243 0.73888 0.36323 0.0
C511 C 0.52071 0.71673 0.31277 0.0
H512 H 0.55512 0.78742 0.42518 0.0
C513 C 0.49538 0.73045 0.28704 0.0
H514 H 0.56229 0.73021 0.38557 0.0
C515 C 0.49029 0.76211 0.31074 0.0
C516 C 0.51135 0.78429 0.36092 0.0
H517 H 0.47749 0.71537 0.24875 0.0
H518 H 0.46887 0.76905 0.28912 0.0
C519 C 0.53833 0.77223 0.38623 0.0
C520 C 0.74166 0.53599 0.69263 0.0
C521 C 0.70054 0.50862 0.68014 0.0
H522 H 0.80468 0.55414 0.67874 0.0
C523 C 0.69339 0.47713 0.6405 0.0
H524 H 0.74914 0.56085 0.72217 0.0
C525 C 0.72533 0.47031 0.62063 0.0
C526 C 0.76645 0.497 0.63522 0.0
H527 H 0.66273 0.45666 0.62632 0.0
H528 H 0.71774 0.44422 0.59363 0.0
C529 C 0.77377 0.53136 0.66851 0.0
C530 C 0.2237 0.77547 1.00655 0.0
C531 C 0.26104 0.77535 0.99959 0.0
H532 H 0.15985 0.74221 1.03258 0.0
C533 C 0.26078 0.73986 1.02003 0.0
H534 H 0.22179 0.8018 0.99294 0.0
C535 C 0.22563 0.70607 1.04302 0.0
C536 C 0.18782 0.70494 1.04757 0.0
H537 H 0.28791 0.73714 1.01646 0.0
H538 H 0.22794 0.67977 1.05517 0.0
C539 C 0.18789 0.74101 1.03001 0.0
C540 C 0.66265 0.28366 1.13114 0.0
C541 C 0.62344 0.27929 1.12911 0.0
H542 H 0.70479 0.2768 0.18593 0.0
C543 C 0.60879 0.28887 0.17941 0.0
H544 H 0.6749 0.27767 1.09242 0.0
C545 C 0.62735 0.29076 0.23331 0.0
C546 C 0.65777 0.27956 0.23621 0.0
H547 H 0.57916 0.28698 0.17908 0.0
H548 H 0.61156 0.29057 0.2728 0.0
C549 C 0.67993 0.28344 0.18516 0.0
C550 C 0.33002 0.50666 0.61093 0.0
C551 C 0.3502 0.55518 0.52394 0.0
H552 H 0.27609 0.4411 0.6194 0.0
C553 C 0.32324 0.54434 0.46869 0.0
H554 H 0.34501 0.5051 0.65032 0.0
C555 C 0.28491 0.49852 0.47854 0.0
C556 C 0.2669 0.46234 0.52983 0.0
H557 H 0.32721 0.56095 0.42868 0.0
H558 H 0.26528 0.48949 0.43908 0.0
C559 C 0.2888 0.4673 0.59072 0.0
C560 C 0.7576 0.43111 0.88071 0.0
C561 C 0.76884 0.41341 0.82713 0.0
H562 H 0.76905 0.49324 0.90604 0.0
C563 C 0.81013 0.45945 0.74204 0.0
H564 H 0.74069 0.41816 0.92012 0.0
C565 C 0.81927 0.50373 0.75958 0.0
C566 C 0.8041 0.51435 0.81744 0.0
H567 H 0.82251 0.45579 0.70163 0.0
H568 H 0.83885 0.52856 0.7309 0.0
C569 C 0.7768 0.47976 0.8685 0.0
C570 C 0.27163 0.64112 1.14485 0.0
C571 C 0.30922 0.64656 1.12457 0.0
H572 H 0.24043 0.64306 0.22114 0.0
C573 C 0.33001 0.63226 1.15983 0.0
H574 H 0.25332 0.64909 1.11731 0.0
C575 C 0.32121 0.62673 0.21958 0.0
C576 C 0.29437 0.63898 0.24234 0.0
H577 H 0.35796 0.63376 1.14477 0.0
H578 H 0.34293 0.62444 0.24815 0.0
C579 C 0.264 0.63721 0.20486 0.0
C580 C 0.45278 0.28988 0.42253 0.0
C581 C 0.44345 0.26293 0.47958 0.0
H582 H 0.49516 0.35018 0.37347 0.0
C583 C 0.47653 0.27545 0.5348 0.0
H584 H 0.42841 0.28017 0.3907 0.0
C585 C 0.52232 0.31153 0.55224 0.0
C586 C 0.5373 0.34264 0.50171 0.0
H587 H 0.46452 0.25285 0.57076 0.0
H588 H 0.5365 0.31233 0.59368 0.0
C589 C 0.4942 0.33163 0.41029 0.0
C590 C 0.14024 0.67483 0.9206 0.0
C591 C 0.15599 0.69931 0.86155 0.0
H592 H 0.12536 0.61717 0.97383 0.0
C593 C 0.17689 0.68566 0.8077 0.0
H594 H 0.12518 0.68473 0.95152 0.0
C595 C 0.18843 0.65011 0.79363 0.0
C596 C 0.17529 0.62186 0.84752 0.0
H597 H 0.18593 0.70663 0.76962 0.0
H598 H 0.20205 0.64894 0.7529 0.0
C599 C 0.14259 0.63502 0.93643 0.0
C600 C 0.44792 -0.0043 1.11709 0.0
C601 C 0.41819 0.95287 1.1169 0.0
H602 H 0.48405 0.05364 1.16219 0.0
C603 C 0.39874 0.94211 1.17348 0.0
H604 H 0.46223 0.00961 1.07613 0.0
C605 C 0.40904 0.97011 0.22353 0.0
C606 C 0.44297 0.01111 0.22631 0.0
H607 H 0.37336 0.91177 0.17886 0.0
H608 H 0.38903 0.95905 0.26084 0.0
C609 C 0.46041 0.02257 1.16861 0.0
C610 C 0.44074 0.44378 0.47587 0.0
C611 C 0.42763 0.40289 0.45755 0.0
H612 H 0.43995 0.48791 0.53599 0.0
C613 C 0.39868 0.37556 0.50043 0.0
H614 H 0.4611 0.46749 0.44701 0.0
C615 C 0.38605 0.38788 0.55487 0.0
C616 C 0.3995 0.42918 0.57283 0.0
H617 H 0.38577 0.34349 0.49276 0.0
H618 H 0.36486 0.36396 0.58341 0.0
C619 C 0.42748 0.45604 0.52913 0.0
C620 C 0.96368 0.42019 0.77897 0.0
C621 C 0.00786 0.44557 0.77636 0.0
H622 H 0.90534 0.3882 0.82678 0.0
C623 C 0.02251 0.45492 0.8362 0.0
H624 H 0.94787 0.41037 0.73764 0.0
C625 C -0.00319 0.44056 0.89019 0.0
C626 C 0.95244 0.41609 0.89263 0.0
H627 H 0.05509 0.47342 0.84223 0.0
H628 H 0.01262 0.44999 0.93158 0.0
C629 C 0.93791 0.40676 0.83282 0.0
C630 C 0.52454 -0.00503 0.23192 0.0
C631 C 0.51355 0.95259 0.23358 0.0
H632 H 0.54563 0.0529 0.18581 0.0
C633 C 0.52434 0.9427 0.1778 0.0
H634 H 0.52174 0.00815 0.27213 0.0
C635 C 0.54205 0.97091 1.12734 0.0
C636 C 0.54792 0.01158 1.1232 0.0
H637 H 0.52084 0.91283 1.17331 0.0
H638 H 0.5517 0.96014 1.09042 0.0
C639 C 0.53959 0.02219 0.18013 0.0
C640 C 0.52343 0.54036 0.57 0.0
C641 C 0.542 0.51455 0.57189 0.0
H642 H 0.49801 0.57383 0.52305 0.0
C643 C 0.54839 0.50654 0.51211 0.0
H644 H 0.51696 0.54946 0.61158 0.0
C645 C 0.53758 0.52192 0.45872 0.0
C646 C 0.51782 0.54668 0.4568 0.0
H647 H 0.56267 0.48819 0.50569 0.0
H648 H 0.54432 0.51308 0.41713 0.0
C649 C 0.51204 0.55525 0.51659 0.0
C650 C 0.96566 0.50902 0.88308 0.0
C651 C -0.00252 0.54937 0.89685 0.0
H652 H 0.91796 0.4652 0.82556 0.0
C653 C -0.00014 0.57606 0.84957 0.0
H654 H 0.95852 0.48643 0.9165 0.0
C655 C -0.02478 0.56351 0.79487 0.0
C656 C 0.94396 0.52264 0.78048 0.0
H657 H 0.02167 0.60787 0.85429 0.0
H658 H -0.01893 0.58694 0.7631 0.0
C659 C 0.94086 0.49653 0.82884 0.0
C660 C 0.43592 0.96034 0.34951 0.0
C661 C 0.43596 0.97537 0.40568 0.0
H662 H 0.40941 0.90701 0.2972 0.0
C663 C 0.40165 0.95342 0.44216 0.0
H664 H 0.46079 0.97598 0.31946 0.0
C665 C 0.37542 0.913 0.42836 0.0
C666 C 0.39083 0.89696 0.38706 0.0
H667 H 0.39816 0.96524 0.48341 0.0
H668 H 0.3531 0.89362 0.46041 0.0
C669 C 0.40689 0.92051 0.33738 0.0
C670 C 0.44392 0.42513 0.70772 0.0
C671 C 0.43948 0.4363 0.76472 0.0
H672 H 0.45758 0.38595 0.65828 0.0
C673 C 0.43403 0.40982 0.81191 0.0
H674 H 0.44918 0.44464 0.67065 0.0
C675 C 0.44272 0.37871 0.80293 0.0
C676 C 0.46301 0.38091 0.75107 0.0
H677 H 0.42639 0.41495 0.85555 0.0
H678 H 0.44461 0.36206 0.84025 0.0
C679 C 0.44916 0.39154 0.70107 0.0
C680 C 0.96105 0.4411 0.1916 0.0
C681 C 0.93762 0.45842 1.17152 0.0
H682 H 0.0229 0.45532 0.2015 0.0
C683 C 0.94833 0.4973 0.19057 0.0
H684 H 0.95129 0.4096 0.18549 0.0
C685 C -0.01086 0.52204 0.20474 0.0
C686 C 0.0153 0.50748 0.18794 0.0
H687 H 0.92902 0.51051 0.18276 0.0
H688 H 0.00062 0.55381 0.21199 0.0
C689 C 0.00208 0.46727 0.20202 0.0
C690 C 0.02363 0.55935 0.64963 0.0
C691 C 0.04813 0.57406 0.59981 0.0
H692 H -0.02458 0.50242 0.68024 0.0
C693 C 0.02852 0.57164 0.54729 0.0
H694 H 0.03752 0.56737 0.69253 0.0
C695 C -0.00797 0.53607 0.53822 0.0
C696 C -0.02694 0.50942 0.58614 0.0
H697 H 0.04543 0.58985 0.50999 0.0
H698 H -0.02069 0.52912 0.49451 0.0
C699 C -0.01184 0.52215 0.64292 0.0
C700 C 0.49165 0.92478 1.01814 0.0
C701 C 0.4858 0.90021 0.97043 0.0
H702 H 0.49227 -0.01966 1.03234 0.0
C703 C 0.51787 0.91668 0.92998 0.0
H704 H 0.47681 0.9118 1.0593 0.0
C705 C 0.52914 0.95592 0.91222 0.0
C706 C 0.51566 -0.02202 0.94644 0.0
H707 H 0.5227 0.8973 0.90035 0.0
H708 H 0.54419 0.96694 0.8705 0.0
C709 C 0.50099 0.96397 1.00322 0.0
C710 C 0.39792 0.45592 0.33415 0.0
C711 C 0.38511 0.4722 0.28972 0.0
H712 H 0.4516 0.45256 0.3501 0.0
C713 C 0.37839 0.4536 0.23509 0.0
H714 H 0.39673 0.46416 0.37911 0.0
C715 C 0.40642 0.4418 0.21757 0.0
C716 C 0.43547 0.44433 0.25866 0.0
H717 H 0.36023 0.45812 0.20233 0.0
H718 H 0.40748 0.43403 1.17234 0.0
C719 C 0.42922 0.44857 0.31811 0.0
C720 C 0.24062 -0.01871 0.70712 0.0
C721 C 0.23615 0.94424 0.72625 0.0
H722 H 0.25415 0.02031 0.63313 0.0
C723 C 0.22259 0.91206 0.68655 0.0
H724 H 0.25028 0.0063 0.73723 0.0
C725 C 0.226 0.92037 0.62683 0.0
C726 C 0.24091 0.96029 0.60784 0.0
H727 H 0.21814 0.88294 0.70093 0.0
H728 H 0.22403 0.89752 0.59678 0.0
C729 C 0.243 -0.01064 0.64733 0.0
C730 C 0.21634 0.22502 1.04601 0.0
C731 C 0.24928 0.22047 1.06427 0.0
H732 H 0.1895 0.23696 0.97209 0.0
C733 C 0.26732 0.2056 1.02512 0.0
H734 H 0.20169 0.23587 1.076 0.0
C735 C 0.26057 0.20665 0.96557 0.0
C736 C 0.23669 0.22338 0.94698 0.0
H737 H 0.2923 0.20112 1.03917 0.0
H738 H 0.2811 0.20374 0.93536 0.0
C739 C 0.20914 0.22526 0.98638 0.0
C740 C -0.02116 0.24133 0.33549 0.0
C741 C 0.94184 0.23191 0.30857 0.0
H742 H 0.01437 0.2646 0.41249 0.0
C743 C 0.90712 0.21967 0.34349 0.0
H744 H 0.00582 0.24996 0.30918 0.0
C745 C 0.91185 0.22817 0.4032 0.0
C746 C 0.95133 0.24902 0.42708 0.0
H747 H 0.878 0.21144 0.32343 0.0
H748 H 0.88599 0.22553 0.42752 0.0
C749 C -0.01632 0.24996 0.39511 0.0
C750 C 0.66702 0.91535 0.71155 0.0
C751 C 0.69189 0.95253 0.73865 0.0
H752 H 0.6403 0.88699 0.6307 0.0
C753 C 0.72146 -0.01513 0.70546 0.0
H754 H 0.6442 0.89003 0.73661 0.0
C755 C 0.71854 -0.01652 0.64469 0.0
C756 C 0.68631 0.94963 0.61833 0.0
H757 H 0.74122 0.01373 0.72591 0.0
H758 H 0.73582 0.01132 0.62012 0.0
C759 C 0.66492 0.91366 0.65078 0.0
C760 C 0.70867 0.71608 1.04951 0.0
C761 C 0.67665 0.72349 1.06309 0.0
H762 H 0.73027 0.69129 0.98417 0.0
C763 C 0.66048 0.7365 1.01792 0.0
H764 H 0.72379 0.70857 1.08366 0.0
C765 C 0.66328 0.72558 0.96073 0.0
C766 C 0.68451 0.70453 0.95017 0.0
H767 H 0.63743 0.74478 1.02766 0.0
H768 H 0.64281 0.72648 0.92823 0.0
C769 C 0.7121 0.70568 0.99237 0.0
C770 C 0.97081 0.73124 0.2933 0.0
C771 C 0.01209 0.74706 0.27843 0.0
H772 H 0.92654 0.69948 0.35969 0.0
C773 C 0.04137 0.76344 0.32321 0.0
H774 H 0.94733 0.7201 0.26003 0.0
C775 C 0.02936 0.75029 0.38049 0.0
C776 C -0.01189 0.72365 0.39204 0.0
H777 H 0.07356 0.77784 0.31272 0.0
H778 H 0.05248 0.75507 0.41256 0.0
C779 C 0.9587 0.719 0.35062 0.0
C780 C 0.50371 0.09657 0.65774 0.0
C781 C 0.52141 0.08804 0.60746 0.0
H782 H 0.50053 0.10445 0.75236 0.0
C783 C 0.55287 0.0794 0.62743 0.0
H784 H 0.47967 0.10371 0.64967 0.0
C785 C 0.56493 0.07914 0.68911 0.0
C786 C 0.54776 0.08836 0.73934 0.0
H787 H 0.56869 0.07204 0.59444 0.0
H788 H 0.58867 0.07156 0.69717 0.0
C789 C 0.51632 0.09707 0.71938 0.0
C790 C 0.43787 0.56142 0.96977 0.0
C791 C 0.40774 0.5214 0.94909 0.0
H792 H 0.47343 0.60367 1.04071 0.0
C793 C 0.39219 0.49442 0.9985 0.0
H794 H 0.45264 0.58497 0.93716 0.0
C795 C 0.40471 0.5056 1.05979 0.0
C796 C 0.43429 0.54524 1.08112 0.0
H797 H 0.36962 0.46328 0.98998 0.0
H798 H 0.39035 0.48167 1.09197 0.0
C799 C 0.45037 0.57277 1.03186 0.0
C800 C 0.85577 0.43703 0.28949 0.0
C801 C 0.85797 0.40155 0.27159 0.0
H802 H 0.85465 0.4778 0.35659 0.0
C803 C 0.85972 0.38069 0.32383 0.0
H804 H 0.85462 0.45608 0.25508 0.0
C805 C 0.85851 0.39319 0.38511 0.0
C806 C 0.85669 0.42896 0.40288 0.0
H807 H 0.8616 0.35344 0.31775 0.0
H808 H 0.85969 0.37419 0.41957 0.0
C809 C 0.85579 0.45015 0.3506 0.0
C810 C 0.40959 0.83115 0.64439 0.0
C811 C 0.43999 0.8666 0.61398 0.0
H812 H 0.37299 0.80171 0.7226 0.0
C813 C 0.45335 0.90174 0.65062 0.0
H814 H 0.39669 0.80259 0.6216 0.0
C815 C 0.43785 0.90146 0.70995 0.0
C816 C 0.40806 0.86582 0.74077 0.0
H817 H 0.476 0.93064 0.63288 0.0
H818 H 0.45037 0.93009 0.73251 0.0
C819 C 0.39527 0.83064 0.70455 0.0
C820 C 0.57014 0.45234 0.99823 0.0
C821 C 0.54222 0.4335 0.95024 0.0
H822 H 0.58331 0.45794 1.09264 0.0
C823 C 0.50332 0.40268 0.97287 0.0
H824 H 0.6004 0.47672 0.98799 0.0
C825 C 0.49315 0.39134 1.03462 0.0
C826 C 0.52052 0.40974 1.08282 0.0
H827 H 0.47925 0.38639 0.94145 0.0
H828 H 0.46253 0.36751 1.04451 0.0
C829 C 0.55975 0.44112 1.06079 0.0
C830 C 0.10318 0.51333 0.34243 0.0
C831 C 0.0934 0.52783 0.3946 0.0
H832 H 0.11298 0.51522 0.24811 0.0
C833 C 0.08416 0.55943 0.37971 0.0
H834 H 0.10854 0.48797 0.34701 0.0
C835 C 0.08568 0.57513 0.31987 0.0
C836 C 0.09661 0.56103 0.26799 0.0
H837 H 0.07388 0.57141 0.41455 0.0
H838 H 0.07726 0.59836 0.3144 0.0
C839 C 0.10541 0.52934 0.28324 0.0
loop_
_geom_bond_atom_site_label_1
_geom_bond_atom_site_label_2
_geom_bond_distance
_geom_bond_site_symmetry_2
_ccdc_geom_bond_type
Tb0 C10 2.825 . S
Tb0 O11 2.347 . S
Tb0 O14 2.366 . S
Tb0 O19 2.418 . S
Tb0 O20 2.384 . S
Tb0 O23 2.479 . S
Tb0 O24 2.471 . S
Eu1 O12 2.418 . S
Eu1 O13 2.384 . S
Eu1 O16 2.479 . S
Eu1 O17 2.471 . S
Eu1 O18 2.347 . S
Eu1 O21 2.366 . S
Eu1 C31 2.825 . S
C2 O18 1.259 . S
C2 O19 1.265 . S
C3 O20 1.255 . S
C3 O21 1.265 . S
C4 C6 1.380 . S
C4 C7 1.374 . S
C4 C10 1.507 . S
C5 C6 1.384 . S
C5 C9 1.387 . S
C5 H32 0.930 . S
C6 C4 1.380 . S
C6 C5 1.384 . S
C6 H33 0.931 . S
C7 C4 1.374 . S
C7 C8 1.390 . S
C7 H34 0.930 . S
C8 C7 1.390 . S
C8 C9 1.391 . S
C8 H35 0.930 . S
C9 C5 1.387 . S
C9 C8 1.391 . S
C10 Tb0 2.825 . S
C10 C4 1.507 . S
C10 O23 1.238 . S
C10 O24 1.247 . S
O11 Tb0 2.347 . S
O11 C15 1.259 . S
O12 Eu1 2.418 . S
O12 C15 1.265 . S
O13 Eu1 2.384 . S
O13 C22 1.255 . S
O14 Tb0 2.366 . S
O14 C22 1.265 . S
C15 O11 1.259 . S
C15 O12 1.265 . S
O16 Eu1 2.479 . S
O16 C31 1.238 . S
O17 Eu1 2.471 . S
O17 C31 1.247 . S
O18 Eu1 2.347 . S
O18 C2 1.259 . S
O19 Tb0 2.418 . S
O19 C2 1.265 . S
O20 Tb0 2.384 . S
O20 C3 1.255 . S
O21 Eu1 2.366 . S
O21 C3 1.265 . S
C22 O13 1.255 . S
C22 O14 1.265 . S
O23 Tb0 2.479 . S
O23 C10 1.238 . S
O24 Tb0 2.471 . S
O24 C10 1.247 . S
C25 C28 1.380 . S
C25 C29 1.374 . S
C25 C31 1.507 . S
C26 C27 1.387 1_556 S
C26 C30 1.391 1_556 S
C27 C26 1.387 1_554 S
C27 C28 1.384 . S
C27 H36 0.930 . S
C28 C25 1.380 . S
C28 C27 1.384 . S
C28 H37 0.931 . S
C29 C25 1.374 . S
C29 C30 1.390 . S
C29 H38 0.930 . S
C30 C26 1.391 1_554 S
C30 C29 1.390 . S
C30 H39 0.918 1_554 S
C31 Eu1 2.825 . S
C31 O16 1.238 . S
C31 O17 1.247 . S
C31 C25 1.507 . S
H32 C5 0.930 . S
H33 C6 0.931 . S
H34 C7 0.930 . S
H35 C8 0.930 . S
H36 C27 0.930 . S
H37 C28 0.931 . S
H38 C29 0.930 . S
H39 C30 0.918 1_556 S
Tb40 C50 2.825 . S
Tb40 O51 2.347 . S
Tb40 O54 2.366 . S
Tb40 O59 2.418 . S
Tb40 O60 2.384 . S
Tb40 O63 2.479 . S
Tb40 O64 2.471 . S
Eu41 O52 2.418 . S
Eu41 O53 2.384 . S
Eu41 O56 2.479 . S
Eu41 O57 2.471 . S
Eu41 O58 2.347 . S
Eu41 O61 2.366 . S
Eu41 C71 2.825 . S
C42 O58 1.259 . S
C42 O59 1.265 . S
C43 O60 1.255 . S
C43 O61 1.265 . S
C44 C46 1.380 . S
C44 C47 1.374 . S
C44 C50 1.507 . S
C45 C46 1.384 . S
C45 C49 1.387 . S
C45 H72 0.930 . S
C46 C44 1.380 . S
C46 C45 1.384 . S
C46 H73 0.931 . S
C47 C44 1.374 . S
C47 C48 1.390 . S
C47 H74 0.930 . S
C48 C47 1.390 . S
C48 C49 1.391 . S
C48 H75 0.930 . S
C49 C45 1.387 . S
C49 C48 1.391 . S
C50 Tb40 2.825 . S
C50 C44 1.507 . S
C50 O63 1.238 . S
C50 O64 1.247 . S
O51 Tb40 2.347 . S
O51 C55 1.259 . S
O52 Eu41 2.418 . S
O52 C55 1.265 . S
O53 Eu41 2.384 . S
O53 C62 1.255 . S
O54 Tb40 2.366 . S
O54 C62 1.265 . S
C55 O51 1.259 . S
C55 O52 1.265 . S
O56 Eu41 2.479 . S
O56 C71 1.238 . S
O57 Eu41 2.471 . S
O57 C71 1.247 . S
O58 Eu41 2.347 . S
O58 C42 1.259 . S
O59 Tb40 2.418 . S
O59 C42 1.265 . S
O60 Tb40 2.384 . S
O60 C43 1.255 . S
O61 Eu41 2.366 . S
O61 C43 1.265 . S
C62 O53 1.255 . S
C62 O54 1.265 . S
O63 Tb40 2.479 . S
O63 C50 1.238 . S
O64 Tb40 2.471 . S
O64 C50 1.247 . S
C65 C68 1.380 . S
C65 C69 1.374 . S
C65 C71 1.507 . S
C66 C67 1.387 . S
C66 C70 1.391 . S
C67 C66 1.387 . S
C67 C68 1.384 . S
C67 H76 0.930 . S
C68 C65 1.380 . S
C68 C67 1.384 . S
C68 H77 0.931 . S
C69 C65 1.374 . S
C69 C70 1.390 . S
C69 H78 0.930 . S
C70 C66 1.391 . S
C70 C69 1.390 . S
C70 H79 0.930 . S
C71 Eu41 2.825 . S
C71 O56 1.238 . S
C71 O57 1.247 . S
C71 C65 1.507 . S
H72 C45 0.930 . S
H73 C46 0.931 . S
H74 C47 0.930 . S
H75 C48 0.930 . S
H76 C67 0.930 . S
H77 C68 0.931 . S
H78 C69 0.930 . S
H79 C70 0.930 . S
Tb80 C90 2.825 1_556 S
Tb80 O91 2.347 . S
Tb80 O94 2.366 . S
Tb80 O99 2.418 . S
Tb80 O100 2.384 . S
Tb80 O103 2.479 1_556 S
Tb80 O104 2.471 1_556 S
Eu81 O92 2.418 . S
Eu81 O93 2.384 . S
Eu81 O96 2.479 . S
Eu81 O97 2.471 . S
Eu81 O98 2.347 . S
Eu81 O101 2.366 . S
Eu81 C111 2.825 . S
C82 O98 1.259 . S
C82 O99 1.265 . S
C83 O100 1.255 . S
C83 O101 1.265 . S
C84 C86 1.380 . S
C84 C87 1.374 . S
C84 C90 1.507 . S
C85 C86 1.384 . S
C85 C89 1.387 . S
C85 H112 0.930 . S
C86 C84 1.380 . S
C86 C85 1.384 . S
C86 H113 0.931 . S
C87 C84 1.374 . S
C87 C88 1.390 . S
C87 H114 0.930 . S
C88 C87 1.390 . S
C88 C89 1.391 . S
C88 H115 0.930 . S
C89 C85 1.387 . S
C89 C88 1.391 . S
C90 Tb80 2.825 1_554 S
C90 C84 1.507 . S
C90 O103 1.238 . S
C90 O104 1.247 . S
O91 Tb80 2.347 . S
O91 C95 1.259 . S
O92 Eu81 2.418 . S
O92 C95 1.265 . S
O93 Eu81 2.384 . S
O93 C102 1.255 . S
O94 Tb80 2.366 . S
O94 C102 1.265 . S
C95 O91 1.259 . S
C95 O92 1.265 . S
O96 Eu81 2.479 . S
O96 C111 1.238 . S
O97 Eu81 2.471 . S
O97 C111 1.247 . S
O98 Eu81 2.347 . S
O98 C82 1.259 . S
O99 Tb80 2.418 . S
O99 C82 1.265 . S
O100 Tb80 2.384 . S
O100 C83 1.255 . S
O101 Eu81 2.366 . S
O101 C83 1.265 . S
C102 O93 1.255 . S
C102 O94 1.265 . S
O103 Tb80 2.479 1_554 S
O103 C90 1.238 . S
O104 Tb80 2.471 1_554 S
O104 C90 1.247 . S
C105 C108 1.380 . S
C105 C109 1.374 . S
C105 C111 1.507 . S
C106 C107 1.387 . S
C106 C110 1.391 . S
C107 C106 1.387 . S
C107 C108 1.384 . S
C107 H116 0.930 . S
C108 C105 1.380 . S
C108 C107 1.384 . S
C108 H117 0.931 . S
C109 C105 1.374 . S
C109 C110 1.390 . S
C109 H118 0.930 . S
C110 C106 1.391 . S
C110 C109 1.390 . S
C110 H119 0.930 . S
C111 Eu81 2.825 . S
C111 O96 1.238 . S
C111 O97 1.247 . S
C111 C105 1.507 . S
H112 C85 0.930 . S
H113 C86 0.931 . S
H114 C87 0.930 . S
H115 C88 0.930 . S
H116 C107 0.930 . S
H117 C108 0.931 . S
H118 C109 0.930 . S
H119 C110 0.930 . S
Tb120 C130 2.825 . S
Tb120 O131 2.347 . S
Tb120 O134 2.366 . S
Tb120 O139 2.418 . S
Tb120 O140 2.384 . S
Tb120 O143 2.479 . S
Tb120 O144 2.471 . S
Eu121 O132 2.418 . S
Eu121 O133 2.384 . S
Eu121 O136 2.479 . S
Eu121 O137 2.471 . S
Eu121 O138 2.347 . S
Eu121 O141 2.366 . S
Eu121 C151 2.825 . S
C122 O138 1.259 . S
C122 O139 1.265 . S
C123 O140 1.255 . S
C123 O141 1.265 . S
C124 C126 1.380 . S
C124 C127 1.374 . S
C124 C130 1.507 . S
C125 C126 1.384 . S
C125 C129 1.387 . S
C125 H152 0.930 . S
C126 C124 1.380 . S
C126 C125 1.384 . S
C126 H153 0.931 . S
C127 C124 1.374 . S
C127 C128 1.390 . S
C127 H154 0.930 . S
C128 C127 1.390 . S
C128 C129 1.391 . S
C128 H155 0.930 . S
C129 C125 1.387 . S
C129 C128 1.391 . S
C130 Tb120 2.825 . S
C130 C124 1.507 . S
C130 O143 1.238 . S
C130 O144 1.247 . S
O131 Tb120 2.347 . S
O131 C135 1.259 . S
O132 Eu121 2.418 . S
O132 C135 1.265 . S
O133 Eu121 2.384 . S
O133 C142 1.255 . S
O134 Tb120 2.366 . S
O134 C142 1.265 . S
C135 O131 1.259 . S
C135 O132 1.265 . S
O136 Eu121 2.479 . S
O136 C151 1.238 . S
O137 Eu121 2.471 . S
O137 C151 1.247 . S
O138 Eu121 2.347 . S
O138 C122 1.259 . S
O139 Tb120 2.418 . S
O139 C122 1.265 . S
O140 Tb120 2.384 . S
O140 C123 1.255 . S
O141 Eu121 2.366 . S
O141 C123 1.265 . S
C142 O133 1.255 . S
C142 O134 1.265 . S
O143 Tb120 2.479 . S
O143 C130 1.238 . S
O144 Tb120 2.471 . S
O144 C130 1.247 . S
C145 C148 1.380 . S
C145 C149 1.374 . S
C145 C151 1.507 . S
C146 C147 1.387 1_556 S
C146 C150 1.391 1_556 S
C147 C146 1.387 1_554 S
C147 C148 1.384 . S
C147 H156 0.930 . S
C148 C145 1.380 . S
C148 C147 1.384 . S
C148 H157 0.931 . S
C149 C145 1.374 . S
C149 C150 1.390 . S
C149 H158 0.930 . S
C150 C146 1.391 1_554 S
C150 C149 1.390 . S
C150 H159 0.918 1_554 S
C151 Eu121 2.825 . S
C151 O136 1.238 . S
C151 O137 1.247 . S
C151 C145 1.507 . S
H152 C125 0.930 . S
H153 C126 0.931 . S
H154 C127 0.930 . S
H155 C128 0.930 . S
H156 C147 0.930 . S
H157 C148 0.931 . S
H158 C149 0.930 . S
H159 C150 0.918 1_556 S
Tb160 C170 2.825 . S
Tb160 O171 2.347 . S
Tb160 O174 2.366 . S
Tb160 O179 2.418 . S
Tb160 O180 2.384 . S
Tb160 O183 2.479 . S
Tb160 O184 2.471 . S
Eu161 O172 2.418 . S
Eu161 O173 2.384 . S
Eu161 O176 2.479 . S
Eu161 O177 2.471 . S
Eu161 O178 2.347 . S
Eu161 O181 2.366 . S
Eu161 C191 2.825 . S
C162 O178 1.259 . S
C162 O179 1.265 . S
C163 O180 1.255 . S
C163 O181 1.265 . S
C164 C166 1.380 . S
C164 C167 1.374 . S
C164 C170 1.507 . S
C165 C166 1.384 . S
C165 C169 1.387 . S
C165 H192 0.930 . S
C166 C164 1.380 . S
C166 C165 1.384 . S
C166 H193 0.931 . S
C167 C164 1.374 . S
C167 C168 1.390 . S
C167 H194 0.930 . S
C168 C167 1.390 . S
C168 C169 1.391 . S
C168 H195 0.930 . S
C169 C165 1.387 . S
C169 C168 1.391 . S
C170 Tb160 2.825 . S
C170 C164 1.507 . S
C170 O183 1.238 . S
C170 O184 1.247 . S
O171 Tb160 2.347 . S
O171 C175 1.259 . S
O172 Eu161 2.418 . S
O172 C175 1.265 . S
O173 Eu161 2.384 . S
O173 C182 1.255 . S
O174 Tb160 2.366 . S
O174 C182 1.265 . S
C175 O171 1.259 . S
C175 O172 1.265 . S
O176 Eu161 2.479 . S
O176 C191 1.238 . S
O177 Eu161 2.471 . S
O177 C191 1.247 . S
O178 Eu161 2.347 . S
O178 C162 1.259 . S
O179 Tb160 2.418 . S
O179 C162 1.265 . S
O180 Tb160 2.384 . S
O180 C163 1.255 . S
O181 Eu161 2.366 . S
O181 C163 1.265 . S
C182 O173 1.255 . S
C182 O174 1.265 . S
O183 Tb160 2.479 . S
O183 C170 1.238 . S
O184 Tb160 2.471 . S
O184 C170 1.247 . S
C185 C188 1.380 . S
C185 C189 1.374 . S
C185 C191 1.507 . S
C186 C187 1.387 . S
C186 C190 1.391 . S
C187 C186 1.387 . S
C187 C188 1.384 . S
C187 H196 0.930 . S
C188 C185 1.380 . S
C188 C187 1.384 . S
C188 H197 0.931 . S
C189 C185 1.374 . S
C189 C190 1.390 . S
C189 H198 0.930 . S
C190 C186 1.391 . S
C190 C189 1.390 . S
C190 H199 0.930 . S
C191 Eu161 2.825 . S
C191 O176 1.238 . S
C191 O177 1.247 . S
C191 C185 1.507 . S
H192 C165 0.930 . S
H193 C166 0.931 . S
H194 C167 0.930 . S
H195 C168 0.930 . S
H196 C187 0.930 . S
H197 C188 0.931 . S
H198 C189 0.930 . S
H199 C190 0.930 . S
Tb200 C210 2.825 1_556 S
Tb200 O211 2.347 . S
Tb200 O214 2.366 . S
Tb200 O219 2.418 . S
Tb200 O220 2.384 . S
Tb200 O223 2.479 1_556 S
Tb200 O224 2.471 1_556 S
Eu201 O212 2.418 . S
Eu201 O213 2.384 . S
Eu201 O216 2.479 . S
Eu201 O217 2.471 . S
Eu201 O218 2.347 . S
Eu201 O221 2.366 . S
Eu201 C231 2.825 . S
C202 O218 1.259 . S
C202 O219 1.265 . S
C203 O220 1.255 . S
C203 O221 1.265 . S
C204 C206 1.380 . S
C204 C207 1.374 . S
C204 C210 1.507 . S
C205 C206 1.384 . S
C205 C209 1.387 . S
C205 H232 0.930 . S
C206 C204 1.380 . S
C206 C205 1.384 . S
C206 H233 0.931 . S
C207 C204 1.374 . S
C207 C208 1.390 . S
C207 H234 0.930 . S
C208 C207 1.390 . S
C208 C209 1.391 . S
C208 H235 0.930 . S
C209 C205 1.387 . S
C209 C208 1.391 . S
C210 Tb200 2.825 1_554 S
C210 C204 1.507 . S
C210 O223 1.238 . S
C210 O224 1.247 . S
O211 Tb200 2.347 . S
O211 C215 1.259 . S
O212 Eu201 2.418 . S
O212 C215 1.265 . S
O213 Eu201 2.384 . S
O213 C222 1.255 . S
O214 Tb200 2.366 . S
O214 C222 1.265 . S
C215 O211 1.259 . S
C215 O212 1.265 . S
O216 Eu201 2.479 . S
O216 C231 1.238 . S
O217 Eu201 2.471 . S
O217 C231 1.247 . S
O218 Eu201 2.347 . S
O218 C202 1.259 . S
O219 Tb200 2.418 . S
O219 C202 1.265 . S
O220 Tb200 2.384 . S
O220 C203 1.255 . S
O221 Eu201 2.366 . S
O221 C203 1.265 . S
C222 O213 1.255 . S
C222 O214 1.265 . S
O223 Tb200 2.479 1_554 S
O223 C210 1.238 . S
O224 Tb200 2.471 1_554 S
O224 C210 1.247 . S
C225 C228 1.380 . S
C225 C229 1.374 . S
C225 C231 1.507 . S
C226 C227 1.387 . S
C226 C230 1.391 . S
C227 C226 1.387 . S
C227 C228 1.384 . S
C227 H236 0.930 . S
C228 C225 1.380 . S
C228 C227 1.384 . S
C228 H237 0.931 . S
C229 C225 1.374 . S
C229 C230 1.390 . S
C229 H238 0.930 . S
C230 C226 1.391 . S
C230 C229 1.390 . S
C230 H239 0.930 . S
C231 Eu201 2.825 . S
C231 O216 1.238 . S
C231 O217 1.247 . S
C231 C225 1.507 . S
H232 C205 0.930 . S
H233 C206 0.931 . S
H234 C207 0.930 . S
H235 C208 0.930 . S
H236 C227 0.930 . S
H237 C228 0.931 . S
H238 C229 0.930 . S
H239 C230 0.930 . S
Tb240 C250 2.825 . S
Tb240 O251 2.347 . S
Tb240 O254 2.366 . S
Tb240 O259 2.418 . S
Tb240 O260 2.384 . S
Tb240 O263 2.479 . S
Tb240 O264 2.471 . S
Eu241 O252 2.418 . S
Eu241 O253 2.384 . S
Eu241 O256 2.479 . S
Eu241 O257 2.471 . S
Eu241 O258 2.347 . S
Eu241 O261 2.366 . S
Eu241 C271 2.825 . S
C242 O258 1.259 . S
C242 O259 1.265 . S
C243 O260 1.255 . S
C243 O261 1.265 . S
C244 C246 1.380 . S
C244 C247 1.374 . S
C244 C250 1.507 . S
C245 C246 1.384 . S
C245 C249 1.387 . S
C245 H272 0.930 . S
C246 C244 1.380 . S
C246 C245 1.384 . S
C246 H273 0.931 . S
C247 C244 1.374 . S
C247 C248 1.390 . S
C247 H274 0.930 . S
C248 C247 1.390 . S
C248 C249 1.391 . S
C248 H275 0.930 . S
C249 C245 1.387 . S
C249 C248 1.391 . S
C250 Tb240 2.825 . S
C250 C244 1.507 . S
C250 O263 1.238 . S
C250 O264 1.247 . S
O251 Tb240 2.347 . S
O251 C255 1.259 . S
O252 Eu241 2.418 . S
O252 C255 1.265 . S
O253 Eu241 2.384 . S
O253 C262 1.255 . S
O254 Tb240 2.366 . S
O254 C262 1.265 . S
C255 O251 1.259 . S
C255 O252 1.265 . S
O256 Eu241 2.479 . S
O256 C271 1.238 . S
O257 Eu241 2.471 . S
O257 C271 1.247 . S
O258 Eu241 2.347 . S
O258 C242 1.259 . S
O259 Tb240 2.418 . S
O259 C242 1.265 . S
O260 Tb240 2.384 . S
O260 C243 1.255 . S
O261 Eu241 2.366 . S
O261 C243 1.265 . S
C262 O253 1.255 . S
C262 O254 1.265 . S
O263 Tb240 2.479 . S
O263 C250 1.238 . S
O264 Tb240 2.471 . S
O264 C250 1.247 . S
C265 C268 1.380 . S
C265 C269 1.374 . S
C265 C271 1.507 . S
C266 C267 1.387 . S
C266 C270 1.391 . S
C267 C266 1.387 . S
C267 C268 1.384 . S
C267 H276 0.930 . S
C268 C265 1.380 . S
C268 C267 1.384 . S
C268 H277 0.931 . S
C269 C265 1.374 . S
C269 C270 1.390 . S
C269 H278 0.930 . S
C270 C266 1.391 . S
C270 C269 1.390 . S
C270 H279 0.930 . S
C271 Eu241 2.825 . S
C271 O256 1.238 . S
C271 O257 1.247 . S
C271 C265 1.507 . S
H272 C245 0.930 . S
H273 C246 0.931 . S
H274 C247 0.930 . S
H275 C248 0.930 . S
H276 C267 0.930 . S
H277 C268 0.931 . S
H278 C269 0.930 . S
H279 C270 0.930 . S
Tb280 C290 2.825 . S
Tb280 O291 2.347 . S
Tb280 O294 2.366 . S
Tb280 O299 2.418 . S
Tb280 O300 2.384 . S
Tb280 O303 2.479 . S
Tb280 O304 2.471 . S
Eu281 O292 2.418 . S
Eu281 O293 2.384 . S
Eu281 O296 2.479 . S
Eu281 O297 2.471 . S
Eu281 O298 2.347 . S
Eu281 O301 2.366 . S
Eu281 C311 2.825 . S
C282 O298 1.259 . S
C282 O299 1.265 . S
C283 O300 1.255 . S
C283 O301 1.265 . S
C284 C286 1.380 . S
C284 C287 1.374 . S
C284 C290 1.507 . S
C285 C286 1.384 . S
C285 C289 1.387 . S
C285 H312 0.930 . S
C286 C284 1.380 . S
C286 C285 1.384 . S
C286 H313 0.931 . S
C287 C284 1.374 . S
C287 C288 1.390 . S
C287 H314 0.930 . S
C288 C287 1.390 . S
C288 C289 1.391 . S
C288 H315 0.930 . S
C289 C285 1.387 . S
C289 C288 1.391 . S
C290 Tb280 2.825 . S
C290 C284 1.507 . S
C290 O303 1.238 . S
C290 O304 1.247 . S
O291 Tb280 2.347 . S
O291 C295 1.259 . S
O292 Eu281 2.418 . S
O292 C295 1.265 . S
O293 Eu281 2.384 . S
O293 C302 1.255 . S
O294 Tb280 2.366 . S
O294 C302 1.265 . S
C295 O291 1.259 . S
C295 O292 1.265 . S
O296 Eu281 2.479 . S
O296 C311 1.238 . S
O297 Eu281 2.471 . S
O297 C311 1.247 . S
O298 Eu281 2.347 . S
O298 C282 1.259 . S
O299 Tb280 2.418 . S
O299 C282 1.265 . S
O300 Tb280 2.384 . S
O300 C283 1.255 . S
O301 Eu281 2.366 . S
O301 C283 1.265 . S
C302 O293 1.255 . S
C302 O294 1.265 . S
O303 Tb280 2.479 . S
O303 C290 1.238 . S
O304 Tb280 2.471 . S
O304 C290 1.247 . S
C305 C308 1.380 . S
C305 C309 1.374 . S
C305 C311 1.507 . S
C306 C307 1.387 1_554 S
C306 C310 1.391 1_554 S
C307 C306 1.387 1_556 S
C307 C308 1.384 . S
C307 H316 0.930 . S
C308 C305 1.380 . S
C308 C307 1.384 . S
C308 H317 0.931 . S
C309 C305 1.374 . S
C309 C310 1.390 . S
C309 H318 0.930 . S
C310 C306 1.391 1_556 S
C310 C309 1.390 . S
C310 H319 0.918 1_556 S
C311 Eu281 2.825 . S
C311 O296 1.238 . S
C311 O297 1.247 . S
C311 C305 1.507 . S
H312 C285 0.930 . S
H313 C286 0.931 . S
H314 C287 0.930 . S
H315 C288 0.930 . S
H316 C307 0.930 . S
H317 C308 0.931 . S
H318 C309 0.930 . S
H319 C310 0.918 1_554 S
Tb320 C330 2.825 1_554 S
Tb320 O331 2.347 . S
Tb320 O334 2.366 . S
Tb320 O339 2.418 . S
Tb320 O340 2.384 . S
Tb320 O343 2.479 1_554 S
Tb320 O344 2.471 1_554 S
Eu321 O332 2.418 . S
Eu321 O333 2.384 . S
Eu321 O336 2.479 . S
Eu321 O337 2.471 . S
Eu321 O338 2.347 . S
Eu321 O341 2.366 . S
Eu321 C351 2.825 . S
C322 O338 1.259 . S
C322 O339 1.265 . S
C323 O340 1.255 . S
C323 O341 1.265 . S
C324 C326 1.380 . S
C324 C327 1.374 . S
C324 C330 1.507 . S
C325 C326 1.384 . S
C325 C329 1.387 . S
C325 H352 0.930 . S
C326 C324 1.380 . S
C326 C325 1.384 . S
C326 H353 0.931 . S
C327 C324 1.374 . S
C327 C328 1.390 . S
C327 H354 0.930 . S
C328 C327 1.390 . S
C328 C329 1.391 . S
C328 H355 0.930 . S
C329 C325 1.387 . S
C329 C328 1.391 . S
C330 Tb320 2.825 1_556 S
C330 C324 1.507 . S
C330 O343 1.238 . S
C330 O344 1.247 . S
O331 Tb320 2.347 . S
O331 C335 1.259 . S
O332 Eu321 2.418 . S
O332 C335 1.265 . S
O333 Eu321 2.384 . S
O333 C342 1.255 . S
O334 Tb320 2.366 . S
O334 C342 1.265 . S
C335 O331 1.259 . S
C335 O332 1.265 . S
O336 Eu321 2.479 . S
O336 C351 1.238 . S
O337 Eu321 2.471 . S
O337 C351 1.247 . S
O338 Eu321 2.347 . S
O338 C322 1.259 . S
O339 Tb320 2.418 . S
O339 C322 1.265 . S
O340 Tb320 2.384 . S
O340 C323 1.255 . S
O341 Eu321 2.366 . S
O341 C323 1.265 . S
C342 O333 1.255 . S
C342 O334 1.265 . S
O343 Tb320 2.479 1_556 S
O343 C330 1.238 . S
O344 Tb320 2.471 1_556 S
O344 C330 1.247 . S
C345 C348 1.380 . S
C345 C349 1.374 . S
C345 C351 1.507 . S
C346 C347 1.387 . S
C346 C350 1.391 . S
C347 C346 1.387 . S
C347 C348 1.384 . S
C347 H356 0.930 . S
C348 C345 1.380 . S
C348 C347 1.384 . S
C348 H357 0.931 . S
C349 C345 1.374 . S
C349 C350 1.390 . S
C349 H358 0.930 . S
C350 C346 1.391 . S
C350 C349 1.390 . S
C350 H359 0.930 . S
C351 Eu321 2.825 . S
C351 O336 1.238 . S
C351 O337 1.247 . S
C351 C345 1.507 . S
H352 C325 0.930 . S
H353 C326 0.931 . S
H354 C327 0.930 . S
H355 C328 0.930 . S
H356 C347 0.930 . S
H357 C348 0.931 . S
H358 C349 0.930 . S
H359 C350 0.930 . S
Tb360 C370 2.825 . S
Tb360 O371 2.347 . S
Tb360 O374 2.366 . S
Tb360 O379 2.418 . S
Tb360 O380 2.384 . S
Tb360 O383 2.479 . S
Tb360 O384 2.471 . S
Eu361 O372 2.418 . S
Eu361 O373 2.384 . S
Eu361 O376 2.479 . S
Eu361 O377 2.471 . S
Eu361 O378 2.347 . S
Eu361 O381 2.366 . S
Eu361 C391 2.825 . S
C362 O378 1.259 . S
C362 O379 1.265 . S
C363 O380 1.255 . S
C363 O381 1.265 . S
C364 C366 1.380 . S
C364 C367 1.374 . S
C364 C370 1.507 . S
C365 C366 1.384 . S
C365 C369 1.387 . S
C365 H392 0.930 . S
C366 C364 1.380 . S
C366 C365 1.384 . S
C366 H393 0.931 . S
C367 C364 1.374 . S
C367 C368 1.390 . S
C367 H394 0.930 . S
C368 C367 1.390 . S
C368 C369 1.391 . S
C368 H395 0.930 . S
C369 C365 1.387 . S
C369 C368 1.391 . S
C370 Tb360 2.825 . S
C370 C364 1.507 . S
C370 O383 1.238 . S
C370 O384 1.247 . S
O371 Tb360 2.347 . S
O371 C375 1.259 . S
O372 Eu361 2.418 . S
O372 C375 1.265 . S
O373 Eu361 2.384 . S
O373 C382 1.255 . S
O374 Tb360 2.366 . S
O374 C382 1.265 . S
C375 O371 1.259 . S
C375 O372 1.265 . S
O376 Eu361 2.479 . S
O376 C391 1.238 . S
O377 Eu361 2.471 . S
O377 C391 1.247 . S
O378 Eu361 2.347 . S
O378 C362 1.259 . S
O379 Tb360 2.418 . S
O379 C362 1.265 . S
O380 Tb360 2.384 . S
O380 C363 1.255 . S
O381 Eu361 2.366 . S
O381 C363 1.265 . S
C382 O373 1.255 . S
C382 O374 1.265 . S
O383 Tb360 2.479 . S
O383 C370 1.238 . S
O384 Tb360 2.471 . S
O384 C370 1.247 . S
C385 C388 1.380 . S
C385 C389 1.374 . S
C385 C391 1.507 . S
C386 C387 1.387 . S
C386 C390 1.391 . S
C387 C386 1.387 . S
C387 C388 1.384 . S
C387 H396 0.930 . S
C388 C385 1.380 . S
C388 C387 1.384 . S
C388 H397 0.931 . S
C389 C385 1.374 . S
C389 C390 1.390 . S
C389 H398 0.930 . S
C390 C386 1.391 . S
C390 C389 1.390 . S
C390 H399 0.930 . S
C391 Eu361 2.825 . S
C391 O376 1.238 . S
C391 O377 1.247 . S
C391 C385 1.507 . S
H392 C365 0.930 . S
H393 C366 0.931 . S
H394 C367 0.930 . S
H395 C368 0.930 . S
H396 C387 0.930 . S
H397 C388 0.931 . S
H398 C389 0.930 . S
H399 C390 0.930 . S
Tb400 C410 2.825 . S
Tb400 O411 2.347 . S
Tb400 O414 2.366 . S
Tb400 O419 2.418 . S
Tb400 O420 2.384 . S
Tb400 O423 2.479 . S
Tb400 O424 2.471 . S
Eu401 O412 2.418 . S
Eu401 O413 2.384 . S
Eu401 O416 2.479 . S
Eu401 O417 2.471 . S
Eu401 O418 2.347 . S
Eu401 O421 2.366 . S
Eu401 C431 2.825 . S
C402 O418 1.259 . S
C402 O419 1.265 . S
C403 O420 1.255 . S
C403 O421 1.265 . S
C404 C406 1.380 . S
C404 C407 1.374 . S
C404 C410 1.507 . S
C405 C406 1.384 . S
C405 C409 1.387 . S
C405 H432 0.930 . S
C406 C404 1.380 . S
C406 C405 1.384 . S
C406 H433 0.931 . S
C407 C404 1.374 . S
C407 C408 1.390 . S
C407 H434 0.930 . S
C408 C407 1.390 . S
C408 C409 1.391 . S
C408 H435 0.930 . S
C409 C405 1.387 . S
C409 C408 1.391 . S
C410 Tb400 2.825 . S
C410 C404 1.507 . S
C410 O423 1.238 . S
C410 O424 1.247 . S
O411 Tb400 2.347 . S
O411 C415 1.259 . S
O412 Eu401 2.418 . S
O412 C415 1.265 . S
O413 Eu401 2.384 . S
O413 C422 1.255 . S
O414 Tb400 2.366 . S
O414 C422 1.265 . S
C415 O411 1.259 . S
C415 O412 1.265 . S
O416 Eu401 2.479 . S
O416 C431 1.238 . S
O417 Eu401 2.471 . S
O417 C431 1.247 . S
O418 Eu401 2.347 . S
O418 C402 1.259 . S
O419 Tb400 2.418 . S
O419 C402 1.265 . S
O420 Tb400 2.384 . S
O420 C403 1.255 . S
O421 Eu401 2.366 . S
O421 C403 1.265 . S
C422 O413 1.255 . S
C422 O414 1.265 . S
O423 Tb400 2.479 . S
O423 C410 1.238 . S
O424 Tb400 2.471 . S
O424 C410 1.247 . S
C425 C428 1.380 . S
C425 C429 1.374 . S
C425 C431 1.507 . S
C426 C427 1.387 1_554 S
C426 C430 1.391 1_554 S
C427 C426 1.387 1_556 S
C427 C428 1.384 . S
C427 H436 0.930 . S
C428 C425 1.380 . S
C428 C427 1.384 . S
C428 H437 0.931 . S
C429 C425 1.374 . S
C429 C430 1.390 . S
C429 H438 0.930 . S
C430 C426 1.391 1_556 S
C430 C429 1.390 . S
C430 H439 0.918 1_556 S
C431 Eu401 2.825 . S
C431 O416 1.238 . S
C431 O417 1.247 . S
C431 C425 1.507 . S
H432 C405 0.930 . S
H433 C406 0.931 . S
H434 C407 0.930 . S
H435 C408 0.930 . S
H436 C427 0.930 . S
H437 C428 0.931 . S
H438 C429 0.930 . S
H439 C430 0.918 1_554 S
Tb440 C450 2.825 1_554 S
Tb440 O451 2.347 . S
Tb440 O454 2.366 . S
Tb440 O459 2.418 . S
Tb440 O460 2.384 . S
Tb440 O463 2.479 1_554 S
Tb440 O464 2.471 1_554 S
Eu441 O452 2.418 . S
Eu441 O453 2.384 . S
Eu441 O456 2.479 . S
Eu441 O457 2.471 . S
Eu441 O458 2.347 . S
Eu441 O461 2.366 . S
Eu441 C471 2.825 . S
C442 O458 1.259 . S
C442 O459 1.265 . S
C443 O460 1.255 . S
C443 O461 1.265 . S
C444 C446 1.380 . S
C444 C447 1.374 . S
C444 C450 1.507 . S
C445 C446 1.384 . S
C445 C449 1.387 . S
C445 H472 0.930 . S
C446 C444 1.380 . S
C446 C445 1.384 . S
C446 H473 0.931 . S
C447 C444 1.374 . S
C447 C448 1.390 . S
C447 H474 0.930 . S
C448 C447 1.390 . S
C448 C449 1.391 . S
C448 H475 0.930 . S
C449 C445 1.387 . S
C449 C448 1.391 . S
C450 Tb440 2.825 1_556 S
C450 C444 1.507 . S
C450 O463 1.238 . S
C450 O464 1.247 . S
O451 Tb440 2.347 . S
O451 C455 1.259 . S
O452 Eu441 2.418 . S
O452 C455 1.265 . S
O453 Eu441 2.384 . S
O453 C462 1.255 . S
O454 Tb440 2.366 . S
O454 C462 1.265 . S
C455 O451 1.259 . S
C455 O452 1.265 . S
O456 Eu441 2.479 . S
O456 C471 1.238 . S
O457 Eu441 2.471 . S
O457 C471 1.247 . S
O458 Eu441 2.347 . S
O458 C442 1.259 . S
O459 Tb440 2.418 . S
O459 C442 1.265 . S
O460 Tb440 2.384 . S
O460 C443 1.255 . S
O461 Eu441 2.366 . S
O461 C443 1.265 . S
C462 O453 1.255 . S
C462 O454 1.265 . S
O463 Tb440 2.479 1_556 S
O463 C450 1.238 . S
O464 Tb440 2.471 1_556 S
O464 C450 1.247 . S
C465 C468 1.380 . S
C465 C469 1.374 . S
C465 C471 1.507 . S
C466 C467 1.387 . S
C466 C470 1.391 . S
C467 C466 1.387 . S
C467 C468 1.384 . S
C467 H476 0.930 . S
C468 C465 1.380 . S
C468 C467 1.384 . S
C468 H477 0.931 . S
C469 C465 1.374 . S
C469 C470 1.390 . S
C469 H478 0.930 . S
C470 C466 1.391 . S
C470 C469 1.390 . S
C470 H479 0.930 . S
C471 Eu441 2.825 . S
C471 O456 1.238 . S
C471 O457 1.247 . S
C471 C465 1.507 . S
H472 C445 0.930 . S
H473 C446 0.931 . S
H474 C447 0.930 . S
H475 C448 0.930 . S
H476 C467 0.930 . S
H477 C468 0.931 . S
H478 C469 0.930 . S
H479 C470 0.930 . S
C480 C481 1.387 . S
C480 H484 0.950 . S
C480 C489 1.390 . S
C481 C480 1.387 . S
C481 C483 1.387 . S
H482 C489 0.950 . S
C483 C481 1.387 . S
C483 C485 1.390 . S
C483 H487 0.950 . S
H484 C480 0.950 . S
C485 C483 1.390 . S
C485 C486 1.387 . S
C485 H488 0.950 . S
C486 C485 1.387 . S
C486 C489 1.387 . S
H487 C483 0.950 . S
H488 C485 0.950 . S
C489 C480 1.390 . S
C489 H482 0.950 . S
C489 C486 1.387 . S
C490 C491 1.387 . S
C490 H494 0.950 . S
C490 C499 1.390 . S
C491 C490 1.387 . S
C491 C493 1.387 . S
H492 C499 0.950 . S
C493 C491 1.387 . S
C493 C495 1.390 . S
C493 H497 0.950 . S
H494 C490 0.950 . S
C495 C493 1.390 . S
C495 C496 1.387 . S
C495 H498 0.950 . S
C496 C495 1.387 . S
C496 C499 1.387 . S
H497 C493 0.950 . S
H498 C495 0.950 . S
C499 C490 1.390 . S
C499 H492 0.950 . S
C499 C496 1.387 . S
C500 C501 1.387 . S
C500 H504 0.950 . S
C500 C509 1.390 . S
C501 C500 1.387 . S
C501 C503 1.387 . S
H502 C509 0.950 . S
C503 C501 1.387 . S
C503 C505 1.390 . S
C503 H507 0.950 . S
H504 C500 0.950 . S
C505 C503 1.390 . S
C505 C506 1.387 . S
C505 H508 0.950 . S
C506 C505 1.387 . S
C506 C509 1.387 . S
H507 C503 0.950 . S
H508 C505 0.950 . S
C509 C500 1.390 . S
C509 H502 0.950 . S
C509 C506 1.387 . S
C510 C511 1.387 . S
C510 H514 0.950 . S
C510 C519 1.390 . S
C511 C510 1.387 . S
C511 C513 1.387 . S
H512 C519 0.950 . S
C513 C511 1.387 . S
C513 C515 1.390 . S
C513 H517 0.950 . S
H514 C510 0.950 . S
C515 C513 1.390 . S
C515 C516 1.387 . S
C515 H518 0.950 . S
C516 C515 1.387 . S
C516 C519 1.387 . S
H517 C513 0.950 . S
H518 C515 0.950 . S
C519 C510 1.390 . S
C519 H512 0.950 . S
C519 C516 1.387 . S
C520 C521 1.387 . S
C520 H524 0.950 . S
C520 C529 1.390 . S
C521 C520 1.387 . S
C521 C523 1.387 . S
H522 C529 0.950 . S
C523 C521 1.387 . S
C523 C525 1.390 . S
C523 H527 0.950 . S
H524 C520 0.950 . S
C525 C523 1.390 . S
C525 C526 1.387 . S
C525 H528 0.950 . S
C526 C525 1.387 . S
C526 C529 1.387 . S
H527 C523 0.950 . S
H528 C525 0.950 . S
C529 C520 1.390 . S
C529 H522 0.950 . S
C529 C526 1.387 . S
C530 C531 1.387 . S
C530 H534 0.950 . S
C530 C539 1.390 . S
C531 C530 1.387 . S
C531 C533 1.387 . S
H532 C539 0.950 . S
C533 C531 1.387 . S
C533 C535 1.390 . S
C533 H537 0.950 . S
H534 C530 0.950 . S
C535 C533 1.390 . S
C535 C536 1.387 . S
C535 H538 0.950 . S
C536 C535 1.387 . S
C536 C539 1.387 . S
H537 C533 0.950 . S
H538 C535 0.950 . S
C539 C530 1.390 . S
C539 H532 0.950 . S
C539 C536 1.387 . S
C540 C541 1.387 . S
C540 H544 0.950 . S
C540 C549 1.390 1_554 S
C541 C540 1.387 . S
C541 C543 1.387 . S
H542 C549 0.950 . S
C543 C541 1.387 . S
C543 C545 1.390 1_554 S
C543 H547 0.950 . S
H544 C540 0.950 . S
C545 C543 1.390 1_556 S
C545 C546 1.387 . S
C545 H548 0.950 . S
C546 C545 1.387 . S
C546 C549 1.387 . S
H547 C543 0.950 . S
H548 C545 0.950 . S
C549 C540 1.390 1_556 S
C549 H542 0.950 . S
C549 C546 1.387 . S
C550 C551 1.387 . S
C550 H554 0.950 . S
C550 C559 1.390 . S
C551 C550 1.387 . S
C551 C553 1.387 . S
H552 C559 0.950 . S
C553 C551 1.387 . S
C553 C555 1.390 . S
C553 H557 0.950 . S
H554 C550 0.950 . S
C555 C553 1.390 . S
C555 C556 1.387 . S
C555 H558 0.950 . S
C556 C555 1.387 . S
C556 C559 1.387 . S
H557 C553 0.950 . S
H558 C555 0.950 . S
C559 C550 1.390 . S
C559 H552 0.950 . S
C559 C556 1.387 . S
C560 C561 1.387 . S
C560 H564 0.950 . S
C560 C569 1.390 . S
C561 C560 1.387 . S
C561 C563 1.387 . S
H562 C569 0.950 . S
C563 C561 1.387 . S
C563 C565 1.390 . S
C563 H567 0.950 . S
H564 C560 0.950 . S
C565 C563 1.390 . S
C565 C566 1.387 . S
C565 H568 0.950 . S
C566 C565 1.387 . S
C566 C569 1.387 . S
H567 C563 0.950 . S
H568 C565 0.950 . S
C569 C560 1.390 . S
C569 H562 0.950 . S
C569 C566 1.387 . S
C570 C571 1.387 . S
C570 H574 0.950 . S
C570 C579 1.390 1_554 S
C571 C570 1.387 . S
C571 C573 1.387 . S
H572 C579 0.950 . S
C573 C571 1.387 . S
C573 C575 1.390 1_554 S
C573 H577 0.950 . S
H574 C570 0.950 . S
C575 C573 1.390 1_556 S
C575 C576 1.387 . S
C575 H578 0.950 . S
C576 C575 1.387 . S
C576 C579 1.387 . S
H577 C573 0.950 . S
H578 C575 0.950 . S
C579 C570 1.390 1_556 S
C579 H572 0.950 . S
C579 C576 1.387 . S
C580 C581 1.387 . S
C580 H584 0.950 . S
C580 C589 1.390 . S
C581 C580 1.387 . S
C581 C583 1.387 . S
H582 C589 0.950 . S
C583 C581 1.387 . S
C583 C585 1.390 . S
C583 H587 0.950 . S
H584 C580 0.950 . S
C585 C583 1.390 . S
C585 C586 1.387 . S
C585 H588 0.950 . S
C586 C585 1.387 . S
C586 C589 1.387 . S
H587 C583 0.950 . S
H588 C585 0.950 . S
C589 C580 1.390 . S
C589 H582 0.950 . S
C589 C586 1.387 . S
C590 C591 1.387 . S
C590 H594 0.950 . S
C590 C599 1.390 . S
C591 C590 1.387 . S
C591 C593 1.387 . S
H592 C599 0.950 . S
C593 C591 1.387 . S
C593 C595 1.390 . S
C593 H597 0.950 . S
H594 C590 0.950 . S
C595 C593 1.390 . S
C595 C596 1.387 . S
C595 H598 0.950 . S
C596 C595 1.387 . S
C596 C599 1.387 . S
H597 C593 0.950 . S
H598 C595 0.950 . S
C599 C590 1.390 . S
C599 H592 0.950 . S
C599 C596 1.387 . S
C600 C601 1.387 . S
C600 H604 0.950 . S
C600 C609 1.390 1_566 S
C601 C600 1.387 . S
C601 C603 1.387 . S
H602 C609 0.950 . S
C603 C601 1.387 . S
C603 C605 1.390 1_566 S
C603 H607 0.950 . S
H604 C600 0.950 . S
C605 C603 1.390 1_544 S
C605 C606 1.387 . S
C605 H608 0.950 . S
C606 C605 1.387 . S
C606 C609 1.387 . S
H607 C603 0.950 . S
H608 C605 0.950 . S
C609 C600 1.390 1_544 S
C609 H602 0.950 . S
C609 C606 1.387 . S
C610 C611 1.387 . S
C610 H614 0.950 . S
C610 C619 1.390 . S
C611 C610 1.387 . S
C611 C613 1.387 . S
H612 C619 0.950 . S
C613 C611 1.387 . S
C613 C615 1.390 . S
C613 H617 0.950 . S
H614 C610 0.950 . S
C615 C613 1.390 . S
C615 C616 1.387 . S
C615 H618 0.950 . S
C616 C615 1.387 . S
C616 C619 1.387 . S
H617 C613 0.950 . S
H618 C615 0.950 . S
C619 C610 1.390 . S
C619 H612 0.950 . S
C619 C616 1.387 . S
C620 C621 1.387 1_655 S
C620 H624 0.950 . S
C620 C629 1.390 . S
C621 C620 1.387 1_455 S
C621 C623 1.387 . S
H622 C629 0.950 . S
C623 C621 1.387 . S
C623 C625 1.390 . S
C623 H627 0.950 . S
H624 C620 0.950 . S
C625 C623 1.390 . S
C625 C626 1.387 1_455 S
C625 H628 0.950 . S
C626 C625 1.387 1_655 S
C626 C629 1.387 . S
H627 C623 0.950 . S
H628 C625 0.950 . S
C629 C620 1.390 . S
C629 H622 0.950 . S
C629 C626 1.387 . S
C630 C631 1.387 . S
C630 H634 0.950 . S
C630 C639 1.390 1_564 S
C631 C630 1.387 . S
C631 C633 1.387 . S
H632 C639 0.950 . S
C633 C631 1.387 . S
C633 C635 1.390 1_564 S
C633 H637 0.950 . S
H634 C630 0.950 . S
C635 C633 1.390 1_546 S
C635 C636 1.387 . S
C635 H638 0.950 . S
C636 C635 1.387 . S
C636 C639 1.387 . S
H637 C633 0.950 . S
H638 C635 0.950 . S
C639 C630 1.390 1_546 S
C639 H632 0.950 . S
C639 C636 1.387 . S
C640 C641 1.387 . S
C640 H644 0.950 . S
C640 C649 1.390 . S
C641 C640 1.387 . S
C641 C643 1.387 . S
H642 C649 0.950 . S
C643 C641 1.387 . S
C643 C645 1.390 . S
C643 H647 0.950 . S
H644 C640 0.950 . S
C645 C643 1.390 . S
C645 C646 1.387 . S
C645 H648 0.950 . S
C646 C645 1.387 . S
C646 C649 1.387 . S
H647 C643 0.950 . S
H648 C645 0.950 . S
C649 C640 1.390 . S
C649 H642 0.950 . S
C649 C646 1.387 . S
C650 C651 1.387 1_655 S
C650 H654 0.950 . S
C650 C659 1.390 . S
C651 C650 1.387 1_455 S
C651 C653 1.387 . S
H652 C659 0.950 . S
C653 C651 1.387 . S
C653 C655 1.390 . S
C653 H657 0.950 . S
H654 C650 0.950 . S
C655 C653 1.390 . S
C655 C656 1.387 1_455 S
C655 H658 0.950 . S
C656 C655 1.387 1_655 S
C656 C659 1.387 . S
H657 C653 0.950 . S
H658 C655 0.950 . S
C659 C650 1.390 . S
C659 H652 0.950 . S
C659 C656 1.387 . S
C660 C661 1.387 . S
C660 H664 0.950 . S
C660 C669 1.390 1_545 S
C661 C660 1.387 . S
C661 C663 1.387 . S
H662 C669 0.950 . S
C663 C661 1.387 . S
C663 C665 1.390 1_545 S
C663 H667 0.950 . S
H664 C660 0.950 . S
C665 C663 1.390 1_565 S
C665 C666 1.387 . S
C665 H668 0.950 . S
C666 C665 1.387 . S
C666 C669 1.387 . S
H667 C663 0.950 . S
H668 C665 0.950 . S
C669 C660 1.390 1_565 S
C669 H662 0.950 . S
C669 C666 1.387 . S
C670 C671 1.387 . S
C670 H674 0.950 . S
C670 C679 1.390 . S
C671 C670 1.387 . S
C671 C673 1.387 . S
H672 C679 0.950 . S
C673 C671 1.387 . S
C673 C675 1.390 . S
C673 H677 0.950 . S
H674 C670 0.950 . S
C675 C673 1.390 . S
C675 C676 1.387 . S
C675 H678 0.950 . S
C676 C675 1.387 . S
C676 C679 1.387 . S
H677 C673 0.950 . S
H678 C675 0.950 . S
C679 C670 1.390 . S
C679 H672 0.950 . S
C679 C676 1.387 . S
C680 C681 1.387 1_455 S
C680 H684 0.950 . S
C680 C689 1.390 . S
C681 C680 1.387 1_655 S
C681 C683 1.387 . S
H682 C689 0.950 . S
C683 C681 1.387 . S
C683 C685 1.390 . S
C683 H687 0.950 . S
H684 C680 0.950 . S
C685 C683 1.390 . S
C685 C686 1.387 1_655 S
C685 H688 0.950 . S
C686 C685 1.387 1_455 S
C686 C689 1.387 . S
H687 C683 0.950 . S
H688 C685 0.950 . S
C689 C680 1.390 . S
C689 H682 0.950 . S
C689 C686 1.387 . S
C690 C691 1.387 . S
C690 H694 0.950 . S
C690 C699 1.390 1_455 S
C691 C690 1.387 . S
C691 C693 1.387 . S
H692 C699 0.950 . S
C693 C691 1.387 . S
C693 C695 1.390 1_455 S
C693 H697 0.950 . S
H694 C690 0.950 . S
C695 C693 1.390 1_655 S
C695 C696 1.387 . S
C695 H698 0.950 . S
C696 C695 1.387 . S
C696 C699 1.387 . S
H697 C693 0.950 . S
H698 C695 0.950 . S
C699 C690 1.390 1_655 S
C699 H692 0.950 . S
C699 C696 1.387 . S
C700 C701 1.387 . S
C700 H704 0.950 . S
C700 C709 1.390 1_565 S
C701 C700 1.387 . S
C701 C703 1.387 . S
H702 C709 0.950 . S
C703 C701 1.387 . S
C703 C705 1.390 1_565 S
C703 H707 0.950 . S
H704 C700 0.950 . S
C705 C703 1.390 1_545 S
C705 C706 1.387 . S
C705 H708 0.950 . S
C706 C705 1.387 . S
C706 C709 1.387 . S
H707 C703 0.950 . S
H708 C705 0.950 . S
C709 C700 1.390 1_545 S
C709 H702 0.950 . S
C709 C706 1.387 . S
C710 C711 1.387 . S
C710 H714 0.950 . S
C710 C719 1.390 . S
C711 C710 1.387 . S
C711 C713 1.387 . S
H712 C719 0.950 . S
C713 C711 1.387 . S
C713 C715 1.390 . S
C713 H717 0.950 . S
H714 C710 0.950 . S
C715 C713 1.390 . S
C715 C716 1.387 . S
C715 H718 0.950 . S
C716 C715 1.387 . S
C716 C719 1.387 . S
H717 C713 0.950 . S
H718 C715 0.950 . S
C719 C710 1.390 . S
C719 H712 0.950 . S
C719 C716 1.387 . S
C720 C721 1.387 . S
C720 H724 0.950 . S
C720 C729 1.390 1_565 S
C721 C720 1.387 . S
C721 C723 1.387 . S
H722 C729 0.950 . S
C723 C721 1.387 . S
C723 C725 1.390 1_565 S
C723 H727 0.950 . S
H724 C720 0.950 . S
C725 C723 1.390 1_545 S
C725 C726 1.387 . S
C725 H728 0.950 . S
C726 C725 1.387 . S
C726 C729 1.387 . S
H727 C723 0.950 . S
H728 C725 0.950 . S
C729 C720 1.390 1_545 S
C729 H722 0.950 . S
C729 C726 1.387 . S
C730 C731 1.387 . S
C730 H734 0.950 . S
C730 C739 1.390 . S
C731 C730 1.387 . S
C731 C733 1.387 . S
H732 C739 0.950 . S
C733 C731 1.387 . S
C733 C735 1.390 . S
C733 H737 0.950 . S
H734 C730 0.950 . S
C735 C733 1.390 . S
C735 C736 1.387 . S
C735 H738 0.950 . S
C736 C735 1.387 . S
C736 C739 1.387 . S
H737 C733 0.950 . S
H738 C735 0.950 . S
C739 C730 1.390 . S
C739 H732 0.950 . S
C739 C736 1.387 . S
C740 C741 1.387 . S
C740 H744 0.950 . S
C740 C749 1.390 1_655 S
C741 C740 1.387 . S
C741 C743 1.387 . S
H742 C749 0.950 . S
C743 C741 1.387 . S
C743 C745 1.390 1_655 S
C743 H747 0.950 . S
H744 C740 0.950 . S
C745 C743 1.390 1_455 S
C745 C746 1.387 . S
C745 H748 0.950 . S
C746 C745 1.387 . S
C746 C749 1.387 . S
H747 C743 0.950 . S
H748 C745 0.950 . S
C749 C740 1.390 1_455 S
C749 H742 0.950 . S
C749 C746 1.387 . S
C750 C751 1.387 . S
C750 H754 0.950 . S
C750 C759 1.390 1_545 S
C751 C750 1.387 . S
C751 C753 1.387 . S
H752 C759 0.950 . S
C753 C751 1.387 . S
C753 C755 1.390 1_545 S
C753 H757 0.950 . S
H754 C750 0.950 . S
C755 C753 1.390 1_565 S
C755 C756 1.387 . S
C755 H758 0.950 . S
C756 C755 1.387 . S
C756 C759 1.387 . S
H757 C753 0.950 . S
H758 C755 0.950 . S
C759 C750 1.390 1_565 S
C759 H752 0.950 . S
C759 C756 1.387 . S
C760 C761 1.387 . S
C760 H764 0.950 . S
C760 C769 1.390 . S
C761 C760 1.387 . S
C761 C763 1.387 . S
H762 C769 0.950 . S
C763 C761 1.387 . S
C763 C765 1.390 . S
C763 H767 0.950 . S
H764 C760 0.950 . S
C765 C763 1.390 . S
C765 C766 1.387 . S
C765 H768 0.950 . S
C766 C765 1.387 . S
C766 C769 1.387 . S
H767 C763 0.950 . S
H768 C765 0.950 . S
C769 C760 1.390 . S
C769 H762 0.950 . S
C769 C766 1.387 . S
C770 C771 1.387 . S
C770 H774 0.950 . S
C770 C779 1.390 1_455 S
C771 C770 1.387 . S
C771 C773 1.387 . S
H772 C779 0.950 . S
C773 C771 1.387 . S
C773 C775 1.390 1_455 S
C773 H777 0.950 . S
H774 C770 0.950 . S
C775 C773 1.390 1_655 S
C775 C776 1.387 . S
C775 H778 0.950 . S
C776 C775 1.387 . S
C776 C779 1.387 . S
H777 C773 0.950 . S
H778 C775 0.950 . S
C779 C770 1.390 1_655 S
C779 H772 0.950 . S
C779 C776 1.387 . S
C780 C781 1.387 . S
C780 H784 0.950 . S
C780 C789 1.390 . S
C781 C780 1.387 . S
C781 C783 1.387 . S
H782 C789 0.950 . S
C783 C781 1.387 . S
C783 C785 1.390 . S
C783 H787 0.950 . S
H784 C780 0.950 . S
C785 C783 1.390 . S
C785 C786 1.387 . S
C785 H788 0.950 . S
C786 C785 1.387 . S
C786 C789 1.387 . S
H787 C783 0.950 . S
H788 C785 0.950 . S
C789 C780 1.390 . S
C789 H782 0.950 . S
C789 C786 1.387 . S
C790 C791 1.387 . S
C790 H794 0.950 . S
C790 C799 1.390 . S
C791 C790 1.387 . S
C791 C793 1.387 . S
H792 C799 0.950 . S
C793 C791 1.387 . S
C793 C795 1.390 . S
C793 H797 0.950 . S
H794 C790 0.950 . S
C795 C793 1.390 . S
C795 C796 1.387 . S
C795 H798 0.950 . S
C796 C795 1.387 . S
C796 C799 1.387 . S
H797 C793 0.950 . S
H798 C795 0.950 . S
C799 C790 1.390 . S
C799 H792 0.950 . S
C799 C796 1.387 . S
C800 C801 1.387 . S
C800 H804 0.950 . S
C800 C809 1.390 . S
C801 C800 1.387 . S
C801 C803 1.387 . S
H802 C809 0.950 . S
C803 C801 1.387 . S
C803 C805 1.390 . S
C803 H807 0.950 . S
H804 C800 0.950 . S
C805 C803 1.390 . S
C805 C806 1.387 . S
C805 H808 0.950 . S
C806 C805 1.387 . S
C806 C809 1.387 . S
H807 C803 0.950 . S
H808 C805 0.950 . S
C809 C800 1.390 . S
C809 H802 0.950 . S
C809 C806 1.387 . S
C810 C811 1.387 . S
C810 H814 0.950 . S
C810 C819 1.390 . S
C811 C810 1.387 . S
C811 C813 1.387 . S
H812 C819 0.950 . S
C813 C811 1.387 . S
C813 C815 1.390 . S
C813 H817 0.950 . S
H814 C810 0.950 . S
C815 C813 1.390 . S
C815 C816 1.387 . S
C815 H818 0.950 . S
C816 C815 1.387 . S
C816 C819 1.387 . S
H817 C813 0.950 . S
H818 C815 0.950 . S
C819 C810 1.390 . S
C819 H812 0.950 . S
C819 C816 1.387 . S
C820 C821 1.387 . S
C820 H824 0.950 . S
C820 C829 1.390 . S
C821 C820 1.387 . S
C821 C823 1.387 . S
H822 C829 0.950 . S
C823 C821 1.387 . S
C823 C825 1.390 . S
C823 H827 0.950 . S
H824 C820 0.950 . S
C825 C823 1.390 . S
C825 C826 1.387 . S
C825 H828 0.950 . S
C826 C825 1.387 . S
C826 C829 1.387 . S
H827 C823 0.950 . S
H828 C825 0.950 . S
C829 C820 1.390 . S
C829 H822 0.950 . S
C829 C826 1.387 . S
C830 C831 1.387 . S
C830 H834 0.950 . S
C830 C839 1.390 . S
C831 C830 1.387 . S
C831 C833 1.387 . S
H832 C839 0.950 . S
C833 C831 1.387 . S
C833 C835 1.390 . S
C833 H837 0.950 . S
H834 C830 0.950 . S
C835 C833 1.390 . S
C835 C836 1.387 . S
C835 H838 0.950 . S
C836 C835 1.387 . S
C836 C839 1.387 . S
H837 C833 0.950 . S
H838 C835 0.950 . S
C839 C830 1.390 . S
C839 H832 0.950 . S
C839 C836 1.387 . S
C481 C2 1.361 . S
C486 C322 1.362 . S
C491 C42 1.365 . S
C496 C362 1.365 . S
C501 C82 1.360 . S
C506 C402 1.361 . S
C511 C442 1.362 . S
C516 C122 1.361 . S
C521 C162 1.362 . S
C526 C242 1.364 . S
C531 C282 1.360 . S
C536 C202 1.361 . S
C541 C426 1.270 . S
C546 C26 1.272 . S
C551 C466 1.269 . S
C556 C66 1.271 . S
C561 C106 1.272 . S
C566 C266 1.271 . S
C571 C306 1.270 . S
C576 C146 1.270 . S
C581 C346 1.270 . S
C586 C186 1.269 . S
C591 C226 1.271 . S
C596 C386 1.270 . S
C601 C283 4.464 . S
C606 C3 4.464 . S
C611 C323 4.464 . S
C616 C43 4.464 . S
C621 C363 4.463 . S
C626 C83 4.464 . S
C631 C123 4.464 . S
C636 C403 4.464 . S
C641 C163 4.464 . S
C646 C443 4.464 . S
C651 C203 4.464 . S
C656 C243 4.464 . S
C661 C15 1.185 . S
C666 C135 1.185 . S
C671 C55 1.185 . S
C676 C175 1.185 . S
C681 C95 1.184 . S
C686 C215 1.181 . S
C691 C375 1.185 . S
C696 C255 1.185 . S
C701 C295 1.184 . S
C706 C415 1.184 . S
C711 C455 1.185 . S
C716 C335 1.185 . S
C721 C289 0.822 . S
C726 C9 0.822 . S
C731 C329 0.821 . S
C736 C49 0.821 . S
C741 C89 0.821 . S
C746 C369 0.819 . S
C751 C409 0.811 . S
C756 C129 0.811 . S
C761 C449 0.821 . S
C766 C169 0.821 . S
C771 C209 0.819 . S
C776 C249 0.817 . S
C781 C22 4.724 . S
C786 C422 4.724 . S
C791 C62 4.724 . S
C796 C462 4.725 1_556 S
C801 C102 4.724 1_554 S
C806 C262 4.725 . S
C811 C142 4.724 . S
C816 C302 4.724 . S
C821 C182 4.725 . S
C826 C342 4.724 1_556 S
C831 C382 4.725 . S
C836 C222 4.724 1_554 S
