# Generated by pormake.
# Topology xft, (5)-cn, num edge types: 1
# Building blocks:
#     Node 0, Type 0, BuildingBlock: BEQFEK_clean_sbu_0, # of connection points: 5
#     Node 1, Type 0, BuildingBlock: BEQFEK_clean_sbu_0, # of connection points: 5
#     Node 2, Type 0, BuildingBlock: BEQFEK_clean_sbu_0, # of connection points: 5
#     Node 3, Type 0, BuildingBlock: BEQFEK_clean_sbu_0, # of connection points: 5
#     Node 4, Type 0, BuildingBlock: BEQFEK_clean_sbu_0, # of connection points: 5
#     Node 5, Type 0, BuildingBlock: BEQFEK_clean_sbu_0, # of connection points: 5
#     Node 6, Type 0, BuildingBlock: BEQFEK_clean_sbu_0, # of connection points: 5
#     Node 7, Type 0, BuildingBlock: BEQFEK_clean_sbu_0, # of connection points: 5
#     Edge 8, Type (0, 0), BuildingBlock: XIVTED_clean_linker_0, # of connection points: 2
#     Edge 9, Type (0, 0), BuildingBlock: XIVTED_clean_linker_0, # of connection points: 2
#     Edge 10, Type (0, 0), BuildingBlock: XIVTED_clean_linker_0, # of connection points: 2
#     Edge 11, Type (0, 0), BuildingBlock: XIVTED_clean_linker_0, # of connection points: 2
#     Edge 12, Type (0, 0), BuildingBlock: XIVTED_clean_linker_0, # of connection points: 2
#     Edge 13, Type (0, 0), BuildingBlock: XIVTED_clean_linker_0, # of connection points: 2
#     Edge 14, Type (0, 0), BuildingBlock: XIVTED_clean_linker_0, # of connection points: 2
#     Edge 15, Type (0, 0), BuildingBlock: XIVTED_clean_linker_0, # of connection points: 2
#     Edge 16, Type (0, 0), BuildingBlock: XIVTED_clean_linker_0, # of connection points: 2
#     Edge 17, Type (0, 0), BuildingBlock: XIVTED_clean_linker_0, # of connection points: 2
#     Edge 18, Type (0, 0), BuildingBlock: XIVTED_clean_linker_0, # of connection points: 2
#     Edge 19, Type (0, 0), BuildingBlock: XIVTED_clean_linker_0, # of connection points: 2
#     Edge 20, Type (0, 0), BuildingBlock: XIVTED_clean_linker_0, # of connection points: 2
#     Edge 21, Type (0, 0), BuildingBlock: XIVTED_clean_linker_0, # of connection points: 2
#     Edge 22, Type (0, 0), BuildingBlock: XIVTED_clean_linker_0, # of connection points: 2
#     Edge 23, Type (0, 0), BuildingBlock: XIVTED_clean_linker_0, # of connection points: 2
#     Edge 24, Type (0, 0), BuildingBlock: XIVTED_clean_linker_0, # of connection points: 2
#     Edge 25, Type (0, 0), BuildingBlock: XIVTED_clean_linker_0, # of connection points: 2
#     Edge 26, Type (0, 0), BuildingBlock: XIVTED_clean_linker_0, # of connection points: 2
#     Edge 27, Type (0, 0), BuildingBlock: XIVTED_clean_linker_0, # of connection points: 2
# Relax obj value: 0.418
# Max RMSD: 0.298
# Mean RMSD: 0.298
data_MOF--net-xft--node1-BEQFEK_clean_sbu_0--edge1-XIVTED_clean_linker_0
_symmetry_space_group_name_H-M    P1
_symmetry_Int_Tables_number       1
_symmetry_cell_setting            triclinic
loop_
_symmetry_equiv_pos_as_xyz
'x, y, z'
_cell_length_a     38.276048
_cell_length_b     37.931474
_cell_length_c     36.897167
_cell_angle_alpha  89.270504
_cell_angle_beta   90.3227
_cell_angle_gamma 89.416088
loop_
_atom_site_label
_atom_site_type_symbol
_atom_site_fract_x
_atom_site_fract_y
_atom_site_fract_z
_atom_type_partial_charge
Co0 Co 0.2659 0.03587 0.65631 0.0
Co1 Co 0.25013 0.97964 0.7165 0.0
C2 C 0.25831 0.96158 0.63714 0.0
O3 O 0.26209 0.99325 0.62627 0.0
O4 O 0.25452 0.95413 0.67056 0.0
C5 C 0.29199 0.07429 0.59669 0.0
O6 O 0.30342 0.04281 0.5878 0.0
C7 C 0.20567 0.92502 0.74753 0.0
C8 C 0.23216 0.91332 0.79974 0.0
C9 C 0.20418 0.9035 0.7782 0.0
N10 N 0.23315 0.94655 0.75099 0.0
N11 N 0.24887 0.93944 0.78223 0.0
C12 C 0.18287 0.92384 0.71443 0.0
H13 H 0.17658 0.89615 0.70779 0.0
H14 H 0.1955 0.93683 0.69101 0.0
H15 H 0.15807 0.93823 0.71953 0.0
C16 C 0.20159 0.06805 0.68637 0.0
N17 N 0.22596 0.04223 0.68544 0.0
N18 N 0.21966 0.01897 0.71129 0.0
C19 C 0.19124 0.02943 0.72976 0.0
C20 C 0.17865 0.06059 0.7143 0.0
C21 C 0.20045 0.099 0.66087 0.0
H22 H 0.22234 0.11685 0.66737 0.0
H23 H 0.20409 0.08985 0.63268 0.0
H24 H 0.17537 0.11378 0.66285 0.0
O25 O 0.30878 0.03157 0.68675 0.0
O26 O 0.29714 0.99439 0.73188 0.0
H27 H 0.20051 0.00062 0.77949 0.0
H28 H 0.16372 0.03076 0.78074 0.0
C29 C 0.1783 0.01186 0.76362 0.0
H30 H 0.16044 0.99026 0.75627 0.0
H31 H 0.27127 0.9521 0.79137 0.0
O32 O 0.2734 0.07752 0.62489 0.0
C33 C 0.31792 0.01518 0.7157 0.0
Co34 Co 0.96216 0.79879 0.94904 0.0
Co35 Co 0.0282 0.78761 -0.0017 0.0
C36 C 0.0314 0.78241 0.91725 0.0
O37 O -0.001 0.78905 0.91293 0.0
O38 O 0.04511 0.78075 0.94867 0.0
C39 C 0.91769 0.82459 0.89595 0.0
O40 O 0.94762 0.83851 0.88644 0.0
C41 C 0.083 0.74271 0.02845 0.0
C42 C 0.10407 0.77463 0.07301 0.0
C43 C 0.10773 0.7422 0.05627 0.0
N44 N 0.06571 0.77366 0.02917 0.0
N45 N 0.07866 0.79287 0.05551 0.0
C46 C 0.07366 0.71382 0.00298 0.0
H47 H 0.04782 0.71914 -0.00985 0.0
H48 H 0.07304 0.68805 0.01753 0.0
H49 H 0.09348 0.71242 0.98122 0.0
C50 C 0.93491 0.74267 -0.00283 0.0
N51 N 0.96066 0.76397 -0.01418 0.0
N52 N 0.98753 0.76082 0.00809 0.0
C53 C 0.97933 0.73812 0.03501 0.0
C54 C 0.94587 0.7257 0.02878 0.0
C55 C 0.89978 0.74079 0.9794 0.0
H56 H 0.88647 0.76681 0.98144 0.0
H57 H 0.90307 0.73515 0.95017 0.0
H58 H 0.88325 0.72031 -0.0078 0.0
O59 O 0.97085 0.84533 0.97103 0.0
O60 O 0.01882 0.83841 0.00477 0.0
H61 H 0.98857 0.71771 0.08957 0.0
H62 H 0.02205 0.70834 0.05749 0.0
C63 C 0.00303 0.72869 0.06619 0.0
H64 H 0.01751 0.75225 0.07502 0.0
H65 H 0.0697 0.81808 0.06198 0.0
O66 O 0.917 0.80395 0.92331 0.0
C67 C -0.00586 0.85766 -0.008 0.0
Co68 Co 0.21428 0.45327 0.18511 0.0
Co69 Co 0.24469 0.50542 0.2417 0.0
C70 C 0.2182 0.53005 0.1689 0.0
O71 O 0.21005 0.49938 0.15832 0.0
O72 O 0.2312 0.5347 0.20012 0.0
C73 C 0.19521 0.41972 0.1184 0.0
O74 O 0.2009 0.45087 0.1038 0.0
C75 C 0.29464 0.55804 0.26327 0.0
C76 C 0.27697 0.57124 0.31843 0.0
C77 C 0.30049 0.58073 0.29168 0.0
N78 N 0.26874 0.53622 0.27274 0.0
N79 N 0.25846 0.54399 0.30583 0.0
C80 C 0.31065 0.55939 0.22634 0.0
H81 H 0.30968 0.5868 0.21545 0.0
H82 H 0.29714 0.5414 0.20757 0.0
H83 H 0.33844 0.55105 0.22813 0.0
C84 C 0.28364 0.41863 0.1987 0.0
N85 N 0.26034 0.4451 0.20325 0.0
N86 N 0.27263 0.46688 0.22758 0.0
C87 C 0.30388 0.45498 0.23947 0.0
C88 C 0.31219 0.42428 0.22122 0.0
C89 C 0.27795 0.38808 0.17422 0.0
H90 H 0.27006 0.39796 0.14691 0.0
H91 H 0.30186 0.37146 0.17202 0.0
H92 H 0.25626 0.37188 0.18494 0.0
O93 O 0.18004 0.4528 0.22593 0.0
O94 O 0.20226 0.48956 0.26617 0.0
H95 H 0.34044 0.45016 0.28439 0.0
H96 H 0.33963 0.4922 0.26124 0.0
C97 C 0.32323 0.47014 0.27097 0.0
H98 H 0.30456 0.48035 0.29123 0.0
H99 H 0.23784 0.53169 0.31918 0.0
O100 O 0.20037 0.41495 0.15219 0.0
C101 C 0.17855 0.46845 0.25631 0.0
Co102 Co 0.54029 0.71404 0.43258 0.0
Co103 Co 0.47209 0.7308 0.47555 0.0
C104 C 0.47214 0.72501 0.39473 0.0
O105 O 0.50466 0.71776 0.39333 0.0
O106 O 0.45712 0.73103 0.4247 0.0
C107 C 0.58965 0.68844 0.38311 0.0
O108 O 0.56106 0.67814 0.36667 0.0
C109 C 0.41153 0.77243 0.49826 0.0
C110 C 0.39192 0.73998 0.54376 0.0
C111 C 0.38482 0.77059 0.52386 0.0
N112 N 0.43284 0.74442 0.50325 0.0
N113 N 0.42089 0.72501 0.53028 0.0
C114 C 0.41804 0.80016 0.46997 0.0
H115 H 0.4442 0.79636 0.45769 0.0
H116 H 0.41653 0.82676 0.48205 0.0
H117 H 0.39805 0.79829 0.4482 0.0
C118 C 0.56325 0.77875 0.46927 0.0
N119 N 0.53918 0.75403 0.46257 0.0
N120 N 0.51109 0.76047 0.48193 0.0
C121 C 0.51664 0.78925 0.50206 0.0
C122 C 0.54966 0.802 0.49434 0.0
C123 C 0.59798 0.78046 0.45096 0.0
H124 H 0.61532 0.75946 0.46241 0.0
H125 H 0.59468 0.77548 0.42158 0.0
H126 H 0.61044 0.80645 0.45471 0.0
O127 O 0.53206 0.67042 0.46126 0.0
O128 O 0.4828 0.68196 0.49024 0.0
H129 H 0.47668 0.78094 0.54196 0.0
H130 H 0.5065 0.81608 0.5522 0.0
C131 C 0.49203 0.80281 0.53016 0.0
H132 H 0.47391 0.82237 0.51747 0.0
H133 H 0.43246 0.7015 0.53947 0.0
O134 O 0.58705 0.70664 0.41164 0.0
C135 C 0.50778 0.66114 0.48261 0.0
Co136 Co 0.64273 0.00393 0.7302 0.0
Co137 Co 0.6365 0.02961 0.80948 0.0
C138 C 0.6539 0.07689 0.74368 0.0
O139 O 0.65783 0.05233 0.72097 0.0
O140 O 0.6447 0.07012 0.77604 0.0
C141 C 0.62707 0.98852 0.65773 0.0
O142 O 0.60884 0.01792 0.66027 0.0
C143 C 0.68222 0.06056 0.85999 0.0
C144 C 0.64965 0.07722 0.90599 0.0
C145 C 0.68338 0.07834 0.89242 0.0
N146 N 0.64968 0.04885 0.85473 0.0
N147 N 0.63018 0.05866 0.88237 0.0
C148 C 0.7104 0.05897 0.83187 0.0
H149 H 0.70026 0.0497 0.8056 0.0
H150 H 0.73128 0.04033 0.84082 0.0
H151 H 0.72228 0.08533 0.82812 0.0
C152 C 0.69365 0.95475 0.76377 0.0
N153 N 0.6698 0.98089 0.76573 0.0
N154 N 0.6654 0.9896 0.79974 0.0
C155 C 0.68575 0.9684 0.8208 0.0
C156 C 0.7047 0.94595 0.79862 0.0
C157 C 0.70499 0.93834 0.72902 0.0
H158 H 0.68213 0.9259 0.71594 0.0
H159 H 0.71458 0.95917 0.71027 0.0
H160 H 0.7256 0.91795 0.73342 0.0
O161 O 0.59296 0.00555 0.74528 0.0
O162 O 0.58643 0.01834 0.8036 0.0
H163 H 0.66507 0.98421 0.87239 0.0
H164 H 0.69055 0.94407 0.8737 0.0
C165 C 0.68835 0.97071 0.86121 0.0
H166 H 0.7122 0.98537 0.86865 0.0
H167 H 0.60339 0.05418 0.88429 0.0
O168 O 0.64483 0.97767 0.68485 0.0
C169 C 0.5735 0.01048 0.77279 0.0
Co170 Co 0.98309 0.18006 0.94144 0.0
Co171 Co 0.95003 0.18615 0.01809 0.0
C172 C 0.90651 0.19044 0.95054 0.0
O173 O 0.93268 0.18635 0.92982 0.0
O174 O 0.91027 0.19154 -0.01532 0.0
C175 C -0.00154 0.16181 0.86982 0.0
O176 O 0.96893 0.14485 0.87368 0.0
C177 C 0.91384 0.22604 0.0722 0.0
C178 C 0.91751 0.19185 0.12099 0.0
C179 C 0.90427 0.22406 0.10848 0.0
N180 N 0.93177 0.19667 0.0641 0.0
N181 N 0.9336 0.17607 0.09315 0.0
C182 C 0.90838 0.25578 0.0456 0.0
H183 H 0.92558 0.25255 0.02175 0.0
H184 H 0.9139 0.28143 0.05846 0.0
H185 H 0.88089 0.25584 0.03591 0.0
C186 C 0.02837 0.23578 0.97062 0.0
N187 N 0.00046 0.21457 0.97309 0.0
N188 N 0.98773 0.21604 0.00607 0.0
C189 C 0.00754 0.23778 0.02596 0.0
C190 C 0.03386 0.2511 0.00409 0.0
C191 C 0.0515 0.23785 0.93812 0.0
H192 H 0.06311 0.21144 0.93315 0.0
H193 H 0.03559 0.24537 0.91395 0.0
H194 H 0.0728 0.25712 0.94175 0.0
O195 O 0.99012 0.13249 0.96374 0.0
O196 O 0.96517 0.13639 0.01786 0.0
H197 H 0.02449 0.25788 0.0781 0.0
H198 H 0.97881 0.2619 0.06859 0.0
C199 C 0.00199 0.24456 0.06545 0.0
H200 H -0.00297 0.21935 0.07999 0.0
H201 H 0.94608 0.15148 0.09402 0.0
O202 O 0.0096 0.18028 0.89582 0.0
C203 C 0.98125 0.1187 -0.00605 0.0
Co204 Co 0.88168 0.50316 0.27107 0.0
Co205 Co 0.86268 0.45526 0.33854 0.0
C206 C 0.85808 0.4291 0.26183 0.0
O207 O 0.86826 0.45823 0.2483 0.0
O208 O 0.85489 0.42489 0.29594 0.0
C209 C 0.87716 0.53608 0.20016 0.0
O210 O 0.8613 0.50716 0.19034 0.0
C211 C 0.82657 0.40236 0.38195 0.0
C212 C 0.82211 0.42743 0.4352 0.0
C213 C 0.81028 0.39921 0.41519 0.0
N214 N 0.84559 0.43187 0.38138 0.0
N215 N 0.84401 0.44602 0.4139 0.0
C216 C 0.82479 0.37704 0.35143 0.0
H217 H 0.85145 0.37296 0.34057 0.0
H218 H 0.8076 0.38824 0.3298 0.0
H219 H 0.81447 0.35115 0.36044 0.0
C220 C 0.82641 0.54775 0.3013 0.0
N221 N 0.84714 0.51893 0.30313 0.0
N222 N 0.83796 0.49902 0.3309 0.0
C223 C 0.81008 0.51431 0.34695 0.0
C224 C 0.80222 0.54576 0.3289 0.0
C225 C 0.82991 0.57669 0.27363 0.0
H226 H 0.85765 0.58463 0.27184 0.0
H227 H 0.82156 0.56691 0.24676 0.0
H228 H 0.81388 0.60016 0.28057 0.0
O229 O 0.92637 0.49655 0.29669 0.0
O230 O 0.91415 0.46141 0.34363 0.0
H231 H 0.80051 0.50198 0.40259 0.0
H232 H 0.7615 0.50846 0.37598 0.0
C233 C 0.7884 0.49727 0.37576 0.0
H234 H 0.78685 0.46853 0.37119 0.0
H235 H 0.85573 0.46978 0.42071 0.0
O236 O 0.88821 0.53898 0.23252 0.0
C237 C 0.93581 0.47899 0.32473 0.0
Co238 Co 0.50021 0.34152 0.45935 0.0
Co239 Co 0.52405 0.33303 0.54033 0.0
C240 C 0.57372 0.32399 0.47833 0.0
O241 O 0.55033 0.32903 0.45413 0.0
O242 O 0.5663 0.32523 0.51174 0.0
C243 C 0.48056 0.32211 0.38541 0.0
O244 O 0.49428 0.29081 0.39206 0.0
C245 C 0.55875 0.2932 0.59652 0.0
C246 C 0.54906 0.32352 0.64624 0.0
C247 C 0.56703 0.29445 0.63309 0.0
N248 N 0.53756 0.32051 0.58829 0.0
N249 N 0.53179 0.33867 0.61802 0.0
C250 C 0.56881 0.26547 0.56984 0.0
H251 H 0.54985 0.26509 0.54699 0.0
H252 H 0.56992 0.23907 0.58314 0.0
H253 H 0.59495 0.27147 0.55866 0.0
C254 C 0.44793 0.28857 0.48392 0.0
N255 N 0.47601 0.30904 0.48942 0.0
N256 N 0.48601 0.30576 0.52354 0.0
C257 C 0.46477 0.283 0.54074 0.0
C258 C 0.44005 0.2713 0.51612 0.0
C259 C 0.4272 0.2876 0.44945 0.0
H260 H 0.42578 0.31425 0.43686 0.0
H261 H 0.44012 0.26932 0.4304 0.0
H262 H 0.40029 0.27811 0.45441 0.0
O263 O 0.49616 0.38931 0.48025 0.0
O264 O 0.51299 0.38377 0.5379 0.0
H265 H 0.4697 0.29601 0.59681 0.0
H266 H 0.44765 0.25475 0.58905 0.0
C267 C 0.46891 0.27218 0.57972 0.0
H268 H 0.49403 0.25779 0.58335 0.0
H269 H 0.51663 0.36166 0.61893 0.0
O270 O 0.48013 0.34531 0.40997 0.0
C271 C 0.50204 0.40249 0.51126 0.0
H272 H 0.11183 0.03886 0.72049 0.0
H273 H 0.06117 0.19217 0.85323 0.0
H274 H 0.17764 0.12873 0.73708 0.0
H275 H 0.98726 0.1158 0.81466 0.0
H276 H 0.10216 0.17334 0.80659 0.0
H277 H 0.06384 0.06986 0.75027 0.0
C278 C 0.11582 0.06546 0.72993 0.0
C279 C 0.14846 0.08138 0.72666 0.0
C280 C 0.07675 0.16112 0.80795 0.0
C281 C 0.09425 0.11674 0.76133 0.0
C282 C 0.05335 0.17181 0.83461 0.0
C283 C 0.021 0.15506 0.83826 0.0
C284 C 0.06786 0.13322 0.78512 0.0
C285 C 0.0121 0.12912 0.81317 0.0
C286 C 0.08852 0.08318 0.74688 0.0
C287 C 0.15265 0.11577 0.73918 0.0
N288 N 0.03563 0.11861 0.78804 0.0
N289 N 0.12595 0.13218 0.75659 0.0
H290 H 0.92397 0.66044 0.00985 0.0
H291 H 0.89468 0.60381 0.21518 0.0
H292 H 0.92497 0.73329 0.09842 0.0
H293 H 0.8694 0.53561 0.1262 0.0
H294 H 0.90399 0.65193 0.17219 0.0
H295 H 0.90088 0.61483 0.05081 0.0
C296 C 0.91867 0.66686 0.03783 0.0
C297 C 0.92672 0.70019 0.05121 0.0
C298 C 0.89615 0.62655 0.162 0.0
C299 C 0.90103 0.64859 0.09803 0.0
C300 C 0.89102 0.59897 0.18655 0.0
C301 C 0.88158 0.56556 0.1742 0.0
C302 C 0.89228 0.62064 0.12471 0.0
C303 C 0.87683 0.56094 0.13683 0.0
C304 C 0.90566 0.64093 0.06118 0.0
C305 C 0.91951 0.70757 0.08745 0.0
N306 N 0.88262 0.58812 0.1133 0.0
N307 N 0.9075 0.6818 0.10979 0.0
H308 H 0.38045 0.44167 0.21803 0.0
H309 H 0.43948 0.27911 0.34434 0.0
H310 H 0.3123 0.35545 0.24421 0.0
H311 H 0.48181 0.3839 0.34814 0.0
H312 H 0.40325 0.2975 0.29184 0.0
H313 H 0.42875 0.41011 0.24815 0.0
C314 C 0.37605 0.41552 0.22916 0.0
C315 C 0.34252 0.40117 0.22915 0.0
C316 C 0.42108 0.31612 0.30377 0.0
C317 C 0.39712 0.36536 0.26416 0.0
C318 C 0.44175 0.30566 0.33351 0.0
C319 C 0.46321 0.33024 0.3506 0.0
C320 C 0.42265 0.35109 0.2909 0.0
C321 C 0.4652 0.36435 0.33589 0.0
C322 C 0.40347 0.39765 0.24651 0.0
C323 C 0.33792 0.36728 0.24383 0.0
N324 N 0.44504 0.37382 0.30699 0.0
N325 N 0.36486 0.35069 0.26147 0.0
H326 H 0.6637 0.92839 0.64216 0.0
H327 H 0.52322 0.86853 0.49728 0.0
H328 H 0.58083 -0.00371 0.60133 0.0
H329 H 0.61339 0.8056 0.52741 0.0
H330 H 0.54768 0.91827 0.53003 0.0
H331 H 0.65014 0.88602 0.59506 0.0
C332 C 0.64294 0.9346 0.62298 0.0
C333 C 0.62293 0.96562 0.62604 0.0
C334 C 0.56243 0.89379 0.52911 0.0
C335 C 0.60709 0.91711 0.57231 0.0
C336 C 0.5484 0.86545 0.51057 0.0
C337 C 0.56628 0.83309 0.51012 0.0
C338 C 0.59434 0.88948 0.54772 0.0
C339 C 0.59892 0.83028 0.52725 0.0
C340 C 0.63523 0.9104 0.59606 0.0
C341 C 0.59666 0.97252 0.6002 0.0
N342 N 0.61176 0.85803 0.54584 0.0
N343 N 0.58914 0.94818 0.57474 0.0
H344 H 0.88734 0.15938 0.88735 0.0
H345 H 0.68419 0.14576 0.91884 0.0
H346 H 0.84447 0.20982 0.98175 0.0
H347 H 0.75092 0.05623 0.89742 0.0
H348 H 0.73683 0.18139 0.93006 0.0
H349 H 0.82961 0.13588 0.87378 0.0
C350 C 0.86561 0.16655 0.90453 0.0
C351 C 0.87081 0.18605 0.93608 0.0
C352 C 0.73961 0.15392 0.92282 0.0
C353 C 0.80505 0.15914 0.92073 0.0
C354 C 0.70982 0.13358 0.91685 0.0
C355 C 0.71342 0.09836 0.90614 0.0
C356 C 0.77274 0.13882 0.91728 0.0
C357 C 0.74706 0.08368 0.90404 0.0
C358 C 0.83282 0.15281 0.89697 0.0
C359 C 0.84158 0.19442 0.95742 0.0
N360 N 0.77544 0.10413 0.90888 0.0
N361 N 0.80984 0.18052 0.94961 0.0
H362 H 0.91102 0.23046 0.18136 0.0
H363 H 0.83758 0.36234 0.28072 0.0
H364 H 0.85904 0.27938 0.08911 0.0
H365 H 0.86752 0.42544 0.18805 0.0
H366 H 0.84013 0.31 0.2438 0.0
H367 H 0.89054 0.27865 0.21882 0.0
C368 C 0.89518 0.25114 0.16887 0.0
C369 C 0.88814 0.25143 0.13151 0.0
C370 C 0.84589 0.33539 0.23158 0.0
C371 C 0.86455 0.30666 0.17443 0.0
C372 C 0.84439 0.36544 0.25265 0.0
C373 C 0.85337 0.39841 0.23797 0.0
C374 C 0.85637 0.33827 0.19543 0.0
C375 C 0.86106 0.4005 0.2008 0.0
C376 C 0.88338 0.27856 0.19038 0.0
C377 C 0.86711 0.27891 0.11714 0.0
N378 N 0.86277 0.37067 0.18079 0.0
N379 N 0.85672 0.30595 0.13849 0.0
H380 H 0.63065 0.31643 0.52319 0.0
H381 H 0.75708 0.38334 0.36887 0.0
H382 H 0.60183 0.32704 0.41018 0.0
H383 H 0.79012 0.37025 0.48027 0.0
H384 H 0.70346 0.3532 0.38251 0.0
H385 H 0.69154 0.32566 0.50703 0.0
C386 C 0.63714 0.32 0.49486 0.0
C387 C 0.61091 0.32171 0.46803 0.0
C388 C 0.72259 0.35616 0.40395 0.0
C389 C 0.68062 0.33267 0.44954 0.0
C390 C 0.75369 0.37301 0.39604 0.0
C391 C 0.77883 0.37828 0.42323 0.0
C392 C 0.7158 0.34537 0.43965 0.0
C393 C 0.77158 0.36631 0.45846 0.0
C394 C 0.67198 0.32538 0.48572 0.0
C395 C 0.62103 0.32605 0.43183 0.0
N396 N 0.74053 0.35059 0.46577 0.0
N397 N 0.65503 0.33192 0.42373 0.0
H398 H 0.55776 0.27205 0.70281 0.0
H399 H 0.67233 0.10318 0.67685 0.0
H400 H 0.62785 0.26153 0.61238 0.0
H401 H 0.6365 0.13541 0.78231 0.0
H402 H 0.66038 0.16275 0.65375 0.0
H403 H 0.5896 0.22443 0.73433 0.0
C404 C 0.58002 0.25991 0.68972 0.0
C405 C 0.58915 0.26952 0.65427 0.0
C406 C 0.65583 0.15694 0.68214 0.0
C407 C 0.62553 0.21516 0.6899 0.0
C408 C 0.66265 0.12292 0.69533 0.0
C409 C 0.65466 0.11406 0.73134 0.0
C410 C 0.64039 0.18196 0.70498 0.0
C411 C 0.64248 0.14085 0.75416 0.0
C412 C 0.59823 0.2328 0.7077 0.0
C413 C 0.61862 0.25349 0.63882 0.0
N414 N 0.63496 0.17339 0.74039 0.0
N415 N 0.63535 0.22656 0.65641 0.0
H416 H 0.75244 0.56698 0.28024 0.0
H417 H 0.65149 0.68973 0.42076 0.0
H418 H 0.78459 0.57858 0.39153 0.0
H419 H 0.60551 0.65343 0.321 0.0
H420 H 0.70536 0.65788 0.40613 0.0
H421 H 0.7028 0.60669 0.29097 0.0
C422 C 0.74905 0.57817 0.30687 0.0
C423 C 0.77242 0.56977 0.33509 0.0
C424 C 0.68355 0.65716 0.38734 0.0
C425 C 0.71602 0.61496 0.34759 0.0
C426 C 0.65288 0.67551 0.39553 0.0
C427 C 0.62386 0.67392 0.3722 0.0
C428 C 0.68526 0.63739 0.35549 0.0
C429 C 0.62715 0.6551 0.3399 0.0
C430 C 0.72077 0.60068 0.31302 0.0
C431 C 0.76691 0.58448 0.36921 0.0
N432 N 0.65725 0.6374 0.33258 0.0
N433 N 0.73922 0.60648 0.37455 0.0
H434 H 0.42959 0.21095 0.47901 0.0
H435 H 0.2812 0.14358 0.61394 0.0
H436 H 0.38799 0.27261 0.56634 0.0
H437 H 0.33397 0.07704 0.53701 0.0
H438 H 0.31175 0.19448 0.58886 0.0
H439 H 0.38672 0.16508 0.49226 0.0
C440 C 0.41114 0.21484 0.50079 0.0
C441 C 0.41254 0.24503 0.52215 0.0
C442 C 0.31633 0.1688 0.5772 0.0
C443 C 0.36365 0.19305 0.53749 0.0
C444 C 0.29881 0.13973 0.59142 0.0
C445 C 0.30552 0.1059 0.57795 0.0
C446 C 0.34068 0.16399 0.54933 0.0
C447 C 0.32836 0.10255 0.54856 0.0
C448 C 0.38677 0.18873 0.50839 0.0
C449 C 0.38807 0.24919 0.54985 0.0
N450 N 0.34543 0.13118 0.53549 0.0
N451 N 0.36476 0.2233 0.55698 0.0
H452 H 0.84999 0.80879 0.91396 0.0
H453 H 0.77095 0.95156 0.77421 0.0
H454 H 0.91121 0.86728 0.83629 0.0
H455 H 0.70704 0.89003 0.84646 0.0
H456 H 0.82212 0.91727 0.79382 0.0
H457 H 0.79675 0.83436 0.88691 0.0
C458 C 0.85222 0.82667 0.89098 0.0
C459 C 0.8851 0.83623 0.8776 0.0
C460 C 0.79694 0.91104 0.80534 0.0
C461 C 0.82446 0.86566 0.84677 0.0
C462 C 0.76777 0.93054 0.79405 0.0
C463 C 0.73499 0.92367 0.80902 0.0
C464 C 0.79334 0.88462 0.83206 0.0
C465 C 0.73211 0.89646 0.83483 0.0
C466 C 0.82184 0.8413 0.87561 0.0
C467 C 0.88646 0.85942 0.84774 0.0
N468 N 0.76102 0.87799 0.84576 0.0
N469 N 0.85662 0.87353 0.83355 0.0
H470 H 0.05111 0.31581 0.97736 0.0
H471 H 0.18629 0.35053 0.13751 0.0
H472 H 0.08311 0.23655 0.05567 0.0
H473 H 0.16614 0.42537 0.05056 0.0
H474 H 0.15226 0.30683 0.1051 0.0
H475 H 0.09656 0.35492 0.00057 0.0
C476 C 0.06804 0.30664 -0.00078 0.0
C477 C 0.06321 0.27341 0.0152 0.0
C478 C 0.15558 0.33268 0.09287 0.0
C479 C 0.11482 0.31762 0.04197 0.0
C480 C 0.175 0.35766 0.11141 0.0
C481 C 0.17869 0.39178 0.09692 0.0
C482 C 0.13939 0.34197 0.0598 0.0
C483 C 0.16378 0.39944 0.06284 0.0
C484 C 0.0939 0.32886 0.01247 0.0
C485 C 0.08575 0.26239 0.04323 0.0
N486 N 0.14438 0.37487 0.04564 0.0
N487 N 0.11035 0.28461 0.05604 0.0
H488 H 0.48742 0.68726 0.33389 0.0
H489 H 0.28697 0.64606 0.31744 0.0
H490 H 0.40531 0.74851 0.38338 0.0
H491 H 0.36899 0.5829 0.27067 0.0
H492 H 0.32883 0.6932 0.32725 0.0
H493 H 0.44403 0.66033 0.29454 0.0
C494 C 0.46045 0.69598 0.33563 0.0
C495 C 0.44971 0.71918 0.36281 0.0
C496 C 0.33757 0.66935 0.3141 0.0
C497 C 0.39999 0.68797 0.31855 0.0
C498 C 0.31373 0.6424 0.30873 0.0
C499 C 0.32464 0.61062 0.29333 0.0
C500 C 0.37277 0.66408 0.30478 0.0
C501 C 0.35941 0.60719 0.28215 0.0
C502 C 0.43561 0.68036 0.31333 0.0
C503 C 0.41453 0.72986 0.3635 0.0
N504 N 0.38243 0.6334 0.28867 0.0
N505 N 0.39076 0.7135 0.34237 0.0
H506 H 0.24241 0.89249 0.64853 0.0
H507 H 0.35582 0.82642 0.4822 0.0
H508 H 0.28503 0.9635 0.56814 0.0
H509 H 0.34605 0.77189 0.58524 0.0
H510 H 0.31511 0.87126 0.50318 0.0
H511 H 0.26339 0.84267 0.61347 0.0
C512 C 0.25559 0.89763 0.62312 0.0
C513 C 0.26289 0.9322 0.61173 0.0
C514 C 0.32189 0.84925 0.52093 0.0
C515 C 0.2871 0.87528 0.57172 0.0
C516 C 0.34582 0.82379 0.50929 0.0
C517 C 0.35636 0.79603 0.53266 0.0
C518 C 0.30768 0.84635 0.55574 0.0
C519 C 0.33969 0.79314 0.56641 0.0
C520 C 0.26759 0.86916 0.60318 0.0
C521 C 0.27937 0.93725 0.57819 0.0
N522 N 0.31655 0.81813 0.57703 0.0
N523 N 0.2916 0.909 0.55962 0.0
H524 H 0.09928 0.7597 0.91372 0.0
H525 H 0.13365 0.90212 0.76269 0.0
H526 H 0.01765 0.80952 0.84948 0.0
H527 H 0.21584 0.84326 0.81737 0.0
H528 H 0.09142 0.85997 0.78503 0.0
H529 H 0.14215 0.77962 0.86959 0.0
C530 C 0.09025 0.77403 0.88979 0.0
C531 C 0.05498 0.78385 0.88577 0.0
C532 C 0.11878 0.85573 0.79149 0.0
C533 C 0.10397 0.80744 0.83564 0.0
C534 C 0.14311 0.87974 0.77836 0.0
C535 C 0.17852 0.8761 0.78782 0.0
C536 C 0.12979 0.82831 0.81495 0.0
C537 C 0.18874 0.84721 0.80965 0.0
C538 C 0.11479 0.78553 0.86464 0.0
C539 C 0.04466 0.80186 0.85398 0.0
N540 N 0.16445 0.82467 0.82285 0.0
N541 N 0.0692 0.8139 0.83057 0.0
H542 H 0.13207 0.73209 0.12487 0.0
H543 H 0.24034 0.59699 0.18005 0.0
H544 H 0.13607 0.68542 0.01875 0.0
H545 H 0.1778 0.53554 0.10681 0.0
H546 H 0.21946 0.65062 0.14986 0.0
H547 H 0.16514 0.68201 0.1491 0.0
C548 C 0.14 0.71148 0.1065 0.0
C549 C 0.13017 0.71268 0.06981 0.0
C550 C 0.21034 0.6254 0.1404 0.0
C551 C 0.16847 0.65521 0.0975 0.0
C552 C 0.22236 0.5947 0.15743 0.0
C553 C 0.21009 0.56169 0.14651 0.0
C554 C 0.18579 0.62321 0.11225 0.0
C555 C 0.18752 0.56045 0.11642 0.0
C556 C 0.15907 0.68294 0.1204 0.0
C557 C 0.14139 0.68504 0.04748 0.0
N558 N 0.17575 0.59093 0.10047 0.0
N559 N 0.15947 0.65707 0.06182 0.0
H560 H 0.53917 0.01046 0.70824 0.0
H561 H 0.34669 0.99106 0.78018 0.0
H562 H 0.52046 0.01013 0.82364 0.0
H563 H 0.37262 0.0453 0.6804 0.0
H564 H 0.40895 0.99064 0.79709 0.0
H565 H 0.47675 0.01389 0.69741 0.0
C566 C 0.52195 0.01083 0.73144 0.0
C567 C 0.53522 0.01006 0.767 0.0
C568 C 0.40074 0.00293 0.77175 0.0
C569 C 0.46323 0.0141 0.75448 0.0
C570 C 0.36533 0.00316 0.76203 0.0
C571 C 0.35443 0.01802 0.72867 0.0
C572 C 0.42525 0.01701 0.74759 0.0
C573 C 0.3797 0.03344 0.70629 0.0
C574 C 0.48623 0.01309 0.72513 0.0
C575 C 0.51135 0.01077 0.79581 0.0
N576 N 0.4139 0.03211 0.71595 0.0
N577 N 0.47632 0.01258 0.78893 0.0
H578 H 0.03289 0.07697 0.96592 0.0
H579 H 0.93698 0.90016 -0.00046 0.0
H580 H 0.94258 0.07393 0.03537 0.0
H581 H 0.04968 0.90132 0.00096 0.0
H582 H 0.93631 0.96439 0.0063 0.0
H583 H 0.03835 0.01259 0.97189 0.0
C584 C 0.01446 0.06278 0.98267 0.0
C585 C 0.98721 0.08066 0.00013 0.0
C586 C 0.96114 0.95045 0.0056 0.0
C587 C -0.00713 0.00751 0.00634 0.0
C588 C 0.96154 0.91397 0.00161 0.0
C589 C -0.00657 0.89562 -0.00028 0.0
C590 C -0.00718 0.96868 0.00654 0.0
C591 C 0.02457 0.91461 0.00253 0.0
C592 C 0.01768 0.02621 -0.01383 0.0
C593 C 0.96403 0.06111 0.02158 0.0
N594 N 0.02353 0.95032 0.00513 0.0
N595 N 0.96699 0.02544 0.02356 0.0
H596 H 0.15585 0.51318 0.30873 0.0
H597 H 0.97282 0.41826 0.33591 0.0
H598 H 0.12903 0.41657 0.255 0.0
H599 H 0.98401 0.53097 0.32658 0.0
H600 H 0.03649 0.41146 0.32974 0.0
H601 H 0.09892 0.51291 0.33847 0.0
C602 C 0.13834 0.49148 0.30378 0.0
C603 C 0.14693 0.46513 0.27885 0.0
C604 C 0.02498 0.43765 0.33017 0.0
C605 C 0.08221 0.46457 0.31325 0.0
C606 C 0.98887 0.44158 0.33402 0.0
C607 C 0.97346 0.47523 0.33166 0.0
C608 C 0.04553 0.46766 0.32477 0.0
C609 C -0.0049 0.50463 0.32847 0.0
C610 C 0.10591 0.49144 0.32075 0.0
C611 C 0.12321 0.43766 0.27359 0.0
N612 N 0.03013 0.50017 0.3249 0.0
N613 N 0.09172 0.43822 0.29046 0.0
H614 H 0.45349 0.44648 0.48027 0.0
H615 H 0.56265 0.61559 0.49459 0.0
H616 H 0.54416 0.44543 0.55028 0.0
H617 H 0.45019 0.6231 0.49986 0.0
H618 H 0.55902 0.55247 0.50961 0.0
H619 H 0.45322 0.51115 0.48117 0.0
C620 C 0.47303 0.45994 0.49616 0.0
C621 C 0.49887 0.44086 0.51524 0.0
C622 C 0.53527 0.56821 0.50803 0.0
C623 C 0.49925 0.5142 0.51556 0.0
C624 C 0.53729 0.60402 0.49934 0.0
C625 C 0.50667 0.62441 0.49589 0.0
C626 C 0.5024 0.5527 0.51214 0.0
C627 C 0.47442 0.60827 0.50235 0.0
C628 C 0.47279 0.49665 0.49677 0.0
C629 C 0.5237 0.45935 0.53542 0.0
N630 N 0.47305 0.57311 0.50945 0.0
N631 N 0.52375 0.49517 0.53446 0.0
loop_
_geom_bond_atom_site_label_1
_geom_bond_atom_site_label_2
_geom_bond_distance
_geom_bond_site_symmetry_2
_ccdc_geom_bond_type
Co0 O3 1.970 1_545 S
Co0 N17 1.989 . S
Co0 O25 1.967 . S
Co0 O32 1.920 . S
Co1 O4 1.966 . S
Co1 N10 2.022 . S
Co1 N18 1.993 1_565 S
Co1 O26 1.941 . S
C2 O3 1.258 . S
C2 O4 1.263 . S
O3 Co0 1.970 1_565 S
O3 C2 1.258 . S
O4 Co1 1.966 . S
O4 C2 1.263 . S
C5 O6 1.235 . S
C5 O32 1.289 . S
O6 C5 1.235 . S
C7 C9 1.400 . S
C7 N10 1.351 . S
C7 C12 1.501 . S
C8 C9 1.387 . S
C8 N11 1.341 . S
C9 C7 1.400 . S
C9 C8 1.387 . S
N10 Co1 2.022 . S
N10 C7 1.351 . S
N10 N11 1.365 . S
N11 C8 1.341 . S
N11 N10 1.365 . S
N11 H31 0.862 . S
C12 C7 1.501 . S
C12 H13 0.961 . S
C12 H14 0.961 . S
C12 H15 0.960 . S
H13 C12 0.961 . S
H14 C12 0.961 . S
H15 C12 0.960 . S
C16 N17 1.342 . S
C16 C20 1.401 . S
C16 C21 1.499 . S
N17 Co0 1.989 . S
N17 C16 1.342 . S
N17 N18 1.388 . S
N18 Co1 1.993 1_545 S
N18 N17 1.388 . S
N18 C19 1.346 . S
C19 N18 1.346 . S
C19 C20 1.396 . S
C19 C29 1.510 . S
C20 C16 1.401 . S
C20 C19 1.396 . S
C21 C16 1.499 . S
C21 H22 0.959 . S
C21 H23 0.960 . S
C21 H24 0.961 . S
H22 C21 0.959 . S
H23 C21 0.960 . S
H24 C21 0.961 . S
O25 Co0 1.967 . S
O25 C33 1.243 1_545 S
O26 Co1 1.941 . S
O26 C33 1.283 . S
H27 C29 0.959 . S
H28 C29 0.961 . S
C29 C19 1.510 . S
C29 H27 0.959 . S
C29 H28 0.961 . S
C29 H30 0.960 1_545 S
H30 C29 0.960 1_565 S
H31 N11 0.862 . S
O32 Co0 1.920 . S
O32 C5 1.289 . S
C33 O25 1.243 1_565 S
C33 O26 1.283 . S
Co34 O37 1.970 1_655 S
Co34 N51 1.989 1_556 S
Co34 O59 1.956 1_556 S
Co34 O66 1.920 . S
Co35 O38 1.966 1_554 S
Co35 N44 2.022 . S
Co35 N52 1.993 1_455 S
Co35 O60 1.941 . S
C36 O37 1.258 . S
C36 O38 1.263 . S
O37 Co34 1.970 1_455 S
O37 C36 1.258 . S
O38 Co35 1.966 1_556 S
O38 C36 1.263 . S
C39 O40 1.235 . S
C39 O66 1.289 . S
O40 C39 1.235 . S
C41 C43 1.400 . S
C41 N44 1.351 . S
C41 C46 1.501 . S
C42 C43 1.387 . S
C42 N45 1.341 . S
C43 C41 1.400 . S
C43 C42 1.387 . S
N44 Co35 2.022 . S
N44 C41 1.351 . S
N44 N45 1.365 . S
N45 C42 1.341 . S
N45 N44 1.365 . S
N45 H65 0.862 . S
C46 C41 1.501 . S
C46 H47 0.961 . S
C46 H48 0.961 . S
C46 H49 0.960 . S
H47 C46 0.961 . S
H48 C46 0.961 . S
H49 C46 0.960 . S
C50 N51 1.342 . S
C50 C54 1.401 . S
C50 C55 1.499 1_554 S
N51 Co34 1.989 1_554 S
N51 C50 1.342 . S
N51 N52 1.388 . S
N52 Co35 1.993 1_655 S
N52 N51 1.388 . S
N52 C53 1.346 . S
C53 N52 1.346 . S
C53 C54 1.396 . S
C53 C63 1.510 1_655 S
C54 C50 1.401 . S
C54 C53 1.396 . S
C55 C50 1.499 1_556 S
C55 H56 0.959 . S
C55 H57 0.960 . S
C55 H58 0.961 1_556 S
H56 C55 0.959 . S
H57 C55 0.960 . S
H58 C55 0.961 1_554 S
O59 Co34 1.956 1_554 S
O59 C67 1.274 1_655 S
O60 Co35 1.941 . S
O60 C67 1.266 . S
H61 C63 0.959 1_655 S
H62 C63 0.961 . S
C63 C53 1.510 1_455 S
C63 H61 0.959 1_455 S
C63 H62 0.961 . S
C63 H64 0.960 . S
H64 C63 0.960 . S
H65 N45 0.862 . S
O66 Co34 1.920 . S
O66 C39 1.289 . S
C67 O59 1.274 1_455 S
C67 O60 1.266 . S
Co68 O71 1.970 . S
Co68 N85 1.989 . S
Co68 O93 1.967 . S
Co68 O100 1.920 . S
Co69 O72 1.966 . S
Co69 N78 2.022 . S
Co69 N86 1.993 . S
Co69 O94 1.941 . S
C70 O71 1.258 . S
C70 O72 1.263 . S
O71 Co68 1.970 . S
O71 C70 1.258 . S
O72 Co69 1.966 . S
O72 C70 1.263 . S
C73 O74 1.235 . S
C73 O100 1.289 . S
O74 C73 1.235 . S
C75 C77 1.400 . S
C75 N78 1.351 . S
C75 C80 1.501 . S
C76 C77 1.387 . S
C76 N79 1.341 . S
C77 C75 1.400 . S
C77 C76 1.387 . S
N78 Co69 2.022 . S
N78 C75 1.351 . S
N78 N79 1.365 . S
N79 C76 1.341 . S
N79 N78 1.365 . S
N79 H99 0.862 . S
C80 C75 1.501 . S
C80 H81 0.961 . S
C80 H82 0.961 . S
C80 H83 0.960 . S
H81 C80 0.961 . S
H82 C80 0.961 . S
H83 C80 0.960 . S
C84 N85 1.342 . S
C84 C88 1.401 . S
C84 C89 1.499 . S
N85 Co68 1.989 . S
N85 C84 1.342 . S
N85 N86 1.388 . S
N86 Co69 1.993 . S
N86 N85 1.388 . S
N86 C87 1.346 . S
C87 N86 1.346 . S
C87 C88 1.396 . S
C87 C97 1.510 . S
C88 C84 1.401 . S
C88 C87 1.396 . S
C89 C84 1.499 . S
C89 H90 0.959 . S
C89 H91 0.960 . S
C89 H92 0.961 . S
H90 C89 0.959 . S
H91 C89 0.960 . S
H92 C89 0.961 . S
O93 Co68 1.967 . S
O93 C101 1.258 . S
O94 Co69 1.941 . S
O94 C101 1.266 . S
H95 C97 0.959 . S
H96 C97 0.961 . S
C97 C87 1.510 . S
C97 H95 0.959 . S
C97 H96 0.961 . S
C97 H98 0.960 . S
H98 C97 0.960 . S
H99 N79 0.862 . S
O100 Co68 1.920 . S
O100 C73 1.289 . S
C101 O93 1.258 . S
C101 O94 1.266 . S
Co102 O105 1.970 . S
Co102 N119 1.989 . S
Co102 O127 1.967 . S
Co102 O134 1.920 . S
Co103 O106 1.966 . S
Co103 N112 2.022 . S
Co103 N120 1.993 . S
Co103 O128 1.941 . S
C104 O105 1.258 . S
C104 O106 1.263 . S
O105 Co102 1.970 . S
O105 C104 1.258 . S
O106 Co103 1.966 . S
O106 C104 1.263 . S
C107 O108 1.235 . S
C107 O134 1.289 . S
O108 C107 1.235 . S
C109 C111 1.400 . S
C109 N112 1.351 . S
C109 C114 1.501 . S
C110 C111 1.387 . S
C110 N113 1.341 . S
C111 C109 1.400 . S
C111 C110 1.387 . S
N112 Co103 2.022 . S
N112 C109 1.351 . S
N112 N113 1.365 . S
N113 C110 1.341 . S
N113 N112 1.365 . S
N113 H133 0.862 . S
C114 C109 1.501 . S
C114 H115 0.961 . S
C114 H116 0.961 . S
C114 H117 0.960 . S
H115 C114 0.961 . S
H116 C114 0.961 . S
H117 C114 0.960 . S
C118 N119 1.342 . S
C118 C122 1.401 . S
C118 C123 1.499 . S
N119 Co102 1.989 . S
N119 C118 1.342 . S
N119 N120 1.388 . S
N120 Co103 1.993 . S
N120 N119 1.388 . S
N120 C121 1.346 . S
C121 N120 1.346 . S
C121 C122 1.396 . S
C121 C131 1.510 . S
C122 C118 1.401 . S
C122 C121 1.396 . S
C123 C118 1.499 . S
C123 H124 0.959 . S
C123 H125 0.960 . S
C123 H126 0.961 . S
H124 C123 0.959 . S
H125 C123 0.960 . S
H126 C123 0.961 . S
O127 Co102 1.967 . S
O127 C135 1.258 . S
O128 Co103 1.941 . S
O128 C135 1.266 . S
H129 C131 0.959 . S
H130 C131 0.961 . S
C131 C121 1.510 . S
C131 H129 0.959 . S
C131 H130 0.961 . S
C131 H132 0.960 . S
H132 C131 0.960 . S
H133 N113 0.862 . S
O134 Co102 1.920 . S
O134 C107 1.289 . S
C135 O127 1.258 . S
C135 O128 1.266 . S
Co136 O139 1.970 1_565 S
Co136 N153 1.989 . S
Co136 O161 1.967 . S
Co136 O168 1.920 . S
Co137 O140 1.966 . S
Co137 N146 2.022 . S
Co137 N154 1.993 1_545 S
Co137 O162 1.941 . S
C138 O139 1.258 . S
C138 O140 1.263 . S
O139 Co136 1.970 1_545 S
O139 C138 1.258 . S
O140 Co137 1.966 . S
O140 C138 1.263 . S
C141 O142 1.235 . S
C141 O168 1.289 . S
O142 C141 1.235 . S
C143 C145 1.400 . S
C143 N146 1.351 . S
C143 C148 1.501 . S
C144 C145 1.387 . S
C144 N147 1.341 . S
C145 C143 1.400 . S
C145 C144 1.387 . S
N146 Co137 2.022 . S
N146 C143 1.351 . S
N146 N147 1.365 . S
N147 C144 1.341 . S
N147 N146 1.365 . S
N147 H167 0.862 . S
C148 C143 1.501 . S
C148 H149 0.961 . S
C148 H150 0.961 . S
C148 H151 0.960 . S
H149 C148 0.961 . S
H150 C148 0.961 . S
H151 C148 0.960 . S
C152 N153 1.342 . S
C152 C156 1.401 . S
C152 C157 1.499 . S
N153 Co136 1.989 . S
N153 C152 1.342 . S
N153 N154 1.388 . S
N154 Co137 1.993 1_565 S
N154 N153 1.388 . S
N154 C155 1.346 . S
C155 N154 1.346 . S
C155 C156 1.396 . S
C155 C165 1.510 1_565 S
C156 C152 1.401 . S
C156 C155 1.396 . S
C157 C152 1.499 . S
C157 H158 0.959 . S
C157 H159 0.960 . S
C157 H160 0.961 . S
H158 C157 0.959 . S
H159 C157 0.960 . S
H160 C157 0.961 . S
O161 Co136 1.967 . S
O161 C169 1.258 1_565 S
O162 Co137 1.941 . S
O162 C169 1.266 . S
H163 C165 0.959 1_565 S
H164 C165 0.961 . S
C165 C155 1.510 1_545 S
C165 H163 0.959 1_545 S
C165 H164 0.961 . S
C165 H166 0.960 . S
H166 C165 0.960 . S
H167 N147 0.862 . S
O168 Co136 1.920 . S
O168 C141 1.289 . S
C169 O161 1.258 1_545 S
C169 O162 1.266 . S
Co170 O173 1.970 1_455 S
Co170 N187 1.989 1_556 S
Co170 O195 1.960 1_556 S
Co170 O202 1.920 . S
Co171 O174 1.966 1_554 S
Co171 N180 2.022 . S
Co171 N188 1.993 1_655 S
Co171 O196 1.941 . S
C172 O173 1.258 . S
C172 O174 1.263 . S
O173 Co170 1.970 1_655 S
O173 C172 1.258 . S
O174 Co171 1.966 1_556 S
O174 C172 1.263 . S
C175 O176 1.235 . S
C175 O202 1.289 . S
O176 C175 1.235 . S
C177 C179 1.400 . S
C177 N180 1.351 . S
C177 C182 1.501 . S
C178 C179 1.387 . S
C178 N181 1.341 . S
C179 C177 1.400 . S
C179 C178 1.387 . S
N180 Co171 2.022 . S
N180 C177 1.351 . S
N180 N181 1.365 . S
N181 C178 1.341 . S
N181 N180 1.365 . S
N181 H201 0.862 . S
C182 C177 1.501 . S
C182 H183 0.961 . S
C182 H184 0.961 . S
C182 H185 0.960 . S
H183 C182 0.961 . S
H184 C182 0.961 . S
H185 C182 0.960 . S
C186 N187 1.342 . S
C186 C190 1.401 . S
C186 C191 1.499 1_554 S
N187 Co170 1.989 1_554 S
N187 C186 1.342 . S
N187 N188 1.388 . S
N188 Co171 1.993 1_455 S
N188 N187 1.388 . S
N188 C189 1.346 . S
C189 N188 1.346 . S
C189 C190 1.396 . S
C189 C199 1.510 . S
C190 C186 1.401 . S
C190 C189 1.396 . S
C191 C186 1.499 1_556 S
C191 H192 0.959 . S
C191 H193 0.960 . S
C191 H194 0.961 1_556 S
H192 C191 0.959 . S
H193 C191 0.960 . S
H194 C191 0.961 1_554 S
O195 Co170 1.960 1_554 S
O195 C203 1.250 1_455 S
O196 Co171 1.941 . S
O196 C203 1.285 . S
H197 C199 0.959 . S
H198 C199 0.961 . S
C199 C189 1.510 . S
C199 H197 0.959 . S
C199 H198 0.961 . S
C199 H200 0.960 1_455 S
H200 C199 0.960 1_655 S
H201 N181 0.862 . S
O202 Co170 1.920 . S
O202 C175 1.289 . S
C203 O195 1.250 1_655 S
C203 O196 1.285 . S
Co204 O207 1.970 . S
Co204 N221 1.989 . S
Co204 O229 1.967 . S
Co204 O236 1.920 . S
Co205 O208 1.966 . S
Co205 N214 2.022 . S
Co205 N222 1.993 . S
Co205 O230 1.941 . S
C206 O207 1.258 . S
C206 O208 1.263 . S
O207 Co204 1.970 . S
O207 C206 1.258 . S
O208 Co205 1.966 . S
O208 C206 1.263 . S
C209 O210 1.235 . S
C209 O236 1.289 . S
O210 C209 1.235 . S
C211 C213 1.400 . S
C211 N214 1.351 . S
C211 C216 1.501 . S
C212 C213 1.387 . S
C212 N215 1.341 . S
C213 C211 1.400 . S
C213 C212 1.387 . S
N214 Co205 2.022 . S
N214 C211 1.351 . S
N214 N215 1.365 . S
N215 C212 1.341 . S
N215 N214 1.365 . S
N215 H235 0.862 . S
C216 C211 1.501 . S
C216 H217 0.961 . S
C216 H218 0.961 . S
C216 H219 0.960 . S
H217 C216 0.961 . S
H218 C216 0.961 . S
H219 C216 0.960 . S
C220 N221 1.342 . S
C220 C224 1.401 . S
C220 C225 1.499 . S
N221 Co204 1.989 . S
N221 C220 1.342 . S
N221 N222 1.388 . S
N222 Co205 1.993 . S
N222 N221 1.388 . S
N222 C223 1.346 . S
C223 N222 1.346 . S
C223 C224 1.396 . S
C223 C233 1.510 . S
C224 C220 1.401 . S
C224 C223 1.396 . S
C225 C220 1.499 . S
C225 H226 0.959 . S
C225 H227 0.960 . S
C225 H228 0.961 . S
H226 C225 0.959 . S
H227 C225 0.960 . S
H228 C225 0.961 . S
O229 Co204 1.967 . S
O229 C237 1.258 . S
O230 Co205 1.941 . S
O230 C237 1.266 . S
H231 C233 0.959 . S
H232 C233 0.961 . S
C233 C223 1.510 . S
C233 H231 0.959 . S
C233 H232 0.961 . S
C233 H234 0.960 . S
H234 C233 0.960 . S
H235 N215 0.862 . S
O236 Co204 1.920 . S
O236 C209 1.289 . S
C237 O229 1.258 . S
C237 O230 1.266 . S
Co238 O241 1.970 . S
Co238 N255 1.989 . S
Co238 O263 1.967 . S
Co238 O270 1.920 . S
Co239 O242 1.966 . S
Co239 N248 2.022 . S
Co239 N256 1.993 . S
Co239 O264 1.941 . S
C240 O241 1.258 . S
C240 O242 1.263 . S
O241 Co238 1.970 . S
O241 C240 1.258 . S
O242 Co239 1.966 . S
O242 C240 1.263 . S
C243 O244 1.235 . S
C243 O270 1.289 . S
O244 C243 1.235 . S
C245 C247 1.400 . S
C245 N248 1.351 . S
C245 C250 1.501 . S
C246 C247 1.387 . S
C246 N249 1.341 . S
C247 C245 1.400 . S
C247 C246 1.387 . S
N248 Co239 2.022 . S
N248 C245 1.351 . S
N248 N249 1.365 . S
N249 C246 1.341 . S
N249 N248 1.365 . S
N249 H269 0.862 . S
C250 C245 1.501 . S
C250 H251 0.961 . S
C250 H252 0.961 . S
C250 H253 0.960 . S
H251 C250 0.961 . S
H252 C250 0.961 . S
H253 C250 0.960 . S
C254 N255 1.342 . S
C254 C258 1.401 . S
C254 C259 1.499 . S
N255 Co238 1.989 . S
N255 C254 1.342 . S
N255 N256 1.388 . S
N256 Co239 1.993 . S
N256 N255 1.388 . S
N256 C257 1.346 . S
C257 N256 1.346 . S
C257 C258 1.396 . S
C257 C267 1.510 . S
C258 C254 1.401 . S
C258 C257 1.396 . S
C259 C254 1.499 . S
C259 H260 0.959 . S
C259 H261 0.960 . S
C259 H262 0.961 . S
H260 C259 0.959 . S
H261 C259 0.960 . S
H262 C259 0.961 . S
O263 Co238 1.967 . S
O263 C271 1.258 . S
O264 Co239 1.941 . S
O264 C271 1.266 . S
H265 C267 0.959 . S
H266 C267 0.961 . S
C267 C257 1.510 . S
C267 H265 0.959 . S
C267 H266 0.961 . S
C267 H268 0.960 . S
H268 C267 0.960 . S
H269 N249 0.862 . S
O270 Co238 1.920 . S
O270 C243 1.289 . S
C271 O263 1.258 . S
C271 O264 1.266 . S
H272 C278 0.930 . S
H273 C282 0.930 . S
H274 C287 0.929 . S
H275 C285 0.929 . S
H276 C280 0.929 . S
H277 C286 0.929 . S
C278 H272 0.930 . S
C278 C279 1.367 . S
C278 C286 1.378 . S
C279 C278 1.367 . S
C279 C287 1.433 . S
C280 H276 0.929 . S
C280 C282 1.378 . S
C280 C284 1.350 . S
C281 C284 1.463 . S
C281 C286 1.350 . S
C281 N289 1.427 . S
C282 H273 0.930 . S
C282 C280 1.378 . S
C282 C283 1.367 . S
C283 C282 1.367 . S
C283 C285 1.433 . S
C284 C280 1.350 . S
C284 C281 1.463 . S
C284 N288 1.427 . S
C285 H275 0.929 . S
C285 C283 1.433 . S
C285 N288 1.384 . S
C286 H277 0.929 . S
C286 C278 1.378 . S
C286 C281 1.350 . S
C287 H274 0.929 . S
C287 C279 1.433 . S
C287 N289 1.384 . S
N288 C284 1.427 . S
N288 C285 1.384 . S
N289 C281 1.427 . S
N289 C287 1.384 . S
H290 C296 0.930 . S
H291 C300 0.930 . S
H292 C305 0.929 . S
H293 C303 0.929 . S
H294 C298 0.929 . S
H295 C304 0.929 . S
C296 H290 0.930 . S
C296 C297 1.367 . S
C296 C304 1.378 . S
C297 C296 1.367 . S
C297 C305 1.433 . S
C298 H294 0.929 . S
C298 C300 1.378 . S
C298 C302 1.350 . S
C299 C302 1.463 . S
C299 C304 1.350 . S
C299 N307 1.427 . S
C300 H291 0.930 . S
C300 C298 1.378 . S
C300 C301 1.367 . S
C301 C300 1.367 . S
C301 C303 1.433 . S
C302 C298 1.350 . S
C302 C299 1.463 . S
C302 N306 1.427 . S
C303 H293 0.929 . S
C303 C301 1.433 . S
C303 N306 1.384 . S
C304 H295 0.929 . S
C304 C296 1.378 . S
C304 C299 1.350 . S
C305 H292 0.929 . S
C305 C297 1.433 . S
C305 N307 1.384 . S
N306 C302 1.427 . S
N306 C303 1.384 . S
N307 C299 1.427 . S
N307 C305 1.384 . S
H308 C314 0.930 . S
H309 C318 0.930 . S
H310 C323 0.929 . S
H311 C321 0.929 . S
H312 C316 0.929 . S
H313 C322 0.929 . S
C314 H308 0.930 . S
C314 C315 1.367 . S
C314 C322 1.378 . S
C315 C314 1.367 . S
C315 C323 1.433 . S
C316 H312 0.929 . S
C316 C318 1.378 . S
C316 C320 1.350 . S
C317 C320 1.463 . S
C317 C322 1.350 . S
C317 N325 1.427 . S
C318 H309 0.930 . S
C318 C316 1.378 . S
C318 C319 1.367 . S
C319 C318 1.367 . S
C319 C321 1.433 . S
C320 C316 1.350 . S
C320 C317 1.463 . S
C320 N324 1.427 . S
C321 H311 0.929 . S
C321 C319 1.433 . S
C321 N324 1.384 . S
C322 H313 0.929 . S
C322 C314 1.378 . S
C322 C317 1.350 . S
C323 H310 0.929 . S
C323 C315 1.433 . S
C323 N325 1.384 . S
N324 C320 1.427 . S
N324 C321 1.384 . S
N325 C317 1.427 . S
N325 C323 1.384 . S
H326 C332 0.930 . S
H327 C336 0.930 . S
H328 C341 0.929 . S
H329 C339 0.929 . S
H330 C334 0.929 . S
H331 C340 0.929 . S
C332 H326 0.930 . S
C332 C333 1.367 . S
C332 C340 1.378 . S
C333 C332 1.367 . S
C333 C341 1.433 . S
C334 H330 0.929 . S
C334 C336 1.378 . S
C334 C338 1.350 . S
C335 C338 1.463 . S
C335 C340 1.350 . S
C335 N343 1.427 . S
C336 H327 0.930 . S
C336 C334 1.378 . S
C336 C337 1.367 . S
C337 C336 1.367 . S
C337 C339 1.433 . S
C338 C334 1.350 . S
C338 C335 1.463 . S
C338 N342 1.427 . S
C339 H329 0.929 . S
C339 C337 1.433 . S
C339 N342 1.384 . S
C340 H331 0.929 . S
C340 C332 1.378 . S
C340 C335 1.350 . S
C341 H328 0.929 . S
C341 C333 1.433 . S
C341 N343 1.384 . S
N342 C338 1.427 . S
N342 C339 1.384 . S
N343 C335 1.427 . S
N343 C341 1.384 . S
H344 C350 0.930 . S
H345 C354 0.930 . S
H346 C359 0.929 . S
H347 C357 0.929 . S
H348 C352 0.929 . S
H349 C358 0.929 . S
C350 H344 0.930 . S
C350 C351 1.367 . S
C350 C358 1.378 . S
C351 C350 1.367 . S
C351 C359 1.433 . S
C352 H348 0.929 . S
C352 C354 1.378 . S
C352 C356 1.350 . S
C353 C356 1.463 . S
C353 C358 1.350 . S
C353 N361 1.427 . S
C354 H345 0.930 . S
C354 C352 1.378 . S
C354 C355 1.367 . S
C355 C354 1.367 . S
C355 C357 1.433 . S
C356 C352 1.350 . S
C356 C353 1.463 . S
C356 N360 1.427 . S
C357 H347 0.929 . S
C357 C355 1.433 . S
C357 N360 1.384 . S
C358 H349 0.929 . S
C358 C350 1.378 . S
C358 C353 1.350 . S
C359 H346 0.929 . S
C359 C351 1.433 . S
C359 N361 1.384 . S
N360 C356 1.427 . S
N360 C357 1.384 . S
N361 C353 1.427 . S
N361 C359 1.384 . S
H362 C368 0.930 . S
H363 C372 0.930 . S
H364 C377 0.929 . S
H365 C375 0.929 . S
H366 C370 0.929 . S
H367 C376 0.929 . S
C368 H362 0.930 . S
C368 C369 1.367 . S
C368 C376 1.378 . S
C369 C368 1.367 . S
C369 C377 1.433 . S
C370 H366 0.929 . S
C370 C372 1.378 . S
C370 C374 1.350 . S
C371 C374 1.463 . S
C371 C376 1.350 . S
C371 N379 1.427 . S
C372 H363 0.930 . S
C372 C370 1.378 . S
C372 C373 1.367 . S
C373 C372 1.367 . S
C373 C375 1.433 . S
C374 C370 1.350 . S
C374 C371 1.463 . S
C374 N378 1.427 . S
C375 H365 0.929 . S
C375 C373 1.433 . S
C375 N378 1.384 . S
C376 H367 0.929 . S
C376 C368 1.378 . S
C376 C371 1.350 . S
C377 H364 0.929 . S
C377 C369 1.433 . S
C377 N379 1.384 . S
N378 C374 1.427 . S
N378 C375 1.384 . S
N379 C371 1.427 . S
N379 C377 1.384 . S
H380 C386 0.930 . S
H381 C390 0.930 . S
H382 C395 0.929 . S
H383 C393 0.929 . S
H384 C388 0.929 . S
H385 C394 0.929 . S
C386 H380 0.930 . S
C386 C387 1.367 . S
C386 C394 1.378 . S
C387 C386 1.367 . S
C387 C395 1.433 . S
C388 H384 0.929 . S
C388 C390 1.378 . S
C388 C392 1.350 . S
C389 C392 1.463 . S
C389 C394 1.350 . S
C389 N397 1.427 . S
C390 H381 0.930 . S
C390 C388 1.378 . S
C390 C391 1.367 . S
C391 C390 1.367 . S
C391 C393 1.433 . S
C392 C388 1.350 . S
C392 C389 1.463 . S
C392 N396 1.427 . S
C393 H383 0.929 . S
C393 C391 1.433 . S
C393 N396 1.384 . S
C394 H385 0.929 . S
C394 C386 1.378 . S
C394 C389 1.350 . S
C395 H382 0.929 . S
C395 C387 1.433 . S
C395 N397 1.384 . S
N396 C392 1.427 . S
N396 C393 1.384 . S
N397 C389 1.427 . S
N397 C395 1.384 . S
H398 C404 0.930 . S
H399 C408 0.930 . S
H400 C413 0.929 . S
H401 C411 0.929 . S
H402 C406 0.929 . S
H403 C412 0.929 . S
C404 H398 0.930 . S
C404 C405 1.367 . S
C404 C412 1.378 . S
C405 C404 1.367 . S
C405 C413 1.433 . S
C406 H402 0.929 . S
C406 C408 1.378 . S
C406 C410 1.350 . S
C407 C410 1.463 . S
C407 C412 1.350 . S
C407 N415 1.427 . S
C408 H399 0.930 . S
C408 C406 1.378 . S
C408 C409 1.367 . S
C409 C408 1.367 . S
C409 C411 1.433 . S
C410 C406 1.350 . S
C410 C407 1.463 . S
C410 N414 1.427 . S
C411 H401 0.929 . S
C411 C409 1.433 . S
C411 N414 1.384 . S
C412 H403 0.929 . S
C412 C404 1.378 . S
C412 C407 1.350 . S
C413 H400 0.929 . S
C413 C405 1.433 . S
C413 N415 1.384 . S
N414 C410 1.427 . S
N414 C411 1.384 . S
N415 C407 1.427 . S
N415 C413 1.384 . S
H416 C422 0.930 . S
H417 C426 0.930 . S
H418 C431 0.929 . S
H419 C429 0.929 . S
H420 C424 0.929 . S
H421 C430 0.929 . S
C422 H416 0.930 . S
C422 C423 1.367 . S
C422 C430 1.378 . S
C423 C422 1.367 . S
C423 C431 1.433 . S
C424 H420 0.929 . S
C424 C426 1.378 . S
C424 C428 1.350 . S
C425 C428 1.463 . S
C425 C430 1.350 . S
C425 N433 1.427 . S
C426 H417 0.930 . S
C426 C424 1.378 . S
C426 C427 1.367 . S
C427 C426 1.367 . S
C427 C429 1.433 . S
C428 C424 1.350 . S
C428 C425 1.463 . S
C428 N432 1.427 . S
C429 H419 0.929 . S
C429 C427 1.433 . S
C429 N432 1.384 . S
C430 H421 0.929 . S
C430 C422 1.378 . S
C430 C425 1.350 . S
C431 H418 0.929 . S
C431 C423 1.433 . S
C431 N433 1.384 . S
N432 C428 1.427 . S
N432 C429 1.384 . S
N433 C425 1.427 . S
N433 C431 1.384 . S
H434 C440 0.930 . S
H435 C444 0.930 . S
H436 C449 0.929 . S
H437 C447 0.929 . S
H438 C442 0.929 . S
H439 C448 0.929 . S
C440 H434 0.930 . S
C440 C441 1.367 . S
C440 C448 1.378 . S
C441 C440 1.367 . S
C441 C449 1.433 . S
C442 H438 0.929 . S
C442 C444 1.378 . S
C442 C446 1.350 . S
C443 C446 1.463 . S
C443 C448 1.350 . S
C443 N451 1.427 . S
C444 H435 0.930 . S
C444 C442 1.378 . S
C444 C445 1.367 . S
C445 C444 1.367 . S
C445 C447 1.433 . S
C446 C442 1.350 . S
C446 C443 1.463 . S
C446 N450 1.427 . S
C447 H437 0.929 . S
C447 C445 1.433 . S
C447 N450 1.384 . S
C448 H439 0.929 . S
C448 C440 1.378 . S
C448 C443 1.350 . S
C449 H436 0.929 . S
C449 C441 1.433 . S
C449 N451 1.384 . S
N450 C446 1.427 . S
N450 C447 1.384 . S
N451 C443 1.427 . S
N451 C449 1.384 . S
H452 C458 0.930 . S
H453 C462 0.930 . S
H454 C467 0.929 . S
H455 C465 0.929 . S
H456 C460 0.929 . S
H457 C466 0.929 . S
C458 H452 0.930 . S
C458 C459 1.367 . S
C458 C466 1.378 . S
C459 C458 1.367 . S
C459 C467 1.433 . S
C460 H456 0.929 . S
C460 C462 1.378 . S
C460 C464 1.350 . S
C461 C464 1.463 . S
C461 C466 1.350 . S
C461 N469 1.427 . S
C462 H453 0.930 . S
C462 C460 1.378 . S
C462 C463 1.367 . S
C463 C462 1.367 . S
C463 C465 1.433 . S
C464 C460 1.350 . S
C464 C461 1.463 . S
C464 N468 1.427 . S
C465 H455 0.929 . S
C465 C463 1.433 . S
C465 N468 1.384 . S
C466 H457 0.929 . S
C466 C458 1.378 . S
C466 C461 1.350 . S
C467 H454 0.929 . S
C467 C459 1.433 . S
C467 N469 1.384 . S
N468 C464 1.427 . S
N468 C465 1.384 . S
N469 C461 1.427 . S
N469 C467 1.384 . S
H470 C476 0.930 . S
H471 C480 0.930 . S
H472 C485 0.929 . S
H473 C483 0.929 . S
H474 C478 0.929 . S
H475 C484 0.929 . S
C476 H470 0.930 . S
C476 C477 1.367 . S
C476 C484 1.378 . S
C477 C476 1.367 . S
C477 C485 1.433 . S
C478 H474 0.929 . S
C478 C480 1.378 . S
C478 C482 1.350 . S
C479 C482 1.463 . S
C479 C484 1.350 . S
C479 N487 1.427 . S
C480 H471 0.930 . S
C480 C478 1.378 . S
C480 C481 1.367 . S
C481 C480 1.367 . S
C481 C483 1.433 . S
C482 C478 1.350 . S
C482 C479 1.463 . S
C482 N486 1.427 . S
C483 H473 0.929 . S
C483 C481 1.433 . S
C483 N486 1.384 . S
C484 H475 0.929 . S
C484 C476 1.378 . S
C484 C479 1.350 . S
C485 H472 0.929 . S
C485 C477 1.433 . S
C485 N487 1.384 . S
N486 C482 1.427 . S
N486 C483 1.384 . S
N487 C479 1.427 . S
N487 C485 1.384 . S
H488 C494 0.930 . S
H489 C498 0.930 . S
H490 C503 0.929 . S
H491 C501 0.929 . S
H492 C496 0.929 . S
H493 C502 0.929 . S
C494 H488 0.930 . S
C494 C495 1.367 . S
C494 C502 1.378 . S
C495 C494 1.367 . S
C495 C503 1.433 . S
C496 H492 0.929 . S
C496 C498 1.378 . S
C496 C500 1.350 . S
C497 C500 1.463 . S
C497 C502 1.350 . S
C497 N505 1.427 . S
C498 H489 0.930 . S
C498 C496 1.378 . S
C498 C499 1.367 . S
C499 C498 1.367 . S
C499 C501 1.433 . S
C500 C496 1.350 . S
C500 C497 1.463 . S
C500 N504 1.427 . S
C501 H491 0.929 . S
C501 C499 1.433 . S
C501 N504 1.384 . S
C502 H493 0.929 . S
C502 C494 1.378 . S
C502 C497 1.350 . S
C503 H490 0.929 . S
C503 C495 1.433 . S
C503 N505 1.384 . S
N504 C500 1.427 . S
N504 C501 1.384 . S
N505 C497 1.427 . S
N505 C503 1.384 . S
H506 C512 0.930 . S
H507 C516 0.930 . S
H508 C521 0.929 . S
H509 C519 0.929 . S
H510 C514 0.929 . S
H511 C520 0.929 . S
C512 H506 0.930 . S
C512 C513 1.367 . S
C512 C520 1.378 . S
C513 C512 1.367 . S
C513 C521 1.433 . S
C514 H510 0.929 . S
C514 C516 1.378 . S
C514 C518 1.350 . S
C515 C518 1.463 . S
C515 C520 1.350 . S
C515 N523 1.427 . S
C516 H507 0.930 . S
C516 C514 1.378 . S
C516 C517 1.367 . S
C517 C516 1.367 . S
C517 C519 1.433 . S
C518 C514 1.350 . S
C518 C515 1.463 . S
C518 N522 1.427 . S
C519 H509 0.929 . S
C519 C517 1.433 . S
C519 N522 1.384 . S
C520 H511 0.929 . S
C520 C512 1.378 . S
C520 C515 1.350 . S
C521 H508 0.929 . S
C521 C513 1.433 . S
C521 N523 1.384 . S
N522 C518 1.427 . S
N522 C519 1.384 . S
N523 C515 1.427 . S
N523 C521 1.384 . S
H524 C530 0.930 . S
H525 C534 0.930 . S
H526 C539 0.929 . S
H527 C537 0.929 . S
H528 C532 0.929 . S
H529 C538 0.929 . S
C530 H524 0.930 . S
C530 C531 1.367 . S
C530 C538 1.378 . S
C531 C530 1.367 . S
C531 C539 1.433 . S
C532 H528 0.929 . S
C532 C534 1.378 . S
C532 C536 1.350 . S
C533 C536 1.463 . S
C533 C538 1.350 . S
C533 N541 1.427 . S
C534 H525 0.930 . S
C534 C532 1.378 . S
C534 C535 1.367 . S
C535 C534 1.367 . S
C535 C537 1.433 . S
C536 C532 1.350 . S
C536 C533 1.463 . S
C536 N540 1.427 . S
C537 H527 0.929 . S
C537 C535 1.433 . S
C537 N540 1.384 . S
C538 H529 0.929 . S
C538 C530 1.378 . S
C538 C533 1.350 . S
C539 H526 0.929 . S
C539 C531 1.433 . S
C539 N541 1.384 . S
N540 C536 1.427 . S
N540 C537 1.384 . S
N541 C533 1.427 . S
N541 C539 1.384 . S
H542 C548 0.930 . S
H543 C552 0.930 . S
H544 C557 0.929 . S
H545 C555 0.929 . S
H546 C550 0.929 . S
H547 C556 0.929 . S
C548 H542 0.930 . S
C548 C549 1.367 . S
C548 C556 1.378 . S
C549 C548 1.367 . S
C549 C557 1.433 . S
C550 H546 0.929 . S
C550 C552 1.378 . S
C550 C554 1.350 . S
C551 C554 1.463 . S
C551 C556 1.350 . S
C551 N559 1.427 . S
C552 H543 0.930 . S
C552 C550 1.378 . S
C552 C553 1.367 . S
C553 C552 1.367 . S
C553 C555 1.433 . S
C554 C550 1.350 . S
C554 C551 1.463 . S
C554 N558 1.427 . S
C555 H545 0.929 . S
C555 C553 1.433 . S
C555 N558 1.384 . S
C556 H547 0.929 . S
C556 C548 1.378 . S
C556 C551 1.350 . S
C557 H544 0.929 . S
C557 C549 1.433 . S
C557 N559 1.384 . S
N558 C554 1.427 . S
N558 C555 1.384 . S
N559 C551 1.427 . S
N559 C557 1.384 . S
H560 C566 0.930 . S
H561 C570 0.930 . S
H562 C575 0.925 1_565 S
H563 C573 0.929 . S
H564 C568 0.929 . S
H565 C574 0.929 . S
C566 H560 0.930 . S
C566 C567 1.367 . S
C566 C574 1.378 . S
C567 C566 1.367 . S
C567 C575 1.433 . S
C568 H564 0.929 . S
C568 C570 1.378 . S
C568 C572 1.350 1_565 S
C569 C572 1.463 . S
C569 C574 1.350 . S
C569 N577 1.432 . S
C570 H561 0.930 . S
C570 C568 1.378 . S
C570 C571 1.365 1_565 S
C571 C570 1.365 1_545 S
C571 C573 1.436 . S
C572 C568 1.350 1_545 S
C572 C569 1.463 . S
C572 N576 1.427 . S
C573 H563 0.929 . S
C573 C571 1.436 . S
C573 N576 1.384 . S
C574 H565 0.929 . S
C574 C566 1.378 . S
C574 C569 1.350 . S
C575 H562 0.925 1_545 S
C575 C567 1.433 . S
C575 N577 1.385 . S
N576 C572 1.427 . S
N576 C573 1.384 . S
N577 C569 1.432 . S
N577 C575 1.385 . S
H578 C584 0.930 1_556 S
H579 C588 0.930 . S
H580 C593 0.929 . S
H581 C591 0.929 1_556 S
H582 C586 0.929 . S
H583 C592 0.929 1_556 S
C584 H578 0.930 1_554 S
C584 C585 1.367 . S
C584 C592 1.378 . S
C585 C584 1.367 . S
C585 C593 1.433 1_455 S
C586 H582 0.929 . S
C586 C588 1.378 . S
C586 C590 1.350 1_655 S
C587 C590 1.463 1_545 S
C587 C592 1.350 . S
C587 N595 1.427 1_455 S
C588 H579 0.930 . S
C588 C586 1.378 . S
C588 C589 1.367 1_655 S
C589 C588 1.367 1_455 S
C589 C591 1.433 . S
C590 C586 1.350 1_455 S
C590 C587 1.463 1_565 S
C590 N594 1.427 . S
C591 H581 0.929 1_554 S
C591 C589 1.433 . S
C591 N594 1.384 . S
C592 H583 0.929 1_554 S
C592 C584 1.378 . S
C592 C587 1.350 . S
C593 H580 0.929 . S
C593 C585 1.433 1_655 S
C593 N595 1.384 . S
N594 C590 1.427 . S
N594 C591 1.384 . S
N595 C587 1.427 1_655 S
N595 C593 1.384 . S
H596 C602 0.930 . S
H597 C606 0.930 . S
H598 C611 0.929 . S
H599 C609 0.929 . S
H600 C604 0.929 . S
H601 C610 0.929 . S
C602 H596 0.930 . S
C602 C603 1.367 . S
C602 C610 1.378 . S
C603 C602 1.367 . S
C603 C611 1.433 . S
C604 H600 0.929 . S
C604 C606 1.378 . S
C604 C608 1.350 . S
C605 C608 1.463 1_455 S
C605 C610 1.350 . S
C605 N613 1.427 . S
C606 H597 0.930 . S
C606 C604 1.378 . S
C606 C607 1.367 . S
C607 C606 1.367 . S
C607 C609 1.433 . S
C608 C604 1.350 . S
C608 C605 1.463 1_655 S
C608 N612 1.427 . S
C609 H599 0.929 . S
C609 C607 1.433 . S
C609 N612 1.384 . S
C610 H601 0.929 . S
C610 C602 1.378 . S
C610 C605 1.350 . S
C611 H598 0.929 . S
C611 C603 1.433 . S
C611 N613 1.384 . S
N612 C608 1.427 . S
N612 C609 1.384 . S
N613 C605 1.427 . S
N613 C611 1.384 . S
H614 C620 0.930 . S
H615 C624 0.930 . S
H616 C629 0.929 . S
H617 C627 0.929 . S
H618 C622 0.929 . S
H619 C628 0.929 . S
C620 H614 0.930 . S
C620 C621 1.367 . S
C620 C628 1.378 . S
C621 C620 1.367 . S
C621 C629 1.433 . S
C622 H618 0.929 . S
C622 C624 1.378 . S
C622 C626 1.350 . S
C623 C626 1.463 . S
C623 C628 1.350 . S
C623 N631 1.427 . S
C624 H615 0.930 . S
C624 C622 1.378 . S
C624 C625 1.367 . S
C625 C624 1.367 . S
C625 C627 1.433 . S
C626 C622 1.350 . S
C626 C623 1.463 . S
C626 N630 1.427 . S
C627 H617 0.929 . S
C627 C625 1.433 . S
C627 N630 1.384 . S
C628 H619 0.929 . S
C628 C620 1.378 . S
C628 C623 1.350 . S
C629 H616 0.929 . S
C629 C621 1.433 . S
C629 N631 1.384 . S
N630 C626 1.427 . S
N630 C627 1.384 . S
N631 C623 1.427 . S
N631 C629 1.384 . S
C279 C20 0.924 . S
C283 C175 0.931 . S
C297 C54 0.921 . S
C301 C209 0.930 . S
C315 C88 0.921 . S
C319 C243 0.929 . S
C333 C141 0.931 . S
C337 C122 0.931 . S
C351 C172 1.006 . S
C355 C145 1.001 . S
C369 C179 0.979 . S
C373 C206 1.018 . S
C387 C240 1.006 . S
C391 C213 0.998 . S
C405 C247 0.979 . S
C409 C138 1.018 . S
C423 C224 0.927 . S
C427 C107 0.931 . S
C441 C258 0.926 . S
C445 C5 0.931 . S
C459 C39 0.931 . S
C463 C156 0.925 . S
C477 C190 0.920 . S
C481 C73 0.929 . S
C495 C104 1.014 . S
C499 C77 0.989 . S
C513 C2 1.005 . S
C517 C111 1.001 . S
C531 C36 1.012 . S
C535 C9 0.987 . S
C549 C43 0.980 . S
C553 C70 1.018 . S
C567 C169 1.163 . S
C571 C33 1.175 1_545 S
C585 C203 1.163 1_455 S
C589 C67 1.175 . S
C603 C101 1.170 . S
C607 C237 1.170 . S
C621 C271 1.164 . S
C625 C135 1.176 . S
