# Generated by pormake.
# Topology unw, (4)-cn, num edge types: 1
# Building blocks:
#     Node 0, Type 0, BuildingBlock: GALJAG_clean_sbu_0, # of connection points: 4
#     Node 1, Type 0, BuildingBlock: GALJAG_clean_sbu_0, # of connection points: 4
#     Node 2, Type 0, BuildingBlock: GALJAG_clean_sbu_0, # of connection points: 4
#     Node 3, Type 0, BuildingBlock: GALJAG_clean_sbu_0, # of connection points: 4
#     Node 4, Type 0, BuildingBlock: GALJAG_clean_sbu_0, # of connection points: 4
#     Node 5, Type 0, BuildingBlock: GALJAG_clean_sbu_0, # of connection points: 4
#     Node 6, Type 0, BuildingBlock: GALJAG_clean_sbu_0, # of connection points: 4
#     Node 7, Type 0, BuildingBlock: GALJAG_clean_sbu_0, # of connection points: 4
#     Node 8, Type 0, BuildingBlock: GALJAG_clean_sbu_0, # of connection points: 4
#     Node 9, Type 0, BuildingBlock: GALJAG_clean_sbu_0, # of connection points: 4
#     Node 10, Type 0, BuildingBlock: GALJAG_clean_sbu_0, # of connection points: 4
#     Node 11, Type 0, BuildingBlock: GALJAG_clean_sbu_0, # of connection points: 4
#     Node 12, Type 0, BuildingBlock: GALJAG_clean_sbu_0, # of connection points: 4
#     Node 13, Type 0, BuildingBlock: GALJAG_clean_sbu_0, # of connection points: 4
#     Node 14, Type 0, BuildingBlock: GALJAG_clean_sbu_0, # of connection points: 4
#     Node 15, Type 0, BuildingBlock: GALJAG_clean_sbu_0, # of connection points: 4
#     Node 16, Type 0, BuildingBlock: GALJAG_clean_sbu_0, # of connection points: 4
#     Node 17, Type 0, BuildingBlock: GALJAG_clean_sbu_0, # of connection points: 4
#     Node 18, Type 0, BuildingBlock: GALJAG_clean_sbu_0, # of connection points: 4
#     Node 19, Type 0, BuildingBlock: GALJAG_clean_sbu_0, # of connection points: 4
#     Node 20, Type 0, BuildingBlock: GALJAG_clean_sbu_0, # of connection points: 4
#     Node 21, Type 0, BuildingBlock: GALJAG_clean_sbu_0, # of connection points: 4
#     Node 22, Type 0, BuildingBlock: GALJAG_clean_sbu_0, # of connection points: 4
#     Node 23, Type 0, BuildingBlock: GALJAG_clean_sbu_0, # of connection points: 4
#     Edge 24, Type (0, 0), BuildingBlock: KIFKEQ_clean_linker_1, # of connection points: 2
#     Edge 25, Type (0, 0), BuildingBlock: KIFKEQ_clean_linker_1, # of connection points: 2
#     Edge 26, Type (0, 0), BuildingBlock: KIFKEQ_clean_linker_1, # of connection points: 2
#     Edge 27, Type (0, 0), BuildingBlock: KIFKEQ_clean_linker_1, # of connection points: 2
#     Edge 28, Type (0, 0), BuildingBlock: KIFKEQ_clean_linker_1, # of connection points: 2
#     Edge 29, Type (0, 0), BuildingBlock: KIFKEQ_clean_linker_1, # of connection points: 2
#     Edge 30, Type (0, 0), BuildingBlock: KIFKEQ_clean_linker_1, # of connection points: 2
#     Edge 31, Type (0, 0), BuildingBlock: KIFKEQ_clean_linker_1, # of connection points: 2
#     Edge 32, Type (0, 0), BuildingBlock: KIFKEQ_clean_linker_1, # of connection points: 2
#     Edge 33, Type (0, 0), BuildingBlock: KIFKEQ_clean_linker_1, # of connection points: 2
#     Edge 34, Type (0, 0), BuildingBlock: KIFKEQ_clean_linker_1, # of connection points: 2
#     Edge 35, Type (0, 0), BuildingBlock: KIFKEQ_clean_linker_1, # of connection points: 2
#     Edge 36, Type (0, 0), BuildingBlock: KIFKEQ_clean_linker_1, # of connection points: 2
#     Edge 37, Type (0, 0), BuildingBlock: KIFKEQ_clean_linker_1, # of connection points: 2
#     Edge 38, Type (0, 0), BuildingBlock: KIFKEQ_clean_linker_1, # of connection points: 2
#     Edge 39, Type (0, 0), BuildingBlock: KIFKEQ_clean_linker_1, # of connection points: 2
#     Edge 40, Type (0, 0), BuildingBlock: KIFKEQ_clean_linker_1, # of connection points: 2
#     Edge 41, Type (0, 0), BuildingBlock: KIFKEQ_clean_linker_1, # of connection points: 2
#     Edge 42, Type (0, 0), BuildingBlock: KIFKEQ_clean_linker_1, # of connection points: 2
#     Edge 43, Type (0, 0), BuildingBlock: KIFKEQ_clean_linker_1, # of connection points: 2
#     Edge 44, Type (0, 0), BuildingBlock: KIFKEQ_clean_linker_1, # of connection points: 2
#     Edge 45, Type (0, 0), BuildingBlock: KIFKEQ_clean_linker_1, # of connection points: 2
#     Edge 46, Type (0, 0), BuildingBlock: KIFKEQ_clean_linker_1, # of connection points: 2
#     Edge 47, Type (0, 0), BuildingBlock: KIFKEQ_clean_linker_1, # of connection points: 2
#     Edge 48, Type (0, 0), BuildingBlock: KIFKEQ_clean_linker_1, # of connection points: 2
#     Edge 49, Type (0, 0), BuildingBlock: KIFKEQ_clean_linker_1, # of connection points: 2
#     Edge 50, Type (0, 0), BuildingBlock: KIFKEQ_clean_linker_1, # of connection points: 2
#     Edge 51, Type (0, 0), BuildingBlock: KIFKEQ_clean_linker_1, # of connection points: 2
#     Edge 52, Type (0, 0), BuildingBlock: KIFKEQ_clean_linker_1, # of connection points: 2
#     Edge 53, Type (0, 0), BuildingBlock: KIFKEQ_clean_linker_1, # of connection points: 2
#     Edge 54, Type (0, 0), BuildingBlock: KIFKEQ_clean_linker_1, # of connection points: 2
#     Edge 55, Type (0, 0), BuildingBlock: KIFKEQ_clean_linker_1, # of connection points: 2
#     Edge 56, Type (0, 0), BuildingBlock: KIFKEQ_clean_linker_1, # of connection points: 2
#     Edge 57, Type (0, 0), BuildingBlock: KIFKEQ_clean_linker_1, # of connection points: 2
#     Edge 58, Type (0, 0), BuildingBlock: KIFKEQ_clean_linker_1, # of connection points: 2
#     Edge 59, Type (0, 0), BuildingBlock: KIFKEQ_clean_linker_1, # of connection points: 2
#     Edge 60, Type (0, 0), BuildingBlock: KIFKEQ_clean_linker_1, # of connection points: 2
#     Edge 61, Type (0, 0), BuildingBlock: KIFKEQ_clean_linker_1, # of connection points: 2
#     Edge 62, Type (0, 0), BuildingBlock: KIFKEQ_clean_linker_1, # of connection points: 2
#     Edge 63, Type (0, 0), BuildingBlock: KIFKEQ_clean_linker_1, # of connection points: 2
#     Edge 64, Type (0, 0), BuildingBlock: KIFKEQ_clean_linker_1, # of connection points: 2
#     Edge 65, Type (0, 0), BuildingBlock: KIFKEQ_clean_linker_1, # of connection points: 2
#     Edge 66, Type (0, 0), BuildingBlock: KIFKEQ_clean_linker_1, # of connection points: 2
#     Edge 67, Type (0, 0), BuildingBlock: KIFKEQ_clean_linker_1, # of connection points: 2
#     Edge 68, Type (0, 0), BuildingBlock: KIFKEQ_clean_linker_1, # of connection points: 2
#     Edge 69, Type (0, 0), BuildingBlock: KIFKEQ_clean_linker_1, # of connection points: 2
#     Edge 70, Type (0, 0), BuildingBlock: KIFKEQ_clean_linker_1, # of connection points: 2
#     Edge 71, Type (0, 0), BuildingBlock: KIFKEQ_clean_linker_1, # of connection points: 2
# Relax obj value: 0.374
# Max RMSD: 0.256
# Mean RMSD: 0.255
data_MOF--net-unw--node1-GALJAG_clean_sbu_0--edge1-KIFKEQ_clean_linker_1
_symmetry_space_group_name_H-M    P1
_symmetry_Int_Tables_number       1
_symmetry_cell_setting            triclinic
loop_
_symmetry_equiv_pos_as_xyz
'x, y, z'
_cell_length_a     48.311143
_cell_length_b     48.334415
_cell_length_c     48.313255
_cell_angle_alpha  90.039578
_cell_angle_beta   89.969804
_cell_angle_gamma 90.04771
loop_
_atom_site_label
_atom_site_type_symbol
_atom_site_fract_x
_atom_site_fract_y
_atom_site_fract_z
_atom_type_partial_charge
In0 In 0.12033 0.38546 0.26728 0.0
O1 O 0.07378 0.37966 0.26297 0.0
O2 O 0.08975 0.39577 0.3011 0.0
C3 C 0.15274 0.36943 0.22598 0.0
C4 C 0.13067 0.3396 0.29569 0.0
C5 C 0.13817 0.4368 0.25757 0.0
O6 O 0.12653 0.36908 0.22304 0.0
O7 O 0.16163 0.37683 0.24939 0.0
O8 O 0.14667 0.42282 0.27814 0.0
O9 O 0.11799 0.42624 0.2445 0.0
C10 C 0.06903 0.38639 0.28799 0.0
O11 O 0.14055 0.36277 0.30342 0.0
O12 O 0.11634 0.34003 0.27382 0.0
In13 In 0.62755 0.13149 0.25313 0.0
O14 O 0.64161 0.14588 0.21004 0.0
O15 O 0.63343 0.17566 0.24186 0.0
C16 C 0.63822 0.07775 0.26116 0.0
C17 C 0.57378 0.1432 0.24606 0.0
C18 C 0.66804 0.14448 0.28844 0.0
O19 O 0.64583 0.09033 0.23942 0.0
O20 O 0.62219 0.09139 0.27679 0.0
O21 O 0.64284 0.14513 0.29601 0.0
O22 O 0.67206 0.13797 0.26347 0.0
C23 C 0.6404 0.17121 0.21708 0.0
O24 O 0.58703 0.15079 0.26742 0.0
O25 O 0.58677 0.12679 0.23027 0.0
In26 In 0.88781 0.63345 0.23401 0.0
O27 O 0.87058 0.64861 0.27558 0.0
O28 O 0.88159 0.67784 0.24392 0.0
C29 C 0.8838 0.58055 0.21904 0.0
C30 C 0.94052 0.64426 0.24613 0.0
C31 C 0.84503 0.64424 0.20133 0.0
O32 O 0.8756 0.58885 0.24267 0.0
O33 O 0.89671 0.59839 0.20475 0.0
O34 O 0.86967 0.64971 0.19364 0.0
O35 O 0.84261 0.63372 0.2252 0.0
C36 C 0.87244 0.67385 0.26811 0.0
O37 O 0.92935 0.65297 0.22397 0.0
O38 O 0.92591 0.62773 0.26036 0.0
In39 In 0.37071 0.88575 0.22042 0.0
O40 O 0.34495 0.92345 0.20886 0.0
O41 O 0.37226 0.92623 0.24363 0.0
C42 C 0.36277 0.84097 0.1895 0.0
C43 C 0.33531 0.86906 0.25914 0.0
C44 C 0.42371 0.88598 0.20476 0.0
O45 O 0.35339 0.86439 0.18193 0.0
O46 O 0.37533 0.84059 0.21245 0.0
O47 O 0.41634 0.87823 0.2288 0.0
O48 O 0.40468 0.89664 0.19018 0.0
C49 C 0.35273 0.9371 0.22996 0.0
O50 O 0.36098 0.87139 0.26472 0.0
O51 O 0.3287 0.8739 0.23434 0.0
In52 In 0.10559 0.6073 0.73783 0.0
O53 O 0.10676 0.64865 0.7174 0.0
O54 O 0.08933 0.64728 0.75819 0.0
C55 C 0.10555 0.56328 0.77139 0.0
C56 C 0.06683 0.59721 0.69942 0.0
C57 C 0.16029 0.61121 0.74518 0.0
O58 O 0.11245 0.56205 0.74612 0.0
O59 O 0.09562 0.58637 0.7791 0.0
O60 O 0.14255 0.61824 0.76301 0.0
O61 O 0.15059 0.60311 0.7221 0.0
C62 C 0.09544 0.66162 0.73703 0.0
O63 O 0.06125 0.59969 0.72493 0.0
O64 O 0.09246 0.59746 0.69356 0.0
In65 In 0.3541 0.11204 0.77656 0.0
O66 O 0.34465 0.12494 0.73169 0.0
O67 O 0.3116 0.11835 0.76058 0.0
C68 C 0.40705 0.11872 0.79166 0.0
C69 C 0.33986 0.05883 0.77082 0.0
C70 C 0.33922 0.15604 0.80635 0.0
O71 O 0.39885 0.12427 0.76732 0.0
O72 O 0.38927 0.10687 0.80685 0.0
O73 O 0.33523 0.13166 0.81538 0.0
O74 O 0.35028 0.1576 0.78271 0.0
C75 C 0.31868 0.12436 0.73617 0.0
O76 O 0.33159 0.07339 0.79105 0.0
O77 O 0.35822 0.07011 0.75586 0.0
In78 In 0.86876 0.37919 0.75037 0.0
O79 O 0.85931 0.425 0.74399 0.0
O80 O 0.88 0.41232 0.78128 0.0
C81 C 0.85325 0.33513 0.72144 0.0
C82 C 0.82482 0.36832 0.78119 0.0
C83 C 0.91968 0.3701 0.73134 0.0
O84 O 0.84872 0.35958 0.71239 0.0
O85 O 0.86547 0.33361 0.74464 0.0
O86 O 0.91266 0.36341 0.75589 0.0
O87 O 0.90177 0.38382 0.71783 0.0
C88 C 0.86877 0.4318 0.76769 0.0
O89 O 0.84917 0.36225 0.78948 0.0
O90 O 0.82328 0.38039 0.7579 0.0
In91 In 0.621 0.83269 0.69337 0.0
O92 O 0.62482 0.80504 0.65488 0.0
O93 O 0.66066 0.82638 0.66928 0.0
C94 C 0.56916 0.81771 0.70894 0.0
C95 C 0.63013 0.88677 0.6811 0.0
C96 C 0.64514 0.80461 0.73493 0.0
O97 O 0.57997 0.80978 0.68649 0.0
O98 O 0.58295 0.83597 0.72151 0.0
O99 O 0.63848 0.82974 0.73759 0.0
O100 O 0.64049 0.7945 0.71143 0.0
C101 C 0.65048 0.8096 0.65204 0.0
O102 O 0.63986 0.87492 0.70222 0.0
O103 O 0.61387 0.87187 0.6669 0.0
In104 In 0.22696 0.11074 0.36691 0.0
O105 O 0.23692 0.12122 0.41172 0.0
O106 O 0.19759 0.10297 0.40246 0.0
C107 C 0.26455 0.12642 0.32983 0.0
C108 C 0.19563 0.15477 0.35732 0.0
C109 C 0.23556 0.0585 0.35109 0.0
O110 O 0.27068 0.12547 0.35544 0.0
O111 O 0.23983 0.12039 0.32394 0.0
O112 O 0.21416 0.07182 0.34367 0.0
O113 O 0.25008 0.07024 0.36952 0.0
C114 C 0.21283 0.11488 0.42021 0.0
O115 O 0.18784 0.13084 0.3495 0.0
O116 O 0.21899 0.15597 0.36902 0.0
In117 In 0.86156 0.27598 0.39578 0.0
O118 O 0.84112 0.31399 0.37639 0.0
O119 O 0.86247 0.28464 0.35058 0.0
C120 C 0.84928 0.26449 0.44841 0.0
C121 C 0.91392 0.2933 0.39164 0.0
C122 C 0.825 0.23766 0.38077 0.0
O123 O 0.84004 0.286 0.43645 0.0
O124 O 0.86742 0.25118 0.43491 0.0
O125 O 0.85086 0.23261 0.37953 0.0
O126 O 0.81857 0.26171 0.38869 0.0
C127 C 0.84898 0.30699 0.35221 0.0
O128 O 0.9067 0.26899 0.38457 0.0
O129 O 0.89535 0.30735 0.40377 0.0
In130 In 0.75909 0.88264 0.3774 0.0
O131 O 0.79814 0.86462 0.35723 0.0
O132 O 0.76676 0.83724 0.37223 0.0
C133 C 0.75038 0.93561 0.36383 0.0
C134 C 0.77547 0.87887 0.43033 0.0
C135 C 0.71666 0.86982 0.34469 0.0
O136 O 0.77041 0.92181 0.35391 0.0
O137 O 0.7372 0.9237 0.38312 0.0
O138 O 0.71497 0.86585 0.37065 0.0
O139 O 0.73942 0.87918 0.336 0.0
C140 C 0.79003 0.83985 0.36066 0.0
O141 O 0.75152 0.87137 0.42254 0.0
O142 O 0.78992 0.8906 0.41188 0.0
In143 In 0.13959 0.75239 0.37223 0.0
O144 O 0.15747 0.71127 0.35597 0.0
O145 O 0.14852 0.74422 0.32774 0.0
C146 C 0.14144 0.76071 0.42706 0.0
C147 C 0.08735 0.74163 0.35759 0.0
C148 C 0.17985 0.78917 0.3639 0.0
O149 O 0.15279 0.73985 0.41577 0.0
O150 O 0.12718 0.77566 0.41096 0.0
O151 O 0.15467 0.79528 0.35923 0.0
O152 O 0.18405 0.76493 0.3727 0.0
C153 C 0.15704 0.71976 0.33102 0.0
O154 O 0.09915 0.76428 0.3514 0.0
O155 O 0.10097 0.72594 0.37356 0.0
In156 In 0.21079 0.86498 0.65896 0.0
O157 O 0.20206 0.9059 0.68096 0.0
O158 O 0.23504 0.90484 0.65188 0.0
C159 C 0.16802 0.83375 0.6757 0.0
C160 C 0.25087 0.84698 0.69293 0.0
C161 C 0.20441 0.85169 0.60504 0.0
O162 O 0.16717 0.85988 0.67786 0.0
O163 O 0.18998 0.82411 0.66545 0.0
O164 O 0.22305 0.84147 0.62022 0.0
O165 O 0.19025 0.87061 0.6164 0.0
C166 C 0.22273 0.91821 0.67066 0.0
O167 O 0.25544 0.85146 0.66756 0.0
O168 O 0.22619 0.85052 0.70047 0.0
In169 In 0.1231 0.24711 0.62471 0.0
O170 O 0.13849 0.20625 0.64201 0.0
O171 O 0.16776 0.23612 0.62629 0.0
C172 C 0.07196 0.26641 0.63233 0.0
C173 C 0.12664 0.22843 0.57293 0.0
C174 C 0.13925 0.27808 0.66708 0.0
O175 O 0.07899 0.24234 0.64037 0.0
O176 O 0.08992 0.27916 0.61796 0.0
O177 O 0.14342 0.28609 0.64223 0.0
O178 O 0.12739 0.25483 0.66975 0.0
C179 C 0.16368 0.21255 0.63708 0.0
O180 O 0.13688 0.25175 0.57982 0.0
O181 O 0.11211 0.21665 0.59138 0.0
In182 In 0.7321 0.12106 0.62882 0.0
O183 O 0.69268 0.13274 0.6514 0.0
O184 O 0.72574 0.11277 0.67377 0.0
C185 C 0.74432 0.14024 0.57862 0.0
C186 C 0.7179 0.06786 0.62297 0.0
C187 C 0.76281 0.16243 0.64835 0.0
O188 O 0.7212 0.1454 0.59017 0.0
O189 O 0.75951 0.12283 0.5911 0.0
O190 O 0.77269 0.13794 0.64695 0.0
O191 O 0.73788 0.16502 0.64071 0.0
C192 C 0.70163 0.12314 0.6743 0.0
O193 O 0.74159 0.07496 0.63221 0.0
O194 O 0.70291 0.08761 0.61434 0.0
In195 In 0.87484 0.72363 0.60976 0.0
O196 O 0.87331 0.73935 0.56572 0.0
O197 O 0.87515 0.76969 0.59757 0.0
C198 C 0.88786 0.72776 0.66357 0.0
C199 C 0.81947 0.71529 0.60987 0.0
C200 C 0.91573 0.68681 0.60017 0.0
O201 O 0.87963 0.70571 0.65222 0.0
O202 O 0.88919 0.74867 0.64773 0.0
O203 O 0.9198 0.71266 0.60063 0.0
O204 O 0.89058 0.67973 0.60201 0.0
C205 C 0.87217 0.76467 0.57201 0.0
O206 O 0.83244 0.72572 0.62989 0.0
O207 O 0.83455 0.7073 0.59009 0.0
In208 In 0.37092 0.26227 0.13996 0.0
O209 O 0.35987 0.25513 0.09481 0.0
O210 O 0.3776 0.29412 0.10659 0.0
C211 C 0.35828 0.22394 0.17718 0.0
C212 C 0.32536 0.29084 0.15161 0.0
C213 C 0.42424 0.25325 0.15125 0.0
O214 O 0.35728 0.2184 0.1514 0.0
O215 O 0.3649 0.24851 0.18329 0.0
O216 O 0.41131 0.27391 0.16118 0.0
O217 O 0.4111 0.23945 0.13319 0.0
C218 C 0.36593 0.27981 0.08791 0.0
O219 O 0.34916 0.29989 0.15855 0.0
O220 O 0.32508 0.26751 0.13971 0.0
In221 In 0.38551 0.69599 0.84197 0.0
O222 O 0.37054 0.74115 0.84323 0.0
O223 O 0.37868 0.72183 0.80436 0.0
C224 C 0.37878 0.67802 0.89464 0.0
C225 C 0.43834 0.70322 0.82546 0.0
C226 C 0.34297 0.66765 0.81987 0.0
O227 O 0.37461 0.70282 0.88742 0.0
O228 O 0.38888 0.66283 0.87582 0.0
O229 O 0.36776 0.66002 0.81588 0.0
O230 O 0.34025 0.68874 0.83498 0.0
C231 C 0.37126 0.74331 0.81709 0.0
O232 O 0.4231 0.68419 0.81584 0.0
O233 O 0.42826 0.71569 0.84615 0.0
In234 In 0.23221 0.37767 0.88989 0.0
O235 O 0.22944 0.36606 0.9351 0.0
O236 O 0.26584 0.38744 0.92034 0.0
C237 C 0.20711 0.36555 0.84294 0.0
C238 C 0.25995 0.33195 0.88031 0.0
C239 C 0.21028 0.42772 0.88627 0.0
O240 O 0.19604 0.35988 0.86632 0.0
O241 O 0.23062 0.37749 0.84376 0.0
O242 O 0.23499 0.4227 0.8784 0.0
O243 O 0.19793 0.40796 0.8986 0.0
C244 C 0.25398 0.37457 0.94005 0.0
O245 O 0.27005 0.35564 0.87417 0.0
O246 O 0.23585 0.33184 0.89106 0.0
In247 In 0.61866 0.23959 0.87934 0.0
O248 O 0.57496 0.247 0.86323 0.0
O249 O 0.58136 0.21503 0.89317 0.0
C250 C 0.65762 0.27047 0.85513 0.0
C251 C 0.6294 0.19606 0.84758 0.0
C252 C 0.63006 0.26185 0.92878 0.0
O253 O 0.63235 0.27781 0.85451 0.0
O254 O 0.66235 0.24776 0.86709 0.0
O255 O 0.63674 0.23711 0.92294 0.0
O256 O 0.61514 0.27378 0.91088 0.0
C257 C 0.56494 0.22645 0.87622 0.0
O258 O 0.63752 0.19663 0.87263 0.0
O259 O 0.61678 0.21733 0.83915 0.0
In260 In 0.79861 0.66165 0.88002 0.0
O261 O 0.80663 0.68382 0.92106 0.0
O262 O 0.77601 0.65243 0.92067 0.0
C263 C 0.83484 0.68947 0.84789 0.0
C264 C 0.75297 0.68841 0.86354 0.0
C265 C 0.81115 0.60905 0.86438 0.0
O266 O 0.84247 0.67888 0.87059 0.0
O267 O 0.80988 0.68548 0.84176 0.0
O268 O 0.78884 0.62094 0.85782 0.0
O269 O 0.82645 0.623 0.8804 0.0
C270 C 0.78702 0.67215 0.93381 0.0
O271 O 0.75532 0.66245 0.86065 0.0
O272 O 0.77348 0.70023 0.87452 0.0
In273 In 0.64131 0.77851 0.118 0.0
O274 O 0.66667 0.79273 0.08102 0.0
O275 O 0.64159 0.7563 0.07687 0.0
C276 C 0.64681 0.80451 0.16616 0.0
C277 C 0.67949 0.74194 0.13219 0.0
C278 C 0.5887 0.79487 0.11614 0.0
O279 O 0.65588 0.81515 0.14378 0.0
O280 O 0.63549 0.78098 0.16382 0.0
O281 O 0.59524 0.77026 0.12286 0.0
O282 O 0.60849 0.80976 0.10739 0.0
C283 C 0.66033 0.7716 0.06662 0.0
O284 O 0.65421 0.73451 0.13004 0.0
O285 O 0.68429 0.76739 0.12842 0.0
In286 In 0.27117 0.61075 0.12184 0.0
O287 O 0.23135 0.63032 0.13862 0.0
O288 O 0.26479 0.62036 0.16633 0.0
C289 C 0.28601 0.60764 0.06859 0.0
C290 C 0.25585 0.56037 0.13794 0.0
C291 C 0.30265 0.65524 0.12672 0.0
O292 O 0.26249 0.61701 0.07598 0.0
O293 O 0.30052 0.59734 0.08794 0.0
O294 O 0.31063 0.63196 0.13625 0.0
O295 O 0.27914 0.65553 0.11508 0.0
C296 C 0.24053 0.62981 0.16341 0.0
O297 O 0.27957 0.5702 0.14396 0.0
O298 O 0.24168 0.57467 0.12107 0.0
In299 In 0.75829 0.37842 0.11891 0.0
O300 O 0.75537 0.42408 0.12815 0.0
O301 O 0.79311 0.40803 0.11046 0.0
C302 C 0.72635 0.33591 0.13071 0.0
C303 C 0.78308 0.3687 0.16645 0.0
C304 C 0.74091 0.37153 0.06744 0.0
O305 O 0.71781 0.36069 0.13429 0.0
O306 O 0.75094 0.33323 0.12171 0.0
O307 O 0.76457 0.36274 0.07521 0.0
O308 O 0.72809 0.38662 0.0848 0.0
C309 C 0.78054 0.42842 0.12143 0.0
O310 O 0.79335 0.35993 0.14368 0.0
O311 O 0.76039 0.38189 0.16475 0.0
H312 H 0.2112 0.52876 0.12394 0.0
H313 H 0.26932 0.5435 0.19007 0.0
H314 H 0.18343 0.49995 0.15459 0.0
H315 H 0.24087 0.51608 0.22133 0.0
H316 H 0.1932 0.44649 0.26523 0.0
H317 H 0.22356 0.47382 0.23582 0.0
H318 H 0.15232 0.50404 0.1909 0.0
H319 H 0.12225 0.4753 0.21941 0.0
C320 C 0.21824 0.52547 0.14497 0.0
C321 C 0.24256 0.53822 0.15449 0.0
C322 C 0.20203 0.50937 0.16279 0.0
C323 C 0.20936 0.50608 0.19084 0.0
C324 C 0.23447 0.51784 0.19995 0.0
C325 C 0.25095 0.53353 0.18194 0.0
C326 C 0.18397 0.45952 0.24951 0.0
C327 C 0.15527 0.45882 0.24474 0.0
C328 C 0.20146 0.47517 0.23246 0.0
C329 C 0.19065 0.4909 0.21043 0.0
C330 C 0.16167 0.49155 0.20695 0.0
C331 C 0.14427 0.47548 0.22367 0.0
H332 H 0.53689 0.12667 0.20649 0.0
H333 H 0.55508 0.19376 0.26253 0.0
H334 H 0.50156 0.15479 0.18416 0.0
H335 H 0.52112 0.22261 0.23928 0.0
H336 H 0.44213 0.26142 0.20411 0.0
H337 H 0.47602 0.23399 0.22921 0.0
H338 H 0.49694 0.19102 0.15346 0.0
H339 H 0.46171 0.21739 0.12895 0.0
C340 C 0.53304 0.14734 0.21427 0.0
C341 C 0.54864 0.15788 0.23641 0.0
C342 C 0.51312 0.16376 0.20112 0.0
C343 C 0.50869 0.19142 0.20933 0.0
C344 C 0.52356 0.20146 0.23234 0.0
C345 C 0.54308 0.18483 0.24583 0.0
C346 C 0.45445 0.24654 0.19272 0.0
C347 C 0.44933 0.24166 0.16451 0.0
C348 C 0.4739 0.23063 0.20717 0.0
C349 C 0.48912 0.20972 0.19365 0.0
C350 C 0.4851 0.20616 0.16496 0.0
C351 C 0.46525 0.22168 0.15068 0.0
H352 H 0.76102 0.47127 0.15284 0.0
H353 H 0.83534 0.44032 0.11396 0.0
H354 H 0.78827 0.50631 0.17693 0.0
H355 H 0.86265 0.47499 0.13844 0.0
H356 H 0.89689 0.55974 0.1682 0.0
H357 H 0.87216 0.52396 0.14269 0.0
H358 H 0.82175 0.50751 0.2147 0.0
H359 H 0.84618 0.54376 0.24009 0.0
C360 C 0.7831 0.47225 0.14903 0.0
C361 C 0.79597 0.45301 0.13142 0.0
C362 C 0.7988 0.49206 0.16319 0.0
C363 C 0.82775 0.49315 0.16006 0.0
C364 C 0.84042 0.4748 0.14134 0.0
C365 C 0.82472 0.45496 0.12721 0.0
C366 C 0.88094 0.54807 0.17882 0.0
C367 C 0.87348 0.55466 0.20619 0.0
C368 C 0.86669 0.52758 0.16413 0.0
C369 C 0.84459 0.51319 0.17644 0.0
C370 C 0.83822 0.51867 0.20436 0.0
C371 C 0.85252 0.53915 0.21908 0.0
H372 H 0.547 0.77178 0.14679 0.0
H373 H 0.57035 0.84702 0.10464 0.0
H374 H 0.50793 0.79582 0.16802 0.0
H375 H 0.53158 0.87113 0.12614 0.0
H376 H 0.46395 0.85358 0.22779 0.0
H377 H 0.50257 0.8314 0.20395 0.0
H378 H 0.48127 0.87476 0.12881 0.0
H379 H 0.44289 0.89722 0.15274 0.0
C380 C 0.54346 0.79328 0.14157 0.0
C381 C 0.5618 0.80746 0.124 0.0
C382 C 0.52132 0.80719 0.15409 0.0
C383 C 0.51692 0.83557 0.14922 0.0
C384 C 0.53432 0.8493 0.13036 0.0
C385 C 0.55653 0.83543 0.11795 0.0
C386 C 0.46788 0.85888 0.20636 0.0
C387 C 0.45035 0.87723 0.19221 0.0
C388 C 0.48977 0.84582 0.19256 0.0
C389 C 0.49472 0.85087 0.1643 0.0
C390 C 0.47808 0.87037 0.15055 0.0
C391 C 0.45612 0.88335 0.16433 0.0
H392 H 0.22787 0.46636 0.84916 0.0
H393 H 0.15733 0.44365 0.89928 0.0
H394 H 0.19919 0.49918 0.8238 0.0
H395 H 0.12871 0.47703 0.87396 0.0
H396 H 0.10123 0.56312 0.82825 0.0
H397 H 0.12594 0.53238 0.86034 0.0
H398 H 0.15682 0.48522 0.79111 0.0
H399 H 0.13196 0.5152 0.75925 0.0
C400 C 0.20647 0.46892 0.85535 0.0
C401 C 0.19486 0.45223 0.87614 0.0
C402 C 0.18999 0.48756 0.84064 0.0
C403 C 0.16166 0.49024 0.84665 0.0
C404 C 0.15049 0.47526 0.86889 0.0
C405 C 0.16691 0.45625 0.8834 0.0
C406 C 0.11265 0.54571 0.81997 0.0
C407 C 0.1147 0.54169 0.79117 0.0
C408 C 0.12692 0.52828 0.83832 0.0
C409 C 0.14373 0.50686 0.8281 0.0
C410 C 0.14441 0.50191 0.79948 0.0
C411 C 0.12993 0.51897 0.78126 0.0
H412 H 0.5279 0.24311 0.83658 0.0
H413 H 0.5443 0.17735 0.89471 0.0
H414 H 0.49065 0.21569 0.81617 0.0
H415 H 0.50805 0.14955 0.87375 0.0
H416 H 0.44685 0.1498 0.76559 0.0
H417 H 0.48403 0.17629 0.78737 0.0
H418 H 0.46055 0.14323 0.86712 0.0
H419 H 0.42439 0.11607 0.84522 0.0
C420 C 0.52327 0.22299 0.84529 0.0
C421 C 0.539 0.21253 0.86738 0.0
C422 C 0.50221 0.20702 0.83328 0.0
C423 C 0.49649 0.1801 0.84294 0.0
C424 C 0.51155 0.17019 0.8658 0.0
C425 C 0.5324 0.18622 0.87792 0.0
C426 C 0.45011 0.14772 0.78767 0.0
C427 C 0.43271 0.1307 0.80361 0.0
C428 C 0.47114 0.16327 0.80027 0.0
C429 C 0.47515 0.16235 0.82916 0.0
C430 C 0.45838 0.14442 0.84485 0.0
C431 C 0.43757 0.12874 0.83223 0.0
H432 H 0.78165 0.57592 0.82922 0.0
H433 H 0.86075 0.58215 0.87024 0.0
H434 H 0.79716 0.53426 0.80536 0.0
H435 H 0.87662 0.54082 0.84586 0.0
H436 H 0.84076 0.47614 0.74583 0.0
H437 H 0.82771 0.51898 0.76937 0.0
H438 H 0.871 0.49187 0.84271 0.0
H439 H 0.88458 0.44958 0.81896 0.0
C440 C 0.80233 0.56831 0.83326 0.0
C441 C 0.81989 0.58234 0.85177 0.0
C442 C 0.81138 0.54455 0.81929 0.0
C443 C 0.8383 0.53415 0.82337 0.0
C444 C 0.85568 0.54797 0.84231 0.0
C445 C 0.84659 0.57172 0.85632 0.0
C446 C 0.84787 0.47956 0.76682 0.0
C447 C 0.86377 0.4594 0.78045 0.0
C448 C 0.84011 0.504 0.78048 0.0
C449 C 0.848 0.5089 0.80816 0.0
C450 C 0.86469 0.48908 0.82139 0.0
C451 C 0.87247 0.46471 0.80774 0.0
H452 H 0.53847 0.83313 0.75403 0.0
H453 H 0.5505 0.7659 0.69654 0.0
H454 H 0.50813 0.80399 0.78189 0.0
H455 H 0.52172 0.73614 0.72506 0.0
H456 H 0.44987 0.69508 0.77083 0.0
H457 H 0.47915 0.72333 0.74137 0.0
H458 H 0.50813 0.76807 0.81333 0.0
H459 H 0.47732 0.74073 0.84249 0.0
C460 C 0.53434 0.81219 0.74717 0.0
C461 C 0.54671 0.80197 0.72292 0.0
C462 C 0.51733 0.7952 0.76345 0.0
C463 C 0.51266 0.76728 0.75625 0.0
C464 C 0.52436 0.75746 0.73137 0.0
C465 C 0.54092 0.77463 0.71485 0.0
C466 C 0.46297 0.71053 0.78046 0.0
C467 C 0.4613 0.71553 0.80908 0.0
C468 C 0.47982 0.72692 0.76347 0.0
C469 C 0.49594 0.74854 0.77466 0.0
C470 C 0.49549 0.75232 0.80362 0.0
C471 C 0.4782 0.73625 0.82054 0.0
H472 H 0.16478 0.24408 0.53376 0.0
H473 H 0.11017 0.17707 0.55645 0.0
H474 H 0.18565 0.21488 0.4981 0.0
H475 H 0.1315 0.14769 0.52166 0.0
H476 H 0.15966 0.11061 0.43879 0.0
H477 H 0.13728 0.13884 0.47394 0.0
H478 H 0.21611 0.17585 0.49441 0.0
H479 H 0.23836 0.14813 0.45848 0.0
C480 C 0.15691 0.22329 0.53084 0.0
C481 C 0.13572 0.213 0.54791 0.0
C482 C 0.16919 0.20635 0.5107 0.0
C483 C 0.16063 0.17868 0.50719 0.0
C484 C 0.1386 0.16886 0.52352 0.0
C485 C 0.12629 0.18579 0.54353 0.0
C486 C 0.17236 0.12432 0.45118 0.0
C487 C 0.20085 0.12703 0.44581 0.0
C488 C 0.15947 0.14064 0.47136 0.0
C489 C 0.17473 0.16005 0.48684 0.0
C490 C 0.20352 0.16167 0.48245 0.0
C491 C 0.21641 0.1454 0.46216 0.0
H492 H 0.72943 0.19296 0.5653 0.0
H493 H 0.78654 0.12808 0.54315 0.0
H494 H 0.75521 0.22554 0.5368 0.0
H495 H 0.81149 0.16005 0.51323 0.0
H496 H 0.86929 0.22571 0.48417 0.0
H497 H 0.84249 0.19639 0.51521 0.0
H498 H 0.76839 0.24177 0.49384 0.0
H499 H 0.79568 0.27201 0.46425 0.0
C500 C 0.74696 0.18543 0.55353 0.0
C501 C 0.75588 0.15791 0.55637 0.0
C502 C 0.76191 0.20419 0.5372 0.0
C503 C 0.78593 0.19578 0.52292 0.0
C504 C 0.79375 0.16772 0.52456 0.0
C505 C 0.77912 0.14915 0.54131 0.0
C506 C 0.84742 0.2299 0.48683 0.0
C507 C 0.83468 0.25131 0.47194 0.0
C508 C 0.83185 0.21272 0.50421 0.0
C509 C 0.80295 0.21605 0.50666 0.0
C510 C 0.79052 0.23848 0.4928 0.0
C511 C 0.80624 0.25601 0.47585 0.0
H512 H 0.75489 0.84028 0.46596 0.0
H513 H 0.82504 0.89429 0.45321 0.0
H514 H 0.78047 0.81577 0.50199 0.0
H515 H 0.85036 0.86994 0.48984 0.0
H516 H 0.86696 0.82109 0.57892 0.0
H517 H 0.8431 0.85348 0.54764 0.0
H518 H 0.82976 0.78724 0.48934 0.0
H519 H 0.854 0.75527 0.51974 0.0
C520 C 0.77538 0.84755 0.47146 0.0
C521 C 0.78798 0.86915 0.4566 0.0
C522 C 0.79006 0.83339 0.49197 0.0
C523 C 0.81741 0.84087 0.49842 0.0
C524 C 0.82927 0.86386 0.48523 0.0
C525 C 0.81474 0.87777 0.46433 0.0
C526 C 0.85949 0.81366 0.55913 0.0
C527 C 0.86241 0.78561 0.55182 0.0
C528 C 0.84575 0.83213 0.54137 0.0
C529 C 0.83427 0.82264 0.51639 0.0
C530 C 0.83815 0.79494 0.50867 0.0
C531 C 0.85225 0.77672 0.52602 0.0
H532 H 0.18788 0.74875 0.45659 0.0
H533 H 0.11207 0.79562 0.46043 0.0
H534 H 0.20424 0.77148 0.49834 0.0
H535 H 0.12737 0.81713 0.50342 0.0
H536 H 0.21935 0.80106 0.58581 0.0
H537 H 0.20264 0.77722 0.54498 0.0
H538 H 0.15632 0.85016 0.52161 0.0
H539 H 0.17172 0.87323 0.56385 0.0
C540 C 0.1743 0.76327 0.46695 0.0
C541 C 0.14863 0.77028 0.4553 0.0
C542 C 0.18368 0.77643 0.49102 0.0
C543 C 0.16736 0.79655 0.5045 0.0
C544 C 0.14101 0.80245 0.49343 0.0
C545 C 0.13195 0.78974 0.46898 0.0
C546 C 0.20581 0.81213 0.57179 0.0
C547 C 0.19696 0.83911 0.57803 0.0
C548 C 0.19621 0.79842 0.54817 0.0
C549 C 0.1779 0.81149 0.52966 0.0
C550 C 0.16979 0.83895 0.53554 0.0
C551 C 0.17894 0.85244 0.55958 0.0
H552 H 0.6638 0.92203 0.70947 0.0
H553 H 0.62035 0.9136 0.63188 0.0
H554 H 0.68533 0.96449 0.69302 0.0
H555 H 0.64239 0.95602 0.61507 0.0
H556 H 0.66692 0.04889 0.60737 0.0
H557 H 0.64468 0.00562 0.62068 0.0
H558 H 0.72014 0.97941 0.66072 0.0
H559 H 0.74218 0.02305 0.64791 0.0
C560 C 0.65867 0.92936 0.68893 0.0
C561 C 0.64029 0.91439 0.67202 0.0
C562 C 0.67131 0.95359 0.67933 0.0
C563 C 0.66604 0.96358 0.65249 0.0
C564 C 0.64693 0.94907 0.63587 0.0
C565 C 0.63422 0.92475 0.64552 0.0
C566 C 0.67896 0.0337 0.6186 0.0
C567 C 0.70637 0.03952 0.6266 0.0
C568 C 0.66615 0.00881 0.62625 0.0
C569 C 0.6804 0.98905 0.64216 0.0
C570 C 0.70828 0.99435 0.64901 0.0
C571 C 0.72108 0.01926 0.64134 0.0
H572 H 0.91214 0.63188 0.61321 0.0
H573 H 0.97126 0.69693 0.59703 0.0
H574 H 0.94926 0.6027 0.63122 0.0
H575 H 0.00826 0.6679 0.61511 0.0
H576 H 0.0111 0.59211 0.70649 0.0
H577 H 0.97505 0.60785 0.67505 0.0
H578 H 0.03683 0.6254 0.61285 0.0
H579 H 0.07304 0.60967 0.6445 0.0
C580 C 0.93317 0.63965 0.61269 0.0
C581 C 0.93872 0.66684 0.60392 0.0
C582 C 0.95441 0.62299 0.62322 0.0
C583 C 0.98168 0.63307 0.62496 0.0
C584 C 0.98756 0.65937 0.61394 0.0
C585 C 0.9663 0.67609 0.60361 0.0
C586 C 0.01693 0.59853 0.68581 0.0
C587 C 0.04494 0.59982 0.67808 0.0
C588 C 0.99623 0.60749 0.6677 0.0
C589 C 0.00305 0.61818 0.64149 0.0
C590 C 0.03092 0.61758 0.633 0.0
C591 C 0.05164 0.60834 0.65106 0.0
H592 H 0.35572 0.02017 0.73263 0.0
H593 H 0.28717 0.04427 0.78455 0.0
H594 H 0.32605 0.98709 0.70874 0.0
H595 H 0.257 0.01265 0.75973 0.0
H596 H 0.21368 0.93711 0.723 0.0
H597 H 0.24268 0.96856 0.74939 0.0
H598 H 0.29118 0.98519 0.67596 0.0
H599 H 0.26302 0.95226 0.65012 0.0
C600 C 0.33439 0.01807 0.73922 0.0
C601 C 0.3239 0.03468 0.76064 0.0
C602 C 0.31714 -0.00053 0.72515 0.0
C603 C 0.28876 0.99742 0.73173 0.0
C604 C 0.27867 0.01325 0.75406 0.0
C605 C 0.29606 0.03142 0.76846 0.0
C606 C 0.23018 0.94795 0.71235 0.0
C607 C 0.23599 0.94224 0.68442 0.0
C608 C 0.24697 0.96602 0.72756 0.0
C609 C 0.26978 0.9793 0.71511 0.0
C610 C 0.27446 0.97479 0.68665 0.0
C611 C 0.25797 0.95628 0.67159 0.0
H612 H 0.03333 0.24671 0.66895 0.0
H613 H 0.05539 0.31935 0.62187 0.0
H614 H 0.99751 0.27312 0.69292 0.0
H615 H 0.0202 0.34591 0.64624 0.0
H616 H 0.93655 0.37826 0.67806 0.0
H617 H 0.97177 0.35274 0.65265 0.0
H618 H 0.99388 0.30905 0.72742 0.0
H619 H 0.95802 0.33417 0.7527 0.0
C620 C 0.03027 0.2682 0.66341 0.0
C621 C 0.04718 0.28085 0.6434 0.0
C622 C 0.01 0.28348 0.67746 0.0
C623 C 0.00615 0.31183 0.67187 0.0
C624 C 0.02237 0.32414 0.65104 0.0
C625 C 0.04258 0.30886 0.63699 0.0
C626 C 0.94923 0.36355 0.68922 0.0
C627 C 0.94446 0.35832 0.71746 0.0
C628 C 0.96946 0.34885 0.6746 0.0
C629 C 0.98553 0.32852 0.68783 0.0
C630 C 0.98151 0.3241 0.71638 0.0
C631 C 0.96122 0.33881 0.731 0.0
H632 H 0.75787 0.94999 0.30986 0.0
H633 H 0.71401 0.97393 0.38388 0.0
H634 H 0.7297 0.98157 0.28273 0.0
H635 H 0.68684 0.00691 0.35718 0.0
H636 H 0.62179 0.04241 0.30209 0.0
H637 H 0.65033 0.00863 0.32621 0.0
H638 H 0.7179 0.02598 0.27004 0.0
H639 H 0.68868 0.05838 0.2451 0.0
C640 C 0.74286 0.96279 0.32052 0.0
C641 C 0.73828 0.95957 0.34907 0.0
C642 C 0.72653 0.98091 0.30489 0.0
C643 C 0.70547 0.99666 0.3175 0.0
C644 C 0.70214 0.99458 0.34643 0.0
C645 C 0.71811 0.97605 0.36193 0.0
C646 C 0.64248 0.03834 0.29446 0.0
C647 C 0.65288 0.05294 0.27159 0.0
C648 C 0.65912 0.01934 0.30862 0.0
C649 C 0.68686 0.01489 0.30066 0.0
C650 C 0.69671 0.02854 0.27684 0.0
C651 C 0.67985 0.04713 0.26237 0.0
H652 H 0.97616 0.62263 0.28413 0.0
H653 H 0.95966 0.6963 0.23666 0.0
H654 H 0.01119 0.64742 0.3106 0.0
H655 H 0.99306 0.72183 0.26425 0.0
H656 H 0.07046 0.75625 0.30597 0.0
H657 H 0.03744 0.73202 0.27678 0.0
H658 H 0.01585 0.67899 0.34567 0.0
H659 H 0.05048 0.70215 0.37406 0.0
C660 C 0.98033 0.64409 0.27916 0.0
C661 C 0.9654 0.65743 0.25817 0.0
C662 C 4e-05 0.65856 0.2947 0.0
C663 C 0.00476 0.68701 0.2902 0.0
C664 C 0.99045 0.69998 0.26835 0.0
C665 C 0.97125 0.68529 0.25236 0.0
C666 C 0.05822 0.73977 0.31499 0.0
C667 C 0.06295 0.73117 0.34234 0.0
C668 C 0.03923 0.72572 0.29819 0.0
C669 C 0.02402 0.70306 0.3085 0.0
C670 C 0.02771 0.69564 0.3365 0.0
C671 C 0.0472 0.70926 0.35305 0.0
H672 H 0.3678 0.97433 0.26957 0.0
H673 H 0.2981 0.948 0.22033 0.0
H674 H 0.3371 0.00203 0.29838 0.0
H675 H 0.26707 0.97468 0.24985 0.0
H676 H 0.22249 0.04483 0.29781 0.0
H677 H 0.2506 0.01767 0.26594 0.0
H678 H 0.30438 0.99454 0.33355 0.0
H679 H 0.27691 0.02276 0.36503 0.0
C680 C 0.34595 0.9749 0.26458 0.0
C681 C 0.33545 0.95909 0.24258 0.0
C682 C 0.32819 0.99037 0.28144 0.0
C683 C 0.29936 0.99007 0.27705 0.0
C684 C 0.28907 0.97553 0.25396 0.0
C685 C 0.30693 0.96033 0.23685 0.0
C686 C 0.23987 0.03331 0.306 0.0
C687 C 0.24747 0.03596 0.33398 0.0
C688 C 0.25617 0.01783 0.28764 0.0
C689 C 0.28029 0.00437 0.2969 0.0
C690 C 0.28656 0.00536 0.32537 0.0
C691 C 0.2705 0.02112 0.34361 0.0
H692 H 0.05483 0.39707 0.3417 0.0
H693 H 0.0263 0.35486 0.26825 0.0
H694 H 0.01863 0.37452 0.36877 0.0
H695 H 0.98987 0.33255 0.29527 0.0
H696 H 0.93267 0.34575 0.40164 0.0
H697 H 0.96868 0.37068 0.37642 0.0
H698 H 0.98826 0.29629 0.33092 0.0
H699 H 0.95204 0.27145 0.35591 0.0
C700 C 0.0404 0.38351 0.33117 0.0
C701 C 0.04348 0.37779 0.30277 0.0
C702 C 0.01968 0.37049 0.34675 0.0
C703 C 0.00163 0.35131 0.33433 0.0
C704 C 0.00382 0.34673 0.30563 0.0
C705 C 0.02444 0.35986 0.29003 0.0
C706 C 0.94505 0.33455 0.38667 0.0
C707 C 0.93947 0.30657 0.38083 0.0
C708 C 0.96565 0.34889 0.37213 0.0
C709 C 0.98106 0.33565 0.35127 0.0
C710 C 0.97636 0.30731 0.3464 0.0
C711 C 0.95587 0.29293 0.36104 0.0
H712 H 0.74595 0.65087 0.96658 0.0
H713 H 0.79457 0.72459 0.95327 0.0
H714 H 0.71586 0.67635 0.99807 0.0
H715 H 0.76376 0.75053 0.98336 0.0
H716 H 0.71395 0.78571 0.05593 0.0
H717 H 0.74666 0.76094 0.02676 0.0
H718 H 0.68029 0.70861 0.99714 0.0
H719 H 0.64802 0.73254 0.02762 0.0
C720 C 0.75048 0.67243 0.97074 0.0
C721 C 0.77276 0.68561 0.95751 0.0
C722 C 0.73288 0.68727 0.98841 0.0
C723 C 0.73678 0.71585 0.99294 0.0
C724 C 0.75999 0.72861 0.98071 0.0
C725 C 0.77783 0.71365 0.96342 0.0
C726 C 0.70624 0.76934 0.04268 0.0
C727 C 0.67832 0.76122 0.04398 0.0
C728 C 0.72508 0.75495 0.02596 0.0
C729 C 0.71644 0.73228 0.00973 0.0
C730 C 0.68809 0.7253 0.0099 0.0
C731 C 0.66937 0.73939 0.02699 0.0
H732 H 0.26441 0.63936 0.02693 0.0
H733 H 0.33556 0.58961 0.04781 0.0
H734 H 0.28794 0.65531 0.98513 0.0
H735 H 0.35917 0.6057 0.00608 0.0
H736 H 0.3823 0.62479 0.91421 0.0
H737 H 0.35912 0.60528 0.95484 0.0
H738 H 0.32738 0.68618 0.97552 0.0
H739 H 0.35037 0.70558 0.935 0.0
C740 C 0.28485 0.63139 0.02235 0.0
C741 C 0.29805 0.61317 0.04077 0.0
C742 C 0.29851 0.64081 -0.00146 0.0
C743 C 0.32566 0.63214 0.99241 0.0
C744 C 0.33828 0.61278 0.01008 0.0
C745 C 0.3247 0.60352 0.03402 0.0
C746 C 0.37072 0.63848 0.92768 0.0
C747 C 0.36827 0.66678 0.92134 0.0
C748 C 0.35737 0.62727 0.95095 0.0
C749 C 0.34101 0.64406 0.96828 0.0
C750 C 0.3393 0.67251 0.96235 0.0
C751 C 0.3528 0.68372 0.93926 0.0
H752 H 0.23732 0.33877 0.98068 0.0
H753 H 0.30743 0.38716 0.95353 0.0
H754 H 0.26649 0.31585 0.01492 0.0
H755 H 0.33669 0.3639 0.98735 0.0
H756 H 0.33076 0.25723 0.04963 0.0
H757 H 0.30384 0.28196 0.01479 0.0
H758 H 0.34608 0.35783 0.0361 0.0
H759 H 0.37331 0.33303 0.07049 0.0
C760 C 0.25882 0.3449 0.98235 0.0
C761 C 0.26999 0.36486 0.96439 0.0
C762 C 0.27568 0.33143 0.00169 0.0
C763 C 0.3041 0.33763 0.00358 0.0
C764 C 0.31492 0.35861 0.98654 0.0
C765 C 0.29808 0.37203 0.96718 0.0
C766 C 0.33479 0.27904 0.04639 0.0
C767 C 0.35423 0.29312 0.06284 0.0
C768 C 0.31904 0.29333 0.02672 0.0
C769 C 0.32238 0.32204 0.02298 0.0
C770 C 0.34294 0.33576 0.03836 0.0
C771 C 0.35865 0.32149 0.05805 0.0
H772 H 0.75938 0.33197 0.03113 0.0
H773 H 0.68848 0.38292 0.05015 0.0
H774 H 0.73152 0.30564 -0.00184 0.0
H775 H 0.66048 0.35615 0.01814 0.0
H776 H 0.62333 0.31646 0.94085 0.0
H777 H 0.65118 0.34476 0.9717 0.0
H778 H 0.69517 0.27184 -0.00114 0.0
H779 H 0.66781 0.24359 0.96704 0.0
C780 C 0.73801 0.3379 0.0279 0.0
C781 C 0.72621 0.35961 0.04325 0.0
C782 C 0.72187 0.32249 0.00935 0.0
C783 C 0.69354 0.32837 0.00578 0.0
C784 C 0.6822 0.35103 0.02013 0.0
C785 C 0.69833 0.36648 0.03852 0.0
C786 C 0.63863 0.30634 0.95373 0.0
C787 C 0.64328 0.27771 0.95151 0.0
C788 C 0.65468 0.32264 0.97145 0.0
C789 C 0.67574 0.31074 0.98762 0.0
C790 C 0.6796 0.28187 0.98626 0.0
C791 C 0.6636 0.26556 0.96836 0.0
H792 H 0.17379 0.32676 0.32987 0.0
H793 H 0.0994 0.29321 0.29345 0.0
H794 H 0.18542 0.28111 0.34792 0.0
H795 H 0.11016 0.24789 0.31249 0.0
H796 H 0.16073 0.16654 0.31446 0.0
H797 H 0.14165 0.21189 0.303 0.0
H798 H 0.17521 0.24518 0.3791 0.0
H799 H 0.19531 0.20027 0.3896 0.0
C800 C 0.15963 0.30973 0.32634 0.0
C801 C 0.13594 0.31334 0.31007 0.0
C802 C 0.16615 0.28357 0.33676 0.0
C803 C 0.14881 0.26068 0.33145 0.0
C804 C 0.1243 0.26483 0.31642 0.0
C805 C 0.11805 0.29084 0.30568 0.0
C806 C 0.1635 0.18351 0.32887 0.0
C807 C 0.17969 0.18017 0.35265 0.0
C808 C 0.15255 0.2095 0.32242 0.0
C809 C 0.15725 0.23237 0.33996 0.0
C810 C 0.17184 0.22829 0.36475 0.0
C811 C 0.18316 0.20253 0.37088 0.0
H812 H 0.83034 0.18666 0.35583 0.0
H813 H 0.77006 0.24398 0.3886 0.0
H814 H 0.79264 0.15724 0.33878 0.0
H815 H 0.73291 0.21559 0.371 0.0
H816 H 0.66717 0.15879 0.34349 0.0
H817 H 0.70647 0.17431 0.37147 0.0
H818 H 0.76089 0.16223 0.30139 0.0
H819 H 0.7222 0.1459 0.27415 0.0
C820 C 0.80912 0.19278 0.35963 0.0
C821 C 0.80314 0.21781 0.37305 0.0
C822 C 0.78753 0.17606 0.34983 0.0
C823 C 0.7597 0.18417 0.3533 0.0
C824 C 0.75396 0.20842 0.36821 0.0
C825 C 0.77538 0.22495 0.37799 0.0
C826 C 0.68764 0.15911 0.33432 0.0
C827 C 0.69154 0.15161 0.30656 0.0
C828 C 0.71014 0.168 0.35027 0.0
C829 C 0.73685 0.16975 0.33861 0.0
C830 C 0.74079 0.16083 0.31124 0.0
C831 C 0.71845 0.15179 0.29547 0.0
H832 H 0.87584 0.72801 0.25453 0.0
H833 H 0.85018 0.67354 0.32063 0.0
H834 H 0.85929 0.76756 0.28028 0.0
H835 H 0.83419 0.71371 0.34719 0.0
H836 H 0.77345 0.78628 0.36295 0.0
H837 H 0.79663 0.74589 0.34426 0.0
H838 H 0.86559 0.79712 0.31912 0.0
H839 H 0.84171 0.83796 0.33711 0.0
C840 C 0.86696 0.7245 0.27483 0.0
C841 C 0.86404 0.69758 0.28545 0.0
C842 C 0.85772 0.74732 0.28976 0.0
C843 C 0.84542 0.74392 0.31586 0.0
C844 C 0.84329 0.71702 0.32697 0.0
C845 C 0.85251 0.69403 0.31187 0.0
C846 C 0.79367 0.78895 0.35362 0.0
C847 C 0.80564 0.81536 0.35118 0.0
C848 C 0.8071 0.76568 0.34314 0.0
C849 C 0.83295 0.76819 0.33009 0.0
C850 C 0.84547 0.79451 0.32866 0.0
C851 C 0.83189 0.8179 0.33902 0.0
H852 H 0.34126 0.85495 0.31418 0.0
H853 H 0.28025 0.8683 0.25018 0.0
H854 H 0.30406 0.84232 0.34649 0.0
H855 H 0.2438 0.85531 0.28164 0.0
H856 H 0.17825 0.84102 0.34101 0.0
H857 H 0.21742 0.86667 0.32181 0.0
H858 H 0.27324 0.80317 0.35088 0.0
H859 H 0.23448 0.77833 0.37088 0.0
C860 C 0.32 0.85529 0.30709 0.0
C861 C 0.31371 0.86223 0.2796 0.0
C862 C 0.29873 0.84813 0.32552 0.0
C863 C 0.27091 0.84796 0.3167 0.0
C864 C 0.26482 0.85577 0.28942 0.0
C865 C 0.28589 0.86283 0.27118 0.0
C866 C 0.19898 0.83299 0.34387 0.0
C867 C 0.20327 0.80743 0.35686 0.0
C868 C 0.2214 0.84757 0.33281 0.0
C869 C 0.24841 0.83665 0.33431 0.0
C870 C 0.25282 0.81227 0.34942 0.0
C871 C 0.23049 0.79786 0.36065 0.0
H872 H 0.06911 0.68818 0.69598 0.0
H873 H 0.11423 0.70207 0.77167 0.0
H874 H 0.07607 0.73635 0.68276 0.0
H875 H 0.12222 0.75027 0.75805 0.0
H876 H 0.13692 0.83632 0.72324 0.0
H877 H 0.10819 0.79868 0.74224 0.0
H878 H 0.12232 0.75114 0.66777 0.0
H879 H 0.15078 0.78812 0.64937 0.0
C880 C 0.07957 0.70195 0.71029 0.0
C881 C 0.09125 0.69161 0.73473 0.0
C882 C 0.08371 0.72945 0.70267 0.0
C883 C 0.10026 0.74691 0.71904 0.0
C884 C 0.1093 0.73736 0.74504 0.0
C885 C 0.10474 0.70979 0.75289 0.0
C886 C 0.133 0.81811 0.71075 0.0
C887 C 0.14593 0.81495 0.6849 0.0
C888 C 0.11679 0.79657 0.72165 0.0
C889 C 0.11289 0.77198 0.70649 0.0
C890 C 0.12443 0.76991 0.67984 0.0
C891 C 0.1409 0.79104 0.6693 0.0
H892 H 0.32533 0.14654 0.684 0.0
H893 H 0.26366 0.11698 0.74165 0.0
H894 H 0.28834 0.16233 0.65304 0.0
H895 H 0.22728 0.13344 0.71186 0.0
H896 H 0.16248 0.15854 0.6542 0.0
H897 H 0.2015 0.1311 0.67088 0.0
H898 H 0.25661 0.19977 0.65461 0.0
H899 H 0.21807 0.22638 0.63681 0.0
C900 C 0.30396 0.14315 0.68986 0.0
C901 C 0.29737 0.131 0.71539 0.0
C902 C 0.28277 0.15227 0.67227 0.0
C903 C 0.25476 0.14938 0.68003 0.0
C904 C 0.24845 0.13573 0.70488 0.0
C905 C 0.26945 0.12659 0.72223 0.0
C906 C 0.18304 0.1675 0.65382 0.0
C907 C 0.18718 0.1947 0.64469 0.0
C908 C 0.2054 0.15186 0.6634 0.0
C909 C 0.23221 0.16335 0.66448 0.0
C910 C 0.23643 0.19005 0.65383 0.0
C911 C 0.2142 0.20547 0.64391 0.0
H912 H 0.74388 0.21495 0.65228 0.0
H913 H 0.81754 0.16584 0.66448 0.0
H914 H 0.76853 0.25608 0.66668 0.0
H915 H 0.84273 0.20768 0.6786 0.0
H916 H 0.8625 0.28197 0.73712 0.0
H917 H 0.84337 0.23996 0.71717 0.0
H918 H 0.80404 0.28832 0.65312 0.0
H919 H 0.82275 0.33068 0.67365 0.0
C920 C 0.76548 0.21293 0.65791 0.0
C921 C 0.77872 0.18703 0.65738 0.0
C922 C 0.77973 0.23669 0.66589 0.0
C923 C 0.8077 0.23533 0.67357 0.0
C924 C 0.82112 0.20942 0.67294 0.0
C925 C 0.80675 0.18547 0.66487 0.0
C926 C 0.84997 0.28368 0.71862 0.0
C927 C 0.84385 0.30972 0.70713 0.0
C928 C 0.83919 0.25949 0.70704 0.0
C929 C 0.822 0.26071 0.68366 0.0
C930 C 0.81686 0.28669 0.67143 0.0
C931 C 0.82767 0.31096 0.68307 0.0
H932 H 0.78125 0.70593 0.64987 0.0
H933 H 0.79059 0.73464 0.56587 0.0
H934 H 0.73419 0.72459 0.65112 0.0
H935 H 0.74384 0.75445 0.56755 0.0
H936 H 0.69695 0.82642 0.62547 0.0
H937 H 0.7334 0.79663 0.60686 0.0
H938 H 0.68283 0.72477 0.62273 0.0
H939 H 0.64577 0.75475 0.64034 0.0
C940 C 0.77276 0.71526 0.63134 0.0
C941 C 0.78929 0.71861 0.6077 0.0
C942 C 0.74591 0.72594 0.63203 0.0
C943 C 0.7355 0.74087 0.6094 0.0
C944 C 0.75138 0.74275 0.58511 0.0
C945 C 0.77797 0.73129 0.58412 0.0
C946 C 0.69317 0.80438 0.62383 0.0
C947 C 0.6686 0.79284 0.63417 0.0
C948 C 0.71396 0.78736 0.61317 0.0
C949 C 0.71081 0.75848 0.6134 0.0
C950 C 0.68556 0.74701 0.62215 0.0
C951 C 0.66439 0.76415 0.63208 0.0
H952 H 0.25495 0.12473 0.27481 0.0
H953 H 0.31803 0.14558 0.33469 0.0
H954 H 0.28357 0.14251 0.23793 0.0
H955 H 0.34756 0.16277 0.29716 0.0
H956 H 0.36176 0.23262 0.23236 0.0
H957 H 0.34503 0.2033 0.26924 0.0
H958 H 0.32361 0.14021 0.20944 0.0
H959 H 0.33962 0.17042 0.17201 0.0
C960 C 0.27524 0.13273 0.28006 0.0
C961 C 0.28404 0.13434 0.30773 0.0
C962 C 0.29187 0.14259 0.25875 0.0
C963 C 0.31785 0.15422 0.26451 0.0
C964 C 0.32744 0.1543 0.29208 0.0
C965 C 0.31062 0.14444 0.31356 0.0
C966 C 0.35375 0.21237 0.22701 0.0
C967 C 0.3514 0.20402 0.19923 0.0
C968 C 0.34449 0.19535 0.24829 0.0
C969 C 0.33276 0.16945 0.24237 0.0
C970 C 0.33212 0.16028 0.21466 0.0
C971 C 0.34131 0.17749 0.19323 0.0
H972 H 0.80219 0.33665 0.34095 0.0
H973 H 0.88063 0.31148 0.3065 0.0
H974 H 0.78816 0.35445 0.29575 0.0
H975 H 0.86752 0.33052 0.26181 0.0
H976 H 0.82052 0.32864 0.17979 0.0
H977 H 0.83819 0.31755 0.22567 0.0
H978 H 0.79308 0.3869 0.25991 0.0
H979 H 0.77441 0.39696 0.21422 0.0
C980 C 0.8167 0.33573 0.32386 0.0
C981 C 0.8423 0.32254 0.32698 0.0
C982 C 0.80876 0.34594 0.29795 0.0
C983 C 0.82655 0.34353 0.2749 0.0
C984 C 0.85295 0.33199 0.27878 0.0
C985 C 0.86059 0.32134 0.30444 0.0
C986 C 0.81463 0.34159 0.19713 0.0
C987 C 0.79598 0.36347 0.19355 0.0
C988 C 0.82486 0.3354 0.22345 0.0
C989 C 0.81704 0.35131 0.24665 0.0
C990 C 0.79913 0.37385 0.24272 0.0
C991 C 0.78856 0.37973 0.2165 0.0
H992 H 0.67857 0.84933 0.17965 0.0
H993 H 0.62246 0.78911 0.21453 0.0
H994 H 0.6877 0.86745 0.2258 0.0
H995 H 0.63081 0.80776 0.26064 0.0
H996 H 0.69122 0.82035 0.33605 0.0
H997 H 0.66805 0.80676 0.29317 0.0
H998 H 0.67076 0.89167 0.26505 0.0
H999 H 0.69502 0.90468 0.30735 0.0
C1000 C 0.66778 0.84035 0.19714 0.0
C1001 C 0.65008 0.81766 0.19354 0.0
C1002 C 0.67281 0.85084 0.22363 0.0
C1003 C 0.66 0.83902 0.24704 0.0
C1004 C 0.64132 0.81708 0.24318 0.0
C1005 C 0.63649 0.80647 0.21673 0.0
C1006 C 0.68577 0.83616 0.32113 0.0
C1007 C 0.69472 0.86347 0.32479 0.0
C1008 C 0.67262 0.82845 0.29648 0.0
C1009 C 0.6681 0.84806 0.27535 0.0
C1010 C 0.6746 0.87593 0.28052 0.0
C1011 C 0.68809 0.88348 0.30487 0.0
H1012 H 0.1888 0.65369 0.16522 0.0
H1013 H 0.25677 0.62754 0.21702 0.0
H1014 H 0.16479 0.6715 0.20624 0.0
H1015 H 0.23339 0.64575 0.25747 0.0
H1016 H 0.17894 0.66711 0.32998 0.0
H1017 H 0.19515 0.64159 0.28918 0.0
H1018 H 0.1713 0.7101 0.23697 0.0
H1019 H 0.15469 0.73497 0.27717 0.0
C1020 C 0.19853 0.65165 0.18531 0.0
C1021 C 0.22477 0.6395 0.18782 0.0
C1022 C 0.18486 0.66189 0.2088 0.0
C1023 C 0.19721 0.66013 0.23519 0.0
C1024 C 0.22305 0.64713 0.23764 0.0
C1025 C 0.23661 0.63695 0.21429 0.0
C1026 C 0.17698 0.67649 0.30972 0.0
C1027 C 0.16581 0.70312 0.30685 0.0
C1028 C 0.1863 0.66197 0.28636 0.0
C1029 C 0.18457 0.67382 0.25974 0.0
C1030 C 0.17259 0.70011 0.25698 0.0
C1031 C 0.16334 0.71452 0.28018 0.0
H1032 H 0.37957 0.75383 0.7629 0.0
H1033 H 0.34091 0.78734 0.83623 0.0
H1034 H 0.35452 0.7863 0.73441 0.0
H1035 H 0.31635 0.82111 0.80758 0.0
H1036 H 0.24328 0.8299 0.74573 0.0
H1037 H 0.27786 0.81339 0.77797 0.0
H1038 H 0.3421 0.83044 0.71791 0.0
H1039 H 0.30695 0.84598 0.68502 0.0
C1040 C 0.36625 0.76878 0.77301 0.0
C1041 C 0.36152 0.76763 0.80166 0.0
C1042 C 0.35207 0.78768 0.75664 0.0
C1043 C 0.33295 0.80599 0.76861 0.0
C1044 C 0.33046 0.80678 0.79768 0.0
C1045 C 0.34462 0.78764 0.81412 0.0
C1046 C 0.26481 0.83029 0.73945 0.0
C1047 C 0.27243 0.83865 0.7127 0.0
C1048 C 0.28475 0.82122 0.75813 0.0
C1049 C 0.31283 0.82055 0.75059 0.0
C1050 C 0.32059 0.83031 0.72424 0.0
C1051 C 0.30052 0.83912 0.70538 0.0
H1052 H 0.22983 0.36982 0.79151 0.0
H1053 H 0.15611 0.3426 0.8342 0.0
H1054 H 0.21157 0.35176 0.74816 0.0
H1055 H 0.13735 0.32533 0.7906 0.0
H1056 H 0.13372 0.2623 0.72049 0.0
H1057 H 0.14789 0.2867 0.7618 0.0
H1058 H 0.17723 0.35481 0.71178 0.0
H1059 H 0.1635 0.32968 0.66981 0.0
C1060 C 0.20948 0.36039 0.79154 0.0
C1061 C 0.19453 0.35729 0.81632 0.0
C1062 C 0.19893 0.35022 0.76661 0.0
C1063 C 0.17311 0.33685 0.7659 0.0
C1064 C 0.15757 0.33501 0.79052 0.0
C1065 C 0.16823 0.34501 0.81549 0.0
C1066 C 0.14309 0.28254 0.71816 0.0
C1067 C 0.14757 0.29404 0.69183 0.0
C1068 C 0.15098 0.29668 0.74198 0.0
C1069 C 0.16347 0.32285 0.74021 0.0
C1070 C 0.1678 0.33458 0.71385 0.0
C1071 C 0.1599 0.32028 0.68984 0.0
H1072 H 0.71298 0.09741 0.72302 0.0
H1073 H 0.65592 0.15451 0.68481 0.0
H1074 H 0.69169 0.10596 0.76797 0.0
H1075 H 0.63523 0.16385 0.72974 0.0
H1076 H 0.59528 0.17467 0.80911 0.0
H1077 H 0.60895 0.14848 0.76822 0.0
H1078 H 0.69261 0.14381 0.79973 0.0
H1079 H 0.67833 0.16889 0.84123 0.0
C1080 C 0.69567 0.11159 0.72422 0.0
C1081 C 0.68624 0.12556 0.70051 0.0
C1082 C 0.68356 0.11655 0.74998 0.0
C1083 C 0.6619 0.13574 0.75259 0.0
C1084 C 0.65159 0.1486 0.72853 0.0
C1085 C 0.66355 0.14344 0.70274 0.0
C1086 C 0.61633 0.16707 0.80765 0.0
C1087 C 0.63588 0.17382 0.82802 0.0
C1088 C 0.62424 0.15236 0.78414 0.0
C1089 C 0.65203 0.14471 0.7803 0.0
C1090 C 0.671 0.14927 0.80201 0.0
C1091 C 0.6629 0.16361 0.82584 0.0
H1092 H 0.88525 0.77242 0.69864 0.0
H1093 H 0.90186 0.68473 0.69627 0.0
H1094 H 0.88304 0.77048 0.74933 0.0
H1095 H 0.89946 0.68265 0.74636 0.0
H1096 H 0.88908 0.67849 0.8352 0.0
H1097 H 0.9135 0.69473 0.79367 0.0
H1098 H 0.84501 0.74915 0.7752 0.0
H1099 H 0.82108 0.73303 0.81627 0.0
C1100 C 0.88929 0.75296 0.70899 0.0
C1101 C 0.89312 0.72862 0.69363 0.0
C1102 C 0.88798 0.75181 0.73796 0.0
C1103 C 0.89073 0.72634 0.75189 0.0
C1104 C 0.89744 0.70264 0.73645 0.0
C1105 C 0.89849 0.70376 0.70765 0.0
C1106 C 0.87991 0.69472 0.82278 0.0
C1107 C 0.85313 0.70428 0.82856 0.0
C1108 C 0.89375 0.70392 0.79897 0.0
C1109 C 0.88104 0.72297 0.78091 0.0
C1110 C 0.85557 0.73465 0.78863 0.0
C1111 C 0.8417 0.72524 0.81208 0.0
H1112 H 0.1572 0.32013 0.19917 0.0
H1113 H 0.19412 0.40099 0.20672 0.0
H1114 H 0.19901 0.30322 0.17622 0.0
H1115 H 0.23545 0.38475 0.18273 0.0
H1116 H 0.31664 0.33466 0.18648 0.0
H1117 H 0.2724 0.3562 0.19782 0.0
H1118 H 0.2312 0.30275 0.13898 0.0
H1119 H 0.27521 0.28065 0.12853 0.0
C1120 C 0.17378 0.33455 0.19463 0.0
C1121 C 0.17262 0.36177 0.20445 0.0
C1122 C 0.19782 0.32493 0.18163 0.0
C1123 C 0.22088 0.34252 0.17813 0.0
C1124 C 0.21844 0.37047 0.18575 0.0
C1125 C 0.19464 0.3799 0.19906 0.0
C1126 C 0.29814 0.32775 0.17585 0.0
C1127 C 0.2993 0.30582 0.15692 0.0
C1128 C 0.27277 0.3402 0.18213 0.0
C1129 C 0.24813 0.33117 0.16933 0.0
C1130 C 0.24962 0.30992 0.14957 0.0
C1131 C 0.27488 0.29732 0.14353 0.0
H1132 H 0.29 0.67437 0.83578 0.0
H1133 H 0.34044 0.63095 0.77604 0.0
H1134 H 0.24858 0.65533 0.815 0.0
H1135 H 0.29815 0.61157 0.75487 0.0
H1136 H 0.20548 0.62371 0.71239 0.0
H1137 H 0.25297 0.63243 0.72907 0.0
H1138 H 0.22842 0.60696 0.81113 0.0
H1139 H 0.18155 0.59895 0.79482 0.0
C1140 C 0.29225 0.66054 0.81826 0.0
C1141 C 0.31848 0.65404 0.80762 0.0
C1142 C 0.26847 0.64954 0.80641 0.0
C1143 C 0.27017 0.6318 0.78346 0.0
C1144 C 0.29635 0.62521 0.77257 0.0
C1145 C 0.32045 0.63609 0.78477 0.0
C1146 C 0.2106 0.6194 0.73377 0.0
C1147 C 0.18989 0.61128 0.7525 0.0
C1148 C 0.23767 0.62427 0.74329 0.0
C1149 C 0.24414 0.62081 0.77149 0.0
C1150 C 0.22388 0.61028 0.78942 0.0
C1151 C 0.19705 0.60575 0.78008 0.0
H1152 H 0.31302 0.32538 0.86185 0.0
H1153 H 0.23987 0.27965 0.88551 0.0
H1154 H 0.33572 0.28217 0.84885 0.0
H1155 H 0.26206 0.2367 0.87166 0.0
H1156 H 0.31363 0.16036 0.85701 0.0
H1157 H 0.29786 0.20292 0.87965 0.0
H1158 H 0.32993 0.25082 0.8112 0.0
H1159 H 0.34621 0.20887 0.78931 0.0
C1160 C 0.30186 0.30609 0.86436 0.0
C1161 C 0.2746 0.30589 0.87436 0.0
C1162 C 0.31479 0.28136 0.85686 0.0
C1163 C 0.3006 0.25599 0.85897 0.0
C1164 C 0.27372 0.25578 0.87007 0.0
C1165 C 0.2609 0.28046 0.87776 0.0
C1166 C 0.31753 0.18007 0.84708 0.0
C1167 C 0.33096 0.18129 0.82135 0.0
C1168 C 0.30844 0.2044 0.85994 0.0
C1169 C 0.31264 0.23029 0.84723 0.0
C1170 C 0.32677 0.23137 0.82186 0.0
C1171 C 0.33587 0.20721 0.80914 0.0
H1172 H 0.71068 0.25409 0.84885 0.0
H1173 H 0.657 0.32459 0.83732 0.0
H1174 H 0.75008 0.28125 0.83401 0.0
H1175 H 0.69704 0.35233 0.82279 0.0
H1176 H 0.77145 0.37686 0.76544 0.0
H1177 H 0.73001 0.35577 0.78475 0.0
H1178 H 0.77924 0.31863 0.84946 0.0
H1179 H 0.82095 0.33913 0.82957 0.0
C1180 C 0.70731 0.27551 0.84318 0.0
C1181 C 0.68073 0.28723 0.84424 0.0
C1182 C 0.73002 0.29119 0.83497 0.0
C1183 C 0.72684 0.31911 0.82768 0.0
C1184 C 0.70015 0.33084 0.82828 0.0
C1185 C 0.67724 0.315 0.8365 0.0
C1186 C 0.77341 0.36452 0.78405 0.0
C1187 C 0.79952 0.35932 0.7958 0.0
C1188 C 0.74958 0.35256 0.7952 0.0
C1189 C 0.75135 0.33519 0.81839 0.0
C1190 C 0.77728 0.33144 0.83119 0.0
C1191 C 0.80115 0.34333 0.81995 0.0
H1192 H 0.74659 0.74406 0.86571 0.0
H1193 H 0.70802 0.66959 0.83461 0.0
H1194 H 0.71528 0.77198 0.83828 0.0
H1195 H 0.67566 0.69769 0.80785 0.0
H1196 H 0.66432 0.75229 0.73067 0.0
H1197 H 0.68395 0.7236 0.76667 0.0
H1198 H 0.67038 0.78893 0.82637 0.0
H1199 H 0.65133 0.81821 0.7897 0.0
C1200 C 0.73085 0.73364 0.85354 0.0
C1201 C 0.7301 0.70464 0.85173 0.0
C1202 C 0.71271 0.7497 0.83799 0.0
C1203 C 0.69329 0.73706 0.82047 0.0
C1204 C 0.69087 0.70801 0.82065 0.0
C1205 C 0.70925 0.6919 0.83607 0.0
C1206 C 0.66541 0.76056 0.75151 0.0
C1207 C 0.65661 0.78759 0.75738 0.0
C1208 C 0.67631 0.74393 0.77227 0.0
C1209 C 0.67852 0.75385 0.7995 0.0
C1210 C 0.66912 0.78076 0.80556 0.0
C1211 C 0.65829 0.79755 0.78461 0.0
H1212 H 0.67784 0.68626 0.14488 0.0
H1213 H 0.73377 0.75475 0.13121 0.0
H1214 H 0.71765 0.65638 0.15523 0.0
H1215 H 0.77276 0.72563 0.14192 0.0
H1216 H 0.84258 0.6697 0.15071 0.0
H1217 H 0.80114 0.68757 0.1279 0.0
H1218 H 0.7504 0.65337 0.1932 0.0
H1219 H 0.79144 0.63479 0.21526 0.0
C1220 C 0.69854 0.69484 0.14397 0.0
C1221 C 0.70266 0.72287 0.13762 0.0
C1222 C 0.72129 0.67782 0.14984 0.0
C1223 C 0.74841 0.6886 0.14924 0.0
C1224 C 0.75231 0.71642 0.14202 0.0
C1225 C 0.7298 0.73328 0.13627 0.0
C1226 C 0.82251 0.66553 0.15979 0.0
C1227 C 0.82028 0.65141 0.18502 0.0
C1228 C 0.79878 0.67579 0.14682 0.0
C1229 C 0.77251 0.6723 0.15902 0.0
C1230 C 0.77022 0.65631 0.18313 0.0
C1231 C 0.79385 0.64592 0.19595 0.0
H1232 H 0.32022 0.82777 0.1547 0.0
H1233 H 0.39601 0.79606 0.1896 0.0
H1234 H 0.30994 0.78216 0.13559 0.0
H1235 H 0.38672 0.75089 0.16938 0.0
H1236 H 0.33879 0.66817 0.16809 0.0
H1237 H 0.35689 0.71397 0.17904 0.0
H1238 H 0.31976 0.74638 0.10431 0.0
H1239 H 0.30057 0.70085 0.09434 0.0
C1240 C 0.33502 0.81119 0.15756 0.0
C1241 C 0.35866 0.81522 0.17383 0.0
C1242 C 0.32927 0.78504 0.14655 0.0
C1243 C 0.34736 0.76262 0.15122 0.0
C1244 C 0.37195 0.76738 0.16598 0.0
C1245 C 0.37739 0.79331 0.17739 0.0
C1246 C 0.33504 0.68502 0.1538 0.0
C1247 C 0.31813 0.68116 0.13058 0.0
C1248 C 0.34545 0.71131 0.15996 0.0
C1249 C 0.33951 0.73408 0.14271 0.0
C1250 C 0.32415 0.72957 0.11844 0.0
C1251 C 0.31336 0.70344 0.11259 0.0
H1252 H 0.67218 0.33415 0.14741 0.0
H1253 H 0.74243 0.28219 0.12851 0.0
H1254 H 0.646 0.29332 0.16177 0.0
H1255 H 0.71686 0.24178 0.14369 0.0
H1256 H 0.66355 0.16972 0.16503 0.0
H1257 H 0.67945 0.20953 0.13785 0.0
H1258 H 0.64929 0.26466 0.20161 0.0
H1259 H 0.63288 0.22547 0.22789 0.0
C1260 C 0.68194 0.31402 0.14619 0.0
C1261 C 0.70944 0.31139 0.13729 0.0
C1262 C 0.667 0.29064 0.15441 0.0
C1263 C 0.67942 0.26428 0.15412 0.0
C1264 C 0.70649 0.26163 0.14387 0.0
C1265 C 0.72129 0.28491 0.13547 0.0
C1266 C 0.65994 0.19042 0.17284 0.0
C1267 C 0.64739 0.1945 0.1987 0.0
C1268 C 0.6691 0.21318 0.1574 0.0
C1269 C 0.66579 0.2403 0.16764 0.0
C1270 C 0.65188 0.2442 0.19283 0.0
C1271 C 0.64276 0.22161 0.20812 0.0
loop_
_geom_bond_atom_site_label_1
_geom_bond_atom_site_label_2
_geom_bond_distance
_geom_bond_site_symmetry_2
_ccdc_geom_bond_type
In0 O1 2.294 . S
In0 O2 2.326 . S
In0 O6 2.266 . S
In0 O7 2.326 . S
In0 O8 2.266 . S
In0 O9 2.326 . S
In0 O11 2.294 . S
In0 O12 2.326 . S
O1 In0 2.294 . S
O1 C10 1.240 . S
O2 In0 2.326 . S
O2 C10 1.252 . S
C3 O6 1.252 . S
C3 O7 1.260 . S
C4 O11 1.240 . S
C4 O12 1.252 . S
C5 O8 1.252 . S
C5 O9 1.260 . S
O6 In0 2.266 . S
O6 C3 1.252 . S
O7 In0 2.326 . S
O7 C3 1.260 . S
O8 In0 2.266 . S
O8 C5 1.252 . S
O9 In0 2.326 . S
O9 C5 1.260 . S
C10 O1 1.240 . S
C10 O2 1.252 . S
O11 In0 2.294 . S
O11 C4 1.240 . S
O12 In0 2.326 . S
O12 C4 1.252 . S
In13 O14 2.294 . S
In13 O15 2.326 . S
In13 O19 2.266 . S
In13 O20 2.326 . S
In13 O21 2.266 . S
In13 O22 2.326 . S
In13 O24 2.294 . S
In13 O25 2.326 . S
O14 In13 2.294 . S
O14 C23 1.240 . S
O15 In13 2.326 . S
O15 C23 1.252 . S
C16 O19 1.252 . S
C16 O20 1.260 . S
C17 O24 1.240 . S
C17 O25 1.252 . S
C18 O21 1.252 . S
C18 O22 1.260 . S
O19 In13 2.266 . S
O19 C16 1.252 . S
O20 In13 2.326 . S
O20 C16 1.260 . S
O21 In13 2.266 . S
O21 C18 1.252 . S
O22 In13 2.326 . S
O22 C18 1.260 . S
C23 O14 1.240 . S
C23 O15 1.252 . S
O24 In13 2.294 . S
O24 C17 1.240 . S
O25 In13 2.326 . S
O25 C17 1.252 . S
In26 O27 2.294 . S
In26 O28 2.326 . S
In26 O32 2.266 . S
In26 O33 2.326 . S
In26 O34 2.266 . S
In26 O35 2.326 . S
In26 O37 2.294 . S
In26 O38 2.326 . S
O27 In26 2.294 . S
O27 C36 1.240 . S
O28 In26 2.326 . S
O28 C36 1.252 . S
C29 O32 1.252 . S
C29 O33 1.260 . S
C30 O37 1.240 . S
C30 O38 1.252 . S
C31 O34 1.252 . S
C31 O35 1.260 . S
O32 In26 2.266 . S
O32 C29 1.252 . S
O33 In26 2.326 . S
O33 C29 1.260 . S
O34 In26 2.266 . S
O34 C31 1.252 . S
O35 In26 2.326 . S
O35 C31 1.260 . S
C36 O27 1.240 . S
C36 O28 1.252 . S
O37 In26 2.294 . S
O37 C30 1.240 . S
O38 In26 2.326 . S
O38 C30 1.252 . S
In39 O40 2.294 . S
In39 O41 2.326 . S
In39 O45 2.266 . S
In39 O46 2.326 . S
In39 O47 2.266 . S
In39 O48 2.326 . S
In39 O50 2.294 . S
In39 O51 2.326 . S
O40 In39 2.294 . S
O40 C49 1.240 . S
O41 In39 2.326 . S
O41 C49 1.252 . S
C42 O45 1.252 . S
C42 O46 1.260 . S
C43 O50 1.240 . S
C43 O51 1.252 . S
C44 O47 1.252 . S
C44 O48 1.260 . S
O45 In39 2.266 . S
O45 C42 1.252 . S
O46 In39 2.326 . S
O46 C42 1.260 . S
O47 In39 2.266 . S
O47 C44 1.252 . S
O48 In39 2.326 . S
O48 C44 1.260 . S
C49 O40 1.240 . S
C49 O41 1.252 . S
O50 In39 2.294 . S
O50 C43 1.240 . S
O51 In39 2.326 . S
O51 C43 1.252 . S
In52 O53 2.294 . S
In52 O54 2.326 . S
In52 O58 2.266 . S
In52 O59 2.326 . S
In52 O60 2.266 . S
In52 O61 2.326 . S
In52 O63 2.294 . S
In52 O64 2.326 . S
O53 In52 2.294 . S
O53 C62 1.240 . S
O54 In52 2.326 . S
O54 C62 1.252 . S
C55 O58 1.252 . S
C55 O59 1.260 . S
C56 O63 1.240 . S
C56 O64 1.252 . S
C57 O60 1.252 . S
C57 O61 1.260 . S
O58 In52 2.266 . S
O58 C55 1.252 . S
O59 In52 2.326 . S
O59 C55 1.260 . S
O60 In52 2.266 . S
O60 C57 1.252 . S
O61 In52 2.326 . S
O61 C57 1.260 . S
C62 O53 1.240 . S
C62 O54 1.252 . S
O63 In52 2.294 . S
O63 C56 1.240 . S
O64 In52 2.326 . S
O64 C56 1.252 . S
In65 O66 2.294 . S
In65 O67 2.326 . S
In65 O71 2.266 . S
In65 O72 2.326 . S
In65 O73 2.266 . S
In65 O74 2.326 . S
In65 O76 2.294 . S
In65 O77 2.326 . S
O66 In65 2.294 . S
O66 C75 1.240 . S
O67 In65 2.326 . S
O67 C75 1.252 . S
C68 O71 1.252 . S
C68 O72 1.260 . S
C69 O76 1.240 . S
C69 O77 1.252 . S
C70 O73 1.252 . S
C70 O74 1.260 . S
O71 In65 2.266 . S
O71 C68 1.252 . S
O72 In65 2.326 . S
O72 C68 1.260 . S
O73 In65 2.266 . S
O73 C70 1.252 . S
O74 In65 2.326 . S
O74 C70 1.260 . S
C75 O66 1.240 . S
C75 O67 1.252 . S
O76 In65 2.294 . S
O76 C69 1.240 . S
O77 In65 2.326 . S
O77 C69 1.252 . S
In78 O79 2.294 . S
In78 O80 2.326 . S
In78 O84 2.266 . S
In78 O85 2.326 . S
In78 O86 2.266 . S
In78 O87 2.326 . S
In78 O89 2.294 . S
In78 O90 2.326 . S
O79 In78 2.294 . S
O79 C88 1.240 . S
O80 In78 2.326 . S
O80 C88 1.252 . S
C81 O84 1.252 . S
C81 O85 1.260 . S
C82 O89 1.240 . S
C82 O90 1.252 . S
C83 O86 1.252 . S
C83 O87 1.260 . S
O84 In78 2.266 . S
O84 C81 1.252 . S
O85 In78 2.326 . S
O85 C81 1.260 . S
O86 In78 2.266 . S
O86 C83 1.252 . S
O87 In78 2.326 . S
O87 C83 1.260 . S
C88 O79 1.240 . S
C88 O80 1.252 . S
O89 In78 2.294 . S
O89 C82 1.240 . S
O90 In78 2.326 . S
O90 C82 1.252 . S
In91 O92 2.294 . S
In91 O93 2.326 . S
In91 O97 2.266 . S
In91 O98 2.326 . S
In91 O99 2.266 . S
In91 O100 2.326 . S
In91 O102 2.294 . S
In91 O103 2.326 . S
O92 In91 2.294 . S
O92 C101 1.240 . S
O93 In91 2.326 . S
O93 C101 1.252 . S
C94 O97 1.252 . S
C94 O98 1.260 . S
C95 O102 1.240 . S
C95 O103 1.252 . S
C96 O99 1.252 . S
C96 O100 1.260 . S
O97 In91 2.266 . S
O97 C94 1.252 . S
O98 In91 2.326 . S
O98 C94 1.260 . S
O99 In91 2.266 . S
O99 C96 1.252 . S
O100 In91 2.326 . S
O100 C96 1.260 . S
C101 O92 1.240 . S
C101 O93 1.252 . S
O102 In91 2.294 . S
O102 C95 1.240 . S
O103 In91 2.326 . S
O103 C95 1.252 . S
In104 O105 2.294 . S
In104 O106 2.326 . S
In104 O110 2.266 . S
In104 O111 2.326 . S
In104 O112 2.266 . S
In104 O113 2.326 . S
In104 O115 2.294 . S
In104 O116 2.326 . S
O105 In104 2.294 . S
O105 C114 1.240 . S
O106 In104 2.326 . S
O106 C114 1.252 . S
C107 O110 1.252 . S
C107 O111 1.260 . S
C108 O115 1.240 . S
C108 O116 1.252 . S
C109 O112 1.252 . S
C109 O113 1.260 . S
O110 In104 2.266 . S
O110 C107 1.252 . S
O111 In104 2.326 . S
O111 C107 1.260 . S
O112 In104 2.266 . S
O112 C109 1.252 . S
O113 In104 2.326 . S
O113 C109 1.260 . S
C114 O105 1.240 . S
C114 O106 1.252 . S
O115 In104 2.294 . S
O115 C108 1.240 . S
O116 In104 2.326 . S
O116 C108 1.252 . S
In117 O118 2.294 . S
In117 O119 2.326 . S
In117 O123 2.266 . S
In117 O124 2.326 . S
In117 O125 2.266 . S
In117 O126 2.326 . S
In117 O128 2.294 . S
In117 O129 2.326 . S
O118 In117 2.294 . S
O118 C127 1.240 . S
O119 In117 2.326 . S
O119 C127 1.252 . S
C120 O123 1.252 . S
C120 O124 1.260 . S
C121 O128 1.240 . S
C121 O129 1.252 . S
C122 O125 1.252 . S
C122 O126 1.260 . S
O123 In117 2.266 . S
O123 C120 1.252 . S
O124 In117 2.326 . S
O124 C120 1.260 . S
O125 In117 2.266 . S
O125 C122 1.252 . S
O126 In117 2.326 . S
O126 C122 1.260 . S
C127 O118 1.240 . S
C127 O119 1.252 . S
O128 In117 2.294 . S
O128 C121 1.240 . S
O129 In117 2.326 . S
O129 C121 1.252 . S
In130 O131 2.294 . S
In130 O132 2.326 . S
In130 O136 2.266 . S
In130 O137 2.326 . S
In130 O138 2.266 . S
In130 O139 2.326 . S
In130 O141 2.294 . S
In130 O142 2.326 . S
O131 In130 2.294 . S
O131 C140 1.240 . S
O132 In130 2.326 . S
O132 C140 1.252 . S
C133 O136 1.252 . S
C133 O137 1.260 . S
C134 O141 1.240 . S
C134 O142 1.252 . S
C135 O138 1.252 . S
C135 O139 1.260 . S
O136 In130 2.266 . S
O136 C133 1.252 . S
O137 In130 2.326 . S
O137 C133 1.260 . S
O138 In130 2.266 . S
O138 C135 1.252 . S
O139 In130 2.326 . S
O139 C135 1.260 . S
C140 O131 1.240 . S
C140 O132 1.252 . S
O141 In130 2.294 . S
O141 C134 1.240 . S
O142 In130 2.326 . S
O142 C134 1.252 . S
In143 O144 2.294 . S
In143 O145 2.326 . S
In143 O149 2.266 . S
In143 O150 2.326 . S
In143 O151 2.266 . S
In143 O152 2.326 . S
In143 O154 2.294 . S
In143 O155 2.326 . S
O144 In143 2.294 . S
O144 C153 1.240 . S
O145 In143 2.326 . S
O145 C153 1.252 . S
C146 O149 1.252 . S
C146 O150 1.260 . S
C147 O154 1.240 . S
C147 O155 1.252 . S
C148 O151 1.252 . S
C148 O152 1.260 . S
O149 In143 2.266 . S
O149 C146 1.252 . S
O150 In143 2.326 . S
O150 C146 1.260 . S
O151 In143 2.266 . S
O151 C148 1.252 . S
O152 In143 2.326 . S
O152 C148 1.260 . S
C153 O144 1.240 . S
C153 O145 1.252 . S
O154 In143 2.294 . S
O154 C147 1.240 . S
O155 In143 2.326 . S
O155 C147 1.252 . S
In156 O157 2.294 . S
In156 O158 2.326 . S
In156 O162 2.266 . S
In156 O163 2.326 . S
In156 O164 2.266 . S
In156 O165 2.326 . S
In156 O167 2.294 . S
In156 O168 2.326 . S
O157 In156 2.294 . S
O157 C166 1.240 . S
O158 In156 2.326 . S
O158 C166 1.252 . S
C159 O162 1.252 . S
C159 O163 1.260 . S
C160 O167 1.240 . S
C160 O168 1.252 . S
C161 O164 1.252 . S
C161 O165 1.260 . S
O162 In156 2.266 . S
O162 C159 1.252 . S
O163 In156 2.326 . S
O163 C159 1.260 . S
O164 In156 2.266 . S
O164 C161 1.252 . S
O165 In156 2.326 . S
O165 C161 1.260 . S
C166 O157 1.240 . S
C166 O158 1.252 . S
O167 In156 2.294 . S
O167 C160 1.240 . S
O168 In156 2.326 . S
O168 C160 1.252 . S
In169 O170 2.294 . S
In169 O171 2.326 . S
In169 O175 2.266 . S
In169 O176 2.326 . S
In169 O177 2.266 . S
In169 O178 2.326 . S
In169 O180 2.294 . S
In169 O181 2.326 . S
O170 In169 2.294 . S
O170 C179 1.240 . S
O171 In169 2.326 . S
O171 C179 1.252 . S
C172 O175 1.252 . S
C172 O176 1.260 . S
C173 O180 1.240 . S
C173 O181 1.252 . S
C174 O177 1.252 . S
C174 O178 1.260 . S
O175 In169 2.266 . S
O175 C172 1.252 . S
O176 In169 2.326 . S
O176 C172 1.260 . S
O177 In169 2.266 . S
O177 C174 1.252 . S
O178 In169 2.326 . S
O178 C174 1.260 . S
C179 O170 1.240 . S
C179 O171 1.252 . S
O180 In169 2.294 . S
O180 C173 1.240 . S
O181 In169 2.326 . S
O181 C173 1.252 . S
In182 O183 2.294 . S
In182 O184 2.326 . S
In182 O188 2.266 . S
In182 O189 2.326 . S
In182 O190 2.266 . S
In182 O191 2.326 . S
In182 O193 2.294 . S
In182 O194 2.326 . S
O183 In182 2.294 . S
O183 C192 1.240 . S
O184 In182 2.326 . S
O184 C192 1.252 . S
C185 O188 1.252 . S
C185 O189 1.260 . S
C186 O193 1.240 . S
C186 O194 1.252 . S
C187 O190 1.252 . S
C187 O191 1.260 . S
O188 In182 2.266 . S
O188 C185 1.252 . S
O189 In182 2.326 . S
O189 C185 1.260 . S
O190 In182 2.266 . S
O190 C187 1.252 . S
O191 In182 2.326 . S
O191 C187 1.260 . S
C192 O183 1.240 . S
C192 O184 1.252 . S
O193 In182 2.294 . S
O193 C186 1.240 . S
O194 In182 2.326 . S
O194 C186 1.252 . S
In195 O196 2.294 . S
In195 O197 2.326 . S
In195 O201 2.266 . S
In195 O202 2.326 . S
In195 O203 2.266 . S
In195 O204 2.326 . S
In195 O206 2.294 . S
In195 O207 2.326 . S
O196 In195 2.294 . S
O196 C205 1.240 . S
O197 In195 2.326 . S
O197 C205 1.252 . S
C198 O201 1.252 . S
C198 O202 1.260 . S
C199 O206 1.240 . S
C199 O207 1.252 . S
C200 O203 1.252 . S
C200 O204 1.260 . S
O201 In195 2.266 . S
O201 C198 1.252 . S
O202 In195 2.326 . S
O202 C198 1.260 . S
O203 In195 2.266 . S
O203 C200 1.252 . S
O204 In195 2.326 . S
O204 C200 1.260 . S
C205 O196 1.240 . S
C205 O197 1.252 . S
O206 In195 2.294 . S
O206 C199 1.240 . S
O207 In195 2.326 . S
O207 C199 1.252 . S
In208 O209 2.294 . S
In208 O210 2.326 . S
In208 O214 2.266 . S
In208 O215 2.326 . S
In208 O216 2.266 . S
In208 O217 2.326 . S
In208 O219 2.294 . S
In208 O220 2.326 . S
O209 In208 2.294 . S
O209 C218 1.240 . S
O210 In208 2.326 . S
O210 C218 1.252 . S
C211 O214 1.252 . S
C211 O215 1.260 . S
C212 O219 1.240 . S
C212 O220 1.252 . S
C213 O216 1.252 . S
C213 O217 1.260 . S
O214 In208 2.266 . S
O214 C211 1.252 . S
O215 In208 2.326 . S
O215 C211 1.260 . S
O216 In208 2.266 . S
O216 C213 1.252 . S
O217 In208 2.326 . S
O217 C213 1.260 . S
C218 O209 1.240 . S
C218 O210 1.252 . S
O219 In208 2.294 . S
O219 C212 1.240 . S
O220 In208 2.326 . S
O220 C212 1.252 . S
In221 O222 2.294 . S
In221 O223 2.326 . S
In221 O227 2.266 . S
In221 O228 2.326 . S
In221 O229 2.266 . S
In221 O230 2.326 . S
In221 O232 2.294 . S
In221 O233 2.326 . S
O222 In221 2.294 . S
O222 C231 1.240 . S
O223 In221 2.326 . S
O223 C231 1.252 . S
C224 O227 1.252 . S
C224 O228 1.260 . S
C225 O232 1.240 . S
C225 O233 1.252 . S
C226 O229 1.252 . S
C226 O230 1.260 . S
O227 In221 2.266 . S
O227 C224 1.252 . S
O228 In221 2.326 . S
O228 C224 1.260 . S
O229 In221 2.266 . S
O229 C226 1.252 . S
O230 In221 2.326 . S
O230 C226 1.260 . S
C231 O222 1.240 . S
C231 O223 1.252 . S
O232 In221 2.294 . S
O232 C225 1.240 . S
O233 In221 2.326 . S
O233 C225 1.252 . S
In234 O235 2.294 . S
In234 O236 2.326 . S
In234 O240 2.266 . S
In234 O241 2.326 . S
In234 O242 2.266 . S
In234 O243 2.326 . S
In234 O245 2.294 . S
In234 O246 2.326 . S
O235 In234 2.294 . S
O235 C244 1.240 . S
O236 In234 2.326 . S
O236 C244 1.252 . S
C237 O240 1.252 . S
C237 O241 1.260 . S
C238 O245 1.240 . S
C238 O246 1.252 . S
C239 O242 1.252 . S
C239 O243 1.260 . S
O240 In234 2.266 . S
O240 C237 1.252 . S
O241 In234 2.326 . S
O241 C237 1.260 . S
O242 In234 2.266 . S
O242 C239 1.252 . S
O243 In234 2.326 . S
O243 C239 1.260 . S
C244 O235 1.240 . S
C244 O236 1.252 . S
O245 In234 2.294 . S
O245 C238 1.240 . S
O246 In234 2.326 . S
O246 C238 1.252 . S
In247 O248 2.294 . S
In247 O249 2.326 . S
In247 O253 2.266 . S
In247 O254 2.326 . S
In247 O255 2.266 . S
In247 O256 2.326 . S
In247 O258 2.294 . S
In247 O259 2.326 . S
O248 In247 2.294 . S
O248 C257 1.240 . S
O249 In247 2.326 . S
O249 C257 1.252 . S
C250 O253 1.252 . S
C250 O254 1.260 . S
C251 O258 1.240 . S
C251 O259 1.252 . S
C252 O255 1.252 . S
C252 O256 1.260 . S
O253 In247 2.266 . S
O253 C250 1.252 . S
O254 In247 2.326 . S
O254 C250 1.260 . S
O255 In247 2.266 . S
O255 C252 1.252 . S
O256 In247 2.326 . S
O256 C252 1.260 . S
C257 O248 1.240 . S
C257 O249 1.252 . S
O258 In247 2.294 . S
O258 C251 1.240 . S
O259 In247 2.326 . S
O259 C251 1.252 . S
In260 O261 2.294 . S
In260 O262 2.326 . S
In260 O266 2.266 . S
In260 O267 2.326 . S
In260 O268 2.266 . S
In260 O269 2.326 . S
In260 O271 2.294 . S
In260 O272 2.326 . S
O261 In260 2.294 . S
O261 C270 1.240 . S
O262 In260 2.326 . S
O262 C270 1.252 . S
C263 O266 1.252 . S
C263 O267 1.260 . S
C264 O271 1.240 . S
C264 O272 1.252 . S
C265 O268 1.252 . S
C265 O269 1.260 . S
O266 In260 2.266 . S
O266 C263 1.252 . S
O267 In260 2.326 . S
O267 C263 1.260 . S
O268 In260 2.266 . S
O268 C265 1.252 . S
O269 In260 2.326 . S
O269 C265 1.260 . S
C270 O261 1.240 . S
C270 O262 1.252 . S
O271 In260 2.294 . S
O271 C264 1.240 . S
O272 In260 2.326 . S
O272 C264 1.252 . S
In273 O274 2.294 . S
In273 O275 2.326 . S
In273 O279 2.266 . S
In273 O280 2.326 . S
In273 O281 2.266 . S
In273 O282 2.326 . S
In273 O284 2.294 . S
In273 O285 2.326 . S
O274 In273 2.294 . S
O274 C283 1.240 . S
O275 In273 2.326 . S
O275 C283 1.252 . S
C276 O279 1.252 . S
C276 O280 1.260 . S
C277 O284 1.240 . S
C277 O285 1.252 . S
C278 O281 1.252 . S
C278 O282 1.260 . S
O279 In273 2.266 . S
O279 C276 1.252 . S
O280 In273 2.326 . S
O280 C276 1.260 . S
O281 In273 2.266 . S
O281 C278 1.252 . S
O282 In273 2.326 . S
O282 C278 1.260 . S
C283 O274 1.240 . S
C283 O275 1.252 . S
O284 In273 2.294 . S
O284 C277 1.240 . S
O285 In273 2.326 . S
O285 C277 1.252 . S
In286 O287 2.294 . S
In286 O288 2.326 . S
In286 O292 2.266 . S
In286 O293 2.326 . S
In286 O294 2.266 . S
In286 O295 2.326 . S
In286 O297 2.294 . S
In286 O298 2.326 . S
O287 In286 2.294 . S
O287 C296 1.240 . S
O288 In286 2.326 . S
O288 C296 1.252 . S
C289 O292 1.252 . S
C289 O293 1.260 . S
C290 O297 1.240 . S
C290 O298 1.252 . S
C291 O294 1.252 . S
C291 O295 1.260 . S
O292 In286 2.266 . S
O292 C289 1.252 . S
O293 In286 2.326 . S
O293 C289 1.260 . S
O294 In286 2.266 . S
O294 C291 1.252 . S
O295 In286 2.326 . S
O295 C291 1.260 . S
C296 O287 1.240 . S
C296 O288 1.252 . S
O297 In286 2.294 . S
O297 C290 1.240 . S
O298 In286 2.326 . S
O298 C290 1.252 . S
In299 O300 2.294 . S
In299 O301 2.326 . S
In299 O305 2.266 . S
In299 O306 2.326 . S
In299 O307 2.266 . S
In299 O308 2.326 . S
In299 O310 2.294 . S
In299 O311 2.326 . S
O300 In299 2.294 . S
O300 C309 1.240 . S
O301 In299 2.326 . S
O301 C309 1.252 . S
C302 O305 1.252 . S
C302 O306 1.260 . S
C303 O310 1.240 . S
C303 O311 1.252 . S
C304 O307 1.252 . S
C304 O308 1.260 . S
O305 In299 2.266 . S
O305 C302 1.252 . S
O306 In299 2.326 . S
O306 C302 1.260 . S
O307 In299 2.266 . S
O307 C304 1.252 . S
O308 In299 2.326 . S
O308 C304 1.260 . S
C309 O300 1.240 . S
C309 O301 1.252 . S
O310 In299 2.294 . S
O310 C303 1.240 . S
O311 In299 2.326 . S
O311 C303 1.252 . S
H312 C320 0.950 . S
H313 C325 0.950 . S
H314 C322 0.950 . S
H315 C324 0.950 . S
H316 C326 0.950 . S
H317 C328 0.950 . S
H318 C330 0.950 . S
H319 C331 0.950 . S
C320 H312 0.950 . S
C320 C321 1.386 . S
C320 C322 1.391 . S
C321 C320 1.386 . S
C321 C325 1.393 . S
C322 H314 0.950 . S
C322 C320 1.391 . S
C322 C323 1.400 . S
C323 C322 1.400 . S
C323 C324 1.398 . S
C323 C329 1.491 . S
C324 H315 0.950 . S
C324 C323 1.398 . S
C324 C325 1.391 . S
C325 H313 0.950 . S
C325 C321 1.393 . S
C325 C324 1.391 . S
C326 H316 0.950 . S
C326 C327 1.386 . S
C326 C328 1.391 . S
C327 C326 1.386 . S
C327 C331 1.393 . S
C328 H317 0.950 . S
C328 C326 1.391 . S
C328 C329 1.400 . S
C329 C323 1.491 . S
C329 C328 1.400 . S
C329 C330 1.398 . S
C330 H318 0.950 . S
C330 C329 1.398 . S
C330 C331 1.391 . S
C331 H319 0.950 . S
C331 C327 1.393 . S
C331 C330 1.391 . S
H332 C340 0.950 . S
H333 C345 0.950 . S
H334 C342 0.950 . S
H335 C344 0.950 . S
H336 C346 0.950 . S
H337 C348 0.950 . S
H338 C350 0.950 . S
H339 C351 0.950 . S
C340 H332 0.950 . S
C340 C341 1.386 . S
C340 C342 1.391 . S
C341 C340 1.386 . S
C341 C345 1.393 . S
C342 H334 0.950 . S
C342 C340 1.391 . S
C342 C343 1.400 . S
C343 C342 1.400 . S
C343 C344 1.398 . S
C343 C349 1.491 . S
C344 H335 0.950 . S
C344 C343 1.398 . S
C344 C345 1.391 . S
C345 H333 0.950 . S
C345 C341 1.393 . S
C345 C344 1.391 . S
C346 H336 0.950 . S
C346 C347 1.386 . S
C346 C348 1.391 . S
C347 C346 1.386 . S
C347 C351 1.393 . S
C348 H337 0.950 . S
C348 C346 1.391 . S
C348 C349 1.400 . S
C349 C343 1.491 . S
C349 C348 1.400 . S
C349 C350 1.398 . S
C350 H338 0.950 . S
C350 C349 1.398 . S
C350 C351 1.391 . S
C351 H339 0.950 . S
C351 C347 1.393 . S
C351 C350 1.391 . S
H352 C360 0.950 . S
H353 C365 0.950 . S
H354 C362 0.950 . S
H355 C364 0.950 . S
H356 C366 0.950 . S
H357 C368 0.950 . S
H358 C370 0.950 . S
H359 C371 0.950 . S
C360 H352 0.950 . S
C360 C361 1.386 . S
C360 C362 1.391 . S
C361 C360 1.386 . S
C361 C365 1.393 . S
C362 H354 0.950 . S
C362 C360 1.391 . S
C362 C363 1.400 . S
C363 C362 1.400 . S
C363 C364 1.398 . S
C363 C369 1.491 . S
C364 H355 0.950 . S
C364 C363 1.398 . S
C364 C365 1.391 . S
C365 H353 0.950 . S
C365 C361 1.393 . S
C365 C364 1.391 . S
C366 H356 0.950 . S
C366 C367 1.386 . S
C366 C368 1.391 . S
C367 C366 1.386 . S
C367 C371 1.393 . S
C368 H357 0.950 . S
C368 C366 1.391 . S
C368 C369 1.400 . S
C369 C363 1.491 . S
C369 C368 1.400 . S
C369 C370 1.398 . S
C370 H358 0.950 . S
C370 C369 1.398 . S
C370 C371 1.391 . S
C371 H359 0.950 . S
C371 C367 1.393 . S
C371 C370 1.391 . S
H372 C380 0.950 . S
H373 C385 0.950 . S
H374 C382 0.950 . S
H375 C384 0.950 . S
H376 C386 0.950 . S
H377 C388 0.950 . S
H378 C390 0.950 . S
H379 C391 0.950 . S
C380 H372 0.950 . S
C380 C381 1.386 . S
C380 C382 1.391 . S
C381 C380 1.386 . S
C381 C385 1.393 . S
C382 H374 0.950 . S
C382 C380 1.391 . S
C382 C383 1.400 . S
C383 C382 1.400 . S
C383 C384 1.398 . S
C383 C389 1.491 . S
C384 H375 0.950 . S
C384 C383 1.398 . S
C384 C385 1.391 . S
C385 H373 0.950 . S
C385 C381 1.393 . S
C385 C384 1.391 . S
C386 H376 0.950 . S
C386 C387 1.386 . S
C386 C388 1.391 . S
C387 C386 1.386 . S
C387 C391 1.393 . S
C388 H377 0.950 . S
C388 C386 1.391 . S
C388 C389 1.400 . S
C389 C383 1.491 . S
C389 C388 1.400 . S
C389 C390 1.398 . S
C390 H378 0.950 . S
C390 C389 1.398 . S
C390 C391 1.391 . S
C391 H379 0.950 . S
C391 C387 1.393 . S
C391 C390 1.391 . S
H392 C400 0.950 . S
H393 C405 0.950 . S
H394 C402 0.950 . S
H395 C404 0.950 . S
H396 C406 0.950 . S
H397 C408 0.950 . S
H398 C410 0.950 . S
H399 C411 0.950 . S
C400 H392 0.950 . S
C400 C401 1.386 . S
C400 C402 1.391 . S
C401 C400 1.386 . S
C401 C405 1.393 . S
C402 H394 0.950 . S
C402 C400 1.391 . S
C402 C403 1.400 . S
C403 C402 1.400 . S
C403 C404 1.398 . S
C403 C409 1.491 . S
C404 H395 0.950 . S
C404 C403 1.398 . S
C404 C405 1.391 . S
C405 H393 0.950 . S
C405 C401 1.393 . S
C405 C404 1.391 . S
C406 H396 0.950 . S
C406 C407 1.386 . S
C406 C408 1.391 . S
C407 C406 1.386 . S
C407 C411 1.393 . S
C408 H397 0.950 . S
C408 C406 1.391 . S
C408 C409 1.400 . S
C409 C403 1.491 . S
C409 C408 1.400 . S
C409 C410 1.398 . S
C410 H398 0.950 . S
C410 C409 1.398 . S
C410 C411 1.391 . S
C411 H399 0.950 . S
C411 C407 1.393 . S
C411 C410 1.391 . S
H412 C420 0.950 . S
H413 C425 0.950 . S
H414 C422 0.950 . S
H415 C424 0.950 . S
H416 C426 0.950 . S
H417 C428 0.950 . S
H418 C430 0.950 . S
H419 C431 0.950 . S
C420 H412 0.950 . S
C420 C421 1.386 . S
C420 C422 1.391 . S
C421 C420 1.386 . S
C421 C425 1.393 . S
C422 H414 0.950 . S
C422 C420 1.391 . S
C422 C423 1.400 . S
C423 C422 1.400 . S
C423 C424 1.398 . S
C423 C429 1.491 . S
C424 H415 0.950 . S
C424 C423 1.398 . S
C424 C425 1.391 . S
C425 H413 0.950 . S
C425 C421 1.393 . S
C425 C424 1.391 . S
C426 H416 0.950 . S
C426 C427 1.386 . S
C426 C428 1.391 . S
C427 C426 1.386 . S
C427 C431 1.393 . S
C428 H417 0.950 . S
C428 C426 1.391 . S
C428 C429 1.400 . S
C429 C423 1.491 . S
C429 C428 1.400 . S
C429 C430 1.398 . S
C430 H418 0.950 . S
C430 C429 1.398 . S
C430 C431 1.391 . S
C431 H419 0.950 . S
C431 C427 1.393 . S
C431 C430 1.391 . S
H432 C440 0.950 . S
H433 C445 0.950 . S
H434 C442 0.950 . S
H435 C444 0.950 . S
H436 C446 0.950 . S
H437 C448 0.950 . S
H438 C450 0.950 . S
H439 C451 0.950 . S
C440 H432 0.950 . S
C440 C441 1.386 . S
C440 C442 1.391 . S
C441 C440 1.386 . S
C441 C445 1.393 . S
C442 H434 0.950 . S
C442 C440 1.391 . S
C442 C443 1.400 . S
C443 C442 1.400 . S
C443 C444 1.398 . S
C443 C449 1.491 . S
C444 H435 0.950 . S
C444 C443 1.398 . S
C444 C445 1.391 . S
C445 H433 0.950 . S
C445 C441 1.393 . S
C445 C444 1.391 . S
C446 H436 0.950 . S
C446 C447 1.386 . S
C446 C448 1.391 . S
C447 C446 1.386 . S
C447 C451 1.393 . S
C448 H437 0.950 . S
C448 C446 1.391 . S
C448 C449 1.400 . S
C449 C443 1.491 . S
C449 C448 1.400 . S
C449 C450 1.398 . S
C450 H438 0.950 . S
C450 C449 1.398 . S
C450 C451 1.391 . S
C451 H439 0.950 . S
C451 C447 1.393 . S
C451 C450 1.391 . S
H452 C460 0.950 . S
H453 C465 0.950 . S
H454 C462 0.950 . S
H455 C464 0.950 . S
H456 C466 0.950 . S
H457 C468 0.950 . S
H458 C470 0.950 . S
H459 C471 0.950 . S
C460 H452 0.950 . S
C460 C461 1.386 . S
C460 C462 1.391 . S
C461 C460 1.386 . S
C461 C465 1.393 . S
C462 H454 0.950 . S
C462 C460 1.391 . S
C462 C463 1.400 . S
C463 C462 1.400 . S
C463 C464 1.398 . S
C463 C469 1.491 . S
C464 H455 0.950 . S
C464 C463 1.398 . S
C464 C465 1.391 . S
C465 H453 0.950 . S
C465 C461 1.393 . S
C465 C464 1.391 . S
C466 H456 0.950 . S
C466 C467 1.386 . S
C466 C468 1.391 . S
C467 C466 1.386 . S
C467 C471 1.393 . S
C468 H457 0.950 . S
C468 C466 1.391 . S
C468 C469 1.400 . S
C469 C463 1.491 . S
C469 C468 1.400 . S
C469 C470 1.398 . S
C470 H458 0.950 . S
C470 C469 1.398 . S
C470 C471 1.391 . S
C471 H459 0.950 . S
C471 C467 1.393 . S
C471 C470 1.391 . S
H472 C480 0.950 . S
H473 C485 0.950 . S
H474 C482 0.950 . S
H475 C484 0.950 . S
H476 C486 0.950 . S
H477 C488 0.950 . S
H478 C490 0.950 . S
H479 C491 0.950 . S
C480 H472 0.950 . S
C480 C481 1.386 . S
C480 C482 1.391 . S
C481 C480 1.386 . S
C481 C485 1.393 . S
C482 H474 0.950 . S
C482 C480 1.391 . S
C482 C483 1.400 . S
C483 C482 1.400 . S
C483 C484 1.398 . S
C483 C489 1.491 . S
C484 H475 0.950 . S
C484 C483 1.398 . S
C484 C485 1.391 . S
C485 H473 0.950 . S
C485 C481 1.393 . S
C485 C484 1.391 . S
C486 H476 0.950 . S
C486 C487 1.386 . S
C486 C488 1.391 . S
C487 C486 1.386 . S
C487 C491 1.393 . S
C488 H477 0.950 . S
C488 C486 1.391 . S
C488 C489 1.400 . S
C489 C483 1.491 . S
C489 C488 1.400 . S
C489 C490 1.398 . S
C490 H478 0.950 . S
C490 C489 1.398 . S
C490 C491 1.391 . S
C491 H479 0.950 . S
C491 C487 1.393 . S
C491 C490 1.391 . S
H492 C500 0.950 . S
H493 C505 0.950 . S
H494 C502 0.950 . S
H495 C504 0.950 . S
H496 C506 0.950 . S
H497 C508 0.950 . S
H498 C510 0.950 . S
H499 C511 0.950 . S
C500 H492 0.950 . S
C500 C501 1.386 . S
C500 C502 1.391 . S
C501 C500 1.386 . S
C501 C505 1.393 . S
C502 H494 0.950 . S
C502 C500 1.391 . S
C502 C503 1.400 . S
C503 C502 1.400 . S
C503 C504 1.398 . S
C503 C509 1.491 . S
C504 H495 0.950 . S
C504 C503 1.398 . S
C504 C505 1.391 . S
C505 H493 0.950 . S
C505 C501 1.393 . S
C505 C504 1.391 . S
C506 H496 0.950 . S
C506 C507 1.386 . S
C506 C508 1.391 . S
C507 C506 1.386 . S
C507 C511 1.393 . S
C508 H497 0.950 . S
C508 C506 1.391 . S
C508 C509 1.400 . S
C509 C503 1.491 . S
C509 C508 1.400 . S
C509 C510 1.398 . S
C510 H498 0.950 . S
C510 C509 1.398 . S
C510 C511 1.391 . S
C511 H499 0.950 . S
C511 C507 1.393 . S
C511 C510 1.391 . S
H512 C520 0.950 . S
H513 C525 0.950 . S
H514 C522 0.950 . S
H515 C524 0.950 . S
H516 C526 0.950 . S
H517 C528 0.950 . S
H518 C530 0.950 . S
H519 C531 0.950 . S
C520 H512 0.950 . S
C520 C521 1.386 . S
C520 C522 1.391 . S
C521 C520 1.386 . S
C521 C525 1.393 . S
C522 H514 0.950 . S
C522 C520 1.391 . S
C522 C523 1.400 . S
C523 C522 1.400 . S
C523 C524 1.398 . S
C523 C529 1.491 . S
C524 H515 0.950 . S
C524 C523 1.398 . S
C524 C525 1.391 . S
C525 H513 0.950 . S
C525 C521 1.393 . S
C525 C524 1.391 . S
C526 H516 0.950 . S
C526 C527 1.386 . S
C526 C528 1.391 . S
C527 C526 1.386 . S
C527 C531 1.393 . S
C528 H517 0.950 . S
C528 C526 1.391 . S
C528 C529 1.400 . S
C529 C523 1.491 . S
C529 C528 1.400 . S
C529 C530 1.398 . S
C530 H518 0.950 . S
C530 C529 1.398 . S
C530 C531 1.391 . S
C531 H519 0.950 . S
C531 C527 1.393 . S
C531 C530 1.391 . S
H532 C540 0.950 . S
H533 C545 0.950 . S
H534 C542 0.950 . S
H535 C544 0.950 . S
H536 C546 0.950 . S
H537 C548 0.950 . S
H538 C550 0.950 . S
H539 C551 0.950 . S
C540 H532 0.950 . S
C540 C541 1.386 . S
C540 C542 1.391 . S
C541 C540 1.386 . S
C541 C545 1.393 . S
C542 H534 0.950 . S
C542 C540 1.391 . S
C542 C543 1.400 . S
C543 C542 1.400 . S
C543 C544 1.398 . S
C543 C549 1.491 . S
C544 H535 0.950 . S
C544 C543 1.398 . S
C544 C545 1.391 . S
C545 H533 0.950 . S
C545 C541 1.393 . S
C545 C544 1.391 . S
C546 H536 0.950 . S
C546 C547 1.386 . S
C546 C548 1.391 . S
C547 C546 1.386 . S
C547 C551 1.393 . S
C548 H537 0.950 . S
C548 C546 1.391 . S
C548 C549 1.400 . S
C549 C543 1.491 . S
C549 C548 1.400 . S
C549 C550 1.398 . S
C550 H538 0.950 . S
C550 C549 1.398 . S
C550 C551 1.391 . S
C551 H539 0.950 . S
C551 C547 1.393 . S
C551 C550 1.391 . S
H552 C560 0.950 . S
H553 C565 0.950 . S
H554 C562 0.950 . S
H555 C564 0.950 1_545 S
H556 C566 0.950 . S
H557 C568 0.950 . S
H558 C570 0.950 1_565 S
H559 C571 0.950 . S
C560 H552 0.950 . S
C560 C561 1.386 . S
C560 C562 1.391 . S
C561 C560 1.386 . S
C561 C565 1.393 . S
C562 H554 0.950 . S
C562 C560 1.391 . S
C562 C563 1.400 . S
C563 C562 1.400 . S
C563 C564 1.398 . S
C563 C569 1.491 1_565 S
C564 H555 0.950 1_565 S
C564 C563 1.398 . S
C564 C565 1.391 . S
C565 H553 0.950 . S
C565 C561 1.393 . S
C565 C564 1.391 . S
C566 H556 0.950 . S
C566 C567 1.386 . S
C566 C568 1.391 . S
C567 C566 1.386 . S
C567 C571 1.393 . S
C568 H557 0.950 . S
C568 C566 1.391 . S
C568 C569 1.400 . S
C569 C563 1.491 1_545 S
C569 C568 1.400 . S
C569 C570 1.398 . S
C570 H558 0.950 1_545 S
C570 C569 1.398 . S
C570 C571 1.391 . S
C571 H559 0.950 . S
C571 C567 1.393 . S
C571 C570 1.391 . S
H572 C580 0.950 . S
H573 C585 0.950 . S
H574 C582 0.950 . S
H575 C584 0.950 1_455 S
H576 C586 0.950 . S
H577 C588 0.950 . S
H578 C590 0.950 1_655 S
H579 C591 0.950 . S
C580 H572 0.950 . S
C580 C581 1.386 . S
C580 C582 1.391 . S
C581 C580 1.386 . S
C581 C585 1.393 . S
C582 H574 0.950 . S
C582 C580 1.391 . S
C582 C583 1.400 . S
C583 C582 1.400 . S
C583 C584 1.398 . S
C583 C589 1.491 1_655 S
C584 H575 0.950 1_655 S
C584 C583 1.398 . S
C584 C585 1.391 . S
C585 H573 0.950 . S
C585 C581 1.393 . S
C585 C584 1.391 . S
C586 H576 0.950 . S
C586 C587 1.386 . S
C586 C588 1.391 . S
C587 C586 1.386 . S
C587 C591 1.393 . S
C588 H577 0.950 . S
C588 C586 1.391 . S
C588 C589 1.400 . S
C589 C583 1.491 1_455 S
C589 C588 1.400 . S
C589 C590 1.398 . S
C590 H578 0.950 1_455 S
C590 C589 1.398 . S
C590 C591 1.391 . S
C591 H579 0.950 . S
C591 C587 1.393 . S
C591 C590 1.391 . S
H592 C600 0.950 . S
H593 C605 0.950 . S
H594 C602 0.950 . S
H595 C604 0.950 1_565 S
H596 C606 0.950 . S
H597 C608 0.950 . S
H598 C610 0.950 1_545 S
H599 C611 0.950 . S
C600 H592 0.950 . S
C600 C601 1.386 . S
C600 C602 1.391 . S
C601 C600 1.386 . S
C601 C605 1.393 . S
C602 H594 0.950 . S
C602 C600 1.391 . S
C602 C603 1.400 . S
C603 C602 1.400 . S
C603 C604 1.398 . S
C603 C609 1.491 1_545 S
C604 H595 0.950 1_545 S
C604 C603 1.398 . S
C604 C605 1.391 . S
C605 H593 0.950 . S
C605 C601 1.393 . S
C605 C604 1.391 . S
C606 H596 0.950 . S
C606 C607 1.386 . S
C606 C608 1.391 . S
C607 C606 1.386 . S
C607 C611 1.393 . S
C608 H597 0.950 . S
C608 C606 1.391 . S
C608 C609 1.400 . S
C609 C603 1.491 1_565 S
C609 C608 1.400 . S
C609 C610 1.398 . S
C610 H598 0.950 1_565 S
C610 C609 1.398 . S
C610 C611 1.391 . S
C611 H599 0.950 . S
C611 C607 1.393 . S
C611 C610 1.391 . S
H612 C620 0.950 . S
H613 C625 0.950 . S
H614 C622 0.950 . S
H615 C624 0.950 1_655 S
H616 C626 0.950 . S
H617 C628 0.950 . S
H618 C630 0.950 1_455 S
H619 C631 0.950 . S
C620 H612 0.950 . S
C620 C621 1.386 . S
C620 C622 1.391 . S
C621 C620 1.386 . S
C621 C625 1.393 . S
C622 H614 0.950 . S
C622 C620 1.391 . S
C622 C623 1.400 . S
C623 C622 1.400 . S
C623 C624 1.398 . S
C623 C629 1.491 1_455 S
C624 H615 0.950 1_455 S
C624 C623 1.398 . S
C624 C625 1.391 . S
C625 H613 0.950 . S
C625 C621 1.393 . S
C625 C624 1.391 . S
C626 H616 0.950 . S
C626 C627 1.386 . S
C626 C628 1.391 . S
C627 C626 1.386 . S
C627 C631 1.393 . S
C628 H617 0.950 . S
C628 C626 1.391 . S
C628 C629 1.400 . S
C629 C623 1.491 1_655 S
C629 C628 1.400 . S
C629 C630 1.398 . S
C630 H618 0.950 1_655 S
C630 C629 1.398 . S
C630 C631 1.391 . S
C631 H619 0.950 . S
C631 C627 1.393 . S
C631 C630 1.391 . S
H632 C640 0.950 . S
H633 C645 0.950 . S
H634 C642 0.950 . S
H635 C644 0.950 . S
H636 C646 0.950 . S
H637 C648 0.950 . S
H638 C650 0.950 . S
H639 C651 0.950 . S
C640 H632 0.950 . S
C640 C641 1.386 . S
C640 C642 1.391 . S
C641 C640 1.386 . S
C641 C645 1.393 . S
C642 H634 0.950 . S
C642 C640 1.391 . S
C642 C643 1.400 . S
C643 C642 1.400 . S
C643 C644 1.398 . S
C643 C649 1.491 1_565 S
C644 H635 0.950 . S
C644 C643 1.398 . S
C644 C645 1.391 . S
C645 H633 0.950 . S
C645 C641 1.393 . S
C645 C644 1.391 . S
C646 H636 0.950 . S
C646 C647 1.386 . S
C646 C648 1.391 . S
C647 C646 1.386 . S
C647 C651 1.393 . S
C648 H637 0.950 . S
C648 C646 1.391 . S
C648 C649 1.400 . S
C649 C643 1.491 1_545 S
C649 C648 1.400 . S
C649 C650 1.398 . S
C650 H638 0.950 . S
C650 C649 1.398 . S
C650 C651 1.391 . S
C651 H639 0.950 . S
C651 C647 1.393 . S
C651 C650 1.391 . S
H652 C660 0.950 . S
H653 C665 0.950 . S
H654 C662 0.950 . S
H655 C664 0.950 1_455 S
H656 C666 0.950 . S
H657 C668 0.950 . S
H658 C670 0.950 1_655 S
H659 C671 0.950 . S
C660 H652 0.950 . S
C660 C661 1.386 . S
C660 C662 1.391 . S
C661 C660 1.386 . S
C661 C665 1.393 . S
C662 H654 0.950 . S
C662 C660 1.391 . S
C662 C663 1.400 . S
C663 C662 1.400 . S
C663 C664 1.398 . S
C663 C669 1.491 1_655 S
C664 H655 0.950 1_655 S
C664 C663 1.398 . S
C664 C665 1.391 . S
C665 H653 0.950 . S
C665 C661 1.393 . S
C665 C664 1.391 . S
C666 H656 0.950 . S
C666 C667 1.386 . S
C666 C668 1.391 . S
C667 C666 1.386 . S
C667 C671 1.393 . S
C668 H657 0.950 . S
C668 C666 1.391 . S
C668 C669 1.400 . S
C669 C663 1.491 1_455 S
C669 C668 1.400 . S
C669 C670 1.398 . S
C670 H658 0.950 1_455 S
C670 C669 1.398 . S
C670 C671 1.391 . S
C671 H659 0.950 . S
C671 C667 1.393 . S
C671 C670 1.391 . S
H672 C680 0.950 . S
H673 C685 0.950 . S
H674 C682 0.950 . S
H675 C684 0.950 . S
H676 C686 0.950 . S
H677 C688 0.950 . S
H678 C690 0.950 . S
H679 C691 0.950 . S
C680 H672 0.950 . S
C680 C681 1.386 . S
C680 C682 1.391 . S
C681 C680 1.386 . S
C681 C685 1.393 . S
C682 H674 0.950 . S
C682 C680 1.391 . S
C682 C683 1.400 . S
C683 C682 1.400 . S
C683 C684 1.398 . S
C683 C689 1.491 1_565 S
C684 H675 0.950 . S
C684 C683 1.398 . S
C684 C685 1.391 . S
C685 H673 0.950 . S
C685 C681 1.393 . S
C685 C684 1.391 . S
C686 H676 0.950 . S
C686 C687 1.386 . S
C686 C688 1.391 . S
C687 C686 1.386 . S
C687 C691 1.393 . S
C688 H677 0.950 . S
C688 C686 1.391 . S
C688 C689 1.400 . S
C689 C683 1.491 1_545 S
C689 C688 1.400 . S
C689 C690 1.398 . S
C690 H678 0.950 . S
C690 C689 1.398 . S
C690 C691 1.391 . S
C691 H679 0.950 . S
C691 C687 1.393 . S
C691 C690 1.391 . S
H692 C700 0.950 . S
H693 C705 0.950 . S
H694 C702 0.950 . S
H695 C704 0.950 1_655 S
H696 C706 0.950 . S
H697 C708 0.950 . S
H698 C710 0.950 1_455 S
H699 C711 0.950 . S
C700 H692 0.950 . S
C700 C701 1.386 . S
C700 C702 1.391 . S
C701 C700 1.386 . S
C701 C705 1.393 . S
C702 H694 0.950 . S
C702 C700 1.391 . S
C702 C703 1.400 . S
C703 C702 1.400 . S
C703 C704 1.398 . S
C703 C709 1.491 1_455 S
C704 H695 0.950 1_455 S
C704 C703 1.398 . S
C704 C705 1.391 . S
C705 H693 0.950 . S
C705 C701 1.393 . S
C705 C704 1.391 . S
C706 H696 0.950 . S
C706 C707 1.386 . S
C706 C708 1.391 . S
C707 C706 1.386 . S
C707 C711 1.393 . S
C708 H697 0.950 . S
C708 C706 1.391 . S
C708 C709 1.400 . S
C709 C703 1.491 1_655 S
C709 C708 1.400 . S
C709 C710 1.398 . S
C710 H698 0.950 1_655 S
C710 C709 1.398 . S
C710 C711 1.391 . S
C711 H699 0.950 . S
C711 C707 1.393 . S
C711 C710 1.391 . S
H712 C720 0.950 . S
H713 C725 0.950 . S
H714 C722 0.950 . S
H715 C724 0.950 1_554 S
H716 C726 0.950 . S
H717 C728 0.950 . S
H718 C730 0.950 1_556 S
H719 C731 0.950 . S
C720 H712 0.950 . S
C720 C721 1.386 . S
C720 C722 1.391 . S
C721 C720 1.386 . S
C721 C725 1.393 . S
C722 H714 0.950 . S
C722 C720 1.391 . S
C722 C723 1.400 . S
C723 C722 1.400 . S
C723 C724 1.398 . S
C723 C729 1.491 1_556 S
C724 H715 0.950 1_556 S
C724 C723 1.398 . S
C724 C725 1.391 . S
C725 H713 0.950 . S
C725 C721 1.393 . S
C725 C724 1.391 . S
C726 H716 0.950 . S
C726 C727 1.386 . S
C726 C728 1.391 . S
C727 C726 1.386 . S
C727 C731 1.393 . S
C728 H717 0.950 . S
C728 C726 1.391 . S
C728 C729 1.400 . S
C729 C723 1.491 1_554 S
C729 C728 1.400 . S
C729 C730 1.398 . S
C730 H718 0.950 1_554 S
C730 C729 1.398 . S
C730 C731 1.391 . S
C731 H719 0.950 . S
C731 C727 1.393 . S
C731 C730 1.391 . S
H732 C740 0.950 . S
H733 C745 0.950 . S
H734 C742 0.950 . S
H735 C744 0.950 . S
H736 C746 0.950 . S
H737 C748 0.950 . S
H738 C750 0.950 . S
H739 C751 0.950 . S
C740 H732 0.950 . S
C740 C741 1.386 . S
C740 C742 1.391 . S
C741 C740 1.386 . S
C741 C745 1.393 . S
C742 H734 0.950 . S
C742 C740 1.391 . S
C742 C743 1.400 . S
C743 C742 1.400 . S
C743 C744 1.398 . S
C743 C749 1.491 1_554 S
C744 H735 0.950 . S
C744 C743 1.398 . S
C744 C745 1.391 . S
C745 H733 0.950 . S
C745 C741 1.393 . S
C745 C744 1.391 . S
C746 H736 0.950 . S
C746 C747 1.386 . S
C746 C748 1.391 . S
C747 C746 1.386 . S
C747 C751 1.393 . S
C748 H737 0.950 . S
C748 C746 1.391 . S
C748 C749 1.400 . S
C749 C743 1.491 1_556 S
C749 C748 1.400 . S
C749 C750 1.398 . S
C750 H738 0.950 . S
C750 C749 1.398 . S
C750 C751 1.391 . S
C751 H739 0.950 . S
C751 C747 1.393 . S
C751 C750 1.391 . S
H752 C760 0.950 . S
H753 C765 0.950 . S
H754 C762 0.950 1_554 S
H755 C764 0.950 . S
H756 C766 0.950 . S
H757 C768 0.950 1_556 S
H758 C770 0.950 . S
H759 C771 0.950 . S
C760 H752 0.950 . S
C760 C761 1.386 . S
C760 C762 1.391 . S
C761 C760 1.386 . S
C761 C765 1.393 . S
C762 H754 0.950 1_556 S
C762 C760 1.391 . S
C762 C763 1.400 . S
C763 C762 1.400 . S
C763 C764 1.398 . S
C763 C769 1.491 1_556 S
C764 H755 0.950 . S
C764 C763 1.398 . S
C764 C765 1.391 . S
C765 H753 0.950 . S
C765 C761 1.393 . S
C765 C764 1.391 . S
C766 H756 0.950 . S
C766 C767 1.386 . S
C766 C768 1.391 . S
C767 C766 1.386 . S
C767 C771 1.393 . S
C768 H757 0.950 1_554 S
C768 C766 1.391 . S
C768 C769 1.400 . S
C769 C763 1.491 1_554 S
C769 C768 1.400 . S
C769 C770 1.398 . S
C770 H758 0.950 . S
C770 C769 1.398 . S
C770 C771 1.391 . S
C771 H759 0.950 . S
C771 C767 1.393 . S
C771 C770 1.391 . S
H772 C780 0.950 . S
H773 C785 0.950 . S
H774 C782 0.950 . S
H775 C784 0.956 . S
H776 C786 0.950 . S
H777 C788 0.950 . S
H778 C790 0.956 . S
H779 C791 0.950 . S
C780 H772 0.950 . S
C780 C781 1.386 . S
C780 C782 1.391 . S
C781 C780 1.386 . S
C781 C785 1.393 . S
C782 H774 0.950 . S
C782 C780 1.391 . S
C782 C783 1.400 . S
C783 C782 1.400 . S
C783 C784 1.398 . S
C783 C789 1.491 1_554 S
C784 H775 0.956 . S
C784 C783 1.398 . S
C784 C785 1.391 . S
C785 H773 0.950 . S
C785 C781 1.393 . S
C785 C784 1.391 . S
C786 H776 0.950 . S
C786 C787 1.386 . S
C786 C788 1.391 . S
C787 C786 1.386 . S
C787 C791 1.393 . S
C788 H777 0.950 . S
C788 C786 1.391 . S
C788 C789 1.400 . S
C789 C783 1.491 1_556 S
C789 C788 1.400 . S
C789 C790 1.398 . S
C790 H778 0.956 . S
C790 C789 1.398 . S
C790 C791 1.391 . S
C791 H779 0.950 . S
C791 C787 1.393 . S
C791 C790 1.391 . S
H792 C800 0.950 . S
H793 C805 0.950 . S
H794 C802 0.950 . S
H795 C804 0.950 . S
H796 C806 0.950 . S
H797 C808 0.950 . S
H798 C810 0.950 . S
H799 C811 0.950 . S
C800 H792 0.950 . S
C800 C801 1.386 . S
C800 C802 1.391 . S
C801 C800 1.386 . S
C801 C805 1.393 . S
C802 H794 0.950 . S
C802 C800 1.391 . S
C802 C803 1.400 . S
C803 C802 1.400 . S
C803 C804 1.398 . S
C803 C809 1.491 . S
C804 H795 0.950 . S
C804 C803 1.398 . S
C804 C805 1.391 . S
C805 H793 0.950 . S
C805 C801 1.393 . S
C805 C804 1.391 . S
C806 H796 0.950 . S
C806 C807 1.386 . S
C806 C808 1.391 . S
C807 C806 1.386 . S
C807 C811 1.393 . S
C808 H797 0.950 . S
C808 C806 1.391 . S
C808 C809 1.400 . S
C809 C803 1.491 . S
C809 C808 1.400 . S
C809 C810 1.398 . S
C810 H798 0.950 . S
C810 C809 1.398 . S
C810 C811 1.391 . S
C811 H799 0.950 . S
C811 C807 1.393 . S
C811 C810 1.391 . S
H812 C820 0.950 . S
H813 C825 0.950 . S
H814 C822 0.950 . S
H815 C824 0.950 . S
H816 C826 0.950 . S
H817 C828 0.950 . S
H818 C830 0.950 . S
H819 C831 0.950 . S
C820 H812 0.950 . S
C820 C821 1.386 . S
C820 C822 1.391 . S
C821 C820 1.386 . S
C821 C825 1.393 . S
C822 H814 0.950 . S
C822 C820 1.391 . S
C822 C823 1.400 . S
C823 C822 1.400 . S
C823 C824 1.398 . S
C823 C829 1.491 . S
C824 H815 0.950 . S
C824 C823 1.398 . S
C824 C825 1.391 . S
C825 H813 0.950 . S
C825 C821 1.393 . S
C825 C824 1.391 . S
C826 H816 0.950 . S
C826 C827 1.386 . S
C826 C828 1.391 . S
C827 C826 1.386 . S
C827 C831 1.393 . S
C828 H817 0.950 . S
C828 C826 1.391 . S
C828 C829 1.400 . S
C829 C823 1.491 . S
C829 C828 1.400 . S
C829 C830 1.398 . S
C830 H818 0.950 . S
C830 C829 1.398 . S
C830 C831 1.391 . S
C831 H819 0.950 . S
C831 C827 1.393 . S
C831 C830 1.391 . S
H832 C840 0.950 . S
H833 C845 0.950 . S
H834 C842 0.950 . S
H835 C844 0.950 . S
H836 C846 0.950 . S
H837 C848 0.950 . S
H838 C850 0.950 . S
H839 C851 0.950 . S
C840 H832 0.950 . S
C840 C841 1.386 . S
C840 C842 1.391 . S
C841 C840 1.386 . S
C841 C845 1.393 . S
C842 H834 0.950 . S
C842 C840 1.391 . S
C842 C843 1.400 . S
C843 C842 1.400 . S
C843 C844 1.398 . S
C843 C849 1.491 . S
C844 H835 0.950 . S
C844 C843 1.398 . S
C844 C845 1.391 . S
C845 H833 0.950 . S
C845 C841 1.393 . S
C845 C844 1.391 . S
C846 H836 0.950 . S
C846 C847 1.386 . S
C846 C848 1.391 . S
C847 C846 1.386 . S
C847 C851 1.393 . S
C848 H837 0.950 . S
C848 C846 1.391 . S
C848 C849 1.400 . S
C849 C843 1.491 . S
C849 C848 1.400 . S
C849 C850 1.398 . S
C850 H838 0.950 . S
C850 C849 1.398 . S
C850 C851 1.391 . S
C851 H839 0.950 . S
C851 C847 1.393 . S
C851 C850 1.391 . S
H852 C860 0.950 . S
H853 C865 0.950 . S
H854 C862 0.950 . S
H855 C864 0.950 . S
H856 C866 0.950 . S
H857 C868 0.950 . S
H858 C870 0.950 . S
H859 C871 0.950 . S
C860 H852 0.950 . S
C860 C861 1.386 . S
C860 C862 1.391 . S
C861 C860 1.386 . S
C861 C865 1.393 . S
C862 H854 0.950 . S
C862 C860 1.391 . S
C862 C863 1.400 . S
C863 C862 1.400 . S
C863 C864 1.398 . S
C863 C869 1.491 . S
C864 H855 0.950 . S
C864 C863 1.398 . S
C864 C865 1.391 . S
C865 H853 0.950 . S
C865 C861 1.393 . S
C865 C864 1.391 . S
C866 H856 0.950 . S
C866 C867 1.386 . S
C866 C868 1.391 . S
C867 C866 1.386 . S
C867 C871 1.393 . S
C868 H857 0.950 . S
C868 C866 1.391 . S
C868 C869 1.400 . S
C869 C863 1.491 . S
C869 C868 1.400 . S
C869 C870 1.398 . S
C870 H858 0.950 . S
C870 C869 1.398 . S
C870 C871 1.391 . S
C871 H859 0.950 . S
C871 C867 1.393 . S
C871 C870 1.391 . S
H872 C880 0.950 . S
H873 C885 0.950 . S
H874 C882 0.950 . S
H875 C884 0.950 . S
H876 C886 0.950 . S
H877 C888 0.950 . S
H878 C890 0.950 . S
H879 C891 0.950 . S
C880 H872 0.950 . S
C880 C881 1.386 . S
C880 C882 1.391 . S
C881 C880 1.386 . S
C881 C885 1.393 . S
C882 H874 0.950 . S
C882 C880 1.391 . S
C882 C883 1.400 . S
C883 C882 1.400 . S
C883 C884 1.398 . S
C883 C889 1.491 . S
C884 H875 0.950 . S
C884 C883 1.398 . S
C884 C885 1.391 . S
C885 H873 0.950 . S
C885 C881 1.393 . S
C885 C884 1.391 . S
C886 H876 0.950 . S
C886 C887 1.386 . S
C886 C888 1.391 . S
C887 C886 1.386 . S
C887 C891 1.393 . S
C888 H877 0.950 . S
C888 C886 1.391 . S
C888 C889 1.400 . S
C889 C883 1.491 . S
C889 C888 1.400 . S
C889 C890 1.398 . S
C890 H878 0.950 . S
C890 C889 1.398 . S
C890 C891 1.391 . S
C891 H879 0.950 . S
C891 C887 1.393 . S
C891 C890 1.391 . S
H892 C900 0.950 . S
H893 C905 0.950 . S
H894 C902 0.950 . S
H895 C904 0.950 . S
H896 C906 0.950 . S
H897 C908 0.950 . S
H898 C910 0.950 . S
H899 C911 0.950 . S
C900 H892 0.950 . S
C900 C901 1.386 . S
C900 C902 1.391 . S
C901 C900 1.386 . S
C901 C905 1.393 . S
C902 H894 0.950 . S
C902 C900 1.391 . S
C902 C903 1.400 . S
C903 C902 1.400 . S
C903 C904 1.398 . S
C903 C909 1.491 . S
C904 H895 0.950 . S
C904 C903 1.398 . S
C904 C905 1.391 . S
C905 H893 0.950 . S
C905 C901 1.393 . S
C905 C904 1.391 . S
C906 H896 0.950 . S
C906 C907 1.386 . S
C906 C908 1.391 . S
C907 C906 1.386 . S
C907 C911 1.393 . S
C908 H897 0.950 . S
C908 C906 1.391 . S
C908 C909 1.400 . S
C909 C903 1.491 . S
C909 C908 1.400 . S
C909 C910 1.398 . S
C910 H898 0.950 . S
C910 C909 1.398 . S
C910 C911 1.391 . S
C911 H899 0.950 . S
C911 C907 1.393 . S
C911 C910 1.391 . S
H912 C920 0.950 . S
H913 C925 0.950 . S
H914 C922 0.950 . S
H915 C924 0.950 . S
H916 C926 0.950 . S
H917 C928 0.950 . S
H918 C930 0.950 . S
H919 C931 0.950 . S
C920 H912 0.950 . S
C920 C921 1.386 . S
C920 C922 1.391 . S
C921 C920 1.386 . S
C921 C925 1.393 . S
C922 H914 0.950 . S
C922 C920 1.391 . S
C922 C923 1.400 . S
C923 C922 1.400 . S
C923 C924 1.398 . S
C923 C929 1.491 . S
C924 H915 0.950 . S
C924 C923 1.398 . S
C924 C925 1.391 . S
C925 H913 0.950 . S
C925 C921 1.393 . S
C925 C924 1.391 . S
C926 H916 0.950 . S
C926 C927 1.386 . S
C926 C928 1.391 . S
C927 C926 1.386 . S
C927 C931 1.393 . S
C928 H917 0.950 . S
C928 C926 1.391 . S
C928 C929 1.400 . S
C929 C923 1.491 . S
C929 C928 1.400 . S
C929 C930 1.398 . S
C930 H918 0.950 . S
C930 C929 1.398 . S
C930 C931 1.391 . S
C931 H919 0.950 . S
C931 C927 1.393 . S
C931 C930 1.391 . S
H932 C940 0.950 . S
H933 C945 0.950 . S
H934 C942 0.950 . S
H935 C944 0.950 . S
H936 C946 0.950 . S
H937 C948 0.950 . S
H938 C950 0.950 . S
H939 C951 0.950 . S
C940 H932 0.950 . S
C940 C941 1.386 . S
C940 C942 1.391 . S
C941 C940 1.386 . S
C941 C945 1.393 . S
C942 H934 0.950 . S
C942 C940 1.391 . S
C942 C943 1.400 . S
C943 C942 1.400 . S
C943 C944 1.398 . S
C943 C949 1.491 . S
C944 H935 0.950 . S
C944 C943 1.398 . S
C944 C945 1.391 . S
C945 H933 0.950 . S
C945 C941 1.393 . S
C945 C944 1.391 . S
C946 H936 0.950 . S
C946 C947 1.386 . S
C946 C948 1.391 . S
C947 C946 1.386 . S
C947 C951 1.393 . S
C948 H937 0.950 . S
C948 C946 1.391 . S
C948 C949 1.400 . S
C949 C943 1.491 . S
C949 C948 1.400 . S
C949 C950 1.398 . S
C950 H938 0.950 . S
C950 C949 1.398 . S
C950 C951 1.391 . S
C951 H939 0.950 . S
C951 C947 1.393 . S
C951 C950 1.391 . S
H952 C960 0.950 . S
H953 C965 0.950 . S
H954 C962 0.950 . S
H955 C964 0.950 . S
H956 C966 0.950 . S
H957 C968 0.950 . S
H958 C970 0.950 . S
H959 C971 0.950 . S
C960 H952 0.950 . S
C960 C961 1.386 . S
C960 C962 1.391 . S
C961 C960 1.386 . S
C961 C965 1.393 . S
C962 H954 0.950 . S
C962 C960 1.391 . S
C962 C963 1.400 . S
C963 C962 1.400 . S
C963 C964 1.398 . S
C963 C969 1.491 . S
C964 H955 0.950 . S
C964 C963 1.398 . S
C964 C965 1.391 . S
C965 H953 0.950 . S
C965 C961 1.393 . S
C965 C964 1.391 . S
C966 H956 0.950 . S
C966 C967 1.386 . S
C966 C968 1.391 . S
C967 C966 1.386 . S
C967 C971 1.393 . S
C968 H957 0.950 . S
C968 C966 1.391 . S
C968 C969 1.400 . S
C969 C963 1.491 . S
C969 C968 1.400 . S
C969 C970 1.398 . S
C970 H958 0.950 . S
C970 C969 1.398 . S
C970 C971 1.391 . S
C971 H959 0.950 . S
C971 C967 1.393 . S
C971 C970 1.391 . S
H972 C980 0.950 . S
H973 C985 0.950 . S
H974 C982 0.950 . S
H975 C984 0.950 . S
H976 C986 0.950 . S
H977 C988 0.950 . S
H978 C990 0.950 . S
H979 C991 0.950 . S
C980 H972 0.950 . S
C980 C981 1.386 . S
C980 C982 1.391 . S
C981 C980 1.386 . S
C981 C985 1.393 . S
C982 H974 0.950 . S
C982 C980 1.391 . S
C982 C983 1.400 . S
C983 C982 1.400 . S
C983 C984 1.398 . S
C983 C989 1.491 . S
C984 H975 0.950 . S
C984 C983 1.398 . S
C984 C985 1.391 . S
C985 H973 0.950 . S
C985 C981 1.393 . S
C985 C984 1.391 . S
C986 H976 0.950 . S
C986 C987 1.386 . S
C986 C988 1.391 . S
C987 C986 1.386 . S
C987 C991 1.393 . S
C988 H977 0.950 . S
C988 C986 1.391 . S
C988 C989 1.400 . S
C989 C983 1.491 . S
C989 C988 1.400 . S
C989 C990 1.398 . S
C990 H978 0.950 . S
C990 C989 1.398 . S
C990 C991 1.391 . S
C991 H979 0.950 . S
C991 C987 1.393 . S
C991 C990 1.391 . S
H992 C1000 0.950 . S
H993 C1005 0.950 . S
H994 C1002 0.950 . S
H995 C1004 0.950 . S
H996 C1006 0.950 . S
H997 C1008 0.950 . S
H998 C1010 0.950 . S
H999 C1011 0.950 . S
C1000 H992 0.950 . S
C1000 C1001 1.386 . S
C1000 C1002 1.391 . S
C1001 C1000 1.386 . S
C1001 C1005 1.393 . S
C1002 H994 0.950 . S
C1002 C1000 1.391 . S
C1002 C1003 1.400 . S
C1003 C1002 1.400 . S
C1003 C1004 1.398 . S
C1003 C1009 1.491 . S
C1004 H995 0.950 . S
C1004 C1003 1.398 . S
C1004 C1005 1.391 . S
C1005 H993 0.950 . S
C1005 C1001 1.393 . S
C1005 C1004 1.391 . S
C1006 H996 0.950 . S
C1006 C1007 1.386 . S
C1006 C1008 1.391 . S
C1007 C1006 1.386 . S
C1007 C1011 1.393 . S
C1008 H997 0.950 . S
C1008 C1006 1.391 . S
C1008 C1009 1.400 . S
C1009 C1003 1.491 . S
C1009 C1008 1.400 . S
C1009 C1010 1.398 . S
C1010 H998 0.950 . S
C1010 C1009 1.398 . S
C1010 C1011 1.391 . S
C1011 H999 0.950 . S
C1011 C1007 1.393 . S
C1011 C1010 1.391 . S
H1012 C1020 0.950 . S
H1013 C1025 0.950 . S
H1014 C1022 0.950 . S
H1015 C1024 0.950 . S
H1016 C1026 0.950 . S
H1017 C1028 0.950 . S
H1018 C1030 0.950 . S
H1019 C1031 0.950 . S
C1020 H1012 0.950 . S
C1020 C1021 1.386 . S
C1020 C1022 1.391 . S
C1021 C1020 1.386 . S
C1021 C1025 1.393 . S
C1022 H1014 0.950 . S
C1022 C1020 1.391 . S
C1022 C1023 1.400 . S
C1023 C1022 1.400 . S
C1023 C1024 1.398 . S
C1023 C1029 1.491 . S
C1024 H1015 0.950 . S
C1024 C1023 1.398 . S
C1024 C1025 1.391 . S
C1025 H1013 0.950 . S
C1025 C1021 1.393 . S
C1025 C1024 1.391 . S
C1026 H1016 0.950 . S
C1026 C1027 1.386 . S
C1026 C1028 1.391 . S
C1027 C1026 1.386 . S
C1027 C1031 1.393 . S
C1028 H1017 0.950 . S
C1028 C1026 1.391 . S
C1028 C1029 1.400 . S
C1029 C1023 1.491 . S
C1029 C1028 1.400 . S
C1029 C1030 1.398 . S
C1030 H1018 0.950 . S
C1030 C1029 1.398 . S
C1030 C1031 1.391 . S
C1031 H1019 0.950 . S
C1031 C1027 1.393 . S
C1031 C1030 1.391 . S
H1032 C1040 0.950 . S
H1033 C1045 0.950 . S
H1034 C1042 0.950 . S
H1035 C1044 0.950 . S
H1036 C1046 0.950 . S
H1037 C1048 0.950 . S
H1038 C1050 0.950 . S
H1039 C1051 0.950 . S
C1040 H1032 0.950 . S
C1040 C1041 1.386 . S
C1040 C1042 1.391 . S
C1041 C1040 1.386 . S
C1041 C1045 1.393 . S
C1042 H1034 0.950 . S
C1042 C1040 1.391 . S
C1042 C1043 1.400 . S
C1043 C1042 1.400 . S
C1043 C1044 1.398 . S
C1043 C1049 1.491 . S
C1044 H1035 0.950 . S
C1044 C1043 1.398 . S
C1044 C1045 1.391 . S
C1045 H1033 0.950 . S
C1045 C1041 1.393 . S
C1045 C1044 1.391 . S
C1046 H1036 0.950 . S
C1046 C1047 1.386 . S
C1046 C1048 1.391 . S
C1047 C1046 1.386 . S
C1047 C1051 1.393 . S
C1048 H1037 0.950 . S
C1048 C1046 1.391 . S
C1048 C1049 1.400 . S
C1049 C1043 1.491 . S
C1049 C1048 1.400 . S
C1049 C1050 1.398 . S
C1050 H1038 0.950 . S
C1050 C1049 1.398 . S
C1050 C1051 1.391 . S
C1051 H1039 0.950 . S
C1051 C1047 1.393 . S
C1051 C1050 1.391 . S
H1052 C1060 0.950 . S
H1053 C1065 0.950 . S
H1054 C1062 0.950 . S
H1055 C1064 0.950 . S
H1056 C1066 0.950 . S
H1057 C1068 0.950 . S
H1058 C1070 0.950 . S
H1059 C1071 0.950 . S
C1060 H1052 0.950 . S
C1060 C1061 1.386 . S
C1060 C1062 1.391 . S
C1061 C1060 1.386 . S
C1061 C1065 1.393 . S
C1062 H1054 0.950 . S
C1062 C1060 1.391 . S
C1062 C1063 1.400 . S
C1063 C1062 1.400 . S
C1063 C1064 1.398 . S
C1063 C1069 1.491 . S
C1064 H1055 0.950 . S
C1064 C1063 1.398 . S
C1064 C1065 1.391 . S
C1065 H1053 0.950 . S
C1065 C1061 1.393 . S
C1065 C1064 1.391 . S
C1066 H1056 0.950 . S
C1066 C1067 1.386 . S
C1066 C1068 1.391 . S
C1067 C1066 1.386 . S
C1067 C1071 1.393 . S
C1068 H1057 0.950 . S
C1068 C1066 1.391 . S
C1068 C1069 1.400 . S
C1069 C1063 1.491 . S
C1069 C1068 1.400 . S
C1069 C1070 1.398 . S
C1070 H1058 0.950 . S
C1070 C1069 1.398 . S
C1070 C1071 1.391 . S
C1071 H1059 0.950 . S
C1071 C1067 1.393 . S
C1071 C1070 1.391 . S
H1072 C1080 0.950 . S
H1073 C1085 0.950 . S
H1074 C1082 0.950 . S
H1075 C1084 0.950 . S
H1076 C1086 0.950 . S
H1077 C1088 0.950 . S
H1078 C1090 0.950 . S
H1079 C1091 0.950 . S
C1080 H1072 0.950 . S
C1080 C1081 1.386 . S
C1080 C1082 1.391 . S
C1081 C1080 1.386 . S
C1081 C1085 1.393 . S
C1082 H1074 0.950 . S
C1082 C1080 1.391 . S
C1082 C1083 1.400 . S
C1083 C1082 1.400 . S
C1083 C1084 1.398 . S
C1083 C1089 1.491 . S
C1084 H1075 0.950 . S
C1084 C1083 1.398 . S
C1084 C1085 1.391 . S
C1085 H1073 0.950 . S
C1085 C1081 1.393 . S
C1085 C1084 1.391 . S
C1086 H1076 0.950 . S
C1086 C1087 1.386 . S
C1086 C1088 1.391 . S
C1087 C1086 1.386 . S
C1087 C1091 1.393 . S
C1088 H1077 0.950 . S
C1088 C1086 1.391 . S
C1088 C1089 1.400 . S
C1089 C1083 1.491 . S
C1089 C1088 1.400 . S
C1089 C1090 1.398 . S
C1090 H1078 0.950 . S
C1090 C1089 1.398 . S
C1090 C1091 1.391 . S
C1091 H1079 0.950 . S
C1091 C1087 1.393 . S
C1091 C1090 1.391 . S
H1092 C1100 0.950 . S
H1093 C1105 0.950 . S
H1094 C1102 0.950 . S
H1095 C1104 0.950 . S
H1096 C1106 0.950 . S
H1097 C1108 0.950 . S
H1098 C1110 0.950 . S
H1099 C1111 0.950 . S
C1100 H1092 0.950 . S
C1100 C1101 1.386 . S
C1100 C1102 1.391 . S
C1101 C1100 1.386 . S
C1101 C1105 1.393 . S
C1102 H1094 0.950 . S
C1102 C1100 1.391 . S
C1102 C1103 1.400 . S
C1103 C1102 1.400 . S
C1103 C1104 1.398 . S
C1103 C1109 1.491 . S
C1104 H1095 0.950 . S
C1104 C1103 1.398 . S
C1104 C1105 1.391 . S
C1105 H1093 0.950 . S
C1105 C1101 1.393 . S
C1105 C1104 1.391 . S
C1106 H1096 0.950 . S
C1106 C1107 1.386 . S
C1106 C1108 1.391 . S
C1107 C1106 1.386 . S
C1107 C1111 1.393 . S
C1108 H1097 0.950 . S
C1108 C1106 1.391 . S
C1108 C1109 1.400 . S
C1109 C1103 1.491 . S
C1109 C1108 1.400 . S
C1109 C1110 1.398 . S
C1110 H1098 0.950 . S
C1110 C1109 1.398 . S
C1110 C1111 1.391 . S
C1111 H1099 0.950 . S
C1111 C1107 1.393 . S
C1111 C1110 1.391 . S
H1112 C1120 0.950 . S
H1113 C1125 0.950 . S
H1114 C1122 0.950 . S
H1115 C1124 0.950 . S
H1116 C1126 0.950 . S
H1117 C1128 0.950 . S
H1118 C1130 0.950 . S
H1119 C1131 0.950 . S
C1120 H1112 0.950 . S
C1120 C1121 1.386 . S
C1120 C1122 1.391 . S
C1121 C1120 1.386 . S
C1121 C1125 1.393 . S
C1122 H1114 0.950 . S
C1122 C1120 1.391 . S
C1122 C1123 1.400 . S
C1123 C1122 1.400 . S
C1123 C1124 1.398 . S
C1123 C1129 1.491 . S
C1124 H1115 0.950 . S
C1124 C1123 1.398 . S
C1124 C1125 1.391 . S
C1125 H1113 0.950 . S
C1125 C1121 1.393 . S
C1125 C1124 1.391 . S
C1126 H1116 0.950 . S
C1126 C1127 1.386 . S
C1126 C1128 1.391 . S
C1127 C1126 1.386 . S
C1127 C1131 1.393 . S
C1128 H1117 0.950 . S
C1128 C1126 1.391 . S
C1128 C1129 1.400 . S
C1129 C1123 1.491 . S
C1129 C1128 1.400 . S
C1129 C1130 1.398 . S
C1130 H1118 0.950 . S
C1130 C1129 1.398 . S
C1130 C1131 1.391 . S
C1131 H1119 0.950 . S
C1131 C1127 1.393 . S
C1131 C1130 1.391 . S
H1132 C1140 0.950 . S
H1133 C1145 0.950 . S
H1134 C1142 0.950 . S
H1135 C1144 0.950 . S
H1136 C1146 0.950 . S
H1137 C1148 0.950 . S
H1138 C1150 0.950 . S
H1139 C1151 0.950 . S
C1140 H1132 0.950 . S
C1140 C1141 1.386 . S
C1140 C1142 1.391 . S
C1141 C1140 1.386 . S
C1141 C1145 1.393 . S
C1142 H1134 0.950 . S
C1142 C1140 1.391 . S
C1142 C1143 1.400 . S
C1143 C1142 1.400 . S
C1143 C1144 1.398 . S
C1143 C1149 1.491 . S
C1144 H1135 0.950 . S
C1144 C1143 1.398 . S
C1144 C1145 1.391 . S
C1145 H1133 0.950 . S
C1145 C1141 1.393 . S
C1145 C1144 1.391 . S
C1146 H1136 0.950 . S
C1146 C1147 1.386 . S
C1146 C1148 1.391 . S
C1147 C1146 1.386 . S
C1147 C1151 1.393 . S
C1148 H1137 0.950 . S
C1148 C1146 1.391 . S
C1148 C1149 1.400 . S
C1149 C1143 1.491 . S
C1149 C1148 1.400 . S
C1149 C1150 1.398 . S
C1150 H1138 0.950 . S
C1150 C1149 1.398 . S
C1150 C1151 1.391 . S
C1151 H1139 0.950 . S
C1151 C1147 1.393 . S
C1151 C1150 1.391 . S
H1152 C1160 0.950 . S
H1153 C1165 0.950 . S
H1154 C1162 0.950 . S
H1155 C1164 0.950 . S
H1156 C1166 0.950 . S
H1157 C1168 0.950 . S
H1158 C1170 0.950 . S
H1159 C1171 0.950 . S
C1160 H1152 0.950 . S
C1160 C1161 1.386 . S
C1160 C1162 1.391 . S
C1161 C1160 1.386 . S
C1161 C1165 1.393 . S
C1162 H1154 0.950 . S
C1162 C1160 1.391 . S
C1162 C1163 1.400 . S
C1163 C1162 1.400 . S
C1163 C1164 1.398 . S
C1163 C1169 1.491 . S
C1164 H1155 0.950 . S
C1164 C1163 1.398 . S
C1164 C1165 1.391 . S
C1165 H1153 0.950 . S
C1165 C1161 1.393 . S
C1165 C1164 1.391 . S
C1166 H1156 0.950 . S
C1166 C1167 1.386 . S
C1166 C1168 1.391 . S
C1167 C1166 1.386 . S
C1167 C1171 1.393 . S
C1168 H1157 0.950 . S
C1168 C1166 1.391 . S
C1168 C1169 1.400 . S
C1169 C1163 1.491 . S
C1169 C1168 1.400 . S
C1169 C1170 1.398 . S
C1170 H1158 0.950 . S
C1170 C1169 1.398 . S
C1170 C1171 1.391 . S
C1171 H1159 0.950 . S
C1171 C1167 1.393 . S
C1171 C1170 1.391 . S
H1172 C1180 0.950 . S
H1173 C1185 0.950 . S
H1174 C1182 0.950 . S
H1175 C1184 0.950 . S
H1176 C1186 0.950 . S
H1177 C1188 0.950 . S
H1178 C1190 0.950 . S
H1179 C1191 0.950 . S
C1180 H1172 0.950 . S
C1180 C1181 1.386 . S
C1180 C1182 1.391 . S
C1181 C1180 1.386 . S
C1181 C1185 1.393 . S
C1182 H1174 0.950 . S
C1182 C1180 1.391 . S
C1182 C1183 1.400 . S
C1183 C1182 1.400 . S
C1183 C1184 1.398 . S
C1183 C1189 1.491 . S
C1184 H1175 0.950 . S
C1184 C1183 1.398 . S
C1184 C1185 1.391 . S
C1185 H1173 0.950 . S
C1185 C1181 1.393 . S
C1185 C1184 1.391 . S
C1186 H1176 0.950 . S
C1186 C1187 1.386 . S
C1186 C1188 1.391 . S
C1187 C1186 1.386 . S
C1187 C1191 1.393 . S
C1188 H1177 0.950 . S
C1188 C1186 1.391 . S
C1188 C1189 1.400 . S
C1189 C1183 1.491 . S
C1189 C1188 1.400 . S
C1189 C1190 1.398 . S
C1190 H1178 0.950 . S
C1190 C1189 1.398 . S
C1190 C1191 1.391 . S
C1191 H1179 0.950 . S
C1191 C1187 1.393 . S
C1191 C1190 1.391 . S
H1192 C1200 0.950 . S
H1193 C1205 0.950 . S
H1194 C1202 0.950 . S
H1195 C1204 0.950 . S
H1196 C1206 0.950 . S
H1197 C1208 0.950 . S
H1198 C1210 0.950 . S
H1199 C1211 0.950 . S
C1200 H1192 0.950 . S
C1200 C1201 1.386 . S
C1200 C1202 1.391 . S
C1201 C1200 1.386 . S
C1201 C1205 1.393 . S
C1202 H1194 0.950 . S
C1202 C1200 1.391 . S
C1202 C1203 1.400 . S
C1203 C1202 1.400 . S
C1203 C1204 1.398 . S
C1203 C1209 1.491 . S
C1204 H1195 0.950 . S
C1204 C1203 1.398 . S
C1204 C1205 1.391 . S
C1205 H1193 0.950 . S
C1205 C1201 1.393 . S
C1205 C1204 1.391 . S
C1206 H1196 0.950 . S
C1206 C1207 1.386 . S
C1206 C1208 1.391 . S
C1207 C1206 1.386 . S
C1207 C1211 1.393 . S
C1208 H1197 0.950 . S
C1208 C1206 1.391 . S
C1208 C1209 1.400 . S
C1209 C1203 1.491 . S
C1209 C1208 1.400 . S
C1209 C1210 1.398 . S
C1210 H1198 0.950 . S
C1210 C1209 1.398 . S
C1210 C1211 1.391 . S
C1211 H1199 0.950 . S
C1211 C1207 1.393 . S
C1211 C1210 1.391 . S
H1212 C1220 0.950 . S
H1213 C1225 0.950 . S
H1214 C1222 0.950 . S
H1215 C1224 0.950 . S
H1216 C1226 0.950 . S
H1217 C1228 0.950 . S
H1218 C1230 0.950 . S
H1219 C1231 0.950 . S
C1220 H1212 0.950 . S
C1220 C1221 1.386 . S
C1220 C1222 1.391 . S
C1221 C1220 1.386 . S
C1221 C1225 1.393 . S
C1222 H1214 0.950 . S
C1222 C1220 1.391 . S
C1222 C1223 1.400 . S
C1223 C1222 1.400 . S
C1223 C1224 1.398 . S
C1223 C1229 1.491 . S
C1224 H1215 0.950 . S
C1224 C1223 1.398 . S
C1224 C1225 1.391 . S
C1225 H1213 0.950 . S
C1225 C1221 1.393 . S
C1225 C1224 1.391 . S
C1226 H1216 0.950 . S
C1226 C1227 1.386 . S
C1226 C1228 1.391 . S
C1227 C1226 1.386 . S
C1227 C1231 1.393 . S
C1228 H1217 0.950 . S
C1228 C1226 1.391 . S
C1228 C1229 1.400 . S
C1229 C1223 1.491 . S
C1229 C1228 1.400 . S
C1229 C1230 1.398 . S
C1230 H1218 0.950 . S
C1230 C1229 1.398 . S
C1230 C1231 1.391 . S
C1231 H1219 0.950 . S
C1231 C1227 1.393 . S
C1231 C1230 1.391 . S
H1232 C1240 0.950 . S
H1233 C1245 0.950 . S
H1234 C1242 0.950 . S
H1235 C1244 0.950 . S
H1236 C1246 0.950 . S
H1237 C1248 0.950 . S
H1238 C1250 0.950 . S
H1239 C1251 0.950 . S
C1240 H1232 0.950 . S
C1240 C1241 1.386 . S
C1240 C1242 1.391 . S
C1241 C1240 1.386 . S
C1241 C1245 1.393 . S
C1242 H1234 0.950 . S
C1242 C1240 1.391 . S
C1242 C1243 1.400 . S
C1243 C1242 1.400 . S
C1243 C1244 1.398 . S
C1243 C1249 1.491 . S
C1244 H1235 0.950 . S
C1244 C1243 1.398 . S
C1244 C1245 1.391 . S
C1245 H1233 0.950 . S
C1245 C1241 1.393 . S
C1245 C1244 1.391 . S
C1246 H1236 0.950 . S
C1246 C1247 1.386 . S
C1246 C1248 1.391 . S
C1247 C1246 1.386 . S
C1247 C1251 1.393 . S
C1248 H1237 0.950 . S
C1248 C1246 1.391 . S
C1248 C1249 1.400 . S
C1249 C1243 1.491 . S
C1249 C1248 1.400 . S
C1249 C1250 1.398 . S
C1250 H1238 0.950 . S
C1250 C1249 1.398 . S
C1250 C1251 1.391 . S
C1251 H1239 0.950 . S
C1251 C1247 1.393 . S
C1251 C1250 1.391 . S
H1252 C1260 0.950 . S
H1253 C1265 0.950 . S
H1254 C1262 0.950 . S
H1255 C1264 0.950 . S
H1256 C1266 0.950 . S
H1257 C1268 0.950 . S
H1258 C1270 0.950 . S
H1259 C1271 0.950 . S
C1260 H1252 0.950 . S
C1260 C1261 1.386 . S
C1260 C1262 1.391 . S
C1261 C1260 1.386 . S
C1261 C1265 1.393 . S
C1262 H1254 0.950 . S
C1262 C1260 1.391 . S
C1262 C1263 1.400 . S
C1263 C1262 1.400 . S
C1263 C1264 1.398 . S
C1263 C1269 1.491 . S
C1264 H1255 0.950 . S
C1264 C1263 1.398 . S
C1264 C1265 1.391 . S
C1265 H1253 0.950 . S
C1265 C1261 1.393 . S
C1265 C1264 1.391 . S
C1266 H1256 0.950 . S
C1266 C1267 1.386 . S
C1266 C1268 1.391 . S
C1267 C1266 1.386 . S
C1267 C1271 1.393 . S
C1268 H1257 0.950 . S
C1268 C1266 1.391 . S
C1268 C1269 1.400 . S
C1269 C1263 1.491 . S
C1269 C1268 1.400 . S
C1269 C1270 1.398 . S
C1270 H1258 0.950 . S
C1270 C1269 1.398 . S
C1270 C1271 1.391 . S
C1271 H1259 0.950 . S
C1271 C1267 1.393 . S
C1271 C1270 1.391 . S
C321 C290 1.598 . S
C327 C5 1.607 . S
C341 C17 1.597 . S
C347 C213 1.604 . S
C361 C309 1.577 . S
C367 C29 1.586 . S
C381 C278 1.594 . S
C387 C44 1.593 . S
C401 C239 1.586 . S
C407 C55 1.586 . S
C421 C257 1.585 . S
C427 C68 1.594 . S
C441 C265 1.592 . S
C447 C88 1.584 . S
C461 C94 1.608 . S
C467 C225 1.600 . S
C481 C173 1.585 . S
C487 C114 1.584 . S
C501 C185 1.581 . S
C507 C120 1.581 . S
C521 C134 1.582 . S
C527 C205 1.583 . S
C541 C146 1.595 . S
C547 C161 1.595 . S
C561 C95 1.580 . S
C567 C186 1.579 . S
C581 C200 1.603 . S
C587 C56 1.595 . S
C601 C69 1.594 . S
C607 C166 1.593 . S
C621 C172 1.591 . S
C627 C83 1.592 . S
C641 C133 1.586 . S
C647 C16 1.586 . S
C661 C30 1.593 . S
C667 C147 1.592 . S
C681 C49 1.599 . S
C687 C109 1.607 . S
C701 C10 1.589 . S
C707 C121 1.588 . S
C721 C270 1.594 . S
C727 C283 1.593 . S
C741 C289 1.583 . S
C747 C224 1.583 . S
C761 C244 1.578 . S
C767 C218 1.579 . S
C781 C304 1.586 . S
C787 C252 1.586 . S
C801 C4 0.864 . S
C807 C108 0.835 . S
C821 C122 0.891 . S
C827 C18 0.881 . S
C841 C36 0.832 . S
C847 C140 0.855 . S
C861 C43 0.857 . S
C867 C148 0.838 . S
C881 C62 0.878 . S
C887 C159 0.877 . S
C901 C75 0.842 . S
C907 C179 0.835 . S
C921 C187 0.881 . S
C927 C81 0.891 . S
C941 C199 0.853 . S
C947 C101 0.872 . S
C961 C107 0.881 . S
C967 C211 0.884 . S
C981 C127 0.861 . S
C987 C303 0.835 . S
C1001 C276 0.882 . S
C1007 C135 0.850 . S
C1021 C296 0.875 . S
C1027 C153 0.869 . S
C1041 C231 0.856 . S
C1047 C160 0.878 . S
C1061 C237 0.850 . S
C1067 C174 0.857 . S
C1081 C192 0.847 . S
C1087 C251 0.875 . S
C1101 C198 0.858 . S
C1107 C263 0.888 . S
C1121 C3 0.862 . S
C1127 C212 0.836 . S
C1141 C226 0.873 . S
C1147 C57 0.899 . S
C1161 C238 0.845 . S
C1167 C70 0.840 . S
C1181 C250 0.844 . S
C1187 C82 0.874 . S
C1201 C264 0.839 . S
C1207 C96 0.839 . S
C1221 C277 0.848 . S
C1227 C31 0.837 . S
C1241 C42 0.881 . S
C1247 C291 0.854 . S
C1261 C302 0.889 . S
C1267 C23 0.866 . S
