# Generated by pormake.
# Topology cha, (4)-cn, num edge types: 1
# Building blocks:
#     Node 0, Type 0, BuildingBlock: TATPOV_clean_sbu_0, # of connection points: 4
#     Node 1, Type 0, BuildingBlock: TATPOV_clean_sbu_0, # of connection points: 4
#     Node 2, Type 0, BuildingBlock: TATPOV_clean_sbu_0, # of connection points: 4
#     Node 3, Type 0, BuildingBlock: TATPOV_clean_sbu_0, # of connection points: 4
#     Node 4, Type 0, BuildingBlock: TATPOV_clean_sbu_0, # of connection points: 4
#     Node 5, Type 0, BuildingBlock: TATPOV_clean_sbu_0, # of connection points: 4
#     Node 6, Type 0, BuildingBlock: TATPOV_clean_sbu_0, # of connection points: 4
#     Node 7, Type 0, BuildingBlock: TATPOV_clean_sbu_0, # of connection points: 4
#     Node 8, Type 0, BuildingBlock: TATPOV_clean_sbu_0, # of connection points: 4
#     Node 9, Type 0, BuildingBlock: TATPOV_clean_sbu_0, # of connection points: 4
#     Node 10, Type 0, BuildingBlock: TATPOV_clean_sbu_0, # of connection points: 4
#     Node 11, Type 0, BuildingBlock: TATPOV_clean_sbu_0, # of connection points: 4
#     Node 12, Type 0, BuildingBlock: TATPOV_clean_sbu_0, # of connection points: 4
#     Node 13, Type 0, BuildingBlock: TATPOV_clean_sbu_0, # of connection points: 4
#     Node 14, Type 0, BuildingBlock: TATPOV_clean_sbu_0, # of connection points: 4
#     Node 15, Type 0, BuildingBlock: TATPOV_clean_sbu_0, # of connection points: 4
#     Node 16, Type 0, BuildingBlock: TATPOV_clean_sbu_0, # of connection points: 4
#     Node 17, Type 0, BuildingBlock: TATPOV_clean_sbu_0, # of connection points: 4
#     Node 18, Type 0, BuildingBlock: TATPOV_clean_sbu_0, # of connection points: 4
#     Node 19, Type 0, BuildingBlock: TATPOV_clean_sbu_0, # of connection points: 4
#     Node 20, Type 0, BuildingBlock: TATPOV_clean_sbu_0, # of connection points: 4
#     Node 21, Type 0, BuildingBlock: TATPOV_clean_sbu_0, # of connection points: 4
#     Node 22, Type 0, BuildingBlock: TATPOV_clean_sbu_0, # of connection points: 4
#     Node 23, Type 0, BuildingBlock: TATPOV_clean_sbu_0, # of connection points: 4
#     Node 24, Type 0, BuildingBlock: TATPOV_clean_sbu_0, # of connection points: 4
#     Node 25, Type 0, BuildingBlock: TATPOV_clean_sbu_0, # of connection points: 4
#     Node 26, Type 0, BuildingBlock: TATPOV_clean_sbu_0, # of connection points: 4
#     Node 27, Type 0, BuildingBlock: TATPOV_clean_sbu_0, # of connection points: 4
#     Node 28, Type 0, BuildingBlock: TATPOV_clean_sbu_0, # of connection points: 4
#     Node 29, Type 0, BuildingBlock: TATPOV_clean_sbu_0, # of connection points: 4
#     Node 30, Type 0, BuildingBlock: TATPOV_clean_sbu_0, # of connection points: 4
#     Node 31, Type 0, BuildingBlock: TATPOV_clean_sbu_0, # of connection points: 4
#     Node 32, Type 0, BuildingBlock: TATPOV_clean_sbu_0, # of connection points: 4
#     Node 33, Type 0, BuildingBlock: TATPOV_clean_sbu_0, # of connection points: 4
#     Node 34, Type 0, BuildingBlock: TATPOV_clean_sbu_0, # of connection points: 4
#     Node 35, Type 0, BuildingBlock: TATPOV_clean_sbu_0, # of connection points: 4
#     Edge 36, Type (0, 0), BuildingBlock: EZIPEK_clean_linker_0, # of connection points: 2
#     Edge 37, Type (0, 0), BuildingBlock: EZIPEK_clean_linker_0, # of connection points: 2
#     Edge 38, Type (0, 0), BuildingBlock: EZIPEK_clean_linker_0, # of connection points: 2
#     Edge 39, Type (0, 0), BuildingBlock: EZIPEK_clean_linker_0, # of connection points: 2
#     Edge 40, Type (0, 0), BuildingBlock: EZIPEK_clean_linker_0, # of connection points: 2
#     Edge 41, Type (0, 0), BuildingBlock: EZIPEK_clean_linker_0, # of connection points: 2
#     Edge 42, Type (0, 0), BuildingBlock: EZIPEK_clean_linker_0, # of connection points: 2
#     Edge 43, Type (0, 0), BuildingBlock: EZIPEK_clean_linker_0, # of connection points: 2
#     Edge 44, Type (0, 0), BuildingBlock: EZIPEK_clean_linker_0, # of connection points: 2
#     Edge 45, Type (0, 0), BuildingBlock: EZIPEK_clean_linker_0, # of connection points: 2
#     Edge 46, Type (0, 0), BuildingBlock: EZIPEK_clean_linker_0, # of connection points: 2
#     Edge 47, Type (0, 0), BuildingBlock: EZIPEK_clean_linker_0, # of connection points: 2
#     Edge 48, Type (0, 0), BuildingBlock: EZIPEK_clean_linker_0, # of connection points: 2
#     Edge 49, Type (0, 0), BuildingBlock: EZIPEK_clean_linker_0, # of connection points: 2
#     Edge 50, Type (0, 0), BuildingBlock: EZIPEK_clean_linker_0, # of connection points: 2
#     Edge 51, Type (0, 0), BuildingBlock: EZIPEK_clean_linker_0, # of connection points: 2
#     Edge 52, Type (0, 0), BuildingBlock: EZIPEK_clean_linker_0, # of connection points: 2
#     Edge 53, Type (0, 0), BuildingBlock: EZIPEK_clean_linker_0, # of connection points: 2
#     Edge 54, Type (0, 0), BuildingBlock: EZIPEK_clean_linker_0, # of connection points: 2
#     Edge 55, Type (0, 0), BuildingBlock: EZIPEK_clean_linker_0, # of connection points: 2
#     Edge 56, Type (0, 0), BuildingBlock: EZIPEK_clean_linker_0, # of connection points: 2
#     Edge 57, Type (0, 0), BuildingBlock: EZIPEK_clean_linker_0, # of connection points: 2
#     Edge 58, Type (0, 0), BuildingBlock: EZIPEK_clean_linker_0, # of connection points: 2
#     Edge 59, Type (0, 0), BuildingBlock: EZIPEK_clean_linker_0, # of connection points: 2
#     Edge 60, Type (0, 0), BuildingBlock: EZIPEK_clean_linker_0, # of connection points: 2
#     Edge 61, Type (0, 0), BuildingBlock: EZIPEK_clean_linker_0, # of connection points: 2
#     Edge 62, Type (0, 0), BuildingBlock: EZIPEK_clean_linker_0, # of connection points: 2
#     Edge 63, Type (0, 0), BuildingBlock: EZIPEK_clean_linker_0, # of connection points: 2
#     Edge 64, Type (0, 0), BuildingBlock: EZIPEK_clean_linker_0, # of connection points: 2
#     Edge 65, Type (0, 0), BuildingBlock: EZIPEK_clean_linker_0, # of connection points: 2
#     Edge 66, Type (0, 0), BuildingBlock: EZIPEK_clean_linker_0, # of connection points: 2
#     Edge 67, Type (0, 0), BuildingBlock: EZIPEK_clean_linker_0, # of connection points: 2
#     Edge 68, Type (0, 0), BuildingBlock: EZIPEK_clean_linker_0, # of connection points: 2
#     Edge 69, Type (0, 0), BuildingBlock: EZIPEK_clean_linker_0, # of connection points: 2
#     Edge 70, Type (0, 0), BuildingBlock: EZIPEK_clean_linker_0, # of connection points: 2
#     Edge 71, Type (0, 0), BuildingBlock: EZIPEK_clean_linker_0, # of connection points: 2
#     Edge 72, Type (0, 0), BuildingBlock: EZIPEK_clean_linker_0, # of connection points: 2
#     Edge 73, Type (0, 0), BuildingBlock: EZIPEK_clean_linker_0, # of connection points: 2
#     Edge 74, Type (0, 0), BuildingBlock: EZIPEK_clean_linker_0, # of connection points: 2
#     Edge 75, Type (0, 0), BuildingBlock: EZIPEK_clean_linker_0, # of connection points: 2
#     Edge 76, Type (0, 0), BuildingBlock: EZIPEK_clean_linker_0, # of connection points: 2
#     Edge 77, Type (0, 0), BuildingBlock: EZIPEK_clean_linker_0, # of connection points: 2
#     Edge 78, Type (0, 0), BuildingBlock: EZIPEK_clean_linker_0, # of connection points: 2
#     Edge 79, Type (0, 0), BuildingBlock: EZIPEK_clean_linker_0, # of connection points: 2
#     Edge 80, Type (0, 0), BuildingBlock: EZIPEK_clean_linker_0, # of connection points: 2
#     Edge 81, Type (0, 0), BuildingBlock: EZIPEK_clean_linker_0, # of connection points: 2
#     Edge 82, Type (0, 0), BuildingBlock: EZIPEK_clean_linker_0, # of connection points: 2
#     Edge 83, Type (0, 0), BuildingBlock: EZIPEK_clean_linker_0, # of connection points: 2
#     Edge 84, Type (0, 0), BuildingBlock: EZIPEK_clean_linker_0, # of connection points: 2
#     Edge 85, Type (0, 0), BuildingBlock: EZIPEK_clean_linker_0, # of connection points: 2
#     Edge 86, Type (0, 0), BuildingBlock: EZIPEK_clean_linker_0, # of connection points: 2
#     Edge 87, Type (0, 0), BuildingBlock: EZIPEK_clean_linker_0, # of connection points: 2
#     Edge 88, Type (0, 0), BuildingBlock: EZIPEK_clean_linker_0, # of connection points: 2
#     Edge 89, Type (0, 0), BuildingBlock: EZIPEK_clean_linker_0, # of connection points: 2
#     Edge 90, Type (0, 0), BuildingBlock: EZIPEK_clean_linker_0, # of connection points: 2
#     Edge 91, Type (0, 0), BuildingBlock: EZIPEK_clean_linker_0, # of connection points: 2
#     Edge 92, Type (0, 0), BuildingBlock: EZIPEK_clean_linker_0, # of connection points: 2
#     Edge 93, Type (0, 0), BuildingBlock: EZIPEK_clean_linker_0, # of connection points: 2
#     Edge 94, Type (0, 0), BuildingBlock: EZIPEK_clean_linker_0, # of connection points: 2
#     Edge 95, Type (0, 0), BuildingBlock: EZIPEK_clean_linker_0, # of connection points: 2
#     Edge 96, Type (0, 0), BuildingBlock: EZIPEK_clean_linker_0, # of connection points: 2
#     Edge 97, Type (0, 0), BuildingBlock: EZIPEK_clean_linker_0, # of connection points: 2
#     Edge 98, Type (0, 0), BuildingBlock: EZIPEK_clean_linker_0, # of connection points: 2
#     Edge 99, Type (0, 0), BuildingBlock: EZIPEK_clean_linker_0, # of connection points: 2
#     Edge 100, Type (0, 0), BuildingBlock: EZIPEK_clean_linker_0, # of connection points: 2
#     Edge 101, Type (0, 0), BuildingBlock: EZIPEK_clean_linker_0, # of connection points: 2
#     Edge 102, Type (0, 0), BuildingBlock: EZIPEK_clean_linker_0, # of connection points: 2
#     Edge 103, Type (0, 0), BuildingBlock: EZIPEK_clean_linker_0, # of connection points: 2
#     Edge 104, Type (0, 0), BuildingBlock: EZIPEK_clean_linker_0, # of connection points: 2
#     Edge 105, Type (0, 0), BuildingBlock: EZIPEK_clean_linker_0, # of connection points: 2
#     Edge 106, Type (0, 0), BuildingBlock: EZIPEK_clean_linker_0, # of connection points: 2
#     Edge 107, Type (0, 0), BuildingBlock: EZIPEK_clean_linker_0, # of connection points: 2
# Relax obj value: 0.153
# Max RMSD: 0.132
# Mean RMSD: 0.132
data_MOF--net-cha--node1-TATPOV_clean_sbu_0--edge1-EZIPEK_clean_linker_0
_symmetry_space_group_name_H-M    P1
_symmetry_Int_Tables_number       1
_symmetry_cell_setting            triclinic
loop_
_symmetry_equiv_pos_as_xyz
'x, y, z'
_cell_length_a     47.348743
_cell_length_b     46.975029
_cell_length_c     54.779886
_cell_angle_alpha  90.104554
_cell_angle_beta   89.907892
_cell_angle_gamma 119.95409
loop_
_atom_site_label
_atom_site_type_symbol
_atom_site_fract_x
_atom_site_fract_y
_atom_site_fract_z
_atom_type_partial_charge
Zn0 Zn 0.9623 0.24557 0.05398 0.0
Zn1 Zn 0.01659 0.25042 0.07134 0.0
O2 O 0.0077 0.28023 0.09397 0.0
O3 O 0.96774 0.28267 0.07536 0.0
O4 O 0.06007 0.25666 0.08143 0.0
O5 O 0.97733 0.25351 0.01943 0.0
O6 O 0.02332 0.25963 0.03424 0.0
C7 C 0.98772 0.29091 0.09288 0.0
C8 C 0.95418 0.18674 0.07821 0.0
O9 O 0.98502 0.20267 0.0802 0.0
O10 O 0.93911 0.1995 0.0681 0.0
C11 C 0.06382 0.24351 0.10047 0.0
O12 O 0.03915 0.22691 0.11534 0.0
C13 C 0.00617 0.25942 0.01625 0.0
Zn14 Zn 0.77178 0.72118 0.08396 0.0
Zn15 Zn 0.77461 0.77993 0.08904 0.0
O16 O 0.73604 0.74932 0.11094 0.0
O17 O 0.73245 0.70125 0.10589 0.0
O18 O 0.77615 0.82344 0.09182 0.0
O19 O 0.76588 0.72221 0.04778 0.0
O20 O 0.76702 0.76947 0.05248 0.0
C21 C 0.72164 0.71862 0.11522 0.0
C22 C 0.83329 0.77255 0.10259 0.0
O23 O 0.82006 0.79032 0.10071 0.0
O24 O 0.81743 0.74225 0.0974 0.0
C25 C 0.77972 0.83744 0.11235 0.0
O26 O 0.78231 0.82343 0.13229 0.0
C27 C 0.7644 0.74624 0.03886 0.0
Zn28 Zn 0.30591 0.06948 0.07584 0.0
Zn29 Zn 0.247 0.01636 0.0856 0.0
O30 O 0.27877 0.01054 0.10784 0.0
O31 O 0.32676 0.05272 0.09935 0.0
O32 O 0.20376 0.97552 0.09151 0.0
O33 O 0.30152 0.05701 0.04043 0.0
O34 O 0.25344 0.01407 0.0488 0.0
C35 C 0.30954 0.02621 0.11091 0.0
C36 C 0.2575 0.08504 0.09368 0.0
O37 O 0.23881 0.05403 0.09462 0.0
O38 O 0.28694 0.09734 0.08706 0.0
C39 C 0.19155 0.96623 0.11265 0.0
O40 O 0.20736 0.98342 0.13194 0.0
C41 C 0.2757 0.03169 0.03355 0.0
Zn42 Zn 0.25272 0.96945 0.8868 0.0
Zn43 Zn 0.24893 0.0243 0.87882 0.0
O44 O 0.28696 0.03075 0.85673 0.0
O45 O 0.29155 0.98742 0.86462 0.0
O46 O 0.24725 0.06618 0.87499 0.0
O47 O 0.25901 0.97868 0.92264 0.0
O48 O 0.2567 0.02374 0.91565 0.0
C49 C 0.30163 0.01449 0.85363 0.0
C50 C 0.19085 0.95682 0.86717 0.0
O51 O 0.20353 0.98795 0.86786 0.0
O52 O 0.20709 0.94333 0.87356 0.0
C53 C 0.24409 0.07699 0.85452 0.0
O54 O 0.24171 0.06058 0.83446 0.0
C55 C 0.25984 0.00448 0.93031 0.0
Zn56 Zn 0.09065 0.31219 0.87386 0.0
Zn57 Zn 0.00573 0.22893 0.86672 0.0
O58 O -0.00234 0.25842 0.84306 0.0
O59 O 0.04593 0.28829 0.85676 0.0
O60 O 0.9628 0.18786 0.87285 0.0
O61 O 0.0732 0.30077 0.90885 0.0
O62 O 0.02567 0.25415 0.90039 0.0
C63 C 0.02289 0.28652 0.84382 0.0
C64 C 0.06482 0.24144 0.85428 0.0
O65 O 0.03768 0.21524 0.85231 0.0
O66 O 0.0634 0.26703 0.85912 0.0
C67 C 0.9474 0.16954 0.85485 0.0
O68 O 0.95969 0.17789 0.83278 0.0
C69 C 0.04589 0.27606 0.91543 0.0
Zn70 Zn 0.71126 0.75463 0.89406 0.0
Zn71 Zn 0.77305 0.77002 0.88325 0.0
O72 O 0.7445 0.73305 0.85937 0.0
O73 O 0.69415 0.71798 0.86946 0.0
O74 O 0.81813 0.77754 0.87674 0.0
O75 O 0.71738 0.74698 0.92914 0.0
O76 O 0.76759 0.75937 0.91981 0.0
C77 C 0.71401 0.71411 0.85633 0.0
C78 C 0.75323 0.82174 0.87746 0.0
O79 O 0.77528 0.81383 0.87596 0.0
O80 O 0.72446 0.8009 0.88384 0.0
C81 C 0.83412 0.79012 0.85726 0.0
O82 O 0.82171 0.80001 0.84006 0.0
C83 C 0.74495 0.75137 0.93546 0.0
Zn84 Zn 0.06052 0.78023 0.88934 0.0
Zn85 Zn 0.0069 0.78504 0.88049 0.0
O86 O -0.00096 0.74488 0.86012 0.0
O87 O 0.04165 0.73976 0.8683 0.0
O88 O 0.96606 0.78755 0.87566 0.0
O89 O 0.05115 0.7757 0.92522 0.0
O90 O 0.00715 0.7791 0.91757 0.0
C91 C 0.01446 0.72927 0.85772 0.0
C92 C 0.07431 0.84202 0.86769 0.0
O93 O 0.0435 0.82971 0.86823 0.0
O94 O 0.0872 0.82557 0.87503 0.0
C95 C 0.95709 0.79254 0.85504 0.0
O96 O 0.97497 0.79663 0.83557 0.0
C97 C 0.02596 0.77599 0.93258 0.0
Zn98 Zn 0.2581 0.31846 0.88742 0.0
Zn99 Zn 0.25483 0.26034 0.87895 0.0
O100 O 0.29077 0.29053 0.85524 0.0
O101 O 0.29346 0.33798 0.86175 0.0
O102 O 0.25264 0.21654 0.87489 0.0
O103 O 0.27093 0.31836 0.92238 0.0
O104 O 0.26843 0.27148 0.91485 0.0
C105 C 0.30363 0.32106 0.85075 0.0
C106 C 0.195 0.26859 0.87081 0.0
O107 O 0.20874 0.25118 0.86974 0.0
O108 O 0.21073 0.29812 0.87803 0.0
C109 C 0.24245 0.19939 0.85555 0.0
O110 O 0.23239 0.20986 0.83712 0.0
C111 C 0.2753 0.29523 0.92942 0.0
Zn112 Zn 0.70582 0.95902 0.90667 0.0
Zn113 Zn 0.75915 0.00708 0.88665 0.0
O114 O 0.7218 0.00426 0.86562 0.0
O115 O 0.67902 0.97419 0.88842 0.0
O116 O 0.80022 0.04754 0.87502 0.0
O117 O 0.71846 0.97495 0.94042 0.0
O118 O 0.7599 0.01804 0.92326 0.0
C119 C 0.69126 0.99127 0.86949 0.0
C120 C 0.74673 0.93761 0.88303 0.0
O121 O 0.76593 0.96819 0.87991 0.0
O122 O 0.71889 0.92725 0.89257 0.0
C123 C 0.82641 0.04746 0.86999 0.0
O124 O 0.82684 0.01973 0.87049 0.0
C125 C 0.74347 0.00303 0.94213 0.0
Zn126 Zn 0.78111 0.07454 0.08739 0.0
Zn127 Zn 0.77834 0.01558 0.09208 0.0
O128 O 0.74241 0.01207 0.11522 0.0
O129 O 0.74484 0.05985 0.11172 0.0
O130 O 0.77515 0.9713 0.09471 0.0
O131 O 0.77131 0.06607 0.0516 0.0
O132 O 0.77003 0.01867 0.05598 0.0
C133 C 0.7319 0.03139 0.12096 0.0
C134 C 0.84197 0.07924 0.10172 0.0
O135 O 0.82597 0.04801 0.10087 0.0
O136 O 0.82799 0.09575 0.09766 0.0
C137 C 0.7859 0.96351 0.11325 0.0
O138 O 0.799 0.98441 0.13138 0.0
C139 C 0.76809 0.03978 0.04263 0.0
Zn140 Zn 0.96364 0.72987 0.07852 0.0
Zn141 Zn 0.01761 0.78782 0.08831 0.0
O142 O 0.0237 0.75435 0.10844 0.0
O143 O 0.98123 0.70684 0.09898 0.0
O144 O 0.05962 0.83025 0.09371 0.0
O145 O 0.97307 0.73548 0.04268 0.0
O146 O 0.01756 0.7824 0.05111 0.0
C147 C 0.00799 0.72315 0.11021 0.0
C148 C 0.95081 0.7781 0.10124 0.0
O149 O 0.98165 0.79669 0.1007 0.0
O150 O 0.93771 0.74879 0.09356 0.0
C151 C 0.0671 0.8463 0.11361 0.0
O152 O 0.04687 0.83537 0.13219 0.0
C153 C -0.00138 0.76101 0.03574 0.0
Zn154 Zn 0.30762 0.26868 0.07691 0.0
Zn155 Zn 0.24774 0.26062 0.08183 0.0
O156 O 0.27493 0.29291 0.10907 0.0
O157 O 0.32502 0.30285 0.10327 0.0
O158 O 0.20414 0.25781 0.08498 0.0
O159 O 0.30919 0.28032 0.04166 0.0
O160 O 0.26002 0.27402 0.0459 0.0
C161 C 0.30481 0.30742 0.11532 0.0
C162 C 0.25764 0.20255 0.0902 0.0
O163 O 0.23821 0.21385 0.08897 0.0
O164 O 0.28786 0.22092 0.08635 0.0
C165 C 0.18762 0.2481 0.10457 0.0
O166 O 0.19896 0.23958 0.12334 0.0
C167 C 0.28471 0.28056 0.03272 0.0
Zn168 Zn 0.62887 0.58483 0.41554 0.0
Zn169 Zn 0.68591 0.58579 0.42185 0.0
O170 O 0.69259 0.62617 0.44147 0.0
O171 O 0.6473 0.62692 0.43447 0.0
O172 O 0.72877 0.58647 0.42382 0.0
O173 O 0.6337 0.58642 0.3792 0.0
O174 O 0.68109 0.58905 0.38488 0.0
C175 C 0.67528 0.63973 0.44414 0.0
C176 C 0.62238 0.52729 0.43972 0.0
O177 O 0.65314 0.54116 0.43691 0.0
O178 O 0.60684 0.54125 0.43273 0.0
C179 C 0.75581 0.6126 0.42737 0.0
O180 O 0.7566 0.64066 0.43073 0.0
C181 C 0.6596 0.5887 0.37072 0.0
Zn182 Zn 0.44257 0.06278 0.41676 0.0
Zn183 Zn 0.44296 0.12015 0.42357 0.0
O184 O 0.40412 0.08753 0.4445 0.0
O185 O 0.40262 0.04066 0.43793 0.0
O186 O 0.44321 0.16292 0.42717 0.0
O187 O 0.43734 0.06531 0.38063 0.0
O188 O 0.43672 0.11148 0.38674 0.0
C189 C 0.39057 0.05664 0.44777 0.0
C190 C 0.50239 0.11438 0.43757 0.0
O191 O 0.48833 0.1314 0.43597 0.0
O192 O 0.48776 0.08446 0.43124 0.0
C193 C 0.4441 0.17539 0.44795 0.0
O194 O 0.44435 0.16001 0.46787 0.0
C195 C 0.43517 0.08931 0.37246 0.0
Zn196 Zn 0.98827 0.40573 0.41052 0.0
Zn197 Zn 0.92696 0.35502 0.41859 0.0
O198 O 0.95599 0.34543 0.44102 0.0
O199 O 0.00584 0.3848 0.43339 0.0
O200 O 0.88218 0.31539 0.42323 0.0
O201 O 0.98427 0.39594 0.37456 0.0
O202 O 0.93443 0.35511 0.38161 0.0
C203 C 0.98655 0.35859 0.44457 0.0
C204 C 0.94275 0.42481 0.42968 0.0
O205 O 0.92217 0.39416 0.42932 0.0
O206 O 0.97207 0.43546 0.42329 0.0
C207 C 0.86561 0.31072 0.4426 0.0
O208 O 0.87738 0.33232 0.4604 0.0
C209 C 0.95759 0.37243 0.36686 0.0
Zn210 Zn 0.91506 0.30168 0.22434 0.0
Zn211 Zn 0.91581 0.35641 0.21226 0.0
O212 O 0.94207 0.34953 0.18489 0.0
O213 O 0.94727 0.30823 0.19833 0.0
O214 O 0.92026 0.4006 0.20506 0.0
O215 O 0.92899 0.31538 0.25861 0.0
O216 O 0.93133 0.36185 0.24822 0.0
C217 C 0.9532 0.32995 0.18239 0.0
C218 C 0.852 0.29251 0.21022 0.0
O219 O 0.86688 0.32368 0.20856 0.0
O220 O 0.86712 0.27764 0.21603 0.0
C221 C 0.90148 0.40434 0.19051 0.0
O222 O 0.87861 0.37892 0.17871 0.0
C223 C 0.9345 0.34381 0.26412 0.0
Zn224 Zn 0.72389 0.64094 0.22681 0.0
Zn225 Zn 0.67277 0.58225 0.21407 0.0
O226 O 0.66581 0.61532 0.19402 0.0
O227 O 0.70619 0.66314 0.20562 0.0
O228 O 0.63353 0.53809 0.20687 0.0
O229 O 0.71136 0.63302 0.26202 0.0
O230 O 0.6695 0.58518 0.25133 0.0
C231 C 0.68054 0.6466 0.19316 0.0
C232 C 0.74208 0.59665 0.20435 0.0
O233 O 0.71146 0.57707 0.20304 0.0
O234 O 0.75325 0.62523 0.21315 0.0
C235 C 0.62021 0.52844 0.18608 0.0
O236 O 0.63231 0.54764 0.16696 0.0
C237 C 0.68632 0.6062 0.26765 0.0
Zn238 Zn 0.38396 0.10578 0.2286 0.0
Zn239 Zn 0.44224 0.11159 0.21685 0.0
O240 O 0.40966 0.0739 0.19485 0.0
O241 O 0.36226 0.06833 0.20477 0.0
O242 O 0.48545 0.11455 0.21031 0.0
O243 O 0.38946 0.09729 0.26365 0.0
O244 O 0.43724 0.10307 0.25368 0.0
C245 C 0.37878 0.05893 0.19246 0.0
C246 C 0.43192 0.16996 0.21024 0.0
O247 O 0.45018 0.15738 0.20805 0.0
O248 O 0.40293 0.15294 0.2179 0.0
C249 C 0.49721 0.11588 0.18921 0.0
O250 O 0.48092 0.11548 0.16971 0.0
C251 C 0.41567 0.09818 0.26962 0.0
Zn252 Zn 0.7264 0.11678 0.231 0.0
Zn253 Zn 0.67123 0.11696 0.21935 0.0
O254 O 0.6694 0.07957 0.19831 0.0
O255 O 0.71325 0.07805 0.20912 0.0
O256 O 0.62888 0.11548 0.2121 0.0
O257 O 0.71385 0.10986 0.26621 0.0
O258 O 0.66858 0.10975 0.25637 0.0
C259 C 0.68722 0.06639 0.19679 0.0
C260 C 0.73706 0.17817 0.21087 0.0
O261 O 0.7061 0.16391 0.20991 0.0
O262 O 0.75127 0.16308 0.21836 0.0
C263 C 0.62214 0.12269 0.1914 0.0
O264 O 0.64333 0.13167 0.17347 0.0
C265 C 0.68718 0.10792 0.27229 0.0
Zn266 Zn 0.9239 0.64933 0.22225 0.0
Zn267 Zn 0.9176 0.58959 0.21357 0.0
O268 O 0.95609 0.6203 0.19155 0.0
O269 O 0.96257 0.66899 0.19972 0.0
O270 O 0.91312 0.54497 0.209 0.0
O271 O 0.93059 0.64541 0.25793 0.0
O272 O 0.92657 0.59737 0.25026 0.0
C273 C 0.97179 0.65134 0.18865 0.0
C274 C 0.86098 0.60158 0.20322 0.0
O275 O 0.87279 0.58246 0.2034 0.0
O276 O 0.87813 0.63133 0.20965 0.0
C277 C 0.91466 0.53337 0.18839 0.0
O278 O 0.91922 0.55065 0.16847 0.0
C279 C 0.93082 0.61999 0.26519 0.0
Zn280 Zn 0.39502 0.31066 0.23926 0.0
Zn281 Zn 0.44643 0.35767 0.21934 0.0
O282 O 0.40773 0.35051 0.19745 0.0
O283 O 0.36546 0.32228 0.22127 0.0
O284 O 0.48535 0.39901 0.20676 0.0
O285 O 0.40671 0.32589 0.27325 0.0
O286 O 0.44745 0.36944 0.25601 0.0
C287 C 0.37713 0.33688 0.20131 0.0
C288 C 0.43698 0.29009 0.21593 0.0
O289 O 0.45662 0.32075 0.21355 0.0
O290 O 0.40877 0.27966 0.22479 0.0
C291 C 0.50533 0.40037 0.19066 0.0
O292 O 0.50053 0.37343 0.17969 0.0
C293 C 0.43133 0.35422 0.27496 0.0
Zn294 Zn 0.455 0.41623 0.42211 0.0
Zn295 Zn 0.45003 0.35686 0.42668 0.0
O296 O 0.41031 0.35177 0.44584 0.0
O297 O 0.41258 0.3991 0.43991 0.0
O298 O 0.44568 0.31206 0.42899 0.0
O299 O 0.45492 0.41316 0.38559 0.0
O300 O 0.44846 0.36348 0.3898 0.0
C301 C 0.39809 0.37033 0.44866 0.0
C302 C 0.51011 0.41813 0.44609 0.0
O303 O 0.49498 0.3874 0.44182 0.0
O304 O 0.49753 0.43545 0.44026 0.0
C305 C 0.45164 0.30206 0.44882 0.0
O306 O 0.46041 0.32096 0.46826 0.0
C307 C 0.45108 0.38678 0.37633 0.0
Zn308 Zn 0.63254 0.07288 0.42051 0.0
Zn309 Zn 0.6866 0.13218 0.42622 0.0
O310 O 0.69558 0.1016 0.44772 0.0
O311 O 0.65284 0.05293 0.44124 0.0
O312 O 0.72839 0.17584 0.42811 0.0
O313 O 0.63824 0.07429 0.38435 0.0
O314 O 0.683 0.12224 0.38948 0.0
C315 C 0.68035 0.07065 0.45115 0.0
C316 C 0.6203 0.12246 0.44122 0.0
O317 O 0.65096 0.14136 0.439 0.0
O318 O 0.60718 0.09244 0.43532 0.0
C319 C 0.74086 0.19061 0.44806 0.0
O320 O 0.72603 0.17771 0.4688 0.0
C321 C 0.66297 0.09913 0.37564 0.0
Zn322 Zn 0.98722 0.60641 0.40863 0.0
Zn323 Zn 0.92776 0.59801 0.42047 0.0
O324 O 0.95945 0.6378 0.44078 0.0
O325 O 0.00782 0.64627 0.43052 0.0
O326 O 0.8843 0.59413 0.42767 0.0
O327 O 0.97967 0.61132 0.37326 0.0
O328 O 0.93151 0.60442 0.38339 0.0
C329 C -0.00966 0.65488 0.44242 0.0
C330 C 0.9424 0.54296 0.4301 0.0
O331 O 0.92278 0.55404 0.43136 0.0
O332 O 0.97098 0.56064 0.4218 0.0
C333 C 0.87875 0.61569 0.41853 0.0
O334 O 0.90115 0.63935 0.40511 0.0
C335 C 0.95287 0.60917 0.36731 0.0
Zn336 Zn 0.28933 0.92481 0.7428 0.0
Zn337 Zn 0.34183 0.91852 0.75361 0.0
O338 O 0.3493 0.95857 0.77389 0.0
O339 O 0.30825 0.96538 0.76377 0.0
O340 O 0.38207 0.91528 0.75969 0.0
O341 O 0.30055 0.92898 0.70717 0.0
O342 O 0.34385 0.92518 0.71661 0.0
C343 C 0.33463 0.97502 0.77535 0.0
C344 C 0.27319 0.86261 0.76486 0.0
O345 O 0.30389 0.87407 0.76481 0.0
O346 O 0.26117 0.8797 0.75721 0.0
C347 C 0.38502 0.89878 0.77683 0.0
O348 O 0.36101 0.88257 0.79228 0.0
C349 C 0.32604 0.92858 0.70084 0.0
Zn350 Zn 0.13259 0.40902 0.74647 0.0
Zn351 Zn 0.12416 0.46018 0.75817 0.0
O352 O 0.0902 0.42295 0.7801 0.0
O353 O 0.0973 0.38137 0.77002 0.0
O354 O 0.11834 0.49933 0.76407 0.0
O355 O 0.12194 0.4108 0.7114 0.0
O356 O 0.11537 0.45273 0.7212 0.0
C357 C 0.08298 0.39305 0.78253 0.0
C358 C 0.18961 0.46412 0.76702 0.0
O359 O 0.17189 0.4774 0.76831 0.0
O360 O 0.17847 0.43549 0.75842 0.0
C361 C 0.11786 0.51082 0.78499 0.0
O362 O 0.12055 0.49654 0.80474 0.0
C363 C 0.11534 0.43279 0.70538 0.0
Zn364 Zn 0.654 0.7427 0.73887 0.0
Zn365 Zn 0.59413 0.69006 0.74847 0.0
O366 O 0.62537 0.68144 0.76864 0.0
O367 O 0.67391 0.72326 0.76128 0.0
O368 O 0.55068 0.64993 0.75466 0.0
O369 O 0.64792 0.73076 0.70319 0.0
O370 O 0.59904 0.689 0.71152 0.0
C371 C 0.65609 0.69582 0.77155 0.0
C372 C 0.60679 0.75913 0.75863 0.0
O373 O 0.5879 0.72816 0.75953 0.0
O374 O 0.63593 0.77116 0.75127 0.0
C375 C 0.54079 0.63914 0.77605 0.0
O376 O 0.55905 0.65443 0.79503 0.0
C377 C 0.6213 0.70644 0.69623 0.0
Zn378 Zn 0.58881 0.64278 0.54981 0.0
Zn379 Zn 0.58945 0.69984 0.54202 0.0
O380 O 0.62663 0.7044 0.5199 0.0
O381 O 0.62667 0.65833 0.52688 0.0
O382 O 0.59057 0.74295 0.53826 0.0
O383 O 0.59676 0.65234 0.58556 0.0
O384 O 0.59756 0.69904 0.57872 0.0
C385 C 0.63856 0.68577 0.51612 0.0
C386 C 0.52841 0.6343 0.5305 0.0
O387 O 0.54309 0.66557 0.53095 0.0
O388 O 0.54282 0.61906 0.53721 0.0
C389 C 0.5831 0.75163 0.51848 0.0
O390 O 0.57423 0.73215 0.49936 0.0
C391 C 0.59967 0.67906 0.59327 0.0
Zn392 Zn 0.39651 0.97696 0.55679 0.0
Zn393 Zn 0.34419 0.91803 0.54615 0.0
O394 O 0.33663 0.95025 0.52556 0.0
O395 O 0.3776 -0.00161 0.53595 0.0
O396 O 0.30373 0.87416 0.54099 0.0
O397 O 0.38626 0.97093 0.59249 0.0
O398 O 0.34282 0.92357 0.5832 0.0
C399 C 0.35142 0.98148 0.52413 0.0
C400 C 0.41247 0.93099 0.53422 0.0
O401 O 0.38178 0.9114 0.53437 0.0
O402 O 0.42439 0.9601 0.5421 0.0
C403 C 0.29138 0.86219 0.52032 0.0
O404 O 0.3052 0.87862 0.50029 0.0
C405 C 0.36073 0.94501 0.59892 0.0
Zn406 Zn 0.05175 0.43849 0.562 0.0
Zn407 Zn 0.11111 0.44649 0.55043 0.0
O408 O 0.07885 0.40669 0.53009 0.0
O409 O 0.03057 0.39842 0.54032 0.0
O410 O 0.15438 0.44983 0.54329 0.0
O411 O 0.05957 0.43429 0.59762 0.0
O412 O 0.10779 0.44121 0.58762 0.0
C413 C 0.04794 0.38976 0.52834 0.0
C414 C 0.09689 0.50154 0.53994 0.0
O415 O 0.11659 0.49053 0.53931 0.0
O416 O 0.06816 0.48404 0.54804 0.0
C417 C 0.16972 0.46094 0.52335 0.0
O418 O 0.15728 0.47071 0.50609 0.0
C419 C 0.08651 0.43685 0.60367 0.0
Zn420 Zn 0.40048 0.45974 0.55312 0.0
Zn421 Zn 0.34609 0.46297 0.54444 0.0
O422 O 0.33963 0.4236 0.52357 0.0
O423 O 0.38284 0.4196 0.53204 0.0
O424 O 0.30425 0.46349 0.53979 0.0
O425 O 0.39134 0.45469 0.58898 0.0
O426 O 0.34667 0.45692 0.58149 0.0
C427 C 0.35586 0.40884 0.52111 0.0
C428 C 0.41254 0.52122 0.53188 0.0
O429 O 0.38167 0.50846 0.53265 0.0
O430 O 0.42603 0.50518 0.53884 0.0
C431 C 0.29381 0.46601 0.51903 0.0
O432 O 0.31054 0.46843 0.49924 0.0
C433 C 0.36586 0.45428 0.5964 0.0
Zn434 Zn 0.58841 0.98755 0.55556 0.0
Zn435 Zn 0.58862 0.93094 0.54765 0.0
O436 O 0.62863 0.96458 0.52832 0.0
O437 O 0.63007 0.01109 0.53635 0.0
O438 O 0.58833 0.8883 0.54295 0.0
O439 O 0.59052 0.98262 0.5917 0.0
O440 O 0.59273 0.93745 0.58478 0.0
C441 C 0.64265 -0.0043 0.52635 0.0
C442 C 0.53003 0.93755 0.53225 0.0
O443 O 0.54402 0.92051 0.53408 0.0
O444 O 0.54439 0.96717 0.53934 0.0
C445 C 0.58774 0.87679 0.52183 0.0
O446 O 0.58767 0.89306 0.50238 0.0
C447 C 0.59271 0.95848 0.5995 0.0
Zn448 Zn 0.0528 0.63705 0.5568 0.0
Zn449 Zn 0.11314 0.6892 0.54969 0.0
O450 O 0.08373 0.69882 0.528 0.0
O451 O 0.03435 0.65794 0.53474 0.0
O452 O 0.15699 0.72986 0.54526 0.0
O453 O 0.05612 0.64591 0.59275 0.0
O454 O 0.10511 0.68867 0.5866 0.0
C455 C 0.05316 0.68504 0.52439 0.0
C456 C 0.09957 0.62033 0.53693 0.0
O457 O 0.11935 0.65114 0.53794 0.0
O458 O 0.07012 0.60871 0.54337 0.0
C459 C 0.17061 0.73836 0.52446 0.0
O460 O 0.15641 0.71992 0.50527 0.0
C461 C 0.08187 0.67019 0.60091 0.0
Zn462 Zn 0.09585 0.73154 0.74682 0.0
Zn463 Zn 0.1003 0.6778 0.75719 0.0
O464 O 0.06156 0.67175 0.77813 0.0
O465 O 0.05639 0.71421 0.76838 0.0
O466 O 0.10254 0.63664 0.76312 0.0
O467 O 0.09086 0.72081 0.71121 0.0
O468 O 0.09392 0.67659 0.72 0.0
C469 C 0.04641 0.68769 0.78012 0.0
C470 C 0.15748 0.74608 0.76812 0.0
O471 O 0.14507 0.715 0.76841 0.0
O472 O 0.14113 0.75887 0.76044 0.0
C473 C 0.10947 0.62936 0.78374 0.0
O474 O 0.11548 0.64906 0.80247 0.0
C475 C 0.091 0.69512 0.70448 0.0
Zn476 Zn 0.30508 0.41269 0.74294 0.0
Zn477 Zn 0.36318 0.46634 0.75213 0.0
O478 O 0.3647 0.42996 0.77196 0.0
O479 O 0.31832 0.38576 0.76309 0.0
O480 O 0.40728 0.50587 0.75744 0.0
O481 O 0.31387 0.41715 0.70699 0.0
O482 O 0.36162 0.46081 0.71491 0.0
C483 C 0.34555 0.39911 0.77393 0.0
C484 C 0.30096 0.46597 0.76613 0.0
O485 O 0.33193 0.48122 0.76507 0.0
O486 O 0.28442 0.43669 0.75851 0.0
C487 C 0.41562 0.52076 0.77781 0.0
O488 O 0.39542 0.50977 0.79641 0.0
C489 C 0.3408 0.44071 0.69977 0.0
Zn490 Zn 0.63439 0.9408 0.74591 0.0
Zn491 Zn 0.57071 0.92085 0.75336 0.0
O492 O 0.59582 0.95541 0.7797 0.0
O493 O 0.6478 0.97591 0.77157 0.0
O494 O 0.52437 0.91118 0.75748 0.0
O495 O 0.63133 0.95009 0.71067 0.0
O496 O 0.57969 0.93458 0.71743 0.0
C497 C 0.62556 0.97564 0.78459 0.0
C498 C 0.59372 0.87189 0.76007 0.0
O499 O 0.57014 0.87769 0.75991 0.0
O500 O 0.62259 0.89448 0.75555 0.0
C501 C 0.50944 0.90417 0.77781 0.0
O502 O 0.5237 0.90139 0.79747 0.0
C503 C 0.60396 0.94481 0.70302 0.0
C504 C 0.0963 0.21471 0.10268 0.0
C505 C 0.0951 0.24427 0.1043 0.0
C506 C 0.15472 0.27637 0.10692 0.0
C507 C 0.1558 0.24672 0.10613 0.0
N508 N 0.12802 0.18751 0.10762 0.0
N509 N 0.12186 0.30235 0.11258 0.0
C510 C 0.12666 0.21582 0.10559 0.0
C511 C 0.12399 0.2749 0.10774 0.0
N512 N 0.06881 0.18587 0.09677 0.0
N513 N 0.1831 0.30594 0.10662 0.0
H514 H 0.09968 0.30198 0.11355 0.0
H515 H 0.14165 0.32484 0.11768 0.0
H516 H 0.20607 0.30803 0.10761 0.0
H517 H 0.18407 0.32836 0.10411 0.0
H518 H 0.06888 0.16431 0.09246 0.0
H519 H 0.04611 0.18391 0.09414 0.0
H520 H 0.10754 0.16448 0.11028 0.0
H521 H 0.14985 0.18717 0.10846 0.0
C522 C 0.81351 0.92976 0.11477 0.0
C523 C 0.78427 0.9312 0.11409 0.0
C524 C 0.75206 0.87106 0.11153 0.0
C525 C 0.78116 0.86959 0.1137 0.0
N526 N 0.83906 0.89662 0.121 0.0
N527 N 0.72561 0.90364 0.11628 0.0
C528 C 0.81173 0.89869 0.11656 0.0
C529 C 0.75347 0.90194 0.11363 0.0
N530 N 0.84296 0.95795 0.11236 0.0
N531 N 0.7231 0.84294 0.10725 0.0
H532 H 0.72571 0.92578 0.11823 0.0
H533 H 0.7026 0.88315 0.11869 0.0
H534 H 0.7208 0.81967 0.10688 0.0
H535 H 0.70172 0.84277 0.10257 0.0
H536 H 0.86492 0.95824 0.10997 0.0
H537 H 0.84534 0.98116 0.11065 0.0
H538 H 0.86134 0.91666 0.12608 0.0
H539 H 0.83901 0.8744 0.12133 0.0
C540 C 0.12807 0.87522 0.11355 0.0
C541 C 0.09905 0.87685 0.11582 0.0
C542 C 0.13135 0.93676 0.12057 0.0
C543 C 0.16002 0.93539 0.11539 0.0
N544 N 0.18629 0.90406 0.10573 0.0
N545 N 0.07227 0.90894 0.11908 0.0
C546 C 0.15855 0.90479 0.11156 0.0
C547 C 0.10045 0.90753 0.11898 0.0
N548 N 0.12652 0.84536 0.11424 0.0
N549 N 0.13367 0.96603 0.12689 0.0
H550 H 0.04919 0.88814 0.1179 0.0
H551 H 0.07167 0.93077 0.11848 0.0
H552 H 0.15572 0.98818 0.12718 0.0
H553 H 0.11418 0.96812 0.13354 0.0
H554 H 0.14693 0.84252 0.11522 0.0
H555 H 0.10465 0.82323 0.11603 0.0
H556 H 0.18632 0.88305 0.0997 0.0
H557 H 0.20938 0.92498 0.10565 0.0
C558 C 0.21746 0.10971 0.86626 0.0
C559 C 0.24259 0.10778 0.85351 0.0
C560 C 0.26459 0.16449 0.83916 0.0
C561 C 0.24162 0.16747 0.85403 0.0
N562 N 0.19766 0.1442 0.88329 0.0
N563 N 0.29267 0.13432 0.83042 0.0
C564 C 0.21852 0.14045 0.86809 0.0
C565 C 0.26671 0.13534 0.84044 0.0
N566 N 0.19179 0.08179 0.87568 0.0
N567 N 0.28451 0.18959 0.82389 0.0
H568 H 0.29538 0.11364 0.83121 0.0
H569 H 0.31295 0.15472 0.82308 0.0
H570 H 0.28493 0.21198 0.82334 0.0
H571 H 0.29902 0.18747 0.81052 0.0
H572 H 0.17099 0.08082 0.88293 0.0
H573 H 0.1898 0.05871 0.87426 0.0
H574 H 0.18313 0.12685 0.89627 0.0
H575 H 0.19617 0.16561 0.88398 0.0
C576 C 0.9152 0.11463 0.87522 0.0
C577 C 0.9163 0.13845 0.85877 0.0
C578 C 0.85912 0.10118 0.84781 0.0
C579 C 0.85717 0.07893 0.86612 0.0
N580 N 0.88145 0.06845 0.90128 0.0
N581 N 0.88761 0.15718 0.8329 0.0
C582 C 0.88468 0.08673 0.88097 0.0
C583 C 0.88778 0.13252 0.84599 0.0
N584 N 0.94338 0.11785 0.88462 0.0
N585 N 0.83415 0.09199 0.83156 0.0
H586 H 0.90786 0.18071 0.83157 0.0
H587 H 0.86656 0.15528 0.82535 0.0
H588 H 0.813 0.06904 0.83199 0.0
H589 H 0.83571 0.10589 0.81629 0.0
H590 H 0.94413 0.09939 0.89463 0.0
H591 H 0.96641 0.13743 0.88038 0.0
H592 H 0.90002 0.07515 0.91404 0.0
H593 H 0.85927 0.04864 0.90687 0.0
C594 C 0.89307 0.81651 0.86883 0.0
C595 C 0.86674 0.7935 0.85426 0.0
C596 C 0.90012 0.77066 0.83915 0.0
C597 C 0.92672 0.79421 0.85326 0.0
N598 N 0.95115 0.84404 0.87708 0.0
N599 N 0.84652 0.75284 0.8222 0.0
C600 C 0.92394 0.81846 0.86685 0.0
C601 C 0.8708 0.77206 0.8382 0.0
N602 N 0.88844 0.83625 0.88478 0.0
N603 N 0.90215 0.74575 0.82784 0.0
H604 H 0.82419 0.75216 0.82167 0.0
H605 H 0.84933 0.73946 0.80818 0.0
H606 H 0.92306 0.74369 0.82818 0.0
H607 H 0.88239 0.72564 0.81971 0.0
H608 H 0.90528 0.8505 0.89811 0.0
H609 H 0.86687 0.83711 0.8856 0.0
H610 H 0.95149 0.8643 0.88513 0.0
H611 H 0.97427 0.84659 0.87558 0.0
C612 C 0.80602 0.61745 0.44659 0.0
C613 C 0.78662 0.61196 0.42548 0.0
C614 C 0.82557 0.60431 0.40082 0.0
C615 C 0.84646 0.61296 0.42136 0.0
N616 N 0.85883 0.63108 0.46317 0.0
N617 N 0.77952 0.60461 0.38186 0.0
C618 C 0.83725 0.62028 0.44415 0.0
C619 C 0.79673 0.60643 0.40241 0.0
N620 N 0.79415 0.61905 0.46901 0.0
N621 N 0.83288 0.59316 0.38 0.0
H622 H 0.75822 0.606 0.38221 0.0
H623 H 0.78767 0.60439 0.36423 0.0
H624 H 0.85382 0.59127 0.37816 0.0
H625 H 0.81692 0.58309 0.36533 0.0
H626 H 0.80549 0.6195 0.48539 0.0
H627 H 0.77148 0.61732 0.47141 0.0
H628 H 0.85514 0.64039 0.47936 0.0
H629 H 0.88168 0.63291 0.46216 0.0
C630 C 0.47791 0.26745 0.454 0.0
C631 C 0.4494 0.26949 0.44976 0.0
C632 C 0.41745 0.20975 0.44398 0.0
C633 C 0.44556 0.20755 0.44953 0.0
N634 N 0.50138 0.23311 0.46319 0.0
N635 N 0.39106 0.24271 0.44507 0.0
C636 C 0.4754 0.23605 0.45573 0.0
C637 C 0.41887 0.24066 0.44589 0.0
N638 N 0.50766 0.29555 0.45504 0.0
N639 N 0.38944 0.18232 0.43672 0.0
H640 H 0.39113 0.26487 0.44669 0.0
H641 H 0.36769 0.22233 0.44488 0.0
H642 H 0.38683 0.15891 0.4365 0.0
H643 H 0.36941 0.18292 0.42954 0.0
H644 H 0.52973 0.29573 0.4553 0.0
H645 H 0.51061 0.31902 0.45359 0.0
H646 H 0.52246 0.25237 0.47072 0.0
H647 H 0.50112 0.21078 0.46345 0.0
C648 C 0.80638 0.2777 0.43149 0.0
C649 C 0.83324 0.28074 0.4451 0.0
C650 C 0.7998 0.22438 0.46022 0.0
C651 C 0.77239 0.22201 0.4478 0.0
N652 N 0.74778 0.24832 0.42558 0.0
N653 N 0.85462 0.25943 0.47548 0.0
C654 C 0.77519 0.2492 0.43447 0.0
C655 C 0.82958 0.25489 0.46054 0.0
N656 N 0.81074 0.30199 0.4156 0.0
N657 N 0.798 0.197 0.47048 0.0
H658 H 0.87731 0.28082 0.47544 0.0
H659 H 0.85218 0.24303 0.48919 0.0
H660 H 0.77694 0.17402 0.47019 0.0
H661 H 0.81811 0.19625 0.47736 0.0
H662 H 0.79323 0.29951 0.40297 0.0
H663 H 0.8327 0.32407 0.41395 0.0
H664 H 0.74769 0.26855 0.41793 0.0
H665 H 0.72443 0.22818 0.42787 0.0
C666 C 0.87839 0.44152 0.19725 0.0
C667 C 0.90399 0.43693 0.18831 0.0
C668 C 0.93688 0.49581 0.17937 0.0
C669 C 0.91054 0.50002 0.18701 0.0
N670 N 0.85398 0.47621 0.19835 0.0
N671 N 0.95492 0.45792 0.16671 0.0
C672 C 0.8806 0.47264 0.19452 0.0
C673 C 0.93248 0.46358 0.17813 0.0
N674 N 0.85268 0.41663 0.2094 0.0
N675 N 0.96654 0.52268 0.17437 0.0
H676 H 0.95244 0.43462 0.16545 0.0
H677 H 0.97445 0.47568 0.15665 0.0
H678 H 0.97076 0.54667 0.17506 0.0
H679 H 0.98763 0.52145 0.17141 0.0
H680 H 0.83523 0.41972 0.21877 0.0
H681 H 0.85015 0.39348 0.21195 0.0
H682 H 0.83061 0.4565 0.20131 0.0
H683 H 0.85459 0.49859 0.1963 0.0
C684 C 0.59463 0.46746 0.18946 0.0
C685 C 0.59143 0.49512 0.18368 0.0
C686 C 0.53283 0.45898 0.17685 0.0
C687 C 0.53537 0.43215 0.18607 0.0
N688 N 0.56811 0.4113 0.2039 0.0
N689 N 0.55729 0.51814 0.1738 0.0
C690 C 0.56617 0.43637 0.19287 0.0
C691 C 0.56052 0.49114 0.1776 0.0
N692 N 0.62496 0.47084 0.19121 0.0
N693 N 0.50404 0.45354 0.16698 0.0
H694 H 0.57695 0.54209 0.1741 0.0
H695 H 0.53486 0.51703 0.17214 0.0
H696 H 0.48337 0.43023 0.16606 0.0
H697 H 0.50145 0.47145 0.15774 0.0
H698 H 0.62891 0.45101 0.1929 0.0
H699 H 0.64635 0.49323 0.18859 0.0
H700 H 0.58935 0.4142 0.21185 0.0
H701 H 0.54791 0.38816 0.20696 0.0
C702 C 0.53384 0.0943 0.17572 0.0
C703 C 0.53 0.11942 0.18697 0.0
C704 C 0.58726 0.14775 0.19982 0.0
C705 C 0.59126 0.12296 0.1882 0.0
N706 N 0.57081 0.07615 0.16129 0.0
N707 N 0.55421 0.17359 0.20465 0.0
C708 C 0.56534 0.09746 0.17478 0.0
C709 C 0.55709 0.1472 0.19757 0.0
N710 N 0.5071 0.06654 0.16722 0.0
N711 N 0.61221 0.1716 0.21326 0.0
H712 H 0.53265 0.1743 0.2028 0.0
H713 H 0.5738 0.19593 0.21025 0.0
H714 H 0.63539 0.17418 0.21401 0.0
H715 H 0.60955 0.18781 0.22472 0.0
H716 H 0.50763 0.0457 0.16142 0.0
H717 H 0.48364 0.06324 0.16761 0.0
H718 H 0.554 0.05931 0.149 0.0
H719 H 0.59319 0.0769 0.16098 0.0
C720 C 0.42069 0.87618 0.76385 0.0
C721 C 0.41556 0.89771 0.779 0.0
C722 C 0.47187 0.92338 0.7936 0.0
C723 C 0.47665 0.90082 0.77933 0.0
N724 N 0.45416 0.85177 0.75467 0.0
N725 N 0.43358 0.93749 0.81157 0.0
C726 C 0.45061 0.87604 0.76552 0.0
C727 C 0.44028 0.91982 0.79503 0.0
N728 N 0.39718 0.85632 0.74755 0.0
N729 N 0.4979 0.94946 0.80451 0.0
H730 H 0.41099 0.93626 0.81259 0.0
H731 H 0.44944 0.95131 0.82554 0.0
H732 H 0.52159 0.95357 0.8033 0.0
H733 H 0.49663 0.96871 0.81288 0.0
H734 H 0.40089 0.84299 0.73397 0.0
H735 H 0.37439 0.85464 0.74662 0.0
H736 H 0.4351 0.83115 0.74642 0.0
H737 H 0.4756 0.85069 0.75579 0.0
C738 C 0.14285 0.57099 0.77665 0.0
C739 C 0.11689 0.54181 0.78676 0.0
C740 C 0.08888 0.57181 0.79869 0.0
C741 C 0.11294 0.59984 0.78603 0.0
N742 N 0.16208 0.6263 0.76185 0.0
N743 N 0.06378 0.51306 0.80554 0.0
C744 C 0.13973 0.59947 0.77469 0.0
C745 C 0.08965 0.5419 0.79755 0.0
N746 N 0.17108 0.5718 0.76988 0.0
N747 N 0.06524 0.57377 0.81171 0.0
H748 H 0.06348 0.49072 0.80506 0.0
H749 H 0.04163 0.51065 0.81101 0.0
H750 H 0.06301 0.59476 0.81206 0.0
H751 H 0.04919 0.55549 0.82354 0.0
H752 H 0.19221 0.59316 0.76476 0.0
H753 H 0.1745 0.5516 0.77149 0.0
H754 H 0.1797 0.62614 0.75055 0.0
H755 H 0.16202 0.64847 0.76139 0.0
C756 C 0.47642 0.54857 0.77627 0.0
C757 C 0.44793 0.55071 0.7802 0.0
C758 C 0.48139 0.61025 0.78634 0.0
C759 C 0.50932 0.60853 0.77928 0.0
N760 N 0.53397 0.5769 0.76613 0.0
N761 N 0.42241 0.58363 0.7864 0.0
C762 C 0.50701 0.57789 0.7739 0.0
C763 C 0.45014 0.58152 0.78486 0.0
N764 N 0.4743 0.51845 0.77563 0.0
N765 N 0.48475 0.63937 0.79434 0.0
H766 H 0.39903 0.56327 0.78519 0.0
H767 H 0.42242 0.60579 0.78694 0.0
H768 H 0.50713 0.66115 0.79483 0.0
H769 H 0.46587 0.64148 0.80226 0.0
H770 H 0.49449 0.51519 0.77527 0.0
H771 H 0.45232 0.49648 0.77771 0.0
H772 H 0.53314 0.5559 0.75908 0.0
H773 H 0.55714 0.59766 0.76537 0.0
C774 C 0.60825 0.81032 0.5051 0.0
C775 C 0.58293 0.78301 0.51754 0.0
C776 C 0.55821 0.81611 0.52929 0.0
C777 C 0.5855 0.84432 0.51931 0.0
N778 N 0.63837 0.86952 0.50004 0.0
N779 N 0.53479 0.75968 0.54287 0.0
C780 C 0.61091 0.84174 0.50759 0.0
C781 C 0.55818 0.78586 0.53006 0.0
N782 N 0.62982 0.80623 0.49099 0.0
N783 N 0.53168 0.81796 0.53703 0.0
H784 H 0.53264 0.73647 0.5426 0.0
H785 H 0.51861 0.76135 0.55487 0.0
H786 H 0.53051 0.83954 0.53628 0.0
H787 H 0.50966 0.7976 0.54212 0.0
H788 H 0.64653 0.82421 0.47928 0.0
H789 H 0.62953 0.78394 0.48959 0.0
H790 H 0.6593 0.86976 0.49389 0.0
H791 H 0.64136 0.89298 0.50169 0.0
C792 C 0.20107 0.7998 0.52666 0.0
C793 C 0.2012 0.7702 0.52167 0.0
C794 C 0.25947 0.80171 0.51155 0.0
C795 C 0.26003 0.83086 0.51919 0.0
N796 N 0.23231 0.8582 0.53526 0.0
N797 N 0.23056 0.74205 0.51165 0.0
C798 C 0.23107 0.83005 0.5271 0.0
C799 C 0.23035 0.77089 0.51447 0.0
N800 N 0.17208 0.7991 0.52996 0.0
N801 N 0.28681 0.80351 0.50158 0.0
H802 H 0.20976 0.71904 0.51369 0.0
H803 H 0.25166 0.74074 0.50912 0.0
H804 H 0.30892 0.82545 0.5001 0.0
H805 H 0.28709 0.78376 0.49317 0.0
H806 H 0.16994 0.82007 0.53102 0.0
H807 H 0.14958 0.77747 0.52952 0.0
H808 H 0.2131 0.85856 0.54424 0.0
H809 H 0.25326 0.88126 0.53424 0.0
C810 C 0.23288 0.43374 0.52042 0.0
C811 C 0.26188 0.46438 0.51729 0.0
C812 C 0.23039 0.4929 0.51709 0.0
C813 C 0.20128 0.46215 0.51961 0.0
N814 N 0.17382 0.403 0.51838 0.0
N815 N 0.28838 0.52223 0.50817 0.0
C816 C 0.20225 0.43244 0.51976 0.0
C817 C 0.26063 0.49367 0.51406 0.0
N818 N 0.2347 0.40596 0.52438 0.0
N819 N 0.22937 0.52141 0.51901 0.0
H820 H 0.31113 0.52392 0.50665 0.0
H821 H 0.28854 0.54361 0.50296 0.0
H822 H 0.20776 0.52192 0.52134 0.0
H823 H 0.25004 0.54458 0.52016 0.0
H824 H 0.21493 0.38366 0.52983 0.0
H825 H 0.25651 0.40556 0.52352 0.0
H826 H 0.17285 0.38055 0.51588 0.0
H827 H 0.15098 0.40117 0.51752 0.0
C828 C 0.00264 0.33367 0.12609 0.0
C829 C 0.98002 0.30314 0.11534 0.0
C830 C 0.93882 0.29583 0.14537 0.0
C831 C 0.96235 0.32413 0.15794 0.0
N832 N 0.01711 0.36937 0.16174 0.0
N833 N 0.92962 0.25117 0.11885 0.0
C834 C -0.00553 0.34309 0.14867 0.0
C835 C 0.94888 0.28316 0.12604 0.0
N836 N 0.03147 0.35367 0.11454 0.0
N837 N 0.90666 0.28101 0.15191 0.0
H838 H 0.93655 0.23985 0.10564 0.0
H839 H 0.90834 0.23466 0.12798 0.0
H840 H 0.89817 0.28951 0.16614 0.0
H841 H 0.88809 0.26236 0.14166 0.0
H842 H 0.04782 0.3775 0.12022 0.0
H843 H 0.03803 0.34706 0.0982 0.0
H844 H 0.04179 0.38233 0.15734 0.0
H845 H 0.01126 0.37717 0.17785 0.0
C846 C 0.67195 0.66865 0.13057 0.0
C847 C 0.69435 0.70275 0.13307 0.0
C848 C 0.6857 0.69882 0.17701 0.0
C849 C 0.67189 0.66432 0.17473 0.0
N850 N 0.63424 0.61756 0.15101 0.0
N851 N 0.70668 0.75132 0.15618 0.0
C852 C 0.65888 0.64941 0.15195 0.0
C853 C 0.69585 0.71842 0.15554 0.0
N854 N 0.66453 0.65494 0.10783 0.0
N855 N 0.68985 0.71231 0.19973 0.0
H856 H 0.71081 0.76506 0.14032 0.0
H857 H 0.708 0.76422 0.17199 0.0
H858 H 0.68007 0.69759 0.2152 0.0
H859 H 0.70258 0.73742 0.20327 0.0
H860 H 0.65122 0.62976 0.1046 0.0
H861 H 0.67233 0.66943 0.0921 0.0
H862 H 0.62289 0.60546 0.13492 0.0
H863 H 0.62262 0.60462 0.16682 0.0
C864 C 0.35968 0.029 0.1287 0.0
C865 C 0.32558 0.01665 0.13013 0.0
C866 C 0.32754 0.01286 0.17435 0.0
C867 C 0.36185 0.0337 0.17299 0.0
N868 N 0.4096 0.04305 0.15067 0.0
N869 N 0.27703 0.97909 0.15221 0.0
C870 C 0.37786 0.03572 0.15067 0.0
C871 C 0.30924 0.00254 0.15234 0.0
N872 N 0.37434 0.03474 0.10637 0.0
N873 N 0.31287 0.0037 0.19667 0.0
H874 H 0.26452 0.96853 0.13606 0.0
H875 H 0.26388 0.96714 0.1678 0.0
H876 H 0.32647 0.00845 0.21268 0.0
H877 H 0.28776 0.99175 0.19932 0.0
H878 H 0.39947 0.04721 0.10378 0.0
H879 H 0.36073 0.02683 0.09028 0.0
H880 H 0.42245 0.04393 0.13499 0.0
H881 H 0.42176 0.04403 0.16677 0.0
C882 C 0.32486 0.03632 0.81202 0.0
C883 C 0.32758 0.02384 0.83484 0.0
C884 C 0.35948 0.00209 0.81554 0.0
C885 C 0.34491 0.00258 0.79313 0.0
N886 N 0.32652 0.0318 0.76781 0.0
N887 N 0.3582 0.00681 0.85972 0.0
C888 C 0.3322 0.02411 0.79061 0.0
C889 C 0.34909 0.01117 0.83705 0.0
N890 N 0.3157 0.0596 0.81104 0.0
N891 N 0.3831 0.99355 0.81605 0.0
H892 H 0.35244 0.01567 0.87535 0.0
H893 H 0.37092 0.99444 0.86304 0.0
H894 H 0.39321 0.99035 0.80007 0.0
H895 H 0.39537 0.99359 0.8318 0.0
H896 H 0.31378 0.07024 0.79496 0.0
H897 H 0.31373 0.07104 0.82675 0.0
H898 H 0.31426 0.04458 0.76437 0.0
H899 H 0.33451 0.02509 0.75219 0.0
C900 C 0.06531 0.37469 0.82541 0.0
C901 C 0.05807 0.37085 0.80013 0.0
C902 C 0.0143 0.31405 0.80686 0.0
C903 C 0.02653 0.31608 0.83083 0.0
N904 N 0.05055 0.35059 0.86587 0.0
N905 N 0.02271 0.34007 0.767 0.0
C906 C 0.0478 0.34733 0.84107 0.0
C907 C 0.03106 0.34161 0.79106 0.0
N908 N 0.09058 0.40345 0.83407 0.0
N909 N 0.98657 0.28648 0.79949 0.0
H910 H 0.03343 0.3607 0.75568 0.0
H911 H 0.00592 0.31874 0.75806 0.0
H912 H 0.97189 0.26751 0.81134 0.0
H913 H 0.97575 0.28374 0.7825 0.0
H914 H 0.09987 0.4063 0.85168 0.0
H915 H 0.10329 0.42434 0.82327 0.0
H916 H 0.06372 0.37301 0.87484 0.0
H917 H 0.03642 0.33089 0.87746 0.0
C918 C 0.65228 0.66359 0.80949 0.0
C919 C 0.671 0.68344 0.78967 0.0
C920 C 0.72055 0.69984 0.81323 0.0
C921 C 0.70125 0.69212 0.83457 0.0
N922 N 0.64998 0.65481 0.85337 0.0
N923 N 0.72297 0.70817 0.7693 0.0
C924 C 0.66736 0.66956 0.83278 0.0
C925 C 0.70535 0.69729 0.79036 0.0
N926 N 0.62106 0.63888 0.8058 0.0
N927 N 0.75262 0.70863 0.81496 0.0
H928 H 0.71166 0.70302 0.75224 0.0
H929 H 0.7483 0.72186 0.76873 0.0
H930 H 0.76279 0.7071 0.83145 0.0
H931 H 0.76789 0.7135 0.79997 0.0
H932 H 0.6064 0.62287 0.81942 0.0
H933 H 0.61134 0.63184 0.78831 0.0
H934 H 0.62466 0.64097 0.85398 0.0
H935 H 0.66157 0.65681 0.87002 0.0
C936 C -0.0107 0.70189 0.81769 0.0
C937 C 0.00372 0.70142 0.84019 0.0
C938 C 0.02279 0.66661 0.82173 0.0
C939 C 0.02041 0.67899 0.79877 0.0
N940 N -0.00965 0.69634 0.77356 0.0
N941 N 0.02216 0.67253 0.86584 0.0
C942 C -0.00063 0.69218 0.79633 0.0
C943 C 0.01606 0.67961 0.84297 0.0
N944 N 0.96616 0.71107 0.81697 0.0
N945 N 0.03103 0.64267 0.82301 0.0
H946 H 0.0148 0.67997 0.88141 0.0
H947 H 0.03438 0.65971 0.86935 0.0
H948 H 0.03264 0.63078 0.80742 0.0
H949 H 0.03238 0.63192 0.83923 0.0
H950 H 0.95406 0.71114 0.80116 0.0
H951 H 0.95621 0.71469 0.83286 0.0
H952 H 0.97797 0.709 0.77003 0.0
H953 H -0.00422 0.68694 0.75808 0.0
C954 C 0.3357 0.34418 0.78759 0.0
C955 C 0.35209 0.37866 0.79127 0.0
C956 C 0.35301 0.37106 0.83508 0.0
C957 C 0.32921 0.33751 0.8317 0.0
N958 N 0.31219 0.28993 0.80593 0.0
N959 N 0.39217 0.42266 0.81602 0.0
C960 C 0.32537 0.32311 0.80828 0.0
C961 C 0.36624 0.39154 0.81427 0.0
N962 N 0.32933 0.33215 0.76432 0.0
N963 N 0.36186 0.38317 0.8582 0.0
H964 H 0.40408 0.43649 0.80062 0.0
H965 H 0.40436 0.43313 0.83226 0.0
H966 H 0.35424 0.36774 0.87342 0.0
H967 H 0.37614 0.40804 0.86228 0.0
H968 H 0.31454 0.30747 0.75991 0.0
H969 H 0.3392 0.34764 0.74924 0.0
H970 H 0.30933 0.27797 0.78935 0.0
H971 H 0.3076 0.2746 0.82089 0.0
C972 C 0.63671 0.96823 0.84751 0.0
C973 C 0.66972 0.99391 0.85089 0.0
C974 C 0.66646 0.01873 0.81247 0.0
C975 C 0.63479 0.99173 0.80891 0.0
N976 N 0.58499 0.95571 0.82996 0.0
N977 N 0.70931 0.05057 0.84164 0.0
C978 C 0.61814 0.97207 0.8291 0.0
C979 C 0.68253 0.02166 0.83504 0.0
N980 N 0.62368 0.93881 0.85944 0.0
N981 N 0.68135 0.04061 0.79398 0.0
H982 H 0.71998 0.05415 0.85885 0.0
H983 H 0.71835 0.07194 0.83127 0.0
H984 H 0.66886 0.03947 0.77796 0.0
H985 H 0.70585 0.05877 0.79433 0.0
H986 H 0.60032 0.9195 0.85563 0.0
H987 H 0.63686 0.93141 0.87023 0.0
H988 H 0.57192 0.94188 0.84507 0.0
H989 H 0.57142 0.96 0.81703 0.0
C990 C 0.70708 0.01052 0.1625 0.0
C991 C 0.70523 0.02218 0.13902 0.0
C992 C 0.66897 0.04086 0.15515 0.0
C993 C 0.68073 0.04007 0.17869 0.0
N994 N 0.69716 0.01147 0.20619 0.0
N995 N 0.6761 0.03802 0.11142 0.0
C996 C 0.69494 0.02015 0.18279 0.0
C997 C 0.6828 0.03339 0.13483 0.0
N998 N 0.72101 0.99134 0.16534 0.0
N999 N 0.64464 0.04817 0.15245 0.0
H1000 H 0.68435 0.03037 0.09646 0.0
H1001 H 0.66295 0.04956 0.1068 0.0
H1002 H 0.63208 0.05018 0.16738 0.0
H1003 H 0.63423 0.04823 0.13577 0.0
H1004 H 0.72441 0.98304 0.18203 0.0
H1005 H 0.72708 0.98142 0.15061 0.0
H1006 H 0.70843 -0.00176 0.21129 0.0
H1007 H 0.68635 0.01698 0.2207 0.0
C1008 C 0.00363 0.67105 0.12587 0.0
C1009 C 0.01744 0.70555 0.12816 0.0
C1010 C 0.02045 0.70153 0.1722 0.0
C1011 C -0.00186 0.66738 0.17005 0.0
N1012 N 0.98581 0.61907 0.14671 0.0
N1013 N 0.05629 0.75269 0.1511 0.0
C1014 C -0.00451 0.6517 0.14741 0.0
C1015 C 0.03187 0.72071 0.15062 0.0
N1016 N -0.00246 0.65723 0.10318 0.0
N1017 N 0.02946 0.71529 0.19484 0.0
H1018 H 0.06697 0.76566 0.13511 0.0
H1019 H 0.06852 0.76496 0.1669 0.0
H1020 H 0.02303 0.70081 0.21057 0.0
H1021 H 0.0428 0.74048 0.19803 0.0
H1022 H 0.98439 0.63204 0.09994 0.0
H1023 H 0.00593 0.67168 0.08746 0.0
H1024 H 0.98413 0.60627 0.13075 0.0
H1025 H 0.98335 0.6058 0.16257 0.0
C1026 C 0.34444 0.35258 0.14242 0.0
C1027 C 0.31505 0.32228 0.13984 0.0
C1028 C 0.32516 0.30279 0.17787 0.0
C1029 C 0.3545 0.33332 0.18124 0.0
N1030 N 0.38649 0.39062 0.17004 0.0
N1031 N 0.27106 0.27646 0.16084 0.0
C1032 C 0.36239 0.35948 0.1646 0.0
C1033 C 0.303 0.30048 0.15979 0.0
N1034 N 0.35556 0.37411 0.12336 0.0
N1035 N 0.3197 0.27491 0.18977 0.0
H1036 H 0.25384 0.2752 0.14844 0.0
H1037 H 0.26117 0.26099 0.17589 0.0
H1038 H 0.33706 0.27344 0.20048 0.0
H1039 H 0.2996 0.25192 0.18605 0.0
H1040 H 0.37863 0.39497 0.12296 0.0
H1041 H 0.34173 0.37004 0.10755 0.0
H1042 H 0.3916 0.41091 0.15929 0.0
H1043 H 0.39905 0.39662 0.18658 0.0
C1044 C 0.66139 0.7018 0.47359 0.0
C1045 C 0.6648 0.69381 0.49794 0.0
C1046 C 0.69725 0.66953 0.48408 0.0
C1047 C 0.6853 0.66877 0.46025 0.0
N1048 N 0.67183 0.69737 0.43053 0.0
N1049 N 0.69778 0.68511 0.52668 0.0
C1050 C 0.673 0.68988 0.45444 0.0
C1051 C 0.68725 0.68307 0.50321 0.0
N1052 N 0.64558 0.71878 0.46883 0.0
N1053 N 0.71661 0.65622 0.48844 0.0
H1054 H 0.69063 0.69565 0.54043 0.0
H1055 H 0.71481 0.67865 0.53223 0.0
H1056 H 0.72746 0.65012 0.47439 0.0
H1057 H 0.7232 0.65259 0.50576 0.0
H1058 H 0.63859 0.72174 0.45146 0.0
H1059 H 0.64022 0.73088 0.48241 0.0
H1060 H 0.66453 0.71372 0.42461 0.0
H1061 H 0.68088 0.68875 0.4167 0.0
C1062 C 0.36332 0.0533 0.488 0.0
C1063 C 0.36303 0.03894 0.46519 0.0
C1064 C 0.32968 0.98436 0.48296 0.0
C1065 C 0.34182 -0.00123 0.50604 0.0
N1066 N 0.35769 0.04552 0.53205 0.0
N1067 N 0.33559 0.99186 0.43894 0.0
C1068 C 0.35403 0.03294 0.50905 0.0
C1069 C 0.34213 0.00465 0.46198 0.0
N1070 N 0.37219 0.08571 0.48933 0.0
N1071 N 0.30651 0.95197 0.48132 0.0
H1072 H 0.34288 0.00702 0.42356 0.0
H1073 H 0.32349 0.96681 0.43512 0.0
H1074 H 0.29509 0.93799 0.49679 0.0
H1075 H 0.29591 0.94014 0.46498 0.0
H1076 H 0.37229 0.09756 0.50542 0.0
H1077 H 0.37573 0.0998 0.47375 0.0
H1078 H 0.36949 0.0705 0.53604 0.0
H1079 H 0.34864 0.03017 0.54729 0.0
C1080 C 0.03377 0.35835 0.46513 0.0
C1081 C -0.00011 0.34727 0.46464 0.0
C1082 C -0.00235 0.34355 0.50899 0.0
C1083 C 0.03207 0.36376 0.5092 0.0
N1084 N 0.08097 0.37076 0.49015 0.0
N1085 N 0.94907 0.31074 0.48451 0.0
C1086 C 0.04975 0.3647 0.48807 0.0
C1087 C 0.98139 0.33352 0.48613 0.0
N1088 N 0.05033 0.36351 0.44369 0.0
N1089 N 0.98098 0.33473 0.53054 0.0
H1090 H 0.93808 0.30063 0.4678 0.0
H1091 H 0.9343 0.29902 0.49951 0.0
H1092 H -0.00692 0.33919 0.54725 0.0
H1093 H 0.95571 0.32314 0.53188 0.0
H1094 H 0.07561 0.37501 0.44247 0.0
H1095 H 0.03814 0.35613 0.42699 0.0
H1096 H 0.09492 0.37072 0.47546 0.0
H1097 H 0.09132 0.37171 0.50714 0.0
C1098 C 0.35717 0.3588 0.50775 0.0
C1099 C 0.34629 0.38151 0.50338 0.0
C1100 C 0.34973 0.37546 0.45959 0.0
C1101 C 0.36912 0.36088 0.46442 0.0
N1102 N 0.37489 0.32265 0.49021 0.0
N1103 N 0.31508 0.3954 0.47624 0.0
C1104 C 0.36714 0.34682 0.48761 0.0
C1105 C 0.33649 0.3843 0.47956 0.0
N1106 N 0.35934 0.35039 0.53121 0.0
N1107 N 0.34567 0.3821 0.43603 0.0
H1108 H 0.30318 0.39912 0.49087 0.0
H1109 H 0.30627 0.39722 0.45927 0.0
H1110 H 0.35382 0.37382 0.42138 0.0
H1111 H 0.3348 0.39576 0.43105 0.0
H1112 H 0.37019 0.33672 0.53622 0.0
H1113 H 0.35022 0.35779 0.54579 0.0
H1114 H 0.37315 0.31076 0.50662 0.0
H1115 H 0.37943 0.31184 0.47521 0.0
C1116 C 0.69064 0.04872 0.51323 0.0
C1117 C 0.67099 0.01433 0.50977 0.0
C1118 C 0.68091 0.02092 0.46609 0.0
C1119 C 0.69157 0.05477 0.46915 0.0
N1120 N 0.72387 0.10222 0.49422 0.0
N1121 N 0.66516 0.96869 0.48583 0.0
C1122 C 0.70259 0.06932 0.49236 0.0
C1123 C 0.6722 0.00057 0.48709 0.0
N1124 N 0.69633 0.06118 0.53636 0.0
N1125 N 0.67762 0.00849 0.44308 0.0
H1126 H 0.66185 0.95482 0.50151 0.0
H1127 H 0.66644 0.9574 0.46984 0.0
H1128 H 0.68573 0.02388 0.42783 0.0
H1129 H 0.66678 0.98354 0.43914 0.0
H1130 H 0.70769 0.08612 0.54044 0.0
H1131 H 0.68925 0.04577 0.5516 0.0
H1132 H 0.73342 0.11438 0.51065 0.0
H1133 H 0.73479 0.11666 0.47886 0.0
C1134 C -0.01114 0.67963 0.48279 0.0
C1135 C 0.00614 0.68113 0.46129 0.0
C1136 C 0.05732 0.71144 0.48364 0.0
C1137 C 0.03937 0.6971 0.50525 0.0
N1138 N -0.01056 0.67989 0.52718 0.0
N1139 N 0.05649 0.71099 0.4392 0.0
C1140 C 0.00545 0.68575 0.50543 0.0
C1141 C 0.04048 0.70175 0.46101 0.0
N1142 N 0.95739 0.67297 0.48135 0.0
N1143 N 0.08969 0.73418 0.48494 0.0
H1144 H 0.04381 0.70628 0.42273 0.0
H1145 H 0.08173 0.72309 0.43742 0.0
H1146 H 0.10115 0.74389 0.50159 0.0
H1147 H 0.10408 0.74616 0.46984 0.0
H1148 H 0.94371 0.67255 0.49638 0.0
H1149 H 0.94641 0.67183 0.46459 0.0
H1150 H 0.96419 0.66826 0.52881 0.0
H1151 H 0.00208 0.68677 0.54373 0.0
C1152 C 0.02488 0.29369 0.97859 0.0
C1153 C 0.01938 0.26508 -0.00877 0.0
C1154 C 0.03557 0.24599 0.95506 0.0
C1155 C 0.03734 0.27262 0.94162 0.0
N1156 N 0.02999 0.31983 0.9395 0.0
N1157 N 0.01547 0.21185 -0.00884 0.0
C1158 C 0.03119 0.29609 0.95311 0.0
C1159 C 0.0238 0.24068 0.97944 0.0
N1160 N 0.02482 0.31888 -0.0089 0.0
N1161 N 0.04615 0.22645 0.94477 0.0
H1162 H 0.00711 0.20712 0.00914 0.0
H1163 H 0.0145 0.19161 0.98252 0.0
H1164 H 0.05525 0.22993 0.92704 0.0
H1165 H 0.04871 0.20881 0.95444 0.0
H1166 H 0.03202 0.34179 0.98346 0.0
H1167 H 0.02038 0.31792 0.00983 0.0
H1168 H 0.022 0.33531 0.94631 0.0
H1169 H 0.03444 0.32239 0.92077 0.0
C1170 C 0.73056 0.72044 0.97483 0.0
C1171 C 0.75134 0.74938 0.96158 0.0
C1172 C 0.78315 0.77457 -0.00146 0.0
C1173 C 0.75991 0.74734 0.0123 0.0
N1174 N 0.7081 0.6969 0.01428 0.0
N1175 N 0.79355 0.80662 0.96176 0.0
C1176 C 0.73268 0.72087 0.00066 0.0
C1177 C 0.7767 0.7772 0.97363 0.0
N1178 N 0.70946 0.69227 0.96271 0.0
N1179 N 0.81191 0.79735 0.00896 0.0
H1180 H 0.78909 0.8101 0.9437 0.0
H1181 H 0.80978 0.82843 0.97057 0.0
H1182 H 0.81797 0.79597 0.02705 0.0
H1183 H 0.83108 0.81575 -0.00101 0.0
H1184 H 0.69609 0.6696 0.97132 0.0
H1185 H 0.70775 0.69085 0.94371 0.0
H1186 H 0.68616 0.67894 0.00678 0.0
H1187 H 0.70819 0.69679 0.03331 0.0
C1188 C 0.29203 0.01544 0.96876 0.0
C1189 C 0.26395 0.01183 0.95667 0.0
C1190 C 0.24456 0.02335 -0.00521 0.0
C1191 C 0.27092 0.02362 0.00731 0.0
N1192 N 0.31638 0.01391 0.00721 0.0
N1193 N 0.21027 0.00583 0.95888 0.0
C1194 C 0.29375 0.01797 -0.00542 0.0
C1195 C 0.23927 0.01398 0.96986 0.0
N1196 N 0.3176 0.01774 0.95552 0.0
N1197 N 0.22544 0.03345 0.00635 0.0
H1198 H 0.20516 -0.00167 0.94071 0.0
H1199 H 0.19017 0.00352 0.9684 0.0
H1200 H 0.22877 0.04112 0.02451 0.0
H1201 H 0.20821 0.03715 -0.00271 0.0
H1202 H 0.34003 0.02384 0.96322 0.0
H1203 H 0.31757 0.01669 0.9365 0.0
H1204 H 0.33143 0.00635 -0.00094 0.0
H1205 H 0.31802 0.01503 0.02621 0.0
C1206 C 0.01726 0.7977 0.97198 0.0
C1207 C 0.01829 0.77216 0.95887 0.0
C1208 C 0.01082 0.74175 -0.00324 0.0
C1209 C 0.00647 0.76561 0.00948 0.0
N1210 N -0.00016 0.81334 0.00872 0.0
N1211 N 0.00978 0.71703 0.95776 0.0
C1212 C 0.00817 0.79285 -0.00301 0.0
C1213 C 0.01333 0.74336 0.97097 0.0
N1214 N 0.02619 0.82703 0.96084 0.0
N1215 N 0.01375 0.71827 0.00939 0.0
H1216 H 0.0108 0.71697 0.93873 0.0
H1217 H 0.00269 0.69418 0.96547 0.0
H1218 H 0.01271 0.71666 0.02839 0.0
H1219 H 0.02037 0.70241 0.00122 0.0
H1220 H 0.02934 0.84772 0.97023 0.0
H1221 H 0.03327 0.83168 0.94258 0.0
H1222 H -0.00284 0.83141 -0.00022 0.0
H1223 H -0.00724 0.81049 0.027 0.0
C1224 C 0.28061 0.25997 -0.00974 0.0
C1225 C 0.28393 0.28525 0.00621 0.0
C1226 C 0.29316 0.3213 0.97132 0.0
C1227 C 0.2855 0.29452 0.95529 0.0
N1228 N 0.29157 0.24673 0.95006 0.0
N1229 N 0.29161 0.33942 0.01255 0.0
C1230 C 0.28477 0.26605 0.9648 0.0
C1231 C 0.28976 0.31582 -0.00307 0.0
N1232 N 0.27238 0.22969 -0.00065 0.0
N1233 N 0.30715 0.35252 0.96226 0.0
H1234 H 0.29034 0.33663 0.03148 0.0
H1235 H 0.29192 0.36066 0.00672 0.0
H1236 H 0.31514 0.35804 0.94423 0.0
H1237 H 0.31549 0.37338 0.97313 0.0
H1238 H 0.26589 0.20926 -0.01169 0.0
H1239 H 0.26906 0.22416 0.01794 0.0
H1240 H 0.29361 0.22697 0.95646 0.0
H1241 H 0.30071 0.25368 0.93243 0.0
C1242 C 0.7311 0.0249 0.97936 0.0
C1243 C 0.75302 0.01813 0.96642 0.0
C1244 C 0.78812 0.0326 0.00231 0.0
C1245 C 0.76363 0.03423 0.01617 0.0
N1246 N 0.7105 0.02939 0.01879 0.0
N1247 N 0.80128 0.01303 0.96548 0.0
C1248 C 0.73488 0.03008 0.00492 0.0
C1249 C 0.7815 0.02167 0.97774 0.0
N1250 N 0.70699 0.0268 0.96706 0.0
N1251 N 0.81793 0.04222 0.01248 0.0
H1252 H 0.79755 0.00536 0.94731 0.0
H1253 H 0.82014 0.01129 0.97378 0.0
H1254 H 0.82375 0.05067 0.03042 0.0
H1255 H 0.83783 0.04475 0.00255 0.0
H1256 H 0.69217 0.03476 0.97505 0.0
H1257 H 0.70389 0.02347 0.94821 0.0
H1258 H 0.68751 0.02275 0.01195 0.0
H1259 H 0.71224 0.03292 0.03766 0.0
C1260 C 0.66914 0.6213 0.30623 0.0
C1261 C 0.67677 0.59968 0.29354 0.0
C1262 C 0.66908 0.56829 0.33101 0.0
C1263 C 0.66537 0.59226 0.34417 0.0
N1264 N 0.6674 0.64468 0.34517 0.0
N1265 N 0.6886 0.55528 0.29412 0.0
C1266 C 0.66677 0.61958 0.33202 0.0
C1267 C 0.67784 0.57374 0.30595 0.0
N1268 N 0.66333 0.6429 0.29354 0.0
N1269 N 0.66324 0.53989 0.34226 0.0
H1270 H 0.69528 0.55847 0.27575 0.0
H1271 H 0.69343 0.53858 0.30298 0.0
H1272 H 0.65654 0.53492 0.36058 0.0
H1273 H 0.66218 0.52003 0.33293 0.0
H1274 H 0.65437 0.65689 0.30164 0.0
H1275 H 0.66439 0.64451 0.27453 0.0
H1276 H 0.67196 0.66679 0.33739 0.0
H1277 H 0.66649 0.64482 0.3642 0.0
C1278 C 0.45442 0.11856 0.33255 0.0
C1279 C 0.43062 0.09138 0.34605 0.0
C1280 C 0.40008 0.0664 0.30858 0.0
C1281 C 0.42183 0.09524 0.29561 0.0
N1282 N 0.46647 0.15131 0.29591 0.0
N1283 N 0.37793 0.04203 0.34791 0.0
C1284 C 0.44823 0.12203 0.30772 0.0
C1285 C 0.40267 0.06591 0.33434 0.0
N1286 N 0.48339 0.14045 0.34319 0.0
N1287 N 0.37759 0.03916 0.29619 0.0
H1288 H 0.37857 0.04112 0.36691 0.0
H1289 H 0.3555 0.0249 0.34055 0.0
H1290 H 0.3753 0.03849 0.27723 0.0
H1291 H 0.36336 0.01637 0.30443 0.0
H1292 H 0.50299 0.15867 0.33346 0.0
H1293 H 0.48902 0.13858 0.3613 0.0
H1294 H 0.48361 0.17269 0.30471 0.0
H1295 H 0.46252 0.15518 0.2778 0.0
C1296 C 0.92753 0.36964 0.32861 0.0
C1297 C 0.9526 0.36658 0.34031 0.0
C1298 C 0.96995 0.35602 0.30083 0.0
C1299 C 0.94229 0.35472 0.28975 0.0
N1300 N 0.89153 0.35494 0.29383 0.0
N1301 N -0.00484 0.3526 0.33832 0.0
C1302 C 0.92025 0.36027 0.30377 0.0
C1303 C 0.9733 0.35879 0.32662 0.0
N1304 N 0.91138 0.38256 0.34097 0.0
N1305 N -0.00662 0.35535 0.28662 0.0
H1306 H -0.00201 0.35387 0.35724 0.0
H1307 H 0.00843 0.34338 0.32952 0.0
H1308 H -0.00814 0.35382 0.26761 0.0
H1309 H 0.01565 0.35949 0.29341 0.0
H1310 H 0.89534 0.38859 0.33256 0.0
H1311 H 0.91634 0.39032 0.3591 0.0
H1312 H 0.87297 0.3549 0.30409 0.0
H1313 H 0.88486 0.34768 0.27577 0.0
C1314 C 0.67275 0.07677 0.33718 0.0
C1315 C 0.66845 0.10119 0.34909 0.0
C1316 C 0.67678 0.13046 0.3105 0.0
C1317 C 0.67847 0.10466 0.29833 0.0
N1318 N 0.67163 0.05024 0.29897 0.0
N1319 N 0.65975 0.14756 0.34669 0.0
C1320 C 0.67453 0.07687 0.31135 0.0
C1321 C 0.66856 0.12702 0.33565 0.0
N1322 N 0.67655 0.05437 0.35058 0.0
N1323 N 0.68449 0.15887 0.29838 0.0
H1324 H 0.65326 0.14566 0.36507 0.0
H1325 H 0.65599 0.16454 0.33715 0.0
H1326 H 0.69084 0.16255 0.27995 0.0
H1327 H 0.6873 0.17987 0.30707 0.0
H1328 H 0.68324 0.03826 0.34296 0.0
H1329 H 0.67603 0.05385 0.36962 0.0
H1330 H 0.66536 0.02796 0.30734 0.0
H1331 H 0.6724 0.04932 0.27996 0.0
C1332 C 0.9191 0.58603 0.32956 0.0
C1333 C 0.94647 0.61214 0.34138 0.0
C1334 C 0.96533 0.64128 0.30257 0.0
C1335 C 0.93634 0.61685 0.29127 0.0
N1336 N 0.88255 0.56929 0.29493 0.0
N1337 N -0.00813 0.66768 0.34037 0.0
C1338 C 0.91231 0.59009 0.305 0.0
C1339 C 0.96856 0.64067 0.32824 0.0
N1340 N 0.90041 0.55686 0.34138 0.0
N1341 N -0.00968 0.66432 0.2887 0.0
H1342 H -0.00551 0.66856 0.3593 0.0
H1343 H 0.00641 0.69029 0.33194 0.0
H1344 H -0.01074 0.66516 0.26971 0.0
H1345 H 0.01327 0.68056 0.29577 0.0
H1346 H 0.88234 0.5359 0.33272 0.0
H1347 H 0.90488 0.55255 0.35924 0.0
H1348 H 0.86296 0.55157 0.30497 0.0
H1349 H 0.8764 0.57168 0.27708 0.0
C1350 C 0.4221 0.38207 0.33713 0.0
C1351 C 0.44862 0.38263 0.34961 0.0
C1352 C 0.46709 0.36928 0.31177 0.0
C1353 C 0.44082 0.36918 0.29933 0.0
N1354 N 0.39847 0.38325 0.29817 0.0
N1355 N 0.50042 0.38445 0.3483 0.0
C1356 C 0.42004 0.37821 0.31142 0.0
C1357 C 0.47244 0.37862 0.33675 0.0
N1358 N 0.39788 0.38324 0.34996 0.0
N1359 N 0.48593 0.35899 0.30003 0.0
H1360 H 0.50515 0.3915 0.36659 0.0
H1361 H 0.52013 0.38512 0.33932 0.0
H1362 H 0.48332 0.35292 0.28153 0.0
H1363 H 0.50284 0.35463 0.30889 0.0
H1364 H 0.37618 0.3792 0.34209 0.0
H1365 H 0.39809 0.38552 0.3689 0.0
H1366 H 0.3848 0.39297 0.30556 0.0
H1367 H 0.39659 0.38068 0.27922 0.0
C1368 C 0.33771 0.90754 0.66228 0.0
C1369 C 0.33541 0.93274 0.67486 0.0
C1370 C 0.34564 0.96367 0.6369 0.0
C1371 C 0.35129 0.94022 0.62488 0.0
N1372 N 0.35836 0.8928 0.62686 0.0
N1373 N 0.34354 0.98775 0.67544 0.0
C1374 C 0.34885 0.91289 0.63774 0.0
C1375 C 0.34114 0.96166 0.66254 0.0
N1376 N 0.32807 0.87806 0.67343 0.0
N1377 N 0.34332 0.98712 0.62373 0.0
H1378 H 0.34111 0.98756 0.69437 0.0
H1379 H 0.35112 0.01068 0.66768 0.0
H1380 H 0.34575 0.98901 0.60478 0.0
H1381 H 0.33582 0.00264 0.63127 0.0
H1382 H 0.3259 0.85762 0.66426 0.0
H1383 H 0.3194 0.87301 0.69132 0.0
H1384 H 0.36045 0.87467 0.63624 0.0
H1385 H 0.36698 0.89608 0.60897 0.0
C1386 C 0.12815 0.46264 0.66545 0.0
C1387 C 0.10717 0.43479 0.6797 0.0
C1388 C 0.07428 0.40727 0.64362 0.0
C1389 C 0.09375 0.43605 0.62977 0.0
N1390 N 0.13519 0.49339 0.6283 0.0
N1391 N 0.05684 0.38334 0.6838 0.0
C1392 C 0.11961 0.46442 0.64089 0.0
C1393 C 0.07921 0.40785 0.6692 0.0
N1394 N 0.15688 0.48675 0.67504 0.0
N1395 N 0.05193 0.37901 0.63218 0.0
H1396 H 0.05942 0.38314 0.7027 0.0
H1397 H 0.03432 0.36484 0.67755 0.0
H1398 H 0.04782 0.37752 0.6134 0.0
H1399 H 0.03954 0.35634 0.64093 0.0
H1400 H 0.17486 0.50572 0.66466 0.0
H1401 H 0.16404 0.48641 0.69298 0.0
H1402 H 0.15175 0.51569 0.63632 0.0
H1403 H 0.12946 0.49583 0.61033 0.0
C1404 C 0.63666 0.69182 0.65641 0.0
C1405 C 0.61556 0.6992 0.66993 0.0
C1406 C 0.58263 0.69114 0.63344 0.0
C1407 C 0.60552 0.68691 0.61948 0.0
N1408 N 0.65766 0.68953 0.61659 0.0
N1409 N 0.57238 0.71246 0.67059 0.0
C1410 C 0.63351 0.689 0.63065 0.0
C1411 C 0.58958 0.70068 0.65827 0.0
N1412 N 0.65891 0.68633 0.66823 0.0
N1413 N 0.55367 0.68479 0.62331 0.0
H1414 H 0.57704 0.72029 0.68871 0.0
H1415 H 0.55558 0.7174 0.66218 0.0
H1416 H 0.54739 0.67731 0.60523 0.0
H1417 H 0.53464 0.68399 0.63342 0.0
H1418 H 0.67253 0.67744 0.65952 0.0
H1419 H 0.66162 0.68768 0.68717 0.0
H1420 H 0.68011 0.69447 0.62357 0.0
H1421 H 0.65658 0.68819 0.59758 0.0
C1422 C 0.35095 0.47269 0.66113 0.0
C1423 C 0.34788 0.44472 0.67342 0.0
C1424 C 0.35237 0.42137 0.63466 0.0
C1425 C 0.35851 0.45066 0.62271 0.0
N1426 N 0.36899 0.50645 0.62475 0.0
N1427 N 0.35119 0.3951 0.67293 0.0
C1428 C 0.35922 0.47698 0.63596 0.0
C1429 C 0.35009 0.41974 0.66048 0.0
N1430 N 0.34476 0.49448 0.67325 0.0
N1431 N 0.34761 0.39473 0.62127 0.0
H1432 H 0.34998 0.39329 0.69193 0.0
H1433 H 0.3563 0.3782 0.66466 0.0
H1434 H 0.34875 0.39487 0.60224 0.0
H1435 H 0.33961 0.3716 0.6288 0.0
H1436 H 0.34305 0.51327 0.66458 0.0
H1437 H 0.33856 0.49218 0.69171 0.0
H1438 H 0.37351 0.52762 0.63413 0.0
H1439 H 0.37525 0.51059 0.60631 0.0
C1440 C 0.62058 0.97913 0.66524 0.0
C1441 C 0.59985 0.94867 0.67677 0.0
C1442 C 0.57202 0.9258 0.63801 0.0
C1443 C 0.5953 0.9549 0.62602 0.0
N1444 N 0.64565 0.00689 0.62748 0.0
N1445 N 0.56015 0.89081 0.67329 0.0
C1446 C 0.62067 0.981 0.63942 0.0
C1447 C 0.57665 0.92135 0.66297 0.0
N1448 N 0.63945 0.0065 0.67898 0.0
N1449 N 0.54487 0.90295 0.62586 0.0
H1450 H 0.56337 0.8861 0.69135 0.0
H1451 H 0.54563 0.86955 0.66325 0.0
H1452 H 0.54015 0.90556 0.60766 0.0
H1453 H 0.52549 0.88301 0.63451 0.0
H1454 H 0.65251 0.03002 0.67159 0.0
H1455 H 0.63949 0.00623 0.69802 0.0
H1456 H 0.66644 0.02486 0.63629 0.0
H1457 H 0.64722 0.00875 0.6085 0.0
C1458 C 0.06082 0.68352 0.66508 0.0
C1459 C 0.0882 0.68716 0.67822 0.0
C1460 C 0.11016 0.67678 0.64091 0.0
C1461 C 0.0847 0.67691 0.62738 0.0
N1462 N 0.03925 0.68665 0.62582 0.0
N1463 N 0.142 0.69326 0.67808 0.0
C1464 C 0.06092 0.68198 0.63925 0.0
C1465 C 0.11374 0.68537 0.66602 0.0
N1466 N 0.03423 0.68042 0.67732 0.0
N1467 N 0.13015 0.66723 0.63007 0.0
H1468 H 0.14589 0.70016 0.69641 0.0
H1469 H 0.16272 0.69588 0.66933 0.0
H1470 H 0.12807 0.66026 0.61178 0.0
H1471 H 0.1468 0.66328 0.63976 0.0
H1472 H 0.01229 0.67433 0.66876 0.0
H1473 H 0.03293 0.68066 0.69633 0.0
H1474 H 0.02362 0.69384 0.63348 0.0
H1475 H 0.03905 0.68658 0.60678 0.0
C1476 C 0.89191 0.12476 0.11998 0.0
C1477 C 0.87792 0.09764 0.10382 0.0
C1478 C 0.924 0.12554 0.0759 0.0
C1479 C 0.93483 0.15444 0.08992 0.0
N1480 N 0.9368 0.17977 0.12851 0.0
N1481 N 0.88693 0.06668 0.0728 0.0
C1482 C 0.92157 0.15322 0.11333 0.0
C1483 C 0.89638 0.09604 0.08403 0.0
N1484 N 0.87538 0.12361 0.14075 0.0
N1485 N 0.93895 0.12698 0.05422 0.0
H1486 H 0.8675 0.0447 0.07916 0.0
H1487 H 0.90024 0.06349 0.05901 0.0
H1488 H 0.96002 0.14814 0.04855 0.0
H1489 H 0.93008 0.10782 0.04162 0.0
H1490 H 0.8821 0.14339 0.1525 0.0
H1491 H 0.85425 0.10217 0.146 0.0
H1492 H 0.92931 0.18038 0.14626 0.0
H1493 H 0.95865 0.20071 0.12373 0.0
C1494 C 0.90619 0.77291 0.12817 0.0
C1495 C 0.92888 0.79024 0.10937 0.0
C1496 C 0.89258 0.808 0.09225 0.0
C1497 C 0.86813 0.78691 0.10901 0.0
N1498 N 0.85449 0.75878 0.14748 0.0
N1499 N 0.94943 0.83401 0.07992 0.0
C1500 C 0.87615 0.77281 0.12872 0.0
C1501 C 0.92414 0.81146 0.09377 0.0
N1502 N 0.91293 0.75522 0.14455 0.0
N1503 N 0.88495 0.82234 0.07365 0.0
H1504 H 0.97271 0.83693 0.08078 0.0
H1505 H 0.94831 0.852 0.06958 0.0
H1506 H 0.86251 0.82126 0.07224 0.0
H1507 H 0.90035 0.83419 0.05897 0.0
H1508 H 0.89623 0.73899 0.15717 0.0
H1509 H 0.93561 0.75653 0.14503 0.0
H1510 H 0.85926 0.74956 0.16323 0.0
H1511 H 0.83252 0.75894 0.14801 0.0
C1512 C 0.2268 0.11229 0.07984 0.0
C1513 C 0.24506 0.10777 0.09836 0.0
C1514 C 0.25716 0.15993 0.11714 0.0
C1515 C 0.24563 0.16761 0.09573 0.0
N1516 N 0.21738 0.15115 0.05721 0.0
N1517 N 0.27406 0.12426 0.1364 0.0
C1518 C 0.2289 0.14344 0.07753 0.0
C1519 C 0.25858 0.13044 0.11788 0.0
N1520 N 0.20842 0.08719 0.06407 0.0
N1521 N 0.26709 0.18123 0.13644 0.0
H1522 H 0.27373 0.10193 0.13784 0.0
H1523 H 0.28773 0.14122 0.14987 0.0
H1524 H 0.26583 0.2028 0.13613 0.0
H1525 H 0.2739 0.17642 0.1533 0.0
H1526 H 0.19246 0.08792 0.05138 0.0
H1527 H 0.20684 0.0643 0.06516 0.0
H1528 H 0.20873 0.13623 0.04181 0.0
H1529 H 0.21779 0.17342 0.05523 0.0
C1530 C 0.13136 0.93114 0.87697 0.0
C1531 C 0.15628 0.93514 0.86052 0.0
C1532 C 0.11957 0.88222 0.84145 0.0
C1533 C 0.09635 0.87636 0.85994 0.0
N1534 N 0.0745 0.89893 0.88896 0.0
N1535 N 0.17134 0.92079 0.82257 0.0
C1536 C 0.10021 0.9023 0.87538 0.0
C1537 C 0.1492 0.91278 0.84102 0.0
N1538 N 0.13824 0.95339 0.89535 0.0
N1539 N 0.1137 0.85777 0.8252 0.0
H1540 H 0.193 0.94337 0.82211 0.0
H1541 H 0.16726 0.90663 0.80694 0.0
H1542 H 0.09129 0.83597 0.82452 0.0
H1543 H 0.13085 0.85867 0.81286 0.0
H1544 H 0.1226 0.94962 0.9099 0.0
H1545 H 0.16039 0.97527 0.8967 0.0
H1546 H 0.07501 0.91795 0.8991 0.0
H1547 H 0.05146 0.8781 0.88812 0.0
C1548 C 0.13495 0.23047 0.8769 0.0
C1549 C 0.16072 0.25525 0.86291 0.0
C1550 C 0.12123 0.26248 0.83858 0.0
C1551 C 0.09633 0.24189 0.85513 0.0
N1552 N 0.07892 0.20644 0.89049 0.0
N1553 N 0.17908 0.29354 0.82938 0.0
C1554 C 0.10281 0.22528 0.87408 0.0
C1555 C 0.15397 0.27064 0.84326 0.0
N1556 N 0.14126 0.21234 0.8932 0.0
N1557 N 0.11325 0.27365 0.81815 0.0
H1558 H 0.20292 0.298 0.83093 0.0
H1559 H 0.17671 0.30886 0.81689 0.0
H1560 H 0.08936 0.26764 0.81415 0.0
H1561 H 0.12953 0.28646 0.80414 0.0
H1562 H 0.12316 0.19146 0.90188 0.0
H1563 H 0.16462 0.21646 0.89673 0.0
H1564 H 0.0831 0.19729 0.90653 0.0
H1565 H 0.05497 0.20151 0.88909 0.0
C1566 C 0.74284 0.86184 0.85559 0.0
C1567 C 0.76084 0.85595 0.87349 0.0
C1568 C 0.77999 0.91073 0.89078 0.0
C1569 C 0.75671 0.91346 0.87624 0.0
N1570 N 0.71788 0.89388 0.8433 0.0
N1571 N 0.79714 0.87443 0.9082 0.0
C1572 C 0.73904 0.88987 0.85789 0.0
C1573 C 0.78039 0.88067 0.89069 0.0
N1574 N 0.72941 0.84041 0.83652 0.0
N1575 N 0.80104 0.93644 0.90517 0.0
H1576 H 0.79872 0.85311 0.90857 0.0
H1577 H 0.80808 0.88953 0.92325 0.0
H1578 H 0.80065 0.95836 0.90648 0.0
H1579 H 0.82074 0.93722 0.91421 0.0
H1580 H 0.71785 0.84419 0.82178 0.0
H1581 H 0.73243 0.81998 0.83445 0.0
H1582 H 0.70131 0.87588 0.83154 0.0
H1583 H 0.71622 0.91522 0.84357 0.0
C1584 C 0.55262 0.46074 0.47247 0.0
C1585 C 0.54419 0.43557 0.45501 0.0
C1586 C 0.5977 0.46634 0.43595 0.0
C1587 C 0.60332 0.49396 0.45015 0.0
N1588 N 0.59343 0.51484 0.48719 0.0
N1589 N 0.56355 0.40759 0.42909 0.0
C1590 C 0.58334 0.48997 0.47056 0.0
C1591 C 0.56863 0.43592 0.43994 0.0
N1592 N 0.53011 0.45718 0.48959 0.0
N1593 N 0.61859 0.46987 0.41747 0.0
H1594 H 0.54289 0.38499 0.43272 0.0
H1595 H 0.58121 0.40582 0.41893 0.0
H1596 H 0.64063 0.49151 0.4147 0.0
H1597 H 0.61367 0.45178 0.40447 0.0
H1598 H 0.53299 0.47552 0.5017 0.0
H1599 H 0.50802 0.43517 0.49135 0.0
H1600 H 0.58079 0.51351 0.50308 0.0
H1601 H 0.61611 0.53622 0.48567 0.0
C1602 C 0.59394 0.15588 0.43264 0.0
C1603 C 0.59832 0.13486 0.44873 0.0
C1604 C 0.54396 0.11563 0.46578 0.0
C1605 C 0.53678 0.12933 0.44537 0.0
N1606 N 0.55515 0.16523 0.41032 0.0
N1607 N 0.5812 0.10023 0.4841 0.0
C1608 C 0.56208 0.15119 0.42951 0.0
C1609 C 0.57464 0.11709 0.46686 0.0
N1610 N 0.61993 0.17948 0.41996 0.0
N1611 N 0.52098 0.10063 0.48359 0.0
H1612 H 0.60426 0.10257 0.48565 0.0
H1613 H 0.56412 0.08383 0.49644 0.0
H1614 H 0.49853 0.09978 0.48293 0.0
H1615 H 0.52489 0.09145 0.49972 0.0
H1616 H 0.6188 0.19714 0.40921 0.0
H1617 H 0.64354 0.18374 0.4224 0.0
H1618 H 0.5715 0.1778 0.39627 0.0
H1619 H 0.53237 0.1631 0.40779 0.0
C1620 C 0.94913 0.47186 0.45471 0.0
C1621 C 0.93262 0.44911 0.43567 0.0
C1622 C 0.90967 0.48276 0.42151 0.0
C1623 C 0.93206 0.5086 0.43678 0.0
N1624 N 0.97014 0.52737 0.47011 0.0
N1625 N 0.89641 0.43197 0.40089 0.0
C1626 C 0.95046 0.50276 0.4544 0.0
C1627 C 0.91183 0.45374 0.41949 0.0
N1628 N 0.96365 0.46375 0.47282 0.0
N1629 N 0.88706 0.48629 0.40843 0.0
H1630 H 0.89675 0.4101 0.39885 0.0
H1631 H 0.88477 0.43638 0.38651 0.0
H1632 H 0.8851 0.50738 0.40908 0.0
H1633 H 0.86812 0.46716 0.39882 0.0
H1634 H 0.97439 0.47815 0.48822 0.0
H1635 H 0.96245 0.44095 0.47338 0.0
H1636 H 0.98718 0.52643 0.48155 0.0
H1637 H 0.96984 0.54942 0.47118 0.0
C1638 C 0.764 0.23612 0.22466 0.0
C1639 C 0.75749 0.21345 0.20545 0.0
C1640 C 0.80639 0.25385 0.18397 0.0
C1641 C 0.81668 0.27255 0.20571 0.0
N1642 N 0.80471 0.28545 0.24547 0.0
N1643 N 0.7687 0.20145 0.16517 0.0
C1644 C 0.79485 0.2654 0.22544 0.0
C1645 C 0.77719 0.22293 0.18425 0.0
N1646 N 0.74114 0.22879 0.24246 0.0
N1647 N 0.82516 0.26562 0.16348 0.0
H1648 H 0.74659 0.17931 0.16484 0.0
H1649 H 0.78351 0.2051 0.15009 0.0
H1650 H 0.8462 0.28871 0.16322 0.0
H1651 H 0.81864 0.25417 0.14651 0.0
H1652 H 0.74336 0.24488 0.25637 0.0
H1653 H 0.7185 0.20729 0.24206 0.0
H1654 H 0.79163 0.28004 0.26171 0.0
H1655 H 0.8268 0.30759 0.24588 0.0
C1656 C 0.8016 0.56784 0.2137 0.0
C1657 C 0.82633 0.58926 0.19726 0.0
C1658 C 0.78909 0.60494 0.17879 0.0
C1659 C 0.76573 0.58641 0.19693 0.0
N1660 N 0.74468 0.54172 0.22569 0.0
N1661 N 0.84103 0.61961 0.1597 0.0
C1662 C 0.77016 0.56463 0.21217 0.0
C1663 C 0.81901 0.60477 0.17814 0.0
N1664 N 0.80886 0.55285 0.23205 0.0
N1665 N 0.78305 0.62378 0.16303 0.0
H1666 H 0.8629 0.61926 0.15897 0.0
H1667 H 0.83664 0.62968 0.14427 0.0
H1668 H 0.76047 0.62266 0.16238 0.0
H1669 H 0.80031 0.6409 0.15114 0.0
H1670 H 0.79325 0.54064 0.24656 0.0
H1671 H 0.83129 0.55393 0.23359 0.0
H1672 H 0.74554 0.52324 0.23554 0.0
H1673 H 0.7215 0.53909 0.22515 0.0
C1674 C 0.46574 0.25889 0.22491 0.0
C1675 C 0.4465 0.26574 0.20882 0.0
C1676 C 0.4282 0.21373 0.18743 0.0
C1677 C 0.4443 0.20517 0.20528 0.0
N1678 N 0.48615 0.2224 0.23598 0.0
N1679 N 0.41768 0.2556 0.17089 0.0
C1680 C 0.46605 0.22893 0.22216 0.0
C1681 C 0.43064 0.2451 0.18861 0.0
N1682 N 0.48169 0.27989 0.24381 0.0
N1683 N 0.40952 0.19114 0.17013 0.0
H1684 H 0.41963 0.27874 0.17152 0.0
H1685 H 0.40739 0.24284 0.15479 0.0
H1686 H 0.40906 0.1688 0.16816 0.0
H1687 H 0.39413 0.19403 0.15813 0.0
H1688 H 0.49281 0.27459 0.25806 0.0
H1689 H 0.48275 0.3025 0.24577 0.0
H1690 H 0.50441 0.23961 0.24723 0.0
H1691 H 0.48658 0.2005 0.23465 0.0
C1692 C 0.24582 0.80194 0.75721 0.0
C1693 C 0.25048 0.82843 0.77244 0.0
C1694 C 0.1982 0.79352 0.79255 0.0
C1695 C 0.19178 0.76854 0.77526 0.0
N1696 N 0.2133 0.74376 0.74792 0.0
N1697 N 0.23719 0.84699 0.80926 0.0
C1698 C 0.2171 0.77087 0.76006 0.0
C1699 C 0.22868 0.82319 0.79188 0.0
N1700 N 0.26738 0.80714 0.73878 0.0
N1701 N 0.17437 0.78917 0.80871 0.0
H1702 H 0.25971 0.8687 0.80898 0.0
H1703 H 0.22346 0.8443 0.82483 0.0
H1704 H 0.15267 0.76676 0.8103 0.0
H1705 H 0.17565 0.80754 0.82009 0.0
H1706 H 0.2631 0.79013 0.72503 0.0
H1707 H 0.28908 0.82925 0.73644 0.0
H1708 H 0.2319 0.74326 0.73811 0.0
H1709 H 0.19263 0.72068 0.74977 0.0
C1710 C 0.26166 0.46794 0.79484 0.0
C1711 C 0.28296 0.48217 0.77477 0.0
C1712 C 0.24804 0.50166 0.75784 0.0
C1713 C 0.2239 0.4815 0.77494 0.0
N1714 N 0.21024 0.45538 0.81405 0.0
N1715 N 0.30333 0.5224 0.74274 0.0
C1716 C 0.23198 0.46853 0.79527 0.0
C1717 C 0.2787 0.50297 0.75837 0.0
N1718 N 0.26918 0.45212 0.81232 0.0
N1719 N 0.24044 0.51711 0.7401 0.0
H1720 H 0.32586 0.52348 0.74318 0.0
H1721 H 0.30255 0.53917 0.73079 0.0
H1722 H 0.21832 0.51696 0.74012 0.0
H1723 H 0.25552 0.5297 0.72546 0.0
H1724 H 0.25385 0.43881 0.82666 0.0
H1725 H 0.29149 0.45262 0.81225 0.0
H1726 H 0.21439 0.44592 0.82992 0.0
H1727 H 0.18848 0.45599 0.81413 0.0
C1728 C 0.57274 0.78411 0.7473 0.0
C1729 C 0.59453 0.78194 0.76399 0.0
C1730 C 0.60434 0.83297 0.78368 0.0
C1731 C 0.58799 0.83829 0.76411 0.0
N1732 N 0.55678 0.81958 0.72685 0.0
N1733 N 0.62938 0.80239 0.79921 0.0
C1734 C 0.57143 0.81366 0.74615 0.0
C1735 C 0.60947 0.80563 0.78278 0.0
N1736 N 0.55401 0.7584 0.73207 0.0
N1737 N 0.61484 0.85419 0.80305 0.0
H1738 H 0.6318 0.7815 0.79992 0.0
H1739 H 0.64425 0.82062 0.81155 0.0
H1740 H 0.61086 0.87411 0.80414 0.0
H1741 H 0.62483 0.85062 0.81886 0.0
H1742 H 0.53523 0.75718 0.72143 0.0
H1743 H 0.55511 0.73683 0.7315 0.0
H1744 H 0.54832 0.80467 0.71143 0.0
H1745 H 0.55479 0.84061 0.72537 0.0
C1746 C 0.46949 0.61172 0.53974 0.0
C1747 C 0.49379 0.61443 0.52328 0.0
C1748 C 0.45475 0.56218 0.50437 0.0
C1749 C 0.43396 0.55582 0.52466 0.0
N1750 N 0.41852 0.57513 0.56024 0.0
N1751 N 0.50864 0.59656 0.48687 0.0
C1752 C 0.43986 0.5812 0.54149 0.0
C1753 C 0.48575 0.59126 0.5042 0.0
N1754 N 0.47529 0.63785 0.55414 0.0
N1755 N 0.44489 0.53974 0.48584 0.0
H1756 H 0.53084 0.61858 0.48601 0.0
H1757 H 0.50605 0.57942 0.47372 0.0
H1758 H 0.42199 0.51849 0.48593 0.0
H1759 H 0.45795 0.54314 0.46977 0.0
H1760 H 0.45779 0.63836 0.56536 0.0
H1761 H 0.49684 0.66037 0.55307 0.0
H1762 H 0.42328 0.59093 0.57496 0.0
H1763 H 0.39614 0.55346 0.56151 0.0
C1764 C 0.44089 0.8987 0.54082 0.0
C1765 C 0.43543 0.92025 0.52602 0.0
C1766 C 0.48853 0.94075 0.50649 0.0
C1767 C 0.49582 0.92301 0.52381 0.0
N1768 N 0.47518 0.8751 0.5495 0.0
N1769 N 0.44806 0.95274 0.48963 0.0
C1770 C 0.47056 0.8983 0.53813 0.0
C1771 C 0.45726 0.938 0.50687 0.0
N1772 N 0.41909 0.88076 0.55871 0.0
N1773 N 0.51228 0.9614 0.49069 0.0
H1774 H 0.42497 0.95048 0.48979 0.0
H1775 H 0.46192 0.96479 0.47433 0.0
H1776 H 0.53466 0.96213 0.48945 0.0
H1777 H 0.51019 0.97788 0.47922 0.0
H1778 H 0.42376 0.8681 0.57222 0.0
H1779 H 0.39668 0.87965 0.56075 0.0
H1780 H 0.4568 0.85505 0.55877 0.0
H1781 H 0.49629 0.87371 0.54729 0.0
C1782 C 0.13331 0.59377 0.54439 0.0
C1783 C 0.11026 0.5967 0.52972 0.0
C1784 C 0.09066 0.54122 0.51367 0.0
C1785 C 0.10755 0.53575 0.53273 0.0
N1786 N 0.14613 0.55672 0.56601 0.0
N1787 N 0.0714 0.5764 0.49696 0.0
C1788 C 0.12999 0.56222 0.54758 0.0
C1789 C 0.09074 0.57151 0.51289 0.0
N1790 N 0.15788 0.62081 0.55556 0.0
N1791 N 0.07435 0.51717 0.49666 0.0
H1792 H 0.07291 0.59925 0.49512 0.0
H1793 H 0.05372 0.55813 0.48596 0.0
H1794 H 0.07451 0.49502 0.49692 0.0
H1795 H 0.06294 0.51992 0.48137 0.0
H1796 H 0.17693 0.62056 0.56485 0.0
H1797 H 0.16152 0.64437 0.55316 0.0
H1798 H 0.15926 0.57392 0.57951 0.0
H1799 H 0.14491 0.5342 0.56879 0.0
loop_
_geom_bond_atom_site_label_1
_geom_bond_atom_site_label_2
_geom_bond_distance
_geom_bond_site_symmetry_2
_ccdc_geom_bond_type
Zn0 O3 2.031 . S
Zn0 O5 2.049 . S
Zn0 O10 2.067 . S
Zn1 O2 1.962 . S
Zn1 O4 1.986 . S
Zn1 O6 1.996 . S
Zn1 O9 1.954 . S
O2 Zn1 1.962 . S
O2 C7 1.254 . S
O3 Zn0 2.031 . S
O3 C7 1.269 1_655 S
O4 Zn1 1.986 . S
O4 C11 1.262 . S
O5 Zn0 2.049 . S
O5 C13 1.260 1_655 S
O6 Zn1 1.996 . S
O6 C13 1.257 . S
C7 O2 1.254 . S
C7 O3 1.269 1_455 S
C8 O9 1.218 1_655 S
C8 O10 1.270 . S
O9 Zn1 1.954 . S
O9 C8 1.218 1_455 S
O10 Zn0 2.067 . S
O10 C8 1.270 . S
C11 O4 1.262 . S
C11 O12 1.232 . S
O12 C11 1.232 . S
C13 O5 1.260 1_455 S
C13 O6 1.257 . S
Zn14 O17 2.031 . S
Zn14 O19 2.049 . S
Zn14 O24 2.067 . S
Zn15 O16 1.962 . S
Zn15 O18 1.986 . S
Zn15 O20 1.996 . S
Zn15 O23 1.943 . S
O16 Zn15 1.962 . S
O16 C21 1.254 . S
O17 Zn14 2.031 . S
O17 C21 1.269 . S
O18 Zn15 1.986 . S
O18 C25 1.262 . S
O19 Zn14 2.049 . S
O19 C27 1.260 . S
O20 Zn15 1.996 . S
O20 C27 1.257 . S
C21 O16 1.254 . S
C21 O17 1.269 . S
C22 O23 1.249 . S
C22 O24 1.270 . S
O23 Zn15 1.943 . S
O23 C22 1.249 . S
O24 Zn14 2.067 . S
O24 C22 1.270 . S
C25 O18 1.262 . S
C25 O26 1.232 . S
O26 C25 1.232 . S
C27 O19 1.260 . S
C27 O20 1.257 . S
Zn28 O31 2.031 . S
Zn28 O33 2.049 . S
Zn28 O38 2.067 . S
Zn29 O30 1.962 . S
Zn29 O32 1.986 1_545 S
Zn29 O34 1.996 . S
Zn29 O37 1.943 . S
O30 Zn29 1.962 . S
O30 C35 1.254 . S
O31 Zn28 2.031 . S
O31 C35 1.269 . S
O32 Zn29 1.986 1_565 S
O32 C39 1.262 . S
O33 Zn28 2.049 . S
O33 C41 1.260 . S
O34 Zn29 1.996 . S
O34 C41 1.257 . S
C35 O30 1.254 . S
C35 O31 1.269 . S
C36 O37 1.249 . S
C36 O38 1.270 . S
O37 Zn29 1.943 . S
O37 C36 1.249 . S
O38 Zn28 2.067 . S
O38 C36 1.270 . S
C39 O32 1.262 . S
C39 O40 1.232 . S
O40 C39 1.232 . S
C41 O33 1.260 . S
C41 O34 1.257 . S
Zn42 O45 2.031 . S
Zn42 O47 2.049 . S
Zn42 O52 2.067 . S
Zn43 O44 1.962 . S
Zn43 O46 1.986 . S
Zn43 O48 1.996 . S
Zn43 O51 1.954 . S
O44 Zn43 1.962 . S
O44 C49 1.254 . S
O45 Zn42 2.031 . S
O45 C49 1.269 1_565 S
O46 Zn43 1.986 . S
O46 C53 1.262 . S
O47 Zn42 2.049 . S
O47 C55 1.260 1_565 S
O48 Zn43 1.996 . S
O48 C55 1.257 . S
C49 O44 1.254 . S
C49 O45 1.269 1_545 S
C50 O51 1.218 1_565 S
C50 O52 1.270 . S
O51 Zn43 1.954 . S
O51 C50 1.218 1_545 S
O52 Zn42 2.067 . S
O52 C50 1.270 . S
C53 O46 1.262 . S
C53 O54 1.232 . S
O54 C53 1.232 . S
C55 O47 1.260 1_545 S
C55 O48 1.257 . S
Zn56 O59 2.031 . S
Zn56 O61 2.049 . S
Zn56 O66 2.067 . S
Zn57 O58 1.962 . S
Zn57 O60 1.986 1_455 S
Zn57 O62 1.996 . S
Zn57 O65 1.943 . S
O58 Zn57 1.962 . S
O58 C63 1.254 . S
O59 Zn56 2.031 . S
O59 C63 1.269 . S
O60 Zn57 1.986 1_655 S
O60 C67 1.262 . S
O61 Zn56 2.049 . S
O61 C69 1.260 . S
O62 Zn57 1.996 . S
O62 C69 1.257 . S
C63 O58 1.254 . S
C63 O59 1.269 . S
C64 O65 1.249 . S
C64 O66 1.270 . S
O65 Zn57 1.943 . S
O65 C64 1.249 . S
O66 Zn56 2.067 . S
O66 C64 1.270 . S
C67 O60 1.262 . S
C67 O68 1.232 . S
O68 C67 1.232 . S
C69 O61 1.260 . S
C69 O62 1.257 . S
Zn70 O73 2.031 . S
Zn70 O75 2.049 . S
Zn70 O80 2.067 . S
Zn71 O72 1.962 . S
Zn71 O74 1.986 . S
Zn71 O76 1.996 . S
Zn71 O79 1.943 . S
O72 Zn71 1.962 . S
O72 C77 1.254 . S
O73 Zn70 2.031 . S
O73 C77 1.269 . S
O74 Zn71 1.986 . S
O74 C81 1.262 . S
O75 Zn70 2.049 . S
O75 C83 1.260 . S
O76 Zn71 1.996 . S
O76 C83 1.257 . S
C77 O72 1.254 . S
C77 O73 1.269 . S
C78 O79 1.249 . S
C78 O80 1.270 . S
O79 Zn71 1.943 . S
O79 C78 1.249 . S
O80 Zn70 2.067 . S
O80 C78 1.270 . S
C81 O74 1.262 . S
C81 O82 1.232 . S
O82 C81 1.232 . S
C83 O75 1.260 . S
C83 O76 1.257 . S
Zn84 O87 2.031 . S
Zn84 O89 2.049 . S
Zn84 O94 2.067 . S
Zn85 O86 1.962 . S
Zn85 O88 1.986 1_455 S
Zn85 O90 1.996 . S
Zn85 O93 1.943 . S
O86 Zn85 1.962 . S
O86 C91 1.254 . S
O87 Zn84 2.031 . S
O87 C91 1.269 . S
O88 Zn85 1.986 1_655 S
O88 C95 1.262 . S
O89 Zn84 2.049 . S
O89 C97 1.260 . S
O90 Zn85 1.996 . S
O90 C97 1.257 . S
C91 O86 1.254 . S
C91 O87 1.269 . S
C92 O93 1.249 . S
C92 O94 1.270 . S
O93 Zn85 1.943 . S
O93 C92 1.249 . S
O94 Zn84 2.067 . S
O94 C92 1.270 . S
C95 O88 1.262 . S
C95 O96 1.232 . S
O96 C95 1.232 . S
C97 O89 1.260 . S
C97 O90 1.257 . S
Zn98 O101 2.031 . S
Zn98 O103 2.049 . S
Zn98 O108 2.067 . S
Zn99 O100 1.962 . S
Zn99 O102 1.986 . S
Zn99 O104 1.996 . S
Zn99 O107 1.943 . S
O100 Zn99 1.962 . S
O100 C105 1.254 . S
O101 Zn98 2.031 . S
O101 C105 1.269 . S
O102 Zn99 1.986 . S
O102 C109 1.262 . S
O103 Zn98 2.049 . S
O103 C111 1.260 . S
O104 Zn99 1.996 . S
O104 C111 1.257 . S
C105 O100 1.254 . S
C105 O101 1.269 . S
C106 O107 1.249 . S
C106 O108 1.270 . S
O107 Zn99 1.943 . S
O107 C106 1.249 . S
O108 Zn98 2.067 . S
O108 C106 1.270 . S
C109 O102 1.262 . S
C109 O110 1.232 . S
O110 C109 1.232 . S
C111 O103 1.260 . S
C111 O104 1.257 . S
Zn112 O115 2.031 . S
Zn112 O117 2.049 . S
Zn112 O122 2.067 . S
Zn113 O114 1.962 . S
Zn113 O116 1.986 . S
Zn113 O118 1.996 . S
Zn113 O121 1.978 . S
O114 Zn113 1.962 . S
O114 C119 1.254 . S
O115 Zn112 2.031 . S
O115 C119 1.269 1_565 S
O116 Zn113 1.986 . S
O116 C123 1.262 . S
O117 Zn112 2.049 . S
O117 C125 1.260 1_565 S
O118 Zn113 1.996 . S
O118 C125 1.257 . S
C119 O114 1.254 . S
C119 O115 1.269 1_545 S
C120 O121 1.219 1_565 S
C120 O122 1.270 . S
O121 Zn113 1.978 . S
O121 C120 1.219 1_545 S
O122 Zn112 2.067 . S
O122 C120 1.270 . S
C123 O116 1.262 . S
C123 O124 1.232 . S
O124 C123 1.232 . S
C125 O117 1.260 1_545 S
C125 O118 1.257 . S
Zn126 O129 2.031 . S
Zn126 O131 2.049 . S
Zn126 O136 2.067 . S
Zn127 O128 1.962 . S
Zn127 O130 1.986 1_545 S
Zn127 O132 1.996 . S
Zn127 O135 1.943 . S
O128 Zn127 1.962 . S
O128 C133 1.254 . S
O129 Zn126 2.031 . S
O129 C133 1.269 . S
O130 Zn127 1.986 1_565 S
O130 C137 1.262 . S
O131 Zn126 2.049 . S
O131 C139 1.260 . S
O132 Zn127 1.996 . S
O132 C139 1.257 . S
C133 O128 1.254 . S
C133 O129 1.269 . S
C134 O135 1.249 . S
C134 O136 1.270 . S
O135 Zn127 1.943 . S
O135 C134 1.249 . S
O136 Zn126 2.067 . S
O136 C134 1.270 . S
C137 O130 1.262 . S
C137 O138 1.232 . S
O138 C137 1.232 . S
C139 O131 1.260 . S
C139 O132 1.257 . S
Zn140 O143 2.031 . S
Zn140 O145 2.049 . S
Zn140 O150 2.067 . S
Zn141 O142 1.962 . S
Zn141 O144 1.986 . S
Zn141 O146 1.996 . S
Zn141 O149 1.978 . S
O142 Zn141 1.962 . S
O142 C147 1.254 . S
O143 Zn140 2.031 . S
O143 C147 1.269 1_655 S
O144 Zn141 1.986 . S
O144 C151 1.262 . S
O145 Zn140 2.049 . S
O145 C153 1.260 1_655 S
O146 Zn141 1.996 . S
O146 C153 1.257 . S
C147 O142 1.254 . S
C147 O143 1.269 1_455 S
C148 O149 1.219 1_655 S
C148 O150 1.270 . S
O149 Zn141 1.978 . S
O149 C148 1.219 1_455 S
O150 Zn140 2.067 . S
O150 C148 1.270 . S
C151 O144 1.262 . S
C151 O152 1.232 . S
O152 C151 1.232 . S
C153 O145 1.260 1_455 S
C153 O146 1.257 . S
Zn154 O157 2.031 . S
Zn154 O159 2.049 . S
Zn154 O164 2.067 . S
Zn155 O156 1.962 . S
Zn155 O158 1.986 . S
Zn155 O160 1.996 . S
Zn155 O163 1.943 . S
O156 Zn155 1.962 . S
O156 C161 1.254 . S
O157 Zn154 2.031 . S
O157 C161 1.269 . S
O158 Zn155 1.986 . S
O158 C165 1.262 . S
O159 Zn154 2.049 . S
O159 C167 1.260 . S
O160 Zn155 1.996 . S
O160 C167 1.257 . S
C161 O156 1.254 . S
C161 O157 1.269 . S
C162 O163 1.249 . S
C162 O164 1.270 . S
O163 Zn155 1.943 . S
O163 C162 1.249 . S
O164 Zn154 2.067 . S
O164 C162 1.270 . S
C165 O158 1.262 . S
C165 O166 1.232 . S
O166 C165 1.232 . S
C167 O159 1.260 . S
C167 O160 1.257 . S
Zn168 O171 2.031 . S
Zn168 O173 2.049 . S
Zn168 O178 2.067 . S
Zn169 O170 1.962 . S
Zn169 O172 1.986 . S
Zn169 O174 1.996 . S
Zn169 O177 1.943 . S
O170 Zn169 1.962 . S
O170 C175 1.254 . S
O171 Zn168 2.031 . S
O171 C175 1.269 . S
O172 Zn169 1.986 . S
O172 C179 1.262 . S
O173 Zn168 2.049 . S
O173 C181 1.260 . S
O174 Zn169 1.996 . S
O174 C181 1.257 . S
C175 O170 1.254 . S
C175 O171 1.269 . S
C176 O177 1.249 . S
C176 O178 1.270 . S
O177 Zn169 1.943 . S
O177 C176 1.249 . S
O178 Zn168 2.067 . S
O178 C176 1.270 . S
C179 O172 1.262 . S
C179 O180 1.232 . S
O180 C179 1.232 . S
C181 O173 1.260 . S
C181 O174 1.257 . S
Zn182 O185 2.031 . S
Zn182 O187 2.049 . S
Zn182 O192 2.067 . S
Zn183 O184 1.962 . S
Zn183 O186 1.986 . S
Zn183 O188 1.996 . S
Zn183 O191 1.943 . S
O184 Zn183 1.962 . S
O184 C189 1.254 . S
O185 Zn182 2.031 . S
O185 C189 1.269 . S
O186 Zn183 1.986 . S
O186 C193 1.262 . S
O187 Zn182 2.049 . S
O187 C195 1.260 . S
O188 Zn183 1.996 . S
O188 C195 1.257 . S
C189 O184 1.254 . S
C189 O185 1.269 . S
C190 O191 1.249 . S
C190 O192 1.270 . S
O191 Zn183 1.943 . S
O191 C190 1.249 . S
O192 Zn182 2.067 . S
O192 C190 1.270 . S
C193 O186 1.262 . S
C193 O194 1.232 . S
O194 C193 1.232 . S
C195 O187 1.260 . S
C195 O188 1.257 . S
Zn196 O199 2.031 . S
Zn196 O201 2.049 . S
Zn196 O206 2.067 . S
Zn197 O198 1.962 . S
Zn197 O200 1.986 . S
Zn197 O202 1.996 . S
Zn197 O205 1.943 . S
O198 Zn197 1.962 . S
O198 C203 1.254 . S
O199 Zn196 2.031 . S
O199 C203 1.269 . S
O200 Zn197 1.986 . S
O200 C207 1.262 . S
O201 Zn196 2.049 . S
O201 C209 1.260 . S
O202 Zn197 1.996 . S
O202 C209 1.257 . S
C203 O198 1.254 . S
C203 O199 1.269 . S
C204 O205 1.249 . S
C204 O206 1.270 . S
O205 Zn197 1.943 . S
O205 C204 1.249 . S
O206 Zn196 2.067 . S
O206 C204 1.270 . S
C207 O200 1.262 . S
C207 O208 1.232 . S
O208 C207 1.232 . S
C209 O201 1.260 . S
C209 O202 1.257 . S
Zn210 O213 2.031 . S
Zn210 O215 2.049 . S
Zn210 O220 2.067 . S
Zn211 O212 1.962 . S
Zn211 O214 1.986 . S
Zn211 O216 1.996 . S
Zn211 O219 1.943 . S
O212 Zn211 1.962 . S
O212 C217 1.254 . S
O213 Zn210 2.031 . S
O213 C217 1.269 . S
O214 Zn211 1.986 . S
O214 C221 1.262 . S
O215 Zn210 2.049 . S
O215 C223 1.260 . S
O216 Zn211 1.996 . S
O216 C223 1.257 . S
C217 O212 1.254 . S
C217 O213 1.269 . S
C218 O219 1.249 . S
C218 O220 1.270 . S
O219 Zn211 1.943 . S
O219 C218 1.249 . S
O220 Zn210 2.067 . S
O220 C218 1.270 . S
C221 O214 1.262 . S
C221 O222 1.232 . S
O222 C221 1.232 . S
C223 O215 1.260 . S
C223 O216 1.257 . S
Zn224 O227 2.031 . S
Zn224 O229 2.049 . S
Zn224 O234 2.067 . S
Zn225 O226 1.962 . S
Zn225 O228 1.986 . S
Zn225 O230 1.996 . S
Zn225 O233 1.943 . S
O226 Zn225 1.962 . S
O226 C231 1.254 . S
O227 Zn224 2.031 . S
O227 C231 1.269 . S
O228 Zn225 1.986 . S
O228 C235 1.262 . S
O229 Zn224 2.049 . S
O229 C237 1.260 . S
O230 Zn225 1.996 . S
O230 C237 1.257 . S
C231 O226 1.254 . S
C231 O227 1.269 . S
C232 O233 1.249 . S
C232 O234 1.270 . S
O233 Zn225 1.943 . S
O233 C232 1.249 . S
O234 Zn224 2.067 . S
O234 C232 1.270 . S
C235 O228 1.262 . S
C235 O236 1.232 . S
O236 C235 1.232 . S
C237 O229 1.260 . S
C237 O230 1.257 . S
Zn238 O241 2.031 . S
Zn238 O243 2.049 . S
Zn238 O248 2.067 . S
Zn239 O240 1.962 . S
Zn239 O242 1.986 . S
Zn239 O244 1.996 . S
Zn239 O247 1.943 . S
O240 Zn239 1.962 . S
O240 C245 1.254 . S
O241 Zn238 2.031 . S
O241 C245 1.269 . S
O242 Zn239 1.986 . S
O242 C249 1.262 . S
O243 Zn238 2.049 . S
O243 C251 1.260 . S
O244 Zn239 1.996 . S
O244 C251 1.257 . S
C245 O240 1.254 . S
C245 O241 1.269 . S
C246 O247 1.249 . S
C246 O248 1.270 . S
O247 Zn239 1.943 . S
O247 C246 1.249 . S
O248 Zn238 2.067 . S
O248 C246 1.270 . S
C249 O242 1.262 . S
C249 O250 1.232 . S
O250 C249 1.232 . S
C251 O243 1.260 . S
C251 O244 1.257 . S
Zn252 O255 2.031 . S
Zn252 O257 2.049 . S
Zn252 O262 2.067 . S
Zn253 O254 1.962 . S
Zn253 O256 1.986 . S
Zn253 O258 1.996 . S
Zn253 O261 1.943 . S
O254 Zn253 1.962 . S
O254 C259 1.254 . S
O255 Zn252 2.031 . S
O255 C259 1.269 . S
O256 Zn253 1.986 . S
O256 C263 1.262 . S
O257 Zn252 2.049 . S
O257 C265 1.260 . S
O258 Zn253 1.996 . S
O258 C265 1.257 . S
C259 O254 1.254 . S
C259 O255 1.269 . S
C260 O261 1.249 . S
C260 O262 1.270 . S
O261 Zn253 1.943 . S
O261 C260 1.249 . S
O262 Zn252 2.067 . S
O262 C260 1.270 . S
C263 O256 1.262 . S
C263 O264 1.232 . S
O264 C263 1.232 . S
C265 O257 1.260 . S
C265 O258 1.257 . S
Zn266 O269 2.031 . S
Zn266 O271 2.049 . S
Zn266 O276 2.067 . S
Zn267 O268 1.962 . S
Zn267 O270 1.986 . S
Zn267 O272 1.996 . S
Zn267 O275 1.943 . S
O268 Zn267 1.962 . S
O268 C273 1.254 . S
O269 Zn266 2.031 . S
O269 C273 1.269 . S
O270 Zn267 1.986 . S
O270 C277 1.262 . S
O271 Zn266 2.049 . S
O271 C279 1.260 . S
O272 Zn267 1.996 . S
O272 C279 1.257 . S
C273 O268 1.254 . S
C273 O269 1.269 . S
C274 O275 1.249 . S
C274 O276 1.270 . S
O275 Zn267 1.943 . S
O275 C274 1.249 . S
O276 Zn266 2.067 . S
O276 C274 1.270 . S
C277 O270 1.262 . S
C277 O278 1.232 . S
O278 C277 1.232 . S
C279 O271 1.260 . S
C279 O272 1.257 . S
Zn280 O283 2.031 . S
Zn280 O285 2.049 . S
Zn280 O290 2.067 . S
Zn281 O282 1.962 . S
Zn281 O284 1.986 . S
Zn281 O286 1.996 . S
Zn281 O289 1.943 . S
O282 Zn281 1.962 . S
O282 C287 1.254 . S
O283 Zn280 2.031 . S
O283 C287 1.269 . S
O284 Zn281 1.986 . S
O284 C291 1.262 . S
O285 Zn280 2.049 . S
O285 C293 1.260 . S
O286 Zn281 1.996 . S
O286 C293 1.257 . S
C287 O282 1.254 . S
C287 O283 1.269 . S
C288 O289 1.249 . S
C288 O290 1.270 . S
O289 Zn281 1.943 . S
O289 C288 1.249 . S
O290 Zn280 2.067 . S
O290 C288 1.270 . S
C291 O284 1.262 . S
C291 O292 1.232 . S
O292 C291 1.232 . S
C293 O285 1.260 . S
C293 O286 1.257 . S
Zn294 O297 2.031 . S
Zn294 O299 2.049 . S
Zn294 O304 2.067 . S
Zn295 O296 1.962 . S
Zn295 O298 1.986 . S
Zn295 O300 1.996 . S
Zn295 O303 1.943 . S
O296 Zn295 1.962 . S
O296 C301 1.254 . S
O297 Zn294 2.031 . S
O297 C301 1.269 . S
O298 Zn295 1.986 . S
O298 C305 1.262 . S
O299 Zn294 2.049 . S
O299 C307 1.260 . S
O300 Zn295 1.996 . S
O300 C307 1.257 . S
C301 O296 1.254 . S
C301 O297 1.269 . S
C302 O303 1.249 . S
C302 O304 1.270 . S
O303 Zn295 1.943 . S
O303 C302 1.249 . S
O304 Zn294 2.067 . S
O304 C302 1.270 . S
C305 O298 1.262 . S
C305 O306 1.232 . S
O306 C305 1.232 . S
C307 O299 1.260 . S
C307 O300 1.257 . S
Zn308 O311 2.031 . S
Zn308 O313 2.049 . S
Zn308 O318 2.067 . S
Zn309 O310 1.962 . S
Zn309 O312 1.986 . S
Zn309 O314 1.996 . S
Zn309 O317 1.943 . S
O310 Zn309 1.962 . S
O310 C315 1.254 . S
O311 Zn308 2.031 . S
O311 C315 1.269 . S
O312 Zn309 1.986 . S
O312 C319 1.262 . S
O313 Zn308 2.049 . S
O313 C321 1.260 . S
O314 Zn309 1.996 . S
O314 C321 1.257 . S
C315 O310 1.254 . S
C315 O311 1.269 . S
C316 O317 1.249 . S
C316 O318 1.270 . S
O317 Zn309 1.943 . S
O317 C316 1.249 . S
O318 Zn308 2.067 . S
O318 C316 1.270 . S
C319 O312 1.262 . S
C319 O320 1.232 . S
O320 C319 1.232 . S
C321 O313 1.260 . S
C321 O314 1.257 . S
Zn322 O325 2.031 . S
Zn322 O327 2.049 . S
Zn322 O332 2.067 . S
Zn323 O324 1.962 . S
Zn323 O326 1.986 . S
Zn323 O328 1.996 . S
Zn323 O331 1.943 . S
O324 Zn323 1.962 . S
O324 C329 1.254 . S
O325 Zn322 2.031 . S
O325 C329 1.269 . S
O326 Zn323 1.986 . S
O326 C333 1.262 . S
O327 Zn322 2.049 . S
O327 C335 1.260 . S
O328 Zn323 1.996 . S
O328 C335 1.257 . S
C329 O324 1.254 . S
C329 O325 1.269 . S
C330 O331 1.249 . S
C330 O332 1.270 . S
O331 Zn323 1.943 . S
O331 C330 1.249 . S
O332 Zn322 2.067 . S
O332 C330 1.270 . S
C333 O326 1.262 . S
C333 O334 1.232 . S
O334 C333 1.232 . S
C335 O327 1.260 . S
C335 O328 1.257 . S
Zn336 O339 2.031 . S
Zn336 O341 2.049 . S
Zn336 O346 2.067 . S
Zn337 O338 1.962 . S
Zn337 O340 1.986 . S
Zn337 O342 1.996 . S
Zn337 O345 1.943 . S
O338 Zn337 1.962 . S
O338 C343 1.254 . S
O339 Zn336 2.031 . S
O339 C343 1.269 . S
O340 Zn337 1.986 . S
O340 C347 1.262 . S
O341 Zn336 2.049 . S
O341 C349 1.260 . S
O342 Zn337 1.996 . S
O342 C349 1.257 . S
C343 O338 1.254 . S
C343 O339 1.269 . S
C344 O345 1.249 . S
C344 O346 1.270 . S
O345 Zn337 1.943 . S
O345 C344 1.249 . S
O346 Zn336 2.067 . S
O346 C344 1.270 . S
C347 O340 1.262 . S
C347 O348 1.232 . S
O348 C347 1.232 . S
C349 O341 1.260 . S
C349 O342 1.257 . S
Zn350 O353 2.031 . S
Zn350 O355 2.049 . S
Zn350 O360 2.067 . S
Zn351 O352 1.962 . S
Zn351 O354 1.986 . S
Zn351 O356 1.996 . S
Zn351 O359 1.943 . S
O352 Zn351 1.962 . S
O352 C357 1.254 . S
O353 Zn350 2.031 . S
O353 C357 1.269 . S
O354 Zn351 1.986 . S
O354 C361 1.262 . S
O355 Zn350 2.049 . S
O355 C363 1.260 . S
O356 Zn351 1.996 . S
O356 C363 1.257 . S
C357 O352 1.254 . S
C357 O353 1.269 . S
C358 O359 1.249 . S
C358 O360 1.270 . S
O359 Zn351 1.943 . S
O359 C358 1.249 . S
O360 Zn350 2.067 . S
O360 C358 1.270 . S
C361 O354 1.262 . S
C361 O362 1.232 . S
O362 C361 1.232 . S
C363 O355 1.260 . S
C363 O356 1.257 . S
Zn364 O367 2.031 . S
Zn364 O369 2.049 . S
Zn364 O374 2.067 . S
Zn365 O366 1.962 . S
Zn365 O368 1.986 . S
Zn365 O370 1.996 . S
Zn365 O373 1.943 . S
O366 Zn365 1.962 . S
O366 C371 1.254 . S
O367 Zn364 2.031 . S
O367 C371 1.269 . S
O368 Zn365 1.986 . S
O368 C375 1.262 . S
O369 Zn364 2.049 . S
O369 C377 1.260 . S
O370 Zn365 1.996 . S
O370 C377 1.257 . S
C371 O366 1.254 . S
C371 O367 1.269 . S
C372 O373 1.249 . S
C372 O374 1.270 . S
O373 Zn365 1.943 . S
O373 C372 1.249 . S
O374 Zn364 2.067 . S
O374 C372 1.270 . S
C375 O368 1.262 . S
C375 O376 1.232 . S
O376 C375 1.232 . S
C377 O369 1.260 . S
C377 O370 1.257 . S
Zn378 O381 2.031 . S
Zn378 O383 2.049 . S
Zn378 O388 2.067 . S
Zn379 O380 1.962 . S
Zn379 O382 1.986 . S
Zn379 O384 1.996 . S
Zn379 O387 1.943 . S
O380 Zn379 1.962 . S
O380 C385 1.254 . S
O381 Zn378 2.031 . S
O381 C385 1.269 . S
O382 Zn379 1.986 . S
O382 C389 1.262 . S
O383 Zn378 2.049 . S
O383 C391 1.260 . S
O384 Zn379 1.996 . S
O384 C391 1.257 . S
C385 O380 1.254 . S
C385 O381 1.269 . S
C386 O387 1.249 . S
C386 O388 1.270 . S
O387 Zn379 1.943 . S
O387 C386 1.249 . S
O388 Zn378 2.067 . S
O388 C386 1.270 . S
C389 O382 1.262 . S
C389 O390 1.232 . S
O390 C389 1.232 . S
C391 O383 1.260 . S
C391 O384 1.257 . S
Zn392 O395 2.031 . S
Zn392 O397 2.049 . S
Zn392 O402 2.067 . S
Zn393 O394 1.962 . S
Zn393 O396 1.986 . S
Zn393 O398 1.996 . S
Zn393 O401 1.943 . S
O394 Zn393 1.962 . S
O394 C399 1.254 . S
O395 Zn392 2.031 . S
O395 C399 1.269 . S
O396 Zn393 1.986 . S
O396 C403 1.262 . S
O397 Zn392 2.049 . S
O397 C405 1.260 . S
O398 Zn393 1.996 . S
O398 C405 1.257 . S
C399 O394 1.254 . S
C399 O395 1.269 . S
C400 O401 1.249 . S
C400 O402 1.270 . S
O401 Zn393 1.943 . S
O401 C400 1.249 . S
O402 Zn392 2.067 . S
O402 C400 1.270 . S
C403 O396 1.262 . S
C403 O404 1.232 . S
O404 C403 1.232 . S
C405 O397 1.260 . S
C405 O398 1.257 . S
Zn406 O409 2.031 . S
Zn406 O411 2.049 . S
Zn406 O416 2.067 . S
Zn407 O408 1.962 . S
Zn407 O410 1.986 . S
Zn407 O412 1.996 . S
Zn407 O415 1.943 . S
O408 Zn407 1.962 . S
O408 C413 1.254 . S
O409 Zn406 2.031 . S
O409 C413 1.269 . S
O410 Zn407 1.986 . S
O410 C417 1.262 . S
O411 Zn406 2.049 . S
O411 C419 1.260 . S
O412 Zn407 1.996 . S
O412 C419 1.257 . S
C413 O408 1.254 . S
C413 O409 1.269 . S
C414 O415 1.249 . S
C414 O416 1.270 . S
O415 Zn407 1.943 . S
O415 C414 1.249 . S
O416 Zn406 2.067 . S
O416 C414 1.270 . S
C417 O410 1.262 . S
C417 O418 1.232 . S
O418 C417 1.232 . S
C419 O411 1.260 . S
C419 O412 1.257 . S
Zn420 O423 2.031 . S
Zn420 O425 2.049 . S
Zn420 O430 2.067 . S
Zn421 O422 1.962 . S
Zn421 O424 1.986 . S
Zn421 O426 1.996 . S
Zn421 O429 1.943 . S
O422 Zn421 1.962 . S
O422 C427 1.254 . S
O423 Zn420 2.031 . S
O423 C427 1.269 . S
O424 Zn421 1.986 . S
O424 C431 1.262 . S
O425 Zn420 2.049 . S
O425 C433 1.260 . S
O426 Zn421 1.996 . S
O426 C433 1.257 . S
C427 O422 1.254 . S
C427 O423 1.269 . S
C428 O429 1.249 . S
C428 O430 1.270 . S
O429 Zn421 1.943 . S
O429 C428 1.249 . S
O430 Zn420 2.067 . S
O430 C428 1.270 . S
C431 O424 1.262 . S
C431 O432 1.232 . S
O432 C431 1.232 . S
C433 O425 1.260 . S
C433 O426 1.257 . S
Zn434 O437 2.031 . S
Zn434 O439 2.049 . S
Zn434 O444 2.067 . S
Zn435 O436 1.962 . S
Zn435 O438 1.986 . S
Zn435 O440 1.996 . S
Zn435 O443 1.943 . S
O436 Zn435 1.962 . S
O436 C441 1.254 . S
O437 Zn434 2.031 . S
O437 C441 1.269 . S
O438 Zn435 1.986 . S
O438 C445 1.262 . S
O439 Zn434 2.049 . S
O439 C447 1.260 . S
O440 Zn435 1.996 . S
O440 C447 1.257 . S
C441 O436 1.254 . S
C441 O437 1.269 . S
C442 O443 1.249 . S
C442 O444 1.270 . S
O443 Zn435 1.943 . S
O443 C442 1.249 . S
O444 Zn434 2.067 . S
O444 C442 1.270 . S
C445 O438 1.262 . S
C445 O446 1.232 . S
O446 C445 1.232 . S
C447 O439 1.260 . S
C447 O440 1.257 . S
Zn448 O451 2.031 . S
Zn448 O453 2.049 . S
Zn448 O458 2.067 . S
Zn449 O450 1.962 . S
Zn449 O452 1.986 . S
Zn449 O454 1.996 . S
Zn449 O457 1.943 . S
O450 Zn449 1.962 . S
O450 C455 1.254 . S
O451 Zn448 2.031 . S
O451 C455 1.269 . S
O452 Zn449 1.986 . S
O452 C459 1.262 . S
O453 Zn448 2.049 . S
O453 C461 1.260 . S
O454 Zn449 1.996 . S
O454 C461 1.257 . S
C455 O450 1.254 . S
C455 O451 1.269 . S
C456 O457 1.249 . S
C456 O458 1.270 . S
O457 Zn449 1.943 . S
O457 C456 1.249 . S
O458 Zn448 2.067 . S
O458 C456 1.270 . S
C459 O452 1.262 . S
C459 O460 1.232 . S
O460 C459 1.232 . S
C461 O453 1.260 . S
C461 O454 1.257 . S
Zn462 O465 2.031 . S
Zn462 O467 2.049 . S
Zn462 O472 2.067 . S
Zn463 O464 1.962 . S
Zn463 O466 1.986 . S
Zn463 O468 1.996 . S
Zn463 O471 1.943 . S
O464 Zn463 1.962 . S
O464 C469 1.254 . S
O465 Zn462 2.031 . S
O465 C469 1.269 . S
O466 Zn463 1.986 . S
O466 C473 1.262 . S
O467 Zn462 2.049 . S
O467 C475 1.260 . S
O468 Zn463 1.996 . S
O468 C475 1.257 . S
C469 O464 1.254 . S
C469 O465 1.269 . S
C470 O471 1.249 . S
C470 O472 1.270 . S
O471 Zn463 1.943 . S
O471 C470 1.249 . S
O472 Zn462 2.067 . S
O472 C470 1.270 . S
C473 O466 1.262 . S
C473 O474 1.232 . S
O474 C473 1.232 . S
C475 O467 1.260 . S
C475 O468 1.257 . S
Zn476 O479 2.031 . S
Zn476 O481 2.049 . S
Zn476 O486 2.067 . S
Zn477 O478 1.962 . S
Zn477 O480 1.986 . S
Zn477 O482 1.996 . S
Zn477 O485 1.943 . S
O478 Zn477 1.962 . S
O478 C483 1.254 . S
O479 Zn476 2.031 . S
O479 C483 1.269 . S
O480 Zn477 1.986 . S
O480 C487 1.262 . S
O481 Zn476 2.049 . S
O481 C489 1.260 . S
O482 Zn477 1.996 . S
O482 C489 1.257 . S
C483 O478 1.254 . S
C483 O479 1.269 . S
C484 O485 1.249 . S
C484 O486 1.270 . S
O485 Zn477 1.943 . S
O485 C484 1.249 . S
O486 Zn476 2.067 . S
O486 C484 1.270 . S
C487 O480 1.262 . S
C487 O488 1.232 . S
O488 C487 1.232 . S
C489 O481 1.260 . S
C489 O482 1.257 . S
Zn490 O493 2.031 . S
Zn490 O495 2.049 . S
Zn490 O500 2.067 . S
Zn491 O492 1.962 . S
Zn491 O494 1.986 . S
Zn491 O496 1.996 . S
Zn491 O499 1.943 . S
O492 Zn491 1.962 . S
O492 C497 1.254 . S
O493 Zn490 2.031 . S
O493 C497 1.269 . S
O494 Zn491 1.986 . S
O494 C501 1.262 . S
O495 Zn490 2.049 . S
O495 C503 1.260 . S
O496 Zn491 1.996 . S
O496 C503 1.257 . S
C497 O492 1.254 . S
C497 O493 1.269 . S
C498 O499 1.249 . S
C498 O500 1.270 . S
O499 Zn491 1.943 . S
O499 C498 1.249 . S
O500 Zn490 2.067 . S
O500 C498 1.270 . S
C501 O494 1.262 . S
C501 O502 1.232 . S
O502 C501 1.232 . S
C503 O495 1.260 . S
C503 O496 1.257 . S
C504 C505 1.363 . S
C504 C510 1.379 . S
C504 N512 1.356 . S
C505 C504 1.363 . S
C505 C511 1.363 . S
C506 C507 1.363 . S
C506 C511 1.379 . S
C506 N513 1.356 . S
C507 C506 1.363 . S
C507 C510 1.363 . S
N508 C510 1.356 . S
N508 H520 0.984 . S
N508 H521 0.985 . S
N509 C511 1.356 . S
N509 H514 0.984 . S
N509 H515 0.985 . S
C510 C504 1.379 . S
C510 C507 1.363 . S
C510 N508 1.356 . S
C511 C505 1.363 . S
C511 C506 1.379 . S
C511 N509 1.356 . S
N512 C504 1.356 . S
N512 H518 0.984 . S
N512 H519 0.984 . S
N513 C506 1.356 . S
N513 H516 0.984 . S
N513 H517 0.985 . S
H514 N509 0.984 . S
H515 N509 0.985 . S
H516 N513 0.984 . S
H517 N513 0.985 . S
H518 N512 0.984 . S
H519 N512 0.984 . S
H520 N508 0.984 . S
H521 N508 0.985 . S
C522 C523 1.363 . S
C522 C528 1.379 . S
C522 N530 1.356 . S
C523 C522 1.363 . S
C523 C529 1.363 . S
C524 C525 1.363 . S
C524 C529 1.379 . S
C524 N531 1.356 . S
C525 C524 1.363 . S
C525 C528 1.363 . S
N526 C528 1.356 . S
N526 H538 0.984 . S
N526 H539 0.985 . S
N527 C529 1.356 . S
N527 H532 0.984 . S
N527 H533 0.985 . S
C528 C522 1.379 . S
C528 C525 1.363 . S
C528 N526 1.356 . S
C529 C523 1.363 . S
C529 C524 1.379 . S
C529 N527 1.356 . S
N530 C522 1.356 . S
N530 H536 0.984 . S
N530 H537 0.984 . S
N531 C524 1.356 . S
N531 H534 0.984 . S
N531 H535 0.985 . S
H532 N527 0.984 . S
H533 N527 0.985 . S
H534 N531 0.984 . S
H535 N531 0.985 . S
H536 N530 0.984 . S
H537 N530 0.984 . S
H538 N526 0.984 . S
H539 N526 0.985 . S
C540 C541 1.363 . S
C540 C546 1.379 . S
C540 N548 1.356 . S
C541 C540 1.363 . S
C541 C547 1.363 . S
C542 C543 1.363 . S
C542 C547 1.379 . S
C542 N549 1.356 . S
C543 C542 1.363 . S
C543 C546 1.363 . S
N544 C546 1.356 . S
N544 H556 0.984 . S
N544 H557 0.985 . S
N545 C547 1.356 . S
N545 H550 0.984 . S
N545 H551 0.985 . S
C546 C540 1.379 . S
C546 C543 1.363 . S
C546 N544 1.356 . S
C547 C541 1.363 . S
C547 C542 1.379 . S
C547 N545 1.356 . S
N548 C540 1.356 . S
N548 H554 0.984 . S
N548 H555 0.984 . S
N549 C542 1.356 . S
N549 H552 0.984 . S
N549 H553 0.985 . S
H550 N545 0.984 . S
H551 N545 0.985 . S
H552 N549 0.984 . S
H553 N549 0.985 . S
H554 N548 0.984 . S
H555 N548 0.984 . S
H556 N544 0.984 . S
H557 N544 0.985 . S
C558 C559 1.363 . S
C558 C564 1.379 . S
C558 N566 1.356 . S
C559 C558 1.363 . S
C559 C565 1.363 . S
C560 C561 1.363 . S
C560 C565 1.379 . S
C560 N567 1.356 . S
C561 C560 1.363 . S
C561 C564 1.363 . S
N562 C564 1.356 . S
N562 H574 0.984 . S
N562 H575 0.985 . S
N563 C565 1.356 . S
N563 H568 0.984 . S
N563 H569 0.985 . S
C564 C558 1.379 . S
C564 C561 1.363 . S
C564 N562 1.356 . S
C565 C559 1.363 . S
C565 C560 1.379 . S
C565 N563 1.356 . S
N566 C558 1.356 . S
N566 H572 0.984 . S
N566 H573 0.984 . S
N567 C560 1.356 . S
N567 H570 0.984 . S
N567 H571 0.985 . S
H568 N563 0.984 . S
H569 N563 0.985 . S
H570 N567 0.984 . S
H571 N567 0.985 . S
H572 N566 0.984 . S
H573 N566 0.984 . S
H574 N562 0.984 . S
H575 N562 0.985 . S
C576 C577 1.363 . S
C576 C582 1.379 . S
C576 N584 1.356 . S
C577 C576 1.363 . S
C577 C583 1.363 . S
C578 C579 1.363 . S
C578 C583 1.379 . S
C578 N585 1.356 . S
C579 C578 1.363 . S
C579 C582 1.363 . S
N580 C582 1.356 . S
N580 H592 0.984 . S
N580 H593 0.985 . S
N581 C583 1.356 . S
N581 H586 0.984 . S
N581 H587 0.985 . S
C582 C576 1.379 . S
C582 C579 1.363 . S
C582 N580 1.356 . S
C583 C577 1.363 . S
C583 C578 1.379 . S
C583 N581 1.356 . S
N584 C576 1.356 . S
N584 H590 0.984 . S
N584 H591 0.984 . S
N585 C578 1.356 . S
N585 H588 0.984 . S
N585 H589 0.985 . S
H586 N581 0.984 . S
H587 N581 0.985 . S
H588 N585 0.984 . S
H589 N585 0.985 . S
H590 N584 0.984 . S
H591 N584 0.984 . S
H592 N580 0.984 . S
H593 N580 0.985 . S
C594 C595 1.363 . S
C594 C600 1.379 . S
C594 N602 1.356 . S
C595 C594 1.363 . S
C595 C601 1.363 . S
C596 C597 1.363 . S
C596 C601 1.379 . S
C596 N603 1.356 . S
C597 C596 1.363 . S
C597 C600 1.363 . S
N598 C600 1.356 . S
N598 H610 0.984 . S
N598 H611 0.985 . S
N599 C601 1.356 . S
N599 H604 0.984 . S
N599 H605 0.985 . S
C600 C594 1.379 . S
C600 C597 1.363 . S
C600 N598 1.356 . S
C601 C595 1.363 . S
C601 C596 1.379 . S
C601 N599 1.356 . S
N602 C594 1.356 . S
N602 H608 0.984 . S
N602 H609 0.984 . S
N603 C596 1.356 . S
N603 H606 0.984 . S
N603 H607 0.985 . S
H604 N599 0.984 . S
H605 N599 0.985 . S
H606 N603 0.984 . S
H607 N603 0.985 . S
H608 N602 0.984 . S
H609 N602 0.984 . S
H610 N598 0.984 . S
H611 N598 0.985 . S
C612 C613 1.363 . S
C612 C618 1.379 . S
C612 N620 1.356 . S
C613 C612 1.363 . S
C613 C619 1.363 . S
C614 C615 1.363 . S
C614 C619 1.379 . S
C614 N621 1.356 . S
C615 C614 1.363 . S
C615 C618 1.363 . S
N616 C618 1.356 . S
N616 H628 0.984 . S
N616 H629 0.985 . S
N617 C619 1.356 . S
N617 H622 0.984 . S
N617 H623 0.985 . S
C618 C612 1.379 . S
C618 C615 1.363 . S
C618 N616 1.356 . S
C619 C613 1.363 . S
C619 C614 1.379 . S
C619 N617 1.356 . S
N620 C612 1.356 . S
N620 H626 0.984 . S
N620 H627 0.984 . S
N621 C614 1.356 . S
N621 H624 0.984 . S
N621 H625 0.985 . S
H622 N617 0.984 . S
H623 N617 0.985 . S
H624 N621 0.984 . S
H625 N621 0.985 . S
H626 N620 0.984 . S
H627 N620 0.984 . S
H628 N616 0.984 . S
H629 N616 0.985 . S
C630 C631 1.363 . S
C630 C636 1.379 . S
C630 N638 1.356 . S
C631 C630 1.363 . S
C631 C637 1.363 . S
C632 C633 1.363 . S
C632 C637 1.379 . S
C632 N639 1.356 . S
C633 C632 1.363 . S
C633 C636 1.363 . S
N634 C636 1.356 . S
N634 H646 0.984 . S
N634 H647 0.985 . S
N635 C637 1.356 . S
N635 H640 0.984 . S
N635 H641 0.985 . S
C636 C630 1.379 . S
C636 C633 1.363 . S
C636 N634 1.356 . S
C637 C631 1.363 . S
C637 C632 1.379 . S
C637 N635 1.356 . S
N638 C630 1.356 . S
N638 H644 0.984 . S
N638 H645 0.984 . S
N639 C632 1.356 . S
N639 H642 0.984 . S
N639 H643 0.985 . S
H640 N635 0.984 . S
H641 N635 0.985 . S
H642 N639 0.984 . S
H643 N639 0.985 . S
H644 N638 0.984 . S
H645 N638 0.984 . S
H646 N634 0.984 . S
H647 N634 0.985 . S
C648 C649 1.363 . S
C648 C654 1.379 . S
C648 N656 1.356 . S
C649 C648 1.363 . S
C649 C655 1.363 . S
C650 C651 1.363 . S
C650 C655 1.379 . S
C650 N657 1.356 . S
C651 C650 1.363 . S
C651 C654 1.363 . S
N652 C654 1.356 . S
N652 H664 0.984 . S
N652 H665 0.985 . S
N653 C655 1.356 . S
N653 H658 0.984 . S
N653 H659 0.985 . S
C654 C648 1.379 . S
C654 C651 1.363 . S
C654 N652 1.356 . S
C655 C649 1.363 . S
C655 C650 1.379 . S
C655 N653 1.356 . S
N656 C648 1.356 . S
N656 H662 0.984 . S
N656 H663 0.984 . S
N657 C650 1.356 . S
N657 H660 0.984 . S
N657 H661 0.985 . S
H658 N653 0.984 . S
H659 N653 0.985 . S
H660 N657 0.984 . S
H661 N657 0.985 . S
H662 N656 0.984 . S
H663 N656 0.984 . S
H664 N652 0.984 . S
H665 N652 0.985 . S
C666 C667 1.363 . S
C666 C672 1.379 . S
C666 N674 1.356 . S
C667 C666 1.363 . S
C667 C673 1.363 . S
C668 C669 1.363 . S
C668 C673 1.379 . S
C668 N675 1.356 . S
C669 C668 1.363 . S
C669 C672 1.363 . S
N670 C672 1.356 . S
N670 H682 0.984 . S
N670 H683 0.985 . S
N671 C673 1.356 . S
N671 H676 0.984 . S
N671 H677 0.985 . S
C672 C666 1.379 . S
C672 C669 1.363 . S
C672 N670 1.356 . S
C673 C667 1.363 . S
C673 C668 1.379 . S
C673 N671 1.356 . S
N674 C666 1.356 . S
N674 H680 0.984 . S
N674 H681 0.984 . S
N675 C668 1.356 . S
N675 H678 0.984 . S
N675 H679 0.985 . S
H676 N671 0.984 . S
H677 N671 0.985 . S
H678 N675 0.984 . S
H679 N675 0.985 . S
H680 N674 0.984 . S
H681 N674 0.984 . S
H682 N670 0.984 . S
H683 N670 0.985 . S
C684 C685 1.363 . S
C684 C690 1.379 . S
C684 N692 1.356 . S
C685 C684 1.363 . S
C685 C691 1.363 . S
C686 C687 1.363 . S
C686 C691 1.379 . S
C686 N693 1.356 . S
C687 C686 1.363 . S
C687 C690 1.363 . S
N688 C690 1.356 . S
N688 H700 0.984 . S
N688 H701 0.985 . S
N689 C691 1.356 . S
N689 H694 0.984 . S
N689 H695 0.985 . S
C690 C684 1.379 . S
C690 C687 1.363 . S
C690 N688 1.356 . S
C691 C685 1.363 . S
C691 C686 1.379 . S
C691 N689 1.356 . S
N692 C684 1.356 . S
N692 H698 0.984 . S
N692 H699 0.984 . S
N693 C686 1.356 . S
N693 H696 0.984 . S
N693 H697 0.985 . S
H694 N689 0.984 . S
H695 N689 0.985 . S
H696 N693 0.984 . S
H697 N693 0.985 . S
H698 N692 0.984 . S
H699 N692 0.984 . S
H700 N688 0.984 . S
H701 N688 0.985 . S
C702 C703 1.363 . S
C702 C708 1.379 . S
C702 N710 1.356 . S
C703 C702 1.363 . S
C703 C709 1.363 . S
C704 C705 1.363 . S
C704 C709 1.379 . S
C704 N711 1.356 . S
C705 C704 1.363 . S
C705 C708 1.363 . S
N706 C708 1.356 . S
N706 H718 0.984 . S
N706 H719 0.985 . S
N707 C709 1.356 . S
N707 H712 0.984 . S
N707 H713 0.985 . S
C708 C702 1.379 . S
C708 C705 1.363 . S
C708 N706 1.356 . S
C709 C703 1.363 . S
C709 C704 1.379 . S
C709 N707 1.356 . S
N710 C702 1.356 . S
N710 H716 0.984 . S
N710 H717 0.984 . S
N711 C704 1.356 . S
N711 H714 0.984 . S
N711 H715 0.985 . S
H712 N707 0.984 . S
H713 N707 0.985 . S
H714 N711 0.984 . S
H715 N711 0.985 . S
H716 N710 0.984 . S
H717 N710 0.984 . S
H718 N706 0.984 . S
H719 N706 0.985 . S
C720 C721 1.363 . S
C720 C726 1.379 . S
C720 N728 1.356 . S
C721 C720 1.363 . S
C721 C727 1.363 . S
C722 C723 1.363 . S
C722 C727 1.379 . S
C722 N729 1.356 . S
C723 C722 1.363 . S
C723 C726 1.363 . S
N724 C726 1.356 . S
N724 H736 0.984 . S
N724 H737 0.985 . S
N725 C727 1.356 . S
N725 H730 0.984 . S
N725 H731 0.985 . S
C726 C720 1.379 . S
C726 C723 1.363 . S
C726 N724 1.356 . S
C727 C721 1.363 . S
C727 C722 1.379 . S
C727 N725 1.356 . S
N728 C720 1.356 . S
N728 H734 0.984 . S
N728 H735 0.984 . S
N729 C722 1.356 . S
N729 H732 0.984 . S
N729 H733 0.985 . S
H730 N725 0.984 . S
H731 N725 0.985 . S
H732 N729 0.984 . S
H733 N729 0.985 . S
H734 N728 0.984 . S
H735 N728 0.984 . S
H736 N724 0.984 . S
H737 N724 0.985 . S
C738 C739 1.363 . S
C738 C744 1.379 . S
C738 N746 1.356 . S
C739 C738 1.363 . S
C739 C745 1.363 . S
C740 C741 1.363 . S
C740 C745 1.379 . S
C740 N747 1.356 . S
C741 C740 1.363 . S
C741 C744 1.363 . S
N742 C744 1.356 . S
N742 H754 0.984 . S
N742 H755 0.985 . S
N743 C745 1.356 . S
N743 H748 0.984 . S
N743 H749 0.985 . S
C744 C738 1.379 . S
C744 C741 1.363 . S
C744 N742 1.356 . S
C745 C739 1.363 . S
C745 C740 1.379 . S
C745 N743 1.356 . S
N746 C738 1.356 . S
N746 H752 0.984 . S
N746 H753 0.984 . S
N747 C740 1.356 . S
N747 H750 0.984 . S
N747 H751 0.985 . S
H748 N743 0.984 . S
H749 N743 0.985 . S
H750 N747 0.984 . S
H751 N747 0.985 . S
H752 N746 0.984 . S
H753 N746 0.984 . S
H754 N742 0.984 . S
H755 N742 0.985 . S
C756 C757 1.363 . S
C756 C762 1.379 . S
C756 N764 1.356 . S
C757 C756 1.363 . S
C757 C763 1.363 . S
C758 C759 1.363 . S
C758 C763 1.379 . S
C758 N765 1.356 . S
C759 C758 1.363 . S
C759 C762 1.363 . S
N760 C762 1.356 . S
N760 H772 0.984 . S
N760 H773 0.985 . S
N761 C763 1.356 . S
N761 H766 0.984 . S
N761 H767 0.985 . S
C762 C756 1.379 . S
C762 C759 1.363 . S
C762 N760 1.356 . S
C763 C757 1.363 . S
C763 C758 1.379 . S
C763 N761 1.356 . S
N764 C756 1.356 . S
N764 H770 0.984 . S
N764 H771 0.984 . S
N765 C758 1.356 . S
N765 H768 0.984 . S
N765 H769 0.985 . S
H766 N761 0.984 . S
H767 N761 0.985 . S
H768 N765 0.984 . S
H769 N765 0.985 . S
H770 N764 0.984 . S
H771 N764 0.984 . S
H772 N760 0.984 . S
H773 N760 0.985 . S
C774 C775 1.363 . S
C774 C780 1.379 . S
C774 N782 1.356 . S
C775 C774 1.363 . S
C775 C781 1.363 . S
C776 C777 1.363 . S
C776 C781 1.379 . S
C776 N783 1.356 . S
C777 C776 1.363 . S
C777 C780 1.363 . S
N778 C780 1.356 . S
N778 H790 0.984 . S
N778 H791 0.985 . S
N779 C781 1.356 . S
N779 H784 0.984 . S
N779 H785 0.985 . S
C780 C774 1.379 . S
C780 C777 1.363 . S
C780 N778 1.356 . S
C781 C775 1.363 . S
C781 C776 1.379 . S
C781 N779 1.356 . S
N782 C774 1.356 . S
N782 H788 0.984 . S
N782 H789 0.984 . S
N783 C776 1.356 . S
N783 H786 0.984 . S
N783 H787 0.985 . S
H784 N779 0.984 . S
H785 N779 0.985 . S
H786 N783 0.984 . S
H787 N783 0.985 . S
H788 N782 0.984 . S
H789 N782 0.984 . S
H790 N778 0.984 . S
H791 N778 0.985 . S
C792 C793 1.363 . S
C792 C798 1.379 . S
C792 N800 1.356 . S
C793 C792 1.363 . S
C793 C799 1.363 . S
C794 C795 1.363 . S
C794 C799 1.379 . S
C794 N801 1.356 . S
C795 C794 1.363 . S
C795 C798 1.363 . S
N796 C798 1.356 . S
N796 H808 0.984 . S
N796 H809 0.985 . S
N797 C799 1.356 . S
N797 H802 0.984 . S
N797 H803 0.985 . S
C798 C792 1.379 . S
C798 C795 1.363 . S
C798 N796 1.356 . S
C799 C793 1.363 . S
C799 C794 1.379 . S
C799 N797 1.356 . S
N800 C792 1.356 . S
N800 H806 0.984 . S
N800 H807 0.984 . S
N801 C794 1.356 . S
N801 H804 0.984 . S
N801 H805 0.985 . S
H802 N797 0.984 . S
H803 N797 0.985 . S
H804 N801 0.984 . S
H805 N801 0.985 . S
H806 N800 0.984 . S
H807 N800 0.984 . S
H808 N796 0.984 . S
H809 N796 0.985 . S
C810 C811 1.363 . S
C810 C816 1.379 . S
C810 N818 1.356 . S
C811 C810 1.363 . S
C811 C817 1.363 . S
C812 C813 1.363 . S
C812 C817 1.379 . S
C812 N819 1.356 . S
C813 C812 1.363 . S
C813 C816 1.363 . S
N814 C816 1.356 . S
N814 H826 0.984 . S
N814 H827 0.985 . S
N815 C817 1.356 . S
N815 H820 0.984 . S
N815 H821 0.985 . S
C816 C810 1.379 . S
C816 C813 1.363 . S
C816 N814 1.356 . S
C817 C811 1.363 . S
C817 C812 1.379 . S
C817 N815 1.356 . S
N818 C810 1.356 . S
N818 H824 0.984 . S
N818 H825 0.984 . S
N819 C812 1.356 . S
N819 H822 0.984 . S
N819 H823 0.985 . S
H820 N815 0.984 . S
H821 N815 0.985 . S
H822 N819 0.984 . S
H823 N819 0.985 . S
H824 N818 0.984 . S
H825 N818 0.984 . S
H826 N814 0.984 . S
H827 N814 0.985 . S
C828 C829 1.363 . S
C828 C834 1.379 . S
C828 N836 1.356 . S
C829 C828 1.363 . S
C829 C835 1.363 1_455 S
C830 C831 1.363 . S
C830 C835 1.379 . S
C830 N837 1.356 . S
C831 C830 1.363 . S
C831 C834 1.363 1_655 S
N832 C834 1.356 . S
N832 H844 0.984 . S
N832 H845 0.985 . S
N833 C835 1.356 . S
N833 H838 0.984 . S
N833 H839 0.985 . S
C834 C828 1.379 . S
C834 C831 1.363 1_455 S
C834 N832 1.356 . S
C835 C829 1.363 1_655 S
C835 C830 1.379 . S
C835 N833 1.356 . S
N836 C828 1.356 . S
N836 H842 0.984 . S
N836 H843 0.984 . S
N837 C830 1.356 . S
N837 H840 0.984 . S
N837 H841 0.985 . S
H838 N833 0.984 . S
H839 N833 0.985 . S
H840 N837 0.984 . S
H841 N837 0.985 . S
H842 N836 0.984 . S
H843 N836 0.984 . S
H844 N832 0.984 . S
H845 N832 0.985 . S
C846 C847 1.363 . S
C846 C852 1.379 . S
C846 N854 1.356 . S
C847 C846 1.363 . S
C847 C853 1.363 . S
C848 C849 1.363 . S
C848 C853 1.379 . S
C848 N855 1.356 . S
C849 C848 1.363 . S
C849 C852 1.363 . S
N850 C852 1.356 . S
N850 H862 0.984 . S
N850 H863 0.985 . S
N851 C853 1.356 . S
N851 H856 0.984 . S
N851 H857 0.985 . S
C852 C846 1.379 . S
C852 C849 1.363 . S
C852 N850 1.356 . S
C853 C847 1.363 . S
C853 C848 1.379 . S
C853 N851 1.356 . S
N854 C846 1.356 . S
N854 H860 0.984 . S
N854 H861 0.984 . S
N855 C848 1.356 . S
N855 H858 0.984 . S
N855 H859 0.985 . S
H856 N851 0.984 . S
H857 N851 0.985 . S
H858 N855 0.984 . S
H859 N855 0.985 . S
H860 N854 0.984 . S
H861 N854 0.984 . S
H862 N850 0.984 . S
H863 N850 0.985 . S
C864 C865 1.363 . S
C864 C870 1.379 . S
C864 N872 1.356 . S
C865 C864 1.363 . S
C865 C871 1.363 . S
C866 C867 1.363 . S
C866 C871 1.379 . S
C866 N873 1.356 . S
C867 C866 1.363 . S
C867 C870 1.363 . S
N868 C870 1.356 . S
N868 H880 0.984 . S
N868 H881 0.985 . S
N869 C871 1.356 . S
N869 H874 0.984 . S
N869 H875 0.967 1_545 S
C870 C864 1.379 . S
C870 C867 1.363 . S
C870 N868 1.356 . S
C871 C865 1.363 . S
C871 C866 1.379 . S
C871 N869 1.356 . S
N872 C864 1.356 . S
N872 H878 0.984 . S
N872 H879 0.984 . S
N873 C866 1.356 . S
N873 H876 0.984 . S
N873 H877 0.985 . S
H874 N869 0.984 . S
H875 N869 0.967 1_565 S
H876 N873 0.984 . S
H877 N873 0.985 . S
H878 N872 0.984 . S
H879 N872 0.984 . S
H880 N868 0.984 . S
H881 N868 0.985 . S
C882 C883 1.363 . S
C882 C888 1.379 1_545 S
C882 N890 1.356 . S
C883 C882 1.363 . S
C883 C889 1.363 1_545 S
C884 C885 1.363 . S
C884 C889 1.379 . S
C884 N891 1.356 . S
C885 C884 1.363 . S
C885 C888 1.363 . S
N886 C888 1.356 . S
N886 H898 0.984 1_565 S
N886 H899 0.985 . S
N887 C889 1.356 . S
N887 H892 0.984 . S
N887 H893 0.985 . S
C888 C882 1.379 1_565 S
C888 C885 1.363 . S
C888 N886 1.356 . S
C889 C883 1.363 1_565 S
C889 C884 1.379 . S
C889 N887 1.356 . S
N890 C882 1.356 . S
N890 H896 0.984 . S
N890 H897 0.984 . S
N891 C884 1.356 . S
N891 H894 0.984 . S
N891 H895 0.985 . S
H892 N887 0.984 . S
H893 N887 0.985 . S
H894 N891 0.984 . S
H895 N891 0.985 . S
H896 N890 0.984 . S
H897 N890 0.984 . S
H898 N886 0.984 1_545 S
H899 N886 0.985 . S
C900 C901 1.363 . S
C900 C906 1.379 . S
C900 N908 1.356 . S
C901 C900 1.363 . S
C901 C907 1.363 . S
C902 C903 1.363 . S
C902 C907 1.379 . S
C902 N909 1.356 . S
C903 C902 1.363 . S
C903 C906 1.363 . S
N904 C906 1.356 . S
N904 H916 0.984 . S
N904 H917 0.985 . S
N905 C907 1.356 . S
N905 H910 0.984 . S
N905 H911 0.985 . S
C906 C900 1.379 . S
C906 C903 1.363 . S
C906 N904 1.356 . S
C907 C901 1.363 . S
C907 C902 1.379 . S
C907 N905 1.356 . S
N908 C900 1.356 . S
N908 H914 0.984 . S
N908 H915 0.984 . S
N909 C902 1.356 . S
N909 H912 0.984 . S
N909 H913 0.985 1_455 S
H910 N905 0.984 . S
H911 N905 0.985 . S
H912 N909 0.984 . S
H913 N909 0.985 1_655 S
H914 N908 0.984 . S
H915 N908 0.984 . S
H916 N904 0.984 . S
H917 N904 0.985 . S
C918 C919 1.363 . S
C918 C924 1.379 . S
C918 N926 1.356 . S
C919 C918 1.363 . S
C919 C925 1.363 . S
C920 C921 1.363 . S
C920 C925 1.379 . S
C920 N927 1.356 . S
C921 C920 1.363 . S
C921 C924 1.363 . S
N922 C924 1.356 . S
N922 H934 0.984 . S
N922 H935 0.985 . S
N923 C925 1.356 . S
N923 H928 0.984 . S
N923 H929 0.985 . S
C924 C918 1.379 . S
C924 C921 1.363 . S
C924 N922 1.356 . S
C925 C919 1.363 . S
C925 C920 1.379 . S
C925 N923 1.356 . S
N926 C918 1.356 . S
N926 H932 0.984 . S
N926 H933 0.984 . S
N927 C920 1.356 . S
N927 H930 0.984 . S
N927 H931 0.985 . S
H928 N923 0.984 . S
H929 N923 0.985 . S
H930 N927 0.984 . S
H931 N927 0.985 . S
H932 N926 0.984 . S
H933 N926 0.984 . S
H934 N922 0.984 . S
H935 N922 0.985 . S
C936 C937 1.363 . S
C936 C942 1.379 . S
C936 N944 1.356 . S
C937 C936 1.363 . S
C937 C943 1.363 . S
C938 C939 1.363 . S
C938 C943 1.379 . S
C938 N945 1.356 . S
C939 C938 1.363 . S
C939 C942 1.363 . S
N940 C942 1.356 . S
N940 H952 0.984 . S
N940 H953 0.985 . S
N941 C943 1.356 . S
N941 H946 0.984 . S
N941 H947 0.985 . S
C942 C936 1.379 . S
C942 C939 1.363 . S
C942 N940 1.356 . S
C943 C937 1.363 . S
C943 C938 1.379 . S
C943 N941 1.356 . S
N944 C936 1.356 . S
N944 H950 0.984 . S
N944 H951 0.984 . S
N945 C938 1.356 . S
N945 H948 0.984 . S
N945 H949 0.985 . S
H946 N941 0.984 . S
H947 N941 0.985 . S
H948 N945 0.984 . S
H949 N945 0.985 . S
H950 N944 0.984 . S
H951 N944 0.984 . S
H952 N940 0.984 . S
H953 N940 0.985 . S
C954 C955 1.363 . S
C954 C960 1.379 . S
C954 N962 1.356 . S
C955 C954 1.363 . S
C955 C961 1.363 . S
C956 C957 1.363 . S
C956 C961 1.379 . S
C956 N963 1.356 . S
C957 C956 1.363 . S
C957 C960 1.363 . S
N958 C960 1.356 . S
N958 H970 0.984 . S
N958 H971 0.985 . S
N959 C961 1.356 . S
N959 H964 0.984 . S
N959 H965 0.985 . S
C960 C954 1.379 . S
C960 C957 1.363 . S
C960 N958 1.356 . S
C961 C955 1.363 . S
C961 C956 1.379 . S
C961 N959 1.356 . S
N962 C954 1.356 . S
N962 H968 0.984 . S
N962 H969 0.984 . S
N963 C956 1.356 . S
N963 H966 0.984 . S
N963 H967 0.985 . S
H964 N959 0.984 . S
H965 N959 0.985 . S
H966 N963 0.984 . S
H967 N963 0.985 . S
H968 N962 0.984 . S
H969 N962 0.984 . S
H970 N958 0.984 . S
H971 N958 0.985 . S
C972 C973 1.362 1_565 S
C972 C978 1.379 . S
C972 N980 1.356 . S
C973 C972 1.362 1_545 S
C973 C979 1.364 . S
C974 C975 1.363 1_545 S
C974 C979 1.379 . S
C974 N981 1.356 . S
C975 C974 1.363 1_565 S
C975 C978 1.363 . S
N976 C978 1.356 . S
N976 H988 0.984 . S
N976 H989 0.985 . S
N977 C979 1.356 . S
N977 H982 0.984 . S
N977 H983 0.985 . S
C978 C972 1.379 . S
C978 C975 1.363 . S
C978 N976 1.356 . S
C979 C973 1.364 . S
C979 C974 1.379 . S
C979 N977 1.356 . S
N980 C972 1.356 . S
N980 H986 0.984 . S
N980 H987 0.984 . S
N981 C974 1.356 . S
N981 H984 0.980 1_545 S
N981 H985 0.985 . S
H982 N977 0.984 . S
H983 N977 0.985 . S
H984 N981 0.980 1_565 S
H985 N981 0.985 . S
H986 N980 0.984 . S
H987 N980 0.984 . S
H988 N976 0.984 . S
H989 N976 0.985 . S
C990 C991 1.363 . S
C990 C996 1.379 . S
C990 N998 1.356 . S
C991 C990 1.363 . S
C991 C997 1.363 . S
C992 C993 1.363 . S
C992 C997 1.379 . S
C992 N999 1.356 . S
C993 C992 1.363 . S
C993 C996 1.363 . S
N994 C996 1.356 . S
N994 H1006 0.984 . S
N994 H1007 0.985 . S
N995 C997 1.356 . S
N995 H1000 0.984 . S
N995 H1001 0.985 . S
C996 C990 1.379 . S
C996 C993 1.363 . S
C996 N994 1.356 . S
C997 C991 1.363 . S
C997 C992 1.379 . S
C997 N995 1.356 . S
N998 C990 1.356 . S
N998 H1004 0.984 1_545 S
N998 H1005 0.986 . S
N999 C992 1.356 . S
N999 H1002 0.984 . S
N999 H1003 0.985 . S
H1000 N995 0.984 . S
H1001 N995 0.985 . S
H1002 N999 0.984 . S
H1003 N999 0.985 . S
H1004 N998 0.984 1_565 S
H1005 N998 0.986 . S
H1006 N994 0.984 . S
H1007 N994 0.985 . S
C1008 C1009 1.363 1_655 S
C1008 C1014 1.379 . S
C1008 N1016 1.356 . S
C1009 C1008 1.363 1_455 S
C1009 C1015 1.363 . S
C1010 C1011 1.363 1_455 S
C1010 C1015 1.379 . S
C1010 N1017 1.356 . S
C1011 C1010 1.363 1_655 S
C1011 C1014 1.363 . S
N1012 C1014 1.356 . S
N1012 H1024 0.984 . S
N1012 H1025 0.985 . S
N1013 C1015 1.356 . S
N1013 H1018 0.984 . S
N1013 H1019 0.985 . S
C1014 C1008 1.379 . S
C1014 C1011 1.363 . S
C1014 N1012 1.356 . S
C1015 C1009 1.363 . S
C1015 C1010 1.379 . S
C1015 N1013 1.356 . S
N1016 C1008 1.356 . S
N1016 H1022 0.984 . S
N1016 H1023 0.984 . S
N1017 C1010 1.356 . S
N1017 H1020 0.984 1_455 S
N1017 H1021 0.985 . S
H1018 N1013 0.984 . S
H1019 N1013 0.985 . S
H1020 N1017 0.984 1_655 S
H1021 N1017 0.985 . S
H1022 N1016 0.984 . S
H1023 N1016 0.984 . S
H1024 N1012 0.984 . S
H1025 N1012 0.985 . S
C1026 C1027 1.363 . S
C1026 C1032 1.379 . S
C1026 N1034 1.356 . S
C1027 C1026 1.363 . S
C1027 C1033 1.363 . S
C1028 C1029 1.363 . S
C1028 C1033 1.379 . S
C1028 N1035 1.356 . S
C1029 C1028 1.363 . S
C1029 C1032 1.363 . S
N1030 C1032 1.356 . S
N1030 H1042 0.984 . S
N1030 H1043 0.985 . S
N1031 C1033 1.356 . S
N1031 H1036 0.984 . S
N1031 H1037 0.985 . S
C1032 C1026 1.379 . S
C1032 C1029 1.363 . S
C1032 N1030 1.356 . S
C1033 C1027 1.363 . S
C1033 C1028 1.379 . S
C1033 N1031 1.356 . S
N1034 C1026 1.356 . S
N1034 H1040 0.984 . S
N1034 H1041 0.984 . S
N1035 C1028 1.356 . S
N1035 H1038 0.984 . S
N1035 H1039 0.985 . S
H1036 N1031 0.984 . S
H1037 N1031 0.985 . S
H1038 N1035 0.984 . S
H1039 N1035 0.985 . S
H1040 N1034 0.984 . S
H1041 N1034 0.984 . S
H1042 N1030 0.984 . S
H1043 N1030 0.985 . S
C1044 C1045 1.363 . S
C1044 C1050 1.379 . S
C1044 N1052 1.356 . S
C1045 C1044 1.363 . S
C1045 C1051 1.363 . S
C1046 C1047 1.363 . S
C1046 C1051 1.379 . S
C1046 N1053 1.356 . S
C1047 C1046 1.363 . S
C1047 C1050 1.363 . S
N1048 C1050 1.356 . S
N1048 H1060 0.984 . S
N1048 H1061 0.985 . S
N1049 C1051 1.356 . S
N1049 H1054 0.984 . S
N1049 H1055 0.985 . S
C1050 C1044 1.379 . S
C1050 C1047 1.363 . S
C1050 N1048 1.356 . S
C1051 C1045 1.363 . S
C1051 C1046 1.379 . S
C1051 N1049 1.356 . S
N1052 C1044 1.356 . S
N1052 H1058 0.984 . S
N1052 H1059 0.984 . S
N1053 C1046 1.356 . S
N1053 H1056 0.984 . S
N1053 H1057 0.985 . S
H1054 N1049 0.984 . S
H1055 N1049 0.985 . S
H1056 N1053 0.984 . S
H1057 N1053 0.985 . S
H1058 N1052 0.984 . S
H1059 N1052 0.984 . S
H1060 N1048 0.984 . S
H1061 N1048 0.985 . S
C1062 C1063 1.363 . S
C1062 C1068 1.379 . S
C1062 N1070 1.356 . S
C1063 C1062 1.363 . S
C1063 C1069 1.363 . S
C1064 C1065 1.352 1_545 S
C1064 C1069 1.379 . S
C1064 N1071 1.356 1_545 S
C1065 C1064 1.352 1_565 S
C1065 C1068 1.356 1_565 S
N1066 C1068 1.356 . S
N1066 H1078 0.984 . S
N1066 H1079 0.985 1_545 S
N1067 C1069 1.356 . S
N1067 H1072 0.984 . S
N1067 H1073 0.985 . S
C1068 C1062 1.379 . S
C1068 C1065 1.356 1_545 S
C1068 N1066 1.356 . S
C1069 C1063 1.363 . S
C1069 C1064 1.379 . S
C1069 N1067 1.356 . S
N1070 C1062 1.356 . S
N1070 H1076 0.984 . S
N1070 H1077 0.984 . S
N1071 C1064 1.356 1_565 S
N1071 H1074 0.984 . S
N1071 H1075 0.985 . S
H1072 N1067 0.984 . S
H1073 N1067 0.985 . S
H1074 N1071 0.984 . S
H1075 N1071 0.985 . S
H1076 N1070 0.984 . S
H1077 N1070 0.984 . S
H1078 N1066 0.984 . S
H1079 N1066 0.985 1_565 S
C1080 C1081 1.350 1_455 S
C1080 C1086 1.379 . S
C1080 N1088 1.356 . S
C1081 C1080 1.350 1_655 S
C1081 C1087 1.359 . S
C1082 C1083 1.363 . S
C1082 C1087 1.379 1_455 S
C1082 N1089 1.356 . S
C1083 C1082 1.363 . S
C1083 C1086 1.363 . S
N1084 C1086 1.356 . S
N1084 H1096 0.984 . S
N1084 H1097 0.985 . S
N1085 C1087 1.356 . S
N1085 H1090 0.984 . S
N1085 H1091 0.985 . S
C1086 C1080 1.379 . S
C1086 C1083 1.363 . S
C1086 N1084 1.356 . S
C1087 C1081 1.359 . S
C1087 C1082 1.379 1_655 S
C1087 N1085 1.356 . S
N1088 C1080 1.356 . S
N1088 H1094 0.984 . S
N1088 H1095 1.001 . S
N1089 C1082 1.356 . S
N1089 H1092 0.984 . S
N1089 H1093 0.985 . S
H1090 N1085 0.984 . S
H1091 N1085 0.985 . S
H1092 N1089 0.984 . S
H1093 N1089 0.985 . S
H1094 N1088 0.984 . S
H1095 N1088 1.001 . S
H1096 N1084 0.984 . S
H1097 N1084 0.985 . S
C1098 C1099 1.363 . S
C1098 C1104 1.379 . S
C1098 N1106 1.356 . S
C1099 C1098 1.363 . S
C1099 C1105 1.363 . S
C1100 C1101 1.363 . S
C1100 C1105 1.379 . S
C1100 N1107 1.356 . S
C1101 C1100 1.363 . S
C1101 C1104 1.363 . S
N1102 C1104 1.356 . S
N1102 H1114 0.984 . S
N1102 H1115 0.985 . S
N1103 C1105 1.356 . S
N1103 H1108 0.984 . S
N1103 H1109 0.985 . S
C1104 C1098 1.379 . S
C1104 C1101 1.363 . S
C1104 N1102 1.356 . S
C1105 C1099 1.363 . S
C1105 C1100 1.379 . S
C1105 N1103 1.356 . S
N1106 C1098 1.356 . S
N1106 H1112 0.984 . S
N1106 H1113 0.984 . S
N1107 C1100 1.356 . S
N1107 H1110 0.984 . S
N1107 H1111 0.985 . S
H1108 N1103 0.984 . S
H1109 N1103 0.985 . S
H1110 N1107 0.984 . S
H1111 N1107 0.985 . S
H1112 N1106 0.984 . S
H1113 N1106 0.984 . S
H1114 N1102 0.984 . S
H1115 N1102 0.985 . S
C1116 C1117 1.336 1_545 S
C1116 C1122 1.379 . S
C1116 N1124 1.356 . S
C1117 C1116 1.336 1_565 S
C1117 C1123 1.371 . S
C1118 C1119 1.363 . S
C1118 C1123 1.379 1_545 S
C1118 N1125 1.356 . S
C1119 C1118 1.363 . S
C1119 C1122 1.363 . S
N1120 C1122 1.356 . S
N1120 H1132 0.984 . S
N1120 H1133 0.985 . S
N1121 C1123 1.356 . S
N1121 H1126 0.984 . S
N1121 H1127 0.985 . S
C1122 C1116 1.379 . S
C1122 C1119 1.363 . S
C1122 N1120 1.356 . S
C1123 C1117 1.371 . S
C1123 C1118 1.379 1_565 S
C1123 N1121 1.356 . S
N1124 C1116 1.356 . S
N1124 H1130 0.984 . S
N1124 H1131 1.017 . S
N1125 C1118 1.356 . S
N1125 H1128 0.984 . S
N1125 H1129 0.985 . S
H1126 N1121 0.984 . S
H1127 N1121 0.985 . S
H1128 N1125 0.984 . S
H1129 N1125 0.985 . S
H1130 N1124 0.984 . S
H1131 N1124 1.017 . S
H1132 N1120 0.984 . S
H1133 N1120 0.985 . S
C1134 C1135 1.369 . S
C1134 C1140 1.379 1_655 S
C1134 N1142 1.356 . S
C1135 C1134 1.369 . S
C1135 C1141 1.339 1_655 S
C1136 C1137 1.363 . S
C1136 C1141 1.379 . S
C1136 N1143 1.356 . S
C1137 C1136 1.363 . S
C1137 C1140 1.363 . S
N1138 C1140 1.356 . S
N1138 H1150 0.984 . S
N1138 H1151 0.985 . S
N1139 C1141 1.356 . S
N1139 H1144 0.984 . S
N1139 H1145 0.985 . S
C1140 C1134 1.379 1_455 S
C1140 C1137 1.363 . S
C1140 N1138 1.356 . S
C1141 C1135 1.339 1_455 S
C1141 C1136 1.379 . S
C1141 N1139 1.356 . S
N1142 C1134 1.356 . S
N1142 H1148 0.984 . S
N1142 H1149 0.984 . S
N1143 C1136 1.356 . S
N1143 H1146 0.984 . S
N1143 H1147 0.985 . S
H1144 N1139 0.984 . S
H1145 N1139 0.985 . S
H1146 N1143 0.984 . S
H1147 N1143 0.985 . S
H1148 N1142 0.984 . S
H1149 N1142 0.984 . S
H1150 N1138 0.984 . S
H1151 N1138 0.985 . S
C1152 C1153 1.363 . S
C1152 C1158 1.379 1_554 S
C1152 N1160 1.356 . S
C1153 C1152 1.363 . S
C1153 C1159 1.363 . S
C1154 C1155 1.363 . S
C1154 C1159 1.379 1_556 S
C1154 N1161 1.356 . S
C1155 C1154 1.363 . S
C1155 C1158 1.363 . S
N1156 C1158 1.356 . S
N1156 H1168 0.984 . S
N1156 H1169 0.985 . S
N1157 C1159 1.356 . S
N1157 H1162 0.984 . S
N1157 H1163 0.985 . S
C1158 C1152 1.379 1_556 S
C1158 C1155 1.363 . S
C1158 N1156 1.356 . S
C1159 C1153 1.363 . S
C1159 C1154 1.379 1_554 S
C1159 N1157 1.356 . S
N1160 C1152 1.356 . S
N1160 H1166 0.984 . S
N1160 H1167 0.984 . S
N1161 C1154 1.356 . S
N1161 H1164 0.984 . S
N1161 H1165 0.985 . S
H1162 N1157 0.984 . S
H1163 N1157 0.985 . S
H1164 N1161 0.984 . S
H1165 N1161 0.985 . S
H1166 N1160 0.984 . S
H1167 N1160 0.984 . S
H1168 N1156 0.984 . S
H1169 N1156 0.985 . S
C1170 C1171 1.363 . S
C1170 C1176 1.379 1_556 S
C1170 N1178 1.356 . S
C1171 C1170 1.363 . S
C1171 C1177 1.363 . S
C1172 C1173 1.363 . S
C1172 C1177 1.379 1_554 S
C1172 N1179 1.356 . S
C1173 C1172 1.363 . S
C1173 C1176 1.363 . S
N1174 C1176 1.356 . S
N1174 H1186 0.984 . S
N1174 H1187 0.985 . S
N1175 C1177 1.356 . S
N1175 H1180 0.984 . S
N1175 H1181 0.985 . S
C1176 C1170 1.379 1_554 S
C1176 C1173 1.363 . S
C1176 N1174 1.356 . S
C1177 C1171 1.363 . S
C1177 C1172 1.379 1_556 S
C1177 N1175 1.356 . S
N1178 C1170 1.356 . S
N1178 H1184 0.984 . S
N1178 H1185 0.984 . S
N1179 C1172 1.356 . S
N1179 H1182 0.984 . S
N1179 H1183 0.985 . S
H1180 N1175 0.984 . S
H1181 N1175 0.985 . S
H1182 N1179 0.984 . S
H1183 N1179 0.985 . S
H1184 N1178 0.984 . S
H1185 N1178 0.984 . S
H1186 N1174 0.984 . S
H1187 N1174 0.985 . S
C1188 C1189 1.363 . S
C1188 C1194 1.379 1_556 S
C1188 N1196 1.356 . S
C1189 C1188 1.363 . S
C1189 C1195 1.367 . S
C1190 C1191 1.381 . S
C1190 C1195 1.379 1_554 S
C1190 N1197 1.344 1_545 S
C1191 C1190 1.381 . S
C1191 C1194 1.363 . S
N1192 C1194 1.356 . S
N1192 H1204 0.984 . S
N1192 H1205 0.985 . S
N1193 C1195 1.353 1_565 S
N1193 H1198 0.984 . S
N1193 H1199 0.985 . S
C1194 C1188 1.379 1_554 S
C1194 C1191 1.363 . S
C1194 N1192 1.356 . S
C1195 C1189 1.367 . S
C1195 C1190 1.379 1_556 S
C1195 N1193 1.353 1_545 S
N1196 C1188 1.356 . S
N1196 H1202 0.984 . S
N1196 H1203 0.984 . S
N1197 C1190 1.344 1_565 S
N1197 H1200 0.984 . S
N1197 H1201 0.985 . S
H1198 N1193 0.984 . S
H1199 N1193 0.985 . S
H1200 N1197 0.984 . S
H1201 N1197 0.985 . S
H1202 N1196 0.984 . S
H1203 N1196 0.984 . S
H1204 N1192 0.984 . S
H1205 N1192 0.985 . S
C1206 C1207 1.363 . S
C1206 C1212 1.379 1_556 S
C1206 N1214 1.356 . S
C1207 C1206 1.363 . S
C1207 C1213 1.361 1_455 S
C1208 C1209 1.347 1_655 S
C1208 C1213 1.379 1_554 S
C1208 N1215 1.371 . S
C1209 C1208 1.347 1_455 S
C1209 C1212 1.363 . S
N1210 C1212 1.356 . S
N1210 H1222 0.984 . S
N1210 H1223 0.985 . S
N1211 C1213 1.358 . S
N1211 H1216 0.984 . S
N1211 H1217 0.985 . S
C1212 C1206 1.379 1_554 S
C1212 C1209 1.363 . S
C1212 N1210 1.356 . S
C1213 C1207 1.361 1_655 S
C1213 C1208 1.379 1_556 S
C1213 N1211 1.358 . S
N1214 C1206 1.356 . S
N1214 H1220 0.984 . S
N1214 H1221 0.984 . S
N1215 C1208 1.371 . S
N1215 H1218 0.984 . S
N1215 H1219 0.985 . S
H1216 N1211 0.984 . S
H1217 N1211 0.985 . S
H1218 N1215 0.984 . S
H1219 N1215 0.985 . S
H1220 N1214 0.984 . S
H1221 N1214 0.984 . S
H1222 N1210 0.984 . S
H1223 N1210 0.985 . S
C1224 C1225 1.363 . S
C1224 C1230 1.379 1_554 S
C1224 N1232 1.356 . S
C1225 C1224 1.363 . S
C1225 C1231 1.363 . S
C1226 C1227 1.363 . S
C1226 C1231 1.379 1_556 S
C1226 N1233 1.356 . S
C1227 C1226 1.363 . S
C1227 C1230 1.363 . S
N1228 C1230 1.356 . S
N1228 H1240 0.984 . S
N1228 H1241 0.985 . S
N1229 C1231 1.356 . S
N1229 H1234 0.984 . S
N1229 H1235 0.985 . S
C1230 C1224 1.379 1_556 S
C1230 C1227 1.363 . S
C1230 N1228 1.356 . S
C1231 C1225 1.363 . S
C1231 C1226 1.379 1_554 S
C1231 N1229 1.356 . S
N1232 C1224 1.356 . S
N1232 H1238 0.984 . S
N1232 H1239 0.984 . S
N1233 C1226 1.356 . S
N1233 H1236 0.984 . S
N1233 H1237 0.985 . S
H1234 N1229 0.984 . S
H1235 N1229 0.985 . S
H1236 N1233 0.984 . S
H1237 N1233 0.985 . S
H1238 N1232 0.984 . S
H1239 N1232 0.984 . S
H1240 N1228 0.984 . S
H1241 N1228 0.985 . S
C1242 C1243 1.363 . S
C1242 C1248 1.379 1_556 S
C1242 N1250 1.356 1_545 S
C1243 C1242 1.363 . S
C1243 C1249 1.363 . S
C1244 C1245 1.363 . S
C1244 C1249 1.379 1_554 S
C1244 N1251 1.356 . S
C1245 C1244 1.363 . S
C1245 C1248 1.363 . S
N1246 C1248 1.356 1_565 S
N1246 H1258 0.984 . S
N1246 H1259 0.985 . S
N1247 C1249 1.356 . S
N1247 H1252 0.984 . S
N1247 H1253 0.985 . S
C1248 C1242 1.379 1_554 S
C1248 C1245 1.363 . S
C1248 N1246 1.356 1_545 S
C1249 C1243 1.363 . S
C1249 C1244 1.379 1_556 S
C1249 N1247 1.356 . S
N1250 C1242 1.356 1_565 S
N1250 H1256 0.984 . S
N1250 H1257 0.984 . S
N1251 C1244 1.356 . S
N1251 H1254 0.984 . S
N1251 H1255 0.985 . S
H1252 N1247 0.984 . S
H1253 N1247 0.985 . S
H1254 N1251 0.984 . S
H1255 N1251 0.985 . S
H1256 N1250 0.984 . S
H1257 N1250 0.984 . S
H1258 N1246 0.984 . S
H1259 N1246 0.985 . S
C1260 C1261 1.363 . S
C1260 C1266 1.379 . S
C1260 N1268 1.356 . S
C1261 C1260 1.363 . S
C1261 C1267 1.363 . S
C1262 C1263 1.363 . S
C1262 C1267 1.379 . S
C1262 N1269 1.356 . S
C1263 C1262 1.363 . S
C1263 C1266 1.363 . S
N1264 C1266 1.356 . S
N1264 H1276 0.984 . S
N1264 H1277 0.985 . S
N1265 C1267 1.356 . S
N1265 H1270 0.984 . S
N1265 H1271 0.985 . S
C1266 C1260 1.379 . S
C1266 C1263 1.363 . S
C1266 N1264 1.356 . S
C1267 C1261 1.363 . S
C1267 C1262 1.379 . S
C1267 N1265 1.356 . S
N1268 C1260 1.356 . S
N1268 H1274 0.984 . S
N1268 H1275 0.984 . S
N1269 C1262 1.356 . S
N1269 H1272 0.984 . S
N1269 H1273 0.985 . S
H1270 N1265 0.984 . S
H1271 N1265 0.985 . S
H1272 N1269 0.984 . S
H1273 N1269 0.985 . S
H1274 N1268 0.984 . S
H1275 N1268 0.984 . S
H1276 N1264 0.984 . S
H1277 N1264 0.985 . S
C1278 C1279 1.363 . S
C1278 C1284 1.379 . S
C1278 N1286 1.356 . S
C1279 C1278 1.363 . S
C1279 C1285 1.363 . S
C1280 C1281 1.363 . S
C1280 C1285 1.379 . S
C1280 N1287 1.356 . S
C1281 C1280 1.363 . S
C1281 C1284 1.363 . S
N1282 C1284 1.356 . S
N1282 H1294 0.984 . S
N1282 H1295 0.985 . S
N1283 C1285 1.356 . S
N1283 H1288 0.984 . S
N1283 H1289 0.985 . S
C1284 C1278 1.379 . S
C1284 C1281 1.363 . S
C1284 N1282 1.356 . S
C1285 C1279 1.363 . S
C1285 C1280 1.379 . S
C1285 N1283 1.356 . S
N1286 C1278 1.356 . S
N1286 H1292 0.984 . S
N1286 H1293 0.984 . S
N1287 C1280 1.356 . S
N1287 H1290 0.984 . S
N1287 H1291 0.985 . S
H1288 N1283 0.984 . S
H1289 N1283 0.985 . S
H1290 N1287 0.984 . S
H1291 N1287 0.985 . S
H1292 N1286 0.984 . S
H1293 N1286 0.984 . S
H1294 N1282 0.984 . S
H1295 N1282 0.985 . S
C1296 C1297 1.363 . S
C1296 C1302 1.379 . S
C1296 N1304 1.356 . S
C1297 C1296 1.363 . S
C1297 C1303 1.363 . S
C1298 C1299 1.363 . S
C1298 C1303 1.379 . S
C1298 N1305 1.356 . S
C1299 C1298 1.363 . S
C1299 C1302 1.363 . S
N1300 C1302 1.356 . S
N1300 H1312 0.984 . S
N1300 H1313 0.985 . S
N1301 C1303 1.356 . S
N1301 H1306 0.984 . S
N1301 H1307 0.985 . S
C1302 C1296 1.379 . S
C1302 C1299 1.363 . S
C1302 N1300 1.356 . S
C1303 C1297 1.363 . S
C1303 C1298 1.379 . S
C1303 N1301 1.356 . S
N1304 C1296 1.356 . S
N1304 H1310 0.984 . S
N1304 H1311 0.984 . S
N1305 C1298 1.356 . S
N1305 H1308 0.984 . S
N1305 H1309 0.985 . S
H1306 N1301 0.984 . S
H1307 N1301 0.985 . S
H1308 N1305 0.984 . S
H1309 N1305 0.985 . S
H1310 N1304 0.984 . S
H1311 N1304 0.984 . S
H1312 N1300 0.984 . S
H1313 N1300 0.985 . S
C1314 C1315 1.363 . S
C1314 C1320 1.379 . S
C1314 N1322 1.356 . S
C1315 C1314 1.363 . S
C1315 C1321 1.363 . S
C1316 C1317 1.363 . S
C1316 C1321 1.379 . S
C1316 N1323 1.356 . S
C1317 C1316 1.363 . S
C1317 C1320 1.363 . S
N1318 C1320 1.356 . S
N1318 H1330 0.984 . S
N1318 H1331 0.985 . S
N1319 C1321 1.356 . S
N1319 H1324 0.984 . S
N1319 H1325 0.985 . S
C1320 C1314 1.379 . S
C1320 C1317 1.363 . S
C1320 N1318 1.356 . S
C1321 C1315 1.363 . S
C1321 C1316 1.379 . S
C1321 N1319 1.356 . S
N1322 C1314 1.356 . S
N1322 H1328 0.984 . S
N1322 H1329 0.984 . S
N1323 C1316 1.356 . S
N1323 H1326 0.984 . S
N1323 H1327 0.985 . S
H1324 N1319 0.984 . S
H1325 N1319 0.985 . S
H1326 N1323 0.984 . S
H1327 N1323 0.985 . S
H1328 N1322 0.984 . S
H1329 N1322 0.984 . S
H1330 N1318 0.984 . S
H1331 N1318 0.985 . S
C1332 C1333 1.363 . S
C1332 C1338 1.379 . S
C1332 N1340 1.356 . S
C1333 C1332 1.363 . S
C1333 C1339 1.363 . S
C1334 C1335 1.363 . S
C1334 C1339 1.379 . S
C1334 N1341 1.356 . S
C1335 C1334 1.363 . S
C1335 C1338 1.363 . S
N1336 C1338 1.356 . S
N1336 H1348 0.984 . S
N1336 H1349 0.985 . S
N1337 C1339 1.356 . S
N1337 H1342 0.984 . S
N1337 H1343 0.985 . S
C1338 C1332 1.379 . S
C1338 C1335 1.363 . S
C1338 N1336 1.356 . S
C1339 C1333 1.363 . S
C1339 C1334 1.379 . S
C1339 N1337 1.356 . S
N1340 C1332 1.356 . S
N1340 H1346 0.984 . S
N1340 H1347 0.984 . S
N1341 C1334 1.356 . S
N1341 H1344 0.984 . S
N1341 H1345 0.985 . S
H1342 N1337 0.984 . S
H1343 N1337 0.985 . S
H1344 N1341 0.984 . S
H1345 N1341 0.985 . S
H1346 N1340 0.984 . S
H1347 N1340 0.984 . S
H1348 N1336 0.984 . S
H1349 N1336 0.985 . S
C1350 C1351 1.363 . S
C1350 C1356 1.379 . S
C1350 N1358 1.356 . S
C1351 C1350 1.363 . S
C1351 C1357 1.363 . S
C1352 C1353 1.363 . S
C1352 C1357 1.379 . S
C1352 N1359 1.356 . S
C1353 C1352 1.363 . S
C1353 C1356 1.363 . S
N1354 C1356 1.356 . S
N1354 H1366 0.984 . S
N1354 H1367 0.985 . S
N1355 C1357 1.356 . S
N1355 H1360 0.984 . S
N1355 H1361 0.985 . S
C1356 C1350 1.379 . S
C1356 C1353 1.363 . S
C1356 N1354 1.356 . S
C1357 C1351 1.363 . S
C1357 C1352 1.379 . S
C1357 N1355 1.356 . S
N1358 C1350 1.356 . S
N1358 H1364 0.984 . S
N1358 H1365 0.984 . S
N1359 C1352 1.356 . S
N1359 H1362 0.984 . S
N1359 H1363 0.985 . S
H1360 N1355 0.984 . S
H1361 N1355 0.985 . S
H1362 N1359 0.984 . S
H1363 N1359 0.985 . S
H1364 N1358 0.984 . S
H1365 N1358 0.984 . S
H1366 N1354 0.984 . S
H1367 N1354 0.985 . S
C1368 C1369 1.363 . S
C1368 C1374 1.379 . S
C1368 N1376 1.356 . S
C1369 C1368 1.363 . S
C1369 C1375 1.363 . S
C1370 C1371 1.363 . S
C1370 C1375 1.379 . S
C1370 N1377 1.356 . S
C1371 C1370 1.363 . S
C1371 C1374 1.363 . S
N1372 C1374 1.356 . S
N1372 H1384 0.984 . S
N1372 H1385 0.985 . S
N1373 C1375 1.356 . S
N1373 H1378 0.984 . S
N1373 H1379 0.985 1_565 S
C1374 C1368 1.379 . S
C1374 C1371 1.363 . S
C1374 N1372 1.356 . S
C1375 C1369 1.363 . S
C1375 C1370 1.379 . S
C1375 N1373 1.356 . S
N1376 C1368 1.356 . S
N1376 H1382 0.984 . S
N1376 H1383 0.984 . S
N1377 C1370 1.356 . S
N1377 H1380 0.984 . S
N1377 H1381 0.985 1_565 S
H1378 N1373 0.984 . S
H1379 N1373 0.985 1_545 S
H1380 N1377 0.984 . S
H1381 N1377 0.985 1_545 S
H1382 N1376 0.984 . S
H1383 N1376 0.984 . S
H1384 N1372 0.984 . S
H1385 N1372 0.985 . S
C1386 C1387 1.363 . S
C1386 C1392 1.379 . S
C1386 N1394 1.356 . S
C1387 C1386 1.363 . S
C1387 C1393 1.363 . S
C1388 C1389 1.363 . S
C1388 C1393 1.379 . S
C1388 N1395 1.356 . S
C1389 C1388 1.363 . S
C1389 C1392 1.363 . S
N1390 C1392 1.356 . S
N1390 H1402 0.984 . S
N1390 H1403 0.985 . S
N1391 C1393 1.356 . S
N1391 H1396 0.984 . S
N1391 H1397 0.985 . S
C1392 C1386 1.379 . S
C1392 C1389 1.363 . S
C1392 N1390 1.356 . S
C1393 C1387 1.363 . S
C1393 C1388 1.379 . S
C1393 N1391 1.356 . S
N1394 C1386 1.356 . S
N1394 H1400 0.984 . S
N1394 H1401 0.984 . S
N1395 C1388 1.356 . S
N1395 H1398 0.984 . S
N1395 H1399 0.985 . S
H1396 N1391 0.984 . S
H1397 N1391 0.985 . S
H1398 N1395 0.984 . S
H1399 N1395 0.985 . S
H1400 N1394 0.984 . S
H1401 N1394 0.984 . S
H1402 N1390 0.984 . S
H1403 N1390 0.985 . S
C1404 C1405 1.363 . S
C1404 C1410 1.379 . S
C1404 N1412 1.356 . S
C1405 C1404 1.363 . S
C1405 C1411 1.363 . S
C1406 C1407 1.363 . S
C1406 C1411 1.379 . S
C1406 N1413 1.356 . S
C1407 C1406 1.363 . S
C1407 C1410 1.363 . S
N1408 C1410 1.356 . S
N1408 H1420 0.984 . S
N1408 H1421 0.985 . S
N1409 C1411 1.356 . S
N1409 H1414 0.984 . S
N1409 H1415 0.985 . S
C1410 C1404 1.379 . S
C1410 C1407 1.363 . S
C1410 N1408 1.356 . S
C1411 C1405 1.363 . S
C1411 C1406 1.379 . S
C1411 N1409 1.356 . S
N1412 C1404 1.356 . S
N1412 H1418 0.984 . S
N1412 H1419 0.984 . S
N1413 C1406 1.356 . S
N1413 H1416 0.984 . S
N1413 H1417 0.985 . S
H1414 N1409 0.984 . S
H1415 N1409 0.985 . S
H1416 N1413 0.984 . S
H1417 N1413 0.985 . S
H1418 N1412 0.984 . S
H1419 N1412 0.984 . S
H1420 N1408 0.984 . S
H1421 N1408 0.985 . S
C1422 C1423 1.363 . S
C1422 C1428 1.379 . S
C1422 N1430 1.356 . S
C1423 C1422 1.363 . S
C1423 C1429 1.363 . S
C1424 C1425 1.363 . S
C1424 C1429 1.379 . S
C1424 N1431 1.356 . S
C1425 C1424 1.363 . S
C1425 C1428 1.363 . S
N1426 C1428 1.356 . S
N1426 H1438 0.984 . S
N1426 H1439 0.985 . S
N1427 C1429 1.356 . S
N1427 H1432 0.984 . S
N1427 H1433 0.985 . S
C1428 C1422 1.379 . S
C1428 C1425 1.363 . S
C1428 N1426 1.356 . S
C1429 C1423 1.363 . S
C1429 C1424 1.379 . S
C1429 N1427 1.356 . S
N1430 C1422 1.356 . S
N1430 H1436 0.984 . S
N1430 H1437 0.984 . S
N1431 C1424 1.356 . S
N1431 H1434 0.984 . S
N1431 H1435 0.985 . S
H1432 N1427 0.984 . S
H1433 N1427 0.985 . S
H1434 N1431 0.984 . S
H1435 N1431 0.985 . S
H1436 N1430 0.984 . S
H1437 N1430 0.984 . S
H1438 N1426 0.984 . S
H1439 N1426 0.985 . S
C1440 C1441 1.363 . S
C1440 C1446 1.379 . S
C1440 N1448 1.356 . S
C1441 C1440 1.363 . S
C1441 C1447 1.363 . S
C1442 C1443 1.363 . S
C1442 C1447 1.379 . S
C1442 N1449 1.356 . S
C1443 C1442 1.363 . S
C1443 C1446 1.363 . S
N1444 C1446 1.356 . S
N1444 H1456 0.984 1_565 S
N1444 H1457 0.985 . S
N1445 C1447 1.356 . S
N1445 H1450 0.984 . S
N1445 H1451 0.985 . S
C1446 C1440 1.379 . S
C1446 C1443 1.363 . S
C1446 N1444 1.356 . S
C1447 C1441 1.363 . S
C1447 C1442 1.379 . S
C1447 N1445 1.356 . S
N1448 C1440 1.356 . S
N1448 H1454 0.984 1_565 S
N1448 H1455 0.984 . S
N1449 C1442 1.356 . S
N1449 H1452 0.984 . S
N1449 H1453 0.985 . S
H1450 N1445 0.984 . S
H1451 N1445 0.985 . S
H1452 N1449 0.984 . S
H1453 N1449 0.985 . S
H1454 N1448 0.984 1_545 S
H1455 N1448 0.984 . S
H1456 N1444 0.984 1_545 S
H1457 N1444 0.985 . S
C1458 C1459 1.363 . S
C1458 C1464 1.379 . S
C1458 N1466 1.356 . S
C1459 C1458 1.363 . S
C1459 C1465 1.363 . S
C1460 C1461 1.363 . S
C1460 C1465 1.379 . S
C1460 N1467 1.356 . S
C1461 C1460 1.363 . S
C1461 C1464 1.363 . S
N1462 C1464 1.356 . S
N1462 H1474 0.984 . S
N1462 H1475 0.985 . S
N1463 C1465 1.356 . S
N1463 H1468 0.984 . S
N1463 H1469 0.985 . S
C1464 C1458 1.379 . S
C1464 C1461 1.363 . S
C1464 N1462 1.356 . S
C1465 C1459 1.363 . S
C1465 C1460 1.379 . S
C1465 N1463 1.356 . S
N1466 C1458 1.356 . S
N1466 H1472 0.984 . S
N1466 H1473 0.984 . S
N1467 C1460 1.356 . S
N1467 H1470 0.984 . S
N1467 H1471 0.985 . S
H1468 N1463 0.984 . S
H1469 N1463 0.985 . S
H1470 N1467 0.984 . S
H1471 N1467 0.985 . S
H1472 N1466 0.984 . S
H1473 N1466 0.984 . S
H1474 N1462 0.984 . S
H1475 N1462 0.985 . S
C1476 C1477 1.363 . S
C1476 C1482 1.379 . S
C1476 N1484 1.356 . S
C1477 C1476 1.363 . S
C1477 C1483 1.363 . S
C1478 C1479 1.363 . S
C1478 C1483 1.379 . S
C1478 N1485 1.356 . S
C1479 C1478 1.363 . S
C1479 C1482 1.363 . S
N1480 C1482 1.356 . S
N1480 H1492 0.984 . S
N1480 H1493 0.985 . S
N1481 C1483 1.356 . S
N1481 H1486 0.984 . S
N1481 H1487 0.985 . S
C1482 C1476 1.379 . S
C1482 C1479 1.363 . S
C1482 N1480 1.356 . S
C1483 C1477 1.363 . S
C1483 C1478 1.379 . S
C1483 N1481 1.356 . S
N1484 C1476 1.356 . S
N1484 H1490 0.984 . S
N1484 H1491 0.984 . S
N1485 C1478 1.356 . S
N1485 H1488 0.984 . S
N1485 H1489 0.985 . S
H1486 N1481 0.984 . S
H1487 N1481 0.985 . S
H1488 N1485 0.984 . S
H1489 N1485 0.985 . S
H1490 N1484 0.984 . S
H1491 N1484 0.984 . S
H1492 N1480 0.984 . S
H1493 N1480 0.985 . S
C1494 C1495 1.363 . S
C1494 C1500 1.379 . S
C1494 N1502 1.356 . S
C1495 C1494 1.363 . S
C1495 C1501 1.363 . S
C1496 C1497 1.363 . S
C1496 C1501 1.379 . S
C1496 N1503 1.356 . S
C1497 C1496 1.363 . S
C1497 C1500 1.363 . S
N1498 C1500 1.356 . S
N1498 H1510 0.984 . S
N1498 H1511 0.985 . S
N1499 C1501 1.356 . S
N1499 H1504 0.984 . S
N1499 H1505 0.985 . S
C1500 C1494 1.379 . S
C1500 C1497 1.363 . S
C1500 N1498 1.356 . S
C1501 C1495 1.363 . S
C1501 C1496 1.379 . S
C1501 N1499 1.356 . S
N1502 C1494 1.356 . S
N1502 H1508 0.984 . S
N1502 H1509 0.984 . S
N1503 C1496 1.356 . S
N1503 H1506 0.984 . S
N1503 H1507 0.985 . S
H1504 N1499 0.984 . S
H1505 N1499 0.985 . S
H1506 N1503 0.984 . S
H1507 N1503 0.985 . S
H1508 N1502 0.984 . S
H1509 N1502 0.984 . S
H1510 N1498 0.984 . S
H1511 N1498 0.985 . S
C1512 C1513 1.363 . S
C1512 C1518 1.379 . S
C1512 N1520 1.356 . S
C1513 C1512 1.363 . S
C1513 C1519 1.363 . S
C1514 C1515 1.363 . S
C1514 C1519 1.379 . S
C1514 N1521 1.356 . S
C1515 C1514 1.363 . S
C1515 C1518 1.363 . S
N1516 C1518 1.356 . S
N1516 H1528 0.984 . S
N1516 H1529 0.985 . S
N1517 C1519 1.356 . S
N1517 H1522 0.984 . S
N1517 H1523 0.985 . S
C1518 C1512 1.379 . S
C1518 C1515 1.363 . S
C1518 N1516 1.356 . S
C1519 C1513 1.363 . S
C1519 C1514 1.379 . S
C1519 N1517 1.356 . S
N1520 C1512 1.356 . S
N1520 H1526 0.984 . S
N1520 H1527 0.984 . S
N1521 C1514 1.356 . S
N1521 H1524 0.984 . S
N1521 H1525 0.985 . S
H1522 N1517 0.984 . S
H1523 N1517 0.985 . S
H1524 N1521 0.984 . S
H1525 N1521 0.985 . S
H1526 N1520 0.984 . S
H1527 N1520 0.984 . S
H1528 N1516 0.984 . S
H1529 N1516 0.985 . S
C1530 C1531 1.363 . S
C1530 C1536 1.379 . S
C1530 N1538 1.356 . S
C1531 C1530 1.363 . S
C1531 C1537 1.363 . S
C1532 C1533 1.363 . S
C1532 C1537 1.379 . S
C1532 N1539 1.356 . S
C1533 C1532 1.363 . S
C1533 C1536 1.363 . S
N1534 C1536 1.356 . S
N1534 H1546 0.984 . S
N1534 H1547 0.985 . S
N1535 C1537 1.356 . S
N1535 H1540 0.984 . S
N1535 H1541 0.985 . S
C1536 C1530 1.379 . S
C1536 C1533 1.363 . S
C1536 N1534 1.356 . S
C1537 C1531 1.363 . S
C1537 C1532 1.379 . S
C1537 N1535 1.356 . S
N1538 C1530 1.356 . S
N1538 H1544 0.984 . S
N1538 H1545 0.984 . S
N1539 C1532 1.356 . S
N1539 H1542 0.984 . S
N1539 H1543 0.985 . S
H1540 N1535 0.984 . S
H1541 N1535 0.985 . S
H1542 N1539 0.984 . S
H1543 N1539 0.985 . S
H1544 N1538 0.984 . S
H1545 N1538 0.984 . S
H1546 N1534 0.984 . S
H1547 N1534 0.985 . S
C1548 C1549 1.363 . S
C1548 C1554 1.379 . S
C1548 N1556 1.356 . S
C1549 C1548 1.363 . S
C1549 C1555 1.363 . S
C1550 C1551 1.363 . S
C1550 C1555 1.379 . S
C1550 N1557 1.356 . S
C1551 C1550 1.363 . S
C1551 C1554 1.363 . S
N1552 C1554 1.356 . S
N1552 H1564 0.984 . S
N1552 H1565 0.985 . S
N1553 C1555 1.356 . S
N1553 H1558 0.984 . S
N1553 H1559 0.985 . S
C1554 C1548 1.379 . S
C1554 C1551 1.363 . S
C1554 N1552 1.356 . S
C1555 C1549 1.363 . S
C1555 C1550 1.379 . S
C1555 N1553 1.356 . S
N1556 C1548 1.356 . S
N1556 H1562 0.984 . S
N1556 H1563 0.984 . S
N1557 C1550 1.356 . S
N1557 H1560 0.984 . S
N1557 H1561 0.985 . S
H1558 N1553 0.984 . S
H1559 N1553 0.985 . S
H1560 N1557 0.984 . S
H1561 N1557 0.985 . S
H1562 N1556 0.984 . S
H1563 N1556 0.984 . S
H1564 N1552 0.984 . S
H1565 N1552 0.985 . S
C1566 C1567 1.363 . S
C1566 C1572 1.379 . S
C1566 N1574 1.356 . S
C1567 C1566 1.363 . S
C1567 C1573 1.363 . S
C1568 C1569 1.363 . S
C1568 C1573 1.379 . S
C1568 N1575 1.356 . S
C1569 C1568 1.363 . S
C1569 C1572 1.363 . S
N1570 C1572 1.356 . S
N1570 H1582 0.984 . S
N1570 H1583 0.985 . S
N1571 C1573 1.356 . S
N1571 H1576 0.984 . S
N1571 H1577 0.985 . S
C1572 C1566 1.379 . S
C1572 C1569 1.363 . S
C1572 N1570 1.356 . S
C1573 C1567 1.363 . S
C1573 C1568 1.379 . S
C1573 N1571 1.356 . S
N1574 C1566 1.356 . S
N1574 H1580 0.984 . S
N1574 H1581 0.984 . S
N1575 C1568 1.356 . S
N1575 H1578 0.984 . S
N1575 H1579 0.985 . S
H1576 N1571 0.984 . S
H1577 N1571 0.985 . S
H1578 N1575 0.984 . S
H1579 N1575 0.985 . S
H1580 N1574 0.984 . S
H1581 N1574 0.984 . S
H1582 N1570 0.984 . S
H1583 N1570 0.985 . S
C1584 C1585 1.363 . S
C1584 C1590 1.379 . S
C1584 N1592 1.356 . S
C1585 C1584 1.363 . S
C1585 C1591 1.363 . S
C1586 C1587 1.363 . S
C1586 C1591 1.379 . S
C1586 N1593 1.356 . S
C1587 C1586 1.363 . S
C1587 C1590 1.363 . S
N1588 C1590 1.356 . S
N1588 H1600 0.984 . S
N1588 H1601 0.985 . S
N1589 C1591 1.356 . S
N1589 H1594 0.984 . S
N1589 H1595 0.985 . S
C1590 C1584 1.379 . S
C1590 C1587 1.363 . S
C1590 N1588 1.356 . S
C1591 C1585 1.363 . S
C1591 C1586 1.379 . S
C1591 N1589 1.356 . S
N1592 C1584 1.356 . S
N1592 H1598 0.984 . S
N1592 H1599 0.984 . S
N1593 C1586 1.356 . S
N1593 H1596 0.984 . S
N1593 H1597 0.985 . S
H1594 N1589 0.984 . S
H1595 N1589 0.985 . S
H1596 N1593 0.984 . S
H1597 N1593 0.985 . S
H1598 N1592 0.984 . S
H1599 N1592 0.984 . S
H1600 N1588 0.984 . S
H1601 N1588 0.985 . S
C1602 C1603 1.363 . S
C1602 C1608 1.379 . S
C1602 N1610 1.356 . S
C1603 C1602 1.363 . S
C1603 C1609 1.363 . S
C1604 C1605 1.363 . S
C1604 C1609 1.379 . S
C1604 N1611 1.356 . S
C1605 C1604 1.363 . S
C1605 C1608 1.363 . S
N1606 C1608 1.356 . S
N1606 H1618 0.984 . S
N1606 H1619 0.985 . S
N1607 C1609 1.356 . S
N1607 H1612 0.984 . S
N1607 H1613 0.985 . S
C1608 C1602 1.379 . S
C1608 C1605 1.363 . S
C1608 N1606 1.356 . S
C1609 C1603 1.363 . S
C1609 C1604 1.379 . S
C1609 N1607 1.356 . S
N1610 C1602 1.356 . S
N1610 H1616 0.984 . S
N1610 H1617 0.984 . S
N1611 C1604 1.356 . S
N1611 H1614 0.984 . S
N1611 H1615 0.985 . S
H1612 N1607 0.984 . S
H1613 N1607 0.985 . S
H1614 N1611 0.984 . S
H1615 N1611 0.985 . S
H1616 N1610 0.984 . S
H1617 N1610 0.984 . S
H1618 N1606 0.984 . S
H1619 N1606 0.985 . S
C1620 C1621 1.363 . S
C1620 C1626 1.379 . S
C1620 N1628 1.356 . S
C1621 C1620 1.363 . S
C1621 C1627 1.363 . S
C1622 C1623 1.363 . S
C1622 C1627 1.379 . S
C1622 N1629 1.356 . S
C1623 C1622 1.363 . S
C1623 C1626 1.363 . S
N1624 C1626 1.356 . S
N1624 H1636 0.984 . S
N1624 H1637 0.985 . S
N1625 C1627 1.356 . S
N1625 H1630 0.984 . S
N1625 H1631 0.985 . S
C1626 C1620 1.379 . S
C1626 C1623 1.363 . S
C1626 N1624 1.356 . S
C1627 C1621 1.363 . S
C1627 C1622 1.379 . S
C1627 N1625 1.356 . S
N1628 C1620 1.356 . S
N1628 H1634 0.984 . S
N1628 H1635 0.984 . S
N1629 C1622 1.356 . S
N1629 H1632 0.984 . S
N1629 H1633 0.985 . S
H1630 N1625 0.984 . S
H1631 N1625 0.985 . S
H1632 N1629 0.984 . S
H1633 N1629 0.985 . S
H1634 N1628 0.984 . S
H1635 N1628 0.984 . S
H1636 N1624 0.984 . S
H1637 N1624 0.985 . S
C1638 C1639 1.363 . S
C1638 C1644 1.379 . S
C1638 N1646 1.356 . S
C1639 C1638 1.363 . S
C1639 C1645 1.363 . S
C1640 C1641 1.363 . S
C1640 C1645 1.379 . S
C1640 N1647 1.356 . S
C1641 C1640 1.363 . S
C1641 C1644 1.363 . S
N1642 C1644 1.356 . S
N1642 H1654 0.984 . S
N1642 H1655 0.985 . S
N1643 C1645 1.356 . S
N1643 H1648 0.984 . S
N1643 H1649 0.985 . S
C1644 C1638 1.379 . S
C1644 C1641 1.363 . S
C1644 N1642 1.356 . S
C1645 C1639 1.363 . S
C1645 C1640 1.379 . S
C1645 N1643 1.356 . S
N1646 C1638 1.356 . S
N1646 H1652 0.984 . S
N1646 H1653 0.984 . S
N1647 C1640 1.356 . S
N1647 H1650 0.984 . S
N1647 H1651 0.985 . S
H1648 N1643 0.984 . S
H1649 N1643 0.985 . S
H1650 N1647 0.984 . S
H1651 N1647 0.985 . S
H1652 N1646 0.984 . S
H1653 N1646 0.984 . S
H1654 N1642 0.984 . S
H1655 N1642 0.985 . S
C1656 C1657 1.363 . S
C1656 C1662 1.379 . S
C1656 N1664 1.356 . S
C1657 C1656 1.363 . S
C1657 C1663 1.363 . S
C1658 C1659 1.363 . S
C1658 C1663 1.379 . S
C1658 N1665 1.356 . S
C1659 C1658 1.363 . S
C1659 C1662 1.363 . S
N1660 C1662 1.356 . S
N1660 H1672 0.984 . S
N1660 H1673 0.985 . S
N1661 C1663 1.356 . S
N1661 H1666 0.984 . S
N1661 H1667 0.985 . S
C1662 C1656 1.379 . S
C1662 C1659 1.363 . S
C1662 N1660 1.356 . S
C1663 C1657 1.363 . S
C1663 C1658 1.379 . S
C1663 N1661 1.356 . S
N1664 C1656 1.356 . S
N1664 H1670 0.984 . S
N1664 H1671 0.984 . S
N1665 C1658 1.356 . S
N1665 H1668 0.984 . S
N1665 H1669 0.985 . S
H1666 N1661 0.984 . S
H1667 N1661 0.985 . S
H1668 N1665 0.984 . S
H1669 N1665 0.985 . S
H1670 N1664 0.984 . S
H1671 N1664 0.984 . S
H1672 N1660 0.984 . S
H1673 N1660 0.985 . S
C1674 C1675 1.363 . S
C1674 C1680 1.379 . S
C1674 N1682 1.356 . S
C1675 C1674 1.363 . S
C1675 C1681 1.363 . S
C1676 C1677 1.363 . S
C1676 C1681 1.379 . S
C1676 N1683 1.356 . S
C1677 C1676 1.363 . S
C1677 C1680 1.363 . S
N1678 C1680 1.356 . S
N1678 H1690 0.984 . S
N1678 H1691 0.985 . S
N1679 C1681 1.356 . S
N1679 H1684 0.984 . S
N1679 H1685 0.985 . S
C1680 C1674 1.379 . S
C1680 C1677 1.363 . S
C1680 N1678 1.356 . S
C1681 C1675 1.363 . S
C1681 C1676 1.379 . S
C1681 N1679 1.356 . S
N1682 C1674 1.356 . S
N1682 H1688 0.984 . S
N1682 H1689 0.984 . S
N1683 C1676 1.356 . S
N1683 H1686 0.984 . S
N1683 H1687 0.985 . S
H1684 N1679 0.984 . S
H1685 N1679 0.985 . S
H1686 N1683 0.984 . S
H1687 N1683 0.985 . S
H1688 N1682 0.984 . S
H1689 N1682 0.984 . S
H1690 N1678 0.984 . S
H1691 N1678 0.985 . S
C1692 C1693 1.363 . S
C1692 C1698 1.379 . S
C1692 N1700 1.356 . S
C1693 C1692 1.363 . S
C1693 C1699 1.363 . S
C1694 C1695 1.363 . S
C1694 C1699 1.379 . S
C1694 N1701 1.356 . S
C1695 C1694 1.363 . S
C1695 C1698 1.363 . S
N1696 C1698 1.356 . S
N1696 H1708 0.984 . S
N1696 H1709 0.985 . S
N1697 C1699 1.356 . S
N1697 H1702 0.984 . S
N1697 H1703 0.985 . S
C1698 C1692 1.379 . S
C1698 C1695 1.363 . S
C1698 N1696 1.356 . S
C1699 C1693 1.363 . S
C1699 C1694 1.379 . S
C1699 N1697 1.356 . S
N1700 C1692 1.356 . S
N1700 H1706 0.984 . S
N1700 H1707 0.984 . S
N1701 C1694 1.356 . S
N1701 H1704 0.984 . S
N1701 H1705 0.985 . S
H1702 N1697 0.984 . S
H1703 N1697 0.985 . S
H1704 N1701 0.984 . S
H1705 N1701 0.985 . S
H1706 N1700 0.984 . S
H1707 N1700 0.984 . S
H1708 N1696 0.984 . S
H1709 N1696 0.985 . S
C1710 C1711 1.363 . S
C1710 C1716 1.379 . S
C1710 N1718 1.356 . S
C1711 C1710 1.363 . S
C1711 C1717 1.363 . S
C1712 C1713 1.363 . S
C1712 C1717 1.379 . S
C1712 N1719 1.356 . S
C1713 C1712 1.363 . S
C1713 C1716 1.363 . S
N1714 C1716 1.356 . S
N1714 H1726 0.984 . S
N1714 H1727 0.985 . S
N1715 C1717 1.356 . S
N1715 H1720 0.984 . S
N1715 H1721 0.985 . S
C1716 C1710 1.379 . S
C1716 C1713 1.363 . S
C1716 N1714 1.356 . S
C1717 C1711 1.363 . S
C1717 C1712 1.379 . S
C1717 N1715 1.356 . S
N1718 C1710 1.356 . S
N1718 H1724 0.984 . S
N1718 H1725 0.984 . S
N1719 C1712 1.356 . S
N1719 H1722 0.984 . S
N1719 H1723 0.985 . S
H1720 N1715 0.984 . S
H1721 N1715 0.985 . S
H1722 N1719 0.984 . S
H1723 N1719 0.985 . S
H1724 N1718 0.984 . S
H1725 N1718 0.984 . S
H1726 N1714 0.984 . S
H1727 N1714 0.985 . S
C1728 C1729 1.363 . S
C1728 C1734 1.379 . S
C1728 N1736 1.356 . S
C1729 C1728 1.363 . S
C1729 C1735 1.363 . S
C1730 C1731 1.363 . S
C1730 C1735 1.379 . S
C1730 N1737 1.356 . S
C1731 C1730 1.363 . S
C1731 C1734 1.363 . S
N1732 C1734 1.356 . S
N1732 H1744 0.984 . S
N1732 H1745 0.985 . S
N1733 C1735 1.356 . S
N1733 H1738 0.984 . S
N1733 H1739 0.985 . S
C1734 C1728 1.379 . S
C1734 C1731 1.363 . S
C1734 N1732 1.356 . S
C1735 C1729 1.363 . S
C1735 C1730 1.379 . S
C1735 N1733 1.356 . S
N1736 C1728 1.356 . S
N1736 H1742 0.984 . S
N1736 H1743 0.984 . S
N1737 C1730 1.356 . S
N1737 H1740 0.984 . S
N1737 H1741 0.985 . S
H1738 N1733 0.984 . S
H1739 N1733 0.985 . S
H1740 N1737 0.984 . S
H1741 N1737 0.985 . S
H1742 N1736 0.984 . S
H1743 N1736 0.984 . S
H1744 N1732 0.984 . S
H1745 N1732 0.985 . S
C1746 C1747 1.363 . S
C1746 C1752 1.379 . S
C1746 N1754 1.356 . S
C1747 C1746 1.363 . S
C1747 C1753 1.363 . S
C1748 C1749 1.363 . S
C1748 C1753 1.379 . S
C1748 N1755 1.356 . S
C1749 C1748 1.363 . S
C1749 C1752 1.363 . S
N1750 C1752 1.356 . S
N1750 H1762 0.984 . S
N1750 H1763 0.985 . S
N1751 C1753 1.356 . S
N1751 H1756 0.984 . S
N1751 H1757 0.985 . S
C1752 C1746 1.379 . S
C1752 C1749 1.363 . S
C1752 N1750 1.356 . S
C1753 C1747 1.363 . S
C1753 C1748 1.379 . S
C1753 N1751 1.356 . S
N1754 C1746 1.356 . S
N1754 H1760 0.984 . S
N1754 H1761 0.984 . S
N1755 C1748 1.356 . S
N1755 H1758 0.984 . S
N1755 H1759 0.985 . S
H1756 N1751 0.984 . S
H1757 N1751 0.985 . S
H1758 N1755 0.984 . S
H1759 N1755 0.985 . S
H1760 N1754 0.984 . S
H1761 N1754 0.984 . S
H1762 N1750 0.984 . S
H1763 N1750 0.985 . S
C1764 C1765 1.363 . S
C1764 C1770 1.379 . S
C1764 N1772 1.356 . S
C1765 C1764 1.363 . S
C1765 C1771 1.363 . S
C1766 C1767 1.363 . S
C1766 C1771 1.379 . S
C1766 N1773 1.356 . S
C1767 C1766 1.363 . S
C1767 C1770 1.363 . S
N1768 C1770 1.356 . S
N1768 H1780 0.984 . S
N1768 H1781 0.985 . S
N1769 C1771 1.356 . S
N1769 H1774 0.984 . S
N1769 H1775 0.985 . S
C1770 C1764 1.379 . S
C1770 C1767 1.363 . S
C1770 N1768 1.356 . S
C1771 C1765 1.363 . S
C1771 C1766 1.379 . S
C1771 N1769 1.356 . S
N1772 C1764 1.356 . S
N1772 H1778 0.984 . S
N1772 H1779 0.984 . S
N1773 C1766 1.356 . S
N1773 H1776 0.984 . S
N1773 H1777 0.985 . S
H1774 N1769 0.984 . S
H1775 N1769 0.985 . S
H1776 N1773 0.984 . S
H1777 N1773 0.985 . S
H1778 N1772 0.984 . S
H1779 N1772 0.984 . S
H1780 N1768 0.984 . S
H1781 N1768 0.985 . S
C1782 C1783 1.363 . S
C1782 C1788 1.379 . S
C1782 N1790 1.356 . S
C1783 C1782 1.363 . S
C1783 C1789 1.363 . S
C1784 C1785 1.363 . S
C1784 C1789 1.379 . S
C1784 N1791 1.356 . S
C1785 C1784 1.363 . S
C1785 C1788 1.363 . S
N1786 C1788 1.356 . S
N1786 H1798 0.984 . S
N1786 H1799 0.985 . S
N1787 C1789 1.356 . S
N1787 H1792 0.984 . S
N1787 H1793 0.985 . S
C1788 C1782 1.379 . S
C1788 C1785 1.363 . S
C1788 N1786 1.356 . S
C1789 C1783 1.363 . S
C1789 C1784 1.379 . S
C1789 N1787 1.356 . S
N1790 C1782 1.356 . S
N1790 H1796 0.984 . S
N1790 H1797 0.984 . S
N1791 C1784 1.356 . S
N1791 H1794 0.984 . S
N1791 H1795 0.985 . S
H1792 N1787 0.984 . S
H1793 N1787 0.985 . S
H1794 N1791 0.984 . S
H1795 N1791 0.985 . S
H1796 N1790 0.984 . S
H1797 N1790 0.984 . S
H1798 N1786 0.984 . S
H1799 N1786 0.985 . S
C505 C11 1.268 . S
C507 C165 1.268 . S
C523 C137 1.268 . S
C525 C25 1.268 . S
C541 C151 1.268 . S
C543 C39 1.268 . S
C559 C53 1.268 . S
C561 C109 1.268 . S
C577 C67 1.268 . S
C579 C123 1.268 . S
C595 C81 1.268 . S
C597 C95 1.268 . S
C613 C179 1.268 . S
C615 C333 1.268 . S
C631 C305 1.268 . S
C633 C193 1.268 . S
C649 C207 1.268 . S
C651 C319 1.268 . S
C667 C221 1.268 . S
C669 C277 1.268 . S
C685 C235 1.268 . S
C687 C291 1.268 . S
C703 C249 1.268 . S
C705 C263 1.268 . S
C721 C347 1.268 . S
C723 C501 1.268 . S
C739 C361 1.268 . S
C741 C473 1.268 . S
C757 C487 1.268 . S
C759 C375 1.268 . S
C775 C389 1.268 . S
C777 C445 1.268 . S
C793 C459 1.268 . S
C795 C403 1.268 . S
C811 C431 1.268 . S
C813 C417 1.268 . S
C829 C7 1.173 . S
C831 C217 1.173 . S
C847 C21 1.173 . S
C849 C231 1.173 . S
C865 C35 1.173 . S
C867 C245 1.173 . S
C883 C49 1.173 . S
C885 C343 1.173 . S
C901 C357 1.173 . S
C903 C63 1.173 . S
C919 C371 1.173 . S
C921 C77 1.173 . S
C937 C91 1.173 . S
C939 C469 1.173 . S
C955 C483 1.173 . S
C957 C105 1.173 . S
C973 C119 1.173 . S
C975 C497 1.173 . S
C991 C133 1.173 . S
C993 C259 1.173 . S
C1009 C147 1.173 . S
C1011 C273 1.173 . S
C1027 C161 1.173 . S
C1029 C287 1.173 . S
C1045 C385 1.173 . S
C1047 C175 1.173 . S
C1063 C189 1.173 . S
C1065 C399 1.191 . S
C1081 C203 1.191 . S
C1083 C413 1.173 . S
C1099 C427 1.173 . S
C1101 C301 1.173 . S
C1117 C441 1.187 . S
C1119 C315 1.173 . S
C1135 C329 1.187 . S
C1137 C455 1.173 . S
C1153 C13 1.394 . S
C1155 C69 1.394 . S
C1171 C83 1.394 . S
C1173 C27 1.394 . S
C1189 C55 1.394 . S
C1191 C41 1.394 . S
C1207 C97 1.394 . S
C1209 C153 1.394 . S
C1225 C167 1.394 . S
C1227 C111 1.394 . S
C1243 C125 1.394 . S
C1245 C139 1.394 . S
C1261 C237 1.394 . S
C1263 C181 1.394 . S
C1279 C195 1.394 . S
C1281 C251 1.394 . S
C1297 C209 1.394 . S
C1299 C223 1.394 . S
C1315 C321 1.394 . S
C1317 C265 1.394 . S
C1333 C335 1.394 . S
C1335 C279 1.394 . S
C1351 C307 1.394 . S
C1353 C293 1.394 . S
C1369 C349 1.394 . S
C1371 C405 1.394 . S
C1387 C363 1.394 . S
C1389 C419 1.394 . S
C1405 C377 1.394 . S
C1407 C391 1.394 . S
C1423 C489 1.394 . S
C1425 C433 1.394 . S
C1441 C503 1.394 . S
C1443 C447 1.394 . S
C1459 C475 1.394 . S
C1461 C461 1.394 . S
C1477 C134 1.572 . S
C1479 C8 1.572 . S
C1495 C148 1.572 . S
C1497 C22 1.572 . S
C1513 C36 1.572 . S
C1515 C162 1.572 . S
C1531 C50 1.572 . S
C1533 C92 1.572 . S
C1549 C106 1.572 . S
C1551 C64 1.572 . S
C1567 C78 1.572 . S
C1569 C120 1.572 . S
C1585 C302 1.572 . S
C1587 C176 1.572 . S
C1603 C316 1.572 . S
C1605 C190 1.572 . S
C1621 C204 1.572 . S
C1623 C330 1.572 . S
C1639 C260 1.572 . S
C1641 C218 1.572 . S
C1657 C274 1.572 . S
C1659 C232 1.572 . S
C1675 C288 1.572 . S
C1677 C246 1.572 . S
C1693 C344 1.572 . S
C1695 C470 1.572 . S
C1711 C484 1.572 . S
C1713 C358 1.572 . S
C1729 C372 1.572 . S
C1731 C498 1.572 . S
C1747 C386 1.572 . S
C1749 C428 1.572 . S
C1765 C400 1.572 . S
C1767 C442 1.572 . S
C1783 C456 1.572 . S
C1785 C414 1.572 . S
