# Generated by pormake.
# Topology yff, (5)-cn, num edge types: 1
# Building blocks:
#     Node 0, Type 0, BuildingBlock: XOMCOT_clean_sbu_1, # of connection points: 5
#     Node 1, Type 0, BuildingBlock: XOMCOT_clean_sbu_1, # of connection points: 5
#     Node 2, Type 0, BuildingBlock: XOMCOT_clean_sbu_1, # of connection points: 5
#     Node 3, Type 0, BuildingBlock: XOMCOT_clean_sbu_1, # of connection points: 5
#     Node 4, Type 0, BuildingBlock: XOMCOT_clean_sbu_1, # of connection points: 5
#     Node 5, Type 0, BuildingBlock: XOMCOT_clean_sbu_1, # of connection points: 5
#     Node 6, Type 0, BuildingBlock: XOMCOT_clean_sbu_1, # of connection points: 5
#     Node 7, Type 0, BuildingBlock: XOMCOT_clean_sbu_1, # of connection points: 5
#     Node 8, Type 0, BuildingBlock: XOMCOT_clean_sbu_1, # of connection points: 5
#     Node 9, Type 0, BuildingBlock: XOMCOT_clean_sbu_1, # of connection points: 5
#     Node 10, Type 0, BuildingBlock: XOMCOT_clean_sbu_1, # of connection points: 5
#     Node 11, Type 0, BuildingBlock: XOMCOT_clean_sbu_1, # of connection points: 5
#     Node 12, Type 0, BuildingBlock: XOMCOT_clean_sbu_1, # of connection points: 5
#     Node 13, Type 0, BuildingBlock: XOMCOT_clean_sbu_1, # of connection points: 5
#     Node 14, Type 0, BuildingBlock: XOMCOT_clean_sbu_1, # of connection points: 5
#     Node 15, Type 0, BuildingBlock: XOMCOT_clean_sbu_1, # of connection points: 5
#     Edge 16, Type (0, 0), BuildingBlock: KIFKEQ_clean_linker_1, # of connection points: 2
#     Edge 17, Type (0, 0), BuildingBlock: KIFKEQ_clean_linker_1, # of connection points: 2
#     Edge 18, Type (0, 0), BuildingBlock: KIFKEQ_clean_linker_1, # of connection points: 2
#     Edge 19, Type (0, 0), BuildingBlock: KIFKEQ_clean_linker_1, # of connection points: 2
#     Edge 20, Type (0, 0), BuildingBlock: KIFKEQ_clean_linker_1, # of connection points: 2
#     Edge 21, Type (0, 0), BuildingBlock: KIFKEQ_clean_linker_1, # of connection points: 2
#     Edge 22, Type (0, 0), BuildingBlock: KIFKEQ_clean_linker_1, # of connection points: 2
#     Edge 23, Type (0, 0), BuildingBlock: KIFKEQ_clean_linker_1, # of connection points: 2
#     Edge 24, Type (0, 0), BuildingBlock: KIFKEQ_clean_linker_1, # of connection points: 2
#     Edge 25, Type (0, 0), BuildingBlock: KIFKEQ_clean_linker_1, # of connection points: 2
#     Edge 26, Type (0, 0), BuildingBlock: KIFKEQ_clean_linker_1, # of connection points: 2
#     Edge 27, Type (0, 0), BuildingBlock: KIFKEQ_clean_linker_1, # of connection points: 2
#     Edge 28, Type (0, 0), BuildingBlock: KIFKEQ_clean_linker_1, # of connection points: 2
#     Edge 29, Type (0, 0), BuildingBlock: KIFKEQ_clean_linker_1, # of connection points: 2
#     Edge 30, Type (0, 0), BuildingBlock: KIFKEQ_clean_linker_1, # of connection points: 2
#     Edge 31, Type (0, 0), BuildingBlock: KIFKEQ_clean_linker_1, # of connection points: 2
#     Edge 32, Type (0, 0), BuildingBlock: KIFKEQ_clean_linker_1, # of connection points: 2
#     Edge 33, Type (0, 0), BuildingBlock: KIFKEQ_clean_linker_1, # of connection points: 2
#     Edge 34, Type (0, 0), BuildingBlock: KIFKEQ_clean_linker_1, # of connection points: 2
#     Edge 35, Type (0, 0), BuildingBlock: KIFKEQ_clean_linker_1, # of connection points: 2
#     Edge 36, Type (0, 0), BuildingBlock: KIFKEQ_clean_linker_1, # of connection points: 2
#     Edge 37, Type (0, 0), BuildingBlock: KIFKEQ_clean_linker_1, # of connection points: 2
#     Edge 38, Type (0, 0), BuildingBlock: KIFKEQ_clean_linker_1, # of connection points: 2
#     Edge 39, Type (0, 0), BuildingBlock: KIFKEQ_clean_linker_1, # of connection points: 2
#     Edge 40, Type (0, 0), BuildingBlock: KIFKEQ_clean_linker_1, # of connection points: 2
#     Edge 41, Type (0, 0), BuildingBlock: KIFKEQ_clean_linker_1, # of connection points: 2
#     Edge 42, Type (0, 0), BuildingBlock: KIFKEQ_clean_linker_1, # of connection points: 2
#     Edge 43, Type (0, 0), BuildingBlock: KIFKEQ_clean_linker_1, # of connection points: 2
#     Edge 44, Type (0, 0), BuildingBlock: KIFKEQ_clean_linker_1, # of connection points: 2
#     Edge 45, Type (0, 0), BuildingBlock: KIFKEQ_clean_linker_1, # of connection points: 2
#     Edge 46, Type (0, 0), BuildingBlock: KIFKEQ_clean_linker_1, # of connection points: 2
#     Edge 47, Type (0, 0), BuildingBlock: KIFKEQ_clean_linker_1, # of connection points: 2
#     Edge 48, Type (0, 0), BuildingBlock: KIFKEQ_clean_linker_1, # of connection points: 2
#     Edge 49, Type (0, 0), BuildingBlock: KIFKEQ_clean_linker_1, # of connection points: 2
#     Edge 50, Type (0, 0), BuildingBlock: KIFKEQ_clean_linker_1, # of connection points: 2
#     Edge 51, Type (0, 0), BuildingBlock: KIFKEQ_clean_linker_1, # of connection points: 2
#     Edge 52, Type (0, 0), BuildingBlock: KIFKEQ_clean_linker_1, # of connection points: 2
#     Edge 53, Type (0, 0), BuildingBlock: KIFKEQ_clean_linker_1, # of connection points: 2
#     Edge 54, Type (0, 0), BuildingBlock: KIFKEQ_clean_linker_1, # of connection points: 2
#     Edge 55, Type (0, 0), BuildingBlock: KIFKEQ_clean_linker_1, # of connection points: 2
# Relax obj value: 0.476
# Max RMSD: 0.310
# Mean RMSD: 0.310
data_MOF--net-yff--node1-XOMCOT_clean_sbu_1--edge1-KIFKEQ_clean_linker_1
_symmetry_space_group_name_H-M    P1
_symmetry_Int_Tables_number       1
_symmetry_cell_setting            triclinic
loop_
_symmetry_equiv_pos_as_xyz
'x, y, z'
_cell_length_a     60.846703
_cell_length_b     60.934679
_cell_length_c     30.12493
_cell_angle_alpha  89.850652
_cell_angle_beta   90.095014
_cell_angle_gamma 90.049313
loop_
_atom_site_label
_atom_site_type_symbol
_atom_site_fract_x
_atom_site_fract_y
_atom_site_fract_z
_atom_type_partial_charge
C0 C 0.13671 0.02898 0.36796 0.0
C1 C 0.13394 0.01272 0.33676 0.0
N2 N 0.1132 0.01377 0.3212 0.0
N3 N 0.11768 0.04014 0.37264 0.0
C4 C 0.10404 0.03094 0.34246 0.0
H5 H 0.15152 0.03171 0.38685 0.0
Co6 Co 0.10899 0.06234 0.41277 0.0
C7 C 0.10726 0.08636 0.33953 0.0
O8 O 0.12802 0.08727 0.35152 0.0
N9 N 0.10056 0.08439 0.45154 0.0
C10 C 0.10194 0.11542 0.48984 0.0
C11 C 0.10776 0.10529 0.45076 0.0
C12 C 0.09017 0.08226 0.49089 0.0
N13 N 0.09111 0.10077 0.51537 0.0
O14 O 0.08243 0.04554 0.4273 0.0
H15 H 0.11795 0.11224 0.42493 0.0
H16 H 0.08308 0.06702 0.50241 0.0
O17 O 0.0938 0.07648 0.36506 0.0
C18 C 0.0795 0.02482 0.4314 0.0
O19 O 0.09613 0.01122 0.42741 0.0
N20 N 0.12555 0.04976 0.45899 0.0
C21 C 0.15691 0.03116 0.51436 0.0
C22 C 0.16287 0.04726 0.48332 0.0
C23 C 0.14681 0.05653 0.45626 0.0
C24 C 0.11902 0.03667 0.49354 0.0
C25 C 0.13462 0.02656 0.52079 0.0
H26 H 0.15152 0.06806 0.43062 0.0
H27 H 0.10195 0.03337 0.49996 0.0
H28 H 0.0872 0.03616 0.33799 0.0
H29 H 0.14596 0.00037 0.32816 0.0
H30 H 0.10682 0.13175 0.49994 0.0
H31 H 0.17994 0.05143 0.47754 0.0
H32 H 0.1294 0.01472 0.54552 0.0
C33 C 0.43019 0.11519 0.87075 0.0
C34 C 0.44673 0.11559 0.83975 0.0
N35 N 0.45309 0.09481 0.83203 0.0
N36 N 0.42642 0.09426 0.88357 0.0
C37 C 0.44 0.08221 0.85778 0.0
H38 H 0.42173 0.12946 0.88304 0.0
Co39 Co 0.40667 0.08372 0.92692 0.0
C40 C 0.3823 0.07238 0.85768 0.0
O41 O 0.37624 0.09264 0.86621 0.0
N42 N 0.38677 0.07343 0.96934 0.0
C43 C 0.35577 0.06573 1.00499 0.0
C44 C 0.36478 0.07189 0.96497 0.0
C45 C 0.39075 0.06809 0.01225 0.0
N46 N 0.37213 0.06346 0.03491 0.0
O47 O 0.42806 0.06184 0.9478 0.0
H48 H 0.35571 0.07559 0.93504 0.0
H49 H 0.40695 0.06854 0.02704 0.0
O50 O 0.39594 0.06317 0.88395 0.0
C51 C 0.44901 0.06067 0.95086 0.0
O52 O 0.46125 0.07761 0.93981 0.0
N53 N 0.41581 0.10552 0.96687 0.0
C54 C 0.43092 0.14572 0.99758 0.0
C55 C 0.41093 0.14425 0.97448 0.0
C56 C 0.40353 0.12386 0.96001 0.0
C57 C 0.43306 0.10603 0.99592 0.0
C58 C 0.4412 0.12616 0.011 0.0
H59 H 0.38927 0.123 0.93858 0.0
H60 H 0.44123 0.09125 0.00632 0.0
H61 H 0.44112 0.06452 0.85982 0.0
H62 H 0.45372 0.13012 0.82458 0.0
H63 H 0.33845 0.06339 0.01152 0.0
H64 H 0.40215 0.15877 0.96371 0.0
H65 H 0.45602 0.12648 0.03095 0.0
C66 C 0.37282 0.43072 0.36703 0.0
C67 C 0.37283 0.44682 0.33501 0.0
N68 N 0.39353 0.45423 0.33027 0.0
N69 N 0.39335 0.42829 0.38348 0.0
C70 C 0.4057 0.4422 0.35884 0.0
H71 H 0.35856 0.42151 0.37725 0.0
Co72 Co 0.40304 0.40937 0.42918 0.0
C73 C 0.41669 0.38419 0.36227 0.0
O74 O 0.39659 0.37706 0.36927 0.0
N75 N 0.41239 0.39028 0.47387 0.0
C76 C 0.41384 0.36028 0.51584 0.0
C77 C 0.40852 0.3685 0.47459 0.0
C78 C 0.42021 0.39494 0.51493 0.0
N79 N 0.42115 0.37695 0.54117 0.0
O80 O 0.42428 0.43119 0.4498 0.0
H81 H 0.40109 0.35936 0.44779 0.0
H82 H 0.42363 0.4114 0.52648 0.0
O83 O 0.42464 0.39833 0.38894 0.0
C84 C 0.42506 0.45211 0.45276 0.0
O85 O 0.40792 0.46405 0.44163 0.0
N86 N 0.38045 0.41894 0.46672 0.0
C87 C 0.34021 0.43442 0.49639 0.0
C88 C 0.34147 0.41489 0.47196 0.0
C89 C 0.36188 0.40726 0.45812 0.0
C90 C 0.38001 0.43556 0.49701 0.0
C91 C 0.35986 0.44398 0.51145 0.0
H92 H 0.3627 0.39324 0.43623 0.0
H93 H 0.39492 0.44302 0.50895 0.0
H94 H 0.42324 0.44416 0.36323 0.0
H95 H 0.35863 0.45271 0.3169 0.0
H96 H 0.41174 0.34349 0.5269 0.0
H97 H 0.32685 0.40665 0.46003 0.0
H98 H 0.35964 0.4584 0.53239 0.0
C99 C 0.04345 0.38668 0.90784 0.0
C100 C 0.02495 0.38618 0.88172 0.0
N101 N 0.02456 0.40449 0.85643 0.0
N102 N 0.05491 0.40506 0.89888 0.0
C103 C 0.04302 0.41564 0.86756 0.0
H104 H 0.04777 0.37488 0.93327 0.0
Co105 Co 0.07887 0.41464 0.93184 0.0
C106 C 0.1103 0.42784 0.86075 0.0
O107 O 0.12633 0.41706 0.88038 0.0
N108 N 0.1019 0.42458 0.96823 0.0
C109 C 0.12604 0.44568 1.00403 0.0
C110 C 0.11704 0.44066 0.96328 0.0
C111 C 0.1015 0.42084 0.01248 0.0
N112 N 0.11602 0.43332 0.03502 0.0
O113 O 0.06365 0.44074 0.94413 0.0
H114 H 0.11986 0.44997 0.93331 0.0
H115 H 0.08949 0.41038 0.02836 0.0
O116 O 0.09128 0.42843 0.87872 0.0
C117 C 0.0504 0.44009 0.97663 0.0
O118 O 0.04898 0.42207 1.0005 0.0
N119 N 0.09306 0.38779 0.92021 0.0
C120 C 0.0993 0.34305 0.90518 0.0
C121 C 0.09908 0.35796 0.86973 0.0
C122 C 0.09511 0.38006 0.87781 0.0
C123 C 0.0953 0.3738 0.95528 0.0
C124 C 0.09842 0.35139 0.94856 0.0
H125 H 0.09142 0.39033 0.84957 0.0
H126 H 0.09215 0.37938 0.98851 0.0
H127 H 0.04746 0.43161 0.85462 0.0
H128 H 0.01219 0.37383 0.88325 0.0
H129 H 0.13751 0.45886 0.01078 0.0
H130 H 0.09995 0.35243 0.83565 0.0
H131 H 0.09792 0.34062 0.97717 0.0
C132 C 0.61292 0.03511 0.62438 0.0
C133 C 0.60312 0.04951 0.65363 0.0
N134 N 0.58604 0.03915 0.67303 0.0
N135 N 0.60198 0.01589 0.62553 0.0
C136 C 0.58586 0.01884 0.65553 0.0
H137 H 0.62618 0.03886 0.60171 0.0
Co138 Co 0.60327 0.99258 0.58643 0.0
C139 C 0.60358 0.9544 0.64973 0.0
O140 O 0.61866 0.9441 0.62655 0.0
N141 N 0.60332 0.96959 0.54502 0.0
C142 C 0.59074 0.9416 0.50479 0.0
C143 C 0.59205 0.95045 0.54661 0.0
C144 C 0.60788 0.9723 0.50138 0.0
N145 N 0.60067 0.95543 0.47637 0.0
O146 O 0.57324 -0.00397 0.57462 0.0
H147 H 0.58313 0.94435 0.57501 0.0
H148 H 0.61393 0.98748 0.48732 0.0
O149 O 0.59607 0.97278 0.63586 0.0
C150 C 0.56686 0.00924 0.54462 0.0
O151 O 0.58145 0.02091 0.52276 0.0
N152 N 0.63358 0.98965 0.59742 0.0
C153 C 0.67781 0.98019 0.60832 0.0
C154 C 0.66385 0.9807 0.64512 0.0
C155 C 0.64183 0.98626 0.63912 0.0
C156 C 0.64754 0.99182 0.56236 0.0
C157 C 0.66977 0.98687 0.56693 0.0
H158 H 0.63129 0.98706 0.66788 0.0
H159 H 0.64151 -0.0029 0.53051 0.0
H160 H 0.5729 0.00699 0.66122 0.0
H161 H 0.60752 0.06655 0.65853 0.0
H162 H 0.58185 0.9269 0.49556 0.0
H163 H 0.66984 0.97655 0.67797 0.0
H164 H 0.68035 0.98741 0.53805 0.0
C165 C 0.44885 0.61348 0.1148 0.0
C166 C 0.4346 0.6026 0.1428 0.0
N167 N 0.44609 0.58739 0.16569 0.0
N168 N 0.46919 0.60517 0.12022 0.0
C169 C 0.46702 0.58954 0.1517 0.0
H170 H 0.44441 0.62555 0.08998 0.0
Co171 Co 0.49337 0.60881 0.08365 0.0
C172 C 0.52735 0.61997 0.15375 0.0
O173 O 0.53463 0.63723 0.13199 0.0
N174 N 0.51737 0.61135 0.04485 0.0
C175 C 0.54945 0.60826 0.00999 0.0
C176 C 0.53925 0.60887 0.05073 0.0
C177 C 0.51474 0.61113 1.00026 0.0
N178 N 0.53395 0.60963 0.97815 0.0
O179 O 0.49618 0.57809 0.07883 0.0
H180 H 0.54736 0.60585 0.08198 0.0
H181 H 0.49881 0.61105 0.98434 0.0
O182 O 0.51219 0.60805 0.13689 0.0
C183 C 0.4834 0.56852 0.05168 0.0
O184 O 0.46841 0.58011 0.03072 0.0
N185 N 0.4899 0.63954 0.08605 0.0
C186 C 0.4901 0.68506 0.08009 0.0
C187 C 0.49121 0.67467 0.12165 0.0
C188 C 0.49033 0.65175 0.12401 0.0
C189 C 0.48578 0.6495 0.04635 0.0
C190 C 0.48615 0.67226 0.04244 0.0
H191 H 0.49095 0.64387 0.15615 0.0
H192 H 0.48272 0.63982 0.01715 0.0
H193 H 0.4802 0.57851 0.16102 0.0
H194 H 0.41698 0.60491 0.14436 0.0
H195 H 0.56681 0.60558 1.00438 0.0
H196 H 0.49333 0.68411 0.15177 0.0
H197 H 0.48455 0.67965 0.00985 0.0
C198 C 0.87367 0.45727 0.61305 0.0
C199 C 0.884 0.44316 0.64226 0.0
N200 N 0.89848 0.45485 0.66654 0.0
N201 N 0.88168 0.47768 0.61902 0.0
C202 C 0.8966 0.47568 0.65194 0.0
H203 H 0.8622 0.4527 0.58721 0.0
Co204 Co 0.87858 0.50197 0.58243 0.0
C205 C 0.8687 0.53731 0.6506 0.0
O206 O 0.85364 0.54702 0.62613 0.0
N207 N 0.87653 0.52615 0.54395 0.0
C208 C 0.88263 0.55798 0.50942 0.0
C209 C 0.88283 0.54724 0.54968 0.0
C210 C 0.87382 0.52429 0.49958 0.0
N211 N 0.87708 0.5434 0.47789 0.0
O212 O 0.90949 0.50448 0.57855 0.0
H213 H 0.88912 0.55408 0.58018 0.0
H214 H 0.87102 0.50888 0.48294 0.0
O215 O 0.87884 0.52051 0.63567 0.0
C216 C 0.91853 0.49189 0.55041 0.0
O217 O 0.90628 0.47775 0.52868 0.0
N218 N 0.84779 0.49871 0.5836 0.0
C219 C 0.80249 0.49935 0.57143 0.0
C220 C 0.81161 0.50338 0.61345 0.0
C221 C 0.83439 0.50232 0.61917 0.0
C222 C 0.83898 0.49162 0.54458 0.0
C223 C 0.81636 0.49219 0.5374 0.0
H224 H 0.84113 0.50496 0.65185 0.0
H225 H 0.84958 0.48601 0.51835 0.0
H226 H 0.90737 0.48889 0.66212 0.0
H227 H 0.88181 0.42555 0.64398 0.0
H228 H 0.88785 0.57471 0.50338 0.0
H229 H 0.8013 0.50781 0.64128 0.0
H230 H 0.80998 0.48817 0.50483 0.0
C231 C 0.02594 0.87102 0.10069 0.0
C232 C 0.04202 0.88051 0.12667 0.0
N233 N 0.03371 0.89889 0.14503 0.0
N234 N 0.00759 0.8833 0.103 0.0
C235 C 0.01273 0.89994 0.13052 0.0
H236 H 0.02791 0.85688 0.07943 0.0
Co237 Co 0.9827 0.88157 0.06757 0.0
C238 C 0.94809 0.89981 0.13043 0.0
O239 O 0.93569 0.90967 0.10077 0.0
N240 N 0.9582 0.88009 0.03044 0.0
C241 C 0.92751 0.87033 0.99546 0.0
C242 C 0.93851 0.87019 0.03564 0.0
C243 C 0.95873 0.88621 0.98735 0.0
N244 N 0.94032 0.88052 0.96531 0.0
O245 O 0.98585 0.91154 0.05297 0.0
H246 H 0.93302 0.86236 0.06594 0.0
H247 H 0.97297 0.89347 0.97164 0.0
O248 O 0.96522 0.88944 0.11847 0.0
C249 C 0.00142 0.91772 0.02784 0.0
O250 O 0.01534 0.90311 0.01254 0.0
N251 N 0.97969 0.85187 0.08119 0.0
C252 C 0.9665 0.80878 0.09309 0.0
C253 C 0.96775 0.823 0.12938 0.0
C254 C 0.97481 0.84449 0.12287 0.0
C255 C 0.98062 0.8377 0.04634 0.0
C256 C 0.97398 0.81594 0.05154 0.0
H257 H 0.97543 0.85535 0.1511 0.0
H258 H 0.98512 0.84371 0.01377 0.0
H259 H 0.0015 0.9132 0.13784 0.0
H260 H 0.05887 0.87503 0.12943 0.0
H261 H 0.91164 0.86303 0.98866 0.0
H262 H 0.96269 0.81771 0.16218 0.0
H263 H 0.97342 0.80523 0.02291 0.0
C264 C 0.88411 0.97258 0.59349 0.0
C265 C 0.88705 0.99061 0.62005 0.0
N266 N 0.90552 0.98764 0.64401 0.0
N267 N 0.90055 0.95819 0.60091 0.0
C268 C 0.91336 0.96779 0.63194 0.0
H269 H 0.87127 0.9704 0.56902 0.0
Co270 Co 0.90529 0.93336 0.56652 0.0
C271 C 0.91211 0.89967 0.63711 0.0
O272 O 0.8977 0.88682 0.61754 0.0
N273 N 0.91037 0.90966 0.52847 0.0
C274 C 0.92481 0.88217 0.4899 0.0
C275 C 0.92148 0.89057 0.53178 0.0
C276 C 0.90788 0.91274 0.4843 0.0
N277 N 0.9164 0.89628 0.4597 0.0
O278 O 0.93371 0.9439 0.55202 0.0
H279 H 0.92864 0.88399 0.56175 0.0
H280 H 0.90138 0.92783 0.47072 0.0
O281 O 0.9174 0.91795 0.6189 0.0
C282 C 0.93457 0.96052 0.52643 0.0
O283 O 0.91622 0.9694 0.51204 0.0
N284 N 0.87646 0.92384 0.57982 0.0
C285 C 0.83156 0.92337 0.59715 0.0
C286 C 0.8467 0.92426 0.63201 0.0
C287 C 0.86902 0.9248 0.62266 0.0
C288 C 0.86191 0.92132 0.5457 0.0
C289 C 0.8393 0.92083 0.5537 0.0
H290 H 0.88015 0.92817 0.64976 0.0
H291 H 0.86749 0.92172 0.51179 0.0
H292 H 0.92882 0.96099 0.64329 0.0
H293 H 0.8767 0.00504 0.62078 0.0
H294 H 0.934 0.86744 0.48264 0.0
H295 H 0.84128 0.92639 0.66598 0.0
H296 H 0.82803 0.92055 0.52584 0.0
C297 C 0.54797 0.87453 0.15798 0.0
C298 C 0.53316 0.87537 0.19239 0.0
N299 N 0.52677 0.89634 0.19748 0.0
N300 N 0.55061 0.89485 0.14074 0.0
C301 C 0.53815 0.90783 0.16683 0.0
H302 H 0.55587 0.85983 0.14621 0.0
Co303 Co 0.56786 0.90416 0.0925 0.0
C304 C 0.59382 0.92155 0.15578 0.0
O305 O 0.60255 0.90196 0.15127 0.0
N306 N 0.58532 0.9133 0.04534 0.0
C307 C 0.61406 0.921 1.00279 0.0
C308 C 0.60732 0.91574 0.04509 0.0
C309 C 0.57903 0.91714 1.00297 0.0
N310 N 0.59622 0.92178 0.9762 0.0
O311 O 0.54464 0.92387 0.0713 0.0
H312 H 0.61792 0.91337 0.0735 0.0
H313 H 0.56222 0.9157 0.99166 0.0
O314 O 0.5787 0.92733 0.12894 0.0
C315 C 0.52366 0.92507 0.07258 0.0
O316 O 0.51207 0.9091 0.09033 0.0
N317 N 0.55833 0.88025 0.05858 0.0
C318 C 0.54459 0.83862 0.03324 0.0
C319 C 0.56497 0.84165 0.05426 0.0
C320 C 0.57165 0.8627 0.06599 0.0
C321 C 0.54007 0.87811 0.03257 0.0
C322 C 0.53274 0.85729 0.01996 0.0
H323 H 0.58651 0.86484 0.08528 0.0
H324 H 0.53061 0.89214 0.02242 0.0
H325 H 0.53681 0.92539 0.16221 0.0
H326 H 0.5268 0.86144 0.21069 0.0
H327 H 0.63085 0.92384 0.99249 0.0
H328 H 0.57486 0.82786 0.06502 0.0
H329 H 0.51746 0.85578 1.00172 0.0
C330 C 0.6161 0.54631 0.64586 0.0
C331 C 0.61655 0.53026 0.67798 0.0
N332 N 0.59575 0.52394 0.68631 0.0
N333 N 0.59512 0.54987 0.63307 0.0
C334 C 0.5831 0.53664 0.65981 0.0
H335 H 0.63037 0.55451 0.63259 0.0
Co336 Co 0.58462 0.56899 0.58851 0.0
C337 C 0.57086 0.59331 0.65639 0.0
O338 O 0.59084 0.60072 0.6493 0.0
N339 N 0.57451 0.58829 0.5449 0.0
C340 C 0.57102 0.6188 0.50496 0.0
C341 C 0.57653 0.61032 0.54588 0.0
C342 C 0.5676 0.58374 0.50315 0.0
N343 N 0.56544 0.60204 0.47815 0.0
O344 O 0.56378 0.54692 0.56719 0.0
H345 H 0.5828 0.61958 0.57369 0.0
H346 H 0.56573 0.56727 0.49032 0.0
O347 O 0.56302 0.57913 0.62968 0.0
C348 C 0.56261 0.52598 0.56625 0.0
O349 O 0.57917 0.51395 0.58022 0.0
N350 N 0.60716 0.56042 0.55012 0.0
C351 C 0.64807 0.54832 0.51771 0.0
C352 C 0.64539 0.56815 0.54059 0.0
C353 C 0.62469 0.57397 0.55607 0.0
C354 C 0.60869 0.54287 0.52222 0.0
C355 C 0.62922 0.53626 0.50626 0.0
H356 H 0.62297 0.58829 0.57694 0.0
H357 H 0.59449 0.53338 0.51322 0.0
H358 H 0.56538 0.53539 0.65778 0.0
H359 H 0.63115 0.52353 0.69341 0.0
H360 H 0.57177 0.63589 0.49519 0.0
H361 H 0.65935 0.57813 0.55006 0.0
H362 H 0.63047 0.52135 0.48694 0.0
C363 C 0.95191 0.61412 0.09839 0.0
C364 C 0.97065 0.61443 0.12384 0.0
N365 N 0.97077 0.59644 0.15009 0.0
N366 N 0.94004 0.59616 0.1087 0.0
C367 C 0.95192 0.58565 0.14014 0.0
H368 H 0.94758 0.6258 0.07276 0.0
Co369 Co 0.91509 0.58707 0.0778 0.0
C370 C 0.88482 0.57552 0.1514 0.0
O371 O 0.86903 0.58691 0.13241 0.0
N372 N 0.89111 0.57748 0.0437 0.0
C373 C 0.86686 0.55535 0.011 0.0
C374 C 0.87642 0.56117 0.0507 0.0
C375 C 0.89055 0.58069 0.99926 0.0
N376 N 0.87592 0.56756 0.97854 0.0
O377 O 0.92948 0.56063 0.06405 0.0
H378 H 0.87439 0.55218 0.08132 0.0
H379 H 0.9025 0.59063 0.9818 0.0
O380 O 0.90346 0.57378 0.13217 0.0
C381 C 0.94344 0.56236 0.03293 0.0
O382 O 0.94573 0.58138 0.01279 0.0
N383 N 0.90175 0.6143 0.09047 0.0
C384 C 0.89931 0.6593 0.10462 0.0
C385 C 0.90078 0.64484 0.14059 0.0
C386 C 0.90235 0.62242 0.1328 0.0
C387 C 0.89793 0.62807 0.05554 0.0
C388 C 0.89646 0.6507 0.06193 0.0
H389 H 0.90689 0.6121 0.16049 0.0
H390 H 0.89863 0.62207 0.02202 0.0
H391 H 0.94711 0.57005 0.1543 0.0
H392 H 0.98367 0.62647 0.12143 0.0
H393 H 0.85535 0.54201 1.00608 0.0
H394 H 0.90316 0.65093 0.17402 0.0
H395 H 0.89569 0.6614 0.03321 0.0
C396 C 0.36041 0.96481 0.36318 0.0
C397 C 0.37176 0.94971 0.33836 0.0
N398 N 0.39226 0.94806 0.35495 0.0
N399 N 0.37366 0.97268 0.39546 0.0
C400 C 0.39283 0.96189 0.38984 0.0
H401 H 0.34401 0.97065 0.35613 0.0
Co402 Co 0.36832 -0.00333 0.4325 0.0
C403 C 0.35552 0.03146 0.36246 0.0
O404 O 0.34378 0.04449 0.38775 0.0
N405 N 0.36342 0.02055 0.47034 0.0
C406 C 0.36962 0.0517 0.50659 0.0
C407 C 0.37103 0.04127 0.46624 0.0
C408 C 0.35789 0.0187 0.51366 0.0
N409 N 0.36162 0.03736 0.5366 0.0
O410 O 0.3985 0.00428 0.43145 0.0
H411 H 0.37925 0.04769 0.43718 0.0
H412 H 0.35306 0.00338 0.52894 0.0
O413 O 0.36402 0.01403 0.37863 0.0
C414 C 0.40758 -0.0012 0.46786 0.0
O415 O 0.39599 0.98795 0.49746 0.0
N416 N 0.339 0.98841 0.43755 0.0
C417 C 0.29735 0.97719 0.46728 0.0
C418 C 0.29996 0.99127 0.43072 0.0
C419 C 0.32104 -0.00321 0.41638 0.0
C420 C 0.33668 0.97327 0.47055 0.0
C421 C 0.31595 0.96761 0.48645 0.0
H422 H 0.32266 0.00815 0.38929 0.0
H423 H 0.35116 0.96664 0.48655 0.0
H424 H 0.40754 0.96531 0.4087 0.0
H425 H 0.36568 0.94146 0.30903 0.0
H426 H 0.37601 0.06785 0.51412 0.0
H427 H 0.2859 -0.00099 0.4151 0.0
H428 H 0.31453 0.95658 0.51457 0.0
C429 C 0.53965 0.36511 0.90303 0.0
C430 C 0.55395 0.37589 0.87491 0.0
N431 N 0.54262 0.3914 0.85254 0.0
N432 N 0.51944 0.3738 0.8982 0.0
C433 C 0.52173 0.38955 0.86698 0.0
H434 H 0.54401 0.35285 0.92751 0.0
Co435 Co 0.49524 0.37066 0.93488 0.0
C436 C 0.46023 0.36106 0.86574 0.0
O437 O 0.45178 0.34472 0.88864 0.0
N438 N 0.47112 0.36861 0.97382 0.0
C439 C 0.43925 0.37407 0.00843 0.0
C440 C 0.44969 0.37368 0.96792 0.0
C441 C 0.47336 0.36707 0.01845 0.0
N442 N 0.45424 0.37002 0.04029 0.0
O443 O 0.49335 0.40146 0.93997 0.0
H444 H 0.44229 0.37873 0.93698 0.0
H445 H 0.48902 0.36519 0.03489 0.0
O446 O 0.47638 0.37198 0.88163 0.0
C447 C 0.50426 0.40971 0.9718 0.0
O448 O 0.51635 0.39674 0.99674 0.0
N449 N 0.49791 0.33984 0.93238 0.0
C450 C 0.49523 0.29451 0.94137 0.0
C451 C 0.49328 0.30438 0.89938 0.0
C452 C 0.49543 0.32717 0.89538 0.0
C453 C 0.50324 0.33019 0.9718 0.0
C454 C 0.50161 0.30755 0.97733 0.0
H455 H 0.4941 0.3346 0.86292 0.0
H456 H 0.5081 0.34012 0.99965 0.0
H457 H 0.5087 0.40083 0.85813 0.0
H458 H 0.57151 0.37325 0.87289 0.0
H459 H 0.42229 0.37859 0.01411 0.0
H460 H 0.48943 0.29469 0.8703 0.0
H461 H 0.50405 0.30057 0.01007 0.0
C462 C 0.12087 0.54493 0.39711 0.0
C463 C 0.11032 0.55874 0.36766 0.0
N464 N 0.09594 0.54676 0.34369 0.0
N465 N 0.11316 0.52439 0.39157 0.0
C466 C 0.09816 0.52601 0.35868 0.0
H467 H 0.13235 0.54976 0.42276 0.0
Co468 Co 0.11668 0.50039 0.42871 0.0
C469 C 0.12716 0.46509 0.36159 0.0
O470 O 0.14309 0.45674 0.38586 0.0
N471 N 0.11913 0.47636 0.46785 0.0
C472 C 0.11398 0.44447 0.50283 0.0
C473 C 0.11361 0.45503 0.46238 0.0
C474 C 0.12158 0.47846 0.51227 0.0
N475 N 0.11887 0.45934 0.5342 0.0
O476 O 0.08578 0.49794 0.43368 0.0
H477 H 0.10775 0.44782 0.4319 0.0
H478 H 0.12384 0.49401 0.52872 0.0
O479 O 0.11608 0.48138 0.37612 0.0
C480 C 0.0778 0.50856 0.46613 0.0
O481 O 0.09107 0.52043 0.49081 0.0
N482 N 0.14751 0.50371 0.42639 0.0
C483 C 0.19282 0.50101 0.43646 0.0
C484 C 0.18316 0.4987 0.39435 0.0
C485 C 0.16038 0.50085 0.38977 0.0
C486 C 0.15698 0.50966 0.46556 0.0
C487 C 0.17961 0.50799 0.4717 0.0
H488 H 0.15312 0.49915 0.35725 0.0
H489 H 0.14689 0.51495 0.49284 0.0
H490 H 0.08764 0.51256 0.34867 0.0
H491 H 0.11233 0.57636 0.36552 0.0
H492 H 0.10933 0.42759 0.50904 0.0
H493 H 0.19299 0.49447 0.36568 0.0
H494 H 0.18642 0.51077 0.50445 0.0
C495 C 0.98581 0.12364 0.89062 0.0
C496 C 0.97002 0.11445 0.86353 0.0
N497 N 0.97961 0.0988 0.83854 0.0
N498 N 0.00525 0.11396 0.88234 0.0
C499 C 0.001 0.09911 0.8504 0.0
H500 H 0.98305 0.13553 0.91661 0.0
Co501 Co 0.03075 0.11514 0.91583 0.0
C502 C 0.06319 0.1216 0.8418 0.0
O503 O 0.0722 0.13867 0.86132 0.0
N504 N 0.05595 0.11511 0.95195 0.0
C505 C 0.08853 0.11149 0.98513 0.0
C506 C 0.07775 0.1125 0.94489 0.0
C507 C 0.05394 0.11447 0.99661 0.0
N508 N 0.07341 0.11265 0.01749 0.0
O509 O 0.02923 0.08451 0.92357 0.0
H510 H 0.08548 0.10999 0.91318 0.0
H511 H 0.0383 0.11521 0.0136 0.0
O512 O 0.04784 0.11096 0.86128 0.0
C513 C 0.01656 0.07791 0.95429 0.0
O514 O 0.00551 0.09243 0.97743 0.0
N515 N 0.03162 0.14592 0.90951 0.0
C516 C 0.04029 0.19057 0.90192 0.0
C517 C 0.03378 0.1784 0.86464 0.0
C518 C 0.02918 0.15607 0.86929 0.0
C519 C 0.03464 0.15818 0.94677 0.0
C520 C 0.0396 0.18039 0.94369 0.0
H521 H 0.02505 0.14667 0.84005 0.0
H522 H 0.0341 0.15071 0.97915 0.0
H523 H 0.01326 0.08785 0.83812 0.0
H524 H 0.95261 0.11802 0.8645 0.0
H525 H 0.10595 0.1089 0.99022 0.0
H526 H 0.03302 0.18582 0.83197 0.0
H527 H 0.04396 0.18909 0.97373 0.0
H528 H 0.9733 0.93922 0.5142 0.0
H529 H 0.94337 0.00335 0.50957 0.0
H530 H 0.00805 0.95494 0.48985 0.0
H531 H 0.97841 0.01953 0.48839 0.0
H532 H 0.03866 0.03974 0.40957 0.0
H533 H 0.00344 0.02397 0.4317 0.0
H534 H 0.0377 0.97558 0.51134 0.0
H535 H 0.0726 0.99044 0.48645 0.0
C536 C 0.97434 0.95677 0.50861 0.0
C537 C 0.95578 0.9701 0.5136 0.0
C538 C 0.99428 0.96587 0.49493 0.0
C539 C -0.00379 0.98862 0.48719 0.0
C540 C 0.97755 0.00193 0.49299 0.0
C541 C 0.95749 0.99271 0.5055 0.0
C542 C 0.03849 0.02571 0.43173 0.0
C543 C 0.05819 0.01615 0.44606 0.0
C544 C 0.01835 0.01672 0.44473 0.0
C545 C 0.01758 -0.00164 0.47329 0.0
C546 C 0.0375 0.98928 0.48838 0.0
C547 C 0.05755 -0.00211 0.47443 0.0
H548 H 0.43009 0.02058 0.96649 0.0
H549 H 0.49189 0.05529 0.97504 0.0
H550 H 0.44789 0.98738 0.99408 0.0
H551 H 0.50946 0.0225 1.0042 0.0
H552 H 0.54026 0.95522 0.01433 0.0
H553 H 0.52185 0.98732 0.98365 0.0
H554 H 0.46342 0.97121 0.05852 0.0
H555 H 0.48161 0.93863 0.08778 0.0
C556 C 0.44744 0.02117 0.97456 0.0
C557 C 0.45958 0.04056 0.96842 0.0
C558 C 0.45764 0.00216 0.99064 0.0
C559 C 0.48018 0.00216 1.00134 0.0
C560 C 0.49221 0.02168 0.99551 0.0
C561 C 0.48207 0.04059 0.97905 0.0
C562 C 0.52346 0.95852 0.02413 0.0
C563 C 0.51238 0.9444 0.05346 0.0
C564 C 0.51292 0.97702 0.00674 0.0
C565 C 0.49113 0.98201 0.01872 0.0
C566 C 0.48005 0.96776 0.04796 0.0
C567 C 0.49052 0.94911 0.06493 0.0
H568 H 0.54969 0.48366 0.57926 0.0
H569 H 0.53038 0.54396 0.51442 0.0
H570 H 0.51636 0.46595 0.55259 0.0
H571 H 0.49748 0.52602 0.48595 0.0
H572 H 0.46581 0.43406 0.4628 0.0
H573 H 0.4992 0.452 0.48861 0.0
H574 H 0.46295 0.51224 0.50787 0.0
H575 H 0.42983 0.49451 0.48014 0.0
C576 C 0.53843 0.49305 0.55883 0.0
C577 C 0.54264 0.51518 0.54892 0.0
C578 C 0.51935 0.48287 0.5433 0.0
C579 C 0.50417 0.4945 0.51697 0.0
C580 C 0.50856 0.51663 0.50677 0.0
C581 C 0.5275 0.5269 0.52284 0.0
C582 C 0.465 0.45114 0.47253 0.0
C583 C 0.4452 0.46288 0.46937 0.0
C584 C 0.48412 0.46142 0.48761 0.0
C585 C 0.48384 0.48361 0.50044 0.0
C586 C 0.46394 0.49527 0.49753 0.0
C587 C 0.44488 0.48506 0.48192 0.0
H588 H 0.93992 0.51956 0.05896 0.0
H589 H 0.98095 0.56422 0.98426 0.0
H590 H 0.96578 0.4899 0.04441 0.0
H591 H 0.00719 0.53494 0.97128 0.0
H592 H 0.03895 0.47275 0.91938 0.0
H593 H 0.01226 0.50184 0.93152 0.0
H594 H 0.00171 0.47822 0.06534 0.0
H595 H 0.02778 0.4486 0.05242 0.0
C596 C 0.95448 0.52302 0.03951 0.0
C597 C 0.95842 0.54415 0.02266 0.0
C598 C 0.96938 0.5061 0.03147 0.0
C599 C 0.98861 0.51008 0.00686 0.0
C600 C 0.99239 0.53122 0.98976 0.0
C601 C 0.97738 0.54804 0.99735 0.0
C602 C 0.03102 0.4739 0.95147 0.0
C603 C 0.03541 0.45849 0.98502 0.0
C604 C 0.01576 0.49058 0.95848 0.0
C605 C 0.00481 0.49233 0.99938 0.0
C606 C 0.00953 0.47708 0.03316 0.0
C607 C 0.02458 0.46023 0.02593 0.0
H608 H 0.53365 0.98595 0.58197 0.0
H609 H 0.547 0.03507 0.48167 0.0
H610 H 0.49511 0.98641 0.5621 0.0
H611 H 0.50791 0.03591 0.4624 0.0
H612 H 0.4411 0.00641 0.40932 0.0
H613 H 0.47998 0.01174 0.42784 0.0
H614 H 0.46374 0.01034 0.56749 0.0
H615 H 0.42535 0.00431 0.54904 0.0
C616 C 0.52831 -0.00296 0.55595 0.0
C617 C 0.54335 0.0105 0.5334 0.0
C618 C 0.50616 -0.00259 0.54476 0.0
C619 C 0.49847 0.01136 0.51097 0.0
C620 C 0.51344 0.02493 0.48843 0.0
C621 C 0.53575 0.02452 0.49962 0.0
C622 C 0.44594 0.0075 0.44387 0.0
C623 C 0.43045 0.00452 0.47781 0.0
C624 C 0.4681 0.01065 0.45448 0.0
C625 C 0.4749 0.01108 0.49912 0.0
C626 C 0.45907 0.00949 0.53282 0.0
C627 C 0.4371 0.00607 0.52227 0.0
H628 H 0.45521 0.5418 0.00683 0.0
H629 H 0.51817 0.54242 0.07343 0.0
H630 H 0.46054 0.50337 0.98771 0.0
H631 H 0.5239 0.50425 0.05292 0.0
H632 H 0.51666 0.42991 0.04826 0.0
H633 H 0.51125 0.46811 0.06854 0.0
H634 H 0.48209 0.48077 0.93999 0.0
H635 H 0.48678 0.44227 0.9204 0.0
C636 C 0.47022 0.53372 0.01726 0.0
C637 C 0.48626 0.54506 0.04166 0.0
C638 C 0.47336 0.51176 1.006 0.0
C639 C 0.49271 0.50076 0.01854 0.0
C640 C 0.50867 0.51212 0.04325 0.0
C641 C 0.50543 0.53402 0.0549 0.0
C642 C 0.50919 0.44088 0.02425 0.0
C643 C 0.5021 0.43313 0.98278 0.0
C644 C 0.50617 0.46281 0.03581 0.0
C645 C 0.4962 0.47751 1.00594 0.0
C646 C 0.48946 0.46979 0.9641 0.0
C647 C 0.49228 0.44779 0.95272 0.0
H648 H 0.94397 0.46319 0.50428 0.0
H649 H 0.94618 0.52541 0.57262 0.0
H650 H 0.9825 0.46722 0.48426 0.0
H651 H 0.9845 0.5299 0.55117 0.0
H652 H 0.05848 0.52061 0.5436 0.0
H653 H 0.02027 0.51609 0.56507 0.0
H654 H 0.00584 0.48797 0.43661 0.0
H655 H 0.0444 0.49175 0.41582 0.0
C656 C 0.9527 0.47777 0.51491 0.0
C657 C 0.9421 0.49397 0.54006 0.0
C658 C 0.97474 0.48017 0.50312 0.0
C659 C 0.9866 0.49895 0.51584 0.0
C660 C 0.97598 0.51508 0.54133 0.0
C661 C 0.95399 0.51255 0.55353 0.0
C662 C 0.04713 0.51354 0.51987 0.0
C663 C 0.0544 0.50653 0.47802 0.0
C664 C 0.02519 0.51103 0.53212 0.0
C665 C 0.00994 0.50168 0.5026 0.0
C666 C 0.01721 0.49489 0.46047 0.0
C667 C 0.03925 0.49719 0.4484 0.0
H668 H 0.97167 0.95028 0.04144 0.0
H669 H 0.03625 0.93773 0.98762 0.0
H670 H 0.97526 0.98888 0.02216 0.0
H671 H 0.04016 0.97657 0.9696 0.0
H672 H 0.02984 0.04343 0.90339 0.0
H673 H 0.02601 0.00443 0.92019 0.0
H674 H 0.99546 0.02056 0.04542 0.0
H675 H -0.00135 0.05941 0.02797 0.0
C676 C 0.9867 0.95582 0.02574 0.0
C677 C 0.00371 0.94104 0.01607 0.0
C678 C 0.98881 0.97795 0.0149 0.0
C679 C 0.00804 0.9858 0.99455 0.0
C680 C 0.02503 0.97097 0.98474 0.0
C681 C 0.02284 0.94876 0.99526 0.0
C682 C 0.02231 0.03858 0.93448 0.0
C683 C 0.01447 0.05439 0.96434 0.0
C684 C 0.02021 0.01628 0.9442 0.0
C685 C 0.01039 0.00942 0.98409 0.0
C686 C 0.00273 0.0253 0.01404 0.0
C687 C 0.00465 0.04756 1.00415 0.0
H688 H 0.06579 0.09065 0.3038 0.0
H689 H 0.1347 0.097 0.27202 0.0
H690 H 0.05638 0.09954 0.22687 0.0
H691 H 0.12558 0.10444 0.19551 0.0
H692 H 0.10557 0.13198 0.06466 0.0
H693 H 0.11209 0.12885 0.14431 0.0
H694 H 0.05637 0.08497 0.15541 0.0
H695 H 0.04929 0.08942 0.07616 0.0
C696 C 0.07889 0.09399 0.28044 0.0
C697 C 0.10096 0.09321 0.29409 0.0
C698 C 0.07355 0.09889 0.2362 0.0
C699 C 0.09019 0.10273 0.20455 0.0
C700 C 0.11222 0.10215 0.21872 0.0
C701 C 0.11749 0.09768 0.26285 0.0
C702 C 0.09475 0.12177 0.08442 0.0
C703 C 0.07704 0.11087 0.06449 0.0
C704 C 0.09848 0.11984 0.13003 0.0
C705 C 0.08492 0.10643 0.15665 0.0
C706 C 0.06698 0.09573 0.13646 0.0
C707 C 0.06298 0.09811 0.09097 0.0
H708 H 0.34711 0.08321 0.80699 0.0
H709 H 0.40324 0.03994 0.81067 0.0
H710 H 0.33971 0.0725 0.7307 0.0
H711 H 0.39606 0.02943 0.73354 0.0
H712 H 0.36875 0.00611 0.59974 0.0
H713 H 0.37117 0.0116 0.67988 0.0
H714 H 0.35804 0.08067 0.66134 0.0
H715 H 0.35499 0.07503 0.58154 0.0
C716 C 0.35771 0.07114 0.79164 0.0
C717 C 0.37585 0.06252 0.81474 0.0
C718 C 0.35356 0.06513 0.74776 0.0
C719 C 0.36751 0.05042 0.72567 0.0
C720 C 0.38492 0.04074 0.74961 0.0
C721 C 0.38904 0.04672 0.79382 0.0
C722 C 0.36592 0.02238 0.61283 0.0
C723 C 0.36155 0.04016 0.58419 0.0
C724 C 0.36759 0.02556 0.65876 0.0
C725 C 0.36478 0.04655 0.67713 0.0
C726 C 0.36 0.06421 0.64848 0.0
C727 C 0.35844 0.06105 0.60266 0.0
H728 H 0.44752 0.40853 0.31728 0.0
H729 H 0.40892 0.34918 0.30912 0.0
H730 H 0.45847 0.404 0.23969 0.0
H731 H 0.42016 0.3444 0.23227 0.0
H732 H 0.41669 0.36108 0.08465 0.0
H733 H 0.41052 0.36315 0.16431 0.0
H734 H 0.47821 0.38228 0.18404 0.0
H735 H 0.48416 0.38095 0.10398 0.0
C736 C 0.44192 0.39418 0.29935 0.0
C737 C 0.42725 0.37928 0.3192 0.0
C738 C 0.44813 0.39161 0.25483 0.0
C739 C 0.43986 0.37404 0.22946 0.0
C740 C 0.42639 0.35841 0.25043 0.0
C741 C 0.42011 0.36104 0.29464 0.0
C742 C 0.43023 0.36583 0.10589 0.0
C743 C 0.4509 0.37079 0.08776 0.0
C744 C 0.42679 0.36676 0.1517 0.0
C745 C 0.44394 0.3727 0.18074 0.0
C746 C 0.46463 0.37771 0.16267 0.0
C747 C 0.4681 0.37671 0.11674 0.0
H748 H 0.10584 0.48841 0.59686 0.0
H749 H 0.13098 0.42283 0.57886 0.0
H750 H 0.10509 0.48269 0.67709 0.0
H751 H 0.12991 0.41694 0.65916 0.0
H752 H 0.14576 0.42189 0.80657 0.0
H753 H 0.14863 0.43068 0.72779 0.0
H754 H 0.08387 0.45954 0.73082 0.0
H755 H 0.08094 0.45083 0.80974 0.0
C756 C 0.1114 0.47284 0.61007 0.0
C757 C 0.11859 0.45608 0.58158 0.0
C758 C 0.11076 0.4695 0.65598 0.0
C759 C 0.1175 0.4494 0.67442 0.0
C760 C 0.12485 0.4327 0.64595 0.0
C761 C 0.12528 0.43597 0.60001 0.0
C762 C 0.13223 0.43036 0.79065 0.0
C763 C 0.11308 0.43558 0.81445 0.0
C764 C 0.13382 0.43524 0.74542 0.0
C765 C 0.11641 0.44561 0.72307 0.0
C766 C 0.09761 0.45163 0.74721 0.0
C767 C 0.09593 0.44659 0.7924 0.0
H768 H 0.57881 0.97548 0.71241 0.0
H769 H 0.61771 0.91711 0.69165 0.0
H770 H 0.57572 0.96652 0.79087 0.0
H771 H 0.61408 0.90781 0.77 0.0
H772 H 0.62947 0.91528 0.91773 0.0
H773 H 0.62894 0.92177 0.83821 0.0
H774 H 0.56102 0.94199 0.84631 0.0
H775 H 0.56186 0.93643 0.92647 0.0
C776 C 0.58635 0.9605 0.72435 0.0
C777 C 0.59872 0.94714 0.69572 0.0
C778 C 0.5845 0.95531 0.76944 0.0
C779 C 0.59488 0.93657 0.78696 0.0
C780 C 0.60628 0.92262 0.75783 0.0
C781 C 0.6082 0.92786 0.71279 0.0
C782 C 0.61446 0.92131 0.90279 0.0
C783 C 0.59574 0.92541 0.92878 0.0
C784 C 0.61405 0.92472 0.85692 0.0
C785 C 0.59489 0.93227 0.83568 0.0
C786 C 0.57611 0.9363 0.86158 0.0
C787 C 0.57653 0.93291 0.90756 0.0
H788 H 0.52425 0.58209 0.20275 0.0
H789 H 0.54598 0.6494 0.21032 0.0
H790 H 0.53465 0.5765 0.28021 0.0
H791 H 0.55502 0.64445 0.28806 0.0
H792 H 0.58624 0.62736 0.41805 0.0
H793 H 0.57869 0.63014 0.33898 0.0
H794 H 0.52582 0.58309 0.35341 0.0
H795 H 0.53466 0.57944 0.43231 0.0
C796 C 0.53123 0.59571 0.22104 0.0
C797 C 0.53449 0.61612 0.20024 0.0
C798 C 0.537 0.5926 0.26572 0.0
C799 C 0.54578 0.60998 0.29103 0.0
C800 C 0.54891 0.63042 0.26988 0.0
C801 C 0.54359 0.63335 0.22509 0.0
C802 C 0.57303 0.61764 0.40413 0.0
C803 C 0.5609 0.60334 0.43125 0.0
C804 C 0.56853 0.61929 0.35873 0.0
C805 C 0.55136 0.60709 0.33925 0.0
C806 C 0.53937 0.59257 0.36662 0.0
C807 C 0.54427 0.59054 0.41197 0.0
H808 H 0.86735 0.52934 0.93595 0.0
H809 H 0.88068 0.59809 0.91381 0.0
H810 H 0.86624 0.52328 0.85608 0.0
H811 H 0.87985 0.59195 0.83345 0.0
H812 H 0.85144 0.57298 0.69353 0.0
H813 H 0.8531 0.58118 0.77291 0.0
H814 H 0.89345 0.52385 0.79408 0.0
H815 H 0.89181 0.51561 0.71514 0.0
C816 C 0.8698 0.54323 0.91405 0.0
C817 C 0.87404 0.56423 0.93127 0.0
C818 C 0.86944 0.5397 0.86824 0.0
C819 C 0.87313 0.5571 0.83846 0.0
C820 C 0.87688 0.57823 0.85556 0.0
C821 C 0.87748 0.58172 0.9015 0.0
C822 C 0.86083 0.56224 0.71505 0.0
C823 C 0.8714 0.54357 0.69789 0.0
C824 C 0.86183 0.56698 0.7605 0.0
C825 C 0.87322 0.55304 0.78979 0.0
C826 C 0.88426 0.53472 0.77245 0.0
C827 C 0.88344 0.5301 0.72706 0.0
H828 H 0.97499 0.89045 0.20014 0.0
H829 H 0.90839 0.90971 0.16938 0.0
H830 H 0.96608 0.8893 0.27847 0.0
H831 H 0.89914 0.90787 0.24839 0.0
H832 H 0.89744 0.92353 0.39807 0.0
H833 H 0.90448 0.92477 0.31897 0.0
H834 H 0.94675 0.86818 0.33112 0.0
H835 H 0.94079 0.86755 0.41035 0.0
C836 C 0.95834 0.89429 0.21008 0.0
C837 C 0.94236 0.90006 0.17835 0.0
C838 C 0.95316 0.89347 0.25518 0.0
C839 C 0.93178 0.89817 0.27004 0.0
C840 C 0.91583 0.90428 0.23833 0.0
C841 C 0.92109 0.90529 0.19299 0.0
C842 C 0.90842 0.91141 0.38433 0.0
C843 C 0.91889 0.89574 0.41171 0.0
C844 C 0.91224 0.91198 0.33847 0.0
C845 C 0.92645 0.89678 0.31843 0.0
C846 C 0.93615 0.88055 0.34538 0.0
C847 C 0.9325 0.88007 0.39121 0.0
H848 H 0.94943 0.91589 0.91469 0.0
H849 H 0.92309 0.85034 0.90981 0.0
H850 H 0.94348 0.92002 0.83502 0.0
H851 H 0.91844 0.85354 0.82973 0.0
H852 H 0.89122 0.87269 0.69546 0.0
H853 H 0.89801 0.86828 0.77406 0.0
H854 H 0.95416 0.91165 0.76407 0.0
H855 H 0.94621 0.9172 0.6854 0.0
C856 C 0.94252 0.9023 0.89625 0.0
C857 C 0.93649 0.8829 0.91833 0.0
C858 C 0.9393 0.90451 0.85041 0.0
C859 C 0.93045 0.88713 0.82521 0.0
C860 C 0.92476 0.86757 0.84764 0.0
C861 C 0.92748 0.86561 0.89364 0.0
C862 C 0.90517 0.88114 0.70988 0.0
C863 C 0.91823 0.89525 0.68401 0.0
C864 C 0.90918 0.87851 0.75526 0.0
C865 C 0.92671 0.88953 0.77616 0.0
C866 C 0.94021 0.90319 0.7498 0.0
C867 C 0.93585 0.90621 0.70443 0.0
H868 H 0.63283 0.96821 0.42032 0.0
H869 H 0.56757 0.94059 0.42466 0.0
H870 H 0.63267 0.96529 0.33898 0.0
H871 H 0.56729 0.9378 0.34382 0.0
H872 H 0.56612 0.95037 0.19699 0.0
H873 H 0.56845 0.96254 0.27415 0.0
H874 H 0.63193 0.93156 0.28684 0.0
H875 H 0.62948 0.91909 0.21003 0.0
C876 C 0.61842 0.96171 0.40377 0.0
C877 C 0.60033 0.95439 0.42866 0.0
C878 C 0.61833 0.96002 0.35742 0.0
C879 C 0.59992 0.95144 0.33516 0.0
C880 C 0.5816 0.94472 0.36006 0.0
C881 C 0.58186 0.94604 0.40633 0.0
C882 C 0.58084 0.94669 0.21583 0.0
C883 C 0.59754 0.9336 0.19763 0.0
C884 C 0.58209 0.95352 0.26007 0.0
C885 C 0.60026 0.94777 0.28653 0.0
C886 C 0.61777 0.93628 0.26717 0.0
C887 C 0.61635 0.92912 0.22323 0.0
H888 H 0.5046 0.59566 0.91575 0.0
H889 H 0.57064 0.62042 0.93233 0.0
H890 H 0.51022 0.59371 0.83574 0.0
H891 H 0.57656 0.61758 0.85283 0.0
H892 H 0.57708 0.62927 0.70755 0.0
H893 H 0.56584 0.63448 0.78428 0.0
H894 H 0.53061 0.5729 0.78052 0.0
H895 H 0.54144 0.56804 0.70296 0.0
C896 C 0.52028 0.6008 0.90245 0.0
C897 C 0.53716 0.60829 0.93069 0.0
C898 C 0.52357 0.59945 0.85651 0.0
C899 C 0.54379 0.60561 0.83768 0.0
C900 C 0.56063 0.61306 0.86598 0.0
C901 C 0.55735 0.61441 0.91177 0.0
C902 C 0.56655 0.61707 0.72282 0.0
C903 C 0.56022 0.59822 0.69933 0.0
C904 C 0.56028 0.61994 0.76697 0.0
C905 C 0.54772 0.60389 0.78896 0.0
C906 C 0.54023 0.58564 0.76461 0.0
C907 C 0.54638 0.58285 0.72011 0.0
H908 H 0.91382 0.55154 0.20148 0.0
H909 H 0.8501 0.58276 0.20681 0.0
H910 H 0.91114 0.54277 0.28043 0.0
H911 H 0.84749 0.57391 0.28557 0.0
H912 H 0.86619 0.58055 0.43409 0.0
H913 H 0.86714 0.58674 0.35388 0.0
H914 H 0.88932 0.52016 0.33434 0.0
H915 H 0.88869 0.51412 0.41447 0.0
C916 C 0.89913 0.55629 0.2193 0.0
C917 C 0.88222 0.56793 0.19784 0.0
C918 C 0.89759 0.55121 0.2645 0.0
C919 C 0.87918 0.55783 0.28923 0.0
C920 C 0.862 0.56888 0.26748 0.0
C921 C 0.86345 0.5738 0.22226 0.0
C922 C 0.8713 0.56729 0.41261 0.0
C923 C 0.87727 0.54685 0.43056 0.0
C924 C 0.87166 0.57074 0.36672 0.0
C925 C 0.87823 0.55389 0.33784 0.0
C926 C 0.88427 0.53347 0.35579 0.0
C927 C 0.88369 0.52995 0.40165 0.0
H928 H 0.40299 0.04602 0.09009 0.0
H929 H 0.33632 0.07029 0.08689 0.0
H930 H 0.39946 0.03887 0.16948 0.0
H931 H 0.33253 0.06235 0.16558 0.0
H932 H 0.34044 0.06716 0.31593 0.0
H933 H 0.34499 0.07507 0.23707 0.0
H934 H 0.381 0.01454 0.22107 0.0
H935 H 0.37685 0.00684 0.29999 0.0
C936 C 0.38758 0.04984 0.1062 0.0
C937 C 0.36996 0.05873 0.08182 0.0
C938 C 0.38547 0.04552 0.15171 0.0
C939 C 0.36569 0.05003 0.17407 0.0
C940 C 0.34809 0.0589 0.14967 0.0
C941 C 0.35018 0.06319 0.10424 0.0
C942 C 0.34935 0.05554 0.29563 0.0
C943 C 0.35824 0.03636 0.31442 0.0
C944 C 0.35186 0.06002 0.25029 0.0
C945 C 0.36334 0.04543 0.22255 0.0
C946 C 0.37232 0.0263 0.24144 0.0
C947 C 0.36981 0.02182 0.28675 0.0
H948 H 0.4663 0.39772 0.81403 0.0
H949 H 0.43883 0.33243 0.81149 0.0
H950 H 0.45586 0.40293 0.73646 0.0
H951 H 0.42969 0.33689 0.7337 0.0
H952 H 0.39883 0.35452 0.60369 0.0
H953 H 0.40686 0.35238 0.68263 0.0
H954 H 0.46338 0.39451 0.66334 0.0
H955 H 0.45416 0.39761 0.5845 0.0
C956 C 0.45806 0.38446 0.79683 0.0
C957 C 0.45319 0.36475 0.81909 0.0
C958 C 0.45224 0.38733 0.75209 0.0
C959 C 0.44181 0.37038 0.72817 0.0
C960 C 0.43711 0.35063 0.75077 0.0
C961 C 0.44249 0.34797 0.7956 0.0
C962 C 0.41295 0.3633 0.61649 0.0
C963 C 0.42599 0.37607 0.588 0.0
C964 C 0.41772 0.362 0.66184 0.0
C965 C 0.43604 0.37299 0.67994 0.0
C966 C 0.44896 0.386 0.65121 0.0
C967 C 0.44383 0.38771 0.60588 0.0
H968 H 0.08297 0.42945 0.09486 0.0
H969 H 0.15223 0.44356 0.08279 0.0
H970 H 0.08516 0.43522 0.17484 0.0
H971 H 0.1544 0.44964 0.16301 0.0
H972 H 0.15376 0.4379 0.31351 0.0
H973 H 0.15088 0.42881 0.23484 0.0
H974 H 0.09152 0.4673 0.22502 0.0
H975 H 0.09432 0.47639 0.30368 0.0
C976 C 0.09874 0.43351 0.10935 0.0
C977 C 0.11749 0.43592 0.08252 0.0
C978 C 0.09993 0.43705 0.15514 0.0
C979 C 0.11994 0.44289 0.17524 0.0
C980 C 0.13878 0.44496 0.14854 0.0
C981 C 0.13753 0.44165 0.10263 0.0
C982 C 0.13995 0.44425 0.29474 0.0
C983 C 0.12428 0.45791 0.31493 0.0
C984 C 0.13841 0.43916 0.24957 0.0
C985 C 0.12104 0.44742 0.22368 0.0
C986 C 0.10501 0.46055 0.24415 0.0
C987 C 0.10666 0.46582 0.28921 0.0
H988 H 0.08203 0.13849 0.55925 0.0
H989 H 0.0881 0.06839 0.57751 0.0
H990 H 0.07558 0.14277 0.63867 0.0
H991 H 0.08147 0.07268 0.65654 0.0
H992 H 0.04718 0.08838 0.78962 0.0
H993 H 0.05296 0.08313 0.71022 0.0
H994 H 0.09669 0.13898 0.70792 0.0
H995 H 0.0907 0.14447 0.787 0.0
C996 C 0.08196 0.124 0.58009 0.0
C997 C 0.08559 0.10313 0.56175 0.0
C998 C 0.07832 0.12645 0.62564 0.0
C999 C 0.07815 0.10807 0.65398 0.0
C1000 C 0.08126 0.08715 0.63557 0.0
C1001 C 0.08498 0.0847 0.59007 0.0
C1002 C 0.05815 0.09945 0.77228 0.0
C1003 C 0.06841 0.11689 0.79473 0.0
C1004 C 0.0615 0.0964 0.72676 0.0
C1005 C 0.07512 0.11077 0.70265 0.0
C1006 C 0.08579 0.12787 0.72535 0.0
C1007 C 0.08251 0.13087 0.77083 0.0
H1008 H 0.02338 0.94217 0.15226 0.0
H1009 H 0.07115 0.89366 0.19331 0.0
H1010 H 0.04311 0.97007 0.19354 0.0
H1011 H 0.0912 0.92197 0.23407 0.0
H1012 H 0.1317 0.9851 0.26306 0.0
H1013 H 0.11285 0.9569 0.21974 0.0
H1014 H 0.05065 0.97807 0.27325 0.0
H1015 H 0.06924 0.00572 0.31709 0.0
C1016 C 0.03793 0.9373 0.17043 0.0
C1017 C 0.04547 0.91547 0.16975 0.0
C1018 C 0.04932 0.95341 0.19393 0.0
C1019 C 0.06866 0.9482 0.21711 0.0
C1020 C 0.07645 0.9265 0.2161 0.0
C1021 C 0.06494 0.91029 0.19279 0.0
C1022 C 0.11402 0.98372 0.26573 0.0
C1023 C 0.10208 -0.0021 0.29351 0.0
C1024 C 0.10325 0.96754 0.24093 0.0
C1025 C 0.08029 0.96533 0.24307 0.0
C1026 C 0.06833 0.9796 0.2704 0.0
C1027 C 0.07907 -0.00441 0.29542 0.0
H1028 H 0.56193 0.01828 0.7352 0.0
H1029 H 0.57067 0.08089 0.67032 0.0
H1030 H 0.52965 0.03236 0.77355 0.0
H1031 H 0.53823 0.09501 0.70822 0.0
H1032 H 0.4903 0.11801 0.81631 0.0
H1033 H 0.52346 0.10519 0.77962 0.0
H1034 H 0.49235 0.04259 0.75521 0.0
H1035 H 0.45918 0.05543 0.79232 0.0
C1036 C 0.55697 0.0351 0.72931 0.0
C1037 C 0.56878 0.04845 0.69965 0.0
C1038 C 0.5384 0.04313 0.75102 0.0
C1039 C 0.53115 0.06472 0.74349 0.0
C1040 C 0.54344 0.07835 0.71503 0.0
C1041 C 0.56209 0.0703 0.69341 0.0
C1042 C 0.49038 0.10164 0.80251 0.0
C1043 C 0.47205 0.08774 0.80726 0.0
C1044 C 0.50945 0.09426 0.78156 0.0
C1045 C 0.51065 0.07281 0.76474 0.0
C1046 C 0.49215 0.05906 0.76863 0.0
C1047 C 0.4731 0.06643 0.78972 0.0
H1048 H 0.43412 0.46184 0.29638 0.0
H1049 H 0.36914 0.4897 0.30768 0.0
H1050 H 0.44655 0.49481 0.25761 0.0
H1051 H 0.38152 0.52261 0.2694 0.0
H1052 H 0.40601 0.56819 0.15865 0.0
H1053 H 0.39313 0.53569 0.19789 0.0
H1054 H 0.4541 0.53323 0.27151 0.0
H1055 H 0.46704 0.5657 0.23178 0.0
C1056 C 0.42251 0.47501 0.29068 0.0
C1057 C 0.40063 0.47308 0.30501 0.0
C1058 C 0.42964 0.49394 0.26862 0.0
C1059 C 0.41505 0.51142 0.26053 0.0
C1060 C 0.39311 0.50936 0.27447 0.0
C1061 C 0.38599 0.49042 0.29635 0.0
C1062 C 0.41652 0.56097 0.18375 0.0
C1063 C 0.43757 0.56955 0.19208 0.0
C1064 C 0.40916 0.54226 0.20619 0.0
C1065 C 0.42264 0.53173 0.23765 0.0
C1066 C 0.44347 0.54066 0.24682 0.0
C1067 C 0.45085 0.55933 0.22427 0.0
H1068 H 0.92003 0.41616 0.66023 0.0
H1069 H 0.91561 0.4753 0.73803 0.0
H1070 H 0.95106 0.40395 0.70507 0.0
H1071 H 0.94625 0.46291 0.78405 0.0
H1072 H 0.01543 0.44608 0.82819 0.0
H1073 H 0.98481 0.45774 0.78205 0.0
H1074 H 0.96177 0.39073 0.77521 0.0
H1075 H 0.99311 0.37888 0.81876 0.0
C1076 C 0.92542 0.42632 0.68757 0.0
C1077 C 0.91539 0.44666 0.6957 0.0
C1078 C 0.94325 0.41936 0.71333 0.0
C1079 C 0.95132 0.43246 0.74818 0.0
C1080 C 0.94085 0.45258 0.75693 0.0
C1081 C 0.92318 0.45964 0.73083 0.0
C1082 C 0.0041 0.43374 0.81631 0.0
C1083 C 0.00686 0.41148 0.82757 0.0
C1084 C 0.98626 0.4405 0.79031 0.0
C1085 C 0.97061 0.42523 0.7751 0.0
C1086 C 0.97354 0.40297 0.78588 0.0
C1087 C 0.99146 0.39618 0.81149 0.0
H1088 H 0.99502 0.05865 0.81376 0.0
H1089 H 0.93961 0.10248 0.79893 0.0
H1090 H 0.9771 0.03212 0.76644 0.0
H1091 H 0.92102 0.07515 0.75363 0.0
H1092 H 0.90457 0.03174 0.6351 0.0
H1093 H 0.92244 0.05872 0.68229 0.0
H1094 H 0.94772 0.00647 0.76522 0.0
H1095 H 0.93017 0.97944 0.71695 0.0
C1096 C 0.97906 0.06278 0.80038 0.0
C1097 C 0.9689 0.08297 0.81011 0.0
C1098 C 0.96858 0.04728 0.77371 0.0
C1099 C 0.94755 0.05138 0.75629 0.0
C1100 C 0.93733 0.07151 0.76603 0.0
C1101 C 0.94791 0.08713 0.79247 0.0
C1102 C 0.91377 0.02604 0.66365 0.0
C1103 C 0.91591 0.00349 0.67249 0.0
C1104 C 0.924 0.04151 0.6908 0.0
C1105 C 0.93648 0.03483 0.72772 0.0
C1106 C 0.93852 0.01222 0.73667 0.0
C1107 C 0.92844 -0.00329 0.70918 0.0
H1108 H 0.51186 0.87929 0.27509 0.0
H1109 H 0.50013 0.93077 0.17903 0.0
H1110 H 0.47868 0.89018 0.31517 0.0
H1111 H 0.46761 0.94196 0.21955 0.0
H1112 H 0.39783 0.93941 0.26748 0.0
H1113 H 0.43095 0.92604 0.23177 0.0
H1114 H 0.46301 0.92105 0.35941 0.0
H1115 H 0.42944 0.93381 0.39554 0.0
C1116 C 0.50234 0.89301 0.26278 0.0
C1117 C 0.50865 0.90411 0.22383 0.0
C1118 C 0.48344 0.89932 0.28584 0.0
C1119 C 0.47042 0.91674 0.27016 0.0
C1120 C 0.47711 0.92822 0.23201 0.0
C1121 C 0.49598 0.922 0.20914 0.0
C1122 C 0.4117 0.93502 0.28815 0.0
C1123 C 0.41098 0.93778 0.33442 0.0
C1124 C 0.43082 0.92765 0.26757 0.0
C1125 C 0.44968 0.92284 0.29274 0.0
C1126 C 0.44872 0.92465 0.33916 0.0
C1127 C 0.42957 0.9321 0.35979 0.0
H1128 H 0.61956 0.48759 0.70612 0.0
H1129 H 0.55591 0.51751 0.7247 0.0
H1130 H 0.60711 0.45496 0.74517 0.0
H1131 H 0.5434 0.48473 0.76398 0.0
H1132 H 0.52131 0.41409 0.78824 0.0
H1133 H 0.53447 0.44649 0.7487 0.0
H1134 H 0.59652 0.44184 0.81795 0.0
H1135 H 0.58338 0.40944 0.8573 0.0
C1136 C 0.60302 0.4874 0.71918 0.0
C1137 C 0.58876 0.50526 0.71227 0.0
C1138 C 0.59584 0.4686 0.7415 0.0
C1139 C 0.57422 0.46715 0.75755 0.0
C1140 C 0.56005 0.48514 0.75132 0.0
C1141 C 0.56723 0.50396 0.72894 0.0
C1142 C 0.53777 0.41997 0.79494 0.0
C1143 C 0.55125 0.40917 0.82602 0.0
C1144 C 0.54528 0.4386 0.77244 0.0
C1145 C 0.56648 0.44691 0.78045 0.0
C1146 C 0.58018 0.43577 0.81065 0.0
C1147 C 0.57267 0.41711 0.83313 0.0
H1148 H 0.00289 0.62189 0.18592 0.0
H1149 H 0.97897 0.55512 0.18103 0.0
H1150 H 0.03387 0.61005 0.23053 0.0
H1151 H 0.0093 0.54351 0.22811 0.0
H1152 H 0.07829 0.52534 0.27372 0.0
H1153 H 0.04785 0.53748 0.2269 0.0
H1154 H 0.04398 0.59776 0.30188 0.0
H1155 H 0.07474 0.58577 0.34765 0.0
C1156 C 0.00412 0.60468 0.19438 0.0
C1157 C 0.98836 0.5895 0.1793 0.0
C1158 C 0.02184 0.59791 0.2206 0.0
C1159 C 0.02422 0.57578 0.23298 0.0
C1160 C 0.00825 0.56063 0.21866 0.0
C1161 C 0.99059 0.56738 0.19209 0.0
C1162 C 0.07095 0.54122 0.27995 0.0
C1163 C 0.07897 0.55463 0.31423 0.0
C1164 C 0.0534 0.54814 0.25335 0.0
C1165 C 0.04329 0.56858 0.26065 0.0
C1166 C 0.05153 0.58208 0.29471 0.0
C1167 C 0.06922 0.57523 0.321 0.0
H1168 H 0.15865 0.98677 0.51185 0.0
H1169 H 0.1944 0.0437 0.55709 0.0
H1170 H 0.19218 0.96492 0.51621 0.0
H1171 H 0.22789 0.02193 0.56149 0.0
H1172 H 0.28757 0.9833 0.55431 0.0
H1173 H 0.25104 0.98928 0.58568 0.0
H1174 H 0.22186 0.97308 0.45909 0.0
H1175 H 0.25829 0.96717 0.4279 0.0
C1176 C 0.17342 0.99431 0.52493 0.0
C1177 C 0.17415 0.01696 0.53341 0.0
C1178 C 0.19261 0.98183 0.52717 0.0
C1179 C 0.21266 0.99184 0.53835 0.0
C1180 C 0.21266 0.01376 0.55283 0.0
C1181 C 0.19354 0.02628 0.55014 0.0
C1182 C 0.27327 0.98018 0.53378 0.0
C1183 C 0.27563 0.97504 0.48857 0.0
C1184 C 0.25242 0.98364 0.55172 0.0
C1185 C 0.23367 0.98176 0.5248 0.0
C1186 C 0.236 0.97443 0.48081 0.0
C1187 C 0.25683 0.97125 0.46276 0.0
H1188 H 0.47464 0.15426 0.98585 0.0
H1189 H 0.41291 0.18608 0.01534 0.0
H1190 H 0.49181 0.19 0.97463 0.0
H1191 H 0.43007 0.22177 1.00293 0.0
H1192 H 0.51602 0.26284 0.99103 0.0
H1193 H 0.50155 0.22667 0.01168 0.0
H1194 H 0.44414 0.23848 0.9307 0.0
H1195 H 0.45844 0.27451 0.91035 0.0
C1196 C 0.46487 0.16885 0.99127 0.0
C1197 C 0.44229 0.16726 1.00106 0.0
C1198 C 0.47471 0.18932 0.98447 0.0
C1199 C 0.46214 0.20858 0.987 0.0
C1200 C 0.44 0.20711 0.99979 0.0
C1201 C 0.4302 0.18668 0.007 0.0
C1202 C 0.50042 0.25756 0.97736 0.0
C1203 C 0.48838 0.27145 0.94899 0.0
C1204 C 0.49216 0.23692 0.98917 0.0
C1205 C 0.47158 0.22997 0.97336 0.0
C1206 C 0.45988 0.2436 0.944 0.0
C1207 C 0.46823 0.26407 0.93179 0.0
H1208 H 0.33251 0.47829 0.48605 0.0
H1209 H 0.29948 0.41686 0.51283 0.0
H1210 H 0.29707 0.49604 0.47417 0.0
H1211 H 0.26409 0.4346 0.50007 0.0
H1212 H 0.22452 0.52129 0.48699 0.0
H1213 H 0.26027 0.50623 0.50905 0.0
H1214 H 0.24807 0.44907 0.42823 0.0
H1215 H 0.21245 0.46389 0.40667 0.0
C1216 C 0.3177 0.46871 0.49078 0.0
C1217 C 0.31885 0.44607 0.49991 0.0
C1218 C 0.2974 0.47888 0.48364 0.0
C1219 C 0.2779 0.46657 0.48525 0.0
C1220 C 0.27893 0.44434 0.4976 0.0
C1221 C 0.29918 0.43422 0.50505 0.0
C1222 C 0.22961 0.5056 0.4737 0.0
C1223 C 0.21572 0.49379 0.44501 0.0
C1224 C 0.25003 0.49701 0.4863 0.0
C1225 C 0.25674 0.47634 0.47093 0.0
C1226 C 0.24313 0.46487 0.44125 0.0
C1227 C 0.22289 0.47353 0.42832 0.0
H1228 H 0.07602 0.32373 0.83767 0.0
H1229 H 0.11425 0.30809 0.95503 0.0
H1230 H 0.06435 0.28579 0.83264 0.0
H1231 H 0.10103 0.27024 0.9511 0.0
H1232 H 0.03572 0.22528 0.95908 0.0
H1233 H 0.05472 0.26046 0.95596 0.0
H1234 H 0.08365 0.24272 0.83056 0.0
H1235 H 0.06584 0.2068 0.83454 0.0
C1236 C 0.08257 0.31221 0.86166 0.0
C1237 C 0.09605 0.31919 0.89709 0.0
C1238 C 0.07563 0.29048 0.85884 0.0
C1239 C 0.08165 0.27542 0.89174 0.0
C1240 C 0.0961 0.28182 0.9256 0.0
C1241 C 0.10351 0.30347 0.92792 0.0
C1242 C 0.04633 0.22865 0.93106 0.0
C1243 C 0.04938 0.21306 0.89727 0.0
C1244 C 0.05717 0.24877 0.92937 0.0
C1245 C 0.07085 0.25389 0.89345 0.0
C1246 C 0.07328 0.23887 0.85872 0.0
C1247 C 0.06281 0.2185 0.86081 0.0
H1248 H 0.71567 0.00042 0.58343 0.0
H1249 H 0.69028 0.94064 0.6411 0.0
H1250 H 0.75285 0.98503 0.5852 0.0
H1251 H 0.72748 0.92506 0.64209 0.0
H1252 H 0.79429 0.90275 0.56729 0.0
H1253 H 0.75628 0.91592 0.57472 0.0
H1254 H 0.77933 0.97131 0.65073 0.0
H1255 H 0.81699 0.95824 0.64375 0.0
C1256 C 0.71815 0.98406 0.5967 0.0
C1257 C 0.70034 0.9717 0.61239 0.0
C1258 C 0.7393 0.9753 0.59777 0.0
C1259 C 0.74282 0.95392 0.61372 0.0
C1260 C 0.72503 0.94156 0.62955 0.0
C1261 C 0.70391 0.9505 0.62931 0.0
C1262 C 0.79109 0.91751 0.58614 0.0
C1263 C 0.80845 0.92939 0.60524 0.0
C1264 C 0.76947 0.92497 0.59049 0.0
C1265 C 0.76511 0.94461 0.61317 0.0
C1266 C 0.7824 0.95616 0.63305 0.0
C1267 C 0.80386 0.94857 0.62933 0.0
H1268 H 0.46798 0.71596 0.03113 0.0
H1269 H 0.52454 0.70704 0.11607 0.0
H1270 H 0.48008 0.75348 0.01441 0.0
H1271 H 0.53656 0.74438 0.09937 0.0
H1272 H 0.56525 0.79952 0.01572 0.0
H1273 H 0.55043 0.76272 0.02711 0.0
H1274 H 0.48677 0.79022 0.05638 0.0
H1275 H 0.50162 0.82708 0.04659 0.0
C1276 C 0.48282 0.72213 0.0466 0.0
C1277 C 0.49531 0.70866 0.07497 0.0
C1278 C 0.48972 0.74353 0.03704 0.0
C1279 C 0.5094 0.75162 0.0551 0.0
C1280 C 0.5215 0.73837 0.08449 0.0
C1281 C 0.51445 0.71715 0.09453 0.0
C1282 C 0.54806 0.79777 0.02433 0.0
C1283 C 0.53473 0.81632 0.03076 0.0
C1284 C 0.53961 0.77671 0.03085 0.0
C1285 C 0.51757 0.77374 0.04331 0.0
C1286 C 0.50382 0.79211 0.04675 0.0
C1287 C 0.51233 0.81321 0.04077 0.0
H1288 H 0.77986 0.53567 0.59608 0.0
H1289 H 0.7727 0.47488 0.524 0.0
H1290 H 0.74268 0.54618 0.57483 0.0
H1291 H 0.73536 0.48558 0.50226 0.0
H1292 H 0.68588 0.56981 0.49373 0.0
H1293 H 0.72341 0.55652 0.50339 0.0
H1294 H 0.69856 0.49262 0.53995 0.0
H1295 H 0.66103 0.50593 0.53114 0.0
C1296 C 0.77022 0.52443 0.57616 0.0
C1297 C 0.77914 0.50441 0.56187 0.0
C1298 C 0.74907 0.5306 0.5634 0.0
C1299 C 0.73629 0.51684 0.53633 0.0
C1300 C 0.74492 0.49653 0.523 0.0
C1301 C 0.76624 0.49043 0.53539 0.0
C1302 C 0.68842 0.55283 0.50314 0.0
C1303 C 0.67045 0.53903 0.51224 0.0
C1304 C 0.70989 0.54526 0.50878 0.0
C1305 C 0.71383 0.52368 0.52326 0.0
C1306 C 0.69598 0.50933 0.52873 0.0
C1307 C 0.67447 0.51694 0.52338 0.0
H1308 H 0.9351 0.6739 0.14872 0.0
H1309 H 0.87981 0.6964 0.07076 0.0
H1310 H 0.95044 0.71079 0.14831 0.0
H1311 H 0.89532 0.73369 0.07072 0.0
H1312 H 0.92593 0.80041 0.12602 0.0
H1313 H 0.90752 0.76469 0.13212 0.0
H1314 H 0.96479 0.73318 0.07695 0.0
H1315 H 0.98304 0.76892 0.0701 0.0
C1316 C 0.92589 0.68689 0.1326 0.0
C1317 C 0.90614 0.68238 0.1101 0.0
C1318 C 0.93483 0.70789 0.13197 0.0
C1319 C 0.92409 0.72485 0.10924 0.0
C1320 C 0.9038 0.72074 0.08853 0.0
C1321 C 0.89497 0.69954 0.08855 0.0
C1322 C 0.93456 0.78578 0.11545 0.0
C1323 C 0.95589 0.78721 0.0979 0.0
C1324 C 0.924 0.7655 0.11864 0.0
C1325 C 0.93484 0.74638 0.10511 0.0
C1326 C 0.95623 0.7478 0.08782 0.0
C1327 C 0.96661 0.76812 0.08382 0.0
loop_
_geom_bond_atom_site_label_1
_geom_bond_atom_site_label_2
_geom_bond_distance
_geom_bond_site_symmetry_2
_ccdc_geom_bond_type
C0 C1 1.351 . S
C0 N3 1.368 . S
C0 H5 0.931 . S
C1 C0 1.351 . S
C1 N2 1.373 . S
C1 H29 0.930 . S
N2 C1 1.373 . S
N2 C4 1.340 . S
N3 C0 1.368 . S
N3 C4 1.321 . S
N3 Co6 2.135 1_565 S
C4 N2 1.340 . S
C4 N3 1.321 . S
C4 H28 0.930 1_565 S
H5 C0 0.931 . S
Co6 N3 2.135 1_545 S
Co6 N9 2.121 . S
Co6 O14 2.055 . S
Co6 O17 2.039 . S
Co6 N20 2.140 . S
C7 O8 1.227 . S
C7 O17 1.265 . S
O8 C7 1.227 . S
N9 Co6 2.121 . S
N9 C11 1.375 . S
N9 C12 1.313 . S
C10 C11 1.338 . S
C10 N13 1.377 . S
C10 H30 0.930 . S
C11 N9 1.375 . S
C11 C10 1.338 . S
C11 H15 0.931 . S
C12 N9 1.313 . S
C12 N13 1.344 . S
C12 H16 0.930 . S
N13 C10 1.377 . S
N13 C12 1.344 . S
O14 Co6 2.055 . S
O14 C18 1.253 1_545 S
H15 C11 0.931 . S
H16 C12 0.930 . S
O17 Co6 2.039 . S
O17 C7 1.265 . S
C18 O14 1.253 1_565 S
C18 O19 1.227 . S
O19 C18 1.227 . S
N20 Co6 2.140 . S
N20 C23 1.346 . S
N20 C24 1.345 . S
C21 C22 1.387 . S
C21 C25 1.404 . S
C22 C21 1.387 . S
C22 C23 1.376 . S
C22 H31 0.923 1_545 S
C23 N20 1.346 . S
C23 C22 1.376 . S
C23 H26 0.928 . S
C24 N20 1.345 . S
C24 C25 1.371 . S
C24 H27 0.931 . S
C25 C21 1.404 . S
C25 C24 1.371 . S
C25 H32 0.930 . S
H26 C23 0.928 . S
H27 C24 0.931 . S
H28 C4 0.930 1_545 S
H29 C1 0.930 . S
H30 C10 0.930 . S
H31 C22 0.923 1_565 S
H32 C25 0.930 . S
C33 C34 1.351 . S
C33 N36 1.368 . S
C33 H38 0.931 . S
C34 C33 1.351 . S
C34 N35 1.373 . S
C34 H62 0.930 . S
N35 C34 1.373 . S
N35 C37 1.340 . S
N36 C33 1.368 . S
N36 C37 1.321 . S
N36 Co39 2.135 . S
C37 N35 1.340 . S
C37 N36 1.321 . S
C37 H61 0.930 . S
H38 C33 0.931 . S
Co39 N36 2.135 . S
Co39 N42 2.121 . S
Co39 O47 2.055 . S
Co39 O50 2.039 . S
Co39 N53 2.140 . S
C40 O41 1.227 . S
C40 O50 1.265 . S
O41 C40 1.227 . S
N42 Co39 2.121 . S
N42 C44 1.375 . S
N42 C45 1.313 1_556 S
C43 C44 1.338 1_554 S
C43 N46 1.377 . S
C43 H63 0.930 . S
C44 N42 1.375 . S
C44 C43 1.338 1_556 S
C44 H48 0.931 . S
C45 N42 1.313 1_554 S
C45 N46 1.344 . S
C45 H49 0.930 . S
N46 C43 1.377 . S
N46 C45 1.344 . S
O47 Co39 2.055 . S
O47 C51 1.253 . S
H48 C44 0.931 . S
H49 C45 0.930 . S
O50 Co39 2.039 . S
O50 C40 1.265 . S
C51 O47 1.253 . S
C51 O52 1.227 1_556 S
O52 C51 1.227 1_554 S
N53 Co39 2.140 . S
N53 C56 1.346 . S
N53 C57 1.345 . S
C54 C55 1.387 . S
C54 C58 1.391 . S
C55 C54 1.387 . S
C55 C56 1.369 . S
C55 H64 0.929 . S
C56 N53 1.346 . S
C56 C55 1.369 . S
C56 H59 0.928 . S
C57 N53 1.345 . S
C57 C58 1.371 . S
C57 H60 0.931 1_556 S
C58 C54 1.391 . S
C58 C57 1.371 . S
C58 H65 0.930 1_556 S
H59 C56 0.928 . S
H60 C57 0.931 1_554 S
H61 C37 0.930 . S
H62 C34 0.930 . S
H63 C43 0.930 . S
H64 C55 0.929 . S
H65 C58 0.930 1_554 S
C66 C67 1.351 . S
C66 N69 1.368 . S
C66 H71 0.931 . S
C67 C66 1.351 . S
C67 N68 1.373 . S
C67 H95 0.930 . S
N68 C67 1.373 . S
N68 C70 1.340 . S
N69 C66 1.368 . S
N69 C70 1.321 . S
N69 Co72 2.135 . S
C70 N68 1.340 . S
C70 N69 1.321 . S
C70 H94 0.930 . S
H71 C66 0.931 . S
Co72 N69 2.135 . S
Co72 N75 2.121 . S
Co72 O80 2.055 . S
Co72 O83 2.039 . S
Co72 N86 2.140 . S
C73 O74 1.227 . S
C73 O83 1.265 . S
O74 C73 1.227 . S
N75 Co72 2.121 . S
N75 C77 1.375 . S
N75 C78 1.313 . S
C76 C77 1.338 . S
C76 N79 1.377 . S
C76 H96 0.930 . S
C77 N75 1.375 . S
C77 C76 1.338 . S
C77 H81 0.931 . S
C78 N75 1.313 . S
C78 N79 1.344 . S
C78 H82 0.930 . S
N79 C76 1.377 . S
N79 C78 1.344 . S
O80 Co72 2.055 . S
O80 C84 1.253 . S
H81 C77 0.931 . S
H82 C78 0.930 . S
O83 Co72 2.039 . S
O83 C73 1.265 . S
C84 O80 1.253 . S
C84 O85 1.227 . S
O85 C84 1.227 . S
N86 Co72 2.140 . S
N86 C89 1.346 . S
N86 C90 1.345 . S
C87 C88 1.387 . S
C87 C91 1.391 . S
C88 C87 1.387 . S
C88 C89 1.369 . S
C88 H97 0.929 . S
C89 N86 1.346 . S
C89 C88 1.369 . S
C89 H92 0.928 . S
C90 N86 1.345 . S
C90 C91 1.371 . S
C90 H93 0.931 . S
C91 C87 1.391 . S
C91 C90 1.371 . S
C91 H98 0.930 . S
H92 C89 0.928 . S
H93 C90 0.931 . S
H94 C70 0.930 . S
H95 C67 0.930 . S
H96 C76 0.930 . S
H97 C88 0.929 . S
H98 C91 0.930 . S
C99 C100 1.351 . S
C99 N102 1.368 . S
C99 H104 0.931 . S
C100 C99 1.351 . S
C100 N101 1.373 . S
C100 H128 0.930 . S
N101 C100 1.373 . S
N101 C103 1.340 . S
N102 C99 1.368 . S
N102 C103 1.321 . S
N102 Co105 2.135 1_655 S
C103 N101 1.340 . S
C103 N102 1.321 . S
C103 H127 0.930 1_655 S
H104 C99 0.931 . S
Co105 N102 2.135 1_455 S
Co105 N108 2.121 . S
Co105 O113 2.055 . S
Co105 O116 2.039 . S
Co105 N119 2.140 . S
C106 O107 1.227 . S
C106 O116 1.265 . S
O107 C106 1.227 . S
N108 Co105 2.121 . S
N108 C110 1.375 . S
N108 C111 1.313 1_556 S
C109 C110 1.338 1_554 S
C109 N112 1.377 . S
C109 H129 0.930 . S
C110 N108 1.375 . S
C110 C109 1.338 1_556 S
C110 H114 0.931 . S
C111 N108 1.313 1_554 S
C111 N112 1.344 . S
C111 H115 0.930 . S
N112 C109 1.377 . S
N112 C111 1.344 . S
O113 Co105 2.055 . S
O113 C117 1.253 1_455 S
H114 C110 0.931 . S
H115 C111 0.930 . S
O116 Co105 2.039 . S
O116 C106 1.265 . S
C117 O113 1.253 1_655 S
C117 O118 1.227 1_556 S
O118 C117 1.227 1_554 S
N119 Co105 2.140 . S
N119 C122 1.346 . S
N119 C123 1.345 . S
C120 C121 1.387 . S
C120 C124 1.404 . S
C121 C120 1.387 . S
C121 C122 1.376 . S
C121 H130 0.923 1_455 S
C122 N119 1.346 . S
C122 C121 1.376 . S
C122 H125 0.928 . S
C123 N119 1.345 . S
C123 C124 1.371 . S
C123 H126 0.931 1_556 S
C124 C120 1.404 . S
C124 C123 1.371 . S
C124 H131 0.930 1_556 S
H125 C122 0.928 . S
H126 C123 0.931 1_554 S
H127 C103 0.930 1_455 S
H128 C100 0.930 . S
H129 C109 0.930 . S
H130 C121 0.923 1_655 S
H131 C124 0.930 1_554 S
C132 C133 1.351 . S
C132 N135 1.368 . S
C132 H137 0.931 . S
C133 C132 1.351 . S
C133 N134 1.373 . S
C133 H161 0.930 . S
N134 C133 1.373 . S
N134 C136 1.340 . S
N135 C132 1.368 . S
N135 C136 1.321 . S
N135 Co138 2.135 1_545 S
C136 N134 1.340 . S
C136 N135 1.321 . S
C136 H160 0.930 1_545 S
H137 C132 0.931 . S
Co138 N135 2.135 1_565 S
Co138 N141 2.121 . S
Co138 O146 2.055 . S
Co138 O149 2.039 . S
Co138 N152 2.140 . S
C139 O140 1.227 . S
C139 O149 1.265 . S
O140 C139 1.227 . S
N141 Co138 2.121 . S
N141 C143 1.375 . S
N141 C144 1.313 . S
C142 C143 1.338 . S
C142 N145 1.377 . S
C142 H162 0.930 . S
C143 N141 1.375 . S
C143 C142 1.338 . S
C143 H147 0.931 . S
C144 N141 1.313 . S
C144 N145 1.344 . S
C144 H148 0.930 . S
N145 C142 1.377 . S
N145 C144 1.344 . S
O146 Co138 2.055 . S
O146 C150 1.253 1_565 S
H147 C143 0.931 . S
H148 C144 0.930 . S
O149 Co138 2.039 . S
O149 C139 1.265 . S
C150 O146 1.253 1_545 S
C150 O151 1.227 . S
O151 C150 1.227 . S
N152 Co138 2.140 . S
N152 C155 1.346 . S
N152 C156 1.345 . S
C153 C154 1.387 . S
C153 C157 1.404 . S
C154 C153 1.387 . S
C154 C155 1.376 . S
C154 H163 0.923 1_565 S
C155 N152 1.346 . S
C155 C154 1.376 . S
C155 H158 0.928 . S
C156 N152 1.345 . S
C156 C157 1.371 . S
C156 H159 0.931 . S
C157 C153 1.404 . S
C157 C156 1.371 . S
C157 H164 0.930 . S
H158 C155 0.928 . S
H159 C156 0.931 . S
H160 C136 0.930 1_565 S
H161 C133 0.930 . S
H162 C142 0.930 . S
H163 C154 0.923 1_545 S
H164 C157 0.930 . S
C165 C166 1.351 . S
C165 N168 1.368 . S
C165 H170 0.931 . S
C166 C165 1.351 . S
C166 N167 1.373 . S
C166 H194 0.930 . S
N167 C166 1.373 . S
N167 C169 1.340 . S
N168 C165 1.368 . S
N168 C169 1.321 . S
N168 Co171 2.135 . S
C169 N167 1.340 . S
C169 N168 1.321 . S
C169 H193 0.930 . S
H170 C165 0.931 . S
Co171 N168 2.135 . S
Co171 N174 2.121 . S
Co171 O179 2.055 . S
Co171 O182 2.039 . S
Co171 N185 2.140 . S
C172 O173 1.227 . S
C172 O182 1.265 . S
O173 C172 1.227 . S
N174 Co171 2.121 . S
N174 C176 1.375 . S
N174 C177 1.313 1_554 S
C175 C176 1.338 1_556 S
C175 N178 1.377 . S
C175 H195 0.930 . S
C176 N174 1.375 . S
C176 C175 1.338 1_554 S
C176 H180 0.931 . S
C177 N174 1.313 1_556 S
C177 N178 1.344 . S
C177 H181 0.930 . S
N178 C175 1.377 . S
N178 C177 1.344 . S
O179 Co171 2.055 . S
O179 C183 1.253 . S
H180 C176 0.931 . S
H181 C177 0.930 . S
O182 Co171 2.039 . S
O182 C172 1.265 . S
C183 O179 1.253 . S
C183 O184 1.227 1_554 S
O184 C183 1.227 1_556 S
N185 Co171 2.140 . S
N185 C188 1.346 . S
N185 C189 1.345 . S
C186 C187 1.387 . S
C186 C190 1.391 . S
C187 C186 1.387 . S
C187 C188 1.369 . S
C187 H196 0.929 . S
C188 N185 1.346 . S
C188 C187 1.369 . S
C188 H191 0.928 . S
C189 N185 1.345 . S
C189 C190 1.371 . S
C189 H192 0.931 1_554 S
C190 C186 1.391 . S
C190 C189 1.371 . S
C190 H197 0.930 1_554 S
H191 C188 0.928 . S
H192 C189 0.931 1_556 S
H193 C169 0.930 . S
H194 C166 0.930 . S
H195 C175 0.930 . S
H196 C187 0.929 . S
H197 C190 0.930 1_556 S
C198 C199 1.351 . S
C198 N201 1.368 . S
C198 H203 0.931 . S
C199 C198 1.351 . S
C199 N200 1.373 . S
C199 H227 0.930 . S
N200 C199 1.373 . S
N200 C202 1.340 . S
N201 C198 1.368 . S
N201 C202 1.321 . S
N201 Co204 2.135 . S
C202 N200 1.340 . S
C202 N201 1.321 . S
C202 H226 0.930 . S
H203 C198 0.931 . S
Co204 N201 2.135 . S
Co204 N207 2.121 . S
Co204 O212 2.055 . S
Co204 O215 2.039 . S
Co204 N218 2.140 . S
C205 O206 1.227 . S
C205 O215 1.265 . S
O206 C205 1.227 . S
N207 Co204 2.121 . S
N207 C209 1.375 . S
N207 C210 1.313 . S
C208 C209 1.338 . S
C208 N211 1.377 . S
C208 H228 0.930 . S
C209 N207 1.375 . S
C209 C208 1.338 . S
C209 H213 0.931 . S
C210 N207 1.313 . S
C210 N211 1.344 . S
C210 H214 0.930 . S
N211 C208 1.377 . S
N211 C210 1.344 . S
O212 Co204 2.055 . S
O212 C216 1.253 . S
H213 C209 0.931 . S
H214 C210 0.930 . S
O215 Co204 2.039 . S
O215 C205 1.265 . S
C216 O212 1.253 . S
C216 O217 1.227 . S
O217 C216 1.227 . S
N218 Co204 2.140 . S
N218 C221 1.346 . S
N218 C222 1.345 . S
C219 C220 1.387 . S
C219 C223 1.391 . S
C220 C219 1.387 . S
C220 C221 1.369 . S
C220 H229 0.929 . S
C221 N218 1.346 . S
C221 C220 1.369 . S
C221 H224 0.928 . S
C222 N218 1.345 . S
C222 C223 1.371 . S
C222 H225 0.931 . S
C223 C219 1.391 . S
C223 C222 1.371 . S
C223 H230 0.930 . S
H224 C221 0.928 . S
H225 C222 0.931 . S
H226 C202 0.930 . S
H227 C199 0.930 . S
H228 C208 0.930 . S
H229 C220 0.929 . S
H230 C223 0.930 . S
C231 C232 1.351 . S
C231 N234 1.368 . S
C231 H236 0.931 . S
C232 C231 1.351 . S
C232 N233 1.373 . S
C232 H260 0.930 . S
N233 C232 1.373 . S
N233 C235 1.340 . S
N234 C231 1.368 . S
N234 C235 1.321 . S
N234 Co237 2.135 1_455 S
C235 N233 1.340 . S
C235 N234 1.321 . S
C235 H259 0.930 1_455 S
H236 C231 0.931 . S
Co237 N234 2.135 1_655 S
Co237 N240 2.121 . S
Co237 O245 2.055 . S
Co237 O248 2.039 . S
Co237 N251 2.140 . S
C238 O239 1.227 . S
C238 O248 1.265 . S
O239 C238 1.227 . S
N240 Co237 2.121 . S
N240 C242 1.375 . S
N240 C243 1.313 1_554 S
C241 C242 1.338 1_556 S
C241 N244 1.377 . S
C241 H261 0.930 . S
C242 N240 1.375 . S
C242 C241 1.338 1_554 S
C242 H246 0.931 . S
C243 N240 1.313 1_556 S
C243 N244 1.344 . S
C243 H247 0.930 . S
N244 C241 1.377 . S
N244 C243 1.344 . S
O245 Co237 2.055 . S
O245 C249 1.253 1_655 S
H246 C242 0.931 . S
H247 C243 0.930 . S
O248 Co237 2.039 . S
O248 C238 1.265 . S
C249 O245 1.253 1_455 S
C249 O250 1.227 1_554 S
O250 C249 1.227 1_556 S
N251 Co237 2.140 . S
N251 C254 1.346 . S
N251 C255 1.345 . S
C252 C253 1.387 . S
C252 C256 1.404 . S
C253 C252 1.387 . S
C253 C254 1.376 . S
C253 H262 0.923 1_655 S
C254 N251 1.346 . S
C254 C253 1.376 . S
C254 H257 0.928 . S
C255 N251 1.345 . S
C255 C256 1.371 . S
C255 H258 0.931 1_554 S
C256 C252 1.404 . S
C256 C255 1.371 . S
C256 H263 0.930 1_554 S
H257 C254 0.928 . S
H258 C255 0.931 1_556 S
H259 C235 0.930 1_655 S
H260 C232 0.930 . S
H261 C241 0.930 . S
H262 C253 0.923 1_455 S
H263 C256 0.930 1_556 S
C264 C265 1.351 . S
C264 N267 1.368 . S
C264 H269 0.931 . S
C265 C264 1.351 . S
C265 N266 1.373 . S
C265 H293 0.930 . S
N266 C265 1.373 . S
N266 C268 1.340 . S
N267 C264 1.368 . S
N267 C268 1.321 . S
N267 Co270 2.135 1_545 S
C268 N266 1.340 . S
C268 N267 1.321 . S
C268 H292 0.930 1_545 S
H269 C264 0.931 . S
Co270 N267 2.135 1_565 S
Co270 N273 2.121 . S
Co270 O278 2.055 . S
Co270 O281 2.039 . S
Co270 N284 2.140 . S
C271 O272 1.227 . S
C271 O281 1.265 . S
O272 C271 1.227 . S
N273 Co270 2.121 . S
N273 C275 1.375 . S
N273 C276 1.313 . S
C274 C275 1.338 . S
C274 N277 1.377 . S
C274 H294 0.930 . S
C275 N273 1.375 . S
C275 C274 1.338 . S
C275 H279 0.931 . S
C276 N273 1.313 . S
C276 N277 1.344 . S
C276 H280 0.930 . S
N277 C274 1.377 . S
N277 C276 1.344 . S
O278 Co270 2.055 . S
O278 C282 1.253 1_565 S
H279 C275 0.931 . S
H280 C276 0.930 . S
O281 Co270 2.039 . S
O281 C271 1.265 . S
C282 O278 1.253 1_545 S
C282 O283 1.227 . S
O283 C282 1.227 . S
N284 Co270 2.140 . S
N284 C287 1.346 . S
N284 C288 1.345 . S
C285 C286 1.387 . S
C285 C289 1.404 . S
C286 C285 1.387 . S
C286 C287 1.376 . S
C286 H295 0.923 1_565 S
C287 N284 1.346 . S
C287 C286 1.376 . S
C287 H290 0.928 . S
C288 N284 1.345 . S
C288 C289 1.371 . S
C288 H291 0.931 . S
C289 C285 1.404 . S
C289 C288 1.371 . S
C289 H296 0.930 . S
H290 C287 0.928 . S
H291 C288 0.931 . S
H292 C268 0.930 1_565 S
H293 C265 0.930 . S
H294 C274 0.930 . S
H295 C286 0.923 1_545 S
H296 C289 0.930 . S
C297 C298 1.351 . S
C297 N300 1.368 . S
C297 H302 0.931 . S
C298 C297 1.351 . S
C298 N299 1.373 . S
C298 H326 0.930 . S
N299 C298 1.373 . S
N299 C301 1.340 . S
N300 C297 1.368 . S
N300 C301 1.321 . S
N300 Co303 2.135 . S
C301 N299 1.340 . S
C301 N300 1.321 . S
C301 H325 0.930 . S
H302 C297 0.931 . S
Co303 N300 2.135 . S
Co303 N306 2.121 . S
Co303 O311 2.055 . S
Co303 O314 2.039 . S
Co303 N317 2.140 . S
C304 O305 1.227 . S
C304 O314 1.265 . S
O305 C304 1.227 . S
N306 Co303 2.121 . S
N306 C308 1.375 . S
N306 C309 1.313 1_554 S
C307 C308 1.338 1_556 S
C307 N310 1.377 . S
C307 H327 0.930 . S
C308 N306 1.375 . S
C308 C307 1.338 1_554 S
C308 H312 0.931 . S
C309 N306 1.313 1_556 S
C309 N310 1.344 . S
C309 H313 0.930 . S
N310 C307 1.377 . S
N310 C309 1.344 . S
O311 Co303 2.055 . S
O311 C315 1.253 . S
H312 C308 0.931 . S
H313 C309 0.930 . S
O314 Co303 2.039 . S
O314 C304 1.265 . S
C315 O311 1.253 . S
C315 O316 1.227 1_554 S
O316 C315 1.227 1_556 S
N317 Co303 2.140 . S
N317 C320 1.346 . S
N317 C321 1.345 . S
C318 C319 1.387 . S
C318 C322 1.391 . S
C319 C318 1.387 . S
C319 C320 1.369 . S
C319 H328 0.929 . S
C320 N317 1.346 . S
C320 C319 1.369 . S
C320 H323 0.928 . S
C321 N317 1.345 . S
C321 C322 1.371 . S
C321 H324 0.931 1_554 S
C322 C318 1.391 . S
C322 C321 1.371 . S
C322 H329 0.930 1_554 S
H323 C320 0.928 . S
H324 C321 0.931 1_556 S
H325 C301 0.930 . S
H326 C298 0.930 . S
H327 C307 0.930 . S
H328 C319 0.929 . S
H329 C322 0.930 1_556 S
C330 C331 1.351 . S
C330 N333 1.368 . S
C330 H335 0.931 . S
C331 C330 1.351 . S
C331 N332 1.373 . S
C331 H359 0.930 . S
N332 C331 1.373 . S
N332 C334 1.340 . S
N333 C330 1.368 . S
N333 C334 1.321 . S
N333 Co336 2.135 . S
C334 N332 1.340 . S
C334 N333 1.321 . S
C334 H358 0.930 . S
H335 C330 0.931 . S
Co336 N333 2.135 . S
Co336 N339 2.121 . S
Co336 O344 2.055 . S
Co336 O347 2.039 . S
Co336 N350 2.140 . S
C337 O338 1.227 . S
C337 O347 1.265 . S
O338 C337 1.227 . S
N339 Co336 2.121 . S
N339 C341 1.375 . S
N339 C342 1.313 . S
C340 C341 1.338 . S
C340 N343 1.377 . S
C340 H360 0.930 . S
C341 N339 1.375 . S
C341 C340 1.338 . S
C341 H345 0.931 . S
C342 N339 1.313 . S
C342 N343 1.344 . S
C342 H346 0.930 . S
N343 C340 1.377 . S
N343 C342 1.344 . S
O344 Co336 2.055 . S
O344 C348 1.253 . S
H345 C341 0.931 . S
H346 C342 0.930 . S
O347 Co336 2.039 . S
O347 C337 1.265 . S
C348 O344 1.253 . S
C348 O349 1.227 . S
O349 C348 1.227 . S
N350 Co336 2.140 . S
N350 C353 1.346 . S
N350 C354 1.345 . S
C351 C352 1.387 . S
C351 C355 1.391 . S
C352 C351 1.387 . S
C352 C353 1.369 . S
C352 H361 0.929 . S
C353 N350 1.346 . S
C353 C352 1.369 . S
C353 H356 0.928 . S
C354 N350 1.345 . S
C354 C355 1.371 . S
C354 H357 0.931 . S
C355 C351 1.391 . S
C355 C354 1.371 . S
C355 H362 0.930 . S
H356 C353 0.928 . S
H357 C354 0.931 . S
H358 C334 0.930 . S
H359 C331 0.930 . S
H360 C340 0.930 . S
H361 C352 0.929 . S
H362 C355 0.930 . S
C363 C364 1.351 . S
C363 N366 1.368 . S
C363 H368 0.931 . S
C364 C363 1.351 . S
C364 N365 1.373 . S
C364 H392 0.930 . S
N365 C364 1.373 . S
N365 C367 1.340 . S
N366 C363 1.368 . S
N366 C367 1.321 . S
N366 Co369 2.135 1_455 S
C367 N365 1.340 . S
C367 N366 1.321 . S
C367 H391 0.930 1_455 S
H368 C363 0.931 . S
Co369 N366 2.135 1_655 S
Co369 N372 2.121 . S
Co369 O377 2.055 . S
Co369 O380 2.039 . S
Co369 N383 2.140 . S
C370 O371 1.227 . S
C370 O380 1.265 . S
O371 C370 1.227 . S
N372 Co369 2.121 . S
N372 C374 1.375 . S
N372 C375 1.313 1_554 S
C373 C374 1.338 1_556 S
C373 N376 1.377 . S
C373 H393 0.930 . S
C374 N372 1.375 . S
C374 C373 1.338 1_554 S
C374 H378 0.931 . S
C375 N372 1.313 1_556 S
C375 N376 1.344 . S
C375 H379 0.930 . S
N376 C373 1.377 . S
N376 C375 1.344 . S
O377 Co369 2.055 . S
O377 C381 1.253 1_655 S
H378 C374 0.931 . S
H379 C375 0.930 . S
O380 Co369 2.039 . S
O380 C370 1.265 . S
C381 O377 1.253 1_455 S
C381 O382 1.227 1_554 S
O382 C381 1.227 1_556 S
N383 Co369 2.140 . S
N383 C386 1.346 . S
N383 C387 1.345 . S
C384 C385 1.387 . S
C384 C388 1.404 . S
C385 C384 1.387 . S
C385 C386 1.376 . S
C385 H394 0.923 1_655 S
C386 N383 1.346 . S
C386 C385 1.376 . S
C386 H389 0.928 . S
C387 N383 1.345 . S
C387 C388 1.371 . S
C387 H390 0.931 1_554 S
C388 C384 1.404 . S
C388 C387 1.371 . S
C388 H395 0.930 1_554 S
H389 C386 0.928 . S
H390 C387 0.931 1_556 S
H391 C367 0.930 1_655 S
H392 C364 0.930 . S
H393 C373 0.930 . S
H394 C385 0.923 1_455 S
H395 C388 0.930 1_556 S
C396 C397 1.351 . S
C396 N399 1.368 . S
C396 H401 0.931 . S
C397 C396 1.351 . S
C397 N398 1.373 . S
C397 H425 0.930 . S
N398 C397 1.373 . S
N398 C400 1.340 . S
N399 C396 1.368 . S
N399 C400 1.321 . S
N399 Co402 2.135 1_565 S
C400 N398 1.340 . S
C400 N399 1.321 . S
C400 H424 0.930 1_565 S
H401 C396 0.931 . S
Co402 N399 2.135 1_545 S
Co402 N405 2.121 . S
Co402 O410 2.055 . S
Co402 O413 2.039 . S
Co402 N416 2.140 . S
C403 O404 1.227 . S
C403 O413 1.265 . S
O404 C403 1.227 . S
N405 Co402 2.121 . S
N405 C407 1.375 . S
N405 C408 1.313 . S
C406 C407 1.338 . S
C406 N409 1.377 . S
C406 H426 0.930 . S
C407 N405 1.375 . S
C407 C406 1.338 . S
C407 H411 0.931 . S
C408 N405 1.313 . S
C408 N409 1.344 . S
C408 H412 0.930 . S
N409 C406 1.377 . S
N409 C408 1.344 . S
O410 Co402 2.055 . S
O410 C414 1.253 1_545 S
H411 C407 0.931 . S
H412 C408 0.930 . S
O413 Co402 2.039 . S
O413 C403 1.265 . S
C414 O410 1.253 1_565 S
C414 O415 1.227 . S
O415 C414 1.227 . S
N416 Co402 2.140 . S
N416 C419 1.346 . S
N416 C420 1.345 . S
C417 C418 1.387 . S
C417 C421 1.404 . S
C418 C417 1.387 . S
C418 C419 1.376 . S
C418 H427 0.923 1_545 S
C419 N416 1.346 . S
C419 C418 1.376 . S
C419 H422 0.928 . S
C420 N416 1.345 . S
C420 C421 1.371 . S
C420 H423 0.931 . S
C421 C417 1.404 . S
C421 C420 1.371 . S
C421 H428 0.930 . S
H422 C419 0.928 . S
H423 C420 0.931 . S
H424 C400 0.930 1_545 S
H425 C397 0.930 . S
H426 C406 0.930 . S
H427 C418 0.923 1_565 S
H428 C421 0.930 . S
C429 C430 1.351 . S
C429 N432 1.368 . S
C429 H434 0.931 . S
C430 C429 1.351 . S
C430 N431 1.373 . S
C430 H458 0.930 . S
N431 C430 1.373 . S
N431 C433 1.340 . S
N432 C429 1.368 . S
N432 C433 1.321 . S
N432 Co435 2.135 . S
C433 N431 1.340 . S
C433 N432 1.321 . S
C433 H457 0.930 . S
H434 C429 0.931 . S
Co435 N432 2.135 . S
Co435 N438 2.121 . S
Co435 O443 2.055 . S
Co435 O446 2.039 . S
Co435 N449 2.140 . S
C436 O437 1.227 . S
C436 O446 1.265 . S
O437 C436 1.227 . S
N438 Co435 2.121 . S
N438 C440 1.375 . S
N438 C441 1.313 1_556 S
C439 C440 1.338 1_554 S
C439 N442 1.377 . S
C439 H459 0.930 . S
C440 N438 1.375 . S
C440 C439 1.338 1_556 S
C440 H444 0.931 . S
C441 N438 1.313 1_554 S
C441 N442 1.344 . S
C441 H445 0.930 . S
N442 C439 1.377 . S
N442 C441 1.344 . S
O443 Co435 2.055 . S
O443 C447 1.253 . S
H444 C440 0.931 . S
H445 C441 0.930 . S
O446 Co435 2.039 . S
O446 C436 1.265 . S
C447 O443 1.253 . S
C447 O448 1.227 1_556 S
O448 C447 1.227 1_554 S
N449 Co435 2.140 . S
N449 C452 1.346 . S
N449 C453 1.345 . S
C450 C451 1.387 . S
C450 C454 1.391 . S
C451 C450 1.387 . S
C451 C452 1.369 . S
C451 H460 0.929 . S
C452 N449 1.346 . S
C452 C451 1.369 . S
C452 H455 0.928 . S
C453 N449 1.345 . S
C453 C454 1.371 . S
C453 H456 0.931 1_556 S
C454 C450 1.391 . S
C454 C453 1.371 . S
C454 H461 0.930 1_556 S
H455 C452 0.928 . S
H456 C453 0.931 1_554 S
H457 C433 0.930 . S
H458 C430 0.930 . S
H459 C439 0.930 . S
H460 C451 0.929 . S
H461 C454 0.930 1_554 S
C462 C463 1.351 . S
C462 N465 1.368 . S
C462 H467 0.931 . S
C463 C462 1.351 . S
C463 N464 1.373 . S
C463 H491 0.930 . S
N464 C463 1.373 . S
N464 C466 1.340 . S
N465 C462 1.368 . S
N465 C466 1.321 . S
N465 Co468 2.135 . S
C466 N464 1.340 . S
C466 N465 1.321 . S
C466 H490 0.930 . S
H467 C462 0.931 . S
Co468 N465 2.135 . S
Co468 N471 2.121 . S
Co468 O476 2.055 . S
Co468 O479 2.039 . S
Co468 N482 2.140 . S
C469 O470 1.227 . S
C469 O479 1.265 . S
O470 C469 1.227 . S
N471 Co468 2.121 . S
N471 C473 1.375 . S
N471 C474 1.313 . S
C472 C473 1.338 . S
C472 N475 1.377 . S
C472 H492 0.930 . S
C473 N471 1.375 . S
C473 C472 1.338 . S
C473 H477 0.931 . S
C474 N471 1.313 . S
C474 N475 1.344 . S
C474 H478 0.930 . S
N475 C472 1.377 . S
N475 C474 1.344 . S
O476 Co468 2.055 . S
O476 C480 1.253 . S
H477 C473 0.931 . S
H478 C474 0.930 . S
O479 Co468 2.039 . S
O479 C469 1.265 . S
C480 O476 1.253 . S
C480 O481 1.227 . S
O481 C480 1.227 . S
N482 Co468 2.140 . S
N482 C485 1.346 . S
N482 C486 1.345 . S
C483 C484 1.387 . S
C483 C487 1.391 . S
C484 C483 1.387 . S
C484 C485 1.369 . S
C484 H493 0.929 . S
C485 N482 1.346 . S
C485 C484 1.369 . S
C485 H488 0.928 . S
C486 N482 1.345 . S
C486 C487 1.371 . S
C486 H489 0.931 . S
C487 C483 1.391 . S
C487 C486 1.371 . S
C487 H494 0.930 . S
H488 C485 0.928 . S
H489 C486 0.931 . S
H490 C466 0.930 . S
H491 C463 0.930 . S
H492 C472 0.930 . S
H493 C484 0.929 . S
H494 C487 0.930 . S
C495 C496 1.351 . S
C495 N498 1.368 . S
C495 H500 0.931 . S
C496 C495 1.351 . S
C496 N497 1.373 . S
C496 H524 0.930 . S
N497 C496 1.373 . S
N497 C499 1.340 . S
N498 C495 1.368 . S
N498 C499 1.321 . S
N498 Co501 2.135 1_655 S
C499 N497 1.340 . S
C499 N498 1.321 . S
C499 H523 0.930 1_655 S
H500 C495 0.931 . S
Co501 N498 2.135 1_455 S
Co501 N504 2.121 . S
Co501 O509 2.055 . S
Co501 O512 2.039 . S
Co501 N515 2.140 . S
C502 O503 1.227 . S
C502 O512 1.265 . S
O503 C502 1.227 . S
N504 Co501 2.121 . S
N504 C506 1.375 . S
N504 C507 1.313 1_556 S
C505 C506 1.338 1_554 S
C505 N508 1.377 . S
C505 H525 0.930 . S
C506 N504 1.375 . S
C506 C505 1.338 1_556 S
C506 H510 0.931 . S
C507 N504 1.313 1_554 S
C507 N508 1.344 . S
C507 H511 0.930 . S
N508 C505 1.377 . S
N508 C507 1.344 . S
O509 Co501 2.055 . S
O509 C513 1.253 1_455 S
H510 C506 0.931 . S
H511 C507 0.930 . S
O512 Co501 2.039 . S
O512 C502 1.265 . S
C513 O509 1.253 1_655 S
C513 O514 1.227 1_556 S
O514 C513 1.227 1_554 S
N515 Co501 2.140 . S
N515 C518 1.346 . S
N515 C519 1.345 . S
C516 C517 1.387 . S
C516 C520 1.404 . S
C517 C516 1.387 . S
C517 C518 1.376 . S
C517 H526 0.923 1_455 S
C518 N515 1.346 . S
C518 C517 1.376 . S
C518 H521 0.928 . S
C519 N515 1.345 . S
C519 C520 1.371 . S
C519 H522 0.931 1_556 S
C520 C516 1.404 . S
C520 C519 1.371 . S
C520 H527 0.930 1_556 S
H521 C518 0.928 . S
H522 C519 0.931 1_554 S
H523 C499 0.930 1_455 S
H524 C496 0.930 . S
H525 C505 0.930 . S
H526 C517 0.923 1_655 S
H527 C520 0.930 1_554 S
H528 C536 0.950 . S
H529 C541 0.950 . S
H530 C538 0.950 . S
H531 C540 0.950 . S
H532 C542 0.950 . S
H533 C544 0.950 . S
H534 C546 0.950 . S
H535 C547 0.950 . S
C536 H528 0.950 . S
C536 C537 1.386 1_565 S
C536 C538 1.391 . S
C537 C536 1.386 1_545 S
C537 C541 1.393 . S
C538 H530 0.950 . S
C538 C536 1.391 . S
C538 C539 1.400 1_565 S
C539 C538 1.400 1_545 S
C539 C540 1.398 . S
C539 C545 1.491 1_645 S
C540 H531 0.950 . S
C540 C539 1.398 . S
C540 C541 1.391 . S
C541 H529 0.950 . S
C541 C537 1.393 . S
C541 C540 1.391 . S
C542 H532 0.950 . S
C542 C543 1.386 1_545 S
C542 C544 1.391 . S
C543 C542 1.386 1_565 S
C543 C547 1.393 . S
C544 H533 0.950 . S
C544 C542 1.391 . S
C544 C545 1.400 1_545 S
C545 C539 1.491 1_465 S
C545 C544 1.400 1_565 S
C545 C546 1.398 . S
C546 H534 0.950 . S
C546 C545 1.398 . S
C546 C547 1.391 . S
C547 H535 0.950 . S
C547 C543 1.393 . S
C547 C546 1.391 . S
H548 C556 0.950 . S
H549 C561 0.950 . S
H550 C558 0.950 . S
H551 C560 0.950 . S
H552 C562 0.950 . S
H553 C564 0.950 . S
H554 C566 0.950 . S
H555 C567 0.950 . S
C556 H548 0.950 . S
C556 C557 1.386 1_556 S
C556 C558 1.391 . S
C557 C556 1.386 1_554 S
C557 C561 1.393 . S
C558 H550 0.950 . S
C558 C556 1.391 . S
C558 C559 1.395 1_556 S
C559 C558 1.395 1_554 S
C559 C560 1.404 . S
C559 C565 1.490 1_544 S
C560 H551 0.950 . S
C560 C559 1.404 . S
C560 C561 1.391 . S
C561 H549 0.950 . S
C561 C557 1.393 . S
C561 C560 1.391 . S
C562 H552 0.950 . S
C562 C563 1.386 1_554 S
C562 C564 1.391 . S
C563 C562 1.386 1_556 S
C563 C567 1.393 . S
C564 H553 0.950 . S
C564 C562 1.391 . S
C564 C565 1.395 1_554 S
C565 C559 1.490 1_566 S
C565 C564 1.395 1_556 S
C565 C566 1.404 . S
C566 H554 0.950 . S
C566 C565 1.404 . S
C566 C567 1.391 . S
C567 H555 0.950 . S
C567 C563 1.393 . S
C567 C566 1.391 . S
H568 C576 0.950 . S
H569 C581 0.950 . S
H570 C578 0.950 . S
H571 C580 0.950 . S
H572 C582 0.950 . S
H573 C584 0.950 . S
H574 C586 0.950 . S
H575 C587 0.950 . S
C576 H568 0.950 . S
C576 C577 1.386 . S
C576 C578 1.391 . S
C577 C576 1.386 . S
C577 C581 1.393 . S
C578 H570 0.950 . S
C578 C576 1.391 . S
C578 C579 1.400 . S
C579 C578 1.400 . S
C579 C580 1.398 . S
C579 C585 1.491 . S
C580 H571 0.950 . S
C580 C579 1.398 . S
C580 C581 1.391 . S
C581 H569 0.950 . S
C581 C577 1.393 . S
C581 C580 1.391 . S
C582 H572 0.950 . S
C582 C583 1.386 . S
C582 C584 1.391 . S
C583 C582 1.386 . S
C583 C587 1.393 . S
C584 H573 0.950 . S
C584 C582 1.391 . S
C584 C585 1.400 . S
C585 C579 1.491 . S
C585 C584 1.400 . S
C585 C586 1.398 . S
C586 H574 0.950 . S
C586 C585 1.398 . S
C586 C587 1.391 . S
C587 H575 0.950 . S
C587 C583 1.393 . S
C587 C586 1.391 . S
H588 C596 0.950 . S
H589 C601 0.950 . S
H590 C598 0.950 . S
H591 C600 0.950 . S
H592 C602 0.950 . S
H593 C604 0.950 . S
H594 C606 0.950 . S
H595 C607 0.950 . S
C596 H588 0.950 . S
C596 C597 1.386 1_554 S
C596 C598 1.391 . S
C597 C596 1.386 1_556 S
C597 C601 1.393 1_455 S
C598 H590 0.950 . S
C598 C596 1.391 . S
C598 C599 1.400 1_554 S
C599 C598 1.400 1_556 S
C599 C600 1.398 1_455 S
C599 C605 1.491 1_456 S
C600 H591 0.950 . S
C600 C599 1.398 1_655 S
C600 C601 1.391 . S
C601 H589 0.950 . S
C601 C597 1.393 1_655 S
C601 C600 1.391 . S
C602 H592 0.950 . S
C602 C603 1.386 1_556 S
C602 C604 1.391 . S
C603 C602 1.386 1_554 S
C603 C607 1.393 1_655 S
C604 H593 0.950 . S
C604 C602 1.391 . S
C604 C605 1.400 1_556 S
C605 C599 1.491 1_654 S
C605 C604 1.400 1_554 S
C605 C606 1.398 1_655 S
C606 H594 0.950 . S
C606 C605 1.398 1_455 S
C606 C607 1.391 . S
C607 H595 0.950 . S
C607 C603 1.393 1_455 S
C607 C606 1.391 . S
H608 C616 0.950 . S
H609 C621 0.950 . S
H610 C618 0.950 . S
H611 C620 0.950 . S
H612 C622 0.950 . S
H613 C624 0.950 . S
H614 C626 0.950 . S
H615 C627 0.950 . S
C616 H608 0.950 . S
C616 C617 1.386 1_565 S
C616 C618 1.391 . S
C617 C616 1.386 1_545 S
C617 C621 1.393 . S
C618 H610 0.950 . S
C618 C616 1.391 . S
C618 C619 1.400 1_565 S
C619 C618 1.400 1_545 S
C619 C620 1.398 . S
C619 C625 1.491 1_545 S
C620 H611 0.950 . S
C620 C619 1.398 . S
C620 C621 1.391 . S
C621 H609 0.950 . S
C621 C617 1.393 . S
C621 C620 1.391 . S
C622 H612 0.950 . S
C622 C623 1.386 1_545 S
C622 C624 1.391 . S
C623 C622 1.386 1_565 S
C623 C627 1.393 . S
C624 H613 0.950 . S
C624 C622 1.391 . S
C624 C625 1.400 1_545 S
C625 C619 1.491 1_565 S
C625 C624 1.400 1_565 S
C625 C626 1.398 . S
C626 H614 0.950 . S
C626 C625 1.398 . S
C626 C627 1.391 . S
C627 H615 0.950 . S
C627 C623 1.393 . S
C627 C626 1.391 . S
H628 C636 0.950 . S
H629 C641 0.950 . S
H630 C638 0.950 . S
H631 C640 0.950 . S
H632 C642 0.950 . S
H633 C644 0.950 . S
H634 C646 0.950 . S
H635 C647 0.950 . S
C636 H628 0.950 . S
C636 C637 1.386 . S
C636 C638 1.391 . S
C637 C636 1.386 . S
C637 C641 1.393 . S
C638 H630 0.950 . S
C638 C636 1.391 . S
C638 C639 1.400 . S
C639 C638 1.400 . S
C639 C640 1.398 . S
C639 C645 1.491 1_556 S
C640 H631 0.950 . S
C640 C639 1.398 . S
C640 C641 1.391 . S
C641 H629 0.950 . S
C641 C637 1.393 . S
C641 C640 1.391 . S
C642 H632 0.950 . S
C642 C643 1.386 . S
C642 C644 1.391 . S
C643 C642 1.386 . S
C643 C647 1.393 . S
C644 H633 0.950 . S
C644 C642 1.391 . S
C644 C645 1.400 . S
C645 C639 1.491 1_554 S
C645 C644 1.400 . S
C645 C646 1.398 . S
C646 H634 0.950 . S
C646 C645 1.398 . S
C646 C647 1.391 . S
C647 H635 0.950 . S
C647 C643 1.393 . S
C647 C646 1.391 . S
H648 C656 0.950 . S
H649 C661 0.950 . S
H650 C658 0.950 . S
H651 C660 0.950 . S
H652 C662 0.950 . S
H653 C664 0.950 . S
H654 C666 0.950 . S
H655 C667 0.950 . S
C656 H648 0.950 . S
C656 C657 1.386 . S
C656 C658 1.391 . S
C657 C656 1.386 . S
C657 C661 1.393 . S
C658 H650 0.950 . S
C658 C656 1.391 . S
C658 C659 1.400 . S
C659 C658 1.400 . S
C659 C660 1.398 . S
C659 C665 1.491 1_655 S
C660 H651 0.950 . S
C660 C659 1.398 . S
C660 C661 1.391 . S
C661 H649 0.950 . S
C661 C657 1.393 . S
C661 C660 1.391 . S
C662 H652 0.950 . S
C662 C663 1.386 . S
C662 C664 1.391 . S
C663 C662 1.386 . S
C663 C667 1.393 . S
C664 H653 0.950 . S
C664 C662 1.391 . S
C664 C665 1.400 . S
C665 C659 1.491 1_455 S
C665 C664 1.400 . S
C665 C666 1.398 . S
C666 H654 0.950 . S
C666 C665 1.398 . S
C666 C667 1.391 . S
C667 H655 0.950 . S
C667 C663 1.393 . S
C667 C666 1.391 . S
H668 C676 0.950 . S
H669 C681 0.950 . S
H670 C678 0.949 1_554 S
H671 C680 0.950 1_554 S
H672 C682 0.950 . S
H673 C684 0.949 1_556 S
H674 C686 0.950 1_556 S
H675 C687 0.950 . S
C676 H668 0.950 . S
C676 C677 1.386 1_655 S
C676 C678 1.392 . S
C677 C676 1.386 1_455 S
C677 C681 1.393 . S
C678 H670 0.949 1_556 S
C678 C676 1.392 . S
C678 C679 1.400 1_655 S
C679 C678 1.400 1_455 S
C679 C680 1.399 . S
C679 C685 1.490 1_466 S
C680 H671 0.950 1_556 S
C680 C679 1.399 . S
C680 C681 1.391 . S
C681 H669 0.950 . S
C681 C677 1.393 . S
C681 C680 1.391 . S
C682 H672 0.950 . S
C682 C683 1.386 1_455 S
C682 C684 1.392 . S
C683 C682 1.386 1_655 S
C683 C687 1.393 . S
C684 H673 0.949 1_554 S
C684 C682 1.392 . S
C684 C685 1.400 1_455 S
C685 C679 1.490 1_644 S
C685 C684 1.400 1_655 S
C685 C686 1.399 . S
C686 H674 0.950 1_554 S
C686 C685 1.399 . S
C686 C687 1.391 . S
C687 H675 0.950 . S
C687 C683 1.393 . S
C687 C686 1.391 . S
H688 C696 0.950 . S
H689 C701 0.950 . S
H690 C698 0.950 . S
H691 C700 0.950 . S
H692 C702 0.950 . S
H693 C704 0.950 . S
H694 C706 0.950 . S
H695 C707 0.950 . S
C696 H688 0.950 . S
C696 C697 1.386 . S
C696 C698 1.391 . S
C697 C696 1.386 . S
C697 C701 1.393 . S
C698 H690 0.950 . S
C698 C696 1.391 . S
C698 C699 1.400 . S
C699 C698 1.400 . S
C699 C700 1.398 . S
C699 C705 1.491 . S
C700 H691 0.950 . S
C700 C699 1.398 . S
C700 C701 1.391 . S
C701 H689 0.950 . S
C701 C697 1.393 . S
C701 C700 1.391 . S
C702 H692 0.950 . S
C702 C703 1.386 . S
C702 C704 1.391 . S
C703 C702 1.386 . S
C703 C707 1.393 . S
C704 H693 0.950 . S
C704 C702 1.391 . S
C704 C705 1.400 . S
C705 C699 1.491 . S
C705 C704 1.400 . S
C705 C706 1.398 . S
C706 H694 0.950 . S
C706 C705 1.398 . S
C706 C707 1.391 . S
C707 H695 0.950 . S
C707 C703 1.393 . S
C707 C706 1.391 . S
H708 C716 0.950 . S
H709 C721 0.950 . S
H710 C718 0.950 . S
H711 C720 0.950 . S
H712 C722 0.950 . S
H713 C724 0.950 . S
H714 C726 0.950 . S
H715 C727 0.950 . S
C716 H708 0.950 . S
C716 C717 1.386 . S
C716 C718 1.391 . S
C717 C716 1.386 . S
C717 C721 1.393 . S
C718 H710 0.950 . S
C718 C716 1.391 . S
C718 C719 1.400 . S
C719 C718 1.400 . S
C719 C720 1.398 . S
C719 C725 1.491 . S
C720 H711 0.950 . S
C720 C719 1.398 . S
C720 C721 1.391 . S
C721 H709 0.950 . S
C721 C717 1.393 . S
C721 C720 1.391 . S
C722 H712 0.950 . S
C722 C723 1.386 . S
C722 C724 1.391 . S
C723 C722 1.386 . S
C723 C727 1.393 . S
C724 H713 0.950 . S
C724 C722 1.391 . S
C724 C725 1.400 . S
C725 C719 1.491 . S
C725 C724 1.400 . S
C725 C726 1.398 . S
C726 H714 0.950 . S
C726 C725 1.398 . S
C726 C727 1.391 . S
C727 H715 0.950 . S
C727 C723 1.393 . S
C727 C726 1.391 . S
H728 C736 0.950 . S
H729 C741 0.950 . S
H730 C738 0.950 . S
H731 C740 0.950 . S
H732 C742 0.950 . S
H733 C744 0.950 . S
H734 C746 0.950 . S
H735 C747 0.950 . S
C736 H728 0.950 . S
C736 C737 1.386 . S
C736 C738 1.391 . S
C737 C736 1.386 . S
C737 C741 1.393 . S
C738 H730 0.950 . S
C738 C736 1.391 . S
C738 C739 1.400 . S
C739 C738 1.400 . S
C739 C740 1.398 . S
C739 C745 1.491 . S
C740 H731 0.950 . S
C740 C739 1.398 . S
C740 C741 1.391 . S
C741 H729 0.950 . S
C741 C737 1.393 . S
C741 C740 1.391 . S
C742 H732 0.950 . S
C742 C743 1.386 . S
C742 C744 1.391 . S
C743 C742 1.386 . S
C743 C747 1.393 . S
C744 H733 0.950 . S
C744 C742 1.391 . S
C744 C745 1.400 . S
C745 C739 1.491 . S
C745 C744 1.400 . S
C745 C746 1.398 . S
C746 H734 0.950 . S
C746 C745 1.398 . S
C746 C747 1.391 . S
C747 H735 0.950 . S
C747 C743 1.393 . S
C747 C746 1.391 . S
H748 C756 0.950 . S
H749 C761 0.950 . S
H750 C758 0.950 . S
H751 C760 0.950 . S
H752 C762 0.950 . S
H753 C764 0.950 . S
H754 C766 0.950 . S
H755 C767 0.950 . S
C756 H748 0.950 . S
C756 C757 1.386 . S
C756 C758 1.391 . S
C757 C756 1.386 . S
C757 C761 1.393 . S
C758 H750 0.950 . S
C758 C756 1.391 . S
C758 C759 1.400 . S
C759 C758 1.400 . S
C759 C760 1.398 . S
C759 C765 1.491 . S
C760 H751 0.950 . S
C760 C759 1.398 . S
C760 C761 1.391 . S
C761 H749 0.950 . S
C761 C757 1.393 . S
C761 C760 1.391 . S
C762 H752 0.950 . S
C762 C763 1.386 . S
C762 C764 1.391 . S
C763 C762 1.386 . S
C763 C767 1.393 . S
C764 H753 0.950 . S
C764 C762 1.391 . S
C764 C765 1.400 . S
C765 C759 1.491 . S
C765 C764 1.400 . S
C765 C766 1.398 . S
C766 H754 0.950 . S
C766 C765 1.398 . S
C766 C767 1.391 . S
C767 H755 0.950 . S
C767 C763 1.393 . S
C767 C766 1.391 . S
H768 C776 0.950 . S
H769 C781 0.950 . S
H770 C778 0.950 . S
H771 C780 0.950 . S
H772 C782 0.950 . S
H773 C784 0.950 . S
H774 C786 0.950 . S
H775 C787 0.950 . S
C776 H768 0.950 . S
C776 C777 1.386 . S
C776 C778 1.391 . S
C777 C776 1.386 . S
C777 C781 1.393 . S
C778 H770 0.950 . S
C778 C776 1.391 . S
C778 C779 1.400 . S
C779 C778 1.400 . S
C779 C780 1.398 . S
C779 C785 1.491 . S
C780 H771 0.950 . S
C780 C779 1.398 . S
C780 C781 1.391 . S
C781 H769 0.950 . S
C781 C777 1.393 . S
C781 C780 1.391 . S
C782 H772 0.950 . S
C782 C783 1.386 . S
C782 C784 1.391 . S
C783 C782 1.386 . S
C783 C787 1.393 . S
C784 H773 0.950 . S
C784 C782 1.391 . S
C784 C785 1.400 . S
C785 C779 1.491 . S
C785 C784 1.400 . S
C785 C786 1.398 . S
C786 H774 0.950 . S
C786 C785 1.398 . S
C786 C787 1.391 . S
C787 H775 0.950 . S
C787 C783 1.393 . S
C787 C786 1.391 . S
H788 C796 0.950 . S
H789 C801 0.950 . S
H790 C798 0.950 . S
H791 C800 0.950 . S
H792 C802 0.950 . S
H793 C804 0.950 . S
H794 C806 0.950 . S
H795 C807 0.950 . S
C796 H788 0.950 . S
C796 C797 1.386 . S
C796 C798 1.391 . S
C797 C796 1.386 . S
C797 C801 1.393 . S
C798 H790 0.950 . S
C798 C796 1.391 . S
C798 C799 1.400 . S
C799 C798 1.400 . S
C799 C800 1.398 . S
C799 C805 1.491 . S
C800 H791 0.950 . S
C800 C799 1.398 . S
C800 C801 1.391 . S
C801 H789 0.950 . S
C801 C797 1.393 . S
C801 C800 1.391 . S
C802 H792 0.950 . S
C802 C803 1.386 . S
C802 C804 1.391 . S
C803 C802 1.386 . S
C803 C807 1.393 . S
C804 H793 0.950 . S
C804 C802 1.391 . S
C804 C805 1.400 . S
C805 C799 1.491 . S
C805 C804 1.400 . S
C805 C806 1.398 . S
C806 H794 0.950 . S
C806 C805 1.398 . S
C806 C807 1.391 . S
C807 H795 0.950 . S
C807 C803 1.393 . S
C807 C806 1.391 . S
H808 C816 0.950 . S
H809 C821 0.950 . S
H810 C818 0.950 . S
H811 C820 0.950 . S
H812 C822 0.950 . S
H813 C824 0.950 . S
H814 C826 0.950 . S
H815 C827 0.950 . S
C816 H808 0.950 . S
C816 C817 1.386 . S
C816 C818 1.391 . S
C817 C816 1.386 . S
C817 C821 1.393 . S
C818 H810 0.950 . S
C818 C816 1.391 . S
C818 C819 1.400 . S
C819 C818 1.400 . S
C819 C820 1.398 . S
C819 C825 1.491 . S
C820 H811 0.950 . S
C820 C819 1.398 . S
C820 C821 1.391 . S
C821 H809 0.950 . S
C821 C817 1.393 . S
C821 C820 1.391 . S
C822 H812 0.950 . S
C822 C823 1.386 . S
C822 C824 1.391 . S
C823 C822 1.386 . S
C823 C827 1.393 . S
C824 H813 0.950 . S
C824 C822 1.391 . S
C824 C825 1.400 . S
C825 C819 1.491 . S
C825 C824 1.400 . S
C825 C826 1.398 . S
C826 H814 0.950 . S
C826 C825 1.398 . S
C826 C827 1.391 . S
C827 H815 0.950 . S
C827 C823 1.393 . S
C827 C826 1.391 . S
H828 C836 0.950 . S
H829 C841 0.950 . S
H830 C838 0.950 . S
H831 C840 0.950 . S
H832 C842 0.950 . S
H833 C844 0.950 . S
H834 C846 0.950 . S
H835 C847 0.950 . S
C836 H828 0.950 . S
C836 C837 1.386 . S
C836 C838 1.391 . S
C837 C836 1.386 . S
C837 C841 1.393 . S
C838 H830 0.950 . S
C838 C836 1.391 . S
C838 C839 1.400 . S
C839 C838 1.400 . S
C839 C840 1.398 . S
C839 C845 1.491 . S
C840 H831 0.950 . S
C840 C839 1.398 . S
C840 C841 1.391 . S
C841 H829 0.950 . S
C841 C837 1.393 . S
C841 C840 1.391 . S
C842 H832 0.950 . S
C842 C843 1.386 . S
C842 C844 1.391 . S
C843 C842 1.386 . S
C843 C847 1.393 . S
C844 H833 0.950 . S
C844 C842 1.391 . S
C844 C845 1.400 . S
C845 C839 1.491 . S
C845 C844 1.400 . S
C845 C846 1.398 . S
C846 H834 0.950 . S
C846 C845 1.398 . S
C846 C847 1.391 . S
C847 H835 0.950 . S
C847 C843 1.393 . S
C847 C846 1.391 . S
H848 C856 0.950 . S
H849 C861 0.950 . S
H850 C858 0.950 . S
H851 C860 0.950 . S
H852 C862 0.950 . S
H853 C864 0.950 . S
H854 C866 0.950 . S
H855 C867 0.950 . S
C856 H848 0.950 . S
C856 C857 1.386 . S
C856 C858 1.391 . S
C857 C856 1.386 . S
C857 C861 1.393 . S
C858 H850 0.950 . S
C858 C856 1.391 . S
C858 C859 1.400 . S
C859 C858 1.400 . S
C859 C860 1.398 . S
C859 C865 1.491 . S
C860 H851 0.950 . S
C860 C859 1.398 . S
C860 C861 1.391 . S
C861 H849 0.950 . S
C861 C857 1.393 . S
C861 C860 1.391 . S
C862 H852 0.950 . S
C862 C863 1.386 . S
C862 C864 1.391 . S
C863 C862 1.386 . S
C863 C867 1.393 . S
C864 H853 0.950 . S
C864 C862 1.391 . S
C864 C865 1.400 . S
C865 C859 1.491 . S
C865 C864 1.400 . S
C865 C866 1.398 . S
C866 H854 0.950 . S
C866 C865 1.398 . S
C866 C867 1.391 . S
C867 H855 0.950 . S
C867 C863 1.393 . S
C867 C866 1.391 . S
H868 C876 0.950 . S
H869 C881 0.950 . S
H870 C878 0.950 . S
H871 C880 0.950 . S
H872 C882 0.950 . S
H873 C884 0.950 . S
H874 C886 0.950 . S
H875 C887 0.950 . S
C876 H868 0.950 . S
C876 C877 1.386 . S
C876 C878 1.391 . S
C877 C876 1.386 . S
C877 C881 1.393 . S
C878 H870 0.950 . S
C878 C876 1.391 . S
C878 C879 1.400 . S
C879 C878 1.400 . S
C879 C880 1.398 . S
C879 C885 1.491 . S
C880 H871 0.950 . S
C880 C879 1.398 . S
C880 C881 1.391 . S
C881 H869 0.950 . S
C881 C877 1.393 . S
C881 C880 1.391 . S
C882 H872 0.950 . S
C882 C883 1.386 . S
C882 C884 1.391 . S
C883 C882 1.386 . S
C883 C887 1.393 . S
C884 H873 0.950 . S
C884 C882 1.391 . S
C884 C885 1.400 . S
C885 C879 1.491 . S
C885 C884 1.400 . S
C885 C886 1.398 . S
C886 H874 0.950 . S
C886 C885 1.398 . S
C886 C887 1.391 . S
C887 H875 0.950 . S
C887 C883 1.393 . S
C887 C886 1.391 . S
H888 C896 0.950 . S
H889 C901 0.950 . S
H890 C898 0.950 . S
H891 C900 0.950 . S
H892 C902 0.950 . S
H893 C904 0.950 . S
H894 C906 0.950 . S
H895 C907 0.950 . S
C896 H888 0.950 . S
C896 C897 1.386 . S
C896 C898 1.391 . S
C897 C896 1.386 . S
C897 C901 1.393 . S
C898 H890 0.950 . S
C898 C896 1.391 . S
C898 C899 1.400 . S
C899 C898 1.400 . S
C899 C900 1.398 . S
C899 C905 1.491 . S
C900 H891 0.950 . S
C900 C899 1.398 . S
C900 C901 1.391 . S
C901 H889 0.950 . S
C901 C897 1.393 . S
C901 C900 1.391 . S
C902 H892 0.950 . S
C902 C903 1.386 . S
C902 C904 1.391 . S
C903 C902 1.386 . S
C903 C907 1.393 . S
C904 H893 0.950 . S
C904 C902 1.391 . S
C904 C905 1.400 . S
C905 C899 1.491 . S
C905 C904 1.400 . S
C905 C906 1.398 . S
C906 H894 0.950 . S
C906 C905 1.398 . S
C906 C907 1.391 . S
C907 H895 0.950 . S
C907 C903 1.393 . S
C907 C906 1.391 . S
H908 C916 0.950 . S
H909 C921 0.950 . S
H910 C918 0.950 . S
H911 C920 0.950 . S
H912 C922 0.950 . S
H913 C924 0.950 . S
H914 C926 0.950 . S
H915 C927 0.950 . S
C916 H908 0.950 . S
C916 C917 1.386 . S
C916 C918 1.391 . S
C917 C916 1.386 . S
C917 C921 1.393 . S
C918 H910 0.950 . S
C918 C916 1.391 . S
C918 C919 1.400 . S
C919 C918 1.400 . S
C919 C920 1.398 . S
C919 C925 1.491 . S
C920 H911 0.950 . S
C920 C919 1.398 . S
C920 C921 1.391 . S
C921 H909 0.950 . S
C921 C917 1.393 . S
C921 C920 1.391 . S
C922 H912 0.950 . S
C922 C923 1.386 . S
C922 C924 1.391 . S
C923 C922 1.386 . S
C923 C927 1.393 . S
C924 H913 0.950 . S
C924 C922 1.391 . S
C924 C925 1.400 . S
C925 C919 1.491 . S
C925 C924 1.400 . S
C925 C926 1.398 . S
C926 H914 0.950 . S
C926 C925 1.398 . S
C926 C927 1.391 . S
C927 H915 0.950 . S
C927 C923 1.393 . S
C927 C926 1.391 . S
H928 C936 0.950 . S
H929 C941 0.950 . S
H930 C938 0.950 . S
H931 C940 0.950 . S
H932 C942 0.950 . S
H933 C944 0.950 . S
H934 C946 0.950 . S
H935 C947 0.950 . S
C936 H928 0.950 . S
C936 C937 1.386 . S
C936 C938 1.391 . S
C937 C936 1.386 . S
C937 C941 1.393 . S
C938 H930 0.950 . S
C938 C936 1.391 . S
C938 C939 1.400 . S
C939 C938 1.400 . S
C939 C940 1.398 . S
C939 C945 1.491 . S
C940 H931 0.950 . S
C940 C939 1.398 . S
C940 C941 1.391 . S
C941 H929 0.950 . S
C941 C937 1.393 . S
C941 C940 1.391 . S
C942 H932 0.950 . S
C942 C943 1.386 . S
C942 C944 1.391 . S
C943 C942 1.386 . S
C943 C947 1.393 . S
C944 H933 0.950 . S
C944 C942 1.391 . S
C944 C945 1.400 . S
C945 C939 1.491 . S
C945 C944 1.400 . S
C945 C946 1.398 . S
C946 H934 0.950 . S
C946 C945 1.398 . S
C946 C947 1.391 . S
C947 H935 0.950 . S
C947 C943 1.393 . S
C947 C946 1.391 . S
H948 C956 0.950 . S
H949 C961 0.950 . S
H950 C958 0.950 . S
H951 C960 0.950 . S
H952 C962 0.950 . S
H953 C964 0.950 . S
H954 C966 0.950 . S
H955 C967 0.950 . S
C956 H948 0.950 . S
C956 C957 1.386 . S
C956 C958 1.391 . S
C957 C956 1.386 . S
C957 C961 1.393 . S
C958 H950 0.950 . S
C958 C956 1.391 . S
C958 C959 1.400 . S
C959 C958 1.400 . S
C959 C960 1.398 . S
C959 C965 1.491 . S
C960 H951 0.950 . S
C960 C959 1.398 . S
C960 C961 1.391 . S
C961 H949 0.950 . S
C961 C957 1.393 . S
C961 C960 1.391 . S
C962 H952 0.950 . S
C962 C963 1.386 . S
C962 C964 1.391 . S
C963 C962 1.386 . S
C963 C967 1.393 . S
C964 H953 0.950 . S
C964 C962 1.391 . S
C964 C965 1.400 . S
C965 C959 1.491 . S
C965 C964 1.400 . S
C965 C966 1.398 . S
C966 H954 0.950 . S
C966 C965 1.398 . S
C966 C967 1.391 . S
C967 H955 0.950 . S
C967 C963 1.393 . S
C967 C966 1.391 . S
H968 C976 0.950 . S
H969 C981 0.950 . S
H970 C978 0.950 . S
H971 C980 0.950 . S
H972 C982 0.950 . S
H973 C984 0.950 . S
H974 C986 0.950 . S
H975 C987 0.950 . S
C976 H968 0.950 . S
C976 C977 1.386 . S
C976 C978 1.391 . S
C977 C976 1.386 . S
C977 C981 1.393 . S
C978 H970 0.950 . S
C978 C976 1.391 . S
C978 C979 1.400 . S
C979 C978 1.400 . S
C979 C980 1.398 . S
C979 C985 1.491 . S
C980 H971 0.950 . S
C980 C979 1.398 . S
C980 C981 1.391 . S
C981 H969 0.950 . S
C981 C977 1.393 . S
C981 C980 1.391 . S
C982 H972 0.950 . S
C982 C983 1.386 . S
C982 C984 1.391 . S
C983 C982 1.386 . S
C983 C987 1.393 . S
C984 H973 0.950 . S
C984 C982 1.391 . S
C984 C985 1.400 . S
C985 C979 1.491 . S
C985 C984 1.400 . S
C985 C986 1.398 . S
C986 H974 0.950 . S
C986 C985 1.398 . S
C986 C987 1.391 . S
C987 H975 0.950 . S
C987 C983 1.393 . S
C987 C986 1.391 . S
H988 C996 0.950 . S
H989 C1001 0.950 . S
H990 C998 0.950 . S
H991 C1000 0.950 . S
H992 C1002 0.950 . S
H993 C1004 0.950 . S
H994 C1006 0.950 . S
H995 C1007 0.950 . S
C996 H988 0.950 . S
C996 C997 1.386 . S
C996 C998 1.391 . S
C997 C996 1.386 . S
C997 C1001 1.393 . S
C998 H990 0.950 . S
C998 C996 1.391 . S
C998 C999 1.400 . S
C999 C998 1.400 . S
C999 C1000 1.398 . S
C999 C1005 1.491 . S
C1000 H991 0.950 . S
C1000 C999 1.398 . S
C1000 C1001 1.391 . S
C1001 H989 0.950 . S
C1001 C997 1.393 . S
C1001 C1000 1.391 . S
C1002 H992 0.950 . S
C1002 C1003 1.386 . S
C1002 C1004 1.391 . S
C1003 C1002 1.386 . S
C1003 C1007 1.393 . S
C1004 H993 0.950 . S
C1004 C1002 1.391 . S
C1004 C1005 1.400 . S
C1005 C999 1.491 . S
C1005 C1004 1.400 . S
C1005 C1006 1.398 . S
C1006 H994 0.950 . S
C1006 C1005 1.398 . S
C1006 C1007 1.391 . S
C1007 H995 0.950 . S
C1007 C1003 1.393 . S
C1007 C1006 1.391 . S
H1008 C1016 0.950 . S
H1009 C1021 0.950 . S
H1010 C1018 0.950 . S
H1011 C1020 0.950 . S
H1012 C1022 0.950 . S
H1013 C1024 0.950 . S
H1014 C1026 0.950 . S
H1015 C1027 0.950 . S
C1016 H1008 0.950 . S
C1016 C1017 1.386 . S
C1016 C1018 1.391 . S
C1017 C1016 1.386 . S
C1017 C1021 1.393 . S
C1018 H1010 0.950 . S
C1018 C1016 1.391 . S
C1018 C1019 1.400 . S
C1019 C1018 1.400 . S
C1019 C1020 1.398 . S
C1019 C1025 1.491 . S
C1020 H1011 0.950 . S
C1020 C1019 1.398 . S
C1020 C1021 1.391 . S
C1021 H1009 0.950 . S
C1021 C1017 1.393 . S
C1021 C1020 1.391 . S
C1022 H1012 0.950 . S
C1022 C1023 1.386 . S
C1022 C1024 1.391 . S
C1023 C1022 1.386 . S
C1023 C1027 1.393 . S
C1024 H1013 0.950 . S
C1024 C1022 1.391 . S
C1024 C1025 1.400 . S
C1025 C1019 1.491 . S
C1025 C1024 1.400 . S
C1025 C1026 1.398 . S
C1026 H1014 0.950 . S
C1026 C1025 1.398 . S
C1026 C1027 1.391 . S
C1027 H1015 0.950 . S
C1027 C1023 1.393 . S
C1027 C1026 1.391 . S
H1028 C1036 0.950 . S
H1029 C1041 0.950 . S
H1030 C1038 0.950 . S
H1031 C1040 0.950 . S
H1032 C1042 0.950 . S
H1033 C1044 0.950 . S
H1034 C1046 0.950 . S
H1035 C1047 0.950 . S
C1036 H1028 0.950 . S
C1036 C1037 1.386 . S
C1036 C1038 1.391 . S
C1037 C1036 1.386 . S
C1037 C1041 1.393 . S
C1038 H1030 0.950 . S
C1038 C1036 1.391 . S
C1038 C1039 1.400 . S
C1039 C1038 1.400 . S
C1039 C1040 1.398 . S
C1039 C1045 1.491 . S
C1040 H1031 0.950 . S
C1040 C1039 1.398 . S
C1040 C1041 1.391 . S
C1041 H1029 0.950 . S
C1041 C1037 1.393 . S
C1041 C1040 1.391 . S
C1042 H1032 0.950 . S
C1042 C1043 1.386 . S
C1042 C1044 1.391 . S
C1043 C1042 1.386 . S
C1043 C1047 1.393 . S
C1044 H1033 0.950 . S
C1044 C1042 1.391 . S
C1044 C1045 1.400 . S
C1045 C1039 1.491 . S
C1045 C1044 1.400 . S
C1045 C1046 1.398 . S
C1046 H1034 0.950 . S
C1046 C1045 1.398 . S
C1046 C1047 1.391 . S
C1047 H1035 0.950 . S
C1047 C1043 1.393 . S
C1047 C1046 1.391 . S
H1048 C1056 0.950 . S
H1049 C1061 0.950 . S
H1050 C1058 0.950 . S
H1051 C1060 0.950 . S
H1052 C1062 0.950 . S
H1053 C1064 0.950 . S
H1054 C1066 0.950 . S
H1055 C1067 0.950 . S
C1056 H1048 0.950 . S
C1056 C1057 1.386 . S
C1056 C1058 1.391 . S
C1057 C1056 1.386 . S
C1057 C1061 1.393 . S
C1058 H1050 0.950 . S
C1058 C1056 1.391 . S
C1058 C1059 1.400 . S
C1059 C1058 1.400 . S
C1059 C1060 1.398 . S
C1059 C1065 1.491 . S
C1060 H1051 0.950 . S
C1060 C1059 1.398 . S
C1060 C1061 1.391 . S
C1061 H1049 0.950 . S
C1061 C1057 1.393 . S
C1061 C1060 1.391 . S
C1062 H1052 0.950 . S
C1062 C1063 1.386 . S
C1062 C1064 1.391 . S
C1063 C1062 1.386 . S
C1063 C1067 1.393 . S
C1064 H1053 0.950 . S
C1064 C1062 1.391 . S
C1064 C1065 1.400 . S
C1065 C1059 1.491 . S
C1065 C1064 1.400 . S
C1065 C1066 1.398 . S
C1066 H1054 0.950 . S
C1066 C1065 1.398 . S
C1066 C1067 1.391 . S
C1067 H1055 0.950 . S
C1067 C1063 1.393 . S
C1067 C1066 1.391 . S
H1068 C1076 0.950 . S
H1069 C1081 0.950 . S
H1070 C1078 0.950 . S
H1071 C1080 0.950 . S
H1072 C1082 0.950 . S
H1073 C1084 0.950 . S
H1074 C1086 0.950 . S
H1075 C1087 0.950 . S
C1076 H1068 0.950 . S
C1076 C1077 1.386 . S
C1076 C1078 1.391 . S
C1077 C1076 1.386 . S
C1077 C1081 1.393 . S
C1078 H1070 0.950 . S
C1078 C1076 1.391 . S
C1078 C1079 1.400 . S
C1079 C1078 1.400 . S
C1079 C1080 1.398 . S
C1079 C1085 1.491 . S
C1080 H1071 0.950 . S
C1080 C1079 1.398 . S
C1080 C1081 1.391 . S
C1081 H1069 0.950 . S
C1081 C1077 1.393 . S
C1081 C1080 1.391 . S
C1082 H1072 0.950 . S
C1082 C1083 1.386 . S
C1082 C1084 1.391 . S
C1083 C1082 1.386 . S
C1083 C1087 1.393 . S
C1084 H1073 0.950 . S
C1084 C1082 1.391 . S
C1084 C1085 1.400 . S
C1085 C1079 1.491 . S
C1085 C1084 1.400 . S
C1085 C1086 1.398 . S
C1086 H1074 0.950 . S
C1086 C1085 1.398 . S
C1086 C1087 1.391 . S
C1087 H1075 0.950 . S
C1087 C1083 1.393 . S
C1087 C1086 1.391 . S
H1088 C1096 0.950 . S
H1089 C1101 0.950 . S
H1090 C1098 0.950 . S
H1091 C1100 0.950 . S
H1092 C1102 0.950 . S
H1093 C1104 0.950 . S
H1094 C1106 0.950 . S
H1095 C1107 0.950 . S
C1096 H1088 0.950 . S
C1096 C1097 1.386 . S
C1096 C1098 1.391 . S
C1097 C1096 1.386 . S
C1097 C1101 1.393 . S
C1098 H1090 0.950 . S
C1098 C1096 1.391 . S
C1098 C1099 1.400 . S
C1099 C1098 1.400 . S
C1099 C1100 1.398 . S
C1099 C1105 1.491 . S
C1100 H1091 0.950 . S
C1100 C1099 1.398 . S
C1100 C1101 1.391 . S
C1101 H1089 0.950 . S
C1101 C1097 1.393 . S
C1101 C1100 1.391 . S
C1102 H1092 0.950 . S
C1102 C1103 1.386 . S
C1102 C1104 1.391 . S
C1103 C1102 1.386 . S
C1103 C1107 1.393 . S
C1104 H1093 0.950 . S
C1104 C1102 1.391 . S
C1104 C1105 1.400 . S
C1105 C1099 1.491 . S
C1105 C1104 1.400 . S
C1105 C1106 1.398 . S
C1106 H1094 0.950 . S
C1106 C1105 1.398 . S
C1106 C1107 1.391 . S
C1107 H1095 0.950 . S
C1107 C1103 1.393 . S
C1107 C1106 1.391 . S
H1108 C1116 0.950 . S
H1109 C1121 0.950 . S
H1110 C1118 0.950 . S
H1111 C1120 0.950 . S
H1112 C1122 0.950 . S
H1113 C1124 0.950 . S
H1114 C1126 0.950 . S
H1115 C1127 0.950 . S
C1116 H1108 0.950 . S
C1116 C1117 1.386 . S
C1116 C1118 1.391 . S
C1117 C1116 1.386 . S
C1117 C1121 1.393 . S
C1118 H1110 0.950 . S
C1118 C1116 1.391 . S
C1118 C1119 1.400 . S
C1119 C1118 1.400 . S
C1119 C1120 1.398 . S
C1119 C1125 1.491 . S
C1120 H1111 0.950 . S
C1120 C1119 1.398 . S
C1120 C1121 1.391 . S
C1121 H1109 0.950 . S
C1121 C1117 1.393 . S
C1121 C1120 1.391 . S
C1122 H1112 0.950 . S
C1122 C1123 1.386 . S
C1122 C1124 1.391 . S
C1123 C1122 1.386 . S
C1123 C1127 1.393 . S
C1124 H1113 0.950 . S
C1124 C1122 1.391 . S
C1124 C1125 1.400 . S
C1125 C1119 1.491 . S
C1125 C1124 1.400 . S
C1125 C1126 1.398 . S
C1126 H1114 0.950 . S
C1126 C1125 1.398 . S
C1126 C1127 1.391 . S
C1127 H1115 0.950 . S
C1127 C1123 1.393 . S
C1127 C1126 1.391 . S
H1128 C1136 0.950 . S
H1129 C1141 0.950 . S
H1130 C1138 0.950 . S
H1131 C1140 0.950 . S
H1132 C1142 0.950 . S
H1133 C1144 0.950 . S
H1134 C1146 0.950 . S
H1135 C1147 0.950 . S
C1136 H1128 0.950 . S
C1136 C1137 1.386 . S
C1136 C1138 1.391 . S
C1137 C1136 1.386 . S
C1137 C1141 1.393 . S
C1138 H1130 0.950 . S
C1138 C1136 1.391 . S
C1138 C1139 1.400 . S
C1139 C1138 1.400 . S
C1139 C1140 1.398 . S
C1139 C1145 1.491 . S
C1140 H1131 0.950 . S
C1140 C1139 1.398 . S
C1140 C1141 1.391 . S
C1141 H1129 0.950 . S
C1141 C1137 1.393 . S
C1141 C1140 1.391 . S
C1142 H1132 0.950 . S
C1142 C1143 1.386 . S
C1142 C1144 1.391 . S
C1143 C1142 1.386 . S
C1143 C1147 1.393 . S
C1144 H1133 0.950 . S
C1144 C1142 1.391 . S
C1144 C1145 1.400 . S
C1145 C1139 1.491 . S
C1145 C1144 1.400 . S
C1145 C1146 1.398 . S
C1146 H1134 0.950 . S
C1146 C1145 1.398 . S
C1146 C1147 1.391 . S
C1147 H1135 0.950 . S
C1147 C1143 1.393 . S
C1147 C1146 1.391 . S
H1148 C1156 0.950 . S
H1149 C1161 0.950 . S
H1150 C1158 0.950 . S
H1151 C1160 0.950 . S
H1152 C1162 0.950 . S
H1153 C1164 0.950 . S
H1154 C1166 0.950 . S
H1155 C1167 0.950 . S
C1156 H1148 0.950 . S
C1156 C1157 1.386 . S
C1156 C1158 1.391 . S
C1157 C1156 1.386 . S
C1157 C1161 1.393 . S
C1158 H1150 0.950 . S
C1158 C1156 1.391 . S
C1158 C1159 1.400 . S
C1159 C1158 1.400 . S
C1159 C1160 1.398 . S
C1159 C1165 1.491 . S
C1160 H1151 0.950 . S
C1160 C1159 1.398 . S
C1160 C1161 1.391 . S
C1161 H1149 0.950 . S
C1161 C1157 1.393 . S
C1161 C1160 1.391 . S
C1162 H1152 0.950 . S
C1162 C1163 1.386 . S
C1162 C1164 1.391 . S
C1163 C1162 1.386 . S
C1163 C1167 1.393 . S
C1164 H1153 0.950 . S
C1164 C1162 1.391 . S
C1164 C1165 1.400 . S
C1165 C1159 1.491 . S
C1165 C1164 1.400 . S
C1165 C1166 1.398 . S
C1166 H1154 0.950 . S
C1166 C1165 1.398 . S
C1166 C1167 1.391 . S
C1167 H1155 0.950 . S
C1167 C1163 1.393 . S
C1167 C1166 1.391 . S
H1168 C1176 0.950 . S
H1169 C1181 0.950 . S
H1170 C1178 0.950 . S
H1171 C1180 0.950 . S
H1172 C1182 0.950 . S
H1173 C1184 0.950 . S
H1174 C1186 0.950 . S
H1175 C1187 0.950 . S
C1176 H1168 0.950 . S
C1176 C1177 1.386 . S
C1176 C1178 1.391 . S
C1177 C1176 1.386 . S
C1177 C1181 1.393 1_565 S
C1178 H1170 0.950 . S
C1178 C1176 1.391 . S
C1178 C1179 1.400 . S
C1179 C1178 1.400 . S
C1179 C1180 1.398 1_565 S
C1179 C1185 1.491 . S
C1180 H1171 0.950 . S
C1180 C1179 1.398 1_545 S
C1180 C1181 1.391 . S
C1181 H1169 0.950 . S
C1181 C1177 1.393 1_545 S
C1181 C1180 1.391 . S
C1182 H1172 0.950 . S
C1182 C1183 1.386 1_545 S
C1182 C1184 1.391 . S
C1183 C1182 1.386 1_565 S
C1183 C1187 1.393 . S
C1184 H1173 0.950 . S
C1184 C1182 1.391 . S
C1184 C1185 1.400 1_545 S
C1185 C1179 1.491 . S
C1185 C1184 1.400 1_565 S
C1185 C1186 1.398 . S
C1186 H1174 0.950 . S
C1186 C1185 1.398 . S
C1186 C1187 1.391 . S
C1187 H1175 0.950 . S
C1187 C1183 1.393 . S
C1187 C1186 1.391 . S
H1188 C1196 0.950 . S
H1189 C1201 0.950 1_554 S
H1190 C1198 0.950 . S
H1191 C1200 0.950 1_554 S
H1192 C1202 0.950 1_554 S
H1193 C1204 0.950 1_554 S
H1194 C1206 0.950 . S
H1195 C1207 0.950 . S
C1196 H1188 0.950 . S
C1196 C1197 1.386 . S
C1196 C1198 1.391 . S
C1197 C1196 1.386 . S
C1197 C1201 1.393 . S
C1198 H1190 0.950 . S
C1198 C1196 1.391 . S
C1198 C1199 1.400 . S
C1199 C1198 1.400 . S
C1199 C1200 1.398 . S
C1199 C1205 1.491 . S
C1200 H1191 0.950 1_556 S
C1200 C1199 1.398 . S
C1200 C1201 1.391 . S
C1201 H1189 0.950 1_556 S
C1201 C1197 1.393 . S
C1201 C1200 1.391 . S
C1202 H1192 0.950 1_556 S
C1202 C1203 1.386 . S
C1202 C1204 1.391 . S
C1203 C1202 1.386 . S
C1203 C1207 1.393 . S
C1204 H1193 0.950 1_556 S
C1204 C1202 1.391 . S
C1204 C1205 1.400 . S
C1205 C1199 1.491 . S
C1205 C1204 1.400 . S
C1205 C1206 1.398 . S
C1206 H1194 0.950 . S
C1206 C1205 1.398 . S
C1206 C1207 1.391 . S
C1207 H1195 0.950 . S
C1207 C1203 1.393 . S
C1207 C1206 1.391 . S
H1208 C1216 0.950 . S
H1209 C1221 0.950 . S
H1210 C1218 0.950 . S
H1211 C1220 0.950 . S
H1212 C1222 0.950 . S
H1213 C1224 0.950 . S
H1214 C1226 0.950 . S
H1215 C1227 0.950 . S
C1216 H1208 0.950 . S
C1216 C1217 1.386 . S
C1216 C1218 1.391 . S
C1217 C1216 1.386 . S
C1217 C1221 1.393 . S
C1218 H1210 0.950 . S
C1218 C1216 1.391 . S
C1218 C1219 1.400 . S
C1219 C1218 1.400 . S
C1219 C1220 1.398 . S
C1219 C1225 1.491 . S
C1220 H1211 0.950 . S
C1220 C1219 1.398 . S
C1220 C1221 1.391 . S
C1221 H1209 0.950 . S
C1221 C1217 1.393 . S
C1221 C1220 1.391 . S
C1222 H1212 0.950 . S
C1222 C1223 1.386 . S
C1222 C1224 1.391 . S
C1223 C1222 1.386 . S
C1223 C1227 1.393 . S
C1224 H1213 0.950 . S
C1224 C1222 1.391 . S
C1224 C1225 1.400 . S
C1225 C1219 1.491 . S
C1225 C1224 1.400 . S
C1225 C1226 1.398 . S
C1226 H1214 0.950 . S
C1226 C1225 1.398 . S
C1226 C1227 1.391 . S
C1227 H1215 0.950 . S
C1227 C1223 1.393 . S
C1227 C1226 1.391 . S
H1228 C1236 0.950 . S
H1229 C1241 0.950 1_554 S
H1230 C1238 0.950 . S
H1231 C1240 0.950 1_554 S
H1232 C1242 0.950 1_554 S
H1233 C1244 0.950 1_554 S
H1234 C1246 0.950 . S
H1235 C1247 0.950 . S
C1236 H1228 0.950 . S
C1236 C1237 1.386 . S
C1236 C1238 1.391 . S
C1237 C1236 1.386 . S
C1237 C1241 1.393 1_655 S
C1238 H1230 0.950 . S
C1238 C1236 1.391 . S
C1238 C1239 1.400 . S
C1239 C1238 1.400 . S
C1239 C1240 1.398 1_655 S
C1239 C1245 1.491 . S
C1240 H1231 0.950 1_556 S
C1240 C1239 1.398 1_455 S
C1240 C1241 1.391 . S
C1241 H1229 0.950 1_556 S
C1241 C1237 1.393 1_455 S
C1241 C1240 1.391 . S
C1242 H1232 0.950 1_556 S
C1242 C1243 1.386 1_455 S
C1242 C1244 1.391 . S
C1243 C1242 1.386 1_655 S
C1243 C1247 1.393 . S
C1244 H1233 0.950 1_556 S
C1244 C1242 1.391 . S
C1244 C1245 1.400 1_455 S
C1245 C1239 1.491 . S
C1245 C1244 1.400 1_655 S
C1245 C1246 1.398 . S
C1246 H1234 0.950 . S
C1246 C1245 1.398 . S
C1246 C1247 1.391 . S
C1247 H1235 0.950 . S
C1247 C1243 1.393 . S
C1247 C1246 1.391 . S
H1248 C1256 0.950 . S
H1249 C1261 0.950 . S
H1250 C1258 0.950 . S
H1251 C1260 0.950 . S
H1252 C1262 0.950 . S
H1253 C1264 0.950 . S
H1254 C1266 0.950 . S
H1255 C1267 0.950 . S
C1256 H1248 0.950 . S
C1256 C1257 1.386 . S
C1256 C1258 1.391 . S
C1257 C1256 1.386 . S
C1257 C1261 1.393 1_545 S
C1258 H1250 0.950 . S
C1258 C1256 1.391 . S
C1258 C1259 1.400 . S
C1259 C1258 1.400 . S
C1259 C1260 1.398 1_545 S
C1259 C1265 1.491 . S
C1260 H1251 0.950 . S
C1260 C1259 1.398 1_565 S
C1260 C1261 1.391 . S
C1261 H1249 0.950 . S
C1261 C1257 1.393 1_565 S
C1261 C1260 1.391 . S
C1262 H1252 0.950 . S
C1262 C1263 1.386 1_565 S
C1262 C1264 1.391 . S
C1263 C1262 1.386 1_545 S
C1263 C1267 1.393 . S
C1264 H1253 0.950 . S
C1264 C1262 1.391 . S
C1264 C1265 1.400 1_565 S
C1265 C1259 1.491 . S
C1265 C1264 1.400 1_545 S
C1265 C1266 1.398 . S
C1266 H1254 0.950 . S
C1266 C1265 1.398 . S
C1266 C1267 1.391 . S
C1267 H1255 0.950 . S
C1267 C1263 1.393 . S
C1267 C1266 1.391 . S
H1268 C1276 0.950 1_556 S
H1269 C1281 0.950 . S
H1270 C1278 0.950 1_556 S
H1271 C1280 0.950 . S
H1272 C1282 0.950 . S
H1273 C1284 0.950 . S
H1274 C1286 0.950 1_556 S
H1275 C1287 0.950 1_556 S
C1276 H1268 0.950 1_554 S
C1276 C1277 1.386 . S
C1276 C1278 1.391 . S
C1277 C1276 1.386 . S
C1277 C1281 1.393 . S
C1278 H1270 0.950 1_554 S
C1278 C1276 1.391 . S
C1278 C1279 1.400 . S
C1279 C1278 1.400 . S
C1279 C1280 1.398 . S
C1279 C1285 1.491 . S
C1280 H1271 0.950 . S
C1280 C1279 1.398 . S
C1280 C1281 1.391 . S
C1281 H1269 0.950 . S
C1281 C1277 1.393 . S
C1281 C1280 1.391 . S
C1282 H1272 0.950 . S
C1282 C1283 1.386 . S
C1282 C1284 1.391 . S
C1283 C1282 1.386 . S
C1283 C1287 1.393 . S
C1284 H1273 0.950 . S
C1284 C1282 1.391 . S
C1284 C1285 1.400 . S
C1285 C1279 1.491 . S
C1285 C1284 1.400 . S
C1285 C1286 1.398 . S
C1286 H1274 0.950 1_554 S
C1286 C1285 1.398 . S
C1286 C1287 1.391 . S
C1287 H1275 0.950 1_554 S
C1287 C1283 1.393 . S
C1287 C1286 1.391 . S
H1288 C1296 0.950 . S
H1289 C1301 0.950 . S
H1290 C1298 0.950 . S
H1291 C1300 0.950 . S
H1292 C1302 0.950 . S
H1293 C1304 0.950 . S
H1294 C1306 0.950 . S
H1295 C1307 0.950 . S
C1296 H1288 0.950 . S
C1296 C1297 1.386 . S
C1296 C1298 1.391 . S
C1297 C1296 1.386 . S
C1297 C1301 1.393 . S
C1298 H1290 0.950 . S
C1298 C1296 1.391 . S
C1298 C1299 1.400 . S
C1299 C1298 1.400 . S
C1299 C1300 1.398 . S
C1299 C1305 1.491 . S
C1300 H1291 0.950 . S
C1300 C1299 1.398 . S
C1300 C1301 1.391 . S
C1301 H1289 0.950 . S
C1301 C1297 1.393 . S
C1301 C1300 1.391 . S
C1302 H1292 0.950 . S
C1302 C1303 1.386 . S
C1302 C1304 1.391 . S
C1303 C1302 1.386 . S
C1303 C1307 1.393 . S
C1304 H1293 0.950 . S
C1304 C1302 1.391 . S
C1304 C1305 1.400 . S
C1305 C1299 1.491 . S
C1305 C1304 1.400 . S
C1305 C1306 1.398 . S
C1306 H1294 0.950 . S
C1306 C1305 1.398 . S
C1306 C1307 1.391 . S
C1307 H1295 0.950 . S
C1307 C1303 1.393 . S
C1307 C1306 1.391 . S
H1308 C1316 0.950 . S
H1309 C1321 0.950 . S
H1310 C1318 0.950 . S
H1311 C1320 0.950 . S
H1312 C1322 0.950 . S
H1313 C1324 0.950 . S
H1314 C1326 0.950 . S
H1315 C1327 0.950 . S
C1316 H1308 0.950 . S
C1316 C1317 1.386 . S
C1316 C1318 1.391 . S
C1317 C1316 1.386 . S
C1317 C1321 1.393 1_455 S
C1318 H1310 0.950 . S
C1318 C1316 1.391 . S
C1318 C1319 1.400 . S
C1319 C1318 1.400 . S
C1319 C1320 1.398 1_455 S
C1319 C1325 1.491 . S
C1320 H1311 0.950 . S
C1320 C1319 1.398 1_655 S
C1320 C1321 1.391 . S
C1321 H1309 0.950 . S
C1321 C1317 1.393 1_655 S
C1321 C1320 1.391 . S
C1322 H1312 0.950 . S
C1322 C1323 1.386 1_655 S
C1322 C1324 1.391 . S
C1323 C1322 1.386 1_455 S
C1323 C1327 1.393 . S
C1324 H1313 0.950 . S
C1324 C1322 1.391 . S
C1324 C1325 1.400 1_655 S
C1325 C1319 1.491 . S
C1325 C1324 1.400 1_455 S
C1325 C1326 1.398 . S
C1326 H1314 0.950 . S
C1326 C1325 1.398 . S
C1326 C1327 1.391 . S
C1327 H1315 0.950 . S
C1327 C1323 1.393 . S
C1327 C1326 1.391 . S
C537 C282 0.890 . S
C543 C18 0.890 . S
C557 C51 0.865 1_554 S
C563 C315 0.865 1_556 S
C577 C348 0.873 . S
C583 C84 0.873 . S
C597 C381 0.847 1_556 S
C603 C117 0.847 1_554 S
C617 C150 0.858 . S
C623 C414 0.858 . S
C637 C183 0.897 1_556 S
C643 C447 0.897 1_554 S
C657 C216 0.902 . S
C663 C480 0.902 . S
C677 C249 0.854 1_556 S
C683 C513 0.854 1_554 S
C697 C7 1.740 . S
C703 N508 1.802 . S
C717 C40 1.722 . S
C723 N409 1.806 . S
C737 C73 1.738 . S
C743 N442 1.799 . S
C757 N475 1.803 . S
C763 C106 1.739 . S
C777 C139 1.740 . S
C783 N310 1.801 . S
C797 C172 1.736 . S
C803 N343 1.799 . S
C817 N376 1.806 . S
C823 C205 1.720 . S
C837 C238 1.726 . S
C843 N277 1.807 . S
C857 N244 1.799 . S
C863 C271 1.724 . S
C877 N145 1.807 . S
C883 C304 1.724 . S
C897 N178 1.805 . S
C903 C337 1.717 . S
C917 C370 1.717 . S
C923 N211 1.801 . S
C937 N46 1.803 . S
C943 C403 1.716 . S
C957 C436 1.717 . S
C963 N79 1.805 . S
C977 N112 1.803 . S
C983 C469 1.715 . S
C997 N13 1.802 . S
C1003 C502 1.740 . S
C1017 N233 0.592 . S
C1023 N2 0.627 . S
C1037 N134 0.632 . S
C1043 N35 0.604 . S
C1057 N68 0.631 . S
C1063 N167 0.629 . S
C1077 N200 0.538 . S
C1083 N101 0.546 . S
C1097 N497 0.579 . S
C1103 N266 0.543 . S
C1117 N299 0.553 . S
C1123 N398 0.593 . S
C1137 N332 0.634 . S
C1143 N431 0.611 . S
C1157 N365 0.617 . S
C1163 N464 0.634 . S
C1177 C21 1.044 1_565 S
C1183 C417 1.057 1_565 S
C1197 C54 1.049 . S
C1203 C450 1.067 . S
C1217 C87 1.049 . S
C1223 C483 1.067 . S
C1237 C120 1.044 1_655 S
C1243 C516 1.058 1_655 S
C1257 C153 1.044 1_545 S
C1263 C285 1.058 1_545 S
C1277 C186 1.065 . S
C1283 C318 1.051 . S
C1297 C219 1.053 . S
C1303 C351 1.064 . S
C1317 C384 1.057 1_455 S
C1323 C252 1.045 1_455 S
