# Generated by pormake.
# Topology yfb, (5)-cn, num edge types: 1
# Building blocks:
#     Node 0, Type 0, BuildingBlock: BEQFEK_clean_sbu_0, # of connection points: 5
#     Node 1, Type 0, BuildingBlock: BEQFEK_clean_sbu_0, # of connection points: 5
#     Node 2, Type 0, BuildingBlock: BEQFEK_clean_sbu_0, # of connection points: 5
#     Node 3, Type 0, BuildingBlock: BEQFEK_clean_sbu_0, # of connection points: 5
#     Node 4, Type 0, BuildingBlock: BEQFEK_clean_sbu_0, # of connection points: 5
#     Node 5, Type 0, BuildingBlock: BEQFEK_clean_sbu_0, # of connection points: 5
#     Node 6, Type 0, BuildingBlock: BEQFEK_clean_sbu_0, # of connection points: 5
#     Node 7, Type 0, BuildingBlock: BEQFEK_clean_sbu_0, # of connection points: 5
#     Node 8, Type 0, BuildingBlock: BEQFEK_clean_sbu_0, # of connection points: 5
#     Node 9, Type 0, BuildingBlock: BEQFEK_clean_sbu_0, # of connection points: 5
#     Node 10, Type 0, BuildingBlock: BEQFEK_clean_sbu_0, # of connection points: 5
#     Node 11, Type 0, BuildingBlock: BEQFEK_clean_sbu_0, # of connection points: 5
#     Node 12, Type 0, BuildingBlock: BEQFEK_clean_sbu_0, # of connection points: 5
#     Node 13, Type 0, BuildingBlock: BEQFEK_clean_sbu_0, # of connection points: 5
#     Node 14, Type 0, BuildingBlock: BEQFEK_clean_sbu_0, # of connection points: 5
#     Node 15, Type 0, BuildingBlock: BEQFEK_clean_sbu_0, # of connection points: 5
#     Edge 16, Type (0, 0), BuildingBlock: XIVTED_clean_linker_0, # of connection points: 2
#     Edge 17, Type (0, 0), BuildingBlock: XIVTED_clean_linker_0, # of connection points: 2
#     Edge 18, Type (0, 0), BuildingBlock: XIVTED_clean_linker_0, # of connection points: 2
#     Edge 19, Type (0, 0), BuildingBlock: XIVTED_clean_linker_0, # of connection points: 2
#     Edge 20, Type (0, 0), BuildingBlock: XIVTED_clean_linker_0, # of connection points: 2
#     Edge 21, Type (0, 0), BuildingBlock: XIVTED_clean_linker_0, # of connection points: 2
#     Edge 22, Type (0, 0), BuildingBlock: XIVTED_clean_linker_0, # of connection points: 2
#     Edge 23, Type (0, 0), BuildingBlock: XIVTED_clean_linker_0, # of connection points: 2
#     Edge 24, Type (0, 0), BuildingBlock: XIVTED_clean_linker_0, # of connection points: 2
#     Edge 25, Type (0, 0), BuildingBlock: XIVTED_clean_linker_0, # of connection points: 2
#     Edge 26, Type (0, 0), BuildingBlock: XIVTED_clean_linker_0, # of connection points: 2
#     Edge 27, Type (0, 0), BuildingBlock: XIVTED_clean_linker_0, # of connection points: 2
#     Edge 28, Type (0, 0), BuildingBlock: XIVTED_clean_linker_0, # of connection points: 2
#     Edge 29, Type (0, 0), BuildingBlock: XIVTED_clean_linker_0, # of connection points: 2
#     Edge 30, Type (0, 0), BuildingBlock: XIVTED_clean_linker_0, # of connection points: 2
#     Edge 31, Type (0, 0), BuildingBlock: XIVTED_clean_linker_0, # of connection points: 2
#     Edge 32, Type (0, 0), BuildingBlock: XIVTED_clean_linker_0, # of connection points: 2
#     Edge 33, Type (0, 0), BuildingBlock: XIVTED_clean_linker_0, # of connection points: 2
#     Edge 34, Type (0, 0), BuildingBlock: XIVTED_clean_linker_0, # of connection points: 2
#     Edge 35, Type (0, 0), BuildingBlock: XIVTED_clean_linker_0, # of connection points: 2
#     Edge 36, Type (0, 0), BuildingBlock: XIVTED_clean_linker_0, # of connection points: 2
#     Edge 37, Type (0, 0), BuildingBlock: XIVTED_clean_linker_0, # of connection points: 2
#     Edge 38, Type (0, 0), BuildingBlock: XIVTED_clean_linker_0, # of connection points: 2
#     Edge 39, Type (0, 0), BuildingBlock: XIVTED_clean_linker_0, # of connection points: 2
#     Edge 40, Type (0, 0), BuildingBlock: XIVTED_clean_linker_0, # of connection points: 2
#     Edge 41, Type (0, 0), BuildingBlock: XIVTED_clean_linker_0, # of connection points: 2
#     Edge 42, Type (0, 0), BuildingBlock: XIVTED_clean_linker_0, # of connection points: 2
#     Edge 43, Type (0, 0), BuildingBlock: XIVTED_clean_linker_0, # of connection points: 2
#     Edge 44, Type (0, 0), BuildingBlock: XIVTED_clean_linker_0, # of connection points: 2
#     Edge 45, Type (0, 0), BuildingBlock: XIVTED_clean_linker_0, # of connection points: 2
#     Edge 46, Type (0, 0), BuildingBlock: XIVTED_clean_linker_0, # of connection points: 2
#     Edge 47, Type (0, 0), BuildingBlock: XIVTED_clean_linker_0, # of connection points: 2
#     Edge 48, Type (0, 0), BuildingBlock: XIVTED_clean_linker_0, # of connection points: 2
#     Edge 49, Type (0, 0), BuildingBlock: XIVTED_clean_linker_0, # of connection points: 2
#     Edge 50, Type (0, 0), BuildingBlock: XIVTED_clean_linker_0, # of connection points: 2
#     Edge 51, Type (0, 0), BuildingBlock: XIVTED_clean_linker_0, # of connection points: 2
#     Edge 52, Type (0, 0), BuildingBlock: XIVTED_clean_linker_0, # of connection points: 2
#     Edge 53, Type (0, 0), BuildingBlock: XIVTED_clean_linker_0, # of connection points: 2
#     Edge 54, Type (0, 0), BuildingBlock: XIVTED_clean_linker_0, # of connection points: 2
#     Edge 55, Type (0, 0), BuildingBlock: XIVTED_clean_linker_0, # of connection points: 2
# Relax obj value: 0.639
# Max RMSD: 0.201
# Mean RMSD: 0.201
data_MOF--net-yfb--node1-BEQFEK_clean_sbu_0--edge1-XIVTED_clean_linker_0
_symmetry_space_group_name_H-M    P1
_symmetry_Int_Tables_number       1
_symmetry_cell_setting            triclinic
loop_
_symmetry_equiv_pos_as_xyz
'x, y, z'
_cell_length_a     46.695802
_cell_length_b     46.693995
_cell_length_c     44.26767
_cell_angle_alpha  89.973011
_cell_angle_beta   89.981422
_cell_angle_gamma 90.017047
loop_
_atom_site_label
_atom_site_type_symbol
_atom_site_fract_x
_atom_site_fract_y
_atom_site_fract_z
_atom_type_partial_charge
Co0 Co 0.69471 0.11471 0.12136 0.0
Co1 Co 0.66492 0.06388 0.08765 0.0
C2 C 0.64421 0.12593 0.084 0.0
O3 O 0.66246 0.13524 0.10278 0.0
O4 O 0.64379 0.09963 0.07667 0.0
C5 C 0.70149 0.16235 0.16063 0.0
O6 O 0.67336 0.16218 0.16015 0.0
C7 C 0.61151 0.03621 0.07161 0.0
C8 C 0.6248 0.99931 0.04395 0.0
C9 C 0.60087 0.01475 0.05296 0.0
N10 N 0.64022 0.03405 0.07287 0.0
N11 N 0.64804 0.01167 0.05658 0.0
C12 C 0.59475 0.05839 0.08845 0.0
H13 H 0.60661 0.06516 0.10898 0.0
H14 H 0.57338 0.04994 0.09491 0.0
H15 H 0.59166 0.07746 0.07388 0.0
C16 C 0.69244 0.07501 0.17203 0.0
N17 N 0.68349 0.08264 0.14431 0.0
N18 N 0.67324 0.06006 0.13018 0.0
C19 C 0.6764 0.037 0.14841 0.0
C20 C 0.68853 0.0458 0.1757 0.0
C21 C 0.70936 0.09424 0.19242 0.0
H22 H 0.72981 0.10007 0.18123 0.0
H23 H 0.69704 0.1141 0.19668 0.0
H24 H 0.71419 0.08394 0.21442 0.0
O25 O 0.72174 0.10191 0.08927 0.0
O26 O 0.70159 0.06548 0.06459 0.0
H27 H 0.68674 0.00223 0.11909 0.0
H28 H 0.67584 0.99138 0.15675 0.0
C29 C 0.67198 0.00685 0.13814 0.0
H30 H 0.64978 0.00438 0.12958 0.0
H31 H 0.66929 0.00573 0.05277 0.0
O32 O 0.71514 0.14315 0.14628 0.0
C33 C 0.72239 0.08283 0.06864 0.0
Co34 Co 0.38819 0.69386 0.1225 0.0
Co35 Co 0.43906 0.66373 0.08922 0.0
C36 C 0.37714 0.64287 0.08564 0.0
O37 O 0.36783 0.66138 0.10412 0.0
O38 O 0.40346 0.6423 0.07837 0.0
C39 C 0.34084 0.70004 0.16213 0.0
O40 O 0.34191 0.67193 0.16222 0.0
C41 C 0.46728 0.61059 0.07323 0.0
C42 C 0.50449 0.62436 0.04624 0.0
C43 C 0.48913 0.60024 0.05491 0.0
N44 N 0.46916 0.63932 0.07463 0.0
N45 N 0.49172 0.64742 0.05875 0.0
C46 C 0.44503 0.59354 0.08967 0.0
H47 H 0.43791 0.60522 0.11018 0.0
H48 H 0.45357 0.57221 0.09611 0.0
H49 H 0.42618 0.59036 0.07481 0.0
C50 C 0.42792 0.69218 0.17322 0.0
N51 N 0.42027 0.68295 0.14561 0.0
N52 N 0.44281 0.6724 0.13164 0.0
C53 C 0.46586 0.67559 0.14986 0.0
C54 C 0.4571 0.68808 0.17699 0.0
C55 C 0.4088 0.70952 0.19333 0.0
H56 H 0.40267 0.72959 0.18157 0.0
H57 H 0.3891 0.69716 0.19824 0.0
H58 H 0.4193 0.71505 0.21503 0.0
O59 O 0.40088 0.72074 0.09018 0.0
O60 O 0.43731 0.70018 0.06585 0.0
H61 H 0.50074 0.68536 0.12044 0.0
H62 H 0.51146 0.67488 0.15825 0.0
C63 C 0.496 0.67087 0.13969 0.0
H64 H 0.49833 0.64855 0.13145 0.0
H65 H 0.49753 0.66874 0.05515 0.0
O66 O 0.35949 0.71404 0.1473 0.0
C67 C 0.42 0.72107 0.06955 0.0
Co68 Co 0.81201 0.38797 0.12236 0.0
Co69 Co 0.84077 0.43936 0.08865 0.0
C70 C 0.86283 0.3779 0.08457 0.0
O71 O 0.84462 0.36846 0.10335 0.0
O72 O 0.86306 0.40422 0.07715 0.0
C73 C 0.80684 0.33974 0.16128 0.0
O74 O 0.83495 0.34031 0.16021 0.0
C75 C 0.89248 0.47173 0.07475 0.0
C76 C 0.87728 0.50223 0.04025 0.0
C77 C 0.90204 0.49156 0.05348 0.0
N78 N 0.86367 0.47048 0.07363 0.0
N79 N 0.8547 0.48927 0.05342 0.0
C80 C 0.91036 0.45147 0.09295 0.0
H81 H 0.89672 0.43642 0.10592 0.0
H82 H 0.92343 0.4637 0.10938 0.0
H83 H 0.92509 0.43945 0.0779 0.0
C84 C 0.81311 0.42768 0.17296 0.0
N85 N 0.82256 0.4202 0.14536 0.0
N86 N 0.83235 0.44298 0.13121 0.0
C87 C 0.82829 0.46602 0.14925 0.0
C88 C 0.81614 0.45702 0.1765 0.0
C89 C 0.79624 0.40811 0.19305 0.0
H90 H 0.77606 0.40197 0.18153 0.0
H91 H 0.80883 0.38845 0.19746 0.0
H92 H 0.79091 0.41826 0.21499 0.0
O93 O 0.78435 0.40008 0.09055 0.0
O94 O 0.80407 0.43675 0.06588 0.0
H95 H 0.81711 0.50013 0.11938 0.0
H96 H 0.82698 0.51171 0.1571 0.0
C97 C 0.83172 0.49624 0.13873 0.0
H98 H 0.85394 0.49947 0.13052 0.0
H99 H 0.83335 0.49164 0.04693 0.0
O100 O 0.79264 0.35888 0.1474 0.0
C101 C 0.78348 0.41916 0.0699 0.0
Co102 Co 0.11613 0.81089 0.12272 0.0
Co103 Co 0.06525 0.84068 0.08906 0.0
C104 C 0.12723 0.86149 0.08526 0.0
O105 O 0.13645 0.84316 0.10399 0.0
O106 O 0.10093 0.862 0.07789 0.0
C107 C 0.16364 0.80522 0.16216 0.0
O108 O 0.16253 0.83333 0.16186 0.0
C109 C 0.03713 0.89385 0.07241 0.0
C110 C 0.99978 0.87991 0.04579 0.0
C111 C 0.01523 0.90408 0.05407 0.0
N112 N 0.03518 0.86513 0.0742 0.0
N113 N 0.01254 0.85693 0.05852 0.0
C114 C 0.05946 0.911 0.08856 0.0
H115 H 0.06665 0.89949 0.10916 0.0
H116 H 0.05098 0.9324 0.09483 0.0
H117 H 0.07826 0.91402 0.07357 0.0
C118 C 0.07648 0.81281 0.17338 0.0
N119 N 0.08409 0.82204 0.14574 0.0
N120 N 0.06148 0.83226 0.13164 0.0
C121 C 0.0384 0.82874 0.1498 0.0
C122 C 0.04723 0.81646 0.17703 0.0
C123 C 0.09574 0.7957 0.19356 0.0
H124 H 0.10186 0.77553 0.18201 0.0
H125 H 0.11544 0.80816 0.19823 0.0
H126 H 0.08537 0.79034 0.21539 0.0
O127 O 0.10334 0.78365 0.09079 0.0
O128 O 0.06694 0.80392 0.06615 0.0
H129 H 0.00376 0.8179 0.12052 0.0
H130 H 0.99277 0.82897 0.15806 0.0
C131 C 0.00824 0.83284 0.13944 0.0
H132 H 0.0056 0.85496 0.13068 0.0
H133 H 0.00664 0.8356 0.05523 0.0
O134 O 0.14494 0.79102 0.14766 0.0
C135 C 0.08421 0.78305 0.07019 0.0
Co136 Co 0.69249 0.38852 0.3968 0.0
Co137 Co 0.663 0.43965 0.43026 0.0
C138 C 0.64211 0.3777 0.4346 0.0
O139 O 0.66028 0.36829 0.4158 0.0
O140 O 0.64174 0.40405 0.44175 0.0
C141 C 0.69801 0.34091 0.35748 0.0
O142 O 0.6699 0.34207 0.35781 0.0
C143 C 0.60984 0.46771 0.44687 0.0
C144 C 0.62373 0.50508 0.4735 0.0
C145 C 0.59958 0.48957 0.46525 0.0
N146 N 0.63855 0.46974 0.44504 0.0
N147 N 0.64672 0.49239 0.46072 0.0
C148 C 0.59271 0.44534 0.43076 0.0
H149 H 0.60421 0.43816 0.41015 0.0
H150 H 0.5713 0.45378 0.42451 0.0
H151 H 0.58974 0.42654 0.44577 0.0
C152 C 0.69061 0.42798 0.34594 0.0
N153 N 0.68134 0.42048 0.3736 0.0
N154 N 0.67127 0.4432 0.38764 0.0
C155 C 0.67496 0.46621 0.36944 0.0
C156 C 0.68716 0.45726 0.34221 0.0
C157 C 0.70777 0.4086 0.32592 0.0
H158 H 0.72785 0.40246 0.33763 0.0
H159 H 0.69527 0.38894 0.32124 0.0
H160 H 0.7133 0.41888 0.3041 0.0
O161 O 0.71987 0.40144 0.42858 0.0
O162 O 0.6998 0.43807 0.45303 0.0
H163 H 0.68631 0.50081 0.39854 0.0
H164 H 0.67502 0.51183 0.3611 0.0
C165 C 0.67117 0.49643 0.37978 0.0
H166 H 0.64916 0.49925 0.38874 0.0
H167 H 0.66804 0.49832 0.46399 0.0
O168 O 0.71226 0.3596 0.37195 0.0
C169 C 0.7206 0.4207 0.44904 0.0
Co170 Co 0.11546 0.69091 0.39668 0.0
Co171 Co 0.06372 0.66296 0.43058 0.0
C172 C 0.12507 0.64056 0.43521 0.0
O173 O 0.13476 0.65841 0.41619 0.0
O174 O 0.09871 0.64068 0.44249 0.0
C175 C 0.16404 0.69581 0.3581 0.0
O176 O 0.1637 0.66771 0.35959 0.0
C177 C 0.03128 0.61146 0.44522 0.0
C178 C 1.0005 0.62723 0.47912 0.0
C179 C 0.01131 0.60225 0.46651 0.0
N180 N 0.03248 0.64029 0.44575 0.0
N181 N 0.01352 0.6496 0.4656 0.0
C182 C 0.05169 0.59329 0.42753 0.0
H183 H 0.06665 0.60672 0.41421 0.0
H184 H 0.03959 0.57975 0.41143 0.0
H185 H 0.06379 0.57902 0.44299 0.0
C186 C 0.07592 0.68948 0.34596 0.0
N187 N 0.08324 0.68029 0.3737 0.0
N188 N 0.06032 0.6709 0.3879 0.0
C189 C 0.03737 0.67498 0.36974 0.0
C190 C 0.04656 0.68673 0.34238 0.0
C191 C 0.09571 0.7058 0.32562 0.0
H192 H 0.1018 0.72625 0.33664 0.0
H193 H 0.11539 0.69307 0.32176 0.0
H194 H 0.08575 0.7106 0.30345 0.0
O195 O 0.10334 0.71898 0.42808 0.0
O196 O 0.0664 0.69992 0.45288 0.0
H197 H 0.0033 0.68689 0.39933 0.0
H198 H 0.99172 0.67663 0.36173 0.0
C199 C 0.00709 0.67199 0.38022 0.0
H200 H 0.00362 0.64991 0.38876 0.0
H201 H 0.01106 0.67106 0.47163 0.0
O202 O 0.14468 0.71003 0.37157 0.0
C203 C 0.08419 0.7203 0.44861 0.0
Co204 Co 0.80924 0.11638 0.39717 0.0
Co205 Co 0.8397 0.06546 0.42997 0.0
C206 C 0.86037 0.12741 0.43386 0.0
O207 O 0.84175 0.13673 0.4155 0.0
O208 O 0.86107 0.10106 0.44098 0.0
C209 C 0.80299 0.16371 0.35754 0.0
O210 O 0.8311 0.16245 0.35714 0.0
C211 C 0.89301 0.03743 0.44554 0.0
C212 C 0.87959 1.00039 0.47299 0.0
C213 C 0.90357 0.01579 0.46401 0.0
N214 N 0.86429 0.03541 0.44435 0.0
N215 N 0.85638 0.01295 0.4605 0.0
C216 C 0.90984 0.05965 0.42881 0.0
H217 H 0.89798 0.06659 0.40834 0.0
H218 H 0.93117 0.05118 0.42227 0.0
H219 H 0.91302 0.07862 0.4435 0.0
C220 C 0.81068 0.07692 0.34621 0.0
N221 N 0.82008 0.08444 0.3738 0.0
N222 N 0.8309 0.0619 0.38753 0.0
C223 C 0.82783 0.03897 0.36913 0.0
C224 C 0.81514 0.0478 0.34212 0.0
C225 C 0.79254 0.09596 0.32678 0.0
H226 H 0.77312 0.10241 0.33951 0.0
H227 H 0.80483 0.11551 0.32099 0.0
H228 H 0.78578 0.08542 0.30554 0.0
O229 O 0.78252 0.10347 0.4295 0.0
O230 O 0.80332 0.06698 0.45351 0.0
H231 H 0.81851 0.00353 0.39795 0.0
H232 H 0.82962 0.9935 0.36014 0.0
C233 C 0.83311 0.00881 0.37896 0.0
H234 H 0.85538 0.00685 0.38745 0.0
H235 H 0.83512 0.0071 0.46434 0.0
O236 O 0.78902 0.14523 0.37262 0.0
C237 C 0.78235 0.08423 0.45001 0.0
Co238 Co 0.3888 0.80894 0.39764 0.0
Co239 Co 0.4396 0.83868 0.43144 0.0
C240 C 0.37753 0.85936 0.43507 0.0
O241 O 0.36824 0.84114 0.41625 0.0
O242 O 0.40383 0.85977 0.44243 0.0
C243 C 0.34106 0.80199 0.35846 0.0
O244 O 0.34103 0.83012 0.35901 0.0
C245 C 0.46726 0.89207 0.44754 0.0
C246 C 0.50413 0.87875 0.47524 0.0
C247 C 0.48871 0.90269 0.46621 0.0
N248 N 0.46941 0.86335 0.44628 0.0
N249 N 0.49178 0.85551 0.46259 0.0
C250 C 0.44511 0.90883 0.43067 0.0
H251 H 0.43836 0.89699 0.41013 0.0
H252 H 0.45356 0.93021 0.42423 0.0
H253 H 0.42602 0.91192 0.44523 0.0
C254 C 0.42855 0.81127 0.34703 0.0
N255 N 0.42087 0.82024 0.37473 0.0
N256 N 0.44345 0.83042 0.38893 0.0
C257 C 0.46656 0.82713 0.37079 0.0
C258 C 0.4578 0.81505 0.34347 0.0
C259 C 0.40934 0.79436 0.32663 0.0
H260 H 0.38941 0.80661 0.32248 0.0
H261 H 0.41961 0.78966 0.30459 0.0
H262 H 0.40363 0.77383 0.33775 0.0
O263 O 0.40161 0.78188 0.42972 0.0
O264 O 0.43802 0.80202 0.45446 0.0
H265 H 0.50112 0.81644 0.40025 0.0
H266 H 0.51222 0.82738 0.36269 0.0
C267 C 0.49669 0.8313 0.38123 0.0
H268 H 0.49929 0.85345 0.38989 0.0
H269 H 0.49769 0.83427 0.4664 0.0
O270 O 0.36041 0.78845 0.37271 0.0
C271 C 0.42068 0.78122 0.45037 0.0
Co272 Co 0.31004 0.88762 0.89616 0.0
Co273 Co 0.33993 0.93869 0.92931 0.0
C274 C 0.3605 0.87666 0.9337 0.0
O275 O 0.34224 0.86725 0.91501 0.0
O276 O 0.361 0.90302 0.94076 0.0
C277 C 0.30345 0.83957 0.85743 0.0
O278 O 0.33158 0.83991 0.85781 0.0
C279 C 0.39333 0.96643 0.94522 0.0
C280 C 0.38001 0.00348 0.97264 0.0
C281 C 0.40395 0.98796 0.96378 0.0
N282 N 0.36462 0.96862 0.94387 0.0
N283 N 0.35678 0.9911 0.96001 0.0
C284 C 0.41009 0.94413 0.92856 0.0
H285 H 0.39826 0.93726 0.90805 0.0
H286 H 0.43148 0.95251 0.92209 0.0
H287 H 0.41313 0.92514 0.94327 0.0
C288 C 0.31202 0.92691 0.84515 0.0
N289 N 0.32126 0.91947 0.87283 0.0
N290 N 0.33161 0.94214 0.88672 0.0
C291 C 0.32826 0.96508 0.86838 0.0
C292 C 0.31593 0.95613 0.84122 0.0
C293 C 0.29433 0.90761 0.82556 0.0
H294 H 0.2744 0.90172 0.83771 0.0
H295 H 0.30654 0.88778 0.82079 0.0
H296 H 0.28844 0.91773 0.80379 0.0
O297 O 0.28296 0.90078 0.92804 0.0
O298 O 0.30323 0.9374 0.95231 0.0
H299 H 0.31756 1.00021 0.89705 0.0
H300 H 0.32936 0.01062 0.85958 0.0
C301 C 0.33271 0.9953 0.87844 0.0
H302 H 0.35473 0.99768 0.88751 0.0
H303 H 0.33554 0.99706 0.96374 0.0
O304 O 0.28973 0.85883 0.87161 0.0
C305 C 0.28236 0.92009 0.94844 0.0
Co306 Co 0.61538 0.3104 0.8974 0.0
Co307 Co 0.56442 0.3399 0.93111 0.0
C308 C 0.62636 0.36075 0.93517 0.0
O309 O 0.6357 0.34261 0.91629 0.0
O310 O 0.60004 0.36115 0.94243 0.0
C311 C 0.66298 0.30465 0.85803 0.0
O312 O 0.6623 0.33277 0.85876 0.0
C313 C 0.53621 0.3929 0.94755 0.0
C314 C 0.49897 0.37898 0.9744 0.0
C315 C 0.51436 0.40314 0.96592 0.0
N316 N 0.53432 0.36419 0.94593 0.0
N317 N 0.51174 0.35598 0.96174 0.0
C318 C 0.55849 0.41004 0.93126 0.0
H319 H 0.56564 0.39848 0.91068 0.0
H320 H 0.54998 0.43141 0.92495 0.0
H321 H 0.57733 0.41311 0.94618 0.0
C322 C 0.5757 0.3125 0.84673 0.0
N323 N 0.58332 0.32157 0.87442 0.0
N324 N 0.5607 0.3317 0.88857 0.0
C325 C 0.53762 0.3283 0.87042 0.0
C326 C 0.54645 0.31618 0.84314 0.0
C327 C 0.59496 0.29555 0.82642 0.0
H328 H 0.60096 0.27523 0.83778 0.0
H329 H 0.61473 0.30797 0.82195 0.0
H330 H 0.58463 0.29047 0.80451 0.0
O331 O 0.60267 0.28311 0.92937 0.0
O332 O 0.56614 0.3032 0.95396 0.0
H333 H 0.50307 0.3175 0.89987 0.0
H334 H 0.49197 0.32833 0.86229 0.0
C335 C 0.50746 0.33235 0.88084 0.0
H336 H 0.50477 0.3545 0.88945 0.0
H337 H 0.50591 0.33465 0.96516 0.0
O338 O 0.64405 0.29052 0.87232 0.0
C339 C 0.58354 0.28244 0.94997 0.0
Co340 Co 0.19235 0.61407 0.89948 0.0
Co341 Co 0.16301 0.5628 0.93291 0.0
C342 C 0.14151 0.62444 0.93718 0.0
O343 O 0.15986 0.63381 0.9185 0.0
O344 O 0.14102 0.59809 0.94445 0.0
C345 C 0.198 0.66213 0.86046 0.0
O346 O 0.16988 0.66168 0.86137 0.0
C347 C 0.111 0.53083 0.94664 0.0
C348 C 0.12594 0.49997 0.9809 0.0
C349 C 0.10127 0.51093 0.96776 0.0
N350 N 0.13982 0.53182 0.94776 0.0
N351 N 0.14863 0.51282 0.96782 0.0
C352 C 0.09328 0.55135 0.9286 0.0
H353 H 0.10704 0.56629 0.91563 0.0
H354 H 0.08 0.53934 0.91219 0.0
H355 H 0.07876 0.56349 0.94377 0.0
C356 C 0.19081 0.57456 0.84867 0.0
N357 N 0.18159 0.582 0.87636 0.0
N358 N 0.17143 0.55928 0.89034 0.0
C359 C 0.1749 0.53632 0.87204 0.0
C360 C 0.18715 0.54534 0.84485 0.0
C361 C 0.2077 0.59402 0.82849 0.0
H362 H 0.22796 0.60007 0.8399 0.0
H363 H 0.19519 0.61376 0.82414 0.0
H364 H 0.21285 0.58383 0.80652 0.0
O365 O 0.21979 0.60163 0.93129 0.0
O366 O 0.1997 0.56506 0.9558 0.0
H367 H 0.18485 0.50168 0.90171 0.0
H368 H 0.17531 0.4907 0.8637 0.0
C369 C 0.17065 0.50609 0.88216 0.0
H370 H 0.14823 0.50328 0.88995 0.0
H371 H 0.16997 0.51022 0.97428 0.0
O372 O 0.21204 0.64301 0.87453 0.0
C373 C 0.22044 0.5825 0.95189 0.0
Co374 Co 0.8887 0.19454 0.89531 0.0
Co375 Co 0.93941 0.16456 0.92906 0.0
C376 C 0.87734 0.14388 0.93257 0.0
O377 O 0.8682 0.16228 0.91387 0.0
O378 O 0.90362 0.1433 0.94001 0.0
C379 C 0.84111 0.20085 0.85602 0.0
O380 O 0.84166 0.17273 0.85648 0.0
C381 C 0.96733 0.11127 0.94571 0.0
C382 C 0.00474 0.12508 0.97232 0.0
C383 C 0.98922 0.10095 0.96403 0.0
N384 N 0.96936 0.13999 0.94395 0.0
N385 N 0.99203 0.1481 0.95963 0.0
C386 C 0.94497 0.09418 0.92953 0.0
H387 H 0.93781 0.10573 0.90894 0.0
H388 H 0.9534 0.07278 0.92324 0.0
H389 H 0.92616 0.09119 0.94452 0.0
C390 C 0.92843 0.19248 0.84471 0.0
N391 N 0.92076 0.18335 0.87237 0.0
N392 N 0.94332 0.17303 0.8865 0.0
C393 C 0.96641 0.17636 0.86832 0.0
C394 C 0.95764 0.18865 0.84108 0.0
C395 C 0.90922 0.20952 0.82441 0.0
H396 H 0.9033 0.22985 0.83576 0.0
H397 H 0.8894 0.19717 0.81997 0.0
H398 H 0.91956 0.21457 0.80249 0.0
O399 O 0.90152 0.22164 0.92731 0.0
O400 O 0.93779 0.20129 0.95208 0.0
H401 H 1.00116 0.18681 0.89762 0.0
H402 H 0.01203 0.17581 0.86002 0.0
C403 C 0.99655 0.17198 0.87864 0.0
H404 H 0.99901 0.14981 0.8873 0.0
H405 H 0.998 0.16941 0.96292 0.0
O406 O 0.86015 0.21475 0.87035 0.0
C407 C 0.92058 0.2222 0.94797 0.0
Co408 Co 0.30853 0.61523 0.62329 0.0
Co409 Co 0.33909 0.56439 0.59039 0.0
C410 C 0.35962 0.62641 0.58655 0.0
O411 O 0.34096 0.63561 0.60492 0.0
O412 O 0.3604 0.60009 0.57934 0.0
C413 C 0.30245 0.66253 0.66288 0.0
O414 O 0.33055 0.66111 0.66327 0.0
C415 C 0.39249 0.53647 0.57415 0.0
C416 C 0.37882 0.49896 0.54762 0.0
C417 C 0.40288 0.51458 0.5559 0.0
N418 N 0.36377 0.53436 0.57587 0.0
N419 N 0.35574 0.51163 0.56025 0.0
C420 C 0.40949 0.55893 0.59027 0.0
H421 H 0.3979 0.56612 0.61082 0.0
H422 H 0.43092 0.55058 0.59661 0.0
H423 H 0.41244 0.57771 0.57523 0.0
C424 C 0.31005 0.57581 0.67424 0.0
N425 N 0.31948 0.58332 0.64664 0.0
N426 N 0.33029 0.56078 0.63292 0.0
C427 C 0.32714 0.53784 0.65134 0.0
C428 C 0.31443 0.54669 0.67835 0.0
C429 C 0.29191 0.59488 0.69364 0.0
H430 H 0.2725 0.60133 0.68089 0.0
H431 H 0.30421 0.61442 0.69941 0.0
H432 H 0.28511 0.58436 0.7149 0.0
O433 O 0.28174 0.60223 0.59111 0.0
O434 O 0.30255 0.56583 0.56699 0.0
H435 H 0.31748 0.50236 0.62274 0.0
H436 H 0.32901 0.49239 0.66042 0.0
C437 C 0.3323 0.50767 0.64152 0.0
H438 H 0.35447 0.50568 0.63275 0.0
H439 H 0.33445 0.50561 0.5569 0.0
O440 O 0.28837 0.64412 0.64784 0.0
C441 C 0.28152 0.58299 0.57062 0.0
Co442 Co 0.88874 0.31219 0.62004 0.0
Co443 Co 0.94031 0.34139 0.58702 0.0
C444 C 0.87879 0.36311 0.58235 0.0
O445 O 0.86925 0.34481 0.60097 0.0
O446 O 0.90518 0.3635 0.57522 0.0
C447 C 0.84043 0.30678 0.65881 0.0
O448 O 0.84104 0.3349 0.658 0.0
C449 C 0.97235 0.39331 0.57288 0.0
C450 C 0.00372 0.37787 0.5394 0.0
C451 C 0.99249 0.40273 0.55186 0.0
N452 N 0.97147 0.36446 0.57232 0.0
N453 N 0.99078 0.35536 0.55274 0.0
C454 C 0.95155 0.41127 0.59027 0.0
H455 H 0.93678 0.39769 0.60367 0.0
H456 H 0.96331 0.42522 0.60626 0.0
H457 H 0.93924 0.42514 0.57458 0.0
C458 C 0.92795 0.31332 0.6711 0.0
N459 N 0.92073 0.32274 0.64341 0.0
N460 N 0.94355 0.33291 0.62964 0.0
C461 C 0.96638 0.32927 0.64808 0.0
C462 C 0.95719 0.31694 0.67518 0.0
C463 C 0.90837 0.2958 0.69058 0.0
H464 H 0.90206 0.2761 0.67825 0.0
H465 H 0.88878 0.30833 0.69554 0.0
H466 H 0.91842 0.2895 0.71225 0.0
O467 O 0.90123 0.28472 0.58829 0.0
O468 O 0.93804 0.30471 0.56409 0.0
H469 H 1.00144 0.31881 0.61919 0.0
H470 H 0.0119 0.32958 0.65699 0.0
C471 C 0.99667 0.33356 0.6382 0.0
H472 H 0.99936 0.35576 0.6297 0.0
H473 H 0.99354 0.33393 0.54674 0.0
O474 O 0.8595 0.29268 0.64474 0.0
C475 C 0.92049 0.28403 0.56784 0.0
Co476 Co 0.19335 0.88754 0.62233 0.0
Co477 Co 0.16356 0.93825 0.58848 0.0
C478 C 0.14283 0.87629 0.58483 0.0
O479 O 0.16109 0.86714 0.60367 0.0
O480 O 0.14231 0.90256 0.57737 0.0
C481 C 0.19876 0.84041 0.66224 0.0
O482 O 0.17066 0.84181 0.66202 0.0
C483 C 0.11049 0.96629 0.5721 0.0
C484 C 0.12424 0.00315 0.54456 0.0
C485 C 0.10014 0.98785 0.55341 0.0
N486 N 0.13921 0.96825 0.57354 0.0
N487 N 0.14731 0.9906 0.55733 0.0
C488 C 0.09348 0.94419 0.5888 0.0
H489 H 0.10515 0.93733 0.60942 0.0
H490 H 0.07211 0.95274 0.59508 0.0
H491 H 0.09039 0.92515 0.57419 0.0
C492 C 0.19137 0.92746 0.6728 0.0
N493 N 0.18224 0.91968 0.64518 0.0
N494 N 0.17187 0.94218 0.63099 0.0
C495 C 0.17511 0.96533 0.64907 0.0
C496 C 0.18741 0.95667 0.67633 0.0
C497 C 0.20854 0.90838 0.69311 0.0
H498 H 0.22863 0.90208 0.6815 0.0
H499 H 0.19606 0.88876 0.69811 0.0
H500 H 0.21403 0.91897 0.71477 0.0
O501 O 0.22055 0.90013 0.59024 0.0
O502 O 0.20023 0.93649 0.56556 0.0
H503 H 0.18532 0.99997 0.61949 0.0
H504 H 0.1746 0.01099 0.65713 0.0
C505 C 0.17065 0.99543 0.63863 0.0
H506 H 0.14841 0.99785 0.63017 0.0
H507 H 0.16862 0.99638 0.55367 0.0
O508 O 0.21311 0.85884 0.64748 0.0
C509 C 0.22107 0.91919 0.56955 0.0
Co510 Co 0.61539 0.19413 0.6226 0.0
Co511 Co 0.56456 0.1639 0.58939 0.0
C512 C 0.62665 0.1434 0.58557 0.0
O513 O 0.63595 0.16185 0.60413 0.0
O514 O 0.60031 0.14278 0.57839 0.0
C515 C 0.66316 0.20112 0.6616 0.0
O516 O 0.66294 0.17299 0.66133 0.0
C517 C 0.53689 0.11042 0.57361 0.0
C518 C 0.49992 0.12364 0.54601 0.0
C519 C 0.51541 0.09974 0.55503 0.0
N520 N 0.5347 0.13914 0.57483 0.0
N521 N 0.51228 0.14692 0.55858 0.0
C522 C 0.55913 0.09372 0.59043 0.0
H523 H 0.56593 0.10561 0.61092 0.0
H524 H 0.55073 0.07235 0.59694 0.0
H525 H 0.57817 0.09064 0.57581 0.0
C526 C 0.57585 0.19215 0.67345 0.0
N527 N 0.58344 0.18295 0.6458 0.0
N528 N 0.56085 0.17251 0.63185 0.0
C529 C 0.53783 0.17581 0.65009 0.0
C530 C 0.54666 0.18821 0.67723 0.0
C531 C 0.59507 0.20937 0.69356 0.0
H532 H 0.60079 0.22972 0.6821 0.0
H533 H 0.615 0.19717 0.69791 0.0
H534 H 0.58481 0.21439 0.71553 0.0
O535 O 0.60242 0.22096 0.59035 0.0
O536 O 0.56598 0.2004 0.56607 0.0
H537 H 0.50299 0.18605 0.62082 0.0
H538 H 0.49222 0.17524 0.65852 0.0
C539 C 0.50766 0.17133 0.63989 0.0
H540 H 0.50519 0.14911 0.6314 0.0
H541 H 0.50633 0.16815 0.55473 0.0
O542 O 0.6439 0.21471 0.64727 0.0
C543 C 0.58324 0.22133 0.56981 0.0
H544 H 0.67097 0.03294 0.23268 0.0
H545 H 0.76667 0.01589 0.34903 0.0
H546 H 0.74216 0.02363 0.17181 0.0
H547 H 0.82803 0.0431 0.28239 0.0
H548 H 0.73368 0.00228 0.30842 0.0
H549 H 0.70238 0.02133 0.275 0.0
C550 C 0.69297 0.02696 0.22815 0.0
C551 C 0.70391 0.0287 0.19875 0.0
C552 C 0.75445 0.01088 0.30253 0.0
C553 C 0.74057 0.01617 0.24719 0.0
C554 C 0.77353 0.01804 0.32575 0.0
C555 C 0.80005 0.03056 0.31894 0.0
C556 C 0.76188 0.01672 0.2723 0.0
C557 C 0.8078 0.03334 0.28849 0.0
C558 C 0.7111 0.02044 0.25239 0.0
C559 C 0.73285 0.02193 0.19414 0.0
N560 N 0.78866 0.0269 0.26631 0.0
N561 N 0.7503 0.0166 0.21815 0.0
H562 H 0.4712 0.83185 0.28629 0.0
H563 H 0.46988 0.67112 0.23425 0.0
H564 H 0.47981 0.76141 0.3483 0.0
H565 H 0.47996 0.74138 0.17225 0.0
H566 H 0.48243 0.70308 0.27613 0.0
H567 H 0.48337 0.7997 0.24445 0.0
C568 C 0.47692 0.80985 0.29117 0.0
C569 C 0.47491 0.79929 0.32072 0.0
C570 C 0.48284 0.7114 0.2533 0.0
C571 C 0.48743 0.76195 0.27293 0.0
C572 C 0.47599 0.69303 0.22938 0.0
C573 C 0.47431 0.7036 0.19982 0.0
C574 C 0.48728 0.74075 0.24765 0.0
C575 C 0.48149 0.73237 0.19474 0.0
C576 C 0.48354 0.79136 0.26727 0.0
C577 C 0.4816 0.7704 0.32583 0.0
N578 N 0.4871 0.75008 0.21845 0.0
N579 N 0.48698 0.75261 0.30213 0.0
H580 H 0.73997 0.4809 0.34864 0.0
H581 H 0.76299 0.47981 0.1698 0.0
H582 H 0.67239 0.46863 0.28387 0.0
H583 H 0.83066 0.46905 0.23477 0.0
H584 H 0.72989 0.49172 0.21102 0.0
H585 H 0.77294 0.49262 0.30722 0.0
C586 C 0.7318 0.48197 0.32576 0.0
C587 C 0.7034 0.47415 0.31959 0.0
C588 C 0.75218 0.48764 0.21623 0.0
C589 C 0.74109 0.48659 0.27203 0.0
C590 C 0.77113 0.48124 0.19266 0.0
C591 C 0.79961 0.47381 0.19895 0.0
C592 C 0.76178 0.48649 0.24631 0.0
C593 C 0.80894 0.47508 0.22902 0.0
C594 C 0.75069 0.48826 0.30209 0.0
C595 C 0.69404 0.47497 0.28952 0.0
N596 N 0.79001 0.4809 0.25163 0.0
N597 N 0.71291 0.48067 0.26681 0.0
H598 H 0.03333 0.67098 0.28482 0.0
H599 H 0.03451 0.83264 0.23457 0.0
H600 H 0.02557 0.74077 0.34769 0.0
H601 H 0.02479 0.76299 0.17181 0.0
H602 H 0.02246 0.80009 0.27615 0.0
H603 H 0.02148 0.70376 0.24338 0.0
C604 C 0.02791 0.69299 0.28997 0.0
C605 C 0.03 0.70316 0.31966 0.0
C606 C 0.02203 0.79202 0.25323 0.0
C607 C 0.0178 0.74121 0.27232 0.0
C608 C 0.02857 0.81074 0.22948 0.0
C609 C 0.03021 0.80053 0.19977 0.0
C610 C 0.01781 0.7627 0.24727 0.0
C611 C 0.02327 0.77174 0.19441 0.0
C612 C 0.02146 0.71183 0.2663 0.0
C613 C 0.02369 0.73207 0.32511 0.0
N614 N 0.01794 0.75371 0.21795 0.0
N615 N 0.01843 0.7502 0.30163 0.0
H616 H 0.26698 0.98713 0.84876 0.0
H617 H 0.17033 0.96929 0.7335 0.0
H618 H 0.32817 0.9614 0.78134 0.0
H619 H 0.24078 0.97945 0.67182 0.0
H620 H 0.20203 0.98123 0.77545 0.0
H621 H 0.23338 1.00037 0.80859 0.0
C622 C 0.27365 0.98522 0.82541 0.0
C623 C 0.30031 0.9732 0.81826 0.0
C624 C 0.21052 0.98224 0.75275 0.0
C625 C 0.26146 0.9866 0.77209 0.0
C626 C 0.19222 0.97552 0.72872 0.0
C627 C 0.20287 0.97392 0.69919 0.0
C628 C 0.23988 0.98687 0.74721 0.0
C629 C 0.23168 0.98103 0.69425 0.0
C630 C 0.25423 0.99216 0.80242 0.0
C631 C 0.30783 0.97075 0.7877 0.0
N632 N 0.24931 0.98656 0.71806 0.0
N633 N 0.28836 0.97695 0.76577 0.0
H634 H 0.53332 0.33269 0.7858 0.0
H635 H 0.53369 0.17163 0.7346 0.0
H636 H 0.52429 0.2626 0.84819 0.0
H637 H 0.52424 0.24167 0.67223 0.0
H638 H 0.52137 0.20388 0.77631 0.0
H639 H 0.52111 0.30037 0.74412 0.0
C640 C 0.52751 0.31073 0.7908 0.0
C641 C 0.52939 0.30032 0.82041 0.0
C642 C 0.52105 0.2121 0.75344 0.0
C643 C 0.51682 0.26277 0.7728 0.0
C644 C 0.52776 0.19356 0.72961 0.0
C645 C 0.52956 0.20397 0.69999 0.0
C646 C 0.51686 0.24145 0.74763 0.0
C647 C 0.52262 0.23278 0.69476 0.0
C648 C 0.52086 0.29215 0.76699 0.0
C649 C 0.52259 0.27148 0.82566 0.0
N650 N 0.51714 0.25065 0.71838 0.0
N651 N 0.51718 0.25358 0.80205 0.0
H652 H 0.26575 0.51508 0.67153 0.0
H653 H 0.16984 0.53256 0.78779 0.0
H654 H 0.32728 0.54191 0.7381 0.0
H655 H 0.24097 0.52355 0.84874 0.0
H656 H 0.20134 0.52094 0.74552 0.0
H657 H 0.23259 0.5019 0.71216 0.0
C658 C 0.27261 0.51723 0.6948 0.0
C659 C 0.29924 0.52952 0.70156 0.0
C660 C 0.21003 0.52014 0.76814 0.0
C661 C 0.26086 0.5162 0.74825 0.0
C662 C 0.19186 0.52666 0.79234 0.0
C663 C 0.20273 0.52845 0.82176 0.0
C664 C 0.2395 0.51588 0.77337 0.0
C665 C 0.23169 0.5218 0.8264 0.0
C666 C 0.25343 0.51033 0.71804 0.0
C667 C 0.30697 0.53231 0.73202 0.0
N668 N 0.24918 0.51643 0.80243 0.0
N669 N 0.28773 0.52614 0.75421 0.0
H670 H 0.97045 0.17142 0.78399 0.0
H671 H 0.98804 0.26781 0.66807 0.0
H672 H 0.97985 0.2423 0.8452 0.0
H673 H 0.96198 0.32924 0.73507 0.0
H674 H 1.00101 0.23433 0.70846 0.0
H675 H 0.98213 0.20302 0.74182 0.0
C676 C 0.97646 0.1934 0.78862 0.0
C677 C 0.97475 0.20417 0.81809 0.0
C678 C 0.99278 0.2552 0.7145 0.0
C679 C 0.98738 0.24108 0.76981 0.0
C680 C 0.98599 0.27455 0.69138 0.0
C681 C 0.97398 0.30127 0.69834 0.0
C682 C 0.98709 0.26254 0.74478 0.0
C683 C 0.97133 0.30886 0.72885 0.0
C684 C 0.98302 0.21164 0.76447 0.0
C685 C 0.98154 0.23309 0.82282 0.0
N686 N 0.9774 0.28946 0.75091 0.0
N687 N 0.98694 0.25065 0.7989 0.0
H688 H 0.44266 0.94615 0.97998 0.0
H689 H 0.56204 0.05656 0.03709 0.0
H690 H 0.43185 0.03783 0.97756 0.0
H691 H 0.573 0.96489 0.03909 0.0
H692 H 0.51436 0.05013 0.01595 0.0
H693 H 0.4903 0.95259 1.0012 0.0
C694 C 0.45051 0.96771 0.98314 0.0
C695 C 0.43346 0.99154 0.97592 0.0
C696 C 0.52702 0.03137 0.02127 0.0
C697 C 0.48796 0.99906 1.00161 0.0
C698 C 0.55421 0.03501 0.03385 0.0
C699 C 0.57132 0.01118 0.04092 0.0
C700 C 0.51678 0.00367 0.01532 0.0
C701 C 0.56043 0.98385 0.03438 0.0
C702 C 0.47769 0.97135 0.99577 0.0
C703 C 0.44438 0.01887 0.98238 0.0
N704 N 0.53385 0.98083 0.02207 0.0
N705 N 0.47093 0.02189 0.99474 0.0
H706 H 0.46397 0.43038 0.97876 0.0
H707 H 0.5395 0.57295 0.04217 0.0
H708 H 0.55546 0.44221 0.98302 0.0
H709 H 0.44801 0.56107 0.03809 0.0
H710 H 0.54587 0.52513 0.02028 0.0
H711 H 0.45758 0.47815 1.00079 0.0
C712 C 0.4827 0.44313 0.984 0.0
C713 C 0.51026 0.43255 0.9781 0.0
C714 C 0.52439 0.53289 0.02448 0.0
C715 C 0.5032 0.48711 1.00375 0.0
C716 C 0.52076 0.56017 0.03701 0.0
C717 C 0.49321 0.57077 0.0429 0.0
C718 C 0.50025 0.51614 0.0174 0.0
C719 C 0.46967 0.55345 0.03526 0.0
C720 C 0.47907 0.47039 0.9966 0.0
C721 C 0.53379 0.44983 0.98584 0.0
N722 N 0.47373 0.52707 0.02296 0.0
N723 N 0.52973 0.47619 0.9982 0.0
H724 H 0.05021 0.50819 0.93615 0.0
H725 H 0.95309 0.49476 0.08508 0.0
H726 H 0.08473 0.50369 0.02637 0.0
H727 H 0.91855 0.49874 0.99484 0.0
H728 H 1.00136 0.49822 0.0641 0.0
H729 H 0.00191 0.50486 0.95712 0.0
C730 C 0.0477 0.50692 0.96037 0.0
C731 C 0.07165 0.50695 0.97952 0.0
C732 C 0.98324 0.49823 0.04885 0.0
C733 C 0.01621 0.50239 1.00378 0.0
C734 C 0.95559 0.49595 0.06085 0.0
C735 C 0.93164 0.49571 0.0417 0.0
C736 C 0.98706 0.50044 0.01742 0.0
C737 C 0.93635 0.49872 0.0105 0.0
C738 C 0.02004 0.50471 0.97236 0.0
C739 C 0.06692 0.50385 0.01071 0.0
N740 N 0.96344 0.5008 0.99935 0.0
N741 N 0.03983 0.50185 0.02185 0.0
H742 H 0.03967 0.07392 0.97711 0.0
H743 H 0.96475 0.93106 0.04092 0.0
H744 H 0.94823 0.06153 0.9809 0.0
H745 H 0.05618 0.94349 0.03709 0.0
H746 H 0.95817 0.97873 0.01867 0.0
H747 H 0.04622 0.02623 0.9993 0.0
C748 C 0.02098 0.06106 0.98227 0.0
C749 C 0.99339 0.07151 0.97621 0.0
C750 C 0.97968 0.97113 0.023 0.0
C751 C 1.00065 0.01698 1.00206 0.0
C752 C 0.98343 0.94392 0.03574 0.0
C753 C 0.01103 0.9335 0.04181 0.0
C754 C 0.00373 0.98799 0.01589 0.0
C755 C 0.03448 0.95095 0.03413 0.0
C756 C 0.02471 0.03384 0.99497 0.0
C757 C 0.96993 0.05406 0.98385 0.0
N758 N 0.0303 0.97725 0.02164 0.0
N759 N 0.97409 0.02774 0.99632 0.0
H760 H 0.4302 0.46426 0.54293 0.0
H761 H 0.57236 0.53991 0.4784 0.0
H762 H 0.44199 0.55576 0.5388 0.0
H763 H 0.56051 0.44842 0.48248 0.0
H764 H 0.52474 0.54625 0.50082 0.0
H765 H 0.47786 0.45794 0.52061 0.0
C766 C 0.44292 0.48301 0.53767 0.0
C767 C 0.43232 0.51055 0.54367 0.0
C768 C 0.53246 0.52477 0.49651 0.0
C769 C 0.48681 0.50356 0.51767 0.0
C770 C 0.55964 0.52116 0.48368 0.0
C771 C 0.5702 0.49362 0.47762 0.0
C772 C 0.51576 0.50063 0.50373 0.0
C773 C 0.55293 0.47008 0.48542 0.0
C774 C 0.47013 0.47941 0.52489 0.0
C775 C 0.4496 0.5341 0.53589 0.0
N776 N 0.52665 0.47412 0.49801 0.0
N777 N 0.4759 0.53007 0.52336 0.0
H778 H 1.0003 0.41802 0.49298 0.0
H779 H 0.00356 0.58701 0.52544 0.0
H780 H 0.99458 0.45457 0.58222 0.0
H781 H 0.00874 0.55042 0.43618 0.0
H782 H 0.99947 0.5388 0.54657 0.0
H783 H 0.00424 0.46624 0.47188 0.0
C784 C 0.99988 0.43618 0.5082 0.0
C785 C 0.99644 0.43213 0.53944 0.0
C786 C 1.00163 0.54128 0.52235 0.0
C787 C 1.00085 0.48764 0.51532 0.0
C788 C 0.00382 0.56885 0.51022 0.0
C789 C 0.00718 0.57288 0.47896 0.0
C790 C 0.0026 0.51739 0.50311 0.0
C791 C 0.00729 0.54847 0.46043 0.0
C792 C 0.00198 0.46375 0.49608 0.0
C793 C 0.99611 0.45653 0.55798 0.0
N794 N 0.00513 0.52183 0.47278 0.0
N795 N 0.99821 0.48319 0.54565 0.0
H796 H 0.94252 0.05739 0.48014 0.0
H797 H 0.06126 0.94628 0.53708 0.0
H798 H 0.93125 0.96576 0.47755 0.0
H799 H 0.07261 0.0379 0.53956 0.0
H800 H 0.01371 0.953 0.51574 0.0
H801 H 0.99015 0.05069 0.50129 0.0
C802 C 0.95027 0.0358 0.48325 0.0
C803 C 0.9331 0.01206 0.47601 0.0
C804 C 0.02642 0.97169 0.52121 0.0
C805 C 0.98757 0.00423 0.50162 0.0
C806 C 0.05354 0.96788 0.5339 0.0
C807 C 0.07071 0.99161 0.54117 0.0
C808 C 0.01633 0.99946 0.51536 0.0
C809 C 0.05998 0.01901 0.5347 0.0
C810 C 0.97744 0.032 0.49583 0.0
C811 C 0.94389 0.98466 0.48239 0.0
N812 N 0.03347 0.02219 0.52228 0.0
N813 N 0.97043 0.98149 0.49471 0.0
H814 H 0.44689 0.94151 0.48204 0.0
H815 H 0.55724 0.06094 0.53915 0.0
H816 H 0.53856 0.93055 0.48013 0.0
H817 H 0.46556 0.07183 0.54121 0.0
H818 H 0.55083 0.01324 0.51806 0.0
H819 H 0.45331 0.9892 0.50315 0.0
C820 C 0.46844 0.94934 0.4853 0.0
C821 C 0.49228 0.93223 0.47826 0.0
C822 C 0.53206 0.02589 0.52339 0.0
C823 C 0.49977 0.98679 0.50382 0.0
C824 C 0.53569 0.05309 0.53594 0.0
C825 C 0.51185 0.07018 0.54302 0.0
C826 C 0.50437 0.01562 0.51748 0.0
C827 C 0.48453 0.05926 0.5365 0.0
C828 C 0.47208 0.97654 0.49786 0.0
C829 C 0.5196 0.94313 0.48482 0.0
N830 N 0.48152 0.03268 0.52422 0.0
N831 N 0.52261 0.9697 0.49711 0.0
H832 H 0.57087 0.28182 0.01044 0.0
H833 H 0.61522 0.11751 0.03099 0.0
H834 H 0.59642 0.22695 0.93687 0.0
H835 H 0.63202 0.1817 0.09889 0.0
H836 H 0.59297 0.15428 0.99936 0.0
H837 H 0.57844 0.24177 0.0457 0.0
C838 C 0.57742 0.26119 1.00165 0.0
C839 C 0.58326 0.25768 0.97077 0.0
C840 C 0.60112 0.16015 0.02141 0.0
C841 C 0.59161 0.21201 0.01071 0.0
C842 C 0.6137 0.13918 0.03957 0.0
C843 C 0.62591 0.14662 0.06748 0.0
C844 C 0.60033 0.18866 0.0314 0.0
C845 C 0.62322 0.17509 0.07737 0.0
C846 C 0.58188 0.23847 0.02175 0.0
C847 C 0.59193 0.23059 0.96056 0.0
N848 N 0.61089 0.19514 0.05925 0.0
N849 N 0.5959 0.20881 0.98047 0.0
H850 H 0.22096 0.5699 0.01238 0.0
H851 H 0.38548 0.61359 0.03279 0.0
H852 H 0.27596 0.59527 0.93878 0.0
H853 H 0.32135 0.63087 0.10067 0.0
H854 H 0.3486 0.5914 1.00126 0.0
H855 H 0.26103 0.57734 0.04762 0.0
C856 C 0.24162 0.57639 1.00358 0.0
C857 C 0.24517 0.58222 0.97271 0.0
C858 C 0.34277 0.59963 0.02329 0.0
C859 C 0.29086 0.5904 0.01262 0.0
C860 C 0.3638 0.61217 0.04139 0.0
C861 C 0.35641 0.62451 0.06926 0.0
C862 C 0.31425 0.59901 0.03329 0.0
C863 C 0.32793 0.62196 0.07918 0.0
C864 C 0.26435 0.58077 0.02367 0.0
C865 C 0.27229 0.5908 0.96247 0.0
N866 N 0.30782 0.60967 0.06111 0.0
N867 N 0.29408 0.59469 0.98238 0.0
H868 H 0.90825 0.27758 0.93401 0.0
H869 H 0.87627 0.32278 0.10059 0.0
H870 H 0.93334 0.2236 1.00849 0.0
H871 H 0.89007 0.38538 0.03031 0.0
H872 H 0.89811 0.28624 0.06832 0.0
H873 H 0.90217 0.31753 0.96907 0.0
C874 C 0.91286 0.27427 0.95774 0.0
C875 C 0.92117 0.24724 0.96842 0.0
C876 C 0.89687 0.30809 0.06022 0.0
C877 C 0.91366 0.29271 1.00879 0.0
C878 C 0.88437 0.32897 0.0786 0.0
C879 C 0.88103 0.35714 0.06802 0.0
C880 C 0.90551 0.31529 0.0308 0.0
C881 C 0.89206 0.36393 0.03938 0.0
C882 C 0.90948 0.2971 0.97773 0.0
C883 C 0.92696 0.24414 0.99936 0.0
N884 N 0.90326 0.34304 0.02153 0.0
N885 N 0.92253 0.26648 0.01861 0.0
H886 H 0.22689 0.90813 0.93466 0.0
H887 H 0.18271 0.87392 0.10085 0.0
H888 H 0.28132 0.93257 1.00898 0.0
H889 H 0.11955 0.88978 0.03166 0.0
H890 H 0.21913 0.89612 0.06864 0.0
H891 H 0.18711 0.90183 0.96996 0.0
C892 C 0.23031 0.91258 0.95841 0.0
C893 C 0.25741 0.92075 0.96898 0.0
C894 C 0.19719 0.89524 0.06078 0.0
C895 C 0.21218 0.91297 1.0096 0.0
C896 C 0.17638 0.88252 0.07912 0.0
C897 C 0.14808 0.87966 0.0688 0.0
C898 C 0.18977 0.90457 0.03167 0.0
C899 C 0.14111 0.89135 0.0405 0.0
C900 C 0.20759 0.90907 0.97853 0.0
C901 C 0.2607 0.92632 0.99994 0.0
N902 N 0.16192 0.90275 0.02267 0.0
N903 N 0.23848 0.92174 0.01931 0.0
H904 H 0.61375 0.38617 0.48801 0.0
H905 H 0.5702 0.22164 0.5094 0.0
H906 H 0.62965 0.32196 0.4199 0.0
H907 H 0.59585 0.27694 0.58256 0.0
H908 H 0.57724 0.26165 0.47394 0.0
H909 H 0.5919 0.34939 0.52 0.0
C910 C 0.6121 0.3645 0.47946 0.0
C911 C 0.62395 0.35706 0.45138 0.0
C912 C 0.58082 0.26505 0.49785 0.0
C913 C 0.59886 0.315 0.48787 0.0
C914 C 0.57666 0.24235 0.51806 0.0
C915 C 0.58269 0.246 0.54888 0.0
C916 C 0.59045 0.29163 0.50871 0.0
C917 C 0.59124 0.27319 0.55892 0.0
C918 C 0.59976 0.34352 0.49782 0.0
C919 C 0.62112 0.32858 0.44154 0.0
N920 N 0.59492 0.29494 0.5389 0.0
N921 N 0.60905 0.30852 0.45986 0.0
H922 H 0.11657 0.61315 0.48921 0.0
H923 H 0.28111 0.56938 0.51032 0.0
H924 H 0.18047 0.627 0.42023 0.0
H925 H 0.22589 0.5955 0.58339 0.0
H926 H 0.24099 0.5759 0.47493 0.0
H927 H 0.15333 0.59151 0.52135 0.0
C928 C 0.13815 0.61107 0.48052 0.0
C929 C 0.14552 0.62231 0.45213 0.0
C930 C 0.23763 0.5797 0.49881 0.0
C931 C 0.18759 0.59749 0.48881 0.0
C932 C 0.2604 0.57585 0.51898 0.0
C933 C 0.25682 0.58217 0.54974 0.0
C934 C 0.21104 0.58933 0.50966 0.0
C935 C 0.22961 0.59068 0.55979 0.0
C936 C 0.15913 0.59886 0.49896 0.0
C937 C 0.1739 0.61896 0.4421 0.0
N938 N 0.2078 0.59409 0.53981 0.0
N939 N 0.19396 0.60705 0.46052 0.0
H940 H 0.88969 0.11902 0.48667 0.0
H941 H 0.93327 0.28353 0.5074 0.0
H942 H 0.87227 0.18325 0.41894 0.0
H943 H 0.90764 0.22851 0.58087 0.0
H944 H 0.92588 0.24349 0.4721 0.0
H945 H 0.91181 0.15588 0.51829 0.0
C946 C 0.89107 0.14071 0.47812 0.0
C947 C 0.87871 0.14813 0.45027 0.0
C948 C 0.92239 0.24016 0.49604 0.0
C949 C 0.90414 0.19027 0.48633 0.0
C950 C 0.92674 0.26287 0.51615 0.0
C951 C 0.92082 0.25931 0.54701 0.0
C952 C 0.91271 0.21365 0.50704 0.0
C953 C 0.91218 0.23219 0.5572 0.0
C954 C 0.90356 0.16173 0.49627 0.0
C955 C 0.8812 0.17664 0.44041 0.0
N956 N 0.90833 0.21041 0.53727 0.0
N957 N 0.89345 0.19674 0.45852 0.0
H958 H 0.38594 0.88823 0.48815 0.0
H959 H 0.22153 0.93196 0.5091 0.0
H960 H 0.32172 0.87148 0.42026 0.0
H961 H 0.27661 0.90639 0.58249 0.0
H962 H 0.26154 0.92463 0.47375 0.0
H963 H 0.34915 0.91027 0.51991 0.0
C964 C 0.36426 0.88972 0.4796 0.0
C965 C 0.35683 0.87758 0.45166 0.0
C966 C 0.26489 0.92113 0.49767 0.0
C967 C 0.31476 0.90291 0.48788 0.0
C968 C 0.24219 0.92545 0.51783 0.0
C969 C 0.24578 0.91953 0.54868 0.0
C970 C 0.2914 0.91146 0.50864 0.0
C971 C 0.27291 0.91092 0.55882 0.0
C972 C 0.34328 0.90217 0.49783 0.0
C973 C 0.32834 0.88023 0.4418 0.0
N974 N 0.29467 0.90709 0.53885 0.0
N975 N 0.30827 0.89243 0.45999 0.0
H976 H 0.43267 0.72098 1.00906 0.0
H977 H 0.38941 0.88541 0.98671 0.0
H978 H 0.40745 0.77676 0.082 0.0
H979 H 0.37248 0.82071 0.91937 0.0
H980 H 0.41137 0.84879 0.01877 0.0
H981 H 0.42541 0.76074 0.97336 0.0
C982 C 0.42625 0.74175 0.01761 0.0
C983 C 0.42041 0.7456 0.04845 0.0
C984 C 0.40326 0.84277 0.99675 0.0
C985 C 0.41243 0.79094 1.008 0.0
C986 C 0.39085 0.86365 0.97834 0.0
C987 C 0.37868 0.85604 0.95047 0.0
C988 C 0.40392 0.81417 0.98704 0.0
C989 C 0.38126 0.82747 0.94086 0.0
C990 C 0.42197 0.7643 0.99726 0.0
C991 C 0.41192 0.77285 0.05835 0.0
N992 N 0.39341 0.8075 0.95922 0.0
N993 N 0.40813 0.79447 0.0382 0.0
H994 H 0.78243 0.43293 0.00969 0.0
H995 H 0.61819 0.38838 0.98902 0.0
H996 H 0.72825 0.40496 0.08292 0.0
H997 H 0.682 0.37347 0.9202 0.0
H998 H 0.65516 0.40975 0.02108 0.0
H999 H 0.74226 0.42583 0.97452 0.0
C1000 C 0.76193 0.4259 0.01844 0.0
C1001 C 0.75866 0.41928 0.04918 0.0
C1002 C 0.66089 0.40222 0.99874 0.0
C1003 C 0.71282 0.4115 1.00934 0.0
C1004 C 0.63981 0.39016 0.98034 0.0
C1005 C 0.64708 0.37873 0.95202 0.0
C1006 C 0.68935 0.40329 0.98858 0.0
C1007 C 0.6755 0.38169 0.94202 0.0
C1008 C 0.73914 0.42172 0.99838 0.0
C1009 C 0.73172 0.41004 0.05933 0.0
N1010 N 0.69567 0.39351 0.96037 0.0
N1011 N 0.70985 0.40638 0.03946 0.0
H1012 H 0.07072 0.78176 0.00987 0.0
H1013 H 0.11391 0.61681 0.9912 0.0
H1014 H 0.09705 0.72765 0.0838 0.0
H1015 H 0.12854 0.67978 0.92144 0.0
H1016 H 0.09254 0.65416 0.02281 0.0
H1017 H 0.07732 0.74116 0.97512 0.0
C1018 C 0.07726 0.7612 0.01886 0.0
C1019 C 0.0836 0.75806 0.04967 0.0
C1020 C 0.1 0.65963 1.00036 0.0
C1021 C 0.09083 0.71174 0.01031 0.0
C1022 C 0.11204 0.63832 0.98222 0.0
C1023 C 0.1234 0.64525 0.95376 0.0
C1024 C 0.0989 0.68797 0.98983 0.0
C1025 C 0.12037 0.67355 0.94337 0.0
C1026 C 0.08116 0.73815 0.99904 0.0
C1027 C 0.09222 0.73103 0.06014 0.0
N1028 N 0.1086 0.69393 0.96149 0.0
N1029 N 0.09564 0.70893 0.04051 0.0
H1030 H 0.77789 0.09446 0.08257 0.0
H1031 H 0.82177 0.13184 0.91694 0.0
H1032 H 0.72331 0.07155 1.00784 0.0
H1033 H 0.88501 0.11487 0.98575 0.0
H1034 H 0.78539 0.10912 0.9488 0.0
H1035 H 0.81759 0.10151 0.04732 0.0
C1036 C 0.77442 0.09049 0.05873 0.0
C1037 C 0.7473 0.08252 0.04804 0.0
C1038 C 0.80734 0.10989 0.95664 0.0
C1039 C 0.79243 0.0912 1.0075 0.0
C1040 C 0.82812 0.1229 0.93851 0.0
C1041 C 0.85644 0.12558 0.94883 0.0
C1042 C 0.8148 0.10006 0.98557 0.0
C1043 C 0.86344 0.11345 0.97692 0.0
C1044 C 0.79709 0.09444 0.03864 0.0
C1045 C 0.74394 0.07761 0.01696 0.0
N1046 N 0.84266 0.10175 0.99456 0.0
N1047 N 0.76612 0.08261 0.99765 0.0
H1048 H 0.40889 0.72572 0.43651 0.0
H1049 H 0.37154 0.68203 0.60209 0.0
H1050 H 0.43211 0.7803 0.51113 0.0
H1051 H 0.38884 0.61863 0.53354 0.0
H1052 H 0.39427 0.71837 0.57018 0.0
H1053 H 0.40187 0.68605 0.4718 0.0
C1054 C 0.41292 0.7292 0.46033 0.0
C1055 C 0.42097 0.75631 0.47098 0.0
C1056 C 0.39358 0.69639 0.56241 0.0
C1057 C 0.41233 0.71121 0.51157 0.0
C1058 C 0.38056 0.67564 0.58057 0.0
C1059 C 0.37797 0.64728 0.57033 0.0
C1060 C 0.4035 0.68888 0.53355 0.0
C1061 C 0.3902 0.64023 0.54231 0.0
C1062 C 0.40899 0.70654 0.48045 0.0
C1063 C 0.42598 0.75967 0.50204 0.0
N1064 N 0.4019 0.66099 0.52464 0.0
N1065 N 0.421 0.73752 0.52138 0.0
H1066 H 0.72207 0.4347 0.50921 0.0
H1067 H 0.88668 0.39043 0.5282 0.0
H1068 H 0.7759 0.40738 0.43547 0.0
H1069 H 0.82356 0.37658 0.59798 0.0
H1070 H 0.8495 0.41191 0.49644 0.0
H1071 H 0.76265 0.42809 0.54397 0.0
C1072 C 0.74257 0.42794 0.50026 0.0
C1073 C 0.74563 0.42132 0.4695 0.0
C1074 C 0.84397 0.40461 0.51892 0.0
C1075 C 0.79193 0.41407 0.50888 0.0
C1076 C 0.86518 0.3925 0.53715 0.0
C1077 C 0.85814 0.38132 0.56566 0.0
C1078 C 0.81563 0.40595 0.52943 0.0
C1079 C 0.82987 0.3846 0.57601 0.0
C1080 C 0.7656 0.42403 0.52008 0.0
C1081 C 0.77259 0.41243 0.45909 0.0
N1082 N 0.80958 0.39644 0.55782 0.0
N1083 N 0.79467 0.409 0.47873 0.0
H1084 H 0.09852 0.77521 0.43447 0.0
H1085 H 0.12996 0.82096 0.6007 0.0
H1086 H 0.07073 0.72241 0.50888 0.0
H1087 H 0.11553 0.88365 0.53066 0.0
H1088 H 0.10818 0.78437 0.5684 0.0
H1089 H 0.10512 0.81522 0.46941 0.0
C1090 C 0.09345 0.77218 0.45815 0.0
C1091 C 0.08419 0.74547 0.46886 0.0
C1092 C 0.10929 0.80625 0.56038 0.0
C1093 C 0.09227 0.79096 0.50906 0.0
C1094 C 0.12175 0.82714 0.57876 0.0
C1095 C 0.12487 0.85537 0.56825 0.0
C1096 C 0.10049 0.81349 0.53103 0.0
C1097 C 0.11372 0.86216 0.53966 0.0
C1098 C 0.09712 0.79504 0.47805 0.0
C1099 C 0.07784 0.74271 0.49973 0.0
N1100 N 0.10258 0.84126 0.5218 0.0
N1101 N 0.08256 0.76504 0.5189 0.0
H1102 H 0.61801 0.11378 0.53298 0.0
H1103 H 0.78276 0.07188 0.51057 0.0
H1104 H 0.68271 0.13195 0.59996 0.0
H1105 H 0.72651 0.09602 0.43763 0.0
H1106 H 0.74303 0.07896 0.54635 0.0
H1107 H 0.65472 0.09177 0.50111 0.0
C1108 C 0.63979 0.11261 0.54132 0.0
C1109 C 0.64736 0.12515 0.56902 0.0
C1110 C 0.73936 0.08219 0.52243 0.0
C1111 C 0.68935 0.09985 0.53265 0.0
C1112 C 0.7619 0.078 0.50204 0.0
C1113 C 0.75789 0.08361 0.47118 0.0
C1114 C 0.71259 0.09139 0.5117 0.0
C1115 C 0.73052 0.09173 0.46129 0.0
C1116 C 0.66072 0.10016 0.52302 0.0
C1117 C 0.67597 0.12288 0.5786 0.0
N1118 N 0.70894 0.09544 0.48149 0.0
N1119 N 0.696 0.1107 0.56034 0.0
H1120 H 0.74981 0.33489 0.17412 0.0
H1121 H 0.75902 0.16683 0.17101 0.0
H1122 H 0.82946 0.28817 0.17831 0.0
H1123 H 0.67967 0.2134 0.1803 0.0
H1124 H 0.78532 0.21041 0.18338 0.0
H1125 H 0.72401 0.29092 0.18615 0.0
C1126 C 0.7619 0.31545 0.17805 0.0
C1127 C 0.79174 0.31499 0.17447 0.0
C1128 C 0.76214 0.21102 0.18327 0.0
C1129 C 0.76237 0.26452 0.18787 0.0
C1130 C 0.74711 0.18614 0.17613 0.0
C1131 C 0.71715 0.18671 0.17388 0.0
C1132 C 0.7471 0.23673 0.18771 0.0
C1133 C 0.70279 0.21213 0.18129 0.0
C1134 C 0.74717 0.29034 0.18499 0.0
C1135 C 0.80639 0.28937 0.18038 0.0
N1136 N 0.71793 0.2363 0.18727 0.0
N1137 N 0.7915 0.265 0.18617 0.0
H1138 H 0.2137 0.82873 0.18259 0.0
H1139 H 0.29097 0.67686 0.18354 0.0
H1140 H 0.17021 0.74777 0.17182 0.0
H1141 H 0.33435 0.75764 0.17079 0.0
H1142 H 0.24704 0.70283 0.19579 0.0
H1143 H 0.25775 0.80295 0.19481 0.0
C1144 C 0.21325 0.80555 0.18339 0.0
C1145 C 0.18848 0.79032 0.17543 0.0
C1146 C 0.26633 0.71484 0.19083 0.0
C1147 C 0.2387 0.76081 0.18929 0.0
C1148 C 0.29143 0.70005 0.1839 0.0
C1149 C 0.31612 0.71515 0.17538 0.0
C1150 C 0.26603 0.74487 0.18928 0.0
C1151 C 0.31558 0.74516 0.17657 0.0
C1152 C 0.23842 0.79086 0.1903 0.0
C1153 C 0.18903 0.76032 0.17716 0.0
N1154 N 0.29078 0.75907 0.18292 0.0
N1155 N 0.21389 0.74652 0.18347 0.0
H1156 H 0.67442 0.29088 0.33707 0.0
H1157 H 0.82621 0.2135 0.33597 0.0
H1158 H 0.75543 0.33432 0.34769 0.0
H1159 H 0.74541 0.17024 0.34897 0.0
H1160 H 0.80026 0.25743 0.32363 0.0
H1161 H 0.70015 0.24682 0.32478 0.0
C1162 C 0.6976 0.29132 0.33623 0.0
C1163 C 0.71286 0.31607 0.34418 0.0
C1164 C 0.78825 0.23817 0.32866 0.0
C1165 C 0.7423 0.26584 0.33023 0.0
C1166 C 0.80302 0.21307 0.33565 0.0
C1167 C 0.78791 0.18842 0.34427 0.0
C1168 C 0.75822 0.2385 0.33026 0.0
C1169 C 0.75789 0.18899 0.34312 0.0
C1170 C 0.71225 0.26615 0.32927 0.0
C1171 C 0.74285 0.31551 0.34237 0.0
N1172 N 0.744 0.21378 0.33672 0.0
N1173 N 0.75662 0.29064 0.33603 0.0
H1174 H 0.33687 0.74442 0.34815 0.0
H1175 H 0.16865 0.75276 0.34475 0.0
H1176 H 0.28982 0.8235 0.33892 0.0
H1177 H 0.21584 0.67335 0.3416 0.0
H1178 H 0.21254 0.77871 0.33273 0.0
H1179 H 0.29341 0.71785 0.33594 0.0
C1180 C 0.31748 0.75621 0.34308 0.0
C1181 C 0.31675 0.78617 0.34529 0.0
C1182 C 0.21324 0.75556 0.33412 0.0
C1183 C 0.26687 0.75592 0.33164 0.0
C1184 C 0.18818 0.74074 0.34105 0.0
C1185 C 0.18879 0.71093 0.34492 0.0
C1186 C 0.23916 0.74049 0.33152 0.0
C1187 C 0.21452 0.69639 0.3393 0.0
C1188 C 0.29267 0.74103 0.33604 0.0
C1189 C 0.29123 0.80038 0.33795 0.0
N1190 N 0.23884 0.71137 0.3335 0.0
N1191 N 0.26713 0.78509 0.33204 0.0
H1192 H 0.24601 0.83484 0.84671 0.0
H1193 H 0.25519 0.66676 0.8483 0.0
H1194 H 0.32543 0.7881 0.83921 0.0
H1195 H 0.1756 0.71336 0.84203 0.0
H1196 H 0.28111 0.71044 0.8354 0.0
H1197 H 0.21979 0.79096 0.83537 0.0
C1198 C 0.25795 0.81542 0.84219 0.0
C1199 C 0.28789 0.81492 0.84465 0.0
C1200 C 0.25794 0.71104 0.8363 0.0
C1201 C 0.25805 0.76457 0.83203 0.0
C1202 C 0.24314 0.6861 0.84375 0.0
C1203 C 0.21326 0.68664 0.84697 0.0
C1204 C 0.24278 0.73677 0.83255 0.0
C1205 C 0.19868 0.71211 0.84025 0.0
C1206 C 0.24297 0.79037 0.83565 0.0
C1207 C 0.30231 0.78933 0.83802 0.0
N1208 N 0.21364 0.73634 0.83396 0.0
N1209 N 0.28721 0.76501 0.83263 0.0
H1210 H 0.83595 0.25826 0.84524 0.0
H1211 H 0.6681 0.24744 0.84621 0.0
H1212 H 0.79004 0.17837 0.83727 0.0
H1213 H 0.71391 0.32748 0.83926 0.0
H1214 H 0.71202 0.2219 0.83343 0.0
H1215 H 0.7919 0.28404 0.83351 0.0
C1216 C 0.81668 0.24613 0.84053 0.0
C1217 C 0.81644 0.21618 0.84297 0.0
C1218 C 0.71239 0.24508 0.83415 0.0
C1219 C 0.76591 0.24552 0.82992 0.0
C1220 C 0.68732 0.25966 0.84152 0.0
C1221 C 0.68757 0.28956 0.84454 0.0
C1222 C 0.73797 0.26049 0.83027 0.0
C1223 C 0.71288 0.30437 0.83766 0.0
C1224 C 0.79153 0.26085 0.83376 0.0
C1225 C 0.79106 0.20151 0.8361 0.0
N1226 N 0.73725 0.28964 0.83145 0.0
N1227 N 0.76663 0.21636 0.8305 0.0
H1228 H 0.32599 0.71215 0.68442 0.0
H1229 H 0.1748 0.79069 0.68305 0.0
H1230 H 0.24489 0.66951 0.67135 0.0
H1231 H 0.25614 0.83344 0.672 0.0
H1232 H 0.2002 0.74648 0.69554 0.0
H1233 H 0.30036 0.75629 0.69663 0.0
C1234 C 0.3028 0.7119 0.6847 0.0
C1235 C 0.28752 0.68736 0.6761 0.0
C1236 C 0.21245 0.7657 0.69092 0.0
C1237 C 0.25819 0.73768 0.68996 0.0
C1238 C 0.19799 0.79095 0.68385 0.0
C1239 C 0.21343 0.81555 0.67572 0.0
C1240 C 0.24249 0.76515 0.68989 0.0
C1241 C 0.24342 0.81475 0.67746 0.0
C1242 C 0.28821 0.73712 0.69162 0.0
C1243 C 0.2575 0.68816 0.67719 0.0
N1244 N 0.257 0.78981 0.68392 0.0
N1245 N 0.24379 0.71307 0.68352 0.0
H1246 H 0.83579 0.24969 0.67136 0.0
H1247 H 0.66772 0.25866 0.67185 0.0
H1248 H 0.7891 0.32929 0.67675 0.0
H1249 H 0.71453 0.17938 0.68042 0.0
H1250 H 0.71149 0.28504 0.68326 0.0
H1251 H 0.79207 0.22382 0.68424 0.0
C1252 C 0.81641 0.26175 0.67572 0.0
C1253 C 0.81586 0.2916 0.67226 0.0
C1254 C 0.71212 0.26186 0.6832 0.0
C1255 C 0.76569 0.26215 0.68665 0.0
C1256 C 0.68713 0.24679 0.67662 0.0
C1257 C 0.68769 0.21683 0.67444 0.0
C1258 C 0.73792 0.24685 0.68714 0.0
C1259 C 0.71325 0.2025 0.68139 0.0
C1260 C 0.79145 0.24698 0.68315 0.0
C1261 C 0.79035 0.30621 0.67872 0.0
N1262 N 0.73751 0.21768 0.68682 0.0
N1263 N 0.76611 0.29128 0.685 0.0
loop_
_geom_bond_atom_site_label_1
_geom_bond_atom_site_label_2
_geom_bond_distance
_geom_bond_site_symmetry_2
_ccdc_geom_bond_type
Co0 O3 1.970 . S
Co0 N17 1.989 . S
Co0 O25 1.967 . S
Co0 O32 1.920 . S
Co1 O4 1.966 . S
Co1 N10 2.022 . S
Co1 N18 1.993 . S
Co1 O26 1.941 . S
C2 O3 1.258 . S
C2 O4 1.263 . S
O3 Co0 1.970 . S
O3 C2 1.258 . S
O4 Co1 1.966 . S
O4 C2 1.263 . S
C5 O6 1.235 . S
C5 O32 1.289 . S
O6 C5 1.235 . S
C7 C9 1.400 . S
C7 N10 1.351 . S
C7 C12 1.501 . S
C8 C9 1.387 1_565 S
C8 N11 1.341 1_565 S
C9 C7 1.400 . S
C9 C8 1.387 1_545 S
N10 Co1 2.022 . S
N10 C7 1.351 . S
N10 N11 1.365 . S
N11 C8 1.341 1_545 S
N11 N10 1.365 . S
N11 H31 0.862 . S
C12 C7 1.501 . S
C12 H13 0.961 . S
C12 H14 0.961 . S
C12 H15 0.960 . S
H13 C12 0.961 . S
H14 C12 0.961 . S
H15 C12 0.960 . S
C16 N17 1.342 . S
C16 C20 1.401 . S
C16 C21 1.499 . S
N17 Co0 1.989 . S
N17 C16 1.342 . S
N17 N18 1.388 . S
N18 Co1 1.993 . S
N18 N17 1.388 . S
N18 C19 1.346 . S
C19 N18 1.346 . S
C19 C20 1.396 . S
C19 C29 1.510 . S
C20 C16 1.401 . S
C20 C19 1.396 . S
C21 C16 1.499 . S
C21 H22 0.959 . S
C21 H23 0.960 . S
C21 H24 0.961 . S
H22 C21 0.959 . S
H23 C21 0.960 . S
H24 C21 0.961 . S
O25 Co0 1.967 . S
O25 C33 1.258 . S
O26 Co1 1.941 . S
O26 C33 1.266 . S
H27 C29 0.959 . S
H28 C29 0.961 . S
C29 C19 1.510 . S
C29 H27 0.959 . S
C29 H28 0.961 . S
C29 H30 0.960 . S
H30 C29 0.960 . S
H31 N11 0.862 . S
O32 Co0 1.920 . S
O32 C5 1.289 . S
C33 O25 1.258 . S
C33 O26 1.266 . S
Co34 O37 1.970 . S
Co34 N51 1.989 . S
Co34 O59 1.967 . S
Co34 O66 1.920 . S
Co35 O38 1.966 . S
Co35 N44 2.022 . S
Co35 N52 1.993 . S
Co35 O60 1.941 . S
C36 O37 1.258 . S
C36 O38 1.263 . S
O37 Co34 1.970 . S
O37 C36 1.258 . S
O38 Co35 1.966 . S
O38 C36 1.263 . S
C39 O40 1.235 . S
C39 O66 1.289 . S
O40 C39 1.235 . S
C41 C43 1.400 . S
C41 N44 1.351 . S
C41 C46 1.501 . S
C42 C43 1.387 . S
C42 N45 1.341 . S
C43 C41 1.400 . S
C43 C42 1.387 . S
N44 Co35 2.022 . S
N44 C41 1.351 . S
N44 N45 1.365 . S
N45 C42 1.341 . S
N45 N44 1.365 . S
N45 H65 0.862 . S
C46 C41 1.501 . S
C46 H47 0.961 . S
C46 H48 0.961 . S
C46 H49 0.960 . S
H47 C46 0.961 . S
H48 C46 0.961 . S
H49 C46 0.960 . S
C50 N51 1.342 . S
C50 C54 1.401 . S
C50 C55 1.499 . S
N51 Co34 1.989 . S
N51 C50 1.342 . S
N51 N52 1.388 . S
N52 Co35 1.993 . S
N52 N51 1.388 . S
N52 C53 1.346 . S
C53 N52 1.346 . S
C53 C54 1.396 . S
C53 C63 1.510 . S
C54 C50 1.401 . S
C54 C53 1.396 . S
C55 C50 1.499 . S
C55 H56 0.959 . S
C55 H57 0.960 . S
C55 H58 0.961 . S
H56 C55 0.959 . S
H57 C55 0.960 . S
H58 C55 0.961 . S
O59 Co34 1.967 . S
O59 C67 1.258 . S
O60 Co35 1.941 . S
O60 C67 1.266 . S
H61 C63 0.959 . S
H62 C63 0.961 . S
C63 C53 1.510 . S
C63 H61 0.959 . S
C63 H62 0.961 . S
C63 H64 0.960 . S
H64 C63 0.960 . S
H65 N45 0.862 . S
O66 Co34 1.920 . S
O66 C39 1.289 . S
C67 O59 1.258 . S
C67 O60 1.266 . S
Co68 O71 1.970 . S
Co68 N85 1.989 . S
Co68 O93 1.967 . S
Co68 O100 1.920 . S
Co69 O72 1.966 . S
Co69 N78 2.022 . S
Co69 N86 1.993 . S
Co69 O94 1.941 . S
C70 O71 1.258 . S
C70 O72 1.263 . S
O71 Co68 1.970 . S
O71 C70 1.258 . S
O72 Co69 1.966 . S
O72 C70 1.263 . S
C73 O74 1.235 . S
C73 O100 1.289 . S
O74 C73 1.235 . S
C75 C77 1.400 . S
C75 N78 1.351 . S
C75 C80 1.501 . S
C76 C77 1.387 . S
C76 N79 1.341 . S
C77 C75 1.400 . S
C77 C76 1.387 . S
N78 Co69 2.022 . S
N78 C75 1.351 . S
N78 N79 1.365 . S
N79 C76 1.341 . S
N79 N78 1.365 . S
N79 H99 0.862 . S
C80 C75 1.501 . S
C80 H81 0.961 . S
C80 H82 0.961 . S
C80 H83 0.960 . S
H81 C80 0.961 . S
H82 C80 0.961 . S
H83 C80 0.960 . S
C84 N85 1.342 . S
C84 C88 1.401 . S
C84 C89 1.499 . S
N85 Co68 1.989 . S
N85 C84 1.342 . S
N85 N86 1.388 . S
N86 Co69 1.993 . S
N86 N85 1.388 . S
N86 C87 1.346 . S
C87 N86 1.346 . S
C87 C88 1.396 . S
C87 C97 1.510 . S
C88 C84 1.401 . S
C88 C87 1.396 . S
C89 C84 1.499 . S
C89 H90 0.959 . S
C89 H91 0.960 . S
C89 H92 0.961 . S
H90 C89 0.959 . S
H91 C89 0.960 . S
H92 C89 0.961 . S
O93 Co68 1.967 . S
O93 C101 1.258 . S
O94 Co69 1.941 . S
O94 C101 1.266 . S
H95 C97 0.959 . S
H96 C97 0.961 . S
C97 C87 1.510 . S
C97 H95 0.959 . S
C97 H96 0.961 . S
C97 H98 0.960 . S
H98 C97 0.960 . S
H99 N79 0.862 . S
O100 Co68 1.920 . S
O100 C73 1.289 . S
C101 O93 1.258 . S
C101 O94 1.266 . S
Co102 O105 1.970 . S
Co102 N119 1.989 . S
Co102 O127 1.967 . S
Co102 O134 1.920 . S
Co103 O106 1.966 . S
Co103 N112 2.022 . S
Co103 N120 1.993 . S
Co103 O128 1.941 . S
C104 O105 1.258 . S
C104 O106 1.263 . S
O105 Co102 1.970 . S
O105 C104 1.258 . S
O106 Co103 1.966 . S
O106 C104 1.263 . S
C107 O108 1.235 . S
C107 O134 1.289 . S
O108 C107 1.235 . S
C109 C111 1.400 . S
C109 N112 1.351 . S
C109 C114 1.501 . S
C110 C111 1.387 1_655 S
C110 N113 1.341 1_655 S
C111 C109 1.400 . S
C111 C110 1.387 1_455 S
N112 Co103 2.022 . S
N112 C109 1.351 . S
N112 N113 1.365 . S
N113 C110 1.341 1_455 S
N113 N112 1.365 . S
N113 H133 0.862 . S
C114 C109 1.501 . S
C114 H115 0.961 . S
C114 H116 0.961 . S
C114 H117 0.960 . S
H115 C114 0.961 . S
H116 C114 0.961 . S
H117 C114 0.960 . S
C118 N119 1.342 . S
C118 C122 1.401 . S
C118 C123 1.499 . S
N119 Co102 1.989 . S
N119 C118 1.342 . S
N119 N120 1.388 . S
N120 Co103 1.993 . S
N120 N119 1.388 . S
N120 C121 1.346 . S
C121 N120 1.346 . S
C121 C122 1.396 . S
C121 C131 1.510 . S
C122 C118 1.401 . S
C122 C121 1.396 . S
C123 C118 1.499 . S
C123 H124 0.959 . S
C123 H125 0.960 . S
C123 H126 0.961 . S
H124 C123 0.959 . S
H125 C123 0.960 . S
H126 C123 0.961 . S
O127 Co102 1.967 . S
O127 C135 1.258 . S
O128 Co103 1.941 . S
O128 C135 1.266 . S
H129 C131 0.959 . S
H130 C131 0.961 . S
C131 C121 1.510 . S
C131 H129 0.959 . S
C131 H130 0.961 . S
C131 H132 0.960 . S
H132 C131 0.960 . S
H133 N113 0.862 . S
O134 Co102 1.920 . S
O134 C107 1.289 . S
C135 O127 1.258 . S
C135 O128 1.266 . S
Co136 O139 1.970 . S
Co136 N153 1.989 . S
Co136 O161 1.967 . S
Co136 O168 1.920 . S
Co137 O140 1.966 . S
Co137 N146 2.022 . S
Co137 N154 1.993 . S
Co137 O162 1.941 . S
C138 O139 1.258 . S
C138 O140 1.263 . S
O139 Co136 1.970 . S
O139 C138 1.258 . S
O140 Co137 1.966 . S
O140 C138 1.263 . S
C141 O142 1.235 . S
C141 O168 1.289 . S
O142 C141 1.235 . S
C143 C145 1.400 . S
C143 N146 1.351 . S
C143 C148 1.501 . S
C144 C145 1.387 . S
C144 N147 1.341 . S
C145 C143 1.400 . S
C145 C144 1.387 . S
N146 Co137 2.022 . S
N146 C143 1.351 . S
N146 N147 1.365 . S
N147 C144 1.341 . S
N147 N146 1.365 . S
N147 H167 0.862 . S
C148 C143 1.501 . S
C148 H149 0.961 . S
C148 H150 0.961 . S
C148 H151 0.960 . S
H149 C148 0.961 . S
H150 C148 0.961 . S
H151 C148 0.960 . S
C152 N153 1.342 . S
C152 C156 1.401 . S
C152 C157 1.499 . S
N153 Co136 1.989 . S
N153 C152 1.342 . S
N153 N154 1.388 . S
N154 Co137 1.993 . S
N154 N153 1.388 . S
N154 C155 1.346 . S
C155 N154 1.346 . S
C155 C156 1.396 . S
C155 C165 1.510 . S
C156 C152 1.401 . S
C156 C155 1.396 . S
C157 C152 1.499 . S
C157 H158 0.959 . S
C157 H159 0.960 . S
C157 H160 0.961 . S
H158 C157 0.959 . S
H159 C157 0.960 . S
H160 C157 0.961 . S
O161 Co136 1.967 . S
O161 C169 1.258 . S
O162 Co137 1.941 . S
O162 C169 1.266 . S
H163 C165 0.959 . S
H164 C165 0.961 . S
C165 C155 1.510 . S
C165 H163 0.959 . S
C165 H164 0.961 . S
C165 H166 0.960 . S
H166 C165 0.960 . S
H167 N147 0.862 . S
O168 Co136 1.920 . S
O168 C141 1.289 . S
C169 O161 1.258 . S
C169 O162 1.266 . S
Co170 O173 1.970 . S
Co170 N187 1.989 . S
Co170 O195 1.967 . S
Co170 O202 1.920 . S
Co171 O174 1.966 . S
Co171 N180 2.022 . S
Co171 N188 1.993 . S
Co171 O196 1.941 . S
C172 O173 1.258 . S
C172 O174 1.263 . S
O173 Co170 1.970 . S
O173 C172 1.258 . S
O174 Co171 1.966 . S
O174 C172 1.263 . S
C175 O176 1.235 . S
C175 O202 1.289 . S
O176 C175 1.235 . S
C177 C179 1.400 . S
C177 N180 1.351 . S
C177 C182 1.501 . S
C178 C179 1.387 1_655 S
C178 N181 1.341 1_655 S
C179 C177 1.400 . S
C179 C178 1.387 1_455 S
N180 Co171 2.022 . S
N180 C177 1.351 . S
N180 N181 1.365 . S
N181 C178 1.341 1_455 S
N181 N180 1.365 . S
N181 H201 0.862 . S
C182 C177 1.501 . S
C182 H183 0.961 . S
C182 H184 0.961 . S
C182 H185 0.960 . S
H183 C182 0.961 . S
H184 C182 0.961 . S
H185 C182 0.960 . S
C186 N187 1.342 . S
C186 C190 1.401 . S
C186 C191 1.499 . S
N187 Co170 1.989 . S
N187 C186 1.342 . S
N187 N188 1.388 . S
N188 Co171 1.993 . S
N188 N187 1.388 . S
N188 C189 1.346 . S
C189 N188 1.346 . S
C189 C190 1.396 . S
C189 C199 1.510 . S
C190 C186 1.401 . S
C190 C189 1.396 . S
C191 C186 1.499 . S
C191 H192 0.959 . S
C191 H193 0.960 . S
C191 H194 0.961 . S
H192 C191 0.959 . S
H193 C191 0.960 . S
H194 C191 0.961 . S
O195 Co170 1.967 . S
O195 C203 1.258 . S
O196 Co171 1.941 . S
O196 C203 1.266 . S
H197 C199 0.959 . S
H198 C199 0.961 . S
C199 C189 1.510 . S
C199 H197 0.959 . S
C199 H198 0.961 . S
C199 H200 0.960 . S
H200 C199 0.960 . S
H201 N181 0.862 . S
O202 Co170 1.920 . S
O202 C175 1.289 . S
C203 O195 1.258 . S
C203 O196 1.266 . S
Co204 O207 1.970 . S
Co204 N221 1.989 . S
Co204 O229 1.967 . S
Co204 O236 1.920 . S
Co205 O208 1.966 . S
Co205 N214 2.022 . S
Co205 N222 1.993 . S
Co205 O230 1.941 . S
C206 O207 1.258 . S
C206 O208 1.263 . S
O207 Co204 1.970 . S
O207 C206 1.258 . S
O208 Co205 1.966 . S
O208 C206 1.263 . S
C209 O210 1.235 . S
C209 O236 1.289 . S
O210 C209 1.235 . S
C211 C213 1.400 . S
C211 N214 1.351 . S
C211 C216 1.501 . S
C212 C213 1.387 1_565 S
C212 N215 1.341 1_565 S
C213 C211 1.400 . S
C213 C212 1.387 1_545 S
N214 Co205 2.022 . S
N214 C211 1.351 . S
N214 N215 1.365 . S
N215 C212 1.341 1_545 S
N215 N214 1.365 . S
N215 H235 0.862 . S
C216 C211 1.501 . S
C216 H217 0.961 . S
C216 H218 0.961 . S
C216 H219 0.960 . S
H217 C216 0.961 . S
H218 C216 0.961 . S
H219 C216 0.960 . S
C220 N221 1.342 . S
C220 C224 1.401 . S
C220 C225 1.499 . S
N221 Co204 1.989 . S
N221 C220 1.342 . S
N221 N222 1.388 . S
N222 Co205 1.993 . S
N222 N221 1.388 . S
N222 C223 1.346 . S
C223 N222 1.346 . S
C223 C224 1.396 . S
C223 C233 1.510 . S
C224 C220 1.401 . S
C224 C223 1.396 . S
C225 C220 1.499 . S
C225 H226 0.959 . S
C225 H227 0.960 . S
C225 H228 0.961 . S
H226 C225 0.959 . S
H227 C225 0.960 . S
H228 C225 0.961 . S
O229 Co204 1.967 . S
O229 C237 1.258 . S
O230 Co205 1.941 . S
O230 C237 1.266 . S
H231 C233 0.959 . S
H232 C233 0.961 . S
C233 C223 1.510 . S
C233 H231 0.959 . S
C233 H232 0.961 . S
C233 H234 0.960 . S
H234 C233 0.960 . S
H235 N215 0.862 . S
O236 Co204 1.920 . S
O236 C209 1.289 . S
C237 O229 1.258 . S
C237 O230 1.266 . S
Co238 O241 1.970 . S
Co238 N255 1.989 . S
Co238 O263 1.967 . S
Co238 O270 1.920 . S
Co239 O242 1.966 . S
Co239 N248 2.022 . S
Co239 N256 1.993 . S
Co239 O264 1.941 . S
C240 O241 1.258 . S
C240 O242 1.263 . S
O241 Co238 1.970 . S
O241 C240 1.258 . S
O242 Co239 1.966 . S
O242 C240 1.263 . S
C243 O244 1.235 . S
C243 O270 1.289 . S
O244 C243 1.235 . S
C245 C247 1.400 . S
C245 N248 1.351 . S
C245 C250 1.501 . S
C246 C247 1.387 . S
C246 N249 1.341 . S
C247 C245 1.400 . S
C247 C246 1.387 . S
N248 Co239 2.022 . S
N248 C245 1.351 . S
N248 N249 1.365 . S
N249 C246 1.341 . S
N249 N248 1.365 . S
N249 H269 0.862 . S
C250 C245 1.501 . S
C250 H251 0.961 . S
C250 H252 0.961 . S
C250 H253 0.960 . S
H251 C250 0.961 . S
H252 C250 0.961 . S
H253 C250 0.960 . S
C254 N255 1.342 . S
C254 C258 1.401 . S
C254 C259 1.499 . S
N255 Co238 1.989 . S
N255 C254 1.342 . S
N255 N256 1.388 . S
N256 Co239 1.993 . S
N256 N255 1.388 . S
N256 C257 1.346 . S
C257 N256 1.346 . S
C257 C258 1.396 . S
C257 C267 1.510 . S
C258 C254 1.401 . S
C258 C257 1.396 . S
C259 C254 1.499 . S
C259 H260 0.959 . S
C259 H261 0.960 . S
C259 H262 0.961 . S
H260 C259 0.959 . S
H261 C259 0.960 . S
H262 C259 0.961 . S
O263 Co238 1.967 . S
O263 C271 1.258 . S
O264 Co239 1.941 . S
O264 C271 1.266 . S
H265 C267 0.959 . S
H266 C267 0.961 . S
C267 C257 1.510 . S
C267 H265 0.959 . S
C267 H266 0.961 . S
C267 H268 0.960 . S
H268 C267 0.960 . S
H269 N249 0.862 . S
O270 Co238 1.920 . S
O270 C243 1.289 . S
C271 O263 1.258 . S
C271 O264 1.266 . S
Co272 O275 1.970 . S
Co272 N289 1.989 . S
Co272 O297 1.967 . S
Co272 O304 1.920 . S
Co273 O276 1.966 . S
Co273 N282 2.022 . S
Co273 N290 1.993 . S
Co273 O298 1.941 . S
C274 O275 1.258 . S
C274 O276 1.263 . S
O275 Co272 1.970 . S
O275 C274 1.258 . S
O276 Co273 1.966 . S
O276 C274 1.263 . S
C277 O278 1.235 . S
C277 O304 1.289 . S
O278 C277 1.235 . S
C279 C281 1.400 . S
C279 N282 1.351 . S
C279 C284 1.501 . S
C280 C281 1.387 1_545 S
C280 N283 1.341 1_545 S
C281 C279 1.400 . S
C281 C280 1.387 1_565 S
N282 Co273 2.022 . S
N282 C279 1.351 . S
N282 N283 1.365 . S
N283 C280 1.341 1_565 S
N283 N282 1.365 . S
N283 H303 0.862 . S
C284 C279 1.501 . S
C284 H285 0.961 . S
C284 H286 0.961 . S
C284 H287 0.960 . S
H285 C284 0.961 . S
H286 C284 0.961 . S
H287 C284 0.960 . S
C288 N289 1.342 . S
C288 C292 1.401 . S
C288 C293 1.499 . S
N289 Co272 1.989 . S
N289 C288 1.342 . S
N289 N290 1.388 . S
N290 Co273 1.993 . S
N290 N289 1.388 . S
N290 C291 1.346 . S
C291 N290 1.346 . S
C291 C292 1.396 . S
C291 C301 1.510 . S
C292 C288 1.401 . S
C292 C291 1.396 . S
C293 C288 1.499 . S
C293 H294 0.959 . S
C293 H295 0.960 . S
C293 H296 0.961 . S
H294 C293 0.959 . S
H295 C293 0.960 . S
H296 C293 0.961 . S
O297 Co272 1.967 . S
O297 C305 1.258 . S
O298 Co273 1.941 . S
O298 C305 1.266 . S
H299 C301 0.959 . S
H300 C301 0.961 . S
C301 C291 1.510 . S
C301 H299 0.959 . S
C301 H300 0.961 . S
C301 H302 0.960 . S
H302 C301 0.960 . S
H303 N283 0.862 . S
O304 Co272 1.920 . S
O304 C277 1.289 . S
C305 O297 1.258 . S
C305 O298 1.266 . S
Co306 O309 1.970 . S
Co306 N323 1.989 . S
Co306 O331 1.967 . S
Co306 O338 1.920 . S
Co307 O310 1.966 . S
Co307 N316 2.022 . S
Co307 N324 1.993 . S
Co307 O332 1.941 . S
C308 O309 1.258 . S
C308 O310 1.263 . S
O309 Co306 1.970 . S
O309 C308 1.258 . S
O310 Co307 1.966 . S
O310 C308 1.263 . S
C311 O312 1.235 . S
C311 O338 1.289 . S
O312 C311 1.235 . S
C313 C315 1.400 . S
C313 N316 1.351 . S
C313 C318 1.501 . S
C314 C315 1.387 . S
C314 N317 1.341 . S
C315 C313 1.400 . S
C315 C314 1.387 . S
N316 Co307 2.022 . S
N316 C313 1.351 . S
N316 N317 1.365 . S
N317 C314 1.341 . S
N317 N316 1.365 . S
N317 H337 0.862 . S
C318 C313 1.501 . S
C318 H319 0.961 . S
C318 H320 0.961 . S
C318 H321 0.960 . S
H319 C318 0.961 . S
H320 C318 0.961 . S
H321 C318 0.960 . S
C322 N323 1.342 . S
C322 C326 1.401 . S
C322 C327 1.499 . S
N323 Co306 1.989 . S
N323 C322 1.342 . S
N323 N324 1.388 . S
N324 Co307 1.993 . S
N324 N323 1.388 . S
N324 C325 1.346 . S
C325 N324 1.346 . S
C325 C326 1.396 . S
C325 C335 1.510 . S
C326 C322 1.401 . S
C326 C325 1.396 . S
C327 C322 1.499 . S
C327 H328 0.959 . S
C327 H329 0.960 . S
C327 H330 0.961 . S
H328 C327 0.959 . S
H329 C327 0.960 . S
H330 C327 0.961 . S
O331 Co306 1.967 . S
O331 C339 1.258 . S
O332 Co307 1.941 . S
O332 C339 1.266 . S
H333 C335 0.959 . S
H334 C335 0.961 . S
C335 C325 1.510 . S
C335 H333 0.959 . S
C335 H334 0.961 . S
C335 H336 0.960 . S
H336 C335 0.960 . S
H337 N317 0.862 . S
O338 Co306 1.920 . S
O338 C311 1.289 . S
C339 O331 1.258 . S
C339 O332 1.266 . S
Co340 O343 1.970 . S
Co340 N357 1.989 . S
Co340 O365 1.967 . S
Co340 O372 1.920 . S
Co341 O344 1.966 . S
Co341 N350 2.022 . S
Co341 N358 1.993 . S
Co341 O366 1.941 . S
C342 O343 1.258 . S
C342 O344 1.263 . S
O343 Co340 1.970 . S
O343 C342 1.258 . S
O344 Co341 1.966 . S
O344 C342 1.263 . S
C345 O346 1.235 . S
C345 O372 1.289 . S
O346 C345 1.235 . S
C347 C349 1.400 . S
C347 N350 1.351 . S
C347 C352 1.501 . S
C348 C349 1.387 . S
C348 N351 1.341 . S
C349 C347 1.400 . S
C349 C348 1.387 . S
N350 Co341 2.022 . S
N350 C347 1.351 . S
N350 N351 1.365 . S
N351 C348 1.341 . S
N351 N350 1.365 . S
N351 H371 0.862 . S
C352 C347 1.501 . S
C352 H353 0.961 . S
C352 H354 0.961 . S
C352 H355 0.960 . S
H353 C352 0.961 . S
H354 C352 0.961 . S
H355 C352 0.960 . S
C356 N357 1.342 . S
C356 C360 1.401 . S
C356 C361 1.499 . S
N357 Co340 1.989 . S
N357 C356 1.342 . S
N357 N358 1.388 . S
N358 Co341 1.993 . S
N358 N357 1.388 . S
N358 C359 1.346 . S
C359 N358 1.346 . S
C359 C360 1.396 . S
C359 C369 1.510 . S
C360 C356 1.401 . S
C360 C359 1.396 . S
C361 C356 1.499 . S
C361 H362 0.959 . S
C361 H363 0.960 . S
C361 H364 0.961 . S
H362 C361 0.959 . S
H363 C361 0.960 . S
H364 C361 0.961 . S
O365 Co340 1.967 . S
O365 C373 1.258 . S
O366 Co341 1.941 . S
O366 C373 1.266 . S
H367 C369 0.959 . S
H368 C369 0.961 . S
C369 C359 1.510 . S
C369 H367 0.959 . S
C369 H368 0.961 . S
C369 H370 0.960 . S
H370 C369 0.960 . S
H371 N351 0.862 . S
O372 Co340 1.920 . S
O372 C345 1.289 . S
C373 O365 1.258 . S
C373 O366 1.266 . S
Co374 O377 1.970 . S
Co374 N391 1.989 . S
Co374 O399 1.967 . S
Co374 O406 1.920 . S
Co375 O378 1.966 . S
Co375 N384 2.022 . S
Co375 N392 1.993 . S
Co375 O400 1.941 . S
C376 O377 1.258 . S
C376 O378 1.263 . S
O377 Co374 1.970 . S
O377 C376 1.258 . S
O378 Co375 1.966 . S
O378 C376 1.263 . S
C379 O380 1.235 . S
C379 O406 1.289 . S
O380 C379 1.235 . S
C381 C383 1.400 . S
C381 N384 1.351 . S
C381 C386 1.501 . S
C382 C383 1.387 1_455 S
C382 N385 1.341 1_455 S
C383 C381 1.400 . S
C383 C382 1.387 1_655 S
N384 Co375 2.022 . S
N384 C381 1.351 . S
N384 N385 1.365 . S
N385 C382 1.341 1_655 S
N385 N384 1.365 . S
N385 H405 0.862 . S
C386 C381 1.501 . S
C386 H387 0.961 . S
C386 H388 0.961 . S
C386 H389 0.960 . S
H387 C386 0.961 . S
H388 C386 0.961 . S
H389 C386 0.960 . S
C390 N391 1.342 . S
C390 C394 1.401 . S
C390 C395 1.499 . S
N391 Co374 1.989 . S
N391 C390 1.342 . S
N391 N392 1.388 . S
N392 Co375 1.993 . S
N392 N391 1.388 . S
N392 C393 1.346 . S
C393 N392 1.346 . S
C393 C394 1.396 . S
C393 C403 1.510 . S
C394 C390 1.401 . S
C394 C393 1.396 . S
C395 C390 1.499 . S
C395 H396 0.959 . S
C395 H397 0.960 . S
C395 H398 0.961 . S
H396 C395 0.959 . S
H397 C395 0.960 . S
H398 C395 0.961 . S
O399 Co374 1.967 . S
O399 C407 1.258 . S
O400 Co375 1.941 . S
O400 C407 1.266 . S
H401 C403 0.959 . S
H402 C403 0.961 . S
C403 C393 1.510 . S
C403 H401 0.959 . S
C403 H402 0.961 . S
C403 H404 0.960 . S
H404 C403 0.960 . S
H405 N385 0.862 . S
O406 Co374 1.920 . S
O406 C379 1.289 . S
C407 O399 1.258 . S
C407 O400 1.266 . S
Co408 O411 1.970 . S
Co408 N425 1.989 . S
Co408 O433 1.967 . S
Co408 O440 1.920 . S
Co409 O412 1.966 . S
Co409 N418 2.022 . S
Co409 N426 1.993 . S
Co409 O434 1.941 . S
C410 O411 1.258 . S
C410 O412 1.263 . S
O411 Co408 1.970 . S
O411 C410 1.258 . S
O412 Co409 1.966 . S
O412 C410 1.263 . S
C413 O414 1.235 . S
C413 O440 1.289 . S
O414 C413 1.235 . S
C415 C417 1.400 . S
C415 N418 1.351 . S
C415 C420 1.501 . S
C416 C417 1.387 . S
C416 N419 1.341 . S
C417 C415 1.400 . S
C417 C416 1.387 . S
N418 Co409 2.022 . S
N418 C415 1.351 . S
N418 N419 1.365 . S
N419 C416 1.341 . S
N419 N418 1.365 . S
N419 H439 0.862 . S
C420 C415 1.501 . S
C420 H421 0.961 . S
C420 H422 0.961 . S
C420 H423 0.960 . S
H421 C420 0.961 . S
H422 C420 0.961 . S
H423 C420 0.960 . S
C424 N425 1.342 . S
C424 C428 1.401 . S
C424 C429 1.499 . S
N425 Co408 1.989 . S
N425 C424 1.342 . S
N425 N426 1.388 . S
N426 Co409 1.993 . S
N426 N425 1.388 . S
N426 C427 1.346 . S
C427 N426 1.346 . S
C427 C428 1.396 . S
C427 C437 1.510 . S
C428 C424 1.401 . S
C428 C427 1.396 . S
C429 C424 1.499 . S
C429 H430 0.959 . S
C429 H431 0.960 . S
C429 H432 0.961 . S
H430 C429 0.959 . S
H431 C429 0.960 . S
H432 C429 0.961 . S
O433 Co408 1.967 . S
O433 C441 1.258 . S
O434 Co409 1.941 . S
O434 C441 1.266 . S
H435 C437 0.959 . S
H436 C437 0.961 . S
C437 C427 1.510 . S
C437 H435 0.959 . S
C437 H436 0.961 . S
C437 H438 0.960 . S
H438 C437 0.960 . S
H439 N419 0.862 . S
O440 Co408 1.920 . S
O440 C413 1.289 . S
C441 O433 1.258 . S
C441 O434 1.266 . S
Co442 O445 1.970 . S
Co442 N459 1.989 . S
Co442 O467 1.967 . S
Co442 O474 1.920 . S
Co443 O446 1.966 . S
Co443 N452 2.022 . S
Co443 N460 1.993 . S
Co443 O468 1.941 . S
C444 O445 1.258 . S
C444 O446 1.263 . S
O445 Co442 1.970 . S
O445 C444 1.258 . S
O446 Co443 1.966 . S
O446 C444 1.263 . S
C447 O448 1.235 . S
C447 O474 1.289 . S
O448 C447 1.235 . S
C449 C451 1.400 . S
C449 N452 1.351 . S
C449 C454 1.501 . S
C450 C451 1.387 1_455 S
C450 N453 1.341 1_455 S
C451 C449 1.400 . S
C451 C450 1.387 1_655 S
N452 Co443 2.022 . S
N452 C449 1.351 . S
N452 N453 1.365 . S
N453 C450 1.341 1_655 S
N453 N452 1.365 . S
N453 H473 0.862 . S
C454 C449 1.501 . S
C454 H455 0.961 . S
C454 H456 0.961 . S
C454 H457 0.960 . S
H455 C454 0.961 . S
H456 C454 0.961 . S
H457 C454 0.960 . S
C458 N459 1.342 . S
C458 C462 1.401 . S
C458 C463 1.499 . S
N459 Co442 1.989 . S
N459 C458 1.342 . S
N459 N460 1.388 . S
N460 Co443 1.993 . S
N460 N459 1.388 . S
N460 C461 1.346 . S
C461 N460 1.346 . S
C461 C462 1.396 . S
C461 C471 1.510 . S
C462 C458 1.401 . S
C462 C461 1.396 . S
C463 C458 1.499 . S
C463 H464 0.959 . S
C463 H465 0.960 . S
C463 H466 0.961 . S
H464 C463 0.959 . S
H465 C463 0.960 . S
H466 C463 0.961 . S
O467 Co442 1.967 . S
O467 C475 1.258 . S
O468 Co443 1.941 . S
O468 C475 1.266 . S
H469 C471 0.959 . S
H470 C471 0.961 . S
C471 C461 1.510 . S
C471 H469 0.959 . S
C471 H470 0.961 . S
C471 H472 0.960 . S
H472 C471 0.960 . S
H473 N453 0.862 . S
O474 Co442 1.920 . S
O474 C447 1.289 . S
C475 O467 1.258 . S
C475 O468 1.266 . S
Co476 O479 1.970 . S
Co476 N493 1.989 . S
Co476 O501 1.967 . S
Co476 O508 1.920 . S
Co477 O480 1.966 . S
Co477 N486 2.022 . S
Co477 N494 1.993 . S
Co477 O502 1.941 . S
C478 O479 1.258 . S
C478 O480 1.263 . S
O479 Co476 1.970 . S
O479 C478 1.258 . S
O480 Co477 1.966 . S
O480 C478 1.263 . S
C481 O482 1.235 . S
C481 O508 1.289 . S
O482 C481 1.235 . S
C483 C485 1.400 . S
C483 N486 1.351 . S
C483 C488 1.501 . S
C484 C485 1.387 1_545 S
C484 N487 1.341 1_545 S
C485 C483 1.400 . S
C485 C484 1.387 1_565 S
N486 Co477 2.022 . S
N486 C483 1.351 . S
N486 N487 1.365 . S
N487 C484 1.341 1_565 S
N487 N486 1.365 . S
N487 H507 0.862 . S
C488 C483 1.501 . S
C488 H489 0.961 . S
C488 H490 0.961 . S
C488 H491 0.960 . S
H489 C488 0.961 . S
H490 C488 0.961 . S
H491 C488 0.960 . S
C492 N493 1.342 . S
C492 C496 1.401 . S
C492 C497 1.499 . S
N493 Co476 1.989 . S
N493 C492 1.342 . S
N493 N494 1.388 . S
N494 Co477 1.993 . S
N494 N493 1.388 . S
N494 C495 1.346 . S
C495 N494 1.346 . S
C495 C496 1.396 . S
C495 C505 1.510 . S
C496 C492 1.401 . S
C496 C495 1.396 . S
C497 C492 1.499 . S
C497 H498 0.959 . S
C497 H499 0.960 . S
C497 H500 0.961 . S
H498 C497 0.959 . S
H499 C497 0.960 . S
H500 C497 0.961 . S
O501 Co476 1.967 . S
O501 C509 1.258 . S
O502 Co477 1.941 . S
O502 C509 1.266 . S
H503 C505 0.959 . S
H504 C505 0.961 . S
C505 C495 1.510 . S
C505 H503 0.959 . S
C505 H504 0.961 . S
C505 H506 0.960 . S
H506 C505 0.960 . S
H507 N487 0.862 . S
O508 Co476 1.920 . S
O508 C481 1.289 . S
C509 O501 1.258 . S
C509 O502 1.266 . S
Co510 O513 1.970 . S
Co510 N527 1.989 . S
Co510 O535 1.967 . S
Co510 O542 1.920 . S
Co511 O514 1.966 . S
Co511 N520 2.022 . S
Co511 N528 1.993 . S
Co511 O536 1.941 . S
C512 O513 1.258 . S
C512 O514 1.263 . S
O513 Co510 1.970 . S
O513 C512 1.258 . S
O514 Co511 1.966 . S
O514 C512 1.263 . S
C515 O516 1.235 . S
C515 O542 1.289 . S
O516 C515 1.235 . S
C517 C519 1.400 . S
C517 N520 1.351 . S
C517 C522 1.501 . S
C518 C519 1.387 . S
C518 N521 1.341 . S
C519 C517 1.400 . S
C519 C518 1.387 . S
N520 Co511 2.022 . S
N520 C517 1.351 . S
N520 N521 1.365 . S
N521 C518 1.341 . S
N521 N520 1.365 . S
N521 H541 0.862 . S
C522 C517 1.501 . S
C522 H523 0.961 . S
C522 H524 0.961 . S
C522 H525 0.960 . S
H523 C522 0.961 . S
H524 C522 0.961 . S
H525 C522 0.960 . S
C526 N527 1.342 . S
C526 C530 1.401 . S
C526 C531 1.499 . S
N527 Co510 1.989 . S
N527 C526 1.342 . S
N527 N528 1.388 . S
N528 Co511 1.993 . S
N528 N527 1.388 . S
N528 C529 1.346 . S
C529 N528 1.346 . S
C529 C530 1.396 . S
C529 C539 1.510 . S
C530 C526 1.401 . S
C530 C529 1.396 . S
C531 C526 1.499 . S
C531 H532 0.959 . S
C531 H533 0.960 . S
C531 H534 0.961 . S
H532 C531 0.959 . S
H533 C531 0.960 . S
H534 C531 0.961 . S
O535 Co510 1.967 . S
O535 C543 1.258 . S
O536 Co511 1.941 . S
O536 C543 1.266 . S
H537 C539 0.959 . S
H538 C539 0.961 . S
C539 C529 1.510 . S
C539 H537 0.959 . S
C539 H538 0.961 . S
C539 H540 0.960 . S
H540 C539 0.960 . S
H541 N521 0.862 . S
O542 Co510 1.920 . S
O542 C515 1.289 . S
C543 O535 1.258 . S
C543 O536 1.266 . S
H544 C550 0.930 . S
H545 C554 0.930 . S
H546 C559 0.929 . S
H547 C557 0.929 . S
H548 C552 0.929 . S
H549 C558 0.929 . S
C550 H544 0.930 . S
C550 C551 1.367 . S
C550 C558 1.378 . S
C551 C550 1.367 . S
C551 C559 1.433 . S
C552 H548 0.929 . S
C552 C554 1.378 . S
C552 C556 1.350 . S
C553 C556 1.463 . S
C553 C558 1.350 . S
C553 N561 1.427 . S
C554 H545 0.930 . S
C554 C552 1.378 . S
C554 C555 1.367 . S
C555 C554 1.367 . S
C555 C557 1.433 . S
C556 C552 1.350 . S
C556 C553 1.463 . S
C556 N560 1.427 . S
C557 H547 0.929 . S
C557 C555 1.433 . S
C557 N560 1.384 . S
C558 H549 0.929 . S
C558 C550 1.378 . S
C558 C553 1.350 . S
C559 H546 0.929 . S
C559 C551 1.433 . S
C559 N561 1.384 . S
N560 C556 1.427 . S
N560 C557 1.384 . S
N561 C553 1.427 . S
N561 C559 1.384 . S
H562 C568 0.930 . S
H563 C572 0.930 . S
H564 C577 0.929 . S
H565 C575 0.929 . S
H566 C570 0.929 . S
H567 C576 0.929 . S
C568 H562 0.930 . S
C568 C569 1.367 . S
C568 C576 1.378 . S
C569 C568 1.367 . S
C569 C577 1.433 . S
C570 H566 0.929 . S
C570 C572 1.378 . S
C570 C574 1.350 . S
C571 C574 1.463 . S
C571 C576 1.350 . S
C571 N579 1.427 . S
C572 H563 0.930 . S
C572 C570 1.378 . S
C572 C573 1.367 . S
C573 C572 1.367 . S
C573 C575 1.433 . S
C574 C570 1.350 . S
C574 C571 1.463 . S
C574 N578 1.427 . S
C575 H565 0.929 . S
C575 C573 1.433 . S
C575 N578 1.384 . S
C576 H567 0.929 . S
C576 C568 1.378 . S
C576 C571 1.350 . S
C577 H564 0.929 . S
C577 C569 1.433 . S
C577 N579 1.384 . S
N578 C574 1.427 . S
N578 C575 1.384 . S
N579 C571 1.427 . S
N579 C577 1.384 . S
H580 C586 0.930 . S
H581 C590 0.930 . S
H582 C595 0.929 . S
H583 C593 0.929 . S
H584 C588 0.929 . S
H585 C594 0.929 . S
C586 H580 0.930 . S
C586 C587 1.367 . S
C586 C594 1.378 . S
C587 C586 1.367 . S
C587 C595 1.433 . S
C588 H584 0.929 . S
C588 C590 1.378 . S
C588 C592 1.350 . S
C589 C592 1.463 . S
C589 C594 1.350 . S
C589 N597 1.427 . S
C590 H581 0.930 . S
C590 C588 1.378 . S
C590 C591 1.367 . S
C591 C590 1.367 . S
C591 C593 1.433 . S
C592 C588 1.350 . S
C592 C589 1.463 . S
C592 N596 1.427 . S
C593 H583 0.929 . S
C593 C591 1.433 . S
C593 N596 1.384 . S
C594 H585 0.929 . S
C594 C586 1.378 . S
C594 C589 1.350 . S
C595 H582 0.929 . S
C595 C587 1.433 . S
C595 N597 1.384 . S
N596 C592 1.427 . S
N596 C593 1.384 . S
N597 C589 1.427 . S
N597 C595 1.384 . S
H598 C604 0.930 . S
H599 C608 0.930 . S
H600 C613 0.929 . S
H601 C611 0.929 . S
H602 C606 0.929 . S
H603 C612 0.929 . S
C604 H598 0.930 . S
C604 C605 1.367 . S
C604 C612 1.378 . S
C605 C604 1.367 . S
C605 C613 1.433 . S
C606 H602 0.929 . S
C606 C608 1.378 . S
C606 C610 1.350 . S
C607 C610 1.463 . S
C607 C612 1.350 . S
C607 N615 1.427 . S
C608 H599 0.930 . S
C608 C606 1.378 . S
C608 C609 1.367 . S
C609 C608 1.367 . S
C609 C611 1.433 . S
C610 C606 1.350 . S
C610 C607 1.463 . S
C610 N614 1.427 . S
C611 H601 0.929 . S
C611 C609 1.433 . S
C611 N614 1.384 . S
C612 H603 0.929 . S
C612 C604 1.378 . S
C612 C607 1.350 . S
C613 H600 0.929 . S
C613 C605 1.433 . S
C613 N615 1.384 . S
N614 C610 1.427 . S
N614 C611 1.384 . S
N615 C607 1.427 . S
N615 C613 1.384 . S
H616 C622 0.930 . S
H617 C626 0.930 . S
H618 C631 0.929 . S
H619 C629 0.929 . S
H620 C624 0.929 . S
H621 C630 0.929 . S
C622 H616 0.930 . S
C622 C623 1.367 . S
C622 C630 1.378 . S
C623 C622 1.367 . S
C623 C631 1.433 . S
C624 H620 0.929 . S
C624 C626 1.378 . S
C624 C628 1.350 . S
C625 C628 1.463 . S
C625 C630 1.350 . S
C625 N633 1.427 . S
C626 H617 0.930 . S
C626 C624 1.378 . S
C626 C627 1.367 . S
C627 C626 1.367 . S
C627 C629 1.433 . S
C628 C624 1.350 . S
C628 C625 1.463 . S
C628 N632 1.427 . S
C629 H619 0.929 . S
C629 C627 1.433 . S
C629 N632 1.384 . S
C630 H621 0.929 . S
C630 C622 1.378 . S
C630 C625 1.350 . S
C631 H618 0.929 . S
C631 C623 1.433 . S
C631 N633 1.384 . S
N632 C628 1.427 . S
N632 C629 1.384 . S
N633 C625 1.427 . S
N633 C631 1.384 . S
H634 C640 0.930 . S
H635 C644 0.930 . S
H636 C649 0.929 . S
H637 C647 0.929 . S
H638 C642 0.929 . S
H639 C648 0.929 . S
C640 H634 0.930 . S
C640 C641 1.367 . S
C640 C648 1.378 . S
C641 C640 1.367 . S
C641 C649 1.433 . S
C642 H638 0.929 . S
C642 C644 1.378 . S
C642 C646 1.350 . S
C643 C646 1.463 . S
C643 C648 1.350 . S
C643 N651 1.427 . S
C644 H635 0.930 . S
C644 C642 1.378 . S
C644 C645 1.367 . S
C645 C644 1.367 . S
C645 C647 1.433 . S
C646 C642 1.350 . S
C646 C643 1.463 . S
C646 N650 1.427 . S
C647 H637 0.929 . S
C647 C645 1.433 . S
C647 N650 1.384 . S
C648 H639 0.929 . S
C648 C640 1.378 . S
C648 C643 1.350 . S
C649 H636 0.929 . S
C649 C641 1.433 . S
C649 N651 1.384 . S
N650 C646 1.427 . S
N650 C647 1.384 . S
N651 C643 1.427 . S
N651 C649 1.384 . S
H652 C658 0.930 . S
H653 C662 0.930 . S
H654 C667 0.929 . S
H655 C665 0.929 . S
H656 C660 0.929 . S
H657 C666 0.929 . S
C658 H652 0.930 . S
C658 C659 1.367 . S
C658 C666 1.378 . S
C659 C658 1.367 . S
C659 C667 1.433 . S
C660 H656 0.929 . S
C660 C662 1.378 . S
C660 C664 1.350 . S
C661 C664 1.463 . S
C661 C666 1.350 . S
C661 N669 1.427 . S
C662 H653 0.930 . S
C662 C660 1.378 . S
C662 C663 1.367 . S
C663 C662 1.367 . S
C663 C665 1.433 . S
C664 C660 1.350 . S
C664 C661 1.463 . S
C664 N668 1.427 . S
C665 H655 0.929 . S
C665 C663 1.433 . S
C665 N668 1.384 . S
C666 H657 0.929 . S
C666 C658 1.378 . S
C666 C661 1.350 . S
C667 H654 0.929 . S
C667 C659 1.433 . S
C667 N669 1.384 . S
N668 C664 1.427 . S
N668 C665 1.384 . S
N669 C661 1.427 . S
N669 C667 1.384 . S
H670 C676 0.930 . S
H671 C680 0.930 . S
H672 C685 0.929 . S
H673 C683 0.929 . S
H674 C678 0.929 . S
H675 C684 0.929 . S
C676 H670 0.930 . S
C676 C677 1.367 . S
C676 C684 1.378 . S
C677 C676 1.367 . S
C677 C685 1.433 . S
C678 H674 0.929 . S
C678 C680 1.378 . S
C678 C682 1.350 . S
C679 C682 1.463 . S
C679 C684 1.350 . S
C679 N687 1.427 . S
C680 H671 0.930 . S
C680 C678 1.378 . S
C680 C681 1.367 . S
C681 C680 1.367 . S
C681 C683 1.433 . S
C682 C678 1.350 . S
C682 C679 1.463 . S
C682 N686 1.427 . S
C683 H673 0.929 . S
C683 C681 1.433 . S
C683 N686 1.384 . S
C684 H675 0.929 . S
C684 C676 1.378 . S
C684 C679 1.350 . S
C685 H672 0.929 . S
C685 C677 1.433 . S
C685 N687 1.384 . S
N686 C682 1.427 . S
N686 C683 1.384 . S
N687 C679 1.427 . S
N687 C685 1.384 . S
H688 C694 0.930 . S
H689 C698 0.930 . S
H690 C703 0.929 . S
H691 C701 0.929 . S
H692 C696 0.929 1_556 S
H693 C702 0.929 1_554 S
C694 H688 0.930 . S
C694 C695 1.367 . S
C694 C702 1.378 . S
C695 C694 1.367 . S
C695 C703 1.433 1_565 S
C696 H692 0.929 1_554 S
C696 C698 1.378 . S
C696 C700 1.350 . S
C697 C700 1.463 1_566 S
C697 C702 1.350 . S
C697 N705 1.427 1_565 S
C698 H689 0.930 . S
C698 C696 1.378 . S
C698 C699 1.367 . S
C699 C698 1.367 . S
C699 C701 1.433 1_545 S
C700 C696 1.350 . S
C700 C697 1.463 1_544 S
C700 N704 1.427 1_545 S
C701 H691 0.929 . S
C701 C699 1.433 1_565 S
C701 N704 1.384 . S
C702 H693 0.929 1_556 S
C702 C694 1.378 . S
C702 C697 1.350 . S
C703 H690 0.929 . S
C703 C695 1.433 1_545 S
C703 N705 1.384 . S
N704 C700 1.427 1_565 S
N704 C701 1.384 . S
N705 C697 1.427 1_545 S
N705 C703 1.384 . S
H706 C712 0.930 . S
H707 C716 0.930 . S
H708 C721 0.929 . S
H709 C719 0.929 . S
H710 C714 0.929 . S
H711 C720 0.929 . S
C712 H706 0.930 . S
C712 C713 1.367 . S
C712 C720 1.378 . S
C713 C712 1.367 . S
C713 C721 1.433 . S
C714 H710 0.929 . S
C714 C716 1.378 . S
C714 C718 1.350 . S
C715 C718 1.463 1_556 S
C715 C720 1.350 . S
C715 N723 1.427 1_556 S
C716 H707 0.930 . S
C716 C714 1.378 . S
C716 C717 1.367 . S
C717 C716 1.367 . S
C717 C719 1.433 . S
C718 C714 1.350 . S
C718 C715 1.463 1_554 S
C718 N722 1.427 1_554 S
C719 H709 0.929 . S
C719 C717 1.433 . S
C719 N722 1.384 1_554 S
C720 H711 0.929 . S
C720 C712 1.378 . S
C720 C715 1.350 . S
C721 H708 0.929 . S
C721 C713 1.433 . S
C721 N723 1.384 1_556 S
N722 C718 1.427 1_556 S
N722 C719 1.384 1_556 S
N723 C715 1.427 1_554 S
N723 C721 1.384 1_554 S
H724 C730 0.930 . S
H725 C734 0.930 . S
H726 C739 0.929 . S
H727 C737 0.929 . S
H728 C732 0.929 1_455 S
H729 C738 0.929 1_655 S
C730 H724 0.930 . S
C730 C731 1.367 . S
C730 C738 1.378 . S
C731 C730 1.367 . S
C731 C739 1.433 . S
C732 H728 0.929 1_655 S
C732 C734 1.378 . S
C732 C736 1.350 . S
C733 C736 1.463 1_456 S
C733 C738 1.350 . S
C733 N741 1.427 1_556 S
C734 H725 0.930 . S
C734 C732 1.378 . S
C734 C735 1.367 . S
C735 C734 1.367 . S
C735 C737 1.433 . S
C736 C732 1.350 . S
C736 C733 1.463 1_654 S
C736 N740 1.427 1_554 S
C737 H727 0.929 . S
C737 C735 1.433 . S
C737 N740 1.384 1_554 S
C738 H729 0.929 1_455 S
C738 C730 1.378 . S
C738 C733 1.350 . S
C739 H726 0.929 . S
C739 C731 1.433 . S
C739 N741 1.384 1_556 S
N740 C736 1.427 1_556 S
N740 C737 1.384 1_556 S
N741 C733 1.427 1_554 S
N741 C739 1.384 1_554 S
H742 C748 0.930 . S
H743 C752 0.930 . S
H744 C757 0.929 . S
H745 C755 0.929 . S
H746 C750 0.929 . S
H747 C756 0.929 . S
C748 H742 0.930 . S
C748 C749 1.367 1_455 S
C748 C756 1.378 . S
C749 C748 1.367 1_655 S
C749 C757 1.433 . S
C750 H746 0.929 . S
C750 C752 1.378 . S
C750 C754 1.353 . S
C751 C754 1.462 1_446 S
C751 C756 1.353 . S
C751 N759 1.424 1_455 S
C752 H743 0.930 . S
C752 C750 1.378 . S
C752 C753 1.367 1_655 S
C753 C752 1.367 1_455 S
C753 C755 1.433 . S
C754 C750 1.353 . S
C754 C751 1.462 1_664 S
C754 N758 1.424 1_655 S
C755 H745 0.929 . S
C755 C753 1.433 . S
C755 N758 1.384 . S
C756 H747 0.929 . S
C756 C748 1.378 . S
C756 C751 1.353 . S
C757 H744 0.929 . S
C757 C749 1.433 . S
C757 N759 1.384 . S
N758 C754 1.424 1_455 S
N758 C755 1.384 . S
N759 C751 1.424 1_655 S
N759 C757 1.384 . S
H760 C766 0.930 . S
H761 C770 0.930 . S
H762 C775 0.929 . S
H763 C773 0.929 . S
H764 C768 0.929 . S
H765 C774 0.929 . S
C766 H760 0.930 . S
C766 C767 1.367 . S
C766 C774 1.378 . S
C767 C766 1.367 . S
C767 C775 1.433 . S
C768 H764 0.929 . S
C768 C770 1.378 . S
C768 C772 1.350 . S
C769 C772 1.463 . S
C769 C774 1.350 . S
C769 N777 1.427 . S
C770 H761 0.930 . S
C770 C768 1.378 . S
C770 C771 1.367 . S
C771 C770 1.367 . S
C771 C773 1.433 . S
C772 C768 1.350 . S
C772 C769 1.463 . S
C772 N776 1.427 . S
C773 H763 0.929 . S
C773 C771 1.433 . S
C773 N776 1.384 . S
C774 H765 0.929 . S
C774 C766 1.378 . S
C774 C769 1.350 . S
C775 H762 0.929 . S
C775 C767 1.433 . S
C775 N777 1.384 . S
N776 C772 1.427 . S
N776 C773 1.384 . S
N777 C769 1.427 . S
N777 C775 1.384 . S
H778 C784 0.930 . S
H779 C788 0.930 . S
H780 C793 0.929 . S
H781 C791 0.929 . S
H782 C786 0.929 . S
H783 C792 0.929 . S
C784 H778 0.930 . S
C784 C785 1.367 1_455 S
C784 C792 1.378 . S
C785 C784 1.367 1_655 S
C785 C793 1.433 . S
C786 H782 0.929 . S
C786 C788 1.378 . S
C786 C790 1.351 1_655 S
C787 C790 1.463 1_655 S
C787 C792 1.351 1_655 S
C787 N795 1.426 . S
C788 H779 0.930 . S
C788 C786 1.378 . S
C788 C789 1.367 1_655 S
C789 C788 1.367 1_455 S
C789 C791 1.433 . S
C790 C786 1.351 1_455 S
C790 C787 1.463 1_455 S
C790 N794 1.426 . S
C791 H781 0.929 . S
C791 C789 1.433 . S
C791 N794 1.384 . S
C792 H783 0.929 . S
C792 C784 1.378 . S
C792 C787 1.351 1_455 S
C793 H780 0.929 . S
C793 C785 1.433 . S
C793 N795 1.384 . S
N794 C790 1.426 . S
N794 C791 1.384 . S
N795 C787 1.426 . S
N795 C793 1.384 . S
H796 C802 0.930 . S
H797 C806 0.930 . S
H798 C811 0.929 . S
H799 C809 0.929 . S
H800 C804 0.929 . S
H801 C810 0.929 . S
C802 H796 0.930 . S
C802 C803 1.367 . S
C802 C810 1.378 . S
C803 C802 1.367 . S
C803 C811 1.433 1_545 S
C804 H800 0.929 . S
C804 C806 1.378 . S
C804 C808 1.350 . S
C805 C808 1.463 1_645 S
C805 C810 1.350 . S
C805 N813 1.427 1_545 S
C806 H797 0.930 . S
C806 C804 1.378 . S
C806 C807 1.367 . S
C807 C806 1.367 . S
C807 C809 1.433 1_565 S
C808 C804 1.350 . S
C808 C805 1.463 1_465 S
C808 N812 1.427 1_565 S
C809 H799 0.929 . S
C809 C807 1.433 1_545 S
C809 N812 1.384 . S
C810 H801 0.929 . S
C810 C802 1.378 . S
C810 C805 1.350 . S
C811 H798 0.929 . S
C811 C803 1.433 1_565 S
C811 N813 1.384 . S
N812 C808 1.427 1_545 S
N812 C809 1.384 . S
N813 C805 1.427 1_565 S
N813 C811 1.384 . S
H814 C820 0.930 . S
H815 C824 0.930 . S
H816 C829 0.929 . S
H817 C827 0.929 . S
H818 C822 0.929 . S
H819 C828 0.929 . S
C820 H814 0.930 . S
C820 C821 1.367 . S
C820 C828 1.378 . S
C821 C820 1.367 . S
C821 C829 1.433 . S
C822 H818 0.929 . S
C822 C824 1.378 . S
C822 C826 1.350 . S
C823 C826 1.463 1_565 S
C823 C828 1.350 . S
C823 N831 1.427 . S
C824 H815 0.930 . S
C824 C822 1.378 . S
C824 C825 1.367 . S
C825 C824 1.367 . S
C825 C827 1.433 . S
C826 C822 1.350 . S
C826 C823 1.463 1_545 S
C826 N830 1.427 . S
C827 H817 0.929 . S
C827 C825 1.433 . S
C827 N830 1.384 . S
C828 H819 0.929 . S
C828 C820 1.378 . S
C828 C823 1.350 . S
C829 H816 0.929 . S
C829 C821 1.433 . S
C829 N831 1.384 . S
N830 C826 1.427 . S
N830 C827 1.384 . S
N831 C823 1.427 . S
N831 C829 1.384 . S
H832 C838 0.930 . S
H833 C842 0.930 . S
H834 C847 0.929 . S
H835 C845 0.929 . S
H836 C840 0.929 . S
H837 C846 0.929 . S
C838 H832 0.930 . S
C838 C839 1.367 . S
C838 C846 1.378 . S
C839 C838 1.367 . S
C839 C847 1.433 . S
C840 H836 0.929 . S
C840 C842 1.378 . S
C840 C844 1.350 . S
C841 C844 1.463 1_556 S
C841 C846 1.350 . S
C841 N849 1.427 . S
C842 H833 0.930 . S
C842 C840 1.378 . S
C842 C843 1.367 . S
C843 C842 1.367 . S
C843 C845 1.433 . S
C844 C840 1.350 . S
C844 C841 1.463 1_554 S
C844 N848 1.427 . S
C845 H835 0.929 . S
C845 C843 1.433 . S
C845 N848 1.384 . S
C846 H837 0.929 . S
C846 C838 1.378 . S
C846 C841 1.350 . S
C847 H834 0.929 . S
C847 C839 1.433 . S
C847 N849 1.384 . S
N848 C844 1.427 . S
N848 C845 1.384 . S
N849 C841 1.427 . S
N849 C847 1.384 . S
H850 C856 0.930 . S
H851 C860 0.930 1_556 S
H852 C865 0.929 . S
H853 C863 0.929 . S
H854 C858 0.929 . S
H855 C864 0.929 . S
C856 H850 0.930 . S
C856 C857 1.367 1_554 S
C856 C864 1.378 . S
C857 C856 1.367 1_556 S
C857 C865 1.433 . S
C858 H854 0.929 . S
C858 C860 1.378 1_556 S
C858 C862 1.350 1_556 S
C859 C862 1.463 1_556 S
C859 C864 1.350 1_556 S
C859 N867 1.427 . S
C860 H851 0.930 1_554 S
C860 C858 1.378 1_554 S
C860 C861 1.367 . S
C861 C860 1.367 . S
C861 C863 1.433 . S
C862 C858 1.350 1_554 S
C862 C859 1.463 1_554 S
C862 N866 1.427 . S
C863 H853 0.929 . S
C863 C861 1.433 . S
C863 N866 1.384 . S
C864 H855 0.929 . S
C864 C856 1.378 . S
C864 C859 1.350 1_554 S
C865 H852 0.929 . S
C865 C857 1.433 . S
C865 N867 1.384 . S
N866 C862 1.427 . S
N866 C863 1.384 . S
N867 C859 1.427 . S
N867 C865 1.384 . S
H868 C874 0.930 . S
H869 C878 0.930 . S
H870 C883 0.929 1_554 S
H871 C881 0.929 . S
H872 C876 0.929 . S
H873 C882 0.929 . S
C874 H868 0.930 . S
C874 C875 1.367 . S
C874 C882 1.378 . S
C875 C874 1.367 . S
C875 C883 1.433 . S
C876 H872 0.929 . S
C876 C878 1.378 . S
C876 C880 1.350 . S
C877 C880 1.463 1_556 S
C877 C882 1.350 . S
C877 N885 1.427 1_556 S
C878 H869 0.930 . S
C878 C876 1.378 . S
C878 C879 1.367 . S
C879 C878 1.367 . S
C879 C881 1.433 . S
C880 C876 1.350 . S
C880 C877 1.463 1_554 S
C880 N884 1.427 1_554 S
C881 H871 0.929 . S
C881 C879 1.433 . S
C881 N884 1.384 1_554 S
C882 H873 0.929 . S
C882 C874 1.378 . S
C882 C877 1.350 . S
C883 H870 0.929 1_556 S
C883 C875 1.433 . S
C883 N885 1.384 1_556 S
N884 C880 1.427 1_556 S
N884 C881 1.384 1_556 S
N885 C877 1.427 1_554 S
N885 C883 1.384 1_554 S
H886 C892 0.930 . S
H887 C896 0.930 . S
H888 C901 0.929 1_554 S
H889 C899 0.929 . S
H890 C894 0.929 . S
H891 C900 0.929 . S
C892 H886 0.930 . S
C892 C893 1.367 . S
C892 C900 1.378 . S
C893 C892 1.367 . S
C893 C901 1.433 . S
C894 H890 0.929 . S
C894 C896 1.378 . S
C894 C898 1.350 . S
C895 C898 1.463 1_556 S
C895 C900 1.350 . S
C895 N903 1.427 1_556 S
C896 H887 0.930 . S
C896 C894 1.378 . S
C896 C897 1.367 . S
C897 C896 1.367 . S
C897 C899 1.433 . S
C898 C894 1.350 . S
C898 C895 1.463 1_554 S
C898 N902 1.427 1_554 S
C899 H889 0.929 . S
C899 C897 1.433 . S
C899 N902 1.384 1_554 S
C900 H891 0.929 . S
C900 C892 1.378 . S
C900 C895 1.350 . S
C901 H888 0.929 1_556 S
C901 C893 1.433 . S
C901 N903 1.384 1_556 S
N902 C898 1.427 1_556 S
N902 C899 1.384 1_556 S
N903 C895 1.427 1_554 S
N903 C901 1.384 1_554 S
H904 C910 0.930 . S
H905 C914 0.930 . S
H906 C919 0.929 . S
H907 C917 0.929 . S
H908 C912 0.929 . S
H909 C918 0.929 . S
C910 H904 0.930 . S
C910 C911 1.367 . S
C910 C918 1.378 . S
C911 C910 1.367 . S
C911 C919 1.433 . S
C912 H908 0.929 . S
C912 C914 1.378 . S
C912 C916 1.350 . S
C913 C916 1.463 . S
C913 C918 1.350 . S
C913 N921 1.427 . S
C914 H905 0.930 . S
C914 C912 1.378 . S
C914 C915 1.367 . S
C915 C914 1.367 . S
C915 C917 1.433 . S
C916 C912 1.350 . S
C916 C913 1.463 . S
C916 N920 1.427 . S
C917 H907 0.929 . S
C917 C915 1.433 . S
C917 N920 1.384 . S
C918 H909 0.929 . S
C918 C910 1.378 . S
C918 C913 1.350 . S
C919 H906 0.929 . S
C919 C911 1.433 . S
C919 N921 1.384 . S
N920 C916 1.427 . S
N920 C917 1.384 . S
N921 C913 1.427 . S
N921 C919 1.384 . S
H922 C928 0.930 . S
H923 C932 0.930 . S
H924 C937 0.929 . S
H925 C935 0.929 . S
H926 C930 0.929 . S
H927 C936 0.929 . S
C928 H922 0.930 . S
C928 C929 1.367 . S
C928 C936 1.378 . S
C929 C928 1.367 . S
C929 C937 1.433 . S
C930 H926 0.929 . S
C930 C932 1.378 . S
C930 C934 1.350 . S
C931 C934 1.463 . S
C931 C936 1.350 . S
C931 N939 1.427 . S
C932 H923 0.930 . S
C932 C930 1.378 . S
C932 C933 1.367 . S
C933 C932 1.367 . S
C933 C935 1.433 . S
C934 C930 1.350 . S
C934 C931 1.463 . S
C934 N938 1.427 . S
C935 H925 0.929 . S
C935 C933 1.433 . S
C935 N938 1.384 . S
C936 H927 0.929 . S
C936 C928 1.378 . S
C936 C931 1.350 . S
C937 H924 0.929 . S
C937 C929 1.433 . S
C937 N939 1.384 . S
N938 C934 1.427 . S
N938 C935 1.384 . S
N939 C931 1.427 . S
N939 C937 1.384 . S
H940 C946 0.930 . S
H941 C950 0.930 . S
H942 C955 0.929 . S
H943 C953 0.929 . S
H944 C948 0.929 . S
H945 C954 0.929 . S
C946 H940 0.930 . S
C946 C947 1.367 . S
C946 C954 1.378 . S
C947 C946 1.367 . S
C947 C955 1.433 . S
C948 H944 0.929 . S
C948 C950 1.378 . S
C948 C952 1.350 . S
C949 C952 1.463 . S
C949 C954 1.350 . S
C949 N957 1.427 . S
C950 H941 0.930 . S
C950 C948 1.378 . S
C950 C951 1.367 . S
C951 C950 1.367 . S
C951 C953 1.433 . S
C952 C948 1.350 . S
C952 C949 1.463 . S
C952 N956 1.427 . S
C953 H943 0.929 . S
C953 C951 1.433 . S
C953 N956 1.384 . S
C954 H945 0.929 . S
C954 C946 1.378 . S
C954 C949 1.350 . S
C955 H942 0.929 . S
C955 C947 1.433 . S
C955 N957 1.384 . S
N956 C952 1.427 . S
N956 C953 1.384 . S
N957 C949 1.427 . S
N957 C955 1.384 . S
H958 C964 0.930 . S
H959 C968 0.930 . S
H960 C973 0.929 . S
H961 C971 0.929 . S
H962 C966 0.929 . S
H963 C972 0.929 . S
C964 H958 0.930 . S
C964 C965 1.367 . S
C964 C972 1.378 . S
C965 C964 1.367 . S
C965 C973 1.433 . S
C966 H962 0.929 . S
C966 C968 1.378 . S
C966 C970 1.350 . S
C967 C970 1.463 . S
C967 C972 1.350 . S
C967 N975 1.427 . S
C968 H959 0.930 . S
C968 C966 1.378 . S
C968 C969 1.367 . S
C969 C968 1.367 . S
C969 C971 1.433 . S
C970 C966 1.350 . S
C970 C967 1.463 . S
C970 N974 1.427 . S
C971 H961 0.929 . S
C971 C969 1.433 . S
C971 N974 1.384 . S
C972 H963 0.929 . S
C972 C964 1.378 . S
C972 C967 1.350 . S
C973 H960 0.929 . S
C973 C965 1.433 . S
C973 N975 1.384 . S
N974 C970 1.427 . S
N974 C971 1.384 . S
N975 C967 1.427 . S
N975 C973 1.384 . S
H976 C982 0.930 . S
H977 C986 0.930 . S
H978 C991 0.929 . S
H979 C989 0.929 . S
H980 C984 0.929 . S
H981 C990 0.929 . S
C982 H976 0.930 . S
C982 C983 1.367 . S
C982 C990 1.378 . S
C983 C982 1.367 . S
C983 C991 1.433 . S
C984 H980 0.929 . S
C984 C986 1.378 . S
C984 C988 1.350 . S
C985 C988 1.463 1_554 S
C985 C990 1.350 . S
C985 N993 1.427 . S
C986 H977 0.930 . S
C986 C984 1.378 . S
C986 C987 1.367 . S
C987 C986 1.367 . S
C987 C989 1.433 . S
C988 C984 1.350 . S
C988 C985 1.463 1_556 S
C988 N992 1.427 . S
C989 H979 0.929 . S
C989 C987 1.433 . S
C989 N992 1.384 . S
C990 H981 0.929 . S
C990 C982 1.378 . S
C990 C985 1.350 . S
C991 H978 0.929 . S
C991 C983 1.433 . S
C991 N993 1.384 . S
N992 C988 1.427 . S
N992 C989 1.384 . S
N993 C985 1.427 . S
N993 C991 1.384 . S
H994 C1000 0.928 1_556 S
H995 C1004 0.930 . S
H996 C1009 0.929 . S
H997 C1007 0.929 . S
H998 C1002 0.929 1_554 S
H999 C1008 0.929 . S
C1000 H994 0.928 1_554 S
C1000 C1001 1.367 . S
C1000 C1008 1.378 1_554 S
C1001 C1000 1.367 . S
C1001 C1009 1.433 . S
C1002 H998 0.929 1_556 S
C1002 C1004 1.378 . S
C1002 C1006 1.350 . S
C1003 C1006 1.463 1_554 S
C1003 C1008 1.350 1_554 S
C1003 N1011 1.427 . S
C1004 H995 0.930 . S
C1004 C1002 1.378 . S
C1004 C1005 1.367 . S
C1005 C1004 1.367 . S
C1005 C1007 1.433 . S
C1006 C1002 1.350 . S
C1006 C1003 1.463 1_556 S
C1006 N1010 1.427 . S
C1007 H997 0.929 . S
C1007 C1005 1.433 . S
C1007 N1010 1.384 . S
C1008 H999 0.929 . S
C1008 C1000 1.378 1_556 S
C1008 C1003 1.350 1_556 S
C1009 H996 0.929 . S
C1009 C1001 1.433 . S
C1009 N1011 1.384 . S
N1010 C1006 1.427 . S
N1010 C1007 1.384 . S
N1011 C1003 1.427 . S
N1011 C1009 1.384 . S
H1012 C1018 0.949 . S
H1013 C1022 0.930 1_554 S
H1014 C1027 0.929 . S
H1015 C1025 0.929 . S
H1016 C1020 0.929 . S
H1017 C1026 0.929 . S
C1018 H1012 0.949 . S
C1018 C1019 1.333 1_556 S
C1018 C1026 1.393 . S
C1019 C1018 1.333 1_554 S
C1019 C1027 1.433 . S
C1020 H1016 0.929 . S
C1020 C1022 1.378 1_554 S
C1020 C1024 1.350 1_554 S
C1021 C1024 1.463 1_554 S
C1021 C1026 1.350 1_554 S
C1021 N1029 1.427 . S
C1022 H1013 0.930 1_556 S
C1022 C1020 1.378 1_556 S
C1022 C1023 1.367 . S
C1023 C1022 1.367 . S
C1023 C1025 1.433 . S
C1024 C1020 1.350 1_556 S
C1024 C1021 1.463 1_556 S
C1024 N1028 1.427 . S
C1025 H1015 0.929 . S
C1025 C1023 1.433 . S
C1025 N1028 1.384 . S
C1026 H1017 0.929 . S
C1026 C1018 1.393 . S
C1026 C1021 1.350 1_556 S
C1027 H1014 0.929 . S
C1027 C1019 1.433 . S
C1027 N1029 1.384 . S
N1028 C1024 1.427 . S
N1028 C1025 1.384 . S
N1029 C1021 1.427 . S
N1029 C1027 1.384 . S
H1030 C1036 0.930 . S
H1031 C1040 0.930 . S
H1032 C1045 0.929 . S
H1033 C1043 0.929 1_554 S
H1034 C1038 0.929 . S
H1035 C1044 0.929 . S
C1036 H1030 0.930 . S
C1036 C1037 1.367 . S
C1036 C1044 1.378 . S
C1037 C1036 1.367 . S
C1037 C1045 1.433 1_554 S
C1038 H1034 0.929 . S
C1038 C1040 1.378 . S
C1038 C1042 1.350 . S
C1039 C1042 1.463 1_554 S
C1039 C1044 1.350 . S
C1039 N1047 1.427 1_554 S
C1040 H1031 0.930 . S
C1040 C1038 1.378 . S
C1040 C1041 1.367 . S
C1041 C1040 1.367 . S
C1041 C1043 1.433 . S
C1042 C1038 1.350 . S
C1042 C1039 1.463 1_556 S
C1042 N1046 1.427 1_556 S
C1043 H1033 0.929 1_556 S
C1043 C1041 1.433 . S
C1043 N1046 1.384 1_556 S
C1044 H1035 0.929 . S
C1044 C1036 1.378 . S
C1044 C1039 1.350 . S
C1045 H1032 0.929 . S
C1045 C1037 1.433 1_556 S
C1045 N1047 1.384 . S
N1046 C1042 1.427 1_554 S
N1046 C1043 1.384 1_554 S
N1047 C1039 1.427 1_556 S
N1047 C1045 1.384 . S
H1048 C1054 0.930 . S
H1049 C1058 0.930 . S
H1050 C1063 0.929 . S
H1051 C1061 0.929 . S
H1052 C1056 0.929 . S
H1053 C1062 0.929 . S
C1054 H1048 0.930 . S
C1054 C1055 1.367 . S
C1054 C1062 1.378 . S
C1055 C1054 1.367 . S
C1055 C1063 1.433 . S
C1056 H1052 0.929 . S
C1056 C1058 1.378 . S
C1056 C1060 1.350 . S
C1057 C1060 1.463 . S
C1057 C1062 1.350 . S
C1057 N1065 1.427 . S
C1058 H1049 0.930 . S
C1058 C1056 1.378 . S
C1058 C1059 1.367 . S
C1059 C1058 1.367 . S
C1059 C1061 1.433 . S
C1060 C1056 1.350 . S
C1060 C1057 1.463 . S
C1060 N1064 1.427 . S
C1061 H1051 0.929 . S
C1061 C1059 1.433 . S
C1061 N1064 1.384 . S
C1062 H1053 0.929 . S
C1062 C1054 1.378 . S
C1062 C1057 1.350 . S
C1063 H1050 0.929 . S
C1063 C1055 1.433 . S
C1063 N1065 1.384 . S
N1064 C1060 1.427 . S
N1064 C1061 1.384 . S
N1065 C1057 1.427 . S
N1065 C1063 1.384 . S
H1066 C1072 0.930 . S
H1067 C1076 0.930 . S
H1068 C1081 0.929 . S
H1069 C1079 0.929 . S
H1070 C1074 0.929 . S
H1071 C1080 0.929 . S
C1072 H1066 0.930 . S
C1072 C1073 1.367 . S
C1072 C1080 1.378 . S
C1073 C1072 1.367 . S
C1073 C1081 1.433 . S
C1074 H1070 0.929 . S
C1074 C1076 1.378 . S
C1074 C1078 1.350 . S
C1075 C1078 1.463 . S
C1075 C1080 1.350 . S
C1075 N1083 1.427 . S
C1076 H1067 0.930 . S
C1076 C1074 1.378 . S
C1076 C1077 1.367 . S
C1077 C1076 1.367 . S
C1077 C1079 1.433 . S
C1078 C1074 1.350 . S
C1078 C1075 1.463 . S
C1078 N1082 1.427 . S
C1079 H1069 0.929 . S
C1079 C1077 1.433 . S
C1079 N1082 1.384 . S
C1080 H1071 0.929 . S
C1080 C1072 1.378 . S
C1080 C1075 1.350 . S
C1081 H1068 0.929 . S
C1081 C1073 1.433 . S
C1081 N1083 1.384 . S
N1082 C1078 1.427 . S
N1082 C1079 1.384 . S
N1083 C1075 1.427 . S
N1083 C1081 1.384 . S
H1084 C1090 0.930 . S
H1085 C1094 0.930 . S
H1086 C1099 0.929 . S
H1087 C1097 0.929 . S
H1088 C1092 0.929 . S
H1089 C1098 0.929 . S
C1090 H1084 0.930 . S
C1090 C1091 1.367 . S
C1090 C1098 1.378 . S
C1091 C1090 1.367 . S
C1091 C1099 1.433 . S
C1092 H1088 0.929 . S
C1092 C1094 1.378 . S
C1092 C1096 1.350 . S
C1093 C1096 1.463 . S
C1093 C1098 1.350 . S
C1093 N1101 1.427 . S
C1094 H1085 0.930 . S
C1094 C1092 1.378 . S
C1094 C1095 1.367 . S
C1095 C1094 1.367 . S
C1095 C1097 1.433 . S
C1096 C1092 1.350 . S
C1096 C1093 1.463 . S
C1096 N1100 1.427 . S
C1097 H1087 0.929 . S
C1097 C1095 1.433 . S
C1097 N1100 1.384 . S
C1098 H1089 0.929 . S
C1098 C1090 1.378 . S
C1098 C1093 1.350 . S
C1099 H1086 0.929 . S
C1099 C1091 1.433 . S
C1099 N1101 1.384 . S
N1100 C1096 1.427 . S
N1100 C1097 1.384 . S
N1101 C1093 1.427 . S
N1101 C1099 1.384 . S
H1102 C1108 0.930 . S
H1103 C1112 0.930 . S
H1104 C1117 0.929 . S
H1105 C1115 0.929 . S
H1106 C1110 0.929 . S
H1107 C1116 0.929 . S
C1108 H1102 0.930 . S
C1108 C1109 1.367 . S
C1108 C1116 1.378 . S
C1109 C1108 1.367 . S
C1109 C1117 1.433 . S
C1110 H1106 0.929 . S
C1110 C1112 1.378 . S
C1110 C1114 1.350 . S
C1111 C1114 1.463 . S
C1111 C1116 1.350 . S
C1111 N1119 1.427 . S
C1112 H1103 0.930 . S
C1112 C1110 1.378 . S
C1112 C1113 1.367 . S
C1113 C1112 1.367 . S
C1113 C1115 1.433 . S
C1114 C1110 1.350 . S
C1114 C1111 1.463 . S
C1114 N1118 1.427 . S
C1115 H1105 0.929 . S
C1115 C1113 1.433 . S
C1115 N1118 1.384 . S
C1116 H1107 0.929 . S
C1116 C1108 1.378 . S
C1116 C1111 1.350 . S
C1117 H1104 0.929 . S
C1117 C1109 1.433 . S
C1117 N1119 1.384 . S
N1118 C1114 1.427 . S
N1118 C1115 1.384 . S
N1119 C1111 1.427 . S
N1119 C1117 1.384 . S
H1120 C1126 0.930 . S
H1121 C1130 0.930 . S
H1122 C1135 0.929 . S
H1123 C1133 0.929 . S
H1124 C1128 0.929 . S
H1125 C1134 0.929 . S
C1126 H1120 0.930 . S
C1126 C1127 1.367 . S
C1126 C1134 1.378 . S
C1127 C1126 1.367 . S
C1127 C1135 1.433 . S
C1128 H1124 0.929 . S
C1128 C1130 1.378 . S
C1128 C1132 1.350 . S
C1129 C1132 1.463 . S
C1129 C1134 1.350 . S
C1129 N1137 1.427 . S
C1130 H1121 0.930 . S
C1130 C1128 1.378 . S
C1130 C1131 1.367 . S
C1131 C1130 1.367 . S
C1131 C1133 1.433 . S
C1132 C1128 1.350 . S
C1132 C1129 1.463 . S
C1132 N1136 1.427 . S
C1133 H1123 0.929 . S
C1133 C1131 1.433 . S
C1133 N1136 1.384 . S
C1134 H1125 0.929 . S
C1134 C1126 1.378 . S
C1134 C1129 1.350 . S
C1135 H1122 0.929 . S
C1135 C1127 1.433 . S
C1135 N1137 1.384 . S
N1136 C1132 1.427 . S
N1136 C1133 1.384 . S
N1137 C1129 1.427 . S
N1137 C1135 1.384 . S
H1138 C1144 0.930 . S
H1139 C1148 0.930 . S
H1140 C1153 0.929 . S
H1141 C1151 0.929 . S
H1142 C1146 0.929 . S
H1143 C1152 0.929 . S
C1144 H1138 0.930 . S
C1144 C1145 1.367 . S
C1144 C1152 1.378 . S
C1145 C1144 1.367 . S
C1145 C1153 1.433 . S
C1146 H1142 0.929 . S
C1146 C1148 1.378 . S
C1146 C1150 1.350 . S
C1147 C1150 1.463 . S
C1147 C1152 1.350 . S
C1147 N1155 1.427 . S
C1148 H1139 0.930 . S
C1148 C1146 1.378 . S
C1148 C1149 1.367 . S
C1149 C1148 1.367 . S
C1149 C1151 1.433 . S
C1150 C1146 1.350 . S
C1150 C1147 1.463 . S
C1150 N1154 1.427 . S
C1151 H1141 0.929 . S
C1151 C1149 1.433 . S
C1151 N1154 1.384 . S
C1152 H1143 0.929 . S
C1152 C1144 1.378 . S
C1152 C1147 1.350 . S
C1153 H1140 0.929 . S
C1153 C1145 1.433 . S
C1153 N1155 1.384 . S
N1154 C1150 1.427 . S
N1154 C1151 1.384 . S
N1155 C1147 1.427 . S
N1155 C1153 1.384 . S
H1156 C1162 0.930 . S
H1157 C1166 0.930 . S
H1158 C1171 0.929 . S
H1159 C1169 0.929 . S
H1160 C1164 0.929 . S
H1161 C1170 0.929 . S
C1162 H1156 0.930 . S
C1162 C1163 1.367 . S
C1162 C1170 1.378 . S
C1163 C1162 1.367 . S
C1163 C1171 1.433 . S
C1164 H1160 0.929 . S
C1164 C1166 1.378 . S
C1164 C1168 1.350 . S
C1165 C1168 1.463 . S
C1165 C1170 1.350 . S
C1165 N1173 1.427 . S
C1166 H1157 0.930 . S
C1166 C1164 1.378 . S
C1166 C1167 1.367 . S
C1167 C1166 1.367 . S
C1167 C1169 1.433 . S
C1168 C1164 1.350 . S
C1168 C1165 1.463 . S
C1168 N1172 1.427 . S
C1169 H1159 0.929 . S
C1169 C1167 1.433 . S
C1169 N1172 1.384 . S
C1170 H1161 0.929 . S
C1170 C1162 1.378 . S
C1170 C1165 1.350 . S
C1171 H1158 0.929 . S
C1171 C1163 1.433 . S
C1171 N1173 1.384 . S
N1172 C1168 1.427 . S
N1172 C1169 1.384 . S
N1173 C1165 1.427 . S
N1173 C1171 1.384 . S
H1174 C1180 0.930 . S
H1175 C1184 0.930 . S
H1176 C1189 0.929 . S
H1177 C1187 0.929 . S
H1178 C1182 0.929 . S
H1179 C1188 0.929 . S
C1180 H1174 0.930 . S
C1180 C1181 1.367 . S
C1180 C1188 1.378 . S
C1181 C1180 1.367 . S
C1181 C1189 1.433 . S
C1182 H1178 0.929 . S
C1182 C1184 1.378 . S
C1182 C1186 1.350 . S
C1183 C1186 1.463 . S
C1183 C1188 1.350 . S
C1183 N1191 1.427 . S
C1184 H1175 0.930 . S
C1184 C1182 1.378 . S
C1184 C1185 1.367 . S
C1185 C1184 1.367 . S
C1185 C1187 1.433 . S
C1186 C1182 1.350 . S
C1186 C1183 1.463 . S
C1186 N1190 1.427 . S
C1187 H1177 0.929 . S
C1187 C1185 1.433 . S
C1187 N1190 1.384 . S
C1188 H1179 0.929 . S
C1188 C1180 1.378 . S
C1188 C1183 1.350 . S
C1189 H1176 0.929 . S
C1189 C1181 1.433 . S
C1189 N1191 1.384 . S
N1190 C1186 1.427 . S
N1190 C1187 1.384 . S
N1191 C1183 1.427 . S
N1191 C1189 1.384 . S
H1192 C1198 0.930 . S
H1193 C1202 0.930 . S
H1194 C1207 0.929 . S
H1195 C1205 0.929 . S
H1196 C1200 0.929 . S
H1197 C1206 0.929 . S
C1198 H1192 0.930 . S
C1198 C1199 1.367 . S
C1198 C1206 1.378 . S
C1199 C1198 1.367 . S
C1199 C1207 1.433 . S
C1200 H1196 0.929 . S
C1200 C1202 1.378 . S
C1200 C1204 1.350 . S
C1201 C1204 1.463 . S
C1201 C1206 1.350 . S
C1201 N1209 1.427 . S
C1202 H1193 0.930 . S
C1202 C1200 1.378 . S
C1202 C1203 1.367 . S
C1203 C1202 1.367 . S
C1203 C1205 1.433 . S
C1204 C1200 1.350 . S
C1204 C1201 1.463 . S
C1204 N1208 1.427 . S
C1205 H1195 0.929 . S
C1205 C1203 1.433 . S
C1205 N1208 1.384 . S
C1206 H1197 0.929 . S
C1206 C1198 1.378 . S
C1206 C1201 1.350 . S
C1207 H1194 0.929 . S
C1207 C1199 1.433 . S
C1207 N1209 1.384 . S
N1208 C1204 1.427 . S
N1208 C1205 1.384 . S
N1209 C1201 1.427 . S
N1209 C1207 1.384 . S
H1210 C1216 0.930 . S
H1211 C1220 0.930 . S
H1212 C1225 0.929 . S
H1213 C1223 0.929 . S
H1214 C1218 0.929 . S
H1215 C1224 0.929 . S
C1216 H1210 0.930 . S
C1216 C1217 1.367 . S
C1216 C1224 1.378 . S
C1217 C1216 1.367 . S
C1217 C1225 1.433 . S
C1218 H1214 0.929 . S
C1218 C1220 1.378 . S
C1218 C1222 1.350 . S
C1219 C1222 1.463 . S
C1219 C1224 1.350 . S
C1219 N1227 1.427 . S
C1220 H1211 0.930 . S
C1220 C1218 1.378 . S
C1220 C1221 1.367 . S
C1221 C1220 1.367 . S
C1221 C1223 1.433 . S
C1222 C1218 1.350 . S
C1222 C1219 1.463 . S
C1222 N1226 1.427 . S
C1223 H1213 0.929 . S
C1223 C1221 1.433 . S
C1223 N1226 1.384 . S
C1224 H1215 0.929 . S
C1224 C1216 1.378 . S
C1224 C1219 1.350 . S
C1225 H1212 0.929 . S
C1225 C1217 1.433 . S
C1225 N1227 1.384 . S
N1226 C1222 1.427 . S
N1226 C1223 1.384 . S
N1227 C1219 1.427 . S
N1227 C1225 1.384 . S
H1228 C1234 0.930 . S
H1229 C1238 0.930 . S
H1230 C1243 0.929 . S
H1231 C1241 0.929 . S
H1232 C1236 0.929 . S
H1233 C1242 0.929 . S
C1234 H1228 0.930 . S
C1234 C1235 1.367 . S
C1234 C1242 1.378 . S
C1235 C1234 1.367 . S
C1235 C1243 1.433 . S
C1236 H1232 0.929 . S
C1236 C1238 1.378 . S
C1236 C1240 1.350 . S
C1237 C1240 1.463 . S
C1237 C1242 1.350 . S
C1237 N1245 1.427 . S
C1238 H1229 0.930 . S
C1238 C1236 1.378 . S
C1238 C1239 1.367 . S
C1239 C1238 1.367 . S
C1239 C1241 1.433 . S
C1240 C1236 1.350 . S
C1240 C1237 1.463 . S
C1240 N1244 1.427 . S
C1241 H1231 0.929 . S
C1241 C1239 1.433 . S
C1241 N1244 1.384 . S
C1242 H1233 0.929 . S
C1242 C1234 1.378 . S
C1242 C1237 1.350 . S
C1243 H1230 0.929 . S
C1243 C1235 1.433 . S
C1243 N1245 1.384 . S
N1244 C1240 1.427 . S
N1244 C1241 1.384 . S
N1245 C1237 1.427 . S
N1245 C1243 1.384 . S
H1246 C1252 0.930 . S
H1247 C1256 0.930 . S
H1248 C1261 0.929 . S
H1249 C1259 0.929 . S
H1250 C1254 0.929 . S
H1251 C1260 0.929 . S
C1252 H1246 0.930 . S
C1252 C1253 1.367 . S
C1252 C1260 1.378 . S
C1253 C1252 1.367 . S
C1253 C1261 1.433 . S
C1254 H1250 0.929 . S
C1254 C1256 1.378 . S
C1254 C1258 1.350 . S
C1255 C1258 1.463 . S
C1255 C1260 1.350 . S
C1255 N1263 1.427 . S
C1256 H1247 0.930 . S
C1256 C1254 1.378 . S
C1256 C1257 1.367 . S
C1257 C1256 1.367 . S
C1257 C1259 1.433 . S
C1258 C1254 1.350 . S
C1258 C1255 1.463 . S
C1258 N1262 1.427 . S
C1259 H1249 0.929 . S
C1259 C1257 1.433 . S
C1259 N1262 1.384 . S
C1260 H1251 0.929 . S
C1260 C1252 1.378 . S
C1260 C1255 1.350 . S
C1261 H1248 0.929 . S
C1261 C1253 1.433 . S
C1261 N1263 1.384 . S
N1262 C1258 1.427 . S
N1262 C1259 1.384 . S
N1263 C1255 1.427 . S
N1263 C1261 1.384 . S
C551 C20 1.661 . S
C555 C224 1.670 . S
C569 C258 1.676 . S
C573 C54 1.668 . S
C587 C156 1.667 . S
C591 C88 1.660 . S
C605 C190 1.675 . S
C609 C122 1.672 . S
C623 C292 1.673 . S
C627 C496 1.662 . S
C641 C326 1.671 . S
C645 C530 1.675 . S
C659 C428 1.673 . S
C663 C360 1.662 . S
C677 C394 1.664 . S
C681 C462 1.674 . S
C695 C281 2.496 . S
C699 C9 2.496 . S
C713 C315 2.505 . S
C717 C43 2.505 . S
C731 C349 2.505 . S
C735 C77 2.505 . S
C749 C383 2.505 . S
C753 C111 2.505 . S
C767 C417 2.502 . S
C771 C145 2.502 . S
C785 C451 2.497 . S
C789 C179 2.497 . S
C803 C213 2.495 . S
C807 C485 2.495 . S
C821 C247 2.496 . S
C825 C519 2.496 . S
C839 C339 0.818 . S
C843 C2 0.849 . S
C857 C373 0.841 . S
C861 C36 0.849 . S
C875 C407 0.819 . S
C879 C70 0.843 . S
C893 C305 0.834 . S
C897 C104 0.834 . S
C911 C138 0.850 . S
C915 C543 0.819 . S
C929 C172 0.844 . S
C933 C441 0.846 . S
C947 C206 0.849 . S
C951 C475 0.841 . S
C965 C240 0.843 . S
C969 C509 0.847 . S
C983 C67 0.820 . S
C987 C274 0.851 . S
C1001 C101 0.828 . S
C1005 C308 0.853 . S
C1019 C135 0.835 . S
C1023 C342 0.851 . S
C1037 C33 0.826 . S
C1041 C376 0.837 . S
C1055 C271 0.846 . S
C1059 C410 0.837 . S
C1073 C169 0.818 . S
C1077 C444 0.849 . S
C1091 C203 0.823 . S
C1095 C478 0.839 . S
C1109 C512 0.851 . S
C1113 C237 0.820 . S
C1127 C73 0.424 . S
C1131 C5 0.408 . S
C1145 C107 0.384 . S
C1149 C39 0.402 . S
C1163 C141 0.381 . S
C1167 C209 0.399 . S
C1181 C243 0.419 . S
C1185 C175 0.429 . S
C1199 C277 0.423 . S
C1203 C345 0.406 . S
C1217 C379 0.403 . S
C1221 C311 0.421 . S
C1235 C413 0.399 . S
C1239 C481 0.381 . S
C1253 C447 0.412 . S
C1257 C515 0.427 . S
