# Generated by pormake.
# Topology zff, (5)-cn, num edge types: 1
# Building blocks:
#     Node 0, Type 0, BuildingBlock: XOMCOT_clean_sbu_1, # of connection points: 5
#     Node 1, Type 0, BuildingBlock: XOMCOT_clean_sbu_1, # of connection points: 5
#     Node 2, Type 0, BuildingBlock: XOMCOT_clean_sbu_1, # of connection points: 5
#     Node 3, Type 0, BuildingBlock: XOMCOT_clean_sbu_1, # of connection points: 5
#     Node 4, Type 0, BuildingBlock: XOMCOT_clean_sbu_1, # of connection points: 5
#     Node 5, Type 0, BuildingBlock: XOMCOT_clean_sbu_1, # of connection points: 5
#     Node 6, Type 0, BuildingBlock: XOMCOT_clean_sbu_1, # of connection points: 5
#     Node 7, Type 0, BuildingBlock: XOMCOT_clean_sbu_1, # of connection points: 5
#     Node 8, Type 0, BuildingBlock: XOMCOT_clean_sbu_1, # of connection points: 5
#     Node 9, Type 0, BuildingBlock: XOMCOT_clean_sbu_1, # of connection points: 5
#     Node 10, Type 0, BuildingBlock: XOMCOT_clean_sbu_1, # of connection points: 5
#     Node 11, Type 0, BuildingBlock: XOMCOT_clean_sbu_1, # of connection points: 5
#     Node 12, Type 0, BuildingBlock: XOMCOT_clean_sbu_1, # of connection points: 5
#     Node 13, Type 0, BuildingBlock: XOMCOT_clean_sbu_1, # of connection points: 5
#     Node 14, Type 0, BuildingBlock: XOMCOT_clean_sbu_1, # of connection points: 5
#     Node 15, Type 0, BuildingBlock: XOMCOT_clean_sbu_1, # of connection points: 5
#     Edge 16, Type (0, 0), BuildingBlock: CIFDUS_clean_linker_0, # of connection points: 2
#     Edge 17, Type (0, 0), BuildingBlock: CIFDUS_clean_linker_0, # of connection points: 2
#     Edge 18, Type (0, 0), BuildingBlock: CIFDUS_clean_linker_0, # of connection points: 2
#     Edge 19, Type (0, 0), BuildingBlock: CIFDUS_clean_linker_0, # of connection points: 2
#     Edge 20, Type (0, 0), BuildingBlock: CIFDUS_clean_linker_0, # of connection points: 2
#     Edge 21, Type (0, 0), BuildingBlock: CIFDUS_clean_linker_0, # of connection points: 2
#     Edge 22, Type (0, 0), BuildingBlock: CIFDUS_clean_linker_0, # of connection points: 2
#     Edge 23, Type (0, 0), BuildingBlock: CIFDUS_clean_linker_0, # of connection points: 2
#     Edge 24, Type (0, 0), BuildingBlock: CIFDUS_clean_linker_0, # of connection points: 2
#     Edge 25, Type (0, 0), BuildingBlock: CIFDUS_clean_linker_0, # of connection points: 2
#     Edge 26, Type (0, 0), BuildingBlock: CIFDUS_clean_linker_0, # of connection points: 2
#     Edge 27, Type (0, 0), BuildingBlock: CIFDUS_clean_linker_0, # of connection points: 2
#     Edge 28, Type (0, 0), BuildingBlock: CIFDUS_clean_linker_0, # of connection points: 2
#     Edge 29, Type (0, 0), BuildingBlock: CIFDUS_clean_linker_0, # of connection points: 2
#     Edge 30, Type (0, 0), BuildingBlock: CIFDUS_clean_linker_0, # of connection points: 2
#     Edge 31, Type (0, 0), BuildingBlock: CIFDUS_clean_linker_0, # of connection points: 2
#     Edge 32, Type (0, 0), BuildingBlock: CIFDUS_clean_linker_0, # of connection points: 2
#     Edge 33, Type (0, 0), BuildingBlock: CIFDUS_clean_linker_0, # of connection points: 2
#     Edge 34, Type (0, 0), BuildingBlock: CIFDUS_clean_linker_0, # of connection points: 2
#     Edge 35, Type (0, 0), BuildingBlock: CIFDUS_clean_linker_0, # of connection points: 2
#     Edge 36, Type (0, 0), BuildingBlock: CIFDUS_clean_linker_0, # of connection points: 2
#     Edge 37, Type (0, 0), BuildingBlock: CIFDUS_clean_linker_0, # of connection points: 2
#     Edge 38, Type (0, 0), BuildingBlock: CIFDUS_clean_linker_0, # of connection points: 2
#     Edge 39, Type (0, 0), BuildingBlock: CIFDUS_clean_linker_0, # of connection points: 2
#     Edge 40, Type (0, 0), BuildingBlock: CIFDUS_clean_linker_0, # of connection points: 2
#     Edge 41, Type (0, 0), BuildingBlock: CIFDUS_clean_linker_0, # of connection points: 2
#     Edge 42, Type (0, 0), BuildingBlock: CIFDUS_clean_linker_0, # of connection points: 2
#     Edge 43, Type (0, 0), BuildingBlock: CIFDUS_clean_linker_0, # of connection points: 2
#     Edge 44, Type (0, 0), BuildingBlock: CIFDUS_clean_linker_0, # of connection points: 2
#     Edge 45, Type (0, 0), BuildingBlock: CIFDUS_clean_linker_0, # of connection points: 2
#     Edge 46, Type (0, 0), BuildingBlock: CIFDUS_clean_linker_0, # of connection points: 2
#     Edge 47, Type (0, 0), BuildingBlock: CIFDUS_clean_linker_0, # of connection points: 2
#     Edge 48, Type (0, 0), BuildingBlock: CIFDUS_clean_linker_0, # of connection points: 2
#     Edge 49, Type (0, 0), BuildingBlock: CIFDUS_clean_linker_0, # of connection points: 2
#     Edge 50, Type (0, 0), BuildingBlock: CIFDUS_clean_linker_0, # of connection points: 2
#     Edge 51, Type (0, 0), BuildingBlock: CIFDUS_clean_linker_0, # of connection points: 2
#     Edge 52, Type (0, 0), BuildingBlock: CIFDUS_clean_linker_0, # of connection points: 2
#     Edge 53, Type (0, 0), BuildingBlock: CIFDUS_clean_linker_0, # of connection points: 2
#     Edge 54, Type (0, 0), BuildingBlock: CIFDUS_clean_linker_0, # of connection points: 2
#     Edge 55, Type (0, 0), BuildingBlock: CIFDUS_clean_linker_0, # of connection points: 2
# Relax obj value: 0.154
# Max RMSD: 0.192
# Mean RMSD: 0.192
data_MOF--net-zff--node1-XOMCOT_clean_sbu_1--edge1-CIFDUS_clean_linker_0
_symmetry_space_group_name_H-M    P1
_symmetry_Int_Tables_number       1
_symmetry_cell_setting            triclinic
loop_
_symmetry_equiv_pos_as_xyz
'x, y, z'
_cell_length_a     33.664864
_cell_length_b     34.005595
_cell_length_c     57.22959
_cell_angle_alpha  90.10813
_cell_angle_beta   89.817378
_cell_angle_gamma 89.763011
loop_
_atom_site_label
_atom_site_type_symbol
_atom_site_fract_x
_atom_site_fract_y
_atom_site_fract_z
_atom_type_partial_charge
C0 C 0.94478 0.27897 0.46644 0.0
C1 C 0.94691 0.27748 0.49042 0.0
N2 N 0.98525 0.28099 0.49689 0.0
N3 N 0.98157 0.28319 0.45747 0.0
C4 C 0.00562 0.28439 0.47643 0.0
H5 H 0.91785 0.2784 0.45619 0.0
Co6 Co -0.00684 0.29164 0.42547 0.0
C7 C 0.07717 0.27062 0.42371 0.0
O8 O 0.08644 0.30723 0.41896 0.0
N9 N 0.00564 0.30067 0.39301 0.0
C10 C 0.02159 0.28972 0.3556 0.0
C11 C 0.00797 0.27305 0.37602 0.0
C12 C 0.01872 0.33396 0.38225 0.0
N13 N 0.02866 0.32809 0.35948 0.0
O14 O 0.01871 0.33844 0.43359 0.0
H15 H 0.00189 0.24214 0.37844 0.0
H16 H 0.02208 0.36188 0.39106 0.0
O17 O 0.0412 0.26126 0.4278 0.0
C18 C -0.00778 0.3646 0.43692 0.0
O19 O 0.95469 0.3544 0.4354 0.0
N20 N 0.96401 0.24702 0.418 0.0
C21 C 0.90678 0.18863 0.41365 0.0
C22 C 0.94342 0.18051 0.42433 0.0
C23 C 0.97169 0.21027 0.42647 0.0
C24 C 0.92915 0.25516 0.40701 0.0
C25 C 0.9002 0.22633 0.40449 0.0
H26 H -0.00142 0.20437 0.43612 0.0
H27 H 0.92307 0.28483 0.4012 0.0
H28 H 0.03737 0.28863 0.47513 0.0
H29 H 0.92169 0.27564 0.50211 0.0
H30 H 0.0279 0.27419 0.33947 0.0
H31 H 0.94975 0.15175 0.43155 0.0
H32 H 0.87214 0.23412 0.39651 0.0
C33 C 0.72979 0.93 0.44943 0.0
C34 C 0.73603 0.93444 0.47298 0.0
N35 N 0.72136 0.9696 0.47975 0.0
N36 N 0.71178 0.96244 0.44086 0.0
C37 C 0.70717 -0.01391 0.45982 0.0
H38 H 0.73679 0.90381 0.43955 0.0
Co39 Co 0.69057 0.96899 0.41035 0.0
C40 C 0.73309 0.03572 0.38925 0.0
O41 O 0.73083 0.0182 0.36882 0.0
N42 N 0.6669 0.97557 0.38004 0.0
C43 C 0.64128 0.9667 0.34446 0.0
C44 C 0.66277 0.94971 0.36223 0.0
C45 C 0.64662 0.0079 0.37257 0.0
N46 N 0.63112 0.00347 0.35088 0.0
O47 O 0.64586 -0.00592 0.42319 0.0
H48 H 0.674 0.92004 0.36182 0.0
H49 H 0.64326 0.03431 0.38298 0.0
O50 O 0.7183 0.0193 0.40741 0.0
C51 C 0.62089 0.96827 0.42953 0.0
O52 O 0.63132 0.93102 0.42833 0.0
N53 N 0.73399 0.9407 0.39801 0.0
C54 C 0.7945 0.88753 0.3872 0.0
C55 C 0.80327 0.92692 0.392 0.0
C56 C 0.77267 0.95286 0.398 0.0
C57 C 0.7252 0.90227 0.39367 0.0
C58 C 0.75494 0.87521 0.38805 0.0
H59 H 0.78077 0.98173 0.40406 0.0
H60 H 0.69504 0.89209 0.39591 0.0
H61 H 0.69174 0.01403 0.45915 0.0
H62 H 0.74966 0.91276 0.48422 0.0
H63 H 0.63423 0.95303 0.3279 0.0
H64 H 0.83375 0.93702 0.39241 0.0
H65 H 0.74721 0.84475 0.38497 0.0
C66 C 0.06389 0.66902 0.43939 0.0
C67 C 0.06141 0.67272 0.46326 0.0
N68 N 0.02285 0.67621 0.46943 0.0
N69 N 0.02717 0.67049 0.43011 0.0
C70 C 0.0027 0.67471 0.44886 0.0
H71 H 0.09082 0.66377 0.42952 0.0
Co72 Co 0.01633 0.66017 0.39817 0.0
C73 C 0.95964 0.71934 0.38317 0.0
O74 O 0.98161 0.72337 0.36432 0.0
N75 N 0.00489 0.64751 0.36576 0.0
C76 C 0.00619 0.63761 0.32709 0.0
C77 C 0.02569 0.65389 0.34584 0.0
C78 C 0.97244 0.62737 0.35818 0.0
N79 N 0.97255 0.62065 0.33477 0.0
O80 O 0.98561 0.61726 0.40751 0.0
H81 H 0.05332 0.66952 0.34442 0.0
H82 H 0.94891 0.61787 0.36972 0.0
O83 O 0.97008 0.69493 0.39901 0.0
C84 C 0.01114 0.58991 0.4097 0.0
O85 O 0.04829 0.59723 0.40408 0.0
N86 N 0.05117 0.70085 0.39024 0.0
C87 C 0.11751 0.74989 0.39167 0.0
C88 C 0.08019 0.76326 0.39949 0.0
C89 C 0.04749 0.73821 0.39882 0.0
C90 C 0.08714 0.68745 0.38258 0.0
C91 C 0.12031 0.71177 0.38243 0.0
H92 H 0.02045 0.74771 0.40734 0.0
H93 H 0.09072 0.65679 0.37794 0.0
H94 H 0.97068 0.67537 0.4474 0.0
H95 H 0.08625 0.67087 0.47514 0.0
H96 H 0.01675 0.63762 0.30922 0.0
H97 H 0.0767 0.79178 0.40769 0.0
H98 H 0.14829 0.69998 0.37614 0.0
C99 C 0.31036 0.04275 0.45119 0.0
C100 C 0.30672 0.04238 0.47515 0.0
N101 N 0.3031 0.00479 0.48228 0.0
N102 N 0.30889 0.00561 0.443 0.0
C103 C 0.30453 0.98307 0.46234 0.0
H104 H 0.31397 0.06853 0.44036 0.0
Co105 Co 0.31446 -0.00827 0.4112 0.0
C106 C 0.28727 0.91002 0.41109 0.0
O107 O 0.32272 0.89678 0.40541 0.0
N108 N 0.32044 0.97706 0.37887 0.0
C109 C 0.30594 0.96033 0.34209 0.0
C110 C 0.29162 0.97681 0.36245 0.0
C111 C 0.35197 0.95984 0.36786 0.0
N112 N 0.34392 0.94934 0.34548 0.0
O113 O 0.3612 0.96415 0.41876 0.0
H114 H 0.26126 -0.01383 0.36528 0.0
H115 H 0.38006 0.95381 0.37624 0.0
O116 O 0.2819 0.94639 0.41529 0.0
C117 C 0.38865 -0.01041 0.42023 0.0
O118 O 0.38002 0.02647 0.41552 0.0
N119 N 0.26969 0.02227 0.40461 0.0
C120 C 0.21046 0.07951 0.40237 0.0
C121 C 0.20374 0.04391 0.41401 0.0
C122 C 0.23386 0.01583 0.41515 0.0
C123 C 0.27647 0.05612 0.39258 0.0
C124 C 0.2471 0.08513 0.3911 0.0
H125 H 0.2292 -0.00966 0.42601 0.0
H126 H 0.30548 0.06136 0.38505 0.0
H127 H 0.30324 0.9513 0.46179 0.0
H128 H 0.30632 0.06802 0.48637 0.0
H129 H 0.28891 0.95478 0.32642 0.0
H130 H 0.17635 0.03879 0.42349 0.0
H131 H 0.25346 0.1122 0.38191 0.0
C132 C 0.93281 0.68452 0.6364 0.0
C133 C 0.93521 0.68772 0.6125 0.0
N134 N 0.97346 0.68325 0.60595 0.0
N135 N 0.96937 0.67834 0.64526 0.0
C136 C -0.00639 0.67774 0.62625 0.0
H137 H 0.90578 0.68573 0.64662 0.0
Co138 Co 0.97967 0.66812 0.67728 0.0
C139 C 0.0637 0.68562 0.68237 0.0
O140 O 0.06934 0.64944 0.68967 0.0
N141 N -0.00957 0.65737 0.7098 0.0
C142 C 0.00698 0.6667 0.7472 0.0
C143 C -0.00699 0.68428 0.72715 0.0
C144 C 0.00315 0.62345 0.72008 0.0
N145 N 0.01384 0.62838 0.74277 0.0
O146 O 0.00408 0.62023 0.66878 0.0
H147 H 0.9874 0.71541 0.72514 0.0
H148 H 0.0063 0.59588 0.71087 0.0
O149 O 0.02934 0.69654 0.67553 0.0
C150 C 0.97794 0.5949 0.66335 0.0
O151 O 0.94046 0.60585 0.66281 0.0
N152 N 0.95163 0.71373 0.68511 0.0
C153 C 0.89547 0.77378 0.68848 0.0
C154 C 0.93412 0.78171 0.68054 0.0
C155 C 0.9618 0.75103 0.67868 0.0
C156 C 0.91491 0.70597 0.69398 0.0
C157 C 0.88626 0.73556 0.69572 0.0
H158 H -0.00961 0.75689 0.67085 0.0
H159 H 0.90714 0.67605 0.6984 0.0
H160 H 0.0252 0.67198 0.62727 0.0
H161 H 0.91046 0.6929 0.60088 0.0
H162 H 0.01405 0.68168 0.76336 0.0
H163 H 0.94214 0.81087 0.67464 0.0
H164 H 0.85684 0.72841 0.7021 0.0
C165 C 0.29902 0.91591 0.64798 0.0
C166 C 0.29581 0.91953 0.62421 0.0
N167 N 0.29656 0.95801 0.61864 0.0
N168 N 0.3013 0.95186 0.65784 0.0
C169 C 0.30006 0.97705 0.63947 0.0
H170 H 0.30175 0.88848 0.65733 0.0
Co171 Co 0.31286 0.95916 0.68984 0.0
C172 C 0.25974 0.01984 0.7078 0.0
O173 O 0.2553 -0.00288 0.72616 0.0
N174 N 0.32726 0.96637 0.72216 0.0
C175 C 0.34053 0.9604 0.76021 0.0
C176 C 0.32439 0.94234 0.74086 0.0
C177 C 0.34576 -0.00124 0.73085 0.0
N178 N 0.35419 -0.00388 0.75401 0.0
O179 O 0.35914 -0.01375 0.68125 0.0
H180 H 0.31145 0.91342 0.74087 0.0
H181 H 0.35307 0.02386 0.72013 0.0
O182 O 0.28225 0.00866 0.6909 0.0
C183 C 0.38706 0.96164 0.67778 0.0
O184 O 0.37963 0.92401 0.68056 0.0
N185 N 0.26767 0.92852 0.69713 0.0
C186 C 0.20827 0.87107 0.69409 0.0
C187 C 0.19975 0.91084 0.68976 0.0
C188 C 0.23002 0.93868 0.69045 0.0
C189 C 0.27621 0.89032 0.70234 0.0
C190 C 0.2471 0.8612 0.70099 0.0
H191 H 0.22342 0.96749 0.68365 0.0
H192 H 0.30672 0.88164 0.70532 0.0
H193 H 0.30318 0.00855 0.64133 0.0
H194 H 0.29541 0.89532 0.61192 0.0
H195 H 0.34159 0.94796 0.77757 0.0
H196 H 0.17039 0.92037 0.68454 0.0
H197 H 0.25593 0.83094 0.70372 0.0
C198 C 0.07335 0.29218 0.66381 0.0
C199 C 0.07173 0.28766 0.63995 0.0
N200 N 0.03332 0.28709 0.63338 0.0
N201 N 0.03619 0.29412 0.67257 0.0
C202 C 0.01235 0.29104 0.65358 0.0
H203 H 0.1001 0.29481 0.67409 0.0
Co204 Co 0.02484 0.30462 0.70426 0.0
C205 C 0.95027 0.26389 0.71571 0.0
O206 O 0.9638 0.25795 0.73691 0.0
N207 N 0.01368 0.31744 0.73646 0.0
C208 C 0.01448 0.32243 0.77536 0.0
C209 C 0.03319 0.30667 0.75607 0.0
C210 C 0.98353 0.3407 0.74459 0.0
N211 N 0.98306 0.34382 0.76823 0.0
O212 O 0.0066 0.35456 0.69568 0.0
H213 H 0.05925 0.28824 0.75676 0.0
H214 H 0.96147 0.35407 0.73338 0.0
O215 O 0.97165 0.28204 0.70068 0.0
C216 C 0.03612 0.37771 0.69704 0.0
O217 O 0.07023 0.3638 0.70458 0.0
N218 N 0.04754 0.25584 0.7119 0.0
C219 C 0.09625 0.18956 0.71475 0.0
C220 C 0.05634 0.18598 0.70825 0.0
C221 C 0.03269 0.21967 0.70629 0.0
C222 C 0.0864 0.25962 0.71815 0.0
C223 C 0.11125 0.22688 0.71982 0.0
H224 H 0.00356 0.21648 0.69883 0.0
H225 H 0.0986 0.28863 0.72091 0.0
H226 H 0.9803 0.29313 0.65447 0.0
H227 H 0.09708 0.28509 0.62837 0.0
H228 H 0.02358 0.31856 0.79334 0.0
H229 H 0.04417 0.15764 0.7035 0.0
H230 H 0.14208 0.23077 0.72463 0.0
C231 C 0.70711 0.05775 0.64652 0.0
C232 C 0.71349 0.05564 0.62285 0.0
N233 N 0.71238 0.01759 0.61621 0.0
N234 N 0.70268 0.02121 0.65523 0.0
C235 C 0.70593 -0.00269 0.63631 0.0
H236 H 0.70458 0.08456 0.65659 0.0
Co237 Co 0.68733 0.00987 0.68635 0.0
C238 C 0.74749 0.95592 0.70443 0.0
O239 O 0.74701 0.97718 0.7236 0.0
N240 N 0.66938 -0.00203 0.71798 0.0
C241 C 0.65511 -0.00167 0.75624 0.0
C242 C 0.67563 0.0167 0.73857 0.0
C243 C 0.64494 0.96778 0.72416 0.0
N244 N 0.63542 0.96753 0.74723 0.0
O245 O 0.64636 0.97787 0.67473 0.0
H246 H 0.69477 0.04155 0.74128 0.0
H247 H 0.63381 0.94635 0.7119 0.0
O248 O 0.72458 0.96502 0.68742 0.0
C249 C 0.61745 0.00072 0.67006 0.0
O250 O 0.62288 0.03884 0.67218 0.0
N251 N 0.72608 0.04561 0.69678 0.0
C252 C 0.77647 0.1089 0.70512 0.0
C253 C 0.79127 0.07398 0.69535 0.0
C254 C 0.76547 0.04279 0.69102 0.0
C255 C 0.711 0.08027 0.70503 0.0
C256 C 0.73584 0.11189 0.71005 0.0
H257 H 0.77688 0.01732 0.68188 0.0
H258 H 0.67926 0.0835 0.70743 0.0
H259 H 0.70166 0.96584 0.6372 0.0
H260 H 0.71796 0.08059 0.61148 0.0
H261 H 0.65551 0.00677 0.77447 0.0
H262 H 0.8224 0.07104 0.69078 0.0
H263 H 0.72322 0.13889 0.71695 0.0
C264 C 0.39827 0.79459 0.93601 0.0
C265 C 0.39839 0.7925 0.96008 0.0
N266 N 0.43619 0.79573 0.96765 0.0
N267 N 0.4358 0.79894 0.92826 0.0
C268 C 0.45816 0.79965 0.94787 0.0
H269 H 0.3724 0.79359 0.92487 0.0
Co270 Co 0.45235 0.80567 0.89707 0.0
C271 C 0.53845 0.79307 0.90258 0.0
O272 O 0.54637 0.83013 0.89823 0.0
N273 N 0.47061 0.81292 0.86561 0.0
C274 C 0.50291 0.80109 0.83219 0.0
C275 C 0.48396 0.7844 0.8511 0.0
C276 C 0.48175 0.84676 0.85484 0.0
N277 N 0.50199 0.84056 0.83457 0.0
O278 O 0.46991 0.85648 0.90513 0.0
H279 H 0.48272 0.75326 0.8548 0.0
H280 H 0.47691 0.87551 0.86231 0.0
O281 O 0.50261 0.78142 0.9037 0.0
C282 C 0.43967 0.87903 0.90368 0.0
O283 O 0.40588 0.86409 0.89647 0.0
N284 N 0.43048 0.75685 0.88969 0.0
C285 C 0.37835 0.69343 0.88847 0.0
C286 C 0.41422 0.69087 0.90084 0.0
C287 C 0.43985 0.72308 0.90137 0.0
C288 C 0.39722 0.75894 0.87628 0.0
C289 C 0.3708 0.72744 0.87531 0.0
H290 H 0.46519 0.722 0.91288 0.0
H291 H 0.38967 0.78627 0.86771 0.0
H292 H 0.49004 0.8032 0.94754 0.0
H293 H 0.37235 0.78981 0.97108 0.0
H294 H 0.51851 0.78501 0.81864 0.0
H295 H 0.421 0.66546 0.9115 0.0
H296 H 0.34374 0.73049 0.86528 0.0
C297 C 0.17592 0.42385 0.948 0.0
C298 C 0.17817 0.42391 0.97198 0.0
N299 N 0.17691 0.46143 0.97964 0.0
N300 N 0.17361 0.46114 0.94019 0.0
C301 C 0.17423 0.48347 0.95988 0.0
H302 H 0.17539 0.39808 0.93691 0.0
Co303 Co 0.16627 0.47442 0.90835 0.0
C304 C 0.18764 0.5577 0.90786 0.0
O305 O 0.15091 0.56687 0.90237 0.0
N306 N 0.15792 0.48825 0.87601 0.0
C307 C 0.16869 0.50501 0.83874 0.0
C308 C 0.18551 0.49 0.85882 0.0
C309 C 0.12454 0.50291 0.8657 0.0
N310 N 0.13028 0.51348 0.84307 0.0
O311 O 0.1184 0.49988 0.91662 0.0
H312 H 0.21654 0.48254 0.86089 0.0
H313 H 0.09661 0.50703 0.87474 0.0
O314 O 0.19698 0.52199 0.91191 0.0
C315 C 0.09065 0.47492 0.91896 0.0
O316 O 0.09904 0.43744 0.916 0.0
N317 N 0.21229 0.44563 0.9009 0.0
C318 C 0.27242 0.38879 0.89901 0.0
C319 C 0.27886 0.42527 0.90988 0.0
C320 C 0.24834 0.45323 0.91077 0.0
C321 C 0.20596 0.41117 0.88934 0.0
C322 C 0.23571 0.38242 0.88805 0.0
H323 H 0.25285 0.47953 0.921 0.0
H324 H 0.17688 0.40506 0.88225 0.0
H325 H 0.17149 0.51518 0.95972 0.0
H326 H 0.18064 0.39806 0.98289 0.0
H327 H 0.18421 0.51126 0.82258 0.0
H328 H 0.30633 0.43129 0.91898 0.0
H329 H 0.2295 0.35493 0.87924 0.0
C330 C 0.54112 0.18896 0.95575 0.0
C331 C 0.53938 0.19094 0.97974 0.0
N332 N 0.50127 0.18639 0.98661 0.0
N333 N 0.50431 0.18337 0.94722 0.0
C334 C 0.48066 0.18193 0.96641 0.0
H335 H 0.56781 0.1901 0.94521 0.0
Co336 Co 0.49161 0.17364 0.91559 0.0
C337 C 0.40712 0.19595 0.91521 0.0
O338 O 0.39722 0.1595 0.91045 0.0
N339 N 0.47794 0.16345 0.8838 0.0
C340 C 0.45274 0.17214 0.84824 0.0
C341 C 0.46694 0.19061 0.86793 0.0
C342 C 0.47041 0.12855 0.87309 0.0
N343 N 0.45454 0.13282 0.85139 0.0
O344 O 0.4664 0.1263 0.92457 0.0
H345 H 0.46705 0.22202 0.87097 0.0
H346 H 0.47519 0.10052 0.88144 0.0
O347 O 0.44345 0.20464 0.91863 0.0
C348 C 0.4931 0.10086 0.92926 0.0
O349 O 0.53056 0.11155 0.92843 0.0
N350 N 0.52044 0.21816 0.90702 0.0
C351 C 0.57841 0.27592 0.90233 0.0
C352 C 0.54197 0.28446 0.91328 0.0
C353 C 0.5134 0.255 0.91565 0.0
C354 C 0.55483 0.20979 0.89541 0.0
C355 C 0.58425 0.23827 0.89284 0.0
H356 H 0.48702 0.26111 0.92584 0.0
H357 H 0.56038 0.18014 0.88932 0.0
H358 H 0.44905 0.17671 0.96545 0.0
H359 H 0.56472 0.1938 0.99117 0.0
H360 H 0.44016 0.18701 0.8333 0.0
H361 H 0.53648 0.31299 0.92113 0.0
H362 H 0.61174 0.23057 0.88404 0.0
C363 C 0.77533 0.5602 0.94375 0.0
C364 C 0.77168 0.55768 0.96759 0.0
N365 N 0.7689 0.51946 0.97362 0.0
N366 N 0.77459 0.52386 0.93435 0.0
C367 C 0.77081 0.49953 0.95298 0.0
H368 H 0.77994 0.58692 0.93393 0.0
Co369 Co 0.78474 0.5146 0.90231 0.0
C370 C 0.72613 0.45695 0.88673 0.0
O371 O 0.72235 0.47839 0.86785 0.0
N372 N 0.79778 0.50569 0.86947 0.0
C373 C 0.80335 0.51002 0.83059 0.0
C374 C 0.78436 0.52432 0.85013 0.0
C375 C 0.82528 0.47989 0.86067 0.0
N376 N 0.82957 0.48216 0.83709 0.0
O377 O 0.82979 0.48492 0.91073 0.0
H378 H 0.76121 0.54625 0.84964 0.0
H379 H 0.84255 0.46014 0.87139 0.0
O380 O 0.75082 0.46719 0.90261 0.0
C381 C 0.85819 0.50896 0.91365 0.0
O382 O 0.85104 0.5467 0.91084 0.0
N383 N 0.74131 0.54788 0.89534 0.0
C384 C 0.68318 0.60678 0.89325 0.0
C385 C 0.67434 0.56957 0.90236 0.0
C386 C 0.70392 0.5409 0.90371 0.0
C387 C 0.75089 0.58442 0.88733 0.0
C388 C 0.72212 0.61405 0.88565 0.0
H389 H 0.69717 0.51408 0.91292 0.0
H390 H 0.78135 0.59082 0.88265 0.0
H391 H 0.77069 0.46785 0.95137 0.0
H392 H 0.773 0.58231 0.97953 0.0
H393 H 0.7976 0.51936 0.81286 0.0
H394 H 0.64527 0.56321 0.90955 0.0
H395 H 0.73052 0.64251 0.87881 0.0
C396 C 0.41741 0.17631 0.15465 0.0
C397 C 0.41791 0.18008 0.13071 0.0
N398 N 0.45603 0.18101 0.12342 0.0
N399 N 0.455 0.17498 0.16263 0.0
C400 C 0.47791 0.17787 0.1432 0.0
H401 H 0.39124 0.17441 0.1656 0.0
Co402 Co 0.46943 0.16765 0.1941 0.0
C403 C 0.55353 0.18673 0.19465 0.0
O404 O 0.56127 0.1518 0.20332 0.0
N405 N 0.48452 0.15987 0.22601 0.0
C406 C 0.50782 0.1719 0.26174 0.0
C407 C 0.49248 0.18839 0.24174 0.0
C408 C 0.4953 0.12616 0.2371 0.0
N409 N 0.51005 0.13259 0.25884 0.0
O410 O 0.49302 0.11943 0.18562 0.0
H411 H 0.48911 0.21956 0.23856 0.0
H412 H 0.49457 0.09757 0.22889 0.0
O413 O 0.51806 0.19596 0.18917 0.0
C414 C 0.46543 0.09411 0.18415 0.0
O415 O 0.429 0.10492 0.18957 0.0
N416 N 0.44249 0.21383 0.20175 0.0
C417 C 0.38567 0.27341 0.20391 0.0
C418 C 0.42211 0.27955 0.1925 0.0
C419 C 0.45018 0.24924 0.19151 0.0
C420 C 0.4084 0.20809 0.2141 0.0
C421 C 0.37967 0.23764 0.21558 0.0
H422 H 0.47642 0.25323 0.1809 0.0
H423 H 0.40239 0.1795 0.22154 0.0
H424 H 0.51003 0.17673 0.14353 0.0
H425 H 0.39208 0.1823 0.11957 0.0
H426 H 0.51739 0.18802 0.27701 0.0
H427 H 0.42778 0.30645 0.18298 0.0
H428 H 0.35225 0.23185 0.22487 0.0
C429 C 0.76161 0.42786 0.13915 0.0
C430 C 0.75608 0.43175 0.11556 0.0
N431 N 0.76182 0.4696 0.10969 0.0
N432 N 0.77017 0.46317 0.14868 0.0
C433 C 0.77006 0.48818 0.13017 0.0
H434 H 0.76139 0.40025 0.14838 0.0
Co435 Co 0.78775 0.47003 0.18 0.0
C436 C 0.73996 0.53298 0.20126 0.0
O437 O 0.74143 0.51346 0.22101 0.0
N438 N 0.80805 0.47653 0.21132 0.0
C439 C 0.82721 0.46833 0.24836 0.0
C440 C 0.80688 0.45205 0.22993 0.0
C441 C 0.82988 0.50749 0.2192 0.0
N442 N 0.84182 0.50337 0.24171 0.0
O443 O 0.83223 0.49757 0.16895 0.0
H444 H 0.79267 0.42379 0.23052 0.0
H445 H 0.83657 0.53289 0.20856 0.0
O446 O 0.75676 0.51894 0.1829 0.0
C447 C 0.85841 0.47213 0.16342 0.0
O448 O 0.84839 0.4348 0.16367 0.0
N449 N 0.74503 0.43903 0.19022 0.0
C450 C 0.68772 0.37994 0.19324 0.0
C451 C 0.67657 0.4195 0.19027 0.0
C452 C 0.70569 0.44845 0.18815 0.0
C453 C 0.75626 0.40103 0.19392 0.0
C454 C 0.72827 0.37113 0.19555 0.0
H455 H 0.69635 0.47756 0.18313 0.0
H456 H 0.7875 0.3934 0.19364 0.0
H457 H 0.77824 0.51885 0.1315 0.0
H458 H 0.74933 0.40807 0.10358 0.0
H459 H 0.83168 0.45465 0.2652 0.0
H460 H 0.64571 0.42795 0.18843 0.0
H461 H 0.7388 0.34113 0.19698 0.0
C462 C 0.52389 0.78049 0.13404 0.0
C463 C 0.52157 0.77919 0.11008 0.0
N464 N 0.48307 0.78183 0.10385 0.0
N465 N 0.48704 0.78366 0.14315 0.0
C466 C 0.46269 0.78434 0.12431 0.0
H467 H 0.55091 0.78006 0.1442 0.0
Co468 Co 0.4761 0.79109 0.17524 0.0
C469 C 0.39256 0.76775 0.17777 0.0
O470 O 0.38199 0.8037 0.18357 0.0
N471 N 0.46453 0.79923 0.20775 0.0
C472 C 0.44823 0.78837 0.24505 0.0
C473 C 0.46103 0.77137 0.22444 0.0
C474 C 0.4533 0.83294 0.21884 0.0
N475 N 0.44304 0.82717 0.24151 0.0
O476 O 0.44928 0.83822 0.1679 0.0
H477 H 0.46574 0.74025 0.22162 0.0
H478 H 0.45148 0.86124 0.21037 0.0
O479 O 0.42871 0.75997 0.17295 0.0
C480 C 0.47573 0.86435 0.16482 0.0
O481 O 0.51326 0.85375 0.16614 0.0
N482 N 0.50624 0.74635 0.1819 0.0
C483 C 0.56481 0.6883 0.18372 0.0
C484 C 0.528 0.6807 0.1732 0.0
C485 C 0.4991 0.71026 0.17233 0.0
C486 C 0.54114 0.75384 0.19296 0.0
C487 C 0.5708 0.72515 0.1942 0.0
H488 H 0.47224 0.70489 0.16259 0.0
H489 H 0.54684 0.78303 0.19967 0.0
H490 H 0.43083 0.78818 0.12558 0.0
H491 H 0.54649 0.77667 0.09817 0.0
H492 H 0.44118 0.77292 0.26105 0.0
H493 H 0.52203 0.65259 0.16504 0.0
H494 H 0.59892 0.73255 0.20218 0.0
C495 C 0.17086 0.53539 0.14943 0.0
C496 C 0.17241 0.53554 0.1254 0.0
N497 N 0.17265 0.49803 0.11765 0.0
N498 N 0.17032 0.498 0.15716 0.0
C499 C 0.17128 0.47585 0.1374 0.0
H500 H 0.16925 0.56103 0.1606 0.0
Co501 Co 0.1647 0.48359 0.18898 0.0
C502 C 0.18791 0.40071 0.18748 0.0
O503 O 0.15166 0.39012 0.19313 0.0
N504 N 0.15846 0.4684 0.22126 0.0
C505 C 0.17251 0.45092 0.25798 0.0
C506 C 0.18745 0.46634 0.23752 0.0
C507 C 0.12616 0.45326 0.23245 0.0
N508 N 0.1339 0.4424 0.25482 0.0
O509 O 0.11691 0.45833 0.18126 0.0
H510 H 0.21819 0.47398 0.23456 0.0
H511 H 0.09761 0.44918 0.22424 0.0
O512 O 0.19591 0.43684 0.18414 0.0
C513 C 0.0904 0.48506 0.18054 0.0
O514 O 0.10041 0.52117 0.1862 0.0
N515 N 0.21025 0.51247 0.19582 0.0
C516 C 0.26835 0.57058 0.19706 0.0
C517 C 0.2755 0.53469 0.18559 0.0
C518 C 0.24594 0.50604 0.18504 0.0
C519 C 0.20342 0.54627 0.20802 0.0
C520 C 0.23222 0.57562 0.20904 0.0
H521 H 0.25065 0.48026 0.17433 0.0
H522 H 0.17455 0.5514 0.21582 0.0
H523 H 0.17043 0.44407 0.13761 0.0
H524 H 0.17196 0.56153 0.11454 0.0
H525 H 0.18941 0.44452 0.27359 0.0
H526 H 0.30259 0.52978 0.17573 0.0
H527 H 0.2256 0.60264 0.21833 0.0
H528 H 0.06179 0.53188 0.42104 0.0
H529 H 0.93686 0.56091 0.41839 0.0
H530 H 0.92027 0.49381 0.43023 0.0
H531 H 0.94141 0.4261 0.4373 0.0
H532 H 0.06639 0.39665 0.43747 0.0
H533 H 0.083 0.4656 0.43105 0.0
C534 C 0.03088 0.52366 0.42314 0.0
C535 C 0.00049 0.55092 0.41849 0.0
C536 C 0.02171 0.48523 0.42954 0.0
C537 C 0.96067 0.54015 0.42168 0.0
C538 C 0.95124 0.50191 0.42843 0.0
C539 C 0.97233 0.4348 0.43629 0.0
C540 C 0.00267 0.40639 0.43752 0.0
C541 C 0.98154 0.47407 0.43185 0.0
C542 C 0.04256 0.41807 0.43641 0.0
C543 C 0.05204 0.45736 0.43262 0.0
H544 H 0.55901 0.91848 0.43397 0.0
H545 H 0.58889 0.0419 0.43318 0.0
H546 H 0.51843 0.05913 0.43245 0.0
H547 H 0.44956 0.03903 0.42765 0.0
H548 H 0.4196 0.9157 0.42598 0.0
H549 H 0.4894 0.8984 0.43216 0.0
C550 C 0.55015 0.94918 0.43403 0.0
C551 C 0.57903 0.97891 0.43336 0.0
C552 C 0.50979 0.95879 0.43286 0.0
C553 C 0.56713 0.01852 0.43354 0.0
C554 C 0.52692 0.02837 0.43301 0.0
C555 C 0.45818 0.00832 0.42878 0.0
C556 C 0.42969 0.97862 0.42603 0.0
C557 C 0.49817 -0.00129 0.43191 0.0
C558 C 0.44116 0.93903 0.42787 0.0
C559 C 0.48099 0.92917 0.43138 0.0
H560 H 0.97719 0.41194 0.67214 0.0
H561 H 0.08871 0.43602 0.70623 0.0
H562 H 0.08335 0.50524 0.6957 0.0
H563 H 0.04471 0.55949 0.67934 0.0
H564 H 0.93193 0.53595 0.64658 0.0
H565 H 0.94079 0.46566 0.6533 0.0
C566 C 0.00031 0.43237 0.67719 0.0
C567 C 0.03298 0.41913 0.69013 0.0
C568 C -0.00289 0.47206 0.67107 0.0
C569 C 0.0631 0.44565 0.69633 0.0
C570 C 0.06016 0.48519 0.69027 0.0
C571 C 0.02245 0.53891 0.67328 0.0
C572 C 0.98753 0.55277 0.66279 0.0
C573 C 0.02705 0.49878 0.67791 0.0
C574 C 0.95894 0.52586 0.65493 0.0
C575 C 0.96383 0.48573 0.65889 0.0
H576 H 0.55136 0.04371 0.66252 0.0
H577 H 0.59263 0.92409 0.67056 0.0
H578 H 0.5239 0.9011 0.67154 0.0
H579 H 0.4528 0.91604 0.67423 0.0
H580 H 0.41216 0.03632 0.66876 0.0
H581 H 0.48043 0.05814 0.66268 0.0
C582 C 0.54543 0.01251 0.6642 0.0
C583 C 0.57696 -0.01435 0.66671 0.0
C584 C 0.50609 -0.00022 0.66549 0.0
C585 C 0.5688 0.94533 0.66866 0.0
C586 C 0.52956 0.93224 0.66936 0.0
C587 C 0.4588 0.94701 0.6715 0.0
C588 C 0.4276 0.97463 0.67218 0.0
C589 C 0.49806 0.95937 0.66847 0.0
C590 C 0.43577 0.01458 0.6685 0.0
C591 C 0.47473 0.02704 0.66502 0.0
H592 H 0.49672 0.91698 0.92819 0.0
H593 H 0.38745 0.93576 0.8905 0.0
H594 H 0.39155 0.00627 0.89768 0.0
H595 H 0.42848 0.06305 0.9124 0.0
H596 H 0.53846 0.04448 0.94936 0.0
H597 H 0.53116 0.97344 0.94536 0.0
C598 C 0.47381 0.93656 0.92164 0.0
C599 C 0.44211 0.92135 0.9087 0.0
C600 C 0.47618 0.97706 0.92593 0.0
C601 C 0.41227 0.94685 0.90051 0.0
C602 C 0.4145 -0.01282 0.90462 0.0
C603 C 0.45031 0.04338 0.92004 0.0
C604 C 0.48399 0.05879 0.93103 0.0
C605 C 0.44653 0.00265 0.91711 0.0
C606 C 0.51233 0.03312 0.94069 0.0
C607 C 0.50834 -0.00744 0.9383 0.0
H608 H 0.92236 0.55455 0.92084 0.0
H609 H 0.88585 0.43323 0.91587 0.0
H610 H 0.9551 0.41197 0.91921 0.0
H611 H 0.02582 0.42828 0.92051 0.0
H612 H 0.06216 0.54985 0.92361 0.0
H613 H -0.00736 0.57069 0.92421 0.0
C614 C 0.92943 0.5234 0.92066 0.0
C615 C 0.89912 0.49547 0.91792 0.0
C616 C 0.96914 0.51153 0.92217 0.0
C617 C 0.90873 0.45527 0.9179 0.0
C618 C 0.94827 0.44313 0.91975 0.0
C619 C 0.01859 0.45934 0.92154 0.0
C620 C 0.04904 0.48753 0.92185 0.0
C621 C 0.97871 0.47108 0.92143 0.0
C622 C 0.03921 0.52762 0.92328 0.0
C623 C -0.00048 0.53953 0.92357 0.0
H624 H 0.52679 0.92453 0.15985 0.0
H625 H 0.40227 0.89849 0.16915 0.0
H626 H 0.38799 0.96851 0.17448 0.0
H627 H 0.41189 0.03568 0.17994 0.0
H628 H 0.53697 0.061 0.17268 0.0
H629 H 0.55015 -0.00794 0.16318 0.0
C630 C 0.49641 0.93414 0.16279 0.0
C631 C 0.46564 0.90643 0.16432 0.0
C632 C 0.48868 0.97405 0.16648 0.0
C633 C 0.42644 0.91933 0.16791 0.0
C634 C 0.41833 0.95926 0.17112 0.0
C635 C 0.44205 0.02622 0.17618 0.0
C636 C 0.47352 0.05322 0.17724 0.0
C637 C 0.4494 -0.01334 0.17102 0.0
C638 C 0.51233 0.04063 0.17213 0.0
C639 C 0.51985 0.0013 0.16668 0.0
H640 H 0.92019 0.42257 0.15669 0.0
H641 H 0.8914 0.54515 0.16771 0.0
H642 H 0.96183 0.56006 0.17249 0.0
H643 H 0.03012 0.53718 0.17727 0.0
H644 H 0.05851 0.41403 0.16853 0.0
H645 H -0.01092 0.4003 0.15922 0.0
C646 C 0.92929 0.45269 0.1598 0.0
C647 C 0.90066 0.48269 0.16203 0.0
C648 C 0.96951 0.46076 0.16328 0.0
C649 C 0.91292 0.52155 0.16593 0.0
C650 C 0.95311 0.53003 0.16883 0.0
C651 C 0.02124 0.50732 0.17323 0.0
C652 C 0.04922 0.47654 0.17383 0.0
C653 C 0.98143 0.49966 0.16819 0.0
C654 C 0.03736 0.43812 0.16835 0.0
C655 C -0.00224 0.4303 0.16299 0.0
H656 H 0.02169 0.32961 0.31231 0.0
H657 H 0.07906 0.38769 0.37 0.0
H658 H 0.11576 0.42936 0.34268 0.0
H659 H 0.13438 0.44715 0.30214 0.0
H660 H 0.07591 0.39002 0.2445 0.0
H661 H 0.03692 0.35055 0.27186 0.0
C662 C 0.04214 0.35146 0.31892 0.0
C663 C 0.04764 0.35517 0.34331 0.0
C664 C 0.06313 0.37555 0.30302 0.0
C665 C 0.07387 0.3842 0.35145 0.0
C666 C 0.09513 0.40794 0.33577 0.0
C667 C 0.11301 0.42615 0.29556 0.0
C668 C 0.10838 0.42157 0.27115 0.0
C669 C 0.09044 0.40355 0.31149 0.0
C670 C 0.08001 0.39454 0.26306 0.0
C671 C 0.05783 0.37171 0.27876 0.0
H672 H 0.5604 0.14695 0.29511 0.0
H673 H 0.5003 0.05305 0.25881 0.0
H674 H 0.53197 0.00498 0.2843 0.0
H675 H 0.57742 -0.01087 0.31667 0.0
H676 H 0.63672 0.08301 0.35321 0.0
H677 H 0.60374 0.13137 0.32831 0.0
C678 C 0.55362 0.11612 0.29281 0.0
C679 C 0.52781 0.10409 0.2747 0.0
C680 C 0.57177 0.0884 0.30775 0.0
C681 C 0.52029 0.06358 0.27216 0.0
C682 C 0.53831 0.0359 0.2869 0.0
C683 C 0.58331 0.02014 0.31918 0.0
C684 C 0.60982 0.03218 0.33688 0.0
C685 C 0.56433 0.04791 0.30465 0.0
C686 C 0.61631 0.0727 0.34001 0.0
C687 C 0.59761 0.10044 0.32561 0.0
H688 H 0.84695 0.50683 0.2891 0.0
H689 H 0.89279 0.55962 0.22605 0.0
H690 H 0.93586 0.60181 0.24933 0.0
H691 H 0.96213 0.62256 0.28752 0.0
H692 H 0.91848 0.56723 0.35039 0.0
H693 H 0.87312 0.52758 0.32722 0.0
C694 C 0.86648 0.52728 0.28031 0.0
C695 C 0.86637 0.5296 0.25563 0.0
C696 C 0.89174 0.55124 0.29385 0.0
C697 C 0.89159 0.55716 0.24488 0.0
C698 C 0.91656 0.58124 0.25824 0.0
C699 C 0.943 0.60173 0.29629 0.0
C700 C 0.94427 0.59821 0.32093 0.0
C701 C 0.91715 0.57835 0.28275 0.0
C702 C 0.91829 0.57129 0.33165 0.0
C703 C 0.89235 0.54824 0.31833 0.0
H704 H 0.4491 0.82797 0.28876 0.0
H705 H 0.39626 0.88971 0.23084 0.0
H706 H 0.36214 0.9341 0.25794 0.0
H707 H 0.34448 0.95366 0.29827 0.0
H708 H 0.39812 0.89295 0.35627 0.0
H709 H 0.43473 0.85034 0.32916 0.0
C710 C 0.43018 0.85119 0.28207 0.0
C711 C 0.42525 0.85519 0.25768 0.0
C712 C 0.41065 0.87689 0.29785 0.0
C713 C 0.40101 0.88595 0.2494 0.0
C714 C 0.38122 0.91128 0.26495 0.0
C715 C 0.36428 0.93118 0.30498 0.0
C716 C 0.36827 0.92652 0.32938 0.0
C717 C 0.3854 0.90677 0.28922 0.0
C718 C 0.39461 0.89755 0.33768 0.0
C719 C 0.41538 0.87293 0.32213 0.0
H720 H 0.12654 0.50922 0.79571 0.0
H721 H 0.07265 0.5655 0.85554 0.0
H722 H 0.03047 0.60475 0.82979 0.0
H723 H 0.01105 0.6259 0.79011 0.0
H724 H 0.06373 0.56882 0.73017 0.0
H725 H 0.10354 0.52711 0.75592 0.0
C726 C 0.10548 0.52998 0.80311 0.0
C727 C 0.10311 0.53436 0.82767 0.0
C728 C 0.08097 0.55249 0.7881 0.0
C729 C 0.07509 0.56111 0.83685 0.0
C730 C 0.05104 0.58383 0.82207 0.0
C731 C 0.03114 0.60425 0.78265 0.0
C732 C 0.03438 0.60092 0.75809 0.0
C733 C 0.05404 0.58019 0.79765 0.0
C734 C 0.06021 0.57209 0.74888 0.0
C735 C 0.0833 0.54833 0.76366 0.0
H736 H 0.4303 0.14112 0.80613 0.0
H737 H 0.44257 0.05473 0.86099 0.0
H738 H 0.41397 0.00501 0.8356 0.0
H739 H 0.38384 -0.01418 0.79811 0.0
H740 H 0.36832 0.07346 0.74426 0.0
H741 H 0.39961 0.12229 0.76906 0.0
C742 C 0.42664 0.11164 0.81283 0.0
C743 C 0.43884 0.1025 0.83586 0.0
C744 C 0.40935 0.08295 0.79819 0.0
C745 C 0.43406 0.06338 0.84354 0.0
C746 C 0.41735 0.03464 0.82896 0.0
C747 C 0.38687 0.01554 0.79167 0.0
C748 C 0.3733 0.02526 0.76897 0.0
C749 C 0.40457 0.04411 0.80629 0.0
C750 C 0.37849 0.06429 0.76129 0.0
C751 C 0.39635 0.09259 0.77562 0.0
H752 H 0.86901 0.41339 0.84599 0.0
H753 H 0.85323 0.50262 0.79319 0.0
H754 H 0.89745 0.46709 0.767 0.0
H755 H 0.94215 0.41089 0.75872 0.0
H756 H 0.95983 0.32285 0.81179 0.0
H757 H 0.91428 0.35768 0.83793 0.0
C758 C 0.87531 0.42533 0.82885 0.0
C759 C 0.85694 0.4608 0.82181 0.0
C760 C 0.90153 0.40483 0.81369 0.0
C761 C 0.86581 0.47521 0.79926 0.0
C762 C 0.89153 0.45493 0.78415 0.0
C763 C 0.93577 0.39917 0.77592 0.0
C764 C 0.95469 0.36422 0.78318 0.0
C765 C 0.90957 0.41964 0.79109 0.0
C766 C 0.94627 0.34986 0.80573 0.0
C767 C 0.91999 0.36974 0.82073 0.0
H768 H 0.53304 0.83051 0.79078 0.0
H769 H 0.51998 0.91658 0.84599 0.0
H770 H 0.55846 0.96333 0.82347 0.0
H771 H 0.59805 0.9798 0.78881 0.0
H772 H 0.61406 0.89333 0.73424 0.0
H773 H 0.57244 0.84726 0.75582 0.0
C774 C 0.53864 0.85932 0.79809 0.0
C775 C 0.52325 0.86929 0.8204 0.0
C776 C 0.56166 0.88633 0.78511 0.0
C777 C 0.53065 0.90747 0.82899 0.0
C778 C 0.55311 0.93445 0.81611 0.0
C779 C 0.59289 0.95081 0.78161 0.0
C780 C 0.6098 0.94035 0.7598 0.0
C781 C 0.56915 0.92411 0.79427 0.0
C782 C 0.60155 0.9027 0.75077 0.0
C783 C 0.57778 0.8761 0.76322 0.0
H784 H 0.064 0.19376 0.41449 0.0
H785 H 0.15785 0.27763 0.42582 0.0
H786 H 0.2076 0.22606 0.41922 0.0
H787 H 0.22411 0.15697 0.4108 0.0
H788 H 0.12989 0.07396 0.39818 0.0
H789 H 0.08042 0.12555 0.40477 0.0
C790 C 0.09533 0.2007 0.41578 0.0
C791 C 0.10728 0.23931 0.42094 0.0
C792 C 0.12361 0.17117 0.41157 0.0
C793 C 0.14797 0.24804 0.422 0.0
C794 C 0.17638 0.21862 0.41817 0.0
C795 C 0.19278 0.15032 0.40907 0.0
C796 C 0.1807 0.11167 0.404 0.0
C797 C 0.16451 0.18011 0.41287 0.0
C798 C 0.13994 0.10339 0.40226 0.0
C799 C 0.11165 0.13285 0.40602 0.0
H800 H 0.85671 0.17219 0.3778 0.0
H801 H 0.88434 0.13856 0.44859 0.0
H802 H 0.83058 0.09052 0.44811 0.0
H803 H 0.77683 0.05671 0.42711 0.0
H804 H 0.75051 0.08968 0.35605 0.0
H805 H 0.80178 0.14023 0.35737 0.0
C806 C 0.85076 0.1546 0.3932 0.0
C807 C 0.87467 0.15882 0.41313 0.0
C808 C 0.81972 0.12722 0.39285 0.0
C809 C 0.86686 0.13541 0.43285 0.0
C810 C 0.83587 0.10819 0.43268 0.0
C811 C 0.78187 0.07548 0.41209 0.0
C812 C 0.75989 0.06967 0.39155 0.0
C813 C 0.81218 0.10375 0.41274 0.0
C814 C 0.76712 0.09369 0.37206 0.0
C815 C 0.79653 0.12244 0.37276 0.0
H816 H 0.94372 0.78592 0.35932 0.0
H817 H 0.89924 0.71296 0.41514 0.0
H818 H 0.84302 0.75805 0.42069 0.0
H819 H 0.8073 0.81889 0.40993 0.0
H820 H 0.85425 0.89288 0.35542 0.0
H821 H 0.90901 0.84651 0.34902 0.0
C822 C 0.92165 0.77967 0.37265 0.0
C823 C 0.92547 0.74603 0.38672 0.0
C824 C 0.88999 0.80591 0.37594 0.0
C825 C 0.89691 0.73869 0.40409 0.0
C826 C 0.86479 0.76441 0.40724 0.0
C827 C 0.8294 0.82453 0.39652 0.0
C828 C 0.82681 0.85891 0.38299 0.0
C829 C 0.8611 0.79814 0.39328 0.0
C830 C 0.85585 0.86652 0.36598 0.0
C831 C 0.88702 0.84006 0.36233 0.0
H832 H 0.12385 0.82965 0.38898 0.0
H833 H 0.193 0.72494 0.40272 0.0
H834 H 0.25166 0.76488 0.40952 0.0
H835 H 0.28335 0.82999 0.4125 0.0
H836 H 0.21208 0.93414 0.40164 0.0
H837 H 0.15418 0.89401 0.39376 0.0
C838 C 0.15154 0.81542 0.39373 0.0
C839 C 0.15373 0.77421 0.3951 0.0
C840 C 0.18488 0.83855 0.39854 0.0
C841 C 0.19034 0.75651 0.40089 0.0
C842 C 0.22395 0.77937 0.40511 0.0
C843 C 0.25506 0.84379 0.40856 0.0
C844 C 0.25202 0.88496 0.40795 0.0
C845 C 0.22154 0.82045 0.4041 0.0
C846 C 0.21518 0.90252 0.40275 0.0
C847 C 0.18202 0.87959 0.39798 0.0
H848 H 0.1997 0.79925 0.71545 0.0
H849 H 0.1489 0.8717 0.66107 0.0
H850 H 0.09988 0.82148 0.65301 0.0
H851 H 0.07125 0.75648 0.66092 0.0
H852 H 0.12615 0.68142 0.71235 0.0
H853 H 0.17454 0.7325 0.72123 0.0
C854 C 0.17838 0.80408 0.7016 0.0
C855 C 0.17803 0.83995 0.6893 0.0
C856 C 0.15111 0.77424 0.69621 0.0
C857 C 0.14946 0.84529 0.67158 0.0
C858 C 0.12156 0.81622 0.66662 0.0
C859 C 0.094 0.75126 0.67395 0.0
C860 C 0.09508 0.71526 0.68594 0.0
C861 C 0.12207 0.78059 0.67882 0.0
C862 C 0.12485 0.70877 0.7027 0.0
C863 C 0.15239 0.73808 0.70792 0.0
H864 H 0.18916 0.03072 0.72893 0.0
H865 H 0.27143 0.08643 0.68162 0.0
H866 H 0.22803 0.14461 0.67982 0.0
H867 H 0.16689 0.17966 0.69242 0.0
H868 H 0.08391 0.12144 0.73817 0.0
H869 H 0.12755 0.06384 0.73992 0.0
C870 C 0.19776 0.05564 0.71827 0.0
C871 C 0.23366 0.05461 0.70565 0.0
C872 C 0.17255 0.08837 0.71709 0.0
C873 C 0.24396 0.0867 0.69152 0.0
C874 C 0.21922 0.1199 0.69056 0.0
C875 C 0.1586 0.15432 0.70281 0.0
C876 C 0.12254 0.15469 0.71534 0.0
C877 C 0.18355 0.12112 0.7034 0.0
C878 C 0.11156 0.12163 0.72842 0.0
C879 C 0.13649 0.08883 0.72944 0.0
H880 H 0.82715 0.14405 0.67474 0.0
H881 H 0.78516 0.14849 0.74595 0.0
H882 H 0.83279 0.20051 0.75487 0.0
H883 H 0.8899 0.2404 0.74324 0.0
H884 H 0.9318 0.23703 0.67195 0.0
H885 H 0.88006 0.18951 0.66201 0.0
C886 C 0.82844 0.15665 0.69215 0.0
C887 C 0.80326 0.14228 0.7098 0.0
C888 C 0.85564 0.18673 0.69706 0.0
C889 C 0.80445 0.15914 0.73218 0.0
C890 C 0.83165 0.18877 0.73726 0.0
C891 C 0.88729 0.22971 0.72544 0.0
C892 C 0.91476 0.24183 0.70841 0.0
C893 C 0.85785 0.20222 0.71996 0.0
C894 C 0.91086 0.2282 0.68535 0.0
C895 C 0.88154 0.20076 0.67972 0.0
H896 H 0.89928 0.84698 0.70711 0.0
H897 H 0.82171 0.76936 0.66922 0.0
H898 H 0.76943 0.81967 0.66927 0.0
H899 H 0.74498 0.88553 0.68129 0.0
H900 H 0.82187 0.96071 0.72149 0.0
H901 H 0.87509 0.91208 0.71916 0.0
C902 C 0.87099 0.84129 0.69875 0.0
C903 C 0.86426 0.80465 0.68823 0.0
C904 C 0.84088 0.86999 0.69927 0.0
C905 C 0.82737 0.79734 0.67763 0.0
C906 C 0.79755 0.82611 0.67758 0.0
C907 C 0.77351 0.8912 0.68935 0.0
C908 C 0.7795 0.9265 0.70158 0.0
C909 C 0.80382 0.86251 0.68851 0.0
C910 C 0.81645 0.93352 0.71216 0.0
C911 C 0.84696 0.90577 0.71081 0.0
H912 H 0.5315 0.71603 0.89213 0.0
H913 H 0.61759 0.80352 0.91186 0.0
H914 H 0.67045 0.75369 0.91027 0.0
H915 H 0.69161 0.6849 0.90376 0.0
H916 H 0.60487 0.59902 0.88218 0.0
H917 H 0.55266 0.64873 0.88424 0.0
C918 C 0.56174 0.72421 0.89637 0.0
C919 C 0.57055 0.76328 0.90247 0.0
C920 C 0.59182 0.69573 0.89501 0.0
C921 C 0.61006 0.77356 0.90727 0.0
C922 C 0.64024 0.74511 0.90632 0.0
C923 C 0.66141 0.67717 0.89917 0.0
C924 C 0.65221 0.63812 0.89296 0.0
C925 C 0.63144 0.70607 0.90017 0.0
C926 C 0.61274 0.62862 0.88739 0.0
C927 C 0.58285 0.65706 0.88847 0.0
H928 H 0.29913 0.7047 0.89486 0.0
H929 H 0.38794 0.61328 0.88921 0.0
H930 H 0.33712 0.56338 0.89614 0.0
H931 H 0.26734 0.5458 0.90322 0.0
H932 H 0.17847 0.63738 0.90773 0.0
H933 H 0.22954 0.68719 0.90172 0.0
C934 C 0.30734 0.67383 0.89476 0.0
C935 C 0.3473 0.66277 0.89131 0.0
C936 C 0.27801 0.64537 0.89873 0.0
C937 C 0.35747 0.62264 0.89188 0.0
C938 C 0.32842 0.59409 0.89583 0.0
C939 C 0.25917 0.57666 0.90318 0.0
C940 C 0.21912 0.58784 0.90608 0.0
C941 C 0.28861 0.60514 0.89933 0.0
C942 C 0.20904 0.62797 0.90559 0.0
C943 C 0.23822 0.65647 0.90209 0.0
H944 H 0.42003 0.27399 0.90828 0.0
H945 H 0.32641 0.1892 0.91786 0.0
H946 H 0.27658 0.24114 0.91328 0.0
H947 H 0.25966 0.31062 0.90671 0.0
H948 H 0.35342 0.39484 0.8956 0.0
H949 H 0.40311 0.34312 0.90084 0.0
C950 C 0.38874 0.26689 0.90963 0.0
C951 C 0.377 0.22777 0.91365 0.0
C952 C 0.36026 0.29678 0.9066 0.0
C953 C 0.33628 0.21905 0.91487 0.0
C954 C 0.30776 0.24874 0.9122 0.0
C955 C 0.29093 0.31764 0.90505 0.0
C956 C 0.30265 0.35672 0.90071 0.0
C957 C 0.31941 0.28767 0.90794 0.0
C958 C 0.34344 0.3652 0.89915 0.0
C959 C 0.37193 0.3356 0.90208 0.0
H960 H 0.73373 0.3812 0.90234 0.0
H961 H 0.64787 0.46853 0.88132 0.0
H962 H 0.59438 0.42085 0.88502 0.0
H963 H 0.57219 0.35356 0.89201 0.0
H964 H 0.65739 0.26459 0.91151 0.0
H965 H 0.71078 0.31316 0.9103 0.0
C966 C 0.70321 0.38967 0.8989 0.0
C967 C 0.69461 0.42814 0.89159 0.0
C968 C 0.67252 0.36166 0.90043 0.0
C969 C 0.6551 0.4389 0.88687 0.0
C970 C 0.6245 0.41169 0.88894 0.0
C971 C 0.60238 0.34488 0.8962 0.0
C972 C 0.61078 0.30552 0.90172 0.0
C973 C 0.6329 0.37284 0.89533 0.0
C974 C 0.6502 0.29464 0.90684 0.0
C975 C 0.68073 0.32245 0.90632 0.0
H976 H 0.552 0.25688 0.1722 0.0
H977 H 0.62305 0.18657 0.21901 0.0
H978 H 0.66956 0.24088 0.2237 0.0
H979 H 0.68847 0.30896 0.21577 0.0
H980 H 0.62008 0.37746 0.16651 0.0
H981 H 0.57319 0.32376 0.16245 0.0
C982 C 0.5778 0.25336 0.18331 0.0
C983 C 0.584 0.21779 0.19527 0.0
C984 C 0.60442 0.28466 0.18594 0.0
C985 C 0.61772 0.21355 0.20947 0.0
C986 C 0.64416 0.24471 0.21232 0.0
C987 C 0.66367 0.31216 0.20388 0.0
C988 C 0.65796 0.34766 0.19166 0.0
C989 C 0.63758 0.28052 0.20082 0.0
C990 C 0.62496 0.35113 0.17671 0.0
C991 C 0.5983 0.32013 0.17407 0.0
H992 H 0.61686 0.66924 0.21815 0.0
H993 H 0.58669 0.6416 0.14679 0.0
H994 H 0.6407 0.59346 0.14503 0.0
H995 H 0.69522 0.55733 0.16436 0.0
H996 H 0.72383 0.58454 0.23598 0.0
H997 H 0.67266 0.63555 0.23679 0.0
C998 C 0.62233 0.653 0.20213 0.0
C999 C 0.59755 0.65886 0.18272 0.0
C1000 C 0.6535 0.62552 0.2012 0.0
C1001 C 0.60481 0.63714 0.16217 0.0
C1002 C 0.63595 0.60986 0.16106 0.0
C1003 C 0.69069 0.57501 0.17994 0.0
C1004 C 0.71327 0.56738 0.20005 0.0
C1005 C 0.66037 0.60361 0.18051 0.0
C1006 C 0.70673 0.58996 0.22029 0.0
C1007 C 0.67738 0.61898 0.22081 0.0
H1008 H 0.25132 0.64803 0.19 0.0
H1009 H 0.34963 0.56738 0.19836 0.0
H1010 H 0.39644 0.62097 0.1919 0.0
H1011 H 0.40943 0.69053 0.18416 0.0
H1012 H 0.31148 0.77191 0.1774 0.0
H1013 H 0.2644 0.71811 0.18322 0.0
C1014 C 0.28298 0.64222 0.19081 0.0
C1015 C 0.29688 0.60366 0.19474 0.0
C1016 C 0.30974 0.67322 0.18723 0.0
C1017 C 0.33807 0.59665 0.19518 0.0
C1018 C 0.36486 0.62729 0.19154 0.0
C1019 C 0.37778 0.69649 0.18367 0.0
C1020 C 0.36394 0.73511 0.18007 0.0
C1021 C 0.35102 0.66561 0.18743 0.0
C1022 C 0.32285 0.74242 0.18003 0.0
C1023 C 0.29596 0.71169 0.1834 0.0
H1024 H 0.26625 0.41588 0.19338 0.0
H1025 H 0.18311 0.32068 0.18494 0.0
H1026 H 0.23706 0.27292 0.18952 0.0
H1027 H 0.30756 0.25845 0.19616 0.0
H1028 H 0.39012 0.35377 0.20618 0.0
H1029 H 0.33651 0.40144 0.2005 0.0
C1030 C 0.25994 0.38471 0.19223 0.0
C1031 C 0.22076 0.37183 0.18859 0.0
C1032 C 0.29091 0.35752 0.19531 0.0
C1033 C 0.21303 0.33131 0.18764 0.0
C1034 C 0.24384 0.30403 0.19032 0.0
C1035 C 0.31378 0.28964 0.19749 0.0
C1036 C 0.35282 0.30249 0.20175 0.0
C1037 C 0.28281 0.31683 0.19435 0.0
C1038 C 0.36043 0.34307 0.2028 0.0
C1039 C 0.32978 0.37033 0.19959 0.0
H1040 H 0.94766 0.25901 0.53705 0.0
H1041 H 0.05706 0.30902 0.51121 0.0
H1042 H 0.08136 0.31509 0.55106 0.0
H1043 H 0.07132 0.30785 0.5934 0.0
H1044 H 0.96169 0.25911 0.61943 0.0
H1045 H 0.93739 0.25224 0.5794 0.0
C1046 C 0.9767 0.2716 0.53995 0.0
C1047 C 0.00023 0.28356 0.5207 0.0
C1048 C -0.00957 0.27564 0.56311 0.0
C1049 C 0.03816 0.29908 0.52529 0.0
C1050 C 0.05209 0.30286 0.54823 0.0
C1051 C 0.04223 0.29538 0.59041 0.0
C1052 C 0.01851 0.28389 0.60964 0.0
C1053 C 0.02846 0.29136 0.56728 0.0
C1054 C 0.98053 0.26857 0.60517 0.0
C1055 C 0.9667 0.26439 0.58221 0.0
H1056 H 0.7033 0.05874 0.57575 0.0
H1057 H 0.72734 0.94225 0.60234 0.0
H1058 H 0.73152 0.91713 0.56247 0.0
H1059 H 0.72843 0.92802 0.5202 0.0
H1060 H 0.70795 0.04519 0.49364 0.0
H1061 H 0.70243 0.07004 0.53351 0.0
C1062 C 0.70998 0.02792 0.57306 0.0
C1063 C 0.71505 0.00261 0.59243 0.0
C1064 C 0.7129 0.01366 0.54998 0.0
C1065 C 0.72283 0.96256 0.58807 0.0
C1066 C 0.72546 0.94814 0.56516 0.0
C1067 C 0.72327 0.95911 0.5229 0.0
C1068 C 0.7187 -0.01547 0.50353 0.0
C1069 C 0.72061 0.97342 0.54598 0.0
C1070 C 0.71121 0.02463 0.50791 0.0
C1071 C 0.70823 0.03898 0.53081 0.0
H1072 H 0.93302 0.66638 0.56619 0.0
H1073 H 0.04843 0.70054 0.59158 0.0
H1074 H 0.0736 0.70236 0.55147 0.0
H1075 H 0.06268 0.6952 0.50923 0.0
H1076 H 0.94742 0.6598 0.48398 0.0
H1077 H 0.92218 0.65904 0.52393 0.0
C1078 C 0.96361 0.67462 0.56307 0.0
C1079 C -0.01133 0.68347 0.58215 0.0
C1080 C 0.97788 0.67578 0.53987 0.0
C1081 C 0.02846 0.69322 0.57746 0.0
C1082 C 0.04282 0.69452 0.55444 0.0
C1083 C 0.0321 0.68692 0.51229 0.0
C1084 C 0.00724 0.6774 0.49319 0.0
C1085 C 0.0178 0.68588 0.53549 0.0
C1086 C 0.96742 0.66766 0.49795 0.0
C1087 C 0.95293 0.66692 0.52095 0.0
H1088 H 0.26969 0.92342 0.57905 0.0
H1089 H 0.32672 0.02846 0.60454 0.0
H1090 H 0.33333 0.05247 0.5645 0.0
H1091 H 0.32567 0.0423 0.52206 0.0
H1092 H 0.26979 0.93645 0.49682 0.0
H1093 H 0.26139 0.91358 0.53691 0.0
C1094 C 0.28389 0.95146 0.57598 0.0
C1095 C 0.29794 0.97382 0.59507 0.0
C1096 C 0.28831 0.96477 0.55283 0.0
C1097 C 0.31529 0.01059 0.59045 0.0
C1098 C 0.3194 0.02423 0.56745 0.0
C1099 C 0.3113 0.01439 0.52523 0.0
C1100 C 0.29847 -0.00881 0.50617 0.0
C1101 C 0.30636 0.0014 0.54847 0.0
C1102 C 0.2805 0.95478 0.51091 0.0
C1103 C 0.2754 0.94178 0.53392 0.0
H1104 H 0.39675 0.7704 1.00649 0.0
H1105 H 0.50712 0.82262 0.98381 0.0
H1106 H 0.53092 0.82287 1.02382 0.0
H1107 H 0.52088 0.80878 0.06538 0.0
H1108 H 0.41058 0.75799 0.08874 0.0
H1109 H 0.38598 0.75786 0.0485 0.0
C1110 C 0.42587 0.7822 1.01018 0.0
C1111 C 0.44999 0.7962 0.99171 0.0
C1112 C 0.43942 0.7828 1.03351 0.0
C1113 C 0.48788 0.81094 0.99723 0.0
C1114 C 0.50155 0.81139 1.02029 0.0
C1115 C 0.49156 0.79735 0.06173 0.0
C1116 C 0.4678 0.78309 0.08019 0.0
C1117 C 0.47768 0.79729 1.03854 0.0
C1118 C 0.42948 0.76934 0.07501 0.0
C1119 C 0.41549 0.76906 0.05193 0.0
H1120 H 0.19384 0.54009 0.07908 0.0
H1121 H 0.15 0.42659 0.10067 0.0
H1122 H 0.14743 0.40552 0.05998 0.0
H1123 H 0.15615 0.41942 1.01815 0.0
H1124 H 0.19935 0.53293 0.99636 0.0
H1125 H 0.20226 0.55412 1.03716 0.0
C1126 C 0.18335 0.51082 0.07505 0.0
C1127 C 0.17209 0.48514 0.09335 0.0
C1128 C 0.18144 0.49891 0.05141 0.0
C1129 C 0.15933 0.44706 0.08733 0.0
C1130 C 0.15757 0.435 0.06391 0.0
C1131 C 0.1666 0.4487 1.02219 0.0
C1132 C 0.17768 0.47439 1.00389 0.0
C1133 C 0.16846 0.46066 1.0458 0.0
C1134 C 0.19027 0.51253 1.00982 0.0
C1135 C 0.19219 0.5246 1.03325 0.0
H1136 H 0.41766 0.15869 0.08402 0.0
H1137 H 0.52611 0.21146 0.10862 0.0
H1138 H 0.54936 0.2185 0.06836 0.0
H1139 H 0.53863 0.21052 1.02622 0.0
H1140 H 0.43068 0.15622 1.00167 0.0
H1141 H 0.40717 0.15023 1.04176 0.0
C1142 C 0.44625 0.17204 0.08064 0.0
C1143 C 0.47001 0.18456 0.09952 0.0
C1144 C 0.45946 0.17608 0.05736 0.0
C1145 C 0.50732 0.20113 0.0946 0.0
C1146 C 0.52055 0.20541 0.07151 0.0
C1147 C 0.5101 0.19701 1.02946 0.0
C1148 C 0.48672 0.18383 1.01053 0.0
C1149 C 0.49688 0.19298 0.05274 0.0
C1150 C 0.44942 0.16713 1.01552 0.0
C1151 C 0.43595 0.16339 1.0386 0.0
H1152 H 0.75038 0.55911 1.0137 0.0
H1153 H 0.78516 0.44454 0.98777 0.0
H1154 H 0.78604 0.41941 1.02757 0.0
H1155 H 0.77889 0.43 0.06977 0.0
H1156 H 0.74562 0.54447 0.09608 0.0
H1157 H 0.74379 0.56989 0.05604 0.0
C1158 C 0.75858 0.52871 1.01656 0.0
C1159 C 0.76787 0.50401 0.99732 0.0
C1160 C 0.75975 0.51446 1.03968 0.0
C1161 C 0.77749 0.46443 1.00185 0.0
C1162 C 0.7783 0.45 1.02475 0.0
C1163 C 0.77079 0.46044 0.06686 0.0
C1164 C 0.76205 0.48518 0.0861 0.0
C1165 C 0.76966 0.47476 1.04379 0.0
C1166 C 0.7527 0.5248 0.08175 0.0
C1167 C 0.75141 0.53926 0.05881 0.0
loop_
_geom_bond_atom_site_label_1
_geom_bond_atom_site_label_2
_geom_bond_distance
_geom_bond_site_symmetry_2
_ccdc_geom_bond_type
C0 C1 1.351 . S
C0 N3 1.368 1_655 S
C0 H5 0.931 . S
C1 C0 1.351 . S
C1 N2 1.373 1_655 S
C1 H29 0.930 . S
N2 C1 1.373 1_455 S
N2 C4 1.340 . S
N3 C0 1.368 1_455 S
N3 C4 1.321 . S
N3 Co6 2.135 . S
C4 N2 1.340 . S
C4 N3 1.321 . S
C4 H28 0.930 . S
H5 C0 0.931 . S
Co6 N3 2.135 . S
Co6 N9 2.121 . S
Co6 O14 2.055 . S
Co6 O17 2.039 . S
Co6 N20 2.140 1_455 S
C7 O8 1.227 . S
C7 O17 1.265 . S
O8 C7 1.227 . S
N9 Co6 2.121 . S
N9 C11 1.375 . S
N9 C12 1.313 . S
C10 C11 1.338 . S
C10 N13 1.377 . S
C10 H30 0.930 . S
C11 N9 1.375 . S
C11 C10 1.338 . S
C11 H15 0.931 . S
C12 N9 1.313 . S
C12 N13 1.344 . S
C12 H16 0.930 . S
N13 C10 1.377 . S
N13 C12 1.344 . S
O14 Co6 2.055 . S
O14 C18 1.253 . S
H15 C11 0.931 . S
H16 C12 0.930 . S
O17 Co6 2.039 . S
O17 C7 1.265 . S
C18 O14 1.253 . S
C18 O19 1.227 1_455 S
O19 C18 1.227 1_655 S
N20 Co6 2.140 1_655 S
N20 C23 1.346 . S
N20 C24 1.345 . S
C21 C22 1.387 . S
C21 C25 1.391 . S
C22 C21 1.387 . S
C22 C23 1.369 . S
C22 H31 0.929 . S
C23 N20 1.346 . S
C23 C22 1.369 . S
C23 H26 0.928 . S
C24 N20 1.345 . S
C24 C25 1.371 . S
C24 H27 0.931 . S
C25 C21 1.391 . S
C25 C24 1.371 . S
C25 H32 0.930 . S
H26 C23 0.928 . S
H27 C24 0.931 . S
H28 C4 0.930 . S
H29 C1 0.930 . S
H30 C10 0.930 . S
H31 C22 0.929 . S
H32 C25 0.930 . S
C33 C34 1.351 . S
C33 N36 1.368 1_565 S
C33 H38 0.931 . S
C34 C33 1.351 . S
C34 N35 1.373 1_565 S
C34 H62 0.930 . S
N35 C34 1.373 1_545 S
N35 C37 1.340 . S
N36 C33 1.368 1_545 S
N36 C37 1.321 . S
N36 Co39 2.135 . S
C37 N35 1.340 . S
C37 N36 1.321 . S
C37 H61 0.930 . S
H38 C33 0.931 . S
Co39 N36 2.135 . S
Co39 N42 2.121 . S
Co39 O47 2.055 . S
Co39 O50 2.039 . S
Co39 N53 2.140 1_545 S
C40 O41 1.227 . S
C40 O50 1.265 . S
O41 C40 1.227 . S
N42 Co39 2.121 . S
N42 C44 1.375 . S
N42 C45 1.313 . S
C43 C44 1.338 . S
C43 N46 1.377 . S
C43 H63 0.930 . S
C44 N42 1.375 . S
C44 C43 1.338 . S
C44 H48 0.931 . S
C45 N42 1.313 . S
C45 N46 1.344 . S
C45 H49 0.930 . S
N46 C43 1.377 . S
N46 C45 1.344 . S
O47 Co39 2.055 . S
O47 C51 1.253 . S
H48 C44 0.931 . S
H49 C45 0.930 . S
O50 Co39 2.039 . S
O50 C40 1.265 . S
C51 O47 1.253 . S
C51 O52 1.227 1_545 S
O52 C51 1.227 1_565 S
N53 Co39 2.140 1_565 S
N53 C56 1.346 . S
N53 C57 1.345 . S
C54 C55 1.387 . S
C54 C58 1.391 . S
C55 C54 1.387 . S
C55 C56 1.369 . S
C55 H64 0.929 . S
C56 N53 1.346 . S
C56 C55 1.369 . S
C56 H59 0.928 . S
C57 N53 1.345 . S
C57 C58 1.371 . S
C57 H60 0.931 . S
C58 C54 1.391 . S
C58 C57 1.371 . S
C58 H65 0.930 . S
H59 C56 0.928 . S
H60 C57 0.931 . S
H61 C37 0.930 . S
H62 C34 0.930 . S
H63 C43 0.930 . S
H64 C55 0.929 . S
H65 C58 0.930 . S
C66 C67 1.351 . S
C66 N69 1.368 1_455 S
C66 H71 0.931 . S
C67 C66 1.351 . S
C67 N68 1.373 1_455 S
C67 H95 0.930 . S
N68 C67 1.373 1_655 S
N68 C70 1.340 . S
N69 C66 1.368 1_655 S
N69 C70 1.321 . S
N69 Co72 2.135 . S
C70 N68 1.340 . S
C70 N69 1.321 . S
C70 H94 0.930 . S
H71 C66 0.931 . S
Co72 N69 2.135 . S
Co72 N75 2.121 . S
Co72 O80 2.055 . S
Co72 O83 2.039 . S
Co72 N86 2.140 1_655 S
C73 O74 1.227 . S
C73 O83 1.265 . S
O74 C73 1.227 . S
N75 Co72 2.121 . S
N75 C77 1.375 . S
N75 C78 1.313 . S
C76 C77 1.338 . S
C76 N79 1.377 . S
C76 H96 0.930 . S
C77 N75 1.375 . S
C77 C76 1.338 . S
C77 H81 0.931 . S
C78 N75 1.313 . S
C78 N79 1.344 . S
C78 H82 0.930 . S
N79 C76 1.377 . S
N79 C78 1.344 . S
O80 Co72 2.055 . S
O80 C84 1.253 . S
H81 C77 0.931 . S
H82 C78 0.930 . S
O83 Co72 2.039 . S
O83 C73 1.265 . S
C84 O80 1.253 . S
C84 O85 1.227 1_655 S
O85 C84 1.227 1_455 S
N86 Co72 2.140 1_455 S
N86 C89 1.346 . S
N86 C90 1.345 . S
C87 C88 1.387 . S
C87 C91 1.391 . S
C88 C87 1.387 . S
C88 C89 1.369 . S
C88 H97 0.929 . S
C89 N86 1.346 . S
C89 C88 1.369 . S
C89 H92 0.928 . S
C90 N86 1.345 . S
C90 C91 1.371 . S
C90 H93 0.931 . S
C91 C87 1.391 . S
C91 C90 1.371 . S
C91 H98 0.930 . S
H92 C89 0.928 . S
H93 C90 0.931 . S
H94 C70 0.930 . S
H95 C67 0.930 . S
H96 C76 0.930 . S
H97 C88 0.929 . S
H98 C91 0.930 . S
C99 C100 1.351 . S
C99 N102 1.368 1_545 S
C99 H104 0.931 . S
C100 C99 1.351 . S
C100 N101 1.373 1_545 S
C100 H128 0.930 . S
N101 C100 1.373 1_565 S
N101 C103 1.340 . S
N102 C99 1.368 1_565 S
N102 C103 1.321 . S
N102 Co105 2.135 . S
C103 N101 1.340 . S
C103 N102 1.321 . S
C103 H127 0.930 . S
H104 C99 0.931 . S
Co105 N102 2.135 . S
Co105 N108 2.121 . S
Co105 O113 2.055 . S
Co105 O116 2.039 . S
Co105 N119 2.140 1_565 S
C106 O107 1.227 . S
C106 O116 1.265 . S
O107 C106 1.227 . S
N108 Co105 2.121 . S
N108 C110 1.375 . S
N108 C111 1.313 . S
C109 C110 1.338 . S
C109 N112 1.377 . S
C109 H129 0.930 . S
C110 N108 1.375 . S
C110 C109 1.338 . S
C110 H114 0.931 . S
C111 N108 1.313 . S
C111 N112 1.344 . S
C111 H115 0.930 . S
N112 C109 1.377 . S
N112 C111 1.344 . S
O113 Co105 2.055 . S
O113 C117 1.253 . S
H114 C110 0.931 . S
H115 C111 0.930 . S
O116 Co105 2.039 . S
O116 C106 1.265 . S
C117 O113 1.253 . S
C117 O118 1.227 1_565 S
O118 C117 1.227 1_545 S
N119 Co105 2.140 1_545 S
N119 C122 1.346 . S
N119 C123 1.345 . S
C120 C121 1.387 . S
C120 C124 1.391 . S
C121 C120 1.387 . S
C121 C122 1.369 . S
C121 H130 0.929 . S
C122 N119 1.346 . S
C122 C121 1.369 . S
C122 H125 0.928 . S
C123 N119 1.345 . S
C123 C124 1.371 . S
C123 H126 0.931 . S
C124 C120 1.391 . S
C124 C123 1.371 . S
C124 H131 0.930 . S
H125 C122 0.928 . S
H126 C123 0.931 . S
H127 C103 0.930 . S
H128 C100 0.930 . S
H129 C109 0.930 . S
H130 C121 0.929 . S
H131 C124 0.930 . S
C132 C133 1.351 . S
C132 N135 1.368 1_655 S
C132 H137 0.931 . S
C133 C132 1.351 . S
C133 N134 1.373 1_655 S
C133 H161 0.930 . S
N134 C133 1.373 1_455 S
N134 C136 1.340 . S
N135 C132 1.368 1_455 S
N135 C136 1.321 . S
N135 Co138 2.135 . S
C136 N134 1.340 . S
C136 N135 1.321 . S
C136 H160 0.930 . S
H137 C132 0.931 . S
Co138 N135 2.135 . S
Co138 N141 2.121 . S
Co138 O146 2.055 . S
Co138 O149 2.039 . S
Co138 N152 2.140 1_455 S
C139 O140 1.227 . S
C139 O149 1.265 . S
O140 C139 1.227 . S
N141 Co138 2.121 . S
N141 C143 1.375 . S
N141 C144 1.313 . S
C142 C143 1.338 . S
C142 N145 1.377 . S
C142 H162 0.930 . S
C143 N141 1.375 . S
C143 C142 1.338 . S
C143 H147 0.931 . S
C144 N141 1.313 . S
C144 N145 1.344 . S
C144 H148 0.930 . S
N145 C142 1.377 . S
N145 C144 1.344 . S
O146 Co138 2.055 . S
O146 C150 1.253 . S
H147 C143 0.931 . S
H148 C144 0.930 . S
O149 Co138 2.039 . S
O149 C139 1.265 . S
C150 O146 1.253 . S
C150 O151 1.227 1_455 S
O151 C150 1.227 1_655 S
N152 Co138 2.140 1_655 S
N152 C155 1.346 . S
N152 C156 1.345 . S
C153 C154 1.387 . S
C153 C157 1.391 . S
C154 C153 1.387 . S
C154 C155 1.369 . S
C154 H163 0.929 . S
C155 N152 1.346 . S
C155 C154 1.369 . S
C155 H158 0.928 . S
C156 N152 1.345 . S
C156 C157 1.371 . S
C156 H159 0.931 . S
C157 C153 1.391 . S
C157 C156 1.371 . S
C157 H164 0.930 . S
H158 C155 0.928 . S
H159 C156 0.931 . S
H160 C136 0.930 . S
H161 C133 0.930 . S
H162 C142 0.930 . S
H163 C154 0.929 . S
H164 C157 0.930 . S
C165 C166 1.351 . S
C165 N168 1.368 1_565 S
C165 H170 0.931 . S
C166 C165 1.351 . S
C166 N167 1.373 1_565 S
C166 H194 0.930 . S
N167 C166 1.373 1_545 S
N167 C169 1.340 . S
N168 C165 1.368 1_545 S
N168 C169 1.321 . S
N168 Co171 2.135 . S
C169 N167 1.340 . S
C169 N168 1.321 . S
C169 H193 0.930 . S
H170 C165 0.931 . S
Co171 N168 2.135 . S
Co171 N174 2.121 . S
Co171 O179 2.055 . S
Co171 O182 2.039 . S
Co171 N185 2.140 1_545 S
C172 O173 1.227 . S
C172 O182 1.265 . S
O173 C172 1.227 . S
N174 Co171 2.121 . S
N174 C176 1.375 . S
N174 C177 1.313 . S
C175 C176 1.338 . S
C175 N178 1.377 . S
C175 H195 0.930 . S
C176 N174 1.375 . S
C176 C175 1.338 . S
C176 H180 0.931 . S
C177 N174 1.313 . S
C177 N178 1.344 . S
C177 H181 0.930 . S
N178 C175 1.377 . S
N178 C177 1.344 . S
O179 Co171 2.055 . S
O179 C183 1.253 . S
H180 C176 0.931 . S
H181 C177 0.930 . S
O182 Co171 2.039 . S
O182 C172 1.265 . S
C183 O179 1.253 . S
C183 O184 1.227 1_545 S
O184 C183 1.227 1_565 S
N185 Co171 2.140 1_565 S
N185 C188 1.346 . S
N185 C189 1.345 . S
C186 C187 1.387 . S
C186 C190 1.391 . S
C187 C186 1.387 . S
C187 C188 1.369 . S
C187 H196 0.929 . S
C188 N185 1.346 . S
C188 C187 1.369 . S
C188 H191 0.928 . S
C189 N185 1.345 . S
C189 C190 1.371 . S
C189 H192 0.931 . S
C190 C186 1.391 . S
C190 C189 1.371 . S
C190 H197 0.930 . S
H191 C188 0.928 . S
H192 C189 0.931 . S
H193 C169 0.930 . S
H194 C166 0.930 . S
H195 C175 0.930 . S
H196 C187 0.929 . S
H197 C190 0.930 . S
C198 C199 1.351 . S
C198 N201 1.368 1_455 S
C198 H203 0.931 . S
C199 C198 1.351 . S
C199 N200 1.373 1_455 S
C199 H227 0.930 . S
N200 C199 1.373 1_655 S
N200 C202 1.340 . S
N201 C198 1.368 1_655 S
N201 C202 1.321 . S
N201 Co204 2.135 . S
C202 N200 1.340 . S
C202 N201 1.321 . S
C202 H226 0.930 . S
H203 C198 0.931 . S
Co204 N201 2.135 . S
Co204 N207 2.121 . S
Co204 O212 2.055 . S
Co204 O215 2.039 . S
Co204 N218 2.140 1_655 S
C205 O206 1.227 . S
C205 O215 1.265 . S
O206 C205 1.227 . S
N207 Co204 2.121 . S
N207 C209 1.375 . S
N207 C210 1.313 . S
C208 C209 1.338 . S
C208 N211 1.377 . S
C208 H228 0.930 . S
C209 N207 1.375 . S
C209 C208 1.338 . S
C209 H213 0.931 . S
C210 N207 1.313 . S
C210 N211 1.344 . S
C210 H214 0.930 . S
N211 C208 1.377 . S
N211 C210 1.344 . S
O212 Co204 2.055 . S
O212 C216 1.253 . S
H213 C209 0.931 . S
H214 C210 0.930 . S
O215 Co204 2.039 . S
O215 C205 1.265 . S
C216 O212 1.253 . S
C216 O217 1.227 1_655 S
O217 C216 1.227 1_455 S
N218 Co204 2.140 1_455 S
N218 C221 1.346 . S
N218 C222 1.345 . S
C219 C220 1.387 . S
C219 C223 1.391 . S
C220 C219 1.387 . S
C220 C221 1.369 . S
C220 H229 0.929 . S
C221 N218 1.346 . S
C221 C220 1.369 . S
C221 H224 0.928 . S
C222 N218 1.345 . S
C222 C223 1.371 . S
C222 H225 0.931 . S
C223 C219 1.391 . S
C223 C222 1.371 . S
C223 H230 0.930 . S
H224 C221 0.928 . S
H225 C222 0.931 . S
H226 C202 0.930 . S
H227 C199 0.930 . S
H228 C208 0.930 . S
H229 C220 0.929 . S
H230 C223 0.930 . S
C231 C232 1.351 . S
C231 N234 1.368 1_545 S
C231 H236 0.931 . S
C232 C231 1.351 . S
C232 N233 1.373 1_545 S
C232 H260 0.930 . S
N233 C232 1.373 1_565 S
N233 C235 1.340 . S
N234 C231 1.368 1_565 S
N234 C235 1.321 . S
N234 Co237 2.135 . S
C235 N233 1.340 . S
C235 N234 1.321 . S
C235 H259 0.930 . S
H236 C231 0.931 . S
Co237 N234 2.135 . S
Co237 N240 2.121 . S
Co237 O245 2.055 . S
Co237 O248 2.039 . S
Co237 N251 2.140 1_565 S
C238 O239 1.227 . S
C238 O248 1.265 . S
O239 C238 1.227 . S
N240 Co237 2.121 . S
N240 C242 1.375 . S
N240 C243 1.313 . S
C241 C242 1.338 . S
C241 N244 1.377 . S
C241 H261 0.930 . S
C242 N240 1.375 . S
C242 C241 1.338 . S
C242 H246 0.931 . S
C243 N240 1.313 . S
C243 N244 1.344 . S
C243 H247 0.930 . S
N244 C241 1.377 . S
N244 C243 1.344 . S
O245 Co237 2.055 . S
O245 C249 1.253 . S
H246 C242 0.931 . S
H247 C243 0.930 . S
O248 Co237 2.039 . S
O248 C238 1.265 . S
C249 O245 1.253 . S
C249 O250 1.227 1_565 S
O250 C249 1.227 1_545 S
N251 Co237 2.140 1_545 S
N251 C254 1.346 . S
N251 C255 1.345 . S
C252 C253 1.387 . S
C252 C256 1.391 . S
C253 C252 1.387 . S
C253 C254 1.369 . S
C253 H262 0.929 . S
C254 N251 1.346 . S
C254 C253 1.369 . S
C254 H257 0.928 . S
C255 N251 1.345 . S
C255 C256 1.371 . S
C255 H258 0.931 . S
C256 C252 1.391 . S
C256 C255 1.371 . S
C256 H263 0.930 . S
H257 C254 0.928 . S
H258 C255 0.931 . S
H259 C235 0.930 . S
H260 C232 0.930 . S
H261 C241 0.930 . S
H262 C253 0.929 . S
H263 C256 0.930 . S
C264 C265 1.351 . S
C264 N267 1.368 . S
C264 H269 0.931 . S
C265 C264 1.351 . S
C265 N266 1.373 . S
C265 H293 0.930 . S
N266 C265 1.373 . S
N266 C268 1.340 . S
N267 C264 1.368 . S
N267 C268 1.321 . S
N267 Co270 2.135 . S
C268 N266 1.340 . S
C268 N267 1.321 . S
C268 H292 0.930 . S
H269 C264 0.931 . S
Co270 N267 2.135 . S
Co270 N273 2.121 . S
Co270 O278 2.055 . S
Co270 O281 2.039 . S
Co270 N284 2.140 . S
C271 O272 1.227 . S
C271 O281 1.265 . S
O272 C271 1.227 . S
N273 Co270 2.121 . S
N273 C275 1.375 . S
N273 C276 1.313 . S
C274 C275 1.338 . S
C274 N277 1.377 . S
C274 H294 0.930 . S
C275 N273 1.375 . S
C275 C274 1.338 . S
C275 H279 0.931 . S
C276 N273 1.313 . S
C276 N277 1.344 . S
C276 H280 0.930 . S
N277 C274 1.377 . S
N277 C276 1.344 . S
O278 Co270 2.055 . S
O278 C282 1.253 . S
H279 C275 0.931 . S
H280 C276 0.930 . S
O281 Co270 2.039 . S
O281 C271 1.265 . S
C282 O278 1.253 . S
C282 O283 1.227 . S
O283 C282 1.227 . S
N284 Co270 2.140 . S
N284 C287 1.346 . S
N284 C288 1.345 . S
C285 C286 1.387 . S
C285 C289 1.391 . S
C286 C285 1.387 . S
C286 C287 1.369 . S
C286 H295 0.929 . S
C287 N284 1.346 . S
C287 C286 1.369 . S
C287 H290 0.928 . S
C288 N284 1.345 . S
C288 C289 1.371 . S
C288 H291 0.931 . S
C289 C285 1.391 . S
C289 C288 1.371 . S
C289 H296 0.930 . S
H290 C287 0.928 . S
H291 C288 0.931 . S
H292 C268 0.930 . S
H293 C265 0.930 . S
H294 C274 0.930 . S
H295 C286 0.929 . S
H296 C289 0.930 . S
C297 C298 1.351 . S
C297 N300 1.368 . S
C297 H302 0.931 . S
C298 C297 1.351 . S
C298 N299 1.373 . S
C298 H326 0.930 . S
N299 C298 1.373 . S
N299 C301 1.340 . S
N300 C297 1.368 . S
N300 C301 1.321 . S
N300 Co303 2.135 . S
C301 N299 1.340 . S
C301 N300 1.321 . S
C301 H325 0.930 . S
H302 C297 0.931 . S
Co303 N300 2.135 . S
Co303 N306 2.121 . S
Co303 O311 2.055 . S
Co303 O314 2.039 . S
Co303 N317 2.140 . S
C304 O305 1.227 . S
C304 O314 1.265 . S
O305 C304 1.227 . S
N306 Co303 2.121 . S
N306 C308 1.375 . S
N306 C309 1.313 . S
C307 C308 1.338 . S
C307 N310 1.377 . S
C307 H327 0.930 . S
C308 N306 1.375 . S
C308 C307 1.338 . S
C308 H312 0.931 . S
C309 N306 1.313 . S
C309 N310 1.344 . S
C309 H313 0.930 . S
N310 C307 1.377 . S
N310 C309 1.344 . S
O311 Co303 2.055 . S
O311 C315 1.253 . S
H312 C308 0.931 . S
H313 C309 0.930 . S
O314 Co303 2.039 . S
O314 C304 1.265 . S
C315 O311 1.253 . S
C315 O316 1.227 . S
O316 C315 1.227 . S
N317 Co303 2.140 . S
N317 C320 1.346 . S
N317 C321 1.345 . S
C318 C319 1.387 . S
C318 C322 1.391 . S
C319 C318 1.387 . S
C319 C320 1.369 . S
C319 H328 0.929 . S
C320 N317 1.346 . S
C320 C319 1.369 . S
C320 H323 0.928 . S
C321 N317 1.345 . S
C321 C322 1.371 . S
C321 H324 0.931 . S
C322 C318 1.391 . S
C322 C321 1.371 . S
C322 H329 0.930 . S
H323 C320 0.928 . S
H324 C321 0.931 . S
H325 C301 0.930 . S
H326 C298 0.930 . S
H327 C307 0.930 . S
H328 C319 0.929 . S
H329 C322 0.930 . S
C330 C331 1.351 . S
C330 N333 1.368 . S
C330 H335 0.931 . S
C331 C330 1.351 . S
C331 N332 1.373 . S
C331 H359 0.930 . S
N332 C331 1.373 . S
N332 C334 1.340 . S
N333 C330 1.368 . S
N333 C334 1.321 . S
N333 Co336 2.135 . S
C334 N332 1.340 . S
C334 N333 1.321 . S
C334 H358 0.930 . S
H335 C330 0.931 . S
Co336 N333 2.135 . S
Co336 N339 2.121 . S
Co336 O344 2.055 . S
Co336 O347 2.039 . S
Co336 N350 2.140 . S
C337 O338 1.227 . S
C337 O347 1.265 . S
O338 C337 1.227 . S
N339 Co336 2.121 . S
N339 C341 1.375 . S
N339 C342 1.313 . S
C340 C341 1.338 . S
C340 N343 1.377 . S
C340 H360 0.930 . S
C341 N339 1.375 . S
C341 C340 1.338 . S
C341 H345 0.931 . S
C342 N339 1.313 . S
C342 N343 1.344 . S
C342 H346 0.930 . S
N343 C340 1.377 . S
N343 C342 1.344 . S
O344 Co336 2.055 . S
O344 C348 1.253 . S
H345 C341 0.931 . S
H346 C342 0.930 . S
O347 Co336 2.039 . S
O347 C337 1.265 . S
C348 O344 1.253 . S
C348 O349 1.227 . S
O349 C348 1.227 . S
N350 Co336 2.140 . S
N350 C353 1.346 . S
N350 C354 1.345 . S
C351 C352 1.387 . S
C351 C355 1.391 . S
C352 C351 1.387 . S
C352 C353 1.369 . S
C352 H361 0.929 . S
C353 N350 1.346 . S
C353 C352 1.369 . S
C353 H356 0.928 . S
C354 N350 1.345 . S
C354 C355 1.371 . S
C354 H357 0.931 . S
C355 C351 1.391 . S
C355 C354 1.371 . S
C355 H362 0.930 . S
H356 C353 0.928 . S
H357 C354 0.931 . S
H358 C334 0.930 . S
H359 C331 0.930 . S
H360 C340 0.930 . S
H361 C352 0.929 . S
H362 C355 0.930 . S
C363 C364 1.351 . S
C363 N366 1.368 . S
C363 H368 0.931 . S
C364 C363 1.351 . S
C364 N365 1.373 . S
C364 H392 0.930 . S
N365 C364 1.373 . S
N365 C367 1.340 . S
N366 C363 1.368 . S
N366 C367 1.321 . S
N366 Co369 2.135 . S
C367 N365 1.340 . S
C367 N366 1.321 . S
C367 H391 0.930 . S
H368 C363 0.931 . S
Co369 N366 2.135 . S
Co369 N372 2.121 . S
Co369 O377 2.055 . S
Co369 O380 2.039 . S
Co369 N383 2.140 . S
C370 O371 1.227 . S
C370 O380 1.265 . S
O371 C370 1.227 . S
N372 Co369 2.121 . S
N372 C374 1.375 . S
N372 C375 1.313 . S
C373 C374 1.338 . S
C373 N376 1.377 . S
C373 H393 0.930 . S
C374 N372 1.375 . S
C374 C373 1.338 . S
C374 H378 0.931 . S
C375 N372 1.313 . S
C375 N376 1.344 . S
C375 H379 0.930 . S
N376 C373 1.377 . S
N376 C375 1.344 . S
O377 Co369 2.055 . S
O377 C381 1.253 . S
H378 C374 0.931 . S
H379 C375 0.930 . S
O380 Co369 2.039 . S
O380 C370 1.265 . S
C381 O377 1.253 . S
C381 O382 1.227 . S
O382 C381 1.227 . S
N383 Co369 2.140 . S
N383 C386 1.346 . S
N383 C387 1.345 . S
C384 C385 1.387 . S
C384 C388 1.391 . S
C385 C384 1.387 . S
C385 C386 1.369 . S
C385 H394 0.929 . S
C386 N383 1.346 . S
C386 C385 1.369 . S
C386 H389 0.928 . S
C387 N383 1.345 . S
C387 C388 1.371 . S
C387 H390 0.931 . S
C388 C384 1.391 . S
C388 C387 1.371 . S
C388 H395 0.930 . S
H389 C386 0.928 . S
H390 C387 0.931 . S
H391 C367 0.930 . S
H392 C364 0.930 . S
H393 C373 0.930 . S
H394 C385 0.929 . S
H395 C388 0.930 . S
C396 C397 1.351 . S
C396 N399 1.368 . S
C396 H401 0.931 . S
C397 C396 1.351 . S
C397 N398 1.373 . S
C397 H425 0.930 . S
N398 C397 1.373 . S
N398 C400 1.340 . S
N399 C396 1.368 . S
N399 C400 1.321 . S
N399 Co402 2.135 . S
C400 N398 1.340 . S
C400 N399 1.321 . S
C400 H424 0.930 . S
H401 C396 0.931 . S
Co402 N399 2.135 . S
Co402 N405 2.121 . S
Co402 O410 2.055 . S
Co402 O413 2.039 . S
Co402 N416 2.140 . S
C403 O404 1.227 . S
C403 O413 1.265 . S
O404 C403 1.227 . S
N405 Co402 2.121 . S
N405 C407 1.375 . S
N405 C408 1.313 . S
C406 C407 1.338 . S
C406 N409 1.377 . S
C406 H426 0.930 . S
C407 N405 1.375 . S
C407 C406 1.338 . S
C407 H411 0.931 . S
C408 N405 1.313 . S
C408 N409 1.344 . S
C408 H412 0.930 . S
N409 C406 1.377 . S
N409 C408 1.344 . S
O410 Co402 2.055 . S
O410 C414 1.253 . S
H411 C407 0.931 . S
H412 C408 0.930 . S
O413 Co402 2.039 . S
O413 C403 1.265 . S
C414 O410 1.253 . S
C414 O415 1.227 . S
O415 C414 1.227 . S
N416 Co402 2.140 . S
N416 C419 1.346 . S
N416 C420 1.345 . S
C417 C418 1.387 . S
C417 C421 1.391 . S
C418 C417 1.387 . S
C418 C419 1.369 . S
C418 H427 0.929 . S
C419 N416 1.346 . S
C419 C418 1.369 . S
C419 H422 0.928 . S
C420 N416 1.345 . S
C420 C421 1.371 . S
C420 H423 0.931 . S
C421 C417 1.391 . S
C421 C420 1.371 . S
C421 H428 0.930 . S
H422 C419 0.928 . S
H423 C420 0.931 . S
H424 C400 0.930 . S
H425 C397 0.930 . S
H426 C406 0.930 . S
H427 C418 0.929 . S
H428 C421 0.930 . S
C429 C430 1.351 . S
C429 N432 1.368 . S
C429 H434 0.931 . S
C430 C429 1.351 . S
C430 N431 1.373 . S
C430 H458 0.930 . S
N431 C430 1.373 . S
N431 C433 1.340 . S
N432 C429 1.368 . S
N432 C433 1.321 . S
N432 Co435 2.135 . S
C433 N431 1.340 . S
C433 N432 1.321 . S
C433 H457 0.930 . S
H434 C429 0.931 . S
Co435 N432 2.135 . S
Co435 N438 2.121 . S
Co435 O443 2.055 . S
Co435 O446 2.039 . S
Co435 N449 2.140 . S
C436 O437 1.227 . S
C436 O446 1.265 . S
O437 C436 1.227 . S
N438 Co435 2.121 . S
N438 C440 1.375 . S
N438 C441 1.313 . S
C439 C440 1.338 . S
C439 N442 1.377 . S
C439 H459 0.930 . S
C440 N438 1.375 . S
C440 C439 1.338 . S
C440 H444 0.931 . S
C441 N438 1.313 . S
C441 N442 1.344 . S
C441 H445 0.930 . S
N442 C439 1.377 . S
N442 C441 1.344 . S
O443 Co435 2.055 . S
O443 C447 1.253 . S
H444 C440 0.931 . S
H445 C441 0.930 . S
O446 Co435 2.039 . S
O446 C436 1.265 . S
C447 O443 1.253 . S
C447 O448 1.227 . S
O448 C447 1.227 . S
N449 Co435 2.140 . S
N449 C452 1.346 . S
N449 C453 1.345 . S
C450 C451 1.387 . S
C450 C454 1.391 . S
C451 C450 1.387 . S
C451 C452 1.369 . S
C451 H460 0.929 . S
C452 N449 1.346 . S
C452 C451 1.369 . S
C452 H455 0.928 . S
C453 N449 1.345 . S
C453 C454 1.371 . S
C453 H456 0.931 . S
C454 C450 1.391 . S
C454 C453 1.371 . S
C454 H461 0.930 . S
H455 C452 0.928 . S
H456 C453 0.931 . S
H457 C433 0.930 . S
H458 C430 0.930 . S
H459 C439 0.930 . S
H460 C451 0.929 . S
H461 C454 0.930 . S
C462 C463 1.351 . S
C462 N465 1.368 . S
C462 H467 0.931 . S
C463 C462 1.351 . S
C463 N464 1.373 . S
C463 H491 0.930 . S
N464 C463 1.373 . S
N464 C466 1.340 . S
N465 C462 1.368 . S
N465 C466 1.321 . S
N465 Co468 2.135 . S
C466 N464 1.340 . S
C466 N465 1.321 . S
C466 H490 0.930 . S
H467 C462 0.931 . S
Co468 N465 2.135 . S
Co468 N471 2.121 . S
Co468 O476 2.055 . S
Co468 O479 2.039 . S
Co468 N482 2.140 . S
C469 O470 1.227 . S
C469 O479 1.265 . S
O470 C469 1.227 . S
N471 Co468 2.121 . S
N471 C473 1.375 . S
N471 C474 1.313 . S
C472 C473 1.338 . S
C472 N475 1.377 . S
C472 H492 0.930 . S
C473 N471 1.375 . S
C473 C472 1.338 . S
C473 H477 0.931 . S
C474 N471 1.313 . S
C474 N475 1.344 . S
C474 H478 0.930 . S
N475 C472 1.377 . S
N475 C474 1.344 . S
O476 Co468 2.055 . S
O476 C480 1.253 . S
H477 C473 0.931 . S
H478 C474 0.930 . S
O479 Co468 2.039 . S
O479 C469 1.265 . S
C480 O476 1.253 . S
C480 O481 1.227 . S
O481 C480 1.227 . S
N482 Co468 2.140 . S
N482 C485 1.346 . S
N482 C486 1.345 . S
C483 C484 1.387 . S
C483 C487 1.391 . S
C484 C483 1.387 . S
C484 C485 1.369 . S
C484 H493 0.929 . S
C485 N482 1.346 . S
C485 C484 1.369 . S
C485 H488 0.928 . S
C486 N482 1.345 . S
C486 C487 1.371 . S
C486 H489 0.931 . S
C487 C483 1.391 . S
C487 C486 1.371 . S
C487 H494 0.930 . S
H488 C485 0.928 . S
H489 C486 0.931 . S
H490 C466 0.930 . S
H491 C463 0.930 . S
H492 C472 0.930 . S
H493 C484 0.929 . S
H494 C487 0.930 . S
C495 C496 1.351 . S
C495 N498 1.368 . S
C495 H500 0.931 . S
C496 C495 1.351 . S
C496 N497 1.373 . S
C496 H524 0.930 . S
N497 C496 1.373 . S
N497 C499 1.340 . S
N498 C495 1.368 . S
N498 C499 1.321 . S
N498 Co501 2.135 . S
C499 N497 1.340 . S
C499 N498 1.321 . S
C499 H523 0.930 . S
H500 C495 0.931 . S
Co501 N498 2.135 . S
Co501 N504 2.121 . S
Co501 O509 2.055 . S
Co501 O512 2.039 . S
Co501 N515 2.140 . S
C502 O503 1.227 . S
C502 O512 1.265 . S
O503 C502 1.227 . S
N504 Co501 2.121 . S
N504 C506 1.375 . S
N504 C507 1.313 . S
C505 C506 1.338 . S
C505 N508 1.377 . S
C505 H525 0.930 . S
C506 N504 1.375 . S
C506 C505 1.338 . S
C506 H510 0.931 . S
C507 N504 1.313 . S
C507 N508 1.344 . S
C507 H511 0.930 . S
N508 C505 1.377 . S
N508 C507 1.344 . S
O509 Co501 2.055 . S
O509 C513 1.253 . S
H510 C506 0.931 . S
H511 C507 0.930 . S
O512 Co501 2.039 . S
O512 C502 1.265 . S
C513 O509 1.253 . S
C513 O514 1.227 . S
O514 C513 1.227 . S
N515 Co501 2.140 . S
N515 C518 1.346 . S
N515 C519 1.345 . S
C516 C517 1.387 . S
C516 C520 1.391 . S
C517 C516 1.387 . S
C517 C518 1.369 . S
C517 H526 0.929 . S
C518 N515 1.346 . S
C518 C517 1.369 . S
C518 H521 0.928 . S
C519 N515 1.345 . S
C519 C520 1.371 . S
C519 H522 0.931 . S
C520 C516 1.391 . S
C520 C519 1.371 . S
C520 H527 0.930 . S
H521 C518 0.928 . S
H522 C519 0.931 . S
H523 C499 0.930 . S
H524 C496 0.930 . S
H525 C505 0.930 . S
H526 C517 0.929 . S
H527 C520 0.930 . S
H528 C534 0.930 . S
H529 C537 0.930 . S
H530 C538 0.930 . S
H531 C539 0.930 . S
H532 C542 0.930 . S
H533 C543 0.930 . S
C534 H528 0.930 . S
C534 C535 1.355 1_455 S
C534 C536 1.415 . S
C535 C534 1.355 1_655 S
C535 C537 1.419 . S
C536 C534 1.415 . S
C536 C541 1.425 1_455 S
C536 C543 1.409 . S
C537 H529 0.930 . S
C537 C535 1.419 . S
C537 C538 1.362 . S
C538 H530 0.930 . S
C538 C537 1.362 . S
C538 C541 1.409 . S
C539 H531 0.930 . S
C539 C540 1.355 1_655 S
C539 C541 1.415 . S
C540 C539 1.355 1_455 S
C540 C542 1.419 . S
C541 C536 1.425 1_655 S
C541 C538 1.409 . S
C541 C539 1.415 . S
C542 H532 0.930 . S
C542 C540 1.419 . S
C542 C543 1.362 . S
C543 H533 0.930 . S
C543 C536 1.409 . S
C543 C542 1.362 . S
H544 C550 0.930 . S
H545 C553 0.930 . S
H546 C554 0.930 . S
H547 C555 0.930 . S
H548 C558 0.930 . S
H549 C559 0.930 . S
C550 H544 0.930 . S
C550 C551 1.355 1_565 S
C550 C552 1.415 . S
C551 C550 1.355 1_545 S
C551 C553 1.419 . S
C552 C550 1.415 . S
C552 C557 1.425 1_565 S
C552 C559 1.409 . S
C553 H545 0.930 . S
C553 C551 1.419 . S
C553 C554 1.362 . S
C554 H546 0.930 . S
C554 C553 1.362 . S
C554 C557 1.409 . S
C555 H547 0.930 . S
C555 C556 1.355 1_545 S
C555 C557 1.415 . S
C556 C555 1.355 1_565 S
C556 C558 1.419 . S
C557 C552 1.425 1_545 S
C557 C554 1.409 . S
C557 C555 1.415 . S
C558 H548 0.930 . S
C558 C556 1.419 . S
C558 C559 1.362 . S
C559 H549 0.930 . S
C559 C552 1.409 . S
C559 C558 1.362 . S
H560 C566 0.930 . S
H561 C569 0.930 . S
H562 C570 0.930 . S
H563 C571 0.930 . S
H564 C574 0.930 . S
H565 C575 0.930 . S
C566 H560 0.930 . S
C566 C567 1.355 . S
C566 C568 1.415 . S
C567 C566 1.355 . S
C567 C569 1.419 1_655 S
C568 C566 1.415 . S
C568 C573 1.425 1_655 S
C568 C575 1.409 . S
C569 H561 0.930 . S
C569 C567 1.419 1_455 S
C569 C570 1.362 . S
C570 H562 0.930 . S
C570 C569 1.362 . S
C570 C573 1.409 . S
C571 H563 0.930 . S
C571 C572 1.355 . S
C571 C573 1.415 . S
C572 C571 1.355 . S
C572 C574 1.419 1_455 S
C573 C568 1.425 1_455 S
C573 C570 1.409 . S
C573 C571 1.415 . S
C574 H564 0.930 . S
C574 C572 1.419 1_655 S
C574 C575 1.362 . S
C575 H565 0.930 . S
C575 C568 1.409 . S
C575 C574 1.362 . S
H576 C582 0.930 . S
H577 C585 0.930 . S
H578 C586 0.930 . S
H579 C587 0.930 . S
H580 C590 0.930 . S
H581 C591 0.930 . S
C582 H576 0.930 . S
C582 C583 1.355 . S
C582 C584 1.415 . S
C583 C582 1.355 . S
C583 C585 1.419 1_565 S
C584 C582 1.415 . S
C584 C589 1.425 1_565 S
C584 C591 1.409 . S
C585 H577 0.930 . S
C585 C583 1.419 1_545 S
C585 C586 1.362 . S
C586 H578 0.930 . S
C586 C585 1.362 . S
C586 C589 1.409 . S
C587 H579 0.930 . S
C587 C588 1.355 . S
C587 C589 1.415 . S
C588 C587 1.355 . S
C588 C590 1.419 1_545 S
C589 C584 1.425 1_545 S
C589 C586 1.409 . S
C589 C587 1.415 . S
C590 H580 0.930 . S
C590 C588 1.419 1_565 S
C590 C591 1.362 . S
C591 H581 0.930 . S
C591 C584 1.409 . S
C591 C590 1.362 . S
H592 C598 0.930 . S
H593 C601 0.930 . S
H594 C602 0.930 . S
H595 C603 0.930 . S
H596 C606 0.930 . S
H597 C607 0.930 . S
C598 H592 0.930 . S
C598 C599 1.355 . S
C598 C600 1.415 . S
C599 C598 1.355 . S
C599 C601 1.419 . S
C600 C598 1.415 . S
C600 C605 1.425 1_565 S
C600 C607 1.409 1_565 S
C601 H593 0.930 . S
C601 C599 1.419 . S
C601 C602 1.362 . S
C602 H594 0.930 . S
C602 C601 1.362 . S
C602 C605 1.409 1_565 S
C603 H595 0.930 . S
C603 C604 1.355 . S
C603 C605 1.415 . S
C604 C603 1.355 . S
C604 C606 1.419 . S
C605 C600 1.425 1_545 S
C605 C602 1.409 1_545 S
C605 C603 1.415 . S
C606 H596 0.930 . S
C606 C604 1.419 . S
C606 C607 1.362 . S
C607 H597 0.930 . S
C607 C600 1.409 1_545 S
C607 C606 1.362 . S
H608 C614 0.930 . S
H609 C617 0.930 . S
H610 C618 0.921 1_455 S
H611 C619 0.930 . S
H612 C622 0.930 . S
H613 C623 0.921 1_655 S
C614 H608 0.930 . S
C614 C615 1.355 . S
C614 C616 1.415 . S
C615 C614 1.355 . S
C615 C617 1.419 . S
C616 C614 1.415 . S
C616 C621 1.425 1_655 S
C616 C623 1.409 1_655 S
C617 H609 0.930 . S
C617 C615 1.419 . S
C617 C618 1.362 . S
C618 H610 0.921 1_655 S
C618 C617 1.362 . S
C618 C621 1.409 1_655 S
C619 H611 0.930 . S
C619 C620 1.355 . S
C619 C621 1.415 . S
C620 C619 1.355 . S
C620 C622 1.419 . S
C621 C616 1.425 1_455 S
C621 C618 1.409 1_455 S
C621 C619 1.415 . S
C622 H612 0.930 . S
C622 C620 1.419 . S
C622 C623 1.362 . S
C623 H613 0.921 1_455 S
C623 C616 1.409 1_455 S
C623 C622 1.362 . S
H624 C630 0.930 . S
H625 C633 0.930 . S
H626 C634 0.930 . S
H627 C635 0.930 . S
H628 C638 0.930 . S
H629 C639 0.930 . S
C630 H624 0.930 . S
C630 C631 1.355 . S
C630 C632 1.415 . S
C631 C630 1.355 . S
C631 C633 1.419 . S
C632 C630 1.415 . S
C632 C637 1.425 1_565 S
C632 C639 1.409 1_565 S
C633 H625 0.930 . S
C633 C631 1.419 . S
C633 C634 1.362 . S
C634 H626 0.930 . S
C634 C633 1.362 . S
C634 C637 1.409 1_565 S
C635 H627 0.930 . S
C635 C636 1.355 . S
C635 C637 1.415 . S
C636 C635 1.355 . S
C636 C638 1.419 . S
C637 C632 1.425 1_545 S
C637 C634 1.409 1_545 S
C637 C635 1.415 . S
C638 H628 0.930 . S
C638 C636 1.419 . S
C638 C639 1.362 . S
C639 H629 0.930 . S
C639 C632 1.409 1_545 S
C639 C638 1.362 . S
H640 C646 0.930 . S
H641 C649 0.930 . S
H642 C650 0.930 . S
H643 C651 0.930 . S
H644 C654 0.930 . S
H645 C655 0.930 . S
C646 H640 0.930 . S
C646 C647 1.355 . S
C646 C648 1.415 . S
C647 C646 1.355 . S
C647 C649 1.419 . S
C648 C646 1.415 . S
C648 C653 1.425 1_655 S
C648 C655 1.409 1_655 S
C649 H641 0.930 . S
C649 C647 1.419 . S
C649 C650 1.362 . S
C650 H642 0.930 . S
C650 C649 1.362 . S
C650 C653 1.409 1_655 S
C651 H643 0.930 . S
C651 C652 1.355 . S
C651 C653 1.415 . S
C652 C651 1.355 . S
C652 C654 1.419 . S
C653 C648 1.425 1_455 S
C653 C650 1.409 1_455 S
C653 C651 1.415 . S
C654 H644 0.930 . S
C654 C652 1.419 . S
C654 C655 1.362 . S
C655 H645 0.930 . S
C655 C648 1.409 1_455 S
C655 C654 1.362 . S
H656 C662 0.930 . S
H657 C665 0.930 . S
H658 C666 0.930 . S
H659 C667 0.930 . S
H660 C670 0.930 . S
H661 C671 0.930 . S
C662 H656 0.930 . S
C662 C663 1.355 . S
C662 C664 1.415 . S
C663 C662 1.355 . S
C663 C665 1.419 . S
C664 C662 1.415 . S
C664 C669 1.425 . S
C664 C671 1.409 . S
C665 H657 0.930 . S
C665 C663 1.419 . S
C665 C666 1.362 . S
C666 H658 0.930 . S
C666 C665 1.362 . S
C666 C669 1.409 . S
C667 H659 0.930 . S
C667 C668 1.355 . S
C667 C669 1.415 . S
C668 C667 1.355 . S
C668 C670 1.419 . S
C669 C664 1.425 . S
C669 C666 1.409 . S
C669 C667 1.415 . S
C670 H660 0.930 . S
C670 C668 1.419 . S
C670 C671 1.362 . S
C671 H661 0.930 . S
C671 C664 1.409 . S
C671 C670 1.362 . S
H672 C678 0.930 . S
H673 C681 0.930 . S
H674 C682 0.930 . S
H675 C683 0.930 . S
H676 C686 0.930 . S
H677 C687 0.930 . S
C678 H672 0.930 . S
C678 C679 1.355 . S
C678 C680 1.415 . S
C679 C678 1.355 . S
C679 C681 1.419 . S
C680 C678 1.415 . S
C680 C685 1.425 . S
C680 C687 1.409 . S
C681 H673 0.930 . S
C681 C679 1.419 . S
C681 C682 1.362 . S
C682 H674 0.930 . S
C682 C681 1.362 . S
C682 C685 1.409 . S
C683 H675 0.930 . S
C683 C684 1.355 . S
C683 C685 1.415 . S
C684 C683 1.355 . S
C684 C686 1.419 . S
C685 C680 1.425 . S
C685 C682 1.409 . S
C685 C683 1.415 . S
C686 H676 0.930 . S
C686 C684 1.419 . S
C686 C687 1.362 . S
C687 H677 0.930 . S
C687 C680 1.409 . S
C687 C686 1.362 . S
H688 C694 0.930 . S
H689 C697 0.930 . S
H690 C698 0.930 . S
H691 C699 0.930 . S
H692 C702 0.930 1_455 S
H693 C703 0.930 . S
C694 H688 0.930 . S
C694 C695 1.355 . S
C694 C696 1.415 . S
C695 C694 1.355 . S
C695 C697 1.419 . S
C696 C694 1.415 . S
C696 C701 1.425 . S
C696 C703 1.409 . S
C697 H689 0.930 . S
C697 C695 1.419 . S
C697 C698 1.362 . S
C698 H690 0.930 . S
C698 C697 1.362 . S
C698 C701 1.409 . S
C699 H691 0.930 . S
C699 C700 1.355 . S
C699 C701 1.415 . S
C700 C699 1.355 . S
C700 C702 1.419 . S
C701 C696 1.425 . S
C701 C698 1.409 . S
C701 C699 1.415 . S
C702 H692 0.930 1_655 S
C702 C700 1.419 . S
C702 C703 1.362 . S
C703 H693 0.930 . S
C703 C696 1.409 . S
C703 C702 1.362 . S
H704 C710 0.930 . S
H705 C713 0.930 . S
H706 C714 0.930 . S
H707 C715 0.930 . S
H708 C718 0.930 . S
H709 C719 0.930 . S
C710 H704 0.930 . S
C710 C711 1.355 . S
C710 C712 1.415 . S
C711 C710 1.355 . S
C711 C713 1.419 . S
C712 C710 1.415 . S
C712 C717 1.425 . S
C712 C719 1.409 . S
C713 H705 0.930 . S
C713 C711 1.419 . S
C713 C714 1.362 . S
C714 H706 0.930 . S
C714 C713 1.362 . S
C714 C717 1.409 . S
C715 H707 0.930 . S
C715 C716 1.355 . S
C715 C717 1.415 . S
C716 C715 1.355 . S
C716 C718 1.419 . S
C717 C712 1.425 . S
C717 C714 1.409 . S
C717 C715 1.415 . S
C718 H708 0.930 . S
C718 C716 1.419 . S
C718 C719 1.362 . S
C719 H709 0.930 . S
C719 C712 1.409 . S
C719 C718 1.362 . S
H720 C726 0.930 . S
H721 C729 0.930 . S
H722 C730 0.930 . S
H723 C731 0.930 . S
H724 C734 0.930 . S
H725 C735 0.930 . S
C726 H720 0.930 . S
C726 C727 1.355 . S
C726 C728 1.415 . S
C727 C726 1.355 . S
C727 C729 1.419 . S
C728 C726 1.415 . S
C728 C733 1.425 . S
C728 C735 1.409 . S
C729 H721 0.930 . S
C729 C727 1.419 . S
C729 C730 1.362 . S
C730 H722 0.930 . S
C730 C729 1.362 . S
C730 C733 1.409 . S
C731 H723 0.930 . S
C731 C732 1.355 . S
C731 C733 1.415 . S
C732 C731 1.355 . S
C732 C734 1.419 . S
C733 C728 1.425 . S
C733 C730 1.409 . S
C733 C731 1.415 . S
C734 H724 0.930 . S
C734 C732 1.419 . S
C734 C735 1.362 . S
C735 H725 0.930 . S
C735 C728 1.409 . S
C735 C734 1.362 . S
H736 C742 0.930 . S
H737 C745 0.930 . S
H738 C746 0.930 . S
H739 C747 0.930 . S
H740 C750 0.930 . S
H741 C751 0.930 . S
C742 H736 0.930 . S
C742 C743 1.355 . S
C742 C744 1.415 . S
C743 C742 1.355 . S
C743 C745 1.419 . S
C744 C742 1.415 . S
C744 C749 1.425 . S
C744 C751 1.409 . S
C745 H737 0.930 . S
C745 C743 1.419 . S
C745 C746 1.362 . S
C746 H738 0.930 . S
C746 C745 1.362 . S
C746 C749 1.409 . S
C747 H739 0.930 . S
C747 C748 1.355 . S
C747 C749 1.415 . S
C748 C747 1.355 . S
C748 C750 1.419 . S
C749 C744 1.425 . S
C749 C746 1.409 . S
C749 C747 1.415 . S
C750 H740 0.930 . S
C750 C748 1.419 . S
C750 C751 1.362 . S
C751 H741 0.930 . S
C751 C744 1.409 . S
C751 C750 1.362 . S
H752 C758 0.930 . S
H753 C761 0.930 . S
H754 C762 0.930 . S
H755 C763 0.930 . S
H756 C766 0.930 . S
H757 C767 0.930 . S
C758 H752 0.930 . S
C758 C759 1.355 . S
C758 C760 1.415 . S
C759 C758 1.355 . S
C759 C761 1.419 . S
C760 C758 1.415 . S
C760 C765 1.425 . S
C760 C767 1.409 . S
C761 H753 0.930 . S
C761 C759 1.419 . S
C761 C762 1.362 . S
C762 H754 0.930 . S
C762 C761 1.362 . S
C762 C765 1.409 . S
C763 H755 0.930 . S
C763 C764 1.355 . S
C763 C765 1.415 . S
C764 C763 1.355 . S
C764 C766 1.419 . S
C765 C760 1.425 . S
C765 C762 1.409 . S
C765 C763 1.415 . S
C766 H756 0.930 . S
C766 C764 1.419 . S
C766 C767 1.362 . S
C767 H757 0.930 . S
C767 C760 1.409 . S
C767 C766 1.362 . S
H768 C774 0.930 . S
H769 C777 0.930 . S
H770 C778 0.930 . S
H771 C779 0.930 . S
H772 C782 0.930 . S
H773 C783 0.930 . S
C774 H768 0.930 . S
C774 C775 1.355 . S
C774 C776 1.415 . S
C775 C774 1.355 . S
C775 C777 1.419 . S
C776 C774 1.415 . S
C776 C781 1.425 . S
C776 C783 1.409 . S
C777 H769 0.930 . S
C777 C775 1.419 . S
C777 C778 1.362 . S
C778 H770 0.930 . S
C778 C777 1.362 . S
C778 C781 1.409 . S
C779 H771 0.930 . S
C779 C780 1.355 . S
C779 C781 1.415 . S
C780 C779 1.355 . S
C780 C782 1.419 . S
C781 C776 1.425 . S
C781 C778 1.409 . S
C781 C779 1.415 . S
C782 H772 0.930 . S
C782 C780 1.419 . S
C782 C783 1.362 . S
C783 H773 0.930 . S
C783 C776 1.409 . S
C783 C782 1.362 . S
H784 C790 0.930 . S
H785 C793 0.930 . S
H786 C794 0.930 . S
H787 C795 0.930 . S
H788 C798 0.930 . S
H789 C799 0.930 . S
C790 H784 0.930 . S
C790 C791 1.355 . S
C790 C792 1.415 . S
C791 C790 1.355 . S
C791 C793 1.419 . S
C792 C790 1.415 . S
C792 C797 1.425 . S
C792 C799 1.409 . S
C793 H785 0.930 . S
C793 C791 1.419 . S
C793 C794 1.362 . S
C794 H786 0.930 . S
C794 C793 1.362 . S
C794 C797 1.409 . S
C795 H787 0.930 . S
C795 C796 1.355 . S
C795 C797 1.415 . S
C796 C795 1.355 . S
C796 C798 1.419 . S
C797 C792 1.425 . S
C797 C794 1.409 . S
C797 C795 1.415 . S
C798 H788 0.930 . S
C798 C796 1.419 . S
C798 C799 1.362 . S
C799 H789 0.930 . S
C799 C792 1.409 . S
C799 C798 1.362 . S
H800 C806 0.930 . S
H801 C809 0.930 . S
H802 C810 0.930 . S
H803 C811 0.930 . S
H804 C814 0.930 . S
H805 C815 0.930 . S
C806 H800 0.930 . S
C806 C807 1.355 . S
C806 C808 1.415 . S
C807 C806 1.355 . S
C807 C809 1.419 . S
C808 C806 1.415 . S
C808 C813 1.425 . S
C808 C815 1.409 . S
C809 H801 0.930 . S
C809 C807 1.419 . S
C809 C810 1.362 . S
C810 H802 0.930 . S
C810 C809 1.362 . S
C810 C813 1.409 . S
C811 H803 0.930 . S
C811 C812 1.355 . S
C811 C813 1.415 . S
C812 C811 1.355 . S
C812 C814 1.419 . S
C813 C808 1.425 . S
C813 C810 1.409 . S
C813 C811 1.415 . S
C814 H804 0.930 . S
C814 C812 1.419 . S
C814 C815 1.362 . S
C815 H805 0.930 . S
C815 C808 1.409 . S
C815 C814 1.362 . S
H816 C822 0.930 . S
H817 C825 0.930 . S
H818 C826 0.930 . S
H819 C827 0.930 . S
H820 C830 0.930 . S
H821 C831 0.930 . S
C822 H816 0.930 . S
C822 C823 1.355 . S
C822 C824 1.415 . S
C823 C822 1.355 . S
C823 C825 1.419 . S
C824 C822 1.415 . S
C824 C829 1.425 . S
C824 C831 1.409 . S
C825 H817 0.930 . S
C825 C823 1.419 . S
C825 C826 1.362 . S
C826 H818 0.930 . S
C826 C825 1.362 . S
C826 C829 1.409 . S
C827 H819 0.930 . S
C827 C828 1.355 . S
C827 C829 1.415 . S
C828 C827 1.355 . S
C828 C830 1.419 . S
C829 C824 1.425 . S
C829 C826 1.409 . S
C829 C827 1.415 . S
C830 H820 0.930 . S
C830 C828 1.419 . S
C830 C831 1.362 . S
C831 H821 0.930 . S
C831 C824 1.409 . S
C831 C830 1.362 . S
H832 C838 0.930 . S
H833 C841 0.930 . S
H834 C842 0.930 . S
H835 C843 0.930 . S
H836 C846 0.930 . S
H837 C847 0.930 . S
C838 H832 0.930 . S
C838 C839 1.355 . S
C838 C840 1.415 . S
C839 C838 1.355 . S
C839 C841 1.419 . S
C840 C838 1.415 . S
C840 C845 1.425 . S
C840 C847 1.409 . S
C841 H833 0.930 . S
C841 C839 1.419 . S
C841 C842 1.362 . S
C842 H834 0.930 . S
C842 C841 1.362 . S
C842 C845 1.409 . S
C843 H835 0.930 . S
C843 C844 1.355 . S
C843 C845 1.415 . S
C844 C843 1.355 . S
C844 C846 1.419 . S
C845 C840 1.425 . S
C845 C842 1.409 . S
C845 C843 1.415 . S
C846 H836 0.930 . S
C846 C844 1.419 . S
C846 C847 1.362 . S
C847 H837 0.930 . S
C847 C840 1.409 . S
C847 C846 1.362 . S
H848 C854 0.930 . S
H849 C857 0.930 . S
H850 C858 0.930 . S
H851 C859 0.930 . S
H852 C862 0.930 . S
H853 C863 0.930 . S
C854 H848 0.930 . S
C854 C855 1.355 . S
C854 C856 1.415 . S
C855 C854 1.355 . S
C855 C857 1.419 . S
C856 C854 1.415 . S
C856 C861 1.425 . S
C856 C863 1.409 . S
C857 H849 0.930 . S
C857 C855 1.419 . S
C857 C858 1.362 . S
C858 H850 0.930 . S
C858 C857 1.362 . S
C858 C861 1.409 . S
C859 H851 0.930 . S
C859 C860 1.355 . S
C859 C861 1.415 . S
C860 C859 1.355 . S
C860 C862 1.419 . S
C861 C856 1.425 . S
C861 C858 1.409 . S
C861 C859 1.415 . S
C862 H852 0.930 . S
C862 C860 1.419 . S
C862 C863 1.362 . S
C863 H853 0.930 . S
C863 C856 1.409 . S
C863 C862 1.362 . S
H864 C870 0.930 . S
H865 C873 0.930 . S
H866 C874 0.930 . S
H867 C875 0.930 . S
H868 C878 0.930 . S
H869 C879 0.930 . S
C870 H864 0.930 . S
C870 C871 1.355 . S
C870 C872 1.415 . S
C871 C870 1.355 . S
C871 C873 1.419 . S
C872 C870 1.415 . S
C872 C877 1.425 . S
C872 C879 1.409 . S
C873 H865 0.930 . S
C873 C871 1.419 . S
C873 C874 1.362 . S
C874 H866 0.930 . S
C874 C873 1.362 . S
C874 C877 1.409 . S
C875 H867 0.930 . S
C875 C876 1.355 . S
C875 C877 1.415 . S
C876 C875 1.355 . S
C876 C878 1.419 . S
C877 C872 1.425 . S
C877 C874 1.409 . S
C877 C875 1.415 . S
C878 H868 0.930 . S
C878 C876 1.419 . S
C878 C879 1.362 . S
C879 H869 0.930 . S
C879 C872 1.409 . S
C879 C878 1.362 . S
H880 C886 0.930 . S
H881 C889 0.930 . S
H882 C890 0.930 . S
H883 C891 0.930 . S
H884 C894 0.930 . S
H885 C895 0.930 . S
C886 H880 0.930 . S
C886 C887 1.355 . S
C886 C888 1.415 . S
C887 C886 1.355 . S
C887 C889 1.419 . S
C888 C886 1.415 . S
C888 C893 1.425 . S
C888 C895 1.409 . S
C889 H881 0.930 . S
C889 C887 1.419 . S
C889 C890 1.362 . S
C890 H882 0.930 . S
C890 C889 1.362 . S
C890 C893 1.409 . S
C891 H883 0.930 . S
C891 C892 1.355 . S
C891 C893 1.415 . S
C892 C891 1.355 . S
C892 C894 1.419 . S
C893 C888 1.425 . S
C893 C890 1.409 . S
C893 C891 1.415 . S
C894 H884 0.930 . S
C894 C892 1.419 . S
C894 C895 1.362 . S
C895 H885 0.930 . S
C895 C888 1.409 . S
C895 C894 1.362 . S
H896 C902 0.930 . S
H897 C905 0.930 . S
H898 C906 0.930 . S
H899 C907 0.930 . S
H900 C910 0.930 . S
H901 C911 0.930 . S
C902 H896 0.930 . S
C902 C903 1.355 . S
C902 C904 1.415 . S
C903 C902 1.355 . S
C903 C905 1.419 . S
C904 C902 1.415 . S
C904 C909 1.425 . S
C904 C911 1.409 . S
C905 H897 0.930 . S
C905 C903 1.419 . S
C905 C906 1.362 . S
C906 H898 0.930 . S
C906 C905 1.362 . S
C906 C909 1.409 . S
C907 H899 0.930 . S
C907 C908 1.355 . S
C907 C909 1.415 . S
C908 C907 1.355 . S
C908 C910 1.419 . S
C909 C904 1.425 . S
C909 C906 1.409 . S
C909 C907 1.415 . S
C910 H900 0.930 . S
C910 C908 1.419 . S
C910 C911 1.362 . S
C911 H901 0.930 . S
C911 C904 1.409 . S
C911 C910 1.362 . S
H912 C918 0.930 . S
H913 C921 0.930 . S
H914 C922 0.930 . S
H915 C923 0.930 . S
H916 C926 0.930 . S
H917 C927 0.930 . S
C918 H912 0.930 . S
C918 C919 1.355 . S
C918 C920 1.415 . S
C919 C918 1.355 . S
C919 C921 1.419 . S
C920 C918 1.415 . S
C920 C925 1.425 . S
C920 C927 1.409 . S
C921 H913 0.930 . S
C921 C919 1.419 . S
C921 C922 1.362 . S
C922 H914 0.930 . S
C922 C921 1.362 . S
C922 C925 1.409 . S
C923 H915 0.930 . S
C923 C924 1.355 . S
C923 C925 1.415 . S
C924 C923 1.355 . S
C924 C926 1.419 . S
C925 C920 1.425 . S
C925 C922 1.409 . S
C925 C923 1.415 . S
C926 H916 0.930 . S
C926 C924 1.419 . S
C926 C927 1.362 . S
C927 H917 0.930 . S
C927 C920 1.409 . S
C927 C926 1.362 . S
H928 C934 0.930 . S
H929 C937 0.930 . S
H930 C938 0.930 . S
H931 C939 0.930 . S
H932 C942 0.930 . S
H933 C943 0.930 . S
C934 H928 0.930 . S
C934 C935 1.355 . S
C934 C936 1.415 . S
C935 C934 1.355 . S
C935 C937 1.419 . S
C936 C934 1.415 . S
C936 C941 1.425 . S
C936 C943 1.409 . S
C937 H929 0.930 . S
C937 C935 1.419 . S
C937 C938 1.362 . S
C938 H930 0.930 . S
C938 C937 1.362 . S
C938 C941 1.409 . S
C939 H931 0.930 . S
C939 C940 1.355 . S
C939 C941 1.415 . S
C940 C939 1.355 . S
C940 C942 1.419 . S
C941 C936 1.425 . S
C941 C938 1.409 . S
C941 C939 1.415 . S
C942 H932 0.930 . S
C942 C940 1.419 . S
C942 C943 1.362 . S
C943 H933 0.930 . S
C943 C936 1.409 . S
C943 C942 1.362 . S
H944 C950 0.930 . S
H945 C953 0.930 . S
H946 C954 0.930 . S
H947 C955 0.930 . S
H948 C958 0.930 . S
H949 C959 0.930 . S
C950 H944 0.930 . S
C950 C951 1.355 . S
C950 C952 1.415 . S
C951 C950 1.355 . S
C951 C953 1.419 . S
C952 C950 1.415 . S
C952 C957 1.425 . S
C952 C959 1.409 . S
C953 H945 0.930 . S
C953 C951 1.419 . S
C953 C954 1.362 . S
C954 H946 0.930 . S
C954 C953 1.362 . S
C954 C957 1.409 . S
C955 H947 0.930 . S
C955 C956 1.355 . S
C955 C957 1.415 . S
C956 C955 1.355 . S
C956 C958 1.419 . S
C957 C952 1.425 . S
C957 C954 1.409 . S
C957 C955 1.415 . S
C958 H948 0.930 . S
C958 C956 1.419 . S
C958 C959 1.362 . S
C959 H949 0.930 . S
C959 C952 1.409 . S
C959 C958 1.362 . S
H960 C966 0.930 . S
H961 C969 0.930 . S
H962 C970 0.930 . S
H963 C971 0.930 . S
H964 C974 0.930 . S
H965 C975 0.930 . S
C966 H960 0.930 . S
C966 C967 1.355 . S
C966 C968 1.415 . S
C967 C966 1.355 . S
C967 C969 1.419 . S
C968 C966 1.415 . S
C968 C973 1.425 . S
C968 C975 1.409 . S
C969 H961 0.930 . S
C969 C967 1.419 . S
C969 C970 1.362 . S
C970 H962 0.930 . S
C970 C969 1.362 . S
C970 C973 1.409 . S
C971 H963 0.930 . S
C971 C972 1.355 . S
C971 C973 1.415 . S
C972 C971 1.355 . S
C972 C974 1.419 . S
C973 C968 1.425 . S
C973 C970 1.409 . S
C973 C971 1.415 . S
C974 H964 0.930 . S
C974 C972 1.419 . S
C974 C975 1.362 . S
C975 H965 0.930 . S
C975 C968 1.409 . S
C975 C974 1.362 . S
H976 C982 0.930 . S
H977 C985 0.930 . S
H978 C986 0.930 . S
H979 C987 0.930 . S
H980 C990 0.930 . S
H981 C991 0.930 . S
C982 H976 0.930 . S
C982 C983 1.355 . S
C982 C984 1.415 . S
C983 C982 1.355 . S
C983 C985 1.419 . S
C984 C982 1.415 . S
C984 C989 1.425 . S
C984 C991 1.409 . S
C985 H977 0.930 . S
C985 C983 1.419 . S
C985 C986 1.362 . S
C986 H978 0.930 . S
C986 C985 1.362 . S
C986 C989 1.409 . S
C987 H979 0.930 . S
C987 C988 1.355 . S
C987 C989 1.415 . S
C988 C987 1.355 . S
C988 C990 1.419 . S
C989 C984 1.425 . S
C989 C986 1.409 . S
C989 C987 1.415 . S
C990 H980 0.930 . S
C990 C988 1.419 . S
C990 C991 1.362 . S
C991 H981 0.930 . S
C991 C984 1.409 . S
C991 C990 1.362 . S
H992 C998 0.930 . S
H993 C1001 0.930 . S
H994 C1002 0.930 . S
H995 C1003 0.930 . S
H996 C1006 0.930 . S
H997 C1007 0.930 . S
C998 H992 0.930 . S
C998 C999 1.355 . S
C998 C1000 1.415 . S
C999 C998 1.355 . S
C999 C1001 1.419 . S
C1000 C998 1.415 . S
C1000 C1005 1.425 . S
C1000 C1007 1.409 . S
C1001 H993 0.930 . S
C1001 C999 1.419 . S
C1001 C1002 1.362 . S
C1002 H994 0.930 . S
C1002 C1001 1.362 . S
C1002 C1005 1.409 . S
C1003 H995 0.930 . S
C1003 C1004 1.355 . S
C1003 C1005 1.415 . S
C1004 C1003 1.355 . S
C1004 C1006 1.419 . S
C1005 C1000 1.425 . S
C1005 C1002 1.409 . S
C1005 C1003 1.415 . S
C1006 H996 0.930 . S
C1006 C1004 1.419 . S
C1006 C1007 1.362 . S
C1007 H997 0.930 . S
C1007 C1000 1.409 . S
C1007 C1006 1.362 . S
H1008 C1014 0.930 . S
H1009 C1017 0.930 . S
H1010 C1018 0.930 . S
H1011 C1019 0.930 . S
H1012 C1022 0.930 . S
H1013 C1023 0.930 . S
C1014 H1008 0.930 . S
C1014 C1015 1.355 . S
C1014 C1016 1.415 . S
C1015 C1014 1.355 . S
C1015 C1017 1.419 . S
C1016 C1014 1.415 . S
C1016 C1021 1.425 . S
C1016 C1023 1.409 . S
C1017 H1009 0.930 . S
C1017 C1015 1.419 . S
C1017 C1018 1.362 . S
C1018 H1010 0.930 . S
C1018 C1017 1.362 . S
C1018 C1021 1.409 . S
C1019 H1011 0.930 . S
C1019 C1020 1.355 . S
C1019 C1021 1.415 . S
C1020 C1019 1.355 . S
C1020 C1022 1.419 . S
C1021 C1016 1.425 . S
C1021 C1018 1.409 . S
C1021 C1019 1.415 . S
C1022 H1012 0.930 . S
C1022 C1020 1.419 . S
C1022 C1023 1.362 . S
C1023 H1013 0.930 . S
C1023 C1016 1.409 . S
C1023 C1022 1.362 . S
H1024 C1030 0.930 . S
H1025 C1033 0.930 . S
H1026 C1034 0.930 . S
H1027 C1035 0.930 . S
H1028 C1038 0.930 . S
H1029 C1039 0.930 . S
C1030 H1024 0.930 . S
C1030 C1031 1.355 . S
C1030 C1032 1.415 . S
C1031 C1030 1.355 . S
C1031 C1033 1.419 . S
C1032 C1030 1.415 . S
C1032 C1037 1.425 . S
C1032 C1039 1.409 . S
C1033 H1025 0.930 . S
C1033 C1031 1.419 . S
C1033 C1034 1.362 . S
C1034 H1026 0.930 . S
C1034 C1033 1.362 . S
C1034 C1037 1.409 . S
C1035 H1027 0.930 . S
C1035 C1036 1.355 . S
C1035 C1037 1.415 . S
C1036 C1035 1.355 . S
C1036 C1038 1.419 . S
C1037 C1032 1.425 . S
C1037 C1034 1.409 . S
C1037 C1035 1.415 . S
C1038 H1028 0.930 . S
C1038 C1036 1.419 . S
C1038 C1039 1.362 . S
C1039 H1029 0.930 . S
C1039 C1032 1.409 . S
C1039 C1038 1.362 . S
H1040 C1046 0.930 . S
H1041 C1049 0.930 . S
H1042 C1050 0.930 . S
H1043 C1051 0.930 . S
H1044 C1054 0.930 . S
H1045 C1055 0.930 . S
C1046 H1040 0.930 . S
C1046 C1047 1.355 1_655 S
C1046 C1048 1.415 . S
C1047 C1046 1.355 1_455 S
C1047 C1049 1.419 . S
C1048 C1046 1.415 . S
C1048 C1053 1.425 1_655 S
C1048 C1055 1.409 . S
C1049 H1041 0.930 . S
C1049 C1047 1.419 . S
C1049 C1050 1.362 . S
C1050 H1042 0.930 . S
C1050 C1049 1.362 . S
C1050 C1053 1.409 . S
C1051 H1043 0.930 . S
C1051 C1052 1.355 1_455 S
C1051 C1053 1.415 . S
C1052 C1051 1.355 1_655 S
C1052 C1054 1.419 . S
C1053 C1048 1.425 1_455 S
C1053 C1050 1.409 . S
C1053 C1051 1.415 . S
C1054 H1044 0.930 . S
C1054 C1052 1.419 . S
C1054 C1055 1.362 . S
C1055 H1045 0.930 . S
C1055 C1048 1.409 . S
C1055 C1054 1.362 . S
H1056 C1062 0.930 . S
H1057 C1065 0.930 . S
H1058 C1066 0.930 . S
H1059 C1067 0.930 . S
H1060 C1070 0.930 . S
H1061 C1071 0.930 . S
C1062 H1056 0.930 . S
C1062 C1063 1.355 1_545 S
C1062 C1064 1.415 . S
C1063 C1062 1.355 1_565 S
C1063 C1065 1.419 . S
C1064 C1062 1.415 . S
C1064 C1069 1.425 1_545 S
C1064 C1071 1.409 . S
C1065 H1057 0.930 . S
C1065 C1063 1.419 . S
C1065 C1066 1.362 . S
C1066 H1058 0.930 . S
C1066 C1065 1.362 . S
C1066 C1069 1.409 . S
C1067 H1059 0.930 . S
C1067 C1068 1.355 1_565 S
C1067 C1069 1.415 . S
C1068 C1067 1.355 1_545 S
C1068 C1070 1.419 . S
C1069 C1064 1.425 1_565 S
C1069 C1066 1.409 . S
C1069 C1067 1.415 . S
C1070 H1060 0.930 . S
C1070 C1068 1.419 . S
C1070 C1071 1.362 . S
C1071 H1061 0.930 . S
C1071 C1064 1.409 . S
C1071 C1070 1.362 . S
H1072 C1078 0.930 . S
H1073 C1081 0.930 . S
H1074 C1082 0.930 . S
H1075 C1083 0.930 . S
H1076 C1086 0.930 . S
H1077 C1087 0.930 . S
C1078 H1072 0.930 . S
C1078 C1079 1.355 1_655 S
C1078 C1080 1.415 . S
C1079 C1078 1.355 1_455 S
C1079 C1081 1.419 . S
C1080 C1078 1.415 . S
C1080 C1085 1.425 1_655 S
C1080 C1087 1.409 . S
C1081 H1073 0.930 . S
C1081 C1079 1.419 . S
C1081 C1082 1.362 . S
C1082 H1074 0.930 . S
C1082 C1081 1.362 . S
C1082 C1085 1.409 . S
C1083 H1075 0.930 . S
C1083 C1084 1.355 1_455 S
C1083 C1085 1.415 . S
C1084 C1083 1.355 1_655 S
C1084 C1086 1.419 . S
C1085 C1080 1.425 1_455 S
C1085 C1082 1.409 . S
C1085 C1083 1.415 . S
C1086 H1076 0.930 . S
C1086 C1084 1.419 . S
C1086 C1087 1.362 . S
C1087 H1077 0.930 . S
C1087 C1080 1.409 . S
C1087 C1086 1.362 . S
H1088 C1094 0.930 . S
H1089 C1097 0.930 . S
H1090 C1098 0.930 . S
H1091 C1099 0.930 . S
H1092 C1102 0.930 . S
H1093 C1103 0.930 . S
C1094 H1088 0.930 . S
C1094 C1095 1.355 1_565 S
C1094 C1096 1.415 . S
C1095 C1094 1.355 1_545 S
C1095 C1097 1.419 . S
C1096 C1094 1.415 . S
C1096 C1101 1.425 1_565 S
C1096 C1103 1.409 . S
C1097 H1089 0.930 . S
C1097 C1095 1.419 . S
C1097 C1098 1.362 . S
C1098 H1090 0.930 . S
C1098 C1097 1.362 . S
C1098 C1101 1.409 . S
C1099 H1091 0.930 . S
C1099 C1100 1.355 1_545 S
C1099 C1101 1.415 . S
C1100 C1099 1.355 1_565 S
C1100 C1102 1.419 . S
C1101 C1096 1.425 1_545 S
C1101 C1098 1.409 . S
C1101 C1099 1.415 . S
C1102 H1092 0.930 . S
C1102 C1100 1.419 . S
C1102 C1103 1.362 . S
C1103 H1093 0.930 . S
C1103 C1096 1.409 . S
C1103 C1102 1.362 . S
H1104 C1110 0.930 . S
H1105 C1113 0.930 . S
H1106 C1114 0.930 . S
H1107 C1115 0.930 . S
H1108 C1118 0.930 . S
H1109 C1119 0.930 . S
C1110 H1104 0.930 . S
C1110 C1111 1.355 . S
C1110 C1112 1.415 . S
C1111 C1110 1.355 . S
C1111 C1113 1.419 . S
C1112 C1110 1.415 . S
C1112 C1117 1.425 1_556 S
C1112 C1119 1.409 1_556 S
C1113 H1105 0.930 . S
C1113 C1111 1.419 . S
C1113 C1114 1.362 . S
C1114 H1106 0.930 . S
C1114 C1113 1.362 . S
C1114 C1117 1.409 1_556 S
C1115 H1107 0.930 . S
C1115 C1116 1.355 . S
C1115 C1117 1.415 . S
C1116 C1115 1.355 . S
C1116 C1118 1.419 . S
C1117 C1112 1.425 1_554 S
C1117 C1114 1.409 1_554 S
C1117 C1115 1.415 . S
C1118 H1108 0.930 . S
C1118 C1116 1.419 . S
C1118 C1119 1.362 . S
C1119 H1109 0.930 . S
C1119 C1112 1.409 1_554 S
C1119 C1118 1.362 . S
H1120 C1126 0.930 . S
H1121 C1129 0.930 . S
H1122 C1130 0.930 . S
H1123 C1131 0.930 . S
H1124 C1134 0.930 . S
H1125 C1135 0.930 . S
C1126 H1120 0.930 . S
C1126 C1127 1.355 . S
C1126 C1128 1.415 . S
C1127 C1126 1.355 . S
C1127 C1129 1.419 . S
C1128 C1126 1.415 . S
C1128 C1133 1.425 1_554 S
C1128 C1135 1.409 1_554 S
C1129 H1121 0.930 . S
C1129 C1127 1.419 . S
C1129 C1130 1.362 . S
C1130 H1122 0.930 . S
C1130 C1129 1.362 . S
C1130 C1133 1.409 1_554 S
C1131 H1123 0.930 . S
C1131 C1132 1.355 . S
C1131 C1133 1.415 . S
C1132 C1131 1.355 . S
C1132 C1134 1.419 . S
C1133 C1128 1.425 1_556 S
C1133 C1130 1.409 1_556 S
C1133 C1131 1.415 . S
C1134 H1124 0.930 . S
C1134 C1132 1.419 . S
C1134 C1135 1.362 . S
C1135 H1125 0.930 . S
C1135 C1128 1.409 1_556 S
C1135 C1134 1.362 . S
H1136 C1142 0.930 . S
H1137 C1145 0.930 . S
H1138 C1146 0.930 . S
H1139 C1147 0.930 . S
H1140 C1150 0.930 . S
H1141 C1151 0.930 . S
C1142 H1136 0.930 . S
C1142 C1143 1.355 . S
C1142 C1144 1.415 . S
C1143 C1142 1.355 . S
C1143 C1145 1.419 . S
C1144 C1142 1.415 . S
C1144 C1149 1.425 1_554 S
C1144 C1151 1.409 1_554 S
C1145 H1137 0.930 . S
C1145 C1143 1.419 . S
C1145 C1146 1.362 . S
C1146 H1138 0.930 . S
C1146 C1145 1.362 . S
C1146 C1149 1.409 1_554 S
C1147 H1139 0.930 . S
C1147 C1148 1.355 . S
C1147 C1149 1.415 . S
C1148 C1147 1.355 . S
C1148 C1150 1.419 . S
C1149 C1144 1.425 1_556 S
C1149 C1146 1.409 1_556 S
C1149 C1147 1.415 . S
C1150 H1140 0.930 . S
C1150 C1148 1.419 . S
C1150 C1151 1.362 . S
C1151 H1141 0.930 . S
C1151 C1144 1.409 1_556 S
C1151 C1150 1.362 . S
H1152 C1158 0.930 . S
H1153 C1161 0.930 . S
H1154 C1162 0.930 . S
H1155 C1163 0.930 . S
H1156 C1166 0.930 . S
H1157 C1167 0.930 . S
C1158 H1152 0.930 . S
C1158 C1159 1.355 . S
C1158 C1160 1.415 . S
C1159 C1158 1.355 . S
C1159 C1161 1.419 . S
C1160 C1158 1.415 . S
C1160 C1165 1.425 1_556 S
C1160 C1167 1.409 1_556 S
C1161 H1153 0.930 . S
C1161 C1159 1.419 . S
C1161 C1162 1.362 . S
C1162 H1154 0.930 . S
C1162 C1161 1.362 . S
C1162 C1165 1.409 1_556 S
C1163 H1155 0.930 . S
C1163 C1164 1.355 . S
C1163 C1165 1.415 . S
C1164 C1163 1.355 . S
C1164 C1166 1.419 . S
C1165 C1160 1.425 1_554 S
C1165 C1162 1.409 1_554 S
C1165 C1163 1.415 . S
C1166 H1156 0.930 . S
C1166 C1164 1.419 . S
C1166 C1167 1.362 . S
C1167 H1157 0.930 . S
C1167 C1160 1.409 1_554 S
C1167 C1166 1.362 . S
C535 C84 0.583 . S
C540 C18 0.599 . S
C551 C51 0.596 . S
C556 C117 0.606 . S
C567 C216 0.548 . S
C572 C150 0.559 . S
C583 C249 0.553 . S
C588 C183 0.546 . S
C599 C282 0.553 . S
C604 C348 0.546 . S
C615 C381 0.599 . S
C620 C315 0.607 . S
C631 C480 0.548 . S
C636 C414 0.560 . S
C647 C447 0.605 . S
C652 C513 0.594 . S
C663 N13 1.711 . S
C668 N508 1.760 . S
C679 N409 1.707 . S
C684 N46 1.742 . S
C695 N442 1.736 . S
C700 N79 1.770 . S
C711 N475 1.715 . S
C716 N112 1.722 . S
C727 N310 1.735 . S
C732 N145 1.708 . S
C743 N343 1.713 . S
C748 N178 1.762 . S
C759 N376 1.761 . S
C764 N211 1.755 . S
C775 N277 1.763 . S
C780 N244 1.714 . S
C791 C7 1.435 . S
C796 C120 1.407 . S
C807 C21 1.382 . S
C812 C40 1.400 . S
C823 C73 1.425 . S
C828 C54 1.426 . S
C839 C87 1.433 . S
C844 C106 1.403 . S
C855 C186 1.402 . S
C860 C139 1.384 . S
C871 C172 1.433 . S
C876 C219 1.392 . S
C887 C252 1.415 . S
C892 C205 1.432 . S
C903 C153 1.431 . S
C908 C238 1.395 . S
C919 C271 1.435 . S
C924 C384 1.400 . S
C935 C285 1.382 . S
C940 C304 1.425 . S
C951 C337 1.434 . S
C956 C318 1.409 . S
C967 C370 1.390 . S
C972 C351 1.427 . S
C983 C403 1.392 . S
C988 C450 1.388 . S
C999 C483 1.383 . S
C1004 C436 1.398 . S
C1015 C516 1.388 . S
C1020 C469 1.431 . S
C1031 C502 1.435 . S
C1036 C417 1.403 . S
C1047 N2 1.565 . S
C1052 N200 1.561 . S
C1063 N233 1.528 . S
C1068 N35 1.588 . S
C1079 N134 1.579 . S
C1084 N68 1.545 . S
C1095 N167 1.571 . S
C1100 N101 1.554 . S
C1111 N266 1.520 . S
C1116 N464 1.568 . S
C1127 N497 1.521 . S
C1132 N299 1.589 . S
C1143 N398 1.588 . S
C1148 N332 1.526 . S
C1159 N365 1.554 . S
C1164 N431 1.530 . S
