# Generated by pormake.
# Topology yfj, (5)-cn, num edge types: 1
# Building blocks:
#     Node 0, Type 0, BuildingBlock: XOMCOT_clean_sbu_1, # of connection points: 5
#     Node 1, Type 0, BuildingBlock: XOMCOT_clean_sbu_1, # of connection points: 5
#     Node 2, Type 0, BuildingBlock: XOMCOT_clean_sbu_1, # of connection points: 5
#     Node 3, Type 0, BuildingBlock: XOMCOT_clean_sbu_1, # of connection points: 5
#     Node 4, Type 0, BuildingBlock: XOMCOT_clean_sbu_1, # of connection points: 5
#     Node 5, Type 0, BuildingBlock: XOMCOT_clean_sbu_1, # of connection points: 5
#     Node 6, Type 0, BuildingBlock: XOMCOT_clean_sbu_1, # of connection points: 5
#     Node 7, Type 0, BuildingBlock: XOMCOT_clean_sbu_1, # of connection points: 5
#     Node 8, Type 0, BuildingBlock: XOMCOT_clean_sbu_1, # of connection points: 5
#     Node 9, Type 0, BuildingBlock: XOMCOT_clean_sbu_1, # of connection points: 5
#     Node 10, Type 0, BuildingBlock: XOMCOT_clean_sbu_1, # of connection points: 5
#     Node 11, Type 0, BuildingBlock: XOMCOT_clean_sbu_1, # of connection points: 5
#     Node 12, Type 0, BuildingBlock: XOMCOT_clean_sbu_1, # of connection points: 5
#     Node 13, Type 0, BuildingBlock: XOMCOT_clean_sbu_1, # of connection points: 5
#     Node 14, Type 0, BuildingBlock: XOMCOT_clean_sbu_1, # of connection points: 5
#     Node 15, Type 0, BuildingBlock: XOMCOT_clean_sbu_1, # of connection points: 5
#     Edge 16, Type (0, 0), BuildingBlock: ZUJKAS_clean_linker_0, # of connection points: 2
#     Edge 17, Type (0, 0), BuildingBlock: ZUJKAS_clean_linker_0, # of connection points: 2
#     Edge 18, Type (0, 0), BuildingBlock: ZUJKAS_clean_linker_0, # of connection points: 2
#     Edge 19, Type (0, 0), BuildingBlock: ZUJKAS_clean_linker_0, # of connection points: 2
#     Edge 20, Type (0, 0), BuildingBlock: ZUJKAS_clean_linker_0, # of connection points: 2
#     Edge 21, Type (0, 0), BuildingBlock: ZUJKAS_clean_linker_0, # of connection points: 2
#     Edge 22, Type (0, 0), BuildingBlock: ZUJKAS_clean_linker_0, # of connection points: 2
#     Edge 23, Type (0, 0), BuildingBlock: ZUJKAS_clean_linker_0, # of connection points: 2
#     Edge 24, Type (0, 0), BuildingBlock: ZUJKAS_clean_linker_0, # of connection points: 2
#     Edge 25, Type (0, 0), BuildingBlock: ZUJKAS_clean_linker_0, # of connection points: 2
#     Edge 26, Type (0, 0), BuildingBlock: ZUJKAS_clean_linker_0, # of connection points: 2
#     Edge 27, Type (0, 0), BuildingBlock: ZUJKAS_clean_linker_0, # of connection points: 2
#     Edge 28, Type (0, 0), BuildingBlock: ZUJKAS_clean_linker_0, # of connection points: 2
#     Edge 29, Type (0, 0), BuildingBlock: ZUJKAS_clean_linker_0, # of connection points: 2
#     Edge 30, Type (0, 0), BuildingBlock: ZUJKAS_clean_linker_0, # of connection points: 2
#     Edge 31, Type (0, 0), BuildingBlock: ZUJKAS_clean_linker_0, # of connection points: 2
#     Edge 32, Type (0, 0), BuildingBlock: ZUJKAS_clean_linker_0, # of connection points: 2
#     Edge 33, Type (0, 0), BuildingBlock: ZUJKAS_clean_linker_0, # of connection points: 2
#     Edge 34, Type (0, 0), BuildingBlock: ZUJKAS_clean_linker_0, # of connection points: 2
#     Edge 35, Type (0, 0), BuildingBlock: ZUJKAS_clean_linker_0, # of connection points: 2
#     Edge 36, Type (0, 0), BuildingBlock: ZUJKAS_clean_linker_0, # of connection points: 2
#     Edge 37, Type (0, 0), BuildingBlock: ZUJKAS_clean_linker_0, # of connection points: 2
#     Edge 38, Type (0, 0), BuildingBlock: ZUJKAS_clean_linker_0, # of connection points: 2
#     Edge 39, Type (0, 0), BuildingBlock: ZUJKAS_clean_linker_0, # of connection points: 2
#     Edge 40, Type (0, 0), BuildingBlock: ZUJKAS_clean_linker_0, # of connection points: 2
#     Edge 41, Type (0, 0), BuildingBlock: ZUJKAS_clean_linker_0, # of connection points: 2
#     Edge 42, Type (0, 0), BuildingBlock: ZUJKAS_clean_linker_0, # of connection points: 2
#     Edge 43, Type (0, 0), BuildingBlock: ZUJKAS_clean_linker_0, # of connection points: 2
#     Edge 44, Type (0, 0), BuildingBlock: ZUJKAS_clean_linker_0, # of connection points: 2
#     Edge 45, Type (0, 0), BuildingBlock: ZUJKAS_clean_linker_0, # of connection points: 2
#     Edge 46, Type (0, 0), BuildingBlock: ZUJKAS_clean_linker_0, # of connection points: 2
#     Edge 47, Type (0, 0), BuildingBlock: ZUJKAS_clean_linker_0, # of connection points: 2
#     Edge 48, Type (0, 0), BuildingBlock: ZUJKAS_clean_linker_0, # of connection points: 2
#     Edge 49, Type (0, 0), BuildingBlock: ZUJKAS_clean_linker_0, # of connection points: 2
#     Edge 50, Type (0, 0), BuildingBlock: ZUJKAS_clean_linker_0, # of connection points: 2
#     Edge 51, Type (0, 0), BuildingBlock: ZUJKAS_clean_linker_0, # of connection points: 2
#     Edge 52, Type (0, 0), BuildingBlock: ZUJKAS_clean_linker_0, # of connection points: 2
#     Edge 53, Type (0, 0), BuildingBlock: ZUJKAS_clean_linker_0, # of connection points: 2
#     Edge 54, Type (0, 0), BuildingBlock: ZUJKAS_clean_linker_0, # of connection points: 2
#     Edge 55, Type (0, 0), BuildingBlock: ZUJKAS_clean_linker_0, # of connection points: 2
# Relax obj value: 0.478
# Max RMSD: 0.235
# Mean RMSD: 0.235
data_MOF--net-yfj--node1-XOMCOT_clean_sbu_1--edge1-ZUJKAS_clean_linker_0
_symmetry_space_group_name_H-M    P1
_symmetry_Int_Tables_number       1
_symmetry_cell_setting            triclinic
loop_
_symmetry_equiv_pos_as_xyz
'x, y, z'
_cell_length_a     61.782613
_cell_length_b     61.909426
_cell_length_c     55.27602
_cell_angle_alpha  90.030421
_cell_angle_beta   89.979431
_cell_angle_gamma 90.022491
loop_
_atom_site_label
_atom_site_type_symbol
_atom_site_fract_x
_atom_site_fract_y
_atom_site_fract_z
_atom_type_partial_charge
C0 C 0.13826 0.14732 0.36436 0.0
C1 C 0.13322 0.14642 0.38833 0.0
N2 N 0.11167 0.14725 0.39039 0.0
N3 N 0.12002 0.14823 0.35073 0.0
C4 C 0.10388 0.14873 0.36755 0.0
H5 H 0.15458 0.14867 0.35748 0.0
Co6 Co 0.12285 0.15408 0.31687 0.0
C7 C 0.12921 0.19631 0.32859 0.0
O8 O 0.10888 0.19661 0.3216 0.0
N9 N 0.12714 0.16062 0.28403 0.0
C10 C 0.12274 0.16845 0.24506 0.0
C11 C 0.11246 0.16632 0.26717 0.0
C12 C 0.14616 0.15972 0.27188 0.0
N13 N 0.14397 0.16411 0.24807 0.0
O14 O 0.1485 0.13574 0.31603 0.0
H15 H 0.09534 0.16824 0.27063 0.0
H16 H 0.16145 0.15581 0.28033 0.0
O17 O 0.13991 0.17886 0.32595 0.0
C18 C 0.15101 0.11632 0.32338 0.0
O19 O 0.13497 0.10612 0.33406 0.0
N20 N 0.10485 0.13023 0.30776 0.0
C21 C 0.07945 0.09354 0.29893 0.0
C22 C 0.07172 0.11047 0.31347 0.0
C23 C 0.08447 0.1289 0.3171 0.0
C24 C 0.11143 0.11517 0.29115 0.0
C25 C 0.09922 0.09651 0.28689 0.0
H26 H 0.07795 0.14213 0.32739 0.0
H27 H 0.12676 0.11694 0.28193 0.0
H28 H 0.08706 0.15178 0.36362 0.0
H29 H 0.14455 0.14618 0.40328 0.0
H30 H 0.11503 0.17218 0.22799 0.0
H31 H 0.05597 0.1095 0.322 0.0
H32 H 0.10568 0.08419 0.27501 0.0
C33 C 0.91475 0.61677 0.5929 0.0
C34 C 0.91964 0.61566 0.61714 0.0
N35 N 0.90236 0.62258 0.62992 0.0
N36 N 0.89439 0.62419 0.59026 0.0
C37 C 0.88731 0.62775 0.61309 0.0
H38 H 0.92542 0.61269 0.57807 0.0
Co39 Co 0.88077 0.62992 0.56065 0.0
C40 C 0.83631 0.614 0.5781 0.0
O41 O 0.83586 0.59632 0.56497 0.0
N42 N 0.86766 0.63691 0.53061 0.0
C43 C 0.84603 0.64265 0.49901 0.0
C44 C 0.84875 0.63117 0.52023 0.0
C45 C 0.87618 0.65156 0.51508 0.0
N46 N 0.86333 0.65566 0.49583 0.0
O47 O 0.88058 0.65938 0.56858 0.0
H48 H 0.83737 0.61974 0.52761 0.0
H49 H 0.8914 0.6596 0.51824 0.0
O50 O 0.85244 0.62687 0.57658 0.0
C51 C 0.89899 0.66799 0.56488 0.0
O52 O 0.91493 0.65585 0.55691 0.0
N53 N 0.88344 0.60056 0.55207 0.0
C54 C 0.90993 0.56419 0.54749 0.0
C55 C 0.89489 0.56577 0.56653 0.0
C56 C 0.88174 0.58415 0.56852 0.0
C57 C 0.89604 0.59801 0.53201 0.0
C58 C 0.90928 0.57995 0.52929 0.0
H59 H 0.87264 0.58645 0.58503 0.0
H60 H 0.8983 0.61129 0.51959 0.0
H61 H 0.87147 0.63416 0.61724 0.0
H62 H 0.93502 0.61069 0.62464 0.0
H63 H 0.83223 0.64156 0.48703 0.0
H64 H 0.89462 0.55389 0.58089 0.0
H65 H 0.92067 0.57973 0.51441 0.0
C66 C 0.43178 0.35335 0.84736 0.0
C67 C 0.43616 0.35379 0.87172 0.0
N68 N 0.41869 0.36163 0.8833 0.0
N69 N 0.41192 0.36163 0.84319 0.0
C70 C 0.4041 0.36572 0.86567 0.0
H71 H 0.44191 0.34589 0.83378 0.0
Co72 Co 0.39737 0.35987 0.81316 0.0
C73 C 0.39207 0.3159 0.82508 0.0
O74 O 0.41033 0.31361 0.81318 0.0
N75 N 0.38311 0.35677 0.78341 0.0
C76 C 0.37857 0.34759 0.74492 0.0
C77 C 0.39237 0.34681 0.76442 0.0
C78 C 0.3635 0.36332 0.77512 0.0
N79 N 0.36037 0.35812 0.75153 0.0
O80 O 0.37363 0.37699 0.82538 0.0
H81 H 0.40831 0.3396 0.76474 0.0
H82 H 0.35202 0.37231 0.78593 0.0
O83 O 0.38307 0.33443 0.82553 0.0
C84 C 0.37212 0.39526 0.83598 0.0
O85 O 0.38965 0.40636 0.84127 0.0
N86 N 0.41192 0.38508 0.80095 0.0
C87 C 0.43357 0.42361 0.7893 0.0
C88 C 0.44509 0.40512 0.79636 0.0
C89 C 0.43399 0.38596 0.8016 0.0
C90 C 0.40074 0.40212 0.79129 0.0
C91 C 0.41116 0.42161 0.78585 0.0
H92 H 0.44325 0.37195 0.80651 0.0
H93 H 0.38344 0.4012 0.78883 0.0
H94 H 0.38762 0.37043 0.8693 0.0
H95 H 0.4506 0.34755 0.8803 0.0
H96 H 0.38177 0.34079 0.72725 0.0
H97 H 0.46248 0.40555 0.79867 0.0
H98 H 0.40163 0.43509 0.77935 0.0
C99 C 0.60786 0.90824 0.08989 0.0
C100 C 0.60253 0.91053 0.11394 0.0
N101 N 0.61901 0.90284 0.12739 0.0
N102 N 0.62769 0.89931 0.08814 0.0
C103 C 0.63405 0.89618 0.11128 0.0
H104 H 0.59766 0.91218 0.0746 0.0
Co105 Co 0.64083 0.88932 0.0597 0.0
C106 C 0.68661 0.9041 0.07468 0.0
O107 O 0.68856 0.92018 0.05935 0.0
N108 N 0.65343 0.8781 0.03109 0.0
C109 C 0.67273 0.87145 0.99785 0.0
C110 C 0.67022 0.88501 0.01752 0.0
C111 C 0.646 0.86044 0.01918 0.0
N112 N 0.65749 0.85588 0.99897 0.0
O113 O 0.63983 0.86136 0.0726 0.0
H114 H 0.67982 0.89917 0.02129 0.0
H115 H 0.63202 0.85131 0.02492 0.0
O116 O 0.66935 0.89274 0.07486 0.0
C117 C 0.62087 0.85341 0.07287 0.0
O118 O 0.6051 0.86398 0.06216 0.0
N119 N 0.63959 0.91746 0.04662 0.0
C120 C 0.61424 0.95384 0.03719 0.0
C121 C 0.62934 0.95396 0.05623 0.0
C122 C 0.64208 0.93557 0.06055 0.0
C123 C 0.62715 0.91825 0.02625 0.0
C124 C 0.61464 0.93638 0.02102 0.0
H125 H 0.65126 0.93479 0.07717 0.0
H126 H 0.62452 0.90383 0.01564 0.0
H127 H 0.64887 0.88798 0.11621 0.0
H128 H 0.5875 0.91699 0.12094 0.0
H129 H 0.68496 0.8729 0.98392 0.0
H130 H 0.62964 0.96705 0.06922 0.0
H131 H 0.60374 0.93579 1.00569 0.0
C132 C 0.11284 0.40947 0.9283 0.0
C133 C 0.10941 0.41446 0.90436 0.0
N134 N 0.11698 0.39809 0.89064 0.0
N135 N 0.12233 0.38993 0.92978 0.0
C136 C 0.12478 0.38346 0.90658 0.0
H137 H 0.10905 0.41959 0.94369 0.0
Co138 Co 0.13215 0.37671 0.9581 0.0
C139 C 0.11784 0.33079 0.94388 0.0
O140 O 0.10269 0.32877 0.96037 0.0
N141 N 0.14298 0.36395 0.98693 0.0
C142 C 0.14748 0.34557 0.02123 0.0
C143 C 0.13434 0.34861 1.00136 0.0
C144 C 0.16127 0.37006 0.99869 0.0
N145 N 0.16451 0.35909 0.01955 0.0
O146 O 0.16049 0.37801 0.94553 0.0
H147 H 0.11905 0.3407 0.99835 0.0
H148 H 0.1717 0.38293 0.99257 0.0
O149 O 0.12893 0.34821 0.94264 0.0
C150 C 0.16883 0.39677 0.94677 0.0
O151 O 0.15808 0.41221 0.95783 0.0
N152 N 0.10383 0.3777 0.97069 0.0
C153 C 0.06478 0.39824 0.98198 0.0
C154 C 0.06605 0.38358 0.96258 0.0
C155 C 0.08579 0.37348 0.95717 0.0
C156 C 0.10238 0.39045 0.99074 0.0
C157 C 0.08302 0.40067 0.99685 0.0
H158 H 0.08711 0.36443 0.94051 0.0
H159 H 0.11687 0.39473 1.00061 0.0
H160 H 0.13243 0.36843 0.90151 0.0
H161 H 0.1025 0.42935 0.89762 0.0
H162 H 0.14456 0.33433 0.03587 0.0
H163 H 0.05238 0.38114 0.95063 0.0
H164 H 0.08306 0.41207 0.01171 0.0
C165 C 0.60124 0.60761 0.17626 0.0
C166 C 0.59582 0.60518 0.15226 0.0
N167 N 0.61265 0.61187 0.13861 0.0
N168 N 0.62147 0.6156 0.17783 0.0
C169 C 0.62793 0.6182 0.15464 0.0
H170 H 0.59103 0.60397 0.19163 0.0
Co171 Co 0.63593 0.62306 0.20642 0.0
C172 C 0.68032 0.60739 0.18823 0.0
O173 O 0.68185 0.59073 0.20285 0.0
N174 N 0.64977 0.63186 0.23536 0.0
C175 C 0.67288 0.64219 0.26407 0.0
C176 C 0.67012 0.6294 0.24381 0.0
C177 C 0.64049 0.6459 0.25107 0.0
N178 N 0.6542 0.65268 0.26855 0.0
O179 O 0.63533 0.65205 0.19674 0.0
H180 H 0.68257 0.61976 0.23548 0.0
H181 H 0.62418 0.6519 0.24903 0.0
O182 O 0.6638 0.61979 0.18942 0.0
C183 C 0.61696 0.66077 0.20019 0.0
O184 O 0.60115 0.64908 0.20924 0.0
N185 N 0.63421 0.59411 0.21682 0.0
C186 C 0.6089 0.55727 0.2243 0.0
C187 C 0.62334 0.55842 0.20466 0.0
C188 C 0.63595 0.57702 0.20125 0.0
C189 C 0.62224 0.59211 0.23744 0.0
C190 C 0.60961 0.57382 0.24161 0.0
H191 H 0.64457 0.57881 0.18435 0.0
H192 H 0.61996 0.60585 0.2492 0.0
H193 H 0.64353 0.6247 0.14963 0.0
H194 H 0.58045 0.59941 0.14547 0.0
H195 H 0.68768 0.64396 0.27435 0.0
H196 H 0.62352 0.54593 0.19094 0.0
H197 H 0.59865 0.5739 0.2569 0.0
C198 C 0.3945 0.08636 0.4268 0.0
C199 C 0.39723 0.07995 0.40315 0.0
N200 N 0.38826 0.09499 0.38869 0.0
N201 N 0.38423 0.10559 0.42726 0.0
C202 C 0.38054 0.11036 0.40376 0.0
H203 H 0.39902 0.07724 0.4427 0.0
Co204 Co 0.3736 0.1198 0.45475 0.0
C205 C 0.3895 0.16504 0.43976 0.0
O206 O 0.40422 0.1671 0.45672 0.0
N207 N 0.36192 0.13338 0.48261 0.0
C208 C 0.35634 0.15266 0.51606 0.0
C209 C 0.36997 0.14927 0.49668 0.0
C210 C 0.34351 0.12722 0.4941 0.0
N211 N 0.33962 0.13873 0.51449 0.0
O212 O 0.34593 0.11887 0.44071 0.0
H213 H 0.38526 0.15726 0.49388 0.0
H214 H 0.33326 0.11428 0.48775 0.0
O215 O 0.37805 0.14785 0.4386 0.0
C216 C 0.33777 0.10001 0.44041 0.0
O217 O 0.3473 0.08459 0.45278 0.0
N218 N 0.40129 0.11854 0.46874 0.0
C219 C 0.43795 0.09393 0.47899 0.0
C220 C 0.43842 0.10968 0.46066 0.0
C221 C 0.41982 0.12183 0.45573 0.0
C222 C 0.40151 0.10543 0.48855 0.0
C223 C 0.41971 0.09306 0.49408 0.0
H224 H 0.41942 0.13123 0.43927 0.0
H225 H 0.38662 0.10212 0.49813 0.0
H226 H 0.37167 0.12449 0.39789 0.0
H227 H 0.4043 0.06487 0.39714 0.0
H228 H 0.35909 0.16396 0.53068 0.0
H229 H 0.45224 0.11109 0.44871 0.0
H230 H 0.41839 0.08108 0.50827 0.0
C231 C 0.90003 0.9073 0.67536 0.0
C232 C 0.90581 0.90934 0.65142 0.0
N233 N 0.88972 0.90123 0.63763 0.0
N234 N 0.88024 0.89822 0.67676 0.0
C235 C 0.87443 0.8946 0.6535 0.0
H236 H 0.90992 0.91148 0.69082 0.0
Co237 Co 0.86644 0.88866 0.70508 0.0
C238 C 0.82132 0.90405 0.68888 0.0
O239 O 0.81947 0.92068 0.7035 0.0
N240 N 0.85306 0.87803 0.73341 0.0
C241 C 0.83299 0.87283 0.76638 0.0
C242 C 0.83632 0.88583 0.74644 0.0
C243 C 0.85963 0.86038 0.74589 0.0
N244 N 0.84767 0.85673 0.76598 0.0
O245 O 0.86732 0.86066 0.69239 0.0
H246 H 0.82738 0.90029 0.74216 0.0
H247 H 0.87339 0.85066 0.74072 0.0
O248 O 0.83832 0.89234 0.68941 0.0
C249 C 0.88646 0.85316 0.69289 0.0
O250 O 0.90124 0.8635 0.7055 0.0
N251 N 0.86795 0.91677 0.71792 0.0
C252 C 0.89326 0.95307 0.72771 0.0
C253 C 0.87823 0.95325 0.7086 0.0
C254 C 0.8656 0.93487 0.70402 0.0
C255 C 0.88049 0.91737 0.73822 0.0
C256 C 0.89311 0.9354 0.74355 0.0
H257 H 0.85658 0.93414 0.68729 0.0
H258 H 0.88321 0.90281 0.74855 0.0
H259 H 0.85952 0.88666 0.6484 0.0
H260 H 0.9211 0.91549 0.6448 0.0
H261 H 0.82067 0.87509 0.78006 0.0
H262 H 0.87768 0.96662 0.696 0.0
H263 H 0.90456 0.9343 0.75833 0.0
C264 C 0.61218 0.60301 0.84093 0.0
C265 C 0.6084 0.59744 0.86467 0.0
N266 N 0.61581 0.61347 0.879 0.0
N267 N 0.62167 0.62259 0.84021 0.0
C268 C 0.62383 0.62847 0.86364 0.0
H269 H 0.60862 0.59326 0.82517 0.0
Co270 Co 0.63224 0.63656 0.81258 0.0
C271 C 0.61817 0.68167 0.82957 0.0
O272 O 0.60211 0.68362 0.81415 0.0
N273 N 0.64416 0.64996 0.78471 0.0
C274 C 0.65507 0.67239 0.75562 0.0
C275 C 0.64136 0.66982 0.77513 0.0
C276 C 0.65943 0.64074 0.77039 0.0
N277 N 0.66651 0.65405 0.75267 0.0
O278 O 0.66032 0.63356 0.82527 0.0
H279 H 0.63034 0.6819 0.78179 0.0
H280 H 0.66568 0.62466 0.77326 0.0
O281 O 0.62984 0.66461 0.82941 0.0
C282 C 0.66758 0.61448 0.82251 0.0
O283 O 0.6559 0.60036 0.81045 0.0
N284 N 0.6039 0.63714 0.79941 0.0
C285 C 0.56616 0.61459 0.78728 0.0
C286 C 0.5669 0.62766 0.80808 0.0
C287 C 0.58591 0.63904 0.81371 0.0
C288 C 0.60242 0.62678 0.77767 0.0
C289 C 0.58362 0.61578 0.77109 0.0
H290 H 0.58709 0.64664 0.83128 0.0
H291 H 0.61662 0.62458 0.76655 0.0
H292 H 0.63147 0.64334 0.86931 0.0
H293 H 0.60141 0.58239 0.87085 0.0
H294 H 0.65646 0.68669 0.74448 0.0
H295 H 0.5539 0.62738 0.8212 0.0
H296 H 0.5836 0.60661 0.7544 0.0
C297 C 0.35533 0.13562 0.11114 0.0
C298 C 0.35608 0.13029 0.13502 0.0
N299 N 0.36016 0.10911 0.13661 0.0
N300 N 0.35904 0.118 0.09714 0.0
C301 C 0.36186 0.10184 0.11357 0.0
H302 H 0.35161 0.15159 0.1044 0.0
Co303 Co 0.35556 0.12142 0.0629 0.0
C304 C 0.31287 0.12436 0.07479 0.0
O305 O 0.31505 0.10351 0.07105 0.0
N306 N 0.35144 0.12623 0.02971 0.0
C307 C 0.34974 0.12236 0.98976 0.0
C308 C 0.35027 0.11163 0.01167 0.0
C309 C 0.35108 0.14565 0.01841 0.0
N310 N 0.35033 0.14382 0.99405 0.0
O311 O 0.37213 0.14814 0.06492 0.0
H312 H 0.35063 0.09432 0.01425 0.0
H313 H 0.35237 0.1609 0.02785 0.0
O314 O 0.32889 0.13661 0.06988 0.0
C315 C 0.3904 0.15134 0.07513 0.0
O316 O 0.40014 0.13556 0.08673 0.0
N317 N 0.38113 0.10523 0.05563 0.0
C318 C 0.41898 0.08123 0.04787 0.0
C319 C 0.40103 0.07202 0.05961 0.0
C320 C 0.3821 0.08418 0.06279 0.0
C321 C 0.39743 0.11346 0.0416 0.0
C322 C 0.41666 0.102 0.03809 0.0
H323 H 0.36812 0.07669 0.07093 0.0
H324 H 0.39591 0.12928 0.03352 0.0
H325 H 0.36404 0.08502 0.10914 0.0
H326 H 0.35348 0.14108 0.15017 0.0
H327 H 0.34932 0.1149 0.97206 0.0
H328 H 0.40169 0.05573 0.06669 0.0
H329 H 0.4296 0.10936 0.02776 0.0
C330 C 0.91012 0.90369 0.34197 0.0
C331 C 0.91276 0.90786 0.36624 0.0
N332 N 0.90393 0.89147 0.37898 0.0
N333 N 0.89987 0.88464 0.33925 0.0
C334 C 0.8962 0.87763 0.36208 0.0
H335 H 0.91479 0.91417 0.32721 0.0
Co336 Co 0.8899 0.87307 0.30991 0.0
C337 C 0.90233 0.82613 0.3224 0.0
O338 O 0.918 0.82396 0.30653 0.0
N339 N 0.87884 0.86211 0.28031 0.0
C340 C 0.87279 0.84466 0.2457 0.0
C341 C 0.88602 0.84615 0.26576 0.0
C342 C 0.86141 0.87021 0.26845 0.0
N343 N 0.85721 0.85985 0.24738 0.0
O344 O 0.86168 0.8747 0.32214 0.0
H345 H 0.9003 0.83659 0.26895 0.0
H346 H 0.85193 0.88356 0.27518 0.0
O347 O 0.8919 0.84392 0.32378 0.0
C348 C 0.8543 0.89385 0.32301 0.0
O349 O 0.86571 0.90963 0.31349 0.0
N350 N 0.91834 0.87362 0.29768 0.0
C351 C 0.95707 0.89587 0.29011 0.0
C352 C 0.95558 0.87985 0.30807 0.0
C353 C 0.93601 0.86879 0.31154 0.0
C354 C 0.92029 0.88733 0.2785 0.0
C355 C 0.93956 0.89845 0.27425 0.0
H356 H 0.93427 0.8588 0.32745 0.0
H357 H 0.90611 0.89193 0.26828 0.0
H358 H 0.88753 0.86292 0.36616 0.0
H359 H 0.91985 0.92233 0.37383 0.0
H360 H 0.87493 0.83358 0.23076 0.0
H361 H 0.96874 0.87726 0.32067 0.0
H362 H 0.93978 0.91077 0.26035 0.0
C363 C 0.10831 0.40704 0.59333 0.0
C364 C 0.10218 0.40888 0.61718 0.0
N365 N 0.11855 0.40174 0.63122 0.0
N366 N 0.12854 0.39897 0.59225 0.0
C367 C 0.13428 0.39575 0.61556 0.0
H368 H 0.0986 0.41114 0.57772 0.0
Co369 Co 0.14383 0.39222 0.56395 0.0
C370 C 0.1882 0.40618 0.58334 0.0
O371 O 0.19066 0.42288 0.56898 0.0
N372 N 0.15883 0.38447 0.53516 0.0
C373 C 0.17966 0.38285 0.50218 0.0
C374 C 0.17453 0.39473 0.52258 0.0
C375 C 0.15467 0.36657 0.5218 0.0
N376 N 0.16718 0.36502 0.50185 0.0
O377 O 0.14237 0.36293 0.57272 0.0
H378 H 0.18143 0.41015 0.5274 0.0
H379 H 0.14215 0.35506 0.52606 0.0
O380 O 0.17116 0.39456 0.58185 0.0
C381 C 0.12372 0.35524 0.56811 0.0
O382 O 0.1093 0.36772 0.5576 0.0
N383 N 0.14265 0.42141 0.55472 0.0
C384 C 0.11638 0.45775 0.54924 0.0
C385 C 0.13124 0.45641 0.56848 0.0
C386 C 0.14436 0.43804 0.57089 0.0
C387 C 0.13038 0.42374 0.5344 0.0
C388 C 0.11725 0.44181 0.53122 0.0
H389 H 0.15323 0.43586 0.58756 0.0
H390 H 0.1282 0.41023 0.52225 0.0
H391 H 0.1497 0.38906 0.62093 0.0
H392 H 0.08664 0.41455 0.62358 0.0
H393 H 0.19163 0.38705 0.48868 0.0
H394 H 0.13132 0.46844 0.5827 0.0
H395 H 0.10601 0.44186 0.5162 0.0
C396 C 0.60537 0.90414 0.42371 0.0
C397 C 0.60325 0.90966 0.39973 0.0
N398 N 0.61117 0.89342 0.38605 0.0
N399 N 0.61441 0.8844 0.42529 0.0
C400 C 0.6179 0.87833 0.4021 0.0
H401 H 0.60101 0.91404 0.43908 0.0
Co402 Co 0.62267 0.87065 0.45403 0.0
C403 C 0.60871 0.82564 0.43683 0.0
O404 O 0.59181 0.82412 0.45116 0.0
N405 N 0.63221 0.85757 0.48304 0.0
C406 C 0.64287 0.83545 0.5125 0.0
C407 C 0.63016 0.83741 0.49207 0.0
C408 C 0.64595 0.86754 0.49855 0.0
N409 N 0.65287 0.85447 0.51651 0.0
O410 O 0.65161 0.87261 0.44412 0.0
H411 H 0.6207 0.82462 0.48415 0.0
H412 H 0.6515 0.88395 0.49615 0.0
O413 O 0.62071 0.84247 0.4376 0.0
C414 C 0.65929 0.89149 0.44707 0.0
O415 O 0.64679 0.90666 0.45613 0.0
N416 N 0.59364 0.87105 0.46466 0.0
C417 C 0.55563 0.89435 0.47288 0.0
C418 C 0.55733 0.88029 0.45299 0.0
C419 C 0.57652 0.86869 0.4492 0.0
C420 C 0.59121 0.88262 0.4855 0.0
C421 C 0.57232 0.89422 0.49005 0.0
H422 H 0.57861 0.86038 0.43215 0.0
H423 H 0.60489 0.88545 0.4972 0.0
H424 H 0.62553 0.86324 0.39716 0.0
H425 H 0.597 0.92484 0.39301 0.0
H426 H 0.64482 0.82103 0.52333 0.0
H427 H 0.54476 0.87972 0.43935 0.0
H428 H 0.57199 0.90496 0.50552 0.0
C429 C 0.09186 0.10815 0.67981 0.0
C430 C 0.08525 0.10715 0.65605 0.0
N431 N 0.1004 0.1168 0.64225 0.0
N432 N 0.11133 0.11799 0.68097 0.0
C433 C 0.11604 0.12316 0.65779 0.0
H434 H 0.08267 0.10282 0.69537 0.0
Co435 Co 0.1259 0.1269 0.70904 0.0
C436 C 0.17065 0.10996 0.69298 0.0
O437 O 0.17263 0.09459 0.70919 0.0
N438 N 0.13983 0.13694 0.73736 0.0
C439 C 0.15929 0.14137 0.77092 0.0
C440 C 0.15568 0.1283 0.75108 0.0
C441 C 0.13401 0.15511 0.74941 0.0
N442 N 0.14563 0.15833 0.76983 0.0
O443 O 0.12653 0.15494 0.69641 0.0
H444 H 0.16365 0.11314 0.74752 0.0
H445 H 0.12089 0.16546 0.74372 0.0
O446 O 0.15372 0.12181 0.69275 0.0
C447 C 0.1083 0.16437 0.6956 0.0
O448 O 0.09156 0.15532 0.70624 0.0
N449 N 0.12333 0.0989 0.72178 0.0
C450 C 0.09776 0.06273 0.73116 0.0
C451 C 0.11329 0.06235 0.71255 0.0
C452 C 0.12598 0.08069 0.70811 0.0
C453 C 0.1103 0.09854 0.74168 0.0
C454 C 0.09749 0.08057 0.74681 0.0
H455 H 0.1354 0.08126 0.69164 0.0
H456 H 0.10751 0.11322 0.7518 0.0
H457 H 0.13028 0.13221 0.65254 0.0
H458 H 0.06997 0.10085 0.64959 0.0
H459 H 0.17103 0.13849 0.78508 0.0
H460 H 0.11419 0.04884 0.70014 0.0
H461 H 0.08568 0.08182 0.76122 0.0
C462 C 0.92839 0.63967 0.9242 0.0
C463 C 0.93242 0.63824 0.8998 0.0
N464 N 0.91351 0.63992 0.88791 0.0
N465 N 0.90687 0.64171 0.92803 0.0
C466 C 0.8984 0.64247 0.90537 0.0
H467 H 0.94078 0.63999 0.93787 0.0
Co468 Co 0.8911 0.64603 0.95721 0.0
C469 C 0.8885 0.68865 0.94085 0.0
O470 O 0.90724 0.69011 0.95196 0.0
N471 N 0.87552 0.65114 0.98576 0.0
C472 C 0.86816 0.66501 0.02188 0.0
C473 C 0.88266 0.66473 1.00298 0.0
C474 C 0.85658 0.64325 0.9946 0.0
N475 N 0.85166 0.65149 0.01669 0.0
O476 O 0.86769 0.62864 0.94467 0.0
H477 H 0.89765 0.67371 1.00193 0.0
H478 H 0.84659 0.63172 0.98503 0.0
O479 O 0.87799 0.67097 0.94224 0.0
C480 C 0.86723 0.61113 0.93243 0.0
O481 O 0.88533 0.60116 0.92677 0.0
N482 N 0.90453 0.62182 0.9724 0.0
C483 C 0.92836 0.58584 0.98745 0.0
C484 C 0.93817 0.60624 0.98537 0.0
C485 C 0.92578 0.62413 0.97846 0.0
C486 C 0.89407 0.60308 0.97835 0.0
C487 C 0.90575 0.58471 0.98517 0.0
H488 H 0.93339 0.6398 0.97702 0.0
H489 H 0.8767 0.60183 0.97701 0.0
H490 H 0.88134 0.64475 0.90176 0.0
H491 H 0.9482 0.63676 0.89144 0.0
H492 H 0.86999 0.67415 0.03845 0.0
H493 H 0.95535 0.60831 0.98853 0.0
H494 H 0.89717 0.56961 0.98752 0.0
C495 C 0.41489 0.394 0.17784 0.0
C496 C 0.42006 0.39649 0.15377 0.0
N497 N 0.40414 0.3876 0.14038 0.0
N498 N 0.39561 0.38391 0.17964 0.0
C499 C 0.38954 0.38013 0.15654 0.0
H500 H 0.42488 0.39856 0.19308 0.0
Co501 Co 0.38241 0.37348 0.20782 0.0
C502 C 0.33655 0.38876 0.19397 0.0
O503 O 0.33449 0.40369 0.2107 0.0
N504 N 0.3696 0.36197 0.23622 0.0
C505 C 0.35067 0.35644 0.26996 0.0
C506 C 0.3541 0.3702 0.25073 0.0
C507 C 0.3755 0.34332 0.24729 0.0
N508 N 0.36418 0.33944 0.26782 0.0
O509 O 0.38319 0.34577 0.19403 0.0
H510 H 0.3463 0.38561 0.24819 0.0
H511 H 0.388 0.33277 0.24045 0.0
O512 O 0.35392 0.3776 0.19271 0.0
C513 C 0.40226 0.33806 0.19372 0.0
O514 O 0.41751 0.34799 0.20602 0.0
N515 N 0.38401 0.40124 0.22151 0.0
C516 C 0.40913 0.43781 0.23074 0.0
C517 C 0.39298 0.43818 0.21281 0.0
C518 C 0.3805 0.41966 0.20846 0.0
C519 C 0.39768 0.40153 0.24087 0.0
C520 C 0.41028 0.41968 0.2459 0.0
H521 H 0.37056 0.41919 0.19238 0.0
H522 H 0.40118 0.38673 0.25045 0.0
H523 H 0.37501 0.37139 0.15171 0.0
H524 H 0.43489 0.40336 0.14672 0.0
H525 H 0.33957 0.35918 0.28479 0.0
H526 H 0.39138 0.45189 0.20079 0.0
H527 H 0.42258 0.41844 0.25978 0.0
H528 H 0.0863 0.11689 0.41056 0.0
H529 H 0.07852 0.11396 0.4541 0.0
H530 H 0.10646 0.17701 0.46549 0.0
H531 H 0.11436 0.17967 0.42214 0.0
H532 H 0.12699 0.14331 0.49059 0.0
H533 H 0.03809 0.14132 0.50561 0.0
H534 H 0.04808 0.12394 0.48203 0.0
H535 H 0.05013 0.15271 0.47867 0.0
C536 C 0.0897 0.1305 0.42228 0.0
C537 C 0.1006 0.14862 0.41314 0.0
C538 C 0.08539 0.12881 0.44713 0.0
C539 C 0.09187 0.14531 0.46307 0.0
C540 C 0.10123 0.16414 0.45355 0.0
H541 H 0.11562 0.15204 0.61861 0.0
H542 H 0.11286 0.15962 0.57526 0.0
C543 C 0.10556 0.16576 0.42882 0.0
C544 C 0.0922 0.14165 0.48964 0.0
H545 H 0.06038 0.13211 0.53905 0.0
C546 C 0.11241 0.14103 0.50123 0.0
C547 C 0.0732 0.13838 0.5034 0.0
C548 C 0.05109 0.13926 0.49191 0.0
C549 C 0.11421 0.13696 0.52612 0.0
C550 C 0.0952 0.13397 0.54004 0.0
C551 C 0.07494 0.13452 0.52843 0.0
C552 C 0.09612 0.12987 0.56655 0.0
C553 C 0.13653 0.13527 0.53709 0.0
C554 C 0.08702 0.11099 0.57627 0.0
C555 C 0.08843 0.10672 0.60108 0.0
C556 C 0.09904 0.12122 0.61668 0.0
C557 C 0.10784 0.1403 0.60698 0.0
C558 C 0.10623 0.14466 0.5822 0.0
H559 H 0.14902 0.13178 0.52316 0.0
H560 H 0.14078 0.15086 0.54577 0.0
H561 H 0.13716 0.12241 0.55106 0.0
H562 H 0.0791 0.09937 0.56459 0.0
H563 H 0.08153 0.0919 0.60804 0.0
H564 H 0.93812 0.61852 0.8553 0.0
H565 H 0.93353 0.61753 0.8115 0.0
H566 H 0.877 0.658 0.81753 0.0
H567 H 0.88149 0.65902 0.86165 0.0
H568 H 0.87116 0.62382 0.78554 0.0
H569 H 0.94783 0.66635 0.76523 0.0
H570 H 0.95188 0.6432 0.78418 0.0
H571 H 0.93625 0.6657 0.7952 0.0
C572 C 0.92483 0.62742 0.84735 0.0
C573 C 0.91034 0.63907 0.86202 0.0
C574 C 0.92222 0.62684 0.82226 0.0
C575 C 0.9052 0.63808 0.81113 0.0
C576 C 0.89035 0.64932 0.8257 0.0
H577 H 0.87474 0.64822 0.65572 0.0
H578 H 0.87345 0.65262 0.69969 0.0
C579 C 0.89289 0.64983 0.85092 0.0
C580 C 0.90303 0.63785 0.7843 0.0
H581 H 0.93123 0.6476 0.73223 0.0
C582 C 0.88416 0.62927 0.77385 0.0
C583 C 0.91994 0.64512 0.76903 0.0
C584 C 0.94002 0.65582 0.77896 0.0
C585 C 0.88219 0.62685 0.74861 0.0
C586 C 0.8995 0.6333 0.73348 0.0
C587 C 0.91806 0.64247 0.74389 0.0
C588 C 0.8992 0.62986 0.70687 0.0
C589 C 0.862 0.61669 0.73831 0.0
C590 C 0.91411 0.61565 0.69628 0.0
C591 C 0.91484 0.61299 0.67118 0.0
C592 C 0.9008 0.62467 0.65597 0.0
C593 C 0.88565 0.63875 0.66672 0.0
C594 C 0.88489 0.64132 0.69192 0.0
H595 H 0.85169 0.60936 0.75259 0.0
H596 H 0.85237 0.62922 0.72884 0.0
H597 H 0.86628 0.60404 0.72488 0.0
H598 H 0.92528 0.60662 0.70749 0.0
H599 H 0.92645 0.60172 0.66377 0.0
H600 H 0.38477 0.35545 0.11477 0.0
H601 H 0.38509 0.35061 0.07086 0.0
H602 H 0.4236 0.4083 0.06311 0.0
H603 H 0.42285 0.41358 0.10699 0.0
H604 H 0.38919 0.40558 0.02988 0.0
H605 H 0.4375 0.32986 0.03172 0.0
H606 H 0.41321 0.32952 0.04958 0.0
H607 H 0.43499 0.34732 0.05775 0.0
C608 C 0.39308 0.36727 0.10374 0.0
C609 C 0.40382 0.38493 0.11443 0.0
C610 C 0.39345 0.36433 0.07864 0.0
C611 C 0.40461 0.37893 0.06374 0.0
C612 C 0.41498 0.39677 0.07429 0.0
H613 H 0.45021 0.36645 0.917 0.0
H614 H 0.44566 0.37033 0.96066 0.0
C615 C 0.41466 0.3997 0.09938 0.0
C616 C 0.40565 0.37565 0.03715 0.0
H617 H 0.42481 0.34151 0.99352 0.0
C618 C 0.39691 0.39155 0.02191 0.0
C619 C 0.41589 0.3574 0.0268 0.0
C620 C 0.42612 0.34011 0.04225 0.0
C621 C 0.39814 0.3897 0.9966 0.0
C622 C 0.40824 0.37138 0.98628 0.0
C623 C 0.41697 0.35548 1.0015 0.0
C624 C 0.41071 0.36883 0.95972 0.0
C625 C 0.3891 0.4076 0.98109 0.0
C626 C 0.39256 0.36646 0.9447 0.0
C627 C 0.3951 0.36407 0.91966 0.0
C628 C 0.41588 0.36394 0.90915 0.0
C629 C 0.434 0.36619 0.92439 0.0
C630 C 0.43144 0.36851 0.94938 0.0
H631 H 0.38594 0.4225 0.99174 0.0
H632 H 0.4004 0.41157 0.96611 0.0
H633 H 0.37358 0.40222 0.97298 0.0
H634 H 0.37642 0.36626 0.95236 0.0
H635 H 0.38077 0.362 0.90869 0.0
H636 H 0.63821 0.86854 0.35862 0.0
H637 H 0.64161 0.86864 0.31454 0.0
H638 H 0.592 0.91734 0.30975 0.0
H639 H 0.58807 0.91706 0.35364 0.0
H640 H 0.60829 0.86109 0.27814 0.0
H641 H 0.64466 0.94295 0.27208 0.0
H642 H 0.6441 0.9276 0.29986 0.0
H643 H 0.62023 0.94142 0.28966 0.0
C644 C 0.62783 0.87914 0.34829 0.0
C645 C 0.61295 0.89292 0.35993 0.0
C646 C 0.6299 0.87924 0.32304 0.0
C647 C 0.6173 0.89324 0.30892 0.0
C648 C 0.6022 0.90671 0.32035 0.0
H649 H 0.58493 0.89719 0.15766 0.0
H650 H 0.58599 0.89369 0.2017 0.0
C651 C 0.60002 0.90655 0.34553 0.0
C652 C 0.61972 0.89374 0.28219 0.0
H653 H 0.63312 0.92695 0.23514 0.0
C654 C 0.61386 0.87542 0.26873 0.0
C655 C 0.62725 0.91236 0.26997 0.0
C656 C 0.63462 0.93217 0.28358 0.0
C657 C 0.6146 0.87551 0.2433 0.0
C658 C 0.62127 0.89445 0.23107 0.0
C659 C 0.62785 0.9125 0.24455 0.0
C660 C 0.62083 0.89611 0.20428 0.0
C661 C 0.60821 0.85538 0.22967 0.0
C662 C 0.64006 0.89896 0.19112 0.0
C663 C 0.63951 0.90101 0.16588 0.0
C664 C 0.61967 0.90059 0.15338 0.0
C665 C 0.60045 0.89785 0.1667 0.0
C666 C 0.60104 0.89561 0.19187 0.0
H667 H 0.60847 0.84086 0.24147 0.0
H668 H 0.59154 0.85736 0.22256 0.0
H669 H 0.61919 0.85262 0.21405 0.0
H670 H 0.6555 0.89955 0.20038 0.0
H671 H 0.65456 0.90328 0.15619 0.0
H672 H 0.14384 0.37573 0.65921 0.0
H673 H 0.14408 0.37352 0.70337 0.0
H674 H 0.09437 0.42222 0.707 0.0
H675 H 0.09421 0.42485 0.66297 0.0
H676 H 0.15195 0.40707 0.73782 0.0
H677 H 0.06973 0.37205 0.74783 0.0
H678 H 0.08419 0.37202 0.71942 0.0
H679 H 0.07082 0.39611 0.72972 0.0
C680 C 0.13305 0.38611 0.66932 0.0
C681 C 0.1189 0.40041 0.65735 0.0
C682 C 0.13315 0.38473 0.6946 0.0
C683 C 0.119 0.39744 0.70844 0.0
C684 C 0.10508 0.4119 0.69665 0.0
H685 H 0.09077 0.41931 0.85921 0.0
H686 H 0.09232 0.41849 0.81511 0.0
C687 C 0.10501 0.41335 0.67141 0.0
C688 C 0.11903 0.39596 0.73526 0.0
H689 H 0.08682 0.38435 0.78378 0.0
C690 C 0.13779 0.40193 0.74791 0.0
C691 C 0.10052 0.38926 0.74833 0.0
C692 C 0.08022 0.3818 0.73568 0.0
C693 C 0.13832 0.40208 0.77334 0.0
C694 C 0.11971 0.39563 0.78645 0.0
C695 C 0.10106 0.38933 0.77374 0.0
C696 C 0.11898 0.39591 0.81333 0.0
C697 C 0.15856 0.40984 0.78593 0.0
C698 C 0.13327 0.38327 0.82707 0.0
C699 C 0.13257 0.38385 0.85239 0.0
C700 C 0.11744 0.397 0.86451 0.0
C701 C 0.10289 0.40931 0.8506 0.0
C702 C 0.10364 0.40874 0.82533 0.0
H703 H 0.16916 0.41925 0.77358 0.0
H704 H 0.15449 0.42007 0.80181 0.0
H705 H 0.16788 0.39568 0.79244 0.0
H706 H 0.14497 0.3729 0.81823 0.0
H707 H 0.14413 0.37424 0.86238 0.0
H708 H 0.64271 0.63657 0.90831 0.0
H709 H 0.64315 0.63678 0.95253 0.0
H710 H 0.59002 0.59166 0.95363 0.0
H711 H 0.5892 0.59155 0.90947 0.0
H712 H 0.60933 0.64762 0.98549 0.0
H713 H 0.63622 0.56266 0.99656 0.0
H714 H 0.6385 0.577 0.96823 0.0
H715 H 0.61289 0.56599 0.97753 0.0
C716 C 0.63097 0.62682 0.91786 0.0
C717 C 0.61597 0.61394 0.90517 0.0
C718 C 0.63133 0.62688 0.94319 0.0
C719 C 0.61685 0.61398 0.95636 0.0
C720 C 0.60166 0.60138 0.94382 0.0
H721 H 0.58909 0.58811 0.10672 0.0
H722 H 0.59053 0.58965 0.06265 0.0
C723 C 0.60124 0.60133 0.91853 0.0
C724 C 0.61739 0.61387 0.98323 0.0
H725 H 0.62465 0.58088 0.03208 0.0
C726 C 0.61282 0.63308 0.99571 0.0
C727 C 0.62195 0.59487 0.9965 0.0
C728 C 0.62786 0.57398 0.98408 0.0
C729 C 0.61206 0.63367 0.02113 0.0
C730 C 0.61642 0.61461 0.03442 0.0
C731 C 0.62125 0.59546 0.0219 0.0
C732 C 0.61561 0.61402 0.06129 0.0
C733 C 0.60593 0.65453 0.0335 0.0
C734 C 0.6294 0.62703 0.07527 0.0
C735 C 0.62847 0.62635 0.10057 0.0
C736 C 0.61383 0.61249 0.11247 0.0
C737 C 0.60029 0.59925 0.09832 0.0
C738 C 0.6012 0.59999 0.07306 0.0
H739 H 0.59777 0.66588 0.02089 0.0
H740 H 0.59504 0.65148 0.04911 0.0
H741 H 0.62079 0.66253 0.04035 0.0
H742 H 0.64096 0.63766 0.06662 0.0
H743 H 0.63908 0.63688 0.11072 0.0
H744 H 0.41558 0.07616 0.35672 0.0
H745 H 0.41132 0.07402 0.3127 0.0
H746 H 0.35072 0.10825 0.31803 0.0
H747 H 0.355 0.11061 0.36193 0.0
H748 H 0.37939 0.05581 0.2841 0.0
H749 H 0.38388 0.1442 0.26902 0.0
H750 H 0.39128 0.13189 0.29741 0.0
H751 H 0.36328 0.13672 0.2903 0.0
C752 C 0.40135 0.08321 0.34848 0.0
C753 C 0.38579 0.09381 0.36277 0.0
C754 C 0.39894 0.08197 0.32334 0.0
C755 C 0.3809 0.0913 0.31201 0.0
C756 C 0.36506 0.10144 0.3263 0.0
H757 H 0.32923 0.10718 0.17027 0.0
H758 H 0.33477 0.09859 0.21304 0.0
C759 C 0.36755 0.10282 0.3514 0.0
C760 C 0.37867 0.0906 0.28524 0.0
H761 H 0.37202 0.12285 0.23572 0.0
C762 C 0.37796 0.07046 0.27347 0.0
C763 C 0.37705 0.10973 0.27136 0.0
C764 C 0.37913 0.13186 0.28261 0.0
C765 C 0.37486 0.06899 0.24828 0.0
C766 C 0.37245 0.08811 0.23465 0.0
C767 C 0.37369 0.1082 0.24632 0.0
C768 C 0.36784 0.08797 0.20835 0.0
C769 C 0.37355 0.04712 0.23639 0.0
C770 C 0.38431 0.08391 0.19138 0.0
C771 C 0.38104 0.08867 0.16682 0.0
C772 C 0.36135 0.09763 0.15911 0.0
C773 C 0.34443 0.10003 0.17585 0.0
C774 C 0.34763 0.09525 0.20024 0.0
H775 H 0.37399 0.03374 0.24977 0.0
H776 H 0.35841 0.04586 0.22565 0.0
H777 H 0.38734 0.04516 0.22371 0.0
H778 H 0.40011 0.07855 0.19736 0.0
H779 H 0.39442 0.08716 0.15427 0.0
H780 H 0.92832 0.91217 0.41272 0.0
H781 H 0.92364 0.91151 0.45652 0.0
H782 H 0.87074 0.86666 0.44895 0.0
H783 H 0.87489 0.86755 0.40495 0.0
H784 H 0.88332 0.92267 0.48175 0.0
H785 H 0.9118 0.83915 0.50125 0.0
H786 H 0.91901 0.85323 0.47377 0.0
H787 H 0.89223 0.84252 0.47742 0.0
C788 C 0.9156 0.90221 0.42022 0.0
C789 C 0.90193 0.89002 0.40505 0.0
C790 C 0.91305 0.90176 0.44535 0.0
C791 C 0.89696 0.88894 0.45602 0.0
C792 C 0.88347 0.87645 0.44111 0.0
H793 H 0.86734 0.87197 0.61046 0.0
H794 H 0.86732 0.86873 0.56631 0.0
C795 C 0.88593 0.87696 0.41589 0.0
C796 C 0.89379 0.88955 0.48267 0.0
H797 H 0.90001 0.85999 0.53443 0.0
C798 C 0.8869 0.90896 0.49328 0.0
C799 C 0.89821 0.87155 0.49762 0.0
C800 C 0.90585 0.85041 0.48709 0.0
C801 C 0.88452 0.91096 0.51846 0.0
C802 C 0.88978 0.89324 0.53357 0.0
C803 C 0.8961 0.87361 0.52289 0.0
C804 C 0.88968 0.89512 0.56044 0.0
C805 C 0.87615 0.93201 0.52857 0.0
C806 C 0.9025 0.91079 0.57194 0.0
C807 C 0.90237 0.91285 0.59713 0.0
C808 C 0.88959 0.89912 0.61154 0.0
C809 C 0.87704 0.88314 0.6 0.0
C810 C 0.87715 0.88113 0.57473 0.0
H811 H 0.86641 0.94095 0.51496 0.0
H812 H 0.866 0.92932 0.54488 0.0
H813 H 0.89005 0.94239 0.53369 0.0
H814 H 0.91273 0.92145 0.56141 0.0
H815 H 0.91217 0.92537 0.60527 0.0
H816 H 0.30603 0.16476 0.09462 0.0
H817 H 0.27659 0.17564 0.12189 0.0
H818 H 0.24788 0.11245 0.11483 0.0
H819 H 0.2767 0.10174 0.08725 0.0
H820 H 0.21726 0.14308 0.11444 0.0
H821 H 0.27269 0.15717 0.1919 0.0
H822 H 0.27841 0.17334 0.16571 0.0
H823 H 0.28151 0.14449 0.16423 0.0
C824 C 0.29325 0.15331 0.09858 0.0
C825 C 0.29384 0.13233 0.08877 0.0
C826 C 0.27654 0.15947 0.11443 0.0
C827 C 0.26018 0.14472 0.12093 0.0
C828 C 0.2603 0.12413 0.11029 0.0
H829 H 0.17976 0.13865 0.24835 0.0
H830 H 0.20742 0.13572 0.21699 0.0
C831 C 0.27688 0.11801 0.09446 0.0
C832 C 0.24317 0.15022 0.13919 0.0
H833 H 0.23561 0.16397 0.19857 0.0
C834 C 0.22128 0.14779 0.1328 0.0
C835 C 0.24835 0.15603 0.16331 0.0
C836 C 0.27149 0.15773 0.17185 0.0
C837 C 0.20453 0.1507 0.14979 0.0
C838 C 0.20968 0.15679 0.17383 0.0
C839 C 0.23157 0.15949 0.18015 0.0
C840 C 0.19279 0.1592 0.19307 0.0
C841 C 0.18153 0.14631 0.142 0.0
C842 C 0.17533 0.17359 0.1904 0.0
C843 C 0.15932 0.17522 0.20836 0.0
C844 C 0.16059 0.16276 0.22961 0.0
C845 C 0.17833 0.1487 0.23242 0.0
C846 C 0.19418 0.14695 0.21441 0.0
H847 H 0.18088 0.13633 0.1253 0.0
H848 H 0.17235 0.13786 0.15645 0.0
H849 H 0.17333 0.16187 0.13814 0.0
H850 H 0.1741 0.18367 0.17445 0.0
H851 H 0.14609 0.18642 0.20574 0.0
H852 H 0.83318 0.67379 0.46587 0.0
H853 H 0.83901 0.70204 0.43569 0.0
H854 H 0.90697 0.70318 0.453 0.0
H855 H 0.9015 0.6747 0.48282 0.0
H856 H 0.88733 0.74477 0.45154 0.0
H857 H 0.86904 0.69702 0.36893 0.0
H858 H 0.84877 0.69601 0.39224 0.0
H859 H 0.87501 0.68454 0.39769 0.0
C860 C 0.84946 0.67972 0.4631 0.0
C861 C 0.86682 0.67176 0.47705 0.0
C862 C 0.85275 0.69598 0.44578 0.0
C863 C 0.87346 0.7047 0.44191 0.0
C864 C 0.89082 0.69678 0.45566 0.0
H865 H 0.92106 0.78596 0.32483 0.0
H866 H 0.91361 0.75701 0.35382 0.0
C867 C 0.8876 0.68046 0.47287 0.0
C868 C 0.87704 0.72243 0.42401 0.0
H869 H 0.87476 0.73454 0.36366 0.0
C870 C 0.88455 0.74254 0.43233 0.0
C871 C 0.87362 0.7195 0.3989 0.0
C872 C 0.86634 0.69807 0.38876 0.0
C873 C 0.88854 0.75978 0.41631 0.0
C874 C 0.8848 0.75696 0.39122 0.0
C875 C 0.87748 0.73679 0.38287 0.0
C876 C 0.88889 0.77459 0.37331 0.0
C877 C 0.89718 0.78076 0.42633 0.0
C878 C 0.87725 0.79407 0.37429 0.0
C879 C 0.88143 0.81068 0.35766 0.0
C880 C 0.89737 0.80822 0.33962 0.0
C881 C 0.90874 0.78853 0.33847 0.0
C882 C 0.90448 0.7719 0.35505 0.0
H883 H 0.90395 0.77872 0.44481 0.0
H884 H 0.90998 0.78749 0.4144 0.0
H885 H 0.88382 0.7927 0.42736 0.0
H886 H 0.86486 0.79642 0.3879 0.0
H887 H 0.87219 0.82549 0.35904 0.0
H888 H 0.31892 0.36754 0.7653 0.0
H889 H 0.28806 0.37536 0.73879 0.0
H890 H 0.32917 0.3684 0.67629 0.0
H891 H 0.35995 0.36086 0.7024 0.0
H892 H 0.28177 0.40794 0.70409 0.0
H893 H 0.27927 0.32722 0.66092 0.0
H894 H 0.29433 0.33249 0.68828 0.0
H895 H 0.30544 0.33974 0.65931 0.0
C896 C 0.32146 0.36776 0.74594 0.0
C897 C 0.34203 0.36323 0.73612 0.0
C898 C 0.30374 0.37217 0.73077 0.0
C899 C 0.30613 0.37203 0.70546 0.0
C900 C 0.32671 0.36803 0.69569 0.0
H901 H 0.22599 0.428 0.59271 0.0
H902 H 0.25338 0.4198 0.62328 0.0
C903 C 0.34437 0.36367 0.71076 0.0
C904 C 0.28734 0.37632 0.68913 0.0
H905 H 0.25881 0.35503 0.64172 0.0
C906 C 0.27665 0.3963 0.69057 0.0
C907 C 0.28037 0.36106 0.67167 0.0
C908 C 0.29029 0.33884 0.67005 0.0
C909 C 0.25973 0.40169 0.67456 0.0
C910 C 0.2535 0.38683 0.65632 0.0
C911 C 0.26371 0.36657 0.65544 0.0
C912 C 0.23659 0.39201 0.63786 0.0
C913 C 0.24857 0.4232 0.67747 0.0
C914 C 0.2182 0.37883 0.6353 0.0
C915 C 0.20253 0.38339 0.61765 0.0
C916 C 0.20494 0.40119 0.602 0.0
C917 C 0.22348 0.41423 0.60447 0.0
C918 C 0.23913 0.40966 0.62212 0.0
H919 H 0.25075 0.42982 0.696 0.0
H920 H 0.25566 0.43492 0.66451 0.0
H921 H 0.23098 0.42184 0.67367 0.0
H922 H 0.2159 0.36504 0.64707 0.0
H923 H 0.18854 0.37292 0.61629 0.0
H924 H 0.63933 0.81677 0.0086 0.0
H925 H 0.63357 0.78688 0.9804 0.0
H926 H 0.66166 0.82464 0.92288 0.0
H927 H 0.6677 0.8545 0.95108 0.0
H928 H 0.60967 0.78352 0.94057 0.0
H929 H 0.69524 0.76953 0.91545 0.0
H930 H 0.68756 0.78672 0.94038 0.0
H931 H 0.68677 0.79677 0.90983 0.0
C932 C 0.64425 0.81878 0.98995 0.0
C933 C 0.65408 0.83813 0.98223 0.0
C934 C 0.64101 0.80158 0.97381 0.0
C935 C 0.64751 0.80321 0.94949 0.0
C936 C 0.65705 0.82262 0.94164 0.0
H937 H 0.59915 0.72164 0.83223 0.0
H938 H 0.60632 0.75057 0.86121 0.0
C939 C 0.66044 0.83978 0.95782 0.0
C940 C 0.6437 0.78486 0.93229 0.0
H941 H 0.66871 0.75166 0.89135 0.0
C942 C 0.62263 0.77652 0.9299 0.0
C943 C 0.66059 0.77534 0.91856 0.0
C944 C 0.68384 0.78238 0.92133 0.0
C945 C 0.61793 0.75937 0.91396 0.0
C946 C 0.63464 0.75052 0.89943 0.0
C947 C 0.6558 0.75854 0.90218 0.0
C948 C 0.63054 0.7329 0.88139 0.0
C949 C 0.59513 0.75064 0.91327 0.0
C950 C 0.64226 0.71344 0.88235 0.0
C951 C 0.63838 0.69688 0.86552 0.0
C952 C 0.62268 0.69937 0.84726 0.0
C953 C 0.6112 0.71899 0.84614 0.0
C954 C 0.61519 0.73557 0.86286 0.0
H955 H 0.58622 0.75437 0.93023 0.0
H956 H 0.58624 0.75827 0.89808 0.0
H957 H 0.59504 0.73287 0.91052 0.0
H958 H 0.65429 0.71095 0.89633 0.0
H959 H 0.64761 0.68206 0.86695 0.0
H960 H 0.20509 0.37433 0.01062 0.0
H961 H 0.23465 0.37879 0.03964 0.0
H962 H 0.19359 0.35476 0.09665 0.0
H963 H 0.16401 0.35021 0.06779 0.0
H964 H 0.23801 0.40343 0.08002 0.0
H965 H 0.24659 0.31731 0.10525 0.0
H966 H 0.2308 0.32595 0.07957 0.0
H967 H 0.21963 0.32736 0.1096 0.0
C968 C 0.20227 0.37005 0.02933 0.0
C969 C 0.18208 0.36178 0.03672 0.0
C970 C 0.21927 0.37254 0.04593 0.0
C971 C 0.21658 0.36676 0.07034 0.0
C972 C 0.19635 0.35879 0.07785 0.0
H973 H 0.29728 0.40937 0.19106 0.0
H974 H 0.26868 0.4041 0.16107 0.0
C975 C 0.17938 0.35622 0.06125 0.0
C976 C 0.23471 0.36956 0.08801 0.0
H977 H 0.26543 0.34272 0.12984 0.0
C978 C 0.24404 0.39012 0.09084 0.0
C979 C 0.24291 0.35217 0.10194 0.0
C980 C 0.23464 0.32941 0.09881 0.0
C981 C 0.26093 0.39385 0.10744 0.0
C982 C 0.26851 0.37666 0.12209 0.0
C983 C 0.2595 0.356 0.1189 0.0
C984 C 0.28588 0.3797 0.14064 0.0
C985 C 0.27076 0.41614 0.10878 0.0
C986 C 0.30491 0.36728 0.13978 0.0
C987 C 0.32126 0.3701 0.15711 0.0
C988 C 0.31897 0.38539 0.17582 0.0
C989 C 0.29975 0.39757 0.17686 0.0
C990 C 0.28338 0.39468 0.15956 0.0
H991 H 0.26772 0.4255 0.09198 0.0
H992 H 0.26335 0.4251 0.12407 0.0
H993 H 0.2885 0.4153 0.11185 0.0
H994 H 0.30723 0.35551 0.1255 0.0
H995 H 0.33573 0.36031 0.15575 0.0
H996 H 0.645 0.82061 0.40854 0.0
H997 H 0.65313 0.79118 0.38019 0.0
H998 H 0.59222 0.76097 0.39742 0.0
H999 H 0.58402 0.79012 0.42595 0.0
H1000 H 0.65276 0.74269 0.39222 0.0
H1001 H 0.59496 0.7679 0.32045 0.0
H1002 H 0.60559 0.78662 0.34255 0.0
H1003 H 0.58509 0.76758 0.35111 0.0
C1004 C 0.63331 0.80771 0.40634 0.0
C1005 C 0.61383 0.80778 0.41961 0.0
C1006 C 0.63801 0.79088 0.39012 0.0
C1007 C 0.62323 0.77394 0.38655 0.0
C1008 C 0.6038 0.77395 0.39974 0.0
H1009 H 0.6158 0.66316 0.28946 0.0
H1010 H 0.60886 0.69215 0.31858 0.0
C1011 C 0.59918 0.79063 0.41612 0.0
C1012 C 0.62813 0.75611 0.36925 0.0
H1013 H 0.61302 0.73473 0.31476 0.0
C1014 C 0.64416 0.74097 0.37523 0.0
C1015 C 0.61679 0.75379 0.34719 0.0
C1016 C 0.59971 0.76986 0.33971 0.0
C1017 C 0.64885 0.72332 0.35997 0.0
C1018 C 0.63764 0.72106 0.3377 0.0
C1019 C 0.62165 0.73634 0.33175 0.0
C1020 C 0.64213 0.703 0.32035 0.0
C1021 C 0.66529 0.70692 0.36831 0.0
C1022 C 0.66312 0.69936 0.31136 0.0
C1023 C 0.66715 0.68263 0.29482 0.0
C1024 C 0.65022 0.66932 0.28649 0.0
C1025 C 0.62919 0.67312 0.29534 0.0
C1026 C 0.62522 0.68972 0.31206 0.0
H1027 H 0.66724 0.70719 0.38829 0.0
H1028 H 0.66064 0.69033 0.36272 0.0
H1029 H 0.68124 0.71079 0.36016 0.0
H1030 H 0.67639 0.7097 0.31678 0.0
H1031 H 0.68344 0.68053 0.28805 0.0
H1032 H 0.20886 0.08777 0.68775 0.0
H1033 H 0.23701 0.09303 0.65719 0.0
H1034 H 0.20002 0.1448 0.62551 0.0
H1035 H 0.17166 0.13955 0.65589 0.0
H1036 H 0.21648 0.11658 0.59101 0.0
H1037 H 0.28125 0.14193 0.65435 0.0
H1038 H 0.26907 0.11648 0.66193 0.0
H1039 H 0.25313 0.14076 0.6631 0.0
C1040 C 0.20669 0.10034 0.67436 0.0
C1041 C 0.18794 0.11327 0.67445 0.0
C1042 C 0.22291 0.10341 0.65693 0.0
C1043 C 0.22087 0.11954 0.63919 0.0
C1044 C 0.20207 0.13231 0.63903 0.0
H1045 H 0.32453 0.16839 0.54677 0.0
H1046 H 0.29545 0.16377 0.57627 0.0
C1047 C 0.18584 0.12929 0.65649 0.0
C1048 C 0.23818 0.12289 0.62063 0.0
H1049 H 0.29193 0.13484 0.61383 0.0
C1050 C 0.23296 0.12062 0.59601 0.0
C1051 C 0.25968 0.12846 0.62704 0.0
C1052 C 0.26614 0.13227 0.65302 0.0
C1053 C 0.24866 0.12335 0.57774 0.0
C1054 C 0.27032 0.12823 0.58421 0.0
C1055 C 0.27543 0.13089 0.60881 0.0
C1056 C 0.28785 0.13098 0.56578 0.0
C1057 C 0.2418 0.12139 0.55165 0.0
C1058 C 0.29351 0.11405 0.55004 0.0
C1059 C 0.31028 0.11661 0.53313 0.0
C1060 C 0.32194 0.13614 0.53161 0.0
C1061 C 0.3162 0.15304 0.54747 0.0
C1062 C 0.29945 0.15045 0.56435 0.0
H1063 H 0.22403 0.12338 0.54953 0.0
H1064 H 0.2501 0.1336 0.54023 0.0
H1065 H 0.24621 0.10511 0.54483 0.0
H1066 H 0.28519 0.09868 0.55109 0.0
H1067 H 0.31436 0.10307 0.52163 0.0
H1068 H 0.90379 0.72998 0.93902 0.0
H1069 H 0.8947 0.75825 0.90995 0.0
H1070 H 0.84893 0.71554 0.87555 0.0
H1071 H 0.85761 0.68727 0.90503 0.0
H1072 H 0.9004 0.75799 0.86212 0.0
H1073 H 0.81315 0.76978 0.88138 0.0
H1074 H 0.8307 0.75472 0.90126 0.0
H1075 H 0.82008 0.74234 0.87431 0.0
C1076 C 0.89154 0.72667 0.92551 0.0
C1077 C 0.88133 0.70637 0.92451 0.0
C1078 C 0.88639 0.74287 0.90881 0.0
C1079 C 0.87093 0.73923 0.89062 0.0
C1080 C 0.86052 0.71902 0.88971 0.0
H1081 H 0.86472 0.81685 0.75823 0.0
H1082 H 0.86998 0.7881 0.78796 0.0
C1083 C 0.86555 0.70282 0.90657 0.0
C1084 C 0.86673 0.75622 0.87198 0.0
H1085 H 0.82706 0.78728 0.84638 0.0
C1086 C 0.88435 0.7644 0.85874 0.0
C1087 C 0.84584 0.76483 0.86765 0.0
C1088 C 0.82638 0.75764 0.88204 0.0
C1089 C 0.8817 0.78077 0.84133 0.0
C1090 C 0.86073 0.78896 0.8365 0.0
C1091 C 0.84311 0.7809 0.84985 0.0
C1092 C 0.85686 0.80621 0.81809 0.0
C1093 C 0.90154 0.7895 0.82875 0.0
C1094 C 0.84705 0.8258 0.82479 0.0
C1095 C 0.84389 0.84227 0.80773 0.0
C1096 C 0.85045 0.83955 0.78351 0.0
C1097 C 0.85989 0.81973 0.77677 0.0
C1098 C 0.86292 0.80324 0.7938 0.0
H1099 H 0.91653 0.78605 0.83915 0.0
H1100 H 0.90314 0.7817 0.81077 0.0
H1101 H 0.90031 0.80723 0.82602 0.0
H1102 H 0.84216 0.82852 0.84336 0.0
H1103 H 0.8367 0.8573 0.81366 0.0
H1104 H 0.6935 0.68332 0.73185 0.0
H1105 H 0.72215 0.67628 0.7022 0.0
H1106 H 0.70691 0.60839 0.70381 0.0
H1107 H 0.67814 0.6153 0.73344 0.0
H1108 H 0.75935 0.64468 0.70813 0.0
H1109 H 0.70535 0.62767 0.62987 0.0
H1110 H 0.69649 0.64315 0.65577 0.0
H1111 H 0.69918 0.61438 0.65801 0.0
C1112 C 0.69608 0.66691 0.72577 0.0
C1113 C 0.68338 0.6499 0.73502 0.0
C1114 C 0.71258 0.66289 0.70891 0.0
C1115 C 0.7166 0.64183 0.70064 0.0
C1116 C 0.70401 0.6248 0.7098 0.0
H1117 H 0.80249 0.58761 0.59094 0.0
H1118 H 0.77425 0.59437 0.62101 0.0
C1119 C 0.68764 0.62876 0.72686 0.0
C1120 C 0.73407 0.6377 0.68257 0.0
H1121 H 0.74282 0.62331 0.62364 0.0
C1122 C 0.75577 0.64005 0.68963 0.0
C1123 C 0.7294 0.63151 0.6585 0.0
C1124 C 0.70637 0.62911 0.64987 0.0
C1125 C 0.77293 0.63607 0.6734 0.0
C1126 C 0.76828 0.63021 0.64911 0.0
C1127 C 0.7465 0.62784 0.64214 0.0
C1128 C 0.78568 0.62626 0.63073 0.0
C1129 C 0.79584 0.63754 0.68272 0.0
C1130 C 0.80147 0.64202 0.62571 0.0
C1131 C 0.81782 0.63811 0.60862 0.0
C1132 C 0.81858 0.61847 0.59578 0.0
C1133 C 0.80247 0.60292 0.60042 0.0
C1134 C 0.78625 0.60677 0.61767 0.0
H1135 H 0.79652 0.63546 0.70267 0.0
H1136 H 0.80638 0.62516 0.67421 0.0
H1137 H 0.8025 0.65374 0.67843 0.0
H1138 H 0.80113 0.65745 0.63492 0.0
H1139 H 0.82983 0.65054 0.60543 0.0
H1140 H 0.36787 0.14189 0.94898 0.0
H1141 H 0.37231 0.1716 0.92026 0.0
H1142 H 0.34067 0.21484 0.97016 0.0
H1143 H 0.33653 0.18525 0.99913 0.0
H1144 H 0.34431 0.19707 0.89684 0.0
H1145 H 0.39482 0.24837 0.95663 0.0
H1146 H 0.38846 0.22069 0.96388 0.0
H1147 H 0.36904 0.24176 0.96959 0.0
C1148 C 0.36172 0.15767 0.95382 0.0
C1149 C 0.35197 0.16115 0.97651 0.0
C1150 C 0.36435 0.17472 0.93737 0.0
C1151 C 0.35727 0.19568 0.94314 0.0
C1152 C 0.34691 0.19905 0.96549 0.0
H1153 H 0.3628 0.31793 0.8625 0.0
H1154 H 0.35268 0.28892 0.89058 0.0
C1155 C 0.34446 0.18205 0.98204 0.0
C1156 C 0.36064 0.21386 0.92568 0.0
H1157 H 0.38334 0.26407 0.91968 0.0
C1158 C 0.35288 0.21168 0.90188 0.0
C1159 C 0.37184 0.23304 0.93211 0.0
C1160 C 0.38171 0.23608 0.95686 0.0
C1161 C 0.35591 0.22805 0.8845 0.0
C1162 C 0.36711 0.24714 0.89095 0.0
C1163 C 0.37463 0.24949 0.91478 0.0
C1164 C 0.37207 0.26443 0.87299 0.0
C1165 C 0.34696 0.22489 0.85937 0.0
C1166 C 0.38629 0.26035 0.85369 0.0
C1167 C 0.39219 0.2769 0.83771 0.0
C1168 C 0.38393 0.29794 0.84055 0.0
C1169 C 0.36929 0.30189 0.85958 0.0
C1170 C 0.36357 0.28534 0.87574 0.0
H1171 H 0.33454 0.21191 0.85882 0.0
H1172 H 0.33968 0.24008 0.85248 0.0
H1173 H 0.36033 0.22027 0.84699 0.0
H1174 H 0.39331 0.24445 0.85137 0.0
H1175 H 0.40358 0.27329 0.82337 0.0
H1176 H 0.83404 0.89715 0.24211 0.0
H1177 H 0.80497 0.9043 0.21329 0.0
H1178 H 0.81186 0.84009 0.18421 0.0
H1179 H 0.84083 0.83267 0.2131 0.0
H1180 H 0.80887 0.87104 0.14834 0.0
H1181 H 0.74281 0.88205 0.21515 0.0
H1182 H 0.76588 0.89908 0.22035 0.0
H1183 H 0.76857 0.87026 0.22306 0.0
C1184 C 0.82928 0.88438 0.22986 0.0
C1185 C 0.83992 0.86423 0.23021 0.0
C1186 C 0.81256 0.88853 0.21331 0.0
C1187 C 0.80591 0.87265 0.19672 0.0
C1188 C 0.8166 0.85262 0.19682 0.0
H1189 H 0.68757 0.87283 0.10996 0.0
H1190 H 0.71648 0.86519 0.13896 0.0
C1191 C 0.83331 0.84843 0.21337 0.0
C1192 C 0.78816 0.87702 0.17894 0.0
H1193 H 0.73473 0.89113 0.17439 0.0
C1194 C 0.79266 0.8754 0.15407 0.0
C1195 C 0.76686 0.88244 0.18629 0.0
C1196 C 0.76061 0.88338 0.21266 0.0
C1197 C 0.77665 0.87938 0.13646 0.0
C1198 C 0.75553 0.88546 0.1438 0.0
C1199 C 0.75093 0.88671 0.16867 0.0
C1200 C 0.73793 0.89027 0.12599 0.0
C1201 C 0.78242 0.87664 0.11011 0.0
C1202 C 0.74011 0.9071 0.1091 0.0
C1203 C 0.72355 0.91155 0.09244 0.0
C1204 C 0.70432 0.89933 0.09231 0.0
C1205 C 0.70211 0.88259 0.10941 0.0
C1206 C 0.71866 0.87819 0.12609 0.0
H1207 H 0.79714 0.86656 0.10774 0.0
H1208 H 0.76889 0.86909 0.09993 0.0
H1209 H 0.7857 0.89273 0.10208 0.0
H1210 H 0.75459 0.91697 0.10891 0.0
H1211 H 0.72583 0.92464 0.07971 0.0
H1212 H 0.16372 0.19672 0.36013 0.0
H1213 H 0.1733 0.22551 0.38884 0.0
H1214 H 0.12339 0.26602 0.35875 0.0
H1215 H 0.11353 0.23737 0.33045 0.0
H1216 H 0.18589 0.26917 0.38488 0.0
H1217 H 0.10606 0.26181 0.42985 0.0
H1218 H 0.11586 0.24209 0.40845 0.0
H1219 H 0.10407 0.26696 0.39798 0.0
C1220 C 0.15506 0.21191 0.35935 0.0
C1221 C 0.13774 0.21467 0.3431 0.0
C1222 C 0.1605 0.22833 0.37583 0.0
C1223 C 0.14874 0.24778 0.37635 0.0
C1224 C 0.13236 0.251 0.35913 0.0
H1225 H 0.17668 0.36792 0.45386 0.0
H1226 H 0.17375 0.33919 0.4235 0.0
C1227 C 0.12683 0.23462 0.34283 0.0
C1228 C 0.15273 0.26432 0.39549 0.0
H1229 H 0.12761 0.29193 0.44113 0.0
C1230 C 0.17319 0.2741 0.39725 0.0
C1231 C 0.1363 0.2705 0.41198 0.0
C1232 C 0.11441 0.25966 0.4122 0.0
C1233 C 0.17747 0.29026 0.41462 0.0
C1234 C 0.16072 0.29711 0.4304 0.0
C1235 C 0.14043 0.28694 0.42893 0.0
C1236 C 0.1638 0.31448 0.44889 0.0
C1237 C 0.20002 0.29951 0.41618 0.0
C1238 C 0.15887 0.31041 0.47328 0.0
C1239 C 0.1603 0.32686 0.49059 0.0
C1240 C 0.16669 0.34788 0.484 0.0
C1241 C 0.17197 0.35189 0.45963 0.0
C1242 C 0.17037 0.33541 0.44225 0.0
H1243 H 0.21219 0.28841 0.40814 0.0
H1244 H 0.20062 0.31492 0.40596 0.0
H1245 H 0.20462 0.30285 0.43523 0.0
H1246 H 0.15376 0.29445 0.47896 0.0
H1247 H 0.15643 0.32307 0.5092 0.0
H1248 H 0.68137 0.82668 0.5373 0.0
H1249 H 0.7096 0.83536 0.56692 0.0
H1250 H 0.6897 0.90204 0.56641 0.0
H1251 H 0.66139 0.8935 0.53683 0.0
H1252 H 0.74424 0.87013 0.56008 0.0
H1253 H 0.691 0.88169 0.64028 0.0
H1254 H 0.68289 0.86562 0.61452 0.0
H1255 H 0.68302 0.89452 0.61244 0.0
C1256 C 0.6828 0.84315 0.54368 0.0
C1257 C 0.66902 0.85938 0.53469 0.0
C1258 C 0.69906 0.8481 0.56051 0.0
C1259 C 0.70169 0.86932 0.56899 0.0
C1260 C 0.68788 0.88553 0.56024 0.0
H1261 H 0.78561 0.92842 0.67748 0.0
H1262 H 0.7573 0.92025 0.64788 0.0
C1263 C 0.67177 0.88064 0.54322 0.0
C1264 C 0.71916 0.87458 0.5866 0.0
H1265 H 0.72815 0.88894 0.64545 0.0
C1266 C 0.74077 0.87419 0.57877 0.0
C1267 C 0.71458 0.88007 0.61089 0.0
C1268 C 0.69165 0.88043 0.62024 0.0
C1269 C 0.75792 0.87944 0.59451 0.0
C1270 C 0.75341 0.88456 0.61902 0.0
C1271 C 0.73172 0.88499 0.62676 0.0
C1272 C 0.77088 0.88953 0.63693 0.0
C1273 C 0.78062 0.88005 0.58443 0.0
C1274 C 0.78791 0.87492 0.64101 0.0
C1275 C 0.80427 0.87967 0.65776 0.0
C1276 C 0.80381 0.89899 0.67122 0.0
C1277 C 0.78652 0.9134 0.66747 0.0
C1278 C 0.77028 0.90873 0.65052 0.0
H1279 H 0.78058 0.8826 0.56453 0.0
H1280 H 0.79035 0.89306 0.59295 0.0
H1281 H 0.78867 0.86435 0.58801 0.0
H1282 H 0.7885 0.8597 0.63139 0.0
H1283 H 0.81721 0.86808 0.66028 0.0
H1284 H 0.0979 0.29125 0.94179 0.0
H1285 H 0.10361 0.26227 0.91242 0.0
H1286 H 0.15127 0.30114 0.87565 0.0
H1287 H 0.14606 0.33001 0.90533 0.0
H1288 H 0.0974 0.2614 0.86418 0.0
H1289 H 0.18387 0.24506 0.88354 0.0
H1290 H 0.16727 0.26159 0.90301 0.0
H1291 H 0.17858 0.27269 0.87571 0.0
C1292 C 0.10972 0.29364 0.92757 0.0
C1293 C 0.12156 0.31303 0.92607 0.0
C1294 C 0.11294 0.27701 0.91071 0.0
C1295 C 0.12811 0.27928 0.89192 0.0
C1296 C 0.13984 0.2987 0.89024 0.0
H1297 H 0.13028 0.19882 0.76138 0.0
H1298 H 0.12606 0.22816 0.79061 0.0
C1299 C 0.1367 0.31531 0.90718 0.0
C1300 C 0.13115 0.26153 0.87385 0.0
H1301 H 0.16894 0.2277 0.84899 0.0
C1302 C 0.11306 0.25402 0.86091 0.0
C1303 C 0.1515 0.25162 0.86971 0.0
C1304 C 0.17138 0.25797 0.88387 0.0
C1305 C 0.11475 0.23716 0.84389 0.0
C1306 C 0.13522 0.22771 0.8392 0.0
C1307 C 0.15328 0.23504 0.85233 0.0
C1308 C 0.13815 0.20993 0.82115 0.0
C1309 C 0.09445 0.2293 0.83154 0.0
C1310 C 0.147 0.19 0.82823 0.0
C1311 C 0.14955 0.17317 0.81146 0.0
C1312 C 0.14336 0.17584 0.78712 0.0
C1313 C 0.13482 0.19595 0.78 0.0
C1314 C 0.13236 0.2128 0.79677 0.0
H1315 H 0.07968 0.23379 0.84186 0.0
H1316 H 0.09328 0.23681 0.81337 0.0
H1317 H 0.09469 0.21148 0.82923 0.0
H1318 H 0.15167 0.18734 0.84688 0.0
H1319 H 0.15603 0.15793 0.81772 0.0
H1320 H 0.83475 0.67692 0.05209 0.0
H1321 H 0.80536 0.66824 0.07985 0.0
H1322 H 0.79638 0.60692 0.04437 0.0
H1323 H 0.82613 0.61539 0.01647 0.0
H1324 H 0.75693 0.62868 0.05511 0.0
H1325 H 0.81007 0.62489 0.13578 0.0
H1326 H 0.81247 0.64961 0.11901 0.0
H1327 H 0.82056 0.62453 0.10531 0.0
C1328 C 0.82675 0.66147 0.0502 0.0
C1329 C 0.8332 0.64675 0.03212 0.0
C1330 C 0.80984 0.65654 0.06616 0.0
C1331 C 0.79887 0.63674 0.0646 0.0
C1332 C 0.80467 0.62226 0.04608 0.0
H1333 H 0.7174 0.58407 0.17999 0.0
H1334 H 0.74534 0.59046 0.14943 0.0
C1335 C 0.82168 0.62717 0.03004 0.0
C1336 C 0.78154 0.63122 0.08249 0.0
H1337 H 0.77216 0.62494 0.14312 0.0
C1338 C 0.76027 0.62776 0.07434 0.0
C1339 C 0.78587 0.62973 0.10761 0.0
C1340 C 0.8085 0.63218 0.1175 0.0
C1341 C 0.74321 0.6234 0.09062 0.0
C1342 C 0.74742 0.62272 0.11583 0.0
C1343 C 0.7688 0.62566 0.12388 0.0
C1344 C 0.73002 0.61876 0.13417 0.0
C1345 C 0.72088 0.61926 0.0806 0.0
C1346 C 0.71211 0.63267 0.13615 0.0
C1347 C 0.69606 0.62907 0.15369 0.0
C1348 C 0.69756 0.6115 0.16981 0.0
C1349 C 0.71563 0.59774 0.16793 0.0
C1350 C 0.73166 0.60137 0.15041 0.0
H1351 H 0.72147 0.61445 0.06124 0.0
H1352 H 0.71247 0.6064 0.09098 0.0
H1353 H 0.71116 0.63427 0.08196 0.0
H1354 H 0.71065 0.64651 0.12429 0.0
H1355 H 0.6825 0.64012 0.15463 0.0
H1356 H 0.33414 0.32413 0.29954 0.0
H1357 H 0.33818 0.29429 0.32807 0.0
H1358 H 0.40315 0.28334 0.30247 0.0
H1359 H 0.39931 0.31325 0.27392 0.0
H1360 H 0.38015 0.24522 0.30794 0.0
H1361 H 0.37284 0.29536 0.39069 0.0
H1362 H 0.3505 0.29822 0.37018 0.0
H1363 H 0.37707 0.30693 0.36111 0.0
C1364 C 0.3494 0.31558 0.30007 0.0
C1365 C 0.36644 0.32138 0.2844 0.0
C1366 C 0.35168 0.29844 0.31646 0.0
C1367 C 0.37111 0.28671 0.3178 0.0
C1368 C 0.38801 0.29214 0.30189 0.0
H1369 H 0.41174 0.20325 0.43615 0.0
H1370 H 0.40727 0.23188 0.40615 0.0
C1371 C 0.38574 0.30927 0.28545 0.0
C1372 C 0.37378 0.26878 0.33568 0.0
H1373 H 0.37268 0.25736 0.39624 0.0
C1374 C 0.37854 0.24789 0.32725 0.0
C1375 C 0.37197 0.27223 0.36095 0.0
C1376 C 0.36802 0.29442 0.37135 0.0
C1377 C 0.38125 0.23039 0.34329 0.0
C1378 C 0.37883 0.23372 0.36852 0.0
C1379 C 0.37433 0.25468 0.37694 0.0
C1380 C 0.38151 0.21591 0.38657 0.0
C1381 C 0.38718 0.20858 0.33305 0.0
C1382 C 0.36839 0.19735 0.38586 0.0
C1383 C 0.37094 0.18083 0.40304 0.0
C1384 C 0.38659 0.18256 0.42148 0.0
C1385 C 0.39955 0.20127 0.42226 0.0
C1386 C 0.397 0.21772 0.40507 0.0
H1387 H 0.39407 0.20994 0.31454 0.0
H1388 H 0.39909 0.2002 0.34479 0.0
H1389 H 0.37242 0.19841 0.33193 0.0
H1390 H 0.35598 0.1957 0.37215 0.0
H1391 H 0.36058 0.16676 0.4019 0.0
H1392 H 0.05858 0.07152 0.33496 0.0
H1393 H 0.04017 0.03664 0.33243 0.0
H1394 H 0.05447 0.03335 0.25616 0.0
H1395 H 0.07303 0.06823 0.25857 0.0
H1396 H 1.00519 0.02424 0.30633 0.0
H1397 H 0.07623 0.97514 0.27901 0.0
H1398 H 0.07877 1.00247 0.29003 0.0
H1399 H 0.07083 0.99748 0.25922 0.0
C1400 C 0.05768 0.06349 0.31758 0.0
C1401 C 0.06736 0.07271 0.29698 0.0
C1402 C 0.04725 0.04345 0.3162 0.0
C1403 C 0.04627 0.03211 0.29421 0.0
C1404 C 0.05552 0.04146 0.27348 0.0
H1405 H 0.97844 0.91447 0.25165 0.0
H1406 H 1.00137 0.94683 0.2526 0.0
C1407 C 0.06606 0.06147 0.27487 0.0
C1408 C 0.03505 0.01081 0.293 0.0
H1409 H 0.04204 0.9575 0.27845 0.0
C1410 C 0.01331 0.00965 0.30033 0.0
C1411 C 0.0456 0.99172 0.28514 0.0
C1412 C 0.06919 0.99164 0.27811 0.0
C1413 C 1.0018 0.99008 0.29979 0.0
C1414 C 0.01234 0.97102 0.29197 0.0
C1415 C 0.03401 0.97213 0.28446 0.0
C1416 C 1.00094 0.94987 0.29157 0.0
C1417 C 0.9783 0.98999 0.30725 0.0
C1418 C 0.99385 0.94035 0.31319 0.0
C1419 C 0.98082 0.92187 0.31273 0.0
C1420 C 0.97459 0.91248 0.29058 0.0
C1421 C 0.98281 0.92135 0.26899 0.0
C1422 C 0.99593 0.93982 0.2695 0.0
H1423 H 0.97135 0.00654 0.30766 0.0
H1424 H 0.96852 0.9799 0.29472 0.0
H1425 H 0.97685 0.98299 0.32565 0.0
H1426 H 0.99774 0.9477 0.33044 0.0
H1427 H 0.97457 0.91573 0.3297 0.0
H1428 H 0.09653 0.47875 0.51131 0.0
H1429 H 0.06129 0.49684 0.51188 0.0
H1430 H 0.05787 0.48878 0.58919 0.0
H1431 H 0.09267 0.4701 0.58881 0.0
H1432 H 0.02205 0.47492 0.5321 0.0
H1433 H 0.0408 0.55374 0.57572 0.0
H1434 H 0.06113 0.53785 0.56035 0.0
H1435 H 0.0518 0.52993 0.58977 0.0
C1436 C 0.08845 0.48106 0.52851 0.0
C1437 C 0.09755 0.47289 0.55001 0.0
C1438 C 0.06831 0.49142 0.52878 0.0
C1439 C 0.05698 0.49414 0.55057 0.0
C1440 C 0.06645 0.48705 0.57221 0.0
H1441 H 0.93296 0.55161 0.58746 0.0
H1442 H 0.96731 0.53226 0.58852 0.0
C1443 C 0.08651 0.47653 0.57195 0.0
C1444 C 0.03459 0.50289 0.55048 0.0
H1445 H 1.00398 0.5458 0.56869 0.0
C1446 C 0.01806 0.49045 0.54001 0.0
C1447 C 0.02944 0.523 0.56108 0.0
C1448 C 0.04668 0.53706 0.57227 0.0
C1449 C 0.99641 0.49749 0.54008 0.0
C1450 C 0.99124 0.51783 0.55032 0.0
C1451 C 0.00785 0.53021 0.56087 0.0
C1452 C 0.96888 0.52691 0.54987 0.0
C1453 C 0.97927 0.48278 0.52974 0.0
C1454 C 0.95787 0.52985 0.52788 0.0
C1455 C 0.9379 0.54052 0.52726 0.0
C1456 C 0.92861 0.54886 0.54858 0.0
C1457 C 0.93928 0.5451 0.5707 0.0
C1458 C 0.95916 0.53427 0.57132 0.0
H1459 H 0.9845 0.46561 0.53014 0.0
H1460 H 0.96379 0.48425 0.53982 0.0
H1461 H 0.97631 0.4872 0.51058 0.0
H1462 H 0.96514 0.52473 0.511 0.0
H1463 H 0.93014 0.54297 0.50992 0.0
H1464 H 0.47386 0.43202 0.77009 0.0
H1465 H 0.49286 0.46668 0.76844 0.0
H1466 H 0.43739 0.49834 0.79975 0.0
H1467 H 0.41857 0.46369 0.80231 0.0
H1468 H 0.48235 0.50526 0.74526 0.0
H1469 H 0.48614 0.5171 0.84483 0.0
H1470 H 0.47896 0.49156 0.8313 0.0
H1471 H 0.45942 0.51301 0.83292 0.0
C1472 C 0.46572 0.44631 0.77681 0.0
C1473 C 0.44469 0.44493 0.7865 0.0
C1474 C 0.47657 0.46616 0.77569 0.0
C1475 C 0.46672 0.48509 0.78435 0.0
C1476 C 0.44551 0.48392 0.79339 0.0
H1477 H 0.52254 0.61583 0.7992 0.0
H1478 H 0.49639 0.58596 0.79734 0.0
C1479 C 0.43465 0.46408 0.79453 0.0
C1480 C 0.47874 0.50597 0.78399 0.0
H1481 H 0.49996 0.54525 0.82054 0.0
C1482 C 0.48612 0.51403 0.76172 0.0
C1483 C 0.48359 0.51753 0.80546 0.0
C1484 C 0.4768 0.50933 0.83003 0.0
C1485 C 0.49835 0.53316 0.76035 0.0
C1486 C 0.50367 0.54441 0.78186 0.0
C1487 C 0.4958 0.53669 0.80406 0.0
C1488 C 0.51893 0.56304 0.7819 0.0
C1489 C 0.50551 0.54116 0.73585 0.0
C1490 C 0.54029 0.56006 0.77407 0.0
C1491 C 0.55524 0.57694 0.77526 0.0
C1492 C 0.54928 0.5974 0.78431 0.0
C1493 C 0.52777 0.60039 0.7921 0.0
C1494 C 0.51277 0.58334 0.79099 0.0
H1495 H 0.49489 0.53491 0.72121 0.0
H1496 H 0.50555 0.55909 0.73511 0.0
H1497 H 0.5222 0.53539 0.73223 0.0
H1498 H 0.54563 0.54441 0.76765 0.0
H1499 H 0.57175 0.5736 0.76989 0.0
H1500 H 0.45989 0.09753 0.05345 0.0
H1501 H 0.49443 0.07839 0.05015 0.0
H1502 H 0.46039 0.01907 0.03527 0.0
H1503 H 0.42576 0.03817 0.03805 0.0
H1504 H 0.50929 0.04241 0.07742 0.0
H1505 H 0.50456 0.02347 0.97946 0.0
H1506 H 0.48763 0.0436 0.99363 0.0
H1507 H 0.48118 0.01541 0.99654 0.0
C1508 C 0.45972 0.08046 0.04917 0.0
C1509 C 0.43999 0.06944 0.04584 0.0
C1510 C 0.4795 0.06952 0.04746 0.0
C1511 C 0.48004 0.04736 0.04215 0.0
C1512 C 0.4604 0.03625 0.03901 0.0
H1513 H 0.57185 0.94515 0.02755 0.0
H1514 H 0.5411 0.96958 0.02836 0.0
C1515 C 0.44059 0.04715 0.04083 0.0
C1516 C 0.50109 0.03578 0.04032 0.0
H1517 H 0.53224 0.0058 1.00182 0.0
C1518 C 0.51444 0.03456 0.06084 0.0
C1519 C 0.50783 0.02565 0.01865 0.0
C1520 C 0.49468 0.02721 0.99573 0.0
C1521 C 0.53389 0.02271 0.06057 0.0
C1522 C 0.54041 0.01216 0.03901 0.0
C1523 C 0.52729 0.01388 0.01833 0.0
C1524 C 0.55979 0.99784 0.03797 0.0
C1525 C 0.5468 0.02081 0.08363 0.0
C1526 C 0.58077 0.00559 0.04279 0.0
C1527 C 0.59864 0.99154 0.0422 0.0
C1528 C 0.59587 0.96955 0.03647 0.0
C1529 C 0.57482 0.96205 0.03138 0.0
C1530 C 0.55709 0.97599 0.03203 0.0
H1531 H 0.53726 0.02583 0.09972 0.0
H1532 H 0.55245 1.00396 0.08638 0.0
H1533 H 0.56126 0.0314 0.08244 0.0
H1534 H 0.58334 0.02248 0.04699 0.0
H1535 H 0.61458 0.99789 0.04616 0.0
H1536 H 0.04231 0.41873 0.94596 0.0
H1537 H 0.0165 0.44836 0.95015 0.0
H1538 H 0.01986 0.44291 0.02777 0.0
H1539 H 0.04555 0.41298 0.02381 0.0
H1540 H 0.97572 0.45338 0.97411 0.0
H1541 H 0.04005 0.50544 0.01352 0.0
H1542 H 0.04594 0.48023 0.99849 0.0
H1543 H 0.03546 0.48023 0.0288 0.0
C1544 C 0.03713 0.42334 0.96396 0.0
C1545 C 0.04616 0.41346 0.98456 0.0
C1546 C 0.02246 0.44044 0.9663 0.0
C1547 C 0.01657 0.44813 0.98926 0.0
C1548 C 0.02452 0.43752 0.00987 0.0
H1549 H 0.91897 0.54928 0.01415 0.0
H1550 H 0.93959 0.51554 0.01589 0.0
C1551 C 0.03918 0.42038 1.00756 0.0
C1552 C 1.0032 0.46802 0.9915 0.0
H1553 H 1.00529 0.52074 0.00985 0.0
C1554 C 0.9821 0.46807 0.98208 0.0
C1555 C 0.01168 0.48728 1.00158 0.0
C1556 C 0.03458 0.48849 0.01102 0.0
C1557 C 0.96926 0.48685 0.98247 0.0
C1558 C 0.9777 0.50605 0.99274 0.0
C1559 C 0.99878 0.50597 1.0022 0.0
C1560 C 0.96539 0.52671 0.99258 0.0
C1561 C 0.94704 0.4862 0.97117 0.0
C1562 C 0.97333 0.54444 0.97949 0.0
C1563 C 0.96158 0.56372 0.9784 0.0
C1564 C 0.94164 0.56583 0.99054 0.0
C1565 C 0.93404 0.54819 1.00423 0.0
C1566 C 0.94581 0.52885 1.00525 0.0
H1567 H 0.94473 0.47163 0.95971 0.0
H1568 H 0.93464 0.48592 0.98569 0.0
H1569 H 0.94421 0.50079 0.95994 0.0
H1570 H 0.98842 0.54318 0.96959 0.0
H1571 H 0.96784 0.57675 0.96735 0.0
H1572 H 0.42954 0.456 0.19177 0.0
H1573 H 0.46313 0.47679 0.19162 0.0
H1574 H 0.46421 0.47593 0.26957 0.0
H1575 H 0.4303 0.45539 0.26997 0.0
H1576 H 0.47577 0.51693 0.21378 0.0
H1577 H 0.52204 0.44683 0.24941 0.0
H1578 H 0.49506 0.44421 0.2372 0.0
H1579 H 0.49899 0.45491 0.26708 0.0
C1580 C 0.43649 0.46076 0.20895 0.0
C1581 C 0.42714 0.45392 0.23091 0.0
C1582 C 0.45587 0.47248 0.2088 0.0
C1583 C 0.46643 0.4775 0.23055 0.0
C1584 C 0.45658 0.47181 0.25254 0.0
H1585 H 0.59101 0.53645 0.26357 0.0
H1586 H 0.55669 0.5167 0.26484 0.0
C1587 C 0.43714 0.46014 0.25273 0.0
C1588 C 0.48813 0.48792 0.2301 0.0
H1589 H 0.54142 0.47934 0.24379 0.0
C1590 C 0.49014 0.50872 0.22032 0.0
C1591 C 0.50686 0.47717 0.23862 0.0
C1592 C 0.50579 0.45448 0.24851 0.0
C1593 C 0.51031 0.51922 0.21916 0.0
C1594 C 0.52911 0.50839 0.22746 0.0
C1595 C 0.52706 0.48761 0.23735 0.0
C1596 C 0.55096 0.51852 0.22629 0.0
C1597 C 0.51118 0.54203 0.20957 0.0
C1598 C 0.55968 0.52528 0.20409 0.0
C1599 C 0.57924 0.53669 0.2033 0.0
C1600 C 0.59066 0.54142 0.22472 0.0
C1601 C 0.58255 0.53336 0.24676 0.0
C1602 C 0.56293 0.52202 0.24752 0.0
H1603 H 0.49507 0.54997 0.21031 0.0
H1604 H 0.5229 0.55198 0.21996 0.0
H1605 H 0.51646 0.54169 0.19038 0.0
H1606 H 0.55103 0.5223 0.18738 0.0
H1607 H 0.58475 0.54279 0.18601 0.0
H1608 H 0.53418 0.91086 0.51247 0.0
H1609 H 0.51337 0.9445 0.51434 0.0
H1610 H 0.51951 0.95179 0.43711 0.0
H1611 H 0.5406 0.91855 0.43507 0.0
H1612 H 0.53041 0.9851 0.49905 0.0
H1613 H 0.455 0.96443 0.44966 0.0
H1614 H 0.47281 0.94413 0.46204 0.0
H1615 H 0.47951 0.95734 0.43408 0.0
C1616 C 0.53079 0.91942 0.49581 0.0
C1617 C 0.53908 0.9119 0.47361 0.0
C1618 C 0.5189 0.93865 0.49693 0.0
C1619 C 0.51482 0.95061 0.47586 0.0
C1620 C 0.52215 0.94265 0.45355 0.0
H1621 H 0.45618 0.07322 0.44031 0.0
H1622 H 0.47673 0.03965 0.44044 0.0
C1623 C 0.53411 0.92349 0.45241 0.0
C1624 C 0.50448 0.97224 0.47737 0.0
H1625 H 0.46128 1.00164 0.45747 0.0
C1626 C 0.5152 0.9887 0.49014 0.0
C1627 C 0.48475 0.97694 0.46557 0.0
C1628 C 0.4722 0.95976 0.45222 0.0
C1629 C 0.50698 0.00988 0.49094 0.0
C1630 C 0.48726 0.01461 0.47906 0.0
C1631 C 0.47646 0.99806 0.46648 0.0
C1632 C 0.47737 0.03654 0.47941 0.0
C1633 C 0.51984 0.02709 0.50386 0.0
C1634 C 0.47138 0.04638 0.50131 0.0
C1635 C 0.45991 0.0659 0.50133 0.0
C1636 C 0.45397 0.07588 0.47943 0.0
C1637 C 0.46081 0.06637 0.45756 0.0
C1638 C 0.47235 0.04695 0.45758 0.0
H1639 H 0.53712 0.02244 0.50582 0.0
H1640 H 0.51899 0.04274 0.4941 0.0
H1641 H 0.51307 0.02944 0.52227 0.0
H1642 H 0.47474 0.03852 0.5184 0.0
H1643 H 0.45498 0.07275 0.5185 0.0
H1644 H 0.07724 0.04491 0.77067 0.0
H1645 H 0.04262 0.02558 0.77095 0.0
H1646 H 0.0414 0.0267 0.693 0.0
H1647 H 0.07564 0.04624 0.6925 0.0
H1648 H 1.00409 0.04263 0.751 0.0
H1649 H 0.02493 0.96405 0.70873 0.0
H1650 H 0.04513 0.98188 0.72136 0.0
H1651 H 0.03397 0.98718 0.69193 0.0
C1652 C 0.06979 0.04071 0.75357 0.0
C1653 C 0.07935 0.04711 0.73157 0.0
C1654 C 0.05 0.02967 0.75377 0.0
C1655 C 0.03946 0.02459 0.732 0.0
C1656 C 0.0494 0.03007 0.71001 0.0
H1657 H 0.91665 0.96893 0.68966 0.0
H1658 H 0.95102 0.9883 0.6912 0.0
C1659 C 0.06913 0.04116 0.70978 0.0
C1660 C 0.01732 0.01518 0.7322 0.0
H1661 H 0.98748 0.97225 0.71236 0.0
C1662 C 1.00046 0.02715 0.74274 0.0
C1663 C 0.01259 0.99508 0.72124 0.0
C1664 C 0.03012 0.98118 0.71035 0.0
C1665 C 0.97892 0.01981 0.74213 0.0
C1666 C 0.97416 0.99974 0.73108 0.0
C1667 C 0.99108 0.9877 0.72071 0.0
C1668 C 0.95184 0.9907 0.73023 0.0
C1669 C 0.9614 0.03393 0.7527 0.0
C1670 C 0.94048 0.98611 0.75163 0.0
C1671 C 0.92056 0.97531 0.7508 0.0
C1672 C 0.91169 0.96865 0.72855 0.0
C1673 C 0.92268 0.97415 0.7071 0.0
C1674 C 0.94254 0.985 0.70795 0.0
H1675 H 0.96664 0.05106 0.75402 0.0
H1676 H 0.9464 0.03315 0.74166 0.0
H1677 H 0.95751 0.02822 0.77122 0.0
H1678 H 0.94743 0.99001 0.76907 0.0
H1679 H 0.91255 0.97139 0.76766 0.0
H1680 H 0.31759 0.0612 0.43457 0.0
H1681 H 0.29032 0.05177 0.40429 0.0
H1682 H 0.29235 0.11689 0.37661 0.0
H1683 H 0.31975 0.12639 0.40649 0.0
H1684 H 0.25107 0.07081 0.4021 0.0
H1685 H 0.29252 0.08143 0.31455 0.0
H1686 H 0.30705 0.07814 0.3427 0.0
H1687 H 0.29697 0.10427 0.33388 0.0
C1688 C 0.31229 0.07348 0.42194 0.0
C1689 C 0.32062 0.09459 0.42302 0.0
C1690 C 0.29692 0.06798 0.40453 0.0
C1691 C 0.28981 0.08347 0.38786 0.0
C1692 C 0.29817 0.10452 0.38884 0.0
H1693 H 0.18989 0.1366 0.31932 0.0
H1694 H 0.22518 0.12103 0.32839 0.0
C1695 C 0.3135 0.11004 0.40623 0.0
C1696 C 0.27138 0.07883 0.37181 0.0
H1697 H 0.25337 0.08813 0.31452 0.0
C1698 C 0.25158 0.07386 0.38277 0.0
C1699 C 0.2723 0.08266 0.34664 0.0
C1700 C 0.29344 0.08669 0.33375 0.0
C1701 C 0.2322 0.07511 0.36982 0.0
C1702 C 0.23288 0.08092 0.34503 0.0
C1703 C 0.25293 0.08376 0.33351 0.0
C1704 C 0.21315 0.08837 0.3326 0.0
C1705 C 0.21116 0.07238 0.38345 0.0
C1706 C 0.19501 0.07491 0.33048 0.0
C1707 C 0.17471 0.08389 0.32595 0.0
C1708 C 0.17253 0.1063 0.32285 0.0
C1709 C 0.19111 0.1193 0.32194 0.0
C1710 C 0.2113 0.11039 0.32696 0.0
H1711 H 0.21366 0.07085 0.40328 0.0
H1712 H 0.20029 0.08636 0.38017 0.0
H1713 H 0.20283 0.05756 0.3771 0.0
H1714 H 0.19627 0.05778 0.33418 0.0
H1715 H 0.16062 0.07346 0.32613 0.0
H1716 H 0.93628 0.69063 0.55786 0.0
H1717 H 0.94314 0.72835 0.56856 0.0
H1718 H 0.87676 0.73519 0.59149 0.0
H1719 H 0.86966 0.69759 0.5808 0.0
H1720 H 0.89767 0.77299 0.5648 0.0
H1721 H 0.94302 0.73979 0.64396 0.0
H1722 H 0.95013 0.73135 0.61382 0.0
H1723 H 0.92486 0.72294 0.62672 0.0
C1724 C 0.92306 0.70026 0.56486 0.0
C1725 C 0.90253 0.69113 0.56897 0.0
C1726 C 0.927 0.72178 0.57076 0.0
C1727 C 0.91046 0.73432 0.58081 0.0
C1728 C 0.88964 0.72564 0.58357 0.0
H1729 H 0.86039 0.82901 0.66382 0.0
H1730 H 0.87167 0.80418 0.632 0.0
C1731 C 0.88568 0.70416 0.5777 0.0
C1732 C 0.91518 0.75524 0.592 0.0
H1733 H 0.93072 0.77527 0.64656 0.0
C1734 C 0.90546 0.77378 0.58237 0.0
C1735 C 0.92568 0.75612 0.61468 0.0
C1736 C 0.93653 0.73655 0.62557 0.0
C1737 C 0.9043 0.79283 0.59594 0.0
C1738 C 0.91249 0.79284 0.61981 0.0
C1739 C 0.92423 0.77505 0.62833 0.0
C1740 C 0.90602 0.8093 0.63758 0.0
C1741 C 0.89338 0.81235 0.58509 0.0
C1742 C 0.92161 0.81957 0.65194 0.0
C1743 C 0.91519 0.83329 0.67058 0.0
C1744 C 0.89309 0.83692 0.67507 0.0
C1745 C 0.87752 0.82647 0.66078 0.0
C1746 C 0.88396 0.81264 0.64229 0.0
H1747 H 0.89611 0.81301 0.56523 0.0
H1748 H 0.87566 0.81119 0.58812 0.0
H1749 H 0.89934 0.8276 0.59334 0.0
H1750 H 0.93871 0.81685 0.64881 0.0
H1751 H 0.92757 0.84129 0.68118 0.0
H1752 H 0.19378 0.43264 0.95283 0.0
H1753 H 0.22797 0.44113 0.93251 0.0
H1754 H 0.22499 0.38046 0.89429 0.0
H1755 H 0.19088 0.37174 0.91455 0.0
H1756 H 0.26696 0.41304 0.93329 0.0
H1757 H 0.2345 0.42906 0.84143 0.0
H1758 H 0.21812 0.43092 0.86847 0.0
H1759 H 0.22427 0.40499 0.85558 0.0
C1760 C 0.20041 0.42111 0.94008 0.0
C1761 C 0.18973 0.40152 0.93524 0.0
C1762 C 0.21986 0.42603 0.9285 0.0
C1763 C 0.22865 0.41156 0.91172 0.0
C1764 C 0.21814 0.39194 0.90696 0.0
H1765 H 0.3334 0.37522 0.82945 0.0
H1766 H 0.29875 0.38496 0.84722 0.0
C1767 C 0.19881 0.38691 0.91868 0.0
C1768 C 0.24942 0.41628 0.89989 0.0
H1769 H 0.27244 0.42157 0.84423 0.0
C1770 C 0.26828 0.41539 0.9139 0.0
C1771 C 0.25081 0.41947 0.87467 0.0
C1772 C 0.23085 0.42137 0.85912 0.0
C1773 C 0.28875 0.41586 0.903 0.0
C1774 C 0.29015 0.41776 0.87753 0.0
C1775 C 0.27124 0.42013 0.86375 0.0
C1776 C 0.31069 0.41391 0.86469 0.0
C1777 C 0.30856 0.41272 0.91859 0.0
C1778 C 0.3287 0.42735 0.86811 0.0
C1779 C 0.34869 0.42171 0.85812 0.0
C1780 C 0.35079 0.40264 0.84448 0.0
C1781 C 0.33238 0.38991 0.84004 0.0
C1782 C 0.31253 0.3955 0.85008 0.0
H1783 H 0.30433 0.4082 0.93746 0.0
H1784 H 0.31915 0.39995 0.91091 0.0
H1785 H 0.31797 0.42798 0.91918 0.0
H1786 H 0.32743 0.44183 0.87901 0.0
H1787 H 0.36256 0.43194 0.86162 0.0
H1788 H 0.64966 0.82615 0.09409 0.0
H1789 H 0.64153 0.79652 0.12178 0.0
H1790 H 0.5732 0.80944 0.11464 0.0
H1791 H 0.58112 0.8388 0.08645 0.0
H1792 H 0.61878 0.79882 0.1662 0.0
H1793 H 0.57838 0.74495 0.09901 0.0
H1794 H 0.59437 0.76794 0.08991 0.0
H1795 H 0.56776 0.77182 0.10222 0.0
C1796 C 0.6329 0.82253 0.09821 0.0
C1797 C 0.61601 0.8346 0.088 0.0
C1798 C 0.6283 0.80575 0.11412 0.0
C1799 C 0.60679 0.80087 0.12008 0.0
C1800 C 0.58987 0.81286 0.10994 0.0
H1801 H 0.57838 0.68196 0.199 0.0
H1802 H 0.57186 0.71893 0.18523 0.0
C1803 C 0.59445 0.82954 0.09383 0.0
C1804 C 0.60237 0.78295 0.13672 0.0
H1805 H 0.58463 0.73091 0.13764 0.0
C1806 C 0.61099 0.78407 0.16017 0.0
C1807 C 0.59193 0.76393 0.12875 0.0
C1808 C 0.58266 0.7619 0.10357 0.0
C1809 C 0.61069 0.76604 0.17538 0.0
C1810 C 0.60169 0.7466 0.16672 0.0
C1811 C 0.59153 0.74598 0.14407 0.0
C1812 C 0.60567 0.72593 0.17887 0.0
C1813 C 0.62083 0.76762 0.20013 0.0
C1814 C 0.62685 0.71788 0.17982 0.0
C1815 C 0.63063 0.69677 0.18732 0.0
C1816 C 0.61323 0.68348 0.19396 0.0
C1817 C 0.59209 0.69187 0.19391 0.0
C1818 C 0.58832 0.71296 0.18621 0.0
H1819 H 0.62075 0.78453 0.20689 0.0
H1820 H 0.61222 0.75718 0.21334 0.0
H1821 H 0.63792 0.76218 0.19907 0.0
H1822 H 0.64037 0.7276 0.17368 0.0
H1823 H 0.64708 0.69073 0.18733 0.0
H1824 H 0.69042 0.57776 0.81355 0.0
H1825 H 0.72363 0.56574 0.83364 0.0
H1826 H 0.72344 0.62342 0.87742 0.0
H1827 H 0.69035 0.63566 0.85742 0.0
H1828 H 0.76369 0.59142 0.8354 0.0
H1829 H 0.73072 0.57123 0.92586 0.0
H1830 H 0.71422 0.57192 0.89884 0.0
H1831 H 0.72134 0.59659 0.91404 0.0
C1832 C 0.69745 0.58786 0.8275 0.0
C1833 C 0.68789 0.60766 0.83394 0.0
C1834 C 0.7163 0.58091 0.83896 0.0
C1835 C 0.72558 0.59353 0.85722 0.0
C1836 C 0.71615 0.61333 0.86363 0.0
H1837 H 0.82751 0.62887 0.93946 0.0
H1838 H 0.7934 0.61728 0.92183 0.0
C1839 C 0.69744 0.62039 0.85204 0.0
C1840 C 0.74605 0.58703 0.86857 0.0
H1841 H 0.76882 0.57938 0.92395 0.0
C1842 C 0.76494 0.58817 0.85464 0.0
C1843 C 0.74732 0.58263 0.89356 0.0
C1844 C 0.72729 0.5803 0.90895 0.0
C1845 C 0.78535 0.58721 0.86556 0.0
C1846 C 0.78665 0.58456 0.89094 0.0
C1847 C 0.7677 0.58146 0.9045 0.0
C1848 C 0.80686 0.58914 0.90408 0.0
C1849 C 0.80521 0.59096 0.85018 0.0
C1850 C 0.82557 0.57676 0.90043 0.0
C1851 C 0.84526 0.58352 0.91028 0.0
C1852 C 0.84633 0.60261 0.92403 0.0
C1853 C 0.82726 0.6142 0.92878 0.0
C1854 C 0.80772 0.60752 0.91884 0.0
H1855 H 0.80106 0.59547 0.83129 0.0
H1856 H 0.81537 0.60398 0.85807 0.0
H1857 H 0.81505 0.57598 0.8496 0.0
H1858 H 0.82507 0.56232 0.88939 0.0
H1859 H 0.85967 0.57413 0.90658 0.0
H1860 H 0.43293 0.16162 0.08007 0.0
H1861 H 0.44781 0.19741 0.08896 0.0
H1862 H 0.38418 0.22522 0.08088 0.0
H1863 H 0.36944 0.18972 0.07094 0.0
H1864 H 0.41737 0.25382 0.0681 0.0
H1865 H 0.43219 0.21453 0.15756 0.0
H1866 H 0.44646 0.20377 0.13197 0.0
H1867 H 0.41754 0.20101 0.13383 0.0
C1868 C 0.42227 0.1755 0.0796 0.0
C1869 C 0.39998 0.17299 0.07554 0.0
C1870 C 0.43079 0.19588 0.08459 0.0
C1871 C 0.41695 0.21374 0.08625 0.0
C1872 C 0.39509 0.21155 0.07978 0.0
H1873 H 0.37664 0.32016 0.15894 0.0
H1874 H 0.38691 0.29293 0.1292 0.0
C1875 C 0.38666 0.19127 0.07428 0.0
C1876 C 0.42379 0.23352 0.09893 0.0
H1877 H 0.43235 0.25187 0.15624 0.0
C1878 C 0.42121 0.25346 0.08725 0.0
C1879 C 0.42892 0.23293 0.12391 0.0
C1880 C 0.43134 0.21197 0.13768 0.0
C1881 C 0.42196 0.27284 0.10033 0.0
C1882 C 0.42514 0.27202 0.12561 0.0
C1883 C 0.42982 0.2523 0.13683 0.0
C1884 C 0.42013 0.29046 0.14143 0.0
C1885 C 0.41835 0.29387 0.08722 0.0
C1886 C 0.43525 0.29758 0.15855 0.0
C1887 C 0.42931 0.31284 0.17586 0.0
C1888 C 0.4081 0.32104 0.1764 0.0
C1889 C 0.39303 0.31396 0.15912 0.0
C1890 C 0.399 0.29875 0.14181 0.0
H1891 H 0.42416 0.29283 0.06823 0.0
H1892 H 0.40075 0.29744 0.08671 0.0
H1893 H 0.42671 0.30749 0.09639 0.0
H1894 H 0.45151 0.29103 0.15876 0.0
H1895 H 0.44131 0.31813 0.18887 0.0
H1896 H 0.82679 0.86502 0.34381 0.0
H1897 H 0.79597 0.87306 0.3699 0.0
H1898 H 0.80746 0.94136 0.36112 0.0
H1899 H 0.83817 0.93351 0.33458 0.0
H1900 H 0.79733 0.89776 0.41393 0.0
H1901 H 0.74283 0.9331 0.34382 0.0
H1902 H 0.76621 0.91715 0.33583 0.0
H1903 H 0.76961 0.9442 0.34683 0.0
C1904 C 0.82263 0.88175 0.34721 0.0
C1905 C 0.83477 0.89864 0.3371 0.0
C1906 C 0.80515 0.8863 0.3622 0.0
C1907 C 0.79958 0.90777 0.3673 0.0
C1908 C 0.81149 0.92471 0.35712 0.0
H1909 H 0.67778 0.9313 0.44387 0.0
H1910 H 0.71421 0.93989 0.42938 0.0
C1911 C 0.82896 0.92017 0.34198 0.0
C1912 C 0.78114 0.91204 0.38333 0.0
H1913 H 0.72801 0.92645 0.38207 0.0
C1914 C 0.78225 0.90443 0.40718 0.0
C1915 C 0.76172 0.92102 0.37441 0.0
C1916 C 0.75982 0.92928 0.3488 0.0
C1917 C 0.76386 0.90414 0.4219 0.0
C1918 C 0.74405 0.91149 0.4123 0.0
C1919 C 0.74335 0.92079 0.3892 0.0
C1920 C 0.7234 0.90652 0.42412 0.0
C1921 C 0.76548 0.89505 0.44714 0.0
C1922 C 0.71674 0.88493 0.42581 0.0
C1923 C 0.69596 0.87996 0.43374 0.0
C1924 C 0.68161 0.89657 0.44009 0.0
C1925 C 0.68856 0.91818 0.43908 0.0
C1926 C 0.70932 0.92314 0.43092 0.0
H1927 H 0.78223 0.89638 0.4543 0.0
H1928 H 0.75424 0.90348 0.45967 0.0
H1929 H 0.76105 0.87768 0.44676 0.0
H1930 H 0.72735 0.87195 0.42011 0.0
H1931 H 0.69102 0.86318 0.43445 0.0
H1932 H 0.07019 0.18353 0.68297 0.0
H1933 H 0.06493 0.21192 0.65276 0.0
H1934 H 0.13391 0.2145 0.64076 0.0
H1935 H 0.1393 0.18599 0.67046 0.0
H1936 H 0.08083 0.25243 0.65448 0.0
H1937 H 0.11098 0.21204 0.57215 0.0
H1938 H 0.10366 0.19731 0.59916 0.0
H1939 H 0.13012 0.20931 0.59631 0.0
C1940 C 0.08423 0.19018 0.67389 0.0
C1941 C 0.10517 0.18263 0.67907 0.0
C1942 C 0.08116 0.2062 0.65652 0.0
C1943 C 0.09897 0.21476 0.64411 0.0
C1944 C 0.1199 0.20752 0.64958 0.0
H1945 H 0.15013 0.32455 0.58753 0.0
H1946 H 0.13972 0.28834 0.60083 0.0
C1947 C 0.12298 0.19149 0.66683 0.0
C1948 C 0.09623 0.23287 0.62722 0.0
H1949 H 0.11472 0.25153 0.57305 0.0
C1950 C 0.08758 0.25213 0.63636 0.0
C1951 C 0.10485 0.23223 0.60354 0.0
C1952 C 0.11269 0.2115 0.59215 0.0
C1953 C 0.08929 0.27137 0.6233 0.0
C1954 C 0.09984 0.27109 0.60065 0.0
C1955 C 0.10686 0.25155 0.5906 0.0
C1956 C 0.10644 0.29133 0.58911 0.0
C1957 C 0.08138 0.29214 0.63455 0.0
C1958 C 0.09117 0.30453 0.57777 0.0
C1959 C 0.09702 0.32519 0.57025 0.0
C1960 C 0.11819 0.33283 0.57411 0.0
C1961 C 0.13368 0.31912 0.58451 0.0
C1962 C 0.12782 0.29845 0.59194 0.0
H1963 H 0.07432 0.2896 0.65282 0.0
H1964 H 0.09495 0.30383 0.63606 0.0
H1965 H 0.06884 0.29951 0.62279 0.0
H1966 H 0.0746 0.29915 0.57555 0.0
H1967 H 0.08477 0.33538 0.56212 0.0
loop_
_geom_bond_atom_site_label_1
_geom_bond_atom_site_label_2
_geom_bond_distance
_geom_bond_site_symmetry_2
_ccdc_geom_bond_type
C0 C1 1.351 . S
C0 N3 1.368 . S
C0 H5 0.931 . S
C1 C0 1.351 . S
C1 N2 1.373 . S
C1 H29 0.930 . S
N2 C1 1.373 . S
N2 C4 1.340 . S
N3 C0 1.368 . S
N3 C4 1.321 . S
N3 Co6 2.135 . S
C4 N2 1.340 . S
C4 N3 1.321 . S
C4 H28 0.930 . S
H5 C0 0.931 . S
Co6 N3 2.135 . S
Co6 N9 2.121 . S
Co6 O14 2.055 . S
Co6 O17 2.039 . S
Co6 N20 2.140 . S
C7 O8 1.227 . S
C7 O17 1.265 . S
O8 C7 1.227 . S
N9 Co6 2.121 . S
N9 C11 1.375 . S
N9 C12 1.313 . S
C10 C11 1.338 . S
C10 N13 1.377 . S
C10 H30 0.930 . S
C11 N9 1.375 . S
C11 C10 1.338 . S
C11 H15 0.931 . S
C12 N9 1.313 . S
C12 N13 1.344 . S
C12 H16 0.930 . S
N13 C10 1.377 . S
N13 C12 1.344 . S
O14 Co6 2.055 . S
O14 C18 1.253 . S
H15 C11 0.931 . S
H16 C12 0.930 . S
O17 Co6 2.039 . S
O17 C7 1.265 . S
C18 O14 1.253 . S
C18 O19 1.227 . S
O19 C18 1.227 . S
N20 Co6 2.140 . S
N20 C23 1.346 . S
N20 C24 1.345 . S
C21 C22 1.387 . S
C21 C25 1.391 . S
C22 C21 1.387 . S
C22 C23 1.369 . S
C22 H31 0.929 . S
C23 N20 1.346 . S
C23 C22 1.369 . S
C23 H26 0.928 . S
C24 N20 1.345 . S
C24 C25 1.371 . S
C24 H27 0.931 . S
C25 C21 1.391 . S
C25 C24 1.371 . S
C25 H32 0.930 . S
H26 C23 0.928 . S
H27 C24 0.931 . S
H28 C4 0.930 . S
H29 C1 0.930 . S
H30 C10 0.930 . S
H31 C22 0.929 . S
H32 C25 0.930 . S
C33 C34 1.351 . S
C33 N36 1.368 . S
C33 H38 0.931 . S
C34 C33 1.351 . S
C34 N35 1.373 . S
C34 H62 0.930 . S
N35 C34 1.373 . S
N35 C37 1.340 . S
N36 C33 1.368 . S
N36 C37 1.321 . S
N36 Co39 2.135 . S
C37 N35 1.340 . S
C37 N36 1.321 . S
C37 H61 0.930 . S
H38 C33 0.931 . S
Co39 N36 2.135 . S
Co39 N42 2.121 . S
Co39 O47 2.055 . S
Co39 O50 2.039 . S
Co39 N53 2.140 . S
C40 O41 1.227 . S
C40 O50 1.265 . S
O41 C40 1.227 . S
N42 Co39 2.121 . S
N42 C44 1.375 . S
N42 C45 1.313 . S
C43 C44 1.338 . S
C43 N46 1.377 . S
C43 H63 0.930 . S
C44 N42 1.375 . S
C44 C43 1.338 . S
C44 H48 0.931 . S
C45 N42 1.313 . S
C45 N46 1.344 . S
C45 H49 0.930 . S
N46 C43 1.377 . S
N46 C45 1.344 . S
O47 Co39 2.055 . S
O47 C51 1.253 . S
H48 C44 0.931 . S
H49 C45 0.930 . S
O50 Co39 2.039 . S
O50 C40 1.265 . S
C51 O47 1.253 . S
C51 O52 1.227 . S
O52 C51 1.227 . S
N53 Co39 2.140 . S
N53 C56 1.346 . S
N53 C57 1.345 . S
C54 C55 1.387 . S
C54 C58 1.391 . S
C55 C54 1.387 . S
C55 C56 1.369 . S
C55 H64 0.929 . S
C56 N53 1.346 . S
C56 C55 1.369 . S
C56 H59 0.928 . S
C57 N53 1.345 . S
C57 C58 1.371 . S
C57 H60 0.931 . S
C58 C54 1.391 . S
C58 C57 1.371 . S
C58 H65 0.930 . S
H59 C56 0.928 . S
H60 C57 0.931 . S
H61 C37 0.930 . S
H62 C34 0.930 . S
H63 C43 0.930 . S
H64 C55 0.929 . S
H65 C58 0.930 . S
C66 C67 1.351 . S
C66 N69 1.368 . S
C66 H71 0.931 . S
C67 C66 1.351 . S
C67 N68 1.373 . S
C67 H95 0.930 . S
N68 C67 1.373 . S
N68 C70 1.340 . S
N69 C66 1.368 . S
N69 C70 1.321 . S
N69 Co72 2.135 . S
C70 N68 1.340 . S
C70 N69 1.321 . S
C70 H94 0.930 . S
H71 C66 0.931 . S
Co72 N69 2.135 . S
Co72 N75 2.121 . S
Co72 O80 2.055 . S
Co72 O83 2.039 . S
Co72 N86 2.140 . S
C73 O74 1.227 . S
C73 O83 1.265 . S
O74 C73 1.227 . S
N75 Co72 2.121 . S
N75 C77 1.375 . S
N75 C78 1.313 . S
C76 C77 1.338 . S
C76 N79 1.377 . S
C76 H96 0.930 . S
C77 N75 1.375 . S
C77 C76 1.338 . S
C77 H81 0.931 . S
C78 N75 1.313 . S
C78 N79 1.344 . S
C78 H82 0.930 . S
N79 C76 1.377 . S
N79 C78 1.344 . S
O80 Co72 2.055 . S
O80 C84 1.253 . S
H81 C77 0.931 . S
H82 C78 0.930 . S
O83 Co72 2.039 . S
O83 C73 1.265 . S
C84 O80 1.253 . S
C84 O85 1.227 . S
O85 C84 1.227 . S
N86 Co72 2.140 . S
N86 C89 1.346 . S
N86 C90 1.345 . S
C87 C88 1.387 . S
C87 C91 1.391 . S
C88 C87 1.387 . S
C88 C89 1.369 . S
C88 H97 0.929 . S
C89 N86 1.346 . S
C89 C88 1.369 . S
C89 H92 0.928 . S
C90 N86 1.345 . S
C90 C91 1.371 . S
C90 H93 0.931 . S
C91 C87 1.391 . S
C91 C90 1.371 . S
C91 H98 0.930 . S
H92 C89 0.928 . S
H93 C90 0.931 . S
H94 C70 0.930 . S
H95 C67 0.930 . S
H96 C76 0.930 . S
H97 C88 0.929 . S
H98 C91 0.930 . S
C99 C100 1.351 . S
C99 N102 1.368 . S
C99 H104 0.931 . S
C100 C99 1.351 . S
C100 N101 1.373 . S
C100 H128 0.930 . S
N101 C100 1.373 . S
N101 C103 1.340 . S
N102 C99 1.368 . S
N102 C103 1.321 . S
N102 Co105 2.135 . S
C103 N101 1.340 . S
C103 N102 1.321 . S
C103 H127 0.930 . S
H104 C99 0.931 . S
Co105 N102 2.135 . S
Co105 N108 2.121 . S
Co105 O113 2.055 . S
Co105 O116 2.039 . S
Co105 N119 2.140 . S
C106 O107 1.227 . S
C106 O116 1.265 . S
O107 C106 1.227 . S
N108 Co105 2.121 . S
N108 C110 1.375 . S
N108 C111 1.313 . S
C109 C110 1.338 . S
C109 N112 1.377 . S
C109 H129 0.930 1_554 S
C110 N108 1.375 . S
C110 C109 1.338 . S
C110 H114 0.931 . S
C111 N108 1.313 . S
C111 N112 1.344 . S
C111 H115 0.930 . S
N112 C109 1.377 . S
N112 C111 1.344 . S
O113 Co105 2.055 . S
O113 C117 1.253 . S
H114 C110 0.931 . S
H115 C111 0.930 . S
O116 Co105 2.039 . S
O116 C106 1.265 . S
C117 O113 1.253 . S
C117 O118 1.227 . S
O118 C117 1.227 . S
N119 Co105 2.140 . S
N119 C122 1.346 . S
N119 C123 1.345 . S
C120 C121 1.387 . S
C120 C124 1.391 . S
C121 C120 1.387 . S
C121 C122 1.369 . S
C121 H130 0.929 . S
C122 N119 1.346 . S
C122 C121 1.369 . S
C122 H125 0.928 . S
C123 N119 1.345 . S
C123 C124 1.371 . S
C123 H126 0.931 . S
C124 C120 1.391 . S
C124 C123 1.371 . S
C124 H131 0.930 . S
H125 C122 0.928 . S
H126 C123 0.931 . S
H127 C103 0.930 . S
H128 C100 0.930 . S
H129 C109 0.930 1_556 S
H130 C121 0.929 . S
H131 C124 0.930 . S
C132 C133 1.351 . S
C132 N135 1.368 . S
C132 H137 0.931 . S
C133 C132 1.351 . S
C133 N134 1.373 . S
C133 H161 0.930 . S
N134 C133 1.373 . S
N134 C136 1.340 . S
N135 C132 1.368 . S
N135 C136 1.321 . S
N135 Co138 2.135 . S
C136 N134 1.340 . S
C136 N135 1.321 . S
C136 H160 0.930 . S
H137 C132 0.931 . S
Co138 N135 2.135 . S
Co138 N141 2.121 . S
Co138 O146 2.055 . S
Co138 O149 2.039 . S
Co138 N152 2.140 . S
C139 O140 1.227 . S
C139 O149 1.265 . S
O140 C139 1.227 . S
N141 Co138 2.121 . S
N141 C143 1.375 . S
N141 C144 1.313 . S
C142 C143 1.338 . S
C142 N145 1.377 . S
C142 H162 0.930 1_556 S
C143 N141 1.375 . S
C143 C142 1.338 . S
C143 H147 0.931 . S
C144 N141 1.313 . S
C144 N145 1.344 . S
C144 H148 0.930 . S
N145 C142 1.377 . S
N145 C144 1.344 . S
O146 Co138 2.055 . S
O146 C150 1.253 . S
H147 C143 0.931 . S
H148 C144 0.930 . S
O149 Co138 2.039 . S
O149 C139 1.265 . S
C150 O146 1.253 . S
C150 O151 1.227 . S
O151 C150 1.227 . S
N152 Co138 2.140 . S
N152 C155 1.346 . S
N152 C156 1.345 . S
C153 C154 1.387 . S
C153 C157 1.391 . S
C154 C153 1.387 . S
C154 C155 1.369 . S
C154 H163 0.929 . S
C155 N152 1.346 . S
C155 C154 1.369 . S
C155 H158 0.928 . S
C156 N152 1.345 . S
C156 C157 1.371 . S
C156 H159 0.931 . S
C157 C153 1.391 . S
C157 C156 1.371 . S
C157 H164 0.930 . S
H158 C155 0.928 . S
H159 C156 0.931 . S
H160 C136 0.930 . S
H161 C133 0.930 . S
H162 C142 0.930 1_554 S
H163 C154 0.929 . S
H164 C157 0.930 . S
C165 C166 1.351 . S
C165 N168 1.368 . S
C165 H170 0.931 . S
C166 C165 1.351 . S
C166 N167 1.373 . S
C166 H194 0.930 . S
N167 C166 1.373 . S
N167 C169 1.340 . S
N168 C165 1.368 . S
N168 C169 1.321 . S
N168 Co171 2.135 . S
C169 N167 1.340 . S
C169 N168 1.321 . S
C169 H193 0.930 . S
H170 C165 0.931 . S
Co171 N168 2.135 . S
Co171 N174 2.121 . S
Co171 O179 2.055 . S
Co171 O182 2.039 . S
Co171 N185 2.140 . S
C172 O173 1.227 . S
C172 O182 1.265 . S
O173 C172 1.227 . S
N174 Co171 2.121 . S
N174 C176 1.375 . S
N174 C177 1.313 . S
C175 C176 1.338 . S
C175 N178 1.377 . S
C175 H195 0.930 . S
C176 N174 1.375 . S
C176 C175 1.338 . S
C176 H180 0.931 . S
C177 N174 1.313 . S
C177 N178 1.344 . S
C177 H181 0.930 . S
N178 C175 1.377 . S
N178 C177 1.344 . S
O179 Co171 2.055 . S
O179 C183 1.253 . S
H180 C176 0.931 . S
H181 C177 0.930 . S
O182 Co171 2.039 . S
O182 C172 1.265 . S
C183 O179 1.253 . S
C183 O184 1.227 . S
O184 C183 1.227 . S
N185 Co171 2.140 . S
N185 C188 1.346 . S
N185 C189 1.345 . S
C186 C187 1.387 . S
C186 C190 1.391 . S
C187 C186 1.387 . S
C187 C188 1.369 . S
C187 H196 0.929 . S
C188 N185 1.346 . S
C188 C187 1.369 . S
C188 H191 0.928 . S
C189 N185 1.345 . S
C189 C190 1.371 . S
C189 H192 0.931 . S
C190 C186 1.391 . S
C190 C189 1.371 . S
C190 H197 0.930 . S
H191 C188 0.928 . S
H192 C189 0.931 . S
H193 C169 0.930 . S
H194 C166 0.930 . S
H195 C175 0.930 . S
H196 C187 0.929 . S
H197 C190 0.930 . S
C198 C199 1.351 . S
C198 N201 1.368 . S
C198 H203 0.931 . S
C199 C198 1.351 . S
C199 N200 1.373 . S
C199 H227 0.930 . S
N200 C199 1.373 . S
N200 C202 1.340 . S
N201 C198 1.368 . S
N201 C202 1.321 . S
N201 Co204 2.135 . S
C202 N200 1.340 . S
C202 N201 1.321 . S
C202 H226 0.930 . S
H203 C198 0.931 . S
Co204 N201 2.135 . S
Co204 N207 2.121 . S
Co204 O212 2.055 . S
Co204 O215 2.039 . S
Co204 N218 2.140 . S
C205 O206 1.227 . S
C205 O215 1.265 . S
O206 C205 1.227 . S
N207 Co204 2.121 . S
N207 C209 1.375 . S
N207 C210 1.313 . S
C208 C209 1.338 . S
C208 N211 1.377 . S
C208 H228 0.930 . S
C209 N207 1.375 . S
C209 C208 1.338 . S
C209 H213 0.931 . S
C210 N207 1.313 . S
C210 N211 1.344 . S
C210 H214 0.930 . S
N211 C208 1.377 . S
N211 C210 1.344 . S
O212 Co204 2.055 . S
O212 C216 1.253 . S
H213 C209 0.931 . S
H214 C210 0.930 . S
O215 Co204 2.039 . S
O215 C205 1.265 . S
C216 O212 1.253 . S
C216 O217 1.227 . S
O217 C216 1.227 . S
N218 Co204 2.140 . S
N218 C221 1.346 . S
N218 C222 1.345 . S
C219 C220 1.387 . S
C219 C223 1.391 . S
C220 C219 1.387 . S
C220 C221 1.369 . S
C220 H229 0.929 . S
C221 N218 1.346 . S
C221 C220 1.369 . S
C221 H224 0.928 . S
C222 N218 1.345 . S
C222 C223 1.371 . S
C222 H225 0.931 . S
C223 C219 1.391 . S
C223 C222 1.371 . S
C223 H230 0.930 . S
H224 C221 0.928 . S
H225 C222 0.931 . S
H226 C202 0.930 . S
H227 C199 0.930 . S
H228 C208 0.930 . S
H229 C220 0.929 . S
H230 C223 0.930 . S
C231 C232 1.351 . S
C231 N234 1.368 . S
C231 H236 0.931 . S
C232 C231 1.351 . S
C232 N233 1.373 . S
C232 H260 0.930 . S
N233 C232 1.373 . S
N233 C235 1.340 . S
N234 C231 1.368 . S
N234 C235 1.321 . S
N234 Co237 2.135 . S
C235 N233 1.340 . S
C235 N234 1.321 . S
C235 H259 0.930 . S
H236 C231 0.931 . S
Co237 N234 2.135 . S
Co237 N240 2.121 . S
Co237 O245 2.055 . S
Co237 O248 2.039 . S
Co237 N251 2.140 . S
C238 O239 1.227 . S
C238 O248 1.265 . S
O239 C238 1.227 . S
N240 Co237 2.121 . S
N240 C242 1.375 . S
N240 C243 1.313 . S
C241 C242 1.338 . S
C241 N244 1.377 . S
C241 H261 0.930 . S
C242 N240 1.375 . S
C242 C241 1.338 . S
C242 H246 0.931 . S
C243 N240 1.313 . S
C243 N244 1.344 . S
C243 H247 0.930 . S
N244 C241 1.377 . S
N244 C243 1.344 . S
O245 Co237 2.055 . S
O245 C249 1.253 . S
H246 C242 0.931 . S
H247 C243 0.930 . S
O248 Co237 2.039 . S
O248 C238 1.265 . S
C249 O245 1.253 . S
C249 O250 1.227 . S
O250 C249 1.227 . S
N251 Co237 2.140 . S
N251 C254 1.346 . S
N251 C255 1.345 . S
C252 C253 1.387 . S
C252 C256 1.391 . S
C253 C252 1.387 . S
C253 C254 1.369 . S
C253 H262 0.929 . S
C254 N251 1.346 . S
C254 C253 1.369 . S
C254 H257 0.928 . S
C255 N251 1.345 . S
C255 C256 1.371 . S
C255 H258 0.931 . S
C256 C252 1.391 . S
C256 C255 1.371 . S
C256 H263 0.930 . S
H257 C254 0.928 . S
H258 C255 0.931 . S
H259 C235 0.930 . S
H260 C232 0.930 . S
H261 C241 0.930 . S
H262 C253 0.929 . S
H263 C256 0.930 . S
C264 C265 1.351 . S
C264 N267 1.368 . S
C264 H269 0.931 . S
C265 C264 1.351 . S
C265 N266 1.373 . S
C265 H293 0.930 . S
N266 C265 1.373 . S
N266 C268 1.340 . S
N267 C264 1.368 . S
N267 C268 1.321 . S
N267 Co270 2.135 . S
C268 N266 1.340 . S
C268 N267 1.321 . S
C268 H292 0.930 . S
H269 C264 0.931 . S
Co270 N267 2.135 . S
Co270 N273 2.121 . S
Co270 O278 2.055 . S
Co270 O281 2.039 . S
Co270 N284 2.140 . S
C271 O272 1.227 . S
C271 O281 1.265 . S
O272 C271 1.227 . S
N273 Co270 2.121 . S
N273 C275 1.375 . S
N273 C276 1.313 . S
C274 C275 1.338 . S
C274 N277 1.377 . S
C274 H294 0.930 . S
C275 N273 1.375 . S
C275 C274 1.338 . S
C275 H279 0.931 . S
C276 N273 1.313 . S
C276 N277 1.344 . S
C276 H280 0.930 . S
N277 C274 1.377 . S
N277 C276 1.344 . S
O278 Co270 2.055 . S
O278 C282 1.253 . S
H279 C275 0.931 . S
H280 C276 0.930 . S
O281 Co270 2.039 . S
O281 C271 1.265 . S
C282 O278 1.253 . S
C282 O283 1.227 . S
O283 C282 1.227 . S
N284 Co270 2.140 . S
N284 C287 1.346 . S
N284 C288 1.345 . S
C285 C286 1.387 . S
C285 C289 1.391 . S
C286 C285 1.387 . S
C286 C287 1.369 . S
C286 H295 0.929 . S
C287 N284 1.346 . S
C287 C286 1.369 . S
C287 H290 0.928 . S
C288 N284 1.345 . S
C288 C289 1.371 . S
C288 H291 0.931 . S
C289 C285 1.391 . S
C289 C288 1.371 . S
C289 H296 0.930 . S
H290 C287 0.928 . S
H291 C288 0.931 . S
H292 C268 0.930 . S
H293 C265 0.930 . S
H294 C274 0.930 . S
H295 C286 0.929 . S
H296 C289 0.930 . S
C297 C298 1.351 . S
C297 N300 1.368 . S
C297 H302 0.931 . S
C298 C297 1.351 . S
C298 N299 1.373 . S
C298 H326 0.930 . S
N299 C298 1.373 . S
N299 C301 1.340 . S
N300 C297 1.368 . S
N300 C301 1.321 . S
N300 Co303 2.135 . S
C301 N299 1.340 . S
C301 N300 1.321 . S
C301 H325 0.930 . S
H302 C297 0.931 . S
Co303 N300 2.135 . S
Co303 N306 2.121 . S
Co303 O311 2.055 . S
Co303 O314 2.039 . S
Co303 N317 2.140 . S
C304 O305 1.227 . S
C304 O314 1.265 . S
O305 C304 1.227 . S
N306 Co303 2.121 . S
N306 C308 1.375 . S
N306 C309 1.313 . S
C307 C308 1.338 . S
C307 N310 1.377 . S
C307 H327 0.930 1_554 S
C308 N306 1.375 . S
C308 C307 1.338 . S
C308 H312 0.931 . S
C309 N306 1.313 . S
C309 N310 1.344 . S
C309 H313 0.930 . S
N310 C307 1.377 . S
N310 C309 1.344 . S
O311 Co303 2.055 . S
O311 C315 1.253 . S
H312 C308 0.931 . S
H313 C309 0.930 . S
O314 Co303 2.039 . S
O314 C304 1.265 . S
C315 O311 1.253 . S
C315 O316 1.227 . S
O316 C315 1.227 . S
N317 Co303 2.140 . S
N317 C320 1.346 . S
N317 C321 1.345 . S
C318 C319 1.387 . S
C318 C322 1.391 . S
C319 C318 1.387 . S
C319 C320 1.369 . S
C319 H328 0.929 . S
C320 N317 1.346 . S
C320 C319 1.369 . S
C320 H323 0.928 . S
C321 N317 1.345 . S
C321 C322 1.371 . S
C321 H324 0.931 . S
C322 C318 1.391 . S
C322 C321 1.371 . S
C322 H329 0.930 . S
H323 C320 0.928 . S
H324 C321 0.931 . S
H325 C301 0.930 . S
H326 C298 0.930 . S
H327 C307 0.930 1_556 S
H328 C319 0.929 . S
H329 C322 0.930 . S
C330 C331 1.351 . S
C330 N333 1.368 . S
C330 H335 0.931 . S
C331 C330 1.351 . S
C331 N332 1.373 . S
C331 H359 0.930 . S
N332 C331 1.373 . S
N332 C334 1.340 . S
N333 C330 1.368 . S
N333 C334 1.321 . S
N333 Co336 2.135 . S
C334 N332 1.340 . S
C334 N333 1.321 . S
C334 H358 0.930 . S
H335 C330 0.931 . S
Co336 N333 2.135 . S
Co336 N339 2.121 . S
Co336 O344 2.055 . S
Co336 O347 2.039 . S
Co336 N350 2.140 . S
C337 O338 1.227 . S
C337 O347 1.265 . S
O338 C337 1.227 . S
N339 Co336 2.121 . S
N339 C341 1.375 . S
N339 C342 1.313 . S
C340 C341 1.338 . S
C340 N343 1.377 . S
C340 H360 0.930 . S
C341 N339 1.375 . S
C341 C340 1.338 . S
C341 H345 0.931 . S
C342 N339 1.313 . S
C342 N343 1.344 . S
C342 H346 0.930 . S
N343 C340 1.377 . S
N343 C342 1.344 . S
O344 Co336 2.055 . S
O344 C348 1.253 . S
H345 C341 0.931 . S
H346 C342 0.930 . S
O347 Co336 2.039 . S
O347 C337 1.265 . S
C348 O344 1.253 . S
C348 O349 1.227 . S
O349 C348 1.227 . S
N350 Co336 2.140 . S
N350 C353 1.346 . S
N350 C354 1.345 . S
C351 C352 1.387 . S
C351 C355 1.391 . S
C352 C351 1.387 . S
C352 C353 1.369 . S
C352 H361 0.929 . S
C353 N350 1.346 . S
C353 C352 1.369 . S
C353 H356 0.928 . S
C354 N350 1.345 . S
C354 C355 1.371 . S
C354 H357 0.931 . S
C355 C351 1.391 . S
C355 C354 1.371 . S
C355 H362 0.930 . S
H356 C353 0.928 . S
H357 C354 0.931 . S
H358 C334 0.930 . S
H359 C331 0.930 . S
H360 C340 0.930 . S
H361 C352 0.929 . S
H362 C355 0.930 . S
C363 C364 1.351 . S
C363 N366 1.368 . S
C363 H368 0.931 . S
C364 C363 1.351 . S
C364 N365 1.373 . S
C364 H392 0.930 . S
N365 C364 1.373 . S
N365 C367 1.340 . S
N366 C363 1.368 . S
N366 C367 1.321 . S
N366 Co369 2.135 . S
C367 N365 1.340 . S
C367 N366 1.321 . S
C367 H391 0.930 . S
H368 C363 0.931 . S
Co369 N366 2.135 . S
Co369 N372 2.121 . S
Co369 O377 2.055 . S
Co369 O380 2.039 . S
Co369 N383 2.140 . S
C370 O371 1.227 . S
C370 O380 1.265 . S
O371 C370 1.227 . S
N372 Co369 2.121 . S
N372 C374 1.375 . S
N372 C375 1.313 . S
C373 C374 1.338 . S
C373 N376 1.377 . S
C373 H393 0.930 . S
C374 N372 1.375 . S
C374 C373 1.338 . S
C374 H378 0.931 . S
C375 N372 1.313 . S
C375 N376 1.344 . S
C375 H379 0.930 . S
N376 C373 1.377 . S
N376 C375 1.344 . S
O377 Co369 2.055 . S
O377 C381 1.253 . S
H378 C374 0.931 . S
H379 C375 0.930 . S
O380 Co369 2.039 . S
O380 C370 1.265 . S
C381 O377 1.253 . S
C381 O382 1.227 . S
O382 C381 1.227 . S
N383 Co369 2.140 . S
N383 C386 1.346 . S
N383 C387 1.345 . S
C384 C385 1.387 . S
C384 C388 1.391 . S
C385 C384 1.387 . S
C385 C386 1.369 . S
C385 H394 0.929 . S
C386 N383 1.346 . S
C386 C385 1.369 . S
C386 H389 0.928 . S
C387 N383 1.345 . S
C387 C388 1.371 . S
C387 H390 0.931 . S
C388 C384 1.391 . S
C388 C387 1.371 . S
C388 H395 0.930 . S
H389 C386 0.928 . S
H390 C387 0.931 . S
H391 C367 0.930 . S
H392 C364 0.930 . S
H393 C373 0.930 . S
H394 C385 0.929 . S
H395 C388 0.930 . S
C396 C397 1.351 . S
C396 N399 1.368 . S
C396 H401 0.931 . S
C397 C396 1.351 . S
C397 N398 1.373 . S
C397 H425 0.930 . S
N398 C397 1.373 . S
N398 C400 1.340 . S
N399 C396 1.368 . S
N399 C400 1.321 . S
N399 Co402 2.135 . S
C400 N398 1.340 . S
C400 N399 1.321 . S
C400 H424 0.930 . S
H401 C396 0.931 . S
Co402 N399 2.135 . S
Co402 N405 2.121 . S
Co402 O410 2.055 . S
Co402 O413 2.039 . S
Co402 N416 2.140 . S
C403 O404 1.227 . S
C403 O413 1.265 . S
O404 C403 1.227 . S
N405 Co402 2.121 . S
N405 C407 1.375 . S
N405 C408 1.313 . S
C406 C407 1.338 . S
C406 N409 1.377 . S
C406 H426 0.930 . S
C407 N405 1.375 . S
C407 C406 1.338 . S
C407 H411 0.931 . S
C408 N405 1.313 . S
C408 N409 1.344 . S
C408 H412 0.930 . S
N409 C406 1.377 . S
N409 C408 1.344 . S
O410 Co402 2.055 . S
O410 C414 1.253 . S
H411 C407 0.931 . S
H412 C408 0.930 . S
O413 Co402 2.039 . S
O413 C403 1.265 . S
C414 O410 1.253 . S
C414 O415 1.227 . S
O415 C414 1.227 . S
N416 Co402 2.140 . S
N416 C419 1.346 . S
N416 C420 1.345 . S
C417 C418 1.387 . S
C417 C421 1.391 . S
C418 C417 1.387 . S
C418 C419 1.369 . S
C418 H427 0.929 . S
C419 N416 1.346 . S
C419 C418 1.369 . S
C419 H422 0.928 . S
C420 N416 1.345 . S
C420 C421 1.371 . S
C420 H423 0.931 . S
C421 C417 1.391 . S
C421 C420 1.371 . S
C421 H428 0.930 . S
H422 C419 0.928 . S
H423 C420 0.931 . S
H424 C400 0.930 . S
H425 C397 0.930 . S
H426 C406 0.930 . S
H427 C418 0.929 . S
H428 C421 0.930 . S
C429 C430 1.351 . S
C429 N432 1.368 . S
C429 H434 0.931 . S
C430 C429 1.351 . S
C430 N431 1.373 . S
C430 H458 0.930 . S
N431 C430 1.373 . S
N431 C433 1.340 . S
N432 C429 1.368 . S
N432 C433 1.321 . S
N432 Co435 2.135 . S
C433 N431 1.340 . S
C433 N432 1.321 . S
C433 H457 0.930 . S
H434 C429 0.931 . S
Co435 N432 2.135 . S
Co435 N438 2.121 . S
Co435 O443 2.055 . S
Co435 O446 2.039 . S
Co435 N449 2.140 . S
C436 O437 1.227 . S
C436 O446 1.265 . S
O437 C436 1.227 . S
N438 Co435 2.121 . S
N438 C440 1.375 . S
N438 C441 1.313 . S
C439 C440 1.338 . S
C439 N442 1.377 . S
C439 H459 0.930 . S
C440 N438 1.375 . S
C440 C439 1.338 . S
C440 H444 0.931 . S
C441 N438 1.313 . S
C441 N442 1.344 . S
C441 H445 0.930 . S
N442 C439 1.377 . S
N442 C441 1.344 . S
O443 Co435 2.055 . S
O443 C447 1.253 . S
H444 C440 0.931 . S
H445 C441 0.930 . S
O446 Co435 2.039 . S
O446 C436 1.265 . S
C447 O443 1.253 . S
C447 O448 1.227 . S
O448 C447 1.227 . S
N449 Co435 2.140 . S
N449 C452 1.346 . S
N449 C453 1.345 . S
C450 C451 1.387 . S
C450 C454 1.391 . S
C451 C450 1.387 . S
C451 C452 1.369 . S
C451 H460 0.929 . S
C452 N449 1.346 . S
C452 C451 1.369 . S
C452 H455 0.928 . S
C453 N449 1.345 . S
C453 C454 1.371 . S
C453 H456 0.931 . S
C454 C450 1.391 . S
C454 C453 1.371 . S
C454 H461 0.930 . S
H455 C452 0.928 . S
H456 C453 0.931 . S
H457 C433 0.930 . S
H458 C430 0.930 . S
H459 C439 0.930 . S
H460 C451 0.929 . S
H461 C454 0.930 . S
C462 C463 1.351 . S
C462 N465 1.368 . S
C462 H467 0.931 . S
C463 C462 1.351 . S
C463 N464 1.373 . S
C463 H491 0.930 . S
N464 C463 1.373 . S
N464 C466 1.340 . S
N465 C462 1.368 . S
N465 C466 1.321 . S
N465 Co468 2.135 . S
C466 N464 1.340 . S
C466 N465 1.321 . S
C466 H490 0.930 . S
H467 C462 0.931 . S
Co468 N465 2.135 . S
Co468 N471 2.121 . S
Co468 O476 2.055 . S
Co468 O479 2.039 . S
Co468 N482 2.140 . S
C469 O470 1.227 . S
C469 O479 1.265 . S
O470 C469 1.227 . S
N471 Co468 2.121 . S
N471 C473 1.375 . S
N471 C474 1.313 . S
C472 C473 1.338 . S
C472 N475 1.377 . S
C472 H492 0.930 1_556 S
C473 N471 1.375 . S
C473 C472 1.338 . S
C473 H477 0.931 . S
C474 N471 1.313 . S
C474 N475 1.344 . S
C474 H478 0.930 . S
N475 C472 1.377 . S
N475 C474 1.344 . S
O476 Co468 2.055 . S
O476 C480 1.253 . S
H477 C473 0.931 . S
H478 C474 0.930 . S
O479 Co468 2.039 . S
O479 C469 1.265 . S
C480 O476 1.253 . S
C480 O481 1.227 . S
O481 C480 1.227 . S
N482 Co468 2.140 . S
N482 C485 1.346 . S
N482 C486 1.345 . S
C483 C484 1.387 . S
C483 C487 1.391 . S
C484 C483 1.387 . S
C484 C485 1.369 . S
C484 H493 0.929 . S
C485 N482 1.346 . S
C485 C484 1.369 . S
C485 H488 0.928 . S
C486 N482 1.345 . S
C486 C487 1.371 . S
C486 H489 0.931 . S
C487 C483 1.391 . S
C487 C486 1.371 . S
C487 H494 0.930 . S
H488 C485 0.928 . S
H489 C486 0.931 . S
H490 C466 0.930 . S
H491 C463 0.930 . S
H492 C472 0.930 1_554 S
H493 C484 0.929 . S
H494 C487 0.930 . S
C495 C496 1.351 . S
C495 N498 1.368 . S
C495 H500 0.931 . S
C496 C495 1.351 . S
C496 N497 1.373 . S
C496 H524 0.930 . S
N497 C496 1.373 . S
N497 C499 1.340 . S
N498 C495 1.368 . S
N498 C499 1.321 . S
N498 Co501 2.135 . S
C499 N497 1.340 . S
C499 N498 1.321 . S
C499 H523 0.930 . S
H500 C495 0.931 . S
Co501 N498 2.135 . S
Co501 N504 2.121 . S
Co501 O509 2.055 . S
Co501 O512 2.039 . S
Co501 N515 2.140 . S
C502 O503 1.227 . S
C502 O512 1.265 . S
O503 C502 1.227 . S
N504 Co501 2.121 . S
N504 C506 1.375 . S
N504 C507 1.313 . S
C505 C506 1.338 . S
C505 N508 1.377 . S
C505 H525 0.930 . S
C506 N504 1.375 . S
C506 C505 1.338 . S
C506 H510 0.931 . S
C507 N504 1.313 . S
C507 N508 1.344 . S
C507 H511 0.930 . S
N508 C505 1.377 . S
N508 C507 1.344 . S
O509 Co501 2.055 . S
O509 C513 1.253 . S
H510 C506 0.931 . S
H511 C507 0.930 . S
O512 Co501 2.039 . S
O512 C502 1.265 . S
C513 O509 1.253 . S
C513 O514 1.227 . S
O514 C513 1.227 . S
N515 Co501 2.140 . S
N515 C518 1.346 . S
N515 C519 1.345 . S
C516 C517 1.387 . S
C516 C520 1.391 . S
C517 C516 1.387 . S
C517 C518 1.369 . S
C517 H526 0.929 . S
C518 N515 1.346 . S
C518 C517 1.369 . S
C518 H521 0.928 . S
C519 N515 1.345 . S
C519 C520 1.371 . S
C519 H522 0.931 . S
C520 C516 1.391 . S
C520 C519 1.371 . S
C520 H527 0.930 . S
H521 C518 0.928 . S
H522 C519 0.931 . S
H523 C499 0.930 . S
H524 C496 0.930 . S
H525 C505 0.930 . S
H526 C517 0.929 . S
H527 C520 0.930 . S
H528 C536 0.929 . S
H529 C538 0.930 . S
H530 C540 0.930 . S
H531 C543 0.929 . S
H532 C546 0.930 . S
H533 C548 0.960 . S
H534 C548 0.960 . S
H535 C548 0.960 . S
C536 H528 0.929 . S
C536 C537 1.377 . S
C536 C538 1.384 . S
C537 C536 1.377 . S
C537 C543 1.390 . S
C538 H529 0.930 . S
C538 C536 1.384 . S
C538 C539 1.372 . S
C539 C538 1.372 . S
C539 C540 1.400 . S
C539 C544 1.490 . S
C540 H530 0.930 . S
C540 C539 1.400 . S
C540 C543 1.386 . S
H541 C557 0.930 . S
H542 C558 0.931 . S
C543 H531 0.929 . S
C543 C537 1.390 . S
C543 C540 1.386 . S
C544 C539 1.490 . S
C544 C546 1.395 . S
C544 C547 1.403 . S
H545 C551 0.930 . S
C546 H532 0.930 . S
C546 C544 1.395 . S
C546 C549 1.403 . S
C547 C544 1.403 . S
C547 C548 1.524 . S
C547 C551 1.400 . S
C548 H533 0.960 . S
C548 H534 0.960 . S
C548 H535 0.960 . S
C548 C547 1.524 . S
C549 C546 1.403 . S
C549 C550 1.392 . S
C549 C553 1.495 . S
C550 C549 1.392 . S
C550 C551 1.385 . S
C550 C552 1.478 . S
C551 H545 0.930 . S
C551 C547 1.400 . S
C551 C550 1.385 . S
C552 C550 1.478 . S
C552 C554 1.381 . S
C552 C558 1.383 . S
C553 C549 1.495 . S
C553 H559 0.959 . S
C553 H560 0.961 . S
C553 H561 0.960 . S
C554 C552 1.381 . S
C554 C555 1.394 . S
C554 H562 0.930 . S
C555 C554 1.394 . S
C555 C556 1.383 . S
C555 H563 0.929 . S
C556 C555 1.383 . S
C556 C557 1.377 . S
C557 H541 0.930 . S
C557 C556 1.377 . S
C557 C558 1.379 . S
C558 H542 0.931 . S
C558 C552 1.383 . S
C558 C557 1.379 . S
H559 C553 0.959 . S
H560 C553 0.961 . S
H561 C553 0.960 . S
H562 C554 0.930 . S
H563 C555 0.929 . S
H564 C572 0.929 . S
H565 C574 0.930 . S
H566 C576 0.930 . S
H567 C579 0.929 . S
H568 C582 0.930 . S
H569 C584 0.960 . S
H570 C584 0.960 . S
H571 C584 0.960 . S
C572 H564 0.929 . S
C572 C573 1.377 . S
C572 C574 1.384 . S
C573 C572 1.377 . S
C573 C579 1.390 . S
C574 H565 0.930 . S
C574 C572 1.384 . S
C574 C575 1.372 . S
C575 C574 1.372 . S
C575 C576 1.400 . S
C575 C580 1.490 . S
C576 H566 0.930 . S
C576 C575 1.400 . S
C576 C579 1.386 . S
H577 C593 0.930 . S
H578 C594 0.931 . S
C579 H567 0.929 . S
C579 C573 1.390 . S
C579 C576 1.386 . S
C580 C575 1.490 . S
C580 C582 1.395 . S
C580 C583 1.403 . S
H581 C587 0.930 . S
C582 H568 0.930 . S
C582 C580 1.395 . S
C582 C585 1.403 . S
C583 C580 1.403 . S
C583 C584 1.524 . S
C583 C587 1.400 . S
C584 H569 0.960 . S
C584 H570 0.960 . S
C584 H571 0.960 . S
C584 C583 1.524 . S
C585 C582 1.403 . S
C585 C586 1.392 . S
C585 C589 1.495 . S
C586 C585 1.392 . S
C586 C587 1.385 . S
C586 C588 1.478 . S
C587 H581 0.930 . S
C587 C583 1.400 . S
C587 C586 1.385 . S
C588 C586 1.478 . S
C588 C590 1.381 . S
C588 C594 1.383 . S
C589 C585 1.495 . S
C589 H595 0.959 . S
C589 H596 0.961 . S
C589 H597 0.960 . S
C590 C588 1.381 . S
C590 C591 1.394 . S
C590 H598 0.930 . S
C591 C590 1.394 . S
C591 C592 1.383 . S
C591 H599 0.929 . S
C592 C591 1.383 . S
C592 C593 1.377 . S
C593 H577 0.930 . S
C593 C592 1.377 . S
C593 C594 1.379 . S
C594 H578 0.931 . S
C594 C588 1.383 . S
C594 C593 1.379 . S
H595 C589 0.959 . S
H596 C589 0.961 . S
H597 C589 0.960 . S
H598 C590 0.930 . S
H599 C591 0.929 . S
H600 C608 0.929 . S
H601 C610 0.930 . S
H602 C612 0.930 . S
H603 C615 0.929 . S
H604 C618 0.930 . S
H605 C620 0.960 . S
H606 C620 0.960 . S
H607 C620 0.960 . S
C608 H600 0.929 . S
C608 C609 1.377 . S
C608 C610 1.384 . S
C609 C608 1.377 . S
C609 C615 1.390 . S
C610 H601 0.930 . S
C610 C608 1.384 . S
C610 C611 1.372 . S
C611 C610 1.372 . S
C611 C612 1.400 . S
C611 C616 1.490 . S
C612 H602 0.930 . S
C612 C611 1.400 . S
C612 C615 1.386 . S
H613 C629 0.930 . S
H614 C630 0.931 . S
C615 H603 0.929 . S
C615 C609 1.390 . S
C615 C612 1.386 . S
C616 C611 1.490 . S
C616 C618 1.395 . S
C616 C619 1.403 . S
H617 C623 0.930 . S
C618 H604 0.930 . S
C618 C616 1.395 . S
C618 C621 1.403 1_554 S
C619 C616 1.403 . S
C619 C620 1.524 . S
C619 C623 1.400 1_554 S
C620 H605 0.960 . S
C620 H606 0.960 . S
C620 H607 0.960 . S
C620 C619 1.524 . S
C621 C618 1.403 1_556 S
C621 C622 1.392 . S
C621 C625 1.495 . S
C622 C621 1.392 . S
C622 C623 1.385 . S
C622 C624 1.478 . S
C623 H617 0.930 . S
C623 C619 1.400 1_556 S
C623 C622 1.385 . S
C624 C622 1.478 . S
C624 C626 1.381 . S
C624 C630 1.383 . S
C625 C621 1.495 . S
C625 H631 0.959 . S
C625 H632 0.961 . S
C625 H633 0.960 . S
C626 C624 1.381 . S
C626 C627 1.394 . S
C626 H634 0.930 . S
C627 C626 1.394 . S
C627 C628 1.383 . S
C627 H635 0.929 . S
C628 C627 1.383 . S
C628 C629 1.377 . S
C629 H613 0.930 . S
C629 C628 1.377 . S
C629 C630 1.379 . S
C630 H614 0.931 . S
C630 C624 1.383 . S
C630 C629 1.379 . S
H631 C625 0.959 . S
H632 C625 0.961 . S
H633 C625 0.960 . S
H634 C626 0.930 . S
H635 C627 0.929 . S
H636 C644 0.929 . S
H637 C646 0.930 . S
H638 C648 0.930 . S
H639 C651 0.929 . S
H640 C654 0.930 . S
H641 C656 0.960 . S
H642 C656 0.960 . S
H643 C656 0.960 . S
C644 H636 0.929 . S
C644 C645 1.377 . S
C644 C646 1.384 . S
C645 C644 1.377 . S
C645 C651 1.390 . S
C646 H637 0.930 . S
C646 C644 1.384 . S
C646 C647 1.372 . S
C647 C646 1.372 . S
C647 C648 1.400 . S
C647 C652 1.490 . S
C648 H638 0.930 . S
C648 C647 1.400 . S
C648 C651 1.386 . S
H649 C665 0.930 . S
H650 C666 0.931 . S
C651 H639 0.929 . S
C651 C645 1.390 . S
C651 C648 1.386 . S
C652 C647 1.490 . S
C652 C654 1.395 . S
C652 C655 1.403 . S
H653 C659 0.930 . S
C654 H640 0.930 . S
C654 C652 1.395 . S
C654 C657 1.403 . S
C655 C652 1.403 . S
C655 C656 1.524 . S
C655 C659 1.400 . S
C656 H641 0.960 . S
C656 H642 0.960 . S
C656 H643 0.960 . S
C656 C655 1.524 . S
C657 C654 1.403 . S
C657 C658 1.392 . S
C657 C661 1.495 . S
C658 C657 1.392 . S
C658 C659 1.385 . S
C658 C660 1.478 . S
C659 H653 0.930 . S
C659 C655 1.400 . S
C659 C658 1.385 . S
C660 C658 1.478 . S
C660 C662 1.381 . S
C660 C666 1.383 . S
C661 C657 1.495 . S
C661 H667 0.959 . S
C661 H668 0.961 . S
C661 H669 0.960 . S
C662 C660 1.381 . S
C662 C663 1.394 . S
C662 H670 0.930 . S
C663 C662 1.394 . S
C663 C664 1.383 . S
C663 H671 0.929 . S
C664 C663 1.383 . S
C664 C665 1.377 . S
C665 H649 0.930 . S
C665 C664 1.377 . S
C665 C666 1.379 . S
C666 H650 0.931 . S
C666 C660 1.383 . S
C666 C665 1.379 . S
H667 C661 0.959 . S
H668 C661 0.961 . S
H669 C661 0.960 . S
H670 C662 0.930 . S
H671 C663 0.929 . S
H672 C680 0.929 . S
H673 C682 0.930 . S
H674 C684 0.930 . S
H675 C687 0.929 . S
H676 C690 0.930 . S
H677 C692 0.960 . S
H678 C692 0.960 . S
H679 C692 0.960 . S
C680 H672 0.929 . S
C680 C681 1.377 . S
C680 C682 1.384 . S
C681 C680 1.377 . S
C681 C687 1.390 . S
C682 H673 0.930 . S
C682 C680 1.384 . S
C682 C683 1.372 . S
C683 C682 1.372 . S
C683 C684 1.400 . S
C683 C688 1.490 . S
C684 H674 0.930 . S
C684 C683 1.400 . S
C684 C687 1.386 . S
H685 C701 0.930 . S
H686 C702 0.931 . S
C687 H675 0.929 . S
C687 C681 1.390 . S
C687 C684 1.386 . S
C688 C683 1.490 . S
C688 C690 1.395 . S
C688 C691 1.403 . S
H689 C695 0.930 . S
C690 H676 0.930 . S
C690 C688 1.395 . S
C690 C693 1.403 . S
C691 C688 1.403 . S
C691 C692 1.524 . S
C691 C695 1.400 . S
C692 H677 0.960 . S
C692 H678 0.960 . S
C692 H679 0.960 . S
C692 C691 1.524 . S
C693 C690 1.403 . S
C693 C694 1.392 . S
C693 C697 1.495 . S
C694 C693 1.392 . S
C694 C695 1.385 . S
C694 C696 1.478 . S
C695 H689 0.930 . S
C695 C691 1.400 . S
C695 C694 1.385 . S
C696 C694 1.478 . S
C696 C698 1.381 . S
C696 C702 1.383 . S
C697 C693 1.495 . S
C697 H703 0.959 . S
C697 H704 0.961 . S
C697 H705 0.960 . S
C698 C696 1.381 . S
C698 C699 1.394 . S
C698 H706 0.930 . S
C699 C698 1.394 . S
C699 C700 1.383 . S
C699 H707 0.929 . S
C700 C699 1.383 . S
C700 C701 1.377 . S
C701 H685 0.930 . S
C701 C700 1.377 . S
C701 C702 1.379 . S
C702 H686 0.931 . S
C702 C696 1.383 . S
C702 C701 1.379 . S
H703 C697 0.959 . S
H704 C697 0.961 . S
H705 C697 0.960 . S
H706 C698 0.930 . S
H707 C699 0.929 . S
H708 C716 0.929 . S
H709 C718 0.930 . S
H710 C720 0.930 . S
H711 C723 0.929 . S
H712 C726 0.930 . S
H713 C728 0.960 . S
H714 C728 0.960 . S
H715 C728 0.960 . S
C716 H708 0.929 . S
C716 C717 1.377 . S
C716 C718 1.384 . S
C717 C716 1.377 . S
C717 C723 1.390 . S
C718 H709 0.930 . S
C718 C716 1.384 . S
C718 C719 1.372 . S
C719 C718 1.372 . S
C719 C720 1.400 . S
C719 C724 1.490 . S
C720 H710 0.930 . S
C720 C719 1.400 . S
C720 C723 1.386 . S
H721 C737 0.930 . S
H722 C738 0.931 . S
C723 H711 0.929 . S
C723 C717 1.390 . S
C723 C720 1.386 . S
C724 C719 1.490 . S
C724 C726 1.395 . S
C724 C727 1.403 . S
H725 C731 0.930 . S
C726 H712 0.930 . S
C726 C724 1.395 . S
C726 C729 1.403 1_556 S
C727 C724 1.403 . S
C727 C728 1.524 . S
C727 C731 1.400 1_556 S
C728 H713 0.960 . S
C728 H714 0.960 . S
C728 H715 0.960 . S
C728 C727 1.524 . S
C729 C726 1.403 1_554 S
C729 C730 1.392 . S
C729 C733 1.495 . S
C730 C729 1.392 . S
C730 C731 1.385 . S
C730 C732 1.478 . S
C731 H725 0.930 . S
C731 C727 1.400 1_554 S
C731 C730 1.385 . S
C732 C730 1.478 . S
C732 C734 1.381 . S
C732 C738 1.383 . S
C733 C729 1.495 . S
C733 H739 0.959 . S
C733 H740 0.961 . S
C733 H741 0.960 . S
C734 C732 1.381 . S
C734 C735 1.394 . S
C734 H742 0.930 . S
C735 C734 1.394 . S
C735 C736 1.383 . S
C735 H743 0.929 . S
C736 C735 1.383 . S
C736 C737 1.377 . S
C737 H721 0.930 . S
C737 C736 1.377 . S
C737 C738 1.379 . S
C738 H722 0.931 . S
C738 C732 1.383 . S
C738 C737 1.379 . S
H739 C733 0.959 . S
H740 C733 0.961 . S
H741 C733 0.960 . S
H742 C734 0.930 . S
H743 C735 0.929 . S
H744 C752 0.929 . S
H745 C754 0.930 . S
H746 C756 0.930 . S
H747 C759 0.929 . S
H748 C762 0.930 . S
H749 C764 0.960 . S
H750 C764 0.960 . S
H751 C764 0.960 . S
C752 H744 0.929 . S
C752 C753 1.377 . S
C752 C754 1.384 . S
C753 C752 1.377 . S
C753 C759 1.390 . S
C754 H745 0.930 . S
C754 C752 1.384 . S
C754 C755 1.372 . S
C755 C754 1.372 . S
C755 C756 1.400 . S
C755 C760 1.490 . S
C756 H746 0.930 . S
C756 C755 1.400 . S
C756 C759 1.386 . S
H757 C773 0.930 . S
H758 C774 0.931 . S
C759 H747 0.929 . S
C759 C753 1.390 . S
C759 C756 1.386 . S
C760 C755 1.490 . S
C760 C762 1.395 . S
C760 C763 1.403 . S
H761 C767 0.930 . S
C762 H748 0.930 . S
C762 C760 1.395 . S
C762 C765 1.403 . S
C763 C760 1.403 . S
C763 C764 1.524 . S
C763 C767 1.400 . S
C764 H749 0.960 . S
C764 H750 0.960 . S
C764 H751 0.960 . S
C764 C763 1.524 . S
C765 C762 1.403 . S
C765 C766 1.392 . S
C765 C769 1.495 . S
C766 C765 1.392 . S
C766 C767 1.385 . S
C766 C768 1.478 . S
C767 H761 0.930 . S
C767 C763 1.400 . S
C767 C766 1.385 . S
C768 C766 1.478 . S
C768 C770 1.381 . S
C768 C774 1.383 . S
C769 C765 1.495 . S
C769 H775 0.959 . S
C769 H776 0.961 . S
C769 H777 0.960 . S
C770 C768 1.381 . S
C770 C771 1.394 . S
C770 H778 0.930 . S
C771 C770 1.394 . S
C771 C772 1.383 . S
C771 H779 0.929 . S
C772 C771 1.383 . S
C772 C773 1.377 . S
C773 H757 0.930 . S
C773 C772 1.377 . S
C773 C774 1.379 . S
C774 H758 0.931 . S
C774 C768 1.383 . S
C774 C773 1.379 . S
H775 C769 0.959 . S
H776 C769 0.961 . S
H777 C769 0.960 . S
H778 C770 0.930 . S
H779 C771 0.929 . S
H780 C788 0.929 . S
H781 C790 0.930 . S
H782 C792 0.930 . S
H783 C795 0.929 . S
H784 C798 0.930 . S
H785 C800 0.960 . S
H786 C800 0.960 . S
H787 C800 0.960 . S
C788 H780 0.929 . S
C788 C789 1.377 . S
C788 C790 1.384 . S
C789 C788 1.377 . S
C789 C795 1.390 . S
C790 H781 0.930 . S
C790 C788 1.384 . S
C790 C791 1.372 . S
C791 C790 1.372 . S
C791 C792 1.400 . S
C791 C796 1.490 . S
C792 H782 0.930 . S
C792 C791 1.400 . S
C792 C795 1.386 . S
H793 C809 0.930 . S
H794 C810 0.931 . S
C795 H783 0.929 . S
C795 C789 1.390 . S
C795 C792 1.386 . S
C796 C791 1.490 . S
C796 C798 1.395 . S
C796 C799 1.403 . S
H797 C803 0.930 . S
C798 H784 0.930 . S
C798 C796 1.395 . S
C798 C801 1.403 . S
C799 C796 1.403 . S
C799 C800 1.524 . S
C799 C803 1.400 . S
C800 H785 0.960 . S
C800 H786 0.960 . S
C800 H787 0.960 . S
C800 C799 1.524 . S
C801 C798 1.403 . S
C801 C802 1.392 . S
C801 C805 1.495 . S
C802 C801 1.392 . S
C802 C803 1.385 . S
C802 C804 1.478 . S
C803 H797 0.930 . S
C803 C799 1.400 . S
C803 C802 1.385 . S
C804 C802 1.478 . S
C804 C806 1.381 . S
C804 C810 1.383 . S
C805 C801 1.495 . S
C805 H811 0.959 . S
C805 H812 0.961 . S
C805 H813 0.960 . S
C806 C804 1.381 . S
C806 C807 1.394 . S
C806 H814 0.930 . S
C807 C806 1.394 . S
C807 C808 1.383 . S
C807 H815 0.929 . S
C808 C807 1.383 . S
C808 C809 1.377 . S
C809 H793 0.930 . S
C809 C808 1.377 . S
C809 C810 1.379 . S
C810 H794 0.931 . S
C810 C804 1.383 . S
C810 C809 1.379 . S
H811 C805 0.959 . S
H812 C805 0.961 . S
H813 C805 0.960 . S
H814 C806 0.930 . S
H815 C807 0.929 . S
H816 C824 0.929 . S
H817 C826 0.930 . S
H818 C828 0.930 . S
H819 C831 0.929 . S
H820 C834 0.930 . S
H821 C836 0.960 . S
H822 C836 0.960 . S
H823 C836 0.960 . S
C824 H816 0.929 . S
C824 C825 1.377 . S
C824 C826 1.384 . S
C825 C824 1.377 . S
C825 C831 1.390 . S
C826 H817 0.930 . S
C826 C824 1.384 . S
C826 C827 1.372 . S
C827 C826 1.372 . S
C827 C828 1.400 . S
C827 C832 1.490 . S
C828 H818 0.930 . S
C828 C827 1.400 . S
C828 C831 1.386 . S
H829 C845 0.930 . S
H830 C846 0.931 . S
C831 H819 0.929 . S
C831 C825 1.390 . S
C831 C828 1.386 . S
C832 C827 1.490 . S
C832 C834 1.395 . S
C832 C835 1.403 . S
H833 C839 0.930 . S
C834 H820 0.930 . S
C834 C832 1.395 . S
C834 C837 1.403 . S
C835 C832 1.403 . S
C835 C836 1.524 . S
C835 C839 1.400 . S
C836 H821 0.960 . S
C836 H822 0.960 . S
C836 H823 0.960 . S
C836 C835 1.524 . S
C837 C834 1.403 . S
C837 C838 1.392 . S
C837 C841 1.495 . S
C838 C837 1.392 . S
C838 C839 1.385 . S
C838 C840 1.478 . S
C839 H833 0.930 . S
C839 C835 1.400 . S
C839 C838 1.385 . S
C840 C838 1.478 . S
C840 C842 1.381 . S
C840 C846 1.383 . S
C841 C837 1.495 . S
C841 H847 0.959 . S
C841 H848 0.961 . S
C841 H849 0.960 . S
C842 C840 1.381 . S
C842 C843 1.394 . S
C842 H850 0.930 . S
C843 C842 1.394 . S
C843 C844 1.383 . S
C843 H851 0.929 . S
C844 C843 1.383 . S
C844 C845 1.377 . S
C845 H829 0.930 . S
C845 C844 1.377 . S
C845 C846 1.379 . S
C846 H830 0.931 . S
C846 C840 1.383 . S
C846 C845 1.379 . S
H847 C841 0.959 . S
H848 C841 0.961 . S
H849 C841 0.960 . S
H850 C842 0.930 . S
H851 C843 0.929 . S
H852 C860 0.929 . S
H853 C862 0.930 . S
H854 C864 0.930 . S
H855 C867 0.929 . S
H856 C870 0.930 . S
H857 C872 0.960 . S
H858 C872 0.960 . S
H859 C872 0.960 . S
C860 H852 0.929 . S
C860 C861 1.377 . S
C860 C862 1.384 . S
C861 C860 1.377 . S
C861 C867 1.390 . S
C862 H853 0.930 . S
C862 C860 1.384 . S
C862 C863 1.372 . S
C863 C862 1.372 . S
C863 C864 1.400 . S
C863 C868 1.490 . S
C864 H854 0.930 . S
C864 C863 1.400 . S
C864 C867 1.386 . S
H865 C881 0.930 . S
H866 C882 0.931 . S
C867 H855 0.929 . S
C867 C861 1.390 . S
C867 C864 1.386 . S
C868 C863 1.490 . S
C868 C870 1.395 . S
C868 C871 1.403 . S
H869 C875 0.930 . S
C870 H856 0.930 . S
C870 C868 1.395 . S
C870 C873 1.403 . S
C871 C868 1.403 . S
C871 C872 1.524 . S
C871 C875 1.400 . S
C872 H857 0.960 . S
C872 H858 0.960 . S
C872 H859 0.960 . S
C872 C871 1.524 . S
C873 C870 1.403 . S
C873 C874 1.392 . S
C873 C877 1.495 . S
C874 C873 1.392 . S
C874 C875 1.385 . S
C874 C876 1.478 . S
C875 H869 0.930 . S
C875 C871 1.400 . S
C875 C874 1.385 . S
C876 C874 1.478 . S
C876 C878 1.381 . S
C876 C882 1.383 . S
C877 C873 1.495 . S
C877 H883 0.959 . S
C877 H884 0.961 . S
C877 H885 0.960 . S
C878 C876 1.381 . S
C878 C879 1.394 . S
C878 H886 0.930 . S
C879 C878 1.394 . S
C879 C880 1.383 . S
C879 H887 0.929 . S
C880 C879 1.383 . S
C880 C881 1.377 . S
C881 H865 0.930 . S
C881 C880 1.377 . S
C881 C882 1.379 . S
C882 H866 0.931 . S
C882 C876 1.383 . S
C882 C881 1.379 . S
H883 C877 0.959 . S
H884 C877 0.961 . S
H885 C877 0.960 . S
H886 C878 0.930 . S
H887 C879 0.929 . S
H888 C896 0.929 . S
H889 C898 0.930 . S
H890 C900 0.930 . S
H891 C903 0.929 . S
H892 C906 0.930 . S
H893 C908 0.960 . S
H894 C908 0.960 . S
H895 C908 0.960 . S
C896 H888 0.929 . S
C896 C897 1.377 . S
C896 C898 1.384 . S
C897 C896 1.377 . S
C897 C903 1.390 . S
C898 H889 0.930 . S
C898 C896 1.384 . S
C898 C899 1.372 . S
C899 C898 1.372 . S
C899 C900 1.400 . S
C899 C904 1.490 . S
C900 H890 0.930 . S
C900 C899 1.400 . S
C900 C903 1.386 . S
H901 C917 0.930 . S
H902 C918 0.931 . S
C903 H891 0.929 . S
C903 C897 1.390 . S
C903 C900 1.386 . S
C904 C899 1.490 . S
C904 C906 1.395 . S
C904 C907 1.403 . S
H905 C911 0.930 . S
C906 H892 0.930 . S
C906 C904 1.395 . S
C906 C909 1.403 . S
C907 C904 1.403 . S
C907 C908 1.524 . S
C907 C911 1.400 . S
C908 H893 0.960 . S
C908 H894 0.960 . S
C908 H895 0.960 . S
C908 C907 1.524 . S
C909 C906 1.403 . S
C909 C910 1.392 . S
C909 C913 1.495 . S
C910 C909 1.392 . S
C910 C911 1.385 . S
C910 C912 1.478 . S
C911 H905 0.930 . S
C911 C907 1.400 . S
C911 C910 1.385 . S
C912 C910 1.478 . S
C912 C914 1.381 . S
C912 C918 1.383 . S
C913 C909 1.495 . S
C913 H919 0.959 . S
C913 H920 0.961 . S
C913 H921 0.960 . S
C914 C912 1.381 . S
C914 C915 1.394 . S
C914 H922 0.930 . S
C915 C914 1.394 . S
C915 C916 1.383 . S
C915 H923 0.929 . S
C916 C915 1.383 . S
C916 C917 1.377 . S
C917 H901 0.930 . S
C917 C916 1.377 . S
C917 C918 1.379 . S
C918 H902 0.931 . S
C918 C912 1.383 . S
C918 C917 1.379 . S
H919 C913 0.959 . S
H920 C913 0.961 . S
H921 C913 0.960 . S
H922 C914 0.930 . S
H923 C915 0.929 . S
H924 C932 0.929 1_554 S
H925 C934 0.930 . S
H926 C936 0.930 . S
H927 C939 0.929 . S
H928 C942 0.930 . S
H929 C944 0.960 . S
H930 C944 0.960 . S
H931 C944 0.960 . S
C932 H924 0.929 1_556 S
C932 C933 1.377 . S
C932 C934 1.384 . S
C933 C932 1.377 . S
C933 C939 1.390 . S
C934 H925 0.930 . S
C934 C932 1.384 . S
C934 C935 1.372 . S
C935 C934 1.372 . S
C935 C936 1.400 . S
C935 C940 1.490 . S
C936 H926 0.930 . S
C936 C935 1.400 . S
C936 C939 1.386 . S
H937 C953 0.930 . S
H938 C954 0.931 . S
C939 H927 0.929 . S
C939 C933 1.390 . S
C939 C936 1.386 . S
C940 C935 1.490 . S
C940 C942 1.395 . S
C940 C943 1.403 . S
H941 C947 0.930 . S
C942 H928 0.930 . S
C942 C940 1.395 . S
C942 C945 1.403 . S
C943 C940 1.403 . S
C943 C944 1.524 . S
C943 C947 1.400 . S
C944 H929 0.960 . S
C944 H930 0.960 . S
C944 H931 0.960 . S
C944 C943 1.524 . S
C945 C942 1.403 . S
C945 C946 1.392 . S
C945 C949 1.495 . S
C946 C945 1.392 . S
C946 C947 1.385 . S
C946 C948 1.478 . S
C947 H941 0.930 . S
C947 C943 1.400 . S
C947 C946 1.385 . S
C948 C946 1.478 . S
C948 C950 1.381 . S
C948 C954 1.383 . S
C949 C945 1.495 . S
C949 H955 0.959 . S
C949 H956 0.961 . S
C949 H957 0.960 . S
C950 C948 1.381 . S
C950 C951 1.394 . S
C950 H958 0.930 . S
C951 C950 1.394 . S
C951 C952 1.383 . S
C951 H959 0.929 . S
C952 C951 1.383 . S
C952 C953 1.377 . S
C953 H937 0.930 . S
C953 C952 1.377 . S
C953 C954 1.379 . S
C954 H938 0.931 . S
C954 C948 1.383 . S
C954 C953 1.379 . S
H955 C949 0.959 . S
H956 C949 0.961 . S
H957 C949 0.960 . S
H958 C950 0.930 . S
H959 C951 0.929 . S
H960 C968 0.929 1_556 S
H961 C970 0.930 . S
H962 C972 0.930 . S
H963 C975 0.929 . S
H964 C978 0.930 . S
H965 C980 0.960 . S
H966 C980 0.960 . S
H967 C980 0.960 . S
C968 H960 0.929 1_554 S
C968 C969 1.377 . S
C968 C970 1.384 . S
C969 C968 1.377 . S
C969 C975 1.390 . S
C970 H961 0.930 . S
C970 C968 1.384 . S
C970 C971 1.372 . S
C971 C970 1.372 . S
C971 C972 1.400 . S
C971 C976 1.490 . S
C972 H962 0.930 . S
C972 C971 1.400 . S
C972 C975 1.386 . S
H973 C989 0.930 . S
H974 C990 0.931 . S
C975 H963 0.929 . S
C975 C969 1.390 . S
C975 C972 1.386 . S
C976 C971 1.490 . S
C976 C978 1.395 . S
C976 C979 1.403 . S
H977 C983 0.930 . S
C978 H964 0.930 . S
C978 C976 1.395 . S
C978 C981 1.403 . S
C979 C976 1.403 . S
C979 C980 1.524 . S
C979 C983 1.400 . S
C980 H965 0.960 . S
C980 H966 0.960 . S
C980 H967 0.960 . S
C980 C979 1.524 . S
C981 C978 1.403 . S
C981 C982 1.392 . S
C981 C985 1.495 . S
C982 C981 1.392 . S
C982 C983 1.385 . S
C982 C984 1.478 . S
C983 H977 0.930 . S
C983 C979 1.400 . S
C983 C982 1.385 . S
C984 C982 1.478 . S
C984 C986 1.381 . S
C984 C990 1.383 . S
C985 C981 1.495 . S
C985 H991 0.959 . S
C985 H992 0.961 . S
C985 H993 0.960 . S
C986 C984 1.381 . S
C986 C987 1.394 . S
C986 H994 0.930 . S
C987 C986 1.394 . S
C987 C988 1.383 . S
C987 H995 0.929 . S
C988 C987 1.383 . S
C988 C989 1.377 . S
C989 H973 0.930 . S
C989 C988 1.377 . S
C989 C990 1.379 . S
C990 H974 0.931 . S
C990 C984 1.383 . S
C990 C989 1.379 . S
H991 C985 0.959 . S
H992 C985 0.961 . S
H993 C985 0.960 . S
H994 C986 0.930 . S
H995 C987 0.929 . S
H996 C1004 0.929 . S
H997 C1006 0.930 . S
H998 C1008 0.930 . S
H999 C1011 0.929 . S
H1000 C1014 0.930 . S
H1001 C1016 0.960 . S
H1002 C1016 0.960 . S
H1003 C1016 0.960 . S
C1004 H996 0.929 . S
C1004 C1005 1.377 . S
C1004 C1006 1.384 . S
C1005 C1004 1.377 . S
C1005 C1011 1.390 . S
C1006 H997 0.930 . S
C1006 C1004 1.384 . S
C1006 C1007 1.372 . S
C1007 C1006 1.372 . S
C1007 C1008 1.400 . S
C1007 C1012 1.490 . S
C1008 H998 0.930 . S
C1008 C1007 1.400 . S
C1008 C1011 1.386 . S
H1009 C1025 0.930 . S
H1010 C1026 0.931 . S
C1011 H999 0.929 . S
C1011 C1005 1.390 . S
C1011 C1008 1.386 . S
C1012 C1007 1.490 . S
C1012 C1014 1.395 . S
C1012 C1015 1.403 . S
H1013 C1019 0.930 . S
C1014 H1000 0.930 . S
C1014 C1012 1.395 . S
C1014 C1017 1.403 . S
C1015 C1012 1.403 . S
C1015 C1016 1.524 . S
C1015 C1019 1.400 . S
C1016 H1001 0.960 . S
C1016 H1002 0.960 . S
C1016 H1003 0.960 . S
C1016 C1015 1.524 . S
C1017 C1014 1.403 . S
C1017 C1018 1.392 . S
C1017 C1021 1.495 . S
C1018 C1017 1.392 . S
C1018 C1019 1.385 . S
C1018 C1020 1.478 . S
C1019 H1013 0.930 . S
C1019 C1015 1.400 . S
C1019 C1018 1.385 . S
C1020 C1018 1.478 . S
C1020 C1022 1.381 . S
C1020 C1026 1.383 . S
C1021 C1017 1.495 . S
C1021 H1027 0.959 . S
C1021 H1028 0.961 . S
C1021 H1029 0.960 . S
C1022 C1020 1.381 . S
C1022 C1023 1.394 . S
C1022 H1030 0.930 . S
C1023 C1022 1.394 . S
C1023 C1024 1.383 . S
C1023 H1031 0.929 . S
C1024 C1023 1.383 . S
C1024 C1025 1.377 . S
C1025 H1009 0.930 . S
C1025 C1024 1.377 . S
C1025 C1026 1.379 . S
C1026 H1010 0.931 . S
C1026 C1020 1.383 . S
C1026 C1025 1.379 . S
H1027 C1021 0.959 . S
H1028 C1021 0.961 . S
H1029 C1021 0.960 . S
H1030 C1022 0.930 . S
H1031 C1023 0.929 . S
H1032 C1040 0.929 . S
H1033 C1042 0.930 . S
H1034 C1044 0.930 . S
H1035 C1047 0.929 . S
H1036 C1050 0.930 . S
H1037 C1052 0.960 . S
H1038 C1052 0.960 . S
H1039 C1052 0.960 . S
C1040 H1032 0.929 . S
C1040 C1041 1.377 . S
C1040 C1042 1.384 . S
C1041 C1040 1.377 . S
C1041 C1047 1.390 . S
C1042 H1033 0.930 . S
C1042 C1040 1.384 . S
C1042 C1043 1.372 . S
C1043 C1042 1.372 . S
C1043 C1044 1.400 . S
C1043 C1048 1.490 . S
C1044 H1034 0.930 . S
C1044 C1043 1.400 . S
C1044 C1047 1.386 . S
H1045 C1061 0.930 . S
H1046 C1062 0.931 . S
C1047 H1035 0.929 . S
C1047 C1041 1.390 . S
C1047 C1044 1.386 . S
C1048 C1043 1.490 . S
C1048 C1050 1.395 . S
C1048 C1051 1.403 . S
H1049 C1055 0.930 . S
C1050 H1036 0.930 . S
C1050 C1048 1.395 . S
C1050 C1053 1.403 . S
C1051 C1048 1.403 . S
C1051 C1052 1.524 . S
C1051 C1055 1.400 . S
C1052 H1037 0.960 . S
C1052 H1038 0.960 . S
C1052 H1039 0.960 . S
C1052 C1051 1.524 . S
C1053 C1050 1.403 . S
C1053 C1054 1.392 . S
C1053 C1057 1.495 . S
C1054 C1053 1.392 . S
C1054 C1055 1.385 . S
C1054 C1056 1.478 . S
C1055 H1049 0.930 . S
C1055 C1051 1.400 . S
C1055 C1054 1.385 . S
C1056 C1054 1.478 . S
C1056 C1058 1.381 . S
C1056 C1062 1.383 . S
C1057 C1053 1.495 . S
C1057 H1063 0.959 . S
C1057 H1064 0.961 . S
C1057 H1065 0.960 . S
C1058 C1056 1.381 . S
C1058 C1059 1.394 . S
C1058 H1066 0.930 . S
C1059 C1058 1.394 . S
C1059 C1060 1.383 . S
C1059 H1067 0.929 . S
C1060 C1059 1.383 . S
C1060 C1061 1.377 . S
C1061 H1045 0.930 . S
C1061 C1060 1.377 . S
C1061 C1062 1.379 . S
C1062 H1046 0.931 . S
C1062 C1056 1.383 . S
C1062 C1061 1.379 . S
H1063 C1057 0.959 . S
H1064 C1057 0.961 . S
H1065 C1057 0.960 . S
H1066 C1058 0.930 . S
H1067 C1059 0.929 . S
H1068 C1076 0.929 . S
H1069 C1078 0.930 . S
H1070 C1080 0.930 . S
H1071 C1083 0.929 . S
H1072 C1086 0.930 . S
H1073 C1088 0.960 . S
H1074 C1088 0.960 . S
H1075 C1088 0.960 . S
C1076 H1068 0.929 . S
C1076 C1077 1.377 . S
C1076 C1078 1.384 . S
C1077 C1076 1.377 . S
C1077 C1083 1.390 . S
C1078 H1069 0.930 . S
C1078 C1076 1.384 . S
C1078 C1079 1.372 . S
C1079 C1078 1.372 . S
C1079 C1080 1.400 . S
C1079 C1084 1.490 . S
C1080 H1070 0.930 . S
C1080 C1079 1.400 . S
C1080 C1083 1.386 . S
H1081 C1097 0.930 . S
H1082 C1098 0.931 . S
C1083 H1071 0.929 . S
C1083 C1077 1.390 . S
C1083 C1080 1.386 . S
C1084 C1079 1.490 . S
C1084 C1086 1.395 . S
C1084 C1087 1.403 . S
H1085 C1091 0.930 . S
C1086 H1072 0.930 . S
C1086 C1084 1.395 . S
C1086 C1089 1.403 . S
C1087 C1084 1.403 . S
C1087 C1088 1.524 . S
C1087 C1091 1.400 . S
C1088 H1073 0.960 . S
C1088 H1074 0.960 . S
C1088 H1075 0.960 . S
C1088 C1087 1.524 . S
C1089 C1086 1.403 . S
C1089 C1090 1.392 . S
C1089 C1093 1.495 . S
C1090 C1089 1.392 . S
C1090 C1091 1.385 . S
C1090 C1092 1.478 . S
C1091 H1085 0.930 . S
C1091 C1087 1.400 . S
C1091 C1090 1.385 . S
C1092 C1090 1.478 . S
C1092 C1094 1.381 . S
C1092 C1098 1.383 . S
C1093 C1089 1.495 . S
C1093 H1099 0.959 . S
C1093 H1100 0.961 . S
C1093 H1101 0.960 . S
C1094 C1092 1.381 . S
C1094 C1095 1.394 . S
C1094 H1102 0.930 . S
C1095 C1094 1.394 . S
C1095 C1096 1.383 . S
C1095 H1103 0.929 . S
C1096 C1095 1.383 . S
C1096 C1097 1.377 . S
C1097 H1081 0.930 . S
C1097 C1096 1.377 . S
C1097 C1098 1.379 . S
C1098 H1082 0.931 . S
C1098 C1092 1.383 . S
C1098 C1097 1.379 . S
H1099 C1093 0.959 . S
H1100 C1093 0.961 . S
H1101 C1093 0.960 . S
H1102 C1094 0.930 . S
H1103 C1095 0.929 . S
H1104 C1112 0.929 . S
H1105 C1114 0.930 . S
H1106 C1116 0.930 . S
H1107 C1119 0.929 . S
H1108 C1122 0.930 . S
H1109 C1124 0.960 . S
H1110 C1124 0.960 . S
H1111 C1124 0.960 . S
C1112 H1104 0.929 . S
C1112 C1113 1.377 . S
C1112 C1114 1.384 . S
C1113 C1112 1.377 . S
C1113 C1119 1.390 . S
C1114 H1105 0.930 . S
C1114 C1112 1.384 . S
C1114 C1115 1.372 . S
C1115 C1114 1.372 . S
C1115 C1116 1.400 . S
C1115 C1120 1.490 . S
C1116 H1106 0.930 . S
C1116 C1115 1.400 . S
C1116 C1119 1.386 . S
H1117 C1133 0.930 . S
H1118 C1134 0.931 . S
C1119 H1107 0.929 . S
C1119 C1113 1.390 . S
C1119 C1116 1.386 . S
C1120 C1115 1.490 . S
C1120 C1122 1.395 . S
C1120 C1123 1.403 . S
H1121 C1127 0.930 . S
C1122 H1108 0.930 . S
C1122 C1120 1.395 . S
C1122 C1125 1.403 . S
C1123 C1120 1.403 . S
C1123 C1124 1.524 . S
C1123 C1127 1.400 . S
C1124 H1109 0.960 . S
C1124 H1110 0.960 . S
C1124 H1111 0.960 . S
C1124 C1123 1.524 . S
C1125 C1122 1.403 . S
C1125 C1126 1.392 . S
C1125 C1129 1.495 . S
C1126 C1125 1.392 . S
C1126 C1127 1.385 . S
C1126 C1128 1.478 . S
C1127 H1121 0.930 . S
C1127 C1123 1.400 . S
C1127 C1126 1.385 . S
C1128 C1126 1.478 . S
C1128 C1130 1.381 . S
C1128 C1134 1.383 . S
C1129 C1125 1.495 . S
C1129 H1135 0.959 . S
C1129 H1136 0.961 . S
C1129 H1137 0.960 . S
C1130 C1128 1.381 . S
C1130 C1131 1.394 . S
C1130 H1138 0.930 . S
C1131 C1130 1.394 . S
C1131 C1132 1.383 . S
C1131 H1139 0.929 . S
C1132 C1131 1.383 . S
C1132 C1133 1.377 . S
C1133 H1117 0.930 . S
C1133 C1132 1.377 . S
C1133 C1134 1.379 . S
C1134 H1118 0.931 . S
C1134 C1128 1.383 . S
C1134 C1133 1.379 . S
H1135 C1129 0.959 . S
H1136 C1129 0.961 . S
H1137 C1129 0.960 . S
H1138 C1130 0.930 . S
H1139 C1131 0.929 . S
H1140 C1148 0.929 . S
H1141 C1150 0.930 . S
H1142 C1152 0.930 . S
H1143 C1155 0.929 . S
H1144 C1158 0.930 . S
H1145 C1160 0.960 . S
H1146 C1160 0.960 . S
H1147 C1160 0.960 . S
C1148 H1140 0.929 . S
C1148 C1149 1.377 . S
C1148 C1150 1.384 . S
C1149 C1148 1.377 . S
C1149 C1155 1.390 . S
C1150 H1141 0.930 . S
C1150 C1148 1.384 . S
C1150 C1151 1.372 . S
C1151 C1150 1.372 . S
C1151 C1152 1.400 . S
C1151 C1156 1.490 . S
C1152 H1142 0.930 . S
C1152 C1151 1.400 . S
C1152 C1155 1.386 . S
H1153 C1169 0.930 . S
H1154 C1170 0.931 . S
C1155 H1143 0.929 . S
C1155 C1149 1.390 . S
C1155 C1152 1.386 . S
C1156 C1151 1.490 . S
C1156 C1158 1.395 . S
C1156 C1159 1.403 . S
H1157 C1163 0.930 . S
C1158 H1144 0.930 . S
C1158 C1156 1.395 . S
C1158 C1161 1.403 . S
C1159 C1156 1.403 . S
C1159 C1160 1.524 . S
C1159 C1163 1.400 . S
C1160 H1145 0.960 . S
C1160 H1146 0.960 . S
C1160 H1147 0.960 . S
C1160 C1159 1.524 . S
C1161 C1158 1.403 . S
C1161 C1162 1.392 . S
C1161 C1165 1.495 . S
C1162 C1161 1.392 . S
C1162 C1163 1.385 . S
C1162 C1164 1.478 . S
C1163 H1157 0.930 . S
C1163 C1159 1.400 . S
C1163 C1162 1.385 . S
C1164 C1162 1.478 . S
C1164 C1166 1.381 . S
C1164 C1170 1.383 . S
C1165 C1161 1.495 . S
C1165 H1171 0.959 . S
C1165 H1172 0.961 . S
C1165 H1173 0.960 . S
C1166 C1164 1.381 . S
C1166 C1167 1.394 . S
C1166 H1174 0.930 . S
C1167 C1166 1.394 . S
C1167 C1168 1.383 . S
C1167 H1175 0.929 . S
C1168 C1167 1.383 . S
C1168 C1169 1.377 . S
C1169 H1153 0.930 . S
C1169 C1168 1.377 . S
C1169 C1170 1.379 . S
C1170 H1154 0.931 . S
C1170 C1164 1.383 . S
C1170 C1169 1.379 . S
H1171 C1165 0.959 . S
H1172 C1165 0.961 . S
H1173 C1165 0.960 . S
H1174 C1166 0.930 . S
H1175 C1167 0.929 . S
H1176 C1184 0.929 . S
H1177 C1186 0.930 . S
H1178 C1188 0.930 . S
H1179 C1191 0.929 . S
H1180 C1194 0.930 . S
H1181 C1196 0.960 . S
H1182 C1196 0.960 . S
H1183 C1196 0.960 . S
C1184 H1176 0.929 . S
C1184 C1185 1.377 . S
C1184 C1186 1.384 . S
C1185 C1184 1.377 . S
C1185 C1191 1.390 . S
C1186 H1177 0.930 . S
C1186 C1184 1.384 . S
C1186 C1187 1.372 . S
C1187 C1186 1.372 . S
C1187 C1188 1.400 . S
C1187 C1192 1.490 . S
C1188 H1178 0.930 . S
C1188 C1187 1.400 . S
C1188 C1191 1.386 . S
H1189 C1205 0.930 . S
H1190 C1206 0.931 . S
C1191 H1179 0.929 . S
C1191 C1185 1.390 . S
C1191 C1188 1.386 . S
C1192 C1187 1.490 . S
C1192 C1194 1.395 . S
C1192 C1195 1.403 . S
H1193 C1199 0.930 . S
C1194 H1180 0.930 . S
C1194 C1192 1.395 . S
C1194 C1197 1.403 . S
C1195 C1192 1.403 . S
C1195 C1196 1.524 . S
C1195 C1199 1.400 . S
C1196 H1181 0.960 . S
C1196 H1182 0.960 . S
C1196 H1183 0.960 . S
C1196 C1195 1.524 . S
C1197 C1194 1.403 . S
C1197 C1198 1.392 . S
C1197 C1201 1.495 . S
C1198 C1197 1.392 . S
C1198 C1199 1.385 . S
C1198 C1200 1.478 . S
C1199 H1193 0.930 . S
C1199 C1195 1.400 . S
C1199 C1198 1.385 . S
C1200 C1198 1.478 . S
C1200 C1202 1.381 . S
C1200 C1206 1.383 . S
C1201 C1197 1.495 . S
C1201 H1207 0.959 . S
C1201 H1208 0.961 . S
C1201 H1209 0.960 . S
C1202 C1200 1.381 . S
C1202 C1203 1.394 . S
C1202 H1210 0.930 . S
C1203 C1202 1.394 . S
C1203 C1204 1.383 . S
C1203 H1211 0.929 . S
C1204 C1203 1.383 . S
C1204 C1205 1.377 . S
C1205 H1189 0.930 . S
C1205 C1204 1.377 . S
C1205 C1206 1.379 . S
C1206 H1190 0.931 . S
C1206 C1200 1.383 . S
C1206 C1205 1.379 . S
H1207 C1201 0.959 . S
H1208 C1201 0.961 . S
H1209 C1201 0.960 . S
H1210 C1202 0.930 . S
H1211 C1203 0.929 . S
H1212 C1220 0.929 . S
H1213 C1222 0.930 . S
H1214 C1224 0.930 . S
H1215 C1227 0.929 . S
H1216 C1230 0.930 . S
H1217 C1232 0.960 . S
H1218 C1232 0.960 . S
H1219 C1232 0.960 . S
C1220 H1212 0.929 . S
C1220 C1221 1.377 . S
C1220 C1222 1.384 . S
C1221 C1220 1.377 . S
C1221 C1227 1.390 . S
C1222 H1213 0.930 . S
C1222 C1220 1.384 . S
C1222 C1223 1.372 . S
C1223 C1222 1.372 . S
C1223 C1224 1.400 . S
C1223 C1228 1.490 . S
C1224 H1214 0.930 . S
C1224 C1223 1.400 . S
C1224 C1227 1.386 . S
H1225 C1241 0.930 . S
H1226 C1242 0.931 . S
C1227 H1215 0.929 . S
C1227 C1221 1.390 . S
C1227 C1224 1.386 . S
C1228 C1223 1.490 . S
C1228 C1230 1.395 . S
C1228 C1231 1.403 . S
H1229 C1235 0.930 . S
C1230 H1216 0.930 . S
C1230 C1228 1.395 . S
C1230 C1233 1.403 . S
C1231 C1228 1.403 . S
C1231 C1232 1.524 . S
C1231 C1235 1.400 . S
C1232 H1217 0.960 . S
C1232 H1218 0.960 . S
C1232 H1219 0.960 . S
C1232 C1231 1.524 . S
C1233 C1230 1.403 . S
C1233 C1234 1.392 . S
C1233 C1237 1.495 . S
C1234 C1233 1.392 . S
C1234 C1235 1.385 . S
C1234 C1236 1.478 . S
C1235 H1229 0.930 . S
C1235 C1231 1.400 . S
C1235 C1234 1.385 . S
C1236 C1234 1.478 . S
C1236 C1238 1.381 . S
C1236 C1242 1.383 . S
C1237 C1233 1.495 . S
C1237 H1243 0.959 . S
C1237 H1244 0.961 . S
C1237 H1245 0.960 . S
C1238 C1236 1.381 . S
C1238 C1239 1.394 . S
C1238 H1246 0.930 . S
C1239 C1238 1.394 . S
C1239 C1240 1.383 . S
C1239 H1247 0.929 . S
C1240 C1239 1.383 . S
C1240 C1241 1.377 . S
C1241 H1225 0.930 . S
C1241 C1240 1.377 . S
C1241 C1242 1.379 . S
C1242 H1226 0.931 . S
C1242 C1236 1.383 . S
C1242 C1241 1.379 . S
H1243 C1237 0.959 . S
H1244 C1237 0.961 . S
H1245 C1237 0.960 . S
H1246 C1238 0.930 . S
H1247 C1239 0.929 . S
H1248 C1256 0.929 . S
H1249 C1258 0.930 . S
H1250 C1260 0.930 . S
H1251 C1263 0.929 . S
H1252 C1266 0.930 . S
H1253 C1268 0.960 . S
H1254 C1268 0.960 . S
H1255 C1268 0.960 . S
C1256 H1248 0.929 . S
C1256 C1257 1.377 . S
C1256 C1258 1.384 . S
C1257 C1256 1.377 . S
C1257 C1263 1.390 . S
C1258 H1249 0.930 . S
C1258 C1256 1.384 . S
C1258 C1259 1.372 . S
C1259 C1258 1.372 . S
C1259 C1260 1.400 . S
C1259 C1264 1.490 . S
C1260 H1250 0.930 . S
C1260 C1259 1.400 . S
C1260 C1263 1.386 . S
H1261 C1277 0.930 . S
H1262 C1278 0.931 . S
C1263 H1251 0.929 . S
C1263 C1257 1.390 . S
C1263 C1260 1.386 . S
C1264 C1259 1.490 . S
C1264 C1266 1.395 . S
C1264 C1267 1.403 . S
H1265 C1271 0.930 . S
C1266 H1252 0.930 . S
C1266 C1264 1.395 . S
C1266 C1269 1.403 . S
C1267 C1264 1.403 . S
C1267 C1268 1.524 . S
C1267 C1271 1.400 . S
C1268 H1253 0.960 . S
C1268 H1254 0.960 . S
C1268 H1255 0.960 . S
C1268 C1267 1.524 . S
C1269 C1266 1.403 . S
C1269 C1270 1.392 . S
C1269 C1273 1.495 . S
C1270 C1269 1.392 . S
C1270 C1271 1.385 . S
C1270 C1272 1.478 . S
C1271 H1265 0.930 . S
C1271 C1267 1.400 . S
C1271 C1270 1.385 . S
C1272 C1270 1.478 . S
C1272 C1274 1.381 . S
C1272 C1278 1.383 . S
C1273 C1269 1.495 . S
C1273 H1279 0.959 . S
C1273 H1280 0.961 . S
C1273 H1281 0.960 . S
C1274 C1272 1.381 . S
C1274 C1275 1.394 . S
C1274 H1282 0.930 . S
C1275 C1274 1.394 . S
C1275 C1276 1.383 . S
C1275 H1283 0.929 . S
C1276 C1275 1.383 . S
C1276 C1277 1.377 . S
C1277 H1261 0.930 . S
C1277 C1276 1.377 . S
C1277 C1278 1.379 . S
C1278 H1262 0.931 . S
C1278 C1272 1.383 . S
C1278 C1277 1.379 . S
H1279 C1273 0.959 . S
H1280 C1273 0.961 . S
H1281 C1273 0.960 . S
H1282 C1274 0.930 . S
H1283 C1275 0.929 . S
H1284 C1292 0.929 . S
H1285 C1294 0.930 . S
H1286 C1296 0.930 . S
H1287 C1299 0.929 . S
H1288 C1302 0.930 . S
H1289 C1304 0.960 . S
H1290 C1304 0.960 . S
H1291 C1304 0.960 . S
C1292 H1284 0.929 . S
C1292 C1293 1.377 . S
C1292 C1294 1.384 . S
C1293 C1292 1.377 . S
C1293 C1299 1.390 . S
C1294 H1285 0.930 . S
C1294 C1292 1.384 . S
C1294 C1295 1.372 . S
C1295 C1294 1.372 . S
C1295 C1296 1.400 . S
C1295 C1300 1.490 . S
C1296 H1286 0.930 . S
C1296 C1295 1.400 . S
C1296 C1299 1.386 . S
H1297 C1313 0.930 . S
H1298 C1314 0.931 . S
C1299 H1287 0.929 . S
C1299 C1293 1.390 . S
C1299 C1296 1.386 . S
C1300 C1295 1.490 . S
C1300 C1302 1.395 . S
C1300 C1303 1.403 . S
H1301 C1307 0.930 . S
C1302 H1288 0.930 . S
C1302 C1300 1.395 . S
C1302 C1305 1.403 . S
C1303 C1300 1.403 . S
C1303 C1304 1.524 . S
C1303 C1307 1.400 . S
C1304 H1289 0.960 . S
C1304 H1290 0.960 . S
C1304 H1291 0.960 . S
C1304 C1303 1.524 . S
C1305 C1302 1.403 . S
C1305 C1306 1.392 . S
C1305 C1309 1.495 . S
C1306 C1305 1.392 . S
C1306 C1307 1.385 . S
C1306 C1308 1.478 . S
C1307 H1301 0.930 . S
C1307 C1303 1.400 . S
C1307 C1306 1.385 . S
C1308 C1306 1.478 . S
C1308 C1310 1.381 . S
C1308 C1314 1.383 . S
C1309 C1305 1.495 . S
C1309 H1315 0.959 . S
C1309 H1316 0.961 . S
C1309 H1317 0.960 . S
C1310 C1308 1.381 . S
C1310 C1311 1.394 . S
C1310 H1318 0.930 . S
C1311 C1310 1.394 . S
C1311 C1312 1.383 . S
C1311 H1319 0.929 . S
C1312 C1311 1.383 . S
C1312 C1313 1.377 . S
C1313 H1297 0.930 . S
C1313 C1312 1.377 . S
C1313 C1314 1.379 . S
C1314 H1298 0.931 . S
C1314 C1308 1.383 . S
C1314 C1313 1.379 . S
H1315 C1309 0.959 . S
H1316 C1309 0.961 . S
H1317 C1309 0.960 . S
H1318 C1310 0.930 . S
H1319 C1311 0.929 . S
H1320 C1328 0.929 . S
H1321 C1330 0.930 . S
H1322 C1332 0.930 . S
H1323 C1335 0.929 . S
H1324 C1338 0.930 . S
H1325 C1340 0.960 . S
H1326 C1340 0.960 . S
H1327 C1340 0.960 . S
C1328 H1320 0.929 . S
C1328 C1329 1.377 . S
C1328 C1330 1.384 . S
C1329 C1328 1.377 . S
C1329 C1335 1.390 . S
C1330 H1321 0.930 . S
C1330 C1328 1.384 . S
C1330 C1331 1.372 . S
C1331 C1330 1.372 . S
C1331 C1332 1.400 . S
C1331 C1336 1.490 . S
C1332 H1322 0.930 . S
C1332 C1331 1.400 . S
C1332 C1335 1.386 . S
H1333 C1349 0.930 . S
H1334 C1350 0.931 . S
C1335 H1323 0.929 . S
C1335 C1329 1.390 . S
C1335 C1332 1.386 . S
C1336 C1331 1.490 . S
C1336 C1338 1.395 . S
C1336 C1339 1.403 . S
H1337 C1343 0.930 . S
C1338 H1324 0.930 . S
C1338 C1336 1.395 . S
C1338 C1341 1.403 . S
C1339 C1336 1.403 . S
C1339 C1340 1.524 . S
C1339 C1343 1.400 . S
C1340 H1325 0.960 . S
C1340 H1326 0.960 . S
C1340 H1327 0.960 . S
C1340 C1339 1.524 . S
C1341 C1338 1.403 . S
C1341 C1342 1.392 . S
C1341 C1345 1.495 . S
C1342 C1341 1.392 . S
C1342 C1343 1.385 . S
C1342 C1344 1.478 . S
C1343 H1337 0.930 . S
C1343 C1339 1.400 . S
C1343 C1342 1.385 . S
C1344 C1342 1.478 . S
C1344 C1346 1.381 . S
C1344 C1350 1.383 . S
C1345 C1341 1.495 . S
C1345 H1351 0.959 . S
C1345 H1352 0.961 . S
C1345 H1353 0.960 . S
C1346 C1344 1.381 . S
C1346 C1347 1.394 . S
C1346 H1354 0.930 . S
C1347 C1346 1.394 . S
C1347 C1348 1.383 . S
C1347 H1355 0.929 . S
C1348 C1347 1.383 . S
C1348 C1349 1.377 . S
C1349 H1333 0.930 . S
C1349 C1348 1.377 . S
C1349 C1350 1.379 . S
C1350 H1334 0.931 . S
C1350 C1344 1.383 . S
C1350 C1349 1.379 . S
H1351 C1345 0.959 . S
H1352 C1345 0.961 . S
H1353 C1345 0.960 . S
H1354 C1346 0.930 . S
H1355 C1347 0.929 . S
H1356 C1364 0.929 . S
H1357 C1366 0.930 . S
H1358 C1368 0.930 . S
H1359 C1371 0.929 . S
H1360 C1374 0.930 . S
H1361 C1376 0.960 . S
H1362 C1376 0.960 . S
H1363 C1376 0.960 . S
C1364 H1356 0.929 . S
C1364 C1365 1.377 . S
C1364 C1366 1.384 . S
C1365 C1364 1.377 . S
C1365 C1371 1.390 . S
C1366 H1357 0.930 . S
C1366 C1364 1.384 . S
C1366 C1367 1.372 . S
C1367 C1366 1.372 . S
C1367 C1368 1.400 . S
C1367 C1372 1.490 . S
C1368 H1358 0.930 . S
C1368 C1367 1.400 . S
C1368 C1371 1.386 . S
H1369 C1385 0.930 . S
H1370 C1386 0.931 . S
C1371 H1359 0.929 . S
C1371 C1365 1.390 . S
C1371 C1368 1.386 . S
C1372 C1367 1.490 . S
C1372 C1374 1.395 . S
C1372 C1375 1.403 . S
H1373 C1379 0.930 . S
C1374 H1360 0.930 . S
C1374 C1372 1.395 . S
C1374 C1377 1.403 . S
C1375 C1372 1.403 . S
C1375 C1376 1.524 . S
C1375 C1379 1.400 . S
C1376 H1361 0.960 . S
C1376 H1362 0.960 . S
C1376 H1363 0.960 . S
C1376 C1375 1.524 . S
C1377 C1374 1.403 . S
C1377 C1378 1.392 . S
C1377 C1381 1.495 . S
C1378 C1377 1.392 . S
C1378 C1379 1.385 . S
C1378 C1380 1.478 . S
C1379 H1373 0.930 . S
C1379 C1375 1.400 . S
C1379 C1378 1.385 . S
C1380 C1378 1.478 . S
C1380 C1382 1.381 . S
C1380 C1386 1.383 . S
C1381 C1377 1.495 . S
C1381 H1387 0.959 . S
C1381 H1388 0.961 . S
C1381 H1389 0.960 . S
C1382 C1380 1.381 . S
C1382 C1383 1.394 . S
C1382 H1390 0.930 . S
C1383 C1382 1.394 . S
C1383 C1384 1.383 . S
C1383 H1391 0.929 . S
C1384 C1383 1.383 . S
C1384 C1385 1.377 . S
C1385 H1369 0.930 . S
C1385 C1384 1.377 . S
C1385 C1386 1.379 . S
C1386 H1370 0.931 . S
C1386 C1380 1.383 . S
C1386 C1385 1.379 . S
H1387 C1381 0.959 . S
H1388 C1381 0.961 . S
H1389 C1381 0.960 . S
H1390 C1382 0.930 . S
H1391 C1383 0.929 . S
H1392 C1400 0.929 . S
H1393 C1402 0.930 . S
H1394 C1404 0.930 . S
H1395 C1407 0.929 . S
H1396 C1410 0.930 . S
H1397 C1412 0.960 . S
H1398 C1412 0.960 . S
H1399 C1412 0.960 1_545 S
C1400 H1392 0.929 . S
C1400 C1401 1.377 . S
C1400 C1402 1.384 . S
C1401 C1400 1.377 . S
C1401 C1407 1.390 . S
C1402 H1393 0.930 . S
C1402 C1400 1.384 . S
C1402 C1403 1.372 . S
C1403 C1402 1.372 . S
C1403 C1404 1.400 . S
C1403 C1408 1.490 . S
C1404 H1394 0.930 . S
C1404 C1403 1.400 . S
C1404 C1407 1.386 . S
H1405 C1421 0.930 . S
H1406 C1422 0.931 . S
C1407 H1395 0.929 . S
C1407 C1401 1.390 . S
C1407 C1404 1.386 . S
C1408 C1403 1.490 . S
C1408 C1410 1.395 1_455 S
C1408 C1411 1.403 1_545 S
H1409 C1415 0.929 . S
C1410 H1396 0.930 . S
C1410 C1408 1.395 1_655 S
C1410 C1413 1.403 . S
C1411 C1408 1.403 1_565 S
C1411 C1412 1.524 . S
C1411 C1415 1.401 . S
C1412 H1397 0.960 . S
C1412 H1398 0.960 . S
C1412 H1399 0.960 1_565 S
C1412 C1411 1.524 . S
C1413 C1410 1.403 . S
C1413 C1414 1.392 1_545 S
C1413 C1417 1.495 . S
C1414 C1413 1.392 1_565 S
C1414 C1415 1.384 1_655 S
C1414 C1416 1.478 . S
C1415 H1409 0.929 . S
C1415 C1411 1.401 . S
C1415 C1414 1.384 1_455 S
C1416 C1414 1.478 . S
C1416 C1418 1.381 . S
C1416 C1422 1.383 . S
C1417 C1413 1.495 . S
C1417 H1423 0.959 . S
C1417 H1424 0.961 . S
C1417 H1425 0.960 1_545 S
C1418 C1416 1.381 . S
C1418 C1419 1.394 . S
C1418 H1426 0.930 . S
C1419 C1418 1.394 . S
C1419 C1420 1.383 . S
C1419 H1427 0.929 . S
C1420 C1419 1.383 . S
C1420 C1421 1.377 . S
C1421 H1405 0.930 . S
C1421 C1420 1.377 . S
C1421 C1422 1.379 . S
C1422 H1406 0.931 . S
C1422 C1416 1.383 . S
C1422 C1421 1.379 . S
H1423 C1417 0.959 . S
H1424 C1417 0.961 . S
H1425 C1417 0.960 1_565 S
H1426 C1418 0.930 . S
H1427 C1419 0.929 . S
H1428 C1436 0.929 . S
H1429 C1438 0.930 . S
H1430 C1440 0.930 . S
H1431 C1443 0.929 . S
H1432 C1446 0.930 . S
H1433 C1448 0.960 . S
H1434 C1448 0.960 . S
H1435 C1448 0.960 . S
C1436 H1428 0.929 . S
C1436 C1437 1.377 . S
C1436 C1438 1.384 . S
C1437 C1436 1.377 . S
C1437 C1443 1.390 . S
C1438 H1429 0.930 . S
C1438 C1436 1.384 . S
C1438 C1439 1.372 . S
C1439 C1438 1.372 . S
C1439 C1440 1.400 . S
C1439 C1444 1.490 . S
C1440 H1430 0.930 . S
C1440 C1439 1.400 . S
C1440 C1443 1.386 . S
H1441 C1457 0.930 . S
H1442 C1458 0.931 . S
C1443 H1431 0.929 . S
C1443 C1437 1.390 . S
C1443 C1440 1.386 . S
C1444 C1439 1.490 . S
C1444 C1446 1.395 1_455 S
C1444 C1447 1.403 . S
H1445 C1451 0.930 . S
C1446 H1432 0.930 . S
C1446 C1444 1.395 1_655 S
C1446 C1449 1.403 . S
C1447 C1444 1.403 . S
C1447 C1448 1.524 . S
C1447 C1451 1.400 . S
C1448 H1433 0.960 . S
C1448 H1434 0.960 . S
C1448 H1435 0.960 . S
C1448 C1447 1.524 . S
C1449 C1446 1.403 . S
C1449 C1450 1.392 . S
C1449 C1453 1.495 . S
C1450 C1449 1.392 . S
C1450 C1451 1.385 1_655 S
C1450 C1452 1.478 . S
C1451 H1445 0.930 . S
C1451 C1447 1.400 . S
C1451 C1450 1.385 1_455 S
C1452 C1450 1.478 . S
C1452 C1454 1.381 . S
C1452 C1458 1.383 . S
C1453 C1449 1.495 . S
C1453 H1459 0.959 . S
C1453 H1460 0.961 . S
C1453 H1461 0.960 . S
C1454 C1452 1.381 . S
C1454 C1455 1.394 . S
C1454 H1462 0.930 . S
C1455 C1454 1.394 . S
C1455 C1456 1.383 . S
C1455 H1463 0.929 . S
C1456 C1455 1.383 . S
C1456 C1457 1.377 . S
C1457 H1441 0.930 . S
C1457 C1456 1.377 . S
C1457 C1458 1.379 . S
C1458 H1442 0.931 . S
C1458 C1452 1.383 . S
C1458 C1457 1.379 . S
H1459 C1453 0.959 . S
H1460 C1453 0.961 . S
H1461 C1453 0.960 . S
H1462 C1454 0.930 . S
H1463 C1455 0.929 . S
H1464 C1472 0.929 . S
H1465 C1474 0.930 . S
H1466 C1476 0.930 . S
H1467 C1479 0.929 . S
H1468 C1482 0.930 . S
H1469 C1484 0.960 . S
H1470 C1484 0.960 . S
H1471 C1484 0.960 . S
C1472 H1464 0.929 . S
C1472 C1473 1.377 . S
C1472 C1474 1.384 . S
C1473 C1472 1.377 . S
C1473 C1479 1.390 . S
C1474 H1465 0.930 . S
C1474 C1472 1.384 . S
C1474 C1475 1.372 . S
C1475 C1474 1.372 . S
C1475 C1476 1.400 . S
C1475 C1480 1.490 . S
C1476 H1466 0.930 . S
C1476 C1475 1.400 . S
C1476 C1479 1.386 . S
H1477 C1493 0.930 . S
H1478 C1494 0.931 . S
C1479 H1467 0.929 . S
C1479 C1473 1.390 . S
C1479 C1476 1.386 . S
C1480 C1475 1.490 . S
C1480 C1482 1.395 . S
C1480 C1483 1.403 . S
H1481 C1487 0.930 . S
C1482 H1468 0.930 . S
C1482 C1480 1.395 . S
C1482 C1485 1.403 . S
C1483 C1480 1.403 . S
C1483 C1484 1.524 . S
C1483 C1487 1.400 . S
C1484 H1469 0.960 . S
C1484 H1470 0.960 . S
C1484 H1471 0.960 . S
C1484 C1483 1.524 . S
C1485 C1482 1.403 . S
C1485 C1486 1.392 . S
C1485 C1489 1.495 . S
C1486 C1485 1.392 . S
C1486 C1487 1.385 . S
C1486 C1488 1.478 . S
C1487 H1481 0.930 . S
C1487 C1483 1.400 . S
C1487 C1486 1.385 . S
C1488 C1486 1.478 . S
C1488 C1490 1.381 . S
C1488 C1494 1.383 . S
C1489 C1485 1.495 . S
C1489 H1495 0.959 . S
C1489 H1496 0.961 . S
C1489 H1497 0.960 . S
C1490 C1488 1.381 . S
C1490 C1491 1.394 . S
C1490 H1498 0.930 . S
C1491 C1490 1.394 . S
C1491 C1492 1.383 . S
C1491 H1499 0.929 . S
C1492 C1491 1.383 . S
C1492 C1493 1.377 . S
C1493 H1477 0.930 . S
C1493 C1492 1.377 . S
C1493 C1494 1.379 . S
C1494 H1478 0.931 . S
C1494 C1488 1.383 . S
C1494 C1493 1.379 . S
H1495 C1489 0.959 . S
H1496 C1489 0.961 . S
H1497 C1489 0.960 . S
H1498 C1490 0.930 . S
H1499 C1491 0.929 . S
H1500 C1508 0.929 . S
H1501 C1510 0.930 . S
H1502 C1512 0.930 . S
H1503 C1515 0.929 . S
H1504 C1518 0.930 . S
H1505 C1520 0.960 1_566 S
H1506 C1520 0.960 . S
H1507 C1520 0.960 . S
C1508 H1500 0.929 . S
C1508 C1509 1.377 . S
C1508 C1510 1.384 . S
C1509 C1508 1.377 . S
C1509 C1515 1.390 . S
C1510 H1501 0.930 . S
C1510 C1508 1.384 . S
C1510 C1511 1.372 . S
C1511 C1510 1.372 . S
C1511 C1512 1.400 . S
C1511 C1516 1.490 . S
C1512 H1502 0.930 . S
C1512 C1511 1.400 . S
C1512 C1515 1.386 . S
H1513 C1529 0.930 . S
H1514 C1530 0.931 . S
C1515 H1503 0.929 . S
C1515 C1509 1.390 . S
C1515 C1512 1.386 . S
C1516 C1511 1.490 . S
C1516 C1518 1.395 . S
C1516 C1519 1.403 . S
H1517 C1523 0.930 . S
C1518 H1504 0.930 . S
C1518 C1516 1.395 . S
C1518 C1521 1.403 1_545 S
C1519 C1516 1.403 . S
C1519 C1520 1.524 . S
C1519 C1523 1.400 1_545 S
C1520 H1505 0.960 1_544 S
C1520 H1506 0.960 . S
C1520 H1507 0.960 . S
C1520 C1519 1.524 . S
C1521 C1518 1.403 1_565 S
C1521 C1522 1.392 . S
C1521 C1525 1.495 . S
C1522 C1521 1.392 . S
C1522 C1523 1.385 . S
C1522 C1524 1.478 . S
C1523 H1517 0.930 . S
C1523 C1519 1.400 1_565 S
C1523 C1522 1.385 . S
C1524 C1522 1.478 . S
C1524 C1526 1.381 . S
C1524 C1530 1.383 . S
C1525 C1521 1.495 . S
C1525 H1531 0.959 1_565 S
C1525 H1532 0.961 . S
C1525 H1533 0.960 . S
C1526 C1524 1.381 . S
C1526 C1527 1.394 . S
C1526 H1534 0.930 . S
C1527 C1526 1.394 . S
C1527 C1528 1.383 . S
C1527 H1535 0.929 . S
C1528 C1527 1.383 . S
C1528 C1529 1.377 . S
C1529 H1513 0.930 . S
C1529 C1528 1.377 . S
C1529 C1530 1.379 . S
C1530 H1514 0.931 . S
C1530 C1524 1.383 . S
C1530 C1529 1.379 . S
H1531 C1525 0.959 1_545 S
H1532 C1525 0.961 . S
H1533 C1525 0.960 . S
H1534 C1526 0.930 . S
H1535 C1527 0.929 . S
H1536 C1544 0.929 . S
H1537 C1546 0.930 . S
H1538 C1548 0.930 . S
H1539 C1551 0.929 . S
H1540 C1554 0.930 . S
H1541 C1556 0.960 . S
H1542 C1556 0.960 . S
H1543 C1556 0.960 . S
C1544 H1536 0.929 . S
C1544 C1545 1.377 . S
C1544 C1546 1.384 . S
C1545 C1544 1.377 . S
C1545 C1551 1.390 . S
C1546 H1537 0.930 . S
C1546 C1544 1.384 . S
C1546 C1547 1.372 . S
C1547 C1546 1.372 . S
C1547 C1548 1.400 . S
C1547 C1552 1.490 . S
C1548 H1538 0.930 . S
C1548 C1547 1.400 . S
C1548 C1551 1.386 . S
H1549 C1565 0.930 . S
H1550 C1566 0.931 . S
C1551 H1539 0.929 . S
C1551 C1545 1.390 . S
C1551 C1548 1.386 . S
C1552 C1547 1.490 . S
C1552 C1554 1.395 1_455 S
C1552 C1555 1.403 . S
H1553 C1559 0.930 . S
C1554 H1540 0.930 . S
C1554 C1552 1.395 1_655 S
C1554 C1557 1.403 . S
C1555 C1552 1.403 . S
C1555 C1556 1.524 . S
C1555 C1559 1.400 . S
C1556 H1541 0.960 . S
C1556 H1542 0.960 . S
C1556 H1543 0.960 . S
C1556 C1555 1.524 . S
C1557 C1554 1.403 . S
C1557 C1558 1.392 . S
C1557 C1561 1.495 . S
C1558 C1557 1.392 . S
C1558 C1559 1.385 1_655 S
C1558 C1560 1.478 . S
C1559 H1553 0.930 . S
C1559 C1555 1.400 . S
C1559 C1558 1.385 1_455 S
C1560 C1558 1.478 . S
C1560 C1562 1.381 . S
C1560 C1566 1.383 . S
C1561 C1557 1.495 . S
C1561 H1567 0.959 . S
C1561 H1568 0.961 . S
C1561 H1569 0.960 . S
C1562 C1560 1.381 . S
C1562 C1563 1.394 . S
C1562 H1570 0.930 . S
C1563 C1562 1.394 . S
C1563 C1564 1.383 . S
C1563 H1571 0.929 . S
C1564 C1563 1.383 . S
C1564 C1565 1.377 . S
C1565 H1549 0.930 . S
C1565 C1564 1.377 . S
C1565 C1566 1.379 . S
C1566 H1550 0.931 . S
C1566 C1560 1.383 . S
C1566 C1565 1.379 . S
H1567 C1561 0.959 . S
H1568 C1561 0.961 . S
H1569 C1561 0.960 . S
H1570 C1562 0.930 . S
H1571 C1563 0.929 . S
H1572 C1580 0.929 . S
H1573 C1582 0.930 . S
H1574 C1584 0.930 . S
H1575 C1587 0.929 . S
H1576 C1590 0.930 . S
H1577 C1592 0.960 . S
H1578 C1592 0.960 . S
H1579 C1592 0.960 . S
C1580 H1572 0.929 . S
C1580 C1581 1.377 . S
C1580 C1582 1.384 . S
C1581 C1580 1.377 . S
C1581 C1587 1.390 . S
C1582 H1573 0.930 . S
C1582 C1580 1.384 . S
C1582 C1583 1.372 . S
C1583 C1582 1.372 . S
C1583 C1584 1.400 . S
C1583 C1588 1.490 . S
C1584 H1574 0.930 . S
C1584 C1583 1.400 . S
C1584 C1587 1.386 . S
H1585 C1601 0.930 . S
H1586 C1602 0.931 . S
C1587 H1575 0.929 . S
C1587 C1581 1.390 . S
C1587 C1584 1.386 . S
C1588 C1583 1.490 . S
C1588 C1590 1.395 . S
C1588 C1591 1.403 . S
H1589 C1595 0.930 . S
C1590 H1576 0.930 . S
C1590 C1588 1.395 . S
C1590 C1593 1.403 . S
C1591 C1588 1.403 . S
C1591 C1592 1.524 . S
C1591 C1595 1.400 . S
C1592 H1577 0.960 . S
C1592 H1578 0.960 . S
C1592 H1579 0.960 . S
C1592 C1591 1.524 . S
C1593 C1590 1.403 . S
C1593 C1594 1.392 . S
C1593 C1597 1.495 . S
C1594 C1593 1.392 . S
C1594 C1595 1.385 . S
C1594 C1596 1.478 . S
C1595 H1589 0.930 . S
C1595 C1591 1.400 . S
C1595 C1594 1.385 . S
C1596 C1594 1.478 . S
C1596 C1598 1.381 . S
C1596 C1602 1.383 . S
C1597 C1593 1.495 . S
C1597 H1603 0.959 . S
C1597 H1604 0.961 . S
C1597 H1605 0.960 . S
C1598 C1596 1.381 . S
C1598 C1599 1.394 . S
C1598 H1606 0.930 . S
C1599 C1598 1.394 . S
C1599 C1600 1.383 . S
C1599 H1607 0.929 . S
C1600 C1599 1.383 . S
C1600 C1601 1.377 . S
C1601 H1585 0.930 . S
C1601 C1600 1.377 . S
C1601 C1602 1.379 . S
C1602 H1586 0.931 . S
C1602 C1596 1.383 . S
C1602 C1601 1.379 . S
H1603 C1597 0.959 . S
H1604 C1597 0.961 . S
H1605 C1597 0.960 . S
H1606 C1598 0.930 . S
H1607 C1599 0.929 . S
H1608 C1616 0.929 . S
H1609 C1618 0.930 . S
H1610 C1620 0.930 . S
H1611 C1623 0.929 . S
H1612 C1626 0.930 1_565 S
H1613 C1628 0.960 . S
H1614 C1628 0.960 . S
H1615 C1628 0.960 . S
C1616 H1608 0.929 . S
C1616 C1617 1.377 . S
C1616 C1618 1.384 . S
C1617 C1616 1.377 . S
C1617 C1623 1.390 . S
C1618 H1609 0.930 . S
C1618 C1616 1.384 . S
C1618 C1619 1.372 . S
C1619 C1618 1.372 . S
C1619 C1620 1.400 . S
C1619 C1624 1.490 . S
C1620 H1610 0.930 . S
C1620 C1619 1.400 . S
C1620 C1623 1.386 . S
H1621 C1637 0.930 . S
H1622 C1638 0.931 . S
C1623 H1611 0.929 . S
C1623 C1617 1.390 . S
C1623 C1620 1.386 . S
C1624 C1619 1.490 . S
C1624 C1626 1.379 1_565 S
C1624 C1627 1.403 . S
H1625 C1631 0.930 . S
C1626 H1612 0.930 1_545 S
C1626 C1624 1.379 1_545 S
C1626 C1629 1.419 . S
C1627 C1624 1.403 . S
C1627 C1628 1.524 . S
C1627 C1631 1.400 1_565 S
C1628 H1613 0.960 . S
C1628 H1614 0.960 . S
C1628 H1615 0.960 . S
C1628 C1627 1.524 . S
C1629 C1626 1.419 . S
C1629 C1630 1.392 . S
C1629 C1633 1.495 . S
C1630 C1629 1.392 . S
C1630 C1631 1.385 . S
C1630 C1632 1.478 . S
C1631 H1625 0.930 . S
C1631 C1627 1.400 1_545 S
C1631 C1630 1.385 . S
C1632 C1630 1.478 . S
C1632 C1634 1.381 . S
C1632 C1638 1.383 . S
C1633 C1629 1.495 . S
C1633 H1639 0.959 . S
C1633 H1640 0.961 . S
C1633 H1641 0.960 . S
C1634 C1632 1.381 . S
C1634 C1635 1.394 . S
C1634 H1642 0.930 . S
C1635 C1634 1.394 . S
C1635 C1636 1.383 . S
C1635 H1643 0.929 . S
C1636 C1635 1.383 . S
C1636 C1637 1.377 . S
C1637 H1621 0.930 . S
C1637 C1636 1.377 . S
C1637 C1638 1.379 . S
C1638 H1622 0.931 . S
C1638 C1632 1.383 . S
C1638 C1637 1.379 . S
H1639 C1633 0.959 . S
H1640 C1633 0.961 . S
H1641 C1633 0.960 . S
H1642 C1634 0.930 . S
H1643 C1635 0.929 . S
H1644 C1652 0.929 . S
H1645 C1654 0.930 . S
H1646 C1656 0.930 . S
H1647 C1659 0.929 . S
H1648 C1662 0.929 1_455 S
H1649 C1664 0.960 . S
H1650 C1664 0.960 . S
H1651 C1664 0.960 1_545 S
C1652 H1644 0.929 . S
C1652 C1653 1.377 . S
C1652 C1654 1.384 . S
C1653 C1652 1.377 . S
C1653 C1659 1.390 . S
C1654 H1645 0.930 . S
C1654 C1652 1.384 . S
C1654 C1655 1.372 . S
C1655 C1654 1.372 . S
C1655 C1656 1.400 . S
C1655 C1660 1.490 . S
C1656 H1646 0.930 . S
C1656 C1655 1.400 . S
C1656 C1659 1.386 . S
H1657 C1673 0.930 . S
H1658 C1674 0.931 . S
C1659 H1647 0.929 . S
C1659 C1653 1.390 . S
C1659 C1656 1.386 . S
C1660 C1655 1.490 . S
C1660 C1662 1.399 1_455 S
C1660 C1663 1.403 1_545 S
H1661 C1667 0.930 . S
C1662 H1648 0.929 1_655 S
C1662 C1660 1.399 1_655 S
C1662 C1665 1.399 . S
C1663 C1660 1.403 1_565 S
C1663 C1664 1.524 . S
C1663 C1667 1.400 1_455 S
C1664 H1649 0.960 . S
C1664 H1650 0.960 . S
C1664 H1651 0.960 1_565 S
C1664 C1663 1.524 . S
C1665 C1662 1.399 . S
C1665 C1666 1.392 1_545 S
C1665 C1669 1.495 . S
C1666 C1665 1.392 1_565 S
C1666 C1667 1.385 . S
C1666 C1668 1.478 . S
C1667 H1661 0.930 . S
C1667 C1663 1.400 1_655 S
C1667 C1666 1.385 . S
C1668 C1666 1.478 . S
C1668 C1670 1.381 . S
C1668 C1674 1.383 . S
C1669 C1665 1.495 . S
C1669 H1675 0.959 . S
C1669 H1676 0.961 . S
C1669 H1677 0.960 1_545 S
C1670 C1668 1.381 . S
C1670 C1671 1.394 . S
C1670 H1678 0.930 . S
C1671 C1670 1.394 . S
C1671 C1672 1.383 . S
C1671 H1679 0.929 . S
C1672 C1671 1.383 . S
C1672 C1673 1.377 . S
C1673 H1657 0.930 . S
C1673 C1672 1.377 . S
C1673 C1674 1.379 . S
C1674 H1658 0.931 . S
C1674 C1668 1.383 . S
C1674 C1673 1.379 . S
H1675 C1669 0.959 . S
H1676 C1669 0.961 . S
H1677 C1669 0.960 1_565 S
H1678 C1670 0.930 . S
H1679 C1671 0.929 . S
H1680 C1688 0.929 . S
H1681 C1690 0.930 . S
H1682 C1692 0.930 . S
H1683 C1695 0.929 . S
H1684 C1698 0.930 . S
H1685 C1700 0.960 . S
H1686 C1700 0.960 . S
H1687 C1700 0.960 . S
C1688 H1680 0.929 . S
C1688 C1689 1.377 . S
C1688 C1690 1.384 . S
C1689 C1688 1.377 . S
C1689 C1695 1.390 . S
C1690 H1681 0.930 . S
C1690 C1688 1.384 . S
C1690 C1691 1.372 . S
C1691 C1690 1.372 . S
C1691 C1692 1.400 . S
C1691 C1696 1.490 . S
C1692 H1682 0.930 . S
C1692 C1691 1.400 . S
C1692 C1695 1.386 . S
H1693 C1709 0.930 . S
H1694 C1710 0.931 . S
C1695 H1683 0.929 . S
C1695 C1689 1.390 . S
C1695 C1692 1.386 . S
C1696 C1691 1.490 . S
C1696 C1698 1.395 . S
C1696 C1699 1.403 . S
H1697 C1703 0.930 . S
C1698 H1684 0.930 . S
C1698 C1696 1.395 . S
C1698 C1701 1.403 . S
C1699 C1696 1.403 . S
C1699 C1700 1.524 . S
C1699 C1703 1.400 . S
C1700 H1685 0.960 . S
C1700 H1686 0.960 . S
C1700 H1687 0.960 . S
C1700 C1699 1.524 . S
C1701 C1698 1.403 . S
C1701 C1702 1.392 . S
C1701 C1705 1.495 . S
C1702 C1701 1.392 . S
C1702 C1703 1.385 . S
C1702 C1704 1.478 . S
C1703 H1697 0.930 . S
C1703 C1699 1.400 . S
C1703 C1702 1.385 . S
C1704 C1702 1.478 . S
C1704 C1706 1.381 . S
C1704 C1710 1.383 . S
C1705 C1701 1.495 . S
C1705 H1711 0.959 . S
C1705 H1712 0.961 . S
C1705 H1713 0.960 . S
C1706 C1704 1.381 . S
C1706 C1707 1.394 . S
C1706 H1714 0.930 . S
C1707 C1706 1.394 . S
C1707 C1708 1.383 . S
C1707 H1715 0.929 . S
C1708 C1707 1.383 . S
C1708 C1709 1.377 . S
C1709 H1693 0.930 . S
C1709 C1708 1.377 . S
C1709 C1710 1.379 . S
C1710 H1694 0.931 . S
C1710 C1704 1.383 . S
C1710 C1709 1.379 . S
H1711 C1705 0.959 . S
H1712 C1705 0.961 . S
H1713 C1705 0.960 . S
H1714 C1706 0.930 . S
H1715 C1707 0.929 . S
H1716 C1724 0.929 . S
H1717 C1726 0.930 . S
H1718 C1728 0.930 . S
H1719 C1731 0.929 . S
H1720 C1734 0.930 . S
H1721 C1736 0.960 . S
H1722 C1736 0.960 . S
H1723 C1736 0.960 . S
C1724 H1716 0.929 . S
C1724 C1725 1.377 . S
C1724 C1726 1.384 . S
C1725 C1724 1.377 . S
C1725 C1731 1.390 . S
C1726 H1717 0.930 . S
C1726 C1724 1.384 . S
C1726 C1727 1.372 . S
C1727 C1726 1.372 . S
C1727 C1728 1.400 . S
C1727 C1732 1.490 . S
C1728 H1718 0.930 . S
C1728 C1727 1.400 . S
C1728 C1731 1.386 . S
H1729 C1745 0.930 . S
H1730 C1746 0.931 . S
C1731 H1719 0.929 . S
C1731 C1725 1.390 . S
C1731 C1728 1.386 . S
C1732 C1727 1.490 . S
C1732 C1734 1.395 . S
C1732 C1735 1.403 . S
H1733 C1739 0.930 . S
C1734 H1720 0.930 . S
C1734 C1732 1.395 . S
C1734 C1737 1.403 . S
C1735 C1732 1.403 . S
C1735 C1736 1.524 . S
C1735 C1739 1.400 . S
C1736 H1721 0.960 . S
C1736 H1722 0.960 . S
C1736 H1723 0.960 . S
C1736 C1735 1.524 . S
C1737 C1734 1.403 . S
C1737 C1738 1.392 . S
C1737 C1741 1.495 . S
C1738 C1737 1.392 . S
C1738 C1739 1.385 . S
C1738 C1740 1.478 . S
C1739 H1733 0.930 . S
C1739 C1735 1.400 . S
C1739 C1738 1.385 . S
C1740 C1738 1.478 . S
C1740 C1742 1.381 . S
C1740 C1746 1.383 . S
C1741 C1737 1.495 . S
C1741 H1747 0.959 . S
C1741 H1748 0.961 . S
C1741 H1749 0.960 . S
C1742 C1740 1.381 . S
C1742 C1743 1.394 . S
C1742 H1750 0.930 . S
C1743 C1742 1.394 . S
C1743 C1744 1.383 . S
C1743 H1751 0.929 . S
C1744 C1743 1.383 . S
C1744 C1745 1.377 . S
C1745 H1729 0.930 . S
C1745 C1744 1.377 . S
C1745 C1746 1.379 . S
C1746 H1730 0.931 . S
C1746 C1740 1.383 . S
C1746 C1745 1.379 . S
H1747 C1741 0.959 . S
H1748 C1741 0.961 . S
H1749 C1741 0.960 . S
H1750 C1742 0.930 . S
H1751 C1743 0.929 . S
H1752 C1760 0.929 . S
H1753 C1762 0.930 . S
H1754 C1764 0.930 . S
H1755 C1767 0.929 . S
H1756 C1770 0.930 . S
H1757 C1772 0.960 . S
H1758 C1772 0.960 . S
H1759 C1772 0.960 . S
C1760 H1752 0.929 . S
C1760 C1761 1.377 . S
C1760 C1762 1.384 . S
C1761 C1760 1.377 . S
C1761 C1767 1.390 . S
C1762 H1753 0.930 . S
C1762 C1760 1.384 . S
C1762 C1763 1.372 . S
C1763 C1762 1.372 . S
C1763 C1764 1.400 . S
C1763 C1768 1.490 . S
C1764 H1754 0.930 . S
C1764 C1763 1.400 . S
C1764 C1767 1.386 . S
H1765 C1781 0.930 . S
H1766 C1782 0.931 . S
C1767 H1755 0.929 . S
C1767 C1761 1.390 . S
C1767 C1764 1.386 . S
C1768 C1763 1.490 . S
C1768 C1770 1.395 . S
C1768 C1771 1.403 . S
H1769 C1775 0.930 . S
C1770 H1756 0.930 . S
C1770 C1768 1.395 . S
C1770 C1773 1.403 . S
C1771 C1768 1.403 . S
C1771 C1772 1.524 . S
C1771 C1775 1.400 . S
C1772 H1757 0.960 . S
C1772 H1758 0.960 . S
C1772 H1759 0.960 . S
C1772 C1771 1.524 . S
C1773 C1770 1.403 . S
C1773 C1774 1.392 . S
C1773 C1777 1.495 . S
C1774 C1773 1.392 . S
C1774 C1775 1.385 . S
C1774 C1776 1.478 . S
C1775 H1769 0.930 . S
C1775 C1771 1.400 . S
C1775 C1774 1.385 . S
C1776 C1774 1.478 . S
C1776 C1778 1.381 . S
C1776 C1782 1.383 . S
C1777 C1773 1.495 . S
C1777 H1783 0.959 . S
C1777 H1784 0.961 . S
C1777 H1785 0.960 . S
C1778 C1776 1.381 . S
C1778 C1779 1.394 . S
C1778 H1786 0.930 . S
C1779 C1778 1.394 . S
C1779 C1780 1.383 . S
C1779 H1787 0.929 . S
C1780 C1779 1.383 . S
C1780 C1781 1.377 . S
C1781 H1765 0.930 . S
C1781 C1780 1.377 . S
C1781 C1782 1.379 . S
C1782 H1766 0.931 . S
C1782 C1776 1.383 . S
C1782 C1781 1.379 . S
H1783 C1777 0.959 . S
H1784 C1777 0.961 . S
H1785 C1777 0.960 . S
H1786 C1778 0.930 . S
H1787 C1779 0.929 . S
H1788 C1796 0.929 . S
H1789 C1798 0.930 . S
H1790 C1800 0.930 . S
H1791 C1803 0.929 . S
H1792 C1806 0.930 . S
H1793 C1808 0.960 . S
H1794 C1808 0.960 . S
H1795 C1808 0.960 . S
C1796 H1788 0.929 . S
C1796 C1797 1.377 . S
C1796 C1798 1.384 . S
C1797 C1796 1.377 . S
C1797 C1803 1.390 . S
C1798 H1789 0.930 . S
C1798 C1796 1.384 . S
C1798 C1799 1.372 . S
C1799 C1798 1.372 . S
C1799 C1800 1.400 . S
C1799 C1804 1.490 . S
C1800 H1790 0.930 . S
C1800 C1799 1.400 . S
C1800 C1803 1.386 . S
H1801 C1817 0.930 . S
H1802 C1818 0.931 . S
C1803 H1791 0.929 . S
C1803 C1797 1.390 . S
C1803 C1800 1.386 . S
C1804 C1799 1.490 . S
C1804 C1806 1.395 . S
C1804 C1807 1.403 . S
H1805 C1811 0.930 . S
C1806 H1792 0.930 . S
C1806 C1804 1.395 . S
C1806 C1809 1.403 . S
C1807 C1804 1.403 . S
C1807 C1808 1.524 . S
C1807 C1811 1.400 . S
C1808 H1793 0.960 . S
C1808 H1794 0.960 . S
C1808 H1795 0.960 . S
C1808 C1807 1.524 . S
C1809 C1806 1.403 . S
C1809 C1810 1.392 . S
C1809 C1813 1.495 . S
C1810 C1809 1.392 . S
C1810 C1811 1.385 . S
C1810 C1812 1.478 . S
C1811 H1805 0.930 . S
C1811 C1807 1.400 . S
C1811 C1810 1.385 . S
C1812 C1810 1.478 . S
C1812 C1814 1.381 . S
C1812 C1818 1.383 . S
C1813 C1809 1.495 . S
C1813 H1819 0.959 . S
C1813 H1820 0.961 . S
C1813 H1821 0.960 . S
C1814 C1812 1.381 . S
C1814 C1815 1.394 . S
C1814 H1822 0.930 . S
C1815 C1814 1.394 . S
C1815 C1816 1.383 . S
C1815 H1823 0.929 . S
C1816 C1815 1.383 . S
C1816 C1817 1.377 . S
C1817 H1801 0.930 . S
C1817 C1816 1.377 . S
C1817 C1818 1.379 . S
C1818 H1802 0.931 . S
C1818 C1812 1.383 . S
C1818 C1817 1.379 . S
H1819 C1813 0.959 . S
H1820 C1813 0.961 . S
H1821 C1813 0.960 . S
H1822 C1814 0.930 . S
H1823 C1815 0.929 . S
H1824 C1832 0.929 . S
H1825 C1834 0.930 . S
H1826 C1836 0.930 . S
H1827 C1839 0.929 . S
H1828 C1842 0.930 . S
H1829 C1844 0.960 . S
H1830 C1844 0.960 . S
H1831 C1844 0.960 . S
C1832 H1824 0.929 . S
C1832 C1833 1.377 . S
C1832 C1834 1.384 . S
C1833 C1832 1.377 . S
C1833 C1839 1.390 . S
C1834 H1825 0.930 . S
C1834 C1832 1.384 . S
C1834 C1835 1.372 . S
C1835 C1834 1.372 . S
C1835 C1836 1.400 . S
C1835 C1840 1.490 . S
C1836 H1826 0.930 . S
C1836 C1835 1.400 . S
C1836 C1839 1.386 . S
H1837 C1853 0.930 . S
H1838 C1854 0.931 . S
C1839 H1827 0.929 . S
C1839 C1833 1.390 . S
C1839 C1836 1.386 . S
C1840 C1835 1.490 . S
C1840 C1842 1.395 . S
C1840 C1843 1.403 . S
H1841 C1847 0.930 . S
C1842 H1828 0.930 . S
C1842 C1840 1.395 . S
C1842 C1845 1.403 . S
C1843 C1840 1.403 . S
C1843 C1844 1.524 . S
C1843 C1847 1.400 . S
C1844 H1829 0.960 . S
C1844 H1830 0.960 . S
C1844 H1831 0.960 . S
C1844 C1843 1.524 . S
C1845 C1842 1.403 . S
C1845 C1846 1.392 . S
C1845 C1849 1.495 . S
C1846 C1845 1.392 . S
C1846 C1847 1.385 . S
C1846 C1848 1.478 . S
C1847 H1841 0.930 . S
C1847 C1843 1.400 . S
C1847 C1846 1.385 . S
C1848 C1846 1.478 . S
C1848 C1850 1.381 . S
C1848 C1854 1.383 . S
C1849 C1845 1.495 . S
C1849 H1855 0.959 . S
C1849 H1856 0.961 . S
C1849 H1857 0.960 . S
C1850 C1848 1.381 . S
C1850 C1851 1.394 . S
C1850 H1858 0.930 . S
C1851 C1850 1.394 . S
C1851 C1852 1.383 . S
C1851 H1859 0.929 . S
C1852 C1851 1.383 . S
C1852 C1853 1.377 . S
C1853 H1837 0.930 . S
C1853 C1852 1.377 . S
C1853 C1854 1.379 . S
C1854 H1838 0.931 . S
C1854 C1848 1.383 . S
C1854 C1853 1.379 . S
H1855 C1849 0.959 . S
H1856 C1849 0.961 . S
H1857 C1849 0.960 . S
H1858 C1850 0.930 . S
H1859 C1851 0.929 . S
H1860 C1868 0.929 . S
H1861 C1870 0.930 . S
H1862 C1872 0.930 . S
H1863 C1875 0.929 . S
H1864 C1878 0.930 . S
H1865 C1880 0.960 . S
H1866 C1880 0.960 . S
H1867 C1880 0.960 . S
C1868 H1860 0.929 . S
C1868 C1869 1.377 . S
C1868 C1870 1.384 . S
C1869 C1868 1.377 . S
C1869 C1875 1.390 . S
C1870 H1861 0.930 . S
C1870 C1868 1.384 . S
C1870 C1871 1.372 . S
C1871 C1870 1.372 . S
C1871 C1872 1.400 . S
C1871 C1876 1.490 . S
C1872 H1862 0.930 . S
C1872 C1871 1.400 . S
C1872 C1875 1.386 . S
H1873 C1889 0.930 . S
H1874 C1890 0.931 . S
C1875 H1863 0.929 . S
C1875 C1869 1.390 . S
C1875 C1872 1.386 . S
C1876 C1871 1.490 . S
C1876 C1878 1.395 . S
C1876 C1879 1.403 . S
H1877 C1883 0.930 . S
C1878 H1864 0.930 . S
C1878 C1876 1.395 . S
C1878 C1881 1.403 . S
C1879 C1876 1.403 . S
C1879 C1880 1.524 . S
C1879 C1883 1.400 . S
C1880 H1865 0.960 . S
C1880 H1866 0.960 . S
C1880 H1867 0.960 . S
C1880 C1879 1.524 . S
C1881 C1878 1.403 . S
C1881 C1882 1.392 . S
C1881 C1885 1.495 . S
C1882 C1881 1.392 . S
C1882 C1883 1.385 . S
C1882 C1884 1.478 . S
C1883 H1877 0.930 . S
C1883 C1879 1.400 . S
C1883 C1882 1.385 . S
C1884 C1882 1.478 . S
C1884 C1886 1.381 . S
C1884 C1890 1.383 . S
C1885 C1881 1.495 . S
C1885 H1891 0.959 . S
C1885 H1892 0.961 . S
C1885 H1893 0.960 . S
C1886 C1884 1.381 . S
C1886 C1887 1.394 . S
C1886 H1894 0.930 . S
C1887 C1886 1.394 . S
C1887 C1888 1.383 . S
C1887 H1895 0.929 . S
C1888 C1887 1.383 . S
C1888 C1889 1.377 . S
C1889 H1873 0.930 . S
C1889 C1888 1.377 . S
C1889 C1890 1.379 . S
C1890 H1874 0.931 . S
C1890 C1884 1.383 . S
C1890 C1889 1.379 . S
H1891 C1885 0.959 . S
H1892 C1885 0.961 . S
H1893 C1885 0.960 . S
H1894 C1886 0.930 . S
H1895 C1887 0.929 . S
H1896 C1904 0.929 . S
H1897 C1906 0.930 . S
H1898 C1908 0.930 . S
H1899 C1911 0.929 . S
H1900 C1914 0.930 . S
H1901 C1916 0.960 . S
H1902 C1916 0.960 . S
H1903 C1916 0.960 . S
C1904 H1896 0.929 . S
C1904 C1905 1.377 . S
C1904 C1906 1.384 . S
C1905 C1904 1.377 . S
C1905 C1911 1.390 . S
C1906 H1897 0.930 . S
C1906 C1904 1.384 . S
C1906 C1907 1.372 . S
C1907 C1906 1.372 . S
C1907 C1908 1.400 . S
C1907 C1912 1.490 . S
C1908 H1898 0.930 . S
C1908 C1907 1.400 . S
C1908 C1911 1.386 . S
H1909 C1925 0.930 . S
H1910 C1926 0.931 . S
C1911 H1899 0.929 . S
C1911 C1905 1.390 . S
C1911 C1908 1.386 . S
C1912 C1907 1.490 . S
C1912 C1914 1.395 . S
C1912 C1915 1.403 . S
H1913 C1919 0.930 . S
C1914 H1900 0.930 . S
C1914 C1912 1.395 . S
C1914 C1917 1.403 . S
C1915 C1912 1.403 . S
C1915 C1916 1.524 . S
C1915 C1919 1.400 . S
C1916 H1901 0.960 . S
C1916 H1902 0.960 . S
C1916 H1903 0.960 . S
C1916 C1915 1.524 . S
C1917 C1914 1.403 . S
C1917 C1918 1.392 . S
C1917 C1921 1.495 . S
C1918 C1917 1.392 . S
C1918 C1919 1.385 . S
C1918 C1920 1.478 . S
C1919 H1913 0.930 . S
C1919 C1915 1.400 . S
C1919 C1918 1.385 . S
C1920 C1918 1.478 . S
C1920 C1922 1.381 . S
C1920 C1926 1.383 . S
C1921 C1917 1.495 . S
C1921 H1927 0.959 . S
C1921 H1928 0.961 . S
C1921 H1929 0.960 . S
C1922 C1920 1.381 . S
C1922 C1923 1.394 . S
C1922 H1930 0.930 . S
C1923 C1922 1.394 . S
C1923 C1924 1.383 . S
C1923 H1931 0.929 . S
C1924 C1923 1.383 . S
C1924 C1925 1.377 . S
C1925 H1909 0.930 . S
C1925 C1924 1.377 . S
C1925 C1926 1.379 . S
C1926 H1910 0.931 . S
C1926 C1920 1.383 . S
C1926 C1925 1.379 . S
H1927 C1921 0.959 . S
H1928 C1921 0.961 . S
H1929 C1921 0.960 . S
H1930 C1922 0.930 . S
H1931 C1923 0.929 . S
H1932 C1940 0.929 . S
H1933 C1942 0.930 . S
H1934 C1944 0.930 . S
H1935 C1947 0.929 . S
H1936 C1950 0.930 . S
H1937 C1952 0.960 . S
H1938 C1952 0.960 . S
H1939 C1952 0.960 . S
C1940 H1932 0.929 . S
C1940 C1941 1.377 . S
C1940 C1942 1.384 . S
C1941 C1940 1.377 . S
C1941 C1947 1.390 . S
C1942 H1933 0.930 . S
C1942 C1940 1.384 . S
C1942 C1943 1.372 . S
C1943 C1942 1.372 . S
C1943 C1944 1.400 . S
C1943 C1948 1.490 . S
C1944 H1934 0.930 . S
C1944 C1943 1.400 . S
C1944 C1947 1.386 . S
H1945 C1961 0.930 . S
H1946 C1962 0.931 . S
C1947 H1935 0.929 . S
C1947 C1941 1.390 . S
C1947 C1944 1.386 . S
C1948 C1943 1.490 . S
C1948 C1950 1.395 . S
C1948 C1951 1.403 . S
H1949 C1955 0.930 . S
C1950 H1936 0.930 . S
C1950 C1948 1.395 . S
C1950 C1953 1.403 . S
C1951 C1948 1.403 . S
C1951 C1952 1.524 . S
C1951 C1955 1.400 . S
C1952 H1937 0.960 . S
C1952 H1938 0.960 . S
C1952 H1939 0.960 . S
C1952 C1951 1.524 . S
C1953 C1950 1.403 . S
C1953 C1954 1.392 . S
C1953 C1957 1.495 . S
C1954 C1953 1.392 . S
C1954 C1955 1.385 . S
C1954 C1956 1.478 . S
C1955 H1949 0.930 . S
C1955 C1951 1.400 . S
C1955 C1954 1.385 . S
C1956 C1954 1.478 . S
C1956 C1958 1.381 . S
C1956 C1962 1.383 . S
C1957 C1953 1.495 . S
C1957 H1963 0.959 . S
C1957 H1964 0.961 . S
C1957 H1965 0.960 . S
C1958 C1956 1.381 . S
C1958 C1959 1.394 . S
C1958 H1966 0.930 . S
C1959 C1958 1.394 . S
C1959 C1960 1.383 . S
C1959 H1967 0.929 . S
C1960 C1959 1.383 . S
C1960 C1961 1.377 . S
C1961 H1945 0.930 . S
C1961 C1960 1.377 . S
C1961 C1962 1.379 . S
C1962 H1946 0.931 . S
C1962 C1956 1.383 . S
C1962 C1961 1.379 . S
H1963 C1957 0.959 . S
H1964 C1957 0.961 . S
H1965 C1957 0.960 . S
H1966 C1958 0.930 . S
H1967 C1959 0.929 . S
C537 N2 0.538 . S
C556 N431 0.562 . S
C573 N464 0.536 . S
C592 N35 0.553 . S
C609 N497 0.516 . S
C628 N68 0.450 . S
C645 N398 0.523 . S
C664 N101 0.491 . S
C681 N365 0.517 . S
C700 N134 0.456 . S
C717 N266 0.516 . S
C736 N167 0.452 . S
C753 N200 0.548 . S
C772 N299 0.601 . S
C789 N332 0.551 . S
C808 N233 0.619 . S
C825 C304 1.932 . S
C844 N13 2.047 . S
C861 N46 2.043 . S
C880 C337 1.912 . S
C897 N79 2.042 . S
C916 C370 1.928 . S
C933 N112 2.041 1_556 S
C952 C271 1.942 . S
C969 N145 2.042 1_554 S
C988 C502 1.923 . S
C1005 C403 1.931 . S
C1024 N178 2.044 . S
C1041 C436 1.941 . S
C1060 N211 2.030 . S
C1077 C469 1.936 . S
C1096 N244 2.042 . S
C1113 N277 2.044 . S
C1132 C40 1.907 . S
C1149 N310 2.041 1_556 S
C1168 C73 1.956 . S
C1185 N343 2.041 . S
C1204 C106 1.957 . S
C1221 C7 1.934 . S
C1240 N376 2.037 . S
C1257 N409 2.044 . S
C1276 C238 1.906 . S
C1293 C139 1.939 . S
C1312 N442 2.037 . S
C1329 N475 2.044 1_554 S
C1348 C172 1.906 . S
C1365 N508 2.044 . S
C1384 C205 1.906 . S
C1401 C21 1.119 . S
C1420 C351 1.103 . S
C1437 C384 1.125 . S
C1456 C54 1.123 . S
C1473 C87 1.118 . S
C1492 C285 1.129 . S
C1509 C318 1.123 . S
C1528 C120 1.101 . S
C1545 C153 1.117 . S
C1564 C483 1.109 . S
C1581 C516 1.117 . S
C1600 C186 1.112 . S
C1617 C417 1.124 . S
C1636 C219 1.136 . S
C1653 C450 1.123 . S
C1672 C252 1.136 . S
C1689 C216 0.347 . S
C1708 C18 0.331 . S
C1725 C51 0.374 . S
C1744 C249 0.268 . S
C1761 C150 0.344 . S
C1780 C84 0.346 . S
C1797 C117 0.374 . S
C1816 C183 0.308 . S
C1833 C282 0.342 . S
C1852 C480 0.359 . S
C1869 C315 0.354 . S
C1888 C513 0.299 . S
C1905 C348 0.357 . S
C1924 C414 0.421 . S
C1941 C447 0.336 . S
C1960 C381 0.392 . S
