# Generated by pormake.
# Topology une, (4)-cn, num edge types: 1
# Building blocks:
#     Node 0, Type 0, BuildingBlock: GALJAG_clean_sbu_0, # of connection points: 4
#     Node 1, Type 0, BuildingBlock: GALJAG_clean_sbu_0, # of connection points: 4
#     Node 2, Type 0, BuildingBlock: GALJAG_clean_sbu_0, # of connection points: 4
#     Node 3, Type 0, BuildingBlock: GALJAG_clean_sbu_0, # of connection points: 4
#     Node 4, Type 0, BuildingBlock: GALJAG_clean_sbu_0, # of connection points: 4
#     Node 5, Type 0, BuildingBlock: GALJAG_clean_sbu_0, # of connection points: 4
#     Node 6, Type 0, BuildingBlock: GALJAG_clean_sbu_0, # of connection points: 4
#     Node 7, Type 0, BuildingBlock: GALJAG_clean_sbu_0, # of connection points: 4
#     Node 8, Type 0, BuildingBlock: GALJAG_clean_sbu_0, # of connection points: 4
#     Node 9, Type 0, BuildingBlock: GALJAG_clean_sbu_0, # of connection points: 4
#     Node 10, Type 0, BuildingBlock: GALJAG_clean_sbu_0, # of connection points: 4
#     Node 11, Type 0, BuildingBlock: GALJAG_clean_sbu_0, # of connection points: 4
#     Node 12, Type 0, BuildingBlock: GALJAG_clean_sbu_0, # of connection points: 4
#     Node 13, Type 0, BuildingBlock: GALJAG_clean_sbu_0, # of connection points: 4
#     Node 14, Type 0, BuildingBlock: GALJAG_clean_sbu_0, # of connection points: 4
#     Node 15, Type 0, BuildingBlock: GALJAG_clean_sbu_0, # of connection points: 4
#     Node 16, Type 0, BuildingBlock: GALJAG_clean_sbu_0, # of connection points: 4
#     Node 17, Type 0, BuildingBlock: GALJAG_clean_sbu_0, # of connection points: 4
#     Edge 18, Type (0, 0), BuildingBlock: CIFDUS_clean_linker_0, # of connection points: 2
#     Edge 19, Type (0, 0), BuildingBlock: CIFDUS_clean_linker_0, # of connection points: 2
#     Edge 20, Type (0, 0), BuildingBlock: CIFDUS_clean_linker_0, # of connection points: 2
#     Edge 21, Type (0, 0), BuildingBlock: CIFDUS_clean_linker_0, # of connection points: 2
#     Edge 22, Type (0, 0), BuildingBlock: CIFDUS_clean_linker_0, # of connection points: 2
#     Edge 23, Type (0, 0), BuildingBlock: CIFDUS_clean_linker_0, # of connection points: 2
#     Edge 24, Type (0, 0), BuildingBlock: CIFDUS_clean_linker_0, # of connection points: 2
#     Edge 25, Type (0, 0), BuildingBlock: CIFDUS_clean_linker_0, # of connection points: 2
#     Edge 26, Type (0, 0), BuildingBlock: CIFDUS_clean_linker_0, # of connection points: 2
#     Edge 27, Type (0, 0), BuildingBlock: CIFDUS_clean_linker_0, # of connection points: 2
#     Edge 28, Type (0, 0), BuildingBlock: CIFDUS_clean_linker_0, # of connection points: 2
#     Edge 29, Type (0, 0), BuildingBlock: CIFDUS_clean_linker_0, # of connection points: 2
#     Edge 30, Type (0, 0), BuildingBlock: CIFDUS_clean_linker_0, # of connection points: 2
#     Edge 31, Type (0, 0), BuildingBlock: CIFDUS_clean_linker_0, # of connection points: 2
#     Edge 32, Type (0, 0), BuildingBlock: CIFDUS_clean_linker_0, # of connection points: 2
#     Edge 33, Type (0, 0), BuildingBlock: CIFDUS_clean_linker_0, # of connection points: 2
#     Edge 34, Type (0, 0), BuildingBlock: CIFDUS_clean_linker_0, # of connection points: 2
#     Edge 35, Type (0, 0), BuildingBlock: CIFDUS_clean_linker_0, # of connection points: 2
#     Edge 36, Type (0, 0), BuildingBlock: CIFDUS_clean_linker_0, # of connection points: 2
#     Edge 37, Type (0, 0), BuildingBlock: CIFDUS_clean_linker_0, # of connection points: 2
#     Edge 38, Type (0, 0), BuildingBlock: CIFDUS_clean_linker_0, # of connection points: 2
#     Edge 39, Type (0, 0), BuildingBlock: CIFDUS_clean_linker_0, # of connection points: 2
#     Edge 40, Type (0, 0), BuildingBlock: CIFDUS_clean_linker_0, # of connection points: 2
#     Edge 41, Type (0, 0), BuildingBlock: CIFDUS_clean_linker_0, # of connection points: 2
#     Edge 42, Type (0, 0), BuildingBlock: CIFDUS_clean_linker_0, # of connection points: 2
#     Edge 43, Type (0, 0), BuildingBlock: CIFDUS_clean_linker_0, # of connection points: 2
#     Edge 44, Type (0, 0), BuildingBlock: CIFDUS_clean_linker_0, # of connection points: 2
#     Edge 45, Type (0, 0), BuildingBlock: CIFDUS_clean_linker_0, # of connection points: 2
#     Edge 46, Type (0, 0), BuildingBlock: CIFDUS_clean_linker_0, # of connection points: 2
#     Edge 47, Type (0, 0), BuildingBlock: CIFDUS_clean_linker_0, # of connection points: 2
#     Edge 48, Type (0, 0), BuildingBlock: CIFDUS_clean_linker_0, # of connection points: 2
#     Edge 49, Type (0, 0), BuildingBlock: CIFDUS_clean_linker_0, # of connection points: 2
#     Edge 50, Type (0, 0), BuildingBlock: CIFDUS_clean_linker_0, # of connection points: 2
#     Edge 51, Type (0, 0), BuildingBlock: CIFDUS_clean_linker_0, # of connection points: 2
#     Edge 52, Type (0, 0), BuildingBlock: CIFDUS_clean_linker_0, # of connection points: 2
#     Edge 53, Type (0, 0), BuildingBlock: CIFDUS_clean_linker_0, # of connection points: 2
# Relax obj value: 0.162
# Max RMSD: 0.140
# Mean RMSD: 0.139
data_MOF--net-une--node1-GALJAG_clean_sbu_0--edge1-CIFDUS_clean_linker_0
_symmetry_space_group_name_H-M    P1
_symmetry_Int_Tables_number       1
_symmetry_cell_setting            triclinic
loop_
_symmetry_equiv_pos_as_xyz
'x, y, z'
_cell_length_a     35.102206
_cell_length_b     35.089991
_cell_length_c     45.208791
_cell_angle_alpha  90.092965
_cell_angle_beta   90.045919
_cell_angle_gamma 120.20328
loop_
_atom_site_label
_atom_site_type_symbol
_atom_site_fract_x
_atom_site_fract_y
_atom_site_fract_z
_atom_type_partial_charge
In0 In 0.35115 0.05376 0.06104 0.0
O1 O 0.31139 0.06314 0.09704 0.0
O2 O 0.37992 0.09188 0.10483 0.0
C3 C 0.28504 0.97004 0.05554 0.0
C4 C 0.35096 0.11388 0.02494 0.0
C5 C 0.41749 0.04405 0.03891 0.0
O6 O 0.31972 0.98009 0.06986 0.0
O7 O 0.28326 0.00229 0.04481 0.0
O8 O 0.4023 0.06521 0.02587 0.0
O9 O 0.40125 0.0299 0.06421 0.0
C10 C 0.34351 0.0869 0.11366 0.0
O11 O 0.37844 0.12389 0.04579 0.0
O12 O 0.32399 0.0731 0.02185 0.0
In13 In 0.93891 0.29944 0.05896 0.0
O14 O 0.9413 0.25752 0.09653 0.0
O15 O 0.89417 0.27824 0.10015 0.0
C16 C 0.02091 0.31334 0.0547 0.0
C17 C 0.87493 0.23871 0.02421 0.0
C18 C 0.95473 0.37996 0.04118 0.0
O19 O 0.01187 0.33747 0.07053 0.0
O20 O 0.98836 0.28171 0.04181 0.0
O21 O 0.94922 0.34968 0.02366 0.0
O22 O 0.94974 0.36907 0.06819 0.0
C23 C 0.9095 0.25538 0.11081 0.0
O24 O 0.86708 0.25547 0.0464 0.0
O25 O 0.91525 0.25384 0.01873 0.0
In26 In 0.70408 0.63263 0.05489 0.0
O27 O 0.74135 0.61031 0.02496 0.0
O28 O 0.75429 0.6761 0.02063 0.0
C29 C 0.62414 0.56295 0.04161 0.0
C30 C 0.75143 0.63903 0.10413 0.0
C31 C 0.67988 0.69339 0.05009 0.0
O32 O 0.65959 0.56727 0.0315 0.0
O33 O 0.62928 0.59101 0.06106 0.0
O34 O 0.69097 0.68503 0.07477 0.0
O35 O 0.68182 0.67184 0.02839 0.0
C36 C 0.7628 0.64701 0.01206 0.0
O37 O 0.76096 0.6705 0.08676 0.0
O38 O 0.71642 0.60373 0.09747 0.0
In39 In 0.61749 0.92631 0.95311 0.0
O40 O 0.6665 0.9294 0.91869 0.0
O41 O 0.59858 0.89153 0.90778 0.0
C42 C 0.67899 0.00507 0.97396 0.0
C43 C 0.61431 0.85895 0.98299 0.0
C44 C 0.54723 0.93573 0.96566 0.0
O45 O 0.67018 -0.00152 0.94665 0.0
O46 O 0.65774 0.9718 0.99031 0.0
O47 O 0.55414 0.90741 0.97755 0.0
O48 O 0.5738 0.9573 0.94513 0.0
C49 C 0.63781 0.90344 0.90059 0.0
O50 O 0.58581 0.8538 0.96396 0.0
O51 O 0.64429 0.89838 0.98735 0.0
In52 In 0.05785 0.68927 0.93841 0.0
O53 O 0.11528 0.72867 0.97021 0.0
O54 O 0.06413 0.74432 0.96787 0.0
C55 C 0.04748 0.61233 0.9597 0.0
C56 C 0.09889 0.72996 0.88718 0.0
C57 C 0.97316 0.66872 0.93672 0.0
O58 O 0.04548 0.64077 0.97562 0.0
O59 O 0.05718 0.62358 0.93293 0.0
O60 O 0.98484 0.64126 0.92975 0.0
O61 O 0.0043 0.70661 0.94344 0.0
C62 C 0.10056 0.75301 0.97902 0.0
O63 O 0.05763 0.70764 0.88981 0.0
O64 O 0.11965 0.72848 0.90948 0.0
In65 In 0.31199 0.37572 0.94851 0.0
O66 O 0.29891 0.35773 0.8992 0.0
O67 O 0.2743 0.39665 0.91755 0.0
C68 C 0.33469 0.3171 0.96624 0.0
C69 C 0.24073 0.34727 0.98321 0.0
C70 C 0.39078 0.44799 0.96028 0.0
O71 O 0.31884 0.31506 0.94077 0.0
O72 O 0.33804 0.34782 0.98251 0.0
O73 O 0.35515 0.44227 0.97106 0.0
O74 O 0.38602 0.42003 0.94086 0.0
C75 C 0.27558 0.37536 0.89547 0.0
O76 O 0.27029 0.38743 0.98187 0.0
O77 O 0.24756 0.3217 0.9674 0.0
In78 In 0.04037 0.40827 0.39528 0.0
O79 O -0.00233 0.4154 0.43031 0.0
O80 O 0.06658 0.4486 0.43832 0.0
C81 C 0.97874 0.32874 0.3757 0.0
C82 C 0.04053 0.46889 0.35929 0.0
C83 C 0.10375 0.38761 0.38639 0.0
O84 O 0.98321 0.33782 0.40303 0.0
O85 O 0.0037 0.35999 0.3589 0.0
O86 O 0.10028 0.41569 0.37105 0.0
O87 O 0.07859 0.37382 0.40865 0.0
C88 C 0.02915 0.44136 0.44676 0.0
O89 O 0.07521 0.47523 0.37221 0.0
O90 O 0.00656 0.43231 0.36461 0.0
In91 In 0.59046 0.63396 0.38141 0.0
O92 O 0.52149 0.58758 0.36454 0.0
O93 O 0.57341 0.57902 0.34789 0.0
C94 C 0.59759 0.71336 0.37107 0.0
C95 C 0.56532 0.58998 0.43365 0.0
C96 C 0.67164 0.65886 0.36245 0.0
O97 O 0.57096 0.67864 0.35754 0.0
O98 O 0.61742 0.70736 0.39227 0.0
O99 O 0.66241 0.65522 0.38971 0.0
O100 O 0.63969 0.64847 0.34508 0.0
C101 C 0.53271 0.56585 0.34808 0.0
O102 O 0.59937 0.59681 0.41987 0.0
O103 O 0.54569 0.60833 0.42239 0.0
In104 In 0.36506 0.96835 0.40081 0.0
O105 O 0.40612 0.95146 0.37072 0.0
O106 O 0.42117 0.01836 0.37245 0.0
C107 C 0.29088 0.90197 0.37606 0.0
C108 C 0.40161 0.96442 0.45301 0.0
C109 C 0.34725 0.03434 0.39958 0.0
O110 O 0.3257 0.92588 0.36182 0.0
O111 O 0.29386 0.90959 0.4036 0.0
O112 O 0.31743 0.99449 0.40183 0.0
O113 O 0.38599 0.04087 0.39868 0.0
C114 C 0.43048 0.99065 0.36201 0.0
O115 O 0.37792 0.98176 0.45063 0.0
O116 O 0.40271 0.94476 0.43002 0.0
In117 In 0.27435 0.24851 0.28742 0.0
O118 O 0.3151 0.23667 0.25338 0.0
O119 O 0.24666 0.20802 0.24462 0.0
C120 C 0.33744 0.33011 0.30224 0.0
C121 C 0.27525 0.19021 0.32518 0.0
C122 C 0.21066 0.26857 0.29704 0.0
O123 O 0.33195 0.31704 0.27568 0.0
O124 O 0.31267 0.30174 0.3208 0.0
O125 O 0.21546 0.24162 0.31275 0.0
O126 O 0.23462 0.28145 0.27419 0.0
C127 C 0.28319 0.2123 0.23669 0.0
O128 O 0.24107 0.18185 0.31073 0.0
O129 O 0.30833 0.22775 0.32056 0.0
In130 In 0.72904 0.03373 0.28346 0.0
O131 O 0.72647 0.07252 0.24403 0.0
O132 O 0.77448 0.05291 0.24247 0.0
C133 C 0.64642 0.01748 0.28962 0.0
C134 C 0.78784 0.09673 0.31929 0.0
C135 C 0.71807 0.95605 0.30353 0.0
O136 O 0.65531 0.99171 0.2757 0.0
O137 O 0.6793 0.05175 0.29992 0.0
O138 O 0.73823 0.99156 0.31786 0.0
O139 O 0.70625 0.96004 0.27786 0.0
C140 C 0.75869 0.07451 0.23047 0.0
O141 O 0.79889 0.08172 0.29757 0.0
O142 O 0.74682 0.07899 0.32352 0.0
In143 In 0.97142 0.70751 0.28317 0.0
O144 O 0.92616 0.73407 0.29408 0.0
O145 O 0.9259 0.68579 0.32287 0.0
C146 C 0.04864 0.77028 0.30696 0.0
C147 C 0.93476 0.70065 0.22921 0.0
C148 C 0.97954 0.63594 0.28857 0.0
O149 O 0.01241 0.75303 0.32045 0.0
O150 O 0.0459 0.75809 0.28028 0.0
O151 O 0.0096 0.67128 0.2774 0.0
O152 O 0.94551 0.63671 0.2965 0.0
C153 C 0.9099 0.70995 0.31661 0.0
O154 O 0.92634 0.66818 0.24534 0.0
O155 O 0.96457 0.73741 0.23927 0.0
In156 In 0.67932 0.72158 0.72789 0.0
O157 O 0.71893 0.78996 0.70753 0.0
O158 O 0.65379 0.74729 0.69169 0.0
C159 C 0.74006 0.69967 0.71148 0.0
C160 C 0.66856 0.75352 0.78035 0.0
C161 C 0.60707 0.64325 0.71775 0.0
O162 O 0.72072 0.71177 0.69361 0.0
O163 O 0.73039 0.70042 0.7384 0.0
O164 O 0.64008 0.64673 0.73146 0.0
O165 O 0.61024 0.67927 0.70992 0.0
C166 C 0.68842 0.78449 0.69012 0.0
O167 O 0.63948 0.71823 0.76865 0.0
O168 O 0.705 0.77134 0.76693 0.0
In169 In 0.27723 0.96359 0.72019 0.0
O170 O 0.28315 0.94082 0.76687 0.0
O171 O 0.22072 0.92996 0.75375 0.0
C172 C 0.35609 0.96923 0.71704 0.0
C173 C 0.21741 0.90469 0.68233 0.0
C174 C 0.29478 0.04455 0.70181 0.0
O175 O 0.32088 0.93505 0.7092 0.0
O176 O 0.35134 0.00026 0.72699 0.0
O177 O 0.29238 0.0151 0.68471 0.0
O178 O 0.28679 0.03292 0.72863 0.0
C179 C 0.24286 0.92363 0.77301 0.0
O180 O 0.20851 0.92608 0.70079 0.0
O181 O 0.25715 0.91396 0.68225 0.0
In182 In 0.04329 0.31528 0.726 0.0
O183 O 0.05763 0.33098 0.77551 0.0
O184 O 0.08623 0.29754 0.75463 0.0
C185 C 0.02917 0.38375 0.72615 0.0
C186 C 0.10283 0.32843 0.68403 0.0
C187 C 0.96447 0.24836 0.70709 0.0
O188 O 0.06675 0.38829 0.72191 0.0
O189 O -0.00108 0.3448 0.73127 0.0
O190 O 0.99144 0.27896 0.69061 0.0
O191 O 0.97789 0.25012 0.73334 0.0
C192 C 0.08364 0.31623 0.7777 0.0
O193 O 0.07778 0.29084 0.69504 0.0
O194 O 0.09702 0.35883 0.69376 0.0
In195 In 0.94924 0.59716 0.61892 0.0
O196 O 0.91924 0.53043 0.64186 0.0
O197 O 0.98553 0.57872 0.65207 0.0
C198 C 0.88007 0.60894 0.62927 0.0
C199 C 0.96002 0.56167 0.56839 0.0
C200 C 0.01041 0.68103 0.63141 0.0
O201 O 0.89112 0.58772 0.64626 0.0
O202 O 0.90154 0.62116 0.60531 0.0
O203 O 0.00497 0.66607 0.60536 0.0
O204 O 0.98601 0.65376 0.65062 0.0
C205 C 0.95378 0.54023 0.65633 0.0
O206 O 0.99127 0.58621 0.58547 0.0
O207 O 0.92302 0.55672 0.57582 0.0
In208 In 0.39205 0.35483 0.6016 0.0
O209 O 0.38572 0.37897 0.55581 0.0
O210 O 0.44844 0.38938 0.56758 0.0
C211 C 0.30957 0.33997 0.60716 0.0
C212 C 0.44664 0.41524 0.64095 0.0
C213 C 0.37835 0.27537 0.62006 0.0
O214 O 0.31761 0.31209 0.59539 0.0
O215 O 0.3431 0.37543 0.61531 0.0
O216 O 0.37963 0.30436 0.63714 0.0
O217 O 0.38579 0.28688 0.59316 0.0
C218 C 0.42581 0.3964 0.54907 0.0
O219 O 0.45561 0.38831 0.62873 0.0
O220 O 0.41011 0.41114 0.63355 0.0
In221 In 0.64651 0.039 0.61405 0.0
O222 O 0.61651 0.0709 0.6425 0.0
O223 O 0.5948 0.00295 0.64919 0.0
C224 C 0.72823 0.10266 0.63095 0.0
C225 C 0.60518 0.03654 0.56262 0.0
C226 C 0.64997 0.96432 0.6156 0.0
O227 O 0.70078 0.07356 0.64808 0.0
O228 O 0.71411 0.10098 0.60491 0.0
O229 O 0.61456 0.96485 0.61877 0.0
O230 O 0.68365 0.00144 0.61093 0.0
C231 C 0.59097 0.03571 0.65611 0.0
O232 O 0.63175 0.02239 0.56456 0.0
O233 O 0.60327 0.05595 0.5855 0.0
H234 H 0.42177 0.96993 0.04694 0.0
H235 H 0.47669 0.08908 0.99534 0.0
H236 H 0.51956 0.06485 0.96628 0.0
H237 H 0.54168 0.00957 0.95576 0.0
H238 H 0.48399 0.88921 0.00643 0.0
H239 H 0.4412 0.91351 0.03503 0.0
C240 C 0.44365 0.99082 0.02962 0.0
C241 C 0.4468 0.03156 0.02363 0.0
C242 C 0.46699 0.97601 0.0124 0.0
C243 C 0.47424 0.0578 1.00057 0.0
C244 C 0.49846 0.04381 0.98382 0.0
C245 C 0.51912 0.98836 0.97268 0.0
C246 C 0.51597 0.94758 0.97887 0.0
C247 C 0.49489 0.0028 0.98939 0.0
C248 C 0.48694 0.92068 1.00113 0.0
C249 C 0.4627 0.9347 0.01769 0.0
H250 H 0.98301 0.41221 0.98613 0.0
H251 H 0.96197 0.45016 0.07269 0.0
H252 H 0.99059 0.5259 0.05537 0.0
H253 H 0.02123 0.5811 0.01548 0.0
H254 H 0.0432 0.54295 0.9292 0.0
H255 H 0.01514 0.46756 0.94672 0.0
C256 C 0.9844 0.43696 1.0012 0.0
C257 C 0.96996 0.42542 0.03063 0.0
C258 C 0.00151 0.48047 0.9912 0.0
C259 C 0.97258 0.45808 0.04992 0.0
C260 C 0.9891 0.50141 0.04003 0.0
C261 C 0.02026 0.55639 1.00055 0.0
C262 C 0.03444 0.56773 0.97104 0.0
C263 C 0.00375 0.51299 0.01074 0.0
C264 C 0.03274 0.53522 0.95202 0.0
C265 C 0.01646 0.49203 0.96199 0.0
H266 H 0.46426 0.44115 0.95824 0.0
H267 H 0.41249 0.51858 0.99627 0.0
H268 H 0.47887 0.55874 0.02671 0.0
H269 H 0.55098 0.5707 0.04327 0.0
H270 H 0.60226 0.49271 0.0054 0.0
H271 H 0.53614 0.453 0.97478 0.0
C272 C 0.46788 0.46742 0.97275 0.0
C273 C 0.43377 0.47735 0.97466 0.0
C274 C 0.5055 0.48939 0.99082 0.0
C275 C 0.43853 0.51074 0.99412 0.0
C276 C 0.47626 0.53336 0.01176 0.0
C277 C 0.5473 0.54443 0.02872 0.0
C278 C 0.58124 0.53423 0.02692 0.0
C279 C 0.50966 0.52251 0.01062 0.0
C280 C 0.5764 0.50082 0.00745 0.0
C281 C 0.5388 0.47842 0.98972 0.0
H282 H 0.13726 0.39382 0.33146 0.0
H283 H 0.12046 0.32936 0.41558 0.0
H284 H 0.14884 0.28424 0.3945 0.0
H285 H 0.17712 0.26232 0.35199 0.0
H286 H 0.1937 0.32663 0.26782 0.0
H287 H 0.16538 0.37179 0.28892 0.0
C288 C 0.14048 0.37042 0.34535 0.0
C289 C 0.12727 0.36536 0.3752 0.0
C290 C 0.15569 0.34382 0.33286 0.0
C291 C 0.13088 0.33428 0.39268 0.0
C292 C 0.14668 0.30817 0.38054 0.0
C293 C 0.17389 0.28571 0.33809 0.0
C294 C 0.18705 0.29073 0.30823 0.0
C295 C 0.15863 0.31227 0.35057 0.0
C296 C 0.18333 0.32174 0.29073 0.0
C297 C 0.16756 0.34787 0.30288 0.0
H298 H 0.67096 0.79172 0.38457 0.0
H299 H 0.55599 0.73331 0.32826 0.0
H300 H 0.58472 0.80227 0.30089 0.0
H301 H 0.64373 0.87857 0.29173 0.0
H302 H 0.75766 0.93801 0.3488 0.0
H303 H 0.72875 0.86913 0.37662 0.0
C304 C 0.65179 0.79438 0.3667 0.0
C305 C 0.61124 0.75744 0.35861 0.0
C306 C 0.66891 0.83401 0.35067 0.0
C307 C 0.58715 0.76129 0.33509 0.0
C308 C 0.60376 0.80061 0.31922 0.0
C309 C 0.66251 0.87614 0.30995 0.0
C310 C 0.70317 0.91296 0.31786 0.0
C311 C 0.64497 0.83692 0.32644 0.0
C312 C 0.72656 0.90984 0.34207 0.0
C313 C 0.70987 0.87061 0.35813 0.0
H314 H 0.13182 0.79485 0.2882 0.0
H315 H 0.05993 0.80611 0.36182 0.0
H316 H 0.12776 0.84448 0.39069 0.0
H317 H 0.20778 0.87497 0.39527 0.0
H318 H 0.28023 0.86553 0.32141 0.0
H319 H 0.21211 0.82568 0.29274 0.0
C320 C 0.13115 0.8062 0.31042 0.0
C321 C 0.09089 0.79787 0.32273 0.0
C322 C 0.17034 0.82789 0.32712 0.0
C323 C 0.0905 0.81229 0.35172 0.0
C324 C 0.12925 0.83401 0.36836 0.0
C325 C 0.20848 0.8635 0.37309 0.0
C326 C 0.24887 0.87269 0.36061 0.0
C327 C 0.16933 0.84168 0.35641 0.0
C328 C 0.24944 0.8585 0.33159 0.0
C329 C 0.21055 0.836 0.3151 0.0
H330 H 0.85198 0.60808 0.68511 0.0
H331 H 0.84223 0.64641 0.59606 0.0
H332 H 0.79872 0.67869 0.61391 0.0
H333 H 0.76504 0.69739 0.655 0.0
H334 H 0.77742 0.66146 0.74425 0.0
H335 H 0.81908 0.62742 0.72616 0.0
C336 C 0.83986 0.62298 0.66951 0.0
C337 C 0.84988 0.62438 0.6392 0.0
C338 C 0.816 0.6425 0.68005 0.0
C339 C 0.83462 0.64455 0.61941 0.0
C340 C 0.81 0.66324 0.62965 0.0
C341 C 0.77706 0.68233 0.67055 0.0
C342 C 0.76825 0.68209 0.70099 0.0
C343 C 0.80089 0.66277 0.65996 0.0
C344 C 0.78399 0.66236 0.72078 0.0
C345 C 0.80757 0.64266 0.71041 0.0
H346 H 0.35499 0.24403 0.67591 0.0
H347 H 0.37218 0.20582 0.58838 0.0
H348 H 0.34702 0.13089 0.60598 0.0
H349 H 0.31937 0.07618 0.64609 0.0
H350 H 0.30204 0.11443 0.73357 0.0
H351 H 0.32771 0.18947 0.71604 0.0
C352 C 0.3535 0.21941 0.66068 0.0
C353 C 0.36563 0.23059 0.63084 0.0
C354 C 0.33863 0.17636 0.67091 0.0
C355 C 0.36323 0.19817 0.61143 0.0
C356 C 0.3487 0.15529 0.62148 0.0
C357 C 0.32102 0.10087 0.66133 0.0
C358 C 0.3086 0.08963 0.69112 0.0
C359 C 0.33609 0.14397 0.65113 0.0
C360 C 0.31121 0.12212 0.71056 0.0
C361 C 0.32601 0.16506 0.70055 0.0
H362 H 0.76508 0.10504 0.68415 0.0
H363 H 0.79438 0.17002 0.59938 0.0
H364 H 0.87054 0.21966 0.61521 0.0
H365 H 0.92848 0.24469 0.65323 0.0
H366 H 0.89896 0.17967 0.73801 0.0
H367 H 0.82313 0.12949 0.72192 0.0
C368 C 0.78805 0.13018 0.66914 0.0
C369 C 0.77398 0.13398 0.64063 0.0
C370 C 0.83176 0.1583 0.67832 0.0
C371 C 0.80429 0.16653 0.62144 0.0
C372 C 0.84785 0.19481 0.63047 0.0
C373 C 0.90557 0.21934 0.66815 0.0
C374 C 0.91944 0.21584 0.6968 0.0
C375 C 0.86195 0.19093 0.65884 0.0
C376 C 0.88922 0.18296 0.71585 0.0
C377 C 0.84582 0.15439 0.70669 0.0
H378 H 0.27054 0.0893 0.13032 0.0
H379 H 0.40682 0.13977 0.15386 0.0
H380 H 0.40047 0.18411 0.19337 0.0
H381 H 0.35634 0.20921 0.22075 0.0
H382 H 0.22021 0.1589 0.19676 0.0
H383 H 0.22655 0.11425 0.15759 0.0
C384 C 0.2988 0.10968 0.14425 0.0
C385 C 0.33907 0.11096 0.13925 0.0
C386 C 0.29506 0.13554 0.16659 0.0
C387 C 0.37541 0.13793 0.15734 0.0
C388 C 0.37183 0.16347 0.17983 0.0
C389 C 0.32812 0.18872 0.20682 0.0
C390 C 0.28786 0.1876 0.2116 0.0
C391 C 0.3319 0.16278 0.18451 0.0
C392 C 0.25159 0.16057 0.19349 0.0
C393 C 0.25515 0.13488 0.17116 0.0
H394 H 0.82608 0.22162 0.13195 0.0
H395 H 0.94512 0.2161 0.14367 0.0
H396 H 0.90835 0.15743 0.18023 0.0
H397 H 0.84199 0.10718 0.20888 0.0
H398 H 0.7229 0.11254 0.19672 0.0
H399 H 0.75962 0.17085 0.16003 0.0
C400 C 0.84412 0.20799 0.14283 0.0
C401 C 0.88843 0.22359 0.13536 0.0
C402 C 0.82246 0.17353 0.16339 0.0
C403 C 0.91109 0.20494 0.14922 0.0
C404 C 0.88999 0.17115 0.16999 0.0
C405 C 0.82393 0.12064 0.19783 0.0
C406 C 0.77966 0.10525 0.20538 0.0
C407 C 0.84554 0.15487 0.17708 0.0
C408 C 0.75692 0.12358 0.19121 0.0
C409 C 0.77799 0.15719 0.17036 0.0
H410 H 0.86057 0.62695 0.2113 0.0
H411 H 0.94623 0.76376 0.1888 0.0
H412 H 0.89657 0.7566 0.14832 0.0
H413 H 0.82799 0.71191 0.12024 0.0
H414 H 0.74155 0.57558 0.14362 0.0
H415 H 0.79223 0.58228 0.1832 0.0
C416 C 0.86869 0.65516 0.19736 0.0
C417 C 0.9073 0.69583 0.20294 0.0
C418 C 0.83957 0.65098 0.17457 0.0
C419 C 0.91696 0.73208 0.18487 0.0
C420 C 0.88843 0.72802 0.16183 0.0
C421 C 0.82011 0.68364 0.13405 0.0
C422 C 0.78088 0.64327 0.12903 0.0
C423 C 0.84945 0.68775 0.15668 0.0
C424 C 0.77133 0.60702 0.14708 0.0
C425 C 0.8004 0.61082 0.16963 0.0
H426 H 0.58644 0.82281 0.87594 0.0
H427 H 0.71598 0.93797 0.87115 0.0
H428 H 0.73806 0.90138 0.83443 0.0
H429 H 0.72065 0.83586 0.80403 0.0
H430 H 0.59181 0.71973 0.81101 0.0
H431 H 0.56977 0.75701 0.8468 0.0
C432 C 0.61926 0.84013 0.86648 0.0
C433 C 0.64928 0.88331 0.87584 0.0
C434 C 0.63217 0.81833 0.84615 0.0
C435 C 0.6921 0.9049 0.864 0.0
C436 C 0.70484 0.88386 0.84317 0.0
C437 C 0.68797 0.81857 0.81368 0.0
C438 C 0.65804 0.77495 0.80486 0.0
C439 C 0.67529 0.84036 0.83427 0.0
C440 C 0.61565 0.75319 0.81744 0.0
C441 C 0.60284 0.7746 0.8378 0.0
H442 H 0.1857 0.79285 0.88166 0.0
H443 H 0.06006 0.73791 0.83723 0.0
H444 H 0.09284 0.7948 0.79925 0.0
H445 H 0.15682 0.86089 0.77893 0.0
H446 H 0.28309 0.91502 0.82225 0.0
H447 H 0.25035 0.85836 0.86063 0.0
C448 C 0.16565 0.79297 0.86344 0.0
C449 C 0.1205 0.76092 0.86223 0.0
C450 C 0.18466 0.82619 0.84176 0.0
C451 C 0.09492 0.76192 0.83862 0.0
C452 C 0.11358 0.79468 0.81698 0.0
C453 C 0.17706 0.86066 0.79701 0.0
C454 C 0.22222 0.89252 0.79797 0.0
C455 C 0.15826 0.82727 0.8185 0.0
C456 C 0.24816 0.89116 0.82118 0.0
C457 C 0.22951 0.85856 0.843 0.0
H458 H 0.20538 0.38755 0.89088 0.0
H459 H 0.2777 0.33816 0.84276 0.0
H460 H 0.22324 0.31315 0.80277 0.0
H461 H 0.1544 0.3044 0.78181 0.0
H462 H 0.08179 0.353 0.83047 0.0
H463 H 0.13649 0.37835 0.87019 0.0
C464 C 0.20959 0.37188 0.87145 0.0
C465 C 0.24587 0.36521 0.86965 0.0
C466 C 0.17759 0.35664 0.84891 0.0
C467 C 0.25034 0.34409 0.84456 0.0
C468 C 0.21902 0.32948 0.8218 0.0
C469 C 0.15024 0.32002 0.80129 0.0
C470 C 0.11382 0.32648 0.80326 0.0
C471 C 0.18225 0.33516 0.82387 0.0
C472 C 0.10928 0.34731 0.82848 0.0
C473 C 0.14075 0.36212 0.85111 0.0
H474 H 0.95406 0.44092 0.46222 0.0
H475 H 0.09041 0.49579 0.48731 0.0
H476 H 0.08129 0.53882 0.52643 0.0
H477 H 0.03481 0.56144 0.55317 0.0
H478 H 0.89856 0.50698 0.52793 0.0
H479 H 0.90757 0.46365 0.48894 0.0
C480 C 0.98171 0.462 0.47641 0.0
C481 C 0.02284 0.46486 0.47195 0.0
C482 C 0.97636 0.48712 0.4986 0.0
C483 C 0.05839 0.49274 0.49035 0.0
C484 C 0.05322 0.51752 0.51264 0.0
C485 C 0.00711 0.54032 0.53902 0.0
C486 C 0.96606 0.53765 0.5434 0.0
C487 C 0.01244 0.51519 0.51684 0.0
C488 C 0.93052 0.50985 0.52497 0.0
C489 C 0.93562 0.48491 0.50275 0.0
H490 H 0.47919 0.53933 0.44855 0.0
H491 H 0.60933 0.566 0.47218 0.0
H492 H 0.57783 0.50698 0.50907 0.0
H493 H 0.51291 0.44726 0.53447 0.0
H494 H 0.38271 0.41877 0.50884 0.0
H495 H 0.41445 0.47818 0.47257 0.0
C496 C 0.50066 0.53263 0.4621 0.0
C497 C 0.54657 0.55752 0.45805 0.0
C498 C 0.4822 0.49767 0.48254 0.0
C499 C 0.57391 0.54764 0.47517 0.0
C500 C 0.55588 0.51369 0.49611 0.0
C501 C 0.49148 0.45367 0.52066 0.0
C502 C 0.44544 0.42839 0.52436 0.0
C503 C 0.51002 0.48822 0.49985 0.0
C504 C 0.41822 0.43745 0.5064 0.0
C505 C 0.43636 0.4717 0.48577 0.0
H506 H 0.53108 0.04249 0.56182 0.0
H507 H 0.60524 -0.00034 0.5093 0.0
H508 H 0.54682 0.97002 0.47187 0.0
H509 H 0.47446 0.95603 0.45421 0.0
H510 H 0.40058 -0.00089 0.50682 0.0
H511 H 0.45855 0.02781 0.54449 0.0
C512 C 0.53478 0.02723 0.54199 0.0
C513 C 0.57278 0.0238 0.53819 0.0
C514 C 0.50062 0.0094 0.52092 0.0
C515 C 0.5766 0.00318 0.51261 0.0
C516 C 0.54301 0.98587 0.49133 0.0
C517 C 0.47066 0.97097 0.47417 0.0
C518 C 0.43297 0.97499 0.47785 0.0
C519 C 0.50468 0.98842 0.49539 0.0
C520 C 0.42901 0.99521 0.50359 0.0
C521 C 0.46235 0.012 0.525 0.0
H522 H 0.20122 0.94002 0.03789 0.0
H523 H 0.29444 0.89763 0.0574 0.0
H524 H 0.24337 0.82429 0.03762 0.0
H525 H 0.17576 0.7753 0.00958 0.0
H526 H 0.08238 0.818 0.99104 0.0
H527 H 0.12972 0.88794 0.01595 0.0
C528 C 0.20998 0.91445 0.03823 0.0
C529 C 0.25155 0.92416 0.04868 0.0
C530 C 0.1806 0.87258 0.0268 0.0
C531 C 0.2625 0.89078 0.0494 0.0
C532 C 0.23346 0.84898 0.03794 0.0
C533 C 0.16555 0.79969 0.01141 0.0
C534 C 0.12605 0.79184 0.99812 0.0
C535 C 0.19297 0.83994 0.02577 0.0
C536 C 0.11284 0.82341 1.00093 0.0
C537 C 0.13993 0.86349 0.01509 0.0
H538 H 0.04648 0.26031 0.02917 0.0
H539 H 0.09704 0.38967 0.06744 0.0
H540 H 0.17135 0.41068 0.05082 0.0
H541 H 0.22001 0.39462 0.0207 0.0
H542 H 0.16868 0.26508 0.98241 0.0
H543 H 0.09659 0.24165 0.00399 0.0
C544 C 0.0739 0.2929 0.03422 0.0
C545 C 0.06638 0.32361 0.04912 0.0
C546 C 0.11625 0.3048 0.0244 0.0
C547 C 0.10213 0.36552 0.05589 0.0
C548 C 0.14453 0.37762 0.04626 0.0
C549 C 0.19316 0.36112 0.01744 0.0
C550 C 0.19938 0.33181 0.99969 0.0
C551 C 0.1517 0.34792 0.02977 0.0
C552 C 0.16456 0.28834 0.99585 0.0
C553 C 0.12331 0.27493 0.0081 0.0
H554 H 0.6184 0.68719 0.01246 0.0
H555 H 0.71043 0.77201 0.07878 0.0
H556 H 0.69525 0.83091 0.06544 0.0
H557 H 0.66185 0.86025 0.03078 0.0
H558 H 0.56835 0.77352 0.96553 0.0
H559 H 0.57758 0.71291 0.98284 0.0
C560 C 0.63463 0.71844 0.02422 0.0
C561 C 0.66592 0.72595 0.04611 0.0
C562 C 0.62564 0.75165 0.01651 0.0
C563 C 0.68628 0.76592 0.06174 0.0
C564 C 0.67779 0.79952 0.054 0.0
C565 C 0.64309 0.82788 0.0207 0.0
C566 C 0.61505 0.82139 0.99666 0.0
C567 C 0.6485 0.79313 0.0308 0.0
C568 C 0.59034 0.77928 0.98398 0.0
C569 C 0.5957 0.74467 0.99376 0.0
H570 H 0.75025 0.07213 0.94684 0.0
H571 H 0.67772 0.03496 0.02882 0.0
H572 H 0.72967 0.10642 0.05042 0.0
H573 H 0.79746 0.17769 0.04694 0.0
H574 H 0.87514 0.21266 0.96727 0.0
H575 H 0.8193 0.14411 0.94355 0.0
C576 C 0.74586 0.07996 0.96935 0.0
C577 C 0.71042 0.04858 0.98629 0.0
C578 C 0.77666 0.12065 0.98194 0.0
C579 C 0.70506 0.05864 0.01551 0.0
C580 C 0.7346 0.09948 0.02781 0.0
C581 C 0.80177 0.17058 0.02421 0.0
C582 C 0.83987 0.20013 0.00866 0.0
C583 C 0.7707 0.13051 0.01134 0.0
C584 C 0.84577 0.19027 0.97951 0.0
C585 C 0.814 0.15112 0.96604 0.0
H586 H 0.78298 0.58902 0.98711 0.0
H587 H 0.82253 0.72704 0.98985 0.0
H588 H 0.88911 0.74542 0.96208 0.0
H589 H 0.94075 0.72338 0.94373 0.0
H590 H 0.90229 0.5857 0.94154 0.0
H591 H 0.83008 0.5659 0.96176 0.0
C592 C 0.80585 0.623 0.98116 0.0
C593 C 0.79844 0.65672 0.99097 0.0
C594 C 0.84426 0.63339 0.96542 0.0
C595 C 0.82783 0.70056 0.98278 0.0
C596 C 0.86595 0.71112 0.96698 0.0
C597 C 0.91617 0.68897 0.94707 0.0
C598 C 0.92688 0.65609 0.94168 0.0
C599 C 0.87523 0.67798 0.95917 0.0
C600 C 0.89472 0.6116 0.94568 0.0
C601 C 0.8536 0.60029 0.95745 0.0
H602 H 0.30464 0.23344 0.94694 0.0
H603 H 0.39282 0.33055 0.00982 0.0
H604 H 0.40936 0.27689 0.03147 0.0
H605 H 0.39396 0.20124 0.03532 0.0
H606 H 0.30169 0.10189 0.97526 0.0
H607 H 0.29177 0.1576 0.94944 0.0
C608 C 0.32789 0.24282 0.96511 0.0
C609 C 0.34733 0.28557 0.97696 0.0
C610 C 0.33627 0.21142 0.97801 0.0
C611 C 0.37719 0.29756 1.00059 0.0
C612 C 0.38669 0.26698 0.01295 0.0
C613 C 0.37212 0.19186 0.01633 0.0
C614 C 0.34845 0.14766 0.00724 0.0
C615 C 0.36567 0.22362 1.00227 0.0
C616 C 0.32012 0.13584 0.9827 0.0
C617 C 0.31439 0.1676 0.96799 0.0
H618 H 0.90067 0.26493 0.39863 0.0
H619 H 0.99072 0.29412 0.32591 0.0
H620 H 0.94132 0.22253 0.30374 0.0
H621 H 0.87099 0.15404 0.30321 0.0
H622 H 0.77686 0.12607 0.37297 0.0
H623 H 0.8294 0.1945 0.39834 0.0
C624 C 0.90938 0.25526 0.37807 0.0
C625 C 0.94893 0.28457 0.36377 0.0
C626 C 0.88016 0.21441 0.36494 0.0
C627 C 0.96008 0.27211 0.33708 0.0
C628 C 0.93199 0.23119 0.32444 0.0
C629 C 0.86218 0.1626 0.32418 0.0
C630 C 0.82036 0.1352 0.33631 0.0
C631 C 0.89172 0.20242 0.33793 0.0
C632 C 0.80904 0.14686 0.36327 0.0
C633 C 0.83897 0.18595 0.3777 0.0
H634 H 0.8497 0.72757 0.29404 0.0
H635 H 0.88245 0.68072 0.37272 0.0
H636 H 0.81218 0.66387 0.3952 0.0
H637 H 0.73894 0.65691 0.39054 0.0
H638 H 0.70433 0.6971 0.30952 0.0
H639 H 0.77783 0.72211 0.28977 0.0
C640 C 0.84176 0.71446 0.31633 0.0
C641 C 0.87101 0.70559 0.33186 0.0
C642 C 0.80076 0.70311 0.32846 0.0
C643 C 0.86022 0.68785 0.36047 0.0
C644 C 0.82008 0.67806 0.37323 0.0
C645 C 0.74777 0.67145 0.36868 0.0
C646 C 0.71649 0.67502 0.35139 0.0
C647 C 0.78967 0.68461 0.35713 0.0
C648 C 0.72792 0.69365 0.32304 0.0
C649 C 0.76991 0.7081 0.31179 0.0
H650 H 0.34557 0.20241 0.35686 0.0
H651 H 0.21115 0.10495 0.33567 0.0
H652 H 0.21991 0.04848 0.36132 0.0
H653 H 0.26875 0.02548 0.38404 0.0
H654 H 0.40453 0.12258 0.40195 0.0
H655 H 0.39209 0.18088 0.3837 0.0
C656 C 0.31798 0.16893 0.3582 0.0
C657 C 0.27799 0.1576 0.3441 0.0
C658 C 0.3236 0.13665 0.37228 0.0
C659 C 0.24238 0.11428 0.34621 0.0
C660 C 0.24741 0.08202 0.36079 0.0
C661 C 0.29531 0.05954 0.38453 0.0
C662 C 0.33756 0.06984 0.39403 0.0
C663 C 0.28829 0.0926 0.3731 0.0
C664 C 0.3718 0.11397 0.39451 0.0
C665 C 0.36476 0.14723 0.384 0.0
H666 H 0.44749 0.51524 0.36236 0.0
H667 H 0.54569 0.52539 0.30061 0.0
H668 H 0.49222 0.45416 0.27871 0.0
H669 H 0.41853 0.38661 0.27965 0.0
H670 H 0.3242 0.37487 0.34535 0.0
H671 H 0.37499 0.44919 0.36319 0.0
C672 C 0.45698 0.50214 0.34382 0.0
C673 C 0.50014 0.52535 0.33292 0.0
C674 C 0.42682 0.46075 0.33226 0.0
C675 C 0.51243 0.50785 0.30927 0.0
C676 C 0.48196 0.4672 0.29683 0.0
C677 C 0.40922 0.40072 0.29766 0.0
C678 C 0.36803 0.37567 0.31129 0.0
C679 C 0.43924 0.44298 0.3085 0.0
C680 C 0.35608 0.3937 0.33478 0.0
C681 C 0.38497 0.43613 0.34493 0.0
H682 H 0.6193 0.0734 0.30742 0.0
H683 H 0.5721 0.93691 0.2861 0.0
H684 H 0.49873 0.91679 0.30417 0.0
H685 H 0.45083 0.93711 0.33119 0.0
H686 H 0.49809 0.0738 0.35205 0.0
H687 H 0.56857 0.09491 0.32859 0.0
C688 C 0.59272 0.03937 0.30637 0.0
C689 C 0.601 0.00656 0.29592 0.0
C690 C 0.55084 0.02809 0.31684 0.0
C691 C 0.56637 0.96268 0.29419 0.0
C692 C 0.52453 0.95113 0.30464 0.0
C693 C 0.47637 0.97156 0.33018 0.0
C694 C 0.4697 0.00379 0.34367 0.0
C695 C 0.5168 0.98341 0.3168 0.0
C696 C 0.50267 0.04839 0.34193 0.0
C697 C 0.54301 0.06046 0.32865 0.0
H698 H 0.05602 0.63681 0.29815 0.0
H699 H 0.91502 0.55076 0.294 0.0
H700 H 0.92254 0.48946 0.31236 0.0
H701 H 0.96798 0.46305 0.33477 0.0
H702 H 0.10842 0.55007 0.34325 0.0
H703 H 0.10253 0.60845 0.31776 0.0
C704 C 0.02714 0.60435 0.30071 0.0
C705 C 0.98505 0.59804 0.29489 0.0
C706 C 0.0316 0.56979 0.31236 0.0
C707 C 0.9477 0.55618 0.29854 0.0
C708 C 0.95197 0.52126 0.30908 0.0
C709 C -0.00257 0.49461 0.33074 0.0
C710 C 0.03849 0.50252 0.34109 0.0
C711 C 0.99358 0.5281 0.31692 0.0
C712 C 0.07638 0.54343 0.33563 0.0
C713 C 0.07302 0.57676 0.32111 0.0
H714 H 0.44015 0.48451 0.66025 0.0
H715 H 0.52326 0.42675 0.66484 0.0
H716 H 0.57847 0.49067 0.69273 0.0
H717 H 0.60589 0.56597 0.71147 0.0
H718 H 0.52485 0.62559 0.70294 0.0
H719 H 0.46565 0.55766 0.68123 0.0
C720 C 0.47009 0.48564 0.66769 0.0
C721 C 0.47782 0.45119 0.66041 0.0
C722 C 0.50204 0.52288 0.6829 0.0
C723 C 0.51676 0.45307 0.67009 0.0
C724 C 0.5483 0.48959 0.68599 0.0
C725 C 0.57491 0.56369 0.70535 0.0
C726 C 0.56955 0.60052 0.70871 0.0
C727 C 0.54171 0.52511 0.69192 0.0
C728 C 0.52961 0.59755 0.70042 0.0
C729 C 0.49586 0.55883 0.68796 0.0
H730 H 0.5211 0.95997 0.67516 0.0
H731 H 0.57912 0.10136 0.67846 0.0
H732 H 0.51247 0.09289 0.70186 0.0
H733 H 0.43462 0.04517 0.7152 0.0
H734 H 0.37489 0.90396 0.70735 0.0
H735 H 0.44549 0.91237 0.69212 0.0
C736 C 0.51952 0.98896 0.68155 0.0
C737 C 0.55475 0.03122 0.67497 0.0
C738 C 0.48061 0.98379 0.69385 0.0
C739 C 0.55225 0.06848 0.68323 0.0
C740 C 0.51412 0.06364 0.69647 0.0
C741 C 0.43733 0.01625 0.71068 0.0
C742 C 0.39973 0.97404 0.71216 0.0
C743 C 0.47759 0.02144 0.70095 0.0
C744 C 0.40345 0.9368 0.70612 0.0
C745 C 0.44373 0.94159 0.69739 0.0
H746 H 0.95019 0.37669 0.71509 0.0
H747 H 0.08868 0.47159 0.72477 0.0
H748 H 0.07607 0.53018 0.70725 0.0
H749 H 0.02755 0.55217 0.68345 0.0
H750 H 0.89011 0.45622 0.67007 0.0
H751 H 0.9003 0.40018 0.69501 0.0
C752 C 0.9774 0.41039 0.71397 0.0
C753 C 0.02031 0.41994 0.72101 0.0
C754 C 0.97016 0.44348 0.70286 0.0
C755 C 0.05539 0.46356 0.7193 0.0
C756 C 0.04823 0.49697 0.70919 0.0
C757 C -0.00033 0.51916 0.68638 0.0
C758 C 0.95827 0.50812 0.67472 0.0
C759 C 0.00605 0.48698 0.69998 0.0
C760 C 0.92239 0.46533 0.67872 0.0
C761 C 0.92821 0.43331 0.69292 0.0
H762 H 0.13021 0.8634 0.69239 0.0
H763 H 0.22732 0.86256 0.63447 0.0
H764 H 0.16996 0.79521 0.61052 0.0
H765 H 0.09318 0.73249 0.60974 0.0
H766 H -0.0008 0.73075 0.67187 0.0
H767 H 0.0541 0.80336 0.69037 0.0
C768 C 0.13872 0.84893 0.67417 0.0
C769 C 0.18277 0.86778 0.66514 0.0
C770 C 0.10608 0.80953 0.66145 0.0
C771 C 0.1935 0.84846 0.64178 0.0
C772 C 0.16078 0.80995 0.62817 0.0
C773 C 0.08478 0.74857 0.62694 0.0
C774 C 0.0425 0.7267 0.6395 0.0
C775 C 0.11711 0.78958 0.63833 0.0
C776 C 0.03178 0.74718 0.66206 0.0
C777 C 0.06308 0.78857 0.67263 0.0
H778 H 0.11919 0.26876 0.65716 0.0
H779 H 0.16897 0.40848 0.6663 0.0
H780 H 0.23605 0.42444 0.6401 0.0
H781 H 0.28402 0.39881 0.62005 0.0
H782 H 0.23484 0.2594 0.61039 0.0
H783 H 0.16374 0.24313 0.63092 0.0
C784 C 0.14445 0.30265 0.65298 0.0
C785 C 0.13952 0.33737 0.66403 0.0
C786 C 0.18309 0.31164 0.63799 0.0
C787 C 0.17217 0.38116 0.65819 0.0
C788 C 0.21062 0.39035 0.6433 0.0
C789 C 0.25745 0.3649 0.622 0.0
C790 C 0.26465 0.33033 0.61417 0.0
C791 C 0.21696 0.35587 0.63394 0.0
C792 C 0.22995 0.28654 0.61638 0.0
C793 C 0.18944 0.27723 0.62827 0.0
H794 H 0.62267 0.78322 0.65843 0.0
H795 H 0.76049 0.86542 0.68003 0.0
H796 H 0.76222 0.92749 0.65425 0.0
H797 H 0.7222 0.96036 0.63114 0.0
H798 H 0.58293 0.87936 0.61362 0.0
H799 H 0.58418 0.81446 0.6318 0.0
C800 C 0.65326 0.81453 0.6571 0.0
C801 C 0.69127 0.82 0.67131 0.0
C802 C 0.65363 0.85023 0.64308 0.0
C803 C 0.73071 0.86063 0.66941 0.0
C804 C 0.7317 0.89609 0.65472 0.0
C805 C 0.69239 0.92828 0.6307 0.0
C806 C 0.65249 0.92445 0.62125 0.0
C807 C 0.69303 0.89158 0.64226 0.0
C808 C 0.61395 0.88294 0.62097 0.0
C809 C 0.61462 0.84594 0.63145 0.0
loop_
_geom_bond_atom_site_label_1
_geom_bond_atom_site_label_2
_geom_bond_distance
_geom_bond_site_symmetry_2
_ccdc_geom_bond_type
In0 O1 2.294 . S
In0 O2 2.326 . S
In0 O6 2.266 1_545 S
In0 O7 2.326 . S
In0 O8 2.266 . S
In0 O9 2.326 . S
In0 O11 2.294 . S
In0 O12 2.326 . S
O1 In0 2.294 . S
O1 C10 1.240 . S
O2 In0 2.326 . S
O2 C10 1.252 . S
C3 O6 1.252 . S
C3 O7 1.260 1_565 S
C4 O11 1.240 . S
C4 O12 1.252 . S
C5 O8 1.252 . S
C5 O9 1.260 . S
O6 In0 2.266 1_565 S
O6 C3 1.252 . S
O7 In0 2.326 . S
O7 C3 1.260 1_545 S
O8 In0 2.266 . S
O8 C5 1.252 . S
O9 In0 2.326 . S
O9 C5 1.260 . S
C10 O1 1.240 . S
C10 O2 1.252 . S
O11 In0 2.294 . S
O11 C4 1.240 . S
O12 In0 2.326 . S
O12 C4 1.252 . S
In13 O14 2.294 . S
In13 O15 2.326 . S
In13 O19 2.266 1_655 S
In13 O20 2.326 . S
In13 O21 2.266 . S
In13 O22 2.326 . S
In13 O24 2.294 . S
In13 O25 2.326 . S
O14 In13 2.294 . S
O14 C23 1.240 . S
O15 In13 2.326 . S
O15 C23 1.252 . S
C16 O19 1.252 . S
C16 O20 1.260 1_455 S
C17 O24 1.240 . S
C17 O25 1.252 . S
C18 O21 1.252 . S
C18 O22 1.260 . S
O19 In13 2.266 1_455 S
O19 C16 1.252 . S
O20 In13 2.326 . S
O20 C16 1.260 1_655 S
O21 In13 2.266 . S
O21 C18 1.252 . S
O22 In13 2.326 . S
O22 C18 1.260 . S
C23 O14 1.240 . S
C23 O15 1.252 . S
O24 In13 2.294 . S
O24 C17 1.240 . S
O25 In13 2.326 . S
O25 C17 1.252 . S
In26 O27 2.294 . S
In26 O28 2.326 . S
In26 O32 2.266 . S
In26 O33 2.326 . S
In26 O34 2.266 . S
In26 O35 2.326 . S
In26 O37 2.294 . S
In26 O38 2.326 . S
O27 In26 2.294 . S
O27 C36 1.240 . S
O28 In26 2.326 . S
O28 C36 1.252 . S
C29 O32 1.252 . S
C29 O33 1.260 . S
C30 O37 1.240 . S
C30 O38 1.252 . S
C31 O34 1.252 . S
C31 O35 1.260 . S
O32 In26 2.266 . S
O32 C29 1.252 . S
O33 In26 2.326 . S
O33 C29 1.260 . S
O34 In26 2.266 . S
O34 C31 1.252 . S
O35 In26 2.326 . S
O35 C31 1.260 . S
C36 O27 1.240 . S
C36 O28 1.252 . S
O37 In26 2.294 . S
O37 C30 1.240 . S
O38 In26 2.326 . S
O38 C30 1.252 . S
In39 O40 2.294 . S
In39 O41 2.326 . S
In39 O45 2.266 1_565 S
In39 O46 2.326 . S
In39 O47 2.266 . S
In39 O48 2.326 . S
In39 O50 2.294 . S
In39 O51 2.326 . S
O40 In39 2.294 . S
O40 C49 1.240 . S
O41 In39 2.326 . S
O41 C49 1.252 . S
C42 O45 1.252 . S
C42 O46 1.260 1_545 S
C43 O50 1.240 . S
C43 O51 1.252 . S
C44 O47 1.252 . S
C44 O48 1.260 . S
O45 In39 2.266 1_545 S
O45 C42 1.252 . S
O46 In39 2.326 . S
O46 C42 1.260 1_565 S
O47 In39 2.266 . S
O47 C44 1.252 . S
O48 In39 2.326 . S
O48 C44 1.260 . S
C49 O40 1.240 . S
C49 O41 1.252 . S
O50 In39 2.294 . S
O50 C43 1.240 . S
O51 In39 2.326 . S
O51 C43 1.252 . S
In52 O53 2.294 . S
In52 O54 2.326 . S
In52 O58 2.266 . S
In52 O59 2.326 . S
In52 O60 2.266 1_455 S
In52 O61 2.326 . S
In52 O63 2.294 . S
In52 O64 2.326 . S
O53 In52 2.294 . S
O53 C62 1.240 . S
O54 In52 2.326 . S
O54 C62 1.252 . S
C55 O58 1.252 . S
C55 O59 1.260 . S
C56 O63 1.240 . S
C56 O64 1.252 . S
C57 O60 1.252 . S
C57 O61 1.260 1_655 S
O58 In52 2.266 . S
O58 C55 1.252 . S
O59 In52 2.326 . S
O59 C55 1.260 . S
O60 In52 2.266 1_655 S
O60 C57 1.252 . S
O61 In52 2.326 . S
O61 C57 1.260 1_455 S
C62 O53 1.240 . S
C62 O54 1.252 . S
O63 In52 2.294 . S
O63 C56 1.240 . S
O64 In52 2.326 . S
O64 C56 1.252 . S
In65 O66 2.294 . S
In65 O67 2.326 . S
In65 O71 2.266 . S
In65 O72 2.326 . S
In65 O73 2.266 . S
In65 O74 2.326 . S
In65 O76 2.294 . S
In65 O77 2.326 . S
O66 In65 2.294 . S
O66 C75 1.240 . S
O67 In65 2.326 . S
O67 C75 1.252 . S
C68 O71 1.252 . S
C68 O72 1.260 . S
C69 O76 1.240 . S
C69 O77 1.252 . S
C70 O73 1.252 . S
C70 O74 1.260 . S
O71 In65 2.266 . S
O71 C68 1.252 . S
O72 In65 2.326 . S
O72 C68 1.260 . S
O73 In65 2.266 . S
O73 C70 1.252 . S
O74 In65 2.326 . S
O74 C70 1.260 . S
C75 O66 1.240 . S
C75 O67 1.252 . S
O76 In65 2.294 . S
O76 C69 1.240 . S
O77 In65 2.326 . S
O77 C69 1.252 . S
In78 O79 2.284 1_455 S
In78 O80 2.326 . S
In78 O84 2.266 1_455 S
In78 O85 2.326 1_455 S
In78 O86 2.266 . S
In78 O87 2.326 . S
In78 O89 2.294 . S
In78 O90 2.326 1_455 S
O79 In78 2.284 1_655 S
O79 C88 1.228 1_655 S
O80 In78 2.326 . S
O80 C88 1.252 . S
C81 O84 1.252 . S
C81 O85 1.260 . S
C82 O89 1.240 . S
C82 O90 1.252 1_455 S
C83 O86 1.252 . S
C83 O87 1.260 . S
O84 In78 2.266 1_655 S
O84 C81 1.252 . S
O85 In78 2.326 1_655 S
O85 C81 1.260 . S
O86 In78 2.266 . S
O86 C83 1.252 . S
O87 In78 2.326 . S
O87 C83 1.260 . S
C88 O79 1.228 1_455 S
C88 O80 1.252 . S
O89 In78 2.294 . S
O89 C82 1.240 . S
O90 In78 2.326 1_655 S
O90 C82 1.252 1_655 S
In91 O92 2.294 . S
In91 O93 2.326 . S
In91 O97 2.266 . S
In91 O98 2.326 . S
In91 O99 2.266 . S
In91 O100 2.326 . S
In91 O102 2.294 . S
In91 O103 2.326 . S
O92 In91 2.294 . S
O92 C101 1.240 . S
O93 In91 2.326 . S
O93 C101 1.252 . S
C94 O97 1.252 . S
C94 O98 1.260 . S
C95 O102 1.240 . S
C95 O103 1.252 . S
C96 O99 1.252 . S
C96 O100 1.260 . S
O97 In91 2.266 . S
O97 C94 1.252 . S
O98 In91 2.326 . S
O98 C94 1.260 . S
O99 In91 2.266 . S
O99 C96 1.252 . S
O100 In91 2.326 . S
O100 C96 1.260 . S
C101 O92 1.240 . S
C101 O93 1.252 . S
O102 In91 2.294 . S
O102 C95 1.240 . S
O103 In91 2.326 . S
O103 C95 1.252 . S
In104 O105 2.294 . S
In104 O106 2.326 1_565 S
In104 O110 2.266 . S
In104 O111 2.326 . S
In104 O112 2.266 1_565 S
In104 O113 2.326 1_565 S
In104 O115 2.290 1_565 S
In104 O116 2.326 . S
O105 In104 2.294 . S
O105 C114 1.240 . S
O106 In104 2.326 1_545 S
O106 C114 1.252 1_545 S
C107 O110 1.252 . S
C107 O111 1.260 . S
C108 O115 1.213 1_565 S
C108 O116 1.252 . S
C109 O112 1.252 . S
C109 O113 1.260 . S
O110 In104 2.266 . S
O110 C107 1.252 . S
O111 In104 2.326 . S
O111 C107 1.260 . S
O112 In104 2.266 1_545 S
O112 C109 1.252 . S
O113 In104 2.326 1_545 S
O113 C109 1.260 . S
C114 O105 1.240 . S
C114 O106 1.252 1_565 S
O115 In104 2.290 1_545 S
O115 C108 1.213 1_545 S
O116 In104 2.326 . S
O116 C108 1.252 . S
In117 O118 2.294 . S
In117 O119 2.326 . S
In117 O123 2.266 . S
In117 O124 2.326 . S
In117 O125 2.266 . S
In117 O126 2.326 . S
In117 O128 2.294 . S
In117 O129 2.326 . S
O118 In117 2.294 . S
O118 C127 1.240 . S
O119 In117 2.326 . S
O119 C127 1.252 . S
C120 O123 1.252 . S
C120 O124 1.260 . S
C121 O128 1.240 . S
C121 O129 1.252 . S
C122 O125 1.252 . S
C122 O126 1.260 . S
O123 In117 2.266 . S
O123 C120 1.252 . S
O124 In117 2.326 . S
O124 C120 1.260 . S
O125 In117 2.266 . S
O125 C122 1.252 . S
O126 In117 2.326 . S
O126 C122 1.260 . S
C127 O118 1.240 . S
C127 O119 1.252 . S
O128 In117 2.294 . S
O128 C121 1.240 . S
O129 In117 2.326 . S
O129 C121 1.252 . S
In130 O131 2.294 . S
In130 O132 2.326 . S
In130 O136 2.266 . S
In130 O137 2.326 . S
In130 O138 2.266 1_545 S
In130 O139 2.326 1_545 S
In130 O141 2.294 . S
In130 O142 2.326 . S
O131 In130 2.294 . S
O131 C140 1.240 . S
O132 In130 2.326 . S
O132 C140 1.252 . S
C133 O136 1.252 . S
C133 O137 1.260 . S
C134 O141 1.240 . S
C134 O142 1.252 . S
C135 O138 1.252 . S
C135 O139 1.260 . S
O136 In130 2.266 . S
O136 C133 1.252 . S
O137 In130 2.326 . S
O137 C133 1.260 . S
O138 In130 2.266 1_565 S
O138 C135 1.252 . S
O139 In130 2.326 1_565 S
O139 C135 1.260 . S
C140 O131 1.240 . S
C140 O132 1.252 . S
O141 In130 2.294 . S
O141 C134 1.240 . S
O142 In130 2.326 . S
O142 C134 1.252 . S
In143 O144 2.294 . S
In143 O145 2.326 . S
In143 O149 2.266 1_655 S
In143 O150 2.326 1_655 S
In143 O151 2.266 . S
In143 O152 2.326 . S
In143 O154 2.294 . S
In143 O155 2.326 . S
O144 In143 2.294 . S
O144 C153 1.240 . S
O145 In143 2.326 . S
O145 C153 1.252 . S
C146 O149 1.252 . S
C146 O150 1.260 . S
C147 O154 1.240 . S
C147 O155 1.252 . S
C148 O151 1.252 . S
C148 O152 1.260 . S
O149 In143 2.266 1_455 S
O149 C146 1.252 . S
O150 In143 2.326 1_455 S
O150 C146 1.260 . S
O151 In143 2.266 . S
O151 C148 1.252 . S
O152 In143 2.326 . S
O152 C148 1.260 . S
C153 O144 1.240 . S
C153 O145 1.252 . S
O154 In143 2.294 . S
O154 C147 1.240 . S
O155 In143 2.326 . S
O155 C147 1.252 . S
In156 O157 2.294 . S
In156 O158 2.326 . S
In156 O162 2.266 . S
In156 O163 2.326 . S
In156 O164 2.266 . S
In156 O165 2.326 . S
In156 O167 2.294 . S
In156 O168 2.326 . S
O157 In156 2.294 . S
O157 C166 1.240 . S
O158 In156 2.326 . S
O158 C166 1.252 . S
C159 O162 1.252 . S
C159 O163 1.260 . S
C160 O167 1.240 . S
C160 O168 1.252 . S
C161 O164 1.252 . S
C161 O165 1.260 . S
O162 In156 2.266 . S
O162 C159 1.252 . S
O163 In156 2.326 . S
O163 C159 1.260 . S
O164 In156 2.266 . S
O164 C161 1.252 . S
O165 In156 2.326 . S
O165 C161 1.260 . S
C166 O157 1.240 . S
C166 O158 1.252 . S
O167 In156 2.294 . S
O167 C160 1.240 . S
O168 In156 2.326 . S
O168 C160 1.252 . S
In169 O170 2.294 . S
In169 O171 2.326 . S
In169 O175 2.266 . S
In169 O176 2.326 . S
In169 O177 2.266 1_565 S
In169 O178 2.326 1_565 S
In169 O180 2.294 . S
In169 O181 2.326 . S
O170 In169 2.294 . S
O170 C179 1.240 . S
O171 In169 2.326 . S
O171 C179 1.252 . S
C172 O175 1.252 . S
C172 O176 1.260 . S
C173 O180 1.240 . S
C173 O181 1.252 . S
C174 O177 1.252 . S
C174 O178 1.260 . S
O175 In169 2.266 . S
O175 C172 1.252 . S
O176 In169 2.326 . S
O176 C172 1.260 . S
O177 In169 2.266 1_545 S
O177 C174 1.252 . S
O178 In169 2.326 1_545 S
O178 C174 1.260 . S
C179 O170 1.240 . S
C179 O171 1.252 . S
O180 In169 2.294 . S
O180 C173 1.240 . S
O181 In169 2.326 . S
O181 C173 1.252 . S
In182 O183 2.294 . S
In182 O184 2.326 . S
In182 O188 2.266 . S
In182 O189 2.326 . S
In182 O190 2.266 1_455 S
In182 O191 2.326 1_455 S
In182 O193 2.294 . S
In182 O194 2.326 . S
O183 In182 2.294 . S
O183 C192 1.240 . S
O184 In182 2.326 . S
O184 C192 1.252 . S
C185 O188 1.252 . S
C185 O189 1.260 . S
C186 O193 1.240 . S
C186 O194 1.252 . S
C187 O190 1.252 . S
C187 O191 1.260 . S
O188 In182 2.266 . S
O188 C185 1.252 . S
O189 In182 2.326 . S
O189 C185 1.260 . S
O190 In182 2.266 1_655 S
O190 C187 1.252 . S
O191 In182 2.326 1_655 S
O191 C187 1.260 . S
C192 O183 1.240 . S
C192 O184 1.252 . S
O193 In182 2.294 . S
O193 C186 1.240 . S
O194 In182 2.326 . S
O194 C186 1.252 . S
In195 O196 2.294 . S
In195 O197 2.326 1_655 S
In195 O201 2.266 . S
In195 O202 2.326 . S
In195 O203 2.266 1_655 S
In195 O204 2.326 1_655 S
In195 O206 2.284 1_655 S
In195 O207 2.326 . S
O196 In195 2.294 . S
O196 C205 1.240 . S
O197 In195 2.326 1_455 S
O197 C205 1.252 1_455 S
C198 O201 1.252 . S
C198 O202 1.260 . S
C199 O206 1.228 1_655 S
C199 O207 1.252 . S
C200 O203 1.252 . S
C200 O204 1.260 . S
O201 In195 2.266 . S
O201 C198 1.252 . S
O202 In195 2.326 . S
O202 C198 1.260 . S
O203 In195 2.266 1_455 S
O203 C200 1.252 . S
O204 In195 2.326 1_455 S
O204 C200 1.260 . S
C205 O196 1.240 . S
C205 O197 1.252 1_655 S
O206 In195 2.284 1_455 S
O206 C199 1.228 1_455 S
O207 In195 2.326 . S
O207 C199 1.252 . S
In208 O209 2.294 . S
In208 O210 2.326 . S
In208 O214 2.266 . S
In208 O215 2.326 . S
In208 O216 2.266 . S
In208 O217 2.326 . S
In208 O219 2.294 . S
In208 O220 2.326 . S
O209 In208 2.294 . S
O209 C218 1.240 . S
O210 In208 2.326 . S
O210 C218 1.252 . S
C211 O214 1.252 . S
C211 O215 1.260 . S
C212 O219 1.240 . S
C212 O220 1.252 . S
C213 O216 1.252 . S
C213 O217 1.260 . S
O214 In208 2.266 . S
O214 C211 1.252 . S
O215 In208 2.326 . S
O215 C211 1.260 . S
O216 In208 2.266 . S
O216 C213 1.252 . S
O217 In208 2.326 . S
O217 C213 1.260 . S
C218 O209 1.240 . S
C218 O210 1.252 . S
O219 In208 2.294 . S
O219 C212 1.240 . S
O220 In208 2.326 . S
O220 C212 1.252 . S
In221 O222 2.294 . S
In221 O223 2.326 1_545 S
In221 O227 2.266 . S
In221 O228 2.326 . S
In221 O229 2.266 1_545 S
In221 O230 2.326 1_545 S
In221 O232 2.290 1_545 S
In221 O233 2.326 . S
O222 In221 2.294 . S
O222 C231 1.240 . S
O223 In221 2.326 1_565 S
O223 C231 1.252 1_565 S
C224 O227 1.252 . S
C224 O228 1.260 . S
C225 O232 1.213 1_545 S
C225 O233 1.252 . S
C226 O229 1.252 . S
C226 O230 1.260 . S
O227 In221 2.266 . S
O227 C224 1.252 . S
O228 In221 2.326 . S
O228 C224 1.260 . S
O229 In221 2.266 1_565 S
O229 C226 1.252 . S
O230 In221 2.326 1_565 S
O230 C226 1.260 . S
C231 O222 1.240 . S
C231 O223 1.252 1_545 S
O232 In221 2.290 1_565 S
O232 C225 1.213 1_565 S
O233 In221 2.326 . S
O233 C225 1.252 . S
H234 C240 0.930 . S
H235 C243 0.930 . S
H236 C244 0.930 . S
H237 C245 0.930 . S
H238 C248 0.930 . S
H239 C249 0.930 . S
C240 H234 0.930 . S
C240 C241 1.355 . S
C240 C242 1.415 . S
C241 C240 1.355 . S
C241 C243 1.419 1_554 S
C242 C240 1.415 . S
C242 C247 1.425 1_544 S
C242 C249 1.409 . S
C243 H235 0.930 . S
C243 C241 1.419 1_556 S
C243 C244 1.362 1_545 S
C244 H236 0.930 . S
C244 C243 1.362 1_565 S
C244 C247 1.409 . S
C245 H237 0.930 . S
C245 C246 1.355 . S
C245 C247 1.415 . S
C246 C245 1.355 . S
C246 C248 1.419 1_556 S
C247 C242 1.425 1_566 S
C247 C244 1.409 . S
C247 C245 1.415 . S
C248 H238 0.930 . S
C248 C246 1.419 1_554 S
C248 C249 1.362 1_565 S
C249 H239 0.930 . S
C249 C242 1.409 . S
C249 C248 1.362 1_545 S
H250 C256 0.929 1_556 S
H251 C259 0.930 . S
H252 C260 0.930 . S
H253 C261 0.929 1_554 S
H254 C264 0.930 . S
H255 C265 0.930 . S
C256 H250 0.929 1_554 S
C256 C257 1.355 1_455 S
C256 C258 1.415 1_554 S
C257 C256 1.355 1_655 S
C257 C259 1.419 . S
C258 C256 1.415 1_556 S
C258 C263 1.425 1_456 S
C258 C265 1.409 . S
C259 H251 0.930 . S
C259 C257 1.419 . S
C259 C260 1.362 . S
C260 H252 0.930 . S
C260 C259 1.362 . S
C260 C263 1.409 . S
C261 H253 0.929 1_556 S
C261 C262 1.355 1_655 S
C261 C263 1.415 1_556 S
C262 C261 1.355 1_455 S
C262 C264 1.419 . S
C263 C258 1.425 1_654 S
C263 C260 1.409 . S
C263 C261 1.415 1_554 S
C264 H254 0.930 . S
C264 C262 1.419 . S
C264 C265 1.362 . S
C265 H255 0.930 . S
C265 C258 1.409 . S
C265 C264 1.362 . S
H266 C272 0.930 . S
H267 C275 0.930 . S
H268 C276 0.930 . S
H269 C277 0.930 . S
H270 C280 0.930 . S
H271 C281 0.930 . S
C272 H266 0.930 . S
C272 C273 1.355 . S
C272 C274 1.415 1_556 S
C273 C272 1.355 . S
C273 C275 1.419 . S
C274 C272 1.415 1_554 S
C274 C279 1.425 1_554 S
C274 C281 1.409 . S
C275 H267 0.930 . S
C275 C273 1.419 . S
C275 C276 1.362 . S
C276 H268 0.930 . S
C276 C275 1.362 . S
C276 C279 1.409 . S
C277 H269 0.930 . S
C277 C278 1.355 . S
C277 C279 1.415 1_554 S
C278 C277 1.355 . S
C278 C280 1.419 . S
C279 C274 1.425 1_556 S
C279 C276 1.409 . S
C279 C277 1.415 1_556 S
C280 H270 0.930 . S
C280 C278 1.419 . S
C280 C281 1.362 . S
C281 H271 0.930 . S
C281 C274 1.409 . S
C281 C280 1.362 . S
H282 C288 0.930 . S
H283 C291 0.930 . S
H284 C292 0.930 . S
H285 C293 0.930 . S
H286 C296 0.930 . S
H287 C297 0.930 . S
C288 H282 0.930 . S
C288 C289 1.355 . S
C288 C290 1.415 . S
C289 C288 1.355 . S
C289 C291 1.419 . S
C290 C288 1.415 . S
C290 C295 1.425 . S
C290 C297 1.409 . S
C291 H283 0.930 . S
C291 C289 1.419 . S
C291 C292 1.362 . S
C292 H284 0.930 . S
C292 C291 1.362 . S
C292 C295 1.409 . S
C293 H285 0.930 . S
C293 C294 1.355 . S
C293 C295 1.415 . S
C294 C293 1.355 . S
C294 C296 1.419 . S
C295 C290 1.425 . S
C295 C292 1.409 . S
C295 C293 1.415 . S
C296 H286 0.930 . S
C296 C294 1.419 . S
C296 C297 1.362 . S
C297 H287 0.930 . S
C297 C290 1.409 . S
C297 C296 1.362 . S
H298 C304 0.930 . S
H299 C307 0.930 . S
H300 C308 0.930 . S
H301 C309 0.930 . S
H302 C312 0.930 . S
H303 C313 0.930 . S
C304 H298 0.930 . S
C304 C305 1.355 . S
C304 C306 1.415 . S
C305 C304 1.355 . S
C305 C307 1.419 . S
C306 C304 1.415 . S
C306 C311 1.425 . S
C306 C313 1.409 . S
C307 H299 0.930 . S
C307 C305 1.419 . S
C307 C308 1.362 . S
C308 H300 0.930 . S
C308 C307 1.362 . S
C308 C311 1.409 . S
C309 H301 0.930 . S
C309 C310 1.355 . S
C309 C311 1.415 . S
C310 C309 1.355 . S
C310 C312 1.419 . S
C311 C306 1.425 . S
C311 C308 1.409 . S
C311 C309 1.415 . S
C312 H302 0.930 . S
C312 C310 1.419 . S
C312 C313 1.362 . S
C313 H303 0.930 . S
C313 C306 1.409 . S
C313 C312 1.362 . S
H314 C320 0.930 . S
H315 C323 0.930 . S
H316 C324 0.930 . S
H317 C325 0.930 . S
H318 C328 0.930 . S
H319 C329 0.930 . S
C320 H314 0.930 . S
C320 C321 1.355 . S
C320 C322 1.415 . S
C321 C320 1.355 . S
C321 C323 1.419 . S
C322 C320 1.415 . S
C322 C327 1.425 . S
C322 C329 1.409 . S
C323 H315 0.930 . S
C323 C321 1.419 . S
C323 C324 1.362 . S
C324 H316 0.930 . S
C324 C323 1.362 . S
C324 C327 1.409 . S
C325 H317 0.930 . S
C325 C326 1.355 . S
C325 C327 1.415 . S
C326 C325 1.355 . S
C326 C328 1.419 . S
C327 C322 1.425 . S
C327 C324 1.409 . S
C327 C325 1.415 . S
C328 H318 0.930 . S
C328 C326 1.419 . S
C328 C329 1.362 . S
C329 H319 0.930 . S
C329 C322 1.409 . S
C329 C328 1.362 . S
H330 C336 0.930 . S
H331 C339 0.930 . S
H332 C340 0.930 . S
H333 C341 0.930 . S
H334 C344 0.930 . S
H335 C345 0.930 . S
C336 H330 0.930 . S
C336 C337 1.355 . S
C336 C338 1.415 . S
C337 C336 1.355 . S
C337 C339 1.419 . S
C338 C336 1.415 . S
C338 C343 1.425 . S
C338 C345 1.409 . S
C339 H331 0.930 . S
C339 C337 1.419 . S
C339 C340 1.362 . S
C340 H332 0.930 . S
C340 C339 1.362 . S
C340 C343 1.409 . S
C341 H333 0.930 . S
C341 C342 1.355 . S
C341 C343 1.415 . S
C342 C341 1.355 . S
C342 C344 1.419 . S
C343 C338 1.425 . S
C343 C340 1.409 . S
C343 C341 1.415 . S
C344 H334 0.930 . S
C344 C342 1.419 . S
C344 C345 1.362 . S
C345 H335 0.930 . S
C345 C338 1.409 . S
C345 C344 1.362 . S
H346 C352 0.930 . S
H347 C355 0.930 . S
H348 C356 0.930 . S
H349 C357 0.930 . S
H350 C360 0.930 . S
H351 C361 0.930 . S
C352 H346 0.930 . S
C352 C353 1.355 . S
C352 C354 1.415 . S
C353 C352 1.355 . S
C353 C355 1.419 . S
C354 C352 1.415 . S
C354 C359 1.425 . S
C354 C361 1.409 . S
C355 H347 0.930 . S
C355 C353 1.419 . S
C355 C356 1.362 . S
C356 H348 0.930 . S
C356 C355 1.362 . S
C356 C359 1.409 . S
C357 H349 0.930 . S
C357 C358 1.355 . S
C357 C359 1.415 . S
C358 C357 1.355 . S
C358 C360 1.419 . S
C359 C354 1.425 . S
C359 C356 1.409 . S
C359 C357 1.415 . S
C360 H350 0.930 . S
C360 C358 1.419 . S
C360 C361 1.362 . S
C361 H351 0.930 . S
C361 C354 1.409 . S
C361 C360 1.362 . S
H362 C368 0.930 . S
H363 C371 0.930 . S
H364 C372 0.930 . S
H365 C373 0.930 . S
H366 C376 0.930 . S
H367 C377 0.930 . S
C368 H362 0.930 . S
C368 C369 1.355 . S
C368 C370 1.415 . S
C369 C368 1.355 . S
C369 C371 1.419 . S
C370 C368 1.415 . S
C370 C375 1.425 . S
C370 C377 1.409 . S
C371 H363 0.930 . S
C371 C369 1.419 . S
C371 C372 1.362 . S
C372 H364 0.930 . S
C372 C371 1.362 . S
C372 C375 1.409 . S
C373 H365 0.930 . S
C373 C374 1.355 . S
C373 C375 1.415 . S
C374 C373 1.355 . S
C374 C376 1.419 . S
C375 C370 1.425 . S
C375 C372 1.409 . S
C375 C373 1.415 . S
C376 H366 0.930 . S
C376 C374 1.419 . S
C376 C377 1.362 . S
C377 H367 0.930 . S
C377 C370 1.409 . S
C377 C376 1.362 . S
H378 C384 0.930 . S
H379 C387 0.930 . S
H380 C388 0.930 . S
H381 C389 0.930 . S
H382 C392 0.930 . S
H383 C393 0.930 . S
C384 H378 0.930 . S
C384 C385 1.355 . S
C384 C386 1.415 . S
C385 C384 1.355 . S
C385 C387 1.419 . S
C386 C384 1.415 . S
C386 C391 1.425 . S
C386 C393 1.409 . S
C387 H379 0.930 . S
C387 C385 1.419 . S
C387 C388 1.362 . S
C388 H380 0.930 . S
C388 C387 1.362 . S
C388 C391 1.409 . S
C389 H381 0.930 . S
C389 C390 1.355 . S
C389 C391 1.415 . S
C390 C389 1.355 . S
C390 C392 1.419 . S
C391 C386 1.425 . S
C391 C388 1.409 . S
C391 C389 1.415 . S
C392 H382 0.930 . S
C392 C390 1.419 . S
C392 C393 1.362 . S
C393 H383 0.930 . S
C393 C386 1.409 . S
C393 C392 1.362 . S
H394 C400 0.930 . S
H395 C403 0.930 . S
H396 C404 0.930 . S
H397 C405 0.930 . S
H398 C408 0.930 . S
H399 C409 0.930 . S
C400 H394 0.930 . S
C400 C401 1.355 . S
C400 C402 1.415 . S
C401 C400 1.355 . S
C401 C403 1.419 . S
C402 C400 1.415 . S
C402 C407 1.425 . S
C402 C409 1.409 . S
C403 H395 0.930 . S
C403 C401 1.419 . S
C403 C404 1.362 . S
C404 H396 0.930 . S
C404 C403 1.362 . S
C404 C407 1.409 . S
C405 H397 0.930 . S
C405 C406 1.355 . S
C405 C407 1.415 . S
C406 C405 1.355 . S
C406 C408 1.419 . S
C407 C402 1.425 . S
C407 C404 1.409 . S
C407 C405 1.415 . S
C408 H398 0.930 . S
C408 C406 1.419 . S
C408 C409 1.362 . S
C409 H399 0.930 . S
C409 C402 1.409 . S
C409 C408 1.362 . S
H410 C416 0.930 . S
H411 C419 0.930 . S
H412 C420 0.930 . S
H413 C421 0.930 . S
H414 C424 0.930 . S
H415 C425 0.930 . S
C416 H410 0.930 . S
C416 C417 1.355 . S
C416 C418 1.415 . S
C417 C416 1.355 . S
C417 C419 1.419 . S
C418 C416 1.415 . S
C418 C423 1.425 . S
C418 C425 1.409 . S
C419 H411 0.930 . S
C419 C417 1.419 . S
C419 C420 1.362 . S
C420 H412 0.930 . S
C420 C419 1.362 . S
C420 C423 1.409 . S
C421 H413 0.930 . S
C421 C422 1.355 . S
C421 C423 1.415 . S
C422 C421 1.355 . S
C422 C424 1.419 . S
C423 C418 1.425 . S
C423 C420 1.409 . S
C423 C421 1.415 . S
C424 H414 0.930 . S
C424 C422 1.419 . S
C424 C425 1.362 . S
C425 H415 0.930 . S
C425 C418 1.409 . S
C425 C424 1.362 . S
H426 C432 0.930 . S
H427 C435 0.930 . S
H428 C436 0.930 . S
H429 C437 0.930 . S
H430 C440 0.930 . S
H431 C441 0.930 . S
C432 H426 0.930 . S
C432 C433 1.355 . S
C432 C434 1.415 . S
C433 C432 1.355 . S
C433 C435 1.419 . S
C434 C432 1.415 . S
C434 C439 1.425 . S
C434 C441 1.409 . S
C435 H427 0.930 . S
C435 C433 1.419 . S
C435 C436 1.362 . S
C436 H428 0.930 . S
C436 C435 1.362 . S
C436 C439 1.409 . S
C437 H429 0.930 . S
C437 C438 1.355 . S
C437 C439 1.415 . S
C438 C437 1.355 . S
C438 C440 1.419 . S
C439 C434 1.425 . S
C439 C436 1.409 . S
C439 C437 1.415 . S
C440 H430 0.930 . S
C440 C438 1.419 . S
C440 C441 1.362 . S
C441 H431 0.930 . S
C441 C434 1.409 . S
C441 C440 1.362 . S
H442 C448 0.930 . S
H443 C451 0.930 . S
H444 C452 0.930 . S
H445 C453 0.930 . S
H446 C456 0.930 . S
H447 C457 0.930 . S
C448 H442 0.930 . S
C448 C449 1.355 . S
C448 C450 1.415 . S
C449 C448 1.355 . S
C449 C451 1.419 . S
C450 C448 1.415 . S
C450 C455 1.425 . S
C450 C457 1.409 . S
C451 H443 0.930 . S
C451 C449 1.419 . S
C451 C452 1.362 . S
C452 H444 0.930 . S
C452 C451 1.362 . S
C452 C455 1.409 . S
C453 H445 0.930 . S
C453 C454 1.355 . S
C453 C455 1.415 . S
C454 C453 1.355 . S
C454 C456 1.419 . S
C455 C450 1.425 . S
C455 C452 1.409 . S
C455 C453 1.415 . S
C456 H446 0.930 . S
C456 C454 1.419 . S
C456 C457 1.362 . S
C457 H447 0.930 . S
C457 C450 1.409 . S
C457 C456 1.362 . S
H458 C464 0.930 . S
H459 C467 0.930 . S
H460 C468 0.930 . S
H461 C469 0.930 . S
H462 C472 0.930 . S
H463 C473 0.930 . S
C464 H458 0.930 . S
C464 C465 1.355 . S
C464 C466 1.415 . S
C465 C464 1.355 . S
C465 C467 1.419 . S
C466 C464 1.415 . S
C466 C471 1.425 . S
C466 C473 1.409 . S
C467 H459 0.930 . S
C467 C465 1.419 . S
C467 C468 1.362 . S
C468 H460 0.930 . S
C468 C467 1.362 . S
C468 C471 1.409 . S
C469 H461 0.930 . S
C469 C470 1.355 . S
C469 C471 1.415 . S
C470 C469 1.355 . S
C470 C472 1.419 . S
C471 C466 1.425 . S
C471 C468 1.409 . S
C471 C469 1.415 . S
C472 H462 0.930 . S
C472 C470 1.419 . S
C472 C473 1.362 . S
C473 H463 0.930 . S
C473 C466 1.409 . S
C473 C472 1.362 . S
H474 C480 0.939 . S
H475 C483 0.930 . S
H476 C484 0.930 . S
H477 C485 0.939 . S
H478 C488 0.930 . S
H479 C489 0.930 . S
C480 H474 0.939 . S
C480 C481 1.355 . S
C480 C482 1.415 1_455 S
C481 C480 1.355 . S
C481 C483 1.419 . S
C482 C480 1.415 1_655 S
C482 C487 1.425 1_655 S
C482 C489 1.409 . S
C483 H475 0.930 . S
C483 C481 1.419 . S
C483 C484 1.362 . S
C484 H476 0.930 . S
C484 C483 1.362 . S
C484 C487 1.409 . S
C485 H477 0.939 . S
C485 C486 1.355 . S
C485 C487 1.415 1_655 S
C486 C485 1.355 . S
C486 C488 1.419 . S
C487 C482 1.425 1_455 S
C487 C484 1.409 . S
C487 C485 1.415 1_455 S
C488 H478 0.930 . S
C488 C486 1.419 . S
C488 C489 1.362 . S
C489 H479 0.930 . S
C489 C482 1.409 . S
C489 C488 1.362 . S
H490 C496 0.930 . S
H491 C499 0.930 . S
H492 C500 0.930 . S
H493 C501 0.930 . S
H494 C504 0.930 . S
H495 C505 0.930 . S
C496 H490 0.930 . S
C496 C497 1.355 . S
C496 C498 1.415 . S
C497 C496 1.355 . S
C497 C499 1.419 . S
C498 C496 1.415 . S
C498 C503 1.425 . S
C498 C505 1.409 . S
C499 H491 0.930 . S
C499 C497 1.419 . S
C499 C500 1.362 . S
C500 H492 0.930 . S
C500 C499 1.362 . S
C500 C503 1.409 . S
C501 H493 0.930 . S
C501 C502 1.355 . S
C501 C503 1.415 . S
C502 C501 1.355 . S
C502 C504 1.419 . S
C503 C498 1.425 . S
C503 C500 1.409 . S
C503 C501 1.415 . S
C504 H494 0.930 . S
C504 C502 1.419 . S
C504 C505 1.362 . S
C505 H495 0.930 . S
C505 C498 1.409 . S
C505 C504 1.362 . S
H506 C512 0.930 . S
H507 C515 0.930 . S
H508 C516 0.930 1_565 S
H509 C517 0.930 . S
H510 C520 0.930 . S
H511 C521 0.930 1_545 S
C512 H506 0.930 . S
C512 C513 1.355 . S
C512 C514 1.415 . S
C513 C512 1.355 . S
C513 C515 1.419 . S
C514 C512 1.415 . S
C514 C519 1.425 1_545 S
C514 C521 1.409 1_545 S
C515 H507 0.930 . S
C515 C513 1.419 . S
C515 C516 1.362 . S
C516 H508 0.930 1_545 S
C516 C515 1.362 . S
C516 C519 1.409 1_545 S
C517 H509 0.930 . S
C517 C518 1.355 . S
C517 C519 1.415 . S
C518 C517 1.355 . S
C518 C520 1.419 . S
C519 C514 1.425 1_565 S
C519 C516 1.409 1_565 S
C519 C517 1.415 . S
C520 H510 0.930 . S
C520 C518 1.419 . S
C520 C521 1.362 . S
C521 H511 0.930 1_565 S
C521 C514 1.409 1_565 S
C521 C520 1.362 . S
H522 C528 0.930 . S
H523 C531 0.930 . S
H524 C532 0.930 . S
H525 C533 0.930 . S
H526 C536 0.930 . S
H527 C537 0.930 . S
C528 H522 0.930 . S
C528 C529 1.355 . S
C528 C530 1.415 . S
C529 C528 1.355 . S
C529 C531 1.419 . S
C530 C528 1.415 . S
C530 C535 1.425 1_554 S
C530 C537 1.409 . S
C531 H523 0.930 . S
C531 C529 1.419 . S
C531 C532 1.362 1_554 S
C532 H524 0.930 . S
C532 C531 1.362 1_556 S
C532 C535 1.409 . S
C533 H525 0.930 . S
C533 C534 1.355 . S
C533 C535 1.415 . S
C534 C533 1.355 . S
C534 C536 1.419 . S
C535 C530 1.425 1_556 S
C535 C532 1.409 . S
C535 C533 1.415 . S
C536 H526 0.930 . S
C536 C534 1.419 . S
C536 C537 1.362 1_556 S
C537 H527 0.930 . S
C537 C530 1.409 . S
C537 C536 1.362 1_554 S
H538 C544 0.930 . S
H539 C547 0.930 . S
H540 C548 0.930 . S
H541 C549 0.930 . S
H542 C552 0.930 . S
H543 C553 0.930 . S
C544 H538 0.930 . S
C544 C545 1.355 1_556 S
C544 C546 1.415 . S
C545 C544 1.355 1_554 S
C545 C547 1.419 . S
C546 C544 1.415 . S
C546 C551 1.425 1_556 S
C546 C553 1.409 . S
C547 H539 0.930 . S
C547 C545 1.419 . S
C547 C548 1.362 . S
C548 H540 0.930 . S
C548 C547 1.362 . S
C548 C551 1.409 . S
C549 H541 0.930 . S
C549 C550 1.355 1_554 S
C549 C551 1.415 . S
C550 C549 1.355 1_556 S
C550 C552 1.419 . S
C551 C546 1.425 1_554 S
C551 C548 1.409 . S
C551 C549 1.415 . S
C552 H542 0.930 . S
C552 C550 1.419 . S
C552 C553 1.362 . S
C553 H543 0.930 . S
C553 C546 1.409 . S
C553 C552 1.362 . S
H554 C560 0.930 . S
H555 C563 0.930 . S
H556 C564 0.930 . S
H557 C565 0.930 . S
H558 C568 0.930 . S
H559 C569 0.930 . S
C560 H554 0.930 . S
C560 C561 1.355 . S
C560 C562 1.415 1_554 S
C561 C560 1.355 . S
C561 C563 1.419 . S
C562 C560 1.415 1_556 S
C562 C567 1.425 1_556 S
C562 C569 1.409 . S
C563 H555 0.930 . S
C563 C561 1.419 . S
C563 C564 1.362 . S
C564 H556 0.930 . S
C564 C563 1.362 . S
C564 C567 1.409 . S
C565 H557 0.930 . S
C565 C566 1.355 . S
C565 C567 1.415 1_556 S
C566 C565 1.355 . S
C566 C568 1.419 . S
C567 C562 1.425 1_554 S
C567 C564 1.409 . S
C567 C565 1.415 1_554 S
C568 H558 0.930 . S
C568 C566 1.419 . S
C568 C569 1.362 . S
C569 H559 0.930 . S
C569 C562 1.409 . S
C569 C568 1.362 . S
H570 C576 0.930 . S
H571 C579 0.930 . S
H572 C580 0.930 . S
H573 C581 0.930 . S
H574 C584 0.930 . S
H575 C585 0.930 . S
C576 H570 0.930 . S
C576 C577 1.355 . S
C576 C578 1.415 . S
C577 C576 1.355 . S
C577 C579 1.419 1_556 S
C578 C576 1.415 . S
C578 C583 1.425 1_556 S
C578 C585 1.409 . S
C579 H571 0.930 . S
C579 C577 1.419 1_554 S
C579 C580 1.362 . S
C580 H572 0.930 . S
C580 C579 1.362 . S
C580 C583 1.409 . S
C581 H573 0.930 . S
C581 C582 1.355 . S
C581 C583 1.415 . S
C582 C581 1.355 . S
C582 C584 1.419 1_554 S
C583 C578 1.425 1_554 S
C583 C580 1.409 . S
C583 C581 1.415 . S
C584 H574 0.930 . S
C584 C582 1.419 1_556 S
C584 C585 1.362 . S
C585 H575 0.930 . S
C585 C578 1.409 . S
C585 C584 1.362 . S
H586 C592 0.930 . S
H587 C595 0.930 . S
H588 C596 0.930 . S
H589 C597 0.930 . S
H590 C600 0.930 . S
H591 C601 0.930 . S
C592 H586 0.930 . S
C592 C593 1.355 1_556 S
C592 C594 1.415 . S
C593 C592 1.355 1_554 S
C593 C595 1.419 . S
C594 C592 1.415 . S
C594 C599 1.425 1_556 S
C594 C601 1.409 . S
C595 H587 0.930 . S
C595 C593 1.419 . S
C595 C596 1.362 . S
C596 H588 0.930 . S
C596 C595 1.362 . S
C596 C599 1.409 . S
C597 H589 0.930 . S
C597 C598 1.355 1_554 S
C597 C599 1.415 . S
C598 C597 1.355 1_556 S
C598 C600 1.419 . S
C599 C594 1.425 1_554 S
C599 C596 1.409 . S
C599 C597 1.415 . S
C600 H590 0.930 . S
C600 C598 1.419 . S
C600 C601 1.362 . S
C601 H591 0.930 . S
C601 C594 1.409 . S
C601 C600 1.362 . S
H602 C608 0.930 . S
H603 C611 0.930 . S
H604 C612 0.930 . S
H605 C613 0.930 . S
H606 C616 0.930 . S
H607 C617 0.930 . S
C608 H602 0.930 . S
C608 C609 1.355 . S
C608 C610 1.415 . S
C609 C608 1.355 . S
C609 C611 1.419 1_556 S
C610 C608 1.415 . S
C610 C615 1.425 1_556 S
C610 C617 1.409 . S
C611 H603 0.930 . S
C611 C609 1.419 1_554 S
C611 C612 1.362 . S
C612 H604 0.930 . S
C612 C611 1.362 . S
C612 C615 1.409 . S
C613 H605 0.930 . S
C613 C614 1.355 . S
C613 C615 1.415 . S
C614 C613 1.355 . S
C614 C616 1.419 1_554 S
C615 C610 1.425 1_554 S
C615 C612 1.409 . S
C615 C613 1.415 . S
C616 H606 0.930 . S
C616 C614 1.419 1_556 S
C616 C617 1.362 . S
C617 H607 0.930 . S
C617 C610 1.409 . S
C617 C616 1.362 . S
H618 C624 0.930 . S
H619 C627 0.930 . S
H620 C628 0.930 . S
H621 C629 0.930 . S
H622 C632 0.930 . S
H623 C633 0.930 . S
C624 H618 0.930 . S
C624 C625 1.355 . S
C624 C626 1.415 . S
C625 C624 1.355 . S
C625 C627 1.419 . S
C626 C624 1.415 . S
C626 C631 1.425 . S
C626 C633 1.409 . S
C627 H619 0.930 . S
C627 C625 1.419 . S
C627 C628 1.362 . S
C628 H620 0.930 . S
C628 C627 1.362 . S
C628 C631 1.409 . S
C629 H621 0.930 . S
C629 C630 1.355 . S
C629 C631 1.415 . S
C630 C629 1.355 . S
C630 C632 1.419 . S
C631 C626 1.425 . S
C631 C628 1.409 . S
C631 C629 1.415 . S
C632 H622 0.930 . S
C632 C630 1.419 . S
C632 C633 1.362 . S
C633 H623 0.930 . S
C633 C626 1.409 . S
C633 C632 1.362 . S
H634 C640 0.930 . S
H635 C643 0.930 . S
H636 C644 0.930 . S
H637 C645 0.930 . S
H638 C648 0.930 . S
H639 C649 0.930 . S
C640 H634 0.930 . S
C640 C641 1.355 . S
C640 C642 1.415 . S
C641 C640 1.355 . S
C641 C643 1.419 . S
C642 C640 1.415 . S
C642 C647 1.425 . S
C642 C649 1.409 . S
C643 H635 0.930 . S
C643 C641 1.419 . S
C643 C644 1.362 . S
C644 H636 0.930 . S
C644 C643 1.362 . S
C644 C647 1.409 . S
C645 H637 0.930 . S
C645 C646 1.355 . S
C645 C647 1.415 . S
C646 C645 1.355 . S
C646 C648 1.419 . S
C647 C642 1.425 . S
C647 C644 1.409 . S
C647 C645 1.415 . S
C648 H638 0.930 . S
C648 C646 1.419 . S
C648 C649 1.362 . S
C649 H639 0.930 . S
C649 C642 1.409 . S
C649 C648 1.362 . S
H650 C656 0.930 . S
H651 C659 0.930 . S
H652 C660 0.930 . S
H653 C661 0.930 . S
H654 C664 0.930 . S
H655 C665 0.930 . S
C656 H650 0.930 . S
C656 C657 1.355 . S
C656 C658 1.415 . S
C657 C656 1.355 . S
C657 C659 1.419 . S
C658 C656 1.415 . S
C658 C663 1.425 . S
C658 C665 1.409 . S
C659 H651 0.930 . S
C659 C657 1.419 . S
C659 C660 1.362 . S
C660 H652 0.930 . S
C660 C659 1.362 . S
C660 C663 1.409 . S
C661 H653 0.930 . S
C661 C662 1.355 . S
C661 C663 1.415 . S
C662 C661 1.355 . S
C662 C664 1.419 . S
C663 C658 1.425 . S
C663 C660 1.409 . S
C663 C661 1.415 . S
C664 H654 0.930 . S
C664 C662 1.419 . S
C664 C665 1.362 . S
C665 H655 0.930 . S
C665 C658 1.409 . S
C665 C664 1.362 . S
H666 C672 0.930 . S
H667 C675 0.930 . S
H668 C676 0.930 . S
H669 C677 0.930 . S
H670 C680 0.930 . S
H671 C681 0.930 . S
C672 H666 0.930 . S
C672 C673 1.355 . S
C672 C674 1.415 . S
C673 C672 1.355 . S
C673 C675 1.419 . S
C674 C672 1.415 . S
C674 C679 1.425 . S
C674 C681 1.409 . S
C675 H667 0.930 . S
C675 C673 1.419 . S
C675 C676 1.362 . S
C676 H668 0.930 . S
C676 C675 1.362 . S
C676 C679 1.409 . S
C677 H669 0.930 . S
C677 C678 1.355 . S
C677 C679 1.415 . S
C678 C677 1.355 . S
C678 C680 1.419 . S
C679 C674 1.425 . S
C679 C676 1.409 . S
C679 C677 1.415 . S
C680 H670 0.930 . S
C680 C678 1.419 . S
C680 C681 1.362 . S
C681 H671 0.930 . S
C681 C674 1.409 . S
C681 C680 1.362 . S
H682 C688 0.930 . S
H683 C691 0.930 . S
H684 C692 0.930 . S
H685 C693 0.930 . S
H686 C696 0.930 . S
H687 C697 0.930 . S
C688 H682 0.930 . S
C688 C689 1.355 . S
C688 C690 1.415 . S
C689 C688 1.355 . S
C689 C691 1.419 1_545 S
C690 C688 1.415 . S
C690 C695 1.425 1_545 S
C690 C697 1.409 . S
C691 H683 0.930 . S
C691 C689 1.419 1_565 S
C691 C692 1.362 . S
C692 H684 0.930 . S
C692 C691 1.362 . S
C692 C695 1.409 . S
C693 H685 0.930 . S
C693 C694 1.355 1_565 S
C693 C695 1.415 . S
C694 C693 1.355 1_545 S
C694 C696 1.419 . S
C695 C690 1.425 1_565 S
C695 C692 1.409 . S
C695 C693 1.415 . S
C696 H686 0.930 . S
C696 C694 1.419 . S
C696 C697 1.362 . S
C697 H687 0.930 . S
C697 C690 1.409 . S
C697 C696 1.362 . S
H698 C704 0.930 . S
H699 C707 0.930 . S
H700 C708 0.930 . S
H701 C709 0.930 . S
H702 C712 0.930 . S
H703 C713 0.930 . S
C704 H698 0.930 . S
C704 C705 1.355 1_455 S
C704 C706 1.415 . S
C705 C704 1.355 1_655 S
C705 C707 1.419 . S
C706 C704 1.415 . S
C706 C711 1.425 1_455 S
C706 C713 1.409 . S
C707 H699 0.930 . S
C707 C705 1.419 . S
C707 C708 1.362 . S
C708 H700 0.930 . S
C708 C707 1.362 . S
C708 C711 1.409 . S
C709 H701 0.930 . S
C709 C710 1.355 1_655 S
C709 C711 1.415 . S
C710 C709 1.355 1_455 S
C710 C712 1.419 . S
C711 C706 1.425 1_655 S
C711 C708 1.409 . S
C711 C709 1.415 . S
C712 H702 0.930 . S
C712 C710 1.419 . S
C712 C713 1.362 . S
C713 H703 0.930 . S
C713 C706 1.409 . S
C713 C712 1.362 . S
H714 C720 0.930 . S
H715 C723 0.930 . S
H716 C724 0.930 . S
H717 C725 0.930 . S
H718 C728 0.930 . S
H719 C729 0.930 . S
C720 H714 0.930 . S
C720 C721 1.355 . S
C720 C722 1.415 . S
C721 C720 1.355 . S
C721 C723 1.419 . S
C722 C720 1.415 . S
C722 C727 1.425 . S
C722 C729 1.409 . S
C723 H715 0.930 . S
C723 C721 1.419 . S
C723 C724 1.362 . S
C724 H716 0.930 . S
C724 C723 1.362 . S
C724 C727 1.409 . S
C725 H717 0.930 . S
C725 C726 1.355 . S
C725 C727 1.415 . S
C726 C725 1.355 . S
C726 C728 1.419 . S
C727 C722 1.425 . S
C727 C724 1.409 . S
C727 C725 1.415 . S
C728 H718 0.930 . S
C728 C726 1.419 . S
C728 C729 1.362 . S
C729 H719 0.930 . S
C729 C722 1.409 . S
C729 C728 1.362 . S
H730 C736 0.930 . S
H731 C739 0.930 . S
H732 C740 0.930 . S
H733 C741 0.930 . S
H734 C744 0.930 . S
H735 C745 0.930 . S
C736 H730 0.930 . S
C736 C737 1.355 1_565 S
C736 C738 1.415 . S
C737 C736 1.355 1_545 S
C737 C739 1.419 . S
C738 C736 1.415 . S
C738 C743 1.425 1_565 S
C738 C745 1.409 . S
C739 H731 0.930 . S
C739 C737 1.419 . S
C739 C740 1.362 . S
C740 H732 0.930 . S
C740 C739 1.362 . S
C740 C743 1.409 . S
C741 H733 0.930 . S
C741 C742 1.355 1_545 S
C741 C743 1.415 . S
C742 C741 1.355 1_565 S
C742 C744 1.419 . S
C743 C738 1.425 1_545 S
C743 C740 1.409 . S
C743 C741 1.415 . S
C744 H734 0.930 . S
C744 C742 1.419 . S
C744 C745 1.362 . S
C745 H735 0.930 . S
C745 C738 1.409 . S
C745 C744 1.362 . S
H746 C752 0.930 . S
H747 C755 0.930 . S
H748 C756 0.930 . S
H749 C757 0.930 . S
H750 C760 0.930 . S
H751 C761 0.930 . S
C752 H746 0.930 . S
C752 C753 1.355 1_655 S
C752 C754 1.415 . S
C753 C752 1.355 1_455 S
C753 C755 1.419 . S
C754 C752 1.415 . S
C754 C759 1.425 1_655 S
C754 C761 1.409 . S
C755 H747 0.930 . S
C755 C753 1.419 . S
C755 C756 1.362 . S
C756 H748 0.930 . S
C756 C755 1.362 . S
C756 C759 1.409 . S
C757 H749 0.930 . S
C757 C758 1.355 1_455 S
C757 C759 1.415 . S
C758 C757 1.355 1_655 S
C758 C760 1.419 . S
C759 C754 1.425 1_455 S
C759 C756 1.409 . S
C759 C757 1.415 . S
C760 H750 0.930 . S
C760 C758 1.419 . S
C760 C761 1.362 . S
C761 H751 0.930 . S
C761 C754 1.409 . S
C761 C760 1.362 . S
H762 C768 0.930 . S
H763 C771 0.930 . S
H764 C772 0.930 . S
H765 C773 0.930 . S
H766 C776 0.930 . S
H767 C777 0.930 . S
C768 H762 0.930 . S
C768 C769 1.355 . S
C768 C770 1.415 . S
C769 C768 1.355 . S
C769 C771 1.419 . S
C770 C768 1.415 . S
C770 C775 1.425 . S
C770 C777 1.409 . S
C771 H763 0.930 . S
C771 C769 1.419 . S
C771 C772 1.362 . S
C772 H764 0.930 . S
C772 C771 1.362 . S
C772 C775 1.409 . S
C773 H765 0.930 . S
C773 C774 1.355 . S
C773 C775 1.415 . S
C774 C773 1.355 . S
C774 C776 1.419 . S
C775 C770 1.425 . S
C775 C772 1.409 . S
C775 C773 1.415 . S
C776 H766 0.930 . S
C776 C774 1.419 . S
C776 C777 1.362 . S
C777 H767 0.930 . S
C777 C770 1.409 . S
C777 C776 1.362 . S
H778 C784 0.930 . S
H779 C787 0.930 . S
H780 C788 0.930 . S
H781 C789 0.930 . S
H782 C792 0.930 . S
H783 C793 0.930 . S
C784 H778 0.930 . S
C784 C785 1.355 . S
C784 C786 1.415 . S
C785 C784 1.355 . S
C785 C787 1.419 . S
C786 C784 1.415 . S
C786 C791 1.425 . S
C786 C793 1.409 . S
C787 H779 0.930 . S
C787 C785 1.419 . S
C787 C788 1.362 . S
C788 H780 0.930 . S
C788 C787 1.362 . S
C788 C791 1.409 . S
C789 H781 0.930 . S
C789 C790 1.355 . S
C789 C791 1.415 . S
C790 C789 1.355 . S
C790 C792 1.419 . S
C791 C786 1.425 . S
C791 C788 1.409 . S
C791 C789 1.415 . S
C792 H782 0.930 . S
C792 C790 1.419 . S
C792 C793 1.362 . S
C793 H783 0.930 . S
C793 C786 1.409 . S
C793 C792 1.362 . S
H794 C800 0.930 . S
H795 C803 0.930 . S
H796 C804 0.930 . S
H797 C805 0.930 . S
H798 C808 0.930 . S
H799 C809 0.930 . S
C800 H794 0.930 . S
C800 C801 1.355 . S
C800 C802 1.415 . S
C801 C800 1.355 . S
C801 C803 1.419 . S
C802 C800 1.415 . S
C802 C807 1.425 . S
C802 C809 1.409 . S
C803 H795 0.930 . S
C803 C801 1.419 . S
C803 C804 1.362 . S
C804 H796 0.930 . S
C804 C803 1.362 . S
C804 C807 1.409 . S
C805 H797 0.930 . S
C805 C806 1.355 . S
C805 C807 1.415 . S
C806 C805 1.355 . S
C806 C808 1.419 . S
C807 C802 1.425 . S
C807 C804 1.409 . S
C807 C805 1.415 . S
C808 H798 0.930 . S
C808 C806 1.419 . S
C808 C809 1.362 . S
C809 H799 0.930 . S
C809 C802 1.409 . S
C809 C808 1.362 . S
C241 C5 1.871 . S
C246 C44 1.871 . S
C257 C18 1.912 . S
C262 C55 1.912 . S
C273 C70 1.899 . S
C278 C29 1.899 . S
C289 C83 1.871 . S
C294 C122 1.871 . S
C305 C94 1.894 . S
C310 C135 1.894 . S
C321 C146 1.871 . S
C326 C107 1.871 . S
C337 C198 1.911 . S
C342 C159 1.911 . S
C353 C213 1.909 . S
C358 C174 1.909 . S
C369 C224 1.877 . S
C374 C187 1.877 . S
C385 C10 1.681 . S
C390 C127 1.681 . S
C401 C23 1.626 . S
C406 C140 1.626 . S
C417 C147 1.684 . S
C422 C30 1.684 . S
C433 C49 1.626 . S
C438 C160 1.626 . S
C449 C56 1.627 . S
C454 C179 1.627 . S
C465 C75 1.634 . S
C470 C192 1.634 . S
C481 C88 1.692 . S
C486 C199 1.692 . S
C497 C95 1.661 . S
C502 C218 1.661 . S
C513 C225 1.668 . S
C518 C108 1.668 . S
C529 C3 0.935 . S
C534 C62 0.933 . S
C545 C16 0.915 . S
C550 C69 0.908 . S
C561 C31 0.916 . S
C566 C43 0.917 . S
C577 C42 0.934 . S
C582 C17 0.940 . S
C593 C36 0.910 . S
C598 C57 0.919 . S
C609 C68 0.936 . S
C614 C4 0.940 . S
C625 C81 0.935 . S
C630 C134 0.940 . S
C641 C153 0.938 . S
C646 C96 0.930 . S
C657 C121 0.915 . S
C662 C109 0.915 . S
C673 C101 0.940 . S
C678 C120 0.935 . S
C689 C133 0.933 . S
C694 C114 0.930 1_545 S
C705 C148 0.915 . S
C710 C82 0.915 . S
C721 C212 0.925 . S
C726 C161 0.920 . S
C737 C231 0.908 . S
C742 C172 0.914 . S
C753 C185 0.916 . S
C758 C205 0.917 . S
C769 C173 0.939 . S
C774 C200 0.936 . S
C785 C186 0.926 . S
C790 C211 0.931 . S
C801 C166 0.919 . S
C806 C226 0.917 . S
