# Generated by pormake.
# Topology cha, (4)-cn, num edge types: 1
# Building blocks:
#     Node 0, Type 0, BuildingBlock: CEKHIL_clean_sbu_0, # of connection points: 4
#     Node 1, Type 0, BuildingBlock: CEKHIL_clean_sbu_0, # of connection points: 4
#     Node 2, Type 0, BuildingBlock: CEKHIL_clean_sbu_0, # of connection points: 4
#     Node 3, Type 0, BuildingBlock: CEKHIL_clean_sbu_0, # of connection points: 4
#     Node 4, Type 0, BuildingBlock: CEKHIL_clean_sbu_0, # of connection points: 4
#     Node 5, Type 0, BuildingBlock: CEKHIL_clean_sbu_0, # of connection points: 4
#     Node 6, Type 0, BuildingBlock: CEKHIL_clean_sbu_0, # of connection points: 4
#     Node 7, Type 0, BuildingBlock: CEKHIL_clean_sbu_0, # of connection points: 4
#     Node 8, Type 0, BuildingBlock: CEKHIL_clean_sbu_0, # of connection points: 4
#     Node 9, Type 0, BuildingBlock: CEKHIL_clean_sbu_0, # of connection points: 4
#     Node 10, Type 0, BuildingBlock: CEKHIL_clean_sbu_0, # of connection points: 4
#     Node 11, Type 0, BuildingBlock: CEKHIL_clean_sbu_0, # of connection points: 4
#     Node 12, Type 0, BuildingBlock: CEKHIL_clean_sbu_0, # of connection points: 4
#     Node 13, Type 0, BuildingBlock: CEKHIL_clean_sbu_0, # of connection points: 4
#     Node 14, Type 0, BuildingBlock: CEKHIL_clean_sbu_0, # of connection points: 4
#     Node 15, Type 0, BuildingBlock: CEKHIL_clean_sbu_0, # of connection points: 4
#     Node 16, Type 0, BuildingBlock: CEKHIL_clean_sbu_0, # of connection points: 4
#     Node 17, Type 0, BuildingBlock: CEKHIL_clean_sbu_0, # of connection points: 4
#     Node 18, Type 0, BuildingBlock: CEKHIL_clean_sbu_0, # of connection points: 4
#     Node 19, Type 0, BuildingBlock: CEKHIL_clean_sbu_0, # of connection points: 4
#     Node 20, Type 0, BuildingBlock: CEKHIL_clean_sbu_0, # of connection points: 4
#     Node 21, Type 0, BuildingBlock: CEKHIL_clean_sbu_0, # of connection points: 4
#     Node 22, Type 0, BuildingBlock: CEKHIL_clean_sbu_0, # of connection points: 4
#     Node 23, Type 0, BuildingBlock: CEKHIL_clean_sbu_0, # of connection points: 4
#     Node 24, Type 0, BuildingBlock: CEKHIL_clean_sbu_0, # of connection points: 4
#     Node 25, Type 0, BuildingBlock: CEKHIL_clean_sbu_0, # of connection points: 4
#     Node 26, Type 0, BuildingBlock: CEKHIL_clean_sbu_0, # of connection points: 4
#     Node 27, Type 0, BuildingBlock: CEKHIL_clean_sbu_0, # of connection points: 4
#     Node 28, Type 0, BuildingBlock: CEKHIL_clean_sbu_0, # of connection points: 4
#     Node 29, Type 0, BuildingBlock: CEKHIL_clean_sbu_0, # of connection points: 4
#     Node 30, Type 0, BuildingBlock: CEKHIL_clean_sbu_0, # of connection points: 4
#     Node 31, Type 0, BuildingBlock: CEKHIL_clean_sbu_0, # of connection points: 4
#     Node 32, Type 0, BuildingBlock: CEKHIL_clean_sbu_0, # of connection points: 4
#     Node 33, Type 0, BuildingBlock: CEKHIL_clean_sbu_0, # of connection points: 4
#     Node 34, Type 0, BuildingBlock: CEKHIL_clean_sbu_0, # of connection points: 4
#     Node 35, Type 0, BuildingBlock: CEKHIL_clean_sbu_0, # of connection points: 4
#     Edge 36, Type (0, 0), BuildingBlock: OJICUG_clean_linker_0, # of connection points: 2
#     Edge 37, Type (0, 0), BuildingBlock: OJICUG_clean_linker_0, # of connection points: 2
#     Edge 38, Type (0, 0), BuildingBlock: OJICUG_clean_linker_0, # of connection points: 2
#     Edge 39, Type (0, 0), BuildingBlock: OJICUG_clean_linker_0, # of connection points: 2
#     Edge 40, Type (0, 0), BuildingBlock: OJICUG_clean_linker_0, # of connection points: 2
#     Edge 41, Type (0, 0), BuildingBlock: OJICUG_clean_linker_0, # of connection points: 2
#     Edge 42, Type (0, 0), BuildingBlock: OJICUG_clean_linker_0, # of connection points: 2
#     Edge 43, Type (0, 0), BuildingBlock: OJICUG_clean_linker_0, # of connection points: 2
#     Edge 44, Type (0, 0), BuildingBlock: OJICUG_clean_linker_0, # of connection points: 2
#     Edge 45, Type (0, 0), BuildingBlock: OJICUG_clean_linker_0, # of connection points: 2
#     Edge 46, Type (0, 0), BuildingBlock: OJICUG_clean_linker_0, # of connection points: 2
#     Edge 47, Type (0, 0), BuildingBlock: OJICUG_clean_linker_0, # of connection points: 2
#     Edge 48, Type (0, 0), BuildingBlock: OJICUG_clean_linker_0, # of connection points: 2
#     Edge 49, Type (0, 0), BuildingBlock: OJICUG_clean_linker_0, # of connection points: 2
#     Edge 50, Type (0, 0), BuildingBlock: OJICUG_clean_linker_0, # of connection points: 2
#     Edge 51, Type (0, 0), BuildingBlock: OJICUG_clean_linker_0, # of connection points: 2
#     Edge 52, Type (0, 0), BuildingBlock: OJICUG_clean_linker_0, # of connection points: 2
#     Edge 53, Type (0, 0), BuildingBlock: OJICUG_clean_linker_0, # of connection points: 2
#     Edge 54, Type (0, 0), BuildingBlock: OJICUG_clean_linker_0, # of connection points: 2
#     Edge 55, Type (0, 0), BuildingBlock: OJICUG_clean_linker_0, # of connection points: 2
#     Edge 56, Type (0, 0), BuildingBlock: OJICUG_clean_linker_0, # of connection points: 2
#     Edge 57, Type (0, 0), BuildingBlock: OJICUG_clean_linker_0, # of connection points: 2
#     Edge 58, Type (0, 0), BuildingBlock: OJICUG_clean_linker_0, # of connection points: 2
#     Edge 59, Type (0, 0), BuildingBlock: OJICUG_clean_linker_0, # of connection points: 2
#     Edge 60, Type (0, 0), BuildingBlock: OJICUG_clean_linker_0, # of connection points: 2
#     Edge 61, Type (0, 0), BuildingBlock: OJICUG_clean_linker_0, # of connection points: 2
#     Edge 62, Type (0, 0), BuildingBlock: OJICUG_clean_linker_0, # of connection points: 2
#     Edge 63, Type (0, 0), BuildingBlock: OJICUG_clean_linker_0, # of connection points: 2
#     Edge 64, Type (0, 0), BuildingBlock: OJICUG_clean_linker_0, # of connection points: 2
#     Edge 65, Type (0, 0), BuildingBlock: OJICUG_clean_linker_0, # of connection points: 2
#     Edge 66, Type (0, 0), BuildingBlock: OJICUG_clean_linker_0, # of connection points: 2
#     Edge 67, Type (0, 0), BuildingBlock: OJICUG_clean_linker_0, # of connection points: 2
#     Edge 68, Type (0, 0), BuildingBlock: OJICUG_clean_linker_0, # of connection points: 2
#     Edge 69, Type (0, 0), BuildingBlock: OJICUG_clean_linker_0, # of connection points: 2
#     Edge 70, Type (0, 0), BuildingBlock: OJICUG_clean_linker_0, # of connection points: 2
#     Edge 71, Type (0, 0), BuildingBlock: OJICUG_clean_linker_0, # of connection points: 2
#     Edge 72, Type (0, 0), BuildingBlock: OJICUG_clean_linker_0, # of connection points: 2
#     Edge 73, Type (0, 0), BuildingBlock: OJICUG_clean_linker_0, # of connection points: 2
#     Edge 74, Type (0, 0), BuildingBlock: OJICUG_clean_linker_0, # of connection points: 2
#     Edge 75, Type (0, 0), BuildingBlock: OJICUG_clean_linker_0, # of connection points: 2
#     Edge 76, Type (0, 0), BuildingBlock: OJICUG_clean_linker_0, # of connection points: 2
#     Edge 77, Type (0, 0), BuildingBlock: OJICUG_clean_linker_0, # of connection points: 2
#     Edge 78, Type (0, 0), BuildingBlock: OJICUG_clean_linker_0, # of connection points: 2
#     Edge 79, Type (0, 0), BuildingBlock: OJICUG_clean_linker_0, # of connection points: 2
#     Edge 80, Type (0, 0), BuildingBlock: OJICUG_clean_linker_0, # of connection points: 2
#     Edge 81, Type (0, 0), BuildingBlock: OJICUG_clean_linker_0, # of connection points: 2
#     Edge 82, Type (0, 0), BuildingBlock: OJICUG_clean_linker_0, # of connection points: 2
#     Edge 83, Type (0, 0), BuildingBlock: OJICUG_clean_linker_0, # of connection points: 2
#     Edge 84, Type (0, 0), BuildingBlock: OJICUG_clean_linker_0, # of connection points: 2
#     Edge 85, Type (0, 0), BuildingBlock: OJICUG_clean_linker_0, # of connection points: 2
#     Edge 86, Type (0, 0), BuildingBlock: OJICUG_clean_linker_0, # of connection points: 2
#     Edge 87, Type (0, 0), BuildingBlock: OJICUG_clean_linker_0, # of connection points: 2
#     Edge 88, Type (0, 0), BuildingBlock: OJICUG_clean_linker_0, # of connection points: 2
#     Edge 89, Type (0, 0), BuildingBlock: OJICUG_clean_linker_0, # of connection points: 2
#     Edge 90, Type (0, 0), BuildingBlock: OJICUG_clean_linker_0, # of connection points: 2
#     Edge 91, Type (0, 0), BuildingBlock: OJICUG_clean_linker_0, # of connection points: 2
#     Edge 92, Type (0, 0), BuildingBlock: OJICUG_clean_linker_0, # of connection points: 2
#     Edge 93, Type (0, 0), BuildingBlock: OJICUG_clean_linker_0, # of connection points: 2
#     Edge 94, Type (0, 0), BuildingBlock: OJICUG_clean_linker_0, # of connection points: 2
#     Edge 95, Type (0, 0), BuildingBlock: OJICUG_clean_linker_0, # of connection points: 2
#     Edge 96, Type (0, 0), BuildingBlock: OJICUG_clean_linker_0, # of connection points: 2
#     Edge 97, Type (0, 0), BuildingBlock: OJICUG_clean_linker_0, # of connection points: 2
#     Edge 98, Type (0, 0), BuildingBlock: OJICUG_clean_linker_0, # of connection points: 2
#     Edge 99, Type (0, 0), BuildingBlock: OJICUG_clean_linker_0, # of connection points: 2
#     Edge 100, Type (0, 0), BuildingBlock: OJICUG_clean_linker_0, # of connection points: 2
#     Edge 101, Type (0, 0), BuildingBlock: OJICUG_clean_linker_0, # of connection points: 2
#     Edge 102, Type (0, 0), BuildingBlock: OJICUG_clean_linker_0, # of connection points: 2
#     Edge 103, Type (0, 0), BuildingBlock: OJICUG_clean_linker_0, # of connection points: 2
#     Edge 104, Type (0, 0), BuildingBlock: OJICUG_clean_linker_0, # of connection points: 2
#     Edge 105, Type (0, 0), BuildingBlock: OJICUG_clean_linker_0, # of connection points: 2
#     Edge 106, Type (0, 0), BuildingBlock: OJICUG_clean_linker_0, # of connection points: 2
#     Edge 107, Type (0, 0), BuildingBlock: OJICUG_clean_linker_0, # of connection points: 2
# Relax obj value: 0.072
# Max RMSD: 0.096
# Mean RMSD: 0.096
data_MOF--net-cha--node1-CEKHIL_clean_sbu_0--edge1-OJICUG_clean_linker_0
_symmetry_space_group_name_H-M    P1
_symmetry_Int_Tables_number       1
_symmetry_cell_setting            triclinic
loop_
_symmetry_equiv_pos_as_xyz
'x, y, z'
_cell_length_a     39.188811
_cell_length_b     39.153096
_cell_length_c     61.770185
_cell_angle_alpha  90.007034
_cell_angle_beta   89.997992
_cell_angle_gamma 119.92009
loop_
_atom_site_label
_atom_site_type_symbol
_atom_site_fract_x
_atom_site_fract_y
_atom_site_fract_z
_atom_type_partial_charge
Co0 Co 0.03893 0.30472 0.10166 0.0
O1 O 0.03725 0.29628 0.13243 0.0
O2 O 0.01121 0.32802 0.11599 0.0
C3 C 0.10346 0.32373 0.0984 0.0
O4 O 0.03585 0.31929 0.06993 0.0
Co5 Co 0.06215 0.25763 0.06995 0.0
O6 O 0.07246 0.30144 0.05009 0.0
C7 C 0.98076 0.221 0.08768 0.0
C8 C 0.01856 0.31567 0.13404 0.0
C9 C 0.05318 0.3195 0.05208 0.0
O10 O 0.98815 0.25284 0.09773 0.0
O11 O 0.0067 0.21707 0.07707 0.0
O12 O 0.09331 0.34921 0.1044 0.0
O13 O 0.07505 0.28815 0.09605 0.0
Co14 Co 0.75285 0.76542 0.10173 0.0
O15 O 0.75819 0.77197 0.13266 0.0
O16 O 0.73042 0.71443 0.11588 0.0
C17 C 0.73147 0.80888 0.09688 0.0
O18 O 0.74157 0.74782 0.06987 0.0
Co19 Co 0.8021 0.83714 0.07128 0.0
O20 O 0.76329 0.80235 0.04939 0.0
C21 C 0.84014 0.79857 0.09443 0.0
C22 C 0.74051 0.73391 0.13406 0.0
C23 C 0.74405 0.76504 0.05162 0.0
O24 O 0.8064 0.76945 0.09998 0.0
O25 O 0.84424 0.82938 0.08479 0.0
O26 O 0.70658 0.77293 0.10262 0.0
O27 O 0.76767 0.8175 0.09589 0.0
Co28 Co 0.2946 0.01653 0.10092 0.0
O29 O 0.28685 0.0176 0.13169 0.0
O30 O 0.34497 0.04443 0.11567 0.0
C31 C 0.24963 0.95189 0.09698 0.0
O32 O 0.3137 0.02059 0.06946 0.0
Co33 Co 0.2259 0.9937 0.06823 0.0
O34 O 0.2606 0.98471 0.04861 0.0
C35 C 0.26889 0.0746 0.08684 0.0
C36 C 0.32485 0.03683 0.13355 0.0
C37 C 0.29775 0.00403 0.05126 0.0
O38 O 0.29314 0.0672 0.09708 0.0
O39 O 0.23968 0.04879 0.0758 0.0
O40 O 0.28502 0.96214 0.10344 0.0
O41 O 0.2423 0.98023 0.0946 0.0
Co42 Co 0.30717 0.04167 0.91788 0.0
O43 O 0.29833 0.04067 0.88712 0.0
O44 O 0.32964 0.01372 0.90309 0.0
C45 C 0.32675 0.10633 0.92185 0.0
O46 O 0.32221 0.03752 0.94934 0.0
Co47 Co 0.26133 0.06457 0.95061 0.0
O48 O 0.30502 0.0735 0.9702 0.0
C49 C 0.22358 0.98367 0.93199 0.0
C50 C 0.3171 0.02139 0.88522 0.0
C51 C 0.32283 0.05411 0.96754 0.0
O52 O 0.25516 0.99105 0.92171 0.0
O53 O 0.22016 0.00949 0.94306 0.0
O54 O 0.35187 0.09602 0.91537 0.0
O55 O 0.29115 0.07803 0.92424 0.0
Co56 Co 0.01623 0.29324 0.91715 0.0
O57 O 0.01498 0.28661 0.88623 0.0
O58 O 0.04476 0.34418 0.90297 0.0
C59 C 0.9515 0.24997 0.92205 0.0
O60 O 0.02259 0.3109 0.94901 0.0
Co61 Co 0.99382 0.22151 0.94763 0.0
O62 O 0.98987 0.25642 0.96951 0.0
C63 C 0.07029 0.25985 0.92447 0.0
C64 C 0.03536 0.32466 0.8848 0.0
C65 C 0.00791 0.29373 0.96727 0.0
O66 O 0.06566 0.28902 0.9189 0.0
O67 O 0.04363 0.22909 0.93412 0.0
O68 O 0.96256 0.28593 0.91629 0.0
O69 O 0.97901 0.24122 0.92303 0.0
Co70 Co 0.76377 0.75408 0.91719 0.0
O71 O 0.77043 0.7624 0.88641 0.0
O72 O 0.7128 0.73061 0.90289 0.0
C73 C 0.80947 0.73522 0.92046 0.0
O74 O 0.74623 0.73957 0.94893 0.0
Co75 Co 0.83392 0.80132 0.94887 0.0
O76 O 0.80067 0.75747 0.96873 0.0
C77 C 0.78888 0.83777 0.93113 0.0
C78 C 0.73242 0.7429 0.88482 0.0
C79 C 0.76339 0.73937 0.96677 0.0
O80 O 0.76458 0.80592 0.92107 0.0
O81 O 0.81874 0.84176 0.94175 0.0
O82 O 0.77392 0.70966 0.91449 0.0
O83 O 0.81644 0.77078 0.92278 0.0
Co84 Co 0.01816 0.75396 0.91722 0.0
O85 O 0.0198 0.76236 0.88644 0.0
O86 O 0.04572 0.7305 0.90287 0.0
C87 C 0.95368 0.73513 0.9205 0.0
O88 O 0.02125 0.73938 0.94894 0.0
Co89 Co 0.99516 0.80116 0.94896 0.0
O90 O 0.98468 0.75725 0.96879 0.0
C91 C 0.07652 0.83761 0.9312 0.0
C92 C 0.03836 0.74286 0.88483 0.0
C93 C 0.00393 0.73916 0.9668 0.0
O94 O 0.06903 0.80576 0.92112 0.0
O95 O 0.05065 0.8416 0.94184 0.0
O96 O 0.96373 0.70957 0.91451 0.0
O97 O 0.98217 0.77068 0.92285 0.0
Co98 Co 0.30415 0.29304 0.91706 0.0
O99 O 0.29884 0.28648 0.88613 0.0
O100 O 0.3265 0.34402 0.9029 0.0
C101 C 0.32564 0.24968 0.92193 0.0
O102 O 0.31539 0.31066 0.94892 0.0
Co103 Co 0.25499 0.22131 0.94752 0.0
O104 O 0.29374 0.25615 0.96941 0.0
C105 C 0.21683 0.25976 0.92437 0.0
C106 C 0.31647 0.32454 0.88472 0.0
C107 C 0.31293 0.29347 0.96718 0.0
O108 O 0.25055 0.28891 0.91881 0.0
O109 O 0.21279 0.22898 0.93402 0.0
O110 O 0.35048 0.28564 0.91619 0.0
O111 O 0.28942 0.24099 0.92291 0.0
Co112 Co 0.76223 0.04223 0.91792 0.0
O113 O 0.77 0.04124 0.88715 0.0
O114 O 0.71186 0.01443 0.90316 0.0
C115 C 0.80726 0.10683 0.92191 0.0
O116 O 0.74314 0.03809 0.94939 0.0
Co117 Co 0.83091 0.06487 0.9506 0.0
O118 O 0.79625 0.07393 0.97023 0.0
C119 C 0.78777 0.984 0.93196 0.0
C120 C 0.732 0.02206 0.88528 0.0
C121 C 0.75911 0.05463 0.96759 0.0
O122 O 0.76361 0.9915 0.9217 0.0
O123 O 0.81697 0.00974 0.94303 0.0
O124 O 0.77188 0.09665 0.91545 0.0
O125 O 0.81455 0.07845 0.92425 0.0
Co126 Co 0.75004 0.01697 0.10096 0.0
O127 O 0.75886 0.01798 0.13172 0.0
O128 O 0.72755 0.04491 0.11572 0.0
C129 C 0.73046 0.9523 0.097 0.0
O130 O 0.735 0.02109 0.0695 0.0
Co131 Co 0.79584 0.99402 0.06822 0.0
O132 O 0.75217 0.98511 0.04863 0.0
C133 C 0.83366 0.07491 0.08686 0.0
C134 C 0.74006 0.03724 0.1336 0.0
C135 C 0.73435 0.0045 0.0513 0.0
O136 O 0.80207 0.06757 0.09712 0.0
O137 O 0.83704 0.04906 0.0758 0.0
O138 O 0.70534 0.96261 0.10347 0.0
O139 O 0.76607 0.9806 0.09461 0.0
Co140 Co 0.0408 0.76519 0.10173 0.0
O141 O 0.04197 0.77174 0.13266 0.0
O142 O 0.0123 0.71421 0.11587 0.0
C143 C 0.10553 0.80857 0.09688 0.0
O144 O 0.03451 0.7476 0.06987 0.0
Co145 Co 0.06316 0.83696 0.07129 0.0
O146 O 0.06717 0.80212 0.04938 0.0
C147 C 0.98667 0.79848 0.09442 0.0
C148 C 0.02162 0.73368 0.13406 0.0
C149 C 0.04917 0.76481 0.0516 0.0
O150 O 0.99133 0.76932 0.09997 0.0
O151 O 0.01332 0.82928 0.08479 0.0
O152 O 0.09452 0.7726 0.10262 0.0
O153 O 0.07796 0.81725 0.09589 0.0
Co154 Co 0.29324 0.30469 0.10161 0.0
O155 O 0.28664 0.29638 0.1324 0.0
O156 O 0.34424 0.32803 0.11588 0.0
C157 C 0.24767 0.32373 0.09838 0.0
O158 O 0.31074 0.31915 0.06986 0.0
Co159 Co 0.22296 0.25757 0.06998 0.0
O160 O 0.25629 0.30129 0.05006 0.0
C161 C 0.26783 0.22091 0.08769 0.0
C162 C 0.32465 0.31578 0.13396 0.0
C163 C 0.29358 0.31933 0.05202 0.0
O164 O 0.29225 0.25276 0.09771 0.0
O165 O 0.23795 0.217 0.07712 0.0
O166 O 0.28326 0.34922 0.10433 0.0
O167 O 0.24059 0.28813 0.09606 0.0
Co168 Co 0.70534 0.63747 0.43497 0.0
O169 O 0.7036 0.62908 0.46575 0.0
O170 O 0.6776 0.6608 0.44924 0.0
C171 C 0.76989 0.65649 0.43177 0.0
O172 O 0.70235 0.652 0.40323 0.0
Co173 Co 0.72867 0.59034 0.40335 0.0
O174 O 0.73895 0.63406 0.38343 0.0
C175 C 0.64725 0.55369 0.42103 0.0
C176 C 0.68493 0.64849 0.46732 0.0
C177 C 0.7197 0.65217 0.38539 0.0
O178 O 0.65458 0.58557 0.43103 0.0
O179 O 0.67324 0.54976 0.41049 0.0
O180 O 0.75971 0.68197 0.43773 0.0
O181 O 0.74149 0.6209 0.42943 0.0
Co182 Co 0.4191 0.09884 0.43505 0.0
O183 O 0.42433 0.10532 0.46599 0.0
O184 O 0.39686 0.04783 0.44917 0.0
C185 C 0.39742 0.14205 0.43019 0.0
O186 O 0.40798 0.08131 0.40317 0.0
Co187 Co 0.46822 0.17074 0.40468 0.0
O188 O 0.42965 0.13588 0.38272 0.0
C189 C 0.50648 0.13236 0.42779 0.0
C190 C 0.40681 0.06726 0.46736 0.0
C191 C 0.4105 0.09856 0.38492 0.0
O192 O 0.47278 0.10315 0.43332 0.0
O193 O 0.51047 0.16314 0.41817 0.0
O194 O 0.37265 0.10605 0.4359 0.0
O195 O 0.43368 0.15087 0.42923 0.0
Co196 Co 0.96115 0.34945 0.43433 0.0
O197 O 0.95336 0.35053 0.46509 0.0
O198 O 0.0115 0.37728 0.44908 0.0
C199 C 0.91611 0.28483 0.43038 0.0
O200 O 0.98029 0.35349 0.40288 0.0
Co201 Co 0.89253 0.3267 0.40159 0.0
O202 O 0.92723 0.31764 0.382 0.0
C203 C 0.93557 0.40759 0.4202 0.0
C204 C 0.99136 0.36971 0.46696 0.0
C205 C 0.96437 0.33693 0.38468 0.0
O206 O 0.95976 0.40016 0.43047 0.0
O207 O 0.90638 0.3818 0.40915 0.0
O208 O 0.95148 0.29502 0.43686 0.0
O209 O 0.90884 0.31322 0.42799 0.0
Co210 Co 0.97392 0.37503 0.25138 0.0
O211 O 0.96511 0.37413 0.22062 0.0
O212 O 0.99624 0.34696 0.23656 0.0
C213 C 0.99374 0.43973 0.25538 0.0
O214 O 0.98892 0.37075 0.28281 0.0
Co215 Co 0.92833 0.39816 0.28415 0.0
O216 O 0.97195 0.40684 0.30373 0.0
C217 C 0.89023 0.31731 0.26545 0.0
C218 C 0.98379 0.35476 0.2187 0.0
C219 C 0.98963 0.38733 0.30103 0.0
O220 O 0.92179 0.32453 0.25519 0.0
O221 O 0.88696 0.34321 0.27652 0.0
O222 O 0.01877 0.42931 0.24889 0.0
O223 O 0.95809 0.41152 0.25776 0.0
Co224 Co 0.68299 0.62635 0.2504 0.0
O225 O 0.68173 0.61979 0.21947 0.0
O226 O 0.71172 0.67731 0.23625 0.0
C227 C 0.61819 0.5833 0.25527 0.0
O228 O 0.68939 0.64393 0.28227 0.0
Co229 Co 0.66026 0.55444 0.28079 0.0
O230 O 0.65651 0.5894 0.30272 0.0
C231 C 0.7368 0.59264 0.2577 0.0
C232 C 0.70225 0.65784 0.21807 0.0
C233 C 0.67466 0.62672 0.30052 0.0
O234 O 0.73227 0.62187 0.25214 0.0
O235 O 0.71007 0.5619 0.26734 0.0
O236 O 0.62943 0.61932 0.24953 0.0
O237 O 0.64559 0.57437 0.25623 0.0
Co238 Co 0.43046 0.08772 0.25045 0.0
O239 O 0.43704 0.09604 0.21966 0.0
O240 O 0.37945 0.06438 0.23619 0.0
C241 C 0.47604 0.0687 0.25366 0.0
O242 O 0.41298 0.07324 0.2822 0.0
Co243 Co 0.50076 0.13486 0.28206 0.0
O244 O 0.46744 0.09117 0.302 0.0
C245 C 0.45588 0.17151 0.26436 0.0
C246 C 0.39902 0.07664 0.21811 0.0
C247 C 0.43015 0.07309 0.30004 0.0
O248 O 0.43144 0.13964 0.25436 0.0
O249 O 0.48578 0.17543 0.27491 0.0
O250 O 0.44046 0.0432 0.24772 0.0
O251 O 0.48311 0.10429 0.25599 0.0
Co252 Co 0.68477 0.08762 0.25053 0.0
O253 O 0.68655 0.09602 0.21975 0.0
O254 O 0.71251 0.06428 0.23626 0.0
C255 C 0.62024 0.06864 0.25372 0.0
O256 O 0.68774 0.07308 0.28227 0.0
Co257 Co 0.66148 0.13478 0.28214 0.0
O258 O 0.65116 0.09104 0.30206 0.0
C259 C 0.74292 0.17137 0.26449 0.0
C260 C 0.70521 0.0766 0.21819 0.0
C261 C 0.67039 0.07292 0.30011 0.0
O262 O 0.73556 0.1395 0.25448 0.0
O263 O 0.71694 0.17532 0.27503 0.0
O264 O 0.63039 0.04314 0.24776 0.0
O265 O 0.64866 0.10422 0.25607 0.0
Co266 Co 0.97079 0.6261 0.2504 0.0
O267 O 0.96556 0.61953 0.21947 0.0
O268 O 0.99302 0.67707 0.23624 0.0
C269 C 0.9925 0.58293 0.25532 0.0
O270 O 0.98194 0.64374 0.28226 0.0
Co271 Co 0.92174 0.55431 0.28085 0.0
O272 O 0.96039 0.58925 0.30276 0.0
C273 C 0.88341 0.59258 0.2577 0.0
C274 C 0.98309 0.65758 0.21806 0.0
C275 C 0.9795 0.62656 0.30053 0.0
O276 O 0.9171 0.62177 0.25211 0.0
O277 O 0.87945 0.56185 0.26736 0.0
O278 O 0.01725 0.61891 0.24957 0.0
O279 O 0.95624 0.5741 0.25627 0.0
Co280 Co 0.42891 0.37578 0.25119 0.0
O281 O 0.43672 0.37477 0.22043 0.0
O282 O 0.37857 0.34789 0.23642 0.0
C283 C 0.47385 0.44042 0.25517 0.0
O284 O 0.40976 0.37165 0.28265 0.0
Co285 Co 0.49758 0.39861 0.28391 0.0
O286 O 0.46281 0.4075 0.30353 0.0
C287 C 0.45468 0.31775 0.26525 0.0
C288 C 0.39872 0.35552 0.21854 0.0
C289 C 0.42567 0.38817 0.30086 0.0
O290 O 0.43041 0.32513 0.25501 0.0
O291 O 0.48387 0.34356 0.27629 0.0
O292 O 0.43847 0.43017 0.24869 0.0
O293 O 0.48119 0.41208 0.25754 0.0
Co294 Co 0.41622 0.35007 0.43417 0.0
O295 O 0.42505 0.35102 0.46493 0.0
O296 O 0.39396 0.37821 0.44897 0.0
C297 C 0.39634 0.28535 0.4302 0.0
O298 O 0.40122 0.35431 0.40273 0.0
Co299 Co 0.46178 0.32684 0.40143 0.0
O300 O 0.41821 0.31823 0.38182 0.0
C301 C 0.49994 0.40771 0.4201 0.0
C302 C 0.40642 0.37045 0.46683 0.0
C303 C 0.40053 0.33774 0.38451 0.0
O304 O 0.46837 0.40054 0.43034 0.0
O305 O 0.50319 0.38177 0.40906 0.0
O306 O 0.37134 0.29581 0.43669 0.0
O307 O 0.432 0.31353 0.42781 0.0
Co308 Co 0.70698 0.09872 0.43511 0.0
O309 O 0.70819 0.10525 0.46604 0.0
O310 O 0.67832 0.04773 0.44925 0.0
C311 C 0.77176 0.14187 0.43027 0.0
O312 O 0.70064 0.08115 0.40324 0.0
Co313 Co 0.72963 0.1706 0.40472 0.0
O314 O 0.73348 0.1357 0.38279 0.0
C315 C 0.65307 0.1323 0.4278 0.0
C316 C 0.68775 0.0672 0.46743 0.0
C317 C 0.71537 0.09838 0.38499 0.0
O318 O 0.65764 0.10308 0.43336 0.0
O319 O 0.67979 0.16306 0.41817 0.0
O320 O 0.76059 0.10586 0.43599 0.0
O321 O 0.74431 0.15073 0.42929 0.0
Co322 Co 0.95977 0.6376 0.43495 0.0
O323 O 0.95316 0.62925 0.46573 0.0
O324 O 0.01077 0.66097 0.44922 0.0
C325 C 0.91415 0.65657 0.43174 0.0
O326 O 0.97725 0.6521 0.40321 0.0
Co327 Co 0.8895 0.59044 0.40332 0.0
O328 O 0.92278 0.6342 0.38342 0.0
C329 C 0.93445 0.55385 0.42102 0.0
C330 C 0.99118 0.64868 0.46729 0.0
C331 C 0.96007 0.65229 0.38537 0.0
O332 O 0.95884 0.58571 0.43103 0.0
O333 O 0.90456 0.5499 0.41044 0.0
O334 O 0.94972 0.68209 0.43769 0.0
O335 O 0.90711 0.62099 0.4294 0.0
Co336 Co 0.37158 0.97042 0.76824 0.0
O337 O 0.36986 0.96205 0.79901 0.0
O338 O 0.34402 0.99393 0.78253 0.0
C339 C 0.43606 0.9892 0.76502 0.0
O340 O 0.36861 0.98498 0.73649 0.0
Co341 Co 0.39462 0.92312 0.73658 0.0
O342 O 0.4052 0.96701 0.71672 0.0
C343 C 0.31321 0.88677 0.75426 0.0
C344 C 0.35132 0.98158 0.80059 0.0
C345 C 0.38599 0.98515 0.71866 0.0
O346 O 0.3207 0.91864 0.76431 0.0
O347 O 0.33909 0.88273 0.74367 0.0
O348 O 0.42602 0.01479 0.77097 0.0
O349 O 0.40756 0.95366 0.76267 0.0
Co350 Co 0.08575 0.43194 0.76838 0.0
O351 O 0.09103 0.43858 0.79931 0.0
O352 O 0.06354 0.38101 0.78257 0.0
C353 C 0.06405 0.47513 0.76345 0.0
O354 O 0.07458 0.41426 0.73653 0.0
Co355 Co 0.13479 0.50369 0.73791 0.0
O356 O 0.09612 0.46873 0.71601 0.0
C357 C 0.17312 0.46545 0.76109 0.0
C358 C 0.07351 0.40053 0.80074 0.0
C359 C 0.07701 0.43142 0.71826 0.0
O360 O 0.13943 0.43626 0.76667 0.0
O361 O 0.17708 0.49617 0.75142 0.0
O362 O 0.0393 0.43915 0.76921 0.0
O363 O 0.10031 0.48394 0.76249 0.0
Co364 Co 0.62829 0.68294 0.76756 0.0
O365 O 0.62048 0.68397 0.79832 0.0
O366 O 0.67864 0.7106 0.78234 0.0
C367 C 0.58309 0.61839 0.76357 0.0
O368 O 0.64743 0.687 0.7361 0.0
Co369 Co 0.55976 0.66052 0.73481 0.0
O370 O 0.59432 0.65123 0.71524 0.0
C371 C 0.60312 0.74139 0.75344 0.0
C372 C 0.65848 0.70306 0.80021 0.0
C373 C 0.63147 0.67046 0.7179 0.0
O374 O 0.62714 0.73376 0.76375 0.0
O375 O 0.57392 0.71574 0.74233 0.0
O376 O 0.61843 0.62844 0.77005 0.0
O377 O 0.57595 0.64686 0.7612 0.0
Co378 Co 0.64065 0.7085 0.58458 0.0
O379 O 0.63181 0.70754 0.55382 0.0
O380 O 0.66295 0.68041 0.56979 0.0
C381 C 0.66047 0.77322 0.58857 0.0
O382 O 0.65569 0.70427 0.61602 0.0
Co383 Co 0.59508 0.73167 0.61736 0.0
O384 O 0.63867 0.7403 0.63696 0.0
C385 C 0.55696 0.65081 0.59867 0.0
C386 C 0.65047 0.68815 0.55192 0.0
C387 C 0.65638 0.72083 0.63424 0.0
O388 O 0.58853 0.65801 0.58843 0.0
O389 O 0.5537 0.67673 0.60972 0.0
O390 O 0.68549 0.76279 0.58207 0.0
O391 O 0.62482 0.74501 0.59096 0.0
Co392 Co 0.34948 0.95941 0.58364 0.0
O393 O 0.3483 0.95293 0.5527 0.0
O394 O 0.3781 0.01042 0.56952 0.0
C395 C 0.28472 0.91619 0.58848 0.0
O396 O 0.3558 0.97695 0.61552 0.0
Co397 Co 0.32691 0.88753 0.61402 0.0
O398 O 0.32301 0.92239 0.63596 0.0
C399 C 0.40348 0.92593 0.59096 0.0
C400 C 0.36871 0.99098 0.55133 0.0
C401 C 0.34108 0.95971 0.63377 0.0
O402 O 0.39887 0.95512 0.58539 0.0
O403 O 0.37678 0.89515 0.60058 0.0
O404 O 0.29584 0.95219 0.58276 0.0
O405 O 0.3122 0.90738 0.58945 0.0
Co406 Co 0.09694 0.4205 0.58386 0.0
O407 O 0.10353 0.42887 0.55308 0.0
O408 O 0.04594 0.39707 0.5696 0.0
C409 C 0.14265 0.40164 0.58707 0.0
O410 O 0.07946 0.40596 0.6156 0.0
Co411 Co 0.16716 0.4677 0.61551 0.0
O412 O 0.13392 0.4239 0.6354 0.0
C413 C 0.12212 0.50421 0.59783 0.0
C414 C 0.06551 0.40939 0.55152 0.0
C415 C 0.09663 0.40578 0.63344 0.0
O416 O 0.09778 0.47234 0.58779 0.0
O417 O 0.15202 0.50818 0.60841 0.0
O418 O 0.10709 0.37609 0.58111 0.0
O419 O 0.14962 0.4372 0.58941 0.0
Co420 Co 0.35159 0.42104 0.58381 0.0
O421 O 0.3533 0.42942 0.55304 0.0
O422 O 0.37936 0.39775 0.56953 0.0
C423 C 0.28704 0.40197 0.58704 0.0
O424 O 0.35463 0.40652 0.61556 0.0
Co425 Co 0.32825 0.46813 0.61545 0.0
O426 O 0.31801 0.42441 0.63536 0.0
C427 C 0.40967 0.50482 0.59775 0.0
C428 C 0.372 0.41004 0.55146 0.0
C429 C 0.33729 0.40634 0.6334 0.0
O430 O 0.40234 0.47296 0.58775 0.0
O431 O 0.38368 0.50873 0.60831 0.0
O432 O 0.29724 0.3765 0.58107 0.0
O433 O 0.31543 0.43757 0.58938 0.0
Co434 Co 0.63754 0.95964 0.58378 0.0
O435 O 0.63226 0.95307 0.55285 0.0
O436 O 0.65973 0.0106 0.56962 0.0
C437 C 0.65927 0.91646 0.58866 0.0
O438 O 0.64872 0.97727 0.61564 0.0
Co439 Co 0.58853 0.88783 0.61422 0.0
O440 O 0.62715 0.92278 0.63614 0.0
C441 C 0.55017 0.92609 0.59108 0.0
C442 C 0.64975 0.99112 0.55144 0.0
C443 C 0.64626 0.96009 0.63391 0.0
O444 O 0.58386 0.9553 0.58551 0.0
O445 O 0.54623 0.89535 0.60072 0.0
O446 O 0.68401 0.95245 0.58292 0.0
O447 O 0.623 0.90763 0.58964 0.0
Co448 Co 0.09536 0.70856 0.58453 0.0
O449 O 0.1032 0.70749 0.55377 0.0
O450 O 0.04503 0.68073 0.56975 0.0
C451 C 0.14038 0.77317 0.58848 0.0
O452 O 0.07616 0.7045 0.61597 0.0
Co453 Co 0.1639 0.73129 0.61731 0.0
O454 O 0.12917 0.74036 0.63687 0.0
C455 C 0.12091 0.6504 0.59869 0.0
C456 C 0.0652 0.68831 0.55188 0.0
C457 C 0.09203 0.72106 0.63418 0.0
O458 O 0.09673 0.65785 0.58839 0.0
O459 O 0.15007 0.67619 0.60976 0.0
O460 O 0.10502 0.76298 0.58199 0.0
O461 O 0.14765 0.74479 0.5909 0.0
Co462 Co 0.08237 0.68296 0.76746 0.0
O463 O 0.09123 0.68389 0.79821 0.0
O464 O 0.05997 0.71095 0.78229 0.0
C465 C 0.06269 0.61829 0.76345 0.0
O466 O 0.06732 0.6872 0.73602 0.0
Co467 Co 0.12807 0.66 0.73467 0.0
O468 O 0.08438 0.65117 0.71511 0.0
C469 C 0.16598 0.74086 0.75334 0.0
C470 C 0.0725 0.70322 0.80014 0.0
C471 C 0.06664 0.67063 0.71781 0.0
O472 O 0.13442 0.73353 0.76364 0.0
O473 O 0.16932 0.71503 0.74225 0.0
O474 O 0.03761 0.62863 0.76996 0.0
O475 O 0.09831 0.64656 0.76106 0.0
Co476 Co 0.37385 0.43219 0.76839 0.0
O477 O 0.37506 0.43871 0.79933 0.0
O478 O 0.34528 0.3812 0.78253 0.0
C479 C 0.4386 0.47545 0.76354 0.0
O480 O 0.36754 0.41464 0.73652 0.0
Co481 Co 0.39633 0.50404 0.738 0.0
O482 O 0.40032 0.4692 0.71608 0.0
C483 C 0.31981 0.46562 0.7611 0.0
C484 C 0.35467 0.40066 0.80072 0.0
C485 C 0.38226 0.43188 0.71827 0.0
O486 O 0.32444 0.43644 0.76665 0.0
O487 O 0.34648 0.4964 0.75147 0.0
O488 O 0.42751 0.43946 0.76926 0.0
O489 O 0.4111 0.48423 0.76257 0.0
Co490 Co 0.62649 0.97101 0.76834 0.0
O491 O 0.61991 0.96266 0.79912 0.0
O492 O 0.6775 0.99469 0.78262 0.0
C493 C 0.58054 0.98953 0.7651 0.0
O494 O 0.64395 0.98557 0.73659 0.0
Co495 Co 0.55639 0.92351 0.73667 0.0
O496 O 0.58944 0.96746 0.71682 0.0
C497 C 0.60183 0.88745 0.75435 0.0
C498 C 0.65792 0.9823 0.80069 0.0
C499 C 0.62673 0.98569 0.71876 0.0
O500 O 0.62598 0.91932 0.76444 0.0
O501 O 0.57192 0.8833 0.74372 0.0
O502 O 0.61605 0.01523 0.77105 0.0
O503 O 0.57376 0.95403 0.76277 0.0
C504 C 0.15095 0.30984 0.0799 0.0
C505 C 0.14437 0.33311 0.09467 0.0
H506 H 0.18921 0.28956 0.0692 0.0
C507 C 0.17551 0.35964 0.10796 0.0
H508 H 0.12785 0.28956 0.06921 0.0
C509 C 0.21143 0.35964 0.10795 0.0
C510 C 0.21611 0.33311 0.09466 0.0
H511 H 0.17105 0.37783 0.11953 0.0
H512 H 0.23403 0.37783 0.11952 0.0
C513 C 0.18633 0.30985 0.07989 0.0
C514 C 0.74365 0.90467 0.07796 0.0
C515 C 0.72079 0.91131 0.09299 0.0
H516 H 0.76394 0.86635 0.06708 0.0
C517 C 0.69461 0.88013 0.10639 0.0
H518 H 0.76364 0.92782 0.06719 0.0
C519 C 0.69474 0.84426 0.10629 0.0
C520 C 0.72104 0.83961 0.09279 0.0
H521 H 0.67674 0.88461 0.11817 0.0
H522 H 0.67703 0.82177 0.11803 0.0
C523 C 0.74379 0.86928 0.07787 0.0
C524 C 0.15348 0.86895 0.07787 0.0
C525 C 0.14661 0.83926 0.09279 0.0
H526 H 0.19202 0.92747 0.06718 0.0
C527 C 0.17753 0.84387 0.10629 0.0
H528 H 0.13042 0.86605 0.06708 0.0
C529 C 0.21345 0.87972 0.10638 0.0
C530 C 0.21838 0.91091 0.09299 0.0
H531 H 0.17279 0.82137 0.11803 0.0
H532 H 0.23577 0.88416 0.11816 0.0
C533 C 0.18892 0.90431 0.07795 0.0
C534 C 0.36257 0.17848 0.91244 0.0
C535 C 0.33643 0.14732 0.92585 0.0
H536 H 0.38008 0.23681 0.90076 0.0
C537 C 0.31359 0.15397 0.9409 0.0
H538 H 0.38041 0.17398 0.90064 0.0
C539 C 0.31344 0.18935 0.94099 0.0
C540 C 0.33614 0.219 0.92603 0.0
H541 H 0.29363 0.13084 0.95169 0.0
H542 H 0.29331 0.19229 0.95178 0.0
C543 C 0.36242 0.21434 0.91252 0.0
C544 C 0.90347 0.18962 0.94105 0.0
C545 C 0.9104 0.21934 0.92614 0.0
H546 H 0.86485 0.13111 0.95172 0.0
C547 C 0.8795 0.21482 0.91265 0.0
H548 H 0.92652 0.19246 0.95183 0.0
C549 C 0.84354 0.17901 0.91255 0.0
C550 C 0.83855 0.14778 0.92593 0.0
H551 H 0.88428 0.23734 0.90093 0.0
H552 H 0.82123 0.17463 0.90078 0.0
C553 C 0.868 0.1543 0.94096 0.0
C554 C 0.8457 0.69923 0.91101 0.0
C555 C 0.8411 0.72595 0.9242 0.0
H556 H 0.88597 0.68084 0.89954 0.0
C557 C 0.87097 0.7494 0.93887 0.0
H558 H 0.82302 0.68088 0.89952 0.0
C559 C 0.90633 0.74937 0.93889 0.0
C560 C 0.91282 0.72589 0.92423 0.0
H561 H 0.86815 0.76982 0.94949 0.0
H562 H 0.92949 0.76977 0.94951 0.0
C563 C 0.8816 0.6992 0.91103 0.0
C564 C 0.81739 0.64261 0.41328 0.0
C565 C 0.8108 0.66587 0.42804 0.0
H566 H 0.85567 0.62236 0.40257 0.0
C567 C 0.84194 0.69242 0.44133 0.0
H568 H 0.7943 0.62232 0.40259 0.0
C569 C 0.87786 0.69244 0.44132 0.0
C570 C 0.88257 0.66592 0.42802 0.0
H571 H 0.83747 0.71061 0.4529 0.0
H572 H 0.90046 0.71065 0.45288 0.0
C573 C 0.85278 0.64264 0.41327 0.0
C574 C 0.36055 0.21326 0.43974 0.0
C575 C 0.3865 0.2443 0.42621 0.0
H576 H 0.34322 0.15504 0.45153 0.0
C577 C 0.40911 0.23752 0.41106 0.0
H578 H 0.34289 0.21787 0.45161 0.0
C579 C 0.40927 0.20214 0.411 0.0
C580 C 0.38679 0.17263 0.42607 0.0
H581 H 0.42892 0.26056 0.40019 0.0
H582 H 0.42927 0.19912 0.40014 0.0
C583 C 0.3607 0.1774 0.43967 0.0
C584 C 0.87972 0.21269 0.43982 0.0
C585 C 0.88482 0.24388 0.42638 0.0
H586 H 0.83886 0.15444 0.4515 0.0
C587 C 0.85543 0.23735 0.41129 0.0
H588 H 0.90197 0.2171 0.45164 0.0
C589 C 0.81992 0.20208 0.41121 0.0
C590 C 0.81289 0.17241 0.42618 0.0
H591 H 0.85867 0.26051 0.40049 0.0
H592 H 0.79692 0.19924 0.40039 0.0
C593 C 0.84372 0.17693 0.43972 0.0
C594 C 0.0295 0.51181 0.24584 0.0
C595 C 0.00354 0.48076 0.25937 0.0
H596 H 0.0468 0.57001 0.23404 0.0
C597 C 0.98089 0.48752 0.27449 0.0
H598 H 0.0472 0.50722 0.23399 0.0
C599 C 0.98068 0.52287 0.27453 0.0
C600 C 0.00316 0.55239 0.25947 0.0
H601 H 0.96106 0.46446 0.28536 0.0
H602 H 0.96064 0.52587 0.28537 0.0
C603 C 0.02931 0.54765 0.24589 0.0
C604 C 0.56996 0.52321 0.27438 0.0
C605 C 0.57705 0.55283 0.25936 0.0
H606 H 0.53117 0.46481 0.28515 0.0
C607 C 0.54625 0.54829 0.24578 0.0
H608 H 0.59293 0.52607 0.28522 0.0
C609 C 0.51024 0.51253 0.2457 0.0
C610 C 0.5051 0.48138 0.25918 0.0
H611 H 0.55116 0.57074 0.23397 0.0
H612 H 0.48803 0.5081 0.23385 0.0
C613 C 0.53443 0.48795 0.27431 0.0
C614 C 0.5123 0.03278 0.2441 0.0
C615 C 0.5076 0.05932 0.2574 0.0
H616 H 0.55267 0.01457 0.23255 0.0
C617 C 0.53736 0.08257 0.27217 0.0
H618 H 0.48971 0.0146 0.23253 0.0
C619 C 0.57274 0.08256 0.27218 0.0
C620 C 0.57933 0.05929 0.25742 0.0
H621 H 0.53448 0.10285 0.28286 0.0
H622 H 0.59582 0.10283 0.28288 0.0
C623 C 0.5482 0.03277 0.24412 0.0
C624 C 0.48342 0.97483 0.74675 0.0
C625 C 0.47693 0.99843 0.76132 0.0
H626 H 0.52167 0.95443 0.73622 0.0
C627 C 0.50818 0.0253 0.77444 0.0
H628 H 0.46024 0.95429 0.73618 0.0
C629 C 0.54413 0.02539 0.77446 0.0
C630 C 0.54876 0.99859 0.76136 0.0
H631 H 0.5038 0.04377 0.78586 0.0
H632 H 0.56684 0.04391 0.7859 0.0
C633 C 0.51884 0.97492 0.74677 0.0
C634 C 0.07595 0.53526 0.7443 0.0
C635 C 0.05341 0.50568 0.75932 0.0
H636 H 0.09558 0.5937 0.73352 0.0
C637 C 0.02718 0.51035 0.77287 0.0
H638 H 0.09604 0.53231 0.73348 0.0
C639 C 0.02696 0.54618 0.77294 0.0
C640 C 0.05297 0.57728 0.75945 0.0
H641 H 0.00965 0.48794 0.78468 0.0
H642 H 0.00919 0.5507 0.78477 0.0
C643 C 0.07572 0.5706 0.74435 0.0
C644 C 0.51063 0.51046 0.77286 0.0
C645 C 0.4797 0.50605 0.75943 0.0
H646 H 0.56899 0.55051 0.78466 0.0
C647 C 0.48665 0.53581 0.74454 0.0
H648 H 0.50583 0.4879 0.78456 0.0
C649 C 0.52219 0.57107 0.7446 0.0
C650 C 0.55168 0.57748 0.75958 0.0
H651 H 0.46359 0.53306 0.7338 0.0
H652 H 0.52537 0.59429 0.73386 0.0
C653 C 0.54665 0.54621 0.77293 0.0
C654 C 0.69621 0.84532 0.57905 0.0
C655 C 0.67027 0.81425 0.59258 0.0
H656 H 0.7135 0.90355 0.5673 0.0
C657 C 0.64764 0.82099 0.60773 0.0
H658 H 0.71388 0.84075 0.56718 0.0
C659 C 0.64746 0.85635 0.60782 0.0
C660 C 0.66992 0.8859 0.59276 0.0
H661 H 0.62784 0.79792 0.6186 0.0
H662 H 0.62745 0.85934 0.61868 0.0
C663 C 0.69603 0.88117 0.57914 0.0
C664 C 0.20112 0.82068 0.60751 0.0
C665 C 0.17169 0.81413 0.59246 0.0
H666 H 0.25966 0.85882 0.61835 0.0
C667 C 0.17674 0.8453 0.57901 0.0
H668 H 0.19792 0.79754 0.61832 0.0
C669 C 0.21273 0.88107 0.57908 0.0
C670 C 0.24361 0.88562 0.59259 0.0
H671 H 0.15444 0.84088 0.56722 0.0
H672 H 0.21755 0.90355 0.5673 0.0
C673 C 0.23663 0.85597 0.60756 0.0
C674 C 0.21499 0.36595 0.57749 0.0
C675 C 0.24612 0.39255 0.59076 0.0
H676 H 0.15643 0.3476 0.56594 0.0
C677 C 0.23949 0.4158 0.60552 0.0
H678 H 0.21948 0.34776 0.56593 0.0
C679 C 0.20407 0.41571 0.60553 0.0
C680 C 0.17428 0.39237 0.59078 0.0
H681 H 0.26258 0.43613 0.61619 0.0
H682 H 0.20115 0.43598 0.61621 0.0
C683 C 0.17903 0.36586 0.5775 0.0
C684 C 0.98787 0.34548 0.15763 0.0
C685 C 0.00789 0.32427 0.1556 0.0
H686 H 0.96443 0.37156 0.17914 0.0
C687 C 0.01897 0.31222 0.17454 0.0
H688 H 0.97897 0.35521 0.14339 0.0
C689 C 0.01081 0.32168 0.19503 0.0
C690 C 0.99124 0.34331 0.19707 0.0
H691 H 0.03448 0.29584 0.17358 0.0
H692 H 0.02015 0.31234 0.20924 0.0
C693 C 0.97958 0.35483 0.17814 0.0
C694 C 0.7435 0.73689 0.17461 0.0
C695 C 0.73181 0.71425 0.15549 0.0
H696 H 0.74348 0.73697 0.20934 0.0
C697 C 0.71116 0.67302 0.15718 0.0
H698 H 0.75949 0.76878 0.1739 0.0
C699 C 0.70199 0.65484 0.17752 0.0
C700 C 0.71329 0.67748 0.19664 0.0
H701 H 0.70173 0.65476 0.1428 0.0
H702 H 0.68572 0.62295 0.17824 0.0
C703 C 0.73435 0.71871 0.19496 0.0
C704 C 0.38496 0.07006 0.15713 0.0
C705 C 0.34383 0.04843 0.15515 0.0
H706 H 0.4345 0.09609 0.1785 0.0
C707 C 0.32078 0.0371 0.17412 0.0
H708 H 0.40355 0.07926 0.14288 0.0
C709 C 0.3385 0.04665 0.1946 0.0
C710 C 0.37967 0.06786 0.19657 0.0
H711 H 0.28895 0.02038 0.17318 0.0
H712 H 0.31997 0.03706 0.20887 0.0
C713 C 0.40266 0.07972 0.17759 0.0
C714 C 0.31275 0.02125 0.84466 0.0
C715 C 0.32447 0.00981 0.8636 0.0
H716 H 0.31195 0.02137 0.80991 0.0
C717 C 0.34395 0.9881 0.86158 0.0
H718 H 0.29767 0.03804 0.84563 0.0
C719 C 0.35195 0.97844 0.84111 0.0
C720 C 0.3408 0.99039 0.82215 0.0
H721 H 0.35333 0.97881 0.87581 0.0
H722 H 0.36739 0.96199 0.84017 0.0
C723 C 0.32089 0.01171 0.82416 0.0
C724 C 0.07627 0.40362 0.84129 0.0
C725 C 0.06483 0.38093 0.82219 0.0
H726 H 0.07609 0.40379 0.87601 0.0
C727 C 0.04446 0.3397 0.8239 0.0
H728 H 0.09205 0.43551 0.84055 0.0
C729 C 0.03532 0.32157 0.84426 0.0
C730 C 0.04637 0.34426 0.86336 0.0
H731 H 0.03523 0.32141 0.80953 0.0
H732 H 0.01927 0.28969 0.845 0.0
C733 C 0.06716 0.38549 0.86164 0.0
C734 C 0.6543 0.70329 0.84077 0.0
C735 C 0.6774 0.7146 0.82183 0.0
H736 H 0.6534 0.70328 0.87552 0.0
C737 C 0.71853 0.73621 0.82384 0.0
H738 H 0.62248 0.68658 0.8398 0.0
C739 C 0.73618 0.74589 0.84431 0.0
C740 C 0.71313 0.73406 0.86327 0.0
H741 H 0.73716 0.7454 0.80961 0.0
H742 H 0.76801 0.76226 0.84524 0.0
C743 C 0.67197 0.71285 0.86127 0.0
C744 C 0.06877 0.71279 0.86121 0.0
C745 C 0.04886 0.7341 0.86325 0.0
H746 H 0.09198 0.6865 0.83969 0.0
C747 C 0.03769 0.74608 0.84432 0.0
H748 H 0.07773 0.70311 0.87544 0.0
C749 C 0.04568 0.73647 0.82383 0.0
C750 C 0.06516 0.71476 0.82177 0.0
H751 H 0.02225 0.76253 0.84528 0.0
H752 H 0.03628 0.74577 0.80961 0.0
C753 C 0.0769 0.70329 0.8407 0.0
C754 C 0.32282 0.33976 0.82382 0.0
C755 C 0.34365 0.381 0.82214 0.0
H756 H 0.29788 0.28968 0.84488 0.0
C757 C 0.35474 0.40362 0.84127 0.0
H758 H 0.31387 0.3215 0.80944 0.0
C759 C 0.34559 0.38543 0.86161 0.0
C760 C 0.32517 0.3442 0.86329 0.0
H761 H 0.37082 0.43551 0.84056 0.0
H762 H 0.35485 0.40369 0.87599 0.0
C763 C 0.31369 0.32157 0.84417 0.0
C764 C 0.67192 0.98885 0.86167 0.0
C765 C 0.71305 0.01054 0.86366 0.0
H766 H 0.6224 0.96276 0.84029 0.0
C767 C 0.73611 0.02198 0.84471 0.0
H768 H 0.65331 0.97956 0.87592 0.0
C769 C 0.71841 0.01246 0.82422 0.0
C770 C 0.67725 0.99115 0.82224 0.0
H771 H 0.76794 0.03877 0.84566 0.0
H772 H 0.73696 0.02212 0.80996 0.0
C773 C 0.65424 0.9792 0.84121 0.0
C774 C 0.71297 0.07034 0.15721 0.0
C775 C 0.73258 0.04874 0.15522 0.0
H776 H 0.68926 0.09623 0.17859 0.0
C777 C 0.74426 0.03732 0.17417 0.0
H778 H 0.7036 0.07961 0.14297 0.0
C779 C 0.73595 0.04674 0.19466 0.0
C780 C 0.7159 0.06792 0.19665 0.0
H781 H 0.75944 0.02061 0.17322 0.0
H782 H 0.74487 0.03708 0.20892 0.0
C783 C 0.7048 0.07988 0.17768 0.0
C784 C 0.98974 0.67279 0.15716 0.0
C785 C 0.01053 0.71402 0.15548 0.0
H786 H 0.96475 0.62271 0.17822 0.0
C787 C 0.02149 0.73665 0.1746 0.0
H788 H 0.98089 0.65453 0.14278 0.0
C789 C 0.01225 0.71847 0.19494 0.0
C790 C 0.99186 0.67723 0.19663 0.0
H791 H 0.03754 0.76854 0.17389 0.0
H792 H 0.0214 0.73673 0.20933 0.0
C793 C 0.98052 0.6546 0.17751 0.0
C794 C 0.32097 0.31266 0.17448 0.0
C795 C 0.34399 0.32455 0.15551 0.0
H796 H 0.32004 0.31308 0.20918 0.0
C797 C 0.38515 0.34579 0.15749 0.0
H798 H 0.28913 0.29627 0.17356 0.0
C799 C 0.40285 0.35532 0.17797 0.0
C800 C 0.37978 0.34396 0.19693 0.0
H801 H 0.4037 0.35541 0.14323 0.0
H802 H 0.43467 0.37206 0.17893 0.0
C803 C 0.33864 0.32231 0.19494 0.0
C804 C 0.64617 0.68802 0.51135 0.0
C805 C 0.65784 0.67657 0.5303 0.0
H806 H 0.64547 0.68821 0.4766 0.0
C807 C 0.67732 0.65485 0.52829 0.0
H808 H 0.63109 0.70482 0.51232 0.0
C809 C 0.68539 0.64523 0.50783 0.0
C810 C 0.67431 0.65722 0.48886 0.0
H811 H 0.68667 0.64554 0.54253 0.0
H812 H 0.70084 0.62879 0.5069 0.0
C813 C 0.65438 0.67852 0.49086 0.0
C814 C 0.40959 0.07015 0.50792 0.0
C815 C 0.39815 0.04756 0.48878 0.0
H816 H 0.40941 0.07015 0.54264 0.0
C817 C 0.37779 0.00632 0.49044 0.0
H818 H 0.42535 0.10204 0.50723 0.0
C819 C 0.36867 0.98809 0.51077 0.0
C820 C 0.37972 0.01068 0.52991 0.0
H821 H 0.36856 0.98809 0.47605 0.0
H822 H 0.35263 0.9562 0.51146 0.0
C823 C 0.40049 0.05192 0.52825 0.0
C824 C 0.98728 0.36989 0.50753 0.0
C825 C 0.01033 0.38126 0.48857 0.0
H826 H 0.98647 0.36979 0.54228 0.0
C827 C 0.05147 0.40288 0.49055 0.0
H828 H 0.95545 0.35317 0.50659 0.0
C829 C 0.06916 0.41251 0.51101 0.0
C830 C 0.04617 0.40062 0.52998 0.0
H831 H 0.07006 0.41211 0.4763 0.0
H832 H 0.101 0.42888 0.51191 0.0
C833 C 0.005 0.3794 0.52802 0.0
C834 C 0.37152 0.41334 0.51095 0.0
C835 C 0.38261 0.40134 0.52991 0.0
H836 H 0.37022 0.41304 0.47625 0.0
C837 C 0.40255 0.38005 0.5279 0.0
H838 H 0.35606 0.42977 0.51189 0.0
C839 C 0.41075 0.37056 0.5074 0.0
C840 C 0.39907 0.38202 0.48846 0.0
H841 H 0.41147 0.37036 0.54215 0.0
H842 H 0.42584 0.35377 0.50642 0.0
C843 C 0.37958 0.40374 0.49048 0.0
C844 C 0.6469 0.98813 0.51089 0.0
C845 C 0.65837 0.01076 0.53001 0.0
H846 H 0.64702 0.98805 0.47617 0.0
C847 C 0.67873 0.052 0.52832 0.0
H848 H 0.63113 0.95624 0.51161 0.0
C849 C 0.68782 0.07018 0.50798 0.0
C850 C 0.67674 0.04754 0.48886 0.0
H851 H 0.68798 0.07026 0.54271 0.0
H852 H 0.70386 0.10207 0.50727 0.0
C853 C 0.65597 0.00631 0.49055 0.0
C854 C 0.05166 0.67863 0.49082 0.0
C855 C 0.0105 0.65742 0.48884 0.0
H856 H 0.10118 0.70484 0.51227 0.0
C857 C 0.98748 0.64553 0.5078 0.0
H858 H 0.07022 0.68824 0.47656 0.0
C859 C 0.00514 0.65515 0.52827 0.0
C860 C 0.04627 0.67676 0.53026 0.0
H861 H 0.95564 0.62916 0.50688 0.0
H862 H 0.98653 0.64592 0.5425 0.0
C863 C 0.06936 0.68812 0.51131 0.0
C864 C 0.07029 0.34673 0.01473 0.0
C865 C 0.04216 0.33052 0.03141 0.0
H866 H 0.08096 0.34898 0.98057 0.0
C867 C 0.00208 0.31254 0.02598 0.0
H868 H 0.10139 0.36044 0.01849 0.0
C869 C 0.9904 0.30511 1.00425 0.0
C870 C 0.01862 0.31655 0.98767 0.0
H871 H 0.97975 0.29933 0.03844 0.0
H872 H 0.95939 0.28664 1.00057 0.0
C873 C 0.05858 0.34017 0.99298 0.0
C874 C 0.7534 0.71206 1.00409 0.0
C875 C 0.74142 0.72834 0.98745 0.0
H876 H 0.76187 0.70972 0.03824 0.0
C877 C 0.71933 0.74636 0.99293 0.0
H878 H 0.77078 0.69831 1.0003 0.0
C879 C 0.71512 0.75377 0.01467 0.0
C880 C 0.73193 0.74226 0.03122 0.0
H881 H 0.71018 0.75963 0.9805 0.0
H882 H 0.70257 0.77228 0.01838 0.0
C883 C 0.74828 0.71859 0.02586 0.0
C884 C 0.31706 0.00176 0.9924 0.0
C885 C 0.33427 0.04212 0.98774 0.0
H886 H 0.29202 0.95745 0.01706 0.0
C887 C 0.35041 0.06931 1.00487 0.0
H888 H 0.30401 0.98012 0.97958 0.0
C889 C 0.34431 0.05628 0.0264 0.0
C890 C 0.32114 0.01593 0.03105 0.0
H891 H 0.36365 0.1006 1.00173 0.0
H892 H 0.3529 0.07794 0.03921 0.0
C893 C 0.3101 0.98873 0.01392 0.0
C894 C 0.98681 0.71189 1.00413 0.0
C895 C 0.01494 0.72812 0.98746 0.0
H896 H 0.97613 0.70958 0.0383 0.0
C897 C 0.05502 0.74608 0.99289 0.0
H898 H 0.95571 0.69818 1.00038 0.0
C899 C 0.0667 0.75349 0.01462 0.0
C900 C 0.03847 0.74202 0.0312 0.0
H901 H 0.07735 0.75932 0.98043 0.0
H902 H 0.0977 0.77195 0.0183 0.0
C903 C -0.00148 0.71841 0.02589 0.0
C904 C 0.3376 0.31225 0.02588 0.0
C905 C 0.31552 0.3303 0.03133 0.0
H906 H 0.35436 0.28627 1.00046 0.0
C907 C 0.30355 0.34653 0.01466 0.0
H908 H 0.34675 0.299 0.03833 0.0
C909 C 0.30867 0.33994 0.9929 0.0
C910 C 0.32501 0.31626 0.98758 0.0
H911 H 0.28618 0.3603 0.01843 0.0
H912 H 0.29509 0.34879 0.9805 0.0
C913 C 0.34182 0.30478 1.00415 0.0
C914 C 0.74677 0.06984 1.00494 0.0
C915 C 0.73575 0.04266 0.98781 0.0
H916 H 0.75297 0.07847 0.03927 0.0
C917 C 0.71269 0.00229 0.99246 0.0
H918 H 0.76476 0.10113 1.00179 0.0
C919 C 0.70671 0.98926 0.01398 0.0
C920 C 0.72284 0.01645 0.03111 0.0
H921 H 0.70412 0.98065 0.97964 0.0
H922 H 0.69356 0.95797 0.01712 0.0
C923 C 0.73991 0.05681 0.02646 0.0
C924 C 0.65713 0.63807 0.33749 0.0
C925 C 0.68539 0.64946 0.32094 0.0
H926 H 0.64636 0.63222 0.37167 0.0
C927 C 0.72534 0.67294 0.32629 0.0
H928 H 0.62612 0.61971 0.33378 0.0
C929 C 0.73699 0.67941 0.34805 0.0
C930 C 0.7088 0.66325 0.36471 0.0
H931 H 0.74775 0.68172 0.31389 0.0
H932 H 0.76807 0.69302 0.35183 0.0
C933 C 0.66875 0.64542 0.35924 0.0
C934 C 0.415 0.05228 0.35915 0.0
C935 C 0.39852 0.07583 0.36449 0.0
H936 H 0.43767 0.03214 0.33361 0.0
C937 C 0.38169 0.0873 0.34793 0.0
H938 H 0.42861 0.04346 0.37155 0.0
C939 C 0.386 0.07995 0.32619 0.0
C940 C 0.40819 0.06203 0.32072 0.0
H941 H 0.36905 0.10572 0.35164 0.0
H942 H 0.37682 0.09319 0.31376 0.0
C943 C 0.4202 0.04581 0.33738 0.0
C944 C 0.97673 0.32173 0.34733 0.0
C945 C 0.9878 0.34887 0.36448 0.0
H946 H 0.97065 0.31323 0.31298 0.0
C947 C 0.01107 0.38923 0.35987 0.0
H948 H 0.95861 0.29044 0.35044 0.0
C949 C 0.0172 0.40234 0.33836 0.0
C950 C 0.00102 0.37522 0.32121 0.0
H951 H 0.01969 0.41085 0.37272 0.0
H952 H 0.03051 0.43365 0.33526 0.0
C953 C 0.98374 0.33483 0.32582 0.0
C954 C 0.66473 0.05214 0.35922 0.0
C955 C 0.70468 0.07564 0.36457 0.0
H956 H 0.62201 0.03203 0.33367 0.0
C957 C 0.73295 0.08706 0.34801 0.0
H958 H 0.64233 0.04335 0.37161 0.0
C959 C 0.72133 0.07971 0.32627 0.0
C960 C 0.68129 0.06184 0.3208 0.0
H961 H 0.76395 0.10545 0.35173 0.0
H962 H 0.74372 0.09291 0.31384 0.0
C963 C 0.65309 0.04566 0.33745 0.0
C964 C 0.96995 0.67949 0.34802 0.0
C965 C 0.98201 0.66331 0.36468 0.0
H966 H 0.96143 0.68173 0.31387 0.0
C967 C 0.00419 0.64538 0.35922 0.0
H968 H 0.9525 0.69317 0.3518 0.0
C969 C 0.00843 0.63796 0.33748 0.0
C970 C 0.99153 0.64936 0.32092 0.0
H971 H 0.01341 0.63219 0.37166 0.0
H972 H 0.02105 0.61952 0.33378 0.0
C973 C 0.97508 0.67294 0.32626 0.0
C974 C 0.37298 0.3227 0.34717 0.0
C975 C 0.38912 0.34982 0.36433 0.0
H976 H 0.37049 0.3142 0.31282 0.0
C977 C 0.40632 0.39021 0.35972 0.0
H978 H 0.35973 0.2914 0.35028 0.0
C979 C 0.41328 0.40331 0.33821 0.0
C980 C 0.40225 0.37618 0.32105 0.0
H981 H 0.41936 0.4118 0.37257 0.0
H982 H 0.43134 0.43461 0.33511 0.0
C983 C 0.37907 0.33581 0.32566 0.0
C984 C 0.40331 0.01241 0.68133 0.0
C985 C 0.3751 0.99622 0.69797 0.0
H986 H 0.41413 0.01474 0.64718 0.0
C987 C 0.33506 0.97835 0.69248 0.0
H988 H 0.43439 0.02604 0.68512 0.0
C989 C 0.32346 0.971 0.67073 0.0
C990 C 0.35176 0.98244 0.65419 0.0
H991 H 0.31266 0.96514 0.70491 0.0
H992 H 0.29247 0.95262 0.66701 0.0
C993 C 0.3917 0.00595 0.65955 0.0
C994 C 0.04811 0.41996 0.6813 0.0
C995 C 0.06502 0.4086 0.69787 0.0
H996 H 0.04316 0.42574 0.64712 0.0
C997 C 0.08155 0.38509 0.69255 0.0
H998 H 0.03542 0.43835 0.68499 0.0
C999 C 0.08674 0.37857 0.67079 0.0
C1000 C 0.07466 0.39471 0.65412 0.0
H1001 H 0.09521 0.37633 0.70495 0.0
H1002 H 0.10425 0.36495 0.66702 0.0
C1003 C 0.0524 0.41256 0.65957 0.0
C1004 C 0.64376 0.65528 0.68054 0.0
C1005 C 0.65485 0.68243 0.69769 0.0
H1006 H 0.63756 0.64677 0.64619 0.0
C1007 C 0.67802 0.72279 0.69307 0.0
H1008 H 0.6257 0.62399 0.68366 0.0
C1009 C 0.68405 0.73589 0.67156 0.0
C1010 C 0.66785 0.70876 0.65441 0.0
H1011 H 0.68665 0.74441 0.70592 0.0
H1012 H 0.69728 0.7672 0.66845 0.0
C1013 C 0.65066 0.66838 0.65902 0.0
C1014 C 0.33169 0.38555 0.6925 0.0
C1015 C 0.37162 0.40915 0.69785 0.0
H1016 H 0.28896 0.36534 0.66696 0.0
C1017 C 0.3999 0.42064 0.6813 0.0
H1018 H 0.30927 0.37671 0.7049 0.0
C1019 C 0.38829 0.41325 0.65956 0.0
C1020 C 0.34823 0.39529 0.65408 0.0
H1021 H 0.43089 0.43909 0.68501 0.0
H1022 H 0.41067 0.42651 0.64712 0.0
C1023 C 0.32004 0.37904 0.67074 0.0
C1024 C 0.67093 0.97893 0.6926 0.0
C1025 C 0.64866 0.99678 0.69807 0.0
H1026 H 0.6879 0.95317 0.66717 0.0
C1027 C 0.63653 0.01289 0.68141 0.0
H1028 H 0.68019 0.96579 0.70505 0.0
C1029 C 0.6417 0.00637 0.65965 0.0
C1030 C 0.65826 0.98289 0.65431 0.0
H1031 H 0.61901 0.02649 0.68519 0.0
H1032 H 0.62801 0.01511 0.64725 0.0
C1033 C 0.6752 0.97154 0.67087 0.0
C1034 C 0.07253 0.72312 0.69302 0.0
C1035 C 0.05525 0.68272 0.69762 0.0
H1036 H 0.09771 0.76753 0.66842 0.0
C1037 C 0.03912 0.65562 0.68046 0.0
H1038 H 0.08558 0.74469 0.70587 0.0
C1039 C 0.0453 0.66874 0.65895 0.0
C1040 C 0.06856 0.70911 0.65436 0.0
H1041 H 0.02582 0.6243 0.68356 0.0
H1042 H 0.03672 0.64713 0.64611 0.0
C1043 C 0.07958 0.73624 0.67152 0.0
C1044 C 0.87801 0.14105 0.10449 0.0
C1045 C 0.86815 0.11519 0.08677 0.0
H1046 H 0.9221 0.19561 0.11886 0.0
C1047 C 0.89338 0.12688 0.06879 0.0
H1048 H 0.8589 0.13281 0.11851 0.0
C1049 C 0.92884 0.16213 0.06899 0.0
C1050 C 0.9403 0.1869 0.08717 0.0
H1051 H 0.8862 0.10818 0.05463 0.0
H1052 H 0.9479 0.1695 0.05499 0.0
C1053 C 0.91402 0.17686 0.10469 0.0
C1054 C 0.91267 0.76107 0.09885 0.0
C1055 C 0.94862 0.79689 0.09835 0.0
H1056 H 0.84944 0.73326 0.09803 0.0
C1057 C 0.94803 0.8324 0.09953 0.0
H1058 H 0.91225 0.73323 0.09802 0.0
C1059 C 0.91258 0.83242 0.09954 0.0
C1060 C 0.87658 0.79693 0.09836 0.0
H1061 H 0.97517 0.8605 0.09966 0.0
H1062 H 0.91348 0.86053 0.09966 0.0
C1063 C 0.87678 0.76109 0.09886 0.0
C1064 C 0.29068 0.1408 0.10447 0.0
C1065 C 0.27465 0.11492 0.08676 0.0
H1066 H 0.30117 0.19543 0.11884 0.0
C1067 C 0.2611 0.12666 0.0688 0.0
H1068 H 0.30156 0.13252 0.11847 0.0
C1069 C 0.26089 0.16198 0.069 0.0
C1070 C 0.27423 0.18676 0.08717 0.0
H1071 H 0.24956 0.10795 0.05464 0.0
H1072 H 0.24919 0.16938 0.055 0.0
C1073 C 0.29047 0.17667 0.10468 0.0
C1074 C 0.17918 0.9176 0.91431 0.0
C1075 C 0.18913 0.94337 0.93209 0.0
H1076 H 0.135 0.86312 0.89991 0.0
C1077 C 0.16404 0.93157 0.95012 0.0
H1078 H 0.19818 0.92594 0.90025 0.0
C1079 C 0.12858 0.8963 0.94993 0.0
C1080 C 0.11702 0.87165 0.9317 0.0
H1081 H 0.17131 0.9502 0.96431 0.0
H1082 H 0.10961 0.88885 0.96398 0.0
C1083 C 0.14317 0.88179 0.91412 0.0
C1084 C 0.14435 0.22586 0.91941 0.0
C1085 C 0.18036 0.26136 0.92047 0.0
H1086 H 0.08176 0.19778 0.91941 0.0
C1087 C 0.18015 0.2972 0.91988 0.0
H1088 H 0.14345 0.19774 0.91936 0.0
C1089 C 0.14426 0.29722 0.91991 0.0
C1090 C 0.10832 0.2614 0.92053 0.0
H1091 H 0.2075 0.32503 0.92062 0.0
H1092 H 0.14469 0.32507 0.92067 0.0
C1093 C 0.10889 0.22588 0.91944 0.0
C1094 C 0.79529 0.89642 0.9499 0.0
C1095 C 0.78233 0.87183 0.93164 0.0
H1096 H 0.80636 0.95033 0.96431 0.0
C1097 C 0.76641 0.88207 0.91405 0.0
H1098 H 0.80675 0.88889 0.96396 0.0
C1099 C 0.76619 0.91793 0.91425 0.0
C1100 C 0.78189 0.94365 0.93205 0.0
H1101 H 0.75601 0.86345 0.89982 0.0
H1102 H 0.7556 0.92635 0.90018 0.0
C1103 C 0.79508 0.93173 0.95009 0.0
C1104 C 0.54429 0.47392 0.43769 0.0
C1105 C 0.53457 0.44791 0.42005 0.0
H1106 H 0.58828 0.52857 0.45203 0.0
C1107 C 0.56001 0.45942 0.40217 0.0
H1108 H 0.52503 0.46583 0.45163 0.0
C1109 C 0.59551 0.49464 0.40239 0.0
C1110 C 0.60679 0.51956 0.4205 0.0
H1111 H 0.55295 0.44062 0.38806 0.0
H1112 H 0.6147 0.50187 0.38845 0.0
C1113 C 0.58035 0.50969 0.43792 0.0
C1114 C 0.61446 0.16631 0.43267 0.0
C1115 C 0.61504 0.13078 0.43169 0.0
H1116 H 0.57989 0.19444 0.43265 0.0
C1117 C 0.5791 0.09497 0.43236 0.0
H1118 H 0.64159 0.19441 0.43265 0.0
C1119 C 0.54321 0.09498 0.43236 0.0
C1120 C 0.54298 0.13081 0.43169 0.0
H1121 H 0.57867 0.06711 0.43169 0.0
H1122 H 0.51586 0.06714 0.43168 0.0
C1123 C 0.57899 0.16632 0.43267 0.0
C1124 C 0.9573 0.47377 0.43784 0.0
C1125 C 0.94136 0.44792 0.42011 0.0
H1126 H 0.96769 0.52836 0.45221 0.0
C1127 C 0.9279 0.45969 0.40212 0.0
H1128 H 0.96811 0.46547 0.45186 0.0
C1129 C 0.92767 0.495 0.40231 0.0
C1130 C 0.9409 0.51974 0.4205 0.0
H1131 H 0.91643 0.441 0.38795 0.0
H1132 H 0.91602 0.50242 0.3883 0.0
C1133 C 0.95708 0.50963 0.43803 0.0
C1134 C 0.80979 0.21539 0.24758 0.0
C1135 C 0.78338 0.20547 0.26503 0.0
H1136 H 0.86507 0.2593 0.23386 0.0
C1137 C 0.79473 0.23032 0.28317 0.0
H1138 H 0.80181 0.19657 0.23345 0.0
C1139 C 0.83023 0.26553 0.2834 0.0
C1140 C 0.85562 0.2771 0.2655 0.0
H1141 H 0.77556 0.22304 0.29712 0.0
H1142 H 0.83733 0.28428 0.29754 0.0
C1143 C 0.84585 0.25116 0.24782 0.0
C1144 C 0.84666 0.62992 0.25306 0.0
C1145 C 0.84689 0.5941 0.25381 0.0
H1146 H 0.8112 0.65779 0.25368 0.0
C1147 C 0.81087 0.55858 0.2529 0.0
H1148 H 0.87401 0.65777 0.25367 0.0
C1149 C 0.77541 0.55859 0.25291 0.0
C1150 C 0.77482 0.59413 0.25382 0.0
H1151 H 0.80997 0.53047 0.25298 0.0
H1152 H 0.74828 0.53049 0.25299 0.0
C1153 C 0.81077 0.62994 0.25306 0.0
C1154 C 0.46259 0.26574 0.28326 0.0
C1155 C 0.44897 0.27745 0.26532 0.0
H1156 H 0.47459 0.22306 0.29703 0.0
C1157 C 0.43291 0.25156 0.24761 0.0
H1158 H 0.47415 0.28445 0.29741 0.0
C1159 C 0.43316 0.21571 0.2474 0.0
C1160 C 0.44947 0.20565 0.26488 0.0
H1161 H 0.42198 0.25981 0.23362 0.0
H1162 H 0.42244 0.19693 0.23324 0.0
C1163 C 0.46284 0.23044 0.28305 0.0
C1164 C 0.24647 0.84267 0.77127 0.0
C1165 C 0.27269 0.85276 0.75373 0.0
H1166 H 0.19135 0.79861 0.78508 0.0
C1167 C 0.26116 0.8281 0.7355 0.0
H1168 H 0.25461 0.86135 0.78547 0.0
C1169 C 0.22567 0.79288 0.73528 0.0
C1170 C 0.20049 0.78112 0.75328 0.0
H1171 H 0.28019 0.83552 0.72148 0.0
H1172 H 0.21842 0.77424 0.72109 0.0
C1173 C 0.21042 0.8069 0.77105 0.0
C1174 C 0.24583 0.42818 0.76566 0.0
C1175 C 0.28175 0.46403 0.765 0.0
H1176 H 0.18259 0.40028 0.76496 0.0
C1177 C 0.2811 0.49952 0.76601 0.0
H1178 H 0.24545 0.40035 0.76496 0.0
C1179 C 0.24561 0.49948 0.76602 0.0
C1180 C 0.20963 0.46394 0.76501 0.0
H1181 H 0.30821 0.52765 0.76601 0.0
H1182 H 0.24647 0.52757 0.76602 0.0
C1183 C 0.20991 0.42814 0.76566 0.0
C1184 C 0.59636 0.79392 0.73523 0.0
C1185 C 0.60914 0.78179 0.75337 0.0
H1186 H 0.58493 0.8369 0.72133 0.0
C1187 C 0.62445 0.8073 0.77127 0.0
H1188 H 0.58539 0.77548 0.72095 0.0
C1189 C 0.62419 0.84314 0.77149 0.0
C1190 C 0.60861 0.85355 0.75381 0.0
H1191 H 0.63472 0.7987 0.78541 0.0
H1192 H 0.63423 0.86156 0.7858 0.0
C1193 C 0.59611 0.82921 0.73545 0.0
C1194 C 0.49693 0.59908 0.61662 0.0
C1195 C 0.52234 0.6106 0.59873 0.0
H1196 H 0.44226 0.55661 0.63035 0.0
C1197 C 0.5126 0.58461 0.58107 0.0
H1198 H 0.50401 0.61786 0.63074 0.0
C1199 C 0.47655 0.54884 0.58085 0.0
C1200 C 0.45012 0.53895 0.59828 0.0
H1201 H 0.53185 0.59272 0.56712 0.0
H1202 H 0.46859 0.52998 0.56673 0.0
C1203 C 0.46143 0.56386 0.6164 0.0
C1204 C 0.47746 0.96334 0.58643 0.0
C1205 C 0.44154 0.92751 0.58709 0.0
H1206 H 0.5407 0.99125 0.58714 0.0
C1207 C 0.44218 0.892 0.58613 0.0
H1208 H 0.47784 0.99118 0.58709 0.0
C1209 C 0.47767 0.89204 0.58616 0.0
C1210 C 0.51365 0.92759 0.58715 0.0
H1211 H 0.41507 0.86388 0.58614 0.0
H1212 H 0.47681 0.86395 0.58619 0.0
C1213 C 0.51338 0.96339 0.58646 0.0
C1214 C 0.09924 0.58427 0.58102 0.0
C1215 C 0.11512 0.61008 0.59877 0.0
H1216 H 0.08894 0.52973 0.56662 0.0
C1217 C 0.12853 0.59827 0.61677 0.0
H1218 H 0.08848 0.5926 0.56699 0.0
C1219 C 0.12877 0.56298 0.61656 0.0
C1220 C 0.11562 0.53828 0.59835 0.0
H1221 H 0.13994 0.61693 0.63095 0.0
H1222 H 0.14038 0.55553 0.63059 0.0
C1223 C 0.09949 0.54842 0.58081 0.0
loop_
_geom_bond_atom_site_label_1
_geom_bond_atom_site_label_2
_geom_bond_distance
_geom_bond_site_symmetry_2
_ccdc_geom_bond_type
Co0 O1 2.216 . S
Co0 O2 2.091 . S
Co0 O4 2.004 . S
Co0 O10 2.021 1_455 S
Co0 O12 2.137 . S
Co0 O13 2.244 . S
O1 Co0 2.216 . S
O1 C8 1.247 . S
O2 Co0 2.091 . S
O2 C8 1.261 . S
C3 O12 1.247 . S
C3 O13 1.272 . S
O4 Co0 2.004 . S
O4 C9 1.259 . S
Co5 O6 2.061 . S
Co5 O11 2.052 1_455 S
Co5 O13 2.135 . S
O6 Co5 2.061 . S
O6 C9 1.235 . S
C7 O10 1.238 . S
C7 O11 1.241 . S
C8 O1 1.247 . S
C8 O2 1.261 . S
C9 O4 1.259 . S
C9 O6 1.235 . S
O10 Co0 2.021 1_655 S
O10 C7 1.238 . S
O11 Co5 2.052 1_655 S
O11 C7 1.241 . S
O12 Co0 2.137 . S
O12 C3 1.247 . S
O13 Co0 2.244 . S
O13 C3 1.272 . S
O13 Co5 2.135 . S
Co14 O15 2.216 . S
Co14 O16 2.091 . S
Co14 O18 2.004 . S
Co14 O24 2.021 . S
Co14 O26 2.137 . S
Co14 O27 2.244 . S
O15 Co14 2.216 . S
O15 C22 1.247 . S
O16 Co14 2.091 . S
O16 C22 1.261 . S
C17 O26 1.247 . S
C17 O27 1.272 . S
O18 Co14 2.004 . S
O18 C23 1.259 . S
Co19 O20 2.061 . S
Co19 O25 2.052 . S
Co19 O27 2.135 . S
O20 Co19 2.061 . S
O20 C23 1.235 . S
C21 O24 1.238 . S
C21 O25 1.241 . S
C22 O15 1.247 . S
C22 O16 1.261 . S
C23 O18 1.259 . S
C23 O20 1.235 . S
O24 Co14 2.021 . S
O24 C21 1.238 . S
O25 Co19 2.052 . S
O25 C21 1.241 . S
O26 Co14 2.137 . S
O26 C17 1.247 . S
O27 Co14 2.244 . S
O27 C17 1.272 . S
O27 Co19 2.135 . S
Co28 O29 2.216 . S
Co28 O30 2.091 . S
Co28 O32 2.004 . S
Co28 O38 2.021 . S
Co28 O40 2.137 1_545 S
Co28 O41 2.244 1_545 S
O29 Co28 2.216 . S
O29 C36 1.247 . S
O30 Co28 2.091 . S
O30 C36 1.261 . S
C31 O40 1.247 . S
C31 O41 1.272 . S
O32 Co28 2.004 . S
O32 C37 1.259 . S
Co33 O34 2.061 . S
Co33 O39 2.052 . S
Co33 O41 2.135 1_545 S
O34 Co33 2.061 . S
O34 C37 1.235 . S
C35 O38 1.238 . S
C35 O39 1.241 . S
C36 O29 1.247 . S
C36 O30 1.261 . S
C37 O32 1.259 . S
C37 O34 1.235 . S
O38 Co28 2.021 . S
O38 C35 1.238 . S
O39 Co33 2.052 . S
O39 C35 1.241 . S
O40 Co28 2.137 1_565 S
O40 C31 1.247 . S
O41 Co28 2.244 1_565 S
O41 C31 1.272 . S
O41 Co33 2.135 1_565 S
Co42 O43 2.216 . S
Co42 O44 2.091 . S
Co42 O46 2.004 . S
Co42 O52 2.021 1_545 S
Co42 O54 2.137 . S
Co42 O55 2.244 . S
O43 Co42 2.216 . S
O43 C50 1.247 . S
O44 Co42 2.091 . S
O44 C50 1.261 . S
C45 O54 1.247 . S
C45 O55 1.272 . S
O46 Co42 2.004 . S
O46 C51 1.259 . S
Co47 O48 2.061 . S
Co47 O53 2.052 1_545 S
Co47 O55 2.135 . S
O48 Co47 2.061 . S
O48 C51 1.235 . S
C49 O52 1.238 . S
C49 O53 1.241 . S
C50 O43 1.247 . S
C50 O44 1.261 . S
C51 O46 1.259 . S
C51 O48 1.235 . S
O52 Co42 2.021 1_565 S
O52 C49 1.238 . S
O53 Co47 2.052 1_565 S
O53 C49 1.241 . S
O54 Co42 2.137 . S
O54 C45 1.247 . S
O55 Co42 2.244 . S
O55 C45 1.272 . S
O55 Co47 2.135 . S
Co56 O57 2.216 . S
Co56 O58 2.091 . S
Co56 O60 2.004 . S
Co56 O66 2.021 . S
Co56 O68 2.137 1_455 S
Co56 O69 2.244 1_455 S
O57 Co56 2.216 . S
O57 C64 1.247 . S
O58 Co56 2.091 . S
O58 C64 1.261 . S
C59 O68 1.247 . S
C59 O69 1.272 . S
O60 Co56 2.004 . S
O60 C65 1.259 . S
Co61 O62 2.061 . S
Co61 O67 2.052 . S
Co61 O69 2.135 1_455 S
O62 Co61 2.061 . S
O62 C65 1.235 . S
C63 O66 1.238 . S
C63 O67 1.241 . S
C64 O57 1.247 . S
C64 O58 1.261 . S
C65 O60 1.259 . S
C65 O62 1.235 . S
O66 Co56 2.021 . S
O66 C63 1.238 . S
O67 Co61 2.052 . S
O67 C63 1.241 . S
O68 Co56 2.137 1_655 S
O68 C59 1.247 . S
O69 Co56 2.244 1_655 S
O69 C59 1.272 . S
O69 Co61 2.135 1_655 S
Co70 O71 2.216 . S
Co70 O72 2.091 . S
Co70 O74 2.004 . S
Co70 O80 2.021 . S
Co70 O82 2.137 . S
Co70 O83 2.244 . S
O71 Co70 2.216 . S
O71 C78 1.247 . S
O72 Co70 2.091 . S
O72 C78 1.261 . S
C73 O82 1.247 . S
C73 O83 1.272 . S
O74 Co70 2.004 . S
O74 C79 1.259 . S
Co75 O76 2.061 . S
Co75 O81 2.052 . S
Co75 O83 2.135 . S
O76 Co75 2.061 . S
O76 C79 1.235 . S
C77 O80 1.238 . S
C77 O81 1.241 . S
C78 O71 1.247 . S
C78 O72 1.261 . S
C79 O74 1.259 . S
C79 O76 1.235 . S
O80 Co70 2.021 . S
O80 C77 1.238 . S
O81 Co75 2.052 . S
O81 C77 1.241 . S
O82 Co70 2.137 . S
O82 C73 1.247 . S
O83 Co70 2.244 . S
O83 C73 1.272 . S
O83 Co75 2.135 . S
Co84 O85 2.216 . S
Co84 O86 2.091 . S
Co84 O88 2.004 . S
Co84 O94 2.021 . S
Co84 O96 2.137 1_455 S
Co84 O97 2.244 1_455 S
O85 Co84 2.216 . S
O85 C92 1.247 . S
O86 Co84 2.091 . S
O86 C92 1.261 . S
C87 O96 1.247 . S
C87 O97 1.272 . S
O88 Co84 2.004 . S
O88 C93 1.259 . S
Co89 O90 2.061 . S
Co89 O95 2.052 . S
Co89 O97 2.135 1_455 S
O90 Co89 2.061 . S
O90 C93 1.235 . S
C91 O94 1.238 . S
C91 O95 1.241 . S
C92 O85 1.247 . S
C92 O86 1.261 . S
C93 O88 1.259 . S
C93 O90 1.235 . S
O94 Co84 2.021 . S
O94 C91 1.238 . S
O95 Co89 2.052 . S
O95 C91 1.241 . S
O96 Co84 2.137 1_655 S
O96 C87 1.247 . S
O97 Co84 2.244 1_655 S
O97 C87 1.272 . S
O97 Co89 2.135 1_655 S
Co98 O99 2.216 . S
Co98 O100 2.091 . S
Co98 O102 2.004 . S
Co98 O108 2.021 . S
Co98 O110 2.137 . S
Co98 O111 2.244 . S
O99 Co98 2.216 . S
O99 C106 1.247 . S
O100 Co98 2.091 . S
O100 C106 1.261 . S
C101 O110 1.247 . S
C101 O111 1.272 . S
O102 Co98 2.004 . S
O102 C107 1.259 . S
Co103 O104 2.061 . S
Co103 O109 2.052 . S
Co103 O111 2.135 . S
O104 Co103 2.061 . S
O104 C107 1.235 . S
C105 O108 1.238 . S
C105 O109 1.241 . S
C106 O99 1.247 . S
C106 O100 1.261 . S
C107 O102 1.259 . S
C107 O104 1.235 . S
O108 Co98 2.021 . S
O108 C105 1.238 . S
O109 Co103 2.052 . S
O109 C105 1.241 . S
O110 Co98 2.137 . S
O110 C101 1.247 . S
O111 Co98 2.244 . S
O111 C101 1.272 . S
O111 Co103 2.135 . S
Co112 O113 2.216 . S
Co112 O114 2.091 . S
Co112 O116 2.004 . S
Co112 O122 2.021 1_545 S
Co112 O124 2.137 . S
Co112 O125 2.244 . S
O113 Co112 2.216 . S
O113 C120 1.247 . S
O114 Co112 2.091 . S
O114 C120 1.261 . S
C115 O124 1.247 . S
C115 O125 1.272 . S
O116 Co112 2.004 . S
O116 C121 1.259 . S
Co117 O118 2.061 . S
Co117 O123 2.052 1_545 S
Co117 O125 2.135 . S
O118 Co117 2.061 . S
O118 C121 1.235 . S
C119 O122 1.238 . S
C119 O123 1.241 . S
C120 O113 1.247 . S
C120 O114 1.261 . S
C121 O116 1.259 . S
C121 O118 1.235 . S
O122 Co112 2.021 1_565 S
O122 C119 1.238 . S
O123 Co117 2.052 1_565 S
O123 C119 1.241 . S
O124 Co112 2.137 . S
O124 C115 1.247 . S
O125 Co112 2.244 . S
O125 C115 1.272 . S
O125 Co117 2.135 . S
Co126 O127 2.216 . S
Co126 O128 2.091 . S
Co126 O130 2.004 . S
Co126 O136 2.021 . S
Co126 O138 2.137 1_545 S
Co126 O139 2.244 1_545 S
O127 Co126 2.216 . S
O127 C134 1.247 . S
O128 Co126 2.091 . S
O128 C134 1.261 . S
C129 O138 1.247 . S
C129 O139 1.272 . S
O130 Co126 2.004 . S
O130 C135 1.259 . S
Co131 O132 2.061 . S
Co131 O137 2.052 . S
Co131 O139 2.135 1_545 S
O132 Co131 2.061 . S
O132 C135 1.235 . S
C133 O136 1.238 . S
C133 O137 1.241 . S
C134 O127 1.247 . S
C134 O128 1.261 . S
C135 O130 1.259 . S
C135 O132 1.235 . S
O136 Co126 2.021 . S
O136 C133 1.238 . S
O137 Co131 2.052 . S
O137 C133 1.241 . S
O138 Co126 2.137 1_565 S
O138 C129 1.247 . S
O139 Co126 2.244 1_565 S
O139 C129 1.272 . S
O139 Co131 2.135 1_565 S
Co140 O141 2.216 . S
Co140 O142 2.091 . S
Co140 O144 2.004 . S
Co140 O150 2.021 1_455 S
Co140 O152 2.137 . S
Co140 O153 2.244 . S
O141 Co140 2.216 . S
O141 C148 1.247 . S
O142 Co140 2.091 . S
O142 C148 1.261 . S
C143 O152 1.247 . S
C143 O153 1.272 . S
O144 Co140 2.004 . S
O144 C149 1.259 . S
Co145 O146 2.061 . S
Co145 O151 2.052 1_455 S
Co145 O153 2.135 . S
O146 Co145 2.061 . S
O146 C149 1.235 . S
C147 O150 1.238 . S
C147 O151 1.241 . S
C148 O141 1.247 . S
C148 O142 1.261 . S
C149 O144 1.259 . S
C149 O146 1.235 . S
O150 Co140 2.021 1_655 S
O150 C147 1.238 . S
O151 Co145 2.052 1_655 S
O151 C147 1.241 . S
O152 Co140 2.137 . S
O152 C143 1.247 . S
O153 Co140 2.244 . S
O153 C143 1.272 . S
O153 Co145 2.135 . S
Co154 O155 2.216 . S
Co154 O156 2.091 . S
Co154 O158 2.004 . S
Co154 O164 2.021 . S
Co154 O166 2.137 . S
Co154 O167 2.244 . S
O155 Co154 2.216 . S
O155 C162 1.247 . S
O156 Co154 2.091 . S
O156 C162 1.261 . S
C157 O166 1.247 . S
C157 O167 1.272 . S
O158 Co154 2.004 . S
O158 C163 1.259 . S
Co159 O160 2.061 . S
Co159 O165 2.052 . S
Co159 O167 2.135 . S
O160 Co159 2.061 . S
O160 C163 1.235 . S
C161 O164 1.238 . S
C161 O165 1.241 . S
C162 O155 1.247 . S
C162 O156 1.261 . S
C163 O158 1.259 . S
C163 O160 1.235 . S
O164 Co154 2.021 . S
O164 C161 1.238 . S
O165 Co159 2.052 . S
O165 C161 1.241 . S
O166 Co154 2.137 . S
O166 C157 1.247 . S
O167 Co154 2.244 . S
O167 C157 1.272 . S
O167 Co159 2.135 . S
Co168 O169 2.216 . S
Co168 O170 2.091 . S
Co168 O172 2.004 . S
Co168 O178 2.021 . S
Co168 O180 2.137 . S
Co168 O181 2.244 . S
O169 Co168 2.216 . S
O169 C176 1.247 . S
O170 Co168 2.091 . S
O170 C176 1.261 . S
C171 O180 1.247 . S
C171 O181 1.272 . S
O172 Co168 2.004 . S
O172 C177 1.259 . S
Co173 O174 2.061 . S
Co173 O179 2.052 . S
Co173 O181 2.135 . S
O174 Co173 2.061 . S
O174 C177 1.235 . S
C175 O178 1.238 . S
C175 O179 1.241 . S
C176 O169 1.247 . S
C176 O170 1.261 . S
C177 O172 1.259 . S
C177 O174 1.235 . S
O178 Co168 2.021 . S
O178 C175 1.238 . S
O179 Co173 2.052 . S
O179 C175 1.241 . S
O180 Co168 2.137 . S
O180 C171 1.247 . S
O181 Co168 2.244 . S
O181 C171 1.272 . S
O181 Co173 2.135 . S
Co182 O183 2.216 . S
Co182 O184 2.091 . S
Co182 O186 2.004 . S
Co182 O192 2.021 . S
Co182 O194 2.137 . S
Co182 O195 2.244 . S
O183 Co182 2.216 . S
O183 C190 1.247 . S
O184 Co182 2.091 . S
O184 C190 1.261 . S
C185 O194 1.247 . S
C185 O195 1.272 . S
O186 Co182 2.004 . S
O186 C191 1.259 . S
Co187 O188 2.061 . S
Co187 O193 2.052 . S
Co187 O195 2.135 . S
O188 Co187 2.061 . S
O188 C191 1.235 . S
C189 O192 1.238 . S
C189 O193 1.241 . S
C190 O183 1.247 . S
C190 O184 1.261 . S
C191 O186 1.259 . S
C191 O188 1.235 . S
O192 Co182 2.021 . S
O192 C189 1.238 . S
O193 Co187 2.052 . S
O193 C189 1.241 . S
O194 Co182 2.137 . S
O194 C185 1.247 . S
O195 Co182 2.244 . S
O195 C185 1.272 . S
O195 Co187 2.135 . S
Co196 O197 2.216 . S
Co196 O198 2.091 1_655 S
Co196 O200 2.004 1_655 S
Co196 O206 2.021 . S
Co196 O208 2.137 . S
Co196 O209 2.244 . S
O197 Co196 2.216 . S
O197 C204 1.247 1_655 S
O198 Co196 2.091 1_455 S
O198 C204 1.261 . S
C199 O208 1.247 . S
C199 O209 1.272 . S
O200 Co196 2.004 1_455 S
O200 C205 1.259 1_455 S
Co201 O202 2.061 . S
Co201 O207 2.052 . S
Co201 O209 2.135 . S
O202 Co201 2.061 . S
O202 C205 1.235 . S
C203 O206 1.238 . S
C203 O207 1.241 . S
C204 O197 1.247 1_455 S
C204 O198 1.261 . S
C205 O200 1.259 1_655 S
C205 O202 1.235 . S
O206 Co196 2.021 . S
O206 C203 1.238 . S
O207 Co201 2.052 . S
O207 C203 1.241 . S
O208 Co196 2.137 . S
O208 C199 1.247 . S
O209 Co196 2.244 . S
O209 C199 1.272 . S
O209 Co201 2.135 . S
Co210 O211 2.216 . S
Co210 O212 2.091 1_655 S
Co210 O214 2.004 1_655 S
Co210 O220 2.021 . S
Co210 O222 2.137 1_655 S
Co210 O223 2.244 . S
O211 Co210 2.216 . S
O211 C218 1.247 1_655 S
O212 Co210 2.091 1_455 S
O212 C218 1.261 . S
C213 O222 1.247 1_655 S
C213 O223 1.272 . S
O214 Co210 2.004 1_455 S
O214 C219 1.259 1_455 S
Co215 O216 2.061 . S
Co215 O221 2.052 . S
Co215 O223 2.135 . S
O216 Co215 2.061 . S
O216 C219 1.235 . S
C217 O220 1.238 . S
C217 O221 1.241 . S
C218 O211 1.247 1_455 S
C218 O212 1.261 . S
C219 O214 1.259 1_655 S
C219 O216 1.235 . S
O220 Co210 2.021 . S
O220 C217 1.238 . S
O221 Co215 2.052 . S
O221 C217 1.241 . S
O222 Co210 2.137 1_455 S
O222 C213 1.247 1_455 S
O223 Co210 2.244 . S
O223 C213 1.272 . S
O223 Co215 2.135 . S
Co224 O225 2.216 . S
Co224 O226 2.091 . S
Co224 O228 2.004 . S
Co224 O234 2.021 . S
Co224 O236 2.137 . S
Co224 O237 2.244 . S
O225 Co224 2.216 . S
O225 C232 1.247 . S
O226 Co224 2.091 . S
O226 C232 1.261 . S
C227 O236 1.247 . S
C227 O237 1.272 . S
O228 Co224 2.004 . S
O228 C233 1.259 . S
Co229 O230 2.061 . S
Co229 O235 2.052 . S
Co229 O237 2.135 . S
O230 Co229 2.061 . S
O230 C233 1.235 . S
C231 O234 1.238 . S
C231 O235 1.241 . S
C232 O225 1.247 . S
C232 O226 1.261 . S
C233 O228 1.259 . S
C233 O230 1.235 . S
O234 Co224 2.021 . S
O234 C231 1.238 . S
O235 Co229 2.052 . S
O235 C231 1.241 . S
O236 Co224 2.137 . S
O236 C227 1.247 . S
O237 Co224 2.244 . S
O237 C227 1.272 . S
O237 Co229 2.135 . S
Co238 O239 2.216 . S
Co238 O240 2.091 . S
Co238 O242 2.004 . S
Co238 O248 2.021 . S
Co238 O250 2.137 . S
Co238 O251 2.244 . S
O239 Co238 2.216 . S
O239 C246 1.247 . S
O240 Co238 2.091 . S
O240 C246 1.261 . S
C241 O250 1.247 . S
C241 O251 1.272 . S
O242 Co238 2.004 . S
O242 C247 1.259 . S
Co243 O244 2.061 . S
Co243 O249 2.052 . S
Co243 O251 2.135 . S
O244 Co243 2.061 . S
O244 C247 1.235 . S
C245 O248 1.238 . S
C245 O249 1.241 . S
C246 O239 1.247 . S
C246 O240 1.261 . S
C247 O242 1.259 . S
C247 O244 1.235 . S
O248 Co238 2.021 . S
O248 C245 1.238 . S
O249 Co243 2.052 . S
O249 C245 1.241 . S
O250 Co238 2.137 . S
O250 C241 1.247 . S
O251 Co238 2.244 . S
O251 C241 1.272 . S
O251 Co243 2.135 . S
Co252 O253 2.216 . S
Co252 O254 2.091 . S
Co252 O256 2.004 . S
Co252 O262 2.021 . S
Co252 O264 2.137 . S
Co252 O265 2.244 . S
O253 Co252 2.216 . S
O253 C260 1.247 . S
O254 Co252 2.091 . S
O254 C260 1.261 . S
C255 O264 1.247 . S
C255 O265 1.272 . S
O256 Co252 2.004 . S
O256 C261 1.259 . S
Co257 O258 2.061 . S
Co257 O263 2.052 . S
Co257 O265 2.135 . S
O258 Co257 2.061 . S
O258 C261 1.235 . S
C259 O262 1.238 . S
C259 O263 1.241 . S
C260 O253 1.247 . S
C260 O254 1.261 . S
C261 O256 1.259 . S
C261 O258 1.235 . S
O262 Co252 2.021 . S
O262 C259 1.238 . S
O263 Co257 2.052 . S
O263 C259 1.241 . S
O264 Co252 2.137 . S
O264 C255 1.247 . S
O265 Co252 2.244 . S
O265 C255 1.272 . S
O265 Co257 2.135 . S
Co266 O267 2.216 . S
Co266 O268 2.091 1_655 S
Co266 O270 2.004 1_655 S
Co266 O276 2.021 . S
Co266 O278 2.137 1_655 S
Co266 O279 2.244 . S
O267 Co266 2.216 . S
O267 C274 1.247 1_655 S
O268 Co266 2.091 1_455 S
O268 C274 1.261 . S
C269 O278 1.247 1_655 S
C269 O279 1.272 . S
O270 Co266 2.004 1_455 S
O270 C275 1.259 1_455 S
Co271 O272 2.061 . S
Co271 O277 2.052 . S
Co271 O279 2.135 . S
O272 Co271 2.061 . S
O272 C275 1.235 . S
C273 O276 1.238 . S
C273 O277 1.241 . S
C274 O267 1.247 1_455 S
C274 O268 1.261 . S
C275 O270 1.259 1_655 S
C275 O272 1.235 . S
O276 Co266 2.021 . S
O276 C273 1.238 . S
O277 Co271 2.052 . S
O277 C273 1.241 . S
O278 Co266 2.137 1_455 S
O278 C269 1.247 1_455 S
O279 Co266 2.244 . S
O279 C269 1.272 . S
O279 Co271 2.135 . S
Co280 O281 2.216 . S
Co280 O282 2.091 . S
Co280 O284 2.004 . S
Co280 O290 2.021 . S
Co280 O292 2.137 . S
Co280 O293 2.244 . S
O281 Co280 2.216 . S
O281 C288 1.247 . S
O282 Co280 2.091 . S
O282 C288 1.261 . S
C283 O292 1.247 . S
C283 O293 1.272 . S
O284 Co280 2.004 . S
O284 C289 1.259 . S
Co285 O286 2.061 . S
Co285 O291 2.052 . S
Co285 O293 2.135 . S
O286 Co285 2.061 . S
O286 C289 1.235 . S
C287 O290 1.238 . S
C287 O291 1.241 . S
C288 O281 1.247 . S
C288 O282 1.261 . S
C289 O284 1.259 . S
C289 O286 1.235 . S
O290 Co280 2.021 . S
O290 C287 1.238 . S
O291 Co285 2.052 . S
O291 C287 1.241 . S
O292 Co280 2.137 . S
O292 C283 1.247 . S
O293 Co280 2.244 . S
O293 C283 1.272 . S
O293 Co285 2.135 . S
Co294 O295 2.216 . S
Co294 O296 2.091 . S
Co294 O298 2.004 . S
Co294 O304 2.021 . S
Co294 O306 2.137 . S
Co294 O307 2.244 . S
O295 Co294 2.216 . S
O295 C302 1.247 . S
O296 Co294 2.091 . S
O296 C302 1.261 . S
C297 O306 1.247 . S
C297 O307 1.272 . S
O298 Co294 2.004 . S
O298 C303 1.259 . S
Co299 O300 2.061 . S
Co299 O305 2.052 . S
Co299 O307 2.135 . S
O300 Co299 2.061 . S
O300 C303 1.235 . S
C301 O304 1.238 . S
C301 O305 1.241 . S
C302 O295 1.247 . S
C302 O296 1.261 . S
C303 O298 1.259 . S
C303 O300 1.235 . S
O304 Co294 2.021 . S
O304 C301 1.238 . S
O305 Co299 2.052 . S
O305 C301 1.241 . S
O306 Co294 2.137 . S
O306 C297 1.247 . S
O307 Co294 2.244 . S
O307 C297 1.272 . S
O307 Co299 2.135 . S
Co308 O309 2.216 . S
Co308 O310 2.091 . S
Co308 O312 2.004 . S
Co308 O318 2.021 . S
Co308 O320 2.137 . S
Co308 O321 2.244 . S
O309 Co308 2.216 . S
O309 C316 1.247 . S
O310 Co308 2.091 . S
O310 C316 1.261 . S
C311 O320 1.247 . S
C311 O321 1.272 . S
O312 Co308 2.004 . S
O312 C317 1.259 . S
Co313 O314 2.061 . S
Co313 O319 2.052 . S
Co313 O321 2.135 . S
O314 Co313 2.061 . S
O314 C317 1.235 . S
C315 O318 1.238 . S
C315 O319 1.241 . S
C316 O309 1.247 . S
C316 O310 1.261 . S
C317 O312 1.259 . S
C317 O314 1.235 . S
O318 Co308 2.021 . S
O318 C315 1.238 . S
O319 Co313 2.052 . S
O319 C315 1.241 . S
O320 Co308 2.137 . S
O320 C311 1.247 . S
O321 Co308 2.244 . S
O321 C311 1.272 . S
O321 Co313 2.135 . S
Co322 O323 2.216 . S
Co322 O324 2.091 1_655 S
Co322 O326 2.004 1_655 S
Co322 O332 2.021 . S
Co322 O334 2.137 . S
Co322 O335 2.244 . S
O323 Co322 2.216 . S
O323 C330 1.247 1_655 S
O324 Co322 2.091 1_455 S
O324 C330 1.261 . S
C325 O334 1.247 . S
C325 O335 1.272 . S
O326 Co322 2.004 1_455 S
O326 C331 1.259 1_455 S
Co327 O328 2.061 . S
Co327 O333 2.052 . S
Co327 O335 2.135 . S
O328 Co327 2.061 . S
O328 C331 1.235 . S
C329 O332 1.238 . S
C329 O333 1.241 . S
C330 O323 1.247 1_455 S
C330 O324 1.261 . S
C331 O326 1.259 1_655 S
C331 O328 1.235 . S
O332 Co322 2.021 . S
O332 C329 1.238 . S
O333 Co327 2.052 . S
O333 C329 1.241 . S
O334 Co322 2.137 . S
O334 C325 1.247 . S
O335 Co322 2.244 . S
O335 C325 1.272 . S
O335 Co327 2.135 . S
Co336 O337 2.216 . S
Co336 O338 2.091 1_565 S
Co336 O340 2.004 1_565 S
Co336 O346 2.021 . S
Co336 O348 2.137 1_565 S
Co336 O349 2.244 . S
O337 Co336 2.216 . S
O337 C344 1.247 1_565 S
O338 Co336 2.091 1_545 S
O338 C344 1.261 . S
C339 O348 1.247 1_565 S
C339 O349 1.272 . S
O340 Co336 2.004 1_545 S
O340 C345 1.259 1_545 S
Co341 O342 2.061 . S
Co341 O347 2.052 . S
Co341 O349 2.135 . S
O342 Co341 2.061 . S
O342 C345 1.235 . S
C343 O346 1.238 . S
C343 O347 1.241 . S
C344 O337 1.247 1_545 S
C344 O338 1.261 . S
C345 O340 1.259 1_565 S
C345 O342 1.235 . S
O346 Co336 2.021 . S
O346 C343 1.238 . S
O347 Co341 2.052 . S
O347 C343 1.241 . S
O348 Co336 2.137 1_545 S
O348 C339 1.247 1_545 S
O349 Co336 2.244 . S
O349 C339 1.272 . S
O349 Co341 2.135 . S
Co350 O351 2.216 . S
Co350 O352 2.091 . S
Co350 O354 2.004 . S
Co350 O360 2.021 . S
Co350 O362 2.137 . S
Co350 O363 2.244 . S
O351 Co350 2.216 . S
O351 C358 1.247 . S
O352 Co350 2.091 . S
O352 C358 1.261 . S
C353 O362 1.247 . S
C353 O363 1.272 . S
O354 Co350 2.004 . S
O354 C359 1.259 . S
Co355 O356 2.061 . S
Co355 O361 2.052 . S
Co355 O363 2.135 . S
O356 Co355 2.061 . S
O356 C359 1.235 . S
C357 O360 1.238 . S
C357 O361 1.241 . S
C358 O351 1.247 . S
C358 O352 1.261 . S
C359 O354 1.259 . S
C359 O356 1.235 . S
O360 Co350 2.021 . S
O360 C357 1.238 . S
O361 Co355 2.052 . S
O361 C357 1.241 . S
O362 Co350 2.137 . S
O362 C353 1.247 . S
O363 Co350 2.244 . S
O363 C353 1.272 . S
O363 Co355 2.135 . S
Co364 O365 2.216 . S
Co364 O366 2.091 . S
Co364 O368 2.004 . S
Co364 O374 2.021 . S
Co364 O376 2.137 . S
Co364 O377 2.244 . S
O365 Co364 2.216 . S
O365 C372 1.247 . S
O366 Co364 2.091 . S
O366 C372 1.261 . S
C367 O376 1.247 . S
C367 O377 1.272 . S
O368 Co364 2.004 . S
O368 C373 1.259 . S
Co369 O370 2.061 . S
Co369 O375 2.052 . S
Co369 O377 2.135 . S
O370 Co369 2.061 . S
O370 C373 1.235 . S
C371 O374 1.238 . S
C371 O375 1.241 . S
C372 O365 1.247 . S
C372 O366 1.261 . S
C373 O368 1.259 . S
C373 O370 1.235 . S
O374 Co364 2.021 . S
O374 C371 1.238 . S
O375 Co369 2.052 . S
O375 C371 1.241 . S
O376 Co364 2.137 . S
O376 C367 1.247 . S
O377 Co364 2.244 . S
O377 C367 1.272 . S
O377 Co369 2.135 . S
Co378 O379 2.216 . S
Co378 O380 2.091 . S
Co378 O382 2.004 . S
Co378 O388 2.021 . S
Co378 O390 2.137 . S
Co378 O391 2.244 . S
O379 Co378 2.216 . S
O379 C386 1.247 . S
O380 Co378 2.091 . S
O380 C386 1.261 . S
C381 O390 1.247 . S
C381 O391 1.272 . S
O382 Co378 2.004 . S
O382 C387 1.259 . S
Co383 O384 2.061 . S
Co383 O389 2.052 . S
Co383 O391 2.135 . S
O384 Co383 2.061 . S
O384 C387 1.235 . S
C385 O388 1.238 . S
C385 O389 1.241 . S
C386 O379 1.247 . S
C386 O380 1.261 . S
C387 O382 1.259 . S
C387 O384 1.235 . S
O388 Co378 2.021 . S
O388 C385 1.238 . S
O389 Co383 2.052 . S
O389 C385 1.241 . S
O390 Co378 2.137 . S
O390 C381 1.247 . S
O391 Co378 2.244 . S
O391 C381 1.272 . S
O391 Co383 2.135 . S
Co392 O393 2.216 . S
Co392 O394 2.091 1_565 S
Co392 O396 2.004 1_565 S
Co392 O402 2.021 . S
Co392 O404 2.137 . S
Co392 O405 2.244 . S
O393 Co392 2.216 . S
O393 C400 1.247 1_565 S
O394 Co392 2.091 1_545 S
O394 C400 1.261 . S
C395 O404 1.247 . S
C395 O405 1.272 . S
O396 Co392 2.004 1_545 S
O396 C401 1.259 1_545 S
Co397 O398 2.061 . S
Co397 O403 2.052 . S
Co397 O405 2.135 . S
O398 Co397 2.061 . S
O398 C401 1.235 . S
C399 O402 1.238 . S
C399 O403 1.241 . S
C400 O393 1.247 1_545 S
C400 O394 1.261 . S
C401 O396 1.259 1_565 S
C401 O398 1.235 . S
O402 Co392 2.021 . S
O402 C399 1.238 . S
O403 Co397 2.052 . S
O403 C399 1.241 . S
O404 Co392 2.137 . S
O404 C395 1.247 . S
O405 Co392 2.244 . S
O405 C395 1.272 . S
O405 Co397 2.135 . S
Co406 O407 2.216 . S
Co406 O408 2.091 . S
Co406 O410 2.004 . S
Co406 O416 2.021 . S
Co406 O418 2.137 . S
Co406 O419 2.244 . S
O407 Co406 2.216 . S
O407 C414 1.247 . S
O408 Co406 2.091 . S
O408 C414 1.261 . S
C409 O418 1.247 . S
C409 O419 1.272 . S
O410 Co406 2.004 . S
O410 C415 1.259 . S
Co411 O412 2.061 . S
Co411 O417 2.052 . S
Co411 O419 2.135 . S
O412 Co411 2.061 . S
O412 C415 1.235 . S
C413 O416 1.238 . S
C413 O417 1.241 . S
C414 O407 1.247 . S
C414 O408 1.261 . S
C415 O410 1.259 . S
C415 O412 1.235 . S
O416 Co406 2.021 . S
O416 C413 1.238 . S
O417 Co411 2.052 . S
O417 C413 1.241 . S
O418 Co406 2.137 . S
O418 C409 1.247 . S
O419 Co406 2.244 . S
O419 C409 1.272 . S
O419 Co411 2.135 . S
Co420 O421 2.216 . S
Co420 O422 2.091 . S
Co420 O424 2.004 . S
Co420 O430 2.021 . S
Co420 O432 2.137 . S
Co420 O433 2.244 . S
O421 Co420 2.216 . S
O421 C428 1.247 . S
O422 Co420 2.091 . S
O422 C428 1.261 . S
C423 O432 1.247 . S
C423 O433 1.272 . S
O424 Co420 2.004 . S
O424 C429 1.259 . S
Co425 O426 2.061 . S
Co425 O431 2.052 . S
Co425 O433 2.135 . S
O426 Co425 2.061 . S
O426 C429 1.235 . S
C427 O430 1.238 . S
C427 O431 1.241 . S
C428 O421 1.247 . S
C428 O422 1.261 . S
C429 O424 1.259 . S
C429 O426 1.235 . S
O430 Co420 2.021 . S
O430 C427 1.238 . S
O431 Co425 2.052 . S
O431 C427 1.241 . S
O432 Co420 2.137 . S
O432 C423 1.247 . S
O433 Co420 2.244 . S
O433 C423 1.272 . S
O433 Co425 2.135 . S
Co434 O435 2.216 . S
Co434 O436 2.091 1_565 S
Co434 O438 2.004 1_565 S
Co434 O444 2.021 . S
Co434 O446 2.137 . S
Co434 O447 2.244 . S
O435 Co434 2.216 . S
O435 C442 1.247 1_565 S
O436 Co434 2.091 1_545 S
O436 C442 1.261 . S
C437 O446 1.247 . S
C437 O447 1.272 . S
O438 Co434 2.004 1_545 S
O438 C443 1.259 1_545 S
Co439 O440 2.061 . S
Co439 O445 2.052 . S
Co439 O447 2.135 . S
O440 Co439 2.061 . S
O440 C443 1.235 . S
C441 O444 1.238 . S
C441 O445 1.241 . S
C442 O435 1.247 1_545 S
C442 O436 1.261 . S
C443 O438 1.259 1_565 S
C443 O440 1.235 . S
O444 Co434 2.021 . S
O444 C441 1.238 . S
O445 Co439 2.052 . S
O445 C441 1.241 . S
O446 Co434 2.137 . S
O446 C437 1.247 . S
O447 Co434 2.244 . S
O447 C437 1.272 . S
O447 Co439 2.135 . S
Co448 O449 2.216 . S
Co448 O450 2.091 . S
Co448 O452 2.004 . S
Co448 O458 2.021 . S
Co448 O460 2.137 . S
Co448 O461 2.244 . S
O449 Co448 2.216 . S
O449 C456 1.247 . S
O450 Co448 2.091 . S
O450 C456 1.261 . S
C451 O460 1.247 . S
C451 O461 1.272 . S
O452 Co448 2.004 . S
O452 C457 1.259 . S
Co453 O454 2.061 . S
Co453 O459 2.052 . S
Co453 O461 2.135 . S
O454 Co453 2.061 . S
O454 C457 1.235 . S
C455 O458 1.238 . S
C455 O459 1.241 . S
C456 O449 1.247 . S
C456 O450 1.261 . S
C457 O452 1.259 . S
C457 O454 1.235 . S
O458 Co448 2.021 . S
O458 C455 1.238 . S
O459 Co453 2.052 . S
O459 C455 1.241 . S
O460 Co448 2.137 . S
O460 C451 1.247 . S
O461 Co448 2.244 . S
O461 C451 1.272 . S
O461 Co453 2.135 . S
Co462 O463 2.216 . S
Co462 O464 2.091 . S
Co462 O466 2.004 . S
Co462 O472 2.021 . S
Co462 O474 2.137 . S
Co462 O475 2.244 . S
O463 Co462 2.216 . S
O463 C470 1.247 . S
O464 Co462 2.091 . S
O464 C470 1.261 . S
C465 O474 1.247 . S
C465 O475 1.272 . S
O466 Co462 2.004 . S
O466 C471 1.259 . S
Co467 O468 2.061 . S
Co467 O473 2.052 . S
Co467 O475 2.135 . S
O468 Co467 2.061 . S
O468 C471 1.235 . S
C469 O472 1.238 . S
C469 O473 1.241 . S
C470 O463 1.247 . S
C470 O464 1.261 . S
C471 O466 1.259 . S
C471 O468 1.235 . S
O472 Co462 2.021 . S
O472 C469 1.238 . S
O473 Co467 2.052 . S
O473 C469 1.241 . S
O474 Co462 2.137 . S
O474 C465 1.247 . S
O475 Co462 2.244 . S
O475 C465 1.272 . S
O475 Co467 2.135 . S
Co476 O477 2.216 . S
Co476 O478 2.091 . S
Co476 O480 2.004 . S
Co476 O486 2.021 . S
Co476 O488 2.137 . S
Co476 O489 2.244 . S
O477 Co476 2.216 . S
O477 C484 1.247 . S
O478 Co476 2.091 . S
O478 C484 1.261 . S
C479 O488 1.247 . S
C479 O489 1.272 . S
O480 Co476 2.004 . S
O480 C485 1.259 . S
Co481 O482 2.061 . S
Co481 O487 2.052 . S
Co481 O489 2.135 . S
O482 Co481 2.061 . S
O482 C485 1.235 . S
C483 O486 1.238 . S
C483 O487 1.241 . S
C484 O477 1.247 . S
C484 O478 1.261 . S
C485 O480 1.259 . S
C485 O482 1.235 . S
O486 Co476 2.021 . S
O486 C483 1.238 . S
O487 Co481 2.052 . S
O487 C483 1.241 . S
O488 Co476 2.137 . S
O488 C479 1.247 . S
O489 Co476 2.244 . S
O489 C479 1.272 . S
O489 Co481 2.135 . S
Co490 O491 2.216 . S
Co490 O492 2.091 1_565 S
Co490 O494 2.004 1_565 S
Co490 O500 2.021 . S
Co490 O502 2.137 1_565 S
Co490 O503 2.244 . S
O491 Co490 2.216 . S
O491 C498 1.247 1_565 S
O492 Co490 2.091 1_545 S
O492 C498 1.261 . S
C493 O502 1.247 1_565 S
C493 O503 1.272 . S
O494 Co490 2.004 1_545 S
O494 C499 1.259 1_545 S
Co495 O496 2.061 . S
Co495 O501 2.052 . S
Co495 O503 2.135 . S
O496 Co495 2.061 . S
O496 C499 1.235 . S
C497 O500 1.238 . S
C497 O501 1.241 . S
C498 O491 1.247 1_545 S
C498 O492 1.261 . S
C499 O494 1.259 1_565 S
C499 O496 1.235 . S
O500 Co490 2.021 . S
O500 C497 1.238 . S
O501 Co495 2.052 . S
O501 C497 1.241 . S
O502 Co490 2.137 1_545 S
O502 C493 1.247 1_545 S
O503 Co490 2.244 . S
O503 C493 1.272 . S
O503 Co495 2.135 . S
C504 C505 1.387 . S
C504 H508 0.950 . S
C504 C513 1.390 . S
C505 C504 1.387 . S
C505 C507 1.387 . S
H506 C513 0.950 . S
C507 C505 1.387 . S
C507 C509 1.390 . S
C507 H511 0.950 . S
H508 C504 0.950 . S
C509 C507 1.390 . S
C509 C510 1.387 . S
C509 H512 0.950 . S
C510 C509 1.387 . S
C510 C513 1.387 . S
H511 C507 0.950 . S
H512 C509 0.950 . S
C513 C504 1.390 . S
C513 H506 0.950 . S
C513 C510 1.387 . S
C514 C515 1.387 . S
C514 H518 0.950 . S
C514 C523 1.390 . S
C515 C514 1.387 . S
C515 C517 1.387 . S
H516 C523 0.950 . S
C517 C515 1.387 . S
C517 C519 1.390 . S
C517 H521 0.950 . S
H518 C514 0.950 . S
C519 C517 1.390 . S
C519 C520 1.387 . S
C519 H522 0.950 . S
C520 C519 1.387 . S
C520 C523 1.387 . S
H521 C517 0.950 . S
H522 C519 0.950 . S
C523 C514 1.390 . S
C523 H516 0.950 . S
C523 C520 1.387 . S
C524 C525 1.387 . S
C524 H528 0.950 . S
C524 C533 1.390 . S
C525 C524 1.387 . S
C525 C527 1.387 . S
H526 C533 0.950 . S
C527 C525 1.387 . S
C527 C529 1.390 . S
C527 H531 0.950 . S
H528 C524 0.950 . S
C529 C527 1.390 . S
C529 C530 1.387 . S
C529 H532 0.950 . S
C530 C529 1.387 . S
C530 C533 1.387 . S
H531 C527 0.950 . S
H532 C529 0.950 . S
C533 C524 1.390 . S
C533 H526 0.950 . S
C533 C530 1.387 . S
C534 C535 1.387 . S
C534 H538 0.950 . S
C534 C543 1.390 . S
C535 C534 1.387 . S
C535 C537 1.387 . S
H536 C543 0.950 . S
C537 C535 1.387 . S
C537 C539 1.390 . S
C537 H541 0.950 . S
H538 C534 0.950 . S
C539 C537 1.390 . S
C539 C540 1.387 . S
C539 H542 0.950 . S
C540 C539 1.387 . S
C540 C543 1.387 . S
H541 C537 0.950 . S
H542 C539 0.950 . S
C543 C534 1.390 . S
C543 H536 0.950 . S
C543 C540 1.387 . S
C544 C545 1.387 . S
C544 H548 0.950 . S
C544 C553 1.390 . S
C545 C544 1.387 . S
C545 C547 1.387 . S
H546 C553 0.950 . S
C547 C545 1.387 . S
C547 C549 1.390 . S
C547 H551 0.950 . S
H548 C544 0.950 . S
C549 C547 1.390 . S
C549 C550 1.387 . S
C549 H552 0.950 . S
C550 C549 1.387 . S
C550 C553 1.387 . S
H551 C547 0.950 . S
H552 C549 0.950 . S
C553 C544 1.390 . S
C553 H546 0.950 . S
C553 C550 1.387 . S
C554 C555 1.387 . S
C554 H558 0.950 . S
C554 C563 1.390 . S
C555 C554 1.387 . S
C555 C557 1.387 . S
H556 C563 0.950 . S
C557 C555 1.387 . S
C557 C559 1.390 . S
C557 H561 0.950 . S
H558 C554 0.950 . S
C559 C557 1.390 . S
C559 C560 1.387 . S
C559 H562 0.950 . S
C560 C559 1.387 . S
C560 C563 1.387 . S
H561 C557 0.950 . S
H562 C559 0.950 . S
C563 C554 1.390 . S
C563 H556 0.950 . S
C563 C560 1.387 . S
C564 C565 1.387 . S
C564 H568 0.950 . S
C564 C573 1.390 . S
C565 C564 1.387 . S
C565 C567 1.387 . S
H566 C573 0.950 . S
C567 C565 1.387 . S
C567 C569 1.390 . S
C567 H571 0.950 . S
H568 C564 0.950 . S
C569 C567 1.390 . S
C569 C570 1.387 . S
C569 H572 0.950 . S
C570 C569 1.387 . S
C570 C573 1.387 . S
H571 C567 0.950 . S
H572 C569 0.950 . S
C573 C564 1.390 . S
C573 H566 0.950 . S
C573 C570 1.387 . S
C574 C575 1.387 . S
C574 H578 0.950 . S
C574 C583 1.390 . S
C575 C574 1.387 . S
C575 C577 1.387 . S
H576 C583 0.950 . S
C577 C575 1.387 . S
C577 C579 1.390 . S
C577 H581 0.950 . S
H578 C574 0.950 . S
C579 C577 1.390 . S
C579 C580 1.387 . S
C579 H582 0.950 . S
C580 C579 1.387 . S
C580 C583 1.387 . S
H581 C577 0.950 . S
H582 C579 0.950 . S
C583 C574 1.390 . S
C583 H576 0.950 . S
C583 C580 1.387 . S
C584 C585 1.387 . S
C584 H588 0.950 . S
C584 C593 1.390 . S
C585 C584 1.387 . S
C585 C587 1.387 . S
H586 C593 0.950 . S
C587 C585 1.387 . S
C587 C589 1.390 . S
C587 H591 0.950 . S
H588 C584 0.950 . S
C589 C587 1.390 . S
C589 C590 1.387 . S
C589 H592 0.950 . S
C590 C589 1.387 . S
C590 C593 1.387 . S
H591 C587 0.950 . S
H592 C589 0.950 . S
C593 C584 1.390 . S
C593 H586 0.950 . S
C593 C590 1.387 . S
C594 C595 1.387 . S
C594 H598 0.950 . S
C594 C603 1.390 . S
C595 C594 1.387 . S
C595 C597 1.387 . S
H596 C603 0.950 . S
C597 C595 1.387 . S
C597 C599 1.390 . S
C597 H601 0.950 . S
H598 C594 0.950 . S
C599 C597 1.390 . S
C599 C600 1.387 . S
C599 H602 0.950 . S
C600 C599 1.387 . S
C600 C603 1.387 . S
H601 C597 0.950 . S
H602 C599 0.950 . S
C603 C594 1.390 . S
C603 H596 0.950 . S
C603 C600 1.387 . S
C604 C605 1.387 . S
C604 H608 0.950 . S
C604 C613 1.390 . S
C605 C604 1.387 . S
C605 C607 1.387 . S
H606 C613 0.950 . S
C607 C605 1.387 . S
C607 C609 1.390 . S
C607 H611 0.950 . S
H608 C604 0.950 . S
C609 C607 1.390 . S
C609 C610 1.387 . S
C609 H612 0.950 . S
C610 C609 1.387 . S
C610 C613 1.387 . S
H611 C607 0.950 . S
H612 C609 0.950 . S
C613 C604 1.390 . S
C613 H606 0.950 . S
C613 C610 1.387 . S
C614 C615 1.387 . S
C614 H618 0.950 . S
C614 C623 1.390 . S
C615 C614 1.387 . S
C615 C617 1.387 . S
H616 C623 0.950 . S
C617 C615 1.387 . S
C617 C619 1.390 . S
C617 H621 0.950 . S
H618 C614 0.950 . S
C619 C617 1.390 . S
C619 C620 1.387 . S
C619 H622 0.950 . S
C620 C619 1.387 . S
C620 C623 1.387 . S
H621 C617 0.950 . S
H622 C619 0.950 . S
C623 C614 1.390 . S
C623 H616 0.950 . S
C623 C620 1.387 . S
C624 C625 1.387 . S
C624 H628 0.950 . S
C624 C633 1.390 . S
C625 C624 1.387 . S
C625 C627 1.387 1_565 S
H626 C633 0.950 . S
C627 C625 1.387 1_545 S
C627 C629 1.390 . S
C627 H631 0.950 . S
H628 C624 0.950 . S
C629 C627 1.390 . S
C629 C630 1.387 1_545 S
C629 H632 0.950 . S
C630 C629 1.387 1_565 S
C630 C633 1.387 . S
H631 C627 0.950 . S
H632 C629 0.950 . S
C633 C624 1.390 . S
C633 H626 0.950 . S
C633 C630 1.387 . S
C634 C635 1.387 . S
C634 H638 0.950 . S
C634 C643 1.390 . S
C635 C634 1.387 . S
C635 C637 1.387 . S
H636 C643 0.950 . S
C637 C635 1.387 . S
C637 C639 1.390 . S
C637 H641 0.950 . S
H638 C634 0.950 . S
C639 C637 1.390 . S
C639 C640 1.387 . S
C639 H642 0.950 . S
C640 C639 1.387 . S
C640 C643 1.387 . S
H641 C637 0.950 . S
H642 C639 0.950 . S
C643 C634 1.390 . S
C643 H636 0.950 . S
C643 C640 1.387 . S
C644 C645 1.387 . S
C644 H648 0.950 . S
C644 C653 1.390 . S
C645 C644 1.387 . S
C645 C647 1.387 . S
H646 C653 0.950 . S
C647 C645 1.387 . S
C647 C649 1.390 . S
C647 H651 0.950 . S
H648 C644 0.950 . S
C649 C647 1.390 . S
C649 C650 1.387 . S
C649 H652 0.950 . S
C650 C649 1.387 . S
C650 C653 1.387 . S
H651 C647 0.950 . S
H652 C649 0.950 . S
C653 C644 1.390 . S
C653 H646 0.950 . S
C653 C650 1.387 . S
C654 C655 1.387 . S
C654 H658 0.950 . S
C654 C663 1.390 . S
C655 C654 1.387 . S
C655 C657 1.387 . S
H656 C663 0.950 . S
C657 C655 1.387 . S
C657 C659 1.390 . S
C657 H661 0.950 . S
H658 C654 0.950 . S
C659 C657 1.390 . S
C659 C660 1.387 . S
C659 H662 0.950 . S
C660 C659 1.387 . S
C660 C663 1.387 . S
H661 C657 0.950 . S
H662 C659 0.950 . S
C663 C654 1.390 . S
C663 H656 0.950 . S
C663 C660 1.387 . S
C664 C665 1.387 . S
C664 H668 0.950 . S
C664 C673 1.390 . S
C665 C664 1.387 . S
C665 C667 1.387 . S
H666 C673 0.950 . S
C667 C665 1.387 . S
C667 C669 1.390 . S
C667 H671 0.950 . S
H668 C664 0.950 . S
C669 C667 1.390 . S
C669 C670 1.387 . S
C669 H672 0.950 . S
C670 C669 1.387 . S
C670 C673 1.387 . S
H671 C667 0.950 . S
H672 C669 0.950 . S
C673 C664 1.390 . S
C673 H666 0.950 . S
C673 C670 1.387 . S
C674 C675 1.387 . S
C674 H678 0.950 . S
C674 C683 1.390 . S
C675 C674 1.387 . S
C675 C677 1.387 . S
H676 C683 0.950 . S
C677 C675 1.387 . S
C677 C679 1.390 . S
C677 H681 0.950 . S
H678 C674 0.950 . S
C679 C677 1.390 . S
C679 C680 1.387 . S
C679 H682 0.950 . S
C680 C679 1.387 . S
C680 C683 1.387 . S
H681 C677 0.950 . S
H682 C679 0.950 . S
C683 C674 1.390 . S
C683 H676 0.950 . S
C683 C680 1.387 . S
C684 C685 1.387 . S
C684 H688 0.950 . S
C684 C693 1.390 . S
C685 C684 1.387 . S
C685 C687 1.387 . S
H686 C693 0.950 . S
C687 C685 1.387 . S
C687 C689 1.390 . S
C687 H691 0.950 1_455 S
H688 C684 0.950 . S
C689 C687 1.390 . S
C689 C690 1.387 . S
C689 H692 0.950 1_455 S
C690 C689 1.387 . S
C690 C693 1.387 . S
H691 C687 0.950 1_655 S
H692 C689 0.950 1_655 S
C693 C684 1.390 . S
C693 H686 0.950 . S
C693 C690 1.387 . S
C694 C695 1.387 . S
C694 H698 0.950 . S
C694 C703 1.390 . S
C695 C694 1.387 . S
C695 C697 1.387 . S
H696 C703 0.950 . S
C697 C695 1.387 . S
C697 C699 1.390 . S
C697 H701 0.950 . S
H698 C694 0.950 . S
C699 C697 1.390 . S
C699 C700 1.387 . S
C699 H702 0.950 . S
C700 C699 1.387 . S
C700 C703 1.387 . S
H701 C697 0.950 . S
H702 C699 0.950 . S
C703 C694 1.390 . S
C703 H696 0.950 . S
C703 C700 1.387 . S
C704 C705 1.387 . S
C704 H708 0.950 . S
C704 C713 1.390 . S
C705 C704 1.387 . S
C705 C707 1.387 . S
H706 C713 0.950 . S
C707 C705 1.387 . S
C707 C709 1.390 . S
C707 H711 0.950 1_545 S
H708 C704 0.950 . S
C709 C707 1.390 . S
C709 C710 1.387 . S
C709 H712 0.950 1_545 S
C710 C709 1.387 . S
C710 C713 1.387 . S
H711 C707 0.950 1_565 S
H712 C709 0.950 1_565 S
C713 C704 1.390 . S
C713 H706 0.950 . S
C713 C710 1.387 . S
C714 C715 1.387 . S
C714 H718 0.950 . S
C714 C723 1.390 . S
C715 C714 1.387 . S
C715 C717 1.387 1_545 S
H716 C723 0.950 . S
C717 C715 1.387 1_565 S
C717 C719 1.390 . S
C717 H721 0.950 . S
H718 C714 0.950 . S
C719 C717 1.390 . S
C719 C720 1.387 1_565 S
C719 H722 0.950 . S
C720 C719 1.387 1_545 S
C720 C723 1.387 . S
H721 C717 0.950 . S
H722 C719 0.950 . S
C723 C714 1.390 . S
C723 H716 0.950 . S
C723 C720 1.387 . S
C724 C725 1.387 . S
C724 H728 0.950 1_455 S
C724 C733 1.390 . S
C725 C724 1.387 . S
C725 C727 1.387 . S
H726 C733 0.950 1_655 S
C727 C725 1.387 . S
C727 C729 1.390 . S
C727 H731 0.950 . S
H728 C724 0.950 1_655 S
C729 C727 1.390 . S
C729 C730 1.387 . S
C729 H732 0.950 . S
C730 C729 1.387 . S
C730 C733 1.387 . S
H731 C727 0.950 . S
H732 C729 0.950 . S
C733 C724 1.390 . S
C733 H726 0.950 1_455 S
C733 C730 1.387 . S
C734 C735 1.387 . S
C734 H738 0.950 . S
C734 C743 1.390 . S
C735 C734 1.387 . S
C735 C737 1.387 . S
H736 C743 0.950 . S
C737 C735 1.387 . S
C737 C739 1.390 . S
C737 H741 0.950 . S
H738 C734 0.950 . S
C739 C737 1.390 . S
C739 C740 1.387 . S
C739 H742 0.950 . S
C740 C739 1.387 . S
C740 C743 1.387 . S
H741 C737 0.950 . S
H742 C739 0.950 . S
C743 C734 1.390 . S
C743 H736 0.950 . S
C743 C740 1.387 . S
C744 C745 1.387 . S
C744 H748 0.950 . S
C744 C753 1.390 . S
C745 C744 1.387 . S
C745 C747 1.387 . S
H746 C753 0.950 . S
C747 C745 1.387 . S
C747 C749 1.390 . S
C747 H751 0.950 . S
H748 C744 0.950 . S
C749 C747 1.390 . S
C749 C750 1.387 . S
C749 H752 0.950 . S
C750 C749 1.387 . S
C750 C753 1.387 . S
H751 C747 0.950 . S
H752 C749 0.950 . S
C753 C744 1.390 . S
C753 H746 0.950 . S
C753 C750 1.387 . S
C754 C755 1.387 . S
C754 H758 0.950 . S
C754 C763 1.390 . S
C755 C754 1.387 . S
C755 C757 1.387 . S
H756 C763 0.950 . S
C757 C755 1.387 . S
C757 C759 1.390 . S
C757 H761 0.950 . S
H758 C754 0.950 . S
C759 C757 1.390 . S
C759 C760 1.387 . S
C759 H762 0.950 . S
C760 C759 1.387 . S
C760 C763 1.387 . S
H761 C757 0.950 . S
H762 C759 0.950 . S
C763 C754 1.390 . S
C763 H756 0.950 . S
C763 C760 1.387 . S
C764 C765 1.387 1_565 S
C764 H768 0.950 . S
C764 C773 1.390 . S
C765 C764 1.387 1_545 S
C765 C767 1.387 . S
H766 C773 0.950 . S
C767 C765 1.387 . S
C767 C769 1.390 . S
C767 H771 0.950 . S
H768 C764 0.950 . S
C769 C767 1.390 . S
C769 C770 1.387 . S
C769 H772 0.950 . S
C770 C769 1.387 . S
C770 C773 1.387 1_545 S
H771 C767 0.950 . S
H772 C769 0.950 . S
C773 C764 1.390 . S
C773 H766 0.950 . S
C773 C770 1.387 1_565 S
C774 C775 1.387 . S
C774 H778 0.950 . S
C774 C783 1.390 . S
C775 C774 1.387 . S
C775 C777 1.387 . S
H776 C783 0.950 . S
C777 C775 1.387 . S
C777 C779 1.390 . S
C777 H781 0.950 . S
H778 C774 0.950 . S
C779 C777 1.390 . S
C779 C780 1.387 . S
C779 H782 0.950 . S
C780 C779 1.387 . S
C780 C783 1.387 . S
H781 C777 0.950 . S
H782 C779 0.950 . S
C783 C774 1.390 . S
C783 H776 0.950 . S
C783 C780 1.387 . S
C784 C785 1.387 . S
C784 H788 0.950 . S
C784 C793 1.390 . S
C785 C784 1.387 . S
C785 C787 1.387 1_455 S
H786 C793 0.950 . S
C787 C785 1.387 1_655 S
C787 C789 1.390 . S
C787 H791 0.950 . S
H788 C784 0.950 . S
C789 C787 1.390 . S
C789 C790 1.387 1_655 S
C789 H792 0.950 . S
C790 C789 1.387 1_455 S
C790 C793 1.387 . S
H791 C787 0.950 . S
H792 C789 0.950 . S
C793 C784 1.390 . S
C793 H786 0.950 . S
C793 C790 1.387 . S
C794 C795 1.387 . S
C794 H798 0.950 . S
C794 C803 1.390 . S
C795 C794 1.387 . S
C795 C797 1.387 . S
H796 C803 0.950 . S
C797 C795 1.387 . S
C797 C799 1.390 . S
C797 H801 0.950 . S
H798 C794 0.950 . S
C799 C797 1.390 . S
C799 C800 1.387 . S
C799 H802 0.950 . S
C800 C799 1.387 . S
C800 C803 1.387 . S
H801 C797 0.950 . S
H802 C799 0.950 . S
C803 C794 1.390 . S
C803 H796 0.950 . S
C803 C800 1.387 . S
C804 C805 1.387 . S
C804 H808 0.950 . S
C804 C813 1.390 . S
C805 C804 1.387 . S
C805 C807 1.387 . S
H806 C813 0.950 . S
C807 C805 1.387 . S
C807 C809 1.390 . S
C807 H811 0.950 . S
H808 C804 0.950 . S
C809 C807 1.390 . S
C809 C810 1.387 . S
C809 H812 0.950 . S
C810 C809 1.387 . S
C810 C813 1.387 . S
H811 C807 0.950 . S
H812 C809 0.950 . S
C813 C804 1.390 . S
C813 H806 0.950 . S
C813 C810 1.387 . S
C814 C815 1.387 . S
C814 H818 0.950 . S
C814 C823 1.390 . S
C815 C814 1.387 . S
C815 C817 1.387 . S
H816 C823 0.950 . S
C817 C815 1.387 . S
C817 C819 1.390 . S
C817 H821 0.950 . S
H818 C814 0.950 . S
C819 C817 1.390 . S
C819 C820 1.387 . S
C819 H822 0.950 . S
C820 C819 1.387 . S
C820 C823 1.387 . S
H821 C817 0.950 . S
H822 C819 0.950 . S
C823 C814 1.390 . S
C823 H816 0.950 . S
C823 C820 1.387 . S
C824 C825 1.387 . S
C824 H828 0.950 . S
C824 C833 1.390 . S
C825 C824 1.387 . S
C825 C827 1.387 . S
H826 C833 0.950 . S
C827 C825 1.387 . S
C827 C829 1.390 . S
C827 H831 0.950 . S
H828 C824 0.950 . S
C829 C827 1.390 . S
C829 C830 1.387 . S
C829 H832 0.950 . S
C830 C829 1.387 . S
C830 C833 1.387 . S
H831 C827 0.950 . S
H832 C829 0.950 . S
C833 C824 1.390 . S
C833 H826 0.950 . S
C833 C830 1.387 . S
C834 C835 1.387 . S
C834 H838 0.950 . S
C834 C843 1.390 . S
C835 C834 1.387 . S
C835 C837 1.387 . S
H836 C843 0.950 . S
C837 C835 1.387 . S
C837 C839 1.390 . S
C837 H841 0.950 . S
H838 C834 0.950 . S
C839 C837 1.390 . S
C839 C840 1.387 . S
C839 H842 0.950 . S
C840 C839 1.387 . S
C840 C843 1.387 . S
H841 C837 0.950 . S
H842 C839 0.950 . S
C843 C834 1.390 . S
C843 H836 0.950 . S
C843 C840 1.387 . S
C844 C845 1.387 . S
C844 H848 0.950 . S
C844 C853 1.390 . S
C845 C844 1.387 . S
C845 C847 1.387 . S
H846 C853 0.950 . S
C847 C845 1.387 . S
C847 C849 1.390 . S
C847 H851 0.950 . S
H848 C844 0.950 . S
C849 C847 1.390 . S
C849 C850 1.387 . S
C849 H852 0.950 . S
C850 C849 1.387 . S
C850 C853 1.387 . S
H851 C847 0.950 . S
H852 C849 0.950 . S
C853 C844 1.390 . S
C853 H846 0.950 . S
C853 C850 1.387 . S
C854 C855 1.387 . S
C854 H858 0.950 . S
C854 C863 1.390 . S
C855 C854 1.387 . S
C855 C857 1.387 . S
H856 C863 0.950 . S
C857 C855 1.387 . S
C857 C859 1.390 . S
C857 H861 0.950 1_455 S
H858 C854 0.950 . S
C859 C857 1.390 . S
C859 C860 1.387 . S
C859 H862 0.950 1_455 S
C860 C859 1.387 . S
C860 C863 1.387 . S
H861 C857 0.950 1_655 S
H862 C859 0.950 1_655 S
C863 C854 1.390 . S
C863 H856 0.950 . S
C863 C860 1.387 . S
C864 C865 1.387 . S
C864 H868 0.950 . S
C864 C873 1.390 1_554 S
C865 C864 1.387 . S
C865 C867 1.387 . S
H866 C873 0.950 . S
C867 C865 1.387 . S
C867 C869 1.390 1_554 S
C867 H871 0.950 . S
H868 C864 0.950 . S
C869 C867 1.390 1_556 S
C869 C870 1.387 . S
C869 H872 0.950 . S
C870 C869 1.387 . S
C870 C873 1.387 . S
H871 C867 0.950 . S
H872 C869 0.950 . S
C873 C864 1.390 1_556 S
C873 H866 0.950 . S
C873 C870 1.387 . S
C874 C875 1.387 . S
C874 H878 0.950 . S
C874 C883 1.390 1_556 S
C875 C874 1.387 . S
C875 C877 1.387 . S
H876 C883 0.950 . S
C877 C875 1.387 . S
C877 C879 1.390 1_556 S
C877 H881 0.950 . S
H878 C874 0.950 . S
C879 C877 1.390 1_554 S
C879 C880 1.387 . S
C879 H882 0.950 . S
C880 C879 1.387 . S
C880 C883 1.387 . S
H881 C877 0.950 . S
H882 C879 0.950 . S
C883 C874 1.390 1_554 S
C883 H876 0.950 . S
C883 C880 1.387 . S
C884 C885 1.387 . S
C884 H888 0.950 . S
C884 C893 1.390 1_556 S
C885 C884 1.387 . S
C885 C887 1.387 . S
H886 C893 0.950 . S
C887 C885 1.387 . S
C887 C889 1.390 1_556 S
C887 H891 0.950 . S
H888 C884 0.950 . S
C889 C887 1.390 1_554 S
C889 C890 1.387 . S
C889 H892 0.950 . S
C890 C889 1.387 . S
C890 C893 1.387 . S
H891 C887 0.950 . S
H892 C889 0.950 . S
C893 C884 1.390 1_554 S
C893 H886 0.950 . S
C893 C890 1.387 . S
C894 C895 1.387 1_655 S
C894 H898 0.950 . S
C894 C903 1.392 1_556 S
C895 C894 1.387 1_455 S
C895 C897 1.387 . S
H896 C903 0.975 . S
C897 C895 1.387 . S
C897 C899 1.390 1_556 S
C897 H901 0.950 . S
H898 C894 0.950 . S
C899 C897 1.390 1_554 S
C899 C900 1.387 . S
C899 H902 0.950 . S
C900 C899 1.387 . S
C900 C903 1.360 1_455 S
H901 C897 0.950 . S
H902 C899 0.950 . S
C903 C894 1.392 1_554 S
C903 H896 0.975 . S
C903 C900 1.360 1_655 S
C904 C905 1.387 . S
C904 H908 0.950 . S
C904 C913 1.390 1_554 S
C905 C904 1.387 . S
C905 C907 1.387 . S
H906 C913 0.950 . S
C907 C905 1.387 . S
C907 C909 1.390 1_554 S
C907 H911 0.950 . S
H908 C904 0.950 . S
C909 C907 1.390 1_556 S
C909 C910 1.387 . S
C909 H912 0.950 . S
C910 C909 1.387 . S
C910 C913 1.387 . S
H911 C907 0.950 . S
H912 C909 0.950 . S
C913 C904 1.390 1_556 S
C913 H906 0.950 . S
C913 C910 1.387 . S
C914 C915 1.387 . S
C914 H918 0.950 . S
C914 C923 1.390 1_556 S
C915 C914 1.387 . S
C915 C917 1.387 . S
H916 C923 0.950 . S
C917 C915 1.387 . S
C917 C919 1.390 1_556 S
C917 H921 0.950 . S
H918 C914 0.950 . S
C919 C917 1.390 1_554 S
C919 C920 1.387 . S
C919 H922 0.950 . S
C920 C919 1.387 . S
C920 C923 1.387 . S
H921 C917 0.950 . S
H922 C919 0.950 . S
C923 C914 1.390 1_554 S
C923 H916 0.950 . S
C923 C920 1.387 . S
C924 C925 1.387 . S
C924 H928 0.950 . S
C924 C933 1.390 . S
C925 C924 1.387 . S
C925 C927 1.387 . S
H926 C933 0.950 . S
C927 C925 1.387 . S
C927 C929 1.390 . S
C927 H931 0.950 . S
H928 C924 0.950 . S
C929 C927 1.390 . S
C929 C930 1.387 . S
C929 H932 0.950 . S
C930 C929 1.387 . S
C930 C933 1.387 . S
H931 C927 0.950 . S
H932 C929 0.950 . S
C933 C924 1.390 . S
C933 H926 0.950 . S
C933 C930 1.387 . S
C934 C935 1.387 . S
C934 H938 0.950 . S
C934 C943 1.390 . S
C935 C934 1.387 . S
C935 C937 1.387 . S
H936 C943 0.950 . S
C937 C935 1.387 . S
C937 C939 1.390 . S
C937 H941 0.950 . S
H938 C934 0.950 . S
C939 C937 1.390 . S
C939 C940 1.387 . S
C939 H942 0.950 . S
C940 C939 1.387 . S
C940 C943 1.387 . S
H941 C937 0.950 . S
H942 C939 0.950 . S
C943 C934 1.390 . S
C943 H936 0.950 . S
C943 C940 1.387 . S
C944 C945 1.387 . S
C944 H948 0.950 . S
C944 C953 1.390 . S
C945 C944 1.387 . S
C945 C947 1.387 1_655 S
H946 C953 0.950 . S
C947 C945 1.387 1_455 S
C947 C949 1.390 . S
C947 H951 0.950 . S
H948 C944 0.950 . S
C949 C947 1.390 . S
C949 C950 1.387 . S
C949 H952 0.950 . S
C950 C949 1.387 . S
C950 C953 1.387 1_455 S
H951 C947 0.950 . S
H952 C949 0.950 . S
C953 C944 1.390 . S
C953 H946 0.950 . S
C953 C950 1.387 1_655 S
C954 C955 1.387 . S
C954 H958 0.950 . S
C954 C963 1.390 . S
C955 C954 1.387 . S
C955 C957 1.387 . S
H956 C963 0.950 . S
C957 C955 1.387 . S
C957 C959 1.390 . S
C957 H961 0.950 . S
H958 C954 0.950 . S
C959 C957 1.390 . S
C959 C960 1.387 . S
C959 H962 0.950 . S
C960 C959 1.387 . S
C960 C963 1.387 . S
H961 C957 0.950 . S
H962 C959 0.950 . S
C963 C954 1.390 . S
C963 H956 0.950 . S
C963 C960 1.387 . S
C964 C965 1.387 1_455 S
C964 H968 0.950 . S
C964 C973 1.390 . S
C965 C964 1.387 1_655 S
C965 C967 1.387 . S
H966 C973 0.950 . S
C967 C965 1.387 . S
C967 C969 1.390 . S
C967 H971 0.950 . S
H968 C964 0.950 . S
C969 C967 1.390 . S
C969 C970 1.387 1_655 S
C969 H972 0.950 . S
C970 C969 1.387 1_455 S
C970 C973 1.387 . S
H971 C967 0.950 . S
H972 C969 0.950 . S
C973 C964 1.390 . S
C973 H966 0.950 . S
C973 C970 1.387 . S
C974 C975 1.387 . S
C974 H978 0.950 . S
C974 C983 1.390 . S
C975 C974 1.387 . S
C975 C977 1.387 . S
H976 C983 0.950 . S
C977 C975 1.387 . S
C977 C979 1.390 . S
C977 H981 0.950 . S
H978 C974 0.950 . S
C979 C977 1.390 . S
C979 C980 1.387 . S
C979 H982 0.950 . S
C980 C979 1.387 . S
C980 C983 1.387 . S
H981 C977 0.950 . S
H982 C979 0.950 . S
C983 C974 1.390 . S
C983 H976 0.950 . S
C983 C980 1.387 . S
C984 C985 1.387 . S
C984 H988 0.950 . S
C984 C993 1.390 . S
C985 C984 1.387 . S
C985 C987 1.387 1_545 S
H986 C993 0.950 . S
C987 C985 1.387 1_565 S
C987 C989 1.390 . S
C987 H991 0.950 . S
H988 C984 0.950 . S
C989 C987 1.390 . S
C989 C990 1.387 . S
C989 H992 0.950 . S
C990 C989 1.387 . S
C990 C993 1.387 1_565 S
H991 C987 0.950 . S
H992 C989 0.950 . S
C993 C984 1.390 . S
C993 H986 0.950 . S
C993 C990 1.387 1_545 S
C994 C995 1.387 . S
C994 H998 0.950 . S
C994 C1003 1.390 . S
C995 C994 1.387 . S
C995 C997 1.387 . S
H996 C1003 0.950 . S
C997 C995 1.387 . S
C997 C999 1.390 . S
C997 H1001 0.950 . S
H998 C994 0.950 . S
C999 C997 1.390 . S
C999 C1000 1.387 . S
C999 H1002 0.950 . S
C1000 C999 1.387 . S
C1000 C1003 1.387 . S
H1001 C997 0.950 . S
H1002 C999 0.950 . S
C1003 C994 1.390 . S
C1003 H996 0.950 . S
C1003 C1000 1.387 . S
C1004 C1005 1.387 . S
C1004 H1008 0.950 . S
C1004 C1013 1.390 . S
C1005 C1004 1.387 . S
C1005 C1007 1.387 . S
H1006 C1013 0.950 . S
C1007 C1005 1.387 . S
C1007 C1009 1.390 . S
C1007 H1011 0.950 . S
H1008 C1004 0.950 . S
C1009 C1007 1.390 . S
C1009 C1010 1.387 . S
C1009 H1012 0.950 . S
C1010 C1009 1.387 . S
C1010 C1013 1.387 . S
H1011 C1007 0.950 . S
H1012 C1009 0.950 . S
C1013 C1004 1.390 . S
C1013 H1006 0.950 . S
C1013 C1010 1.387 . S
C1014 C1015 1.387 . S
C1014 H1018 0.950 . S
C1014 C1023 1.390 . S
C1015 C1014 1.387 . S
C1015 C1017 1.387 . S
H1016 C1023 0.950 . S
C1017 C1015 1.387 . S
C1017 C1019 1.390 . S
C1017 H1021 0.950 . S
H1018 C1014 0.950 . S
C1019 C1017 1.390 . S
C1019 C1020 1.387 . S
C1019 H1022 0.950 . S
C1020 C1019 1.387 . S
C1020 C1023 1.387 . S
H1021 C1017 0.950 . S
H1022 C1019 0.950 . S
C1023 C1014 1.390 . S
C1023 H1016 0.950 . S
C1023 C1020 1.387 . S
C1024 C1025 1.387 . S
C1024 H1028 0.950 . S
C1024 C1033 1.390 . S
C1025 C1024 1.387 . S
C1025 C1027 1.387 1_545 S
H1026 C1033 0.950 . S
C1027 C1025 1.387 1_565 S
C1027 C1029 1.390 . S
C1027 H1031 0.950 . S
H1028 C1024 0.950 . S
C1029 C1027 1.390 . S
C1029 C1030 1.387 . S
C1029 H1032 0.950 . S
C1030 C1029 1.387 . S
C1030 C1033 1.387 1_565 S
H1031 C1027 0.950 . S
H1032 C1029 0.950 . S
C1033 C1024 1.390 . S
C1033 H1026 0.950 . S
C1033 C1030 1.387 1_545 S
C1034 C1035 1.387 . S
C1034 H1038 0.950 . S
C1034 C1043 1.390 . S
C1035 C1034 1.387 . S
C1035 C1037 1.387 . S
H1036 C1043 0.950 . S
C1037 C1035 1.387 . S
C1037 C1039 1.390 . S
C1037 H1041 0.950 . S
H1038 C1034 0.950 . S
C1039 C1037 1.390 . S
C1039 C1040 1.387 . S
C1039 H1042 0.950 . S
C1040 C1039 1.387 . S
C1040 C1043 1.387 . S
H1041 C1037 0.950 . S
H1042 C1039 0.950 . S
C1043 C1034 1.390 . S
C1043 H1036 0.950 . S
C1043 C1040 1.387 . S
C1044 C1045 1.387 . S
C1044 H1048 0.950 . S
C1044 C1053 1.390 . S
C1045 C1044 1.387 . S
C1045 C1047 1.387 . S
H1046 C1053 0.950 . S
C1047 C1045 1.387 . S
C1047 C1049 1.390 . S
C1047 H1051 0.950 . S
H1048 C1044 0.950 . S
C1049 C1047 1.390 . S
C1049 C1050 1.387 . S
C1049 H1052 0.950 . S
C1050 C1049 1.387 . S
C1050 C1053 1.387 . S
H1051 C1047 0.950 . S
H1052 C1049 0.950 . S
C1053 C1044 1.390 . S
C1053 H1046 0.950 . S
C1053 C1050 1.387 . S
C1054 C1055 1.387 . S
C1054 H1058 0.950 . S
C1054 C1063 1.390 . S
C1055 C1054 1.387 . S
C1055 C1057 1.387 . S
H1056 C1063 0.950 . S
C1057 C1055 1.387 . S
C1057 C1059 1.390 . S
C1057 H1061 0.950 . S
H1058 C1054 0.950 . S
C1059 C1057 1.390 . S
C1059 C1060 1.387 . S
C1059 H1062 0.950 . S
C1060 C1059 1.387 . S
C1060 C1063 1.387 . S
H1061 C1057 0.950 . S
H1062 C1059 0.950 . S
C1063 C1054 1.390 . S
C1063 H1056 0.950 . S
C1063 C1060 1.387 . S
C1064 C1065 1.387 . S
C1064 H1068 0.950 . S
C1064 C1073 1.390 . S
C1065 C1064 1.387 . S
C1065 C1067 1.387 . S
H1066 C1073 0.950 . S
C1067 C1065 1.387 . S
C1067 C1069 1.390 . S
C1067 H1071 0.950 . S
H1068 C1064 0.950 . S
C1069 C1067 1.390 . S
C1069 C1070 1.387 . S
C1069 H1072 0.950 . S
C1070 C1069 1.387 . S
C1070 C1073 1.387 . S
H1071 C1067 0.950 . S
H1072 C1069 0.950 . S
C1073 C1064 1.390 . S
C1073 H1066 0.950 . S
C1073 C1070 1.387 . S
C1074 C1075 1.387 . S
C1074 H1078 0.950 . S
C1074 C1083 1.390 . S
C1075 C1074 1.387 . S
C1075 C1077 1.387 . S
H1076 C1083 0.950 . S
C1077 C1075 1.387 . S
C1077 C1079 1.390 . S
C1077 H1081 0.950 . S
H1078 C1074 0.950 . S
C1079 C1077 1.390 . S
C1079 C1080 1.387 . S
C1079 H1082 0.950 . S
C1080 C1079 1.387 . S
C1080 C1083 1.387 . S
H1081 C1077 0.950 . S
H1082 C1079 0.950 . S
C1083 C1074 1.390 . S
C1083 H1076 0.950 . S
C1083 C1080 1.387 . S
C1084 C1085 1.387 . S
C1084 H1088 0.950 . S
C1084 C1093 1.390 . S
C1085 C1084 1.387 . S
C1085 C1087 1.387 . S
H1086 C1093 0.950 . S
C1087 C1085 1.387 . S
C1087 C1089 1.390 . S
C1087 H1091 0.950 . S
H1088 C1084 0.950 . S
C1089 C1087 1.390 . S
C1089 C1090 1.387 . S
C1089 H1092 0.950 . S
C1090 C1089 1.387 . S
C1090 C1093 1.387 . S
H1091 C1087 0.950 . S
H1092 C1089 0.950 . S
C1093 C1084 1.390 . S
C1093 H1086 0.950 . S
C1093 C1090 1.387 . S
C1094 C1095 1.387 . S
C1094 H1098 0.950 . S
C1094 C1103 1.390 . S
C1095 C1094 1.387 . S
C1095 C1097 1.387 . S
H1096 C1103 0.950 . S
C1097 C1095 1.387 . S
C1097 C1099 1.390 . S
C1097 H1101 0.950 . S
H1098 C1094 0.950 . S
C1099 C1097 1.390 . S
C1099 C1100 1.387 . S
C1099 H1102 0.950 . S
C1100 C1099 1.387 . S
C1100 C1103 1.387 . S
H1101 C1097 0.950 . S
H1102 C1099 0.950 . S
C1103 C1094 1.390 . S
C1103 H1096 0.950 . S
C1103 C1100 1.387 . S
C1104 C1105 1.387 . S
C1104 H1108 0.950 . S
C1104 C1113 1.390 . S
C1105 C1104 1.387 . S
C1105 C1107 1.387 . S
H1106 C1113 0.950 . S
C1107 C1105 1.387 . S
C1107 C1109 1.390 . S
C1107 H1111 0.950 . S
H1108 C1104 0.950 . S
C1109 C1107 1.390 . S
C1109 C1110 1.387 . S
C1109 H1112 0.950 . S
C1110 C1109 1.387 . S
C1110 C1113 1.387 . S
H1111 C1107 0.950 . S
H1112 C1109 0.950 . S
C1113 C1104 1.390 . S
C1113 H1106 0.950 . S
C1113 C1110 1.387 . S
C1114 C1115 1.387 . S
C1114 H1118 0.950 . S
C1114 C1123 1.390 . S
C1115 C1114 1.387 . S
C1115 C1117 1.387 . S
H1116 C1123 0.950 . S
C1117 C1115 1.387 . S
C1117 C1119 1.390 . S
C1117 H1121 0.950 . S
H1118 C1114 0.950 . S
C1119 C1117 1.390 . S
C1119 C1120 1.387 . S
C1119 H1122 0.950 . S
C1120 C1119 1.387 . S
C1120 C1123 1.387 . S
H1121 C1117 0.950 . S
H1122 C1119 0.950 . S
C1123 C1114 1.390 . S
C1123 H1116 0.950 . S
C1123 C1120 1.387 . S
C1124 C1125 1.387 . S
C1124 H1128 0.950 . S
C1124 C1133 1.390 . S
C1125 C1124 1.387 . S
C1125 C1127 1.387 . S
H1126 C1133 0.950 . S
C1127 C1125 1.387 . S
C1127 C1129 1.390 . S
C1127 H1131 0.950 . S
H1128 C1124 0.950 . S
C1129 C1127 1.390 . S
C1129 C1130 1.387 . S
C1129 H1132 0.950 . S
C1130 C1129 1.387 . S
C1130 C1133 1.387 . S
H1131 C1127 0.950 . S
H1132 C1129 0.950 . S
C1133 C1124 1.390 . S
C1133 H1126 0.950 . S
C1133 C1130 1.387 . S
C1134 C1135 1.387 . S
C1134 H1138 0.950 . S
C1134 C1143 1.390 . S
C1135 C1134 1.387 . S
C1135 C1137 1.387 . S
H1136 C1143 0.950 . S
C1137 C1135 1.387 . S
C1137 C1139 1.390 . S
C1137 H1141 0.950 . S
H1138 C1134 0.950 . S
C1139 C1137 1.390 . S
C1139 C1140 1.387 . S
C1139 H1142 0.950 . S
C1140 C1139 1.387 . S
C1140 C1143 1.387 . S
H1141 C1137 0.950 . S
H1142 C1139 0.950 . S
C1143 C1134 1.390 . S
C1143 H1136 0.950 . S
C1143 C1140 1.387 . S
C1144 C1145 1.387 . S
C1144 H1148 0.950 . S
C1144 C1153 1.390 . S
C1145 C1144 1.387 . S
C1145 C1147 1.387 . S
H1146 C1153 0.950 . S
C1147 C1145 1.387 . S
C1147 C1149 1.390 . S
C1147 H1151 0.950 . S
H1148 C1144 0.950 . S
C1149 C1147 1.390 . S
C1149 C1150 1.387 . S
C1149 H1152 0.950 . S
C1150 C1149 1.387 . S
C1150 C1153 1.387 . S
H1151 C1147 0.950 . S
H1152 C1149 0.950 . S
C1153 C1144 1.390 . S
C1153 H1146 0.950 . S
C1153 C1150 1.387 . S
C1154 C1155 1.387 . S
C1154 H1158 0.950 . S
C1154 C1163 1.390 . S
C1155 C1154 1.387 . S
C1155 C1157 1.387 . S
H1156 C1163 0.950 . S
C1157 C1155 1.387 . S
C1157 C1159 1.390 . S
C1157 H1161 0.950 . S
H1158 C1154 0.950 . S
C1159 C1157 1.390 . S
C1159 C1160 1.387 . S
C1159 H1162 0.950 . S
C1160 C1159 1.387 . S
C1160 C1163 1.387 . S
H1161 C1157 0.950 . S
H1162 C1159 0.950 . S
C1163 C1154 1.390 . S
C1163 H1156 0.950 . S
C1163 C1160 1.387 . S
C1164 C1165 1.387 . S
C1164 H1168 0.950 . S
C1164 C1173 1.390 . S
C1165 C1164 1.387 . S
C1165 C1167 1.387 . S
H1166 C1173 0.950 . S
C1167 C1165 1.387 . S
C1167 C1169 1.390 . S
C1167 H1171 0.950 . S
H1168 C1164 0.950 . S
C1169 C1167 1.390 . S
C1169 C1170 1.387 . S
C1169 H1172 0.950 . S
C1170 C1169 1.387 . S
C1170 C1173 1.387 . S
H1171 C1167 0.950 . S
H1172 C1169 0.950 . S
C1173 C1164 1.390 . S
C1173 H1166 0.950 . S
C1173 C1170 1.387 . S
C1174 C1175 1.387 . S
C1174 H1178 0.950 . S
C1174 C1183 1.390 . S
C1175 C1174 1.387 . S
C1175 C1177 1.387 . S
H1176 C1183 0.950 . S
C1177 C1175 1.387 . S
C1177 C1179 1.390 . S
C1177 H1181 0.950 . S
H1178 C1174 0.950 . S
C1179 C1177 1.390 . S
C1179 C1180 1.387 . S
C1179 H1182 0.950 . S
C1180 C1179 1.387 . S
C1180 C1183 1.387 . S
H1181 C1177 0.950 . S
H1182 C1179 0.950 . S
C1183 C1174 1.390 . S
C1183 H1176 0.950 . S
C1183 C1180 1.387 . S
C1184 C1185 1.387 . S
C1184 H1188 0.950 . S
C1184 C1193 1.390 . S
C1185 C1184 1.387 . S
C1185 C1187 1.387 . S
H1186 C1193 0.950 . S
C1187 C1185 1.387 . S
C1187 C1189 1.390 . S
C1187 H1191 0.950 . S
H1188 C1184 0.950 . S
C1189 C1187 1.390 . S
C1189 C1190 1.387 . S
C1189 H1192 0.950 . S
C1190 C1189 1.387 . S
C1190 C1193 1.387 . S
H1191 C1187 0.950 . S
H1192 C1189 0.950 . S
C1193 C1184 1.390 . S
C1193 H1186 0.950 . S
C1193 C1190 1.387 . S
C1194 C1195 1.387 . S
C1194 H1198 0.950 . S
C1194 C1203 1.390 . S
C1195 C1194 1.387 . S
C1195 C1197 1.387 . S
H1196 C1203 0.950 . S
C1197 C1195 1.387 . S
C1197 C1199 1.390 . S
C1197 H1201 0.950 . S
H1198 C1194 0.950 . S
C1199 C1197 1.390 . S
C1199 C1200 1.387 . S
C1199 H1202 0.950 . S
C1200 C1199 1.387 . S
C1200 C1203 1.387 . S
H1201 C1197 0.950 . S
H1202 C1199 0.950 . S
C1203 C1194 1.390 . S
C1203 H1196 0.950 . S
C1203 C1200 1.387 . S
C1204 C1205 1.387 1_545 S
C1204 H1208 0.950 . S
C1204 C1213 1.390 . S
C1205 C1204 1.387 1_565 S
C1205 C1207 1.387 . S
H1206 C1213 0.950 . S
C1207 C1205 1.387 . S
C1207 C1209 1.390 . S
C1207 H1211 0.950 . S
H1208 C1204 0.950 . S
C1209 C1207 1.390 . S
C1209 C1210 1.387 . S
C1209 H1212 0.950 . S
C1210 C1209 1.387 . S
C1210 C1213 1.387 1_565 S
H1211 C1207 0.950 . S
H1212 C1209 0.950 . S
C1213 C1204 1.390 . S
C1213 H1206 0.950 . S
C1213 C1210 1.387 1_545 S
C1214 C1215 1.387 . S
C1214 H1218 0.950 . S
C1214 C1223 1.390 . S
C1215 C1214 1.387 . S
C1215 C1217 1.387 . S
H1216 C1223 0.950 . S
C1217 C1215 1.387 . S
C1217 C1219 1.390 . S
C1217 H1221 0.950 . S
H1218 C1214 0.950 . S
C1219 C1217 1.390 . S
C1219 C1220 1.387 . S
C1219 H1222 0.950 . S
C1220 C1219 1.387 . S
C1220 C1223 1.387 . S
H1221 C1217 0.950 . S
H1222 C1219 0.950 . S
C1223 C1214 1.390 . S
C1223 H1216 0.950 . S
C1223 C1220 1.387 . S
C505 C3 1.575 . S
C510 C157 1.575 . S
C515 C129 1.576 . S
C520 C17 1.576 . S
C525 C143 1.576 . S
C530 C31 1.576 . S
C535 C45 1.575 . S
C540 C101 1.575 . S
C545 C59 1.576 . S
C550 C115 1.576 . S
C555 C73 1.575 . S
C560 C87 1.576 . S
C565 C171 1.575 . S
C570 C325 1.575 . S
C575 C297 1.576 . S
C580 C185 1.576 . S
C585 C199 1.576 . S
C590 C311 1.576 . S
C595 C213 1.575 . S
C600 C269 1.575 . S
C605 C227 1.576 . S
C610 C283 1.576 . S
C615 C241 1.575 . S
C620 C255 1.575 . S
C625 C339 1.576 . S
C630 C493 1.575 . S
C635 C353 1.575 . S
C640 C465 1.575 . S
C645 C479 1.576 . S
C650 C367 1.576 . S
C655 C381 1.575 . S
C660 C437 1.575 . S
C665 C451 1.576 . S
C670 C395 1.576 . S
C675 C423 1.576 . S
C680 C409 1.575 . S
C685 C8 1.400 . S
C690 C218 1.400 . S
C695 C22 1.402 . S
C700 C232 1.402 . S
C705 C36 1.402 . S
C710 C246 1.402 . S
C715 C50 1.399 . S
C720 C344 1.400 . S
C725 C358 1.400 . S
C730 C64 1.400 . S
C735 C372 1.400 . S
C740 C78 1.400 . S
C745 C92 1.402 . S
C750 C470 1.402 . S
C755 C484 1.400 . S
C760 C106 1.400 . S
C765 C120 1.400 . S
C770 C498 1.400 . S
C775 C134 1.402 . S
C780 C260 1.402 . S
C785 C148 1.403 . S
C790 C274 1.403 . S
C795 C162 1.400 . S
C800 C288 1.400 . S
C805 C386 1.400 . S
C810 C176 1.400 . S
C815 C190 1.400 . S
C820 C400 1.400 . S
C825 C204 1.402 . S
C830 C414 1.403 . S
C835 C428 1.400 . S
C840 C302 1.400 . S
C845 C442 1.400 . S
C850 C316 1.399 . S
C855 C330 1.401 . S
C860 C456 1.402 . S
C865 C9 1.345 . S
C870 C65 1.344 . S
C875 C79 1.345 . S
C880 C23 1.344 . S
C885 C51 1.345 . S
C890 C37 1.345 . S
C895 C93 1.343 . S
C900 C149 1.346 . S
C905 C163 1.344 . S
C910 C107 1.343 . S
C915 C121 1.344 . S
C920 C135 1.344 . S
C925 C233 1.346 . S
C930 C177 1.344 . S
C935 C191 1.343 . S
C940 C247 1.344 . S
C945 C205 1.345 . S
C950 C219 1.344 1_455 S
C955 C317 1.346 . S
C960 C261 1.343 . S
C965 C331 1.343 . S
C970 C275 1.346 1_455 S
C975 C303 1.345 . S
C980 C289 1.345 . S
C985 C345 1.345 1_545 S
C990 C401 1.344 . S
C995 C359 1.346 . S
C1000 C415 1.342 . S
C1005 C373 1.345 . S
C1010 C387 1.345 . S
C1015 C485 1.346 . S
C1020 C429 1.344 . S
C1025 C499 1.345 1_545 S
C1030 C443 1.344 . S
C1035 C471 1.345 . S
C1040 C457 1.345 . S
C1045 C133 1.543 . S
C1050 C7 1.541 . S
C1055 C147 1.541 . S
C1060 C21 1.543 . S
C1065 C35 1.541 . S
C1070 C161 1.542 . S
C1075 C49 1.541 . S
C1080 C91 1.543 . S
C1085 C105 1.542 . S
C1090 C63 1.541 . S
C1095 C77 1.543 . S
C1100 C119 1.541 . S
C1105 C301 1.543 . S
C1110 C175 1.541 . S
C1115 C315 1.542 . S
C1120 C189 1.541 . S
C1125 C203 1.541 . S
C1130 C329 1.542 . S
C1135 C259 1.543 . S
C1140 C217 1.541 . S
C1145 C273 1.541 . S
C1150 C231 1.542 . S
C1155 C287 1.541 . S
C1160 C245 1.542 . S
C1165 C343 1.541 . S
C1170 C469 1.543 . S
C1175 C483 1.541 . S
C1180 C357 1.542 . S
C1185 C371 1.542 . S
C1190 C497 1.541 . S
C1195 C385 1.543 . S
C1200 C427 1.541 . S
C1205 C399 1.542 . S
C1210 C441 1.541 . S
C1215 C455 1.543 . S
C1220 C413 1.541 . S
