# Generated by pormake.
# Topology cdl, (4)-cn, num edge types: 1
# Building blocks:
#     Node 0, Type 0, BuildingBlock: ESEHIV_clean_sbu_0, # of connection points: 4
#     Node 1, Type 0, BuildingBlock: ESEHIV_clean_sbu_0, # of connection points: 4
#     Node 2, Type 0, BuildingBlock: ESEHIV_clean_sbu_0, # of connection points: 4
#     Node 3, Type 0, BuildingBlock: ESEHIV_clean_sbu_0, # of connection points: 4
#     Edge 4, Type (0, 0), BuildingBlock: MIFKUJ_clean_linker_0, # of connection points: 2
#     Edge 5, Type (0, 0), BuildingBlock: MIFKUJ_clean_linker_0, # of connection points: 2
#     Edge 6, Type (0, 0), BuildingBlock: MIFKUJ_clean_linker_0, # of connection points: 2
#     Edge 7, Type (0, 0), BuildingBlock: MIFKUJ_clean_linker_0, # of connection points: 2
#     Edge 8, Type (0, 0), BuildingBlock: MIFKUJ_clean_linker_0, # of connection points: 2
#     Edge 9, Type (0, 0), BuildingBlock: MIFKUJ_clean_linker_0, # of connection points: 2
#     Edge 10, Type (0, 0), BuildingBlock: MIFKUJ_clean_linker_0, # of connection points: 2
#     Edge 11, Type (0, 0), BuildingBlock: MIFKUJ_clean_linker_0, # of connection points: 2
# Relax obj value: 0.000
# Max RMSD: 0.146
# Mean RMSD: 0.094
data_MOF--net-cdl--node1-ESEHIV_clean_sbu_0--edge1-MIFKUJ_clean_linker_0
_symmetry_space_group_name_H-M    P1
_symmetry_Int_Tables_number       1
_symmetry_cell_setting            triclinic
loop_
_symmetry_equiv_pos_as_xyz
'x, y, z'
_cell_length_a     19.194889
_cell_length_b     21.616994
_cell_length_c     81.11628
_cell_angle_alpha  102.00402
_cell_angle_beta   100.98771
_cell_angle_gamma 87.424638
loop_
_atom_site_label
_atom_site_type_symbol
_atom_site_fract_x
_atom_site_fract_y
_atom_site_fract_z
_atom_type_partial_charge
Cu0 Cu 0.10264 0.11787 0.1327 0.0
N1 N 0.04791 0.04432 0.12503 0.0
N2 N 1.01552 0.94381 0.12204 0.0
C3 C 0.06461 0.9886 0.12981 0.0
C4 C 0.9661 0.97259 0.11191 0.0
C5 C 0.98617 0.03459 0.1138 0.0
O6 O 0.1547 0.11354 0.15558 0.0
C7 C 0.12611 0.13624 0.1018 0.0
O8 O 0.05747 0.14651 0.10039 0.0
H9 H 0.11243 0.98098 0.13868 0.0
H10 H 0.95769 0.07007 0.10748 0.0
N11 N 0.04575 0.19099 0.13471 0.0
N12 N 1.0129 0.2922 0.13573 0.0
C13 C 0.0661 0.24945 0.1343 0.0
C14 C 0.97731 0.19685 0.13646 0.0
C15 C 0.95698 0.25925 0.13716 0.0
C16 C 0.11445 0.10717 0.16593 0.0
O17 O 0.04548 0.10648 0.16043 0.0
H18 H 0.11902 0.26026 0.13297 0.0
H19 H 0.94433 0.15837 0.13703 0.0
O20 O 0.16046 0.12144 0.11553 0.0
H21 H 0.91834 0.95073 0.10388 0.0
H22 H 0.90464 0.27852 0.13824 0.0
Cu23 Cu 0.12124 0.16946 0.65175 0.0
N24 N 0.14676 0.12294 0.66906 0.0
N25 N 0.16252 0.09871 0.69503 0.0
C26 C 0.13582 0.14096 0.68528 0.0
C27 C 0.19173 0.0524 0.68449 0.0
C28 C 0.18185 0.06745 0.66848 0.0
O29 O 0.03414 0.2163 0.6555 0.0
C30 C 0.25498 0.18992 0.64647 0.0
O31 O 0.24813 0.12879 0.64044 0.0
H32 H 0.10989 0.18492 0.6899 0.0
H33 H 0.19938 0.0401 0.65723 0.0
N34 N 0.10049 0.11625 0.63006 0.0
N35 N 0.08863 0.08293 0.60161 0.0
C36 C 0.10682 0.13137 0.61513 0.0
C37 C 0.07706 0.05634 0.62594 0.0
C38 C 0.06967 0.03565 0.60843 0.0
C39 C 0.98418 0.18218 0.65705 0.0
O40 O 0.99625 0.12142 0.65627 0.0
H41 H 0.12623 0.1767 0.61436 0.0
H42 H 0.06632 0.0295 0.63503 0.0
O43 O 0.20367 0.22053 0.65239 0.0
H44 H 0.21781 1.01039 0.68805 0.0
H45 H 0.05139 0.98937 0.60135 0.0
Cu46 Cu 0.04564 0.14058 0.89965 0.0
N47 N 0.98651 0.07043 0.89501 0.0
N48 N 0.9516 0.97121 0.89265 0.0
C49 C 1.0053 1.01309 0.89848 0.0
C50 C 0.89695 1.00371 0.88525 0.0
C51 C 0.91867 0.06484 0.88672 0.0
O52 O 0.11143 0.13929 0.92116 0.0
C53 C 0.04956 0.14672 0.86631 0.0
O54 O 0.98218 0.15855 0.86682 0.0
H55 H 0.05803 1.00198 0.90471 0.0
H56 H 0.88748 0.10231 0.88186 0.0
N57 N 0.99252 0.21569 0.90249 0.0
N58 N 0.96214 0.31732 0.90368 0.0
C59 C 1.01157 0.27234 0.90036 0.0
C60 C 0.92871 0.22512 0.90721 0.0
C61 C 0.90999 0.28781 0.90804 0.0
C62 C 0.08264 0.14781 0.93438 0.0
O63 O 1.0135 0.1551 0.93245 0.0
H64 H 0.06107 0.28047 0.89663 0.0
H65 H 0.89806 0.18899 0.90996 0.0
O66 O 0.09066 0.13674 0.87984 0.0
H67 H 0.84495 0.98478 0.8792 0.0
H68 H 0.86136 0.30979 0.91135 0.0
Cu69 Cu 0.16856 0.1212 0.38548 0.0
N70 N 0.16499 0.06872 0.36386 0.0
N71 N 0.17602 0.03722 0.33643 0.0
C72 C 0.19014 0.08306 0.35069 0.0
C73 C 0.14087 0.99223 0.3408 0.0
C74 C 0.13445 1.01163 0.35774 0.0
O75 O 0.2538 0.17261 0.38979 0.0
C76 C 0.02588 0.13233 0.38538 0.0
O77 O 0.03693 0.0713 0.38418 0.0
H78 H 0.21599 0.12727 0.35139 0.0
H79 H 0.10828 0.98629 0.36499 0.0
N80 N 0.17784 0.07392 0.40273 0.0
N81 N 0.17352 0.0499 0.42806 0.0
C82 C 0.1644 0.09538 0.41864 0.0
C83 C 0.19616 1.01275 0.40201 0.0
C84 C 0.19363 0.99781 0.4176 0.0
C85 C 0.31106 0.14024 0.39112 0.0
O86 O 0.3066 0.07879 0.38959 0.0
H87 H 0.14655 0.14313 0.42301 0.0
H88 H 0.21035 0.98119 0.39092 0.0
O89 O 0.07832 0.16721 0.38575 0.0
H90 H 0.12068 0.9487 0.3323 0.0
H91 H 0.20622 0.95219 0.42096 0.0
H92 H 0.09363 0.34837 0.11904 0.0
H93 H 0.09521 0.46051 0.11802 0.0
H94 H 0.93825 0.49913 0.15053 0.0
H95 H 0.93583 0.38682 0.15137 0.0
H96 H 0.9045 0.5609 0.12604 0.0
H97 H 0.11744 0.53783 0.16572 0.0
H98 H 0.23299 0.49141 0.17616 0.0
H99 H 0.31824 0.54021 0.13532 0.0
H100 H 0.20287 0.5862 0.1245 0.0
H101 H 0.07569 0.89786 0.1502 0.0
H102 H 0.07562 0.78832 0.15379 0.0
H103 H 0.95731 0.73289 0.10225 0.0
H104 H 0.95668 0.84239 0.09867 0.0
H105 H 0.12827 0.68241 0.13873 0.0
H106 H 0.84705 0.61272 0.09955 0.0
H107 H 0.73021 0.66286 0.09241 0.0
H108 H 0.77913 0.80603 0.13827 0.0
H109 H 0.89581 0.75628 0.1458 0.0
C110 C 0.06 0.38082 0.12612 0.0
C111 C 1.01477 0.35861 0.13534 0.0
C112 C 0.06094 0.44504 0.12553 0.0
C113 C 1.01749 0.48869 0.13437 0.0
C114 C 0.97219 0.46653 0.14357 0.0
C115 C 0.97076 0.40224 0.14403 0.0
C116 C 1.01815 0.55716 0.13377 0.0
C117 C 0.9535 0.58736 0.12882 0.0
C118 C 0.0818 0.59242 0.13772 0.0
C119 C 0.15131 0.56495 0.14421 0.0
C120 C 0.16068 0.53825 0.15889 0.0
C121 C 0.22617 0.51209 0.16489 0.0
C122 C 0.28287 0.51273 0.15639 0.0
C123 C 0.27425 0.53969 0.14189 0.0
C124 C 0.20884 0.56587 0.13583 0.0
C125 C 0.04999 0.86232 0.13959 0.0
C126 C 1.0159 0.87905 0.12415 0.0
C127 C 0.04989 0.79964 0.14168 0.0
C128 C 1.01575 0.75225 0.12838 0.0
C129 C 0.98272 0.76868 0.11285 0.0
C130 C 0.98235 0.8314 0.11081 0.0
C131 C 1.01477 0.68569 0.1307 0.0
C132 C 0.07931 0.65587 0.13595 0.0
C133 C 0.95086 0.65121 0.12746 0.0
C134 C 0.88044 0.68108 0.12314 0.0
C135 C 0.83274 0.65475 0.10814 0.0
C136 C 0.76657 0.68313 0.10402 0.0
C137 C 0.74736 0.7377 0.11485 0.0
C138 C 0.79418 0.76389 0.12986 0.0
C139 C 0.86037 0.73566 0.13405 0.0
H140 H 0.69613 0.75963 0.11163 0.0
H141 H 0.33353 0.49244 0.16105 0.0
H142 H 0.3482 0.15122 0.62529 0.0
H143 H 0.47046 0.18474 0.62899 0.0
H144 H 0.44144 0.32837 0.67286 0.0
H145 H 0.31776 0.29429 0.66921 0.0
H146 H 0.54471 0.28809 0.63011 0.0
H147 H 0.59561 0.32654 0.70313 0.0
H148 H 0.54285 0.30069 0.72635 0.0
H149 H 0.45518 0.13033 0.69279 0.0
H150 H 0.50818 0.15484 0.66949 0.0
H151 H 0.92668 0.29947 0.65332 0.0
H152 H 0.80338 0.3346 0.65427 0.0
H153 H 0.7571 0.15641 0.66578 0.0
H154 H 0.87865 0.12204 0.66519 0.0
H155 H 0.69256 0.24721 0.68401 0.0
H156 H 0.72145 0.18642 0.62409 0.0
H157 H 0.77305 0.19694 0.59918 0.0
H158 H 0.69995 0.38944 0.60403 0.0
H159 H 0.64859 0.38015 0.62909 0.0
C160 C 0.36729 0.19078 0.63555 0.0
C161 C 0.32371 0.21961 0.6471 0.0
C162 C 0.43722 0.21024 0.63758 0.0
C163 C 0.46562 0.25861 0.65132 0.0
C164 C 0.42082 0.29059 0.66224 0.0
C165 C 0.35016 0.27131 0.66011 0.0
C166 C 0.54371 0.26903 0.6551 0.0
C167 C 0.57708 0.28055 0.64205 0.0
C168 C 0.58624 0.25865 0.67058 0.0
C169 C 0.55495 0.24302 0.68454 0.0
C170 C 0.56514 0.28356 0.70075 0.0
C171 C 0.53524 0.26912 0.71391 0.0
C172 C 0.49543 0.21405 0.71103 0.0
C173 C 0.48577 0.1731 0.695 0.0
C174 C 0.5157 0.18725 0.68181 0.0
C175 C 0.89029 0.26833 0.65629 0.0
C176 C 0.91243 0.20773 0.65902 0.0
C177 C 0.81981 0.28833 0.65677 0.0
C178 C 0.77058 0.24797 0.65998 0.0
C179 C 0.79379 0.18865 0.66335 0.0
C180 C 0.86356 0.16882 0.66288 0.0
C181 C 0.69368 0.26413 0.65879 0.0
C182 C 0.66046 0.25754 0.67234 0.0
C183 C 0.6513 0.27737 0.6436 0.0
C184 C 0.6821 0.28288 0.62857 0.0
C185 C 0.71687 0.2311 0.61991 0.0
C186 C 0.74598 0.23682 0.60576 0.0
C187 C 0.74001 0.2939 0.60006 0.0
C188 C 0.70471 0.34532 0.60848 0.0
C189 C 0.67561 0.33986 0.62265 0.0
H190 H 0.76255 0.29823 0.5891 0.0
H191 H 0.47224 0.20301 0.72122 0.0
H192 H 0.90768 0.41671 0.92355 0.0
H193 H 0.90814 0.5278 0.92137 0.0
H194 H 0.01999 0.47758 0.87904 0.0
H195 H 0.02111 0.36654 0.88152 0.0
H196 H 0.07284 0.58143 0.89871 0.0
H197 H 0.83723 0.50953 0.87314 0.0
H198 H 0.72229 0.45993 0.87157 0.0
H199 H 0.68221 0.60006 0.91475 0.0
H200 H 0.79738 0.65003 0.91671 0.0
H201 H 0.87301 0.87676 0.87069 0.0
H202 H 0.87675 0.76481 0.872 0.0
H203 H 0.03717 0.8033 0.91791 0.0
H204 H 0.0338 0.91541 0.91663 0.0
H205 H 0.84733 0.70365 0.89451 0.0
H206 H 0.14949 0.67732 0.91909 0.0
H207 H 0.26215 0.72357 0.91717 0.0
H208 H 0.16483 0.77408 0.86952 0.0
H209 H 0.05195 0.72739 0.87104 0.0
C210 C 0.93214 0.42941 0.91376 0.0
C211 C 0.96396 0.38293 0.90263 0.0
C212 C 0.93233 0.4929 0.9125 0.0
C213 C 0.963 0.51109 0.89984 0.0
C214 C 0.99597 0.46482 0.88891 0.0
C215 C 0.99664 0.40139 0.89033 0.0
C216 C 0.96018 0.5782 0.89791 0.0
C217 C 0.02351 0.60811 0.8978 0.0
C218 C 0.89567 0.6129 0.89637 0.0
C219 C 0.8262 0.58318 0.89516 0.0
C220 C 0.8041 0.52952 0.88237 0.0
C221 C 0.73889 0.50137 0.8814 0.0
C222 C 0.69505 0.52674 0.89307 0.0
C223 C 0.71625 0.58042 0.90572 0.0
C224 C 0.78146 0.60871 0.90676 0.0
C225 C 0.90873 0.86157 0.88114 0.0
C226 C 0.95323 0.90514 0.89353 0.0
C227 C 0.91096 0.79744 0.88184 0.0
C228 C 0.95775 0.77542 0.89494 0.0
C229 C 1.0016 0.81891 0.90748 0.0
C230 C 0.99964 0.88303 0.90673 0.0
C231 C 0.96009 0.70707 0.89555 0.0
C232 C 0.89667 0.67697 0.89544 0.0
C233 C 0.02418 0.67178 0.89641 0.0
C234 C 0.09208 0.69944 0.89529 0.0
C235 C 0.15222 0.69811 0.90818 0.0
C236 C 0.21611 0.72443 0.90716 0.0
C237 C 0.22058 0.75194 0.89326 0.0
C238 C 0.16123 0.75299 0.88032 0.0
C239 C 0.09726 0.72668 0.88127 0.0
H240 H 0.27007 0.77232 0.8925 0.0
H241 H 0.64458 0.50487 0.8923 0.0
H242 H 0.34856 0.24937 0.38226 0.0
H243 H 0.47022 0.28442 0.38334 0.0
H244 H 0.55431 0.12775 0.40654 0.0
H245 H 0.43472 0.09335 0.40559 0.0
H246 H 0.63104 0.23151 0.42107 0.0
H247 H 0.53151 0.11865 0.36312 0.0
H248 H 0.44314 0.10553 0.33623 0.0
H249 H 0.4989 0.28681 0.32893 0.0
H250 H 0.58705 0.30131 0.35593 0.0
H251 H 0.92216 0.07406 0.3946 0.0
H252 H 0.80289 0.11135 0.39723 0.0
H253 H 0.84477 0.28523 0.38287 0.0
H254 H 0.96669 0.24798 0.38032 0.0
H255 H 0.70625 0.21537 0.3651 0.0
H256 H 0.83601 0.30417 0.42088 0.0
H257 H 0.92503 0.30292 0.4471 0.0
H258 H 0.81169 0.15447 0.45824 0.0
H259 H 0.72297 0.15362 0.43188 0.0
C260 C 0.39323 0.22343 0.3879 0.0
C261 C 0.38221 0.1684 0.39373 0.0
C262 C 0.46259 0.24322 0.38843 0.0
C263 C 0.52153 0.20843 0.39492 0.0
C264 C 0.50998 0.15555 0.40152 0.0
C265 C 0.44137 0.13567 0.40087 0.0
C266 C 0.59557 0.22264 0.39387 0.0
C267 C 0.64745 0.22891 0.40887 0.0
C268 C 0.617 0.22057 0.37799 0.0
C269 C 0.56517 0.21139 0.36162 0.0
C270 C 0.52463 0.15583 0.35582 0.0
C271 C 0.47463 0.14814 0.34056 0.0
C272 C 0.46527 0.19539 0.33091 0.0
C273 C 0.50612 0.25033 0.33645 0.0
C274 C 0.55611 0.25831 0.35172 0.0
C275 C 0.90654 0.12033 0.39197 0.0
C276 C 0.95412 0.15803 0.38722 0.0
C277 C 0.83813 0.14162 0.39353 0.0
C278 C 0.815 0.20107 0.39031 0.0
C279 C 0.86177 0.23914 0.38542 0.0
C280 C 0.93132 0.21801 0.38406 0.0
C281 C 0.74155 0.22152 0.39223 0.0
C282 C 0.68982 0.22119 0.37741 0.0
C283 C 0.72011 0.22776 0.40826 0.0
C284 C 0.77279 0.22881 0.42434 0.0
C285 C 0.83028 0.27095 0.42885 0.0
C286 C 0.88077 0.27055 0.44374 0.0
C287 C 0.87414 0.22851 0.45431 0.0
C288 C 0.81686 0.18691 0.45003 0.0
C289 C 0.7664 0.18691 0.43512 0.0
H290 H 0.91332 0.2282 0.46582 0.0
H291 H 0.42651 0.18934 0.31911 0.0
H292 H 0.05301 0.21964 0.96356 0.0
H293 H 0.1092 0.21698 0.99294 0.0
H294 H 0.26006 0.07828 0.97454 0.0
H295 H 0.20385 0.08164 0.94469 0.0
H296 H 0.18863 0.0437 0.99894 0.0
H297 H 0.32642 0.21428 0.9958 0.0
H298 H 0.35244 0.31442 0.98825 0.0
H299 H 0.21371 0.41429 0.02061 0.0
H300 H 0.18592 0.31467 0.02816 0.0
H301 H 0.24019 0.06966 0.0906 0.0
H302 H 0.28094 0.07022 0.06356 0.0
H303 H 0.12775 0.21641 0.05352 0.0
H304 H 0.08727 0.21571 0.08012 0.0
H305 H 0.25311 0.23594 0.04407 0.0
H306 H 0.08819 0.0607 0.03788 0.0
H307 H 0.05512 0.96108 0.04465 0.0
H308 H 0.24344 0.87129 0.02937 0.0
H309 H 0.27796 0.97075 0.02271 0.0
C310 C 0.09895 0.18934 0.96572 0.0
C311 C 0.12408 0.15082 0.95186 0.0
C312 C 0.13131 0.18811 0.98254 0.0
C313 C 0.18922 0.14783 0.98596 0.0
C314 C 0.21575 0.11007 0.97216 0.0
C315 C 0.18392 0.1122 0.95517 0.0
C316 C 0.21614 0.14224 1.00403 0.0
C317 C 0.20531 0.08516 1.00882 0.0
C318 C 0.23743 0.19638 0.01694 0.0
C319 C 0.25408 0.2568 1.01254 0.0
C320 C 0.30113 0.25751 1.00124 0.0
C321 C 0.31623 0.31423 0.99697 0.0
C322 C 0.28476 0.37068 1.00395 0.0
C323 C 0.23815 0.37053 0.01524 0.0
C324 C 0.22283 0.31394 0.01955 0.0
C325 C 0.21661 0.10278 0.08276 0.0
C326 C 0.1602 0.14225 0.08734 0.0
C327 C 0.23964 0.10291 0.06731 0.0
C328 C 0.20704 0.14311 0.05645 0.0
C329 C 0.15389 0.18512 0.06167 0.0
C330 C 0.13045 0.1844 0.07685 0.0
C331 C 0.2217 0.13846 0.03888 0.0
C332 C 0.23994 0.19374 0.0342 0.0
C333 C 0.20696 0.0828 0.02607 0.0
C334 C 0.1861 1.02321 0.03004 0.0
C335 C 0.12276 1.0198 0.03609 0.0
C336 C 0.10372 0.96339 0.03989 0.0
C337 C 0.14729 0.90995 0.0375 0.0
C338 C 0.20986 0.91277 0.03127 0.0
C339 C 0.2292 0.96913 0.02748 0.0
H340 H 0.13245 0.8663 0.04044 0.0
H341 H 0.2965 0.41454 1.00062 0.0
H342 H 0.14469 0.95535 0.44318 0.0
H343 H 0.12689 0.96478 0.47257 0.0
H344 H 0.15724 0.16642 0.48194 0.0
H345 H 0.17773 0.15712 0.45271 0.0
H346 H 0.22702 0.11936 0.50834 0.0
H347 H 0.99244 0.10424 0.47555 0.0
H348 H 0.89541 0.05884 0.45216 0.0
H349 H 0.90612 0.88766 0.47153 0.0
H350 H 1.00452 0.93137 0.49481 0.0
H351 H 0.09386 0.18352 0.5864 0.0
H352 H 0.10469 0.18053 0.5568 0.0
H353 H 0.09885 0.97686 0.54629 0.0
H354 H 0.08984 0.97898 0.57598 0.0
H355 H 1.01313 0.03002 0.52056 0.0
H356 H 0.25296 0.04724 0.55284 0.0
H357 H 0.34807 0.09616 0.57629 0.0
H358 H 0.32241 0.26972 0.55786 0.0
H359 H 0.22631 0.2221 0.53445 0.0
C360 C 0.14831 1.00169 0.45149 0.0
C361 C 0.1626 0.05547 0.44547 0.0
C362 C 0.13733 1.00709 0.46828 0.0
C363 C 0.13978 0.06644 0.47943 0.0
C364 C 0.15477 0.12016 0.47356 0.0
C365 C 0.16587 0.11479 0.45676 0.0
C366 C 0.1274 0.07218 0.49725 0.0
C367 C 0.17972 0.10066 0.51098 0.0
C368 C 0.06607 0.04715 0.50075 0.0
C369 C 1.00639 1.02089 0.48685 0.0
C370 C 0.97454 0.05671 0.47476 0.0
C371 C 0.91921 0.03132 0.46152 0.0
C372 C 0.8946 0.97044 0.46036 0.0
C373 C 0.92527 0.93481 0.47244 0.0
C374 C 0.98087 0.95986 0.48566 0.0
C375 C 0.09544 0.13792 0.57793 0.0
C376 C 0.09158 0.08145 0.58382 0.0
C377 C 0.10126 0.1364 0.56093 0.0
C378 C 0.10314 0.07847 0.54938 0.0
C379 C 0.09735 1.02211 0.555 0.0
C380 C 0.09202 1.02352 0.57203 0.0
C381 C 0.11302 0.07654 0.53156 0.0
C382 C 0.06021 0.04888 0.51785 0.0
C383 C 0.17349 0.10292 0.52807 0.0
C384 C 0.23195 0.1313 0.542 0.0
C385 C 0.26724 0.09598 0.55386 0.0
C386 C 0.32137 0.12345 0.56713 0.0
C387 C 0.34114 0.18606 0.56859 0.0
C388 C 0.30697 0.22125 0.55674 0.0
C389 C 0.2527 0.19404 0.54345 0.0
H390 H 0.38303 0.20725 0.57888 0.0
H391 H 0.85172 0.95089 0.45012 0.0
H392 H 0.29109 0.08571 0.32884 0.0
H393 H 0.31164 0.09098 0.30021 0.0
H394 H 0.11018 1.00006 0.27766 0.0
H395 H 0.09144 0.99246 0.30607 0.0
H396 H 0.19966 0.95508 0.25851 0.0
H397 H 0.14157 0.17077 0.28601 0.0
H398 H 0.16357 0.26649 0.30892 0.0
H399 H 0.37163 0.28269 0.29806 0.0
H400 H 0.35095 0.18675 0.27516 0.0
H401 H 0.0403 0.06677 0.18684 0.0
H402 H 0.08161 0.05023 0.21578 0.0
H403 H 0.2922 0.10794 0.21441 0.0
H404 H 0.25081 0.12465 0.18491 0.0
H405 H 0.2364 0.16434 0.24552 0.0
H406 H 0.27608 0.96128 0.21253 0.0
H407 H 0.24638 0.86858 0.189 0.0
H408 H 0.06767 0.82938 0.20989 0.0
H409 H 0.09551 0.92245 0.23339 0.0
C410 C 0.25154 0.06669 0.31771 0.0
C411 C 0.18959 0.03877 0.31965 0.0
C412 C 0.26316 0.06984 0.30136 0.0
C413 C 0.212 0.04676 0.28669 0.0
C414 C 0.15075 1.01796 0.28869 0.0
C415 C 0.13992 1.01365 0.30495 0.0
C416 C 0.21978 0.05394 0.26923 0.0
C417 C 0.20781 1.00087 0.25571 0.0
C418 C 0.23325 0.11313 0.26553 0.0
C419 C 0.24499 0.1714 0.27902 0.0
C420 C 0.19205 0.19472 0.28855 0.0
C421 C 0.20428 0.24897 0.30152 0.0
C422 C 0.26902 0.28056 0.30497 0.0
C423 C 0.32152 0.25817 0.29538 0.0
C424 C 0.30957 0.2039 0.2824 0.0
C425 C 0.09553 0.07608 0.19258 0.0
C426 C 0.14229 0.0971 0.18353 0.0
C427 C 0.1191 0.0663 0.20915 0.0
C428 C 0.19004 0.07728 0.21719 0.0
C429 C 0.23723 0.09897 0.20837 0.0
C430 C 0.21364 0.10827 0.19155 0.0
C431 C 0.21265 0.06616 0.23488 0.0
C432 C 0.23038 0.11828 0.24841 0.0
C433 C 0.20392 1.00619 0.2386 0.0
C434 C 0.18787 0.94906 0.22472 0.0
C435 C 0.23026 0.93308 0.21207 0.0
C436 C 0.21374 0.88045 0.19874 0.0
C437 C 0.15515 0.84314 0.19794 0.0
C438 C 0.11308 0.85829 0.21053 0.0
C439 C 0.1293 0.91093 0.22388 0.0
H440 H 0.14238 0.80248 0.18759 0.0
H441 H 0.27846 0.32246 0.31504 0.0
H442 H 0.06251 0.1571 0.71236 0.0
H443 H 0.05958 0.16595 0.74269 0.0
H444 H 0.25431 0.05847 0.74883 0.0
H445 H 0.25716 0.04904 0.71833 0.0
H446 H 0.16332 1.02039 0.7656 0.0
H447 H 0.25338 0.21972 0.76352 0.0
H448 H 0.25739 0.31838 0.753 0.0
H449 H 0.05616 0.37554 0.76716 0.0
H450 H 0.05043 0.27678 0.77755 0.0
H451 H 0.17589 0.09908 0.85725 0.0
H452 H 0.21195 0.09167 0.82936 0.0
H453 H 1.01618 0.18233 0.81098 0.0
H454 H 0.98018 0.18991 0.8385 0.0
H455 H 0.12959 0.23005 0.80211 0.0
H456 H 0.03478 1.02395 0.80073 0.0
H457 H 0.03116 0.92495 0.81114 0.0
H458 H 0.24503 0.88165 0.80378 0.0
H459 H 0.25019 0.9809 0.79354 0.0
C460 C 0.10509 0.13582 0.72017 0.0
C461 C 0.1604 0.10283 0.71292 0.0
C462 C 0.10338 0.1409 0.73754 0.0
C463 C 0.15746 0.11391 0.74816 0.0
C464 C 0.21213 0.0799 0.74092 0.0
C465 C 0.21361 0.07442 0.72347 0.0
C466 C 0.15601 0.12093 0.76675 0.0
C467 C 0.1574 0.06637 0.77368 0.0
C468 C 0.14783 0.18083 0.77732 0.0
C469 C 0.15129 0.2406 0.77122 0.0
C470 C 0.20977 0.25314 0.7643 0.0
C471 C 0.21237 0.30911 0.75837 0.0
C472 C 0.15702 0.35315 0.75939 0.0
C473 C 0.099 0.34137 0.76638 0.0
C474 C 0.09609 0.28544 0.77231 0.0
C475 C 0.14094 0.11781 0.84728 0.0
C476 C 0.07503 0.14475 0.85006 0.0
C477 C 0.16143 0.11334 0.83135 0.0
C478 C 0.1165 0.13613 0.81804 0.0
C479 C 0.05174 0.1645 0.82103 0.0
C480 C 0.03111 0.1685 0.83679 0.0
C481 C 0.13491 0.1295 0.80077 0.0
C482 C 0.13679 0.18422 0.7941 0.0
C483 C 0.14641 0.06985 0.7905 0.0
C484 C 0.14318 1.01017 0.79658 0.0
C485 C 0.08123 0.99356 0.80147 0.0
C486 C 0.07886 0.93737 0.80731 0.0
C487 C 0.13792 0.89714 0.80818 0.0
C488 C 0.19939 0.91293 0.80315 0.0
C489 C 0.20206 0.96912 0.79732 0.0
H490 H 0.13598 0.85365 0.8127 0.0
H491 H 0.15912 0.39644 0.75479 0.0
loop_
_geom_bond_atom_site_label_1
_geom_bond_atom_site_label_2
_geom_bond_distance
_geom_bond_site_symmetry_2
_ccdc_geom_bond_type
Cu0 N1 1.997 . S
Cu0 O6 1.974 . S
Cu0 N11 1.985 . S
Cu0 O20 1.959 . S
N1 Cu0 1.997 . S
N1 C3 1.264 1_545 S
N1 C5 1.390 1_545 S
N2 C3 1.358 . S
N2 C4 1.400 . S
C3 N1 1.264 1_565 S
C3 N2 1.358 . S
C3 H9 0.930 . S
C4 N2 1.400 . S
C4 C5 1.351 . S
C4 H21 0.930 . S
C5 N1 1.390 1_565 S
C5 C4 1.351 . S
C5 H10 0.930 . S
O6 Cu0 1.974 . S
O6 C16 1.282 . S
C7 O8 1.261 . S
C7 O20 1.251 . S
O8 C7 1.261 . S
H9 C3 0.930 . S
H10 C5 0.930 . S
N11 Cu0 1.985 . S
N11 C13 1.335 . S
N11 C14 1.390 . S
N12 C13 1.345 . S
N12 C15 1.336 . S
C13 N11 1.335 . S
C13 N12 1.345 . S
C13 H18 0.930 . S
C14 N11 1.390 . S
C14 C15 1.346 . S
C14 H19 0.930 . S
C15 N12 1.336 . S
C15 C14 1.346 . S
C15 H22 0.929 . S
C16 O6 1.282 . S
C16 O17 1.216 . S
O17 C16 1.216 . S
H18 C13 0.930 . S
H19 C14 0.930 . S
O20 Cu0 1.959 . S
O20 C7 1.251 . S
H21 C4 0.930 . S
H22 C15 0.929 . S
Cu23 N24 1.999 . S
Cu23 O29 1.974 1_455 S
Cu23 N34 1.985 . S
Cu23 O43 1.959 . S
N24 Cu23 1.999 . S
N24 C26 1.263 . S
N24 C28 1.389 . S
N25 C26 1.358 . S
N25 C27 1.400 . S
C26 N24 1.263 . S
C26 N25 1.358 . S
C26 H32 0.930 1_455 S
C27 N25 1.400 . S
C27 C28 1.351 . S
C27 H44 0.930 . S
C28 N24 1.389 . S
C28 C27 1.351 . S
C28 H33 0.930 . S
O29 Cu23 1.974 1_655 S
O29 C39 1.282 . S
C30 O31 1.261 . S
C30 O43 1.251 . S
O31 C30 1.261 . S
H32 C26 0.930 1_655 S
H33 C28 0.930 . S
N34 Cu23 1.985 . S
N34 C36 1.335 . S
N34 C37 1.390 1_455 S
N35 C36 1.345 . S
N35 C38 1.336 1_455 S
C36 N34 1.335 . S
C36 N35 1.345 . S
C36 H41 0.930 . S
C37 N34 1.390 1_655 S
C37 C38 1.346 . S
C37 H42 0.930 . S
C38 N35 1.336 1_655 S
C38 C37 1.346 . S
C38 H45 0.929 . S
C39 O29 1.282 . S
C39 O40 1.216 . S
O40 C39 1.216 . S
H41 C36 0.930 . S
H42 C37 0.930 . S
O43 Cu23 1.959 . S
O43 C30 1.251 . S
H44 C27 0.930 . S
H45 C38 0.929 . S
Cu46 N47 1.999 . S
Cu46 O52 1.974 . S
Cu46 N57 1.985 . S
Cu46 O66 1.959 . S
N47 Cu46 1.999 . S
N47 C49 1.263 . S
N47 C51 1.389 . S
N48 C49 1.358 1_565 S
N48 C50 1.400 . S
C49 N47 1.263 . S
C49 N48 1.358 1_545 S
C49 H55 0.930 1_455 S
C50 N48 1.400 . S
C50 C51 1.351 1_565 S
C50 H67 0.930 . S
C51 N47 1.389 . S
C51 C50 1.351 1_545 S
C51 H56 0.930 . S
O52 Cu46 1.974 . S
O52 C62 1.282 1_455 S
C53 O54 1.261 . S
C53 O66 1.251 1_655 S
O54 C53 1.261 . S
H55 C49 0.930 1_655 S
H56 C51 0.930 . S
N57 Cu46 1.985 . S
N57 C59 1.335 . S
N57 C60 1.390 1_455 S
N58 C59 1.345 . S
N58 C61 1.336 1_455 S
C59 N57 1.335 . S
C59 N58 1.345 . S
C59 H64 0.930 . S
C60 N57 1.390 1_655 S
C60 C61 1.346 . S
C60 H65 0.930 . S
C61 N58 1.336 1_655 S
C61 C60 1.346 . S
C61 H68 0.929 . S
C62 O52 1.282 1_655 S
C62 O63 1.216 . S
O63 C62 1.216 . S
H64 C59 0.930 . S
H65 C60 0.930 . S
O66 Cu46 1.959 . S
O66 C53 1.251 1_455 S
H67 C50 0.930 . S
H68 C61 0.929 . S
Cu69 N70 1.999 . S
Cu69 O75 1.974 . S
Cu69 N80 1.985 . S
Cu69 O89 1.959 . S
N70 Cu69 1.999 . S
N70 C72 1.263 . S
N70 C74 1.389 . S
N71 C72 1.358 . S
N71 C73 1.400 . S
C72 N70 1.263 . S
C72 N71 1.358 . S
C72 H78 0.930 . S
C73 N71 1.400 . S
C73 C74 1.351 . S
C73 H90 0.930 . S
C74 N70 1.389 . S
C74 C73 1.351 . S
C74 H79 0.930 . S
O75 Cu69 1.974 . S
O75 C85 1.282 . S
C76 O77 1.261 1_645 S
C76 O89 1.251 1_655 S
O77 C76 1.261 1_465 S
H78 C72 0.930 . S
H79 C74 0.930 . S
N80 Cu69 1.985 . S
N80 C82 1.335 . S
N80 C83 1.390 . S
N81 C82 1.345 . S
N81 C84 1.336 . S
C82 N80 1.335 . S
C82 N81 1.345 . S
C82 H87 0.930 . S
C83 N80 1.390 . S
C83 C84 1.346 . S
C83 H88 0.930 . S
C84 N81 1.336 . S
C84 C83 1.346 . S
C84 H91 0.929 . S
C85 O75 1.282 . S
C85 O86 1.216 1_545 S
O86 C85 1.216 1_565 S
H87 C82 0.930 . S
H88 C83 0.930 . S
O89 Cu69 1.959 . S
O89 C76 1.251 1_455 S
H90 C73 0.930 . S
H91 C84 0.929 . S
H92 C110 0.951 . S
H93 C112 0.951 . S
H94 C114 0.950 . S
H95 C115 0.950 . S
H96 C117 0.950 . S
H97 C120 0.950 . S
H98 C121 0.950 . S
H99 C123 0.950 . S
H100 C124 0.950 . S
H101 C125 0.951 . S
H102 C127 0.951 . S
H103 C129 0.950 . S
H104 C130 0.950 . S
H105 C132 0.950 . S
H106 C135 0.950 . S
H107 C136 0.950 . S
H108 C138 0.950 . S
H109 C139 0.950 . S
C110 H92 0.951 . S
C110 C111 1.366 . S
C110 C112 1.388 . S
C111 C110 1.366 . S
C111 C115 1.385 . S
C112 H93 0.951 . S
C112 C110 1.388 . S
C112 C113 1.366 . S
C113 C112 1.366 . S
C113 C114 1.414 . S
C113 C116 1.499 . S
C114 H94 0.950 . S
C114 C113 1.414 . S
C114 C115 1.374 . S
C115 H95 0.950 . S
C115 C111 1.385 . S
C115 C114 1.374 . S
C116 C113 1.499 . S
C116 C117 1.373 . S
C116 C118 1.389 . S
C117 H96 0.950 . S
C117 C116 1.373 . S
C117 C133 1.377 . S
C118 C116 1.389 . S
C118 C119 1.524 . S
C118 C132 1.377 . S
C119 C118 1.524 . S
C119 C120 1.397 . S
C119 C124 1.363 . S
C120 H97 0.950 . S
C120 C119 1.397 . S
C120 C121 1.334 . S
C121 H98 0.950 . S
C121 C120 1.334 . S
C121 C122 1.287 . S
C122 C121 1.287 . S
C122 C123 1.524 . S
C122 H141 0.913 . S
C123 H99 0.950 . S
C123 C122 1.524 . S
C123 C124 1.415 . S
C124 H100 0.950 . S
C124 C119 1.363 . S
C124 C123 1.415 . S
C125 H101 0.951 . S
C125 C126 1.366 . S
C125 C127 1.388 . S
C126 C125 1.366 . S
C126 C130 1.385 . S
C127 H102 0.951 . S
C127 C125 1.388 . S
C127 C128 1.366 . S
C128 C127 1.366 . S
C128 C129 1.414 . S
C128 C131 1.499 . S
C129 H103 0.950 . S
C129 C128 1.414 . S
C129 C130 1.374 . S
C130 H104 0.950 . S
C130 C126 1.385 . S
C130 C129 1.374 . S
C131 C128 1.499 . S
C131 C132 1.373 . S
C131 C133 1.389 . S
C132 H105 0.950 . S
C132 C118 1.377 . S
C132 C131 1.373 . S
C133 C117 1.377 . S
C133 C131 1.389 . S
C133 C134 1.524 . S
C134 C133 1.524 . S
C134 C135 1.397 . S
C134 C139 1.363 . S
C135 H106 0.950 . S
C135 C134 1.397 . S
C135 C136 1.334 1_455 S
C136 H107 0.950 . S
C136 C135 1.334 1_655 S
C136 C137 1.287 . S
C137 C136 1.287 . S
C137 C138 1.524 . S
C137 H140 0.999 . S
C138 H108 0.950 . S
C138 C137 1.524 . S
C138 C139 1.415 1_655 S
C139 H109 0.950 . S
C139 C134 1.363 . S
C139 C138 1.415 1_455 S
H140 C137 0.999 . S
H141 C122 0.913 . S
H142 C160 0.951 . S
H143 C162 0.951 . S
H144 C164 0.950 . S
H145 C165 0.950 . S
H146 C167 0.950 . S
H147 C170 0.950 . S
H148 C171 0.950 . S
H149 C173 0.950 . S
H150 C174 0.950 1_565 S
H151 C175 0.951 . S
H152 C177 0.951 . S
H153 C179 0.950 . S
H154 C180 0.950 . S
H155 C182 0.950 . S
H156 C185 0.950 . S
H157 C186 0.950 . S
H158 C188 0.950 . S
H159 C189 0.950 . S
C160 H142 0.951 . S
C160 C161 1.366 . S
C160 C162 1.388 . S
C161 C160 1.366 . S
C161 C165 1.385 . S
C162 H143 0.951 . S
C162 C160 1.388 . S
C162 C163 1.366 . S
C163 C162 1.366 . S
C163 C164 1.414 . S
C163 C166 1.499 . S
C164 H144 0.950 . S
C164 C163 1.414 . S
C164 C165 1.374 . S
C165 H145 0.950 . S
C165 C161 1.385 . S
C165 C164 1.374 . S
C166 C163 1.499 . S
C166 C167 1.373 . S
C166 C168 1.389 . S
C167 H146 0.950 . S
C167 C166 1.373 . S
C167 C183 1.377 . S
C168 C166 1.389 . S
C168 C169 1.524 . S
C168 C182 1.377 . S
C169 C168 1.524 . S
C169 C170 1.397 . S
C169 C174 1.363 . S
C170 H147 0.950 . S
C170 C169 1.397 . S
C170 C171 1.334 . S
C171 H148 0.950 . S
C171 C170 1.334 . S
C171 C172 1.287 . S
C172 C171 1.287 . S
C172 C173 1.524 1_545 S
C172 H191 0.921 . S
C173 H149 0.950 . S
C173 C172 1.524 1_565 S
C173 C174 1.415 1_565 S
C174 H150 0.950 1_545 S
C174 C169 1.363 . S
C174 C173 1.415 1_545 S
C175 H151 0.951 . S
C175 C176 1.366 . S
C175 C177 1.388 . S
C176 C175 1.366 . S
C176 C180 1.385 . S
C177 H152 0.951 . S
C177 C175 1.388 . S
C177 C178 1.366 . S
C178 C177 1.366 . S
C178 C179 1.414 . S
C178 C181 1.499 . S
C179 H153 0.950 . S
C179 C178 1.414 . S
C179 C180 1.374 . S
C180 H154 0.950 . S
C180 C176 1.385 . S
C180 C179 1.374 . S
C181 C178 1.499 . S
C181 C182 1.373 . S
C181 C183 1.389 . S
C182 H155 0.950 . S
C182 C168 1.377 . S
C182 C181 1.373 . S
C183 C167 1.377 . S
C183 C181 1.389 . S
C183 C184 1.524 . S
C184 C183 1.524 . S
C184 C185 1.397 . S
C184 C189 1.363 . S
C185 H156 0.950 . S
C185 C184 1.397 . S
C185 C186 1.334 . S
C186 H157 0.950 . S
C186 C185 1.334 . S
C186 C187 1.287 . S
C187 C186 1.287 . S
C187 C188 1.524 . S
C187 H190 0.999 . S
C188 H158 0.950 . S
C188 C187 1.524 . S
C188 C189 1.415 . S
C189 H159 0.950 . S
C189 C184 1.363 . S
C189 C188 1.415 . S
H190 C187 0.999 . S
H191 C172 0.921 . S
H192 C210 0.951 . S
H193 C212 0.951 . S
H194 C214 0.950 . S
H195 C215 0.950 . S
H196 C217 0.950 . S
H197 C220 0.950 . S
H198 C221 0.950 . S
H199 C223 0.950 . S
H200 C224 0.950 . S
H201 C225 0.951 . S
H202 C227 0.951 . S
H203 C229 0.950 . S
H204 C230 0.950 . S
H205 C232 0.950 . S
H206 C235 0.950 . S
H207 C236 0.950 . S
H208 C238 0.950 . S
H209 C239 0.950 . S
C210 H192 0.951 . S
C210 C211 1.366 . S
C210 C212 1.388 . S
C211 C210 1.366 . S
C211 C215 1.385 . S
C212 H193 0.951 . S
C212 C210 1.388 . S
C212 C213 1.366 . S
C213 C212 1.366 . S
C213 C214 1.414 . S
C213 C216 1.499 . S
C214 H194 0.950 . S
C214 C213 1.414 . S
C214 C215 1.374 . S
C215 H195 0.950 . S
C215 C211 1.385 . S
C215 C214 1.374 . S
C216 C213 1.499 . S
C216 C217 1.373 . S
C216 C218 1.389 1_455 S
C217 H196 0.950 . S
C217 C216 1.373 . S
C217 C233 1.377 . S
C218 C216 1.389 1_655 S
C218 C219 1.524 . S
C218 C232 1.377 . S
C219 C218 1.524 . S
C219 C220 1.397 . S
C219 C224 1.363 . S
C220 H197 0.950 . S
C220 C219 1.397 . S
C220 C221 1.334 . S
C221 H198 0.950 . S
C221 C220 1.334 . S
C221 C222 1.287 . S
C222 C221 1.287 . S
C222 C223 1.524 . S
C222 H241 0.913 . S
C223 H199 0.950 . S
C223 C222 1.524 . S
C223 C224 1.415 . S
C224 H200 0.950 . S
C224 C219 1.363 . S
C224 C223 1.415 . S
C225 H201 0.951 . S
C225 C226 1.366 . S
C225 C227 1.388 . S
C226 C225 1.366 . S
C226 C230 1.385 . S
C227 H202 0.951 . S
C227 C225 1.388 . S
C227 C228 1.366 . S
C228 C227 1.366 . S
C228 C229 1.414 . S
C228 C231 1.499 . S
C229 H203 0.950 . S
C229 C228 1.414 . S
C229 C230 1.374 . S
C230 H204 0.950 . S
C230 C226 1.385 . S
C230 C229 1.374 . S
C231 C228 1.499 . S
C231 C232 1.373 1_455 S
C231 C233 1.389 . S
C232 H205 0.950 . S
C232 C218 1.377 . S
C232 C231 1.373 1_655 S
C233 C217 1.377 . S
C233 C231 1.389 . S
C233 C234 1.524 . S
C234 C233 1.524 . S
C234 C235 1.397 . S
C234 C239 1.363 . S
C235 H206 0.950 . S
C235 C234 1.397 . S
C235 C236 1.334 . S
C236 H207 0.950 . S
C236 C235 1.334 . S
C236 C237 1.287 . S
C237 C236 1.287 . S
C237 C238 1.524 . S
C237 H240 0.999 . S
C238 H208 0.950 . S
C238 C237 1.524 . S
C238 C239 1.415 . S
C239 H209 0.950 . S
C239 C234 1.363 . S
C239 C238 1.415 . S
H240 C237 0.999 . S
H241 C222 0.913 . S
H242 C260 0.951 . S
H243 C262 0.951 . S
H244 C264 0.950 . S
H245 C265 0.950 . S
H246 C267 0.950 . S
H247 C270 0.950 . S
H248 C271 0.950 . S
H249 C273 0.950 . S
H250 C274 0.950 . S
H251 C275 0.951 . S
H252 C277 0.951 . S
H253 C279 0.950 . S
H254 C280 0.950 . S
H255 C282 0.950 . S
H256 C285 0.950 . S
H257 C286 0.950 . S
H258 C288 0.950 . S
H259 C289 0.950 1_565 S
C260 H242 0.951 . S
C260 C261 1.366 . S
C260 C262 1.388 . S
C261 C260 1.366 . S
C261 C265 1.385 1_545 S
C262 H243 0.951 . S
C262 C260 1.388 . S
C262 C263 1.366 . S
C263 C262 1.366 . S
C263 C264 1.414 1_545 S
C263 C266 1.499 . S
C264 H244 0.950 . S
C264 C263 1.414 1_565 S
C264 C265 1.374 . S
C265 H245 0.950 . S
C265 C261 1.385 1_565 S
C265 C264 1.374 . S
C266 C263 1.499 . S
C266 C267 1.373 . S
C266 C268 1.389 . S
C267 H246 0.950 . S
C267 C266 1.373 . S
C267 C283 1.377 . S
C268 C266 1.389 . S
C268 C269 1.524 . S
C268 C282 1.377 . S
C269 C268 1.524 . S
C269 C270 1.397 1_545 S
C269 C274 1.363 . S
C270 H247 0.950 . S
C270 C269 1.397 1_565 S
C270 C271 1.334 . S
C271 H248 0.950 . S
C271 C270 1.334 . S
C271 C272 1.287 . S
C272 C271 1.287 . S
C272 C273 1.524 1_565 S
C272 H291 0.913 . S
C273 H249 0.950 . S
C273 C272 1.524 1_545 S
C273 C274 1.415 . S
C274 H250 0.950 . S
C274 C269 1.363 . S
C274 C273 1.415 . S
C275 H251 0.951 . S
C275 C276 1.366 1_565 S
C275 C277 1.388 . S
C276 C275 1.366 1_545 S
C276 C280 1.385 . S
C277 H252 0.951 . S
C277 C275 1.388 . S
C277 C278 1.366 1_565 S
C278 C277 1.366 1_545 S
C278 C279 1.414 . S
C278 C281 1.499 . S
C279 H253 0.950 . S
C279 C278 1.414 . S
C279 C280 1.374 . S
C280 H254 0.950 . S
C280 C276 1.385 . S
C280 C279 1.374 . S
C281 C278 1.499 . S
C281 C282 1.373 . S
C281 C283 1.389 . S
C282 H255 0.950 . S
C282 C268 1.377 . S
C282 C281 1.373 . S
C283 C267 1.377 . S
C283 C281 1.389 . S
C283 C284 1.524 . S
C284 C283 1.524 . S
C284 C285 1.397 . S
C284 C289 1.363 . S
C285 H256 0.950 . S
C285 C284 1.397 . S
C285 C286 1.334 . S
C286 H257 0.950 . S
C286 C285 1.334 . S
C286 C287 1.287 . S
C287 C286 1.287 . S
C287 C288 1.524 . S
C287 H290 0.999 . S
C288 H258 0.950 . S
C288 C287 1.524 . S
C288 C289 1.415 . S
C289 H259 0.950 1_545 S
C289 C284 1.363 . S
C289 C288 1.415 . S
H290 C287 0.999 . S
H291 C272 0.913 . S
H292 C310 0.951 . S
H293 C312 0.953 . S
H294 C314 0.950 . S
H295 C315 0.950 . S
H296 C317 0.950 . S
H297 C320 0.950 . S
H298 C321 0.950 . S
H299 C323 0.955 . S
H300 C324 0.950 . S
H301 C325 0.951 . S
H302 C327 0.951 . S
H303 C329 0.950 . S
H304 C330 0.950 . S
H305 C332 0.950 . S
H306 C335 0.950 . S
H307 C336 0.950 . S
H308 C338 0.950 . S
H309 C339 0.950 1_556 S
C310 H292 0.951 . S
C310 C311 1.366 1_655 S
C310 C312 1.388 . S
C311 C310 1.366 1_455 S
C311 C315 1.385 . S
C312 H293 0.953 . S
C312 C310 1.388 . S
C312 C313 1.363 1_655 S
C313 C312 1.363 1_455 S
C313 C314 1.414 . S
C313 C316 1.499 . S
C314 H294 0.950 . S
C314 C313 1.414 . S
C314 C315 1.374 . S
C315 H295 0.950 . S
C315 C311 1.385 . S
C315 C314 1.374 . S
C316 C313 1.499 . S
C316 C317 1.373 . S
C316 C318 1.420 . S
C317 H296 0.950 . S
C317 C316 1.373 . S
C317 C333 1.377 1_556 S
C318 C316 1.420 . S
C318 C319 1.553 . S
C318 C332 1.317 1_556 S
C319 C318 1.553 . S
C319 C320 1.397 . S
C319 C324 1.363 1_556 S
C320 H297 0.950 . S
C320 C319 1.397 . S
C320 C321 1.334 . S
C321 H298 0.950 . S
C321 C320 1.334 . S
C321 C322 1.287 . S
C322 C321 1.287 . S
C322 C323 1.509 1_556 S
C322 H341 0.913 . S
C323 H299 0.955 . S
C323 C322 1.509 1_554 S
C323 C324 1.424 . S
C324 H300 0.950 . S
C324 C319 1.363 1_554 S
C324 C323 1.424 . S
C325 H301 0.951 . S
C325 C326 1.366 . S
C325 C327 1.388 . S
C326 C325 1.366 . S
C326 C330 1.385 . S
C327 H302 0.951 . S
C327 C325 1.388 . S
C327 C328 1.366 . S
C328 C327 1.366 . S
C328 C329 1.414 . S
C328 C331 1.499 . S
C329 H303 0.950 . S
C329 C328 1.414 . S
C329 C330 1.374 . S
C330 H304 0.950 . S
C330 C326 1.385 . S
C330 C329 1.374 . S
C331 C328 1.499 . S
C331 C332 1.373 . S
C331 C333 1.389 . S
C332 H305 0.950 . S
C332 C318 1.317 1_554 S
C332 C331 1.373 . S
C333 C317 1.377 1_554 S
C333 C331 1.389 . S
C333 C334 1.524 1_545 S
C334 C333 1.524 1_565 S
C334 C335 1.397 1_465 S
C334 C339 1.363 . S
C335 H306 0.950 . S
C335 C334 1.397 1_645 S
C335 C336 1.334 1_545 S
C336 H307 0.950 . S
C336 C335 1.334 1_565 S
C336 C337 1.287 . S
C337 C336 1.287 . S
C337 C338 1.524 1_655 S
C337 H340 0.999 . S
C338 H308 0.950 . S
C338 C337 1.524 1_455 S
C338 C339 1.415 . S
C339 H309 0.950 1_554 S
C339 C334 1.363 . S
C339 C338 1.415 . S
H340 C337 0.999 . S
H341 C322 0.913 . S
H342 C360 0.951 1_565 S
H343 C362 0.951 . S
H344 C364 0.950 . S
H345 C365 0.950 . S
H346 C367 0.950 . S
H347 C370 0.950 . S
H348 C371 0.950 . S
H349 C373 0.950 . S
H350 C374 0.950 1_455 S
H351 C375 0.951 . S
H352 C377 0.951 . S
H353 C379 0.950 . S
H354 C380 0.950 . S
H355 C382 0.950 . S
H356 C385 0.950 . S
H357 C386 0.950 . S
H358 C388 0.950 . S
H359 C389 0.950 . S
C360 H342 0.951 1_545 S
C360 C361 1.366 . S
C360 C362 1.388 . S
C361 C360 1.366 . S
C361 C365 1.385 . S
C362 H343 0.951 . S
C362 C360 1.388 . S
C362 C363 1.366 . S
C363 C362 1.366 . S
C363 C364 1.414 . S
C363 C366 1.499 . S
C364 H344 0.950 . S
C364 C363 1.414 . S
C364 C365 1.374 . S
C365 H345 0.950 . S
C365 C361 1.385 . S
C365 C364 1.374 . S
C366 C363 1.499 . S
C366 C367 1.373 . S
C366 C368 1.389 . S
C367 H346 0.950 . S
C367 C366 1.373 . S
C367 C383 1.377 . S
C368 C366 1.389 . S
C368 C369 1.524 1_455 S
C368 C382 1.377 . S
C369 C368 1.524 1_655 S
C369 C370 1.397 . S
C369 C374 1.363 1_545 S
C370 H347 0.950 . S
C370 C369 1.397 . S
C370 C371 1.334 . S
C371 H348 0.950 . S
C371 C370 1.334 . S
C371 C372 1.287 1_545 S
C372 C371 1.287 1_565 S
C372 C373 1.524 . S
C372 H391 0.913 . S
C373 H349 0.950 . S
C373 C372 1.524 . S
C373 C374 1.415 . S
C374 H350 0.950 1_655 S
C374 C369 1.363 1_565 S
C374 C373 1.415 . S
C375 H351 0.951 . S
C375 C376 1.366 . S
C375 C377 1.388 . S
C376 C375 1.366 . S
C376 C380 1.385 . S
C377 H352 0.951 . S
C377 C375 1.388 . S
C377 C378 1.366 . S
C378 C377 1.366 . S
C378 C379 1.414 . S
C378 C381 1.499 . S
C379 H353 0.950 . S
C379 C378 1.414 . S
C379 C380 1.374 . S
C380 H354 0.950 . S
C380 C376 1.385 . S
C380 C379 1.374 . S
C381 C378 1.499 . S
C381 C382 1.373 . S
C381 C383 1.389 . S
C382 H355 0.950 . S
C382 C368 1.377 . S
C382 C381 1.373 . S
C383 C367 1.377 . S
C383 C381 1.389 . S
C383 C384 1.524 . S
C384 C383 1.524 . S
C384 C385 1.397 . S
C384 C389 1.363 . S
C385 H356 0.950 . S
C385 C384 1.397 . S
C385 C386 1.334 . S
C386 H357 0.950 . S
C386 C385 1.334 . S
C386 C387 1.287 . S
C387 C386 1.287 . S
C387 C388 1.524 . S
C387 H390 0.999 . S
C388 H358 0.950 . S
C388 C387 1.524 . S
C388 C389 1.415 . S
C389 H359 0.950 . S
C389 C384 1.363 . S
C389 C388 1.415 . S
H390 C387 0.999 . S
H391 C372 0.913 . S
H392 C410 0.951 . S
H393 C412 0.951 . S
H394 C414 0.950 . S
H395 C415 0.950 . S
H396 C417 0.950 1_565 S
H397 C420 0.950 . S
H398 C421 0.950 . S
H399 C423 0.950 . S
H400 C424 0.950 . S
H401 C425 0.951 . S
H402 C427 0.951 . S
H403 C429 0.950 . S
H404 C430 0.950 . S
H405 C432 0.950 . S
H406 C435 0.950 . S
H407 C436 0.950 . S
H408 C438 0.950 . S
H409 C439 0.950 . S
C410 H392 0.951 . S
C410 C411 1.366 . S
C410 C412 1.388 . S
C411 C410 1.366 . S
C411 C415 1.385 . S
C412 H393 0.951 . S
C412 C410 1.388 . S
C412 C413 1.366 . S
C413 C412 1.366 . S
C413 C414 1.414 . S
C413 C416 1.499 . S
C414 H394 0.950 . S
C414 C413 1.414 . S
C414 C415 1.374 . S
C415 H395 0.950 . S
C415 C411 1.385 . S
C415 C414 1.374 . S
C416 C413 1.499 . S
C416 C417 1.373 . S
C416 C418 1.389 . S
C417 H396 0.950 1_545 S
C417 C416 1.373 . S
C417 C433 1.377 . S
C418 C416 1.389 . S
C418 C419 1.524 . S
C418 C432 1.377 . S
C419 C418 1.524 . S
C419 C420 1.397 . S
C419 C424 1.363 . S
C420 H397 0.950 . S
C420 C419 1.397 . S
C420 C421 1.334 . S
C421 H398 0.950 . S
C421 C420 1.334 . S
C421 C422 1.287 . S
C422 C421 1.287 . S
C422 C423 1.524 . S
C422 H441 0.913 . S
C423 H399 0.950 . S
C423 C422 1.524 . S
C423 C424 1.415 . S
C424 H400 0.950 . S
C424 C419 1.363 . S
C424 C423 1.415 . S
C425 H401 0.951 . S
C425 C426 1.366 . S
C425 C427 1.388 . S
C426 C425 1.366 . S
C426 C430 1.385 . S
C427 H402 0.951 . S
C427 C425 1.388 . S
C427 C428 1.366 . S
C428 C427 1.366 . S
C428 C429 1.414 . S
C428 C431 1.499 . S
C429 H403 0.950 . S
C429 C428 1.414 . S
C429 C430 1.374 . S
C430 H404 0.950 . S
C430 C426 1.385 . S
C430 C429 1.374 . S
C431 C428 1.499 . S
C431 C432 1.373 . S
C431 C433 1.389 . S
C432 H405 0.950 . S
C432 C418 1.377 . S
C432 C431 1.373 . S
C433 C417 1.377 . S
C433 C431 1.389 . S
C433 C434 1.524 1_545 S
C434 C433 1.524 1_565 S
C434 C435 1.397 . S
C434 C439 1.363 . S
C435 H406 0.950 . S
C435 C434 1.397 . S
C435 C436 1.334 . S
C436 H407 0.950 . S
C436 C435 1.334 . S
C436 C437 1.287 . S
C437 C436 1.287 . S
C437 C438 1.524 . S
C437 H440 0.999 . S
C438 H408 0.950 . S
C438 C437 1.524 . S
C438 C439 1.415 . S
C439 H409 0.950 . S
C439 C434 1.363 . S
C439 C438 1.415 . S
H440 C437 0.999 . S
H441 C422 0.913 . S
H442 C460 0.951 . S
H443 C462 0.951 . S
H444 C464 0.950 . S
H445 C465 0.950 . S
H446 C467 0.950 . S
H447 C470 0.950 1_455 S
H448 C471 0.950 1_455 S
H449 C473 0.950 . S
H450 C474 0.950 . S
H451 C475 0.951 . S
H452 C477 0.951 . S
H453 C479 0.950 . S
H454 C480 0.950 . S
H455 C482 0.950 . S
H456 C485 0.950 1_655 S
H457 C486 0.950 . S
H458 C488 0.950 . S
H459 C489 0.950 . S
C460 H442 0.951 . S
C460 C461 1.366 1_655 S
C460 C462 1.388 . S
C461 C460 1.366 1_455 S
C461 C465 1.385 . S
C462 H443 0.951 . S
C462 C460 1.388 . S
C462 C463 1.366 1_655 S
C463 C462 1.366 1_455 S
C463 C464 1.414 . S
C463 C466 1.499 . S
C464 H444 0.950 . S
C464 C463 1.414 . S
C464 C465 1.374 . S
C465 H445 0.950 . S
C465 C461 1.385 . S
C465 C464 1.374 . S
C466 C463 1.499 . S
C466 C467 1.373 . S
C466 C468 1.389 1_455 S
C467 H446 0.950 . S
C467 C466 1.373 . S
C467 C483 1.377 . S
C468 C466 1.389 1_655 S
C468 C469 1.524 . S
C468 C482 1.377 . S
C469 C468 1.524 . S
C469 C470 1.397 . S
C469 C474 1.363 . S
C470 H447 0.950 1_655 S
C470 C469 1.397 . S
C470 C471 1.334 . S
C471 H448 0.950 1_655 S
C471 C470 1.334 . S
C471 C472 1.287 . S
C472 C471 1.287 . S
C472 C473 1.524 . S
C472 H491 0.913 . S
C473 H449 0.950 . S
C473 C472 1.524 . S
C473 C474 1.415 . S
C474 H450 0.950 . S
C474 C469 1.363 . S
C474 C473 1.415 . S
C475 H451 0.951 . S
C475 C476 1.366 1_455 S
C475 C477 1.388 . S
C476 C475 1.366 1_655 S
C476 C480 1.385 . S
C477 H452 0.951 . S
C477 C475 1.388 . S
C477 C478 1.366 1_455 S
C478 C477 1.366 1_655 S
C478 C479 1.414 . S
C478 C481 1.499 . S
C479 H453 0.950 . S
C479 C478 1.414 . S
C479 C480 1.374 . S
C480 H454 0.950 . S
C480 C476 1.385 . S
C480 C479 1.374 . S
C481 C478 1.499 . S
C481 C482 1.373 . S
C481 C483 1.389 1_655 S
C482 H455 0.950 . S
C482 C468 1.377 . S
C482 C481 1.373 . S
C483 C467 1.377 . S
C483 C481 1.389 1_455 S
C483 C484 1.524 . S
C484 C483 1.524 . S
C484 C485 1.397 . S
C484 C489 1.363 . S
C485 H456 0.950 1_455 S
C485 C484 1.397 . S
C485 C486 1.334 1_545 S
C486 H457 0.950 . S
C486 C485 1.334 1_565 S
C486 C487 1.287 . S
C487 C486 1.287 . S
C487 C488 1.524 . S
C487 H490 0.999 . S
C488 H458 0.950 . S
C488 C487 1.524 . S
C488 C489 1.415 1_565 S
C489 H459 0.950 . S
C489 C484 1.363 . S
C489 C488 1.415 1_545 S
H490 C487 0.999 . S
H491 C472 0.913 . S
C111 N12 1.458 . S
C126 N2 1.455 . S
C161 C30 1.480 . S
C176 C39 1.473 . S
C211 N58 1.457 . S
C226 N48 1.455 . S
C261 C85 1.473 . S
C276 C76 1.480 . S
C311 C62 1.551 1_455 S
C326 C7 1.547 . S
C361 N81 1.504 . S
C376 N35 1.491 . S
C411 N71 1.452 . S
C426 C16 1.484 . S
C461 N25 1.563 . S
C476 C53 1.578 . S
