# Generated by pormake.
# Topology ukc, (4)-cn, num edge types: 1
# Building blocks:
#     Node 0, Type 0, BuildingBlock: AZAVOO_clean_sbu_0, # of connection points: 4
#     Node 1, Type 0, BuildingBlock: AZAVOO_clean_sbu_0, # of connection points: 4
#     Node 2, Type 0, BuildingBlock: AZAVOO_clean_sbu_0, # of connection points: 4
#     Node 3, Type 0, BuildingBlock: AZAVOO_clean_sbu_0, # of connection points: 4
#     Node 4, Type 0, BuildingBlock: AZAVOO_clean_sbu_0, # of connection points: 4
#     Node 5, Type 0, BuildingBlock: AZAVOO_clean_sbu_0, # of connection points: 4
#     Node 6, Type 0, BuildingBlock: AZAVOO_clean_sbu_0, # of connection points: 4
#     Node 7, Type 0, BuildingBlock: AZAVOO_clean_sbu_0, # of connection points: 4
#     Node 8, Type 0, BuildingBlock: AZAVOO_clean_sbu_0, # of connection points: 4
#     Node 9, Type 0, BuildingBlock: AZAVOO_clean_sbu_0, # of connection points: 4
#     Node 10, Type 0, BuildingBlock: AZAVOO_clean_sbu_0, # of connection points: 4
#     Node 11, Type 0, BuildingBlock: AZAVOO_clean_sbu_0, # of connection points: 4
#     Node 12, Type 0, BuildingBlock: AZAVOO_clean_sbu_0, # of connection points: 4
#     Node 13, Type 0, BuildingBlock: AZAVOO_clean_sbu_0, # of connection points: 4
#     Node 14, Type 0, BuildingBlock: AZAVOO_clean_sbu_0, # of connection points: 4
#     Node 15, Type 0, BuildingBlock: AZAVOO_clean_sbu_0, # of connection points: 4
#     Node 16, Type 0, BuildingBlock: AZAVOO_clean_sbu_0, # of connection points: 4
#     Node 17, Type 0, BuildingBlock: AZAVOO_clean_sbu_0, # of connection points: 4
#     Node 18, Type 0, BuildingBlock: AZAVOO_clean_sbu_0, # of connection points: 4
#     Node 19, Type 0, BuildingBlock: AZAVOO_clean_sbu_0, # of connection points: 4
#     Node 20, Type 0, BuildingBlock: AZAVOO_clean_sbu_0, # of connection points: 4
#     Node 21, Type 0, BuildingBlock: AZAVOO_clean_sbu_0, # of connection points: 4
#     Node 22, Type 0, BuildingBlock: AZAVOO_clean_sbu_0, # of connection points: 4
#     Node 23, Type 0, BuildingBlock: AZAVOO_clean_sbu_0, # of connection points: 4
#     Node 24, Type 0, BuildingBlock: AZAVOO_clean_sbu_0, # of connection points: 4
#     Node 25, Type 0, BuildingBlock: AZAVOO_clean_sbu_0, # of connection points: 4
#     Node 26, Type 0, BuildingBlock: AZAVOO_clean_sbu_0, # of connection points: 4
#     Node 27, Type 0, BuildingBlock: AZAVOO_clean_sbu_0, # of connection points: 4
#     Node 28, Type 0, BuildingBlock: AZAVOO_clean_sbu_0, # of connection points: 4
#     Node 29, Type 0, BuildingBlock: AZAVOO_clean_sbu_0, # of connection points: 4
#     Node 30, Type 0, BuildingBlock: AZAVOO_clean_sbu_0, # of connection points: 4
#     Node 31, Type 0, BuildingBlock: AZAVOO_clean_sbu_0, # of connection points: 4
#     Edge 32, Type (0, 0), BuildingBlock: XUDNAN_clean_linker_2, # of connection points: 2
#     Edge 33, Type (0, 0), BuildingBlock: XUDNAN_clean_linker_2, # of connection points: 2
#     Edge 34, Type (0, 0), BuildingBlock: XUDNAN_clean_linker_2, # of connection points: 2
#     Edge 35, Type (0, 0), BuildingBlock: XUDNAN_clean_linker_2, # of connection points: 2
#     Edge 36, Type (0, 0), BuildingBlock: XUDNAN_clean_linker_2, # of connection points: 2
#     Edge 37, Type (0, 0), BuildingBlock: XUDNAN_clean_linker_2, # of connection points: 2
#     Edge 38, Type (0, 0), BuildingBlock: XUDNAN_clean_linker_2, # of connection points: 2
#     Edge 39, Type (0, 0), BuildingBlock: XUDNAN_clean_linker_2, # of connection points: 2
#     Edge 40, Type (0, 0), BuildingBlock: XUDNAN_clean_linker_2, # of connection points: 2
#     Edge 41, Type (0, 0), BuildingBlock: XUDNAN_clean_linker_2, # of connection points: 2
#     Edge 42, Type (0, 0), BuildingBlock: XUDNAN_clean_linker_2, # of connection points: 2
#     Edge 43, Type (0, 0), BuildingBlock: XUDNAN_clean_linker_2, # of connection points: 2
#     Edge 44, Type (0, 0), BuildingBlock: XUDNAN_clean_linker_2, # of connection points: 2
#     Edge 45, Type (0, 0), BuildingBlock: XUDNAN_clean_linker_2, # of connection points: 2
#     Edge 46, Type (0, 0), BuildingBlock: XUDNAN_clean_linker_2, # of connection points: 2
#     Edge 47, Type (0, 0), BuildingBlock: XUDNAN_clean_linker_2, # of connection points: 2
#     Edge 48, Type (0, 0), BuildingBlock: XUDNAN_clean_linker_2, # of connection points: 2
#     Edge 49, Type (0, 0), BuildingBlock: XUDNAN_clean_linker_2, # of connection points: 2
#     Edge 50, Type (0, 0), BuildingBlock: XUDNAN_clean_linker_2, # of connection points: 2
#     Edge 51, Type (0, 0), BuildingBlock: XUDNAN_clean_linker_2, # of connection points: 2
#     Edge 52, Type (0, 0), BuildingBlock: XUDNAN_clean_linker_2, # of connection points: 2
#     Edge 53, Type (0, 0), BuildingBlock: XUDNAN_clean_linker_2, # of connection points: 2
#     Edge 54, Type (0, 0), BuildingBlock: XUDNAN_clean_linker_2, # of connection points: 2
#     Edge 55, Type (0, 0), BuildingBlock: XUDNAN_clean_linker_2, # of connection points: 2
#     Edge 56, Type (0, 0), BuildingBlock: XUDNAN_clean_linker_2, # of connection points: 2
#     Edge 57, Type (0, 0), BuildingBlock: XUDNAN_clean_linker_2, # of connection points: 2
#     Edge 58, Type (0, 0), BuildingBlock: XUDNAN_clean_linker_2, # of connection points: 2
#     Edge 59, Type (0, 0), BuildingBlock: XUDNAN_clean_linker_2, # of connection points: 2
#     Edge 60, Type (0, 0), BuildingBlock: XUDNAN_clean_linker_2, # of connection points: 2
#     Edge 61, Type (0, 0), BuildingBlock: XUDNAN_clean_linker_2, # of connection points: 2
#     Edge 62, Type (0, 0), BuildingBlock: XUDNAN_clean_linker_2, # of connection points: 2
#     Edge 63, Type (0, 0), BuildingBlock: XUDNAN_clean_linker_2, # of connection points: 2
#     Edge 64, Type (0, 0), BuildingBlock: XUDNAN_clean_linker_2, # of connection points: 2
#     Edge 65, Type (0, 0), BuildingBlock: XUDNAN_clean_linker_2, # of connection points: 2
#     Edge 66, Type (0, 0), BuildingBlock: XUDNAN_clean_linker_2, # of connection points: 2
#     Edge 67, Type (0, 0), BuildingBlock: XUDNAN_clean_linker_2, # of connection points: 2
#     Edge 68, Type (0, 0), BuildingBlock: XUDNAN_clean_linker_2, # of connection points: 2
#     Edge 69, Type (0, 0), BuildingBlock: XUDNAN_clean_linker_2, # of connection points: 2
#     Edge 70, Type (0, 0), BuildingBlock: XUDNAN_clean_linker_2, # of connection points: 2
#     Edge 71, Type (0, 0), BuildingBlock: XUDNAN_clean_linker_2, # of connection points: 2
#     Edge 72, Type (0, 0), BuildingBlock: XUDNAN_clean_linker_2, # of connection points: 2
#     Edge 73, Type (0, 0), BuildingBlock: XUDNAN_clean_linker_2, # of connection points: 2
#     Edge 74, Type (0, 0), BuildingBlock: XUDNAN_clean_linker_2, # of connection points: 2
#     Edge 75, Type (0, 0), BuildingBlock: XUDNAN_clean_linker_2, # of connection points: 2
#     Edge 76, Type (0, 0), BuildingBlock: XUDNAN_clean_linker_2, # of connection points: 2
#     Edge 77, Type (0, 0), BuildingBlock: XUDNAN_clean_linker_2, # of connection points: 2
#     Edge 78, Type (0, 0), BuildingBlock: XUDNAN_clean_linker_2, # of connection points: 2
#     Edge 79, Type (0, 0), BuildingBlock: XUDNAN_clean_linker_2, # of connection points: 2
#     Edge 80, Type (0, 0), BuildingBlock: XUDNAN_clean_linker_2, # of connection points: 2
#     Edge 81, Type (0, 0), BuildingBlock: XUDNAN_clean_linker_2, # of connection points: 2
#     Edge 82, Type (0, 0), BuildingBlock: XUDNAN_clean_linker_2, # of connection points: 2
#     Edge 83, Type (0, 0), BuildingBlock: XUDNAN_clean_linker_2, # of connection points: 2
#     Edge 84, Type (0, 0), BuildingBlock: XUDNAN_clean_linker_2, # of connection points: 2
#     Edge 85, Type (0, 0), BuildingBlock: XUDNAN_clean_linker_2, # of connection points: 2
#     Edge 86, Type (0, 0), BuildingBlock: XUDNAN_clean_linker_2, # of connection points: 2
#     Edge 87, Type (0, 0), BuildingBlock: XUDNAN_clean_linker_2, # of connection points: 2
#     Edge 88, Type (0, 0), BuildingBlock: XUDNAN_clean_linker_2, # of connection points: 2
#     Edge 89, Type (0, 0), BuildingBlock: XUDNAN_clean_linker_2, # of connection points: 2
#     Edge 90, Type (0, 0), BuildingBlock: XUDNAN_clean_linker_2, # of connection points: 2
#     Edge 91, Type (0, 0), BuildingBlock: XUDNAN_clean_linker_2, # of connection points: 2
#     Edge 92, Type (0, 0), BuildingBlock: XUDNAN_clean_linker_2, # of connection points: 2
#     Edge 93, Type (0, 0), BuildingBlock: XUDNAN_clean_linker_2, # of connection points: 2
#     Edge 94, Type (0, 0), BuildingBlock: XUDNAN_clean_linker_2, # of connection points: 2
#     Edge 95, Type (0, 0), BuildingBlock: XUDNAN_clean_linker_2, # of connection points: 2
# Relax obj value: 0.062
# Max RMSD: 0.101
# Mean RMSD: 0.101
data_MOF--net-ukc--node1-AZAVOO_clean_sbu_0--edge1-XUDNAN_clean_linker_2
_symmetry_space_group_name_H-M    P1
_symmetry_Int_Tables_number       1
_symmetry_cell_setting            triclinic
loop_
_symmetry_equiv_pos_as_xyz
'x, y, z'
_cell_length_a     45.699095
_cell_length_b     45.686643
_cell_length_c     84.390195
_cell_angle_alpha  89.94301
_cell_angle_beta   89.984769
_cell_angle_gamma 90.021172
loop_
_atom_site_label
_atom_site_type_symbol
_atom_site_fract_x
_atom_site_fract_y
_atom_site_fract_z
_atom_type_partial_charge
Mg0 Mg 0.1035 0.3681 0.03762 0.0
O1 O 0.08054 0.33061 0.02451 0.0
O2 O 0.10544 0.28951 0.02937 0.0
Mg3 Mg 0.14487 0.30059 0.04474 0.0
C4 C 0.08393 0.30298 0.02305 0.0
C5 C 0.06451 0.4215 0.03278 0.0
O6 O 0.06937 0.42132 0.04812 0.0
O7 O 0.14026 0.37045 0.01955 0.0
O8 O 0.16496 0.32971 0.02555 0.0
O9 O 0.07686 0.3579 0.05891 0.0
O10 O 0.12006 0.3381 0.05401 0.0
C11 C 0.16196 0.35328 0.01756 0.0
C12 C 0.09704 0.33936 0.06279 0.0
O13 O 0.07619 0.40174 0.02429 0.0
Mg14 Mg 0.8522 0.84426 0.28096 0.0
O15 O 0.89167 0.81846 0.27023 0.0
O16 O 0.93329 0.83582 0.28088 0.0
Mg17 Mg 0.92128 0.88155 0.28878 0.0
C18 C 0.91928 0.81655 0.27292 0.0
C19 C 0.79989 0.80465 0.27559 0.0
O20 O 0.79925 0.81068 0.2908 0.0
O21 O 0.85091 0.88255 0.26294 0.0
O22 O 0.89781 0.87997 0.26544 0.0
O23 O 0.8607 0.81852 0.30275 0.0
O24 O 0.88054 0.86209 0.29847 0.0
C25 C 0.8756 0.89519 0.26201 0.0
C26 C 0.87872 0.83886 0.30708 0.0
O27 O 0.8199 0.81607 0.26711 0.0
Mg28 Mg 0.39911 0.61478 0.53431 0.0
O29 O 0.42032 0.65918 0.52801 0.0
O30 O 0.39868 0.69342 0.54294 0.0
Mg31 Mg 0.36552 0.67145 0.55921 0.0
C32 C 0.41708 0.68579 0.53235 0.0
C33 C 0.43098 0.56778 0.51569 0.0
O34 O 0.42586 0.55562 0.52953 0.0
O35 O 0.35676 0.62665 0.52088 0.0
O36 O 0.3383 0.65975 0.53765 0.0
O37 O 0.43265 0.60808 0.55314 0.0
O38 O 0.39042 0.63055 0.55696 0.0
C39 C 0.33664 0.64454 0.52502 0.0
C40 C 0.41556 0.62272 0.56242 0.0
O41 O 0.42081 0.59323 0.51299 0.0
Mg42 Mg 0.63848 0.15612 0.78623 0.0
O43 O 0.60011 0.18283 0.77595 0.0
O44 O 0.55901 0.16418 0.78639 0.0
Mg45 Mg 0.57048 0.12771 0.80372 0.0
C46 C 0.57226 0.18216 0.7773 0.0
C47 C 0.69533 0.18094 0.77547 0.0
O48 O 0.69937 0.17031 0.78978 0.0
O49 O 0.62749 0.11666 0.77034 0.0
O50 O 0.58701 0.10117 0.78278 0.0
O51 O 0.6407 0.18701 0.80662 0.0
O52 O 0.614 0.14673 0.80635 0.0
C53 C 0.60624 0.09862 0.7719 0.0
C54 C 0.62179 0.17025 0.81355 0.0
O55 O 0.67057 0.17707 0.7689 0.0
Mg56 Mg 0.09892 0.59229 0.4519 0.0
O57 O 0.06881 0.63108 0.4584 0.0
O58 O 0.08722 0.67079 0.44645 0.0
Mg59 Mg 0.12834 0.65843 0.43285 0.0
C60 C 0.068 0.65844 0.45517 0.0
C61 C 0.07352 0.53671 0.46326 0.0
O62 O 0.08721 0.53185 0.44982 0.0
O63 O 0.13427 0.60754 0.46939 0.0
O64 O 0.1505 0.64703 0.45626 0.0
O65 O 0.07239 0.58532 0.43017 0.0
O66 O 0.11144 0.61378 0.43117 0.0
C67 C 0.15141 0.62955 0.46805 0.0
C68 C 0.08945 0.60398 0.42327 0.0
O69 O 0.07545 0.56209 0.46937 0.0
Mg70 Mg 0.64714 0.85286 0.70347 0.0
O71 O 0.60186 0.83189 0.70799 0.0
O72 O 0.56957 0.85561 0.69267 0.0
Mg73 Mg 0.59348 0.88968 0.67789 0.0
C74 C 0.57576 0.83626 0.70306 0.0
C75 C 0.69145 0.81756 0.72188 0.0
O76 O 0.70365 0.82245 0.70802 0.0
O77 O 0.6339 0.89347 0.71794 0.0
O78 O 0.60235 0.91387 0.70086 0.0
O79 O 0.65528 0.8216 0.6836 0.0
O80 O 0.63406 0.86467 0.68074 0.0
C81 C 0.61617 0.91386 0.71399 0.0
C82 C 0.64226 0.84032 0.6745 0.0
O83 O 0.6665 0.82874 0.72469 0.0
Mg84 Mg 0.40986 0.39583 0.94794 0.0
O85 O 0.43567 0.36135 0.96197 0.0
O86 O 0.41681 0.31764 0.95585 0.0
Mg87 Mg 0.37931 0.32358 0.9384 0.0
C88 C 0.43533 0.33347 0.96326 0.0
C89 C 0.4336 0.45651 0.9548 0.0
O90 O 0.42426 0.45799 0.94009 0.0
O91 O 0.37034 0.39207 0.96437 0.0
O92 O 0.35278 0.34863 0.95675 0.0
O93 O 0.44081 0.39041 0.92773 0.0
O94 O 0.40046 0.36434 0.9309 0.0
C95 C 0.35114 0.37181 0.96513 0.0
C96 C 0.4242 0.3691 0.92312 0.0
O97 O 0.43018 0.43269 0.96237 0.0
Mg98 Mg 0.86112 0.14503 0.21055 0.0
O99 O 0.8979 0.17514 0.21966 0.0
O100 O 0.94017 0.15097 0.2168 0.0
Mg101 Mg 0.9314 0.10723 0.20487 0.0
C102 C 0.92565 0.17336 0.22119 0.0
C103 C 0.82517 0.20061 0.21685 0.0
O104 O 0.84389 0.20907 0.20596 0.0
O105 O 0.86414 0.11459 0.23213 0.0
O106 O 0.9064 0.09189 0.2267 0.0
O107 O 0.8666 0.1638 0.18637 0.0
O108 O 0.89066 0.12506 0.19497 0.0
C109 C 0.88381 0.09563 0.23534 0.0
C110 C 0.88628 0.14396 0.18391 0.0
O111 O 0.82678 0.17456 0.22212 0.0
Mg112 Mg 0.90894 0.60415 0.95212 0.0
O113 O 0.93293 0.64454 0.96171 0.0
O114 O 0.91323 0.68436 0.95069 0.0
Mg115 Mg 0.87642 0.66975 0.93424 0.0
C116 C 0.93191 0.67225 0.95983 0.0
C117 C 0.94565 0.55452 0.96762 0.0
O118 O 0.94842 0.54762 0.95259 0.0
O119 O 0.86854 0.61284 0.96727 0.0
O120 O 0.84975 0.6521 0.95507 0.0
O121 O 0.9402 0.60335 0.93174 0.0
O122 O 0.89798 0.62694 0.93172 0.0
C123 C 0.84874 0.63238 0.96578 0.0
C124 C 0.92207 0.62073 0.92461 0.0
O125 O 0.93025 0.5766 0.97139 0.0
Mg126 Mg 0.14178 0.16176 0.69677 0.0
O127 O 0.10142 0.18612 0.7059 0.0
O128 O 0.06184 0.16192 0.69753 0.0
Mg129 Mg 0.07682 0.12237 0.68295 0.0
C130 C 0.07367 0.1832 0.70497 0.0
C131 C 0.19399 0.19819 0.70541 0.0
O132 O 0.19721 0.19147 0.69038 0.0
O133 O 0.13573 0.1257 0.71509 0.0
O134 O 0.09836 0.10071 0.70457 0.0
O135 O 0.14003 0.18826 0.67467 0.0
O136 O 0.11762 0.14579 0.67778 0.0
C137 C 0.11834 0.10381 0.71502 0.0
C138 C 0.12262 0.16843 0.66911 0.0
O139 O 0.17178 0.18837 0.71277 0.0
Mg140 Mg 0.59352 0.38807 0.44554 0.0
O141 O 0.56376 0.3503 0.45403 0.0
O142 O 0.5793 0.30963 0.4419 0.0
Mg143 Mg 0.61806 0.32045 0.426 0.0
C144 C 0.56198 0.3228 0.45139 0.0
C145 C 0.57101 0.44493 0.45741 0.0
O146 O 0.58274 0.44955 0.44341 0.0
O147 O 0.63094 0.37233 0.46177 0.0
O148 O 0.64368 0.3322 0.44815 0.0
O149 O 0.56438 0.39473 0.42458 0.0
O150 O 0.60284 0.36554 0.42479 0.0
C151 C 0.64707 0.34972 0.45977 0.0
C152 C 0.5805 0.37566 0.41737 0.0
O153 O 0.57326 0.41951 0.46346 0.0
Mg154 Mg 0.35065 0.85191 0.19328 0.0
O155 O 0.38906 0.82888 0.20585 0.0
O156 O 0.42955 0.85432 0.19986 0.0
Mg157 Mg 0.41796 0.89128 0.18285 0.0
C158 C 0.41663 0.8333 0.20697 0.0
C159 C 0.31734 0.80059 0.21052 0.0
O160 O 0.33895 0.78513 0.20457 0.0
O161 O 0.35208 0.89028 0.21052 0.0
O162 O 0.39238 0.91394 0.20261 0.0
O163 O 0.35696 0.82326 0.17216 0.0
O164 O 0.37946 0.86559 0.17591 0.0
C165 C 0.36992 0.91171 0.21152 0.0
C166 C 0.37622 0.84225 0.16757 0.0
O167 O 0.31687 0.82811 0.20833 0.0
Mg168 Mg 0.89025 0.36223 0.53027 0.0
O169 O 0.91637 0.32194 0.52218 0.0
O170 O 0.89735 0.28205 0.53355 0.0
Mg171 Mg 0.85868 0.29638 0.54881 0.0
C172 C 0.91616 0.2943 0.52453 0.0
C173 C 0.92561 0.41377 0.51587 0.0
O174 O 0.921 0.42348 0.53031 0.0
O175 O 0.85197 0.3506 0.51376 0.0
O176 O 0.83446 0.31162 0.52678 0.0
O177 O 0.91878 0.36641 0.55173 0.0
O178 O 0.87833 0.33992 0.55075 0.0
C179 C 0.83325 0.32998 0.5154 0.0
C180 C 0.90107 0.34816 0.55849 0.0
O181 O 0.91416 0.38957 0.51171 0.0
Mg182 Mg 0.35446 0.1513 0.29238 0.0
O183 O 0.3931 0.17179 0.27899 0.0
O184 O 0.43391 0.14839 0.2862 0.0
Mg185 Mg 0.42121 0.11176 0.30328 0.0
C186 C 0.42082 0.16833 0.27831 0.0
C187 C 0.30157 0.18858 0.28515 0.0
O188 O 0.30028 0.18387 0.3005 0.0
O189 O 0.3541 0.11191 0.27595 0.0
O190 O 0.39479 0.08877 0.28376 0.0
O191 O 0.3629 0.18135 0.31247 0.0
O192 O 0.38257 0.13733 0.31021 0.0
C193 C 0.37195 0.09048 0.27507 0.0
C194 C 0.38066 0.16164 0.31785 0.0
O195 O 0.32218 0.17687 0.27727 0.0
Mg196 Mg 0.59207 0.64682 0.0285 0.0
O197 O 0.5754 0.68906 0.01695 0.0
O198 O 0.60408 0.726 0.02471 0.0
Mg199 Mg 0.63798 0.70783 0.04199 0.0
C200 C 0.58243 0.71611 0.01681 0.0
C201 C 0.5544 0.59536 0.01509 0.0
O202 O 0.56009 0.58487 0.02926 0.0
O203 O 0.63224 0.64472 0.01256 0.0
O204 O 0.6597 0.68092 0.02244 0.0
O205 O 0.56271 0.65471 0.04913 0.0
O206 O 0.60812 0.67124 0.04736 0.0
C207 C 0.65589 0.65959 0.0129 0.0
C208 C 0.58382 0.67016 0.05505 0.0
O209 O 0.56482 0.62013 0.01117 0.0
Mg210 Mg 0.13956 0.85681 0.78596 0.0
O211 O 0.0961 0.84091 0.77532 0.0
O212 O 0.06043 0.86583 0.78756 0.0
Mg213 Mg 0.08014 0.8944 0.80712 0.0
C214 C 0.06905 0.84711 0.77733 0.0
C215 C 0.17461 0.81127 0.76586 0.0
O216 O 0.16618 0.79447 0.77764 0.0
O217 O 0.13541 0.90116 0.77349 0.0
O218 O 0.10272 0.92395 0.789 0.0
O219 O 0.13724 0.82101 0.80426 0.0
O220 O 0.11782 0.86505 0.80691 0.0
C221 C 0.12101 0.92389 0.77758 0.0
C222 C 0.12115 0.83897 0.81227 0.0
O223 O 0.16616 0.83779 0.76549 0.0
Mg224 Mg 0.61877 0.87839 0.53293 0.0
O225 O 0.58498 0.84305 0.52632 0.0
O226 O 0.60403 0.79938 0.53228 0.0
Mg227 Mg 0.64966 0.80637 0.54248 0.0
C228 C 0.5832 0.81516 0.52695 0.0
C229 C 0.58566 0.93558 0.52741 0.0
O230 O 0.59581 0.93837 0.5419 0.0
O231 O 0.64685 0.86776 0.51141 0.0
O232 O 0.66531 0.82427 0.51858 0.0
O233 O 0.60073 0.88007 0.55728 0.0
O234 O 0.63666 0.85058 0.55005 0.0
C235 C 0.66307 0.84554 0.50884 0.0
C236 C 0.6188 0.85929 0.56087 0.0
O237 O 0.59203 0.91264 0.51962 0.0
Mg238 Mg 0.37099 0.35265 0.79012 0.0
O239 O 0.41208 0.33539 0.7777 0.0
O240 O 0.45127 0.35736 0.78804 0.0
Mg241 Mg 0.43514 0.38968 0.80671 0.0
C242 C 0.43974 0.33903 0.7785 0.0
C243 C 0.3209 0.31641 0.77426 0.0
O244 O 0.31327 0.31319 0.78918 0.0
O245 O 0.37273 0.396 0.77687 0.0
O246 O 0.41137 0.41754 0.78821 0.0
O247 O 0.37643 0.31812 0.8086 0.0
O248 O 0.39568 0.36246 0.81003 0.0
C249 C 0.38991 0.41782 0.77853 0.0
C250 C 0.393 0.33664 0.81598 0.0
O251 O 0.34324 0.33177 0.7709 0.0
Mg252 Mg 0.89999 0.10692 0.04504 0.0
O253 O 0.92672 0.14621 0.03584 0.0
O254 O 0.90971 0.18581 0.04852 0.0
Mg255 Mg 0.87559 0.17212 0.06671 0.0
C256 C 0.92638 0.17381 0.03828 0.0
C257 C 0.91539 0.05085 0.02859 0.0
O258 O 0.9021 0.04315 0.04177 0.0
O259 O 0.86015 0.12261 0.03081 0.0
O260 O 0.84673 0.16085 0.04572 0.0
O261 O 0.9322 0.09889 0.06453 0.0
O262 O 0.89378 0.12786 0.06658 0.0
C263 C 0.84299 0.14398 0.03386 0.0
C264 C 0.917 0.11707 0.07291 0.0
O265 O 0.91715 0.07791 0.02524 0.0
Mg266 Mg 0.12592 0.64476 0.28412 0.0
O267 O 0.0811 0.66287 0.27697 0.0
O268 O 0.04701 0.63121 0.28535 0.0
Mg269 Mg 0.06971 0.59479 0.29947 0.0
C270 C 0.05443 0.65474 0.27819 0.0
C271 C 0.1749 0.67162 0.2629 0.0
O272 O 0.18785 0.64719 0.26718 0.0
O273 O 0.1225 0.60922 0.26516 0.0
O274 O 0.09174 0.57788 0.277 0.0
O275 O 0.12383 0.66929 0.30703 0.0
O276 O 0.10639 0.62464 0.30337 0.0
C277 C 0.10911 0.5847 0.26575 0.0
C278 C 0.10934 0.64707 0.31241 0.0
O279 O 0.14882 0.67639 0.26743 0.0
Mg280 Mg 0.60951 0.13385 0.95179 0.0
O281 O 0.58988 0.17729 0.96044 0.0
O282 O 0.61418 0.21411 0.9488 0.0
Mg283 Mg 0.64847 0.19448 0.9323 0.0
C284 C 0.59454 0.20458 0.95826 0.0
C285 C 0.56942 0.08773 0.96729 0.0
O286 O 0.56944 0.0791 0.95245 0.0
O287 O 0.64962 0.14112 0.96754 0.0
O288 O 0.67138 0.17781 0.95443 0.0
O289 O 0.57832 0.13354 0.93136 0.0
O290 O 0.62194 0.15464 0.93106 0.0
C291 C 0.67037 0.15961 0.96588 0.0
C292 C 0.59729 0.14988 0.92418 0.0
O293 O 0.58495 0.10965 0.9712 0.0
Mg294 Mg 0.13104 0.34065 0.19729 0.0
O295 O 0.08786 0.32483 0.20789 0.0
O296 O 0.05125 0.34329 0.19347 0.0
Mg297 Mg 0.07134 0.37015 0.17317 0.0
C298 C 0.06059 0.32783 0.20504 0.0
C299 C 0.17896 0.31135 0.21653 0.0
O300 O 0.18783 0.30838 0.2018 0.0
O301 O 0.12364 0.38644 0.20723 0.0
O302 O 0.09053 0.40418 0.19018 0.0
O303 O 0.13242 0.3016 0.18145 0.0
O304 O 0.11126 0.34357 0.17524 0.0
C305 C 0.10815 0.40742 0.20178 0.0
C306 C 0.11696 0.31681 0.17159 0.0
O307 O 0.15546 0.32536 0.2192 0.0
Mg308 Mg 0.90366 0.87305 0.43907 0.0
O309 O 0.92171 0.82835 0.44719 0.0
O310 O 0.90252 0.79426 0.43116 0.0
Mg311 Mg 0.8752 0.81668 0.41205 0.0
C312 C 0.91831 0.80169 0.44296 0.0
C313 C 0.93308 0.91902 0.45949 0.0
O314 O 0.93461 0.92955 0.44501 0.0
O315 O 0.85816 0.86196 0.44935 0.0
O316 O 0.8429 0.82961 0.43125 0.0
O317 O 0.94174 0.87807 0.42231 0.0
O318 O 0.8996 0.85682 0.41646 0.0
C319 C 0.83858 0.84483 0.4437 0.0
C320 C 0.92587 0.86336 0.41245 0.0
O321 O 0.91991 0.89483 0.46171 0.0
Mg322 Mg 0.36735 0.65561 0.69986 0.0
O323 O 0.40492 0.68423 0.70923 0.0
O324 O 0.44676 0.65998 0.70542 0.0
Mg325 Mg 0.43653 0.61619 0.69382 0.0
C326 C 0.43277 0.68247 0.7102 0.0
C327 C 0.33073 0.71119 0.70703 0.0
O328 O 0.34768 0.72054 0.69551 0.0
O329 O 0.36974 0.62473 0.72101 0.0
O330 O 0.41112 0.60058 0.71558 0.0
O331 O 0.37323 0.67498 0.67586 0.0
O332 O 0.39614 0.63526 0.68413 0.0
C333 C 0.38847 0.60482 0.72414 0.0
C334 C 0.39225 0.65456 0.67323 0.0
O335 O 0.3338 0.6851 0.71202 0.0
Mg336 Mg 0.40891 0.10468 0.45162 0.0
O337 O 0.42246 0.15006 0.46106 0.0
O338 O 0.39346 0.18346 0.44961 0.0
Mg339 Mg 0.36305 0.16022 0.43229 0.0
C340 C 0.41424 0.17656 0.459 0.0
C341 C 0.44875 0.05914 0.46741 0.0
O342 O 0.44667 0.04924 0.45284 0.0
O343 O 0.36646 0.10439 0.46607 0.0
O344 O 0.33974 0.13735 0.45281 0.0
O345 O 0.44137 0.10985 0.43201 0.0
O346 O 0.39522 0.12467 0.43098 0.0
C347 C 0.34265 0.11848 0.46386 0.0
C348 C 0.42081 0.12382 0.42466 0.0
O349 O 0.43476 0.08215 0.47117 0.0
Mg350 Mg 0.61935 0.65313 0.19337 0.0
O351 O 0.5791 0.67734 0.20314 0.0
O352 O 0.54025 0.66357 0.18891 0.0
Mg353 Mg 0.5551 0.63113 0.17009 0.0
C354 C 0.55174 0.67849 0.20007 0.0
C355 C 0.67008 0.68086 0.21142 0.0
O356 O 0.6783 0.68263 0.19653 0.0
O357 O 0.60487 0.61017 0.2052 0.0
O358 O 0.56739 0.59865 0.18936 0.0
O359 O 0.62623 0.68902 0.17566 0.0
O360 O 0.59928 0.64978 0.17129 0.0
C361 C 0.58431 0.59285 0.20097 0.0
C362 C 0.60882 0.67468 0.1664 0.0
O363 O 0.64605 0.66815 0.21468 0.0
Mg364 Mg 0.08956 0.88663 0.94786 0.0
O365 O 0.07513 0.84227 0.95783 0.0
O366 O 0.10475 0.80747 0.94843 0.0
Mg367 Mg 0.13753 0.82956 0.93184 0.0
C368 C 0.08307 0.81556 0.95688 0.0
C369 C 0.05175 0.93509 0.96422 0.0
O370 O 0.06113 0.95024 0.95199 0.0
O371 O 0.12981 0.88831 0.9639 0.0
O372 O 0.15804 0.85402 0.95271 0.0
O373 O 0.06007 0.87938 0.92729 0.0
O374 O 0.10652 0.86585 0.92797 0.0
C375 C 0.15371 0.87388 0.96309 0.0
C376 C 0.08184 0.8661 0.9206 0.0
O377 O 0.06053 0.90892 0.96607 0.0
Mg378 Mg 0.86143 0.35815 0.69924 0.0
O379 O 0.90496 0.33501 0.70501 0.0
O380 O 0.93989 0.35533 0.68994 0.0
Mg381 Mg 0.91916 0.39001 0.67414 0.0
C382 C 0.93157 0.33717 0.70052 0.0
C383 C 0.81506 0.32411 0.71736 0.0
O384 O 0.80322 0.32854 0.70337 0.0
O385 O 0.87573 0.39912 0.71337 0.0
O386 O 0.90953 0.41583 0.69639 0.0
O387 O 0.85414 0.32606 0.67957 0.0
O388 O 0.87682 0.36841 0.67678 0.0
C389 C 0.89501 0.41801 0.70924 0.0
C390 C 0.86884 0.34391 0.67071 0.0
O391 O 0.83991 0.33545 0.7203 0.0
Mg392 Mg 0.40009 0.9114 0.03553 0.0
O393 O 0.42479 0.87545 0.02207 0.0
O394 O 0.40522 0.83244 0.02885 0.0
Mg395 Mg 0.36775 0.84068 0.04616 0.0
C396 C 0.42395 0.84756 0.02116 0.0
C397 C 0.43121 0.96813 0.02866 0.0
O398 O 0.4246 0.96924 0.0438 0.0
O399 O 0.36053 0.90802 0.01915 0.0
O400 O 0.34171 0.86519 0.02709 0.0
O401 O 0.43076 0.90579 0.05572 0.0
O402 O 0.38904 0.88173 0.05328 0.0
C403 C 0.34086 0.88817 0.01847 0.0
C404 C 0.41293 0.88606 0.06102 0.0
O405 O 0.42259 0.94624 0.02063 0.0
Mg406 Mg 0.8761 0.65339 0.78774 0.0
O407 O 0.91043 0.68503 0.77733 0.0
O408 O 0.95461 0.6678 0.78384 0.0
Mg409 Mg 0.94925 0.62599 0.79826 0.0
C410 C 0.93835 0.68681 0.7771 0.0
C411 C 0.81652 0.68089 0.78111 0.0
O412 O 0.81419 0.67118 0.79572 0.0
O413 O 0.8853 0.61898 0.76852 0.0
O414 O 0.92921 0.60363 0.77684 0.0
O415 O 0.87635 0.67829 0.81053 0.0
O416 O 0.90575 0.64118 0.80533 0.0
C417 C 0.90763 0.60228 0.76729 0.0
C418 C 0.89791 0.66174 0.81481 0.0
O419 O 0.84007 0.67593 0.77354 0.0
Mg420 Mg 0.09377 0.09384 0.53586 0.0
O421 O 0.07148 0.13326 0.52376 0.0
O422 O 0.09778 0.17308 0.52987 0.0
Mg423 Mg 0.13499 0.16016 0.54639 0.0
C424 C 0.07632 0.16079 0.52285 0.0
C425 C 0.05588 0.04054 0.52881 0.0
O426 O 0.06127 0.03848 0.54407 0.0
O427 O 0.13215 0.09421 0.51832 0.0
O428 O 0.15627 0.13411 0.52647 0.0
O429 O 0.06595 0.10093 0.55727 0.0
O430 O 0.10901 0.12188 0.5533 0.0
C431 C 0.1538 0.11187 0.51744 0.0
C432 C 0.08571 0.11943 0.56176 0.0
O433 O 0.06708 0.06168 0.52109 0.0
Mg434 Mg 0.61744 0.35466 0.278 0.0
O435 O 0.57877 0.3265 0.26912 0.0
O436 O 0.53792 0.34882 0.27758 0.0
Mg437 Mg 0.54955 0.38853 0.29254 0.0
C438 C 0.55088 0.32843 0.26999 0.0
C439 C 0.6596 0.30687 0.26412 0.0
O440 O 0.65001 0.29257 0.27659 0.0
O441 O 0.60726 0.3903 0.25971 0.0
O442 O 0.56665 0.40996 0.27009 0.0
O443 O 0.61935 0.32853 0.30044 0.0
O444 O 0.59193 0.36783 0.297 0.0
C445 C 0.58652 0.40901 0.25951 0.0
C446 C 0.59956 0.34618 0.30582 0.0
O447 O 0.64952 0.33225 0.2612 0.0
H448 H 0.98023 0.50598 0.96353 0.0
H449 H 0.94595 0.56436 -0.00037 0.0
H450 H 0.97252 0.53651 0.02016 0.0
H451 H 0.9764 0.43974 0.98686 0.0
H452 H 0.0099 0.42496 0.97892 0.0
H453 H 0.98789 0.44928 0.96708 0.0
H454 H 0.0326 0.48346 0.9632 0.0
H455 H 0.05472 0.4593 0.97506 0.0
H456 H 0.0516 0.49739 0.98033 0.0
H457 H 0.00332 0.50298 0.03667 0.0
H458 H 0.0357 0.46545 0.0482 0.0
H459 H 0.04988 0.4287 0.00137 0.0
C460 C 0.97821 0.51288 0.97575 0.0
C461 C 0.96099 0.53737 0.97997 0.0
C462 C 0.95897 0.54566 -0.00389 0.0
C463 C 0.974 0.53 0.00786 0.0
C464 C 0.99089 0.50609 0.00328 0.0
C465 C 0.99303 0.49749 0.98763 0.0
C466 C 0.01277 0.47105 0.98588 0.0
C467 C 0.99571 0.4447 0.9793 0.0
C468 C 0.03951 0.47825 0.9755 0.0
C469 C 0.0215 0.4662 0.00299 0.0
C470 C 0.00862 0.48666 0.01282 0.0
C471 C 0.01349 0.4868 0.0291 0.0
C472 C 0.03195 0.46538 0.03553 0.0
C473 C 0.04534 0.44411 0.0257 0.0
C474 C 0.03998 0.44463 0.00921 0.0
H475 H 0.72022 0.71295 0.20761 0.0
H476 H 0.65884 0.68281 0.24337 0.0
H477 H 0.68613 0.7104 0.26377 0.0
H478 H 0.78537 0.71079 0.23241 0.0
H479 H 0.80069 0.7434 0.22368 0.0
H480 H 0.77718 0.72005 0.21212 0.0
H481 H 0.74341 0.76425 0.20611 0.0
H482 H 0.76668 0.78768 0.21773 0.0
H483 H 0.72825 0.78501 0.22231 0.0
H484 H 0.71883 0.74291 0.27998 0.0
H485 H 0.75518 0.77708 0.29108 0.0
H486 H 0.79509 0.78623 0.24462 0.0
C487 C 0.71264 0.71185 0.21975 0.0
C488 C 0.6874 0.69564 0.2239 0.0
C489 C 0.67815 0.69499 0.23992 0.0
C490 C 0.69349 0.71061 0.25158 0.0
C491 C 0.71803 0.7267 0.24702 0.0
C492 C 0.72763 0.72732 0.23151 0.0
C493 C 0.75417 0.74692 0.22963 0.0
C494 C 0.78094 0.72923 0.22414 0.0
C495 C 0.74772 0.77248 0.21828 0.0
C496 C 0.75784 0.7575 0.2465 0.0
C497 C 0.73682 0.74551 0.25635 0.0
C498 C 0.73547 0.75232 0.2724 0.0
C499 C 0.75622 0.77182 0.27858 0.0
C500 C 0.77802 0.78436 0.26873 0.0
C501 C 0.77874 0.77702 0.25247 0.0
H502 H 0.53788 0.44165 0.48475 0.0
H503 H 0.56214 0.50035 0.44641 0.0
H504 H 0.52829 0.53758 0.45678 0.0
H505 H 0.46218 0.46011 0.48569 0.0
H506 H 0.45897 0.45834 0.50695 0.0
H507 H 0.48589 0.43634 0.49691 0.0
H508 H 0.52694 0.45892 0.5142 0.0
H509 H 0.5001 0.48073 0.52443 0.0
H510 H 0.53096 0.49815 0.51502 0.0
H511 H 0.4903 0.56783 0.47054 0.0
H512 H 0.45353 0.59047 0.48815 0.0
H513 H 0.4543 0.51262 0.51773 0.0
C514 C 0.53633 0.46246 0.47865 0.0
C515 C 0.55269 0.46801 0.46475 0.0
C516 C 0.54988 0.4955 0.45708 0.0
C517 C 0.53062 0.51683 0.46284 0.0
C518 C 0.51437 0.51046 0.47635 0.0
C519 C 0.51722 0.4841 0.48427 0.0
C520 C 0.49712 0.48288 0.49854 0.0
C521 C 0.47471 0.45794 0.49692 0.0
C522 C 0.51484 0.48001 0.51396 0.0
C523 C 0.4825 0.51258 0.49733 0.0
C524 C 0.49265 0.52808 0.4844 0.0
C525 C 0.48224 0.55597 0.48076 0.0
C526 C 0.46126 0.56859 0.49078 0.0
C527 C 0.45102 0.55337 0.50432 0.0
C528 C 0.46166 0.52487 0.50748 0.0
H529 H 0.76128 0.29797 0.7147 0.0
H530 H 0.83727 0.30351 0.74544 0.0
H531 H 0.81536 0.26636 0.76314 0.0
H532 H 0.7076 0.28914 0.74592 0.0
H533 H 0.68546 0.26401 0.73464 0.0
H534 H 0.70701 0.29134 0.72459 0.0
H535 H 0.73207 0.25066 0.70806 0.0
H536 H 0.71084 0.22318 0.71819 0.0
H537 H 0.75021 0.22091 0.71809 0.0
H538 H 0.78599 0.22769 0.77698 0.0
H539 H 0.74962 0.19272 0.78725 0.0
H540 H 0.6923 0.21259 0.74763 0.0
C541 C 0.77327 0.29156 0.72521 0.0
C542 C 0.80104 0.30367 0.72868 0.0
C543 C 0.81595 0.29464 0.74256 0.0
C544 C 0.80374 0.27346 0.75264 0.0
C545 C 0.77657 0.26163 0.74871 0.0
C546 C 0.76137 0.27054 0.73542 0.0
C547 C 0.73243 0.25452 0.73395 0.0
C548 C 0.7066 0.27604 0.73483 0.0
C549 C 0.73134 0.23624 0.71867 0.0
C550 C 0.73375 0.23512 0.74849 0.0
C551 C 0.75948 0.23948 0.75678 0.0
C552 C 0.76573 0.22416 0.77062 0.0
C553 C 0.74491 0.20427 0.77633 0.0
C554 C 0.71805 0.19988 0.76826 0.0
C555 C 0.71265 0.21533 0.75404 0.0
H556 H 0.95067 0.46798 0.52005 0.0
H557 H 0.94872 0.3936 0.48805 0.0
H558 H 0.98709 0.41669 0.47173 0.0
H559 H 0.96178 0.52331 0.48951 0.0
H560 H 0.98557 0.54528 0.5017 0.0
H561 H 0.95755 0.52313 0.51075 0.0
H562 H 0.99683 0.49788 0.52816 0.0
H563 H 0.02501 0.51971 0.51904 0.0
H564 H 0.02767 0.48035 0.51882 0.0
H565 H 0.02698 0.44626 0.45965 0.0
H566 H 0.06296 0.48279 0.45084 0.0
H567 H 0.03859 0.53929 0.49007 0.0
C568 C 0.95814 0.45665 0.50954 0.0
C569 C 0.94669 0.42892 0.50535 0.0
C570 C 0.95704 0.41487 0.49148 0.0
C571 C 0.97894 0.42775 0.48217 0.0
C572 C 0.99011 0.45479 0.4868 0.0
C573 C 0.97985 0.46932 0.50002 0.0
C574 C 0.99545 0.49838 0.50221 0.0
C575 C 0.9738 0.52404 0.50096 0.0
C576 C 0.01223 0.49911 0.518 0.0
C577 C 0.01625 0.49778 0.4882 0.0
C578 C 0.01286 0.4723 0.47957 0.0
C579 C 0.02971 0.46639 0.46624 0.0
C580 C 0.0502 0.48731 0.46137 0.0
C581 C 0.05362 0.51402 0.46973 0.0
C582 C 0.03655 0.51912 0.48344 0.0
H583 H 0.74451 0.79052 0.7187 0.0
H584 H 0.67092 0.79934 0.7509 0.0
H585 H 0.6944 0.76429 0.76929 0.0
H586 H 0.75602 0.71379 0.72448 0.0
H587 H 0.79533 0.71634 0.72338 0.0
H588 H 0.77292 0.74233 0.71288 0.0
H589 H 0.7992 0.78513 0.72715 0.0
H590 H 0.82183 0.75929 0.73761 0.0
H591 H 0.80052 0.78567 0.7485 0.0
H592 H 0.7259 0.7279 0.784 0.0
H593 H 0.76368 0.6945 0.79444 0.0
H594 H 0.81648 0.70956 0.75243 0.0
C595 C 0.73331 0.78522 0.72964 0.0
C596 C 0.70585 0.79771 0.73337 0.0
C597 C 0.69199 0.79012 0.74781 0.0
C598 C 0.70512 0.77017 0.7583 0.0
C599 C 0.73207 0.75806 0.75416 0.0
C600 C 0.74606 0.76541 0.74021 0.0
C601 C 0.77494 0.74945 0.73854 0.0
C602 C 0.77477 0.72928 0.72395 0.0
C603 C 0.80064 0.77118 0.73792 0.0
C604 C 0.7751 0.73196 0.75377 0.0
C605 C 0.75015 0.73716 0.76259 0.0
C606 C 0.74552 0.72368 0.77719 0.0
C607 C 0.76712 0.70469 0.783 0.0
C608 C 0.79307 0.69936 0.77426 0.0
C609 C 0.79687 0.71304 0.75937 0.0
H610 H 0.46001 0.45957 0.98409 0.0
H611 H 0.4432 0.51011 0.94144 0.0
H612 H 0.47159 0.55121 0.95241 0.0
H613 H 0.45565 0.52059 0.01171 0.0
H614 H 0.48474 0.50694 0.02409 0.0
H615 H 0.46217 0.48176 0.01312 0.0
H616 H 0.50849 0.45962 9e-05 0.0
H617 H 0.53118 0.48481 0.01096 0.0
H618 H 0.53352 0.48329 0.98965 0.0
H619 H 0.50323 0.58613 0.96744 0.0
H620 H 0.53498 0.6132 0.98596 0.0
H621 H 0.53118 0.54029 0.01898 0.0
C622 C 0.46207 0.47937 0.97712 0.0
C623 C 0.44933 0.4816 0.9619 0.0
C624 C 0.45272 0.50785 0.95312 0.0
C625 C 0.46882 0.53135 0.95925 0.0
C626 C 0.48137 0.52832 0.97419 0.0
C627 C 0.4781 0.50309 0.98306 0.0
C628 C 0.49429 0.50537 -0.00132 0.0
C629 C 0.47294 0.50356 0.01273 0.0
C630 C 0.5183 0.48188 -9e-05 0.0
C631 C 0.50733 0.53575 -0.00287 0.0
C632 C 0.49959 0.54858 0.98291 0.0
C633 C 0.50934 0.57638 0.97865 0.0
C634 C 0.52743 0.59155 0.98924 0.0
C635 C 0.53556 0.57892 0.00394 0.0
C636 C 0.5253 0.55062 0.00787 0.0
H637 H 0.78425 0.19203 0.24044 0.0
H638 H 0.81272 0.25471 0.2049 0.0
H639 H 0.77265 0.28782 0.21259 0.0
H640 H 0.70686 0.20353 0.23571 0.0
H641 H 0.69883 0.20032 0.25656 0.0
H642 H 0.72971 0.18121 0.24826 0.0
H643 H 0.7641 0.20616 0.26859 0.0
H644 H 0.73331 0.22519 0.27701 0.0
H645 H 0.76458 0.24552 0.27003 0.0
H646 H 0.72931 0.31398 0.22379 0.0
H647 H 0.68706 0.33273 0.23888 0.0
H648 H 0.68696 0.25362 0.26748 0.0
C649 C 0.78207 0.21273 0.23429 0.0
C650 C 0.80162 0.22071 0.22204 0.0
C651 C 0.79807 0.24807 0.21433 0.0
C652 C 0.77531 0.26704 0.21858 0.0
C653 C 0.7563 0.25843 0.2306 0.0
C654 C 0.75953 0.23205 0.23844 0.0
C655 C 0.73637 0.22841 0.25116 0.0
C656 C 0.71678 0.20179 0.24771 0.0
C657 C 0.75043 0.2262 0.26767 0.0
C658 C 0.71966 0.25683 0.2492 0.0
C659 C 0.73145 0.27374 0.23722 0.0
C660 C 0.71988 0.30097 0.23322 0.0
C661 C 0.69583 0.3114 0.24184 0.0
C662 C 0.68366 0.29469 0.25438 0.0
C663 C 0.69568 0.26693 0.25796 0.0
H664 H 0.27133 0.28262 0.77712 0.0
H665 H 0.33351 0.31603 0.7426 0.0
H666 H 0.3074 0.28975 0.7214 0.0
H667 H 0.26343 0.21135 0.76023 0.0
H668 H 0.22481 0.20862 0.76432 0.0
H669 H 0.24789 0.23061 0.77686 0.0
H670 H 0.21468 0.27563 0.77183 0.0
H671 H 0.19143 0.25375 0.75931 0.0
H672 H 0.20738 0.28706 0.75176 0.0
H673 H 0.27587 0.25898 0.70413 0.0
H674 H 0.23973 0.22657 0.69151 0.0
H675 H 0.19722 0.21333 0.73701 0.0
C676 C 0.27938 0.28453 0.7651 0.0
C677 C 0.3045 0.3014 0.76153 0.0
C678 C 0.31432 0.3033 0.74564 0.0
C679 C 0.29966 0.28842 0.7335 0.0
C680 C 0.27514 0.27185 0.73744 0.0
C681 C 0.26494 0.26989 0.75281 0.0
C682 C 0.23814 0.25039 0.75379 0.0
C683 C 0.24393 0.22366 0.76443 0.0
C684 C 0.21132 0.26775 0.75951 0.0
C685 C 0.23503 0.24156 0.73657 0.0
C686 C 0.25665 0.2542 0.72738 0.0
C687 C 0.25874 0.24904 0.71117 0.0
C688 C 0.23811 0.23053 0.70413 0.0
C689 C 0.2156 0.21742 0.71326 0.0
C690 C 0.2141 0.22309 0.72971 0.0
H691 H 0.23004 0.66771 0.25009 0.0
H692 H 0.15712 0.72755 0.2564 0.0
H693 H 0.18579 0.76694 0.24379 0.0
H694 H 0.28683 0.71876 0.25824 0.0
H695 H 0.31152 0.70471 0.24343 0.0
H696 H 0.28506 0.68079 0.25253 0.0
H697 H 0.26463 0.66703 0.22488 0.0
H698 H 0.29119 0.69074 0.21568 0.0
H699 H 0.25278 0.69562 0.21161 0.0
H700 H 0.22303 0.80042 0.23179 0.0
H701 H 0.26519 0.825 0.21931 0.0
H702 H 0.31356 0.74319 0.22012 0.0
C703 C 0.22 0.68903 0.24872 0.0
C704 C 0.19134 0.69454 0.25427 0.0
C705 C 0.17901 0.72276 0.25222 0.0
C706 C 0.19515 0.74532 0.24511 0.0
C707 C 0.22348 0.73927 0.24001 0.0
C708 C 0.23572 0.71177 0.24155 0.0
C709 C 0.26662 0.7111 0.23504 0.0
C710 C 0.28881 0.70339 0.24809 0.0
C711 C 0.26893 0.68987 0.22096 0.0
C712 C 0.2699 0.74261 0.22972 0.0
C713 C 0.2448 0.75849 0.23278 0.0
C714 C 0.24274 0.78818 0.22923 0.0
C715 C 0.26687 0.80197 0.2222 0.0
C716 C 0.29266 0.78601 0.21868 0.0
C717 C 0.29413 0.75596 0.22258 0.0
H718 H 0.29901 0.20508 0.25383 0.0
H719 H 0.25571 0.2168 0.2992 0.0
H720 H 0.2206 0.25076 0.28679 0.0
H721 H 0.29158 0.27963 0.24047 0.0
H722 H 0.28495 0.26967 0.22013 0.0
H723 H 0.30689 0.24633 0.23258 0.0
H724 H 0.27266 0.20253 0.22645 0.0
H725 H 0.25072 0.22568 0.21391 0.0
H726 H 0.23392 0.20598 0.23004 0.0
H727 H 0.19 0.28328 0.26947 0.0
H728 H 0.16512 0.31081 0.24816 0.0
H729 H 0.22847 0.27792 0.21419 0.0
C730 C 0.28212 0.21474 0.26116 0.0
C731 C 0.28012 0.20827 0.27749 0.0
C732 C 0.2577 0.2214 0.28666 0.0
C733 C 0.23767 0.24078 0.27973 0.0
C734 C 0.24036 0.24683 0.26363 0.0
C735 C 0.26194 0.23415 0.25444 0.0
C736 C 0.2598 0.24409 0.23737 0.0
C737 C 0.28745 0.26093 0.23235 0.0
C738 C 0.25392 0.21802 0.22629 0.0
C739 C 0.23354 0.26418 0.23839 0.0
C740 C 0.22271 0.26557 0.25365 0.0
C741 C 0.1983 0.28243 0.25746 0.0
C742 C 0.18434 0.29801 0.24529 0.0
C743 C 0.19485 0.29655 0.22952 0.0
C744 C 0.21994 0.27959 0.22613 0.0
H745 H 0.19973 0.75679 0.76458 0.0
H746 H 0.19865 0.84116 0.74083 0.0
H747 H 0.23763 0.82422 0.72278 0.0
H748 H 0.27613 0.74655 0.76368 0.0
H749 H 0.2745 0.70769 0.7601 0.0
H750 H 0.24512 0.7256 0.77047 0.0
H751 H 0.20785 0.70568 0.75001 0.0
H752 H 0.2371 0.68748 0.73964 0.0
H753 H 0.2136 0.71264 0.7292 0.0
H754 H 0.27868 0.79916 0.70837 0.0
H755 H 0.31751 0.7671 0.69787 0.0
H756 H 0.29175 0.69901 0.73101 0.0
C757 C 0.20738 0.77162 0.75546 0.0
C758 C 0.19608 0.80033 0.75413 0.0
C759 C 0.20689 0.81906 0.74207 0.0
C760 C 0.22906 0.80965 0.73177 0.0
C761 C 0.2401 0.78142 0.73362 0.0
C762 C 0.22947 0.76259 0.74508 0.0
C763 C 0.24564 0.73364 0.74486 0.0
C764 C 0.26127 0.72806 0.76072 0.0
C765 C 0.2248 0.70837 0.74067 0.0
C766 C 0.26734 0.7393 0.73165 0.0
C767 C 0.26371 0.76695 0.72529 0.0
C768 C 0.2816 0.77739 0.71317 0.0
C769 C 0.30366 0.75901 0.70732 0.0
C770 C 0.30769 0.7305 0.71359 0.0
C771 C 0.28922 0.72064 0.72593 0.0
H772 H 0.56014 0.93676 0.49787 0.0
H773 H 0.56614 0.98527 0.54199 0.0
H774 H 0.53159 0.02193 0.53154 0.0
H775 H 0.55613 -6e-05 0.47208 0.0
H776 H 0.53052 0.98305 0.45866 0.0
H777 H 0.55603 0.96076 0.46957 0.0
H778 H 0.51297 0.9303 0.48091 0.0
H779 H 0.48732 0.95258 0.4701 0.0
H780 H 0.48375 0.94864 0.49126 0.0
H781 H 0.49551 0.05281 0.51657 0.0
H782 H 0.46183 0.07666 0.49766 0.0
H783 H 0.4797 0.00832 0.46326 0.0
C784 C 0.55431 0.95516 0.50531 0.0
C785 C 0.56587 0.95811 0.52076 0.0
C786 C 0.55762 0.98251 0.53011 0.0
C787 C 0.53796 0.00347 0.5243 0.0
C788 C 0.52678 -0.00023 0.50909 0.0
C789 C 0.53475 0.97634 0.49968 0.0
C790 C 0.51954 0.97752 0.48376 0.0
C791 C 0.54189 0.9805 0.47022 0.0
C792 C 0.49972 0.95067 0.48138 0.0
C793 C 0.50171 0.00523 0.48571 0.0
C794 C 0.50615 0.01769 0.50042 0.0
C795 C 0.49191 0.0433 0.50499 0.0
C796 C 0.47277 0.05665 0.49419 0.0
C797 C 0.46813 0.0444 0.47898 0.0
C798 C 0.48278 0.01828 0.47478 0.0
H799 H 0.033 0.99216 0.96617 0.0
H800 H 0.02019 0.90594 0.98677 0.0
H801 H 0.98183 0.92588 0.00424 0.0
H802 H 0.02431 0.0321 0.00245 0.0
H803 H 0.00559 0.06244 -0.0067 0.0
H804 H 0.03136 0.04118 0.982 0.0
H805 H 0.99142 0.0311 0.96091 0.0
H806 H 0.96544 0.05214 0.97221 0.0
H807 H 0.9572 0.01484 0.96689 0.0
H808 H 0.94522 0.95481 0.01948 0.0
H809 H 0.91504 0.99172 0.03307 0.0
H810 H 0.95195 0.05961 0.00303 0.0
C811 C 0.02209 0.97747 0.97433 0.0
C812 C 0.02955 0.94746 0.97507 0.0
C813 C 0.01491 0.92901 0.98601 0.0
C814 C 0.99298 0.94008 -0.00407 0.0
C815 C 0.98601 0.96968 -0.00518 0.0
C816 C 0.00026 0.9882 0.98442 0.0
C817 C 0.98929 0.01937 0.98606 0.0
C818 C 0.01411 0.03998 0.99127 0.0
C819 C 0.97499 0.02998 0.97059 0.0
C820 C 0.96676 0.01545 -0.00093 0.0
C821 C 0.96507 0.98655 0.00383 0.0
C822 C 0.9463 0.97751 0.01586 0.0
C823 C 0.92921 0.99867 0.02349 0.0
C824 C 0.9311 0.02858 0.01913 0.0
C825 C 0.94984 0.03692 0.00657 0.0
H826 H 0.53507 0.03915 0.96294 0.0
H827 H 0.55988 0.1039 -0.00188 0.0
H828 H 0.526 0.08116 0.0173 0.0
H829 H 0.45899 0.0352 0.97325 0.0
H830 H 0.45632 0.99629 0.97006 0.0
H831 H 0.48256 0.01755 0.95903 0.0
H832 H 0.5244 0.98391 0.96894 0.0
H833 H 0.49826 0.96242 0.9799 0.0
H834 H 0.52924 0.97833 0.98993 0.0
H835 H 0.48919 0.05186 0.03251 0.0
H836 H 0.45378 0.01637 0.04331 0.0
H837 H 0.45315 0.97035 -0.00171 0.0
C838 C 0.53346 0.04854 0.97468 0.0
C839 C 0.55012 0.07334 0.97902 0.0
C840 C 0.54739 0.08488 -0.00547 0.0
C841 C 0.52813 0.07218 0.00549 0.0
C842 C 0.51184 0.04793 0.00077 0.0
C843 C 0.51443 0.03609 0.98579 0.0
C844 C 0.49469 0.00969 0.98379 0.0
C845 C 0.47178 0.01502 0.97076 0.0
C846 C 0.51273 0.98195 0.98045 0.0
C847 C 0.48062 0.00852 3e-05 0.0
C848 C 0.49073 0.03087 0.0096 0.0
C849 C 0.48112 0.03425 0.02514 0.0
C850 C 0.46095 0.01398 0.03115 0.0
C851 C 0.45066 0.99056 0.02165 0.0
C852 C 0.46049 0.98806 0.00583 0.0
H853 H 0.03766 0.03964 0.49773 0.0
H854 H 0.0296 0.99292 0.54236 0.0
H855 H 0.9962 0.95752 0.52975 0.0
H856 H 0.96268 0.03058 0.48537 0.0
H857 H 0.97183 0.02576 0.46476 0.0
H858 H 0.99503 0.0476 0.47732 0.0
H859 H 0.0396 0.01538 0.46981 0.0
H860 H 0.01656 0.99353 0.45718 0.0
H861 H 0.03763 0.97631 0.47265 0.0
H862 H 0.9639 0.92681 0.5122 0.0
H863 H 0.93602 0.90261 0.49078 0.0
H864 H 0.96503 0.96961 0.45778 0.0
C865 C 0.02891 0.02196 0.50486 0.0
C866 C 0.03629 0.01908 0.52104 0.0
C867 C 0.0243 0.99561 0.52994 0.0
C868 C 0.00525 0.97539 0.52289 0.0
C869 C 0.99833 0.97893 0.50694 0.0
C870 C 0.00982 0.00159 0.49803 0.0
C871 C 0.99908 0.0003 0.48107 0.0
C872 C 0.98108 0.02768 0.47689 0.0
C873 C 0.02475 0.99612 0.4695 0.0
C874 C 0.97993 0.97327 0.48184 0.0
C875 C 0.97969 0.9613 0.49687 0.0
C876 C 0.96385 0.93602 0.50038 0.0
C877 C 0.94806 0.92245 0.48815 0.0
C878 C 0.94829 0.9342 0.47261 0.0
C879 C 0.96429 0.96009 0.46953 0.0
H880 H 0.98449 0.16604 0.03231 0.0
H881 H 0.91214 0.22551 0.02458 0.0
H882 H 0.94587 0.26166 0.01279 0.0
H883 H 0.02976 0.21656 0.04694 0.0
H884 H 0.06336 0.20264 0.03867 0.0
H885 H 0.03312 0.17835 0.04193 0.0
H886 H 0.03439 0.16315 0.01234 0.0
H887 H 0.06473 0.18766 0.00899 0.0
H888 H 0.03205 0.19084 -0.00284 0.0
H889 H 0.98719 0.29449 0.00699 0.0
H890 H 0.03254 0.32289 0.01013 0.0
H891 H 0.07914 0.24325 0.0224 0.0
C892 C 0.97576 0.18618 0.02746 0.0
C893 C 0.94584 0.19298 0.02905 0.0
C894 C 0.93507 0.21996 0.02328 0.0
C895 C 0.95401 0.24047 0.01645 0.0
C896 C 0.98371 0.23371 0.01555 0.0
C897 C 0.99458 0.2072 0.02092 0.0
C898 C 0.02771 0.20752 0.02141 0.0
C899 C 0.03913 0.20091 0.03823 0.0
C900 C 0.04047 0.18601 0.00925 0.0
C901 C 0.03363 0.23893 0.01659 0.0
C902 C 0.00803 0.25332 0.01267 0.0
C903 C 0.00748 0.28334 0.00968 0.0
C904 C 0.03342 0.29934 0.01152 0.0
C905 C 0.05946 0.28537 0.01658 0.0
C906 C 0.05974 0.25456 0.01832 0.0
H907 H 0.0578 0.71386 0.27412 0.0
H908 H 0.99812 0.64041 0.2701 0.0
H909 H 0.95776 0.6745 0.2638 0.0
H910 H 0.01095 0.75758 0.29484 0.0
H911 H 0.02224 0.79169 0.28599 0.0
H912 H 0.04736 0.76151 0.28688 0.0
H913 H 0.05447 0.76411 0.25643 0.0
H914 H 0.02933 0.79445 0.25545 0.0
H915 H 0.023 0.76227 0.24359 0.0
H916 H 0.92289 0.71679 0.26123 0.0
H917 H 0.89608 0.76335 0.26446 0.0
H918 H 0.9785 0.8089 0.27123 0.0
C919 C 0.03647 0.70486 0.27137 0.0
C920 C 0.03115 0.67448 0.27239 0.0
C921 C 0.0027 0.66363 0.26927 0.0
C922 C 0.97969 0.68281 0.2656 0.0
C923 C 0.98549 0.71276 0.26513 0.0
C924 C 0.01323 0.72371 0.26795 0.0
C925 C 0.01304 0.75679 0.26885 0.0
C926 C 0.02403 0.7675 0.2851 0.0
C927 C 0.03103 0.77019 0.25527 0.0
C928 C 0.98072 0.7627 0.26671 0.0
C929 C 0.96525 0.73713 0.26419 0.0
C930 C 0.93482 0.737 0.26296 0.0
C931 C 0.91977 0.76358 0.26478 0.0
C932 C 0.93518 0.78979 0.26809 0.0
C933 C 0.96608 0.78929 0.26863 0.0
H934 H 0.47511 0.68 0.5256 0.0
H935 H 0.40425 0.74297 0.52632 0.0
H936 H 0.43926 0.78272 0.52038 0.0
H937 H 0.52243 0.72183 0.54678 0.0
H938 H 0.55538 0.71095 0.53662 0.0
H939 H 0.52445 0.68671 0.53711 0.0
H940 H 0.52422 0.68438 0.50643 0.0
H941 H 0.55541 0.70854 0.50584 0.0
H942 H 0.52259 0.71783 0.49511 0.0
H943 H 0.48231 0.81619 0.51818 0.0
H944 H 0.52994 0.84095 0.52133 0.0
H945 H 0.57309 0.75637 0.52341 0.0
C946 C 0.46689 0.70199 0.52384 0.0
C947 C 0.43699 0.70844 0.5261 0.0
C948 C 0.42708 0.73762 0.52443 0.0
C949 C 0.44678 0.76029 0.521 0.0
C950 C 0.47634 0.75342 0.51938 0.0
C951 C 0.48638 0.72494 0.52074 0.0
C952 C 0.51951 0.72391 0.52084 0.0
C953 C 0.5311 0.71005 0.53625 0.0
C954 C 0.53111 0.70771 0.50618 0.0
C955 C 0.52649 0.75628 0.52001 0.0
C956 C 0.50135 0.77289 0.51876 0.0
C957 C 0.50219 0.8034 0.5189 0.0
C958 C 0.52938 0.81728 0.52071 0.0
C959 C 0.5553 0.80064 0.52263 0.0
C960 C 0.55374 0.76976 0.52189 0.0
H961 H 0.57926 0.24094 0.77897 0.0
H962 H 0.52378 0.17332 0.75937 0.0
H963 H 0.48777 0.21075 0.75122 0.0
H964 H 0.52579 0.27555 0.79765 0.0
H965 H 0.5388 0.31251 0.7951 0.0
H966 H 0.56422 0.28265 0.79463 0.0
H967 H 0.58225 0.29908 0.7669 0.0
H968 H 0.55683 0.32926 0.76732 0.0
H969 H 0.55625 0.30375 0.75104 0.0
H970 H 0.45389 0.25274 0.75035 0.0
H971 H 0.42348 0.29446 0.75859 0.0
H972 H 0.49954 0.33511 0.78014 0.0
C973 C 0.56023 0.23438 0.77219 0.0
C974 C 0.55447 0.20455 0.76935 0.0
C975 C 0.52869 0.19625 0.76129 0.0
C976 C 0.50823 0.21737 0.75658 0.0
C977 C 0.5138 0.24665 0.76018 0.0
C978 C 0.53924 0.2552 0.7678 0.0
C979 C 0.5374 0.28681 0.77313 0.0
C980 C 0.54178 0.2895 0.79119 0.0
C981 C 0.5595 0.30585 0.76405 0.0
C982 C 0.5063 0.29404 0.76831 0.0
C983 C 0.49345 0.27096 0.76033 0.0
C984 C 0.46389 0.27121 0.75627 0.0
C985 C 0.44673 0.29505 0.76105 0.0
C986 C 0.45906 0.31811 0.77007 0.0
C987 C 0.4895 0.31807 0.77309 0.0
H988 H 0.97577 0.80316 0.4511 0.0
H989 H 0.89903 0.74757 0.45152 0.0
H990 H 0.92924 0.70588 0.46056 0.0
H991 H 0.01919 0.75395 0.43307 0.0
H992 H 0.05269 0.76303 0.44322 0.0
H993 H 0.02444 0.79005 0.44121 0.0
H994 H 0.02335 0.79704 0.47168 0.0
H995 H 0.05181 0.76998 0.47379 0.0
H996 H 0.01781 0.76577 0.48438 0.0
H997 H 0.96838 0.66885 0.46532 0.0
H998 H 0.01312 0.63888 0.46293 0.0
H999 H 0.06482 0.71794 0.45763 0.0
C1000 C 0.96523 0.78251 0.45382 0.0
C1001 C 0.93509 0.77857 0.45102 0.0
C1002 C 0.92209 0.75098 0.45388 0.0
C1003 C 0.93905 0.72727 0.45908 0.0
C1004 C 0.96901 0.7315 0.4612 0.0
C1005 C 0.98202 0.75847 0.45862 0.0
C1006 C 0.01507 0.75612 0.45897 0.0
C1007 C 0.02861 0.76637 0.44318 0.0
C1008 C 0.02775 0.77324 0.47305 0.0
C1009 C 0.01861 0.72346 0.46132 0.0
C1010 C 0.99184 0.70976 0.46313 0.0
C1011 C 0.9895 0.67937 0.4642 0.0
C1012 C 0.01505 0.66251 0.46285 0.0
C1013 C 0.04243 0.67608 0.46009 0.0
C1014 C 0.04421 0.70696 0.45984 0.0
H1015 H 0.57682 0.77771 0.70977 0.0
H1016 H 0.52006 0.85367 0.70915 0.0
H1017 H 0.47782 0.82242 0.71603 0.0
H1018 H 0.52965 0.7331 0.68984 0.0
H1019 H 0.53837 0.69982 0.70031 0.0
H1020 H 0.56505 0.72859 0.69896 0.0
H1021 H 0.56922 0.7298 0.72959 0.0
H1022 H 0.54245 0.70091 0.73102 0.0
H1023 H 0.53675 0.7349 0.74141 0.0
H1024 H 0.44102 0.78277 0.71923 0.0
H1025 H 0.41197 0.73761 0.71651 0.0
H1026 H 0.4922 0.68688 0.71401 0.0
C1027 C 0.55566 0.7878 0.71167 0.0
C1028 C 0.55164 0.81806 0.70918 0.0
C1029 C 0.52351 0.83049 0.71113 0.0
C1030 C 0.49947 0.81296 0.71514 0.0
C1031 C 0.5039 0.78301 0.71708 0.0
C1032 C 0.53129 0.77047 0.71538 0.0
C1033 C 0.52942 0.73738 0.71576 0.0
C1034 C 0.54131 0.72396 0.7003 0.0
C1035 C 0.54541 0.72502 0.73031 0.0
C1036 C 0.49662 0.7333 0.71721 0.0
C1037 C 0.48238 0.75987 0.71839 0.0
C1038 C 0.45193 0.76179 0.71859 0.0
C1039 C 0.43559 0.73596 0.71703 0.0
C1040 C 0.44975 0.70862 0.71504 0.0
C1041 C 0.48066 0.70735 0.71565 0.0
H1042 H 0.5369 0.19797 0.96548 0.0
H1043 H 0.60847 0.26006 0.96753 0.0
H1044 H 0.57431 0.29852 0.97641 0.0
H1045 H 0.49072 0.24242 0.94707 0.0
H1046 H 0.45753 0.23049 0.95667 0.0
H1047 H 0.48815 0.20612 0.95538 0.0
H1048 H 0.48773 0.1998 0.98591 0.0
H1049 H 0.45695 0.22437 0.98728 0.0
H1050 H 0.48974 0.23162 -0.00152 0.0
H1051 H 0.53225 0.33193 0.97959 0.0
H1052 H 0.48627 0.35809 0.97417 0.0
H1053 H 0.44126 0.27495 0.96917 0.0
C1054 C 0.5455 0.21935 0.9685 0.0
C1055 C 0.57527 0.22605 0.96605 0.0
C1056 C 0.5857 0.25451 0.96946 0.0
C1057 C 0.56649 0.2764 0.97465 0.0
C1058 C 0.53694 0.26948 0.97633 0.0
C1059 C 0.52647 0.24157 0.97337 0.0
C1060 C 0.49335 0.24105 0.97306 0.0
C1061 C 0.4818 0.22937 0.9571 0.0
C1062 C 0.48123 0.22315 0.98702 0.0
C1063 C 0.4869 0.27333 0.97513 0.0
C1064 C 0.51224 0.2892 0.97764 0.0
C1065 C 0.51217 0.31971 0.97799 0.0
C1066 C 0.48587 0.33442 0.9749 0.0
C1067 C 0.46014 0.31857 0.97115 0.0
C1068 C 0.46048 0.28768 0.97212 0.0
H1069 H 0.00194 0.32013 0.19934 0.0
H1070 H 0.0719 0.29381 0.23109 0.0
H1071 H 0.0396 0.2566 0.24287 0.0
H1072 H 0.93878 0.30341 0.22778 0.0
H1073 H 0.91657 0.29025 0.21163 0.0
H1074 H 0.94249 0.31941 0.20834 0.0
H1075 H 0.96638 0.28942 0.18574 0.0
H1076 H 0.94077 0.26025 0.18899 0.0
H1077 H 0.97951 0.25297 0.18982 0.0
H1078 H 0.00522 0.21542 0.2465 0.0
H1079 H 0.97 0.175 0.24261 0.0
H1080 H 0.92066 0.22863 0.20983 0.0
C1081 C 0.01011 0.30736 0.2092 0.0
C1082 C 0.03949 0.30996 0.21427 0.0
C1083 C 0.04949 0.29233 0.22699 0.0
C1084 C 0.03123 0.27117 0.23383 0.0
C1085 C 0.00285 0.26818 0.22803 0.0
C1086 C 0.99211 0.28614 0.21618 0.0
C1087 C 0.96223 0.27598 0.21065 0.0
C1088 C 0.93862 0.29861 0.21486 0.0
C1089 C 0.96226 0.26924 0.19275 0.0
C1090 C 0.95874 0.24841 0.22046 0.0
C1091 C 0.98221 0.24458 0.23062 0.0
C1092 C 0.98619 0.21864 0.23908 0.0
C1093 C 0.96617 0.1958 0.23679 0.0
C1094 C 0.94233 0.19919 0.22629 0.0
C1095 C 0.93806 0.22611 0.21844 0.0
H1096 H 0.93414 0.73207 0.96138 0.0
H1097 H 0.98384 0.65389 0.97271 0.0
H1098 H 0.02721 0.68429 0.97816 0.0
H1099 H 0.98563 0.76564 0.94009 0.0
H1100 H 0.97865 0.80254 0.94661 0.0
H1101 H 0.94989 0.77582 0.94727 0.0
H1102 H 0.94257 0.78548 0.97726 0.0
H1103 H 0.97126 0.81258 0.97668 0.0
H1104 H 0.97332 0.78261 0.99055 0.0
H1105 H 0.06731 0.72109 0.97592 0.0
H1106 H 0.09981 0.76214 0.96844 0.0
H1107 H 0.02398 0.81698 0.96018 0.0
C1108 C 0.95382 0.72142 0.96558 0.0
C1109 C 0.95555 0.69059 0.96659 0.0
C1110 C 0.98184 0.67747 0.97195 0.0
C1111 C 0.00666 0.69459 0.97509 0.0
C1112 C 0.00464 0.72483 0.97317 0.0
C1113 C 0.97867 0.73821 0.9689 0.0
C1114 C 0.983 0.77062 0.96593 0.0
C1115 C 0.97376 0.77912 0.94898 0.0
C1116 C 0.96656 0.7889 0.97835 0.0
C1117 C 0.01578 0.773 0.96815 0.0
C1118 C 0.02785 0.74644 0.97253 0.0
C1119 C 0.05807 0.74225 0.97305 0.0
C1120 C 0.07637 0.7656 0.96872 0.0
C1121 C 0.06435 0.79282 0.96406 0.0
C1122 C 0.03373 0.79672 0.96424 0.0
H1123 H 0.92927 0.27773 0.7019 0.0
H1124 H 0.98419 0.35222 0.71291 0.0
H1125 H 0.02444 0.31886 0.72049 0.0
H1126 H 0.96075 0.22458 0.73192 0.0
H1127 H 0.95874 0.19473 0.71801 0.0
H1128 H 0.93209 0.2238 0.71726 0.0
H1129 H 0.94481 0.2329 0.68773 0.0
H1130 H 0.97142 0.20402 0.68841 0.0
H1131 H 0.98224 0.24023 0.68224 0.0
H1132 H 0.06042 0.27853 0.72316 0.0
H1133 H 0.09091 0.23501 0.71844 0.0
H1134 H 0.01363 0.1864 0.70411 0.0
C1135 C 0.94941 0.28681 0.70654 0.0
C1136 C 0.95363 0.31735 0.70722 0.0
C1137 C 0.9806 0.32878 0.71259 0.0
C1138 C 0.00345 0.31002 0.71698 0.0
C1139 C 0.99902 0.27991 0.71576 0.0
C1140 C 0.97269 0.26833 0.7106 0.0
C1141 C 0.97514 0.23565 0.70786 0.0
C1142 C 0.95551 0.21869 0.71946 0.0
C1143 C 0.968 0.22776 0.69053 0.0
C1144 C 0.00723 0.23092 0.71157 0.0
C1145 C 0.02036 0.25655 0.71657 0.0
C1146 C 0.05031 0.25821 0.7195 0.0
C1147 C 0.06748 0.23331 0.71676 0.0
C1148 C 0.05474 0.2072 0.71087 0.0
C1149 C 0.02405 0.20587 0.70875 0.0
H1150 H 0.56037 0.26373 0.45593 0.0
H1151 H 0.50939 0.34275 0.46283 0.0
H1152 H 0.4669 0.31271 0.4709 0.0
H1153 H 0.50808 0.22384 0.43803 0.0
H1154 H 0.51714 0.18914 0.44695 0.0
H1155 H 0.54476 0.21681 0.44493 0.0
H1156 H 0.55478 0.21455 0.47514 0.0
H1157 H 0.52703 0.18674 0.47726 0.0
H1158 H 0.52503 0.21975 0.48889 0.0
H1159 H 0.42781 0.2743 0.47239 0.0
H1160 H 0.39628 0.23097 0.46832 0.0
H1161 H 0.47328 0.17689 0.46221 0.0
C1162 C 0.54052 0.27477 0.45958 0.0
C1163 C 0.53814 0.30555 0.45873 0.0
C1164 C 0.51177 0.31919 0.46351 0.0
C1165 C 0.48753 0.30229 0.46813 0.0
C1166 C 0.4903 0.27187 0.46828 0.0
C1167 C 0.51635 0.25827 0.4644 0.0
C1168 C 0.51297 0.22532 0.46391 0.0
C1169 C 0.5212 0.21309 0.44748 0.0
C1170 C 0.53102 0.21073 0.47709 0.0
C1171 C 0.48052 0.22252 0.46712 0.0
C1172 C 0.46786 0.24957 0.46984 0.0
C1173 C 0.43758 0.25292 0.47082 0.0
C1174 C 0.41982 0.22822 0.46849 0.0
C1175 C 0.43243 0.20054 0.46533 0.0
C1176 C 0.46314 0.19757 0.46523 0.0
H1177 H 0.41052 0.77449 0.20488 0.0
H1178 H 0.46602 0.84224 0.22441 0.0
H1179 H 0.50379 0.80533 0.23059 0.0
H1180 H 0.43825 0.71033 0.23061 0.0
H1181 H 0.43647 0.68618 0.21376 0.0
H1182 H 0.41032 0.71551 0.21579 0.0
H1183 H 0.42463 0.73452 0.18792 0.0
H1184 H 0.45097 0.70571 0.18588 0.0
H1185 H 0.46236 0.74331 0.18383 0.0
H1186 H 0.5391 0.76424 0.22917 0.0
H1187 H 0.5694 0.72343 0.21942 0.0
H1188 H 0.49204 0.68269 0.19934 0.0
C1189 C 0.42994 0.78116 0.21129 0.0
C1190 C 0.43521 0.81097 0.21452 0.0
C1191 C 0.46147 0.81936 0.22212 0.0
C1192 C 0.48298 0.79851 0.2257 0.0
C1193 C 0.47792 0.76942 0.22151 0.0
C1194 C 0.4519 0.76069 0.21455 0.0
C1195 C 0.454 0.72964 0.20838 0.0
C1196 C 0.43355 0.7092 0.2177 0.0
C1197 C 0.44764 0.72825 0.19045 0.0
C1198 C 0.48577 0.72303 0.21196 0.0
C1199 C 0.49892 0.74581 0.22004 0.0
C1200 C 0.52888 0.74596 0.22319 0.0
C1201 C 0.54597 0.72268 0.21755 0.0
C1202 C 0.53312 0.69986 0.20858 0.0
C1203 C 0.50249 0.69969 0.20626 0.0
H1204 H 0.92282 0.23477 0.52663 0.0
H1205 H 0.96404 0.31292 0.50761 0.0
H1206 H 0.00722 0.28376 0.50013 0.0
H1207 H 0.98245 0.20755 0.54484 0.0
H1208 H 0.97547 0.16943 0.54082 0.0
H1209 H 0.94558 0.19486 0.54157 0.0
H1210 H 0.92978 0.17947 0.51328 0.0
H1211 H 0.95977 0.15387 0.51245 0.0
H1212 H 0.95581 0.18135 0.49726 0.0
H1213 H 0.04917 0.2491 0.49991 0.0
H1214 H 0.0859 0.21129 0.50642 0.0
H1215 H 0.01723 0.15486 0.52431 0.0
C1216 C 0.94051 0.24564 0.52044 0.0
C1217 C 0.93996 0.27618 0.51772 0.0
C1218 C 0.96381 0.28955 0.50978 0.0
C1219 C 0.98844 0.27312 0.50541 0.0
C1220 C 0.98871 0.24325 0.5088 0.0
C1221 C 0.96518 0.22953 0.51594 0.0
C1222 C 0.9722 0.19798 0.51996 0.0
C1223 C 0.96874 0.19215 0.53785 0.0
C1224 C 0.95326 0.17693 0.51015 0.0
C1225 C 0.00394 0.1966 0.51486 0.0
C1226 C 0.01292 0.2228 0.50821 0.0
C1227 C 0.04222 0.22818 0.50461 0.0
C1228 C 0.06294 0.20663 0.50836 0.0
C1229 C 0.05423 0.18 0.51552 0.0
C1230 C 0.02426 0.17458 0.51828 0.0
H1231 H 0.48046 0.17439 0.27863 0.0
H1232 H 0.40138 0.21288 0.2592 0.0
H1233 H 0.43008 0.25484 0.24948 0.0
H1234 H 0.5072 0.23536 0.29441 0.0
H1235 H 0.54539 0.22888 0.29038 0.0
H1236 H 0.52069 0.19852 0.29207 0.0
H1237 H 0.53584 0.18045 0.26416 0.0
H1238 H 0.56087 0.21082 0.26241 0.0
H1239 H 0.5333 0.20496 0.24747 0.0
H1240 H 0.46379 0.29688 0.24774 0.0
H1241 H 0.50046 0.33513 0.25344 0.0
H1242 H 0.55865 0.2697 0.27304 0.0
C1243 C 0.46933 0.19104 0.27177 0.0
C1244 C 0.43864 0.19026 0.26967 0.0
C1245 C 0.42486 0.21288 0.26094 0.0
C1246 C 0.44103 0.23678 0.25529 0.0
C1247 C 0.47103 0.23758 0.25825 0.0
C1248 C 0.48517 0.21508 0.26609 0.0
C1249 C 0.51664 0.22308 0.26977 0.0
C1250 C 0.5228 0.22137 0.28771 0.0
C1251 C 0.53792 0.20367 0.26039 0.0
C1252 C 0.51738 0.25434 0.26381 0.0
C1253 C 0.49102 0.26206 0.25688 0.0
C1254 C 0.48485 0.29088 0.25261 0.0
C1255 C 0.50573 0.31247 0.25592 0.0
C1256 C 0.53248 0.30509 0.26333 0.0
C1257 C 0.53879 0.27558 0.2668 0.0
H1258 H 0.4291 0.78859 0.01623 0.0
H1259 H 0.47355 0.87114 0.0079 0.0
H1260 H 0.51781 0.84438 -0.00026 0.0
H1261 H 0.48335 0.75549 0.03481 0.0
H1262 H 0.47817 0.71924 0.02687 0.0
H1263 H 0.44789 0.74411 0.02775 0.0
H1264 H 0.43949 0.73817 -0.00245 0.0
H1265 H 0.46981 0.71298 -0.00341 0.0
H1266 H 0.46922 0.74484 0.98398 0.0
H1267 H 0.55991 0.81004 -0.00064 0.0
H1268 H 0.59531 0.77085 0.00554 0.0
H1269 H 0.52368 0.71017 0.01296 0.0
C1270 C 0.44774 0.80107 0.01208 0.0
C1271 C 0.4478 0.83198 0.01275 0.0
C1272 C 0.47283 0.84747 0.00743 0.0
C1273 C 0.49812 0.83242 0.00272 0.0
C1274 C 0.49788 0.80191 0.00308 0.0
C1275 C 0.47309 0.78637 0.00731 0.0
C1276 C 0.47956 0.75398 0.00887 0.0
C1277 C 0.47181 0.74258 0.02556 0.0
C1278 C 0.46357 0.73646 -0.00403 0.0
C1279 C 0.51227 0.75402 0.00607 0.0
C1280 C 0.52236 0.78176 0.0024 0.0
C1281 C 0.55221 0.78804 0.00167 0.0
C1282 C 0.57218 0.76568 0.00525 0.0
C1283 C 0.56222 0.7374 0.00947 0.0
C1284 C 0.53194 0.73132 0.00925 0.0
H1285 H 0.99631 0.69431 0.7703 0.0
H1286 H 0.91271 0.73922 0.76922 0.0
H1287 H 0.93804 0.78557 0.76309 0.0
H1288 H 0.03282 0.7446 0.79076 0.0
H1289 H 0.06741 0.7414 0.78063 0.0
H1290 H 0.04261 0.71098 0.78091 0.0
H1291 H 0.0431 0.70931 0.75021 0.0
H1292 H 0.0681 0.73986 0.74984 0.0
H1293 H 0.0341 0.74176 0.73906 0.0
H1294 H 0.97243 0.82791 0.76363 0.0
H1295 H 0.01276 0.86204 0.76981 0.0
H1296 H 0.07414 0.78979 0.76925 0.0
C1297 C 0.98322 0.71368 0.76822 0.0
C1298 C 0.95253 0.71312 0.77026 0.0
C1299 C 0.93622 0.73902 0.76761 0.0
C1300 C 0.95044 0.76547 0.76408 0.0
C1301 C 0.9809 0.76554 0.7629 0.0
C1302 C 0.99706 0.74015 0.7646 0.0
C1303 C 0.02958 0.7465 0.76481 0.0
C1304 C 0.04391 0.73523 0.78019 0.0
C1305 C 0.0446 0.7336 0.7501 0.0
C1306 C 0.02918 0.7796 0.76413 0.0
C1307 C 0.00093 0.79018 0.76271 0.0
C1308 C 0.99471 0.81994 0.7642 0.0
C1309 C 0.01773 0.83918 0.76775 0.0
C1310 C 0.0466 0.82859 0.76972 0.0
C1311 C 0.05246 0.79862 0.76725 0.0
H1312 H 0.31577 0.32922 0.97679 0.0
H1313 H 0.32549 0.42358 0.97423 0.0
H1314 H 0.27613 0.42953 0.98599 0.0
H1315 H 0.24135 0.32595 0.96618 0.0
H1316 H 0.23256 0.29651 0.9796 0.0
H1317 H 0.26903 0.29977 0.97172 0.0
H1318 H 0.29061 0.30103 0.00014 0.0
H1319 H 0.25428 0.29698 0.0081 0.0
H1320 H 0.27682 0.32733 0.0142 0.0
H1321 H 0.224 0.42446 -0.00349 0.0
H1322 H 0.17721 0.40911 0.00876 0.0
H1323 H 0.20318 0.31815 0.00423 0.0
C1324 C 0.30772 0.35118 0.97889 0.0
C1325 C 0.32435 0.37595 0.97459 0.0
C1326 C 0.31314 0.40431 0.97758 0.0
C1327 C 0.28505 0.40787 0.98409 0.0
C1328 C 0.26876 0.38286 0.98761 0.0
C1329 C 0.28 0.35509 0.98539 0.0
C1330 C 0.25851 0.33166 0.99027 0.0
C1331 C 0.24986 0.31235 0.9761 0.0
C1332 C 0.27078 0.31318 0.004 0.0
C1333 C 0.23326 0.35052 -0.00441 0.0
C1334 C 0.23933 0.37998 -0.00619 0.0
C1335 C 0.2191 0.40145 -0.00199 0.0
C1336 C 0.19248 0.39252 0.00481 0.0
C1337 C 0.18664 0.36245 0.00745 0.0
C1338 C 0.20704 0.3413 0.00237 0.0
H1339 H 0.83827 0.05795 0.23751 0.0
H1340 H 0.92071 0.08171 0.25916 0.0
H1341 H 0.92264 0.03383 0.27257 0.0
H1342 H 0.81141 0.00565 0.27122 0.0
H1343 H 0.79623 0.98115 0.25664 0.0
H1344 H 0.79621 0.0201 0.25312 0.0
H1345 H 0.82304 0.0114 0.22656 0.0
H1346 H 0.8241 0.97268 0.23014 0.0
H1347 H 0.85763 0.9924 0.22655 0.0
H1348 H 0.92357 0.98106 0.27661 0.0
H1349 H 0.9199 0.92772 0.27477 0.0
H1350 H 0.83586 0.9359 0.25124 0.0
C1351 C 0.85556 0.0537 0.24598 0.0
C1352 C 0.87894 0.07363 0.24774 0.0
C1353 C 0.90227 0.06692 0.25808 0.0
C1354 C 0.90358 0.03971 0.26566 0.0
C1355 C 0.88134 0.01954 0.26275 0.0
C1356 C 0.8573 0.02635 0.25349 0.0
C1357 C 0.83897 0.99926 0.25023 0.0
C1358 C 0.80892 0.00169 0.25829 0.0
C1359 C 0.83578 0.99363 0.23231 0.0
C1360 C 0.8576 0.97595 0.25808 0.0
C1361 C 0.88169 0.98828 0.26541 0.0
C1362 C 0.90421 0.97119 0.27153 0.0
C1363 C 0.90197 0.94077 0.27031 0.0
C1364 C 0.8772 0.9275 0.26322 0.0
C1365 C 0.85463 0.94542 0.25714 0.0
H1366 H 0.19318 0.59129 0.47873 0.0
H1367 H 0.16272 0.68086 0.48247 0.0
H1368 H 0.20732 0.69408 0.49729 0.0
H1369 H 0.23101 0.58802 0.51789 0.0
H1370 H 0.26075 0.56646 0.51011 0.0
H1371 H 0.2247 0.5632 0.50165 0.0
H1372 H 0.24627 0.57517 0.474 0.0
H1373 H 0.28224 0.57923 0.48243 0.0
H1374 H 0.26634 0.60876 0.47118 0.0
H1375 H 0.25595 0.6988 0.50949 0.0
H1376 H 0.30519 0.694 0.521 0.0
H1377 H 0.30633 0.60175 0.50874 0.0
C1378 C 0.19552 0.61335 0.48324 0.0
C1379 C 0.1744 0.63502 0.47982 0.0
C1380 C 0.17855 0.66398 0.48526 0.0
C1381 C 0.20384 0.67169 0.49358 0.0
C1382 C 0.22487 0.6502 0.4962 0.0
C1383 C 0.22097 0.62154 0.49141 0.0
C1384 C 0.24795 0.6033 0.49501 0.0
C1385 C 0.24067 0.5788 0.50687 0.0
C1386 C 0.26149 0.59089 0.47974 0.0
C1387 C 0.26763 0.62632 0.50239 0.0
C1388 C 0.2537 0.65315 0.50295 0.0
C1389 C 0.26706 0.67789 0.50923 0.0
C1390 C 0.29507 0.67497 0.51565 0.0
C1391 C 0.30956 0.64757 0.51567 0.0
C1392 C 0.29591 0.62304 0.50864 0.0
H1393 H 0.64989 0.06337 0.75974 0.0
H1394 H 0.55573 0.07561 0.76115 0.0
H1395 H 0.5487 0.02836 0.74774 0.0
H1396 H 0.65209 0.02649 0.72084 0.0
H1397 H 0.68068 0.00161 0.72677 0.0
H1398 H 0.67851 0.03748 0.73554 0.0
H1399 H 0.67708 0.01366 0.76341 0.0
H1400 H 0.67854 0.9777 0.7547 0.0
H1401 H 0.64906 0.98715 0.76793 0.0
H1402 H 0.55103 0.9799 0.73554 0.0
H1403 H 0.56297 0.93352 0.72217 0.0
H1404 H 0.65557 0.95037 0.72884 0.0
C1405 C 0.62791 0.05635 0.75682 0.0
C1406 C 0.60332 0.07311 0.76138 0.0
C1407 C 0.57481 0.06304 0.75772 0.0
C1408 C 0.57058 0.0362 0.75018 0.0
C1409 C 0.59509 0.01961 0.74642 0.0
C1410 C 0.62323 0.02929 0.74936 0.0
C1411 C 0.64555 0.00656 0.74423 0.0
C1412 C 0.66537 0.01876 0.73106 0.0
C1413 C 0.66362 0.99563 0.75842 0.0
C1414 C 0.62545 0.98272 0.73801 0.0
C1415 C 0.59645 0.99086 0.73949 0.0
C1416 C 0.57362 0.97319 0.73431 0.0
C1417 C 0.58059 0.94687 0.72683 0.0
C1418 C 0.61009 0.93838 0.72472 0.0
C1419 C 0.63285 0.95616 0.73068 0.0
H1420 H 0.69966 0.6933 0.00079 0.0
H1421 H 0.67039 0.60335 0.00523 0.0
H1422 H 0.71812 0.58617 -0.00504 0.0
H1423 H 0.74087 0.68233 0.96389 0.0
H1424 H 0.76875 0.70815 0.96961 0.0
H1425 H 0.7318 0.7127 0.97659 0.0
H1426 H 0.75105 0.71338 0.00549 0.0
H1427 H 0.78796 0.70798 -0.00138 0.0
H1428 H 0.77221 0.68288 0.01274 0.0
H1429 H 0.77104 0.57907 0.98677 0.0
H1430 H 0.82138 0.58265 0.97606 0.0
H1431 H 0.81439 0.67732 0.97579 0.0
C1432 C 0.7031 0.67001 -0.00072 0.0
C1433 C 0.68145 0.64961 0.00377 0.0
C1434 C 0.68665 0.61931 0.00167 0.0
C1435 C 0.71377 0.60937 -0.00397 0.0
C1436 C 0.73513 0.63007 -0.00768 0.0
C1437 C 0.72976 0.65978 -0.00656 0.0
C1438 C 0.75607 0.67758 0.98842 0.0
C1439 C 0.74894 0.69628 0.97375 0.0
C1440 C 0.76748 0.69657 0.00214 0.0
C1441 C 0.77726 0.65326 0.9845 0.0
C1442 C 0.765 0.62601 0.98705 0.0
C1443 C 0.78077 0.60029 0.98457 0.0
C1444 C 0.80942 0.60253 0.97868 0.0
C1445 C 0.82164 0.63025 0.97514 0.0
C1446 C 0.80552 0.65586 0.97841 0.0
H1447 H 0.10858 0.93986 0.74712 0.0
H1448 H 0.14533 0.97124 0.79125 0.0
H1449 H 0.15102 0.02073 0.77968 0.0
H1450 H 0.15237 0.98592 0.7201 0.0
H1451 H 0.122 0.99212 0.7069 0.0
H1452 H 0.12421 0.95855 0.71806 0.0
H1453 H 0.07262 0.96842 0.72965 0.0
H1454 H 0.07039 0.00214 0.71868 0.0
H1455 H 0.06568 0.00234 0.73988 0.0
H1456 H 0.15099 0.06704 0.76363 0.0
H1457 H 0.14343 0.10747 0.74449 0.0
H1458 H 0.10337 0.04641 0.71162 0.0
C1459 C 0.11848 0.95708 0.75413 0.0
C1460 C 0.12711 0.95197 0.76989 0.0
C1461 C 0.13905 0.97497 0.77903 0.0
C1462 C 0.14234 0.00303 0.77258 0.0
C1463 C 0.13316 0.00767 0.75705 0.0
C1464 C 0.12139 0.98538 0.74795 0.0
C1465 C 0.11112 0.99673 0.73205 0.0
C1466 C 0.12847 0.98248 0.71848 0.0
C1467 C 0.07799 0.99214 0.72995 0.0
C1468 C 0.11862 0.02885 0.73373 0.0
C1469 C 0.13171 0.03466 0.74813 0.0
C1470 C 0.14075 0.06279 0.7523 0.0
C1471 C 0.13635 0.08558 0.7414 0.0
C1472 C 0.12256 0.08011 0.72668 0.0
C1473 C 0.1136 0.05135 0.72288 0.0
H1474 H 0.8021 0.37497 0.50154 0.0
H1475 H 0.80551 0.28045 0.50657 0.0
H1476 H 0.7569 0.27631 0.49429 0.0
H1477 H 0.72731 0.38298 0.51093 0.0
H1478 H 0.71961 0.41126 0.49662 0.0
H1479 H 0.75597 0.4075 0.50462 0.0
H1480 H 0.77747 0.40243 0.47635 0.0
H1481 H 0.74129 0.407 0.46825 0.0
H1482 H 0.76268 0.37526 0.46311 0.0
H1483 H 0.70755 0.28186 0.48356 0.0
H1484 H 0.66147 0.29637 0.47069 0.0
H1485 H 0.68821 0.38747 0.47226 0.0
C1486 C 0.79292 0.35341 0.49958 0.0
C1487 C 0.80754 0.32798 0.50493 0.0
C1488 C 0.79463 0.30016 0.50253 0.0
C1489 C 0.76698 0.29759 0.49566 0.0
C1490 C 0.7525 0.32306 0.49123 0.0
C1491 C 0.76507 0.35042 0.49275 0.0
C1492 C 0.74422 0.37413 0.48709 0.0
C1493 C 0.73632 0.39521 0.50063 0.0
C1494 C 0.75718 0.39068 0.47285 0.0
C1495 C 0.71804 0.3557 0.48228 0.0
C1496 C 0.72342 0.32633 0.48493 0.0
C1497 C 0.70305 0.30475 0.48134 0.0
C1498 C 0.6769 0.31322 0.47415 0.0
C1499 C 0.67131 0.34299 0.47063 0.0
C1500 C 0.69176 0.36465 0.47514 0.0
H1501 H 0.41078 0.05297 0.26146 0.0
H1502 H 0.31794 0.07138 0.26545 0.0
H1503 H 0.30685 0.02595 0.25061 0.0
H1504 H 0.40763 0.0243 0.22147 0.0
H1505 H 0.43566 0.9974 0.22518 0.0
H1506 H 0.4357 0.03137 0.23598 0.0
H1507 H 0.43557 0.00235 0.26241 0.0
H1508 H 0.435 0.9683 0.25169 0.0
H1509 H 0.40698 0.97602 0.26613 0.0
H1510 H 0.30626 0.97653 0.23677 0.0
H1511 H 0.31633 0.93132 0.22151 0.0
H1512 H 0.40955 0.94748 0.22574 0.0
C1513 C 0.38811 0.04756 0.25911 0.0
C1514 C 0.36519 0.06553 0.26463 0.0
C1515 C 0.33582 0.05793 0.26121 0.0
C1516 C 0.32932 0.03209 0.25293 0.0
C1517 C 0.35248 0.01445 0.24799 0.0
C1518 C 0.38129 0.02222 0.25068 0.0
C1519 C 0.40226 9e-05 0.24376 0.0
C1520 C 0.42143 0.01413 0.23083 0.0
C1521 C 0.42105 0.98585 0.25678 0.0
C1522 C 0.38077 0.9785 0.23683 0.0
C1523 C 0.35215 0.98685 0.23956 0.0
C1524 C 0.32859 0.9699 0.23446 0.0
C1525 C 0.33449 0.94418 0.22594 0.0
C1526 C 0.36369 0.93606 0.22244 0.0
C1527 C 0.38701 0.95327 0.22818 0.0
H1528 H 0.81244 0.88179 0.46555 0.0
H1529 H 0.79901 0.80126 0.43914 0.0
H1530 H 0.75001 0.79631 0.45066 0.0
H1531 H 0.77682 0.85846 0.50083 0.0
H1532 H 0.76037 0.89346 0.50503 0.0
H1533 H 0.79405 0.89169 0.49402 0.0
H1534 H 0.77004 0.9213 0.47127 0.0
H1535 H 0.73612 0.92277 0.48215 0.0
H1536 H 0.73674 0.90807 0.46234 0.0
H1537 H 0.70466 0.7972 0.46632 0.0
H1538 H 0.66552 0.80376 0.48623 0.0
H1539 H 0.70574 0.88475 0.50165 0.0
C1540 C 0.79915 0.86318 0.4622 0.0
C1541 C 0.80962 0.84201 0.45139 0.0
C1542 C 0.7915 0.81794 0.4473 0.0
C1543 C 0.76352 0.81492 0.45373 0.0
C1544 C 0.75371 0.83625 0.46416 0.0
C1545 C 0.77085 0.85991 0.46842 0.0
C1546 C 0.75519 0.87896 0.48043 0.0
C1547 C 0.77264 0.88072 0.496 0.0
C1548 C 0.74917 0.90959 0.47363 0.0
C1549 C 0.72702 0.86178 0.48252 0.0
C1550 C 0.72662 0.83733 0.4729 0.0
C1551 C 0.70431 0.81658 0.47368 0.0
C1552 C 0.68217 0.82049 0.48493 0.0
C1553 C 0.68237 0.84512 0.49501 0.0
C1554 C 0.70465 0.86636 0.49357 0.0
H1555 H 0.42731 0.57285 0.74133 0.0
H1556 H 0.33448 0.58496 0.73299 0.0
H1557 H 0.32418 0.53852 0.74698 0.0
H1558 H 0.43021 0.50003 0.73388 0.0
H1559 H 0.45606 0.49046 0.74915 0.0
H1560 H 0.45608 0.5268 0.74096 0.0
H1561 H 0.44913 0.54927 0.76889 0.0
H1562 H 0.45003 0.513 0.77728 0.0
H1563 H 0.41944 0.53679 0.78124 0.0
H1564 H 0.32521 0.48666 0.75744 0.0
H1565 H 0.33655 0.43759 0.7683 0.0
H1566 H 0.42853 0.46081 0.77055 0.0
C1567 C 0.40474 0.56626 0.74298 0.0
C1568 C 0.38168 0.58243 0.73615 0.0
C1569 C 0.35242 0.57306 0.73835 0.0
C1570 C 0.3464 0.54658 0.74614 0.0
C1571 C 0.36985 0.53023 0.75191 0.0
C1572 C 0.39837 0.54018 0.75087 0.0
C1573 C 0.4198 0.51797 0.75733 0.0
C1574 C 0.44181 0.50826 0.74456 0.0
C1575 C 0.43552 0.52998 0.77207 0.0
C1576 C 0.39902 0.4935 0.76161 0.0
C1577 C 0.37032 0.50086 0.75836 0.0
C1578 C 0.34754 0.48088 0.76036 0.0
C1579 C 0.35422 0.45298 0.76632 0.0
C1580 C 0.38339 0.44553 0.7703 0.0
C1581 C 0.40599 0.46603 0.76775 0.0
H1582 H 0.80765 0.10587 0.01707 0.0
H1583 H 0.82247 0.19787 0.02721 0.0
H1584 H 0.77876 0.21094 0.01184 0.0
H1585 H 0.78032 0.11601 0.97682 0.0
H1586 H 0.753 0.08771 0.97849 0.0
H1587 H 0.78626 0.08531 0.98986 0.0
H1588 H 0.75569 0.08085 0.01561 0.0
H1589 H 0.72233 0.08365 0.00433 0.0
H1590 H 0.72927 0.10881 0.02034 0.0
H1591 H 0.73458 0.21474 -0.00418 0.0
H1592 H 0.69152 0.20917 0.97855 0.0
H1593 H 0.70241 0.11483 0.9792 0.0
C1594 C 0.80181 0.12872 0.01582 0.0
C1595 C 0.81835 0.1509 0.0233 0.0
C1596 C 0.80995 0.18057 0.02164 0.0
C1597 C 0.78517 0.18823 0.01295 0.0
C1598 C 0.76888 0.16595 0.00608 0.0
C1599 C 0.77673 0.13682 0.00729 0.0
C1600 C 0.75477 0.11743 -0.00119 0.0
C1601 C 0.76947 0.10063 0.98518 0.0
C1602 C 0.73962 0.09645 0.01047 0.0
C1603 C 0.7336 0.14034 -0.00738 0.0
C1604 C 0.74236 0.16813 -0.00299 0.0
C1605 C 0.72732 0.19313 -0.00765 0.0
C1606 C 0.70293 0.18976 0.98259 0.0
C1607 C 0.69369 0.16162 0.97775 0.0
C1608 C 0.70883 0.13651 0.98304 0.0
H1609 H 0.11482 0.52637 0.2701 0.0
H1610 H 0.1141 0.59339 0.23371 0.0
H1611 H 0.11665 0.55486 0.21303 0.0
H1612 H 0.16608 0.47673 0.24938 0.0
H1613 H 0.14765 0.44452 0.25666 0.0
H1614 H 0.14793 0.47752 0.26834 0.0
H1615 H 0.09126 0.47648 0.2695 0.0
H1616 H 0.09075 0.4437 0.25772 0.0
H1617 H 0.07065 0.47551 0.25129 0.0
H1618 H 0.11235 0.50883 0.19671 0.0
H1619 H 0.1077 0.45892 0.18569 0.0
H1620 H 0.11547 0.42228 0.23292 0.0
C1621 C 0.11563 0.53291 0.25776 0.0
C1622 C 0.11408 0.56266 0.25337 0.0
C1623 C 0.11539 0.57061 0.2372 0.0
C1624 C 0.11676 0.54892 0.22544 0.0
C1625 C 0.11755 0.51964 0.23018 0.0
C1626 C 0.11768 0.51167 0.24597 0.0
C1627 C 0.11819 0.47877 0.24801 0.0
C1628 C 0.14666 0.46881 0.25607 0.0
C1629 C 0.0911 0.468 0.25716 0.0
C1630 C 0.11724 0.46931 0.23087 0.0
C1631 C 0.11675 0.4932 0.22077 0.0
C1632 C 0.11337 0.48998 0.20447 0.0
C1633 C 0.11054 0.46163 0.19835 0.0
C1634 C 0.11153 0.43693 0.20849 0.0
C1635 C 0.11522 0.44084 0.22492 0.0
H1636 H 0.18666 0.15105 0.50115 0.0
H1637 H 0.17817 0.05838 0.51117 0.0
H1638 H 0.22666 0.04953 0.49885 0.0
H1639 H 0.22435 0.14237 0.46261 0.0
H1640 H 0.24657 0.17438 0.46596 0.0
H1641 H 0.21037 0.17225 0.47433 0.0
H1642 H 0.23226 0.18209 0.50215 0.0
H1643 H 0.2686 0.18342 0.49397 0.0
H1644 H 0.26031 0.15814 0.50975 0.0
H1645 H 0.2791 0.05242 0.48843 0.0
H1646 H 0.32686 0.06524 0.47627 0.0
H1647 H 0.29892 0.15564 0.47224 0.0
C1648 C 0.19468 0.12878 0.50036 0.0
C1649 C 0.17878 0.10535 0.50701 0.0
C1650 C 0.18993 0.07653 0.5059 0.0
C1651 C 0.21754 0.07139 0.49909 0.0
C1652 C 0.23328 0.09526 0.49324 0.0
C1653 C 0.22183 0.12327 0.49342 0.0
C1654 C 0.24299 0.14528 0.48652 0.0
C1655 C 0.23032 0.15939 0.47146 0.0
C1656 C 0.25153 0.16859 0.49884 0.0
C1657 C 0.26847 0.12546 0.48273 0.0
C1658 C 0.2627 0.09672 0.48682 0.0
C1659 C 0.28366 0.07478 0.48497 0.0
C1660 C 0.3108 0.08229 0.47825 0.0
C1661 C 0.31644 0.11139 0.47331 0.0
C1662 C 0.29511 0.13319 0.47583 0.0
H1663 H 0.62694 0.45079 0.2518 0.0
H1664 H 0.54077 0.41764 0.24008 0.0
H1665 H 0.532 0.4606 0.223 0.0
H1666 H 0.60593 0.52316 0.25598 0.0
H1667 H 0.63825 0.53951 0.2475 0.0
H1668 H 0.64041 0.50404 0.25673 0.0
H1669 H 0.66178 0.48175 0.231 0.0
H1670 H 0.66035 0.51733 0.22179 0.0
H1671 H 0.64251 0.48657 0.21255 0.0
H1672 H 0.52998 0.50855 0.21008 0.0
H1673 H 0.53606 0.55827 0.19962 0.0
H1674 H 0.62337 0.56244 0.21993 0.0
C1675 C 0.60681 0.45215 0.24508 0.0
C1676 C 0.58471 0.43082 0.24684 0.0
C1677 C 0.55804 0.43365 0.23853 0.0
C1678 C 0.55286 0.45797 0.2289 0.0
C1679 C 0.57453 0.4793 0.22786 0.0
C1680 C 0.60113 0.47661 0.23552 0.0
C1681 C 0.61956 0.50398 0.23333 0.0
C1682 C 0.62643 0.51852 0.24934 0.0
C1683 C 0.64772 0.49698 0.22411 0.0
C1684 C 0.59884 0.52259 0.22354 0.0
C1685 C 0.57312 0.50771 0.22051 0.0
C1686 C 0.55017 0.52031 0.21215 0.0
C1687 C 0.55384 0.54866 0.20632 0.0
C1688 C 0.58027 0.56425 0.20887 0.0
C1689 C 0.60291 0.55113 0.21782 0.0
H1690 H 0.19621 0.83767 0.97421 0.0
H1691 H 0.16787 0.92825 0.97441 0.0
H1692 H 0.21418 0.94253 0.98761 0.0
H1693 H 0.23175 0.83975 0.01298 0.0
H1694 H 0.26038 0.8151 0.00685 0.0
H1695 H 0.22464 0.8126 -0.00202 0.0
H1696 H 0.24821 0.81832 0.97019 0.0
H1697 H 0.28395 0.82155 0.979 0.0
H1698 H 0.27059 0.84993 0.96604 0.0
H1699 H 0.26582 0.94699 -0.00131 0.0
H1700 H 0.31454 0.94029 0.01106 0.0
H1701 H 0.30708 0.84642 0.00455 0.0
C1702 C 0.19957 0.86046 0.97726 0.0
C1703 C 0.17859 0.8819 0.97331 0.0
C1704 C 0.18362 0.91148 0.9775 0.0
C1705 C 0.20994 0.9198 0.98483 0.0
C1706 C 0.23064 0.89817 0.98808 0.0
C1707 C 0.22537 0.86901 0.98477 0.0
C1708 C 0.25074 0.84986 0.98972 0.0
C1709 C 0.24131 0.82805 0.00265 0.0
C1710 C 0.26415 0.83399 0.97538 0.0
C1711 C 0.27133 0.8728 -0.00382 0.0
C1712 C 0.25961 0.90059 -0.00505 0.0
C1713 C 0.27508 0.9253 -0.00015 0.0
C1714 C 0.30283 0.92133 0.00669 0.0
C1715 C 0.31446 0.89285 0.00875 0.0
C1716 C 0.29865 0.86843 0.00316 0.0
H1717 H 0.85694 0.45229 0.72689 0.0
H1718 H 0.94799 0.44245 0.71316 0.0
H1719 H 0.95943 0.49036 0.72475 0.0
H1720 H 0.85152 0.52854 0.71882 0.0
H1721 H 0.8291 0.53741 0.73572 0.0
H1722 H 0.82738 0.50135 0.72715 0.0
H1723 H 0.84 0.47793 0.75426 0.0
H1724 H 0.84098 0.51387 0.763 0.0
H1725 H 0.87217 0.48996 0.76477 0.0
H1726 H 0.96126 0.53934 0.73599 0.0
H1727 H 0.95508 0.58527 0.75081 0.0
H1728 H 0.86316 0.56532 0.75796 0.0
C1729 C 0.87935 0.46001 0.72672 0.0
C1730 C 0.90161 0.44377 0.71911 0.0
C1731 C 0.93062 0.45466 0.71887 0.0
C1732 C 0.93733 0.4819 0.72534 0.0
C1733 C 0.9148 0.49803 0.73207 0.0
C1734 C 0.88653 0.48745 0.73317 0.0
C1735 C 0.86677 0.50965 0.74124 0.0
C1736 C 0.84224 0.51983 0.73006 0.0
C1737 C 0.85425 0.49711 0.75674 0.0
C1738 C 0.88847 0.53418 0.74442 0.0
C1739 C 0.91593 0.52691 0.73881 0.0
C1740 C 0.93992 0.54536 0.74049 0.0
C1741 C 0.93616 0.57144 0.74882 0.0
C1742 C 0.90865 0.57885 0.75537 0.0
C1743 C 0.88425 0.56042 0.75275 0.0
H1744 H 0.0602 0.34864 0.08748 0.0
H1745 H 0.12974 0.29148 0.0714 0.0
H1746 H 0.13239 0.26913 0.09783 0.0
H1747 H 0.09183 0.36816 0.12029 0.0
H1748 H 0.06004 0.37013 0.13291 0.0
H1749 H 0.05604 0.37432 0.11193 0.0
H1750 H 0.01866 0.33167 0.11132 0.0
H1751 H 0.02243 0.32742 0.13247 0.0
H1752 H 0.02847 0.2966 0.11956 0.0
H1753 H 0.13634 0.26183 0.12668 0.0
H1754 H 0.143 0.27255 0.15511 0.0
H1755 H 0.07191 0.33507 0.1529 0.0
C1756 C 0.075 0.33046 0.08934 0.0
C1757 C 0.09461 0.32169 0.07737 0.0
C1758 C 0.11438 0.29851 0.08034 0.0
C1759 C 0.11587 0.28545 0.09534 0.0
C1760 C 0.09737 0.29576 0.10721 0.0
C1761 C 0.07707 0.31763 0.10433 0.0
C1762 C 0.06395 0.32897 0.11959 0.0
C1763 C 0.06827 0.36233 0.12127 0.0
C1764 C 0.03145 0.32065 0.1208 0.0
C1765 C 0.08202 0.31209 0.1315 0.0
C1766 C 0.10025 0.2921 0.12418 0.0
C1767 C 0.12161 0.27679 0.1326 0.0
C1768 C 0.12528 0.28303 0.14875 0.0
C1769 C 0.10811 0.30487 0.15612 0.0
C1770 C 0.08538 0.3184 0.14756 0.0
H1771 H 0.93849 0.89689 0.38709 0.0
H1772 H 0.93378 0.80734 0.40339 0.0
H1773 H 0.93336 0.78996 0.37577 0.0
H1774 H 0.8879 0.89224 0.36114 0.0
H1775 H 0.90264 0.91497 0.34559 0.0
H1776 H 0.91439 0.92034 0.36561 0.0
H1777 H 0.96843 0.91281 0.35745 0.0
H1778 H 0.95697 0.90808 0.33716 0.0
H1779 H 0.97887 0.88039 0.34669 0.0
H1780 H 0.91749 0.78349 0.34836 0.0
H1781 H 0.89168 0.78816 0.32282 0.0
H1782 H 0.90659 0.88186 0.32342 0.0
C1783 C 0.93949 0.87363 0.3847 0.0
C1784 C 0.93688 0.85331 0.39715 0.0
C1785 C 0.93645 0.82304 0.39387 0.0
C1786 C 0.93621 0.81303 0.37822 0.0
C1787 C 0.93648 0.83367 0.36604 0.0
C1788 C 0.93884 0.86341 0.36906 0.0
C1789 C 0.93294 0.88122 0.35425 0.0
C1790 C 0.90798 0.90345 0.35681 0.0
C1791 C 0.96098 0.89652 0.34855 0.0
C1792 C 0.92403 0.85712 0.34294 0.0
C1793 C 0.92707 0.82979 0.34981 0.0
C1794 C 0.91602 0.80463 0.34262 0.0
C1795 C 0.9011 0.8075 0.3282 0.0
C1796 C 0.89734 0.83534 0.32118 0.0
C1797 C 0.90976 0.86024 0.3284 0.0
H1798 H 0.38175 0.68627 0.6465 0.0
H1799 H 0.43657 0.61688 0.66517 0.0
H1800 H 0.45647 0.60807 0.63855 0.0
H1801 H 0.35928 0.64958 0.61465 0.0
H1802 H 0.35832 0.67989 0.60097 0.0
H1803 H 0.35437 0.68643 0.62181 0.0
H1804 H 0.39822 0.72243 0.62115 0.0
H1805 H 0.40219 0.71615 0.60016 0.0
H1806 H 0.43286 0.7105 0.61324 0.0
H1807 H 0.46352 0.60053 0.60957 0.0
H1808 H 0.45534 0.59386 0.58084 0.0
H1809 H 0.39501 0.66702 0.58113 0.0
C1810 C 0.39879 0.67002 0.6451 0.0
C1811 C 0.40785 0.65254 0.65796 0.0
C1812 C 0.42954 0.63085 0.65557 0.0
C1813 C 0.4411 0.62574 0.64046 0.0
C1814 C 0.43081 0.64255 0.62787 0.0
C1815 C 0.41024 0.66442 0.63006 0.0
C1816 C 0.39931 0.6762 0.6144 0.0
C1817 C 0.36586 0.67279 0.61288 0.0
C1818 C 0.40872 0.70822 0.6121 0.0
C1819 C 0.41543 0.65621 0.60312 0.0
C1820 C 0.43421 0.63759 0.61105 0.0
C1821 C 0.44936 0.61542 0.60319 0.0
C1822 C 0.44455 0.61175 0.58689 0.0
C1823 C 0.42429 0.62976 0.57879 0.0
C1824 C 0.41039 0.65277 0.58695 0.0
H1825 H 0.58969 0.1346 0.83268 0.0
H1826 H 0.62873 0.22104 0.83034 0.0
H1827 H 0.6158 0.22924 0.85838 0.0
H1828 H 0.53046 0.15285 0.86318 0.0
H1829 H 0.53508 0.11757 0.87243 0.0
H1830 H 0.54023 0.12152 0.85134 0.0
H1831 H 0.59207 0.09907 0.85389 0.0
H1832 H 0.58722 0.09525 0.87487 0.0
H1833 H 0.61805 0.11551 0.86728 0.0
H1834 H 0.60852 0.22412 0.88723 0.0
H1835 H 0.60824 0.20579 0.91471 0.0
H1836 H 0.574 0.1226 0.89862 0.0
C1837 C 0.59443 0.15573 0.83787 0.0
C1838 C 0.61 0.17728 0.82934 0.0
C1839 C 0.61666 0.20429 0.83667 0.0
C1840 C 0.6092 0.20922 0.85255 0.0
C1841 C 0.59486 0.18702 0.86084 0.0
C1842 C 0.58727 0.16087 0.8537 0.0
C1843 C 0.57614 0.13885 0.8657 0.0
C1844 C 0.54353 0.13232 0.863 0.0
C1845 C 0.59448 0.11053 0.86542 0.0
C1846 C 0.58072 0.15589 0.88084 0.0
C1847 C 0.59073 0.18394 0.87774 0.0
C1848 C 0.60007 0.2025 0.8898 0.0
C1849 C 0.60019 0.19181 0.90534 0.0
C1850 C 0.59122 0.16282 0.90862 0.0
C1851 C 0.58026 0.14509 0.89635 0.0
H1852 H 0.13513 0.66603 0.33947 0.0
H1853 H 0.0557 0.62683 0.32121 0.0
H1854 H 0.03839 0.61804 0.34849 0.0
H1855 H 0.14707 0.6158 0.36808 0.0
H1856 H 0.16108 0.64032 0.38299 0.0
H1857 H 0.16433 0.64973 0.3624 0.0
H1858 H 0.13728 0.69869 0.36744 0.0
H1859 H 0.13416 0.68954 0.38816 0.0
H1860 H 0.10187 0.69836 0.37687 0.0
H1861 H 0.03359 0.60609 0.37706 0.0
H1862 H 0.04138 0.59227 0.40503 0.0
H1863 H 0.12447 0.63834 0.40474 0.0
C1864 C 0.1136 0.65668 0.3413 0.0
C1865 C 0.09668 0.64704 0.32838 0.0
C1866 C 0.06905 0.63402 0.33104 0.0
C1867 C 0.05892 0.62925 0.34648 0.0
C1868 C 0.07671 0.63774 0.35906 0.0
C1869 C 0.10338 0.65144 0.35666 0.0
C1870 C 0.12 0.65481 0.37205 0.0
C1871 C 0.14986 0.63922 0.37133 0.0
C1872 C 0.12352 0.68728 0.37639 0.0
C1873 C 0.09922 0.63953 0.3833 0.0
C1874 C 0.0741 0.63043 0.37566 0.0
C1875 C 0.05286 0.61365 0.38329 0.0
C1876 C 0.05756 0.60576 0.39913 0.0
C1877 C 0.08342 0.61442 0.40707 0.0
C1878 C 0.10421 0.63189 0.39909 0.0
H1879 H 0.61122 0.87355 0.65346 0.0
H1880 H 0.66192 0.79358 0.65709 0.0
H1881 H 0.65665 0.78621 0.62818 0.0
H1882 H 0.56027 0.84718 0.62218 0.0
H1883 H 0.55906 0.88285 0.61305 0.0
H1884 H 0.56406 0.8796 0.63417 0.0
H1885 H 0.61145 0.91061 0.63222 0.0
H1886 H 0.60677 0.91379 0.61115 0.0
H1887 H 0.64031 0.89906 0.61906 0.0
H1888 H 0.65176 0.7919 0.59854 0.0
H1889 H 0.64573 0.80872 0.57096 0.0
H1890 H 0.59529 0.88311 0.58745 0.0
C1891 C 0.62047 0.85398 0.64839 0.0
C1892 C 0.63675 0.83403 0.65761 0.0
C1893 C 0.64916 0.80908 0.65027 0.0
C1894 C 0.64622 0.80467 0.63388 0.0
C1895 C 0.63032 0.82512 0.62513 0.0
C1896 C 0.61729 0.84904 0.63221 0.0
C1897 C 0.60295 0.86888 0.62017 0.0
C1898 C 0.5696 0.86966 0.62254 0.0
C1899 C 0.61618 0.89989 0.62068 0.0
C1900 C 0.61102 0.85311 0.60508 0.0
C1901 C 0.62664 0.82781 0.60815 0.0
C1902 C 0.63893 0.81125 0.596 0.0
C1903 C 0.63546 0.82104 0.58035 0.0
C1904 C 0.6197 0.84702 0.57703 0.0
C1905 C 0.60687 0.8628 0.58958 0.0
H1906 H 0.43127 0.37025 0.83265 0.0
H1907 H 0.3856 0.28716 0.83399 0.0
H1908 H 0.40122 0.28038 0.86175 0.0
H1909 H 0.49227 0.34956 0.86254 0.0
H1910 H 0.49135 0.38624 0.87037 0.0
H1911 H 0.48478 0.38001 0.84957 0.0
H1912 H 0.43547 0.40763 0.85182 0.0
H1913 H 0.44163 0.41366 0.8725 0.0
H1914 H 0.4087 0.39543 0.86609 0.0
H1915 H 0.40958 0.28907 0.89027 0.0
H1916 H 0.41021 0.31201 0.91663 0.0
H1917 H 0.45152 0.3891 0.89685 0.0
C1918 C 0.4257 0.34997 0.83847 0.0
C1919 C 0.40732 0.32922 0.83113 0.0
C1920 C 0.39987 0.30328 0.83935 0.0
C1921 C 0.40881 0.29918 0.8551 0.0
C1922 C 0.42567 0.32093 0.86229 0.0
C1923 C 0.43455 0.3456 0.85409 0.0
C1924 C 0.44819 0.36805 0.865 0.0
C1925 C 0.48111 0.37113 0.86168 0.0
C1926 C 0.43253 0.3979 0.86378 0.0
C1927 C 0.4429 0.35351 0.88083 0.0
C1928 C 0.43082 0.32589 0.879 0.0
C1929 C 0.41979 0.31023 0.89186 0.0
C1930 C 0.4199 0.3236 0.90678 0.0
C1931 C 0.43077 0.35236 0.90867 0.0
C1932 C 0.44375 0.3668 0.89572 0.0
H1933 H 0.87548 0.17543 0.15715 0.0
H1934 H 0.93206 0.10774 0.17611 0.0
H1935 H 0.95367 0.10054 0.14969 0.0
H1936 H 0.85649 0.13852 0.12435 0.0
H1937 H 0.85481 0.1695 0.11114 0.0
H1938 H 0.84926 0.17466 0.13199 0.0
H1939 H 0.89119 0.21291 0.1326 0.0
H1940 H 0.89685 0.20785 0.11163 0.0
H1941 H 0.9269 0.20312 0.12523 0.0
H1942 H 0.96312 0.09483 0.12066 0.0
H1943 H 0.95734 0.08938 0.0917 0.0
H1944 H 0.89308 0.15918 0.09187 0.0
C1945 C 0.89316 0.15984 0.15587 0.0
C1946 C 0.90234 0.14246 0.16875 0.0
C1947 C 0.92492 0.12165 0.1665 0.0
C1948 C 0.93745 0.11746 0.15151 0.0
C1949 C 0.92718 0.13428 0.13891 0.0
C1950 C 0.90557 0.15515 0.14097 0.0
C1951 C 0.8951 0.16713 0.12526 0.0
C1952 C 0.86198 0.16212 0.12307 0.0
C1953 C 0.90299 0.19969 0.12358 0.0
C1954 C 0.91292 0.14853 0.11404 0.0
C1955 C 0.93197 0.13035 0.12208 0.0
C1956 C 0.94873 0.10939 0.11421 0.0
C1957 C 0.94528 0.10642 0.09776 0.0
C1958 C 0.9248 0.12393 0.08948 0.0
C1959 C 0.90917 0.14573 0.09773 0.0
H1960 H 0.87202 0.68045 0.84186 0.0
H1961 H 0.95424 0.64819 0.82326 0.0
H1962 H 0.97311 0.64236 0.85038 0.0
H1963 H 0.90351 0.71677 0.87905 0.0
H1964 H 0.8722 0.70525 0.89046 0.0
H1965 H 0.86809 0.71417 0.86976 0.0
H1966 H 0.84503 0.66316 0.8648 0.0
H1967 H 0.84931 0.65399 0.88533 0.0
H1968 H 0.86511 0.63076 0.87035 0.0
H1969 H 0.97914 0.63038 0.87899 0.0
H1970 H 0.97195 0.61444 0.90674 0.0
H1971 H 0.88562 0.65391 0.90653 0.0
C1972 C 0.89445 0.67343 0.84351 0.0
C1973 C 0.91164 0.66466 0.83051 0.0
C1974 C 0.94057 0.65469 0.83306 0.0
C1975 C 0.95161 0.65161 0.84845 0.0
C1976 C 0.93349 0.65883 0.86112 0.0
C1977 C 0.90563 0.66995 0.85882 0.0
C1978 C 0.88897 0.67187 0.87426 0.0
C1979 C 0.88284 0.70393 0.87864 0.0
C1980 C 0.86045 0.65386 0.87363 0.0
C1981 C 0.91109 0.65837 0.8854 0.0
C1982 C 0.93692 0.65167 0.87773 0.0
C1983 C 0.95932 0.63623 0.88525 0.0
C1984 C 0.95499 0.62711 0.90097 0.0
C1985 C 0.92836 0.63319 0.90885 0.0
C1986 C 0.90651 0.64952 0.901 0.0
H1987 H 0.06526 0.09994 0.58994 0.0
H1988 H 0.10014 0.17669 0.56646 0.0
H1989 H 0.10407 0.20195 0.5922 0.0
H1990 H 0.02699 0.13993 0.62412 0.0
H1991 H 0.03759 0.1115 0.63778 0.0
H1992 H 0.02986 0.10261 0.61739 0.0
H1993 H 0.08095 0.07843 0.61489 0.0
H1994 H 0.08889 0.0874 0.63512 0.0
H1995 H 0.11315 0.09954 0.6196 0.0
H1996 H 0.11346 0.21484 0.62022 0.0
H1997 H 0.12847 0.21403 0.64829 0.0
H1998 H 0.08877 0.12831 0.6537 0.0
C1999 C 0.07244 0.12253 0.59022 0.0
C2000 C 0.08235 0.13651 0.57635 0.0
C2001 C 0.09268 0.16564 0.57705 0.0
C2002 C 0.09465 0.18024 0.59159 0.0
C2003 C 0.08613 0.16535 0.60525 0.0
C2004 C 0.07498 0.13718 0.60469 0.0
C2005 C 0.07202 0.12425 0.62113 0.0
C2006 C 0.03969 0.11929 0.62535 0.0
C2007 C 0.08983 0.09575 0.62277 0.0
C2008 C 0.08502 0.14876 0.6309 0.0
C2009 C 0.09218 0.17263 0.6216 0.0
C2010 C 0.10729 0.19661 0.6277 0.0
C2011 C 0.11586 0.19589 0.64364 0.0
C2012 C 0.10964 0.17117 0.65318 0.0
C2013 C 0.09334 0.14775 0.6468 0.0
H2014 H 0.61594 0.3442 0.39792 0.0
H2015 H 0.53064 0.38565 0.4001 0.0
H2016 H 0.52241 0.37334 0.37194 0.0
H2017 H 0.63571 0.37208 0.36257 0.0
H2018 H 0.65522 0.34041 0.35547 0.0
H2019 H 0.65169 0.34653 0.37638 0.0
H2020 H 0.62826 0.29524 0.37981 0.0
H2021 H 0.6318 0.28889 0.35881 0.0
H2022 H 0.59656 0.28552 0.36824 0.0
H2023 H 0.52677 0.36375 0.34306 0.0
H2024 H 0.5441 0.35984 0.31552 0.0
H2025 H 0.62694 0.3253 0.33205 0.0
C2026 C 0.59508 0.34978 0.39266 0.0
C2027 C 0.57377 0.36559 0.4012 0.0
C2028 C 0.54716 0.37336 0.39376 0.0
C2029 C 0.54223 0.36626 0.37782 0.0
C2030 C 0.56406 0.35127 0.3696 0.0
C2031 C 0.58993 0.34301 0.37679 0.0
C2032 C 0.61152 0.33075 0.36493 0.0
C2033 C 0.6402 0.34852 0.36483 0.0
C2034 C 0.61737 0.29816 0.36814 0.0
C2035 C 0.59441 0.33494 0.34977 0.0
C2036 C 0.56681 0.3461 0.35277 0.0
C2037 C 0.54813 0.35461 0.34058 0.0
C2038 C 0.5583 0.35264 0.32497 0.0
C2039 C 0.58695 0.34257 0.32173 0.0
C2040 C 0.60475 0.33255 0.33423 0.0
H2041 H 0.37709 0.84742 0.07618 0.0
H2042 H 0.46126 0.89069 0.07998 0.0
H2043 H 0.46614 0.87267 0.10738 0.0
H2044 H 0.35115 0.86776 0.11055 0.0
H2045 H 0.33178 0.83472 0.11574 0.0
H2046 H 0.33863 0.84307 0.09533 0.0
H2047 H 0.36478 0.79323 0.09167 0.0
H2048 H 0.35775 0.78452 0.11218 0.0
H2049 H 0.39461 0.7834 0.10459 0.0
H2050 H 0.45628 0.8617 0.13546 0.0
H2051 H 0.43294 0.85753 0.16171 0.0
H2052 H 0.3557 0.8201 0.14002 0.0
C2053 C 0.39715 0.85199 0.08252 0.0
C2054 C 0.41882 0.87037 0.07596 0.0
C2055 C 0.44442 0.87653 0.08477 0.0
C2056 C 0.44747 0.86622 0.10032 0.0
C2057 C 0.42494 0.8494 0.10677 0.0
C2058 C 0.40045 0.84186 0.09804 0.0
C2059 C 0.37734 0.82765 0.10836 0.0
C2060 C 0.34804 0.84432 0.10744 0.0
C2061 C 0.3734 0.79527 0.10394 0.0
C2062 C 0.39154 0.83075 0.12446 0.0
C2063 C 0.41935 0.84257 0.12324 0.0
C2064 C 0.43495 0.8516 0.13656 0.0
C2065 C 0.42143 0.84945 0.15141 0.0
C2066 C 0.39265 0.83842 0.15277 0.0
C2067 C 0.37807 0.8278 0.13925 0.0
H2068 H 0.89396 0.37996 0.64899 0.0
H2069 H 0.86334 0.29088 0.65559 0.0
H2070 H 0.8769 0.27959 0.62785 0.0
H2071 H 0.86662 0.39026 0.612 0.0
H2072 H 0.89671 0.41193 0.60468 0.0
H2073 H 0.88874 0.41133 0.62551 0.0
H2074 H 0.94187 0.39463 0.6314 0.0
H2075 H 0.95 0.39509 0.61049 0.0
H2076 H 0.9561 0.36229 0.62191 0.0
H2077 H 0.88772 0.28024 0.59874 0.0
H2078 H 0.89257 0.29327 0.57047 0.0
H2079 H 0.91752 0.38151 0.58339 0.0
C2080 C 0.89094 0.35778 0.64483 0.0
C2081 C 0.87798 0.33617 0.6545 0.0
C2082 C 0.87339 0.30772 0.64838 0.0
C2083 C 0.88126 0.30107 0.6327 0.0
C2084 C 0.89395 0.32303 0.62347 0.0
C2085 C 0.89885 0.3508 0.62936 0.0
C2086 C 0.90997 0.37141 0.61669 0.0
C2087 C 0.88927 0.39776 0.6146 0.0
C2088 C 0.94136 0.38144 0.62034 0.0
C2089 C 0.90922 0.35133 0.6025 0.0
C2090 C 0.90044 0.32336 0.60669 0.0
C2091 C 0.89509 0.30188 0.59536 0.0
C2092 C 0.89764 0.30953 0.57934 0.0
C2093 C 0.90535 0.33837 0.57488 0.0
C2094 C 0.91235 0.35913 0.58658 0.0
H2095 H 0.41523 0.12223 0.3333 0.0
H2096 H 0.38124 0.21065 0.33641 0.0
H2097 H 0.39973 0.21435 0.36375 0.0
H2098 H 0.39249 0.09953 0.36797 0.0
H2099 H 0.42333 0.07699 0.3733 0.0
H2100 H 0.41563 0.08404 0.35283 0.0
H2101 H 0.4679 0.10474 0.34885 0.0
H2102 H 0.47596 0.09746 0.36941 0.0
H2103 H 0.48089 0.13378 0.36147 0.0
H2104 H 0.40911 0.20405 0.39184 0.0
H2105 H 0.41068 0.18106 0.4183 0.0
H2106 H 0.44067 0.10002 0.39741 0.0
C2107 C 0.41284 0.14283 0.33948 0.0
C2108 C 0.39688 0.16616 0.33275 0.0
C2109 C 0.39351 0.19252 0.34133 0.0
C2110 C 0.40412 0.19489 0.35684 0.0
C2111 C 0.41844 0.17088 0.36347 0.0
C2112 C 0.42333 0.14549 0.35496 0.0
C2113 C 0.43511 0.12133 0.36547 0.0
C2114 C 0.41545 0.0939 0.36486 0.0
C2115 C 0.46685 0.1139 0.36104 0.0
C2116 C 0.43362 0.13625 0.38144 0.0
C2117 C 0.42469 0.1651 0.37998 0.0
C2118 C 0.41715 0.18191 0.39314 0.0
C2119 C 0.41789 0.16867 0.40809 0.0
C2120 C 0.42627 0.13908 0.40971 0.0
C2121 C 0.43526 0.12302 0.39637 0.0
H2122 H 0.56993 0.65058 0.14567 0.0
H2123 H 0.63024 0.72317 0.15104 0.0
H2124 H 0.62198 0.73671 0.12303 0.0
H2125 H 0.59282 0.62754 0.11077 0.0
H2126 H 0.5577 0.61751 0.1027 0.0
H2127 H 0.56297 0.61784 0.12374 0.0
H2128 H 0.5195 0.65374 0.127 0.0
H2129 H 0.51388 0.65338 0.10585 0.0
H2130 H 0.51919 0.68763 0.11604 0.0
H2131 H 0.61562 0.7353 0.09365 0.0
H2132 H 0.61094 0.71982 0.06578 0.0
H2133 H 0.55271 0.64972 0.07997 0.0
C2134 C 0.58048 0.67007 0.14126 0.0
C2135 C 0.60052 0.68594 0.15062 0.0
C2136 C 0.61457 0.71082 0.14412 0.0
C2137 C 0.60989 0.71875 0.12824 0.0
C2138 C 0.59062 0.70196 0.11919 0.0
C2139 C 0.57575 0.67841 0.12558 0.0
C2140 C 0.55913 0.66158 0.11306 0.0
C2141 C 0.56876 0.62924 0.11254 0.0
C2142 C 0.52595 0.66426 0.11564 0.0
C2143 C 0.56866 0.67802 0.0984 0.0
C2144 C 0.58635 0.70162 0.10219 0.0
C2145 C 0.60113 0.71746 0.09056 0.0
C2146 C 0.59855 0.70836 0.07476 0.0
C2147 C 0.58135 0.68369 0.07079 0.0
C2148 C 0.56531 0.66917 0.08268 0.0
H2149 H 0.14724 0.81924 0.8389 0.0
H2150 H 0.06329 0.84255 0.81891 0.0
H2151 H 0.04093 0.84077 0.84553 0.0
H2152 H 0.11836 0.77445 0.87463 0.0
H2153 H 0.14659 0.78962 0.88707 0.0
H2154 H 0.15372 0.783 0.86636 0.0
H2155 H 0.16929 0.83718 0.86295 0.0
H2156 H 0.16194 0.84405 0.88348 0.0
H2157 H 0.14411 0.86579 0.86848 0.0
H2158 H 0.03049 0.84772 0.87398 0.0
H2159 H 0.03297 0.86375 0.90186 0.0
H2160 H 0.12441 0.83848 0.90355 0.0
C2161 C 0.12385 0.8223 0.84014 0.0
C2162 C 0.10671 0.8304 0.82703 0.0
C2163 C 0.07651 0.83588 0.82893 0.0
C2164 C 0.06366 0.83476 0.84398 0.0
C2165 C 0.08143 0.8283 0.85694 0.0
C2166 C 0.1109 0.82191 0.85517 0.0
C2167 C 0.12636 0.82134 0.87102 0.0
C2168 C 0.13687 0.79025 0.87501 0.0
C2169 C 0.15189 0.84341 0.8715 0.0
C2170 C 0.10156 0.83051 0.8818 0.0
C2171 C 0.07559 0.83342 0.87356 0.0
C2172 C 0.05049 0.84478 0.88066 0.0
C2173 C 0.05214 0.85399 0.89648 0.0
C2174 C 0.07885 0.85222 0.9049 0.0
C2175 C 0.10354 0.83958 0.89755 0.0
loop_
_geom_bond_atom_site_label_1
_geom_bond_atom_site_label_2
_geom_bond_distance
_geom_bond_site_symmetry_2
_ccdc_geom_bond_type
Mg0 O1 2.028 . S
Mg0 O7 1.986 . S
Mg0 O9 2.114 . S
Mg0 O10 2.251 . S
Mg0 O13 2.010 . S
O1 Mg0 2.028 . S
O1 C4 1.250 . S
O2 Mg3 2.028 . S
O2 C4 1.248 . S
Mg3 O2 2.028 . S
Mg3 O8 2.032 . S
Mg3 O10 2.079 . S
C4 O1 1.250 . S
C4 O2 1.248 . S
C5 O6 1.264 . S
C5 O13 1.249 . S
O6 C5 1.264 . S
O7 Mg0 1.986 . S
O7 C11 1.246 . S
O8 Mg3 2.032 . S
O8 C11 1.259 . S
O9 Mg0 2.114 . S
O9 C12 1.252 . S
O10 Mg0 2.251 . S
O10 Mg3 2.079 . S
O10 C12 1.273 . S
C11 O7 1.246 . S
C11 O8 1.259 . S
C12 O9 1.252 . S
C12 O10 1.273 . S
O13 Mg0 2.010 . S
O13 C5 1.249 . S
Mg14 O15 2.028 . S
Mg14 O21 1.986 . S
Mg14 O23 2.114 . S
Mg14 O24 2.251 . S
Mg14 O27 2.010 . S
O15 Mg14 2.028 . S
O15 C18 1.250 . S
O16 Mg17 2.028 . S
O16 C18 1.248 . S
Mg17 O16 2.028 . S
Mg17 O22 2.032 . S
Mg17 O24 2.079 . S
C18 O15 1.250 . S
C18 O16 1.248 . S
C19 O20 1.264 . S
C19 O27 1.249 . S
O20 C19 1.264 . S
O21 Mg14 1.986 . S
O21 C25 1.246 . S
O22 Mg17 2.032 . S
O22 C25 1.259 . S
O23 Mg14 2.114 . S
O23 C26 1.252 . S
O24 Mg14 2.251 . S
O24 Mg17 2.079 . S
O24 C26 1.273 . S
C25 O21 1.246 . S
C25 O22 1.259 . S
C26 O23 1.252 . S
C26 O24 1.273 . S
O27 Mg14 2.010 . S
O27 C19 1.249 . S
Mg28 O29 2.028 . S
Mg28 O35 1.986 . S
Mg28 O37 2.114 . S
Mg28 O38 2.251 . S
Mg28 O41 2.010 . S
O29 Mg28 2.028 . S
O29 C32 1.250 . S
O30 Mg31 2.028 . S
O30 C32 1.248 . S
Mg31 O30 2.028 . S
Mg31 O36 2.032 . S
Mg31 O38 2.079 . S
C32 O29 1.250 . S
C32 O30 1.248 . S
C33 O34 1.264 . S
C33 O41 1.249 . S
O34 C33 1.264 . S
O35 Mg28 1.986 . S
O35 C39 1.246 . S
O36 Mg31 2.032 . S
O36 C39 1.259 . S
O37 Mg28 2.114 . S
O37 C40 1.252 . S
O38 Mg28 2.251 . S
O38 Mg31 2.079 . S
O38 C40 1.273 . S
C39 O35 1.246 . S
C39 O36 1.259 . S
C40 O37 1.252 . S
C40 O38 1.273 . S
O41 Mg28 2.010 . S
O41 C33 1.249 . S
Mg42 O43 2.028 . S
Mg42 O49 1.986 . S
Mg42 O51 2.114 . S
Mg42 O52 2.251 . S
Mg42 O55 2.010 . S
O43 Mg42 2.028 . S
O43 C46 1.250 . S
O44 Mg45 2.028 . S
O44 C46 1.248 . S
Mg45 O44 2.028 . S
Mg45 O50 2.032 . S
Mg45 O52 2.079 . S
C46 O43 1.250 . S
C46 O44 1.248 . S
C47 O48 1.264 . S
C47 O55 1.249 . S
O48 C47 1.264 . S
O49 Mg42 1.986 . S
O49 C53 1.246 . S
O50 Mg45 2.032 . S
O50 C53 1.259 . S
O51 Mg42 2.114 . S
O51 C54 1.252 . S
O52 Mg42 2.251 . S
O52 Mg45 2.079 . S
O52 C54 1.273 . S
C53 O49 1.246 . S
C53 O50 1.259 . S
C54 O51 1.252 . S
C54 O52 1.273 . S
O55 Mg42 2.010 . S
O55 C47 1.249 . S
Mg56 O57 2.028 . S
Mg56 O63 1.986 . S
Mg56 O65 2.114 . S
Mg56 O66 2.251 . S
Mg56 O69 2.010 . S
O57 Mg56 2.028 . S
O57 C60 1.250 . S
O58 Mg59 2.028 . S
O58 C60 1.248 . S
Mg59 O58 2.028 . S
Mg59 O64 2.032 . S
Mg59 O66 2.079 . S
C60 O57 1.250 . S
C60 O58 1.248 . S
C61 O62 1.264 . S
C61 O69 1.249 . S
O62 C61 1.264 . S
O63 Mg56 1.986 . S
O63 C67 1.246 . S
O64 Mg59 2.032 . S
O64 C67 1.259 . S
O65 Mg56 2.114 . S
O65 C68 1.252 . S
O66 Mg56 2.251 . S
O66 Mg59 2.079 . S
O66 C68 1.273 . S
C67 O63 1.246 . S
C67 O64 1.259 . S
C68 O65 1.252 . S
C68 O66 1.273 . S
O69 Mg56 2.010 . S
O69 C61 1.249 . S
Mg70 O71 2.028 . S
Mg70 O77 1.986 . S
Mg70 O79 2.114 . S
Mg70 O80 2.251 . S
Mg70 O83 2.010 . S
O71 Mg70 2.028 . S
O71 C74 1.250 . S
O72 Mg73 2.028 . S
O72 C74 1.248 . S
Mg73 O72 2.028 . S
Mg73 O78 2.032 . S
Mg73 O80 2.079 . S
C74 O71 1.250 . S
C74 O72 1.248 . S
C75 O76 1.264 . S
C75 O83 1.249 . S
O76 C75 1.264 . S
O77 Mg70 1.986 . S
O77 C81 1.246 . S
O78 Mg73 2.032 . S
O78 C81 1.259 . S
O79 Mg70 2.114 . S
O79 C82 1.252 . S
O80 Mg70 2.251 . S
O80 Mg73 2.079 . S
O80 C82 1.273 . S
C81 O77 1.246 . S
C81 O78 1.259 . S
C82 O79 1.252 . S
C82 O80 1.273 . S
O83 Mg70 2.010 . S
O83 C75 1.249 . S
Mg84 O85 2.028 . S
Mg84 O91 1.986 . S
Mg84 O93 2.114 . S
Mg84 O94 2.251 . S
Mg84 O97 2.010 . S
O85 Mg84 2.028 . S
O85 C88 1.250 . S
O86 Mg87 2.028 . S
O86 C88 1.248 . S
Mg87 O86 2.028 . S
Mg87 O92 2.032 . S
Mg87 O94 2.079 . S
C88 O85 1.250 . S
C88 O86 1.248 . S
C89 O90 1.264 . S
C89 O97 1.249 . S
O90 C89 1.264 . S
O91 Mg84 1.986 . S
O91 C95 1.246 . S
O92 Mg87 2.032 . S
O92 C95 1.259 . S
O93 Mg84 2.114 . S
O93 C96 1.252 . S
O94 Mg84 2.251 . S
O94 Mg87 2.079 . S
O94 C96 1.273 . S
C95 O91 1.246 . S
C95 O92 1.259 . S
C96 O93 1.252 . S
C96 O94 1.273 . S
O97 Mg84 2.010 . S
O97 C89 1.249 . S
Mg98 O99 2.028 . S
Mg98 O105 1.986 . S
Mg98 O107 2.114 . S
Mg98 O108 2.251 . S
Mg98 O111 2.010 . S
O99 Mg98 2.028 . S
O99 C102 1.250 . S
O100 Mg101 2.028 . S
O100 C102 1.248 . S
Mg101 O100 2.028 . S
Mg101 O106 2.032 . S
Mg101 O108 2.079 . S
C102 O99 1.250 . S
C102 O100 1.248 . S
C103 O104 1.264 . S
C103 O111 1.249 . S
O104 C103 1.264 . S
O105 Mg98 1.986 . S
O105 C109 1.246 . S
O106 Mg101 2.032 . S
O106 C109 1.259 . S
O107 Mg98 2.114 . S
O107 C110 1.252 . S
O108 Mg98 2.251 . S
O108 Mg101 2.079 . S
O108 C110 1.273 . S
C109 O105 1.246 . S
C109 O106 1.259 . S
C110 O107 1.252 . S
C110 O108 1.273 . S
O111 Mg98 2.010 . S
O111 C103 1.249 . S
Mg112 O113 2.028 . S
Mg112 O119 1.986 . S
Mg112 O121 2.114 . S
Mg112 O122 2.251 . S
Mg112 O125 2.010 . S
O113 Mg112 2.028 . S
O113 C116 1.250 . S
O114 Mg115 2.028 . S
O114 C116 1.248 . S
Mg115 O114 2.028 . S
Mg115 O120 2.032 . S
Mg115 O122 2.079 . S
C116 O113 1.250 . S
C116 O114 1.248 . S
C117 O118 1.264 . S
C117 O125 1.249 . S
O118 C117 1.264 . S
O119 Mg112 1.986 . S
O119 C123 1.246 . S
O120 Mg115 2.032 . S
O120 C123 1.259 . S
O121 Mg112 2.114 . S
O121 C124 1.252 . S
O122 Mg112 2.251 . S
O122 Mg115 2.079 . S
O122 C124 1.273 . S
C123 O119 1.246 . S
C123 O120 1.259 . S
C124 O121 1.252 . S
C124 O122 1.273 . S
O125 Mg112 2.010 . S
O125 C117 1.249 . S
Mg126 O127 2.028 . S
Mg126 O133 1.986 . S
Mg126 O135 2.114 . S
Mg126 O136 2.251 . S
Mg126 O139 2.010 . S
O127 Mg126 2.028 . S
O127 C130 1.250 . S
O128 Mg129 2.028 . S
O128 C130 1.248 . S
Mg129 O128 2.028 . S
Mg129 O134 2.032 . S
Mg129 O136 2.079 . S
C130 O127 1.250 . S
C130 O128 1.248 . S
C131 O132 1.264 . S
C131 O139 1.249 . S
O132 C131 1.264 . S
O133 Mg126 1.986 . S
O133 C137 1.246 . S
O134 Mg129 2.032 . S
O134 C137 1.259 . S
O135 Mg126 2.114 . S
O135 C138 1.252 . S
O136 Mg126 2.251 . S
O136 Mg129 2.079 . S
O136 C138 1.273 . S
C137 O133 1.246 . S
C137 O134 1.259 . S
C138 O135 1.252 . S
C138 O136 1.273 . S
O139 Mg126 2.010 . S
O139 C131 1.249 . S
Mg140 O141 2.028 . S
Mg140 O147 1.986 . S
Mg140 O149 2.114 . S
Mg140 O150 2.251 . S
Mg140 O153 2.010 . S
O141 Mg140 2.028 . S
O141 C144 1.250 . S
O142 Mg143 2.028 . S
O142 C144 1.248 . S
Mg143 O142 2.028 . S
Mg143 O148 2.032 . S
Mg143 O150 2.079 . S
C144 O141 1.250 . S
C144 O142 1.248 . S
C145 O146 1.264 . S
C145 O153 1.249 . S
O146 C145 1.264 . S
O147 Mg140 1.986 . S
O147 C151 1.246 . S
O148 Mg143 2.032 . S
O148 C151 1.259 . S
O149 Mg140 2.114 . S
O149 C152 1.252 . S
O150 Mg140 2.251 . S
O150 Mg143 2.079 . S
O150 C152 1.273 . S
C151 O147 1.246 . S
C151 O148 1.259 . S
C152 O149 1.252 . S
C152 O150 1.273 . S
O153 Mg140 2.010 . S
O153 C145 1.249 . S
Mg154 O155 2.028 . S
Mg154 O161 1.986 . S
Mg154 O163 2.114 . S
Mg154 O164 2.251 . S
Mg154 O167 2.010 . S
O155 Mg154 2.028 . S
O155 C158 1.250 . S
O156 Mg157 2.028 . S
O156 C158 1.248 . S
Mg157 O156 2.028 . S
Mg157 O162 2.032 . S
Mg157 O164 2.079 . S
C158 O155 1.250 . S
C158 O156 1.248 . S
C159 O160 1.264 . S
C159 O167 1.249 . S
O160 C159 1.264 . S
O161 Mg154 1.986 . S
O161 C165 1.246 . S
O162 Mg157 2.032 . S
O162 C165 1.259 . S
O163 Mg154 2.114 . S
O163 C166 1.252 . S
O164 Mg154 2.251 . S
O164 Mg157 2.079 . S
O164 C166 1.273 . S
C165 O161 1.246 . S
C165 O162 1.259 . S
C166 O163 1.252 . S
C166 O164 1.273 . S
O167 Mg154 2.010 . S
O167 C159 1.249 . S
Mg168 O169 2.028 . S
Mg168 O175 1.986 . S
Mg168 O177 2.114 . S
Mg168 O178 2.251 . S
Mg168 O181 2.010 . S
O169 Mg168 2.028 . S
O169 C172 1.250 . S
O170 Mg171 2.028 . S
O170 C172 1.248 . S
Mg171 O170 2.028 . S
Mg171 O176 2.032 . S
Mg171 O178 2.079 . S
C172 O169 1.250 . S
C172 O170 1.248 . S
C173 O174 1.264 . S
C173 O181 1.249 . S
O174 C173 1.264 . S
O175 Mg168 1.986 . S
O175 C179 1.246 . S
O176 Mg171 2.032 . S
O176 C179 1.259 . S
O177 Mg168 2.114 . S
O177 C180 1.252 . S
O178 Mg168 2.251 . S
O178 Mg171 2.079 . S
O178 C180 1.273 . S
C179 O175 1.246 . S
C179 O176 1.259 . S
C180 O177 1.252 . S
C180 O178 1.273 . S
O181 Mg168 2.010 . S
O181 C173 1.249 . S
Mg182 O183 2.028 . S
Mg182 O189 1.986 . S
Mg182 O191 2.114 . S
Mg182 O192 2.251 . S
Mg182 O195 2.010 . S
O183 Mg182 2.028 . S
O183 C186 1.250 . S
O184 Mg185 2.028 . S
O184 C186 1.248 . S
Mg185 O184 2.028 . S
Mg185 O190 2.032 . S
Mg185 O192 2.079 . S
C186 O183 1.250 . S
C186 O184 1.248 . S
C187 O188 1.264 . S
C187 O195 1.249 . S
O188 C187 1.264 . S
O189 Mg182 1.986 . S
O189 C193 1.246 . S
O190 Mg185 2.032 . S
O190 C193 1.259 . S
O191 Mg182 2.114 . S
O191 C194 1.252 . S
O192 Mg182 2.251 . S
O192 Mg185 2.079 . S
O192 C194 1.273 . S
C193 O189 1.246 . S
C193 O190 1.259 . S
C194 O191 1.252 . S
C194 O192 1.273 . S
O195 Mg182 2.010 . S
O195 C187 1.249 . S
Mg196 O197 2.028 . S
Mg196 O203 1.986 . S
Mg196 O205 2.114 . S
Mg196 O206 2.251 . S
Mg196 O209 2.010 . S
O197 Mg196 2.028 . S
O197 C200 1.250 . S
O198 Mg199 2.028 . S
O198 C200 1.248 . S
Mg199 O198 2.028 . S
Mg199 O204 2.032 . S
Mg199 O206 2.079 . S
C200 O197 1.250 . S
C200 O198 1.248 . S
C201 O202 1.264 . S
C201 O209 1.249 . S
O202 C201 1.264 . S
O203 Mg196 1.986 . S
O203 C207 1.246 . S
O204 Mg199 2.032 . S
O204 C207 1.259 . S
O205 Mg196 2.114 . S
O205 C208 1.252 . S
O206 Mg196 2.251 . S
O206 Mg199 2.079 . S
O206 C208 1.273 . S
C207 O203 1.246 . S
C207 O204 1.259 . S
C208 O205 1.252 . S
C208 O206 1.273 . S
O209 Mg196 2.010 . S
O209 C201 1.249 . S
Mg210 O211 2.028 . S
Mg210 O217 1.986 . S
Mg210 O219 2.114 . S
Mg210 O220 2.251 . S
Mg210 O223 2.010 . S
O211 Mg210 2.028 . S
O211 C214 1.250 . S
O212 Mg213 2.028 . S
O212 C214 1.248 . S
Mg213 O212 2.028 . S
Mg213 O218 2.032 . S
Mg213 O220 2.079 . S
C214 O211 1.250 . S
C214 O212 1.248 . S
C215 O216 1.264 . S
C215 O223 1.249 . S
O216 C215 1.264 . S
O217 Mg210 1.986 . S
O217 C221 1.246 . S
O218 Mg213 2.032 . S
O218 C221 1.259 . S
O219 Mg210 2.114 . S
O219 C222 1.252 . S
O220 Mg210 2.251 . S
O220 Mg213 2.079 . S
O220 C222 1.273 . S
C221 O217 1.246 . S
C221 O218 1.259 . S
C222 O219 1.252 . S
C222 O220 1.273 . S
O223 Mg210 2.010 . S
O223 C215 1.249 . S
Mg224 O225 2.028 . S
Mg224 O231 1.986 . S
Mg224 O233 2.114 . S
Mg224 O234 2.251 . S
Mg224 O237 2.010 . S
O225 Mg224 2.028 . S
O225 C228 1.250 . S
O226 Mg227 2.028 . S
O226 C228 1.248 . S
Mg227 O226 2.028 . S
Mg227 O232 2.032 . S
Mg227 O234 2.079 . S
C228 O225 1.250 . S
C228 O226 1.248 . S
C229 O230 1.264 . S
C229 O237 1.249 . S
O230 C229 1.264 . S
O231 Mg224 1.986 . S
O231 C235 1.246 . S
O232 Mg227 2.032 . S
O232 C235 1.259 . S
O233 Mg224 2.114 . S
O233 C236 1.252 . S
O234 Mg224 2.251 . S
O234 Mg227 2.079 . S
O234 C236 1.273 . S
C235 O231 1.246 . S
C235 O232 1.259 . S
C236 O233 1.252 . S
C236 O234 1.273 . S
O237 Mg224 2.010 . S
O237 C229 1.249 . S
Mg238 O239 2.028 . S
Mg238 O245 1.986 . S
Mg238 O247 2.114 . S
Mg238 O248 2.251 . S
Mg238 O251 2.010 . S
O239 Mg238 2.028 . S
O239 C242 1.250 . S
O240 Mg241 2.028 . S
O240 C242 1.248 . S
Mg241 O240 2.028 . S
Mg241 O246 2.032 . S
Mg241 O248 2.079 . S
C242 O239 1.250 . S
C242 O240 1.248 . S
C243 O244 1.264 . S
C243 O251 1.249 . S
O244 C243 1.264 . S
O245 Mg238 1.986 . S
O245 C249 1.246 . S
O246 Mg241 2.032 . S
O246 C249 1.259 . S
O247 Mg238 2.114 . S
O247 C250 1.252 . S
O248 Mg238 2.251 . S
O248 Mg241 2.079 . S
O248 C250 1.273 . S
C249 O245 1.246 . S
C249 O246 1.259 . S
C250 O247 1.252 . S
C250 O248 1.273 . S
O251 Mg238 2.010 . S
O251 C243 1.249 . S
Mg252 O253 2.028 . S
Mg252 O259 1.986 . S
Mg252 O261 2.114 . S
Mg252 O262 2.251 . S
Mg252 O265 2.010 . S
O253 Mg252 2.028 . S
O253 C256 1.250 . S
O254 Mg255 2.028 . S
O254 C256 1.248 . S
Mg255 O254 2.028 . S
Mg255 O260 2.032 . S
Mg255 O262 2.079 . S
C256 O253 1.250 . S
C256 O254 1.248 . S
C257 O258 1.264 . S
C257 O265 1.249 . S
O258 C257 1.264 . S
O259 Mg252 1.986 . S
O259 C263 1.246 . S
O260 Mg255 2.032 . S
O260 C263 1.259 . S
O261 Mg252 2.114 . S
O261 C264 1.252 . S
O262 Mg252 2.251 . S
O262 Mg255 2.079 . S
O262 C264 1.273 . S
C263 O259 1.246 . S
C263 O260 1.259 . S
C264 O261 1.252 . S
C264 O262 1.273 . S
O265 Mg252 2.010 . S
O265 C257 1.249 . S
Mg266 O267 2.028 . S
Mg266 O273 1.986 . S
Mg266 O275 2.114 . S
Mg266 O276 2.251 . S
Mg266 O279 2.010 . S
O267 Mg266 2.028 . S
O267 C270 1.250 . S
O268 Mg269 2.028 . S
O268 C270 1.248 . S
Mg269 O268 2.028 . S
Mg269 O274 2.032 . S
Mg269 O276 2.079 . S
C270 O267 1.250 . S
C270 O268 1.248 . S
C271 O272 1.264 . S
C271 O279 1.249 . S
O272 C271 1.264 . S
O273 Mg266 1.986 . S
O273 C277 1.246 . S
O274 Mg269 2.032 . S
O274 C277 1.259 . S
O275 Mg266 2.114 . S
O275 C278 1.252 . S
O276 Mg266 2.251 . S
O276 Mg269 2.079 . S
O276 C278 1.273 . S
C277 O273 1.246 . S
C277 O274 1.259 . S
C278 O275 1.252 . S
C278 O276 1.273 . S
O279 Mg266 2.010 . S
O279 C271 1.249 . S
Mg280 O281 2.028 . S
Mg280 O287 1.986 . S
Mg280 O289 2.114 . S
Mg280 O290 2.251 . S
Mg280 O293 2.010 . S
O281 Mg280 2.028 . S
O281 C284 1.250 . S
O282 Mg283 2.028 . S
O282 C284 1.248 . S
Mg283 O282 2.028 . S
Mg283 O288 2.032 . S
Mg283 O290 2.079 . S
C284 O281 1.250 . S
C284 O282 1.248 . S
C285 O286 1.264 . S
C285 O293 1.249 . S
O286 C285 1.264 . S
O287 Mg280 1.986 . S
O287 C291 1.246 . S
O288 Mg283 2.032 . S
O288 C291 1.259 . S
O289 Mg280 2.114 . S
O289 C292 1.252 . S
O290 Mg280 2.251 . S
O290 Mg283 2.079 . S
O290 C292 1.273 . S
C291 O287 1.246 . S
C291 O288 1.259 . S
C292 O289 1.252 . S
C292 O290 1.273 . S
O293 Mg280 2.010 . S
O293 C285 1.249 . S
Mg294 O295 2.028 . S
Mg294 O301 1.986 . S
Mg294 O303 2.114 . S
Mg294 O304 2.251 . S
Mg294 O307 2.010 . S
O295 Mg294 2.028 . S
O295 C298 1.250 . S
O296 Mg297 2.028 . S
O296 C298 1.248 . S
Mg297 O296 2.028 . S
Mg297 O302 2.032 . S
Mg297 O304 2.079 . S
C298 O295 1.250 . S
C298 O296 1.248 . S
C299 O300 1.264 . S
C299 O307 1.249 . S
O300 C299 1.264 . S
O301 Mg294 1.986 . S
O301 C305 1.246 . S
O302 Mg297 2.032 . S
O302 C305 1.259 . S
O303 Mg294 2.114 . S
O303 C306 1.252 . S
O304 Mg294 2.251 . S
O304 Mg297 2.079 . S
O304 C306 1.273 . S
C305 O301 1.246 . S
C305 O302 1.259 . S
C306 O303 1.252 . S
C306 O304 1.273 . S
O307 Mg294 2.010 . S
O307 C299 1.249 . S
Mg308 O309 2.028 . S
Mg308 O315 1.986 . S
Mg308 O317 2.114 . S
Mg308 O318 2.251 . S
Mg308 O321 2.010 . S
O309 Mg308 2.028 . S
O309 C312 1.250 . S
O310 Mg311 2.028 . S
O310 C312 1.248 . S
Mg311 O310 2.028 . S
Mg311 O316 2.032 . S
Mg311 O318 2.079 . S
C312 O309 1.250 . S
C312 O310 1.248 . S
C313 O314 1.264 . S
C313 O321 1.249 . S
O314 C313 1.264 . S
O315 Mg308 1.986 . S
O315 C319 1.246 . S
O316 Mg311 2.032 . S
O316 C319 1.259 . S
O317 Mg308 2.114 . S
O317 C320 1.252 . S
O318 Mg308 2.251 . S
O318 Mg311 2.079 . S
O318 C320 1.273 . S
C319 O315 1.246 . S
C319 O316 1.259 . S
C320 O317 1.252 . S
C320 O318 1.273 . S
O321 Mg308 2.010 . S
O321 C313 1.249 . S
Mg322 O323 2.028 . S
Mg322 O329 1.986 . S
Mg322 O331 2.114 . S
Mg322 O332 2.251 . S
Mg322 O335 2.010 . S
O323 Mg322 2.028 . S
O323 C326 1.250 . S
O324 Mg325 2.028 . S
O324 C326 1.248 . S
Mg325 O324 2.028 . S
Mg325 O330 2.032 . S
Mg325 O332 2.079 . S
C326 O323 1.250 . S
C326 O324 1.248 . S
C327 O328 1.264 . S
C327 O335 1.249 . S
O328 C327 1.264 . S
O329 Mg322 1.986 . S
O329 C333 1.246 . S
O330 Mg325 2.032 . S
O330 C333 1.259 . S
O331 Mg322 2.114 . S
O331 C334 1.252 . S
O332 Mg322 2.251 . S
O332 Mg325 2.079 . S
O332 C334 1.273 . S
C333 O329 1.246 . S
C333 O330 1.259 . S
C334 O331 1.252 . S
C334 O332 1.273 . S
O335 Mg322 2.010 . S
O335 C327 1.249 . S
Mg336 O337 2.028 . S
Mg336 O343 1.986 . S
Mg336 O345 2.114 . S
Mg336 O346 2.251 . S
Mg336 O349 2.010 . S
O337 Mg336 2.028 . S
O337 C340 1.250 . S
O338 Mg339 2.028 . S
O338 C340 1.248 . S
Mg339 O338 2.028 . S
Mg339 O344 2.032 . S
Mg339 O346 2.079 . S
C340 O337 1.250 . S
C340 O338 1.248 . S
C341 O342 1.264 . S
C341 O349 1.249 . S
O342 C341 1.264 . S
O343 Mg336 1.986 . S
O343 C347 1.246 . S
O344 Mg339 2.032 . S
O344 C347 1.259 . S
O345 Mg336 2.114 . S
O345 C348 1.252 . S
O346 Mg336 2.251 . S
O346 Mg339 2.079 . S
O346 C348 1.273 . S
C347 O343 1.246 . S
C347 O344 1.259 . S
C348 O345 1.252 . S
C348 O346 1.273 . S
O349 Mg336 2.010 . S
O349 C341 1.249 . S
Mg350 O351 2.028 . S
Mg350 O357 1.986 . S
Mg350 O359 2.114 . S
Mg350 O360 2.251 . S
Mg350 O363 2.010 . S
O351 Mg350 2.028 . S
O351 C354 1.250 . S
O352 Mg353 2.028 . S
O352 C354 1.248 . S
Mg353 O352 2.028 . S
Mg353 O358 2.032 . S
Mg353 O360 2.079 . S
C354 O351 1.250 . S
C354 O352 1.248 . S
C355 O356 1.264 . S
C355 O363 1.249 . S
O356 C355 1.264 . S
O357 Mg350 1.986 . S
O357 C361 1.246 . S
O358 Mg353 2.032 . S
O358 C361 1.259 . S
O359 Mg350 2.114 . S
O359 C362 1.252 . S
O360 Mg350 2.251 . S
O360 Mg353 2.079 . S
O360 C362 1.273 . S
C361 O357 1.246 . S
C361 O358 1.259 . S
C362 O359 1.252 . S
C362 O360 1.273 . S
O363 Mg350 2.010 . S
O363 C355 1.249 . S
Mg364 O365 2.028 . S
Mg364 O371 1.986 . S
Mg364 O373 2.114 . S
Mg364 O374 2.251 . S
Mg364 O377 2.010 . S
O365 Mg364 2.028 . S
O365 C368 1.250 . S
O366 Mg367 2.028 . S
O366 C368 1.248 . S
Mg367 O366 2.028 . S
Mg367 O372 2.032 . S
Mg367 O374 2.079 . S
C368 O365 1.250 . S
C368 O366 1.248 . S
C369 O370 1.264 . S
C369 O377 1.249 . S
O370 C369 1.264 . S
O371 Mg364 1.986 . S
O371 C375 1.246 . S
O372 Mg367 2.032 . S
O372 C375 1.259 . S
O373 Mg364 2.114 . S
O373 C376 1.252 . S
O374 Mg364 2.251 . S
O374 Mg367 2.079 . S
O374 C376 1.273 . S
C375 O371 1.246 . S
C375 O372 1.259 . S
C376 O373 1.252 . S
C376 O374 1.273 . S
O377 Mg364 2.010 . S
O377 C369 1.249 . S
Mg378 O379 2.028 . S
Mg378 O385 1.986 . S
Mg378 O387 2.114 . S
Mg378 O388 2.251 . S
Mg378 O391 2.010 . S
O379 Mg378 2.028 . S
O379 C382 1.250 . S
O380 Mg381 2.028 . S
O380 C382 1.248 . S
Mg381 O380 2.028 . S
Mg381 O386 2.032 . S
Mg381 O388 2.079 . S
C382 O379 1.250 . S
C382 O380 1.248 . S
C383 O384 1.264 . S
C383 O391 1.249 . S
O384 C383 1.264 . S
O385 Mg378 1.986 . S
O385 C389 1.246 . S
O386 Mg381 2.032 . S
O386 C389 1.259 . S
O387 Mg378 2.114 . S
O387 C390 1.252 . S
O388 Mg378 2.251 . S
O388 Mg381 2.079 . S
O388 C390 1.273 . S
C389 O385 1.246 . S
C389 O386 1.259 . S
C390 O387 1.252 . S
C390 O388 1.273 . S
O391 Mg378 2.010 . S
O391 C383 1.249 . S
Mg392 O393 2.028 . S
Mg392 O399 1.986 . S
Mg392 O401 2.114 . S
Mg392 O402 2.251 . S
Mg392 O405 2.010 . S
O393 Mg392 2.028 . S
O393 C396 1.250 . S
O394 Mg395 2.028 . S
O394 C396 1.248 . S
Mg395 O394 2.028 . S
Mg395 O400 2.032 . S
Mg395 O402 2.079 . S
C396 O393 1.250 . S
C396 O394 1.248 . S
C397 O398 1.264 . S
C397 O405 1.249 . S
O398 C397 1.264 . S
O399 Mg392 1.986 . S
O399 C403 1.246 . S
O400 Mg395 2.032 . S
O400 C403 1.259 . S
O401 Mg392 2.114 . S
O401 C404 1.252 . S
O402 Mg392 2.251 . S
O402 Mg395 2.079 . S
O402 C404 1.273 . S
C403 O399 1.246 . S
C403 O400 1.259 . S
C404 O401 1.252 . S
C404 O402 1.273 . S
O405 Mg392 2.010 . S
O405 C397 1.249 . S
Mg406 O407 2.028 . S
Mg406 O413 1.986 . S
Mg406 O415 2.114 . S
Mg406 O416 2.251 . S
Mg406 O419 2.010 . S
O407 Mg406 2.028 . S
O407 C410 1.250 . S
O408 Mg409 2.028 . S
O408 C410 1.248 . S
Mg409 O408 2.028 . S
Mg409 O414 2.032 . S
Mg409 O416 2.079 . S
C410 O407 1.250 . S
C410 O408 1.248 . S
C411 O412 1.264 . S
C411 O419 1.249 . S
O412 C411 1.264 . S
O413 Mg406 1.986 . S
O413 C417 1.246 . S
O414 Mg409 2.032 . S
O414 C417 1.259 . S
O415 Mg406 2.114 . S
O415 C418 1.252 . S
O416 Mg406 2.251 . S
O416 Mg409 2.079 . S
O416 C418 1.273 . S
C417 O413 1.246 . S
C417 O414 1.259 . S
C418 O415 1.252 . S
C418 O416 1.273 . S
O419 Mg406 2.010 . S
O419 C411 1.249 . S
Mg420 O421 2.028 . S
Mg420 O427 1.986 . S
Mg420 O429 2.114 . S
Mg420 O430 2.251 . S
Mg420 O433 2.010 . S
O421 Mg420 2.028 . S
O421 C424 1.250 . S
O422 Mg423 2.028 . S
O422 C424 1.248 . S
Mg423 O422 2.028 . S
Mg423 O428 2.032 . S
Mg423 O430 2.079 . S
C424 O421 1.250 . S
C424 O422 1.248 . S
C425 O426 1.264 . S
C425 O433 1.249 . S
O426 C425 1.264 . S
O427 Mg420 1.986 . S
O427 C431 1.246 . S
O428 Mg423 2.032 . S
O428 C431 1.259 . S
O429 Mg420 2.114 . S
O429 C432 1.252 . S
O430 Mg420 2.251 . S
O430 Mg423 2.079 . S
O430 C432 1.273 . S
C431 O427 1.246 . S
C431 O428 1.259 . S
C432 O429 1.252 . S
C432 O430 1.273 . S
O433 Mg420 2.010 . S
O433 C425 1.249 . S
Mg434 O435 2.028 . S
Mg434 O441 1.986 . S
Mg434 O443 2.114 . S
Mg434 O444 2.251 . S
Mg434 O447 2.010 . S
O435 Mg434 2.028 . S
O435 C438 1.250 . S
O436 Mg437 2.028 . S
O436 C438 1.248 . S
Mg437 O436 2.028 . S
Mg437 O442 2.032 . S
Mg437 O444 2.079 . S
C438 O435 1.250 . S
C438 O436 1.248 . S
C439 O440 1.264 . S
C439 O447 1.249 . S
O440 C439 1.264 . S
O441 Mg434 1.986 . S
O441 C445 1.246 . S
O442 Mg437 2.032 . S
O442 C445 1.259 . S
O443 Mg434 2.114 . S
O443 C446 1.252 . S
O444 Mg434 2.251 . S
O444 Mg437 2.079 . S
O444 C446 1.273 . S
C445 O441 1.246 . S
C445 O442 1.259 . S
C446 O443 1.252 . S
C446 O444 1.273 . S
O447 Mg434 2.010 . S
O447 C439 1.249 . S
H448 C460 0.930 . S
H449 C462 0.930 . S
H450 C463 0.930 . S
H451 C467 0.959 . S
H452 C467 0.959 . S
H453 C467 0.961 . S
H454 C468 0.960 . S
H455 C468 0.961 . S
H456 C468 0.959 . S
H457 C471 0.929 . S
H458 C472 0.931 . S
H459 C474 0.904 1_556 S
C460 H448 0.930 . S
C460 C461 1.399 . S
C460 C465 1.399 . S
C461 C460 1.399 . S
C461 C462 1.376 1_556 S
C462 H449 0.930 . S
C462 C461 1.376 1_554 S
C462 C463 1.388 . S
C463 H450 0.930 . S
C463 C462 1.388 . S
C463 C464 1.390 . S
C464 C463 1.390 . S
C464 C465 1.394 1_554 S
C464 C470 1.465 1_655 S
C465 C460 1.399 . S
C465 C464 1.394 1_556 S
C465 C466 1.516 1_655 S
C466 C465 1.516 1_455 S
C466 C467 1.502 1_455 S
C466 C468 1.561 . S
C466 C469 1.526 . S
C467 H451 0.959 . S
C467 H452 0.959 . S
C467 H453 0.961 . S
C467 C466 1.502 1_655 S
C468 H454 0.960 . S
C468 H455 0.961 . S
C468 H456 0.959 . S
C468 C466 1.561 . S
C469 C466 1.526 . S
C469 C470 1.396 1_556 S
C469 C474 1.384 1_556 S
C470 C464 1.465 1_455 S
C470 C469 1.396 1_554 S
C470 C471 1.399 . S
C471 H457 0.929 . S
C471 C470 1.399 . S
C471 C472 1.385 . S
C472 H458 0.931 . S
C472 C471 1.385 . S
C472 C473 1.389 . S
C473 C472 1.389 . S
C473 C474 1.419 . S
C474 H459 0.904 1_554 S
C474 C469 1.384 1_554 S
C474 C473 1.419 . S
H475 C487 0.930 . S
H476 C489 0.930 . S
H477 C490 0.930 . S
H478 C494 0.959 . S
H479 C494 0.959 . S
H480 C494 0.961 . S
H481 C495 0.960 . S
H482 C495 0.961 . S
H483 C495 0.959 . S
H484 C498 0.929 . S
H485 C499 0.931 . S
H486 C501 0.930 . S
C487 H475 0.930 . S
C487 C488 1.399 . S
C487 C492 1.399 . S
C488 C487 1.399 . S
C488 C489 1.376 . S
C489 H476 0.930 . S
C489 C488 1.376 . S
C489 C490 1.388 . S
C490 H477 0.930 . S
C490 C489 1.388 . S
C490 C491 1.390 . S
C491 C490 1.390 . S
C491 C492 1.394 . S
C491 C497 1.465 . S
C492 C487 1.399 . S
C492 C491 1.394 . S
C492 C493 1.516 . S
C493 C492 1.516 . S
C493 C494 1.502 . S
C493 C495 1.561 . S
C493 C496 1.526 . S
C494 H478 0.959 . S
C494 H479 0.959 . S
C494 H480 0.961 . S
C494 C493 1.502 . S
C495 H481 0.960 . S
C495 H482 0.961 . S
C495 H483 0.959 . S
C495 C493 1.561 . S
C496 C493 1.526 . S
C496 C497 1.396 . S
C496 C501 1.390 . S
C497 C491 1.465 . S
C497 C496 1.396 . S
C497 C498 1.399 . S
C498 H484 0.929 . S
C498 C497 1.399 . S
C498 C499 1.385 . S
C499 H485 0.931 . S
C499 C498 1.385 . S
C499 C500 1.389 . S
C500 C499 1.389 . S
C500 C501 1.387 . S
C501 H486 0.930 . S
C501 C496 1.390 . S
C501 C500 1.387 . S
H502 C514 0.930 . S
H503 C516 0.930 . S
H504 C517 0.930 . S
H505 C521 0.959 . S
H506 C521 0.959 . S
H507 C521 0.961 . S
H508 C522 0.960 . S
H509 C522 0.961 . S
H510 C522 0.959 . S
H511 C525 0.929 . S
H512 C526 0.931 . S
H513 C528 0.930 . S
C514 H502 0.930 . S
C514 C515 1.399 . S
C514 C519 1.399 . S
C515 C514 1.399 . S
C515 C516 1.376 . S
C516 H503 0.930 . S
C516 C515 1.376 . S
C516 C517 1.388 . S
C517 H504 0.930 . S
C517 C516 1.388 . S
C517 C518 1.390 . S
C518 C517 1.390 . S
C518 C519 1.394 . S
C518 C524 1.465 . S
C519 C514 1.399 . S
C519 C518 1.394 . S
C519 C520 1.516 . S
C520 C519 1.516 . S
C520 C521 1.502 . S
C520 C522 1.561 . S
C520 C523 1.526 . S
C521 H505 0.959 . S
C521 H506 0.959 . S
C521 H507 0.961 . S
C521 C520 1.502 . S
C522 H508 0.960 . S
C522 H509 0.961 . S
C522 H510 0.959 . S
C522 C520 1.561 . S
C523 C520 1.526 . S
C523 C524 1.396 . S
C523 C528 1.390 . S
C524 C518 1.465 . S
C524 C523 1.396 . S
C524 C525 1.399 . S
C525 H511 0.929 . S
C525 C524 1.399 . S
C525 C526 1.385 . S
C526 H512 0.931 . S
C526 C525 1.385 . S
C526 C527 1.389 . S
C527 C526 1.389 . S
C527 C528 1.387 . S
C528 H513 0.930 . S
C528 C523 1.390 . S
C528 C527 1.387 . S
H529 C541 0.930 . S
H530 C543 0.930 . S
H531 C544 0.930 . S
H532 C548 0.959 . S
H533 C548 0.959 . S
H534 C548 0.961 . S
H535 C549 0.960 . S
H536 C549 0.961 . S
H537 C549 0.959 . S
H538 C552 0.929 . S
H539 C553 0.931 . S
H540 C555 0.930 . S
C541 H529 0.930 . S
C541 C542 1.399 . S
C541 C546 1.399 . S
C542 C541 1.399 . S
C542 C543 1.376 . S
C543 H530 0.930 . S
C543 C542 1.376 . S
C543 C544 1.388 . S
C544 H531 0.930 . S
C544 C543 1.388 . S
C544 C545 1.390 . S
C545 C544 1.390 . S
C545 C546 1.394 . S
C545 C551 1.465 . S
C546 C541 1.399 . S
C546 C545 1.394 . S
C546 C547 1.516 . S
C547 C546 1.516 . S
C547 C548 1.502 . S
C547 C549 1.561 . S
C547 C550 1.526 . S
C548 H532 0.959 . S
C548 H533 0.959 . S
C548 H534 0.961 . S
C548 C547 1.502 . S
C549 H535 0.960 . S
C549 H536 0.961 . S
C549 H537 0.959 . S
C549 C547 1.561 . S
C550 C547 1.526 . S
C550 C551 1.396 . S
C550 C555 1.390 . S
C551 C545 1.465 . S
C551 C550 1.396 . S
C551 C552 1.399 . S
C552 H538 0.929 . S
C552 C551 1.399 . S
C552 C553 1.385 . S
C553 H539 0.931 . S
C553 C552 1.385 . S
C553 C554 1.389 . S
C554 C553 1.389 . S
C554 C555 1.387 . S
C555 H540 0.930 . S
C555 C550 1.390 . S
C555 C554 1.387 . S
H556 C568 0.930 . S
H557 C570 0.930 . S
H558 C571 0.930 . S
H559 C575 0.959 . S
H560 C575 0.959 . S
H561 C575 0.961 . S
H562 C576 0.960 . S
H563 C576 0.961 . S
H564 C576 0.959 1_455 S
H565 C579 0.929 . S
H566 C580 0.931 . S
H567 C582 0.930 . S
C568 H556 0.930 . S
C568 C569 1.399 . S
C568 C573 1.399 . S
C569 C568 1.399 . S
C569 C570 1.376 . S
C570 H557 0.930 . S
C570 C569 1.376 . S
C570 C571 1.388 1_655 S
C571 H558 0.930 . S
C571 C570 1.388 1_455 S
C571 C572 1.390 . S
C572 C571 1.390 . S
C572 C573 1.394 1_455 S
C572 C578 1.465 . S
C573 C568 1.399 . S
C573 C572 1.394 1_655 S
C573 C574 1.516 . S
C574 C573 1.516 . S
C574 C575 1.502 . S
C574 C576 1.561 . S
C574 C577 1.526 1_655 S
C575 H559 0.959 . S
C575 H560 0.959 . S
C575 H561 0.961 . S
C575 C574 1.502 . S
C576 H562 0.960 . S
C576 H563 0.961 . S
C576 H564 0.959 1_655 S
C576 C574 1.561 . S
C577 C574 1.526 1_455 S
C577 C578 1.396 . S
C577 C582 1.390 . S
C578 C572 1.465 . S
C578 C577 1.396 . S
C578 C579 1.399 . S
C579 H565 0.929 . S
C579 C578 1.399 . S
C579 C580 1.385 . S
C580 H566 0.931 . S
C580 C579 1.385 . S
C580 C581 1.389 . S
C581 C580 1.389 . S
C581 C582 1.387 . S
C582 H567 0.930 . S
C582 C577 1.390 . S
C582 C581 1.387 . S
H583 C595 0.930 . S
H584 C597 0.930 . S
H585 C598 0.930 . S
H586 C602 0.959 . S
H587 C602 0.959 . S
H588 C602 0.961 . S
H589 C603 0.960 . S
H590 C603 0.961 . S
H591 C603 0.959 . S
H592 C606 0.929 . S
H593 C607 0.931 . S
H594 C609 0.930 . S
C595 H583 0.930 . S
C595 C596 1.399 . S
C595 C600 1.399 . S
C596 C595 1.399 . S
C596 C597 1.376 . S
C597 H584 0.930 . S
C597 C596 1.376 . S
C597 C598 1.388 . S
C598 H585 0.930 . S
C598 C597 1.388 . S
C598 C599 1.390 . S
C599 C598 1.390 . S
C599 C600 1.394 . S
C599 C605 1.465 . S
C600 C595 1.399 . S
C600 C599 1.394 . S
C600 C601 1.516 . S
C601 C600 1.516 . S
C601 C602 1.502 . S
C601 C603 1.561 . S
C601 C604 1.526 . S
C602 H586 0.959 . S
C602 H587 0.959 . S
C602 H588 0.961 . S
C602 C601 1.502 . S
C603 H589 0.960 . S
C603 H590 0.961 . S
C603 H591 0.959 . S
C603 C601 1.561 . S
C604 C601 1.526 . S
C604 C605 1.396 . S
C604 C609 1.390 . S
C605 C599 1.465 . S
C605 C604 1.396 . S
C605 C606 1.399 . S
C606 H592 0.929 . S
C606 C605 1.399 . S
C606 C607 1.385 . S
C607 H593 0.931 . S
C607 C606 1.385 . S
C607 C608 1.389 . S
C608 C607 1.389 . S
C608 C609 1.387 . S
C609 H594 0.930 . S
C609 C604 1.390 . S
C609 C608 1.387 . S
H610 C622 0.932 1_554 S
H611 C624 0.930 . S
H612 C625 0.930 . S
H613 C629 0.959 . S
H614 C629 0.959 . S
H615 C629 0.961 . S
H616 C630 0.960 . S
H617 C630 0.961 . S
H618 C630 0.959 . S
H619 C633 0.929 . S
H620 C634 0.931 . S
H621 C636 0.930 . S
C622 H610 0.932 1_556 S
C622 C623 1.396 . S
C622 C627 1.399 1_556 S
C623 C622 1.396 . S
C623 C624 1.376 . S
C624 H611 0.930 . S
C624 C623 1.376 . S
C624 C625 1.388 . S
C625 H612 0.930 . S
C625 C624 1.388 . S
C625 C626 1.390 . S
C626 C625 1.390 . S
C626 C627 1.394 1_556 S
C626 C632 1.465 . S
C627 C622 1.399 1_554 S
C627 C626 1.394 1_554 S
C627 C628 1.516 . S
C628 C627 1.516 . S
C628 C629 1.502 . S
C628 C630 1.561 . S
C628 C631 1.526 . S
C629 H613 0.959 . S
C629 H614 0.959 . S
C629 H615 0.961 . S
C629 C628 1.502 . S
C630 H616 0.960 . S
C630 H617 0.961 . S
C630 H618 0.959 . S
C630 C628 1.561 . S
C631 C628 1.526 . S
C631 C632 1.396 1_554 S
C631 C636 1.390 . S
C632 C626 1.465 . S
C632 C631 1.396 1_556 S
C632 C633 1.399 . S
C633 H619 0.929 . S
C633 C632 1.399 . S
C633 C634 1.385 . S
C634 H620 0.931 . S
C634 C633 1.385 . S
C634 C635 1.389 1_556 S
C635 C634 1.389 1_554 S
C635 C636 1.387 . S
C636 H621 0.930 . S
C636 C631 1.390 . S
C636 C635 1.387 . S
H637 C649 0.930 . S
H638 C651 0.930 . S
H639 C652 0.930 . S
H640 C656 0.959 . S
H641 C656 0.959 . S
H642 C656 0.961 . S
H643 C657 0.960 . S
H644 C657 0.961 . S
H645 C657 0.959 . S
H646 C660 0.929 . S
H647 C661 0.931 . S
H648 C663 0.930 . S
C649 H637 0.930 . S
C649 C650 1.399 . S
C649 C654 1.399 . S
C650 C649 1.399 . S
C650 C651 1.376 . S
C651 H638 0.930 . S
C651 C650 1.376 . S
C651 C652 1.388 . S
C652 H639 0.930 . S
C652 C651 1.388 . S
C652 C653 1.390 . S
C653 C652 1.390 . S
C653 C654 1.394 . S
C653 C659 1.465 . S
C654 C649 1.399 . S
C654 C653 1.394 . S
C654 C655 1.516 . S
C655 C654 1.516 . S
C655 C656 1.502 . S
C655 C657 1.561 . S
C655 C658 1.526 . S
C656 H640 0.959 . S
C656 H641 0.959 . S
C656 H642 0.961 . S
C656 C655 1.502 . S
C657 H643 0.960 . S
C657 H644 0.961 . S
C657 H645 0.959 . S
C657 C655 1.561 . S
C658 C655 1.526 . S
C658 C659 1.396 . S
C658 C663 1.390 . S
C659 C653 1.465 . S
C659 C658 1.396 . S
C659 C660 1.399 . S
C660 H646 0.929 . S
C660 C659 1.399 . S
C660 C661 1.385 . S
C661 H647 0.931 . S
C661 C660 1.385 . S
C661 C662 1.389 . S
C662 C661 1.389 . S
C662 C663 1.387 . S
C663 H648 0.930 . S
C663 C658 1.390 . S
C663 C662 1.387 . S
H664 C676 0.930 . S
H665 C678 0.930 . S
H666 C679 0.930 . S
H667 C683 0.959 . S
H668 C683 0.959 . S
H669 C683 0.961 . S
H670 C684 0.960 . S
H671 C684 0.961 . S
H672 C684 0.959 . S
H673 C687 0.929 . S
H674 C688 0.931 . S
H675 C690 0.930 . S
C676 H664 0.930 . S
C676 C677 1.399 . S
C676 C681 1.399 . S
C677 C676 1.399 . S
C677 C678 1.376 . S
C678 H665 0.930 . S
C678 C677 1.376 . S
C678 C679 1.388 . S
C679 H666 0.930 . S
C679 C678 1.388 . S
C679 C680 1.390 . S
C680 C679 1.390 . S
C680 C681 1.394 . S
C680 C686 1.465 . S
C681 C676 1.399 . S
C681 C680 1.394 . S
C681 C682 1.516 . S
C682 C681 1.516 . S
C682 C683 1.502 . S
C682 C684 1.561 . S
C682 C685 1.526 . S
C683 H667 0.959 . S
C683 H668 0.959 . S
C683 H669 0.961 . S
C683 C682 1.502 . S
C684 H670 0.960 . S
C684 H671 0.961 . S
C684 H672 0.959 . S
C684 C682 1.561 . S
C685 C682 1.526 . S
C685 C686 1.396 . S
C685 C690 1.390 . S
C686 C680 1.465 . S
C686 C685 1.396 . S
C686 C687 1.399 . S
C687 H673 0.929 . S
C687 C686 1.399 . S
C687 C688 1.385 . S
C688 H674 0.931 . S
C688 C687 1.385 . S
C688 C689 1.389 . S
C689 C688 1.389 . S
C689 C690 1.387 . S
C690 H675 0.930 . S
C690 C685 1.390 . S
C690 C689 1.387 . S
H691 C703 0.930 . S
H692 C705 0.930 . S
H693 C706 0.930 . S
H694 C710 0.959 . S
H695 C710 0.959 . S
H696 C710 0.961 . S
H697 C711 0.960 . S
H698 C711 0.961 . S
H699 C711 0.959 . S
H700 C714 0.929 . S
H701 C715 0.931 . S
H702 C717 0.930 . S
C703 H691 0.930 . S
C703 C704 1.399 . S
C703 C708 1.399 . S
C704 C703 1.399 . S
C704 C705 1.376 . S
C705 H692 0.930 . S
C705 C704 1.376 . S
C705 C706 1.388 . S
C706 H693 0.930 . S
C706 C705 1.388 . S
C706 C707 1.390 . S
C707 C706 1.390 . S
C707 C708 1.394 . S
C707 C713 1.465 . S
C708 C703 1.399 . S
C708 C707 1.394 . S
C708 C709 1.516 . S
C709 C708 1.516 . S
C709 C710 1.502 . S
C709 C711 1.561 . S
C709 C712 1.526 . S
C710 H694 0.959 . S
C710 H695 0.959 . S
C710 H696 0.961 . S
C710 C709 1.502 . S
C711 H697 0.960 . S
C711 H698 0.961 . S
C711 H699 0.959 . S
C711 C709 1.561 . S
C712 C709 1.526 . S
C712 C713 1.396 . S
C712 C717 1.390 . S
C713 C707 1.465 . S
C713 C712 1.396 . S
C713 C714 1.399 . S
C714 H700 0.929 . S
C714 C713 1.399 . S
C714 C715 1.385 . S
C715 H701 0.931 . S
C715 C714 1.385 . S
C715 C716 1.389 . S
C716 C715 1.389 . S
C716 C717 1.387 . S
C717 H702 0.930 . S
C717 C712 1.390 . S
C717 C716 1.387 . S
H718 C730 0.930 . S
H719 C732 0.930 . S
H720 C733 0.930 . S
H721 C737 0.959 . S
H722 C737 0.959 . S
H723 C737 0.961 . S
H724 C738 0.960 . S
H725 C738 0.961 . S
H726 C738 0.959 . S
H727 C741 0.929 . S
H728 C742 0.931 . S
H729 C744 0.930 . S
C730 H718 0.930 . S
C730 C731 1.399 . S
C730 C735 1.399 . S
C731 C730 1.399 . S
C731 C732 1.376 . S
C732 H719 0.930 . S
C732 C731 1.376 . S
C732 C733 1.388 . S
C733 H720 0.930 . S
C733 C732 1.388 . S
C733 C734 1.390 . S
C734 C733 1.390 . S
C734 C735 1.394 . S
C734 C740 1.465 . S
C735 C730 1.399 . S
C735 C734 1.394 . S
C735 C736 1.516 . S
C736 C735 1.516 . S
C736 C737 1.502 . S
C736 C738 1.561 . S
C736 C739 1.526 . S
C737 H721 0.959 . S
C737 H722 0.959 . S
C737 H723 0.961 . S
C737 C736 1.502 . S
C738 H724 0.960 . S
C738 H725 0.961 . S
C738 H726 0.959 . S
C738 C736 1.561 . S
C739 C736 1.526 . S
C739 C740 1.396 . S
C739 C744 1.390 . S
C740 C734 1.465 . S
C740 C739 1.396 . S
C740 C741 1.399 . S
C741 H727 0.929 . S
C741 C740 1.399 . S
C741 C742 1.385 . S
C742 H728 0.931 . S
C742 C741 1.385 . S
C742 C743 1.389 . S
C743 C742 1.389 . S
C743 C744 1.387 . S
C744 H729 0.930 . S
C744 C739 1.390 . S
C744 C743 1.387 . S
H745 C757 0.930 . S
H746 C759 0.930 . S
H747 C760 0.930 . S
H748 C764 0.959 . S
H749 C764 0.959 . S
H750 C764 0.961 . S
H751 C765 0.960 . S
H752 C765 0.961 . S
H753 C765 0.959 . S
H754 C768 0.929 . S
H755 C769 0.931 . S
H756 C771 0.930 . S
C757 H745 0.930 . S
C757 C758 1.399 . S
C757 C762 1.399 . S
C758 C757 1.399 . S
C758 C759 1.376 . S
C759 H746 0.930 . S
C759 C758 1.376 . S
C759 C760 1.388 . S
C760 H747 0.930 . S
C760 C759 1.388 . S
C760 C761 1.390 . S
C761 C760 1.390 . S
C761 C762 1.394 . S
C761 C767 1.465 . S
C762 C757 1.399 . S
C762 C761 1.394 . S
C762 C763 1.516 . S
C763 C762 1.516 . S
C763 C764 1.502 . S
C763 C765 1.561 . S
C763 C766 1.526 . S
C764 H748 0.959 . S
C764 H749 0.959 . S
C764 H750 0.961 . S
C764 C763 1.502 . S
C765 H751 0.960 . S
C765 H752 0.961 . S
C765 H753 0.959 . S
C765 C763 1.561 . S
C766 C763 1.526 . S
C766 C767 1.396 . S
C766 C771 1.390 . S
C767 C761 1.465 . S
C767 C766 1.396 . S
C767 C768 1.399 . S
C768 H754 0.929 . S
C768 C767 1.399 . S
C768 C769 1.385 . S
C769 H755 0.931 . S
C769 C768 1.385 . S
C769 C770 1.389 . S
C770 C769 1.389 . S
C770 C771 1.387 . S
C771 H756 0.930 . S
C771 C766 1.390 . S
C771 C770 1.387 . S
H772 C784 0.930 . S
H773 C786 0.930 . S
H774 C787 0.930 . S
H775 C791 0.959 . S
H776 C791 0.959 . S
H777 C791 0.961 1_565 S
H778 C792 0.960 . S
H779 C792 0.961 . S
H780 C792 0.959 . S
H781 C795 0.929 . S
H782 C796 0.931 . S
H783 C798 0.930 . S
C784 H772 0.930 . S
C784 C785 1.399 . S
C784 C789 1.399 . S
C785 C784 1.399 . S
C785 C786 1.376 . S
C786 H773 0.930 . S
C786 C785 1.376 . S
C786 C787 1.388 . S
C787 H774 0.930 . S
C787 C786 1.388 . S
C787 C788 1.390 . S
C788 C787 1.390 . S
C788 C789 1.394 . S
C788 C794 1.465 1_565 S
C789 C784 1.399 . S
C789 C788 1.394 . S
C789 C790 1.516 . S
C790 C789 1.516 . S
C790 C791 1.502 1_565 S
C790 C792 1.561 . S
C790 C793 1.526 1_565 S
C791 H775 0.959 . S
C791 H776 0.959 . S
C791 H777 0.961 1_545 S
C791 C790 1.502 1_545 S
C792 H778 0.960 . S
C792 H779 0.961 . S
C792 H780 0.959 . S
C792 C790 1.561 . S
C793 C790 1.526 1_545 S
C793 C794 1.396 . S
C793 C798 1.390 . S
C794 C788 1.465 1_545 S
C794 C793 1.396 . S
C794 C795 1.399 . S
C795 H781 0.929 . S
C795 C794 1.399 . S
C795 C796 1.385 . S
C796 H782 0.931 . S
C796 C795 1.385 . S
C796 C797 1.389 . S
C797 C796 1.389 . S
C797 C798 1.387 . S
C798 H783 0.930 . S
C798 C793 1.390 . S
C798 C797 1.387 . S
H799 C811 0.930 . S
H800 C813 0.952 . S
H801 C814 0.915 1_655 S
H802 C818 0.959 . S
H803 C818 0.959 . S
H804 C818 0.961 . S
H805 C819 0.960 . S
H806 C819 0.961 . S
H807 C819 0.959 . S
H808 C822 0.929 1_565 S
H809 C823 0.931 . S
H810 C825 0.930 1_556 S
C811 H799 0.930 . S
C811 C812 1.399 . S
C811 C816 1.399 . S
C812 C811 1.399 . S
C812 C813 1.329 1_556 S
C813 H800 0.952 . S
C813 C812 1.329 1_554 S
C813 C814 1.417 . S
C814 H801 0.915 1_455 S
C814 C813 1.417 . S
C814 C815 1.390 . S
C815 C814 1.390 . S
C815 C816 1.394 1_554 S
C815 C821 1.465 1_465 S
C816 C811 1.399 . S
C816 C815 1.394 1_556 S
C816 C817 1.516 1_565 S
C817 C816 1.516 1_545 S
C817 C818 1.502 . S
C817 C819 1.561 1_455 S
C817 C820 1.526 1_455 S
C818 H802 0.959 . S
C818 H803 0.959 . S
C818 H804 0.961 . S
C818 C817 1.502 . S
C819 H805 0.960 . S
C819 H806 0.961 . S
C819 H807 0.959 . S
C819 C817 1.561 1_655 S
C820 C817 1.526 1_655 S
C820 C821 1.396 1_556 S
C820 C825 1.390 1_556 S
C821 C815 1.465 1_645 S
C821 C820 1.396 1_554 S
C821 C822 1.399 . S
C822 H808 0.929 1_545 S
C822 C821 1.399 . S
C822 C823 1.385 . S
C823 H809 0.931 . S
C823 C822 1.385 . S
C823 C824 1.389 . S
C824 C823 1.389 . S
C824 C825 1.387 . S
C825 H810 0.930 1_554 S
C825 C820 1.390 1_554 S
C825 C824 1.387 . S
H826 C838 0.930 . S
H827 C840 0.923 1_554 S
H828 C841 0.930 . S
H829 C845 0.959 . S
H830 C845 0.959 . S
H831 C845 0.961 . S
H832 C846 0.960 . S
H833 C846 0.961 . S
H834 C846 0.959 . S
H835 C849 0.929 . S
H836 C850 0.931 . S
H837 C852 0.930 1_556 S
C838 H826 0.930 . S
C838 C839 1.399 . S
C838 C843 1.399 . S
C839 C838 1.399 . S
C839 C840 1.396 . S
C840 H827 0.923 1_556 S
C840 C839 1.396 . S
C840 C841 1.376 1_556 S
C841 H828 0.930 . S
C841 C840 1.376 1_554 S
C841 C842 1.390 . S
C842 C841 1.390 . S
C842 C843 1.394 1_554 S
C842 C848 1.465 1_545 S
C843 C838 1.399 . S
C843 C842 1.394 1_556 S
C843 C844 1.516 . S
C844 C843 1.516 . S
C844 C845 1.502 . S
C844 C846 1.561 1_545 S
C844 C847 1.526 1_545 S
C845 H829 0.959 . S
C845 H830 0.959 . S
C845 H831 0.961 . S
C845 C844 1.502 . S
C846 H832 0.960 . S
C846 H833 0.961 . S
C846 H834 0.959 . S
C846 C844 1.561 1_565 S
C847 C844 1.526 1_565 S
C847 C848 1.396 1_556 S
C847 C852 1.390 1_556 S
C848 C842 1.465 1_565 S
C848 C847 1.396 1_554 S
C848 C849 1.399 . S
C849 H835 0.929 . S
C849 C848 1.399 . S
C849 C850 1.385 . S
C850 H836 0.931 . S
C850 C849 1.385 . S
C850 C851 1.389 . S
C851 C850 1.389 . S
C851 C852 1.387 . S
C852 H837 0.930 1_554 S
C852 C847 1.390 1_554 S
C852 C851 1.387 . S
H853 C865 0.930 . S
H854 C867 0.930 . S
H855 C868 0.930 1_565 S
H856 C872 0.959 . S
H857 C872 0.959 . S
H858 C872 0.961 . S
H859 C873 0.960 . S
H860 C873 0.961 1_655 S
H861 C873 0.959 . S
H862 C876 0.929 1_455 S
H863 C877 0.931 . S
H864 C879 0.930 . S
C865 H853 0.930 . S
C865 C866 1.399 . S
C865 C870 1.399 . S
C866 C865 1.399 . S
C866 C867 1.376 . S
C867 H854 0.930 . S
C867 C866 1.376 . S
C867 C868 1.388 . S
C868 H855 0.930 1_545 S
C868 C867 1.388 . S
C868 C869 1.390 . S
C869 C868 1.390 . S
C869 C870 1.394 . S
C869 C875 1.465 1_445 S
C870 C865 1.399 . S
C870 C869 1.394 . S
C870 C871 1.516 1_455 S
C871 C870 1.516 1_655 S
C871 C872 1.502 . S
C871 C873 1.561 1_655 S
C871 C874 1.526 1_545 S
C872 H856 0.959 . S
C872 H857 0.959 . S
C872 H858 0.961 . S
C872 C871 1.502 . S
C873 H859 0.960 . S
C873 H860 0.961 1_455 S
C873 H861 0.959 . S
C873 C871 1.561 1_455 S
C874 C871 1.526 1_565 S
C874 C875 1.396 . S
C874 C879 1.390 . S
C875 C869 1.465 1_665 S
C875 C874 1.396 . S
C875 C876 1.399 . S
C876 H862 0.929 1_655 S
C876 C875 1.399 . S
C876 C877 1.385 . S
C877 H863 0.931 . S
C877 C876 1.385 . S
C877 C878 1.389 . S
C878 C877 1.389 . S
C878 C879 1.387 . S
C879 H864 0.930 . S
C879 C874 1.390 . S
C879 C878 1.387 . S
H880 C892 0.930 . S
H881 C894 0.930 . S
H882 C895 0.930 . S
H883 C899 0.959 . S
H884 C899 0.959 . S
H885 C899 0.961 1_655 S
H886 C900 0.960 1_556 S
H887 C900 0.961 1_556 S
H888 C900 0.959 . S
H889 C903 0.929 . S
H890 C904 0.931 . S
H891 C906 0.930 . S
C892 H880 0.930 . S
C892 C893 1.399 . S
C892 C897 1.399 . S
C893 C892 1.399 . S
C893 C894 1.376 . S
C894 H881 0.930 . S
C894 C893 1.376 . S
C894 C895 1.388 . S
C895 H882 0.930 . S
C895 C894 1.388 . S
C895 C896 1.390 . S
C896 C895 1.390 . S
C896 C897 1.394 . S
C896 C902 1.465 1_655 S
C897 C892 1.399 . S
C897 C896 1.394 . S
C897 C898 1.516 . S
C898 C897 1.516 . S
C898 C899 1.502 1_654 S
C898 C900 1.561 . S
C898 C901 1.526 1_655 S
C899 H883 0.959 . S
C899 H884 0.959 . S
C899 H885 0.961 1_455 S
C899 C898 1.502 1_456 S
C900 H886 0.960 1_554 S
C900 H887 0.961 1_554 S
C900 H888 0.959 . S
C900 C898 1.561 . S
C901 C898 1.526 1_455 S
C901 C902 1.396 . S
C901 C906 1.390 . S
C902 C896 1.465 1_455 S
C902 C901 1.396 . S
C902 C903 1.399 . S
C903 H889 0.929 . S
C903 C902 1.399 . S
C903 C904 1.385 . S
C904 H890 0.931 . S
C904 C903 1.385 . S
C904 C905 1.389 . S
C905 C904 1.389 . S
C905 C906 1.387 . S
C906 H891 0.930 . S
C906 C901 1.390 . S
C906 C905 1.387 . S
H907 C919 0.930 . S
H908 C921 0.930 . S
H909 C922 0.930 . S
H910 C926 0.959 . S
H911 C926 0.959 . S
H912 C926 0.961 . S
H913 C927 0.960 . S
H914 C927 0.961 . S
H915 C927 0.959 . S
H916 C930 0.929 . S
H917 C931 0.931 . S
H918 C933 0.930 . S
C919 H907 0.930 . S
C919 C920 1.399 . S
C919 C924 1.399 . S
C920 C919 1.399 . S
C920 C921 1.376 . S
C921 H908 0.930 . S
C921 C920 1.376 . S
C921 C922 1.388 . S
C922 H909 0.930 . S
C922 C921 1.388 . S
C922 C923 1.390 . S
C923 C922 1.390 . S
C923 C924 1.394 . S
C923 C929 1.465 1_455 S
C924 C919 1.399 . S
C924 C923 1.394 . S
C924 C925 1.516 . S
C925 C924 1.516 . S
C925 C926 1.502 . S
C925 C927 1.561 1_455 S
C925 C928 1.526 1_455 S
C926 H910 0.959 . S
C926 H911 0.959 . S
C926 H912 0.961 . S
C926 C925 1.502 . S
C927 H913 0.960 . S
C927 H914 0.961 . S
C927 H915 0.959 . S
C927 C925 1.561 1_655 S
C928 C925 1.526 1_655 S
C928 C929 1.396 . S
C928 C933 1.390 . S
C929 C923 1.465 1_655 S
C929 C928 1.396 . S
C929 C930 1.399 . S
C930 H916 0.929 . S
C930 C929 1.399 . S
C930 C931 1.385 . S
C931 H917 0.931 . S
C931 C930 1.385 . S
C931 C932 1.389 . S
C932 C931 1.389 . S
C932 C933 1.387 . S
C933 H918 0.930 . S
C933 C928 1.390 . S
C933 C932 1.387 . S
H934 C946 0.930 . S
H935 C948 0.930 . S
H936 C949 0.930 . S
H937 C953 0.959 . S
H938 C953 0.959 . S
H939 C953 0.961 . S
H940 C954 0.960 . S
H941 C954 0.961 . S
H942 C954 0.959 . S
H943 C957 0.929 . S
H944 C958 0.931 . S
H945 C960 0.930 . S
C946 H934 0.930 . S
C946 C947 1.399 . S
C946 C951 1.399 . S
C947 C946 1.399 . S
C947 C948 1.376 . S
C948 H935 0.930 . S
C948 C947 1.376 . S
C948 C949 1.388 . S
C949 H936 0.930 . S
C949 C948 1.388 . S
C949 C950 1.390 . S
C950 C949 1.390 . S
C950 C951 1.394 . S
C950 C956 1.465 . S
C951 C946 1.399 . S
C951 C950 1.394 . S
C951 C952 1.516 . S
C952 C951 1.516 . S
C952 C953 1.502 . S
C952 C954 1.561 . S
C952 C955 1.526 . S
C953 H937 0.959 . S
C953 H938 0.959 . S
C953 H939 0.961 . S
C953 C952 1.502 . S
C954 H940 0.960 . S
C954 H941 0.961 . S
C954 H942 0.959 . S
C954 C952 1.561 . S
C955 C952 1.526 . S
C955 C956 1.396 . S
C955 C960 1.390 . S
C956 C950 1.465 . S
C956 C955 1.396 . S
C956 C957 1.399 . S
C957 H943 0.929 . S
C957 C956 1.399 . S
C957 C958 1.385 . S
C958 H944 0.931 . S
C958 C957 1.385 . S
C958 C959 1.389 . S
C959 C958 1.389 . S
C959 C960 1.387 . S
C960 H945 0.930 . S
C960 C955 1.390 . S
C960 C959 1.387 . S
H961 C973 0.930 . S
H962 C975 0.930 . S
H963 C976 0.930 . S
H964 C980 0.959 . S
H965 C980 0.959 . S
H966 C980 0.961 . S
H967 C981 0.960 . S
H968 C981 0.961 . S
H969 C981 0.959 . S
H970 C984 0.929 . S
H971 C985 0.931 . S
H972 C987 0.930 . S
C973 H961 0.930 . S
C973 C974 1.399 . S
C973 C978 1.399 . S
C974 C973 1.399 . S
C974 C975 1.376 . S
C975 H962 0.930 . S
C975 C974 1.376 . S
C975 C976 1.388 . S
C976 H963 0.930 . S
C976 C975 1.388 . S
C976 C977 1.390 . S
C977 C976 1.390 . S
C977 C978 1.394 . S
C977 C983 1.465 . S
C978 C973 1.399 . S
C978 C977 1.394 . S
C978 C979 1.516 . S
C979 C978 1.516 . S
C979 C980 1.502 . S
C979 C981 1.561 . S
C979 C982 1.526 . S
C980 H964 0.959 . S
C980 H965 0.959 . S
C980 H966 0.961 . S
C980 C979 1.502 . S
C981 H967 0.960 . S
C981 H968 0.961 . S
C981 H969 0.959 . S
C981 C979 1.561 . S
C982 C979 1.526 . S
C982 C983 1.396 . S
C982 C987 1.390 . S
C983 C977 1.465 . S
C983 C982 1.396 . S
C983 C984 1.399 . S
C984 H970 0.929 . S
C984 C983 1.399 . S
C984 C985 1.385 . S
C985 H971 0.931 . S
C985 C984 1.385 . S
C985 C986 1.389 . S
C986 C985 1.389 . S
C986 C987 1.387 . S
C987 H972 0.930 . S
C987 C982 1.390 . S
C987 C986 1.387 . S
H988 C1000 0.930 . S
H989 C1002 0.930 . S
H990 C1003 0.930 . S
H991 C1007 0.959 . S
H992 C1007 0.959 . S
H993 C1007 0.961 . S
H994 C1008 0.960 . S
H995 C1008 0.961 . S
H996 C1008 0.959 . S
H997 C1011 0.929 . S
H998 C1012 0.931 . S
H999 C1014 0.930 . S
C1000 H988 0.930 . S
C1000 C1001 1.399 . S
C1000 C1005 1.399 . S
C1001 C1000 1.399 . S
C1001 C1002 1.376 . S
C1002 H989 0.930 . S
C1002 C1001 1.376 . S
C1002 C1003 1.388 . S
C1003 H990 0.930 . S
C1003 C1002 1.388 . S
C1003 C1004 1.390 . S
C1004 C1003 1.390 . S
C1004 C1005 1.394 . S
C1004 C1010 1.465 1_655 S
C1005 C1000 1.399 . S
C1005 C1004 1.394 . S
C1005 C1006 1.516 1_655 S
C1006 C1005 1.516 1_455 S
C1006 C1007 1.502 . S
C1006 C1008 1.561 1_455 S
C1006 C1009 1.526 . S
C1007 H991 0.959 . S
C1007 H992 0.959 . S
C1007 H993 0.961 . S
C1007 C1006 1.502 . S
C1008 H994 0.960 . S
C1008 H995 0.961 . S
C1008 H996 0.959 . S
C1008 C1006 1.561 1_655 S
C1009 C1006 1.526 . S
C1009 C1010 1.396 . S
C1009 C1014 1.390 . S
C1010 C1004 1.465 1_455 S
C1010 C1009 1.396 . S
C1010 C1011 1.399 . S
C1011 H997 0.929 . S
C1011 C1010 1.399 . S
C1011 C1012 1.385 . S
C1012 H998 0.931 . S
C1012 C1011 1.385 . S
C1012 C1013 1.389 . S
C1013 C1012 1.389 . S
C1013 C1014 1.387 . S
C1014 H999 0.930 . S
C1014 C1009 1.390 . S
C1014 C1013 1.387 . S
H1015 C1027 0.930 . S
H1016 C1029 0.930 . S
H1017 C1030 0.930 . S
H1018 C1034 0.959 . S
H1019 C1034 0.959 . S
H1020 C1034 0.961 . S
H1021 C1035 0.960 . S
H1022 C1035 0.961 . S
H1023 C1035 0.959 . S
H1024 C1038 0.929 . S
H1025 C1039 0.931 . S
H1026 C1041 0.930 . S
C1027 H1015 0.930 . S
C1027 C1028 1.399 . S
C1027 C1032 1.399 . S
C1028 C1027 1.399 . S
C1028 C1029 1.376 . S
C1029 H1016 0.930 . S
C1029 C1028 1.376 . S
C1029 C1030 1.388 . S
C1030 H1017 0.930 . S
C1030 C1029 1.388 . S
C1030 C1031 1.390 . S
C1031 C1030 1.390 . S
C1031 C1032 1.394 . S
C1031 C1037 1.465 . S
C1032 C1027 1.399 . S
C1032 C1031 1.394 . S
C1032 C1033 1.516 . S
C1033 C1032 1.516 . S
C1033 C1034 1.502 . S
C1033 C1035 1.561 . S
C1033 C1036 1.526 . S
C1034 H1018 0.959 . S
C1034 H1019 0.959 . S
C1034 H1020 0.961 . S
C1034 C1033 1.502 . S
C1035 H1021 0.960 . S
C1035 H1022 0.961 . S
C1035 H1023 0.959 . S
C1035 C1033 1.561 . S
C1036 C1033 1.526 . S
C1036 C1037 1.396 . S
C1036 C1041 1.390 . S
C1037 C1031 1.465 . S
C1037 C1036 1.396 . S
C1037 C1038 1.399 . S
C1038 H1024 0.929 . S
C1038 C1037 1.399 . S
C1038 C1039 1.385 . S
C1039 H1025 0.931 . S
C1039 C1038 1.385 . S
C1039 C1040 1.389 . S
C1040 C1039 1.389 . S
C1040 C1041 1.387 . S
C1041 H1026 0.930 . S
C1041 C1036 1.390 . S
C1041 C1040 1.387 . S
H1042 C1054 0.930 . S
H1043 C1056 0.930 . S
H1044 C1057 0.930 . S
H1045 C1061 0.989 . S
H1046 C1061 0.936 1_554 S
H1047 C1061 0.942 1_554 S
H1048 C1062 0.960 . S
H1049 C1062 0.961 . S
H1050 C1062 0.959 . S
H1051 C1065 0.929 . S
H1052 C1066 0.931 . S
H1053 C1068 0.930 . S
C1054 H1042 0.930 . S
C1054 C1055 1.399 . S
C1054 C1059 1.399 . S
C1055 C1054 1.399 . S
C1055 C1056 1.376 . S
C1056 H1043 0.930 . S
C1056 C1055 1.376 . S
C1056 C1057 1.388 . S
C1057 H1044 0.930 . S
C1057 C1056 1.388 . S
C1057 C1058 1.390 . S
C1058 C1057 1.390 . S
C1058 C1059 1.394 . S
C1058 C1064 1.465 . S
C1059 C1054 1.399 . S
C1059 C1058 1.394 . S
C1059 C1060 1.516 . S
C1060 C1059 1.516 . S
C1060 C1061 1.518 . S
C1060 C1062 1.561 1_556 S
C1060 C1063 1.526 . S
C1061 H1045 0.989 . S
C1061 H1046 0.936 1_556 S
C1061 H1047 0.942 1_556 S
C1061 C1060 1.518 . S
C1062 H1048 0.960 . S
C1062 H1049 0.961 . S
C1062 H1050 0.959 . S
C1062 C1060 1.561 1_554 S
C1063 C1060 1.526 . S
C1063 C1064 1.396 . S
C1063 C1068 1.390 . S
C1064 C1058 1.465 . S
C1064 C1063 1.396 . S
C1064 C1065 1.399 . S
C1065 H1051 0.929 . S
C1065 C1064 1.399 . S
C1065 C1066 1.385 . S
C1066 H1052 0.931 . S
C1066 C1065 1.385 . S
C1066 C1067 1.389 . S
C1067 C1066 1.389 . S
C1067 C1068 1.387 . S
C1068 H1053 0.930 . S
C1068 C1063 1.390 . S
C1068 C1067 1.387 . S
H1069 C1081 0.930 . S
H1070 C1083 0.930 . S
H1071 C1084 0.930 . S
H1072 C1088 0.959 . S
H1073 C1088 0.959 . S
H1074 C1088 0.961 . S
H1075 C1089 0.960 . S
H1076 C1089 0.938 1_655 S
H1077 C1089 0.959 . S
H1078 C1092 0.929 . S
H1079 C1093 0.931 . S
H1080 C1095 0.930 . S
C1081 H1069 0.930 . S
C1081 C1082 1.399 . S
C1081 C1086 1.399 . S
C1082 C1081 1.399 . S
C1082 C1083 1.376 . S
C1083 H1070 0.930 . S
C1083 C1082 1.376 . S
C1083 C1084 1.388 . S
C1084 H1071 0.930 . S
C1084 C1083 1.388 . S
C1084 C1085 1.390 . S
C1085 C1084 1.390 . S
C1085 C1086 1.394 . S
C1085 C1091 1.465 1_455 S
C1086 C1081 1.399 . S
C1086 C1085 1.394 . S
C1086 C1087 1.516 1_455 S
C1087 C1086 1.516 1_655 S
C1087 C1088 1.502 . S
C1087 C1089 1.561 1_655 S
C1087 C1090 1.526 . S
C1088 H1072 0.959 . S
C1088 H1073 0.959 . S
C1088 H1074 0.961 . S
C1088 C1087 1.502 . S
C1089 H1075 0.960 . S
C1089 H1076 0.938 1_455 S
C1089 H1077 0.959 . S
C1089 C1087 1.561 1_455 S
C1090 C1087 1.526 . S
C1090 C1091 1.396 . S
C1090 C1095 1.390 . S
C1091 C1085 1.465 1_655 S
C1091 C1090 1.396 . S
C1091 C1092 1.399 . S
C1092 H1078 0.929 . S
C1092 C1091 1.399 . S
C1092 C1093 1.385 . S
C1093 H1079 0.931 . S
C1093 C1092 1.385 . S
C1093 C1094 1.389 . S
C1094 C1093 1.389 . S
C1094 C1095 1.387 . S
C1095 H1080 0.930 . S
C1095 C1090 1.390 . S
C1095 C1094 1.387 . S
H1096 C1108 0.930 . S
H1097 C1110 0.930 . S
H1098 C1111 0.915 1_455 S
H1099 C1115 0.959 . S
H1100 C1115 0.959 1_554 S
H1101 C1115 0.961 1_554 S
H1102 C1116 0.960 1_655 S
H1103 C1116 0.961 . S
H1104 C1116 0.959 . S
H1105 C1119 0.929 . S
H1106 C1120 0.931 . S
H1107 C1122 0.930 . S
C1108 H1096 0.930 . S
C1108 C1109 1.399 . S
C1108 C1113 1.399 . S
C1109 C1108 1.399 . S
C1109 C1110 1.376 . S
C1110 H1097 0.930 . S
C1110 C1109 1.376 . S
C1110 C1111 1.388 . S
C1111 H1098 0.915 1_655 S
C1111 C1110 1.388 . S
C1111 C1112 1.390 . S
C1112 C1111 1.390 . S
C1112 C1113 1.394 . S
C1112 C1118 1.465 1_655 S
C1113 C1108 1.399 . S
C1113 C1112 1.394 . S
C1113 C1114 1.516 . S
C1114 C1113 1.516 . S
C1114 C1115 1.502 . S
C1114 C1116 1.561 1_656 S
C1114 C1117 1.526 1_655 S
C1115 H1099 0.959 . S
C1115 H1100 0.959 1_556 S
C1115 H1101 0.961 1_556 S
C1115 C1114 1.502 . S
C1116 H1102 0.960 1_455 S
C1116 H1103 0.961 . S
C1116 H1104 0.959 . S
C1116 C1114 1.561 1_454 S
C1117 C1114 1.526 1_455 S
C1117 C1118 1.396 . S
C1117 C1122 1.390 . S
C1118 C1112 1.465 1_455 S
C1118 C1117 1.396 . S
C1118 C1119 1.399 . S
C1119 H1105 0.929 . S
C1119 C1118 1.399 . S
C1119 C1120 1.385 . S
C1120 H1106 0.931 . S
C1120 C1119 1.385 . S
C1120 C1121 1.389 . S
C1121 C1120 1.389 . S
C1121 C1122 1.387 . S
C1122 H1107 0.930 . S
C1122 C1117 1.390 . S
C1122 C1121 1.387 . S
H1123 C1135 0.930 . S
H1124 C1137 0.930 . S
H1125 C1138 0.930 . S
H1126 C1142 0.959 . S
H1127 C1142 0.959 . S
H1128 C1142 0.961 . S
H1129 C1143 0.960 1_655 S
H1130 C1143 0.961 . S
H1131 C1143 0.959 . S
H1132 C1146 0.929 . S
H1133 C1147 0.931 . S
H1134 C1149 0.930 . S
C1135 H1123 0.930 . S
C1135 C1136 1.399 . S
C1135 C1140 1.399 . S
C1136 C1135 1.399 . S
C1136 C1137 1.376 . S
C1137 H1124 0.930 . S
C1137 C1136 1.376 . S
C1137 C1138 1.388 . S
C1138 H1125 0.930 . S
C1138 C1137 1.388 . S
C1138 C1139 1.390 . S
C1139 C1138 1.390 . S
C1139 C1140 1.394 . S
C1139 C1145 1.465 1_655 S
C1140 C1135 1.399 . S
C1140 C1139 1.394 . S
C1140 C1141 1.516 . S
C1141 C1140 1.516 . S
C1141 C1142 1.502 . S
C1141 C1143 1.561 1_655 S
C1141 C1144 1.526 1_655 S
C1142 H1126 0.959 . S
C1142 H1127 0.959 . S
C1142 H1128 0.961 . S
C1142 C1141 1.502 . S
C1143 H1129 0.960 1_455 S
C1143 H1130 0.961 . S
C1143 H1131 0.959 . S
C1143 C1141 1.561 1_455 S
C1144 C1141 1.526 1_455 S
C1144 C1145 1.396 . S
C1144 C1149 1.390 . S
C1145 C1139 1.465 1_455 S
C1145 C1144 1.396 . S
C1145 C1146 1.399 . S
C1146 H1132 0.929 . S
C1146 C1145 1.399 . S
C1146 C1147 1.385 . S
C1147 H1133 0.931 . S
C1147 C1146 1.385 . S
C1147 C1148 1.389 . S
C1148 C1147 1.389 . S
C1148 C1149 1.387 . S
C1149 H1134 0.930 . S
C1149 C1144 1.390 . S
C1149 C1148 1.387 . S
H1150 C1162 0.930 . S
H1151 C1164 0.930 . S
H1152 C1165 0.930 . S
H1153 C1169 0.959 . S
H1154 C1169 0.959 . S
H1155 C1169 0.961 . S
H1156 C1170 0.960 . S
H1157 C1170 0.961 . S
H1158 C1170 0.959 . S
H1159 C1173 0.929 . S
H1160 C1174 0.931 . S
H1161 C1176 0.930 . S
C1162 H1150 0.930 . S
C1162 C1163 1.399 . S
C1162 C1167 1.399 . S
C1163 C1162 1.399 . S
C1163 C1164 1.376 . S
C1164 H1151 0.930 . S
C1164 C1163 1.376 . S
C1164 C1165 1.388 . S
C1165 H1152 0.930 . S
C1165 C1164 1.388 . S
C1165 C1166 1.390 . S
C1166 C1165 1.390 . S
C1166 C1167 1.394 . S
C1166 C1172 1.465 . S
C1167 C1162 1.399 . S
C1167 C1166 1.394 . S
C1167 C1168 1.516 . S
C1168 C1167 1.516 . S
C1168 C1169 1.502 . S
C1168 C1170 1.561 . S
C1168 C1171 1.526 . S
C1169 H1153 0.959 . S
C1169 H1154 0.959 . S
C1169 H1155 0.961 . S
C1169 C1168 1.502 . S
C1170 H1156 0.960 . S
C1170 H1157 0.961 . S
C1170 H1158 0.959 . S
C1170 C1168 1.561 . S
C1171 C1168 1.526 . S
C1171 C1172 1.396 . S
C1171 C1176 1.390 . S
C1172 C1166 1.465 . S
C1172 C1171 1.396 . S
C1172 C1173 1.399 . S
C1173 H1159 0.929 . S
C1173 C1172 1.399 . S
C1173 C1174 1.385 . S
C1174 H1160 0.931 . S
C1174 C1173 1.385 . S
C1174 C1175 1.389 . S
C1175 C1174 1.389 . S
C1175 C1176 1.387 . S
C1176 H1161 0.930 . S
C1176 C1171 1.390 . S
C1176 C1175 1.387 . S
H1177 C1189 0.930 . S
H1178 C1191 0.930 . S
H1179 C1192 0.930 . S
H1180 C1196 0.959 . S
H1181 C1196 0.959 . S
H1182 C1196 0.961 . S
H1183 C1197 0.960 . S
H1184 C1197 0.961 . S
H1185 C1197 0.959 . S
H1186 C1200 0.929 . S
H1187 C1201 0.931 . S
H1188 C1203 0.930 . S
C1189 H1177 0.930 . S
C1189 C1190 1.399 . S
C1189 C1194 1.399 . S
C1190 C1189 1.399 . S
C1190 C1191 1.376 . S
C1191 H1178 0.930 . S
C1191 C1190 1.376 . S
C1191 C1192 1.388 . S
C1192 H1179 0.930 . S
C1192 C1191 1.388 . S
C1192 C1193 1.390 . S
C1193 C1192 1.390 . S
C1193 C1194 1.394 . S
C1193 C1199 1.465 . S
C1194 C1189 1.399 . S
C1194 C1193 1.394 . S
C1194 C1195 1.516 . S
C1195 C1194 1.516 . S
C1195 C1196 1.502 . S
C1195 C1197 1.561 . S
C1195 C1198 1.526 . S
C1196 H1180 0.959 . S
C1196 H1181 0.959 . S
C1196 H1182 0.961 . S
C1196 C1195 1.502 . S
C1197 H1183 0.960 . S
C1197 H1184 0.961 . S
C1197 H1185 0.959 . S
C1197 C1195 1.561 . S
C1198 C1195 1.526 . S
C1198 C1199 1.396 . S
C1198 C1203 1.390 . S
C1199 C1193 1.465 . S
C1199 C1198 1.396 . S
C1199 C1200 1.399 . S
C1200 H1186 0.929 . S
C1200 C1199 1.399 . S
C1200 C1201 1.385 . S
C1201 H1187 0.931 . S
C1201 C1200 1.385 . S
C1201 C1202 1.389 . S
C1202 C1201 1.389 . S
C1202 C1203 1.387 . S
C1203 H1188 0.930 . S
C1203 C1198 1.390 . S
C1203 C1202 1.387 . S
H1204 C1216 0.930 . S
H1205 C1218 0.930 . S
H1206 C1219 0.930 . S
H1207 C1223 0.959 . S
H1208 C1223 0.959 . S
H1209 C1223 0.961 1_655 S
H1210 C1224 0.960 . S
H1211 C1224 0.961 . S
H1212 C1224 0.959 . S
H1213 C1227 0.929 . S
H1214 C1228 0.931 . S
H1215 C1230 0.930 . S
C1216 H1204 0.930 . S
C1216 C1217 1.399 . S
C1216 C1221 1.399 . S
C1217 C1216 1.399 . S
C1217 C1218 1.376 . S
C1218 H1205 0.930 . S
C1218 C1217 1.376 . S
C1218 C1219 1.388 . S
C1219 H1206 0.930 . S
C1219 C1218 1.388 . S
C1219 C1220 1.390 . S
C1220 C1219 1.390 . S
C1220 C1221 1.394 . S
C1220 C1226 1.465 1_655 S
C1221 C1216 1.399 . S
C1221 C1220 1.394 . S
C1221 C1222 1.516 . S
C1222 C1221 1.516 . S
C1222 C1223 1.502 1_655 S
C1222 C1224 1.561 . S
C1222 C1225 1.526 1_655 S
C1223 H1207 0.959 . S
C1223 H1208 0.959 . S
C1223 H1209 0.961 1_455 S
C1223 C1222 1.502 1_455 S
C1224 H1210 0.960 . S
C1224 H1211 0.961 . S
C1224 H1212 0.959 . S
C1224 C1222 1.561 . S
C1225 C1222 1.526 1_455 S
C1225 C1226 1.396 . S
C1225 C1230 1.390 . S
C1226 C1220 1.465 1_455 S
C1226 C1225 1.396 . S
C1226 C1227 1.399 . S
C1227 H1213 0.929 . S
C1227 C1226 1.399 . S
C1227 C1228 1.385 . S
C1228 H1214 0.931 . S
C1228 C1227 1.385 . S
C1228 C1229 1.389 . S
C1229 C1228 1.389 . S
C1229 C1230 1.387 . S
C1230 H1215 0.930 . S
C1230 C1225 1.390 . S
C1230 C1229 1.387 . S
H1231 C1243 0.930 . S
H1232 C1245 0.930 . S
H1233 C1246 0.930 . S
H1234 C1250 0.959 . S
H1235 C1250 0.959 . S
H1236 C1250 0.961 . S
H1237 C1251 0.960 . S
H1238 C1251 0.961 . S
H1239 C1251 0.959 . S
H1240 C1254 0.929 . S
H1241 C1255 0.931 . S
H1242 C1257 0.930 . S
C1243 H1231 0.930 . S
C1243 C1244 1.399 . S
C1243 C1248 1.399 . S
C1244 C1243 1.399 . S
C1244 C1245 1.376 . S
C1245 H1232 0.930 . S
C1245 C1244 1.376 . S
C1245 C1246 1.388 . S
C1246 H1233 0.930 . S
C1246 C1245 1.388 . S
C1246 C1247 1.390 . S
C1247 C1246 1.390 . S
C1247 C1248 1.394 . S
C1247 C1253 1.465 . S
C1248 C1243 1.399 . S
C1248 C1247 1.394 . S
C1248 C1249 1.516 . S
C1249 C1248 1.516 . S
C1249 C1250 1.502 . S
C1249 C1251 1.561 . S
C1249 C1252 1.526 . S
C1250 H1234 0.959 . S
C1250 H1235 0.959 . S
C1250 H1236 0.961 . S
C1250 C1249 1.502 . S
C1251 H1237 0.960 . S
C1251 H1238 0.961 . S
C1251 H1239 0.959 . S
C1251 C1249 1.561 . S
C1252 C1249 1.526 . S
C1252 C1253 1.396 . S
C1252 C1257 1.390 . S
C1253 C1247 1.465 . S
C1253 C1252 1.396 . S
C1253 C1254 1.399 . S
C1254 H1240 0.929 . S
C1254 C1253 1.399 . S
C1254 C1255 1.385 . S
C1255 H1241 0.931 . S
C1255 C1254 1.385 . S
C1255 C1256 1.389 . S
C1256 C1255 1.389 . S
C1256 C1257 1.387 . S
C1257 H1242 0.930 . S
C1257 C1252 1.390 . S
C1257 C1256 1.387 . S
H1258 C1270 0.930 . S
H1259 C1272 0.930 . S
H1260 C1273 0.930 . S
H1261 C1277 0.959 1_554 S
H1262 C1277 0.959 . S
H1263 C1277 0.961 . S
H1264 C1278 0.960 . S
H1265 C1278 0.961 . S
H1266 C1278 0.959 1_554 S
H1267 C1281 0.929 . S
H1268 C1282 0.931 . S
H1269 C1284 0.930 . S
C1270 H1258 0.930 . S
C1270 C1271 1.399 . S
C1270 C1275 1.399 . S
C1271 C1270 1.399 . S
C1271 C1272 1.376 . S
C1272 H1259 0.930 . S
C1272 C1271 1.376 . S
C1272 C1273 1.388 . S
C1273 H1260 0.930 . S
C1273 C1272 1.388 . S
C1273 C1274 1.390 . S
C1274 C1273 1.390 . S
C1274 C1275 1.394 . S
C1274 C1280 1.465 . S
C1275 C1270 1.399 . S
C1275 C1274 1.394 . S
C1275 C1276 1.516 . S
C1276 C1275 1.516 . S
C1276 C1277 1.502 1_554 S
C1276 C1278 1.561 1_554 S
C1276 C1279 1.526 . S
C1277 H1261 0.959 1_556 S
C1277 H1262 0.959 . S
C1277 H1263 0.961 . S
C1277 C1276 1.502 1_556 S
C1278 H1264 0.960 . S
C1278 H1265 0.961 . S
C1278 H1266 0.959 1_556 S
C1278 C1276 1.561 1_556 S
C1279 C1276 1.526 . S
C1279 C1280 1.396 . S
C1279 C1284 1.390 . S
C1280 C1274 1.465 . S
C1280 C1279 1.396 . S
C1280 C1281 1.399 . S
C1281 H1267 0.929 . S
C1281 C1280 1.399 . S
C1281 C1282 1.385 . S
C1282 H1268 0.931 . S
C1282 C1281 1.385 . S
C1282 C1283 1.389 . S
C1283 C1282 1.389 . S
C1283 C1284 1.387 . S
C1284 H1269 0.930 . S
C1284 C1279 1.390 . S
C1284 C1283 1.387 . S
H1285 C1297 0.930 . S
H1286 C1299 0.930 . S
H1287 C1300 0.930 . S
H1288 C1304 0.959 . S
H1289 C1304 0.959 . S
H1290 C1304 0.961 . S
H1291 C1305 0.960 1_655 S
H1292 C1305 0.961 . S
H1293 C1305 0.959 1_655 S
H1294 C1308 0.929 1_655 S
H1295 C1309 0.931 . S
H1296 C1311 0.930 . S
C1297 H1285 0.930 . S
C1297 C1298 1.399 . S
C1297 C1302 1.399 . S
C1298 C1297 1.399 . S
C1298 C1299 1.376 . S
C1299 H1286 0.930 . S
C1299 C1298 1.376 . S
C1299 C1300 1.388 . S
C1300 H1287 0.930 . S
C1300 C1299 1.388 . S
C1300 C1301 1.390 . S
C1301 C1300 1.390 . S
C1301 C1302 1.394 . S
C1301 C1307 1.465 1_655 S
C1302 C1297 1.399 . S
C1302 C1301 1.394 . S
C1302 C1303 1.516 1_655 S
C1303 C1302 1.516 1_455 S
C1303 C1304 1.502 . S
C1303 C1305 1.561 . S
C1303 C1306 1.526 . S
C1304 H1288 0.959 . S
C1304 H1289 0.959 . S
C1304 H1290 0.961 . S
C1304 C1303 1.502 . S
C1305 H1291 0.960 1_455 S
C1305 H1292 0.961 . S
C1305 H1293 0.959 1_455 S
C1305 C1303 1.561 . S
C1306 C1303 1.526 . S
C1306 C1307 1.396 . S
C1306 C1311 1.390 . S
C1307 C1301 1.465 1_455 S
C1307 C1306 1.396 . S
C1307 C1308 1.399 . S
C1308 H1294 0.929 1_455 S
C1308 C1307 1.399 . S
C1308 C1309 1.385 . S
C1309 H1295 0.931 . S
C1309 C1308 1.385 . S
C1309 C1310 1.389 . S
C1310 C1309 1.389 . S
C1310 C1311 1.387 . S
C1311 H1296 0.930 . S
C1311 C1306 1.390 . S
C1311 C1310 1.387 . S
H1312 C1324 0.930 . S
H1313 C1326 0.930 . S
H1314 C1327 0.916 1_554 S
H1315 C1331 0.959 . S
H1316 C1331 0.959 . S
H1317 C1331 0.961 . S
H1318 C1332 0.960 . S
H1319 C1332 0.961 . S
H1320 C1332 0.959 . S
H1321 C1335 0.929 . S
H1322 C1336 0.931 . S
H1323 C1338 0.930 . S
C1324 H1312 0.930 . S
C1324 C1325 1.399 . S
C1324 C1329 1.399 . S
C1325 C1324 1.399 . S
C1325 C1326 1.376 . S
C1326 H1313 0.930 . S
C1326 C1325 1.376 . S
C1326 C1327 1.408 . S
C1327 H1314 0.916 1_556 S
C1327 C1326 1.408 . S
C1327 C1328 1.387 1_556 S
C1328 C1327 1.387 1_554 S
C1328 C1329 1.387 1_554 S
C1328 C1334 1.472 . S
C1329 C1324 1.399 . S
C1329 C1328 1.387 1_556 S
C1329 C1330 1.516 . S
C1330 C1329 1.516 . S
C1330 C1331 1.502 . S
C1330 C1332 1.561 1_556 S
C1330 C1333 1.526 1_556 S
C1331 H1315 0.959 . S
C1331 H1316 0.959 . S
C1331 H1317 0.961 . S
C1331 C1330 1.502 . S
C1332 H1318 0.960 . S
C1332 H1319 0.961 . S
C1332 H1320 0.959 . S
C1332 C1330 1.561 1_554 S
C1333 C1330 1.526 1_554 S
C1333 C1334 1.396 . S
C1333 C1338 1.390 . S
C1334 C1328 1.472 . S
C1334 C1333 1.396 . S
C1334 C1335 1.399 . S
C1335 H1321 0.929 . S
C1335 C1334 1.399 . S
C1335 C1336 1.385 . S
C1336 H1322 0.931 . S
C1336 C1335 1.385 . S
C1336 C1337 1.389 . S
C1337 C1336 1.389 . S
C1337 C1338 1.387 . S
C1338 H1323 0.930 . S
C1338 C1333 1.390 . S
C1338 C1337 1.387 . S
H1339 C1351 0.930 . S
H1340 C1353 0.930 . S
H1341 C1354 0.930 . S
H1342 C1358 0.959 . S
H1343 C1358 0.959 . S
H1344 C1358 0.970 . S
H1345 C1359 0.960 . S
H1346 C1359 0.961 . S
H1347 C1359 0.959 . S
H1348 C1362 0.929 . S
H1349 C1363 0.931 . S
H1350 C1365 0.930 . S
C1351 H1339 0.930 . S
C1351 C1352 1.399 . S
C1351 C1356 1.399 . S
C1352 C1351 1.399 . S
C1352 C1353 1.376 . S
C1353 H1340 0.930 . S
C1353 C1352 1.376 . S
C1353 C1354 1.388 . S
C1354 H1341 0.930 . S
C1354 C1353 1.388 . S
C1354 C1355 1.390 . S
C1355 C1354 1.390 . S
C1355 C1356 1.394 . S
C1355 C1361 1.465 1_545 S
C1356 C1351 1.399 . S
C1356 C1355 1.394 . S
C1356 C1357 1.516 1_545 S
C1357 C1356 1.516 1_565 S
C1357 C1358 1.502 . S
C1357 C1359 1.561 . S
C1357 C1360 1.526 . S
C1358 H1342 0.959 . S
C1358 H1343 0.959 . S
C1358 H1344 0.970 . S
C1358 C1357 1.502 . S
C1359 H1345 0.960 . S
C1359 H1346 0.961 . S
C1359 H1347 0.959 . S
C1359 C1357 1.561 . S
C1360 C1357 1.526 . S
C1360 C1361 1.396 . S
C1360 C1365 1.390 . S
C1361 C1355 1.465 1_565 S
C1361 C1360 1.396 . S
C1361 C1362 1.399 . S
C1362 H1348 0.929 . S
C1362 C1361 1.399 . S
C1362 C1363 1.385 . S
C1363 H1349 0.931 . S
C1363 C1362 1.385 . S
C1363 C1364 1.389 . S
C1364 C1363 1.389 . S
C1364 C1365 1.387 . S
C1365 H1350 0.930 . S
C1365 C1360 1.390 . S
C1365 C1364 1.387 . S
H1366 C1378 0.930 . S
H1367 C1380 0.930 . S
H1368 C1381 0.930 . S
H1369 C1385 0.959 . S
H1370 C1385 0.959 . S
H1371 C1385 0.961 . S
H1372 C1386 0.960 . S
H1373 C1386 0.961 . S
H1374 C1386 0.959 . S
H1375 C1389 0.929 . S
H1376 C1390 0.931 . S
H1377 C1392 0.930 . S
C1378 H1366 0.930 . S
C1378 C1379 1.399 . S
C1378 C1383 1.399 . S
C1379 C1378 1.399 . S
C1379 C1380 1.376 . S
C1380 H1367 0.930 . S
C1380 C1379 1.376 . S
C1380 C1381 1.388 . S
C1381 H1368 0.930 . S
C1381 C1380 1.388 . S
C1381 C1382 1.390 . S
C1382 C1381 1.390 . S
C1382 C1383 1.394 . S
C1382 C1388 1.465 . S
C1383 C1378 1.399 . S
C1383 C1382 1.394 . S
C1383 C1384 1.516 . S
C1384 C1383 1.516 . S
C1384 C1385 1.502 . S
C1384 C1386 1.561 . S
C1384 C1387 1.526 . S
C1385 H1369 0.959 . S
C1385 H1370 0.959 . S
C1385 H1371 0.961 . S
C1385 C1384 1.502 . S
C1386 H1372 0.960 . S
C1386 H1373 0.961 . S
C1386 H1374 0.959 . S
C1386 C1384 1.561 . S
C1387 C1384 1.526 . S
C1387 C1388 1.396 . S
C1387 C1392 1.390 . S
C1388 C1382 1.465 . S
C1388 C1387 1.396 . S
C1388 C1389 1.399 . S
C1389 H1375 0.929 . S
C1389 C1388 1.399 . S
C1389 C1390 1.385 . S
C1390 H1376 0.931 . S
C1390 C1389 1.385 . S
C1390 C1391 1.389 . S
C1391 C1390 1.389 . S
C1391 C1392 1.387 . S
C1392 H1377 0.930 . S
C1392 C1387 1.390 . S
C1392 C1391 1.387 . S
H1393 C1405 0.930 . S
H1394 C1407 0.930 . S
H1395 C1408 0.930 . S
H1396 C1412 0.959 . S
H1397 C1412 0.959 . S
H1398 C1412 0.961 . S
H1399 C1413 0.960 . S
H1400 C1413 0.961 1_565 S
H1401 C1413 0.959 1_565 S
H1402 C1416 0.929 . S
H1403 C1417 0.931 . S
H1404 C1419 0.930 . S
C1405 H1393 0.930 . S
C1405 C1406 1.399 . S
C1405 C1410 1.399 . S
C1406 C1405 1.399 . S
C1406 C1407 1.376 . S
C1407 H1394 0.930 . S
C1407 C1406 1.376 . S
C1407 C1408 1.388 . S
C1408 H1395 0.930 . S
C1408 C1407 1.388 . S
C1408 C1409 1.390 . S
C1409 C1408 1.390 . S
C1409 C1410 1.394 . S
C1409 C1415 1.465 1_545 S
C1410 C1405 1.399 . S
C1410 C1409 1.394 . S
C1410 C1411 1.516 . S
C1411 C1410 1.516 . S
C1411 C1412 1.502 . S
C1411 C1413 1.561 . S
C1411 C1414 1.526 1_545 S
C1412 H1396 0.959 . S
C1412 H1397 0.959 . S
C1412 H1398 0.961 . S
C1412 C1411 1.502 . S
C1413 H1399 0.960 . S
C1413 H1400 0.961 1_545 S
C1413 H1401 0.959 1_545 S
C1413 C1411 1.561 . S
C1414 C1411 1.526 1_565 S
C1414 C1415 1.396 . S
C1414 C1419 1.390 . S
C1415 C1409 1.465 1_565 S
C1415 C1414 1.396 . S
C1415 C1416 1.399 . S
C1416 H1402 0.929 . S
C1416 C1415 1.399 . S
C1416 C1417 1.385 . S
C1417 H1403 0.931 . S
C1417 C1416 1.385 . S
C1417 C1418 1.389 . S
C1418 C1417 1.389 . S
C1418 C1419 1.387 . S
C1419 H1404 0.930 . S
C1419 C1414 1.390 . S
C1419 C1418 1.387 . S
H1420 C1432 0.930 . S
H1421 C1434 0.930 . S
H1422 C1435 0.930 1_556 S
H1423 C1439 0.971 . S
H1424 C1439 0.958 1_554 S
H1425 C1439 0.956 1_554 S
H1426 C1440 0.960 . S
H1427 C1440 0.961 . S
H1428 C1440 0.959 . S
H1429 C1443 0.929 . S
H1430 C1444 0.931 . S
H1431 C1446 0.930 . S
C1432 H1420 0.930 . S
C1432 C1433 1.399 . S
C1432 C1437 1.399 . S
C1433 C1432 1.399 . S
C1433 C1434 1.376 . S
C1434 H1421 0.930 . S
C1434 C1433 1.376 . S
C1434 C1435 1.388 . S
C1435 H1422 0.930 1_554 S
C1435 C1434 1.388 . S
C1435 C1436 1.390 . S
C1436 C1435 1.390 . S
C1436 C1437 1.394 . S
C1436 C1442 1.465 1_554 S
C1437 C1432 1.399 . S
C1437 C1436 1.394 . S
C1437 C1438 1.516 . S
C1438 C1437 1.516 . S
C1438 C1439 1.497 1_554 S
C1438 C1440 1.561 . S
C1438 C1441 1.498 1_554 S
C1439 H1423 0.971 . S
C1439 H1424 0.958 1_556 S
C1439 H1425 0.956 1_556 S
C1439 C1438 1.497 1_556 S
C1440 H1426 0.960 . S
C1440 H1427 0.961 . S
C1440 H1428 0.959 . S
C1440 C1438 1.561 . S
C1441 C1438 1.498 1_556 S
C1441 C1442 1.408 . S
C1441 C1446 1.407 . S
C1442 C1436 1.465 1_556 S
C1442 C1441 1.408 . S
C1442 C1443 1.399 . S
C1443 H1429 0.929 . S
C1443 C1442 1.399 . S
C1443 C1444 1.385 . S
C1444 H1430 0.931 . S
C1444 C1443 1.385 . S
C1444 C1445 1.389 . S
C1445 C1444 1.389 . S
C1445 C1446 1.387 . S
C1446 H1431 0.930 . S
C1446 C1441 1.407 . S
C1446 C1445 1.387 . S
H1447 C1459 0.930 . S
H1448 C1461 0.930 . S
H1449 C1462 0.930 . S
H1450 C1466 0.959 . S
H1451 C1466 0.959 . S
H1452 C1466 0.961 . S
H1453 C1467 0.960 . S
H1454 C1467 0.961 . S
H1455 C1467 0.959 . S
H1456 C1470 0.929 . S
H1457 C1471 0.931 . S
H1458 C1473 0.930 . S
C1459 H1447 0.930 . S
C1459 C1460 1.399 . S
C1459 C1464 1.399 . S
C1460 C1459 1.399 . S
C1460 C1461 1.376 . S
C1461 H1448 0.930 . S
C1461 C1460 1.376 . S
C1461 C1462 1.388 . S
C1462 H1449 0.930 . S
C1462 C1461 1.388 . S
C1462 C1463 1.390 . S
C1463 C1462 1.390 . S
C1463 C1464 1.394 . S
C1463 C1469 1.465 1_565 S
C1464 C1459 1.399 . S
C1464 C1463 1.394 . S
C1464 C1465 1.516 . S
C1465 C1464 1.516 . S
C1465 C1466 1.502 . S
C1465 C1467 1.561 . S
C1465 C1468 1.526 1_565 S
C1466 H1450 0.959 . S
C1466 H1451 0.959 . S
C1466 H1452 0.961 . S
C1466 C1465 1.502 . S
C1467 H1453 0.960 . S
C1467 H1454 0.961 . S
C1467 H1455 0.959 . S
C1467 C1465 1.561 . S
C1468 C1465 1.526 1_545 S
C1468 C1469 1.396 . S
C1468 C1473 1.390 . S
C1469 C1463 1.465 1_545 S
C1469 C1468 1.396 . S
C1469 C1470 1.399 . S
C1470 H1456 0.929 . S
C1470 C1469 1.399 . S
C1470 C1471 1.385 . S
C1471 H1457 0.931 . S
C1471 C1470 1.385 . S
C1471 C1472 1.389 . S
C1472 C1471 1.389 . S
C1472 C1473 1.387 . S
C1473 H1458 0.930 . S
C1473 C1468 1.390 . S
C1473 C1472 1.387 . S
H1474 C1486 0.930 . S
H1475 C1488 0.930 . S
H1476 C1489 0.930 . S
H1477 C1493 0.959 . S
H1478 C1493 0.959 . S
H1479 C1493 0.961 . S
H1480 C1494 0.960 . S
H1481 C1494 0.961 . S
H1482 C1494 0.959 . S
H1483 C1497 0.929 . S
H1484 C1498 0.931 . S
H1485 C1500 0.930 . S
C1486 H1474 0.930 . S
C1486 C1487 1.399 . S
C1486 C1491 1.399 . S
C1487 C1486 1.399 . S
C1487 C1488 1.376 . S
C1488 H1475 0.930 . S
C1488 C1487 1.376 . S
C1488 C1489 1.388 . S
C1489 H1476 0.930 . S
C1489 C1488 1.388 . S
C1489 C1490 1.390 . S
C1490 C1489 1.390 . S
C1490 C1491 1.394 . S
C1490 C1496 1.465 . S
C1491 C1486 1.399 . S
C1491 C1490 1.394 . S
C1491 C1492 1.516 . S
C1492 C1491 1.516 . S
C1492 C1493 1.502 . S
C1492 C1494 1.561 . S
C1492 C1495 1.526 . S
C1493 H1477 0.959 . S
C1493 H1478 0.959 . S
C1493 H1479 0.961 . S
C1493 C1492 1.502 . S
C1494 H1480 0.960 . S
C1494 H1481 0.961 . S
C1494 H1482 0.959 . S
C1494 C1492 1.561 . S
C1495 C1492 1.526 . S
C1495 C1496 1.396 . S
C1495 C1500 1.390 . S
C1496 C1490 1.465 . S
C1496 C1495 1.396 . S
C1496 C1497 1.399 . S
C1497 H1483 0.929 . S
C1497 C1496 1.399 . S
C1497 C1498 1.385 . S
C1498 H1484 0.931 . S
C1498 C1497 1.385 . S
C1498 C1499 1.389 . S
C1499 C1498 1.389 . S
C1499 C1500 1.387 . S
C1500 H1485 0.930 . S
C1500 C1495 1.390 . S
C1500 C1499 1.387 . S
H1501 C1513 0.930 . S
H1502 C1515 0.930 . S
H1503 C1516 0.930 . S
H1504 C1520 0.959 . S
H1505 C1520 0.959 . S
H1506 C1520 0.961 . S
H1507 C1521 0.960 . S
H1508 C1521 0.961 . S
H1509 C1521 0.959 . S
H1510 C1524 0.929 . S
H1511 C1525 0.931 . S
H1512 C1527 0.930 . S
C1513 H1501 0.930 . S
C1513 C1514 1.399 . S
C1513 C1518 1.399 . S
C1514 C1513 1.399 . S
C1514 C1515 1.376 . S
C1515 H1502 0.930 . S
C1515 C1514 1.376 . S
C1515 C1516 1.388 . S
C1516 H1503 0.930 . S
C1516 C1515 1.388 . S
C1516 C1517 1.390 . S
C1517 C1516 1.390 . S
C1517 C1518 1.394 . S
C1517 C1523 1.465 1_545 S
C1518 C1513 1.399 . S
C1518 C1517 1.394 . S
C1518 C1519 1.516 1_545 S
C1519 C1518 1.516 1_565 S
C1519 C1520 1.502 . S
C1519 C1521 1.561 . S
C1519 C1522 1.526 . S
C1520 H1504 0.959 . S
C1520 H1505 0.959 . S
C1520 H1506 0.961 . S
C1520 C1519 1.502 . S
C1521 H1507 0.960 . S
C1521 H1508 0.961 . S
C1521 H1509 0.959 . S
C1521 C1519 1.561 . S
C1522 C1519 1.526 . S
C1522 C1523 1.396 . S
C1522 C1527 1.390 . S
C1523 C1517 1.465 1_565 S
C1523 C1522 1.396 . S
C1523 C1524 1.399 . S
C1524 H1510 0.929 . S
C1524 C1523 1.399 . S
C1524 C1525 1.385 . S
C1525 H1511 0.931 . S
C1525 C1524 1.385 . S
C1525 C1526 1.389 . S
C1526 C1525 1.389 . S
C1526 C1527 1.387 . S
C1527 H1512 0.930 . S
C1527 C1522 1.390 . S
C1527 C1526 1.387 . S
H1528 C1540 0.930 . S
H1529 C1542 0.930 . S
H1530 C1543 0.930 . S
H1531 C1547 0.959 . S
H1532 C1547 0.959 . S
H1533 C1547 0.961 . S
H1534 C1548 0.960 . S
H1535 C1548 0.961 . S
H1536 C1548 0.959 . S
H1537 C1551 0.929 . S
H1538 C1552 0.931 . S
H1539 C1554 0.930 . S
C1540 H1528 0.930 . S
C1540 C1541 1.399 . S
C1540 C1545 1.399 . S
C1541 C1540 1.399 . S
C1541 C1542 1.376 . S
C1542 H1529 0.930 . S
C1542 C1541 1.376 . S
C1542 C1543 1.388 . S
C1543 H1530 0.930 . S
C1543 C1542 1.388 . S
C1543 C1544 1.390 . S
C1544 C1543 1.390 . S
C1544 C1545 1.394 . S
C1544 C1550 1.465 . S
C1545 C1540 1.399 . S
C1545 C1544 1.394 . S
C1545 C1546 1.516 . S
C1546 C1545 1.516 . S
C1546 C1547 1.502 . S
C1546 C1548 1.561 . S
C1546 C1549 1.526 . S
C1547 H1531 0.959 . S
C1547 H1532 0.959 . S
C1547 H1533 0.961 . S
C1547 C1546 1.502 . S
C1548 H1534 0.960 . S
C1548 H1535 0.961 . S
C1548 H1536 0.959 . S
C1548 C1546 1.561 . S
C1549 C1546 1.526 . S
C1549 C1550 1.396 . S
C1549 C1554 1.390 . S
C1550 C1544 1.465 . S
C1550 C1549 1.396 . S
C1550 C1551 1.399 . S
C1551 H1537 0.929 . S
C1551 C1550 1.399 . S
C1551 C1552 1.385 . S
C1552 H1538 0.931 . S
C1552 C1551 1.385 . S
C1552 C1553 1.389 . S
C1553 C1552 1.389 . S
C1553 C1554 1.387 . S
C1554 H1539 0.930 . S
C1554 C1549 1.390 . S
C1554 C1553 1.387 . S
H1555 C1567 0.930 . S
H1556 C1569 0.930 . S
H1557 C1570 0.930 . S
H1558 C1574 0.959 . S
H1559 C1574 0.959 . S
H1560 C1574 0.961 . S
H1561 C1575 0.960 . S
H1562 C1575 0.961 . S
H1563 C1575 0.959 . S
H1564 C1578 0.929 . S
H1565 C1579 0.931 . S
H1566 C1581 0.930 . S
C1567 H1555 0.930 . S
C1567 C1568 1.399 . S
C1567 C1572 1.399 . S
C1568 C1567 1.399 . S
C1568 C1569 1.376 . S
C1569 H1556 0.930 . S
C1569 C1568 1.376 . S
C1569 C1570 1.388 . S
C1570 H1557 0.930 . S
C1570 C1569 1.388 . S
C1570 C1571 1.390 . S
C1571 C1570 1.390 . S
C1571 C1572 1.394 . S
C1571 C1577 1.465 . S
C1572 C1567 1.399 . S
C1572 C1571 1.394 . S
C1572 C1573 1.516 . S
C1573 C1572 1.516 . S
C1573 C1574 1.502 . S
C1573 C1575 1.561 . S
C1573 C1576 1.526 . S
C1574 H1558 0.959 . S
C1574 H1559 0.959 . S
C1574 H1560 0.961 . S
C1574 C1573 1.502 . S
C1575 H1561 0.960 . S
C1575 H1562 0.961 . S
C1575 H1563 0.959 . S
C1575 C1573 1.561 . S
C1576 C1573 1.526 . S
C1576 C1577 1.396 . S
C1576 C1581 1.390 . S
C1577 C1571 1.465 . S
C1577 C1576 1.396 . S
C1577 C1578 1.399 . S
C1578 H1564 0.929 . S
C1578 C1577 1.399 . S
C1578 C1579 1.385 . S
C1579 H1565 0.931 . S
C1579 C1578 1.385 . S
C1579 C1580 1.389 . S
C1580 C1579 1.389 . S
C1580 C1581 1.387 . S
C1581 H1566 0.930 . S
C1581 C1576 1.390 . S
C1581 C1580 1.387 . S
H1582 C1594 0.930 . S
H1583 C1596 0.930 . S
H1584 C1597 0.930 . S
H1585 C1601 0.959 . S
H1586 C1601 0.959 . S
H1587 C1601 0.961 . S
H1588 C1602 0.960 . S
H1589 C1602 0.961 . S
H1590 C1602 0.959 . S
H1591 C1605 0.941 . S
H1592 C1606 0.931 . S
H1593 C1608 0.930 . S
C1594 H1582 0.930 . S
C1594 C1595 1.399 . S
C1594 C1599 1.399 . S
C1595 C1594 1.399 . S
C1595 C1596 1.376 . S
C1596 H1583 0.930 . S
C1596 C1595 1.376 . S
C1596 C1597 1.388 . S
C1597 H1584 0.930 . S
C1597 C1596 1.388 . S
C1597 C1598 1.390 . S
C1598 C1597 1.390 . S
C1598 C1599 1.394 . S
C1598 C1604 1.453 1_554 S
C1599 C1594 1.399 . S
C1599 C1598 1.394 . S
C1599 C1600 1.525 . S
C1600 C1599 1.525 . S
C1600 C1601 1.477 1_554 S
C1600 C1602 1.589 . S
C1600 C1603 1.518 1_554 S
C1601 H1585 0.959 . S
C1601 H1586 0.959 . S
C1601 H1587 0.961 . S
C1601 C1600 1.477 1_556 S
C1602 H1588 0.960 . S
C1602 H1589 0.961 . S
C1602 H1590 0.959 . S
C1602 C1600 1.589 . S
C1603 C1600 1.518 1_556 S
C1603 C1604 1.404 . S
C1603 C1608 1.390 . S
C1604 C1598 1.453 1_556 S
C1604 C1603 1.404 . S
C1604 C1605 1.405 . S
C1605 H1591 0.941 . S
C1605 C1604 1.405 . S
C1605 C1606 1.385 . S
C1606 H1592 0.931 . S
C1606 C1605 1.385 . S
C1606 C1607 1.389 . S
C1607 C1606 1.389 . S
C1607 C1608 1.387 . S
C1608 H1593 0.930 . S
C1608 C1603 1.390 . S
C1608 C1607 1.387 . S
H1609 C1621 0.930 . S
H1610 C1623 0.930 . S
H1611 C1624 0.930 . S
H1612 C1628 0.959 . S
H1613 C1628 0.959 . S
H1614 C1628 0.961 . S
H1615 C1629 0.960 . S
H1616 C1629 0.961 . S
H1617 C1629 0.959 . S
H1618 C1632 0.929 . S
H1619 C1633 0.931 . S
H1620 C1635 0.930 . S
C1621 H1609 0.930 . S
C1621 C1622 1.399 . S
C1621 C1626 1.399 . S
C1622 C1621 1.399 . S
C1622 C1623 1.376 . S
C1623 H1610 0.930 . S
C1623 C1622 1.376 . S
C1623 C1624 1.388 . S
C1624 H1611 0.930 . S
C1624 C1623 1.388 . S
C1624 C1625 1.390 . S
C1625 C1624 1.390 . S
C1625 C1626 1.394 . S
C1625 C1631 1.465 . S
C1626 C1621 1.399 . S
C1626 C1625 1.394 . S
C1626 C1627 1.516 . S
C1627 C1626 1.516 . S
C1627 C1628 1.502 . S
C1627 C1629 1.561 . S
C1627 C1630 1.526 . S
C1628 H1612 0.959 . S
C1628 H1613 0.959 . S
C1628 H1614 0.961 . S
C1628 C1627 1.502 . S
C1629 H1615 0.960 . S
C1629 H1616 0.961 . S
C1629 H1617 0.959 . S
C1629 C1627 1.561 . S
C1630 C1627 1.526 . S
C1630 C1631 1.396 . S
C1630 C1635 1.390 . S
C1631 C1625 1.465 . S
C1631 C1630 1.396 . S
C1631 C1632 1.399 . S
C1632 H1618 0.929 . S
C1632 C1631 1.399 . S
C1632 C1633 1.385 . S
C1633 H1619 0.931 . S
C1633 C1632 1.385 . S
C1633 C1634 1.389 . S
C1634 C1633 1.389 . S
C1634 C1635 1.387 . S
C1635 H1620 0.930 . S
C1635 C1630 1.390 . S
C1635 C1634 1.387 . S
H1636 C1648 0.930 . S
H1637 C1650 0.930 . S
H1638 C1651 0.930 . S
H1639 C1655 0.959 . S
H1640 C1655 0.959 . S
H1641 C1655 0.961 . S
H1642 C1656 0.960 . S
H1643 C1656 0.961 . S
H1644 C1656 0.959 . S
H1645 C1659 0.929 . S
H1646 C1660 0.931 . S
H1647 C1662 0.930 . S
C1648 H1636 0.930 . S
C1648 C1649 1.399 . S
C1648 C1653 1.399 . S
C1649 C1648 1.399 . S
C1649 C1650 1.376 . S
C1650 H1637 0.930 . S
C1650 C1649 1.376 . S
C1650 C1651 1.388 . S
C1651 H1638 0.930 . S
C1651 C1650 1.388 . S
C1651 C1652 1.390 . S
C1652 C1651 1.390 . S
C1652 C1653 1.394 . S
C1652 C1658 1.465 . S
C1653 C1648 1.399 . S
C1653 C1652 1.394 . S
C1653 C1654 1.516 . S
C1654 C1653 1.516 . S
C1654 C1655 1.502 . S
C1654 C1656 1.561 . S
C1654 C1657 1.526 . S
C1655 H1639 0.959 . S
C1655 H1640 0.959 . S
C1655 H1641 0.961 . S
C1655 C1654 1.502 . S
C1656 H1642 0.960 . S
C1656 H1643 0.961 . S
C1656 H1644 0.959 . S
C1656 C1654 1.561 . S
C1657 C1654 1.526 . S
C1657 C1658 1.396 . S
C1657 C1662 1.390 . S
C1658 C1652 1.465 . S
C1658 C1657 1.396 . S
C1658 C1659 1.399 . S
C1659 H1645 0.929 . S
C1659 C1658 1.399 . S
C1659 C1660 1.385 . S
C1660 H1646 0.931 . S
C1660 C1659 1.385 . S
C1660 C1661 1.389 . S
C1661 C1660 1.389 . S
C1661 C1662 1.387 . S
C1662 H1647 0.930 . S
C1662 C1657 1.390 . S
C1662 C1661 1.387 . S
H1663 C1675 0.930 . S
H1664 C1677 0.930 . S
H1665 C1678 0.930 . S
H1666 C1682 0.959 . S
H1667 C1682 0.959 . S
H1668 C1682 0.961 . S
H1669 C1683 0.960 . S
H1670 C1683 0.961 . S
H1671 C1683 0.959 . S
H1672 C1686 0.929 . S
H1673 C1687 0.931 . S
H1674 C1689 0.930 . S
C1675 H1663 0.930 . S
C1675 C1676 1.399 . S
C1675 C1680 1.399 . S
C1676 C1675 1.399 . S
C1676 C1677 1.376 . S
C1677 H1664 0.930 . S
C1677 C1676 1.376 . S
C1677 C1678 1.388 . S
C1678 H1665 0.930 . S
C1678 C1677 1.388 . S
C1678 C1679 1.390 . S
C1679 C1678 1.390 . S
C1679 C1680 1.394 . S
C1679 C1685 1.465 . S
C1680 C1675 1.399 . S
C1680 C1679 1.394 . S
C1680 C1681 1.516 . S
C1681 C1680 1.516 . S
C1681 C1682 1.502 . S
C1681 C1683 1.561 . S
C1681 C1684 1.526 . S
C1682 H1666 0.959 . S
C1682 H1667 0.959 . S
C1682 H1668 0.961 . S
C1682 C1681 1.502 . S
C1683 H1669 0.960 . S
C1683 H1670 0.961 . S
C1683 H1671 0.959 . S
C1683 C1681 1.561 . S
C1684 C1681 1.526 . S
C1684 C1685 1.396 . S
C1684 C1689 1.390 . S
C1685 C1679 1.465 . S
C1685 C1684 1.396 . S
C1685 C1686 1.399 . S
C1686 H1672 0.929 . S
C1686 C1685 1.399 . S
C1686 C1687 1.385 . S
C1687 H1673 0.931 . S
C1687 C1686 1.385 . S
C1687 C1688 1.389 . S
C1688 C1687 1.389 . S
C1688 C1689 1.387 . S
C1689 H1674 0.930 . S
C1689 C1684 1.390 . S
C1689 C1688 1.387 . S
H1690 C1702 0.930 . S
H1691 C1704 0.930 . S
H1692 C1705 0.930 . S
H1693 C1709 0.959 . S
H1694 C1709 0.959 . S
H1695 C1709 0.961 . S
H1696 C1710 0.960 . S
H1697 C1710 0.961 . S
H1698 C1710 0.959 . S
H1699 C1713 0.929 . S
H1700 C1714 0.931 . S
H1701 C1716 0.930 . S
C1702 H1690 0.930 . S
C1702 C1703 1.399 . S
C1702 C1707 1.399 . S
C1703 C1702 1.399 . S
C1703 C1704 1.376 . S
C1704 H1691 0.930 . S
C1704 C1703 1.376 . S
C1704 C1705 1.388 . S
C1705 H1692 0.930 . S
C1705 C1704 1.388 . S
C1705 C1706 1.390 . S
C1706 C1705 1.390 . S
C1706 C1707 1.394 . S
C1706 C1712 1.465 . S
C1707 C1702 1.399 . S
C1707 C1706 1.394 . S
C1707 C1708 1.516 1_556 S
C1708 C1707 1.516 1_554 S
C1708 C1709 1.502 . S
C1708 C1710 1.561 1_554 S
C1708 C1711 1.526 . S
C1709 H1693 0.959 . S
C1709 H1694 0.959 . S
C1709 H1695 0.961 . S
C1709 C1708 1.502 . S
C1710 H1696 0.960 . S
C1710 H1697 0.961 . S
C1710 H1698 0.959 . S
C1710 C1708 1.561 1_556 S
C1711 C1708 1.526 . S
C1711 C1712 1.396 1_554 S
C1711 C1716 1.390 . S
C1712 C1706 1.465 . S
C1712 C1711 1.396 1_556 S
C1712 C1713 1.399 . S
C1713 H1699 0.929 . S
C1713 C1712 1.399 . S
C1713 C1714 1.385 1_556 S
C1714 H1700 0.931 . S
C1714 C1713 1.385 1_554 S
C1714 C1715 1.389 . S
C1715 C1714 1.389 . S
C1715 C1716 1.387 . S
C1716 H1701 0.930 . S
C1716 C1711 1.390 . S
C1716 C1715 1.387 . S
H1717 C1729 0.930 . S
H1718 C1731 0.930 . S
H1719 C1732 0.930 . S
H1720 C1736 0.959 . S
H1721 C1736 0.959 . S
H1722 C1736 0.961 . S
H1723 C1737 0.960 . S
H1724 C1737 0.961 . S
H1725 C1737 0.959 . S
H1726 C1740 0.929 . S
H1727 C1741 0.931 . S
H1728 C1743 0.930 . S
C1729 H1717 0.930 . S
C1729 C1730 1.399 . S
C1729 C1734 1.399 . S
C1730 C1729 1.399 . S
C1730 C1731 1.376 . S
C1731 H1718 0.930 . S
C1731 C1730 1.376 . S
C1731 C1732 1.388 . S
C1732 H1719 0.930 . S
C1732 C1731 1.388 . S
C1732 C1733 1.390 . S
C1733 C1732 1.390 . S
C1733 C1734 1.394 . S
C1733 C1739 1.465 . S
C1734 C1729 1.399 . S
C1734 C1733 1.394 . S
C1734 C1735 1.516 . S
C1735 C1734 1.516 . S
C1735 C1736 1.502 . S
C1735 C1737 1.561 . S
C1735 C1738 1.526 . S
C1736 H1720 0.959 . S
C1736 H1721 0.959 . S
C1736 H1722 0.961 . S
C1736 C1735 1.502 . S
C1737 H1723 0.960 . S
C1737 H1724 0.961 . S
C1737 H1725 0.959 . S
C1737 C1735 1.561 . S
C1738 C1735 1.526 . S
C1738 C1739 1.396 . S
C1738 C1743 1.390 . S
C1739 C1733 1.465 . S
C1739 C1738 1.396 . S
C1739 C1740 1.399 . S
C1740 H1726 0.929 . S
C1740 C1739 1.399 . S
C1740 C1741 1.385 . S
C1741 H1727 0.931 . S
C1741 C1740 1.385 . S
C1741 C1742 1.389 . S
C1742 C1741 1.389 . S
C1742 C1743 1.387 . S
C1743 H1728 0.930 . S
C1743 C1738 1.390 . S
C1743 C1742 1.387 . S
H1744 C1756 0.930 . S
H1745 C1758 0.930 . S
H1746 C1759 0.930 . S
H1747 C1763 0.959 . S
H1748 C1763 0.959 . S
H1749 C1763 0.961 . S
H1750 C1764 0.960 . S
H1751 C1764 0.961 . S
H1752 C1764 0.959 . S
H1753 C1767 0.929 . S
H1754 C1768 0.931 . S
H1755 C1770 0.930 . S
C1756 H1744 0.930 . S
C1756 C1757 1.399 . S
C1756 C1761 1.399 . S
C1757 C1756 1.399 . S
C1757 C1758 1.376 . S
C1758 H1745 0.930 . S
C1758 C1757 1.376 . S
C1758 C1759 1.388 . S
C1759 H1746 0.930 . S
C1759 C1758 1.388 . S
C1759 C1760 1.390 . S
C1760 C1759 1.390 . S
C1760 C1761 1.394 . S
C1760 C1766 1.465 . S
C1761 C1756 1.399 . S
C1761 C1760 1.394 . S
C1761 C1762 1.516 . S
C1762 C1761 1.516 . S
C1762 C1763 1.502 . S
C1762 C1764 1.561 . S
C1762 C1765 1.526 . S
C1763 H1747 0.959 . S
C1763 H1748 0.959 . S
C1763 H1749 0.961 . S
C1763 C1762 1.502 . S
C1764 H1750 0.960 . S
C1764 H1751 0.961 . S
C1764 H1752 0.959 . S
C1764 C1762 1.561 . S
C1765 C1762 1.526 . S
C1765 C1766 1.396 . S
C1765 C1770 1.390 . S
C1766 C1760 1.465 . S
C1766 C1765 1.396 . S
C1766 C1767 1.399 . S
C1767 H1753 0.929 . S
C1767 C1766 1.399 . S
C1767 C1768 1.385 . S
C1768 H1754 0.931 . S
C1768 C1767 1.385 . S
C1768 C1769 1.389 . S
C1769 C1768 1.389 . S
C1769 C1770 1.387 . S
C1770 H1755 0.930 . S
C1770 C1765 1.390 . S
C1770 C1769 1.387 . S
H1771 C1783 0.930 . S
H1772 C1785 0.930 . S
H1773 C1786 0.930 . S
H1774 C1790 0.959 . S
H1775 C1790 0.959 . S
H1776 C1790 0.961 . S
H1777 C1791 0.960 . S
H1778 C1791 0.961 . S
H1779 C1791 0.959 . S
H1780 C1794 0.929 . S
H1781 C1795 0.931 . S
H1782 C1797 0.930 . S
C1783 H1771 0.930 . S
C1783 C1784 1.399 . S
C1783 C1788 1.399 . S
C1784 C1783 1.399 . S
C1784 C1785 1.376 . S
C1785 H1772 0.930 . S
C1785 C1784 1.376 . S
C1785 C1786 1.388 . S
C1786 H1773 0.930 . S
C1786 C1785 1.388 . S
C1786 C1787 1.390 . S
C1787 C1786 1.390 . S
C1787 C1788 1.394 . S
C1787 C1793 1.465 . S
C1788 C1783 1.399 . S
C1788 C1787 1.394 . S
C1788 C1789 1.516 . S
C1789 C1788 1.516 . S
C1789 C1790 1.502 . S
C1789 C1791 1.561 . S
C1789 C1792 1.526 . S
C1790 H1774 0.959 . S
C1790 H1775 0.959 . S
C1790 H1776 0.961 . S
C1790 C1789 1.502 . S
C1791 H1777 0.960 . S
C1791 H1778 0.961 . S
C1791 H1779 0.959 . S
C1791 C1789 1.561 . S
C1792 C1789 1.526 . S
C1792 C1793 1.396 . S
C1792 C1797 1.390 . S
C1793 C1787 1.465 . S
C1793 C1792 1.396 . S
C1793 C1794 1.399 . S
C1794 H1780 0.929 . S
C1794 C1793 1.399 . S
C1794 C1795 1.385 . S
C1795 H1781 0.931 . S
C1795 C1794 1.385 . S
C1795 C1796 1.389 . S
C1796 C1795 1.389 . S
C1796 C1797 1.387 . S
C1797 H1782 0.930 . S
C1797 C1792 1.390 . S
C1797 C1796 1.387 . S
H1798 C1810 0.930 . S
H1799 C1812 0.930 . S
H1800 C1813 0.930 . S
H1801 C1817 0.959 . S
H1802 C1817 0.959 . S
H1803 C1817 0.961 . S
H1804 C1818 0.960 . S
H1805 C1818 0.961 . S
H1806 C1818 0.959 . S
H1807 C1821 0.929 . S
H1808 C1822 0.931 . S
H1809 C1824 0.930 . S
C1810 H1798 0.930 . S
C1810 C1811 1.399 . S
C1810 C1815 1.399 . S
C1811 C1810 1.399 . S
C1811 C1812 1.376 . S
C1812 H1799 0.930 . S
C1812 C1811 1.376 . S
C1812 C1813 1.388 . S
C1813 H1800 0.930 . S
C1813 C1812 1.388 . S
C1813 C1814 1.390 . S
C1814 C1813 1.390 . S
C1814 C1815 1.394 . S
C1814 C1820 1.465 . S
C1815 C1810 1.399 . S
C1815 C1814 1.394 . S
C1815 C1816 1.516 . S
C1816 C1815 1.516 . S
C1816 C1817 1.502 . S
C1816 C1818 1.561 . S
C1816 C1819 1.526 . S
C1817 H1801 0.959 . S
C1817 H1802 0.959 . S
C1817 H1803 0.961 . S
C1817 C1816 1.502 . S
C1818 H1804 0.960 . S
C1818 H1805 0.961 . S
C1818 H1806 0.959 . S
C1818 C1816 1.561 . S
C1819 C1816 1.526 . S
C1819 C1820 1.396 . S
C1819 C1824 1.390 . S
C1820 C1814 1.465 . S
C1820 C1819 1.396 . S
C1820 C1821 1.399 . S
C1821 H1807 0.929 . S
C1821 C1820 1.399 . S
C1821 C1822 1.385 . S
C1822 H1808 0.931 . S
C1822 C1821 1.385 . S
C1822 C1823 1.389 . S
C1823 C1822 1.389 . S
C1823 C1824 1.387 . S
C1824 H1809 0.930 . S
C1824 C1819 1.390 . S
C1824 C1823 1.387 . S
H1825 C1837 0.930 . S
H1826 C1839 0.930 . S
H1827 C1840 0.930 . S
H1828 C1844 0.959 . S
H1829 C1844 0.959 . S
H1830 C1844 0.961 . S
H1831 C1845 0.960 . S
H1832 C1845 0.961 . S
H1833 C1845 0.959 . S
H1834 C1848 0.929 . S
H1835 C1849 0.931 . S
H1836 C1851 0.930 . S
C1837 H1825 0.930 . S
C1837 C1838 1.399 . S
C1837 C1842 1.399 . S
C1838 C1837 1.399 . S
C1838 C1839 1.376 . S
C1839 H1826 0.930 . S
C1839 C1838 1.376 . S
C1839 C1840 1.388 . S
C1840 H1827 0.930 . S
C1840 C1839 1.388 . S
C1840 C1841 1.390 . S
C1841 C1840 1.390 . S
C1841 C1842 1.394 . S
C1841 C1847 1.465 . S
C1842 C1837 1.399 . S
C1842 C1841 1.394 . S
C1842 C1843 1.516 . S
C1843 C1842 1.516 . S
C1843 C1844 1.502 . S
C1843 C1845 1.561 . S
C1843 C1846 1.526 . S
C1844 H1828 0.959 . S
C1844 H1829 0.959 . S
C1844 H1830 0.961 . S
C1844 C1843 1.502 . S
C1845 H1831 0.960 . S
C1845 H1832 0.961 . S
C1845 H1833 0.959 . S
C1845 C1843 1.561 . S
C1846 C1843 1.526 . S
C1846 C1847 1.396 . S
C1846 C1851 1.390 . S
C1847 C1841 1.465 . S
C1847 C1846 1.396 . S
C1847 C1848 1.399 . S
C1848 H1834 0.929 . S
C1848 C1847 1.399 . S
C1848 C1849 1.385 . S
C1849 H1835 0.931 . S
C1849 C1848 1.385 . S
C1849 C1850 1.389 . S
C1850 C1849 1.389 . S
C1850 C1851 1.387 . S
C1851 H1836 0.930 . S
C1851 C1846 1.390 . S
C1851 C1850 1.387 . S
H1852 C1864 0.930 . S
H1853 C1866 0.930 . S
H1854 C1867 0.930 . S
H1855 C1871 0.959 . S
H1856 C1871 0.959 . S
H1857 C1871 0.961 . S
H1858 C1872 0.960 . S
H1859 C1872 0.961 . S
H1860 C1872 0.959 . S
H1861 C1875 0.929 . S
H1862 C1876 0.931 . S
H1863 C1878 0.930 . S
C1864 H1852 0.930 . S
C1864 C1865 1.399 . S
C1864 C1869 1.399 . S
C1865 C1864 1.399 . S
C1865 C1866 1.376 . S
C1866 H1853 0.930 . S
C1866 C1865 1.376 . S
C1866 C1867 1.388 . S
C1867 H1854 0.930 . S
C1867 C1866 1.388 . S
C1867 C1868 1.390 . S
C1868 C1867 1.390 . S
C1868 C1869 1.394 . S
C1868 C1874 1.465 . S
C1869 C1864 1.399 . S
C1869 C1868 1.394 . S
C1869 C1870 1.516 . S
C1870 C1869 1.516 . S
C1870 C1871 1.502 . S
C1870 C1872 1.561 . S
C1870 C1873 1.526 . S
C1871 H1855 0.959 . S
C1871 H1856 0.959 . S
C1871 H1857 0.961 . S
C1871 C1870 1.502 . S
C1872 H1858 0.960 . S
C1872 H1859 0.961 . S
C1872 H1860 0.959 . S
C1872 C1870 1.561 . S
C1873 C1870 1.526 . S
C1873 C1874 1.396 . S
C1873 C1878 1.390 . S
C1874 C1868 1.465 . S
C1874 C1873 1.396 . S
C1874 C1875 1.399 . S
C1875 H1861 0.929 . S
C1875 C1874 1.399 . S
C1875 C1876 1.385 . S
C1876 H1862 0.931 . S
C1876 C1875 1.385 . S
C1876 C1877 1.389 . S
C1877 C1876 1.389 . S
C1877 C1878 1.387 . S
C1878 H1863 0.930 . S
C1878 C1873 1.390 . S
C1878 C1877 1.387 . S
H1879 C1891 0.930 . S
H1880 C1893 0.930 . S
H1881 C1894 0.930 . S
H1882 C1898 0.959 . S
H1883 C1898 0.959 . S
H1884 C1898 0.961 . S
H1885 C1899 0.960 . S
H1886 C1899 0.961 . S
H1887 C1899 0.959 . S
H1888 C1902 0.929 . S
H1889 C1903 0.931 . S
H1890 C1905 0.930 . S
C1891 H1879 0.930 . S
C1891 C1892 1.399 . S
C1891 C1896 1.399 . S
C1892 C1891 1.399 . S
C1892 C1893 1.376 . S
C1893 H1880 0.930 . S
C1893 C1892 1.376 . S
C1893 C1894 1.388 . S
C1894 H1881 0.930 . S
C1894 C1893 1.388 . S
C1894 C1895 1.390 . S
C1895 C1894 1.390 . S
C1895 C1896 1.394 . S
C1895 C1901 1.465 . S
C1896 C1891 1.399 . S
C1896 C1895 1.394 . S
C1896 C1897 1.516 . S
C1897 C1896 1.516 . S
C1897 C1898 1.502 . S
C1897 C1899 1.561 . S
C1897 C1900 1.526 . S
C1898 H1882 0.959 . S
C1898 H1883 0.959 . S
C1898 H1884 0.961 . S
C1898 C1897 1.502 . S
C1899 H1885 0.960 . S
C1899 H1886 0.961 . S
C1899 H1887 0.959 . S
C1899 C1897 1.561 . S
C1900 C1897 1.526 . S
C1900 C1901 1.396 . S
C1900 C1905 1.390 . S
C1901 C1895 1.465 . S
C1901 C1900 1.396 . S
C1901 C1902 1.399 . S
C1902 H1888 0.929 . S
C1902 C1901 1.399 . S
C1902 C1903 1.385 . S
C1903 H1889 0.931 . S
C1903 C1902 1.385 . S
C1903 C1904 1.389 . S
C1904 C1903 1.389 . S
C1904 C1905 1.387 . S
C1905 H1890 0.930 . S
C1905 C1900 1.390 . S
C1905 C1904 1.387 . S
H1906 C1918 0.930 . S
H1907 C1920 0.930 . S
H1908 C1921 0.930 . S
H1909 C1925 0.959 . S
H1910 C1925 0.959 . S
H1911 C1925 0.961 . S
H1912 C1926 0.960 . S
H1913 C1926 0.961 . S
H1914 C1926 0.959 . S
H1915 C1929 0.929 . S
H1916 C1930 0.931 . S
H1917 C1932 0.930 . S
C1918 H1906 0.930 . S
C1918 C1919 1.399 . S
C1918 C1923 1.399 . S
C1919 C1918 1.399 . S
C1919 C1920 1.376 . S
C1920 H1907 0.930 . S
C1920 C1919 1.376 . S
C1920 C1921 1.388 . S
C1921 H1908 0.930 . S
C1921 C1920 1.388 . S
C1921 C1922 1.390 . S
C1922 C1921 1.390 . S
C1922 C1923 1.394 . S
C1922 C1928 1.465 . S
C1923 C1918 1.399 . S
C1923 C1922 1.394 . S
C1923 C1924 1.516 . S
C1924 C1923 1.516 . S
C1924 C1925 1.502 . S
C1924 C1926 1.561 . S
C1924 C1927 1.526 . S
C1925 H1909 0.959 . S
C1925 H1910 0.959 . S
C1925 H1911 0.961 . S
C1925 C1924 1.502 . S
C1926 H1912 0.960 . S
C1926 H1913 0.961 . S
C1926 H1914 0.959 . S
C1926 C1924 1.561 . S
C1927 C1924 1.526 . S
C1927 C1928 1.396 . S
C1927 C1932 1.390 . S
C1928 C1922 1.465 . S
C1928 C1927 1.396 . S
C1928 C1929 1.399 . S
C1929 H1915 0.929 . S
C1929 C1928 1.399 . S
C1929 C1930 1.385 . S
C1930 H1916 0.931 . S
C1930 C1929 1.385 . S
C1930 C1931 1.389 . S
C1931 C1930 1.389 . S
C1931 C1932 1.387 . S
C1932 H1917 0.930 . S
C1932 C1927 1.390 . S
C1932 C1931 1.387 . S
H1933 C1945 0.930 . S
H1934 C1947 0.930 . S
H1935 C1948 0.930 . S
H1936 C1952 0.959 . S
H1937 C1952 0.959 . S
H1938 C1952 0.961 . S
H1939 C1953 0.960 . S
H1940 C1953 0.961 . S
H1941 C1953 0.959 . S
H1942 C1956 0.929 . S
H1943 C1957 0.931 . S
H1944 C1959 0.930 . S
C1945 H1933 0.930 . S
C1945 C1946 1.399 . S
C1945 C1950 1.399 . S
C1946 C1945 1.399 . S
C1946 C1947 1.376 . S
C1947 H1934 0.930 . S
C1947 C1946 1.376 . S
C1947 C1948 1.388 . S
C1948 H1935 0.930 . S
C1948 C1947 1.388 . S
C1948 C1949 1.390 . S
C1949 C1948 1.390 . S
C1949 C1950 1.394 . S
C1949 C1955 1.465 . S
C1950 C1945 1.399 . S
C1950 C1949 1.394 . S
C1950 C1951 1.516 . S
C1951 C1950 1.516 . S
C1951 C1952 1.502 . S
C1951 C1953 1.561 . S
C1951 C1954 1.526 . S
C1952 H1936 0.959 . S
C1952 H1937 0.959 . S
C1952 H1938 0.961 . S
C1952 C1951 1.502 . S
C1953 H1939 0.960 . S
C1953 H1940 0.961 . S
C1953 H1941 0.959 . S
C1953 C1951 1.561 . S
C1954 C1951 1.526 . S
C1954 C1955 1.396 . S
C1954 C1959 1.390 . S
C1955 C1949 1.465 . S
C1955 C1954 1.396 . S
C1955 C1956 1.399 . S
C1956 H1942 0.929 . S
C1956 C1955 1.399 . S
C1956 C1957 1.385 . S
C1957 H1943 0.931 . S
C1957 C1956 1.385 . S
C1957 C1958 1.389 . S
C1958 C1957 1.389 . S
C1958 C1959 1.387 . S
C1959 H1944 0.930 . S
C1959 C1954 1.390 . S
C1959 C1958 1.387 . S
H1960 C1972 0.930 . S
H1961 C1974 0.930 . S
H1962 C1975 0.930 . S
H1963 C1979 0.959 . S
H1964 C1979 0.959 . S
H1965 C1979 0.961 . S
H1966 C1980 0.960 . S
H1967 C1980 0.961 . S
H1968 C1980 0.959 . S
H1969 C1983 0.929 . S
H1970 C1984 0.931 . S
H1971 C1986 0.930 . S
C1972 H1960 0.930 . S
C1972 C1973 1.399 . S
C1972 C1977 1.399 . S
C1973 C1972 1.399 . S
C1973 C1974 1.376 . S
C1974 H1961 0.930 . S
C1974 C1973 1.376 . S
C1974 C1975 1.388 . S
C1975 H1962 0.930 . S
C1975 C1974 1.388 . S
C1975 C1976 1.390 . S
C1976 C1975 1.390 . S
C1976 C1977 1.394 . S
C1976 C1982 1.465 . S
C1977 C1972 1.399 . S
C1977 C1976 1.394 . S
C1977 C1978 1.516 . S
C1978 C1977 1.516 . S
C1978 C1979 1.502 . S
C1978 C1980 1.561 . S
C1978 C1981 1.526 . S
C1979 H1963 0.959 . S
C1979 H1964 0.959 . S
C1979 H1965 0.961 . S
C1979 C1978 1.502 . S
C1980 H1966 0.960 . S
C1980 H1967 0.961 . S
C1980 H1968 0.959 . S
C1980 C1978 1.561 . S
C1981 C1978 1.526 . S
C1981 C1982 1.396 . S
C1981 C1986 1.390 . S
C1982 C1976 1.465 . S
C1982 C1981 1.396 . S
C1982 C1983 1.399 . S
C1983 H1969 0.929 . S
C1983 C1982 1.399 . S
C1983 C1984 1.385 . S
C1984 H1970 0.931 . S
C1984 C1983 1.385 . S
C1984 C1985 1.389 . S
C1985 C1984 1.389 . S
C1985 C1986 1.387 . S
C1986 H1971 0.930 . S
C1986 C1981 1.390 . S
C1986 C1985 1.387 . S
H1987 C1999 0.930 . S
H1988 C2001 0.930 . S
H1989 C2002 0.930 . S
H1990 C2006 0.959 . S
H1991 C2006 0.959 . S
H1992 C2006 0.961 . S
H1993 C2007 0.960 . S
H1994 C2007 0.961 . S
H1995 C2007 0.959 . S
H1996 C2010 0.929 . S
H1997 C2011 0.931 . S
H1998 C2013 0.930 . S
C1999 H1987 0.930 . S
C1999 C2000 1.399 . S
C1999 C2004 1.399 . S
C2000 C1999 1.399 . S
C2000 C2001 1.376 . S
C2001 H1988 0.930 . S
C2001 C2000 1.376 . S
C2001 C2002 1.388 . S
C2002 H1989 0.930 . S
C2002 C2001 1.388 . S
C2002 C2003 1.390 . S
C2003 C2002 1.390 . S
C2003 C2004 1.394 . S
C2003 C2009 1.465 . S
C2004 C1999 1.399 . S
C2004 C2003 1.394 . S
C2004 C2005 1.516 . S
C2005 C2004 1.516 . S
C2005 C2006 1.502 . S
C2005 C2007 1.561 . S
C2005 C2008 1.526 . S
C2006 H1990 0.959 . S
C2006 H1991 0.959 . S
C2006 H1992 0.961 . S
C2006 C2005 1.502 . S
C2007 H1993 0.960 . S
C2007 H1994 0.961 . S
C2007 H1995 0.959 . S
C2007 C2005 1.561 . S
C2008 C2005 1.526 . S
C2008 C2009 1.396 . S
C2008 C2013 1.390 . S
C2009 C2003 1.465 . S
C2009 C2008 1.396 . S
C2009 C2010 1.399 . S
C2010 H1996 0.929 . S
C2010 C2009 1.399 . S
C2010 C2011 1.385 . S
C2011 H1997 0.931 . S
C2011 C2010 1.385 . S
C2011 C2012 1.389 . S
C2012 C2011 1.389 . S
C2012 C2013 1.387 . S
C2013 H1998 0.930 . S
C2013 C2008 1.390 . S
C2013 C2012 1.387 . S
H2014 C2026 0.930 . S
H2015 C2028 0.930 . S
H2016 C2029 0.930 . S
H2017 C2033 0.959 . S
H2018 C2033 0.959 . S
H2019 C2033 0.961 . S
H2020 C2034 0.960 . S
H2021 C2034 0.961 . S
H2022 C2034 0.959 . S
H2023 C2037 0.929 . S
H2024 C2038 0.931 . S
H2025 C2040 0.930 . S
C2026 H2014 0.930 . S
C2026 C2027 1.399 . S
C2026 C2031 1.399 . S
C2027 C2026 1.399 . S
C2027 C2028 1.376 . S
C2028 H2015 0.930 . S
C2028 C2027 1.376 . S
C2028 C2029 1.388 . S
C2029 H2016 0.930 . S
C2029 C2028 1.388 . S
C2029 C2030 1.390 . S
C2030 C2029 1.390 . S
C2030 C2031 1.394 . S
C2030 C2036 1.465 . S
C2031 C2026 1.399 . S
C2031 C2030 1.394 . S
C2031 C2032 1.516 . S
C2032 C2031 1.516 . S
C2032 C2033 1.502 . S
C2032 C2034 1.561 . S
C2032 C2035 1.526 . S
C2033 H2017 0.959 . S
C2033 H2018 0.959 . S
C2033 H2019 0.961 . S
C2033 C2032 1.502 . S
C2034 H2020 0.960 . S
C2034 H2021 0.961 . S
C2034 H2022 0.959 . S
C2034 C2032 1.561 . S
C2035 C2032 1.526 . S
C2035 C2036 1.396 . S
C2035 C2040 1.390 . S
C2036 C2030 1.465 . S
C2036 C2035 1.396 . S
C2036 C2037 1.399 . S
C2037 H2023 0.929 . S
C2037 C2036 1.399 . S
C2037 C2038 1.385 . S
C2038 H2024 0.931 . S
C2038 C2037 1.385 . S
C2038 C2039 1.389 . S
C2039 C2038 1.389 . S
C2039 C2040 1.387 . S
C2040 H2025 0.930 . S
C2040 C2035 1.390 . S
C2040 C2039 1.387 . S
H2041 C2053 0.930 . S
H2042 C2055 0.930 . S
H2043 C2056 0.930 . S
H2044 C2060 0.959 . S
H2045 C2060 0.959 . S
H2046 C2060 0.961 . S
H2047 C2061 0.960 . S
H2048 C2061 0.961 . S
H2049 C2061 0.959 . S
H2050 C2064 0.929 . S
H2051 C2065 0.931 . S
H2052 C2067 0.930 . S
C2053 H2041 0.930 . S
C2053 C2054 1.399 . S
C2053 C2058 1.399 . S
C2054 C2053 1.399 . S
C2054 C2055 1.376 . S
C2055 H2042 0.930 . S
C2055 C2054 1.376 . S
C2055 C2056 1.388 . S
C2056 H2043 0.930 . S
C2056 C2055 1.388 . S
C2056 C2057 1.390 . S
C2057 C2056 1.390 . S
C2057 C2058 1.394 . S
C2057 C2063 1.465 . S
C2058 C2053 1.399 . S
C2058 C2057 1.394 . S
C2058 C2059 1.516 . S
C2059 C2058 1.516 . S
C2059 C2060 1.502 . S
C2059 C2061 1.561 . S
C2059 C2062 1.526 . S
C2060 H2044 0.959 . S
C2060 H2045 0.959 . S
C2060 H2046 0.961 . S
C2060 C2059 1.502 . S
C2061 H2047 0.960 . S
C2061 H2048 0.961 . S
C2061 H2049 0.959 . S
C2061 C2059 1.561 . S
C2062 C2059 1.526 . S
C2062 C2063 1.396 . S
C2062 C2067 1.390 . S
C2063 C2057 1.465 . S
C2063 C2062 1.396 . S
C2063 C2064 1.399 . S
C2064 H2050 0.929 . S
C2064 C2063 1.399 . S
C2064 C2065 1.385 . S
C2065 H2051 0.931 . S
C2065 C2064 1.385 . S
C2065 C2066 1.389 . S
C2066 C2065 1.389 . S
C2066 C2067 1.387 . S
C2067 H2052 0.930 . S
C2067 C2062 1.390 . S
C2067 C2066 1.387 . S
H2068 C2080 0.930 . S
H2069 C2082 0.930 . S
H2070 C2083 0.930 . S
H2071 C2087 0.959 . S
H2072 C2087 0.959 . S
H2073 C2087 0.961 . S
H2074 C2088 0.960 . S
H2075 C2088 0.961 . S
H2076 C2088 0.959 . S
H2077 C2091 0.929 . S
H2078 C2092 0.931 . S
H2079 C2094 0.930 . S
C2080 H2068 0.930 . S
C2080 C2081 1.399 . S
C2080 C2085 1.399 . S
C2081 C2080 1.399 . S
C2081 C2082 1.376 . S
C2082 H2069 0.930 . S
C2082 C2081 1.376 . S
C2082 C2083 1.388 . S
C2083 H2070 0.930 . S
C2083 C2082 1.388 . S
C2083 C2084 1.390 . S
C2084 C2083 1.390 . S
C2084 C2085 1.394 . S
C2084 C2090 1.465 . S
C2085 C2080 1.399 . S
C2085 C2084 1.394 . S
C2085 C2086 1.516 . S
C2086 C2085 1.516 . S
C2086 C2087 1.502 . S
C2086 C2088 1.561 . S
C2086 C2089 1.526 . S
C2087 H2071 0.959 . S
C2087 H2072 0.959 . S
C2087 H2073 0.961 . S
C2087 C2086 1.502 . S
C2088 H2074 0.960 . S
C2088 H2075 0.961 . S
C2088 H2076 0.959 . S
C2088 C2086 1.561 . S
C2089 C2086 1.526 . S
C2089 C2090 1.396 . S
C2089 C2094 1.390 . S
C2090 C2084 1.465 . S
C2090 C2089 1.396 . S
C2090 C2091 1.399 . S
C2091 H2077 0.929 . S
C2091 C2090 1.399 . S
C2091 C2092 1.385 . S
C2092 H2078 0.931 . S
C2092 C2091 1.385 . S
C2092 C2093 1.389 . S
C2093 C2092 1.389 . S
C2093 C2094 1.387 . S
C2094 H2079 0.930 . S
C2094 C2089 1.390 . S
C2094 C2093 1.387 . S
H2095 C2107 0.930 . S
H2096 C2109 0.930 . S
H2097 C2110 0.930 . S
H2098 C2114 0.959 . S
H2099 C2114 0.959 . S
H2100 C2114 0.961 . S
H2101 C2115 0.960 . S
H2102 C2115 0.961 . S
H2103 C2115 0.959 . S
H2104 C2118 0.929 . S
H2105 C2119 0.931 . S
H2106 C2121 0.930 . S
C2107 H2095 0.930 . S
C2107 C2108 1.399 . S
C2107 C2112 1.399 . S
C2108 C2107 1.399 . S
C2108 C2109 1.376 . S
C2109 H2096 0.930 . S
C2109 C2108 1.376 . S
C2109 C2110 1.388 . S
C2110 H2097 0.930 . S
C2110 C2109 1.388 . S
C2110 C2111 1.390 . S
C2111 C2110 1.390 . S
C2111 C2112 1.394 . S
C2111 C2117 1.465 . S
C2112 C2107 1.399 . S
C2112 C2111 1.394 . S
C2112 C2113 1.516 . S
C2113 C2112 1.516 . S
C2113 C2114 1.502 . S
C2113 C2115 1.561 . S
C2113 C2116 1.526 . S
C2114 H2098 0.959 . S
C2114 H2099 0.959 . S
C2114 H2100 0.961 . S
C2114 C2113 1.502 . S
C2115 H2101 0.960 . S
C2115 H2102 0.961 . S
C2115 H2103 0.959 . S
C2115 C2113 1.561 . S
C2116 C2113 1.526 . S
C2116 C2117 1.396 . S
C2116 C2121 1.390 . S
C2117 C2111 1.465 . S
C2117 C2116 1.396 . S
C2117 C2118 1.399 . S
C2118 H2104 0.929 . S
C2118 C2117 1.399 . S
C2118 C2119 1.385 . S
C2119 H2105 0.931 . S
C2119 C2118 1.385 . S
C2119 C2120 1.389 . S
C2120 C2119 1.389 . S
C2120 C2121 1.387 . S
C2121 H2106 0.930 . S
C2121 C2116 1.390 . S
C2121 C2120 1.387 . S
H2122 C2134 0.930 . S
H2123 C2136 0.930 . S
H2124 C2137 0.930 . S
H2125 C2141 0.959 . S
H2126 C2141 0.959 . S
H2127 C2141 0.961 . S
H2128 C2142 0.960 . S
H2129 C2142 0.961 . S
H2130 C2142 0.959 . S
H2131 C2145 0.929 . S
H2132 C2146 0.931 . S
H2133 C2148 0.930 . S
C2134 H2122 0.930 . S
C2134 C2135 1.399 . S
C2134 C2139 1.399 . S
C2135 C2134 1.399 . S
C2135 C2136 1.376 . S
C2136 H2123 0.930 . S
C2136 C2135 1.376 . S
C2136 C2137 1.388 . S
C2137 H2124 0.930 . S
C2137 C2136 1.388 . S
C2137 C2138 1.390 . S
C2138 C2137 1.390 . S
C2138 C2139 1.394 . S
C2138 C2144 1.465 . S
C2139 C2134 1.399 . S
C2139 C2138 1.394 . S
C2139 C2140 1.516 . S
C2140 C2139 1.516 . S
C2140 C2141 1.502 . S
C2140 C2142 1.561 . S
C2140 C2143 1.526 . S
C2141 H2125 0.959 . S
C2141 H2126 0.959 . S
C2141 H2127 0.961 . S
C2141 C2140 1.502 . S
C2142 H2128 0.960 . S
C2142 H2129 0.961 . S
C2142 H2130 0.959 . S
C2142 C2140 1.561 . S
C2143 C2140 1.526 . S
C2143 C2144 1.396 . S
C2143 C2148 1.390 . S
C2144 C2138 1.465 . S
C2144 C2143 1.396 . S
C2144 C2145 1.399 . S
C2145 H2131 0.929 . S
C2145 C2144 1.399 . S
C2145 C2146 1.385 . S
C2146 H2132 0.931 . S
C2146 C2145 1.385 . S
C2146 C2147 1.389 . S
C2147 C2146 1.389 . S
C2147 C2148 1.387 . S
C2148 H2133 0.930 . S
C2148 C2143 1.390 . S
C2148 C2147 1.387 . S
H2149 C2161 0.930 . S
H2150 C2163 0.930 . S
H2151 C2164 0.930 . S
H2152 C2168 0.959 . S
H2153 C2168 0.959 . S
H2154 C2168 0.961 . S
H2155 C2169 0.960 . S
H2156 C2169 0.961 . S
H2157 C2169 0.959 . S
H2158 C2172 0.929 . S
H2159 C2173 0.931 . S
H2160 C2175 0.930 . S
C2161 H2149 0.930 . S
C2161 C2162 1.399 . S
C2161 C2166 1.399 . S
C2162 C2161 1.399 . S
C2162 C2163 1.376 . S
C2163 H2150 0.930 . S
C2163 C2162 1.376 . S
C2163 C2164 1.388 . S
C2164 H2151 0.930 . S
C2164 C2163 1.388 . S
C2164 C2165 1.390 . S
C2165 C2164 1.390 . S
C2165 C2166 1.394 . S
C2165 C2171 1.465 . S
C2166 C2161 1.399 . S
C2166 C2165 1.394 . S
C2166 C2167 1.516 . S
C2167 C2166 1.516 . S
C2167 C2168 1.502 . S
C2167 C2169 1.561 . S
C2167 C2170 1.526 . S
C2168 H2152 0.959 . S
C2168 H2153 0.959 . S
C2168 H2154 0.961 . S
C2168 C2167 1.502 . S
C2169 H2155 0.960 . S
C2169 H2156 0.961 . S
C2169 H2157 0.959 . S
C2169 C2167 1.561 . S
C2170 C2167 1.526 . S
C2170 C2171 1.396 . S
C2170 C2175 1.390 . S
C2171 C2165 1.465 . S
C2171 C2170 1.396 . S
C2171 C2172 1.399 . S
C2172 H2158 0.929 . S
C2172 C2171 1.399 . S
C2172 C2173 1.385 . S
C2173 H2159 0.931 . S
C2173 C2172 1.385 . S
C2173 C2174 1.389 . S
C2174 C2173 1.389 . S
C2174 C2175 1.387 . S
C2175 H2160 0.930 . S
C2175 C2170 1.390 . S
C2175 C2174 1.387 . S
C461 C117 1.282 . S
C473 C5 1.151 . S
C488 C355 1.276 . S
C500 C19 1.161 . S
C515 C145 1.155 . S
C527 C33 1.241 . S
C542 C383 1.257 . S
C554 C47 1.186 . S
C569 C173 1.285 . S
C581 C61 1.126 . S
C596 C75 1.220 . S
C608 C411 1.176 . S
C623 C89 1.221 . S
C635 C201 1.225 . S
C650 C103 1.270 . S
C662 C439 1.170 . S
C677 C243 1.160 . S
C689 C131 1.235 . S
C704 C271 1.288 . S
C716 C159 1.126 . S
C731 C187 1.126 . S
C743 C299 1.279 . S
C758 C215 1.205 . S
C770 C327 1.239 . S
C785 C229 1.245 . S
C797 C341 1.199 . S
C812 C369 1.289 . S
C824 C257 1.138 . S
C839 C285 1.156 . S
C851 C397 1.240 . S
C866 C425 1.124 . S
C878 C313 1.283 . S
C893 C256 1.245 . S
C905 C4 1.252 . S
C920 C270 1.244 . S
C932 C18 1.259 . S
C947 C32 1.245 . S
C959 C228 1.267 . S
C974 C46 1.320 . S
C986 C242 1.313 . S
C1001 C312 1.244 . S
C1013 C60 1.261 . S
C1028 C74 1.246 . S
C1040 C326 1.267 . S
C1055 C284 1.245 . S
C1067 C88 1.265 . S
C1082 C298 1.320 . S
C1094 C102 1.304 . S
C1109 C116 1.279 . S
C1121 C368 1.245 . S
C1136 C382 1.292 . S
C1148 C130 1.320 . S
C1163 C144 1.275 . S
C1175 C340 1.245 . S
C1190 C158 1.303 . S
C1202 C354 1.316 . S
C1217 C172 1.307 . S
C1229 C424 1.314 . S
C1244 C186 1.298 . S
C1256 C438 1.318 . S
C1271 C396 1.266 . S
C1283 C200 1.248 . S
C1298 C410 1.290 . S
C1310 C214 1.247 . S
C1325 C95 1.401 . S
C1337 C11 1.381 . S
C1352 C109 1.379 . S
C1364 C25 1.344 . S
C1379 C67 1.349 . S
C1391 C39 1.362 . S
C1406 C53 1.344 . S
C1418 C81 1.385 . S
C1433 C207 1.386 . S
C1445 C123 1.384 . S
C1460 C221 1.344 . S
C1472 C137 1.391 . S
C1487 C179 1.377 . S
C1499 C151 1.351 . S
C1514 C193 1.403 . S
C1526 C165 1.350 . S
C1541 C319 1.364 . S
C1553 C235 1.348 . S
C1568 C333 1.403 . S
C1580 C249 1.364 . S
C1595 C263 1.347 . S
C1607 C291 1.365 . S
C1622 C277 1.375 . S
C1634 C305 1.345 . S
C1649 C431 1.367 . S
C1661 C347 1.398 . S
C1676 C445 1.400 . S
C1688 C361 1.345 . S
C1703 C375 1.365 . S
C1715 C403 1.399 . S
C1730 C389 1.382 . S
C1742 C417 1.348 . S
C1757 C12 1.504 . S
C1769 C306 1.506 . S
C1784 C320 1.505 . S
C1796 C26 1.505 . S
C1811 C334 1.507 . S
C1823 C40 1.513 . S
C1838 C54 1.512 . S
C1850 C292 1.507 . S
C1865 C278 1.507 . S
C1877 C68 1.512 . S
C1892 C82 1.512 . S
C1904 C236 1.507 . S
C1919 C250 1.510 . S
C1931 C96 1.506 . S
C1946 C110 1.513 . S
C1958 C264 1.515 . S
C1973 C418 1.514 . S
C1985 C124 1.515 . S
C2000 C432 1.506 . S
C2012 C138 1.508 . S
C2027 C152 1.514 . S
C2039 C446 1.513 . S
C2054 C404 1.511 . S
C2066 C166 1.509 . S
C2081 C390 1.505 . S
C2093 C180 1.505 . S
C2108 C194 1.504 . S
C2120 C348 1.505 . S
C2135 C362 1.504 . S
C2147 C208 1.505 . S
C2162 C222 1.505 . S
C2174 C376 1.506 . S
