# Generated by pormake.
# Topology uki, (4)-cn, num edge types: 1
# Building blocks:
#     Node 0, Type 0, BuildingBlock: MUDLON_clean_sbu_0, # of connection points: 4
#     Node 1, Type 0, BuildingBlock: MUDLON_clean_sbu_0, # of connection points: 4
#     Node 2, Type 0, BuildingBlock: MUDLON_clean_sbu_0, # of connection points: 4
#     Node 3, Type 0, BuildingBlock: MUDLON_clean_sbu_0, # of connection points: 4
#     Node 4, Type 0, BuildingBlock: MUDLON_clean_sbu_0, # of connection points: 4
#     Node 5, Type 0, BuildingBlock: MUDLON_clean_sbu_0, # of connection points: 4
#     Node 6, Type 0, BuildingBlock: MUDLON_clean_sbu_0, # of connection points: 4
#     Node 7, Type 0, BuildingBlock: MUDLON_clean_sbu_0, # of connection points: 4
#     Node 8, Type 0, BuildingBlock: MUDLON_clean_sbu_0, # of connection points: 4
#     Node 9, Type 0, BuildingBlock: MUDLON_clean_sbu_0, # of connection points: 4
#     Node 10, Type 0, BuildingBlock: MUDLON_clean_sbu_0, # of connection points: 4
#     Node 11, Type 0, BuildingBlock: MUDLON_clean_sbu_0, # of connection points: 4
#     Node 12, Type 0, BuildingBlock: MUDLON_clean_sbu_0, # of connection points: 4
#     Node 13, Type 0, BuildingBlock: MUDLON_clean_sbu_0, # of connection points: 4
#     Node 14, Type 0, BuildingBlock: MUDLON_clean_sbu_0, # of connection points: 4
#     Node 15, Type 0, BuildingBlock: MUDLON_clean_sbu_0, # of connection points: 4
#     Edge 16, Type (0, 0), BuildingBlock: XIVTED_clean_linker_0, # of connection points: 2
#     Edge 17, Type (0, 0), BuildingBlock: XIVTED_clean_linker_0, # of connection points: 2
#     Edge 18, Type (0, 0), BuildingBlock: XIVTED_clean_linker_0, # of connection points: 2
#     Edge 19, Type (0, 0), BuildingBlock: XIVTED_clean_linker_0, # of connection points: 2
#     Edge 20, Type (0, 0), BuildingBlock: XIVTED_clean_linker_0, # of connection points: 2
#     Edge 21, Type (0, 0), BuildingBlock: XIVTED_clean_linker_0, # of connection points: 2
#     Edge 22, Type (0, 0), BuildingBlock: XIVTED_clean_linker_0, # of connection points: 2
#     Edge 23, Type (0, 0), BuildingBlock: XIVTED_clean_linker_0, # of connection points: 2
#     Edge 24, Type (0, 0), BuildingBlock: XIVTED_clean_linker_0, # of connection points: 2
#     Edge 25, Type (0, 0), BuildingBlock: XIVTED_clean_linker_0, # of connection points: 2
#     Edge 26, Type (0, 0), BuildingBlock: XIVTED_clean_linker_0, # of connection points: 2
#     Edge 27, Type (0, 0), BuildingBlock: XIVTED_clean_linker_0, # of connection points: 2
#     Edge 28, Type (0, 0), BuildingBlock: XIVTED_clean_linker_0, # of connection points: 2
#     Edge 29, Type (0, 0), BuildingBlock: XIVTED_clean_linker_0, # of connection points: 2
#     Edge 30, Type (0, 0), BuildingBlock: XIVTED_clean_linker_0, # of connection points: 2
#     Edge 31, Type (0, 0), BuildingBlock: XIVTED_clean_linker_0, # of connection points: 2
#     Edge 32, Type (0, 0), BuildingBlock: XIVTED_clean_linker_0, # of connection points: 2
#     Edge 33, Type (0, 0), BuildingBlock: XIVTED_clean_linker_0, # of connection points: 2
#     Edge 34, Type (0, 0), BuildingBlock: XIVTED_clean_linker_0, # of connection points: 2
#     Edge 35, Type (0, 0), BuildingBlock: XIVTED_clean_linker_0, # of connection points: 2
#     Edge 36, Type (0, 0), BuildingBlock: XIVTED_clean_linker_0, # of connection points: 2
#     Edge 37, Type (0, 0), BuildingBlock: XIVTED_clean_linker_0, # of connection points: 2
#     Edge 38, Type (0, 0), BuildingBlock: XIVTED_clean_linker_0, # of connection points: 2
#     Edge 39, Type (0, 0), BuildingBlock: XIVTED_clean_linker_0, # of connection points: 2
#     Edge 40, Type (0, 0), BuildingBlock: XIVTED_clean_linker_0, # of connection points: 2
#     Edge 41, Type (0, 0), BuildingBlock: XIVTED_clean_linker_0, # of connection points: 2
#     Edge 42, Type (0, 0), BuildingBlock: XIVTED_clean_linker_0, # of connection points: 2
#     Edge 43, Type (0, 0), BuildingBlock: XIVTED_clean_linker_0, # of connection points: 2
#     Edge 44, Type (0, 0), BuildingBlock: XIVTED_clean_linker_0, # of connection points: 2
#     Edge 45, Type (0, 0), BuildingBlock: XIVTED_clean_linker_0, # of connection points: 2
#     Edge 46, Type (0, 0), BuildingBlock: XIVTED_clean_linker_0, # of connection points: 2
#     Edge 47, Type (0, 0), BuildingBlock: XIVTED_clean_linker_0, # of connection points: 2
# Relax obj value: 0.065
# Max RMSD: 0.231
# Mean RMSD: 0.231
data_MOF--net-uki--node1-MUDLON_clean_sbu_0--edge1-XIVTED_clean_linker_0
_symmetry_space_group_name_H-M    P1
_symmetry_Int_Tables_number       1
_symmetry_cell_setting            triclinic
loop_
_symmetry_equiv_pos_as_xyz
'x, y, z'
_cell_length_a     32.928728
_cell_length_b     33.061535
_cell_length_c     72.896467
_cell_angle_alpha  89.965728
_cell_angle_beta   89.947436
_cell_angle_gamma 90.16174
loop_
_atom_site_label
_atom_site_type_symbol
_atom_site_fract_x
_atom_site_fract_y
_atom_site_fract_z
_atom_type_partial_charge
Mg0 Mg 0.08851 0.23625 0.30791 0.0
C1 C 1.00137 0.25127 0.30061 0.0
O2 O 1.00817 0.2174 0.29172 0.0
C3 C 0.15522 0.22006 0.33509 0.0
O4 O 0.15834 0.18836 0.32432 0.0
C5 C 0.15442 0.26953 0.28203 0.0
O6 O 0.1792 0.25324 0.29404 0.0
O7 O 0.11634 0.26472 0.284 0.0
O8 O 0.03011 0.26678 0.30995 0.0
O9 O 0.07492 0.17181 0.30496 0.0
C10 C 0.05806 0.15565 0.31888 0.0
O11 O 0.05263 0.17788 0.33361 0.0
O12 O 0.12757 0.24591 0.3318 0.0
Mg13 Mg 0.23002 0.92831 0.71262 0.0
C14 C 0.24564 1.00699 0.72778 0.0
O15 O 0.21734 0.98969 0.7378 0.0
C16 C 0.20998 0.87088 0.68244 0.0
O17 O 0.17524 0.87454 0.69114 0.0
C18 C 0.26438 0.85888 0.73492 0.0
O19 O 0.25214 0.83826 0.72055 0.0
O20 O 0.25604 0.89632 0.73589 0.0
O21 O 0.25962 0.98752 0.7141 0.0
O22 O 0.16535 0.94208 0.71474 0.0
C23 C 0.14262 0.93715 0.72868 0.0
O24 O 0.15744 0.91984 0.74345 0.0
O25 O 0.24024 0.89167 0.68794 0.0
Mg26 Mg 0.92984 0.78697 0.30763 0.0
C27 C 0.02097 0.78142 0.30431 0.0
O28 O 0.01564 0.82005 0.30094 0.0
C29 C 0.85934 0.79578 0.33297 0.0
O30 O 0.84948 0.81964 0.31927 0.0
C31 C 0.91923 0.73681 0.27326 0.0
O32 O 0.95896 0.74049 0.2734 0.0
O33 O 0.89858 0.7556 0.28531 0.0
O34 O 0.99038 0.75998 0.30887 0.0
O35 O 0.93815 0.85204 0.30357 0.0
C36 C 0.94534 0.87252 0.31799 0.0
O37 O 0.94429 0.85396 0.33393 0.0
O38 O 0.89315 0.77723 0.33229 0.0
Mg39 Mg 0.79197 0.10153 0.71165 0.0
C40 C 0.77749 1.01076 0.70912 0.0
O41 O 0.81632 0.01122 0.70498 0.0
C42 C 0.79254 0.17742 0.68993 0.0
O43 O 0.80133 0.18951 0.70663 0.0
C44 C 0.74275 0.11921 0.74613 0.0
O45 O 0.7404 0.07956 0.74665 0.0
O46 O 0.76438 0.13599 0.7338 0.0
O47 O 0.75886 0.04423 0.71086 0.0
O48 O 0.85562 0.08734 0.71649 0.0
C49 C 0.86668 0.06663 0.73032 0.0
O50 O 0.83945 0.05638 0.74268 0.0
O51 O 0.78671 0.13978 0.68718 0.0
Mg52 Mg 0.08415 0.29194 0.96288 0.0
C53 C 0.99288 0.27616 0.96127 0.0
O54 O 0.992 0.31562 0.95932 0.0
C55 C 0.15899 0.29798 0.93969 0.0
O56 O 0.17269 0.30782 0.95601 0.0
C57 C 0.13578 0.22941 0.97877 0.0
O58 O 0.13229 0.2194 0.96141 0.0
O59 O 0.11827 0.26132 0.98441 0.0
O60 O 0.02708 0.25829 0.96167 0.0
O61 O 0.0692 0.35507 0.96836 0.0
C62 C 0.06257 0.37638 0.95414 0.0
O63 O 0.0676 0.35964 0.93795 0.0
O64 O 0.12143 0.28942 0.93793 0.0
Mg65 Mg 0.28935 0.92525 0.05797 0.0
C66 C 0.27347 1.00392 0.04317 0.0
O67 O 0.30173 0.98693 0.03308 0.0
C68 C 0.30969 0.86557 0.08703 0.0
O69 O 0.34326 0.86792 0.07733 0.0
C70 C 0.25497 0.85657 0.03459 0.0
O71 O 0.26749 0.83441 0.04843 0.0
O72 O 0.26291 0.89421 0.03449 0.0
O73 O 0.25962 0.98422 0.05685 0.0
O74 O 0.3539 0.94013 0.05568 0.0
C75 C 0.37717 0.93318 0.04212 0.0
O76 O 0.36315 0.91285 0.02799 0.0
O77 O 0.27986 0.8879 0.08252 0.0
Mg78 Mg 0.92381 0.73817 0.96616 0.0
C79 C 0.01456 0.7408 0.97132 0.0
O80 O 1.00676 0.70272 0.97504 0.0
C81 C 0.85353 0.76065 0.94101 0.0
O82 O 0.83798 0.77185 0.95681 0.0
C83 C 0.91191 0.78599 1.00107 0.0
O84 O 0.95152 0.78148 1.00146 0.0
O85 O 0.89173 0.76877 0.98839 0.0
O86 O 0.98558 0.76344 0.96601 0.0
O87 O 0.9304 0.67296 0.96984 0.0
C88 C 0.93883 0.65379 0.9552 0.0
O89 O 0.93926 0.67379 0.93962 0.0
O90 O 0.88972 0.74713 0.94062 0.0
Mg91 Mg 0.72964 0.09446 0.05821 0.0
C92 C 0.7934 0.02907 0.06045 0.0
O93 O 0.81735 0.06092 0.06008 0.0
C94 C 0.7371 0.17078 0.08088 0.0
O95 O 0.73853 0.18591 0.06423 0.0
C96 C 0.75748 0.1477 0.02472 0.0
O97 O 0.72115 0.16399 0.02497 0.0
O98 O 0.76639 0.12033 0.03628 0.0
O99 O 0.75523 0.0343 0.06139 0.0
O100 O 0.66614 0.08361 0.05138 0.0
C101 C 0.6572 0.05501 0.0404 0.0
O102 O 0.68673 0.03564 0.03208 0.0
O103 O 0.73391 0.13258 0.08279 0.0
Mg104 Mg 0.59811 0.74482 0.8058 0.0
C105 C 0.51678 0.75476 0.79133 0.0
O106 O 0.53518 0.72905 0.7804 0.0
C107 C 0.66415 0.734 0.83338 0.0
O108 O 0.67206 0.70545 0.82137 0.0
C109 C 0.6649 0.7773 0.77932 0.0
O110 O 0.69017 0.75592 0.78929 0.0
O111 O 0.62711 0.77596 0.78286 0.0
O112 O 0.53643 0.76904 0.80492 0.0
O113 O 0.59026 0.67951 0.80235 0.0
C114 C 0.55942 0.66475 0.81056 0.0
O115 O 0.537 0.68877 0.82071 0.0
O116 O 0.63306 0.75618 0.83085 0.0
Mg117 Mg 0.72652 0.42987 0.21409 0.0
C118 C 0.7936 0.49465 0.21436 0.0
O119 O 0.81752 0.46321 0.21236 0.0
C120 C 0.728 0.35702 0.19019 0.0
O121 O 0.71877 0.34213 0.20639 0.0
C122 C 0.77289 0.40987 0.24928 0.0
O123 O 0.77231 0.44933 0.25133 0.0
O124 O 0.75439 0.39408 0.23574 0.0
O125 O 0.75534 0.48931 0.21436 0.0
O126 O 0.66225 0.44104 0.21865 0.0
C127 C 0.65033 0.46224 0.23217 0.0
O128 O 0.67715 0.47489 0.24422 0.0
O129 O 0.73359 0.39505 0.18873 0.0
Mg130 Mg 0.42928 0.2964 0.81013 0.0
C131 C 0.50785 0.27091 0.7959 0.0
O132 O 0.49379 0.29671 0.78376 0.0
C133 C 0.35589 0.30201 0.83394 0.0
O134 O 0.34195 0.31244 0.81773 0.0
C135 C 0.37642 0.23411 0.79445 0.0
O136 O 0.37984 0.224 0.81181 0.0
O137 O 0.39422 0.26597 0.7888 0.0
O138 O 0.48655 0.26344 0.8101 0.0
O139 O 0.44367 0.35988 0.80456 0.0
C140 C 0.47774 0.37302 0.81034 0.0
O141 O 0.50183 0.34825 0.81924 0.0
O142 O 0.39344 0.29336 0.83547 0.0
Mg143 Mg 0.28383 0.59139 0.21391 0.0
C144 C 0.27293 0.50049 0.21272 0.0
O145 O 0.31257 0.50268 0.21097 0.0
C146 C 0.30741 0.65406 0.18648 0.0
O147 O 0.34003 0.65084 0.19674 0.0
C148 C 0.2552 0.65895 0.2395 0.0
O149 O 0.27471 0.68206 0.22775 0.0
O150 O 0.25625 0.6208 0.23748 0.0
O151 O 0.25242 0.53309 0.21255 0.0
O152 O 0.34812 0.57797 0.21738 0.0
C153 C 0.36598 0.5718 0.23258 0.0
O154 O 0.34565 0.576 0.24797 0.0
O155 O 0.27705 0.63141 0.19006 0.0
Mg156 Mg 0.59703 0.7869 0.46486 0.0
C157 C 0.5083 0.77219 0.46976 0.0
O158 O 0.51323 0.80694 0.47819 0.0
C159 C 0.66447 0.75904 0.43835 0.0
O160 O 0.67053 0.73144 0.45101 0.0
C161 C 0.66152 0.75676 0.49279 0.0
O162 O 0.68541 0.78401 0.48525 0.0
O163 O 0.62488 0.75394 0.48747 0.0
O164 O 0.53861 0.75644 0.46162 0.0
O165 O 0.58347 0.8506 0.46997 0.0
C166 C 0.57034 0.86903 0.45585 0.0
O167 O 0.56869 0.84916 0.44026 0.0
O168 O 0.63556 0.78415 0.44036 0.0
Mg169 Mg 0.79363 0.42101 0.55088 0.0
C170 C 0.78413 0.51178 0.54892 0.0
O171 O 0.8229 0.50814 0.54511 0.0
C172 C 0.78428 0.39093 0.59129 0.0
O173 O 0.78326 0.42953 0.59554 0.0
C174 C 0.73918 0.40691 0.51782 0.0
O175 O 0.7339 0.44609 0.51954 0.0
O176 O 0.76408 0.38908 0.52841 0.0
O177 O 0.76389 0.48019 0.55311 0.0
O178 O 0.85807 0.43133 0.54562 0.0
C179 C 0.87936 0.44343 0.55911 0.0
O180 O 0.86199 0.44658 0.57527 0.0
O181 O 0.78764 0.38063 0.57455 0.0
Mg182 Mg 0.42308 0.23023 0.46443 0.0
C183 C 0.51259 0.2457 0.46668 0.0
O184 O 0.51001 0.20954 0.47405 0.0
C185 C 0.35632 0.25937 0.43769 0.0
O186 O 0.35368 0.29 0.4491 0.0
C187 C 0.35975 0.2628 0.49249 0.0
O188 O 0.33385 0.23876 0.48415 0.0
O189 O 0.39678 0.26284 0.48753 0.0
O190 O 0.48062 0.26178 0.46015 0.0
O191 O 0.43782 0.16675 0.46951 0.0
C192 C 0.44809 0.14756 0.45511 0.0
O193 O 0.44662 0.16658 0.43929 0.0
O194 O 0.38273 0.23206 0.4406 0.0
Mg195 Mg 0.23887 0.59269 0.55812 0.0
C196 C 0.2532 0.50199 0.5605 0.0
O197 O 0.21466 0.50254 0.56515 0.0
C198 C 0.21681 0.6573 0.58415 0.0
O199 O 0.18721 0.65728 0.57207 0.0
C200 C 0.2844 0.61072 0.5229 0.0
O201 O 0.28821 0.57118 0.52305 0.0
O202 O 0.26316 0.6276 0.5353 0.0
O203 O 0.27194 0.53542 0.55845 0.0
O204 O 0.17469 0.57829 0.55518 0.0
C205 C 0.1596 0.5583 0.54192 0.0
O206 O 0.18316 0.54741 0.52824 0.0
O207 O 0.24511 0.6314 0.58237 0.0
H208 H 0.11131 0.32174 0.26024 0.0
H209 H 0.31022 0.42801 0.21908 0.0
H210 H 0.2336 0.28287 0.27199 0.0
H211 H 0.1922 0.48454 0.21958 0.0
H212 H 0.2804 0.36758 0.2329 0.0
H213 H 0.13865 0.37426 0.24 0.0
C214 C 0.14389 0.32382 0.25838 0.0
C215 C 0.17023 0.29799 0.26797 0.0
C216 C 0.26094 0.39304 0.22981 0.0
C217 C 0.20164 0.35815 0.2448 0.0
C218 C 0.27789 0.42757 0.22183 0.0
C219 C 0.25378 0.46169 0.21832 0.0
C220 C 0.21947 0.39238 0.23426 0.0
C221 C 0.21203 0.4591 0.22215 0.0
C222 C 0.15945 0.35396 0.24687 0.0
C223 C 0.21216 0.30225 0.265 0.0
N224 N 0.19625 0.42518 0.23004 0.0
N225 N 0.22655 0.33186 0.25375 0.0
H226 H 0.46189 0.71308 0.77105 0.0
H227 H 0.30626 0.89609 0.7629 0.0
H228 H 0.47551 0.82349 0.80197 0.0
H229 H 0.29109 0.78068 0.73607 0.0
H230 H 0.36348 0.86828 0.78019 0.0
H231 H 0.39524 0.73532 0.76097 0.0
C232 C 0.45068 0.742 0.77584 0.0
C233 C 0.47451 0.76672 0.78719 0.0
C234 C 0.34724 0.8489 0.77071 0.0
C235 C 0.39794 0.79273 0.77549 0.0
C236 C 0.31446 0.86471 0.76086 0.0
C237 C 0.2941 0.84083 0.74781 0.0
C238 C 0.35982 0.80899 0.76745 0.0
C239 C 0.30607 0.80038 0.74582 0.0
C240 C 0.41247 0.75467 0.77009 0.0
C241 C 0.45814 0.8036 0.79316 0.0
N242 N 0.33835 0.78594 0.75535 0.0
N243 N 0.42103 0.8158 0.78702 0.0
H244 H 0.75285 0.56229 0.22594 0.0
H245 H 0.95605 0.68588 0.24883 0.0
H246 H 0.87358 0.51814 0.21469 0.0
H247 H 0.83805 0.71795 0.27009 0.0
H248 H 0.92488 0.63045 0.23175 0.0
H249 H 0.78232 0.62514 0.23763 0.0
C250 C 0.78554 0.56596 0.22569 0.0
C251 C 0.81078 0.53467 0.21941 0.0
C252 C 0.90573 0.6498 0.24003 0.0
C253 C 0.8447 0.60668 0.23286 0.0
C254 C 0.92348 0.68163 0.24976 0.0
C255 C 0.89971 0.70651 0.26108 0.0
C256 C 0.8638 0.64274 0.24153 0.0
C257 C 0.85763 0.69945 0.26164 0.0
C258 C 0.80233 0.60184 0.23245 0.0
C259 C 0.85293 0.54127 0.21948 0.0
N260 N 0.84107 0.66808 0.25211 0.0
N261 N 0.86854 0.57642 0.22618 0.0
H262 H 0.53707 0.20006 0.81077 0.0
H263 H 0.73348 0.2015 0.74575 0.0
H264 H 0.56805 0.29597 0.77306 0.0
H265 H 0.6886 0.09359 0.7724 0.0
H266 H 0.68078 0.2406 0.76112 0.0
H267 H 0.59973 0.16468 0.80193 0.0
C268 C 0.55728 0.21389 0.80084 0.0
C269 C 0.54717 0.25076 0.79248 0.0
C270 C 0.68269 0.20842 0.76376 0.0
C271 C 0.61864 0.21077 0.78243 0.0
C272 C 0.71293 0.18606 0.75504 0.0
C273 C 0.71518 0.14404 0.75758 0.0
C274 C 0.65443 0.18874 0.77515 0.0
C275 C 0.68777 0.12584 0.76989 0.0
C276 C 0.5929 0.19367 0.79576 0.0
C277 C 0.57438 0.26735 0.77968 0.0
N278 N 0.65826 0.14823 0.77808 0.0
N279 N 0.6087 0.24721 0.77502 0.0
H280 H 0.30623 0.05528 0.01826 0.0
H281 H 0.12345 0.21366 0.01554 0.0
H282 H 0.20332 0.04294 0.05459 0.0
H283 H 0.20127 0.18457 0.96983 0.0
H284 H 0.15963 0.16286 0.03423 0.0
H285 H 0.27588 0.11549 1.00514 0.0
C286 C 0.2773 0.06541 0.02362 0.0
C287 C 0.25695 0.04353 0.03735 0.0
C288 C 0.16887 0.16806 0.02016 0.0
C289 C 0.22184 0.11288 0.02221 0.0
C290 C 0.14853 0.1971 1.00957 0.0
C291 C 0.15938 0.20306 0.99112 0.0
C292 C 0.2007 0.14579 0.01227 0.0
C293 C 0.19176 0.18069 0.98395 0.0
C294 C 0.25997 0.09986 0.01607 0.0
C295 C 0.21986 0.05873 0.04392 0.0
N296 N 0.21123 0.15317 0.99451 0.0
N297 N 0.20316 0.09237 0.03613 0.0
H298 H 0.2085 0.89717 1.00934 0.0
H299 H 0.08201 0.69931 0.98196 0.0
H300 H 0.23476 0.77705 0.02922 0.0
H301 H 0.03936 0.82061 0.97176 0.0
H302 H 0.1452 0.72705 0.99397 0.0
H303 H 0.15388 0.8691 0.99041 0.0
C304 C 0.20326 0.86481 1.00951 0.0
C305 C 0.22607 0.83946 0.02104 0.0
C306 C 0.12223 0.74765 0.98896 0.0
C307 C 0.16349 0.80725 0.99943 0.0
C308 C 0.08607 0.73184 0.98203 0.0
C309 C 0.05502 0.75768 0.97602 0.0
C310 C 0.12761 0.7897 0.98992 0.0
C311 C 0.06235 0.79955 0.97633 0.0
C312 C 0.17192 0.84887 0.99876 0.0
C313 C 0.2178 0.7978 0.02068 0.0
N314 N 0.09776 0.81429 0.98335 0.0
N315 N 0.18707 0.78307 1.01016 0.0
H316 H 0.83077 0.80456 1.00399 0.0
H317 H 0.8729 1.00522 0.06098 0.0
H318 H 0.94822 0.8354 0.02633 0.0
H319 H 0.75203 0.96072 0.04996 0.0
H320 H 0.90065 0.94149 0.04965 0.0
H321 H 0.80067 0.85956 0.02185 0.0
C322 C 0.85016 0.82252 0.01282 0.0
C323 C 0.89218 0.81551 0.01352 0.0
C324 C 0.86802 0.94541 0.04993 0.0
C325 C 0.85796 0.87883 0.03385 0.0
C326 C 0.85215 0.98183 0.05642 0.0
C327 C 0.81009 0.98848 0.05632 0.0
C328 C 0.84171 0.91554 0.04303 0.0
C329 C 0.78467 0.95697 0.05028 0.0
C330 C 0.83294 0.85394 0.02302 0.0
C331 C 0.91574 0.83976 0.02524 0.0
N332 N 0.80089 0.92212 0.04363 0.0
N333 N 0.89841 0.87058 0.03475 0.0
H334 H 0.83162 0.11416 0.01771 0.0
H335 H 0.91495 0.30504 0.96222 0.0
H336 H 0.75647 0.21593 1.00307 0.0
H337 H 0.98491 0.19695 0.97202 0.0
H338 H 0.85508 0.27114 0.97485 0.0
H339 H 0.8864 0.14216 0.9991 0.0
C340 C 0.8265 0.14231 0.01048 0.0
C341 C 0.78942 0.1629 0.0121 0.0
C342 C 0.8834 0.25466 0.97404 0.0
C343 C 0.85241 0.19537 0.99076 0.0
C344 C 0.91764 0.27399 0.96679 0.0
C345 C 0.9552 0.25398 0.96621 0.0
C346 C 0.88673 0.2151 0.98089 0.0
C347 C 0.95671 0.21369 0.97227 0.0
C348 C 0.85785 0.15827 0.9998 0.0
C349 C 0.78455 0.19909 1.00227 0.0
N350 N 0.92312 0.19578 0.97954 0.0
N351 N 0.81584 0.21439 0.99217 0.0
H352 H 0.74316 0.78706 0.76699 0.0
H353 H 0.69764 0.99781 0.71841 0.0
H354 H 0.6222 0.83494 0.76046 0.0
H355 H 0.81302 0.93681 0.71424 0.0
H356 H 0.66875 0.9373 0.73271 0.0
H357 H 0.76897 0.84037 0.74678 0.0
C358 C 0.72195 0.8085 0.76118 0.0
C359 C 0.68047 0.80662 0.76556 0.0
C360 C 0.70026 0.93696 0.72845 0.0
C361 C 0.7099 0.86805 0.74253 0.0
C362 C 0.71677 0.97152 0.72025 0.0
C363 C 0.75792 0.97256 0.7152 0.0
C364 C 0.72515 0.90332 0.73186 0.0
C365 C 0.78119 0.93751 0.71794 0.0
C366 C 0.73671 0.83894 0.74961 0.0
C367 C 0.65444 0.83523 0.75754 0.0
N368 N 0.76464 0.90455 0.72628 0.0
N369 N 0.66963 0.86497 0.7466 0.0
H370 H 0.98148 0.32912 0.31055 0.0
H371 H 0.78035 0.3274 0.24923 0.0
H372 H 0.93324 0.22323 0.28356 0.0
H373 H 0.82728 0.43477 0.27549 0.0
H374 H 0.83124 0.28725 0.26524 0.0
H375 H 0.92066 0.36667 0.30142 0.0
C376 C 0.95788 0.3136 0.30295 0.0
C377 C 0.96271 0.2731 0.29762 0.0
C378 C 0.8302 0.31954 0.26768 0.0
C379 C 0.89324 0.31589 0.28704 0.0
C380 C 0.80105 0.34251 0.25854 0.0
C381 C 0.79978 0.38462 0.26085 0.0
C382 C 0.8586 0.33876 0.27914 0.0
C383 C 0.82727 0.40243 0.2732 0.0
C384 C 0.92321 0.33508 0.29769 0.0
C385 C 0.9311 0.25453 0.28779 0.0
N386 N 0.85585 0.37948 0.28171 0.0
N387 N 0.89798 0.27614 0.28269 0.0
H388 H 0.31593 0.0465 0.71662 0.0
H389 H 0.30947 0.19083 0.80303 0.0
H390 H 0.21248 0.05794 0.75264 0.0
H391 H 0.39066 0.21645 0.75804 0.0
H392 H 0.27481 0.1408 0.78422 0.0
H393 H 0.34522 0.10797 0.73056 0.0
C394 C 0.29914 0.06219 0.72722 0.0
C395 C 0.26203 0.04667 0.73369 0.0
C396 C 0.29987 0.15759 0.77828 0.0
C397 C 0.29527 0.11632 0.74966 0.0
C398 C 0.31971 0.18612 0.78907 0.0
C399 C 0.3529 0.2077 0.78206 0.0
C400 C 0.31382 0.14971 0.76043 0.0
C401 C 0.36494 0.2005 0.76386 0.0
C402 C 0.31583 0.09719 0.73515 0.0
C403 C 0.2415 0.06826 0.74741 0.0
N404 N 0.34577 0.17153 0.7537 0.0
N405 N 0.25857 0.10154 0.75504 0.0
H406 H 0.04048 0.70052 0.30394 0.0
H407 H 0.24487 0.73918 0.24771 0.0
H408 H 0.09117 0.81897 0.29371 0.0
H409 H 0.20134 0.62011 0.26227 0.0
H410 H 0.19241 0.76872 0.2672 0.0
H411 H 0.10249 0.6702 0.2916 0.0
C412 C 0.06486 0.72017 0.29938 0.0
C413 C 0.06037 0.76238 0.29968 0.0
C414 C 0.19459 0.73611 0.26631 0.0
C415 C 0.13126 0.72788 0.28534 0.0
C416 C 0.22461 0.7192 0.25517 0.0
C417 C 0.2273 0.67709 0.25317 0.0
C418 C 0.16674 0.71077 0.27541 0.0
C419 C 0.20028 0.65275 0.26329 0.0
C420 C 0.10025 0.70283 0.29228 0.0
C421 C 0.09304 0.78629 0.29359 0.0
N422 N 0.17085 0.66994 0.27378 0.0
N423 N 0.12683 0.76873 0.28649 0.0
H424 H 0.70222 0.52803 0.54689 0.0
H425 H 0.73982 0.74909 0.50522 0.0
H426 H 0.81994 0.58507 0.54278 0.0
H427 H 0.62166 0.69267 0.50865 0.0
H428 H 0.76832 0.69266 0.52258 0.0
H429 H 0.67082 0.59125 0.53664 0.0
C430 C 0.72142 0.55399 0.54414 0.0
C431 C 0.76383 0.55107 0.54553 0.0
C432 C 0.73607 0.69279 0.51969 0.0
C433 C 0.72815 0.62339 0.53361 0.0
C434 C 0.71975 0.72511 0.5098 0.0
C435 C 0.67833 0.72552 0.50528 0.0
C436 C 0.71088 0.66045 0.52507 0.0
C437 C 0.65383 0.69356 0.51167 0.0
C438 C 0.70349 0.59005 0.5382 0.0
C439 C 0.78716 0.58573 0.54172 0.0
N440 N 0.67052 0.66219 0.52107 0.0
N441 N 0.76908 0.62023 0.5358 0.0
H442 H 0.73929 0.32499 0.51193 0.0
H443 H 0.52518 0.32687 0.46039 0.0
H444 H 0.67692 0.43432 0.49621 0.0
H445 H 0.58645 0.21854 0.47825 0.0
H446 H 0.58521 0.36645 0.46897 0.0
H447 H 0.68855 0.2855 0.49531 0.0
C448 C 0.71523 0.34076 0.5048 0.0
C449 C 0.71212 0.38304 0.50568 0.0
C450 C 0.58568 0.33395 0.47078 0.0
C451 C 0.65358 0.3379 0.48671 0.0
C452 C 0.55146 0.31131 0.46582 0.0
C453 C 0.55055 0.26937 0.46883 0.0
C454 C 0.61918 0.3145 0.47881 0.0
C455 C 0.58555 0.25086 0.47589 0.0
C456 C 0.68617 0.31816 0.49531 0.0
C457 C 0.68036 0.40177 0.49605 0.0
N458 N 0.6182 0.27355 0.48081 0.0
N459 N 0.65208 0.37906 0.48714 0.0
H460 H 0.33199 0.48898 0.54959 0.0
H461 H 0.28306 0.27231 0.50676 0.0
H462 H 0.21735 0.4275 0.55713 0.0
H463 H 0.40359 0.32388 0.50848 0.0
H464 H 0.25894 0.32755 0.52623 0.0
H465 H 0.3596 0.42762 0.53568 0.0
C466 C 0.31277 0.46244 0.54856 0.0
C467 C 0.27219 0.46356 0.55447 0.0
C468 C 0.29076 0.32654 0.5225 0.0
C469 C 0.30347 0.39327 0.53828 0.0
C470 C 0.30455 0.29498 0.51136 0.0
C471 C 0.34538 0.2935 0.50584 0.0
C472 C 0.31787 0.35713 0.52803 0.0
C473 C 0.37182 0.32377 0.5123 0.0
C474 C 0.32854 0.42739 0.54058 0.0
C475 C 0.24877 0.42815 0.55274 0.0
N476 N 0.35754 0.35448 0.52287 0.0
N477 N 0.26458 0.39467 0.54463 0.0
H478 H 0.49183 0.69266 0.46131 0.0
H479 H 0.2863 0.69333 0.5196 0.0
H480 H 0.4373 0.7998 0.48435 0.0
H481 H 0.34115 0.58487 0.498 0.0
H482 H 0.33568 0.73372 0.50254 0.0
H483 H 0.43156 0.65383 0.47034 0.0
C484 C 0.46695 0.70816 0.46798 0.0
C485 C 0.46988 0.74944 0.4723 0.0
C486 C 0.33666 0.70109 0.50135 0.0
C487 C 0.40101 0.70517 0.4828 0.0
C488 C 0.30837 0.67798 0.51108 0.0
C489 C 0.30988 0.63559 0.51045 0.0
C490 C 0.36691 0.68174 0.49098 0.0
C491 C 0.33904 0.61745 0.49904 0.0
C492 C 0.43259 0.68595 0.4732 0.0
C493 C 0.43664 0.76794 0.48095 0.0
N494 N 0.36671 0.6406 0.48995 0.0
N495 N 0.40386 0.74562 0.48607 0.0
H496 H 0.29429 0.31054 0.42801 0.0
H497 H 0.21777 0.17054 0.34508 0.0
H498 H 0.35179 0.19875 0.41209 0.0
H499 H 0.16002 0.28298 0.35981 0.0
H500 H 0.26691 0.18078 0.36964 0.0
H501 H 0.24518 0.30165 0.40313 0.0
C502 C 0.29674 0.2842 0.41925 0.0
C503 C 0.3273 0.25534 0.42219 0.0
C504 C 0.24352 0.20326 0.36754 0.0
C505 C 0.27093 0.2449 0.39368 0.0
C506 C 0.21533 0.19741 0.3535 0.0
C507 C 0.1846 0.22594 0.35033 0.0
C508 C 0.24118 0.23794 0.37861 0.0
C509 C 0.18313 0.26016 0.36174 0.0
C510 C 0.2686 0.27912 0.40506 0.0
C511 C 0.32883 0.22181 0.41039 0.0
N512 N 0.21101 0.2652 0.37536 0.0
N513 N 0.30106 0.21751 0.39672 0.0
H514 H 0.15387 0.70465 0.59497 0.0
H515 H 0.27927 0.83832 0.66696 0.0
H516 H 0.27974 0.68043 0.60706 0.0
H517 H 0.14848 0.83486 0.66363 0.0
H518 H 0.28249 0.78555 0.64316 0.0
H519 H 0.1537 0.75715 0.61831 0.0
C520 C 0.18156 0.71031 0.60257 0.0
C521 C 0.21687 0.68796 0.59903 0.0
C522 C 0.25317 0.79648 0.64767 0.0
C523 C 0.21696 0.74873 0.62589 0.0
C524 C 0.25131 0.82676 0.66114 0.0
C525 C 0.21353 0.84107 0.6673 0.0
C526 C 0.21702 0.78088 0.64019 0.0
C527 C 0.17828 0.82476 0.65938 0.0
C528 C 0.18141 0.74036 0.61596 0.0
C529 C 0.25178 0.69676 0.60941 0.0
N530 N 0.18091 0.79574 0.64627 0.0
N531 N 0.25103 0.72665 0.62232 0.0
H532 H 0.73309 0.71465 0.43131 0.0
H533 H 0.78736 0.83458 0.33885 0.0
H534 H 0.66059 0.81178 0.4093 0.0
H535 H 0.86601 0.74458 0.3627 0.0
H536 H 0.73978 0.82487 0.36411 0.0
H537 H 0.78079 0.72306 0.40583 0.0
C538 C 0.72704 0.73762 0.42109 0.0
C539 C 0.69268 0.76255 0.4225 0.0
C540 C 0.76743 0.80722 0.36387 0.0
C541 C 0.7474 0.77241 0.39325 0.0
C542 C 0.79471 0.81275 0.34941 0.0
C543 C 0.83085 0.79035 0.3486 0.0
C544 C 0.77608 0.77895 0.3777 0.0
C545 C 0.83858 0.76255 0.36275 0.0
C546 C 0.75441 0.74247 0.40655 0.0
C547 C 0.6866 0.79186 0.40882 0.0
N548 N 0.81141 0.75759 0.37669 0.0
N549 N 0.71365 0.79596 0.39482 0.0
H550 H 0.78143 0.1646 0.65281 0.0
H551 H 0.78358 0.40172 0.62861 0.0
H552 H 0.79683 0.25958 0.69282 0.0
H553 H 0.78271 0.30825 0.58729 0.0
H554 H 0.78407 0.34955 0.65235 0.0
H555 H 0.77773 0.21621 0.62861 0.0
C556 C 0.78395 0.19622 0.65652 0.0
C557 C 0.78956 0.20768 0.67489 0.0
C558 C 0.78372 0.34039 0.63809 0.0
C559 C 0.78523 0.26689 0.64731 0.0
C560 C 0.78335 0.37024 0.6245 0.0
C561 C 0.78321 0.35948 0.60588 0.0
C562 C 0.7838 0.2993 0.6331 0.0
C563 C 0.78293 0.31805 0.60146 0.0
C564 C 0.78189 0.22567 0.6427 0.0
C565 C 0.79263 0.24917 0.67887 0.0
N566 N 0.78326 0.28953 0.61494 0.0
N567 N 0.79041 0.27713 0.66524 0.0
H568 H 0.14099 0.29015 0.90298 0.0
H569 H 0.3741 0.29171 0.87053 0.0
H570 H 0.24188 0.30258 0.94032 0.0
H571 H 0.27307 0.30666 0.83349 0.0
H572 H 0.32614 0.28904 0.89628 0.0
H573 H 0.18903 0.2895 0.87725 0.0
C574 C 0.1732 0.29262 0.90578 0.0
C575 C 0.18735 0.29661 0.92385 0.0
C576 C 0.31452 0.2929 0.8825 0.0
C577 C 0.24255 0.29569 0.89448 0.0
C578 C 0.34189 0.29434 0.8678 0.0
C579 C 0.32767 0.29961 0.84981 0.0
C580 C 0.27258 0.29635 0.8792 0.0
C581 C 0.28552 0.30281 0.84712 0.0
C582 C 0.20062 0.29234 0.89109 0.0
C583 C 0.2295 0.2997 0.92663 0.0
N584 N 0.25954 0.30107 0.8616 0.0
N585 N 0.25554 0.29912 0.91214 0.0
H586 H 0.37135 0.69601 0.17235 0.0
H587 H 0.24156 0.83768 0.1054 0.0
H588 H 0.24159 0.68234 0.1667 0.0
H589 H 0.37191 0.82533 0.10333 0.0
H590 H 0.23935 0.78563 0.12958 0.0
H591 H 0.37055 0.74795 0.14875 0.0
C592 C 0.34258 0.70387 0.16612 0.0
C593 C 0.30648 0.68461 0.17154 0.0
C594 C 0.26836 0.79445 0.1238 0.0
C595 C 0.30531 0.74477 0.14436 0.0
C596 C 0.26967 0.82429 0.11009 0.0
C597 C 0.30699 0.83592 0.1023 0.0
C598 C 0.30465 0.77656 0.12987 0.0
C599 C 0.34242 0.81734 0.10884 0.0
C600 C 0.34217 0.73361 0.15258 0.0
C601 C 0.27018 0.69622 0.16288 0.0
N602 N 0.34035 0.7888 0.1222 0.0
N603 N 0.27046 0.72571 0.14976 0.0
H604 H 0.87014 0.72697 0.90737 0.0
H605 H 0.6544 0.78423 0.86325 0.0
H606 H 0.7777 0.79323 0.93658 0.0
H607 H 0.73782 0.69863 0.83937 0.0
H608 H 0.70157 0.79351 0.88898 0.0
H609 H 0.82473 0.72248 0.88089 0.0
C610 C 0.84046 0.74089 0.90818 0.0
C611 C 0.82774 0.76039 0.92429 0.0
C612 C 0.7095 0.77272 0.87808 0.0
C613 C 0.77541 0.75523 0.89398 0.0
C614 C 0.68259 0.76744 0.86339 0.0
C615 C 0.69201 0.74048 0.84914 0.0
C616 C 0.74628 0.75117 0.87845 0.0
C617 C 0.72908 0.71958 0.85006 0.0
C618 C 0.81443 0.73815 0.89307 0.0
C619 C 0.7888 0.77775 0.9245 0.0
N620 N 0.75478 0.7254 0.86441 0.0
N621 N 0.76404 0.77471 0.90962 0.0
H622 H 0.74583 0.25315 0.081 0.0
H623 H 0.72092 0.27465 0.18987 0.0
H624 H 0.73011 0.15148 0.11752 0.0
H625 H 0.74215 0.37629 0.15389 0.0
H626 H 0.72471 0.22935 0.16356 0.0
H627 H 0.74515 0.29854 0.10741 0.0
C628 C 0.74232 0.24028 0.09458 0.0
C629 C 0.73794 0.1983 0.09699 0.0
C630 C 0.72862 0.26152 0.16138 0.0
C631 C 0.73705 0.25043 0.12741 0.0
C632 C 0.72644 0.28754 0.17643 0.0
C633 C 0.73114 0.3295 0.17413 0.0
C634 C 0.73547 0.2774 0.14378 0.0
C635 C 0.73831 0.34421 0.15634 0.0
C636 C 0.74195 0.26632 0.10967 0.0
C637 C 0.73357 0.18356 0.11496 0.0
N638 N 0.74015 0.31822 0.14186 0.0
N639 N 0.73313 0.20957 0.12944 0.0
H640 H 0.96763 0.91708 0.28756 0.0
H641 H 0.02648 0.1122 0.3473 0.0
H642 H 0.95491 0.92528 0.34637 0.0
H643 H 0.05285 0.10333 0.28943 0.0
H644 H 0.99747 0.04451 0.34652 0.0
H645 H 0.99529 0.98619 0.2872 0.0
C646 C 0.97028 0.93349 0.30036 0.0
C647 C 0.95896 0.91529 0.31703 0.0
C648 C 1.00964 0.05719 0.33396 0.0
C649 C 0.99079 0.99413 0.31672 0.0
C650 C 0.02631 0.09596 0.3344 0.0
C651 C 0.04224 0.11358 0.31841 0.0
C652 C 1.00858 0.03557 0.31739 0.0
C653 C 0.04107 0.09089 0.30211 0.0
C654 C 0.98629 0.97283 0.30015 0.0
C655 C 0.96332 0.93792 0.33319 0.0
N656 N 0.02443 0.05307 0.302 0.0
N657 N 0.97888 0.97598 0.33262 0.0
H658 H 0.90034 0.01984 0.75743 0.0
H659 H 0.10541 0.97965 0.70126 0.0
H660 H 0.92777 0.07409 0.70497 0.0
H661 H 0.08568 0.93572 0.75634 0.0
H662 H 0.03917 0.01226 0.70213 0.0
H663 H 0.96723 0.98776 0.75727 0.0
C664 C 0.9205 0.02528 0.74594 0.0
C665 C 0.90832 0.04972 0.73118 0.0
C666 C 0.04924 0.99547 0.71404 0.0
C667 C 0.98483 0.01268 0.73083 0.0
C668 C 0.08708 0.97664 0.71353 0.0
C669 C 0.10127 0.95486 0.72877 0.0
C670 C 0.02511 0.99252 0.72988 0.0
C671 C 0.07603 0.95216 0.74427 0.0
C672 C 0.95867 1.00684 0.74585 0.0
C673 C 0.93578 0.05556 0.71666 0.0
N674 N 0.0392 0.97079 0.74443 0.0
N675 N 0.97258 0.03704 0.71682 0.0
H676 H 0.04045 0.41929 0.98508 0.0
H677 H 0.95465 0.60496 0.92604 0.0
H678 H 0.0449 0.42754 0.926 0.0
H679 H 0.95665 0.60609 0.98525 0.0
H680 H 0.98455 0.53788 0.92635 0.0
H681 H 1.00812 0.48619 0.98603 0.0
C682 C 0.03489 0.4352 0.97234 0.0
C683 C 0.04542 0.41771 0.95543 0.0
C684 C 0.97839 0.55259 0.93932 0.0
C685 C 1.00815 0.49387 0.95642 0.0
C686 C 0.96112 0.59098 0.93916 0.0
C687 C 0.9532 0.61135 0.95565 0.0
C688 C 0.98804 0.53411 0.95611 0.0
C689 C 0.96219 0.59148 0.9722 0.0
C690 C 0.01631 0.47329 0.97289 0.0
C691 C 0.03733 0.43966 0.93936 0.0
N692 N 0.97933 0.55398 0.97202 0.0
N693 N 0.01917 0.47638 0.94027 0.0
H694 H 0.41099 0.98573 0.06679 0.0
H695 H 0.62707 0.99754 0.01696 0.0
H696 H 0.43751 0.92226 0.01647 0.0
H697 H 0.5908 0.0776 0.06072 0.0
H698 H 0.55874 0.96833 0.01684 0.0
H699 H 0.47792 0.01738 0.06542 0.0
C700 C 0.43094 0.97826 0.05547 0.0
C701 C 0.41852 0.95116 0.04173 0.0
C702 C 0.56565 0.99248 0.02637 0.0
C703 C 0.49547 0.9876 0.04007 0.0
C704 C 0.60467 1.00925 0.02644 0.0
C705 C 0.61481 0.04005 0.03891 0.0
C706 C 0.53656 1.00629 0.03899 0.0
C707 C 0.58443 0.05396 0.05086 0.0
C708 C 0.46914 0.99656 0.05466 0.0
C709 C 0.44575 0.94291 0.02737 0.0
N710 N 0.54684 0.03678 0.05069 0.0
N711 N 0.48297 0.96096 0.02694 0.0
H712 H 0.55449 0.40406 0.81147 0.0
H713 H 0.48417 0.63244 0.81543 0.0
H714 H 0.42968 0.43899 0.80322 0.0
H715 H 0.60656 0.59977 0.80048 0.0
H716 H 0.46401 0.56152 0.81298 0.0
H717 H 0.57476 0.47513 0.80927 0.0
C718 C 0.53134 0.42669 0.80911 0.0
C719 C 0.49027 0.41564 0.80764 0.0
C720 C 0.49521 0.56986 0.81011 0.0
C721 C 0.5133 0.49704 0.80531 0.0
C722 C 0.50684 0.61029 0.81162 0.0
C723 C 0.54721 0.62196 0.80828 0.0
C724 C 0.52428 0.5406 0.80557 0.0
C725 C 0.57516 0.59203 0.80318 0.0
C726 C 0.543 0.46721 0.80778 0.0
C727 C 0.46165 0.44619 0.80444 0.0
N728 N 0.56328 0.55258 0.8022 0.0
N729 N 0.47365 0.48559 0.80362 0.0
H730 H 0.61265 0.5018 0.26052 0.0
H731 H 0.41078 0.54563 0.20334 0.0
H732 H 0.5907 0.4547 0.2062 0.0
H733 H 0.41747 0.56258 0.26198 0.0
H734 H 0.47919 0.51757 0.20372 0.0
H735 H 0.54334 0.52853 0.26105 0.0
C736 C 0.59322 0.49685 0.24875 0.0
C737 C 0.60758 0.47598 0.23328 0.0
C738 C 0.46573 0.5274 0.21651 0.0
C739 C 0.52844 0.50696 0.23372 0.0
C740 C 0.4267 0.54368 0.21631 0.0
C741 C 0.40827 0.55652 0.23267 0.0
C742 C 0.48686 0.52424 0.23317 0.0
C743 C 0.43044 0.55301 0.24905 0.0
C744 C 0.55366 0.51213 0.24907 0.0
C745 C 0.58098 0.47051 0.21844 0.0
N746 N 0.46864 0.53731 0.24888 0.0
N747 N 0.54287 0.48615 0.21898 0.0
H748 H 0.46559 0.09827 0.42634 0.0
H749 H 0.55708 0.91682 0.4864 0.0
H750 H 0.46831 0.10173 0.48552 0.0
H751 H 0.5462 0.91644 0.4274 0.0
H752 H 0.52642 0.98461 0.48699 0.0
H753 H 0.49596 0.0315 0.42709 0.0
C754 C 0.47243 0.08492 0.43955 0.0
C755 C 0.46434 0.10578 0.4559 0.0
C756 C 0.53088 0.96961 0.47394 0.0
C757 C 0.49968 0.02871 0.45686 0.0
C758 C 0.54853 0.93103 0.47359 0.0
C759 C 0.55423 0.91084 0.45682 0.0
C760 C 0.51901 0.98806 0.45741 0.0
C761 C 0.54238 0.93064 0.44066 0.0
C762 C 0.4899 0.04663 0.43997 0.0
C763 C 0.47391 0.08669 0.47258 0.0
N764 N 0.52539 0.96794 0.44138 0.0
N765 N 0.49122 0.04923 0.47265 0.0
H766 H 0.92901 0.47816 0.58459 0.0
H767 H 0.11657 0.51383 0.51659 0.0
H768 H 0.92536 0.44369 0.52749 0.0
H769 H 0.10623 0.56771 0.57033 0.0
H770 H 0.04835 0.48498 0.52033 0.0
H771 H 0.99632 0.50693 0.57983 0.0
C772 C 0.94244 0.47641 0.57104 0.0
C773 C 0.92138 0.45848 0.55641 0.0
C774 C 0.06101 0.5033 0.53124 0.0
C775 C 0.99878 0.49172 0.55084 0.0
C776 C 0.09991 0.51984 0.52911 0.0
C777 C 0.11726 0.54319 0.54318 0.0
C778 C 0.03949 0.50989 0.54761 0.0
C779 C 0.09422 0.54992 0.5591 0.0
C780 C 0.98089 0.49307 0.56831 0.0
C781 C 0.94047 0.45722 0.53917 0.0
N782 N 0.05673 0.53318 0.56091 0.0
N783 N 0.97813 0.47363 0.53685 0.0
loop_
_geom_bond_atom_site_label_1
_geom_bond_atom_site_label_2
_geom_bond_distance
_geom_bond_site_symmetry_2
_ccdc_geom_bond_type
Mg0 O7 2.141 . S
Mg0 O8 2.048 . S
Mg0 O9 2.048 . S
Mg0 O12 2.141 . S
C1 O2 1.313 . S
C1 O8 1.195 . S
O2 C1 1.313 . S
C3 O4 1.245 . S
C3 O12 1.289 . S
O4 C3 1.245 . S
C5 O6 1.245 . S
C5 O7 1.289 . S
O6 C5 1.245 . S
O7 Mg0 2.141 . S
O7 C5 1.289 . S
O8 Mg0 2.048 . S
O8 C1 1.195 . S
O9 Mg0 2.048 . S
O9 C10 1.195 . S
C10 O9 1.195 . S
C10 O11 1.313 . S
O11 C10 1.313 . S
O12 Mg0 2.141 . S
O12 C3 1.289 . S
Mg13 O20 2.141 . S
Mg13 O21 2.048 . S
Mg13 O22 2.048 . S
Mg13 O25 2.141 . S
C14 O15 1.313 . S
C14 O21 1.195 . S
O15 C14 1.313 . S
C16 O17 1.245 . S
C16 O25 1.289 . S
O17 C16 1.245 . S
C18 O19 1.245 . S
C18 O20 1.289 . S
O19 C18 1.245 . S
O20 Mg13 2.141 . S
O20 C18 1.289 . S
O21 Mg13 2.048 . S
O21 C14 1.195 . S
O22 Mg13 2.048 . S
O22 C23 1.195 . S
C23 O22 1.195 . S
C23 O24 1.313 . S
O24 C23 1.313 . S
O25 Mg13 2.141 . S
O25 C16 1.289 . S
Mg26 O33 2.141 . S
Mg26 O34 2.048 . S
Mg26 O35 2.048 . S
Mg26 O38 2.141 . S
C27 O28 1.313 . S
C27 O34 1.195 . S
O28 C27 1.313 . S
C29 O30 1.245 . S
C29 O38 1.289 . S
O30 C29 1.245 . S
C31 O32 1.245 . S
C31 O33 1.289 . S
O32 C31 1.245 . S
O33 Mg26 2.141 . S
O33 C31 1.289 . S
O34 Mg26 2.048 . S
O34 C27 1.195 . S
O35 Mg26 2.048 . S
O35 C36 1.195 . S
C36 O35 1.195 . S
C36 O37 1.313 . S
O37 C36 1.313 . S
O38 Mg26 2.141 . S
O38 C29 1.289 . S
Mg39 O46 2.141 . S
Mg39 O47 2.048 . S
Mg39 O48 2.048 . S
Mg39 O51 2.141 . S
C40 O41 1.313 . S
C40 O47 1.195 . S
O41 C40 1.313 . S
C42 O43 1.245 . S
C42 O51 1.289 . S
O43 C42 1.245 . S
C44 O45 1.245 . S
C44 O46 1.289 . S
O45 C44 1.245 . S
O46 Mg39 2.141 . S
O46 C44 1.289 . S
O47 Mg39 2.048 . S
O47 C40 1.195 . S
O48 Mg39 2.048 . S
O48 C49 1.195 . S
C49 O48 1.195 . S
C49 O50 1.313 . S
O50 C49 1.313 . S
O51 Mg39 2.141 . S
O51 C42 1.289 . S
Mg52 O59 2.141 . S
Mg52 O60 2.048 . S
Mg52 O61 2.048 . S
Mg52 O64 2.141 . S
C53 O54 1.313 . S
C53 O60 1.195 . S
O54 C53 1.313 . S
C55 O56 1.245 . S
C55 O64 1.289 . S
O56 C55 1.245 . S
C57 O58 1.245 . S
C57 O59 1.289 . S
O58 C57 1.245 . S
O59 Mg52 2.141 . S
O59 C57 1.289 . S
O60 Mg52 2.048 . S
O60 C53 1.195 . S
O61 Mg52 2.048 . S
O61 C62 1.195 . S
C62 O61 1.195 . S
C62 O63 1.313 . S
O63 C62 1.313 . S
O64 Mg52 2.141 . S
O64 C55 1.289 . S
Mg65 O72 2.141 . S
Mg65 O73 2.048 . S
Mg65 O74 2.048 . S
Mg65 O77 2.141 . S
C66 O67 1.313 . S
C66 O73 1.195 . S
O67 C66 1.313 . S
C68 O69 1.245 . S
C68 O77 1.289 . S
O69 C68 1.245 . S
C70 O71 1.245 . S
C70 O72 1.289 . S
O71 C70 1.245 . S
O72 Mg65 2.141 . S
O72 C70 1.289 . S
O73 Mg65 2.048 . S
O73 C66 1.195 . S
O74 Mg65 2.048 . S
O74 C75 1.195 . S
C75 O74 1.195 . S
C75 O76 1.313 . S
O76 C75 1.313 . S
O77 Mg65 2.141 . S
O77 C68 1.289 . S
Mg78 O85 2.141 . S
Mg78 O86 2.048 . S
Mg78 O87 2.048 . S
Mg78 O90 2.141 . S
C79 O80 1.313 . S
C79 O86 1.195 . S
O80 C79 1.313 . S
C81 O82 1.245 . S
C81 O90 1.289 . S
O82 C81 1.245 . S
C83 O84 1.245 . S
C83 O85 1.289 . S
O84 C83 1.245 . S
O85 Mg78 2.141 . S
O85 C83 1.289 . S
O86 Mg78 2.048 . S
O86 C79 1.195 . S
O87 Mg78 2.048 . S
O87 C88 1.195 . S
C88 O87 1.195 . S
C88 O89 1.313 . S
O89 C88 1.313 . S
O90 Mg78 2.141 . S
O90 C81 1.289 . S
Mg91 O98 2.141 . S
Mg91 O99 2.048 . S
Mg91 O100 2.048 . S
Mg91 O103 2.141 . S
C92 O93 1.313 . S
C92 O99 1.195 . S
O93 C92 1.313 . S
C94 O95 1.245 . S
C94 O103 1.289 . S
O95 C94 1.245 . S
C96 O97 1.245 . S
C96 O98 1.289 . S
O97 C96 1.245 . S
O98 Mg91 2.141 . S
O98 C96 1.289 . S
O99 Mg91 2.048 . S
O99 C92 1.195 . S
O100 Mg91 2.048 . S
O100 C101 1.195 . S
C101 O100 1.195 . S
C101 O102 1.313 . S
O102 C101 1.313 . S
O103 Mg91 2.141 . S
O103 C94 1.289 . S
Mg104 O111 2.141 . S
Mg104 O112 2.048 . S
Mg104 O113 2.048 . S
Mg104 O116 2.141 . S
C105 O106 1.313 . S
C105 O112 1.195 . S
O106 C105 1.313 . S
C107 O108 1.245 . S
C107 O116 1.289 . S
O108 C107 1.245 . S
C109 O110 1.245 . S
C109 O111 1.289 . S
O110 C109 1.245 . S
O111 Mg104 2.141 . S
O111 C109 1.289 . S
O112 Mg104 2.048 . S
O112 C105 1.195 . S
O113 Mg104 2.048 . S
O113 C114 1.195 . S
C114 O113 1.195 . S
C114 O115 1.313 . S
O115 C114 1.313 . S
O116 Mg104 2.141 . S
O116 C107 1.289 . S
Mg117 O124 2.141 . S
Mg117 O125 2.048 . S
Mg117 O126 2.048 . S
Mg117 O129 2.141 . S
C118 O119 1.313 . S
C118 O125 1.195 . S
O119 C118 1.313 . S
C120 O121 1.245 . S
C120 O129 1.289 . S
O121 C120 1.245 . S
C122 O123 1.245 . S
C122 O124 1.289 . S
O123 C122 1.245 . S
O124 Mg117 2.141 . S
O124 C122 1.289 . S
O125 Mg117 2.048 . S
O125 C118 1.195 . S
O126 Mg117 2.048 . S
O126 C127 1.195 . S
C127 O126 1.195 . S
C127 O128 1.313 . S
O128 C127 1.313 . S
O129 Mg117 2.141 . S
O129 C120 1.289 . S
Mg130 O137 2.141 . S
Mg130 O138 2.048 . S
Mg130 O139 2.048 . S
Mg130 O142 2.141 . S
C131 O132 1.313 . S
C131 O138 1.195 . S
O132 C131 1.313 . S
C133 O134 1.245 . S
C133 O142 1.289 . S
O134 C133 1.245 . S
C135 O136 1.245 . S
C135 O137 1.289 . S
O136 C135 1.245 . S
O137 Mg130 2.141 . S
O137 C135 1.289 . S
O138 Mg130 2.048 . S
O138 C131 1.195 . S
O139 Mg130 2.048 . S
O139 C140 1.195 . S
C140 O139 1.195 . S
C140 O141 1.313 . S
O141 C140 1.313 . S
O142 Mg130 2.141 . S
O142 C133 1.289 . S
Mg143 O150 2.141 . S
Mg143 O151 2.048 . S
Mg143 O152 2.048 . S
Mg143 O155 2.141 . S
C144 O145 1.313 . S
C144 O151 1.195 . S
O145 C144 1.313 . S
C146 O147 1.245 . S
C146 O155 1.289 . S
O147 C146 1.245 . S
C148 O149 1.245 . S
C148 O150 1.289 . S
O149 C148 1.245 . S
O150 Mg143 2.141 . S
O150 C148 1.289 . S
O151 Mg143 2.048 . S
O151 C144 1.195 . S
O152 Mg143 2.048 . S
O152 C153 1.195 . S
C153 O152 1.195 . S
C153 O154 1.313 . S
O154 C153 1.313 . S
O155 Mg143 2.141 . S
O155 C146 1.289 . S
Mg156 O163 2.141 . S
Mg156 O164 2.048 . S
Mg156 O165 2.048 . S
Mg156 O168 2.141 . S
C157 O158 1.313 . S
C157 O164 1.195 . S
O158 C157 1.313 . S
C159 O160 1.245 . S
C159 O168 1.289 . S
O160 C159 1.245 . S
C161 O162 1.245 . S
C161 O163 1.289 . S
O162 C161 1.245 . S
O163 Mg156 2.141 . S
O163 C161 1.289 . S
O164 Mg156 2.048 . S
O164 C157 1.195 . S
O165 Mg156 2.048 . S
O165 C166 1.195 . S
C166 O165 1.195 . S
C166 O167 1.313 . S
O167 C166 1.313 . S
O168 Mg156 2.141 . S
O168 C159 1.289 . S
Mg169 O176 2.141 . S
Mg169 O177 2.048 . S
Mg169 O178 2.048 . S
Mg169 O181 2.141 . S
C170 O171 1.313 . S
C170 O177 1.195 . S
O171 C170 1.313 . S
C172 O173 1.245 . S
C172 O181 1.289 . S
O173 C172 1.245 . S
C174 O175 1.245 . S
C174 O176 1.289 . S
O175 C174 1.245 . S
O176 Mg169 2.141 . S
O176 C174 1.289 . S
O177 Mg169 2.048 . S
O177 C170 1.195 . S
O178 Mg169 2.048 . S
O178 C179 1.195 . S
C179 O178 1.195 . S
C179 O180 1.313 . S
O180 C179 1.313 . S
O181 Mg169 2.141 . S
O181 C172 1.289 . S
Mg182 O189 2.141 . S
Mg182 O190 2.048 . S
Mg182 O191 2.048 . S
Mg182 O194 2.141 . S
C183 O184 1.313 . S
C183 O190 1.195 . S
O184 C183 1.313 . S
C185 O186 1.245 . S
C185 O194 1.289 . S
O186 C185 1.245 . S
C187 O188 1.245 . S
C187 O189 1.289 . S
O188 C187 1.245 . S
O189 Mg182 2.141 . S
O189 C187 1.289 . S
O190 Mg182 2.048 . S
O190 C183 1.195 . S
O191 Mg182 2.048 . S
O191 C192 1.195 . S
C192 O191 1.195 . S
C192 O193 1.313 . S
O193 C192 1.313 . S
O194 Mg182 2.141 . S
O194 C185 1.289 . S
Mg195 O202 2.141 . S
Mg195 O203 2.048 . S
Mg195 O204 2.048 . S
Mg195 O207 2.141 . S
C196 O197 1.313 . S
C196 O203 1.195 . S
O197 C196 1.313 . S
C198 O199 1.245 . S
C198 O207 1.289 . S
O199 C198 1.245 . S
C200 O201 1.245 . S
C200 O202 1.289 . S
O201 C200 1.245 . S
O202 Mg195 2.141 . S
O202 C200 1.289 . S
O203 Mg195 2.048 . S
O203 C196 1.195 . S
O204 Mg195 2.048 . S
O204 C205 1.195 . S
C205 O204 1.195 . S
C205 O206 1.313 . S
O206 C205 1.313 . S
O207 Mg195 2.141 . S
O207 C198 1.289 . S
H208 C214 0.930 . S
H209 C218 0.930 . S
H210 C223 0.929 . S
H211 C221 0.929 . S
H212 C216 0.929 . S
H213 C222 0.929 . S
C214 H208 0.930 . S
C214 C215 1.367 . S
C214 C222 1.378 . S
C215 C214 1.367 . S
C215 C223 1.433 . S
C216 H212 0.929 . S
C216 C218 1.378 . S
C216 C220 1.350 . S
C217 C220 1.463 . S
C217 C222 1.350 . S
C217 N225 1.427 . S
C218 H209 0.930 . S
C218 C216 1.378 . S
C218 C219 1.367 . S
C219 C218 1.367 . S
C219 C221 1.433 . S
C220 C216 1.350 . S
C220 C217 1.463 . S
C220 N224 1.427 . S
C221 H211 0.929 . S
C221 C219 1.433 . S
C221 N224 1.384 . S
C222 H213 0.929 . S
C222 C214 1.378 . S
C222 C217 1.350 . S
C223 H210 0.929 . S
C223 C215 1.433 . S
C223 N225 1.384 . S
N224 C220 1.427 . S
N224 C221 1.384 . S
N225 C217 1.427 . S
N225 C223 1.384 . S
H226 C232 0.930 . S
H227 C236 0.930 . S
H228 C241 0.929 . S
H229 C239 0.929 . S
H230 C234 0.929 . S
H231 C240 0.929 . S
C232 H226 0.930 . S
C232 C233 1.367 . S
C232 C240 1.378 . S
C233 C232 1.367 . S
C233 C241 1.433 . S
C234 H230 0.929 . S
C234 C236 1.378 . S
C234 C238 1.350 . S
C235 C238 1.463 . S
C235 C240 1.350 . S
C235 N243 1.427 . S
C236 H227 0.930 . S
C236 C234 1.378 . S
C236 C237 1.367 . S
C237 C236 1.367 . S
C237 C239 1.433 . S
C238 C234 1.350 . S
C238 C235 1.463 . S
C238 N242 1.427 . S
C239 H229 0.929 . S
C239 C237 1.433 . S
C239 N242 1.384 . S
C240 H231 0.929 . S
C240 C232 1.378 . S
C240 C235 1.350 . S
C241 H228 0.929 . S
C241 C233 1.433 . S
C241 N243 1.384 . S
N242 C238 1.427 . S
N242 C239 1.384 . S
N243 C235 1.427 . S
N243 C241 1.384 . S
H244 C250 0.930 . S
H245 C254 0.930 . S
H246 C259 0.929 . S
H247 C257 0.929 . S
H248 C252 0.929 . S
H249 C258 0.929 . S
C250 H244 0.930 . S
C250 C251 1.367 . S
C250 C258 1.378 . S
C251 C250 1.367 . S
C251 C259 1.433 . S
C252 H248 0.929 . S
C252 C254 1.378 . S
C252 C256 1.350 . S
C253 C256 1.463 . S
C253 C258 1.350 . S
C253 N261 1.427 . S
C254 H245 0.930 . S
C254 C252 1.378 . S
C254 C255 1.367 . S
C255 C254 1.367 . S
C255 C257 1.433 . S
C256 C252 1.350 . S
C256 C253 1.463 . S
C256 N260 1.427 . S
C257 H247 0.929 . S
C257 C255 1.433 . S
C257 N260 1.384 . S
C258 H249 0.929 . S
C258 C250 1.378 . S
C258 C253 1.350 . S
C259 H246 0.929 . S
C259 C251 1.433 . S
C259 N261 1.384 . S
N260 C256 1.427 . S
N260 C257 1.384 . S
N261 C253 1.427 . S
N261 C259 1.384 . S
H262 C268 0.930 . S
H263 C272 0.930 . S
H264 C277 0.929 . S
H265 C275 0.929 . S
H266 C270 0.929 . S
H267 C276 0.929 . S
C268 H262 0.930 . S
C268 C269 1.367 . S
C268 C276 1.378 . S
C269 C268 1.367 . S
C269 C277 1.433 . S
C270 H266 0.929 . S
C270 C272 1.378 . S
C270 C274 1.350 . S
C271 C274 1.463 . S
C271 C276 1.350 . S
C271 N279 1.427 . S
C272 H263 0.930 . S
C272 C270 1.378 . S
C272 C273 1.367 . S
C273 C272 1.367 . S
C273 C275 1.433 . S
C274 C270 1.350 . S
C274 C271 1.463 . S
C274 N278 1.427 . S
C275 H265 0.929 . S
C275 C273 1.433 . S
C275 N278 1.384 . S
C276 H267 0.929 . S
C276 C268 1.378 . S
C276 C271 1.350 . S
C277 H264 0.929 . S
C277 C269 1.433 . S
C277 N279 1.384 . S
N278 C274 1.427 . S
N278 C275 1.384 . S
N279 C271 1.427 . S
N279 C277 1.384 . S
H280 C286 0.930 1_565 S
H281 C290 0.897 1_554 S
H282 C295 0.929 . S
H283 C293 0.929 . S
H284 C288 0.915 1_554 S
H285 C294 0.929 . S
C286 H280 0.930 1_545 S
C286 C287 1.367 1_556 S
C286 C294 1.378 . S
C287 C286 1.367 1_554 S
C287 C295 1.433 . S
C288 H284 0.915 1_556 S
C288 C290 1.383 . S
C288 C292 1.359 . S
C289 C292 1.463 . S
C289 C294 1.350 . S
C289 N297 1.427 1_556 S
C290 H281 0.897 1_556 S
C290 C288 1.383 . S
C290 C291 1.367 . S
C291 C290 1.367 . S
C291 C293 1.433 . S
C292 C288 1.359 . S
C292 C289 1.463 . S
C292 N296 1.427 . S
C293 H283 0.929 . S
C293 C291 1.433 . S
C293 N296 1.384 . S
C294 H285 0.929 . S
C294 C286 1.378 . S
C294 C289 1.350 . S
C295 H282 0.929 . S
C295 C287 1.433 . S
C295 N297 1.384 . S
N296 C292 1.427 . S
N296 C293 1.384 . S
N297 C289 1.427 1_554 S
N297 C295 1.384 . S
H298 C304 0.930 . S
H299 C308 0.930 . S
H300 C313 0.929 . S
H301 C311 0.929 1_655 S
H302 C306 0.929 . S
H303 C312 0.929 1_556 S
C304 H298 0.930 . S
C304 C305 1.367 . S
C304 C312 1.378 . S
C305 C304 1.367 . S
C305 C313 1.433 . S
C306 H302 0.929 . S
C306 C308 1.378 . S
C306 C310 1.350 . S
C307 C310 1.463 . S
C307 C312 1.350 . S
C307 N315 1.427 . S
C308 H299 0.930 . S
C308 C306 1.378 . S
C308 C309 1.367 1_554 S
C309 C308 1.367 1_556 S
C309 C311 1.433 . S
C310 C306 1.350 . S
C310 C307 1.463 . S
C310 N314 1.427 1_554 S
C311 H301 0.929 1_455 S
C311 C309 1.433 . S
C311 N314 1.384 . S
C312 H303 0.929 1_554 S
C312 C304 1.378 . S
C312 C307 1.350 . S
C313 H300 0.929 . S
C313 C305 1.433 . S
C313 N315 1.384 . S
N314 C310 1.427 1_556 S
N314 C311 1.384 . S
N315 C307 1.427 . S
N315 C313 1.384 . S
H316 C322 0.930 . S
H317 C326 0.930 1_545 S
H318 C331 0.929 . S
H319 C329 0.929 . S
H320 C324 0.929 . S
H321 C330 0.929 1_554 S
C322 H316 0.930 . S
C322 C323 1.367 . S
C322 C330 1.378 . S
C323 C322 1.367 . S
C323 C331 1.433 . S
C324 H320 0.929 . S
C324 C326 1.378 . S
C324 C328 1.350 . S
C325 C328 1.463 . S
C325 C330 1.350 . S
C325 N333 1.427 . S
C326 H317 0.930 1_565 S
C326 C324 1.378 . S
C326 C327 1.367 1_556 S
C327 C326 1.367 1_554 S
C327 C329 1.433 . S
C328 C324 1.350 . S
C328 C325 1.463 . S
C328 N332 1.427 1_556 S
C329 H319 0.929 . S
C329 C327 1.433 . S
C329 N332 1.384 . S
C330 H321 0.929 1_556 S
C330 C322 1.378 . S
C330 C325 1.350 . S
C331 H318 0.929 . S
C331 C323 1.433 . S
C331 N333 1.384 . S
N332 C328 1.427 1_554 S
N332 C329 1.384 . S
N333 C325 1.427 . S
N333 C331 1.384 . S
H334 C340 0.930 . S
H335 C344 0.930 . S
H336 C349 0.929 . S
H337 C347 0.908 1_455 S
H338 C342 0.929 . S
H339 C348 0.929 . S
C340 H334 0.930 . S
C340 C341 1.367 . S
C340 C348 1.378 . S
C341 C340 1.367 . S
C341 C349 1.433 . S
C342 H338 0.929 . S
C342 C344 1.378 . S
C342 C346 1.350 1_556 S
C343 C346 1.463 . S
C343 C348 1.350 . S
C343 N351 1.427 . S
C344 H335 0.930 . S
C344 C342 1.378 . S
C344 C345 1.367 . S
C345 C344 1.367 . S
C345 C347 1.437 1_556 S
C346 C342 1.350 1_554 S
C346 C343 1.463 . S
C346 N350 1.427 . S
C347 H337 0.908 1_655 S
C347 C345 1.437 1_554 S
C347 N350 1.403 . S
C348 H339 0.929 . S
C348 C340 1.378 . S
C348 C343 1.350 . S
C349 H336 0.929 . S
C349 C341 1.433 . S
C349 N351 1.384 . S
N350 C346 1.427 . S
N350 C347 1.403 . S
N351 C343 1.427 . S
N351 C349 1.384 . S
H352 C358 0.930 . S
H353 C362 0.930 . S
H354 C367 0.929 . S
H355 C365 0.929 1_545 S
H356 C360 0.929 . S
H357 C366 0.929 . S
C358 H352 0.930 . S
C358 C359 1.367 . S
C358 C366 1.378 . S
C359 C358 1.367 . S
C359 C367 1.433 . S
C360 H356 0.929 . S
C360 C362 1.378 . S
C360 C364 1.350 . S
C361 C364 1.463 . S
C361 C366 1.350 . S
C361 N369 1.427 . S
C362 H353 0.930 . S
C362 C360 1.378 . S
C362 C363 1.367 . S
C363 C362 1.367 . S
C363 C365 1.433 . S
C364 C360 1.350 . S
C364 C361 1.463 . S
C364 N368 1.427 . S
C365 H355 0.929 1_565 S
C365 C363 1.433 . S
C365 N368 1.384 . S
C366 H357 0.929 . S
C366 C358 1.378 . S
C366 C361 1.350 . S
C367 H354 0.929 . S
C367 C359 1.433 . S
C367 N369 1.384 . S
N368 C364 1.427 . S
N368 C365 1.384 . S
N369 C361 1.427 . S
N369 C367 1.384 . S
H370 C376 0.930 . S
H371 C380 0.930 . S
H372 C385 0.929 . S
H373 C383 0.929 . S
H374 C378 0.929 . S
H375 C384 0.929 . S
C376 H370 0.930 . S
C376 C377 1.367 . S
C376 C384 1.378 . S
C377 C376 1.367 . S
C377 C385 1.433 . S
C378 H374 0.929 . S
C378 C380 1.378 . S
C378 C382 1.350 . S
C379 C382 1.463 . S
C379 C384 1.350 . S
C379 N387 1.427 . S
C380 H371 0.930 . S
C380 C378 1.378 . S
C380 C381 1.367 . S
C381 C380 1.367 . S
C381 C383 1.433 . S
C382 C378 1.350 . S
C382 C379 1.463 . S
C382 N386 1.427 . S
C383 H373 0.929 . S
C383 C381 1.433 . S
C383 N386 1.384 . S
C384 H375 0.929 . S
C384 C376 1.378 . S
C384 C379 1.350 . S
C385 H372 0.929 . S
C385 C377 1.433 . S
C385 N387 1.384 . S
N386 C382 1.427 . S
N386 C383 1.384 . S
N387 C379 1.427 . S
N387 C385 1.384 . S
H388 C394 0.930 . S
H389 C398 0.930 . S
H390 C403 0.929 . S
H391 C401 0.929 . S
H392 C396 0.929 . S
H393 C402 0.929 . S
C394 H388 0.930 . S
C394 C395 1.367 . S
C394 C402 1.378 . S
C395 C394 1.367 . S
C395 C403 1.433 . S
C396 H392 0.929 . S
C396 C398 1.378 . S
C396 C400 1.350 . S
C397 C400 1.463 . S
C397 C402 1.350 . S
C397 N405 1.427 . S
C398 H389 0.930 . S
C398 C396 1.378 . S
C398 C399 1.367 . S
C399 C398 1.367 . S
C399 C401 1.433 . S
C400 C396 1.350 . S
C400 C397 1.463 . S
C400 N404 1.427 . S
C401 H391 0.929 . S
C401 C399 1.433 . S
C401 N404 1.384 . S
C402 H393 0.929 . S
C402 C394 1.378 . S
C402 C397 1.350 . S
C403 H390 0.929 . S
C403 C395 1.433 . S
C403 N405 1.384 . S
N404 C400 1.427 . S
N404 C401 1.384 . S
N405 C397 1.427 . S
N405 C403 1.384 . S
H406 C412 0.930 1_655 S
H407 C416 0.930 . S
H408 C421 0.929 . S
H409 C419 0.929 . S
H410 C414 0.929 . S
H411 C420 0.929 . S
C412 H406 0.930 1_455 S
C412 C413 1.367 . S
C412 C420 1.378 . S
C413 C412 1.367 . S
C413 C421 1.433 . S
C414 H410 0.929 . S
C414 C416 1.378 . S
C414 C418 1.350 . S
C415 C418 1.463 . S
C415 C420 1.350 . S
C415 N423 1.427 . S
C416 H407 0.930 . S
C416 C414 1.378 . S
C416 C417 1.367 . S
C417 C416 1.367 . S
C417 C419 1.433 . S
C418 C414 1.350 . S
C418 C415 1.463 . S
C418 N422 1.427 . S
C419 H409 0.929 . S
C419 C417 1.433 . S
C419 N422 1.384 . S
C420 H411 0.929 . S
C420 C412 1.378 . S
C420 C415 1.350 . S
C421 H408 0.929 . S
C421 C413 1.433 . S
C421 N423 1.384 . S
N422 C418 1.427 . S
N422 C419 1.384 . S
N423 C415 1.427 . S
N423 C421 1.384 . S
H424 C430 0.930 . S
H425 C434 0.930 . S
H426 C439 0.929 . S
H427 C437 0.929 . S
H428 C432 0.929 . S
H429 C438 0.929 . S
C430 H424 0.930 . S
C430 C431 1.367 . S
C430 C438 1.378 . S
C431 C430 1.367 . S
C431 C439 1.433 . S
C432 H428 0.929 . S
C432 C434 1.378 . S
C432 C436 1.350 . S
C433 C436 1.463 . S
C433 C438 1.350 . S
C433 N441 1.427 . S
C434 H425 0.930 . S
C434 C432 1.378 . S
C434 C435 1.367 . S
C435 C434 1.367 . S
C435 C437 1.433 . S
C436 C432 1.350 . S
C436 C433 1.463 . S
C436 N440 1.427 . S
C437 H427 0.929 . S
C437 C435 1.433 . S
C437 N440 1.384 . S
C438 H429 0.929 . S
C438 C430 1.378 . S
C438 C433 1.350 . S
C439 H426 0.929 . S
C439 C431 1.433 . S
C439 N441 1.384 . S
N440 C436 1.427 . S
N440 C437 1.384 . S
N441 C433 1.427 . S
N441 C439 1.384 . S
H442 C448 0.930 . S
H443 C452 0.930 . S
H444 C457 0.929 . S
H445 C455 0.929 . S
H446 C450 0.929 . S
H447 C456 0.929 . S
C448 H442 0.930 . S
C448 C449 1.367 . S
C448 C456 1.378 . S
C449 C448 1.367 . S
C449 C457 1.433 . S
C450 H446 0.929 . S
C450 C452 1.378 . S
C450 C454 1.350 . S
C451 C454 1.463 . S
C451 C456 1.350 . S
C451 N459 1.427 . S
C452 H443 0.930 . S
C452 C450 1.378 . S
C452 C453 1.367 . S
C453 C452 1.367 . S
C453 C455 1.433 . S
C454 C450 1.350 . S
C454 C451 1.463 . S
C454 N458 1.427 . S
C455 H445 0.929 . S
C455 C453 1.433 . S
C455 N458 1.384 . S
C456 H447 0.929 . S
C456 C448 1.378 . S
C456 C451 1.350 . S
C457 H444 0.929 . S
C457 C449 1.433 . S
C457 N459 1.384 . S
N458 C454 1.427 . S
N458 C455 1.384 . S
N459 C451 1.427 . S
N459 C457 1.384 . S
H460 C466 0.930 . S
H461 C470 0.930 . S
H462 C475 0.929 . S
H463 C473 0.929 . S
H464 C468 0.929 . S
H465 C474 0.929 . S
C466 H460 0.930 . S
C466 C467 1.367 . S
C466 C474 1.378 . S
C467 C466 1.367 . S
C467 C475 1.433 . S
C468 H464 0.929 . S
C468 C470 1.378 . S
C468 C472 1.350 . S
C469 C472 1.463 . S
C469 C474 1.350 . S
C469 N477 1.427 . S
C470 H461 0.930 . S
C470 C468 1.378 . S
C470 C471 1.367 . S
C471 C470 1.367 . S
C471 C473 1.433 . S
C472 C468 1.350 . S
C472 C469 1.463 . S
C472 N476 1.427 . S
C473 H463 0.929 . S
C473 C471 1.433 . S
C473 N476 1.384 . S
C474 H465 0.929 . S
C474 C466 1.378 . S
C474 C469 1.350 . S
C475 H462 0.929 . S
C475 C467 1.433 . S
C475 N477 1.384 . S
N476 C472 1.427 . S
N476 C473 1.384 . S
N477 C469 1.427 . S
N477 C475 1.384 . S
H478 C484 0.930 . S
H479 C488 0.930 . S
H480 C493 0.929 . S
H481 C491 0.929 . S
H482 C486 0.929 . S
H483 C492 0.929 . S
C484 H478 0.930 . S
C484 C485 1.367 . S
C484 C492 1.378 . S
C485 C484 1.367 . S
C485 C493 1.433 . S
C486 H482 0.929 . S
C486 C488 1.378 . S
C486 C490 1.350 . S
C487 C490 1.463 . S
C487 C492 1.350 . S
C487 N495 1.427 . S
C488 H479 0.930 . S
C488 C486 1.378 . S
C488 C489 1.367 . S
C489 C488 1.367 . S
C489 C491 1.433 . S
C490 C486 1.350 . S
C490 C487 1.463 . S
C490 N494 1.427 . S
C491 H481 0.929 . S
C491 C489 1.433 . S
C491 N494 1.384 . S
C492 H483 0.929 . S
C492 C484 1.378 . S
C492 C487 1.350 . S
C493 H480 0.929 . S
C493 C485 1.433 . S
C493 N495 1.384 . S
N494 C490 1.427 . S
N494 C491 1.384 . S
N495 C487 1.427 . S
N495 C493 1.384 . S
H496 C502 0.930 . S
H497 C506 0.930 . S
H498 C511 0.929 . S
H499 C509 0.929 . S
H500 C504 0.929 . S
H501 C510 0.929 . S
C502 H496 0.930 . S
C502 C503 1.367 . S
C502 C510 1.378 . S
C503 C502 1.367 . S
C503 C511 1.433 . S
C504 H500 0.929 . S
C504 C506 1.378 . S
C504 C508 1.350 . S
C505 C508 1.463 . S
C505 C510 1.350 . S
C505 N513 1.427 . S
C506 H497 0.930 . S
C506 C504 1.378 . S
C506 C507 1.367 . S
C507 C506 1.367 . S
C507 C509 1.433 . S
C508 C504 1.350 . S
C508 C505 1.463 . S
C508 N512 1.427 . S
C509 H499 0.929 . S
C509 C507 1.433 . S
C509 N512 1.384 . S
C510 H501 0.929 . S
C510 C502 1.378 . S
C510 C505 1.350 . S
C511 H498 0.929 . S
C511 C503 1.433 . S
C511 N513 1.384 . S
N512 C508 1.427 . S
N512 C509 1.384 . S
N513 C505 1.427 . S
N513 C511 1.384 . S
H514 C520 0.930 . S
H515 C524 0.930 . S
H516 C529 0.929 . S
H517 C527 0.929 . S
H518 C522 0.929 . S
H519 C528 0.929 . S
C520 H514 0.930 . S
C520 C521 1.367 . S
C520 C528 1.378 . S
C521 C520 1.367 . S
C521 C529 1.433 . S
C522 H518 0.929 . S
C522 C524 1.378 . S
C522 C526 1.350 . S
C523 C526 1.463 . S
C523 C528 1.350 . S
C523 N531 1.427 . S
C524 H515 0.930 . S
C524 C522 1.378 . S
C524 C525 1.367 . S
C525 C524 1.367 . S
C525 C527 1.433 . S
C526 C522 1.350 . S
C526 C523 1.463 . S
C526 N530 1.427 . S
C527 H517 0.929 . S
C527 C525 1.433 . S
C527 N530 1.384 . S
C528 H519 0.929 . S
C528 C520 1.378 . S
C528 C523 1.350 . S
C529 H516 0.929 . S
C529 C521 1.433 . S
C529 N531 1.384 . S
N530 C526 1.427 . S
N530 C527 1.384 . S
N531 C523 1.427 . S
N531 C529 1.384 . S
H532 C538 0.930 . S
H533 C542 0.930 . S
H534 C547 0.929 . S
H535 C545 0.929 . S
H536 C540 0.929 . S
H537 C546 0.929 . S
C538 H532 0.930 . S
C538 C539 1.367 . S
C538 C546 1.378 . S
C539 C538 1.367 . S
C539 C547 1.433 . S
C540 H536 0.929 . S
C540 C542 1.378 . S
C540 C544 1.350 . S
C541 C544 1.463 . S
C541 C546 1.350 . S
C541 N549 1.427 . S
C542 H533 0.930 . S
C542 C540 1.378 . S
C542 C543 1.367 . S
C543 C542 1.367 . S
C543 C545 1.433 . S
C544 C540 1.350 . S
C544 C541 1.463 . S
C544 N548 1.427 . S
C545 H535 0.929 . S
C545 C543 1.433 . S
C545 N548 1.384 . S
C546 H537 0.929 . S
C546 C538 1.378 . S
C546 C541 1.350 . S
C547 H534 0.929 . S
C547 C539 1.433 . S
C547 N549 1.384 . S
N548 C544 1.427 . S
N548 C545 1.384 . S
N549 C541 1.427 . S
N549 C547 1.384 . S
H550 C556 0.930 . S
H551 C560 0.930 . S
H552 C565 0.929 . S
H553 C563 0.929 . S
H554 C558 0.929 . S
H555 C564 0.929 . S
C556 H550 0.930 . S
C556 C557 1.367 . S
C556 C564 1.378 . S
C557 C556 1.367 . S
C557 C565 1.433 . S
C558 H554 0.929 . S
C558 C560 1.378 . S
C558 C562 1.350 . S
C559 C562 1.463 . S
C559 C564 1.350 . S
C559 N567 1.427 . S
C560 H551 0.930 . S
C560 C558 1.378 . S
C560 C561 1.367 . S
C561 C560 1.367 . S
C561 C563 1.433 . S
C562 C558 1.350 . S
C562 C559 1.463 . S
C562 N566 1.427 . S
C563 H553 0.929 . S
C563 C561 1.433 . S
C563 N566 1.384 . S
C564 H555 0.929 . S
C564 C556 1.378 . S
C564 C559 1.350 . S
C565 H552 0.929 . S
C565 C557 1.433 . S
C565 N567 1.384 . S
N566 C562 1.427 . S
N566 C563 1.384 . S
N567 C559 1.427 . S
N567 C565 1.384 . S
H568 C574 0.930 . S
H569 C578 0.930 . S
H570 C583 0.929 . S
H571 C581 0.929 . S
H572 C576 0.929 . S
H573 C582 0.929 . S
C574 H568 0.930 . S
C574 C575 1.367 . S
C574 C582 1.378 . S
C575 C574 1.367 . S
C575 C583 1.433 . S
C576 H572 0.929 . S
C576 C578 1.378 . S
C576 C580 1.350 . S
C577 C580 1.463 . S
C577 C582 1.350 . S
C577 N585 1.427 . S
C578 H569 0.930 . S
C578 C576 1.378 . S
C578 C579 1.367 . S
C579 C578 1.367 . S
C579 C581 1.433 . S
C580 C576 1.350 . S
C580 C577 1.463 . S
C580 N584 1.427 . S
C581 H571 0.929 . S
C581 C579 1.433 . S
C581 N584 1.384 . S
C582 H573 0.929 . S
C582 C574 1.378 . S
C582 C577 1.350 . S
C583 H570 0.929 . S
C583 C575 1.433 . S
C583 N585 1.384 . S
N584 C580 1.427 . S
N584 C581 1.384 . S
N585 C577 1.427 . S
N585 C583 1.384 . S
H586 C592 0.930 . S
H587 C596 0.930 . S
H588 C601 0.929 . S
H589 C599 0.929 . S
H590 C594 0.929 . S
H591 C600 0.929 . S
C592 H586 0.930 . S
C592 C593 1.367 . S
C592 C600 1.378 . S
C593 C592 1.367 . S
C593 C601 1.433 . S
C594 H590 0.929 . S
C594 C596 1.378 . S
C594 C598 1.350 . S
C595 C598 1.463 . S
C595 C600 1.350 . S
C595 N603 1.427 . S
C596 H587 0.930 . S
C596 C594 1.378 . S
C596 C597 1.367 . S
C597 C596 1.367 . S
C597 C599 1.433 . S
C598 C594 1.350 . S
C598 C595 1.463 . S
C598 N602 1.427 . S
C599 H589 0.929 . S
C599 C597 1.433 . S
C599 N602 1.384 . S
C600 H591 0.929 . S
C600 C592 1.378 . S
C600 C595 1.350 . S
C601 H588 0.929 . S
C601 C593 1.433 . S
C601 N603 1.384 . S
N602 C598 1.427 . S
N602 C599 1.384 . S
N603 C595 1.427 . S
N603 C601 1.384 . S
H604 C610 0.930 . S
H605 C614 0.930 . S
H606 C619 0.929 . S
H607 C617 0.929 . S
H608 C612 0.929 . S
H609 C618 0.929 . S
C610 H604 0.930 . S
C610 C611 1.367 . S
C610 C618 1.378 . S
C611 C610 1.367 . S
C611 C619 1.433 . S
C612 H608 0.929 . S
C612 C614 1.378 . S
C612 C616 1.350 . S
C613 C616 1.463 . S
C613 C618 1.350 . S
C613 N621 1.427 . S
C614 H605 0.930 . S
C614 C612 1.378 . S
C614 C615 1.367 . S
C615 C614 1.367 . S
C615 C617 1.433 . S
C616 C612 1.350 . S
C616 C613 1.463 . S
C616 N620 1.427 . S
C617 H607 0.929 . S
C617 C615 1.433 . S
C617 N620 1.384 . S
C618 H609 0.929 . S
C618 C610 1.378 . S
C618 C613 1.350 . S
C619 H606 0.929 . S
C619 C611 1.433 . S
C619 N621 1.384 . S
N620 C616 1.427 . S
N620 C617 1.384 . S
N621 C613 1.427 . S
N621 C619 1.384 . S
H622 C628 0.930 . S
H623 C632 0.930 . S
H624 C637 0.929 . S
H625 C635 0.929 . S
H626 C630 0.929 . S
H627 C636 0.929 . S
C628 H622 0.930 . S
C628 C629 1.367 . S
C628 C636 1.378 . S
C629 C628 1.367 . S
C629 C637 1.433 . S
C630 H626 0.929 . S
C630 C632 1.378 . S
C630 C634 1.350 . S
C631 C634 1.463 . S
C631 C636 1.350 . S
C631 N639 1.427 . S
C632 H623 0.930 . S
C632 C630 1.378 . S
C632 C633 1.367 . S
C633 C632 1.367 . S
C633 C635 1.433 . S
C634 C630 1.350 . S
C634 C631 1.463 . S
C634 N638 1.427 . S
C635 H625 0.929 . S
C635 C633 1.433 . S
C635 N638 1.384 . S
C636 H627 0.929 . S
C636 C628 1.378 . S
C636 C631 1.350 . S
C637 H624 0.929 . S
C637 C629 1.433 . S
C637 N639 1.384 . S
N638 C634 1.427 . S
N638 C635 1.384 . S
N639 C631 1.427 . S
N639 C637 1.384 . S
H640 C646 0.930 . S
H641 C650 0.930 . S
H642 C655 0.929 . S
H643 C653 0.929 . S
H644 C648 0.929 . S
H645 C654 0.929 . S
C646 H640 0.930 . S
C646 C647 1.367 . S
C646 C654 1.378 . S
C647 C646 1.367 . S
C647 C655 1.433 . S
C648 H644 0.929 . S
C648 C650 1.378 . S
C648 C652 1.350 . S
C649 C652 1.463 1_665 S
C649 C654 1.350 . S
C649 N657 1.427 . S
C650 H641 0.930 . S
C650 C648 1.378 . S
C650 C651 1.367 . S
C651 C650 1.367 . S
C651 C653 1.433 . S
C652 C648 1.350 . S
C652 C649 1.463 1_445 S
C652 N656 1.427 . S
C653 H643 0.929 . S
C653 C651 1.433 . S
C653 N656 1.384 . S
C654 H645 0.929 . S
C654 C646 1.378 . S
C654 C649 1.350 . S
C655 H642 0.929 . S
C655 C647 1.433 . S
C655 N657 1.384 . S
N656 C652 1.427 . S
N656 C653 1.384 . S
N657 C649 1.427 . S
N657 C655 1.384 . S
H658 C664 0.930 . S
H659 C668 0.930 . S
H660 C673 0.929 . S
H661 C671 0.929 . S
H662 C666 0.929 1_545 S
H663 C672 0.929 1_565 S
C664 H658 0.930 . S
C664 C665 1.367 . S
C664 C672 1.378 . S
C665 C664 1.367 . S
C665 C673 1.433 . S
C666 H662 0.929 1_565 S
C666 C668 1.378 . S
C666 C670 1.350 . S
C667 C670 1.463 1_645 S
C667 C672 1.350 . S
C667 N675 1.427 . S
C668 H659 0.930 . S
C668 C666 1.378 . S
C668 C669 1.367 . S
C669 C668 1.367 . S
C669 C671 1.433 . S
C670 C666 1.350 . S
C670 C667 1.463 1_465 S
C670 N674 1.427 . S
C671 H661 0.929 . S
C671 C669 1.433 . S
C671 N674 1.384 . S
C672 H663 0.929 1_545 S
C672 C664 1.378 . S
C672 C667 1.350 . S
C673 H660 0.929 . S
C673 C665 1.433 . S
C673 N675 1.384 . S
N674 C670 1.427 . S
N674 C671 1.384 . S
N675 C667 1.427 . S
N675 C673 1.384 . S
H676 C682 0.930 . S
H677 C686 0.930 . S
H678 C691 0.929 . S
H679 C689 0.929 . S
H680 C684 0.929 . S
H681 C690 0.929 . S
C682 H676 0.930 . S
C682 C683 1.367 . S
C682 C690 1.378 . S
C683 C682 1.367 . S
C683 C691 1.433 . S
C684 H680 0.929 . S
C684 C686 1.378 . S
C684 C688 1.350 . S
C685 C688 1.463 1_455 S
C685 C690 1.350 . S
C685 N693 1.427 1_455 S
C686 H677 0.930 . S
C686 C684 1.378 . S
C686 C687 1.367 . S
C687 C686 1.367 . S
C687 C689 1.433 . S
C688 C684 1.350 . S
C688 C685 1.463 1_655 S
C688 N692 1.427 1_655 S
C689 H679 0.929 . S
C689 C687 1.433 . S
C689 N692 1.384 1_655 S
C690 H681 0.929 . S
C690 C682 1.378 . S
C690 C685 1.350 . S
C691 H678 0.929 . S
C691 C683 1.433 . S
C691 N693 1.384 1_455 S
N692 C688 1.427 1_455 S
N692 C689 1.384 1_455 S
N693 C685 1.427 1_655 S
N693 C691 1.384 1_655 S
H694 C700 0.930 . S
H695 C704 0.930 . S
H696 C709 0.929 . S
H697 C707 0.929 . S
H698 C702 0.929 . S
H699 C708 0.929 . S
C700 H694 0.930 . S
C700 C701 1.367 . S
C700 C708 1.378 1_565 S
C701 C700 1.367 . S
C701 C709 1.433 . S
C702 H698 0.929 . S
C702 C704 1.378 1_565 S
C702 C706 1.350 1_565 S
C703 C706 1.463 1_565 S
C703 C708 1.350 1_565 S
C703 N711 1.427 . S
C704 H695 0.930 . S
C704 C702 1.378 1_545 S
C704 C705 1.367 . S
C705 C704 1.367 . S
C705 C707 1.433 . S
C706 C702 1.350 1_545 S
C706 C703 1.463 1_545 S
C706 N710 1.427 . S
C707 H697 0.929 . S
C707 C705 1.433 . S
C707 N710 1.384 . S
C708 H699 0.929 . S
C708 C700 1.378 1_545 S
C708 C703 1.350 1_545 S
C709 H696 0.929 . S
C709 C701 1.433 . S
C709 N711 1.384 . S
N710 C706 1.427 . S
N710 C707 1.384 . S
N711 C703 1.427 . S
N711 C709 1.384 . S
H712 C718 0.930 . S
H713 C722 0.930 . S
H714 C727 0.929 . S
H715 C725 0.929 . S
H716 C720 0.929 . S
H717 C726 0.929 . S
C718 H712 0.930 . S
C718 C719 1.367 . S
C718 C726 1.378 . S
C719 C718 1.367 . S
C719 C727 1.433 . S
C720 H716 0.929 . S
C720 C722 1.378 . S
C720 C724 1.350 . S
C721 C724 1.463 . S
C721 C726 1.350 . S
C721 N729 1.427 . S
C722 H713 0.930 . S
C722 C720 1.378 . S
C722 C723 1.367 . S
C723 C722 1.367 . S
C723 C725 1.433 . S
C724 C720 1.350 . S
C724 C721 1.463 . S
C724 N728 1.427 . S
C725 H715 0.929 . S
C725 C723 1.433 . S
C725 N728 1.384 . S
C726 H717 0.929 . S
C726 C718 1.378 . S
C726 C721 1.350 . S
C727 H714 0.929 . S
C727 C719 1.433 . S
C727 N729 1.384 . S
N728 C724 1.427 . S
N728 C725 1.384 . S
N729 C721 1.427 . S
N729 C727 1.384 . S
H730 C736 0.930 . S
H731 C740 0.930 . S
H732 C745 0.929 . S
H733 C743 0.929 . S
H734 C738 0.929 . S
H735 C744 0.929 . S
C736 H730 0.930 . S
C736 C737 1.367 . S
C736 C744 1.378 . S
C737 C736 1.367 . S
C737 C745 1.433 . S
C738 H734 0.929 . S
C738 C740 1.378 . S
C738 C742 1.350 . S
C739 C742 1.463 . S
C739 C744 1.350 . S
C739 N747 1.427 . S
C740 H731 0.930 . S
C740 C738 1.378 . S
C740 C741 1.367 . S
C741 C740 1.367 . S
C741 C743 1.433 . S
C742 C738 1.350 . S
C742 C739 1.463 . S
C742 N746 1.427 . S
C743 H733 0.929 . S
C743 C741 1.433 . S
C743 N746 1.384 . S
C744 H735 0.929 . S
C744 C736 1.378 . S
C744 C739 1.350 . S
C745 H732 0.929 . S
C745 C737 1.433 . S
C745 N747 1.384 . S
N746 C742 1.427 . S
N746 C743 1.384 . S
N747 C739 1.427 . S
N747 C745 1.384 . S
H748 C754 0.930 . S
H749 C758 0.930 . S
H750 C763 0.929 . S
H751 C761 0.929 . S
H752 C756 0.929 . S
H753 C762 0.929 . S
C754 H748 0.930 . S
C754 C755 1.367 . S
C754 C762 1.378 . S
C755 C754 1.367 . S
C755 C763 1.433 . S
C756 H752 0.929 . S
C756 C758 1.378 . S
C756 C760 1.350 . S
C757 C760 1.463 1_545 S
C757 C762 1.350 . S
C757 N765 1.427 . S
C758 H749 0.930 . S
C758 C756 1.378 . S
C758 C759 1.367 . S
C759 C758 1.367 . S
C759 C761 1.433 . S
C760 C756 1.350 . S
C760 C757 1.463 1_565 S
C760 N764 1.427 . S
C761 H751 0.929 . S
C761 C759 1.433 . S
C761 N764 1.384 . S
C762 H753 0.929 . S
C762 C754 1.378 . S
C762 C757 1.350 . S
C763 H750 0.929 . S
C763 C755 1.433 . S
C763 N765 1.384 . S
N764 C760 1.427 . S
N764 C761 1.384 . S
N765 C757 1.427 . S
N765 C763 1.384 . S
H766 C772 0.930 . S
H767 C776 0.930 . S
H768 C781 0.929 . S
H769 C779 0.929 . S
H770 C774 0.953 . S
H771 C780 0.953 . S
C772 H766 0.930 . S
C772 C773 1.367 . S
C772 C780 1.378 . S
C773 C772 1.367 . S
C773 C781 1.433 . S
C774 H770 0.953 . S
C774 C776 1.378 . S
C774 C778 1.350 . S
C775 C778 1.463 1_655 S
C775 C780 1.350 . S
C775 N783 1.427 . S
C776 H767 0.930 . S
C776 C774 1.378 . S
C776 C777 1.367 . S
C777 C776 1.367 . S
C777 C779 1.433 . S
C778 C774 1.350 . S
C778 C775 1.463 1_455 S
C778 N782 1.427 . S
C779 H769 0.929 . S
C779 C777 1.433 . S
C779 N782 1.384 . S
C780 H771 0.953 . S
C780 C772 1.378 . S
C780 C775 1.350 . S
C781 H768 0.929 . S
C781 C773 1.433 . S
C781 N783 1.384 . S
N782 C778 1.427 . S
N782 C779 1.384 . S
N783 C775 1.427 . S
N783 C781 1.384 . S
C215 C5 1.693 . S
C219 C144 1.689 . S
C233 C105 1.643 . S
C237 C18 1.662 . S
C251 C118 1.687 . S
C255 C31 1.691 . S
C269 C131 1.634 . S
C273 C44 1.660 . S
C287 C66 1.688 1_545 S
C291 C57 1.693 . S
C305 C70 1.659 . S
C309 C79 1.645 1_455 S
C323 C83 1.693 . S
C327 C92 1.688 1_565 S
C341 C96 1.664 . S
C345 C53 1.638 1_655 S
C359 C109 1.691 . S
C363 C40 1.686 1_565 S
C377 C1 1.633 1_655 S
C381 C122 1.661 . S
C395 C14 1.685 1_545 S
C399 C135 1.691 . S
C413 C27 1.645 1_455 S
C417 C148 1.654 . S
C431 C170 1.685 . S
C435 C161 1.692 . S
C449 C174 1.660 . S
C453 C183 1.633 . S
C467 C196 1.686 . S
C471 C187 1.691 . S
C485 C157 1.633 . S
C489 C200 1.660 . S
C503 C185 1.798 . S
C507 C3 1.800 . S
C521 C198 1.898 . S
C525 C16 1.895 . S
C539 C159 1.798 . S
C543 C29 1.805 . S
C557 C42 1.895 . S
C561 C172 1.898 . S
C575 C55 1.812 . S
C579 C133 1.805 . S
C593 C146 1.898 . S
C597 C68 1.895 . S
C611 C81 1.812 . S
C615 C107 1.806 . S
C629 C94 1.897 . S
C633 C120 1.899 . S
C647 C36 1.596 . S
C651 C10 1.599 . S
C665 C49 1.565 . S
C669 C23 1.575 . S
C683 C62 1.596 . S
C687 C88 1.599 . S
C701 C75 1.574 . S
C705 C101 1.566 . S
C719 C140 1.596 . S
C723 C114 1.594 . S
C737 C127 1.565 . S
C741 C153 1.575 . S
C755 C192 1.597 . S
C759 C166 1.595 . S
C773 C179 1.569 . S
C777 C205 1.568 . S
