# Generated by pormake.
# Topology smc, (6)-cn, num edge types: 1
# Building blocks:
#     Node 0, Type 0, BuildingBlock: KUMJIN_clean_sbu_1, # of connection points: 6
#     Node 1, Type 0, BuildingBlock: KUMJIN_clean_sbu_1, # of connection points: 6
#     Node 2, Type 0, BuildingBlock: KUMJIN_clean_sbu_1, # of connection points: 6
#     Node 3, Type 0, BuildingBlock: KUMJIN_clean_sbu_1, # of connection points: 6
#     Node 4, Type 0, BuildingBlock: KUMJIN_clean_sbu_1, # of connection points: 6
#     Node 5, Type 0, BuildingBlock: KUMJIN_clean_sbu_1, # of connection points: 6
#     Node 6, Type 0, BuildingBlock: KUMJIN_clean_sbu_1, # of connection points: 6
#     Node 7, Type 0, BuildingBlock: KUMJIN_clean_sbu_1, # of connection points: 6
#     Node 8, Type 0, BuildingBlock: KUMJIN_clean_sbu_1, # of connection points: 6
#     Edge 9, Type (0, 0), None
#     Edge 10, Type (0, 0), None
#     Edge 11, Type (0, 0), None
#     Edge 12, Type (0, 0), None
#     Edge 13, Type (0, 0), None
#     Edge 14, Type (0, 0), None
#     Edge 15, Type (0, 0), None
#     Edge 16, Type (0, 0), None
#     Edge 17, Type (0, 0), None
#     Edge 18, Type (0, 0), None
#     Edge 19, Type (0, 0), None
#     Edge 20, Type (0, 0), None
#     Edge 21, Type (0, 0), None
#     Edge 22, Type (0, 0), None
#     Edge 23, Type (0, 0), None
#     Edge 24, Type (0, 0), None
#     Edge 25, Type (0, 0), None
#     Edge 26, Type (0, 0), None
#     Edge 27, Type (0, 0), None
#     Edge 28, Type (0, 0), None
#     Edge 29, Type (0, 0), None
#     Edge 30, Type (0, 0), None
#     Edge 31, Type (0, 0), None
#     Edge 32, Type (0, 0), None
#     Edge 33, Type (0, 0), None
#     Edge 34, Type (0, 0), None
#     Edge 35, Type (0, 0), None
# Relax obj value: 0.184
# Max RMSD: 0.376
# Mean RMSD: 0.376
data_MOF--net-smc--node1-KUMJIN_clean_sbu_1--edge1-none
_symmetry_space_group_name_H-M    P1
_symmetry_Int_Tables_number       1
_symmetry_cell_setting            triclinic
loop_
_symmetry_equiv_pos_as_xyz
'x, y, z'
_cell_length_a     22.155745
_cell_length_b     22.213434
_cell_length_c     18.379973
_cell_angle_alpha  90.034928
_cell_angle_beta   90.01386
_cell_angle_gamma 120.0068
loop_
_atom_site_label
_atom_site_type_symbol
_atom_site_fract_x
_atom_site_fract_y
_atom_site_fract_z
_atom_type_partial_charge
Eu0 Eu 0.08082 0.40492 0.92856 0.0
C1 C 1.01855 0.65005 0.05485 0.0
N2 N 0.05462 0.60398 0.06343 0.0
C3 C 0.06675 0.60122 0.22125 0.0
C4 C 0.98873 0.68162 0.12304 0.0
C5 C 0.0857 0.58723 0.13381 0.0
C6 C 0.99629 0.6672 0.21253 0.0
C7 C 0.99646 0.7382 -0.01853 0.0
C8 C 1.00008 0.66161 -0.01601 0.0
C9 C 0.97647 0.75937 0.04324 0.0
C10 C 0.96718 0.72806 0.10919 0.0
Eu11 Eu 0.99304 0.50422 -0.03165 0.0
N12 N 0.99321 0.61219 0.91566 0.0
C13 C 0.99166 0.78095 0.9086 0.0
C14 C 0.98253 0.62829 0.82984 0.0
C15 C 0.98333 0.74867 0.82518 0.0
H16 H 0.12237 0.56905 0.12886 0.0
H17 H 0.97086 0.77333 0.78222 0.0
H18 H 0.94123 0.25843 0.86737 0.0
H19 H 0.24895 0.40414 0.12887 0.0
H20 H 0.96632 0.58881 0.78755 0.0
H21 H 0.98762 0.82695 0.91558 0.0
H22 H 0.21195 0.45965 0.0444 0.0
H23 H 0.08195 0.58315 0.26674 0.0
H24 H 0.96288 0.79985 0.03951 0.0
H25 H 0.94697 0.74383 0.15348 0.0
H26 H 0.93343 0.16379 0.79981 0.0
H27 H 0.97398 0.68602 0.25363 0.0
H28 H 0.24303 0.28987 0.09349 0.0
N29 N 0.04301 0.2885 0.90178 0.0
C30 C 0.0802 0.26066 0.92868 0.0
C31 C 0.97115 0.18493 0.83991 0.0
C32 C 0.06255 0.19159 0.91321 0.0
C33 C 0.98202 0.24626 0.86922 0.0
C34 C 1.01 0.15511 0.86306 0.0
N35 N 0.14735 0.36539 -0.01209 0.0
C36 C 0.19969 0.40685 0.03385 0.0
C37 C 0.17233 0.27361 0.00604 0.0
C38 C 0.13412 0.30055 -0.02662 0.0
C39 C 0.21771 0.31179 0.06179 0.0
C40 C 0.2259 0.37679 0.0791 0.0
H41 H 1.00057 0.10577 0.84198 0.0
H42 H 0.09403 0.11443 0.92573 0.0
H43 H 0.19116 0.18806 0.0073 0.0
O44 O 0.18531 0.48663 0.92451 0.0
O45 O 0.97024 0.33416 -0.01974 0.0
O46 O 0.91055 0.39386 -0.03429 0.0
O47 O 0.14605 0.4155 0.82997 0.0
O48 O 0.07179 0.38029 0.04378 0.0
O49 O 0.05279 0.47099 0.06969 0.0
O50 O 0.90545 0.51413 0.92313 0.0
O51 O 0.08666 0.56844 0.90875 0.0
O52 O 0.13835 0.51941 -0.02857 0.0
O53 O 0.89201 0.46015 0.02321 0.0
O54 O 0.99734 0.42524 0.86774 0.0
O55 O 0.99877 0.41974 0.86456 0.0
C56 C 0.91151 0.33712 -0.02111 0.0
C57 C 0.27504 0.50231 0.8452 0.0
C58 C 0.4004 0.55877 0.8783 0.0
C59 C 0.41392 0.60102 0.81798 0.0
C60 C 0.29339 0.5449 0.78472 0.0
C61 C 0.36055 0.59842 0.77596 0.0
C62 C 0.32914 0.5094 0.89366 0.0
C63 C 0.08114 0.4285 0.0885 0.0
C64 C 0.19981 0.46747 0.86369 0.0
C65 C 0.10383 0.16567 0.9405 0.0
C66 C 0.15978 0.20783 -0.0142 0.0
C67 C 0.13991 0.57514 0.94363 0.0
C68 C 0.82645 0.51883 0.01092 0.0
C69 C 0.77517 0.59456 -0.00214 0.0
C70 C 0.80981 0.62806 0.06127 0.0
C71 C 0.83373 0.53523 0.08488 0.0
C72 C 0.78548 0.53981 -0.02947 0.0
C73 C 0.83154 0.59356 0.10845 0.0
C74 C 0.94634 0.36979 0.82627 0.0
C75 C 0.86378 0.48416 -0.02175 0.0
H76 H 0.46611 0.62943 0.79787 0.0
H77 H 0.25405 0.53983 0.74684 0.0
H78 H 0.3715 0.63127 0.72924 0.0
H79 H 0.31628 0.47612 0.94084 0.0
H80 H 0.81033 0.67454 0.07893 0.0
H81 H 0.84329 0.50474 0.12371 0.0
H82 H 0.76547 0.51745 0.91748 0.0
H83 H 0.8473 0.61225 0.16326 0.0
Eu84 Eu 0.62996 0.68269 0.91375 0.0
C85 C 0.4133 0.37027 0.05361 0.0
N86 N 0.45271 0.45282 0.06118 0.0
C87 C 0.44932 0.47015 0.21957 0.0
C88 C 0.38452 0.31054 0.12396 0.0
C89 C 0.46459 0.5014 0.13075 0.0
C90 C 0.39363 0.33448 0.21442 0.0
C91 C 0.32978 0.25468 -0.0181 0.0
C92 C 0.39937 0.3392 -0.019 0.0
C93 C 0.31606 0.21533 0.04458 0.0
C94 C 0.34552 0.24162 0.11071 0.0
Eu95 Eu 0.54562 0.49684 0.95932 0.0
N96 N 0.44003 0.38422 0.90961 0.0
C97 C 0.28535 0.20362 0.91097 0.0
C98 C 0.41904 0.35635 0.82392 0.0
C99 C 0.30883 0.22966 0.82541 0.0
H100 H 0.47879 0.55511 0.12471 0.0
H101 H 0.28593 0.18964 0.7843 0.0
H102 H 0.76023 0.74403 0.78071 0.0
H103 H 0.62054 0.83737 0.12321 0.0
H104 H 0.4513 0.37813 0.77789 0.0
H105 H 0.24523 0.15051 0.92029 0.0
H106 H 0.56907 0.75017 0.03265 0.0
H107 H 0.46476 0.50423 0.26411 0.0
H108 H 0.2826 0.15971 0.04096 0.0
H109 H 0.33448 0.20809 0.15623 0.0
H110 H 0.88539 0.79345 0.79035 0.0
H111 H 0.3755 0.2944 0.25648 0.0
H112 H 0.73998 0.94653 0.09668 0.0
N113 N 0.7457 0.76723 0.8837 0.0
C114 C 0.77559 0.82336 0.92684 0.0
C115 C 0.85656 0.80219 0.8306 0.0
C116 C 0.84686 0.87378 0.92 0.0
C117 C 0.78443 0.76135 0.83114 0.0
C118 C 0.88869 0.86034 0.87459 0.0
N119 N 0.666 0.7836 -0.02039 0.0
C120 C 0.6222 0.79169 0.02509 0.0
C121 C 0.7591 0.89602 0.00946 0.0
C122 C 0.73319 0.83402 -0.02794 0.0
C123 C 0.71799 0.90067 0.06303 0.0
C124 C 0.65085 0.84398 0.07504 0.0
H125 H 0.94364 0.89743 0.86782 0.0
H126 H 0.92289 0.98115 0.93897 0.0
H127 H 0.84461 0.99853 0.01988 0.0
O128 O 0.54466 0.70282 0.91001 0.0
O129 O 0.71471 0.65911 0.96147 0.0
O130 O 0.65786 0.53905 -0.0249 0.0
O131 O 0.61674 0.73671 0.81658 0.0
O132 O 0.65723 0.6995 0.03155 0.0
O133 O 0.57487 0.58824 0.06115 0.0
O134 O 0.53907 0.39996 0.91484 0.0
O135 O 0.47547 0.5114 0.88815 0.0
O136 O 0.51215 0.61148 0.94822 0.0
O137 O 0.60444 0.45088 0.00429 0.0
O138 O 0.62284 0.58042 0.85874 0.0
O139 O 0.62799 0.58821 0.85545 0.0
C140 C 0.71383 0.59968 -0.0239 0.0
C141 C 0.52622 0.77527 0.82664 0.0
C142 C 0.46965 0.84702 0.84957 0.0
C143 C 0.43207 0.8196 0.78572 0.0
C144 C 0.4882 0.75244 0.76237 0.0
C145 C 0.43671 0.76839 0.74672 0.0
C146 C 0.51619 0.82269 0.87155 0.0
C147 C 0.61558 0.65888 0.08079 0.0
C148 C 0.56411 0.73787 0.84975 0.0
C149 C 0.87096 0.93876 0.95079 0.0
C150 C 0.82597 0.94963 -0.00557 0.0
C151 C 0.46192 0.55799 0.91125 0.0
C152 C 0.55329 0.3283 0.00533 0.0
C153 C 0.48092 0.20072 0.01234 0.0
C154 C 0.46136 0.20783 0.08181 0.0
C155 C 0.54829 0.329 0.08064 0.0
C156 C 0.52877 0.26216 -0.02693 0.0
C157 C 0.49669 0.2717 0.11646 0.0
C158 C 0.68427 0.59009 0.82595 0.0
C159 C 0.57848 0.39556 -0.03545 0.0
H160 H 0.40293 0.84157 0.76174 0.0
H161 H 0.49585 0.71903 0.72526 0.0
H162 H 0.40418 0.74545 0.69951 0.0
H163 H 0.54534 0.84156 0.92174 0.0
H164 H 0.42306 0.1632 0.111 0.0
H165 H 0.58067 0.37517 0.11105 0.0
H166 H 0.54032 0.25844 0.91651 0.0
H167 H 0.48294 0.27772 0.17078 0.0
Eu168 Eu 0.34712 0.96484 0.94414 0.0
C169 C 0.67288 0.04392 0.05656 0.0
N170 N 0.59006 1.0027 0.06598 0.0
C171 C 0.57616 0.98402 0.22461 0.0
C172 C 0.73517 0.07494 0.12589 0.0
C173 C 0.54309 0.96783 0.13691 0.0
C174 C 0.71324 0.06188 0.21681 0.0
C175 C 0.78483 0.0698 -0.01575 0.0
C176 C 0.70218 0.06009 -0.01619 0.0
C177 C 0.82716 0.09828 0.04489 0.0
C178 C 0.80396 0.10342 0.11162 0.0
Eu179 Eu 0.54298 0.04913 -0.0368 0.0
N180 N 0.65794 0.05955 0.91248 0.0
C181 C 0.83391 0.07335 0.9135 0.0
C182 C 0.68677 0.06765 0.82671 0.0
C183 C 0.80931 0.07491 0.82881 0.0
H184 H 0.48942 0.92772 0.13329 0.0
H185 H 0.84241 0.07864 0.78549 0.0
H186 H 0.30981 1.00042 0.792 0.0
H187 H 0.13883 0.82135 0.14365 0.0
H188 H 0.66657 0.0808 0.78109 0.0
H189 H 0.88436 0.07865 0.9228 0.0
H190 H 0.24227 0.84886 0.07493 0.0
H191 H 0.54212 0.96544 0.2701 0.0
H192 H 0.88281 0.12071 0.03907 0.0
H193 H 0.84032 0.1278 0.15562 0.0
H194 H 0.26021 0.0666 0.74426 0.0
H195 H 0.75428 0.08353 0.25812 0.0
H196 H 0.06715 0.87149 0.11284 0.0
N197 N 0.27074 0.99592 0.89255 0.0
C198 C 0.21426 0.98868 0.92853 0.0
C199 C 0.24457 0.04597 0.79537 0.0
C200 C 0.16746 1.00649 0.89617 0.0
C201 C 0.28045 0.01618 0.82438 0.0
C202 C 0.18512 0.03852 0.82889 0.0
N203 N 0.24052 0.92883 0.01229 0.0
C204 C 0.21618 0.87738 0.06344 0.0
C205 C 0.13113 0.92822 0.02214 0.0
C206 C 0.19716 0.95158 -0.00976 0.0
C207 C 0.11401 0.88646 0.08292 0.0
C208 C 0.15517 0.85861 0.10141 0.0
H209 H 0.14989 0.05014 0.79982 0.0
H210 H 0.0656 0.99761 0.90281 0.0
H211 H 0.03291 0.92758 0.01434 0.0
O212 O 0.33268 0.8672 -0.01408 0.0
O213 O 0.40175 0.07285 0.00373 0.0
O214 O 0.51146 0.1283 0.95344 0.0
O215 O 0.26098 0.86921 0.90284 0.0
O216 O 0.35758 0.99203 0.06046 0.0
O217 O 0.45052 0.97659 0.05869 0.0
O218 O 0.63802 0.14259 0.92077 0.0
O219 O 0.52791 0.9609 0.89852 0.0
O220 O 0.40696 0.90755 0.89699 0.0
O221 O 0.59247 0.14712 0.02157 0.0
O222 O 0.45159 0.04272 0.86617 0.0
O223 O 0.43722 0.0374 0.86236 0.0
C224 C 0.4609 0.13044 -0.01382 0.0
C225 C 0.26186 0.76419 0.92208 0.0
C226 C 0.20566 0.63908 0.93204 0.0
C227 C 0.24415 0.63915 0.8727 0.0
C228 C 0.29147 0.76102 0.85725 0.0
C229 C 0.28718 0.69954 0.8355 0.0
C230 C 0.21677 0.70277 0.95955 0.0
C231 C 0.38946 0.96543 0.09331 0.0
C232 C 0.27521 0.83121 0.94755 0.0
C233 C 0.10266 0.98588 0.92815 0.0
C234 C 0.08392 0.94564 -0.00894 0.0
C235 C 0.46724 0.90716 0.88549 0.0
C236 C 0.7156 0.22585 0.01083 0.0
C237 C 0.84342 0.28041 0.00368 0.0
C238 C 0.84119 0.24966 0.06984 0.0
C239 C 0.72331 0.22431 0.0859 0.0
C240 C 0.77855 0.26669 -0.0283 0.0
C241 C 0.78277 0.22712 0.1133 0.0
C242 C 0.4397 0.09389 0.83368 0.0
C243 C 0.64444 0.1815 -0.02296 0.0
H244 H 0.22815 0.5919 0.84497 0.0
H245 H 0.31291 0.80545 0.82211 0.0
H246 H 0.3083 0.69602 0.78447 0.0
H247 H 0.18683 0.70416 0.00547 0.0
H248 H 0.88604 0.24847 0.09049 0.0
H249 H 0.68202 0.21462 0.12271 0.0
H250 H 0.77721 0.28233 0.9162 0.0
H251 H 0.78225 0.20855 0.16723 0.0
Eu252 Eu 0.76267 0.74964 0.25642 0.0
C253 C 0.67318 0.97404 0.38859 0.0
N254 N 0.71678 0.93497 0.39437 0.0
C255 C 0.73773 0.93745 0.55298 0.0
C256 C 0.64093 1.00121 0.45937 0.0
C257 C 0.7546 0.92395 0.4636 0.0
C258 C 0.65526 0.99086 0.54874 0.0
C259 C 0.64393 0.05931 0.31996 0.0
C260 C 0.6555 0.98789 0.31771 0.0
C261 C 0.61342 0.06926 0.38127 0.0
C262 C 0.60963 0.03955 0.44716 0.0
Eu263 Eu 0.66459 0.83983 0.29156 0.0
N264 N 0.65581 0.94538 0.24623 0.0
C265 C 0.6386 0.10485 0.24989 0.0
C266 C 0.64637 0.96575 0.16151 0.0
C267 C 0.63628 0.0789 0.16404 0.0
H268 H 0.79523 0.91116 0.45684 0.0
H269 H 0.62852 0.10576 0.12099 0.0
H270 H 0.70181 0.63864 0.11617 0.0
H271 H 0.91563 0.74051 0.47122 0.0
H272 H 0.6344 0.93349 0.11616 0.0
H273 H 0.63284 0.14926 0.26098 0.0
H274 H 0.88883 0.79963 0.37934 0.0
H275 H 0.75833 0.92373 0.59714 0.0
H276 H 0.58806 0.0997 0.37639 0.0
H277 H 0.58475 0.04958 0.4922 0.0
H278 H 0.63133 0.51221 0.10639 0.0
H279 H 0.63302 1.00865 0.59087 0.0
H280 H 0.89962 0.62121 0.44431 0.0
N281 N 0.73454 0.63748 0.21889 0.0
C282 C 0.75361 0.60148 0.26287 0.0
C283 C 0.66555 0.5352 0.15042 0.0
C284 C 0.73186 0.53089 0.25 0.0
C285 C 0.69609 0.6064 0.16022 0.0
C286 C 0.68463 0.49681 0.19454 0.0
N287 N 0.82091 0.70538 0.3246 0.0
C288 C 0.87289 0.74542 0.37171 0.0
C289 C 0.83211 0.60656 0.35444 0.0
C290 C 0.80137 0.63776 0.31505 0.0
C291 C 0.87828 0.64492 0.40937 0.0
C292 C 0.89267 0.71291 0.42168 0.0
H293 H 0.66641 0.44267 0.18339 0.0
H294 H 0.74808 0.4454 0.27823 0.0
H295 H 0.83978 0.51497 0.3655 0.0
O296 O 0.86342 0.83922 0.26305 0.0
O297 O 0.65389 0.67222 0.30611 0.0
O298 O 0.59046 0.72931 0.30255 0.0
O299 O 0.84416 0.76363 0.17496 0.0
O300 O 0.74848 0.72447 0.37418 0.0
O301 O 0.72863 0.81409 0.39553 0.0
O302 O 0.57786 0.85173 0.24641 0.0
O303 O 0.74339 0.89907 0.21144 0.0
O304 O 0.8089 0.87007 0.27875 0.0
O305 O 0.55629 0.77827 0.32845 0.0
O306 O 0.67123 0.76051 0.18985 0.0
O307 O 0.67531 0.75358 0.18625 0.0
C308 C 0.59462 0.67374 0.31044 0.0
C309 C 0.96705 0.85681 0.20836 0.0
C310 C 0.07511 0.90878 0.27994 0.0
C311 C 0.08206 0.97401 0.26869 0.0
C312 C 0.99571 0.92124 0.176 0.0
C313 C 0.04046 0.97979 0.21629 0.0
C314 C 1.0099 0.8491 0.26072 0.0
C315 C 0.75555 0.77163 0.41941 0.0
C316 C 0.88938 0.82128 0.20922 0.0
C317 C 0.76208 0.49886 0.28879 0.0
C318 C 0.81387 0.53796 0.33918 0.0
C319 C 0.80392 0.91649 0.23656 0.0
C320 C 0.48638 0.83209 0.33038 0.0
C321 C 0.42938 0.90317 0.33881 0.0
C322 C 0.4584 0.92412 0.4074 0.0
C323 C 0.49511 0.83929 0.40521 0.0
C324 C 0.44343 0.85615 0.29833 0.0
C325 C 0.49003 0.89121 0.44036 0.0
C326 C 0.62009 0.69626 0.15968 0.0
C327 C 0.53 0.80834 0.29003 0.0
H328 H 0.12497 0.02072 0.29145 0.0
H329 H 0.97802 0.92446 0.12318 0.0
H330 H 0.04546 0.02923 0.20467 0.0
H331 H 0.99581 0.79823 0.28142 0.0
H332 H 0.45317 0.96334 0.43703 0.0
H333 H 0.51123 0.80876 0.43562 0.0
H334 H 0.42674 0.84401 0.24225 0.0
H335 H 0.51318 0.90756 0.49288 0.0
Eu336 Eu 0.3107 1.0133 0.25235 0.0
C337 C 0.07195 0.70029 0.38914 0.0
N338 N 0.12026 0.78204 0.40094 0.0
C339 C 0.1189 0.79247 0.55923 0.0
C340 C 0.03542 0.63652 0.45587 0.0
C341 C 0.13794 0.82794 0.47304 0.0
C342 C 0.04679 0.65586 0.54665 0.0
C343 C 0.98641 0.59211 0.31249 0.0
C344 C 0.06186 0.67301 0.31718 0.0
C345 C 0.96551 0.54825 0.3721 0.0
C346 C 0.992 0.56889 0.43958 0.0
Eu347 Eu 0.21773 0.82825 0.30433 0.0
N348 N 0.11093 0.71876 0.24984 0.0
C349 C 0.94402 0.54668 0.2392 0.0
C350 C 0.09475 0.69474 0.1629 0.0
C351 C 0.97521 0.57334 0.15685 0.0
H352 H 0.15884 0.88306 0.47081 0.0
H353 H 0.94962 0.53727 0.11359 0.0
H354 H 0.46946 0.04575 0.17546 0.0
H355 H 0.26882 0.16014 0.44895 0.0
H356 H 0.1325 0.72247 0.12003 0.0
H357 H 0.89792 0.49631 0.24502 0.0
H358 H 0.23161 0.07213 0.35789 0.0
H359 H 0.13648 0.82515 0.60598 0.0
H360 H 0.92819 0.49337 0.36555 0.0
H361 H 0.97455 0.53175 0.48243 0.0
H362 H 0.57255 0.15105 0.13951 0.0
H363 H 0.02432 0.61369 0.58664 0.0
H364 H 0.39493 0.26555 0.441 0.0
N365 N 0.42822 0.09965 0.23265 0.0
C366 C 0.44811 0.15937 0.26976 0.0
C367 C 0.54021 0.15249 0.17863 0.0
C368 C 0.51647 0.21675 0.26391 0.0
C369 C 0.47655 0.09415 0.19268 0.0
C370 C 0.56248 0.21325 0.21637 0.0
N371 N 0.33429 0.10994 0.31794 0.0
C372 C 0.28473 0.11409 0.35715 0.0
C373 C 0.4206 0.22307 0.35443 0.0
C374 C 0.40029 0.16408 0.3133 0.0
C375 C 0.37477 0.22209 0.40492 0.0
C376 C 0.30579 0.16638 0.40722 0.0
H377 H 0.61385 0.25749 0.20632 0.0
H378 H 0.58424 0.32463 0.28983 0.0
H379 H 0.50177 0.32516 0.37851 0.0
O380 O 0.22648 0.99942 0.17837 0.0
O381 O 0.39184 0.97776 0.27819 0.0
O382 O 0.32 0.89459 0.35677 0.0
O383 O 0.32041 0.09858 0.18347 0.0
O384 O 0.33978 0.03274 0.36969 0.0
O385 O 0.25137 0.92425 0.40109 0.0
O386 O 0.22883 0.74267 0.25401 0.0
O387 O 0.13945 0.85112 0.26307 0.0
O388 O 0.19984 0.9623 0.30604 0.0
O389 O 0.26559 0.7767 0.36168 0.0
O390 O 0.29234 0.90613 0.20072 0.0
O391 O 0.29743 0.91243 0.19765 0.0
C392 C 0.37732 0.92302 0.31892 0.0
C393 C 0.20952 0.09982 0.16788 0.0
C394 C 0.16351 0.17955 0.20505 0.0
C395 C 0.11958 0.15435 0.14518 0.0
C396 C 0.16253 0.07829 0.11079 0.0
C397 C 0.11659 0.10216 0.10119 0.0
C398 C 0.21103 0.15289 0.21611 0.0
C399 C 0.29725 0.99435 0.41932 0.0
C400 C 0.25524 0.06579 0.16465 0.0
C401 C 0.53424 0.27844 0.29918 0.0
C402 C 0.48662 0.28031 0.34626 0.0
C403 C 0.13996 0.90583 0.28792 0.0
C404 C 0.21777 0.65538 0.34193 0.0
C405 C 0.13861 0.52958 0.32636 0.0
C406 C 0.10484 0.5312 0.3895 0.0
C407 C 0.20358 0.64348 0.41633 0.0
C408 C 0.19355 0.59464 0.29892 0.0
C409 C 0.14185 0.58526 0.43846 0.0
C410 C 0.34525 0.90949 0.15615 0.0
C411 C 0.25242 0.72908 0.31329 0.0
H412 H 0.09188 0.18007 0.12821 0.0
H413 H 0.16509 0.04617 0.06955 0.0
H414 H 0.08202 0.08329 0.05512 0.0
H415 H 0.24998 0.17568 0.25814 0.0
H416 H 0.056 0.48689 0.40568 0.0
H417 H 0.23569 0.68216 0.45608 0.0
H418 H 0.21418 0.59776 0.24477 0.0
H419 H 0.12369 0.58127 0.49381 0.0
Eu420 Eu 0.0398 0.29119 0.25199 0.0
C421 C 0.34358 0.37638 0.38784 0.0
N422 N 0.26075 0.33459 0.39474 0.0
C423 C 0.2416 0.3144 0.55355 0.0
C424 C 0.403 0.40687 0.45868 0.0
C425 C 0.21105 0.29837 0.46414 0.0
C426 C 0.37852 0.39342 0.54876 0.0
C427 C 0.45938 0.40525 0.31701 0.0
C428 C 0.37538 0.39204 0.31504 0.0
C429 C 0.49875 0.43221 0.3797 0.0
C430 C 0.47225 0.43361 0.44632 0.0
Eu431 Eu 0.22247 0.38778 0.29154 0.0
N432 N 0.33207 0.39 0.24287 0.0
C433 C 0.51112 0.41153 0.24658 0.0
C434 C 0.36095 0.39787 0.15758 0.0
C435 C 0.48668 0.41152 0.1602 0.0
H436 H 0.15724 0.2586 0.45755 0.0
H437 H 0.52557 0.42621 0.11864 0.0
H438 H 0.96958 0.35293 0.11856 0.0
H439 H 0.89099 0.12425 0.46668 0.0
H440 H 0.3399 0.40928 0.11168 0.0
H441 H 0.56318 0.42169 0.25719 0.0
H442 H 0.97649 0.16025 0.37005 0.0
H443 H 0.2062 0.29561 0.59799 0.0
H444 H 0.55457 0.45484 0.37626 0.0
H445 H 0.50689 0.45688 0.49165 0.0
H446 H 0.91403 0.42262 0.12824 0.0
H447 H 0.41867 0.41544 0.59101 0.0
H448 H 0.78931 0.14705 0.45217 0.0
N449 N 0.95148 0.31755 0.22302 0.0
C450 C 0.89565 0.28868 0.26684 0.0
C451 C 0.90916 0.38727 0.16954 0.0
C452 C 0.84221 0.30537 0.26048 0.0
C453 C 0.95338 0.35983 0.16967 0.0
C454 C 0.85188 0.35925 0.21499 0.0
N455 N 0.94106 0.22363 0.32065 0.0
C456 C 0.93523 0.17272 0.36642 0.0
C457 C 0.82963 0.20368 0.35568 0.0
C458 C 0.88881 0.23799 0.31375 0.0
C459 C 0.83144 0.16598 0.41398 0.0
C460 C 0.88618 0.15162 0.42065 0.0
H461 H 0.81252 0.3743 0.20917 0.0
H462 H 0.73319 0.26642 0.27817 0.0
H463 H 0.72516 0.18072 0.36937 0.0
O464 O 0.02373 0.18906 0.24107 0.0
O465 O 0.07083 0.40144 0.30275 0.0
O466 O 0.19013 0.46729 0.28656 0.0
O467 O 0.9779 0.22657 0.15723 0.0
O468 O 1.02104 0.3024 0.36866 0.0
O469 O 0.13097 0.32659 0.39374 0.0
O470 O 0.32023 0.47871 0.24799 0.0
O471 O 0.21324 0.30335 0.22144 0.0
O472 O 0.11001 0.23861 0.27728 0.0
O473 O 0.27804 0.48789 0.34704 0.0
O474 O 0.1376 0.38121 0.19049 0.0
O475 O 0.1297 0.37901 0.18729 0.0
C476 C 0.13064 0.46257 0.30215 0.0
C477 C 0.93971 0.09962 0.16719 0.0
C478 C 0.865 0.97553 0.2003 0.0
C479 C 0.88933 0.95888 0.13853 0.0
C480 C 0.96042 0.079 0.10541 0.0
C481 C 0.9414 1.01049 0.09582 0.0
C482 C 0.89175 0.04743 0.21638 0.0
C483 C 0.06176 0.30027 0.41677 0.0
C484 C 0.98381 0.17439 0.18417 0.0
C485 C 0.77811 0.26175 0.29201 0.0
C486 C 0.77221 0.2106 0.33989 0.0
C487 C 0.16522 0.2423 0.24164 0.0
C488 C 0.40015 0.5592 0.33905 0.0
C489 C 0.52773 0.61502 0.33292 0.0
C490 C 0.52622 0.58424 0.39864 0.0
C491 C 0.40637 0.55187 0.41372 0.0
C492 C 0.46325 0.60352 0.30222 0.0
C493 C 0.46784 0.56057 0.44229 0.0
C494 C 0.12514 0.43186 0.15907 0.0
C495 C 0.3297 0.51934 0.30323 0.0
H496 H 0.86728 0.90515 0.12194 0.0
H497 H 0.99469 0.11661 0.06572 0.0
H498 H 0.96389 0.99688 0.05133 0.0
H499 H 0.87461 0.06229 0.26478 0.0
H500 H 0.57257 0.58692 0.4199 0.0
H501 H 0.36406 0.5372 0.45017 0.0
H502 H 0.46233 0.62261 0.24824 0.0
H503 H 0.46891 0.54531 0.49765 0.0
Eu504 Eu 0.42554 0.08511 0.58906 0.0
C505 C 0.33823 0.30425 0.72042 0.0
N506 N 0.38254 0.26595 0.7256 0.0
C507 C 0.40575 0.26811 0.88366 0.0
C508 C 0.30704 0.33125 0.79187 0.0
C509 C 0.42157 0.25484 0.79366 0.0
C510 C 0.32267 0.32098 0.88146 0.0
C511 C 0.30759 0.38932 0.65071 0.0
C512 C 0.31998 0.31841 0.64893 0.0
C513 C 0.2807 0.4014 0.71365 0.0
C514 C 0.27757 0.37142 0.77969 0.0
Eu515 Eu 0.32628 0.17076 0.62575 0.0
N516 N 0.32146 0.27662 0.57751 0.0
C517 C 0.30186 0.43459 0.5798 0.0
C518 C 0.31365 0.29719 0.49266 0.0
C519 C 0.30205 0.40975 0.49371 0.0
H520 H 0.46009 0.23932 0.78534 0.0
H521 H 0.28637 0.43369 0.45276 0.0
H522 H 0.2806 0.9317 0.53499 0.0
H523 H 0.57046 0.07066 0.80804 0.0
H524 H 0.2987 0.2629 0.44863 0.0
H525 H 0.29043 0.47561 0.58965 0.0
H526 H 0.54571 0.1349 0.71846 0.0
H527 H 0.42517 0.25169 0.92734 0.0
H528 H 0.2567 0.43319 0.70991 0.0
H529 H 0.25283 0.38088 0.82501 0.0
H530 H 0.26202 0.82678 0.4812 0.0
H531 H 0.3003 0.33793 0.92433 0.0
H532 H 0.5683 0.96046 0.76921 0.0
N533 N 0.38682 0.96743 0.55972 0.0
C534 C 0.426 0.94157 0.58623 0.0
C535 C 0.30683 0.85565 0.51279 0.0
C536 C 0.40722 0.8713 0.57451 0.0
C537 C 0.32243 0.92127 0.53453 0.0
C538 C 0.34926 0.82947 0.5324 0.0
N539 N 0.49033 0.04577 0.65125 0.0
C540 C 0.53561 0.08317 0.7054 0.0
C541 C 0.51235 0.9527 0.67127 0.0
C542 C 0.47862 0.98176 0.63375 0.0
C543 C 0.54774 0.98517 0.73459 0.0
C544 C 0.55217 0.04779 0.75517 0.0
H545 H 0.33563 0.77694 0.51767 0.0
H546 H 0.43887 0.79476 0.58914 0.0
H547 H 0.52929 0.86686 0.67693 0.0
O548 O 0.53274 0.16584 0.588 0.0
O549 O 0.31803 1.00976 0.64268 0.0
O550 O 0.24958 0.05755 0.61492 0.0
O551 O 0.49126 0.09535 0.49239 0.0
O552 O 0.411 0.05655 0.70563 0.0
O553 O 0.38219 0.13959 0.73131 0.0
O554 O 0.23573 0.17905 0.58365 0.0
O555 O 0.4135 0.24185 0.55827 0.0
O556 O 0.47413 0.2035 0.62175 0.0
O557 O 0.22515 0.12187 0.67852 0.0
O558 O 0.33947 0.09779 0.52355 0.0
O559 O 0.34205 0.09228 0.52038 0.0
C560 C 0.25598 1.00428 0.6331 0.0
C561 C 0.61974 0.18217 0.50097 0.0
C562 C 0.74697 0.24119 0.52442 0.0
C563 C 0.75646 0.28076 0.46284 0.0
C564 C 0.6339 0.21946 0.43639 0.0
C565 C 0.70047 0.27315 0.42207 0.0
C566 C 0.67702 0.19301 0.54584 0.0
C567 C 0.41037 0.09835 0.75352 0.0
C568 C 0.54604 0.14627 0.52614 0.0
C569 C 0.44845 0.84626 0.60284 0.0
C570 C 0.50199 0.88823 0.65017 0.0
C571 C 0.47286 0.2541 0.58338 0.0
C572 C 0.15514 0.17326 0.6768 0.0
C573 C 0.09395 0.23929 0.67947 0.0
C574 C 0.12106 0.26392 0.74792 0.0
C575 C 0.16455 0.18474 0.7516 0.0
C576 C 0.11011 0.19234 0.64304 0.0
C577 C 0.1541 0.23444 0.78451 0.0
C578 C 0.29015 0.03773 0.48661 0.0
C579 C 0.19434 0.14457 0.63722 0.0
H580 H 0.80718 0.30955 0.43888 0.0
H581 H 0.59248 0.21039 0.39889 0.0
H582 H 0.70967 0.30537 0.37492 0.0
H583 H 0.6673 0.16356 0.59569 0.0
H584 H 0.11163 0.30127 0.77537 0.0
H585 H 0.18198 0.15759 0.78504 0.0
H586 H 0.09335 0.1767 0.5874 0.0
H587 H 0.17429 0.25195 0.83823 0.0
Eu588 Eu 0.9883 0.3639 0.60552 0.0
C589 C 0.73778 0.03852 0.72178 0.0
N590 N 0.78089 0.12136 0.73044 0.0
C591 C 0.77643 0.13704 0.88879 0.0
C592 C 0.70536 0.97726 0.79193 0.0
C593 C 0.79347 0.16905 0.80061 0.0
C594 C 0.71495 1.00027 0.88261 0.0
C595 C 0.66006 0.92337 0.6492 0.0
C596 C 0.72945 1.00816 0.64964 0.0
C597 C 0.64477 0.88276 0.71106 0.0
C598 C 0.66797 0.90825 0.7787 0.0
Eu599 Eu 0.8787 0.1683 0.63122 0.0
N600 N 0.77237 0.054 0.57897 0.0
C601 C 0.61683 0.87305 0.57785 0.0
C602 C 0.75253 0.02603 0.4931 0.0
C603 C 0.64166 0.89945 0.49312 0.0
H604 H 0.80914 0.22313 0.79565 0.0
H605 H 0.61709 0.86182 0.45054 0.0
H606 H 0.06443 0.40155 0.45195 0.0
H607 H 0.05081 0.57421 0.79587 0.0
H608 H 0.78559 0.04724 0.44809 0.0
H609 H 0.57523 0.8208 0.58703 0.0
H610 H 0.9763 0.46625 0.73498 0.0
H611 H 0.79236 0.17154 0.93362 0.0
H612 H 0.61396 0.82696 0.70588 0.0
H613 H 0.65575 0.87333 0.82396 0.0
H614 H 0.18412 0.44389 0.41112 0.0
H615 H 0.69545 0.95982 0.92436 0.0
H616 H 0.17135 0.64487 0.76659 0.0
N617 N 0.09663 0.43779 0.55409 0.0
C618 C 0.14661 0.49195 0.59203 0.0
C619 C 0.17609 0.46069 0.46053 0.0
C620 C 0.21263 0.53707 0.56151 0.0
C621 C 0.10876 0.42827 0.48628 0.0
C622 C 0.22827 0.51854 0.49554 0.0
N623 N 0.05897 0.46849 0.67324 0.0
C624 C 0.03092 0.49354 0.72233 0.0
C625 C 0.16885 0.57579 0.68417 0.0
C626 C 0.12611 0.50982 0.65301 0.0
C627 C 0.14136 0.59636 0.73945 0.0
C628 C 0.07218 0.55619 0.75666 0.0
H629 H 0.27707 0.55171 0.46876 0.0
H630 H 0.30506 0.63888 0.56716 0.0
H631 H 0.26598 0.67381 0.67471 0.0
O632 O 0.90401 0.37949 0.64479 0.0
O633 O 0.04126 0.31235 0.66787 0.0
O634 O 0.98992 0.20229 0.61972 0.0
O635 O 0.98063 0.45017 0.56352 0.0
O636 O 1.0096 0.35849 0.72194 0.0
O637 O 0.90407 0.26111 0.73022 0.0
O638 O 0.87561 0.0721 0.59083 0.0
O639 O 0.80223 0.18402 0.57473 0.0
O640 O 0.87093 0.30391 0.56392 0.0
O641 O 0.92775 0.11867 0.69027 0.0
O642 O 0.96255 0.25757 0.53002 0.0
O643 O 0.97214 0.27272 0.52583 0.0
C644 C 0.04168 0.25448 0.65162 0.0
C645 C 0.87492 0.45204 0.57555 0.0
C646 C 0.81309 0.51686 0.57433 0.0
C647 C 0.78413 0.48648 0.50784 0.0
C648 C 0.84983 0.42804 0.50641 0.0
C649 C 0.79917 0.43905 0.47588 0.0
C650 C 0.85747 0.49799 0.61018 0.0
C651 C 0.95438 0.32521 0.76007 0.0
C652 C 0.92673 0.43667 0.60553 0.0
C653 C 0.25681 0.60169 0.59317 0.0
C654 C 0.23448 0.62148 0.65448 0.0
C655 C 0.8097 0.24404 0.55846 0.0
C656 C 0.88237 0.99557 0.68117 0.0
C657 C 0.80726 0.86841 0.67357 0.0
C658 C 0.77827 0.87129 0.73931 0.0
C659 C 0.87122 0.98866 0.75592 0.0
C660 C 0.86113 0.93238 0.64302 0.0
C661 C 0.81351 0.92988 0.78267 0.0
C662 C 0.02646 0.27018 0.49736 0.0
C663 C 0.90903 0.06615 0.64648 0.0
H664 H 0.7579 0.50712 0.47642 0.0
H665 H 0.875 0.40653 0.47417 0.0
H666 H 0.77827 0.41778 0.423 0.0
H667 H 0.88269 0.52315 0.66076 0.0
H668 H 0.73228 0.82651 0.75992 0.0
H669 H 0.90132 0.031 0.79225 0.0
H670 H 0.87964 0.93309 0.58831 0.0
H671 H 0.79456 0.93077 0.83624 0.0
Eu672 Eu 0.69662 0.63367 0.59053 0.0
C673 C 1.01241 0.70263 0.72203 0.0
N674 N 0.93015 0.66791 0.73274 0.0
C675 C 0.92076 0.65889 0.89198 0.0
C676 C 0.07611 0.73282 0.78862 0.0
C677 C 0.88446 0.63959 0.8055 0.0
C678 C 0.05668 0.72624 0.87817 0.0
C679 C 0.12002 0.71682 0.6493 0.0
C680 C 0.04064 0.71577 0.65083 0.0
C681 C 0.16388 0.74182 0.7088 0.0
C682 C 0.14403 0.75438 0.7739 0.0
Eu683 Eu 0.88745 0.72204 0.63224 0.0
N684 N 0.99867 0.72252 0.58187 0.0
C685 C 0.16679 0.71854 0.57756 0.0
C686 C 0.02682 0.73155 0.49634 0.0
C687 C 0.14386 0.7268 0.49452 0.0
H688 H 0.82954 0.60289 0.80389 0.0
H689 H 0.17839 0.73357 0.45114 0.0
H690 H 0.64466 0.69825 0.454 0.0
H691 H 0.53384 0.47055 0.79751 0.0
H692 H 1.00885 0.74942 0.45232 0.0
H693 H 0.21648 0.72132 0.58466 0.0
H694 H 0.62259 0.50489 0.70907 0.0
H695 H 0.88911 0.64556 0.939 0.0
H696 H 0.21788 0.75473 0.70435 0.0
H697 H 0.1815 0.77451 0.81715 0.0
H698 H 0.5766 0.75328 0.4386 0.0
H699 H 0.09941 0.748 0.91778 0.0
H700 H 0.42434 0.47607 0.76596 0.0
N701 N 0.61096 0.66211 0.55623 0.0
C702 C 0.55306 0.63696 0.59712 0.0
C703 C 0.57009 0.72386 0.48542 0.0
C704 C 0.49989 0.65259 0.58186 0.0
C705 C 0.61677 0.70086 0.49807 0.0
C706 C 0.51067 0.69989 0.52742 0.0
N707 N 0.59326 0.57157 0.6561 0.0
C708 C 0.5827 0.51862 0.7009 0.0
C709 C 0.47786 0.54864 0.6799 0.0
C710 C 0.54234 0.58704 0.64599 0.0
C711 C 0.47134 0.50234 0.73392 0.0
C712 C 0.5283 0.49366 0.74851 0.0
H713 H 0.47093 0.7126 0.51307 0.0
H714 H 0.39181 0.62044 0.59855 0.0
H715 H 0.37257 0.52668 0.68142 0.0
O716 O 0.6777 0.53016 0.59276 0.0
O717 O 0.73332 0.74688 0.63139 0.0
O718 O 0.85161 0.79579 0.65708 0.0
O719 O 0.64733 0.56454 0.49357 0.0
O720 O 0.68614 0.64383 0.70853 0.0
O721 O 0.79424 0.65767 0.73209 0.0
O722 O 0.98117 0.81012 0.58192 0.0
O723 O 0.85684 0.63654 0.55899 0.0
O724 O 0.75997 0.58015 0.62644 0.0
O725 O 0.94109 0.82533 0.68129 0.0
O726 O 0.80346 0.72157 0.53171 0.0
O727 O 0.79436 0.71932 0.52845 0.0
C728 C 0.79559 0.80004 0.65022 0.0
C729 C 0.60825 0.43773 0.51425 0.0
C730 C 0.53638 0.3136 0.54994 0.0
C731 C 0.56228 0.29753 0.48907 0.0
C732 C 0.62999 0.41721 0.45325 0.0
C733 C 0.61211 0.349 0.44451 0.0
C734 C 0.5609 0.38548 0.56405 0.0
C735 C 0.72426 0.6321 0.75279 0.0
C736 C 0.64793 0.51329 0.52975 0.0
C737 C 0.43449 0.6126 0.61292 0.0
C738 C 0.4233 0.55896 0.65973 0.0
C739 C 0.81272 0.58082 0.59178 0.0
C740 C 0.06383 0.89152 0.66766 0.0
C741 C 0.19015 0.94313 0.65587 0.0
C742 C 0.18905 0.90828 0.71938 0.0
C743 C 0.07322 0.88724 0.74232 0.0
C744 C 0.12511 0.92984 0.62628 0.0
C745 C 0.13312 0.88816 0.76675 0.0
C746 C 0.79539 0.77369 0.49599 0.0
C747 C 0.99226 0.85316 0.63532 0.0
H748 H 0.53615 0.24481 0.47027 0.0
H749 H 0.66287 0.45451 0.41259 0.0
H750 H 0.63105 0.33611 0.3971 0.0
H751 H 0.54186 0.40023 0.61106 0.0
H752 H 0.23463 0.90666 0.7372 0.0
H753 H 0.03356 0.8804 0.78079 0.0
H754 H 0.12247 0.94748 0.57206 0.0
H755 H 0.13704 0.87544 0.8227 0.0
loop_
_geom_bond_atom_site_label_1
_geom_bond_atom_site_label_2
_geom_bond_distance
_geom_bond_site_symmetry_2
_ccdc_geom_bond_type
Eu0 N29 2.600 . S
Eu0 N35 2.562 1_556 S
Eu0 O44 2.462 1_556 S
Eu0 O45 2.373 1_455 S
Eu0 O47 2.432 . S
Eu0 O48 2.291 1_556 S
Eu0 O52 2.335 . S
Eu0 O55 2.372 . S
Eu0 C64 2.787 . S
C1 N2 1.365 . S
C1 C4 1.405 . S
C1 C8 1.448 . S
N2 C1 1.365 . S
N2 C5 1.319 . S
N2 Eu11 2.600 1_455 S
C3 C5 1.397 . S
C3 C6 1.367 . S
C3 H23 0.931 . S
C4 C1 1.405 . S
C4 C6 1.403 . S
C4 C10 1.439 . S
C5 N2 1.319 . S
C5 C3 1.397 . S
C5 H16 0.930 1_455 S
C6 C3 1.367 . S
C6 C4 1.403 . S
C6 H27 0.929 . S
C7 C8 1.430 . S
C7 C9 1.387 . S
C7 C13 1.404 1_554 S
C8 C1 1.448 . S
C8 C7 1.430 . S
C8 N12 1.351 1_454 S
C9 C7 1.387 . S
C9 C10 1.374 . S
C9 H24 0.931 . S
C10 C4 1.439 . S
C10 C9 1.374 . S
C10 H25 0.931 . S
Eu11 N2 2.600 1_655 S
Eu11 N12 2.562 1_554 S
Eu11 O46 2.335 . S
Eu11 O49 2.372 1_655 S
Eu11 O50 2.462 1_554 S
Eu11 O51 2.373 1_655 S
Eu11 O53 2.432 . S
Eu11 O54 2.291 1_554 S
Eu11 C75 2.787 . S
N12 C8 1.351 1_656 S
N12 Eu11 2.562 1_556 S
N12 C14 1.325 . S
C13 C7 1.404 1_556 S
C13 C15 1.366 . S
C13 H21 0.930 . S
C14 N12 1.325 . S
C14 C15 1.416 1_655 S
C14 H20 0.929 . S
C15 C13 1.366 . S
C15 C14 1.416 1_455 S
C15 H17 0.930 1_455 S
H16 C5 0.930 1_655 S
H17 C15 0.930 1_655 S
H18 C33 0.930 . S
H19 C40 0.930 . S
H20 C14 0.929 . S
H21 C13 0.930 . S
H22 C36 0.929 . S
H23 C3 0.931 . S
H24 C9 0.931 . S
H25 C10 0.931 . S
H26 C31 0.931 . S
H27 C6 0.929 . S
H28 C39 0.930 . S
N29 Eu0 2.600 . S
N29 C30 1.363 . S
N29 C33 1.319 . S
C30 N29 1.363 . S
C30 C32 1.405 1_455 S
C30 C38 1.450 . S
C31 H26 0.931 . S
C31 C33 1.397 1_655 S
C31 C34 1.367 . S
C32 C30 1.405 1_655 S
C32 C34 1.403 . S
C32 C65 1.439 . S
C33 H18 0.930 . S
C33 N29 1.319 . S
C33 C31 1.397 1_455 S
C34 C31 1.367 . S
C34 C32 1.403 . S
C34 H41 0.929 . S
N35 Eu0 2.562 1_554 S
N35 C36 1.325 . S
N35 C38 1.351 1_554 S
C36 H22 0.929 . S
C36 N35 1.325 . S
C36 C40 1.416 . S
C37 C38 1.430 1_654 S
C37 C39 1.404 . S
C37 C66 1.387 1_554 S
C38 C30 1.450 . S
C38 N35 1.351 1_556 S
C38 C37 1.430 1_456 S
C39 H28 0.930 . S
C39 C37 1.404 . S
C39 C40 1.366 1_655 S
C40 H19 0.930 . S
C40 C36 1.416 . S
C40 C39 1.366 1_455 S
H41 C34 0.929 . S
H42 C65 0.931 . S
H43 C66 0.931 . S
O44 Eu0 2.462 1_554 S
O44 C64 1.252 1_554 S
O45 Eu0 2.373 1_655 S
O45 C56 1.249 1_556 S
O46 Eu11 2.335 . S
O46 C56 1.264 . S
O47 Eu0 2.432 . S
O47 C64 1.268 . S
O48 Eu0 2.291 1_554 S
O48 C63 1.255 . S
O49 Eu11 2.372 1_455 S
O49 C63 1.257 . S
O50 Eu11 2.462 1_556 S
O50 C75 1.252 1_556 S
O51 Eu11 2.373 1_455 S
O51 C67 1.249 1_554 S
O52 Eu0 2.335 . S
O52 C67 1.264 . S
O53 Eu11 2.432 . S
O53 C75 1.268 . S
O54 Eu11 2.291 1_556 S
O54 C74 1.255 . S
O55 Eu0 2.372 . S
O55 C74 1.257 1_455 S
C56 O45 1.249 1_554 S
C56 O46 1.264 . S
C57 C60 1.382 . S
C57 C62 1.390 1_556 S
C57 C64 1.506 . S
C58 C59 1.398 1_554 S
C58 C62 1.392 . S
C59 C58 1.398 1_556 S
C59 C61 1.372 . S
C59 H76 0.931 . S
C60 C57 1.382 . S
C60 C61 1.390 . S
C60 H77 0.931 . S
C61 C59 1.372 . S
C61 C60 1.390 . S
C61 H78 0.929 . S
C62 C57 1.390 1_554 S
C62 C58 1.392 . S
C62 H79 0.930 . S
C63 O48 1.255 . S
C63 O49 1.257 . S
C64 Eu0 2.787 . S
C64 O44 1.252 1_556 S
C64 O47 1.268 . S
C64 C57 1.506 . S
C65 C32 1.439 . S
C65 H42 0.931 . S
C65 C66 1.374 . S
C66 C37 1.387 1_556 S
C66 H43 0.931 . S
C66 C65 1.374 . S
C67 O51 1.249 1_556 S
C67 O52 1.264 . S
C68 C71 1.382 . S
C68 C72 1.390 1_554 S
C68 C75 1.506 . S
C69 C70 1.395 1_556 S
C69 C72 1.392 . S
C70 C69 1.395 1_554 S
C70 C73 1.372 . S
C70 H80 0.931 . S
C71 C68 1.382 . S
C71 C73 1.390 . S
C71 H81 0.931 . S
C72 C68 1.390 1_556 S
C72 C69 1.392 . S
C72 H82 0.930 . S
C73 C70 1.372 . S
C73 C71 1.390 . S
C73 H83 0.929 . S
C74 O54 1.255 . S
C74 O55 1.257 1_655 S
C75 Eu11 2.787 . S
C75 O50 1.252 1_554 S
C75 O53 1.268 . S
C75 C68 1.506 . S
H76 C59 0.931 . S
H77 C60 0.931 . S
H78 C61 0.929 . S
H79 C62 0.930 . S
H80 C70 0.931 . S
H81 C71 0.931 . S
H82 C72 0.930 . S
H83 C73 0.929 . S
Eu84 N113 2.600 . S
Eu84 N119 2.562 1_556 S
Eu84 O128 2.462 1_556 S
Eu84 O129 2.373 . S
Eu84 O131 2.432 . S
Eu84 O132 2.291 1_556 S
Eu84 O136 2.335 . S
Eu84 O139 2.372 . S
Eu84 C148 2.787 . S
C85 N86 1.365 . S
C85 C88 1.405 . S
C85 C92 1.448 . S
N86 C85 1.365 . S
N86 C89 1.319 . S
N86 Eu95 2.600 . S
C87 C89 1.397 . S
C87 C90 1.367 . S
C87 H107 0.931 . S
C88 C85 1.405 . S
C88 C90 1.403 . S
C88 C94 1.439 . S
C89 N86 1.319 . S
C89 C87 1.397 . S
C89 H100 0.930 . S
C90 C87 1.367 . S
C90 C88 1.403 . S
C90 H111 0.929 . S
C91 C92 1.430 . S
C91 C93 1.387 . S
C91 C97 1.404 1_554 S
C92 C85 1.448 . S
C92 C91 1.430 . S
C92 N96 1.351 1_554 S
C93 C91 1.387 . S
C93 C94 1.374 . S
C93 H108 0.931 . S
C94 C88 1.439 . S
C94 C93 1.374 . S
C94 H109 0.931 . S
Eu95 N86 2.600 . S
Eu95 N96 2.562 1_554 S
Eu95 O130 2.335 . S
Eu95 O133 2.372 . S
Eu95 O134 2.462 1_554 S
Eu95 O135 2.373 . S
Eu95 O137 2.432 . S
Eu95 O138 2.291 1_554 S
Eu95 C159 2.787 . S
N96 C92 1.351 1_556 S
N96 Eu95 2.562 1_556 S
N96 C98 1.325 . S
C97 C91 1.404 1_556 S
C97 C99 1.366 . S
C97 H105 0.930 . S
C98 N96 1.325 . S
C98 C99 1.416 . S
C98 H104 0.929 . S
C99 C97 1.366 . S
C99 C98 1.416 . S
C99 H101 0.930 . S
H100 C89 0.930 . S
H101 C99 0.930 . S
H102 C117 0.930 . S
H103 C124 0.930 . S
H104 C98 0.929 . S
H105 C97 0.930 . S
H106 C120 0.929 . S
H107 C87 0.931 . S
H108 C93 0.931 . S
H109 C94 0.931 . S
H110 C115 0.931 . S
H111 C90 0.929 . S
H112 C123 0.930 . S
N113 Eu84 2.600 . S
N113 C114 1.365 . S
N113 C117 1.319 . S
C114 N113 1.365 . S
C114 C116 1.405 . S
C114 C122 1.448 . S
C115 H110 0.931 . S
C115 C117 1.397 . S
C115 C118 1.367 . S
C116 C114 1.405 . S
C116 C118 1.403 . S
C116 C149 1.439 . S
C117 H102 0.930 . S
C117 N113 1.319 . S
C117 C115 1.397 . S
C118 C115 1.367 . S
C118 C116 1.403 . S
C118 H125 0.929 . S
N119 Eu84 2.562 1_554 S
N119 C120 1.325 . S
N119 C122 1.351 1_554 S
C120 H106 0.929 . S
C120 N119 1.325 . S
C120 C124 1.416 . S
C121 C122 1.430 1_554 S
C121 C123 1.404 . S
C121 C150 1.387 1_554 S
C122 C114 1.448 . S
C122 N119 1.351 1_556 S
C122 C121 1.430 1_556 S
C123 H112 0.930 . S
C123 C121 1.404 . S
C123 C124 1.366 . S
C124 H103 0.930 . S
C124 C120 1.416 . S
C124 C123 1.366 . S
H125 C118 0.929 . S
H126 C149 0.931 . S
H127 C150 0.931 . S
O128 Eu84 2.462 1_554 S
O128 C148 1.252 1_554 S
O129 Eu84 2.373 . S
O129 C140 1.249 1_556 S
O130 Eu95 2.335 . S
O130 C140 1.264 . S
O131 Eu84 2.432 . S
O131 C148 1.268 . S
O132 Eu84 2.291 1_554 S
O132 C147 1.255 . S
O133 Eu95 2.372 . S
O133 C147 1.257 . S
O134 Eu95 2.462 1_556 S
O134 C159 1.252 1_556 S
O135 Eu95 2.373 . S
O135 C151 1.249 1_554 S
O136 Eu84 2.335 . S
O136 C151 1.264 . S
O137 Eu95 2.432 . S
O137 C159 1.268 . S
O138 Eu95 2.291 1_556 S
O138 C158 1.255 . S
O139 Eu84 2.372 . S
O139 C158 1.257 . S
C140 O129 1.249 1_554 S
C140 O130 1.264 . S
C141 C144 1.382 . S
C141 C146 1.390 1_556 S
C141 C148 1.506 . S
C142 C143 1.398 1_554 S
C142 C146 1.392 . S
C143 C142 1.398 1_556 S
C143 C145 1.372 . S
C143 H160 0.931 . S
C144 C141 1.382 . S
C144 C145 1.390 . S
C144 H161 0.931 . S
C145 C143 1.372 . S
C145 C144 1.390 . S
C145 H162 0.929 . S
C146 C141 1.390 1_554 S
C146 C142 1.392 . S
C146 H163 0.930 . S
C147 O132 1.255 . S
C147 O133 1.257 . S
C148 Eu84 2.787 . S
C148 O128 1.252 1_556 S
C148 O131 1.268 . S
C148 C141 1.506 . S
C149 C116 1.439 . S
C149 H126 0.931 . S
C149 C150 1.374 . S
C150 C121 1.387 1_556 S
C150 H127 0.931 . S
C150 C149 1.374 . S
C151 O135 1.249 1_556 S
C151 O136 1.264 . S
C152 C155 1.382 . S
C152 C156 1.390 1_554 S
C152 C159 1.506 . S
C153 C154 1.394 1_556 S
C153 C156 1.392 . S
C154 C153 1.394 1_554 S
C154 C157 1.372 . S
C154 H164 0.931 . S
C155 C152 1.382 . S
C155 C157 1.390 . S
C155 H165 0.931 . S
C156 C152 1.390 1_556 S
C156 C153 1.392 . S
C156 H166 0.930 . S
C157 C154 1.372 . S
C157 C155 1.390 . S
C157 H167 0.929 . S
C158 O138 1.255 . S
C158 O139 1.257 . S
C159 Eu95 2.787 . S
C159 O134 1.252 1_554 S
C159 O137 1.268 . S
C159 C152 1.506 . S
H160 C143 0.931 . S
H161 C144 0.931 . S
H162 C145 0.929 . S
H163 C146 0.930 . S
H164 C154 0.931 . S
H165 C155 0.931 . S
H166 C156 0.930 . S
H167 C157 0.929 . S
Eu168 N197 2.600 . S
Eu168 N203 2.562 1_556 S
Eu168 O212 2.462 1_556 S
Eu168 O213 2.373 1_565 S
Eu168 O215 2.432 . S
Eu168 O216 2.291 1_556 S
Eu168 O220 2.335 . S
Eu168 O223 2.372 . S
Eu168 C232 2.787 . S
C169 N170 1.365 1_565 S
C169 C172 1.405 . S
C169 C176 1.448 . S
N170 C169 1.365 1_545 S
N170 C173 1.319 . S
N170 Eu179 2.600 . S
C171 C173 1.397 1_565 S
C171 C174 1.367 . S
C171 H191 0.931 . S
C172 C169 1.405 . S
C172 C174 1.403 . S
C172 C178 1.439 . S
C173 N170 1.319 . S
C173 C171 1.397 1_545 S
C173 H184 0.930 . S
C174 C171 1.367 . S
C174 C172 1.403 . S
C174 H195 0.929 . S
C175 C176 1.430 . S
C175 C177 1.387 . S
C175 C181 1.404 1_554 S
C176 C169 1.448 . S
C176 C175 1.430 . S
C176 N180 1.351 1_564 S
C177 C175 1.387 . S
C177 C178 1.374 . S
C177 H192 0.931 . S
C178 C172 1.439 . S
C178 C177 1.374 . S
C178 H193 0.931 . S
Eu179 N170 2.600 . S
Eu179 N180 2.562 1_554 S
Eu179 O214 2.335 . S
Eu179 O217 2.372 . S
Eu179 O218 2.462 1_554 S
Eu179 O219 2.373 1_545 S
Eu179 O221 2.432 . S
Eu179 O222 2.291 1_554 S
Eu179 C243 2.787 . S
N180 C176 1.351 1_546 S
N180 Eu179 2.562 1_556 S
N180 C182 1.325 . S
C181 C175 1.404 1_556 S
C181 C183 1.366 1_565 S
C181 H189 0.930 . S
C182 N180 1.325 . S
C182 C183 1.416 . S
C182 H188 0.929 . S
C183 C181 1.366 1_545 S
C183 C182 1.416 . S
C183 H185 0.930 . S
H184 C173 0.930 . S
H185 C183 0.930 . S
H186 C201 0.930 . S
H187 C208 0.930 . S
H188 C182 0.929 . S
H189 C181 0.930 . S
H190 C204 0.929 . S
H191 C171 0.931 . S
H192 C177 0.931 . S
H193 C178 0.931 . S
H194 C199 0.931 . S
H195 C174 0.929 . S
H196 C207 0.930 . S
N197 Eu168 2.600 . S
N197 C198 1.365 1_565 S
N197 C201 1.319 . S
C198 N197 1.365 1_545 S
C198 C200 1.405 . S
C198 C206 1.448 . S
C199 H194 0.931 . S
C199 C201 1.397 1_545 S
C199 C202 1.367 . S
C200 C198 1.405 . S
C200 C202 1.403 . S
C200 C233 1.439 . S
C201 H186 0.930 . S
C201 N197 1.319 . S
C201 C199 1.397 1_565 S
C202 C199 1.367 . S
C202 C200 1.403 . S
C202 H209 0.929 . S
N203 Eu168 2.562 1_554 S
N203 C204 1.325 . S
N203 C206 1.351 1_564 S
C204 H190 0.929 . S
C204 N203 1.325 . S
C204 C208 1.416 . S
C205 C206 1.430 1_554 S
C205 C207 1.404 . S
C205 C234 1.387 1_554 S
C206 C198 1.448 . S
C206 N203 1.351 1_546 S
C206 C205 1.430 1_556 S
C207 H196 0.930 . S
C207 C205 1.404 . S
C207 C208 1.366 1_545 S
C208 H187 0.930 . S
C208 C204 1.416 . S
C208 C207 1.366 1_565 S
H209 C202 0.929 . S
H210 C233 0.931 . S
H211 C234 0.931 . S
O212 Eu168 2.462 1_554 S
O212 C232 1.252 1_554 S
O213 Eu168 2.373 1_545 S
O213 C224 1.249 1_556 S
O214 Eu179 2.335 . S
O214 C224 1.264 . S
O215 Eu168 2.432 . S
O215 C232 1.268 . S
O216 Eu168 2.291 1_554 S
O216 C231 1.255 . S
O217 Eu179 2.372 . S
O217 C231 1.257 1_545 S
O218 Eu179 2.462 1_556 S
O218 C243 1.252 1_556 S
O219 Eu179 2.373 1_565 S
O219 C235 1.249 1_554 S
O220 Eu168 2.335 . S
O220 C235 1.264 . S
O221 Eu179 2.432 . S
O221 C243 1.268 . S
O222 Eu179 2.291 1_556 S
O222 C242 1.255 . S
O223 Eu168 2.372 . S
O223 C242 1.257 1_565 S
C224 O213 1.249 1_554 S
C224 O214 1.264 . S
C225 C228 1.382 . S
C225 C230 1.390 1_556 S
C225 C232 1.506 . S
C226 C227 1.398 1_554 S
C226 C230 1.392 . S
C227 C226 1.398 1_556 S
C227 C229 1.372 . S
C227 H244 0.931 . S
C228 C225 1.382 . S
C228 C229 1.390 . S
C228 H245 0.931 . S
C229 C227 1.372 . S
C229 C228 1.390 . S
C229 H246 0.929 . S
C230 C225 1.390 1_554 S
C230 C226 1.392 . S
C230 H247 0.930 . S
C231 O216 1.255 . S
C231 O217 1.257 1_565 S
C232 Eu168 2.787 . S
C232 O212 1.252 1_556 S
C232 O215 1.268 . S
C232 C225 1.506 . S
C233 C200 1.439 . S
C233 H210 0.931 . S
C233 C234 1.374 . S
C234 C205 1.387 1_556 S
C234 H211 0.931 . S
C234 C233 1.374 . S
C235 O219 1.249 1_556 S
C235 O220 1.264 . S
C236 C239 1.382 . S
C236 C240 1.390 1_554 S
C236 C243 1.506 . S
C237 C238 1.395 1_556 S
C237 C240 1.392 . S
C238 C237 1.395 1_554 S
C238 C241 1.372 . S
C238 H248 0.931 . S
C239 C236 1.382 . S
C239 C241 1.390 . S
C239 H249 0.931 . S
C240 C236 1.390 1_556 S
C240 C237 1.392 . S
C240 H250 0.930 . S
C241 C238 1.372 . S
C241 C239 1.390 . S
C241 H251 0.929 . S
C242 O222 1.255 . S
C242 O223 1.257 1_545 S
C243 Eu179 2.787 . S
C243 O218 1.252 1_554 S
C243 O221 1.268 . S
C243 C236 1.506 . S
H244 C227 0.931 . S
H245 C228 0.931 . S
H246 C229 0.929 . S
H247 C230 0.930 . S
H248 C238 0.931 . S
H249 C239 0.931 . S
H250 C240 0.930 . S
H251 C241 0.929 . S
Eu252 N281 2.600 . S
Eu252 N287 2.562 . S
Eu252 O296 2.462 . S
Eu252 O297 2.373 . S
Eu252 O299 2.432 . S
Eu252 O300 2.291 . S
Eu252 O304 2.335 . S
Eu252 O307 2.372 . S
Eu252 C316 2.787 . S
C253 N254 1.365 1_545 S
C253 C256 1.405 . S
C253 C260 1.448 . S
N254 C253 1.365 1_565 S
N254 C257 1.319 . S
N254 Eu263 2.600 . S
C255 C257 1.397 . S
C255 C258 1.367 1_565 S
C255 H275 0.931 . S
C256 C253 1.405 . S
C256 C258 1.403 . S
C256 C262 1.439 . S
C257 N254 1.319 . S
C257 C255 1.397 . S
C257 H268 0.930 . S
C258 C255 1.367 1_545 S
C258 C256 1.403 . S
C258 H279 0.929 . S
C259 C260 1.430 . S
C259 C261 1.387 . S
C259 C265 1.404 . S
C260 C253 1.448 . S
C260 C259 1.430 . S
C260 N264 1.351 1_545 S
C261 C259 1.387 . S
C261 C262 1.374 . S
C261 H276 0.931 . S
C262 C256 1.439 . S
C262 C261 1.374 . S
C262 H277 0.931 . S
Eu263 N254 2.600 . S
Eu263 N264 2.562 . S
Eu263 O298 2.335 . S
Eu263 O301 2.372 . S
Eu263 O302 2.462 . S
Eu263 O303 2.373 . S
Eu263 O305 2.432 . S
Eu263 O306 2.291 . S
Eu263 C327 2.787 . S
N264 C260 1.351 1_565 S
N264 Eu263 2.562 . S
N264 C266 1.325 . S
C265 C259 1.404 . S
C265 C267 1.366 . S
C265 H273 0.930 . S
C266 N264 1.325 . S
C266 C267 1.416 1_565 S
C266 H272 0.929 . S
C267 C265 1.366 . S
C267 C266 1.416 1_545 S
C267 H269 0.930 . S
H268 C257 0.930 . S
H269 C267 0.930 . S
H270 C285 0.930 . S
H271 C292 0.930 . S
H272 C266 0.929 . S
H273 C265 0.930 . S
H274 C288 0.929 . S
H275 C255 0.931 . S
H276 C261 0.931 . S
H277 C262 0.931 . S
H278 C283 0.931 . S
H279 C258 0.929 . S
H280 C291 0.930 . S
N281 Eu252 2.600 . S
N281 C282 1.365 . S
N281 C285 1.319 . S
C282 N281 1.365 . S
C282 C284 1.405 . S
C282 C290 1.448 . S
C283 H278 0.931 . S
C283 C285 1.397 . S
C283 C286 1.367 . S
C284 C282 1.405 . S
C284 C286 1.403 . S
C284 C317 1.439 . S
C285 H270 0.930 . S
C285 N281 1.319 . S
C285 C283 1.397 . S
C286 C283 1.367 . S
C286 C284 1.403 . S
C286 H293 0.929 . S
N287 Eu252 2.562 . S
N287 C288 1.325 . S
N287 C290 1.351 . S
C288 H274 0.929 . S
C288 N287 1.325 . S
C288 C292 1.416 . S
C289 C290 1.430 . S
C289 C291 1.404 . S
C289 C318 1.387 . S
C290 C282 1.448 . S
C290 N287 1.351 . S
C290 C289 1.430 . S
C291 H280 0.930 . S
C291 C289 1.404 . S
C291 C292 1.366 . S
C292 H271 0.930 . S
C292 C288 1.416 . S
C292 C291 1.366 . S
H293 C286 0.929 . S
H294 C317 0.931 . S
H295 C318 0.931 . S
O296 Eu252 2.462 . S
O296 C316 1.252 . S
O297 Eu252 2.373 . S
O297 C308 1.249 . S
O298 Eu263 2.335 . S
O298 C308 1.264 . S
O299 Eu252 2.432 . S
O299 C316 1.268 . S
O300 Eu252 2.291 . S
O300 C315 1.255 . S
O301 Eu263 2.372 . S
O301 C315 1.257 . S
O302 Eu263 2.462 . S
O302 C327 1.252 . S
O303 Eu263 2.373 . S
O303 C319 1.249 . S
O304 Eu252 2.335 . S
O304 C319 1.264 . S
O305 Eu263 2.432 . S
O305 C327 1.268 . S
O306 Eu263 2.291 . S
O306 C326 1.255 . S
O307 Eu252 2.372 . S
O307 C326 1.257 . S
C308 O297 1.249 . S
C308 O298 1.264 . S
C309 C312 1.382 . S
C309 C314 1.390 . S
C309 C316 1.506 . S
C310 C311 1.398 . S
C310 C314 1.392 1_455 S
C311 C310 1.398 . S
C311 C313 1.372 . S
C311 H328 0.931 . S
C312 C309 1.382 . S
C312 C313 1.390 1_655 S
C312 H329 0.931 . S
C313 C311 1.372 . S
C313 C312 1.390 1_455 S
C313 H330 0.929 . S
C314 C309 1.390 . S
C314 C310 1.392 1_655 S
C314 H331 0.930 . S
C315 O300 1.255 . S
C315 O301 1.257 . S
C316 Eu252 2.787 . S
C316 O296 1.252 . S
C316 O299 1.268 . S
C316 C309 1.506 . S
C317 C284 1.439 . S
C317 H294 0.931 . S
C317 C318 1.374 . S
C318 C289 1.387 . S
C318 H295 0.931 . S
C318 C317 1.374 . S
C319 O303 1.249 . S
C319 O304 1.264 . S
C320 C323 1.382 . S
C320 C324 1.390 . S
C320 C327 1.506 . S
C321 C322 1.398 . S
C321 C324 1.392 . S
C322 C321 1.398 . S
C322 C325 1.372 . S
C322 H332 0.931 . S
C323 C320 1.382 . S
C323 C325 1.390 . S
C323 H333 0.931 . S
C324 C320 1.390 . S
C324 C321 1.392 . S
C324 H334 0.930 . S
C325 C322 1.372 . S
C325 C323 1.390 . S
C325 H335 0.929 . S
C326 O306 1.255 . S
C326 O307 1.257 . S
C327 Eu263 2.787 . S
C327 O302 1.252 . S
C327 O305 1.268 . S
C327 C320 1.506 . S
H328 C311 0.931 . S
H329 C312 0.931 . S
H330 C313 0.929 . S
H331 C314 0.930 . S
H332 C322 0.931 . S
H333 C323 0.931 . S
H334 C324 0.930 . S
H335 C325 0.929 . S
Eu336 N365 2.600 1_565 S
Eu336 N371 2.562 1_565 S
Eu336 O380 2.462 1_565 S
Eu336 O381 2.373 . S
Eu336 O383 2.432 1_565 S
Eu336 O384 2.291 . S
Eu336 O388 2.335 . S
Eu336 O391 2.372 . S
Eu336 C400 2.787 1_565 S
C337 N338 1.365 . S
C337 C340 1.405 1_455 S
C337 C344 1.448 1_455 S
N338 C337 1.365 . S
N338 C341 1.319 . S
N338 Eu347 2.600 . S
C339 C341 1.397 . S
C339 C342 1.367 1_455 S
C339 H359 0.931 . S
C340 C337 1.405 1_655 S
C340 C342 1.403 . S
C340 C346 1.439 . S
C341 N338 1.319 . S
C341 C339 1.397 . S
C341 H352 0.930 . S
C342 C339 1.367 1_655 S
C342 C340 1.403 . S
C342 H363 0.929 . S
C343 C344 1.430 . S
C343 C345 1.387 . S
C343 C349 1.404 . S
C344 C337 1.448 1_655 S
C344 C343 1.430 . S
C344 N348 1.351 1_655 S
C345 C343 1.387 . S
C345 C346 1.374 . S
C345 H360 0.931 . S
C346 C340 1.439 . S
C346 C345 1.374 . S
C346 H361 0.931 . S
Eu347 N338 2.600 . S
Eu347 N348 2.562 . S
Eu347 O382 2.335 . S
Eu347 O385 2.372 . S
Eu347 O386 2.462 . S
Eu347 O387 2.373 . S
Eu347 O389 2.432 . S
Eu347 O390 2.291 . S
Eu347 C411 2.787 . S
N348 C344 1.351 1_455 S
N348 Eu347 2.562 . S
N348 C350 1.325 . S
C349 C343 1.404 . S
C349 C351 1.366 . S
C349 H357 0.930 . S
C350 N348 1.325 . S
C350 C351 1.416 1_455 S
C350 H356 0.929 . S
C351 C349 1.366 . S
C351 C350 1.416 1_655 S
C351 H353 0.930 . S
H352 C341 0.930 . S
H353 C351 0.930 . S
H354 C369 0.930 . S
H355 C376 0.930 . S
H356 C350 0.929 . S
H357 C349 0.930 . S
H358 C372 0.929 . S
H359 C339 0.931 . S
H360 C345 0.931 . S
H361 C346 0.931 . S
H362 C367 0.931 . S
H363 C342 0.929 . S
H364 C375 0.930 . S
N365 Eu336 2.600 1_545 S
N365 C366 1.365 . S
N365 C369 1.319 . S
C366 N365 1.365 . S
C366 C368 1.405 . S
C366 C374 1.448 . S
C367 H362 0.931 . S
C367 C369 1.397 . S
C367 C370 1.367 . S
C368 C366 1.405 . S
C368 C370 1.403 . S
C368 C401 1.439 . S
C369 H354 0.930 . S
C369 N365 1.319 . S
C369 C367 1.397 . S
C370 C367 1.367 . S
C370 C368 1.403 . S
C370 H377 0.929 . S
N371 Eu336 2.562 1_545 S
N371 C372 1.325 . S
N371 C374 1.351 . S
C372 H358 0.929 . S
C372 N371 1.325 . S
C372 C376 1.416 . S
C373 C374 1.430 . S
C373 C375 1.404 . S
C373 C402 1.387 . S
C374 C366 1.448 . S
C374 N371 1.351 . S
C374 C373 1.430 . S
C375 H364 0.930 . S
C375 C373 1.404 . S
C375 C376 1.366 . S
C376 H355 0.930 . S
C376 C372 1.416 . S
C376 C375 1.366 . S
H377 C370 0.929 . S
H378 C401 0.931 . S
H379 C402 0.931 . S
O380 Eu336 2.462 1_545 S
O380 C400 1.252 . S
O381 Eu336 2.373 . S
O381 C392 1.249 . S
O382 Eu347 2.335 . S
O382 C392 1.264 . S
O383 Eu336 2.432 1_545 S
O383 C400 1.268 . S
O384 Eu336 2.291 . S
O384 C399 1.255 . S
O385 Eu347 2.372 . S
O385 C399 1.257 . S
O386 Eu347 2.462 . S
O386 C411 1.252 . S
O387 Eu347 2.373 . S
O387 C403 1.249 . S
O388 Eu336 2.335 . S
O388 C403 1.264 . S
O389 Eu347 2.432 . S
O389 C411 1.268 . S
O390 Eu347 2.291 . S
O390 C410 1.255 . S
O391 Eu336 2.372 . S
O391 C410 1.257 . S
C392 O381 1.249 . S
C392 O382 1.264 . S
C393 C396 1.382 . S
C393 C398 1.390 . S
C393 C400 1.506 . S
C394 C395 1.398 . S
C394 C398 1.392 . S
C395 C394 1.398 . S
C395 C397 1.372 . S
C395 H412 0.931 . S
C396 C393 1.382 . S
C396 C397 1.390 . S
C396 H413 0.931 . S
C397 C395 1.372 . S
C397 C396 1.390 . S
C397 H414 0.929 . S
C398 C393 1.390 . S
C398 C394 1.392 . S
C398 H415 0.930 . S
C399 O384 1.255 . S
C399 O385 1.257 . S
C400 Eu336 2.787 1_545 S
C400 O380 1.252 . S
C400 O383 1.268 . S
C400 C393 1.506 . S
C401 C368 1.439 . S
C401 H378 0.931 . S
C401 C402 1.374 . S
C402 C373 1.387 . S
C402 H379 0.931 . S
C402 C401 1.374 . S
C403 O387 1.249 . S
C403 O388 1.264 . S
C404 C407 1.382 . S
C404 C408 1.390 . S
C404 C411 1.506 . S
C405 C406 1.398 . S
C405 C408 1.392 . S
C406 C405 1.398 . S
C406 C409 1.372 . S
C406 H416 0.931 . S
C407 C404 1.382 . S
C407 C409 1.390 . S
C407 H417 0.931 . S
C408 C404 1.390 . S
C408 C405 1.392 . S
C408 H418 0.930 . S
C409 C406 1.372 . S
C409 C407 1.390 . S
C409 H419 0.929 . S
C410 O390 1.255 . S
C410 O391 1.257 . S
C411 Eu347 2.787 . S
C411 O386 1.252 . S
C411 O389 1.268 . S
C411 C404 1.506 . S
H412 C395 0.931 . S
H413 C396 0.931 . S
H414 C397 0.929 . S
H415 C398 0.930 . S
H416 C406 0.931 . S
H417 C407 0.931 . S
H418 C408 0.930 . S
H419 C409 0.929 . S
Eu420 N449 2.600 1_455 S
Eu420 N455 2.562 1_455 S
Eu420 O464 2.462 1_455 S
Eu420 O465 2.373 . S
Eu420 O467 2.432 1_455 S
Eu420 O468 2.291 . S
Eu420 O472 2.335 . S
Eu420 O475 2.372 . S
Eu420 C484 2.787 1_455 S
C421 N422 1.365 . S
C421 C424 1.405 . S
C421 C428 1.448 . S
N422 C421 1.365 . S
N422 C425 1.319 . S
N422 Eu431 2.600 . S
C423 C425 1.397 . S
C423 C426 1.367 . S
C423 H443 0.931 . S
C424 C421 1.405 . S
C424 C426 1.403 . S
C424 C430 1.439 . S
C425 N422 1.319 . S
C425 C423 1.397 . S
C425 H436 0.930 . S
C426 C423 1.367 . S
C426 C424 1.403 . S
C426 H447 0.929 . S
C427 C428 1.430 . S
C427 C429 1.387 . S
C427 C433 1.404 . S
C428 C421 1.448 . S
C428 C427 1.430 . S
C428 N432 1.351 . S
C429 C427 1.387 . S
C429 C430 1.374 . S
C429 H444 0.931 . S
C430 C424 1.439 . S
C430 C429 1.374 . S
C430 H445 0.931 . S
Eu431 N422 2.600 . S
Eu431 N432 2.562 . S
Eu431 O466 2.335 . S
Eu431 O469 2.372 . S
Eu431 O470 2.462 . S
Eu431 O471 2.373 . S
Eu431 O473 2.432 . S
Eu431 O474 2.291 . S
Eu431 C495 2.787 . S
N432 C428 1.351 . S
N432 Eu431 2.562 . S
N432 C434 1.325 . S
C433 C427 1.404 . S
C433 C435 1.366 . S
C433 H441 0.930 . S
C434 N432 1.325 . S
C434 C435 1.416 . S
C434 H440 0.929 . S
C435 C433 1.366 . S
C435 C434 1.416 . S
C435 H437 0.930 . S
H436 C425 0.930 . S
H437 C435 0.930 . S
H438 C453 0.930 1_455 S
H439 C460 0.930 . S
H440 C434 0.929 . S
H441 C433 0.930 . S
H442 C456 0.929 . S
H443 C423 0.931 . S
H444 C429 0.931 . S
H445 C430 0.931 . S
H446 C451 0.931 . S
H447 C426 0.929 . S
H448 C459 0.930 . S
N449 Eu420 2.600 1_655 S
N449 C450 1.365 . S
N449 C453 1.319 . S
C450 N449 1.365 . S
C450 C452 1.405 . S
C450 C458 1.448 . S
C451 H446 0.931 . S
C451 C453 1.397 . S
C451 C454 1.367 . S
C452 C450 1.405 . S
C452 C454 1.403 . S
C452 C485 1.439 . S
C453 H438 0.930 1_655 S
C453 N449 1.319 . S
C453 C451 1.397 . S
C454 C451 1.367 . S
C454 C452 1.403 . S
C454 H461 0.929 . S
N455 Eu420 2.562 1_655 S
N455 C456 1.325 . S
N455 C458 1.351 . S
C456 H442 0.929 . S
C456 N455 1.325 . S
C456 C460 1.416 . S
C457 C458 1.430 . S
C457 C459 1.404 . S
C457 C486 1.387 . S
C458 C450 1.448 . S
C458 N455 1.351 . S
C458 C457 1.430 . S
C459 H448 0.930 . S
C459 C457 1.404 . S
C459 C460 1.366 . S
C460 H439 0.930 . S
C460 C456 1.416 . S
C460 C459 1.366 . S
H461 C454 0.929 . S
H462 C485 0.931 . S
H463 C486 0.931 . S
O464 Eu420 2.462 1_655 S
O464 C484 1.252 . S
O465 Eu420 2.373 . S
O465 C476 1.249 . S
O466 Eu431 2.335 . S
O466 C476 1.264 . S
O467 Eu420 2.432 1_655 S
O467 C484 1.268 . S
O468 Eu420 2.291 . S
O468 C483 1.255 . S
O469 Eu431 2.372 . S
O469 C483 1.257 . S
O470 Eu431 2.462 . S
O470 C495 1.252 . S
O471 Eu431 2.373 . S
O471 C487 1.249 . S
O472 Eu420 2.335 . S
O472 C487 1.264 . S
O473 Eu431 2.432 . S
O473 C495 1.268 . S
O474 Eu431 2.291 . S
O474 C494 1.255 . S
O475 Eu420 2.372 . S
O475 C494 1.257 . S
C476 O465 1.249 . S
C476 O466 1.264 . S
C477 C480 1.382 . S
C477 C482 1.390 . S
C477 C484 1.506 . S
C478 C479 1.398 . S
C478 C482 1.392 1_565 S
C479 C478 1.398 . S
C479 C481 1.372 . S
C479 H496 0.931 . S
C480 C477 1.382 . S
C480 C481 1.390 1_545 S
C480 H497 0.931 . S
C481 C479 1.372 . S
C481 C480 1.390 1_565 S
C481 H498 0.929 . S
C482 C477 1.390 . S
C482 C478 1.392 1_545 S
C482 H499 0.930 . S
C483 O468 1.255 . S
C483 O469 1.257 . S
C484 Eu420 2.787 1_655 S
C484 O464 1.252 . S
C484 O467 1.268 . S
C484 C477 1.506 . S
C485 C452 1.439 . S
C485 H462 0.931 . S
C485 C486 1.374 . S
C486 C457 1.387 . S
C486 H463 0.931 . S
C486 C485 1.374 . S
C487 O471 1.249 . S
C487 O472 1.264 . S
C488 C491 1.382 . S
C488 C492 1.390 . S
C488 C495 1.506 . S
C489 C490 1.398 . S
C489 C492 1.392 . S
C490 C489 1.398 . S
C490 C493 1.372 . S
C490 H500 0.931 . S
C491 C488 1.382 . S
C491 C493 1.390 . S
C491 H501 0.931 . S
C492 C488 1.390 . S
C492 C489 1.392 . S
C492 H502 0.930 . S
C493 C490 1.372 . S
C493 C491 1.390 . S
C493 H503 0.929 . S
C494 O474 1.255 . S
C494 O475 1.257 . S
C495 Eu431 2.787 . S
C495 O470 1.252 . S
C495 O473 1.268 . S
C495 C488 1.506 . S
H496 C479 0.931 . S
H497 C480 0.931 . S
H498 C481 0.929 . S
H499 C482 0.930 . S
H500 C490 0.931 . S
H501 C491 0.931 . S
H502 C492 0.930 . S
H503 C493 0.929 . S
Eu504 N533 2.600 1_545 S
Eu504 N539 2.562 1_545 S
Eu504 O548 2.462 . S
Eu504 O549 2.373 . S
Eu504 O551 2.432 . S
Eu504 O552 2.291 . S
Eu504 O556 2.335 . S
Eu504 O559 2.372 . S
Eu504 C568 2.787 . S
C505 N506 1.365 . S
C505 C508 1.405 . S
C505 C512 1.448 . S
N506 C505 1.365 . S
N506 C509 1.319 . S
N506 Eu515 2.600 . S
C507 C509 1.397 . S
C507 C510 1.367 . S
C507 H527 0.931 . S
C508 C505 1.405 . S
C508 C510 1.403 . S
C508 C514 1.439 . S
C509 N506 1.319 . S
C509 C507 1.397 . S
C509 H520 0.930 . S
C510 C507 1.367 . S
C510 C508 1.403 . S
C510 H531 0.929 . S
C511 C512 1.430 . S
C511 C513 1.387 . S
C511 C517 1.404 . S
C512 C505 1.448 . S
C512 C511 1.430 . S
C512 N516 1.351 . S
C513 C511 1.387 . S
C513 C514 1.374 . S
C513 H528 0.931 . S
C514 C508 1.439 . S
C514 C513 1.374 . S
C514 H529 0.931 . S
Eu515 N506 2.600 . S
Eu515 N516 2.562 . S
Eu515 O550 2.335 . S
Eu515 O553 2.372 . S
Eu515 O554 2.462 . S
Eu515 O555 2.373 . S
Eu515 O557 2.432 . S
Eu515 O558 2.291 . S
Eu515 C579 2.787 . S
N516 C512 1.351 . S
N516 Eu515 2.562 . S
N516 C518 1.325 . S
C517 C511 1.404 . S
C517 C519 1.366 . S
C517 H525 0.930 . S
C518 N516 1.325 . S
C518 C519 1.416 . S
C518 H524 0.929 . S
C519 C517 1.366 . S
C519 C518 1.416 . S
C519 H521 0.930 . S
H520 C509 0.930 . S
H521 C519 0.930 . S
H522 C537 0.930 1_545 S
H523 C544 0.930 . S
H524 C518 0.929 . S
H525 C517 0.930 . S
H526 C540 0.929 . S
H527 C507 0.931 . S
H528 C513 0.931 . S
H529 C514 0.931 . S
H530 C535 0.931 . S
H531 C510 0.929 . S
H532 C543 0.930 . S
N533 Eu504 2.600 1_565 S
N533 C534 1.365 . S
N533 C537 1.319 . S
C534 N533 1.365 . S
C534 C536 1.405 . S
C534 C542 1.448 . S
C535 H530 0.931 . S
C535 C537 1.397 . S
C535 C538 1.367 . S
C536 C534 1.405 . S
C536 C538 1.403 . S
C536 C569 1.439 . S
C537 H522 0.930 1_565 S
C537 N533 1.319 . S
C537 C535 1.397 . S
C538 C535 1.367 . S
C538 C536 1.403 . S
C538 H545 0.929 . S
N539 Eu504 2.562 1_565 S
N539 C540 1.325 . S
N539 C542 1.351 . S
C540 H526 0.929 . S
C540 N539 1.325 . S
C540 C544 1.416 . S
C541 C542 1.430 . S
C541 C543 1.404 . S
C541 C570 1.387 . S
C542 C534 1.448 . S
C542 N539 1.351 . S
C542 C541 1.430 . S
C543 H532 0.930 . S
C543 C541 1.404 . S
C543 C544 1.366 . S
C544 H523 0.930 . S
C544 C540 1.416 . S
C544 C543 1.366 . S
H545 C538 0.929 . S
H546 C569 0.931 . S
H547 C570 0.931 . S
O548 Eu504 2.462 . S
O548 C568 1.252 . S
O549 Eu504 2.373 . S
O549 C560 1.249 . S
O550 Eu515 2.335 . S
O550 C560 1.264 . S
O551 Eu504 2.432 . S
O551 C568 1.268 . S
O552 Eu504 2.291 . S
O552 C567 1.255 . S
O553 Eu515 2.372 . S
O553 C567 1.257 . S
O554 Eu515 2.462 . S
O554 C579 1.252 . S
O555 Eu515 2.373 . S
O555 C571 1.249 . S
O556 Eu504 2.335 . S
O556 C571 1.264 . S
O557 Eu515 2.432 . S
O557 C579 1.268 . S
O558 Eu515 2.291 . S
O558 C578 1.255 . S
O559 Eu504 2.372 . S
O559 C578 1.257 . S
C560 O549 1.249 . S
C560 O550 1.264 . S
C561 C564 1.382 . S
C561 C566 1.390 . S
C561 C568 1.506 . S
C562 C563 1.398 . S
C562 C566 1.392 . S
C563 C562 1.398 . S
C563 C565 1.372 . S
C563 H580 0.931 . S
C564 C561 1.382 . S
C564 C565 1.390 . S
C564 H581 0.931 . S
C565 C563 1.372 . S
C565 C564 1.390 . S
C565 H582 0.929 . S
C566 C561 1.390 . S
C566 C562 1.392 . S
C566 H583 0.930 . S
C567 O552 1.255 . S
C567 O553 1.257 . S
C568 Eu504 2.787 . S
C568 O548 1.252 . S
C568 O551 1.268 . S
C568 C561 1.506 . S
C569 C536 1.439 . S
C569 H546 0.931 . S
C569 C570 1.374 . S
C570 C541 1.387 . S
C570 H547 0.931 . S
C570 C569 1.374 . S
C571 O555 1.249 . S
C571 O556 1.264 . S
C572 C575 1.382 . S
C572 C576 1.390 . S
C572 C579 1.506 . S
C573 C574 1.398 . S
C573 C576 1.392 1_655 S
C574 C573 1.398 . S
C574 C577 1.372 1_655 S
C574 H584 0.931 . S
C575 C572 1.382 . S
C575 C577 1.390 . S
C575 H585 0.931 . S
C576 C572 1.390 . S
C576 C573 1.392 1_455 S
C576 H586 0.930 . S
C577 C574 1.372 1_455 S
C577 C575 1.390 . S
C577 H587 0.929 1_455 S
C578 O558 1.255 . S
C578 O559 1.257 . S
C579 Eu515 2.787 . S
C579 O554 1.252 . S
C579 O557 1.268 . S
C579 C572 1.506 . S
H580 C563 0.931 . S
H581 C564 0.931 . S
H582 C565 0.929 . S
H583 C566 0.930 . S
H584 C574 0.931 . S
H585 C575 0.931 . S
H586 C576 0.930 . S
H587 C577 0.929 1_655 S
Eu588 N617 2.600 1_655 S
Eu588 N623 2.562 1_655 S
Eu588 O632 2.462 . S
Eu588 O633 2.373 1_655 S
Eu588 O635 2.432 . S
Eu588 O636 2.291 . S
Eu588 O640 2.335 . S
Eu588 O643 2.372 . S
Eu588 C652 2.787 . S
C589 N590 1.365 . S
C589 C592 1.405 1_545 S
C589 C596 1.451 . S
N590 C589 1.365 . S
N590 C593 1.319 . S
N590 Eu599 2.600 . S
C591 C593 1.397 . S
C591 C594 1.367 . S
C591 H611 0.931 . S
C592 C589 1.405 1_565 S
C592 C594 1.403 1_565 S
C592 C598 1.439 . S
C593 N590 1.319 . S
C593 C591 1.397 . S
C593 H604 0.930 . S
C594 C591 1.367 . S
C594 C592 1.403 1_545 S
C594 H615 0.929 1_545 S
C595 C596 1.427 1_565 S
C595 C597 1.387 . S
C595 C601 1.404 . S
C596 C589 1.451 . S
C596 C595 1.427 1_545 S
C596 N600 1.351 . S
C597 C595 1.387 . S
C597 C598 1.374 . S
C597 H612 0.931 . S
C598 C592 1.439 . S
C598 C597 1.374 . S
C598 H613 0.931 . S
Eu599 N590 2.600 . S
Eu599 N600 2.562 . S
Eu599 O634 2.335 . S
Eu599 O637 2.372 . S
Eu599 O638 2.462 . S
Eu599 O639 2.373 . S
Eu599 O641 2.432 . S
Eu599 O642 2.291 . S
Eu599 C663 2.787 . S
N600 C596 1.351 . S
N600 Eu599 2.562 . S
N600 C602 1.325 . S
C601 C595 1.404 . S
C601 C603 1.366 . S
C601 H609 0.930 . S
C602 N600 1.325 . S
C602 C603 1.416 1_545 S
C602 H608 0.929 . S
C603 C601 1.366 . S
C603 C602 1.416 1_565 S
C603 H605 0.930 . S
H604 C593 0.930 . S
H605 C603 0.930 . S
H606 C621 0.930 1_655 S
H607 C628 0.930 . S
H608 C602 0.929 . S
H609 C601 0.930 . S
H610 C624 0.929 . S
H611 C591 0.931 . S
H612 C597 0.931 . S
H613 C598 0.931 . S
H614 C619 0.931 . S
H615 C594 0.929 1_565 S
H616 C627 0.930 . S
N617 Eu588 2.600 1_455 S
N617 C618 1.365 . S
N617 C621 1.319 . S
C618 N617 1.365 . S
C618 C620 1.405 . S
C618 C626 1.448 . S
C619 H614 0.931 . S
C619 C621 1.397 . S
C619 C622 1.367 . S
C620 C618 1.405 . S
C620 C622 1.403 . S
C620 C653 1.439 . S
C621 H606 0.930 1_455 S
C621 N617 1.319 . S
C621 C619 1.397 . S
C622 C619 1.367 . S
C622 C620 1.403 . S
C622 H629 0.929 . S
N623 Eu588 2.562 1_455 S
N623 C624 1.325 . S
N623 C626 1.351 . S
C624 H610 0.929 . S
C624 N623 1.325 . S
C624 C628 1.416 . S
C625 C626 1.430 . S
C625 C627 1.404 . S
C625 C654 1.387 . S
C626 C618 1.448 . S
C626 N623 1.351 . S
C626 C625 1.430 . S
C627 H616 0.930 . S
C627 C625 1.404 . S
C627 C628 1.366 . S
C628 H607 0.930 . S
C628 C624 1.416 . S
C628 C627 1.366 . S
H629 C622 0.929 . S
H630 C653 0.931 . S
H631 C654 0.931 . S
O632 Eu588 2.462 . S
O632 C652 1.252 . S
O633 Eu588 2.373 1_455 S
O633 C644 1.249 . S
O634 Eu599 2.335 . S
O634 C644 1.264 1_655 S
O635 Eu588 2.432 . S
O635 C652 1.268 . S
O636 Eu588 2.291 . S
O636 C651 1.255 . S
O637 Eu599 2.372 . S
O637 C651 1.257 . S
O638 Eu599 2.462 . S
O638 C663 1.252 . S
O639 Eu599 2.373 . S
O639 C655 1.249 . S
O640 Eu588 2.335 . S
O640 C655 1.264 . S
O641 Eu599 2.432 . S
O641 C663 1.268 . S
O642 Eu599 2.291 . S
O642 C662 1.255 . S
O643 Eu588 2.372 . S
O643 C662 1.257 . S
C644 O633 1.249 . S
C644 O634 1.264 1_455 S
C645 C648 1.382 . S
C645 C650 1.390 . S
C645 C652 1.506 . S
C646 C647 1.398 . S
C646 C650 1.392 . S
C647 C646 1.398 . S
C647 C649 1.372 . S
C647 H664 0.931 . S
C648 C645 1.382 . S
C648 C649 1.390 . S
C648 H665 0.931 . S
C649 C647 1.372 . S
C649 C648 1.390 . S
C649 H666 0.929 . S
C650 C645 1.390 . S
C650 C646 1.392 . S
C650 H667 0.930 . S
C651 O636 1.255 . S
C651 O637 1.257 . S
C652 Eu588 2.787 . S
C652 O632 1.252 . S
C652 O635 1.268 . S
C652 C645 1.506 . S
C653 C620 1.439 . S
C653 H630 0.931 . S
C653 C654 1.374 . S
C654 C625 1.387 . S
C654 H631 0.931 . S
C654 C653 1.374 . S
C655 O639 1.249 . S
C655 O640 1.264 . S
C656 C659 1.382 . S
C656 C660 1.390 . S
C656 C663 1.506 1_565 S
C657 C658 1.398 . S
C657 C660 1.392 . S
C658 C657 1.398 . S
C658 C661 1.372 . S
C658 H668 0.931 . S
C659 C656 1.382 . S
C659 C661 1.390 . S
C659 H669 0.931 . S
C660 C656 1.390 . S
C660 C657 1.392 . S
C660 H670 0.930 . S
C661 C658 1.372 . S
C661 C659 1.390 . S
C661 H671 0.929 . S
C662 O642 1.255 . S
C662 O643 1.257 . S
C663 Eu599 2.787 . S
C663 O638 1.252 . S
C663 O641 1.268 . S
C663 C656 1.506 1_545 S
H664 C647 0.931 . S
H665 C648 0.931 . S
H666 C649 0.929 . S
H667 C650 0.930 . S
H668 C658 0.931 . S
H669 C659 0.931 . S
H670 C660 0.930 . S
H671 C661 0.929 . S
Eu672 N701 2.600 . S
Eu672 N707 2.562 . S
Eu672 O716 2.462 . S
Eu672 O717 2.373 . S
Eu672 O719 2.432 . S
Eu672 O720 2.291 . S
Eu672 O724 2.335 . S
Eu672 O727 2.372 . S
Eu672 C736 2.787 . S
C673 N674 1.365 . S
C673 C676 1.405 1_655 S
C673 C680 1.448 1_655 S
N674 C673 1.365 . S
N674 C677 1.319 . S
N674 Eu683 2.600 . S
C675 C677 1.397 . S
C675 C678 1.367 1_655 S
C675 H695 0.931 . S
C676 C673 1.405 1_455 S
C676 C678 1.403 . S
C676 C682 1.439 . S
C677 N674 1.319 . S
C677 C675 1.397 . S
C677 H688 0.930 . S
C678 C675 1.367 1_455 S
C678 C676 1.403 . S
C678 H699 0.929 . S
C679 C680 1.430 . S
C679 C681 1.387 . S
C679 C685 1.404 . S
C680 C673 1.448 1_455 S
C680 C679 1.430 . S
C680 N684 1.351 1_455 S
C681 C679 1.387 . S
C681 C682 1.374 . S
C681 H696 0.931 . S
C682 C676 1.439 . S
C682 C681 1.374 . S
C682 H697 0.931 . S
Eu683 N674 2.600 . S
Eu683 N684 2.562 . S
Eu683 O718 2.335 . S
Eu683 O721 2.372 . S
Eu683 O722 2.462 . S
Eu683 O723 2.373 . S
Eu683 O725 2.432 . S
Eu683 O726 2.291 . S
Eu683 C747 2.787 1_655 S
N684 C680 1.351 1_655 S
N684 Eu683 2.562 . S
N684 C686 1.322 1_655 S
C685 C679 1.404 . S
C685 C687 1.366 . S
C685 H693 0.930 . S
C686 N684 1.322 1_455 S
C686 C687 1.427 . S
C686 H692 0.920 1_455 S
C687 C685 1.366 . S
C687 C686 1.427 . S
C687 H689 0.930 . S
H688 C677 0.930 . S
H689 C687 0.930 . S
H690 C705 0.930 . S
H691 C712 0.930 . S
H692 C686 0.920 1_655 S
H693 C685 0.930 . S
H694 C708 0.929 . S
H695 C675 0.931 . S
H696 C681 0.931 . S
H697 C682 0.931 . S
H698 C703 0.931 . S
H699 C678 0.929 . S
H700 C711 0.930 . S
N701 Eu672 2.600 . S
N701 C702 1.365 . S
N701 C705 1.319 . S
C702 N701 1.365 . S
C702 C704 1.405 . S
C702 C710 1.448 . S
C703 H698 0.931 . S
C703 C705 1.397 . S
C703 C706 1.367 . S
C704 C702 1.405 . S
C704 C706 1.403 . S
C704 C737 1.439 . S
C705 H690 0.930 . S
C705 N701 1.319 . S
C705 C703 1.397 . S
C706 C703 1.367 . S
C706 C704 1.403 . S
C706 H713 0.929 . S
N707 Eu672 2.562 . S
N707 C708 1.325 . S
N707 C710 1.351 . S
C708 H694 0.929 . S
C708 N707 1.325 . S
C708 C712 1.416 . S
C709 C710 1.430 . S
C709 C711 1.404 . S
C709 C738 1.387 . S
C710 C702 1.448 . S
C710 N707 1.351 . S
C710 C709 1.430 . S
C711 H700 0.930 . S
C711 C709 1.404 . S
C711 C712 1.366 . S
C712 H691 0.930 . S
C712 C708 1.416 . S
C712 C711 1.366 . S
H713 C706 0.929 . S
H714 C737 0.931 . S
H715 C738 0.931 . S
O716 Eu672 2.462 . S
O716 C736 1.252 . S
O717 Eu672 2.373 . S
O717 C728 1.249 . S
O718 Eu683 2.335 . S
O718 C728 1.264 . S
O719 Eu672 2.432 . S
O719 C736 1.268 . S
O720 Eu672 2.291 . S
O720 C735 1.255 . S
O721 Eu683 2.372 . S
O721 C735 1.257 . S
O722 Eu683 2.462 . S
O722 C747 1.252 1_655 S
O723 Eu683 2.373 . S
O723 C739 1.249 . S
O724 Eu672 2.335 . S
O724 C739 1.264 . S
O725 Eu683 2.432 . S
O725 C747 1.268 1_655 S
O726 Eu683 2.291 . S
O726 C746 1.255 . S
O727 Eu672 2.372 . S
O727 C746 1.257 . S
C728 O717 1.249 . S
C728 O718 1.264 . S
C729 C732 1.382 . S
C729 C734 1.390 . S
C729 C736 1.506 . S
C730 C731 1.398 . S
C730 C734 1.392 . S
C731 C730 1.398 . S
C731 C733 1.372 . S
C731 H748 0.931 . S
C732 C729 1.382 . S
C732 C733 1.390 . S
C732 H749 0.931 . S
C733 C731 1.372 . S
C733 C732 1.390 . S
C733 H750 0.929 . S
C734 C729 1.390 . S
C734 C730 1.392 . S
C734 H751 0.930 . S
C735 O720 1.255 . S
C735 O721 1.257 . S
C736 Eu672 2.787 . S
C736 O716 1.252 . S
C736 O719 1.268 . S
C736 C729 1.506 . S
C737 C704 1.439 . S
C737 H714 0.931 . S
C737 C738 1.374 . S
C738 C709 1.387 . S
C738 H715 0.931 . S
C738 C737 1.374 . S
C739 O723 1.249 . S
C739 O724 1.264 . S
C740 C743 1.382 . S
C740 C744 1.390 . S
C740 C747 1.506 . S
C741 C742 1.398 . S
C741 C744 1.392 1_545 S
C742 C741 1.398 . S
C742 C745 1.372 . S
C742 H752 0.931 . S
C743 C740 1.382 . S
C743 C745 1.390 1_565 S
C743 H753 0.931 . S
C744 C740 1.390 . S
C744 C741 1.392 1_565 S
C744 H754 0.930 . S
C745 C742 1.372 . S
C745 C743 1.390 1_545 S
C745 H755 0.929 . S
C746 O726 1.255 . S
C746 O727 1.257 . S
C747 Eu683 2.787 1_455 S
C747 O722 1.252 1_455 S
C747 O725 1.268 1_455 S
C747 C740 1.506 . S
H748 C731 0.931 . S
H749 C732 0.931 . S
H750 C733 0.929 . S
H751 C734 0.930 . S
H752 C742 0.931 . S
H753 C743 0.931 . S
H754 C744 0.930 . S
H755 C745 0.929 . S
C151 C58 1.873 1_556 S
C235 C142 1.873 1_556 S
C226 C67 1.873 1_554 S
C224 C153 2.025 1_554 S
C237 C56 2.024 1_556 S
C69 C140 2.025 1_556 S
C310 C403 1.873 . S
C487 C394 1.873 . S
C478 C319 1.873 . S
C405 C476 2.025 . S
C489 C308 2.025 . S
C392 C321 2.025 . S
C655 C562 1.873 . S
C646 C739 1.873 . S
C730 C571 1.873 . S
C728 C657 2.025 . S
C741 C560 2.025 . S
C573 C644 2.025 1_655 S
C494 C63 4.276 . S
C326 C147 4.275 . S
C231 C410 4.276 . S
C242 C567 4.276 . S
C74 C651 4.276 . S
C735 C158 4.276 . S
C315 C746 4.276 . S
C399 C578 4.276 1_565 S
C662 C483 4.276 1_655 S
