# Generated by pormake.
# Topology rkf, (6)-cn, num edge types: 1
# Building blocks:
#     Node 0, Type 0, BuildingBlock: BETDIP_clean_sbu_0, # of connection points: 6
#     Node 1, Type 0, BuildingBlock: BETDIP_clean_sbu_0, # of connection points: 6
#     Node 2, Type 0, BuildingBlock: BETDIP_clean_sbu_0, # of connection points: 6
#     Node 3, Type 0, BuildingBlock: BETDIP_clean_sbu_0, # of connection points: 6
#     Node 4, Type 0, BuildingBlock: BETDIP_clean_sbu_0, # of connection points: 6
#     Node 5, Type 0, BuildingBlock: BETDIP_clean_sbu_0, # of connection points: 6
#     Edge 6, Type (0, 0), BuildingBlock: XIVTED_clean_linker_0, # of connection points: 2
#     Edge 7, Type (0, 0), BuildingBlock: XIVTED_clean_linker_0, # of connection points: 2
#     Edge 8, Type (0, 0), BuildingBlock: XIVTED_clean_linker_0, # of connection points: 2
#     Edge 9, Type (0, 0), BuildingBlock: XIVTED_clean_linker_0, # of connection points: 2
#     Edge 10, Type (0, 0), BuildingBlock: XIVTED_clean_linker_0, # of connection points: 2
#     Edge 11, Type (0, 0), BuildingBlock: XIVTED_clean_linker_0, # of connection points: 2
#     Edge 12, Type (0, 0), BuildingBlock: XIVTED_clean_linker_0, # of connection points: 2
#     Edge 13, Type (0, 0), BuildingBlock: XIVTED_clean_linker_0, # of connection points: 2
#     Edge 14, Type (0, 0), BuildingBlock: XIVTED_clean_linker_0, # of connection points: 2
#     Edge 15, Type (0, 0), BuildingBlock: XIVTED_clean_linker_0, # of connection points: 2
#     Edge 16, Type (0, 0), BuildingBlock: XIVTED_clean_linker_0, # of connection points: 2
#     Edge 17, Type (0, 0), BuildingBlock: XIVTED_clean_linker_0, # of connection points: 2
#     Edge 18, Type (0, 0), BuildingBlock: XIVTED_clean_linker_0, # of connection points: 2
#     Edge 19, Type (0, 0), BuildingBlock: XIVTED_clean_linker_0, # of connection points: 2
#     Edge 20, Type (0, 0), BuildingBlock: XIVTED_clean_linker_0, # of connection points: 2
#     Edge 21, Type (0, 0), BuildingBlock: XIVTED_clean_linker_0, # of connection points: 2
#     Edge 22, Type (0, 0), BuildingBlock: XIVTED_clean_linker_0, # of connection points: 2
#     Edge 23, Type (0, 0), BuildingBlock: XIVTED_clean_linker_0, # of connection points: 2
# Relax obj value: 0.717
# Max RMSD: 0.247
# Mean RMSD: 0.247
data_MOF--net-rkf--node1-BETDIP_clean_sbu_0--edge1-XIVTED_clean_linker_0
_symmetry_space_group_name_H-M    P1
_symmetry_Int_Tables_number       1
_symmetry_cell_setting            triclinic
loop_
_symmetry_equiv_pos_as_xyz
'x, y, z'
_cell_length_a     24.914637
_cell_length_b     24.982848
_cell_length_c     44.410458
_cell_angle_alpha  91.183052
_cell_angle_beta   89.194477
_cell_angle_gamma 119.69119
loop_
_atom_site_label
_atom_site_type_symbol
_atom_site_fract_x
_atom_site_fract_y
_atom_site_fract_z
_atom_type_partial_charge
Tb0 Tb 0.31631 0.13141 0.16634 0.0
Tb1 Tb 0.40833 0.25865 1.14813 0.0
C2 C 0.26656 0.02273 0.18454 0.0
C3 C 0.27821 -0.01705 0.20418 0.0
C4 C 0.28518 0.93533 0.19073 0.0
C5 C 0.28853 0.89161 0.20833 0.0
C6 C 0.28451 0.89444 0.23977 0.0
C7 C 0.2816 0.94445 0.25333 0.0
C8 C 0.27835 -0.01161 0.23566 0.0
C9 C 0.26846 0.19159 1.14052 0.0
C10 C 0.36193 0.23869 0.21664 0.0
C11 C 0.4743 0.36615 1.12881 0.0
C12 C 0.47576 0.40819 1.10599 0.0
C13 C 0.44384 0.38655 1.07874 0.0
C14 C 0.4408 0.42789 1.05905 0.0
C15 C 0.46888 0.49107 1.06662 0.0
C16 C 0.50209 0.51245 1.09357 0.0
C17 C 0.50576 0.47133 1.11301 0.0
C18 C 0.45489 0.19644 0.17452 0.0
C19 C 0.34111 0.15058 1.0965 0.0
O20 O 0.30308 0.04299 0.16117 0.0
O21 O 0.25466 0.06428 0.19651 0.0
O22 O 0.31362 0.21435 0.1579 0.0
O23 O 0.24209 0.13212 1.14125 0.0
O24 O 0.34145 0.17902 0.21118 0.0
O25 O 0.38401 0.27823 0.19399 0.0
O26 O 0.43138 0.35117 1.14933 0.0
O27 O 0.48045 0.31921 1.11984 0.0
O28 O 0.41183 0.17601 0.15579 0.0
O29 O 0.4767 0.25505 0.17718 0.0
O30 O 0.37282 0.21129 1.1028 0.0
O31 O 0.32091 0.11069 1.11865 0.0
H32 H 0.28539 0.93033 0.16643 0.0
H33 H 0.29103 0.8538 0.19731 0.0
H34 H 0.2775 0.94736 0.27755 0.0
H35 H 0.27329 0.02481 0.24659 0.0
H36 H 0.41977 0.33776 1.07318 0.0
H37 H 0.414 0.40999 1.03863 0.0
H38 H 0.52387 0.56067 1.09996 0.0
H39 H 0.5303 0.48859 1.1341 0.0
Tb40 Tb 0.31822 0.34282 0.50231 0.0
Tb41 Tb 0.27308 0.42918 0.48809 0.0
C42 C 0.37721 0.29129 0.51869 0.0
C43 C 0.41866 0.29022 0.54147 0.0
C44 C 0.47017 0.28617 0.53145 0.0
C45 C 0.50611 0.27596 0.55178 0.0
C46 C 0.49105 0.26963 0.58253 0.0
C47 C 0.44188 0.27797 0.59282 0.0
C48 C 0.40577 0.2881 0.57238 0.0
C49 C 0.21516 0.29313 0.47212 0.0
C50 C 0.24609 0.37485 0.55407 0.0
C51 C 0.22925 0.49577 0.47253 0.0
C52 C 0.20444 0.51362 0.44755 0.0
C53 C 0.20416 0.49237 0.41813 0.0
C54 C 0.17547 0.5065 0.3953 0.0
C55 C 0.14651 0.54166 0.40175 0.0
C56 C 0.14957 0.56505 0.43103 0.0
C57 C 0.17848 0.55117 0.45377 0.0
C58 C 0.3774 0.47728 0.51863 0.0
C59 C 0.3272 0.37952 0.43373 0.0
O60 O 0.40046 0.33987 0.50172 0.0
O61 O 0.31905 0.27113 0.52579 0.0
O62 O 0.22916 0.33276 0.49275 0.0
O63 O 0.2542 0.2734 0.47129 0.0
O64 O 0.28871 0.35853 0.54801 0.0
O65 O 0.22659 0.39663 0.53221 0.0
O66 O 0.19543 0.43944 0.48223 0.0
O67 O 0.28813 0.5132 0.47133 0.0
O68 O 0.36205 0.43926 0.49711 0.0
O69 O 0.33532 0.49243 0.52244 0.0
O70 O 0.29322 0.4058 0.44137 0.0
O71 O 0.34896 0.3591 0.45504 0.0
H72 H 0.48099 0.28811 0.50763 0.0
H73 H 0.54396 0.27022 0.54329 0.0
H74 H 0.4288 0.27265 0.61639 0.0
H75 H 0.36641 0.29154 0.58059 0.0
H76 H 0.22422 0.46336 0.41308 0.0
H77 H 0.17287 0.48693 0.37301 0.0
H78 H 0.1278 0.5922 0.43658 0.0
H79 H 0.17886 0.5682 0.47646 0.0
Tb80 Tb 0.08415 0.36603 0.84269 0.0
Tb81 Tb -0.02451 0.25528 0.82056 0.0
C82 C 0.16078 0.4783 0.85171 0.0
C83 C 0.18454 0.5224 0.87686 0.0
C84 C 0.23495 0.58111 0.87179 0.0
C85 C 0.27113 0.61686 0.89591 0.0
C86 C 0.2574 0.59381 0.9253 0.0
C87 C 0.20211 0.53833 0.93053 0.0
C88 C 0.16597 0.50267 0.90638 0.0
C89 C 0.10695 0.27562 0.83655 0.0
C90 C 0.00556 0.26677 0.89085 0.0
C91 C 0.87966 0.15252 0.81299 0.0
C92 C 0.8226 0.12991 0.7957 0.0
C93 C 0.82283 0.15521 0.76783 0.0
C94 C 0.7683 0.13241 0.75146 0.0
C95 C 0.71226 0.08427 0.76278 0.0
C96 C 0.71183 0.06166 0.79158 0.0
C97 C 0.76665 0.08421 0.80784 0.0
C98 C 0.96309 0.35388 0.82793 0.0
C99 C 0.06667 0.33371 0.76924 0.0
O100 O 0.10365 0.45822 0.84358 0.0
O101 O 0.17423 0.43404 0.85286 0.0
O102 O 0.07283 0.28601 0.81959 0.0
O103 O 0.12712 0.3156 0.85865 0.0
O104 O 0.04107 0.32735 0.88709 0.0
O105 O -0.01294 0.22997 0.86667 0.0
O106 O 0.93099 0.16976 0.79779 0.0
O107 O 0.88631 0.19123 0.83468 0.0
O108 O -0.01093 0.3346 0.84485 0.0
O109 O 0.94201 0.31721 0.80479 0.0
O110 O 0.01597 0.28092 0.77522 0.0
O111 O 0.09725 0.3733 0.79189 0.0
H112 H 0.2496 0.59697 0.84903 0.0
H113 H 0.31297 0.65976 0.89129 0.0
H114 H 0.1903 0.51899 0.95284 0.0
H115 H 0.12704 0.45731 0.91059 0.0
H116 H 0.8654 0.19154 0.75838 0.0
H117 H 0.77108 0.15042 0.72918 0.0
H118 H 0.66955 0.02523 0.80115 0.0
H119 H 0.76556 0.06528 0.82972 0.0
Tb120 Tb 0.86446 0.09366 0.17129 0.0
Tb121 Tb 0.79406 0.96285 1.1492 0.0
C122 C 0.896 0.19921 0.19204 0.0
C123 C 0.88295 0.2349 0.21473 0.0
C124 C 0.86716 0.27821 0.20462 0.0
C125 C 0.86656 0.3218 0.2245 0.0
C126 C 0.88178 0.32276 0.25484 0.0
C127 C 0.89235 0.27599 0.26543 0.0
C128 C 0.89319 0.23246 0.24548 0.0
C129 C 0.93214 0.04955 1.14848 0.0
C130 C 0.83029 -0.0131 0.21833 0.0
C131 C 0.7523 0.85591 1.12773 0.0
C132 C 0.70418 0.81327 1.107 0.0
C133 C 0.69141 0.83376 1.08037 0.0
C134 C 0.65185 0.7911 1.05907 0.0
C135 C 0.62439 0.72724 1.0641 0.0
C136 C 0.63276 0.70754 1.09219 0.0
C137 C 0.6726 0.75026 1.11339 0.0
C138 C 0.7253 0.01096 0.16789 0.0
C139 C 0.84904 0.0742 1.1003 0.0
O140 O 0.85361 0.17098 0.17157 0.0
O141 O 0.92216 0.16729 0.20019 0.0
O142 O 0.88469 0.02027 0.1643 0.0
O143 O 0.94768 0.10723 1.14832 0.0
O144 O 0.83563 0.04211 0.21445 0.0
O145 O 0.82486 0.95212 0.19421 0.0
O146 O 0.79962 0.90462 1.11618 0.0
O147 O 0.73245 0.86834 0.15279 0.0
O148 O 0.77503 0.03686 0.15357 0.0
O149 O 0.70858 0.95336 0.16966 0.0
O150 O 0.82056 0.01325 1.10504 0.0
O151 O 0.86616 0.11364 1.12336 0.0
H152 H 0.85897 0.28077 0.18092 0.0
H153 H 0.85799 0.35707 0.21579 0.0
H154 H 0.905 0.27598 0.28866 0.0
H155 H 0.90529 0.1994 0.25384 0.0
H156 H 0.71456 0.88241 1.07528 0.0
H157 H 0.64733 0.80841 1.03767 0.0
H158 H 0.61206 0.65903 1.09697 0.0
H159 H 0.68114 0.73384 1.13419 0.0
Tb160 Tb 0.87433 0.88756 0.50088 0.0
Tb161 Tb 0.92088 0.80225 0.48356 0.0
C162 C 0.81213 0.9361 0.51907 0.0
C163 C 0.76771 0.93305 0.54182 0.0
C164 C 0.72392 0.94953 0.53335 0.0
C165 C 0.68049 0.94756 0.55409 0.0
C166 C 0.68023 0.9292 0.58377 0.0
C167 C 0.72327 0.91092 0.59194 0.0
C168 C 0.76661 0.91262 0.57105 0.0
C169 C -0.02336 0.93862 0.46973 0.0
C170 C 0.94951 0.85745 0.54994 0.0
C171 C 0.96457 0.73549 0.46597 0.0
C172 C -0.01006 0.7172 0.44061 0.0
C173 C -0.01245 0.73483 0.41119 0.0
C174 C 0.01634 0.72002 0.38788 0.0
C175 C 0.04806 0.68783 0.39386 0.0
C176 C 0.0479 0.66818 0.42321 0.0
C177 C 0.01889 0.68269 0.44642 0.0
C178 C 0.81706 0.75399 0.51508 0.0
C179 C 0.86539 0.85063 0.43173 0.0
O180 O 0.79138 0.88879 0.50062 0.0
O181 O 0.86962 0.95635 0.52707 0.0
O182 O 0.96372 0.8989 0.48953 0.0
O183 O 0.93738 0.9581 0.47074 0.0
O184 O 0.90645 0.87342 0.54533 0.0
O185 O -0.03157 0.83544 0.52719 0.0
O186 O -0.00155 0.79177 0.47649 0.0
O187 O 0.90577 0.71839 0.46487 0.0
O188 O 0.83185 0.79142 0.49404 0.0
O189 O 0.85967 0.73965 0.51804 0.0
O190 O 0.90068 0.82572 0.4379 0.0
O191 O 0.84275 0.86974 0.45398 0.0
H192 H 0.72367 0.9645 0.51064 0.0
H193 H 0.64772 0.9613 0.54699 0.0
H194 H 0.72506 0.89752 0.61477 0.0
H195 H 0.79965 0.89895 0.57781 0.0
H196 H 0.9652 0.76148 0.40646 0.0
H197 H 0.01667 0.73671 0.36552 0.0
H198 H 0.07188 0.64341 0.42836 0.0
H199 H 0.0206 0.66847 0.46912 0.0
Tb200 Tb 0.0823 0.89551 0.83356 0.0
Tb201 Tb 0.20351 0.90311 0.82143 0.0
C202 C -0.02935 0.85935 0.84467 0.0
C203 C 0.91612 0.824 0.86345 0.0
C204 C 0.85845 0.80598 0.85067 0.0
C205 C 0.80424 0.76634 0.86586 0.0
C206 C 0.80667 0.74422 0.89431 0.0
C207 C 0.86489 0.76237 0.9071 0.0
C208 C 0.91938 0.80176 0.89164 0.0
C209 C 0.16503 -0.00331 0.80743 0.0
C210 C 0.18241 0.94489 0.88703 0.0
C211 C 0.30846 0.91954 0.80646 0.0
C212 C 0.35244 0.9425 0.78135 0.0
C213 C 0.33241 0.93876 0.75167 0.0
C214 C 0.37552 0.96755 0.72869 0.0
C215 C 0.43911 0.00101 0.73515 0.0
C216 C 0.45903 0.00191 0.76465 0.0
C217 C 0.41588 0.97264 0.78758 0.0
C218 C 0.11752 0.79905 0.84598 0.0
C219 C 0.1115 0.88222 0.7654 0.0
O220 O -0.00936 0.82658 0.83019 0.0
O221 O 0.01543 0.91275 0.85434 0.0
O222 O 0.17487 0.9686 0.82759 0.0
O223 O 0.10602 0.97366 0.80439 0.0
O224 O 0.12229 0.916 0.88011 0.0
O225 O 0.22362 0.9502 0.86616 0.0
O226 O 0.29947 0.96089 0.82057 0.0
O227 O 0.25697 0.86766 0.8021 0.0
O228 O 0.11068 0.82923 0.82572 0.0
O229 O 0.17534 0.82724 0.85301 0.0
O230 O 0.16959 0.90039 0.77392 0.0
O231 O 0.06846 0.87039 0.78596 0.0
H232 H 0.85533 0.82164 0.82852 0.0
H233 H 0.76041 0.7527 0.85518 0.0
H234 H 0.86838 0.74696 0.92922 0.0
H235 H 0.96373 0.81438 0.90147 0.0
H236 H 0.28358 0.91591 0.74647 0.0
H237 H 0.35881 0.96706 0.70624 0.0
H238 H 0.50774 0.02741 0.77015 0.0
H239 H 0.43197 0.97573 0.81044 0.0
H240 H 0.00732 0.00583 0.16481 0.0
H241 H 0.27761 0.20723 1.07771 0.0
H242 H 0.92898 0.03714 1.08635 0.0
H243 H 0.20565 0.25352 0.15531 0.0
H244 H 0.17252 0.13063 1.06216 0.0
H245 H 0.10887 0.06107 1.14131 0.0
C246 C 0.01068 0.02115 1.14185 0.0
C247 C 0.96149 0.02383 1.12884 0.0
C248 C 0.17951 0.15934 1.08197 0.0
C249 C 0.07576 0.08826 1.1028 0.0
C250 C 0.23914 0.2027 1.09108 0.0
C251 C 0.24805 0.2246 1.12103 0.0
C252 C 0.13085 0.14854 1.10144 0.0
C253 C 0.19936 0.22939 1.13397 0.0
C254 C 0.06886 0.05372 1.12863 0.0
C255 C 0.96782 0.0413 1.09856 0.0
N256 N 0.14125 0.18722 1.1255 0.0
N257 N 0.02514 0.07811 1.08723 0.0
H258 H -0.01694 0.94461 0.4086 0.0
H259 H 0.09489 0.23792 0.48961 0.0
H260 H 0.09646 0.00442 0.4876 0.0
H261 H 0.21072 0.28331 0.41099 0.0
H262 H 0.03407 0.13289 0.47012 0.0
H263 H 0.02952 0.05145 0.39242 0.0
C264 C 0.0208 0.97986 0.4216 0.0
C265 C 0.03177 0.96776 0.45098 0.0
C266 C 0.07112 0.16687 0.45635 0.0
C267 C 0.08631 0.08703 0.43224 0.0
C268 C 0.10505 0.22712 0.46723 0.0
C269 C 0.16072 0.26671 0.45302 0.0
C270 C 0.0941 0.14854 0.4315 0.0
C271 C 0.17042 0.2515 0.42359 0.0
C272 C 0.04632 0.04073 0.4125 0.0
C273 C 0.08392 0.01313 0.46573 0.0
N274 N 0.14044 0.19161 0.41456 0.0
N275 N 0.10728 0.07226 0.45715 0.0
H276 H 0.27116 0.08368 0.83442 0.0
H277 H 0.11852 0.25206 0.77728 0.0
H278 H 0.16445 0.04483 0.75337 0.0
H279 H 0.19637 0.26368 0.86499 0.0
H280 H 0.19072 0.22311 0.75546 0.0
H281 H 0.30983 0.19344 0.82764 0.0
C282 C 0.25813 0.09859 0.81442 0.0
C283 C 0.21073 0.05621 0.79575 0.0
C284 C 0.19284 0.23305 0.77942 0.0
C285 C 0.25178 0.17919 0.78884 0.0
C286 C 0.15061 0.24814 0.79201 0.0
C287 C 0.14928 0.25679 0.82326 0.0
C288 C 0.23187 0.22353 0.79837 0.0
C289 C 0.19395 0.25432 0.84098 0.0
C290 C 0.28033 0.16127 0.81045 0.0
C291 C 0.19762 0.077 0.76945 0.0
N292 N 0.2325 0.2364 0.82839 0.0
N293 N 0.21693 0.13775 0.76703 0.0
H294 H 0.438 0.57748 1.08521 0.0
H295 H 0.24742 0.60995 0.98623 0.0
H296 H 0.47629 0.50069 1.0053 0.0
H297 H 0.37842 0.62743 0.91712 0.0
H298 H 0.31762 0.61045 1.02417 0.0
H299 H 0.40442 0.63421 1.05343 0.0
C300 C 0.44028 0.57334 1.06097 0.0
C301 C 0.45849 0.53319 1.04779 0.0
C302 C 0.33232 0.617 1.00084 0.0
C303 C 0.41908 0.5967 1.01156 0.0
C304 C 0.292 0.61639 0.97916 0.0
C305 C 0.30646 0.61736 0.94846 0.0
C306 C 0.38688 0.61777 0.99156 0.0
C307 C 0.36507 0.62622 0.9405 0.0
C308 C 0.42053 0.60524 1.04292 0.0
C309 C 0.46087 0.52977 1.01633 0.0
N310 N 0.40227 0.62409 0.96185 0.0
N311 N 0.44067 0.56059 0.99927 0.0
H312 H 0.17012 0.56944 0.34205 0.0
H313 H 0.95207 0.44322 0.23898 0.0
H314 H 0.02886 0.51982 0.41013 0.0
H315 H 0.85261 0.32871 0.31418 0.0
H316 H 0.01002 0.5292 0.27383 0.0
H317 H 0.09232 0.54249 0.30336 0.0
C318 C 0.12293 0.55473 0.3488 0.0
C319 C 0.10545 0.54512 0.37917 0.0
C320 C -0.02546 0.48565 0.28263 0.0
C321 C 0.01595 0.51432 0.3352 0.0
C322 C 0.94079 0.43666 0.26274 0.0
C323 C 0.89911 0.3781 0.27391 0.0
C324 C 0.96694 0.47531 0.31371 0.0
C325 C 0.886 0.37259 0.30482 0.0
C326 C 0.07841 0.5399 0.32672 0.0
C327 C 0.04406 0.52712 0.38688 0.0
N328 N 0.92101 0.42027 0.3238 0.0
N329 N 0.00101 0.51031 0.36496 0.0
H330 H 0.63042 0.95992 0.75876 0.0
H331 H 0.65151 0.02158 0.59018 0.0
H332 H 0.67011 0.13258 0.71966 0.0
H333 H 0.61756 0.85174 0.63043 0.0
H334 H 0.61091 0.04595 0.63526 0.0
H335 H 0.57543 0.90641 0.71344 0.0
C336 C 0.62589 -0.01328 0.74115 0.0
C337 C 0.65848 0.05145 0.74231 0.0
C338 C 0.61063 0.00247 0.63397 0.0
C339 C 0.59801 -0.00975 0.68972 0.0
C340 C 0.63377 -0.01165 0.6081 0.0
C341 C 0.64038 0.93566 0.60703 0.0
C342 C 0.59548 0.9644 0.65914 0.0
C343 C 0.61596 0.89427 0.63089 0.0
C344 C 0.5947 0.95589 0.715 0.0
C345 C 0.6491 0.08288 0.71894 0.0
N346 N 0.59613 0.91029 0.65631 0.0
N347 N 0.62191 0.05226 0.69303 0.0
H348 H 0.55581 0.7268 1.0156 0.0
H349 H 0.77744 0.64499 0.93032 0.0
H350 H 0.6401 0.62757 1.05223 0.0
H351 H 0.70327 0.75625 0.8972 0.0
H352 H 0.69194 0.59882 0.96631 0.0
H353 H 0.56727 0.69301 0.96522 0.0
C354 C 0.57503 0.69639 1.01319 0.0
C355 C 0.6012 0.68382 1.03794 0.0
C356 C 0.69347 0.63214 0.9506 0.0
C357 C 0.61526 0.64591 0.98059 0.0
C358 C 0.74271 0.65904 0.93029 0.0
C359 C 0.74889 0.70628 0.91152 0.0
C360 C 0.65092 0.6536 0.95251 0.0
C361 C 0.70117 0.72081 0.91157 0.0
C362 C 0.58158 0.67705 0.98438 0.0
C363 C 0.62188 0.64108 1.03372 0.0
N364 N 0.65507 0.69568 0.93227 0.0
N365 N 0.63073 0.62554 1.0054 0.0
H366 H 0.16764 0.71458 0.39985 0.0
H367 H 0.20537 0.77346 0.2264 0.0
H368 H 0.02088 0.65214 0.33479 0.0
H369 H 0.33225 0.89205 0.29482 0.0
H370 H 0.15773 0.69109 0.26286 0.0
H371 H 0.24179 0.73822 0.35871 0.0
C372 C 0.15068 0.70373 0.37695 0.0
C373 C 0.08844 0.6834 0.37051 0.0
C374 C 0.19752 0.73439 0.26956 0.0
C375 C 0.17279 0.71052 0.3237 0.0
C376 C 0.22501 0.7815 0.24875 0.0
C377 C 0.27146 0.84037 0.25798 0.0
C378 C 0.21634 0.74666 0.2997 0.0
C379 C 0.29506 0.84788 0.28717 0.0
C380 C 0.19307 0.71732 0.35354 0.0
C381 C 0.0689 0.6698 0.34054 0.0
N382 N 0.26613 0.80195 0.30731 0.0
N383 N 0.11121 0.68486 0.31812 0.0
H384 H 0.45079 0.97581 0.67586 0.0
H385 H 0.53218 0.30696 0.64032 0.0
H386 H 0.52413 0.12235 0.74257 0.0
H387 H 0.51304 0.17456 0.57134 0.0
H388 H 0.55317 0.24812 0.67697 0.0
H389 H 0.49734 0.05233 0.63636 0.0
C390 C 0.47811 0.02407 0.68216 0.0
C391 C 0.48225 0.04305 0.71235 0.0
C392 C 0.54614 0.2328 0.65365 0.0
C393 C 0.5341 0.13083 0.6675 0.0
C394 C 0.53387 0.2663 0.63279 0.0
C395 C 0.51947 0.2448 0.60298 0.0
C396 C 0.54231 0.17668 0.6447 0.0
C397 C 0.52339 0.19252 0.59419 0.0
C398 C 0.50481 0.06783 0.65966 0.0
C399 C 0.51917 0.10589 0.71948 0.0
N400 N 0.53286 0.15934 0.61513 0.0
N401 N 0.54223 0.14778 0.69714 0.0
H402 H 0.56849 0.24854 0.20017 0.0
H403 H 0.74752 0.12487 0.15272 0.0
H404 H 0.42311 0.07553 0.16494 0.0
H405 H 0.60998 0.95696 0.1939 0.0
H406 H 0.68195 0.17021 0.16199 0.0
H407 H 0.63498 0.2026 0.204 0.0
C408 C 0.55025 0.20061 0.19367 0.0
C409 C 0.49078 0.16603 0.18161 0.0
C410 C 0.6667 0.1239 0.16959 0.0
C411 C 0.56628 0.11361 0.18599 0.0
C412 C 0.70433 0.09815 0.16453 0.0
C413 C 0.68522 0.03796 0.17359 0.0
C414 C 0.60855 0.08855 0.18298 0.0
C415 C 0.6267 0.00394 0.18701 0.0
C416 C 0.58822 0.17465 0.19578 0.0
C417 C 0.46907 0.10388 0.17392 0.0
N418 N 0.58978 0.02949 0.19097 0.0
N419 N 0.50712 0.07957 0.17602 0.0
H420 H 0.46758 0.44596 0.52018 0.0
H421 H 0.77208 0.65187 0.5497 0.0
H422 H 0.4312 0.59404 0.54168 0.0
H423 H 0.71971 0.77353 0.50794 0.0
H424 H 0.66327 0.58207 0.56217 0.0
H425 H 0.57659 0.51436 0.53098 0.0
C426 C 0.48238 0.49246 0.52776 0.0
C427 C 0.44077 0.51465 0.52968 0.0
C428 C 0.67599 0.62455 0.55065 0.0
C429 C 0.56498 0.59322 0.54209 0.0
C430 C 0.73781 0.66438 0.54364 0.0
C431 C 0.75434 0.71773 0.52722 0.0
C432 C 0.63104 0.63878 0.54128 0.0
C433 C 0.70863 0.73249 0.52029 0.0
C434 C 0.54449 0.53138 0.53428 0.0
C435 C 0.46217 0.5754 0.53977 0.0
N436 N 0.64871 0.6928 0.52713 0.0
N437 N 0.52336 0.61328 0.54481 0.0
H438 H 0.94639 0.42479 0.78648 0.0
H439 H 0.12646 0.72414 0.88689 0.0
H440 H -0.01321 0.41908 0.88008 0.0
H441 H 0.02114 0.72085 0.80992 0.0
H442 H 0.07369 0.61146 0.88507 0.0
H443 H -0.02988 0.53218 0.79418 0.0
C444 C 0.95902 0.44577 0.80872 0.0
C445 C 0.96575 0.41374 0.83255 0.0
C446 C 0.06126 0.63529 0.86889 0.0
C447 C -0.00639 0.53582 0.84144 0.0
C448 C 0.09139 0.69954 0.86996 0.0
C449 C 0.0784 0.73166 0.84843 0.0
C450 C 0.01875 0.60304 0.84575 0.0
C451 C 0.0326 0.6977 0.8269 0.0
C452 C -0.02734 0.50692 0.81312 0.0
C453 C -0.01801 0.44269 0.861 0.0
N454 N 0.00518 0.63517 0.82574 0.0
N455 N -0.00352 0.5024 0.86453 0.0
H456 H 0.34802 0.18071 0.27134 0.0
H457 H 0.30782 0.42396 0.37927 0.0
H458 H 0.36647 0.34826 0.23601 0.0
H459 H 0.36265 0.29718 0.41207 0.0
H460 H 0.31726 0.39236 0.32709 0.0
H461 H 0.34114 0.21667 0.32248 0.0
C462 C 0.35062 0.2251 0.27413 0.0
C463 C 0.35832 0.26119 0.24866 0.0
C464 C 0.32754 0.37169 0.34573 0.0
C465 C 0.34904 0.30298 0.30841 0.0
C466 C 0.32221 0.3899 0.37574 0.0
C467 C 0.33515 0.36426 0.40082 0.0
C468 C 0.34447 0.326 0.34022 0.0
C469 C 0.35283 0.31945 0.39402 0.0
C470 C 0.34673 0.2458 0.30362 0.0
C471 C 0.36108 0.31849 0.25454 0.0
N472 N 0.35635 0.30178 0.3649 0.0
N473 N 0.35601 0.3371 0.28339 0.0
H474 H 0.13265 0.36083 0.57186 0.0
H475 H 0.18989 0.39781 0.75106 0.0
H476 H 0.29766 0.37572 0.60982 0.0
H477 H 0.00716 0.29166 0.71408 0.0
H478 H 0.23348 0.40692 0.69991 0.0
H479 H 0.08977 0.35171 0.62302 0.0
C480 C 0.16023 0.36244 0.59085 0.0
C481 C 0.2193 0.36893 0.5859 0.0
C482 C 0.18381 0.38197 0.7029 0.0
C483 C 0.17004 0.35983 0.64569 0.0
C484 C 0.15865 0.37716 0.73225 0.0
C485 C 0.0942 0.34429 0.73743 0.0
C486 C 0.14471 0.35518 0.67781 0.0
C487 C 0.05691 0.31774 0.71165 0.0
C488 C 0.13539 0.35702 0.62026 0.0
C489 C 0.25198 0.37046 0.61202 0.0
N490 N 0.08238 0.32429 0.68333 0.0
N491 N 0.22746 0.36669 0.64043 0.0
H492 H 0.93771 0.14338 0.90554 0.0
H493 H 0.91098 0.19673 1.08423 0.0
H494 H 0.02237 0.32315 0.94803 0.0
H495 H 0.83392 0.01575 1.04344 0.0
H496 H 0.94912 0.24244 1.03491 0.0
H497 H 0.89878 0.09646 0.95478 0.0
C498 C 0.94861 0.1734 0.92514 0.0
C499 C -0.01583 0.23807 0.92197 0.0
C500 C 0.92371 0.19272 1.03653 0.0
C501 C 0.93808 0.18316 0.97966 0.0
C502 C 0.90135 0.16608 1.06497 0.0
C503 C 0.86823 0.10145 1.06873 0.0
C504 C 0.91353 0.15525 1.01074 0.0
C505 C 0.8585 0.06551 1.0422 0.0
C506 C 0.92596 0.14616 0.9535 0.0
C507 C -0.00428 0.27338 0.94882 0.0
N508 N 0.88085 0.09265 1.0147 0.0
N509 N -0.02712 0.24574 0.97614 0.0
H510 H 0.84678 0.88888 0.23388 0.0
H511 H 0.81953 0.925 0.41364 0.0
H512 H 0.8244 0.03425 0.27509 0.0
H513 H 0.89354 0.81485 0.37562 0.0
H514 H 0.81175 0.95721 0.36309 0.0
H515 H 0.85505 0.85447 0.28426 0.0
C516 C 0.84333 0.91369 0.25341 0.0
C517 C 0.83469 0.96498 0.24963 0.0
C518 C 0.82943 0.92575 0.3656 0.0
C519 C 0.84375 0.92457 0.30843 0.0
C520 C 0.83361 0.90668 0.39473 0.0
C521 C 0.85685 0.86617 0.3996 0.0
C522 C 0.84779 0.9041 0.3402 0.0
C523 C 0.87488 0.84555 0.3735 0.0
C524 C 0.84831 0.89388 0.28237 0.0
C525 C 0.83101 -0.00532 0.27636 0.0
N526 N 0.86969 0.86433 0.34522 0.0
N527 N 0.83512 0.974 0.30423 0.0
H528 H 0.05019 0.84541 0.56681 0.0
H529 H 0.00554 0.87664 0.74516 0.0
H530 H 0.91214 0.88253 0.6054 0.0
H531 H 0.17088 0.88336 0.70991 0.0
H532 H -0.03025 0.87258 0.69417 0.0
H533 H 0.0927 0.85316 0.61748 0.0
C534 C 0.02856 0.85522 0.58581 0.0
C535 C -0.0231 0.86325 0.58122 0.0
C536 C 0.01388 0.8749 0.6973 0.0
C537 C 0.02603 0.87175 0.64031 0.0
C538 C 0.03474 0.87699 0.72679 0.0
C539 C 0.09185 0.88002 0.73267 0.0
C540 C 0.04935 0.87507 0.6724 0.0
C541 C 0.12667 0.88096 0.70705 0.0
C542 C 0.05324 0.85979 0.61492 0.0
C543 C 0.95177 0.876 0.60726 0.0
N544 N 0.1048 0.87807 0.67829 0.0
N545 N -0.0239 0.8794 0.63528 0.0
H546 H 0.11818 0.92356 0.9417 0.0
H547 H 0.39188 0.19963 1.03944 0.0
H548 H 0.29941 0.0379 0.90412 0.0
H549 H 0.24032 0.04008 1.07975 0.0
H550 H 0.3546 0.15113 0.98913 0.0
H551 H 0.1569 0.97434 0.9911 0.0
C552 C 0.16607 0.95929 0.94363 0.0
C553 C 0.20518 0.97542 0.91812 0.0
C554 C 0.32953 0.12672 1.00902 0.0
C555 C 0.25036 0.03592 0.97557 0.0
C556 C 0.35089 0.15465 1.03793 0.0
C557 C 0.32019 0.12418 1.06454 0.0
C558 C 0.27574 0.06817 1.00615 0.0
C559 C 0.26673 0.0657 1.06039 0.0
C560 C 0.18836 -0.01152 0.97208 0.0
C561 C 0.26706 0.02282 0.92277 0.0
N562 N 0.24641 0.04035 1.03225 0.0
N563 N 0.28726 0.05126 0.95047 0.0
loop_
_geom_bond_atom_site_label_1
_geom_bond_atom_site_label_2
_geom_bond_distance
_geom_bond_site_symmetry_2
_ccdc_geom_bond_type
Tb0 C2 2.809 . S
Tb0 O20 2.484 . S
Tb0 O21 2.440 . S
Tb0 O22 2.658 1_554 S
Tb0 O23 2.409 . S
Tb0 O24 2.378 . S
Tb0 O28 2.325 . S
Tb0 O31 2.341 1_554 S
Tb1 C11 2.809 . S
Tb1 O22 2.325 . S
Tb1 O25 2.341 1_556 S
Tb1 O26 2.484 . S
Tb1 O27 2.440 . S
Tb1 O28 2.658 1_556 S
Tb1 O29 2.409 . S
Tb1 O30 2.378 . S
C2 Tb0 2.809 . S
C2 C3 1.514 . S
C2 O20 1.248 . S
C2 O21 1.266 . S
C3 C2 1.514 . S
C3 C4 1.359 . S
C3 C8 1.348 . S
C4 C3 1.359 . S
C4 C5 1.380 . S
C4 H32 0.929 . S
C5 C4 1.380 . S
C5 C6 1.347 . S
C5 H33 0.931 . S
C6 C5 1.347 . S
C6 C7 1.369 . S
C7 C6 1.369 . S
C7 C8 1.408 . S
C7 H34 0.930 . S
C8 C3 1.348 . S
C8 C7 1.408 . S
C8 H35 0.930 . S
C9 O22 1.281 1_554 S
C9 O23 1.254 . S
C10 O24 1.236 . S
C10 O25 1.266 . S
C11 Tb1 2.809 . S
C11 C12 1.514 . S
C11 O26 1.248 . S
C11 O27 1.266 . S
C12 C11 1.514 . S
C12 C13 1.359 . S
C12 C17 1.348 . S
C13 C12 1.359 . S
C13 C14 1.380 . S
C13 H36 0.929 . S
C14 C13 1.380 . S
C14 C15 1.347 . S
C14 H37 0.931 . S
C15 C14 1.347 . S
C15 C16 1.369 . S
C16 C15 1.369 . S
C16 C17 1.408 . S
C16 H38 0.930 . S
C17 C12 1.348 . S
C17 C16 1.408 . S
C17 H39 0.930 . S
C18 O28 1.281 . S
C18 O29 1.254 1_554 S
C19 O30 1.236 . S
C19 O31 1.266 . S
O20 Tb0 2.484 . S
O20 C2 1.248 . S
O21 Tb0 2.440 . S
O21 C2 1.266 . S
O22 Tb0 2.658 1_556 S
O22 Tb1 2.325 . S
O22 C9 1.281 1_556 S
O23 Tb0 2.409 . S
O23 C9 1.254 . S
O24 Tb0 2.378 . S
O24 C10 1.236 . S
O25 Tb1 2.341 1_554 S
O25 C10 1.266 . S
O26 Tb1 2.484 . S
O26 C11 1.248 . S
O27 Tb1 2.440 . S
O27 C11 1.266 . S
O28 Tb0 2.325 . S
O28 Tb1 2.658 1_554 S
O28 C18 1.281 . S
O29 Tb1 2.409 . S
O29 C18 1.254 1_556 S
O30 Tb1 2.378 . S
O30 C19 1.236 . S
O31 Tb0 2.341 1_556 S
O31 C19 1.266 . S
H32 C4 0.929 . S
H33 C5 0.931 . S
H34 C7 0.930 . S
H35 C8 0.930 . S
H36 C13 0.929 . S
H37 C14 0.931 . S
H38 C16 0.930 . S
H39 C17 0.930 . S
Tb40 C42 2.809 . S
Tb40 O60 2.484 . S
Tb40 O61 2.440 . S
Tb40 O62 2.658 . S
Tb40 O63 2.409 . S
Tb40 O64 2.378 . S
Tb40 O68 2.325 . S
Tb40 O71 2.341 . S
Tb41 C51 2.809 . S
Tb41 O62 2.325 . S
Tb41 O65 2.341 . S
Tb41 O66 2.484 . S
Tb41 O67 2.440 . S
Tb41 O68 2.658 . S
Tb41 O69 2.409 . S
Tb41 O70 2.378 . S
C42 Tb40 2.809 . S
C42 C43 1.514 . S
C42 O60 1.248 . S
C42 O61 1.266 . S
C43 C42 1.514 . S
C43 C44 1.359 . S
C43 C48 1.348 . S
C44 C43 1.359 . S
C44 C45 1.380 . S
C44 H72 0.929 . S
C45 C44 1.380 . S
C45 C46 1.347 . S
C45 H73 0.931 . S
C46 C45 1.347 . S
C46 C47 1.369 . S
C47 C46 1.369 . S
C47 C48 1.408 . S
C47 H74 0.930 . S
C48 C43 1.348 . S
C48 C47 1.408 . S
C48 H75 0.930 . S
C49 O62 1.281 . S
C49 O63 1.254 . S
C50 O64 1.236 . S
C50 O65 1.266 . S
C51 Tb41 2.809 . S
C51 C52 1.514 . S
C51 O66 1.248 . S
C51 O67 1.266 . S
C52 C51 1.514 . S
C52 C53 1.359 . S
C52 C57 1.348 . S
C53 C52 1.359 . S
C53 C54 1.380 . S
C53 H76 0.929 . S
C54 C53 1.380 . S
C54 C55 1.347 . S
C54 H77 0.931 . S
C55 C54 1.347 . S
C55 C56 1.369 . S
C56 C55 1.369 . S
C56 C57 1.408 . S
C56 H78 0.930 . S
C57 C52 1.348 . S
C57 C56 1.408 . S
C57 H79 0.930 . S
C58 O68 1.281 . S
C58 O69 1.254 . S
C59 O70 1.236 . S
C59 O71 1.266 . S
O60 Tb40 2.484 . S
O60 C42 1.248 . S
O61 Tb40 2.440 . S
O61 C42 1.266 . S
O62 Tb40 2.658 . S
O62 Tb41 2.325 . S
O62 C49 1.281 . S
O63 Tb40 2.409 . S
O63 C49 1.254 . S
O64 Tb40 2.378 . S
O64 C50 1.236 . S
O65 Tb41 2.341 . S
O65 C50 1.266 . S
O66 Tb41 2.484 . S
O66 C51 1.248 . S
O67 Tb41 2.440 . S
O67 C51 1.266 . S
O68 Tb40 2.325 . S
O68 Tb41 2.658 . S
O68 C58 1.281 . S
O69 Tb41 2.409 . S
O69 C58 1.254 . S
O70 Tb41 2.378 . S
O70 C59 1.236 . S
O71 Tb40 2.341 . S
O71 C59 1.266 . S
H72 C44 0.929 . S
H73 C45 0.931 . S
H74 C47 0.930 . S
H75 C48 0.930 . S
H76 C53 0.929 . S
H77 C54 0.931 . S
H78 C56 0.930 . S
H79 C57 0.930 . S
Tb80 C82 2.809 . S
Tb80 O100 2.484 . S
Tb80 O101 2.440 . S
Tb80 O102 2.658 . S
Tb80 O103 2.409 . S
Tb80 O104 2.387 . S
Tb80 O108 2.331 . S
Tb80 O111 2.341 . S
Tb81 C91 2.809 . S
Tb81 O102 2.325 1_655 S
Tb81 O105 2.341 . S
Tb81 O106 2.484 . S
Tb81 O107 2.440 . S
Tb81 O108 2.656 1_655 S
Tb81 O109 2.409 . S
Tb81 O110 2.369 1_655 S
C82 Tb80 2.809 . S
C82 C83 1.514 . S
C82 O100 1.248 . S
C82 O101 1.266 . S
C83 C82 1.514 . S
C83 C84 1.359 . S
C83 C88 1.348 . S
C84 C83 1.359 . S
C84 C85 1.380 . S
C84 H112 0.929 . S
C85 C84 1.380 . S
C85 C86 1.347 . S
C85 H113 0.931 . S
C86 C85 1.347 . S
C86 C87 1.369 . S
C87 C86 1.369 . S
C87 C88 1.408 . S
C87 H114 0.930 . S
C88 C83 1.348 . S
C88 C87 1.408 . S
C88 H115 0.930 . S
C89 O102 1.281 . S
C89 O103 1.254 . S
C90 O104 1.219 1_655 S
C90 O105 1.266 . S
C91 Tb81 2.809 . S
C91 C92 1.514 . S
C91 O106 1.248 . S
C91 O107 1.266 . S
C92 C91 1.514 . S
C92 C93 1.359 . S
C92 C97 1.348 . S
C93 C92 1.359 . S
C93 C94 1.380 . S
C93 H116 0.929 . S
C94 C93 1.380 . S
C94 C95 1.347 . S
C94 H117 0.931 . S
C95 C94 1.347 . S
C95 C96 1.369 . S
C96 C95 1.369 . S
C96 C97 1.408 . S
C96 H118 0.930 . S
C97 C92 1.348 . S
C97 C96 1.408 . S
C97 H119 0.930 . S
C98 O108 1.276 1_655 S
C98 O109 1.254 . S
C99 O110 1.254 . S
C99 O111 1.266 . S
O100 Tb80 2.484 . S
O100 C82 1.248 . S
O101 Tb80 2.440 . S
O101 C82 1.266 . S
O102 Tb80 2.658 . S
O102 Tb81 2.325 1_455 S
O102 C89 1.281 . S
O103 Tb80 2.409 . S
O103 C89 1.254 . S
O104 Tb80 2.387 . S
O104 C90 1.219 1_455 S
O105 Tb81 2.341 . S
O105 C90 1.266 . S
O106 Tb81 2.484 . S
O106 C91 1.248 . S
O107 Tb81 2.440 . S
O107 C91 1.266 . S
O108 Tb80 2.331 . S
O108 Tb81 2.656 1_455 S
O108 C98 1.276 1_455 S
O109 Tb81 2.409 . S
O109 C98 1.254 . S
O110 Tb81 2.369 1_455 S
O110 C99 1.254 . S
O111 Tb80 2.341 . S
O111 C99 1.266 . S
H112 C84 0.929 . S
H113 C85 0.931 . S
H114 C87 0.930 . S
H115 C88 0.930 . S
H116 C93 0.929 . S
H117 C94 0.931 . S
H118 C96 0.930 . S
H119 C97 0.930 . S
Tb120 C122 2.809 . S
Tb120 O140 2.484 . S
Tb120 O141 2.440 . S
Tb120 O142 2.658 1_554 S
Tb120 O143 2.409 . S
Tb120 O144 2.378 . S
Tb120 O148 2.325 . S
Tb120 O151 2.341 1_554 S
Tb121 C131 2.809 . S
Tb121 O142 2.325 1_565 S
Tb121 O145 2.341 1_556 S
Tb121 O146 2.484 . S
Tb121 O147 2.440 . S
Tb121 O148 2.658 1_566 S
Tb121 O149 2.409 . S
Tb121 O150 2.378 1_565 S
C122 Tb120 2.809 . S
C122 C123 1.514 . S
C122 O140 1.248 . S
C122 O141 1.266 . S
C123 C122 1.514 . S
C123 C124 1.359 . S
C123 C128 1.348 . S
C124 C123 1.359 . S
C124 C125 1.380 . S
C124 H152 0.929 . S
C125 C124 1.380 . S
C125 C126 1.347 . S
C125 H153 0.931 . S
C126 C125 1.347 . S
C126 C127 1.369 . S
C127 C126 1.369 . S
C127 C128 1.408 . S
C127 H154 0.930 . S
C128 C123 1.348 . S
C128 C127 1.408 . S
C128 H155 0.930 . S
C129 O142 1.281 1_554 S
C129 O143 1.254 . S
C130 O144 1.236 1_565 S
C130 O145 1.266 . S
C131 Tb121 2.809 . S
C131 C132 1.514 . S
C131 O146 1.248 . S
C131 O147 1.266 . S
C132 C131 1.514 . S
C132 C133 1.359 . S
C132 C137 1.348 . S
C133 C132 1.359 . S
C133 C134 1.380 . S
C133 H156 0.929 . S
C134 C133 1.380 . S
C134 C135 1.347 . S
C134 H157 0.931 . S
C135 C134 1.347 . S
C135 C136 1.369 . S
C136 C135 1.369 . S
C136 C137 1.408 . S
C136 H158 0.930 . S
C137 C132 1.348 . S
C137 C136 1.408 . S
C137 H159 0.930 . S
C138 O148 1.281 1_565 S
C138 O149 1.254 1_554 S
C139 O150 1.236 . S
C139 O151 1.266 . S
O140 Tb120 2.484 . S
O140 C122 1.248 . S
O141 Tb120 2.440 . S
O141 C122 1.266 . S
O142 Tb120 2.658 1_556 S
O142 Tb121 2.325 1_545 S
O142 C129 1.281 1_556 S
O143 Tb120 2.409 . S
O143 C129 1.254 . S
O144 Tb120 2.378 . S
O144 C130 1.236 1_545 S
O145 Tb121 2.341 1_554 S
O145 C130 1.266 . S
O146 Tb121 2.484 . S
O146 C131 1.248 . S
O147 Tb121 2.440 . S
O147 C131 1.266 . S
O148 Tb120 2.325 . S
O148 Tb121 2.658 1_544 S
O148 C138 1.281 1_545 S
O149 Tb121 2.409 . S
O149 C138 1.254 1_556 S
O150 Tb121 2.378 1_545 S
O150 C139 1.236 . S
O151 Tb120 2.341 1_556 S
O151 C139 1.266 . S
H152 C124 0.929 . S
H153 C125 0.931 . S
H154 C127 0.930 . S
H155 C128 0.930 . S
H156 C133 0.929 . S
H157 C134 0.931 . S
H158 C136 0.930 . S
H159 C137 0.930 . S
Tb160 C162 2.809 . S
Tb160 O180 2.484 . S
Tb160 O181 2.440 . S
Tb160 O182 2.658 1_655 S
Tb160 O183 2.409 1_655 S
Tb160 O184 2.378 . S
Tb160 O188 2.325 . S
Tb160 O191 2.341 . S
Tb161 C171 2.809 1_655 S
Tb161 O182 2.325 1_655 S
Tb161 O185 2.341 1_655 S
Tb161 O186 2.484 1_655 S
Tb161 O187 2.440 . S
Tb161 O188 2.658 . S
Tb161 O189 2.409 . S
Tb161 O190 2.378 . S
C162 Tb160 2.809 . S
C162 C163 1.514 . S
C162 O180 1.248 . S
C162 O181 1.266 . S
C163 C162 1.514 . S
C163 C164 1.359 . S
C163 C168 1.348 . S
C164 C163 1.359 . S
C164 C165 1.380 . S
C164 H192 0.929 . S
C165 C164 1.380 . S
C165 C166 1.347 . S
C165 H193 0.931 . S
C166 C165 1.347 . S
C166 C167 1.369 . S
C167 C166 1.369 . S
C167 C168 1.408 . S
C167 H194 0.930 . S
C168 C163 1.348 . S
C168 C167 1.408 . S
C168 H195 0.930 . S
C169 O182 1.281 . S
C169 O183 1.254 . S
C170 O184 1.236 . S
C170 O185 1.266 1_655 S
C171 Tb161 2.809 1_455 S
C171 C172 1.514 . S
C171 O186 1.248 . S
C171 O187 1.266 1_455 S
C172 C171 1.514 . S
C172 C173 1.359 . S
C172 C177 1.348 . S
C173 C172 1.359 . S
C173 C174 1.380 . S
C173 H196 0.929 . S
C174 C173 1.380 . S
C174 C175 1.347 . S
C174 H197 0.931 . S
C175 C174 1.347 . S
C175 C176 1.369 . S
C176 C175 1.369 . S
C176 C177 1.408 . S
C176 H198 0.930 . S
C177 C172 1.348 . S
C177 C176 1.408 . S
C177 H199 0.930 1_455 S
C178 O188 1.281 . S
C178 O189 1.254 . S
C179 O190 1.236 . S
C179 O191 1.266 . S
O180 Tb160 2.484 . S
O180 C162 1.248 . S
O181 Tb160 2.440 . S
O181 C162 1.266 . S
O182 Tb160 2.658 1_455 S
O182 Tb161 2.325 1_455 S
O182 C169 1.281 . S
O183 Tb160 2.409 1_455 S
O183 C169 1.254 . S
O184 Tb160 2.378 . S
O184 C170 1.236 . S
O185 Tb161 2.341 1_455 S
O185 C170 1.266 1_455 S
O186 Tb161 2.484 1_455 S
O186 C171 1.248 . S
O187 Tb161 2.440 . S
O187 C171 1.266 1_655 S
O188 Tb160 2.325 . S
O188 Tb161 2.658 . S
O188 C178 1.281 . S
O189 Tb161 2.409 . S
O189 C178 1.254 . S
O190 Tb161 2.378 . S
O190 C179 1.236 . S
O191 Tb160 2.341 . S
O191 C179 1.266 . S
H192 C164 0.929 . S
H193 C165 0.931 . S
H194 C167 0.930 . S
H195 C168 0.930 . S
H196 C173 0.929 . S
H197 C174 0.931 . S
H198 C176 0.930 . S
H199 C177 0.930 1_655 S
Tb200 C202 2.809 . S
Tb200 O220 2.484 . S
Tb200 O221 2.440 . S
Tb200 O222 2.658 1_565 S
Tb200 O223 2.409 1_565 S
Tb200 O224 2.378 . S
Tb200 O228 2.325 . S
Tb200 O231 2.341 . S
Tb201 C211 2.809 1_565 S
Tb201 O222 2.325 1_565 S
Tb201 O225 2.341 1_565 S
Tb201 O226 2.484 1_565 S
Tb201 O227 2.440 . S
Tb201 O228 2.658 . S
Tb201 O229 2.409 . S
Tb201 O230 2.378 . S
C202 Tb200 2.809 . S
C202 C203 1.514 . S
C202 O220 1.248 . S
C202 O221 1.266 . S
C203 C202 1.514 . S
C203 C204 1.359 . S
C203 C208 1.348 . S
C204 C203 1.359 . S
C204 C205 1.380 . S
C204 H232 0.929 . S
C205 C204 1.380 . S
C205 C206 1.347 . S
C205 H233 0.931 . S
C206 C205 1.347 . S
C206 C207 1.369 . S
C207 C206 1.369 . S
C207 C208 1.408 . S
C207 H234 0.930 . S
C208 C203 1.348 . S
C208 C207 1.408 . S
C208 H235 0.930 . S
C209 O222 1.281 . S
C209 O223 1.254 . S
C210 O224 1.236 . S
C210 O225 1.266 1_565 S
C211 Tb201 2.809 1_545 S
C211 C212 1.514 . S
C211 O226 1.248 . S
C211 O227 1.266 1_545 S
C212 C211 1.514 . S
C212 C213 1.359 . S
C212 C217 1.348 . S
C213 C212 1.359 . S
C213 C214 1.380 . S
C213 H236 0.929 . S
C214 C213 1.380 . S
C214 C215 1.347 . S
C214 H237 0.931 . S
C215 C214 1.347 . S
C215 C216 1.369 . S
C216 C215 1.369 . S
C216 C217 1.408 . S
C216 H238 0.930 . S
C217 C212 1.348 . S
C217 C216 1.408 . S
C217 H239 0.930 1_545 S
C218 O228 1.281 . S
C218 O229 1.254 . S
C219 O230 1.236 . S
C219 O231 1.266 . S
O220 Tb200 2.484 . S
O220 C202 1.248 . S
O221 Tb200 2.440 . S
O221 C202 1.266 . S
O222 Tb200 2.658 1_545 S
O222 Tb201 2.325 1_545 S
O222 C209 1.281 . S
O223 Tb200 2.409 1_545 S
O223 C209 1.254 . S
O224 Tb200 2.378 . S
O224 C210 1.236 . S
O225 Tb201 2.341 1_545 S
O225 C210 1.266 1_545 S
O226 Tb201 2.484 1_545 S
O226 C211 1.248 . S
O227 Tb201 2.440 . S
O227 C211 1.266 1_565 S
O228 Tb200 2.325 . S
O228 Tb201 2.658 . S
O228 C218 1.281 . S
O229 Tb201 2.409 . S
O229 C218 1.254 . S
O230 Tb201 2.378 . S
O230 C219 1.236 . S
O231 Tb200 2.341 . S
O231 C219 1.266 . S
H232 C204 0.929 . S
H233 C205 0.931 . S
H234 C207 0.930 . S
H235 C208 0.930 . S
H236 C213 0.929 . S
H237 C214 0.931 . S
H238 C216 0.930 . S
H239 C217 0.930 1_565 S
H240 C246 0.930 1_565 S
H241 C250 0.930 . S
H242 C255 0.929 . S
H243 C253 0.929 . S
H244 C248 0.929 . S
H245 C254 0.929 . S
C246 H240 0.930 1_545 S
C246 C247 1.367 . S
C246 C254 1.378 1_655 S
C247 C246 1.367 . S
C247 C255 1.433 1_554 S
C248 H244 0.929 . S
C248 C250 1.378 . S
C248 C252 1.350 1_556 S
C249 C252 1.463 . S
C249 C254 1.350 . S
C249 N257 1.427 1_554 S
C250 H241 0.930 . S
C250 C248 1.378 . S
C250 C251 1.367 1_556 S
C251 C250 1.367 1_554 S
C251 C253 1.433 . S
C252 C248 1.350 1_554 S
C252 C249 1.463 . S
C252 N256 1.427 . S
C253 H243 0.929 . S
C253 C251 1.433 . S
C253 N256 1.384 . S
C254 H245 0.929 . S
C254 C246 1.378 1_455 S
C254 C249 1.350 . S
C255 H242 0.929 . S
C255 C247 1.433 1_556 S
C255 N257 1.384 1_655 S
N256 C252 1.427 . S
N256 C253 1.384 . S
N257 C249 1.427 1_556 S
N257 C255 1.384 1_455 S
H258 C264 0.930 . S
H259 C268 0.930 . S
H260 C273 0.929 1_565 S
H261 C271 0.929 . S
H262 C266 0.929 . S
H263 C272 0.929 . S
C264 H258 0.930 . S
C264 C265 1.367 . S
C264 C272 1.378 1_565 S
C265 C264 1.367 . S
C265 C273 1.433 1_565 S
C266 H262 0.929 . S
C266 C268 1.378 . S
C266 C270 1.350 . S
C267 C270 1.463 . S
C267 C272 1.350 . S
C267 N275 1.427 . S
C268 H259 0.930 . S
C268 C266 1.378 . S
C268 C269 1.367 . S
C269 C268 1.367 . S
C269 C271 1.433 . S
C270 C266 1.350 . S
C270 C267 1.463 . S
C270 N274 1.427 . S
C271 H261 0.929 . S
C271 C269 1.433 . S
C271 N274 1.384 . S
C272 H263 0.929 . S
C272 C264 1.378 1_545 S
C272 C267 1.350 . S
C273 H260 0.929 1_545 S
C273 C265 1.433 1_545 S
C273 N275 1.384 . S
N274 C270 1.427 . S
N274 C271 1.384 . S
N275 C267 1.427 . S
N275 C273 1.384 . S
H276 C282 0.930 . S
H277 C286 0.930 . S
H278 C291 0.929 . S
H279 C289 0.929 1_655 S
H280 C284 0.929 . S
H281 C290 0.929 . S
C282 H276 0.930 . S
C282 C283 1.367 . S
C282 C290 1.378 . S
C283 C282 1.367 . S
C283 C291 1.433 . S
C284 H280 0.929 . S
C284 C286 1.378 . S
C284 C288 1.350 . S
C285 C288 1.463 . S
C285 C290 1.350 . S
C285 N293 1.427 . S
C286 H277 0.930 . S
C286 C284 1.378 . S
C286 C287 1.367 . S
C287 C286 1.367 . S
C287 C289 1.433 . S
C288 C284 1.350 . S
C288 C285 1.463 . S
C288 N292 1.427 . S
C289 H279 0.929 1_455 S
C289 C287 1.433 . S
C289 N292 1.384 . S
C290 H281 0.929 . S
C290 C282 1.378 . S
C290 C285 1.350 . S
C291 H278 0.929 . S
C291 C283 1.433 . S
C291 N293 1.384 . S
N292 C288 1.427 . S
N292 C289 1.384 . S
N293 C285 1.427 . S
N293 C291 1.384 . S
H294 C300 0.930 . S
H295 C304 0.930 . S
H296 C309 0.929 . S
H297 C307 0.929 . S
H298 C302 0.929 . S
H299 C308 0.929 . S
C300 H294 0.930 . S
C300 C301 1.367 . S
C300 C308 1.378 . S
C301 C300 1.367 . S
C301 C309 1.433 . S
C302 H298 0.929 . S
C302 C304 1.378 . S
C302 C306 1.350 . S
C303 C306 1.463 . S
C303 C308 1.350 . S
C303 N311 1.427 . S
C304 H295 0.930 . S
C304 C302 1.378 . S
C304 C305 1.367 . S
C305 C304 1.367 . S
C305 C307 1.433 . S
C306 C302 1.350 . S
C306 C303 1.463 . S
C306 N310 1.427 . S
C307 H297 0.929 . S
C307 C305 1.433 . S
C307 N310 1.384 . S
C308 H299 0.929 . S
C308 C300 1.378 . S
C308 C303 1.350 . S
C309 H296 0.929 . S
C309 C301 1.433 . S
C309 N311 1.384 . S
N310 C306 1.427 . S
N310 C307 1.384 . S
N311 C303 1.427 . S
N311 C309 1.384 . S
H312 C318 0.930 . S
H313 C322 0.930 . S
H314 C327 0.929 . S
H315 C325 0.929 . S
H316 C320 0.929 . S
H317 C326 0.929 . S
C318 H312 0.930 . S
C318 C319 1.367 . S
C318 C326 1.378 . S
C319 C318 1.367 . S
C319 C327 1.433 . S
C320 H316 0.929 . S
C320 C322 1.378 . S
C320 C324 1.350 . S
C321 C324 1.463 1_455 S
C321 C326 1.350 . S
C321 N329 1.427 . S
C322 H313 0.930 . S
C322 C320 1.378 . S
C322 C323 1.367 . S
C323 C322 1.367 . S
C323 C325 1.433 . S
C324 C320 1.350 . S
C324 C321 1.463 1_655 S
C324 N328 1.427 . S
C325 H315 0.929 . S
C325 C323 1.433 . S
C325 N328 1.384 . S
C326 H317 0.929 . S
C326 C318 1.378 . S
C326 C321 1.350 . S
C327 H314 0.929 . S
C327 C319 1.433 . S
C327 N329 1.384 . S
N328 C324 1.427 . S
N328 C325 1.384 . S
N329 C321 1.427 . S
N329 C327 1.384 . S
H330 C336 0.930 . S
H331 C340 0.930 . S
H332 C345 0.929 . S
H333 C343 0.929 . S
H334 C338 0.921 1_545 S
H335 C344 0.929 . S
C336 H330 0.930 . S
C336 C337 1.367 . S
C336 C344 1.378 . S
C337 C336 1.367 . S
C337 C345 1.433 . S
C338 H334 0.921 1_565 S
C338 C340 1.387 . S
C338 C342 1.349 . S
C339 C342 1.463 1_545 S
C339 C344 1.350 . S
C339 N347 1.427 . S
C340 H331 0.930 . S
C340 C338 1.387 . S
C340 C341 1.367 . S
C341 C340 1.367 . S
C341 C343 1.433 . S
C342 C338 1.349 . S
C342 C339 1.463 1_565 S
C342 N346 1.427 . S
C343 H333 0.929 . S
C343 C341 1.433 . S
C343 N346 1.384 . S
C344 H335 0.929 . S
C344 C336 1.378 . S
C344 C339 1.350 . S
C345 H332 0.929 . S
C345 C337 1.433 . S
C345 N347 1.384 . S
N346 C342 1.427 . S
N346 C343 1.384 . S
N347 C339 1.427 . S
N347 C345 1.384 . S
H348 C354 0.930 . S
H349 C358 0.930 . S
H350 C363 0.929 . S
H351 C361 0.931 . S
H352 C356 0.929 . S
H353 C362 0.929 . S
C354 H348 0.930 . S
C354 C355 1.367 . S
C354 C362 1.378 . S
C355 C354 1.367 . S
C355 C363 1.433 . S
C356 H352 0.929 . S
C356 C358 1.378 1_655 S
C356 C360 1.350 . S
C357 C360 1.463 . S
C357 C362 1.350 . S
C357 N365 1.427 . S
C358 H349 0.930 . S
C358 C356 1.378 1_455 S
C358 C359 1.367 . S
C359 C358 1.367 . S
C359 C361 1.433 1_455 S
C360 C356 1.350 . S
C360 C357 1.463 . S
C360 N364 1.427 . S
C361 H351 0.931 . S
C361 C359 1.433 1_655 S
C361 N364 1.384 . S
C362 H353 0.929 . S
C362 C354 1.378 . S
C362 C357 1.350 . S
C363 H350 0.929 . S
C363 C355 1.433 . S
C363 N365 1.384 . S
N364 C360 1.427 . S
N364 C361 1.384 . S
N365 C357 1.427 . S
N365 C363 1.384 . S
H366 C372 0.930 . S
H367 C376 0.930 . S
H368 C381 0.929 . S
H369 C379 0.929 . S
H370 C374 0.929 . S
H371 C380 0.929 . S
C372 H366 0.930 . S
C372 C373 1.367 . S
C372 C380 1.378 . S
C373 C372 1.367 . S
C373 C381 1.433 . S
C374 H370 0.929 . S
C374 C376 1.378 1_565 S
C374 C378 1.350 . S
C375 C378 1.463 . S
C375 C380 1.350 . S
C375 N383 1.427 . S
C376 H367 0.930 . S
C376 C374 1.378 1_545 S
C376 C377 1.367 . S
C377 C376 1.367 . S
C377 C379 1.433 . S
C378 C374 1.350 . S
C378 C375 1.463 . S
C378 N382 1.427 . S
C379 H369 0.929 . S
C379 C377 1.433 . S
C379 N382 1.384 1_545 S
C380 H371 0.929 . S
C380 C372 1.378 . S
C380 C375 1.350 . S
C381 H368 0.929 . S
C381 C373 1.433 . S
C381 N383 1.384 . S
N382 C378 1.427 . S
N382 C379 1.384 1_565 S
N383 C375 1.427 . S
N383 C381 1.384 . S
H384 C390 0.930 . S
H385 C394 0.930 . S
H386 C399 0.929 . S
H387 C397 0.929 . S
H388 C392 0.929 . S
H389 C398 0.929 . S
C390 H384 0.930 . S
C390 C391 1.367 . S
C390 C398 1.378 . S
C391 C390 1.367 . S
C391 C399 1.433 . S
C392 H388 0.929 . S
C392 C394 1.378 . S
C392 C396 1.350 . S
C393 C396 1.463 . S
C393 C398 1.350 . S
C393 N401 1.427 . S
C394 H385 0.930 . S
C394 C392 1.378 . S
C394 C395 1.367 . S
C395 C394 1.367 . S
C395 C397 1.433 . S
C396 C392 1.350 . S
C396 C393 1.463 . S
C396 N400 1.427 . S
C397 H387 0.929 . S
C397 C395 1.433 . S
C397 N400 1.384 . S
C398 H389 0.929 . S
C398 C390 1.378 . S
C398 C393 1.350 . S
C399 H386 0.929 . S
C399 C391 1.433 . S
C399 N401 1.384 . S
N400 C396 1.427 . S
N400 C397 1.384 . S
N401 C393 1.427 . S
N401 C399 1.384 . S
H402 C408 0.930 . S
H403 C412 0.930 1_565 S
H404 C417 0.929 . S
H405 C415 0.929 . S
H406 C410 0.929 . S
H407 C416 0.929 . S
C408 H402 0.930 . S
C408 C409 1.367 . S
C408 C416 1.378 . S
C409 C408 1.367 . S
C409 C417 1.433 1_554 S
C410 H406 0.929 . S
C410 C412 1.378 . S
C410 C414 1.350 1_556 S
C411 C414 1.463 . S
C411 C416 1.350 . S
C411 N419 1.427 1_554 S
C412 H403 0.930 1_545 S
C412 C410 1.378 . S
C412 C413 1.367 1_556 S
C413 C412 1.367 1_554 S
C413 C415 1.433 . S
C414 C410 1.350 1_554 S
C414 C411 1.463 . S
C414 N418 1.427 . S
C415 H405 0.929 . S
C415 C413 1.433 . S
C415 N418 1.384 . S
C416 H407 0.929 . S
C416 C408 1.378 . S
C416 C411 1.350 . S
C417 H404 0.929 . S
C417 C409 1.433 1_556 S
C417 N419 1.384 . S
N418 C414 1.427 . S
N418 C415 1.384 . S
N419 C411 1.427 1_556 S
N419 C417 1.384 . S
H420 C426 0.930 . S
H421 C430 0.930 . S
H422 C435 0.929 . S
H423 C433 0.929 . S
H424 C428 0.929 . S
H425 C434 0.929 . S
C426 H420 0.930 . S
C426 C427 1.367 . S
C426 C434 1.378 . S
C427 C426 1.367 . S
C427 C435 1.433 . S
C428 H424 0.929 . S
C428 C430 1.378 . S
C428 C432 1.350 . S
C429 C432 1.463 . S
C429 C434 1.350 . S
C429 N437 1.427 . S
C430 H421 0.930 . S
C430 C428 1.378 . S
C430 C431 1.367 . S
C431 C430 1.367 . S
C431 C433 1.433 . S
C432 C428 1.350 . S
C432 C429 1.463 . S
C432 N436 1.427 . S
C433 H423 0.929 . S
C433 C431 1.433 . S
C433 N436 1.384 . S
C434 H425 0.929 . S
C434 C426 1.378 . S
C434 C429 1.350 . S
C435 H422 0.929 . S
C435 C427 1.433 . S
C435 N437 1.384 . S
N436 C432 1.427 . S
N436 C433 1.384 . S
N437 C429 1.427 . S
N437 C435 1.384 . S
H438 C444 0.930 1_655 S
H439 C448 0.930 . S
H440 C453 0.929 . S
H441 C451 0.929 . S
H442 C446 0.929 . S
H443 C452 0.929 . S
C444 H438 0.930 1_455 S
C444 C445 1.367 . S
C444 C452 1.378 . S
C445 C444 1.367 . S
C445 C453 1.433 . S
C446 H442 0.929 . S
C446 C448 1.378 . S
C446 C450 1.350 . S
C447 C450 1.463 . S
C447 C452 1.350 . S
C447 N455 1.427 . S
C448 H439 0.930 . S
C448 C446 1.378 . S
C448 C449 1.367 . S
C449 C448 1.367 . S
C449 C451 1.433 . S
C450 C446 1.350 . S
C450 C447 1.463 . S
C450 N454 1.427 . S
C451 H441 0.929 . S
C451 C449 1.433 . S
C451 N454 1.384 . S
C452 H443 0.929 . S
C452 C444 1.378 . S
C452 C447 1.350 . S
C453 H440 0.929 . S
C453 C445 1.433 . S
C453 N455 1.384 . S
N454 C450 1.427 . S
N454 C451 1.384 . S
N455 C447 1.427 . S
N455 C453 1.384 . S
H456 C462 0.930 . S
H457 C466 0.930 . S
H458 C471 0.929 . S
H459 C469 0.929 . S
H460 C464 0.929 . S
H461 C470 0.929 . S
C462 H456 0.930 . S
C462 C463 1.367 . S
C462 C470 1.378 . S
C463 C462 1.367 . S
C463 C471 1.433 . S
C464 H460 0.929 . S
C464 C466 1.378 . S
C464 C468 1.350 . S
C465 C468 1.463 . S
C465 C470 1.350 . S
C465 N473 1.427 . S
C466 H457 0.930 . S
C466 C464 1.378 . S
C466 C467 1.367 . S
C467 C466 1.367 . S
C467 C469 1.433 . S
C468 C464 1.350 . S
C468 C465 1.463 . S
C468 N472 1.427 . S
C469 H459 0.929 . S
C469 C467 1.433 . S
C469 N472 1.384 . S
C470 H461 0.929 . S
C470 C462 1.378 . S
C470 C465 1.350 . S
C471 H458 0.929 . S
C471 C463 1.433 . S
C471 N473 1.384 . S
N472 C468 1.427 . S
N472 C469 1.384 . S
N473 C465 1.427 . S
N473 C471 1.384 . S
H474 C480 0.930 . S
H475 C484 0.930 . S
H476 C489 0.929 . S
H477 C487 0.929 . S
H478 C482 0.929 . S
H479 C488 0.929 . S
C480 H474 0.930 . S
C480 C481 1.367 . S
C480 C488 1.378 . S
C481 C480 1.367 . S
C481 C489 1.433 . S
C482 H478 0.929 . S
C482 C484 1.378 . S
C482 C486 1.350 . S
C483 C486 1.463 . S
C483 C488 1.350 . S
C483 N491 1.427 . S
C484 H475 0.930 . S
C484 C482 1.378 . S
C484 C485 1.367 . S
C485 C484 1.367 . S
C485 C487 1.433 . S
C486 C482 1.350 . S
C486 C483 1.463 . S
C486 N490 1.427 . S
C487 H477 0.929 . S
C487 C485 1.433 . S
C487 N490 1.384 . S
C488 H479 0.929 . S
C488 C480 1.378 . S
C488 C483 1.350 . S
C489 H476 0.929 . S
C489 C481 1.433 . S
C489 N491 1.384 . S
N490 C486 1.427 . S
N490 C487 1.384 . S
N491 C483 1.427 . S
N491 C489 1.384 . S
H492 C498 0.930 . S
H493 C502 0.930 . S
H494 C507 0.929 . S
H495 C505 0.929 . S
H496 C500 0.929 . S
H497 C506 0.929 . S
C498 H492 0.930 . S
C498 C499 1.367 . S
C498 C506 1.378 . S
C499 C498 1.367 . S
C499 C507 1.433 . S
C500 H496 0.929 . S
C500 C502 1.378 . S
C500 C504 1.350 . S
C501 C504 1.463 . S
C501 C506 1.350 . S
C501 N509 1.427 . S
C502 H493 0.930 . S
C502 C500 1.378 . S
C502 C503 1.367 . S
C503 C502 1.367 . S
C503 C505 1.433 . S
C504 C500 1.350 . S
C504 C501 1.463 . S
C504 N508 1.427 . S
C505 H495 0.929 . S
C505 C503 1.433 . S
C505 N508 1.384 . S
C506 H497 0.929 . S
C506 C498 1.378 . S
C506 C501 1.350 . S
C507 H494 0.929 . S
C507 C499 1.433 . S
C507 N509 1.384 . S
N508 C504 1.427 . S
N508 C505 1.384 . S
N509 C501 1.427 . S
N509 C507 1.384 . S
H510 C516 0.930 . S
H511 C520 0.930 . S
H512 C525 0.929 1_545 S
H513 C523 0.929 . S
H514 C518 0.929 . S
H515 C524 0.929 . S
C516 H510 0.930 . S
C516 C517 1.367 . S
C516 C524 1.378 . S
C517 C516 1.367 . S
C517 C525 1.433 . S
C518 H514 0.929 . S
C518 C520 1.378 . S
C518 C522 1.350 . S
C519 C522 1.463 . S
C519 C524 1.350 . S
C519 N527 1.427 . S
C520 H511 0.930 . S
C520 C518 1.378 . S
C520 C521 1.367 . S
C521 C520 1.367 . S
C521 C523 1.433 . S
C522 C518 1.350 . S
C522 C519 1.463 . S
C522 N526 1.427 . S
C523 H513 0.929 . S
C523 C521 1.433 . S
C523 N526 1.384 . S
C524 H515 0.929 . S
C524 C516 1.378 . S
C524 C519 1.350 . S
C525 H512 0.929 1_565 S
C525 C517 1.433 . S
C525 N527 1.384 . S
N526 C522 1.427 . S
N526 C523 1.384 . S
N527 C519 1.427 . S
N527 C525 1.384 . S
H528 C534 0.930 . S
H529 C538 0.930 . S
H530 C543 0.929 . S
H531 C541 0.929 . S
H532 C536 0.929 . S
H533 C542 0.929 . S
C534 H528 0.930 . S
C534 C535 1.367 . S
C534 C542 1.378 . S
C535 C534 1.367 . S
C535 C543 1.433 . S
C536 H532 0.929 . S
C536 C538 1.378 . S
C536 C540 1.350 . S
C537 C540 1.463 . S
C537 C542 1.350 . S
C537 N545 1.427 . S
C538 H529 0.930 . S
C538 C536 1.378 . S
C538 C539 1.367 . S
C539 C538 1.367 . S
C539 C541 1.433 . S
C540 C536 1.350 . S
C540 C537 1.463 . S
C540 N544 1.427 . S
C541 H531 0.929 . S
C541 C539 1.433 . S
C541 N544 1.384 . S
C542 H533 0.929 . S
C542 C534 1.378 . S
C542 C537 1.350 . S
C543 H530 0.929 . S
C543 C535 1.433 . S
C543 N545 1.384 . S
N544 C540 1.427 . S
N544 C541 1.384 . S
N545 C537 1.427 . S
N545 C543 1.384 . S
H546 C552 0.930 . S
H547 C556 0.930 . S
H548 C561 0.929 . S
H549 C559 0.929 . S
H550 C554 0.929 . S
H551 C560 0.929 1_565 S
C552 H546 0.930 . S
C552 C553 1.367 1_565 S
C552 C560 1.378 1_565 S
C553 C552 1.367 1_545 S
C553 C561 1.433 . S
C554 H550 0.929 . S
C554 C556 1.378 . S
C554 C558 1.350 . S
C555 C558 1.463 . S
C555 C560 1.350 . S
C555 N563 1.427 . S
C556 H547 0.930 . S
C556 C554 1.378 . S
C556 C557 1.367 . S
C557 C556 1.367 . S
C557 C559 1.433 . S
C558 C554 1.350 . S
C558 C555 1.463 . S
C558 N562 1.427 . S
C559 H549 0.929 . S
C559 C557 1.433 . S
C559 N562 1.384 . S
C560 H551 0.929 1_545 S
C560 C552 1.378 1_545 S
C560 C555 1.350 . S
C561 H548 0.929 . S
C561 C553 1.433 . S
C561 N563 1.384 . S
N562 C558 1.427 . S
N562 C559 1.384 . S
N563 C555 1.427 . S
N563 C561 1.384 . S
C247 C129 0.696 . S
C251 C9 0.706 . S
C265 C169 0.673 . S
C269 C49 0.663 . S
C283 C209 0.663 . S
C287 C89 0.673 . S
C301 C15 0.773 . S
C305 C86 0.760 . S
C319 C55 0.768 . S
C323 C126 0.789 . S
C337 C95 0.753 . S
C341 C166 0.753 . S
C355 C135 0.790 . S
C359 C206 0.795 . S
C373 C175 0.757 . S
C377 C6 0.753 . S
C391 C215 0.793 . S
C395 C46 0.794 . S
C409 C18 1.492 . S
C413 C138 1.488 1_545 S
C427 C58 1.489 . S
C431 C178 1.493 . S
C445 C98 1.489 1_455 S
C449 C218 1.494 . S
C463 C10 4.047 . S
C467 C59 4.102 . S
C481 C50 4.049 . S
C485 C99 4.104 . S
C499 C90 4.047 . S
C503 C139 4.104 . S
C517 C130 4.050 . S
C521 C179 4.105 . S
C535 C170 4.050 1_455 S
C539 C219 4.104 . S
C553 C210 4.049 1_545 S
C557 C19 4.103 . S
